# generated using pymatgen
data_Mg11(Al2Cu)6
_symmetry_space_group_name_H-M   'P 1'
_cell_length_a   14.19994073
_cell_length_b   14.19994073
_cell_length_c   14.19994073
_cell_angle_alpha   60.00000000
_cell_angle_beta   60.00000000
_cell_angle_gamma   60.00000000
_symmetry_Int_Tables_number   1
_chemical_formula_structural   Mg11(Al2Cu)6
_chemical_formula_sum   'Mg44 Al48 Cu24'
_cell_volume   2024.62500748
_cell_formula_units_Z   4
loop_
 _symmetry_equiv_pos_site_id
 _symmetry_equiv_pos_as_xyz
  1  'x, y, z'
loop_
 _atom_site_type_symbol
 _atom_site_label
 _atom_site_symmetry_multiplicity
 _atom_site_fract_x
 _atom_site_fract_y
 _atom_site_fract_z
 _atom_site_occupancy
  Mg  Mg0  1  0.75000000  0.75000000  0.75000000  1
  Mg  Mg1  1  0.00000000  0.00000000  0.00000000  1
  Mg  Mg2  1  0.74372811  0.74372811  0.13718909  1
  Mg  Mg3  1  0.74372811  0.13718909  0.37535469  1
  Mg  Mg4  1  0.74372811  0.37535469  0.74372811  1
  Mg  Mg5  1  0.74372811  0.74372811  0.37535469  1
  Mg  Mg6  1  0.74372811  0.13718909  0.74372811  1
  Mg  Mg7  1  0.74372811  0.37535469  0.13718909  1
  Mg  Mg8  1  0.13718909  0.74372811  0.74372811  1
  Mg  Mg9  1  0.37535469  0.74372811  0.13718909  1
  Mg  Mg10  1  0.13718909  0.74372811  0.37535469  1
  Mg  Mg11  1  0.37535469  0.74372811  0.74372811  1
  Mg  Mg12  1  0.13718909  0.37535469  0.74372811  1
  Mg  Mg13  1  0.37535469  0.13718909  0.74372811  1
  Mg  Mg14  1  0.00627189  0.00627189  0.61281091  1
  Mg  Mg15  1  0.00627189  0.61281091  0.37464531  1
  Mg  Mg16  1  0.00627189  0.37464531  0.00627189  1
  Mg  Mg17  1  0.00627189  0.00627189  0.37464531  1
  Mg  Mg18  1  0.00627189  0.61281091  0.00627189  1
  Mg  Mg19  1  0.00627189  0.37464531  0.61281091  1
  Mg  Mg20  1  0.61281091  0.00627189  0.00627189  1
  Mg  Mg21  1  0.37464531  0.00627189  0.61281091  1
  Mg  Mg22  1  0.61281091  0.00627189  0.37464531  1
  Mg  Mg23  1  0.37464531  0.00627189  0.00627189  1
  Mg  Mg24  1  0.61281091  0.37464531  0.00627189  1
  Mg  Mg25  1  0.37464531  0.61281091  0.00627189  1
  Mg  Mg26  1  0.49740452  0.83419849  0.83419849  1
  Mg  Mg27  1  0.83419849  0.49740452  0.83419849  1
  Mg  Mg28  1  0.83419849  0.83419849  0.49740452  1
  Mg  Mg29  1  0.83419849  0.83419849  0.83419849  1
  Mg  Mg30  1  0.25259548  0.91580151  0.91580151  1
  Mg  Mg31  1  0.91580151  0.25259548  0.91580151  1
  Mg  Mg32  1  0.91580151  0.91580151  0.25259548  1
  Mg  Mg33  1  0.91580151  0.91580151  0.91580151  1
  Mg  Mg34  1  0.15619400  0.15619400  0.53141800  1
  Mg  Mg35  1  0.15619400  0.53141800  0.15619400  1
  Mg  Mg36  1  0.15619400  0.15619400  0.15619400  1
  Mg  Mg37  1  0.53141800  0.15619400  0.15619400  1
  Mg  Mg38  1  0.59380600  0.59380600  0.21858200  1
  Mg  Mg39  1  0.59380600  0.21858200  0.59380600  1
  Mg  Mg40  1  0.59380600  0.59380600  0.59380600  1
  Mg  Mg41  1  0.21858200  0.59380600  0.59380600  1
  Mg  Mg42  1  0.25000000  0.25000000  0.25000000  1
  Mg  Mg43  1  0.50000000  0.50000000  0.50000000  1
  Al  Al0  1  0.79822513  0.60633168  0.98911151  1
  Al  Al1  1  0.79822513  0.98911151  0.60633168  1
  Al  Al2  1  0.79822513  0.60633168  0.60633168  1
  Al  Al3  1  0.60633168  0.79822513  0.60633168  1
  Al  Al4  1  0.98911151  0.79822513  0.60633168  1
  Al  Al5  1  0.60633168  0.79822513  0.98911151  1
  Al  Al6  1  0.98911151  0.60633168  0.79822513  1
  Al  Al7  1  0.60633168  0.60633168  0.79822513  1
  Al  Al8  1  0.60633168  0.98911151  0.79822513  1
  Al  Al9  1  0.60633168  0.98911151  0.60633168  1
  Al  Al10  1  0.60633168  0.60633168  0.98911151  1
  Al  Al11  1  0.98911151  0.60633168  0.60633168  1
  Al  Al12  1  0.95177487  0.14366832  0.76088849  1
  Al  Al13  1  0.95177487  0.76088849  0.14366832  1
  Al  Al14  1  0.95177487  0.14366832  0.14366832  1
  Al  Al15  1  0.14366832  0.95177487  0.14366832  1
  Al  Al16  1  0.76088849  0.95177487  0.14366832  1
  Al  Al17  1  0.14366832  0.95177487  0.76088849  1
  Al  Al18  1  0.76088849  0.14366832  0.95177487  1
  Al  Al19  1  0.14366832  0.14366832  0.95177487  1
  Al  Al20  1  0.14366832  0.76088849  0.95177487  1
  Al  Al21  1  0.14366832  0.76088849  0.14366832  1
  Al  Al22  1  0.14366832  0.14366832  0.76088849  1
  Al  Al23  1  0.76088849  0.14366832  0.14366832  1
  Al  Al24  1  0.01635074  0.39041239  0.20282449  1
  Al  Al25  1  0.01635074  0.20282449  0.39041239  1
  Al  Al26  1  0.01635074  0.39041239  0.39041239  1
  Al  Al27  1  0.39041239  0.01635074  0.39041239  1
  Al  Al28  1  0.20282449  0.01635074  0.39041239  1
  Al  Al29  1  0.39041239  0.01635074  0.20282449  1
  Al  Al30  1  0.20282449  0.39041239  0.01635074  1
  Al  Al31  1  0.39041239  0.39041239  0.01635074  1
  Al  Al32  1  0.39041239  0.20282449  0.01635074  1
  Al  Al33  1  0.39041239  0.20282449  0.39041239  1
  Al  Al34  1  0.39041239  0.39041239  0.20282449  1
  Al  Al35  1  0.20282449  0.39041239  0.39041239  1
  Al  Al36  1  0.73364926  0.35958761  0.54717551  1
  Al  Al37  1  0.73364926  0.54717551  0.35958761  1
  Al  Al38  1  0.73364926  0.35958761  0.35958761  1
  Al  Al39  1  0.35958761  0.73364926  0.35958761  1
  Al  Al40  1  0.54717551  0.73364926  0.35958761  1
  Al  Al41  1  0.35958761  0.73364926  0.54717551  1
  Al  Al42  1  0.54717551  0.35958761  0.73364926  1
  Al  Al43  1  0.35958761  0.35958761  0.73364926  1
  Al  Al44  1  0.35958761  0.54717551  0.73364926  1
  Al  Al45  1  0.35958761  0.54717551  0.35958761  1
  Al  Al46  1  0.35958761  0.35958761  0.54717551  1
  Al  Al47  1  0.54717551  0.35958761  0.35958761  1
  Cu  Cu0  1  0.92082501  0.57581142  0.25168178  1
  Cu  Cu1  1  0.92082501  0.25168178  0.25168178  1
  Cu  Cu2  1  0.92082501  0.25168178  0.57581142  1
  Cu  Cu3  1  0.57581142  0.92082501  0.25168178  1
  Cu  Cu4  1  0.25168178  0.92082501  0.57581142  1
  Cu  Cu5  1  0.25168178  0.92082501  0.25168178  1
  Cu  Cu6  1  0.25168178  0.25168178  0.92082501  1
  Cu  Cu7  1  0.25168178  0.57581142  0.92082501  1
  Cu  Cu8  1  0.57581142  0.25168178  0.92082501  1
  Cu  Cu9  1  0.25168178  0.25168178  0.57581142  1
  Cu  Cu10  1  0.57581142  0.25168178  0.25168178  1
  Cu  Cu11  1  0.25168178  0.57581142  0.25168178  1
  Cu  Cu12  1  0.82917499  0.17418858  0.49831822  1
  Cu  Cu13  1  0.82917499  0.49831822  0.49831822  1
  Cu  Cu14  1  0.82917499  0.49831822  0.17418858  1
  Cu  Cu15  1  0.17418858  0.82917499  0.49831822  1
  Cu  Cu16  1  0.49831822  0.82917499  0.17418858  1
  Cu  Cu17  1  0.49831822  0.82917499  0.49831822  1
  Cu  Cu18  1  0.49831822  0.49831822  0.82917499  1
  Cu  Cu19  1  0.49831822  0.17418858  0.82917499  1
  Cu  Cu20  1  0.17418858  0.49831822  0.82917499  1
  Cu  Cu21  1  0.49831822  0.49831822  0.17418858  1
  Cu  Cu22  1  0.17418858  0.49831822  0.49831822  1
  Cu  Cu23  1  0.49831822  0.17418858  0.49831822  1
loop_
_geom_bond_atom_site_label_1
_geom_bond_atom_site_label_2
_geom_bond_distance
_geom_bond_site_symmetry_2
Mg0 Mg29 2.928643 1_555
Mg0 Mg26 2.928643 1_555
Mg0 Mg28 2.928643 1_555
Mg0 Mg27 2.928643 1_555
Mg1 Mg33 2.928643 1_444
Mg1 Mg30 2.928643 1_544
Mg1 Mg31 2.928643 1_454
Mg1 Mg32 2.928643 1_445
Mg26 Mg30 2.838366 1_555
Mg27 Mg31 2.838366 1_555
Mg28 Mg32 2.838366 1_555
Mg29 Mg33 2.838366 1_555
Mg34 Mg42 3.262817 1_555
Mg35 Mg42 3.262817 1_555
Mg36 Mg42 3.262817 1_555
Mg37 Mg42 3.262817 1_555
Mg38 Mg43 3.262817 1_555
Mg39 Mg43 3.262817 1_555
Mg40 Mg43 3.262817 1_555
Mg41 Mg43 3.262817 1_555
Al0 Cu14 2.429502 1_556
Al0 Mg29 2.996836 1_555
Al0 Mg27 2.996836 1_555
Al0 Mg7 3.129228 1_556
Al0 Mg2 3.129228 1_556
Al0 Mg16 3.132020 1_656
Al0 Mg18 3.132020 1_656
Al0 Mg0 3.187581 1_555
Al1 Cu12 2.429502 1_565
Al1 Mg29 2.996836 1_555
Al1 Mg28 2.996836 1_555
Al1 Mg3 3.129228 1_565
Al1 Mg6 3.129228 1_565
Al1 Mg17 3.132020 1_665
Al1 Mg14 3.132020 1_665
Al1 Mg0 3.187581 1_555
Al2 Cu13 2.429502 1_555
Al2 Mg27 2.996836 1_555
Al2 Mg28 2.996836 1_555
Al2 Mg4 3.129228 1_555
Al2 Mg5 3.129228 1_555
Al2 Mg15 3.132020 1_655
Al2 Mg19 3.132020 1_655
Al2 Mg0 3.187581 1_555
Al3 Cu17 2.429502 1_555
Al3 Mg28 2.996836 1_555
Al3 Mg26 2.996836 1_555
Al3 Mg11 3.129228 1_555
Al3 Mg5 3.129228 1_555
Al3 Mg22 3.132020 1_565
Al3 Mg21 3.132020 1_565
Al3 Mg0 3.187581 1_555
Al4 Cu15 2.429502 1_655
Al4 Mg29 2.996836 1_555
Al4 Mg28 2.996836 1_555
Al4 Mg10 3.129228 1_655
Al4 Mg8 3.129228 1_655
Al4 Mg17 3.132020 1_665
Al4 Mg14 3.132020 1_665
Al4 Mg0 3.187581 1_555
Al5 Cu16 2.429502 1_556
Al5 Mg29 2.996836 1_555
Al5 Mg26 2.996836 1_555
Al5 Mg9 3.129228 1_556
Al5 Mg2 3.129228 1_556
Al5 Mg23 3.132020 1_566
Al5 Mg20 3.132020 1_566
Al5 Mg0 3.187581 1_555
Al6 Cu20 2.429502 1_655
Al6 Mg29 2.996836 1_555
Al6 Mg27 2.996836 1_555
Al6 Mg12 3.129228 1_655
Al6 Mg8 3.129228 1_655
Al6 Mg16 3.132020 1_656
Al6 Mg18 3.132020 1_656
Al6 Mg0 3.187581 1_555
Al7 Cu18 2.429502 1_555
Al7 Mg27 2.996836 1_555
Al7 Mg26 2.996836 1_555
Al7 Mg4 3.129228 1_555
Al7 Mg11 3.129228 1_555
Al7 Mg25 3.132020 1_556
Al7 Mg24 3.132020 1_556
Al7 Mg0 3.187581 1_555
Al8 Cu19 2.429502 1_565
Al8 Mg29 2.996836 1_555
Al8 Mg26 2.996836 1_555
Al8 Mg13 3.129228 1_565
Al8 Mg6 3.129228 1_565
Al8 Mg23 3.132020 1_566
Al8 Mg20 3.132020 1_566
Al8 Mg0 3.187581 1_555
Al9 Cu23 2.429502 1_565
Al9 Mg26 2.996836 1_555
Al9 Mg28 2.996836 1_555
Al9 Mg13 3.129228 1_565
Al9 Mg3 3.129228 1_565
Al9 Mg21 3.132020 1_565
Al9 Mg22 3.132020 1_565
Al9 Mg0 3.187581 1_555
Al10 Cu21 2.429502 1_556
Al10 Mg27 2.996836 1_555
Al10 Mg26 2.996836 1_555
Al10 Mg7 3.129228 1_556
Al10 Mg9 3.129228 1_556
Al10 Mg24 3.132020 1_556
Al10 Mg25 3.132020 1_556
Al10 Mg0 3.187581 1_555
Al11 Cu22 2.429502 1_655
Al11 Mg27 2.996836 1_555
Al11 Mg28 2.996836 1_555
Al11 Mg12 3.129228 1_655
Al11 Mg10 3.129228 1_655
Al11 Mg19 3.132020 1_655
Al11 Mg15 3.132020 1_655
Al11 Mg0 3.187581 1_555
Al12 Cu2 2.429502 1_555
Al12 Mg33 2.996836 1_545
Al12 Mg31 2.996836 1_555
Al12 Mg14 3.129228 1_655
Al12 Mg19 3.129228 1_655
Al12 Mg6 3.132020 1_555
Al12 Mg4 3.132020 1_555
Al12 Mg1 3.187581 1_656
Al13 Cu0 2.429502 1_555
Al13 Mg33 2.996836 1_554
Al13 Mg32 2.996836 1_555
Al13 Mg15 3.129228 1_655
Al13 Mg18 3.129228 1_655
Al13 Mg5 3.132020 1_555
Al13 Mg2 3.132020 1_555
Al13 Mg1 3.187581 1_665
Al14 Cu1 2.429502 1_555
Al14 Mg32 2.996836 1_545
Al14 Mg31 2.996836 1_554
Al14 Mg17 3.129228 1_655
Al14 Mg16 3.129228 1_655
Al14 Mg3 3.132020 1_555
Al14 Mg7 3.132020 1_555
Al14 Mg1 3.187581 1_655
Al15 Cu5 2.429502 1_555
Al15 Mg32 2.996836 1_455
Al15 Mg30 2.996836 1_554
Al15 Mg23 3.129228 1_565
Al15 Mg17 3.129228 1_565
Al15 Mg10 3.132020 1_555
Al15 Mg9 3.132020 1_555
Al15 Mg1 3.187581 1_565
Al16 Cu3 2.429502 1_555
Al16 Mg33 2.996836 1_554
Al16 Mg32 2.996836 1_555
Al16 Mg22 3.129228 1_565
Al16 Mg20 3.129228 1_565
Al16 Mg2 3.132020 1_555
Al16 Mg5 3.132020 1_555
Al16 Mg1 3.187581 1_665
Al17 Cu4 2.429502 1_555
Al17 Mg33 2.996836 1_455
Al17 Mg30 2.996836 1_555
Al17 Mg21 3.129228 1_565
Al17 Mg14 3.129228 1_565
Al17 Mg8 3.132020 1_555
Al17 Mg11 3.132020 1_555
Al17 Mg1 3.187581 1_566
Al18 Cu8 2.429502 1_555
Al18 Mg33 2.996836 1_545
Al18 Mg31 2.996836 1_555
Al18 Mg24 3.129228 1_556
Al18 Mg20 3.129228 1_556
Al18 Mg6 3.132020 1_555
Al18 Mg4 3.132020 1_555
Al18 Mg1 3.187581 1_656
Al19 Cu6 2.429502 1_555
Al19 Mg31 2.996836 1_455
Al19 Mg30 2.996836 1_545
Al19 Mg23 3.129228 1_556
Al19 Mg16 3.129228 1_556
Al19 Mg13 3.132020 1_555
Al19 Mg12 3.132020 1_555
Al19 Mg1 3.187581 1_556
Al20 Cu7 2.429502 1_555
Al20 Mg33 2.996836 1_455
Al20 Mg30 2.996836 1_555
Al20 Mg25 3.129228 1_556
Al20 Mg18 3.129228 1_556
Al20 Mg8 3.132020 1_555
Al20 Mg11 3.132020 1_555
Al20 Mg1 3.187581 1_566
Al21 Cu11 2.429502 1_555
Al21 Mg30 2.996836 1_554
Al21 Mg32 2.996836 1_455
Al21 Mg15 3.129228 1_555
Al21 Mg25 3.129228 1_555
Al21 Mg9 3.132020 1_555
Al21 Mg10 3.132020 1_555
Al21 Mg1 3.187581 1_565
Al22 Cu9 2.429502 1_555
Al22 Mg31 2.996836 1_455
Al22 Mg30 2.996836 1_545
Al22 Mg21 3.129228 1_555
Al22 Mg19 3.129228 1_555
Al22 Mg12 3.132020 1_555
Al22 Mg13 3.132020 1_555
Al22 Mg1 3.187581 1_556
Al23 Cu10 2.429502 1_555
Al23 Mg32 2.996836 1_545
Al23 Mg31 2.996836 1_554
Al23 Mg24 3.129228 1_555
Al23 Mg22 3.129228 1_555
Al23 Mg3 3.132020 1_555
Al23 Mg7 3.132020 1_555
Al23 Mg1 3.187581 1_655
Al24 Cu14 2.441855 1_455
Al24 Cu0 2.562513 1_455
Al24 Cu1 2.562513 1_455
Al24 Al30 2.647916 1_555
Al24 Al26 2.663737 1_555
Al24 Al25 2.663737 1_555
Al24 Mg18 2.986113 1_555
Al24 Mg16 2.986113 1_555
Al24 Mg42 3.115080 1_555
Al24 Mg35 3.118680 1_555
Al24 Mg36 3.118680 1_555
Al25 Cu12 2.441855 1_455
Al25 Cu2 2.562513 1_455
Al25 Cu1 2.562513 1_455
Al25 Al28 2.647916 1_555
Al25 Al26 2.663737 1_555
Al25 Mg14 2.986113 1_555
Al25 Mg17 2.986113 1_555
Al25 Mg42 3.115080 1_555
Al25 Mg34 3.118680 1_555
Al25 Mg36 3.118680 1_555
Al26 Cu13 2.441855 1_455
Al26 Cu0 2.562513 1_455
Al26 Cu2 2.562513 1_455
Al26 Al35 2.647916 1_555
Al26 Mg15 2.986113 1_555
Al26 Mg19 2.986113 1_555
Al26 Mg42 3.115080 1_555
Al26 Mg34 3.118680 1_555
Al26 Mg35 3.118680 1_555
Al27 Cu17 2.441855 1_545
Al27 Cu4 2.562513 1_545
Al27 Cu3 2.562513 1_545
Al27 Al33 2.647916 1_555
Al27 Al28 2.663737 1_555
Al27 Al29 2.663737 1_555
Al27 Mg21 2.986113 1_555
Al27 Mg22 2.986113 1_555
Al27 Mg42 3.115080 1_555
Al27 Mg37 3.118680 1_555
Al27 Mg34 3.118680 1_555
Al28 Cu15 2.441855 1_545
Al28 Cu4 2.562513 1_545
Al28 Cu5 2.562513 1_545
Al28 Al29 2.663737 1_555
Al28 Mg14 2.986113 1_555
Al28 Mg17 2.986113 1_555
Al28 Mg42 3.115080 1_555
Al28 Mg34 3.118680 1_555
Al28 Mg36 3.118680 1_555
Al29 Cu16 2.441855 1_545
Al29 Cu3 2.562513 1_545
Al29 Cu5 2.562513 1_545
Al29 Al32 2.647916 1_555
Al29 Mg20 2.986113 1_555
Al29 Mg23 2.986113 1_555
Al29 Mg42 3.115080 1_555
Al29 Mg37 3.118680 1_555
Al29 Mg36 3.118680 1_555
Al30 Cu20 2.441855 1_554
Al30 Cu7 2.562513 1_554
Al30 Cu6 2.562513 1_554
Al30 Al31 2.663737 1_555
Al30 Al32 2.663737 1_555
Al30 Mg18 2.986113 1_555
Al30 Mg16 2.986113 1_555
Al30 Mg42 3.115080 1_555
Al30 Mg35 3.118680 1_555
Al30 Mg36 3.118680 1_555
Al31 Cu18 2.441855 1_554
Al31 Cu7 2.562513 1_554
Al31 Cu8 2.562513 1_554
Al31 Al34 2.647916 1_555
Al31 Al32 2.663737 1_555
Al31 Mg24 2.986113 1_555
Al31 Mg25 2.986113 1_555
Al31 Mg42 3.115080 1_555
Al31 Mg35 3.118680 1_555
Al31 Mg37 3.118680 1_555
Al32 Cu19 2.441855 1_554
Al32 Cu8 2.562513 1_554
Al32 Cu6 2.562513 1_554
Al32 Mg20 2.986113 1_555
Al32 Mg23 2.986113 1_555
Al32 Mg42 3.115080 1_555
Al32 Mg37 3.118680 1_555
Al32 Mg36 3.118680 1_555
Al33 Cu23 2.441855 1_555
Al33 Cu10 2.562513 1_555
Al33 Cu9 2.562513 1_555
Al33 Al34 2.663737 1_555
Al33 Al35 2.663737 1_555
Al33 Mg21 2.986113 1_555
Al33 Mg22 2.986113 1_555
Al33 Mg42 3.115080 1_555
Al33 Mg34 3.118680 1_555
Al33 Mg37 3.118680 1_555
Al34 Cu21 2.441855 1_555
Al34 Cu10 2.562513 1_555
Al34 Cu11 2.562513 1_555
Al34 Al35 2.663737 1_555
Al34 Mg24 2.986113 1_555
Al34 Mg25 2.986113 1_555
Al34 Mg42 3.115080 1_555
Al34 Mg37 3.118680 1_555
Al34 Mg35 3.118680 1_555
Al35 Cu22 2.441855 1_555
Al35 Cu11 2.562513 1_555
Al35 Cu9 2.562513 1_555
Al35 Mg15 2.986113 1_555
Al35 Mg19 2.986113 1_555
Al35 Mg42 3.115080 1_555
Al35 Mg34 3.118680 1_555
Al35 Mg35 3.118680 1_555
Al36 Cu2 2.441855 1_555
Al36 Cu12 2.562513 1_555
Al36 Cu13 2.562513 1_555
Al36 Al42 2.647916 1_555
Al36 Al37 2.663737 1_555
Al36 Al38 2.663737 1_555
Al36 Mg6 2.986113 1_555
Al36 Mg4 2.986113 1_555
Al36 Mg43 3.115080 1_555
Al36 Mg39 3.118680 1_555
Al36 Mg40 3.118680 1_555
Al37 Cu0 2.441855 1_555
Al37 Cu14 2.562513 1_555
Al37 Cu13 2.562513 1_555
Al37 Al40 2.647916 1_555
Al37 Al38 2.663737 1_555
Al37 Mg2 2.986113 1_555
Al37 Mg5 2.986113 1_555
Al37 Mg43 3.115080 1_555
Al37 Mg38 3.118680 1_555
Al37 Mg40 3.118680 1_555
Al38 Cu1 2.441855 1_555
Al38 Cu12 2.562513 1_555
Al38 Cu14 2.562513 1_555
Al38 Al47 2.647916 1_555
Al38 Mg3 2.986113 1_555
Al38 Mg7 2.986113 1_555
Al38 Mg43 3.115080 1_555
Al38 Mg38 3.118680 1_555
Al38 Mg39 3.118680 1_555
Al39 Cu5 2.441855 1_555
Al39 Cu15 2.562513 1_555
Al39 Cu16 2.562513 1_555
Al39 Al45 2.647916 1_555
Al39 Al40 2.663737 1_555
Al39 Al41 2.663737 1_555
Al39 Mg9 2.986113 1_555
Al39 Mg10 2.986113 1_555
Al39 Mg43 3.115080 1_555
Al39 Mg38 3.118680 1_555
Al39 Mg41 3.118680 1_555
Al40 Cu3 2.441855 1_555
Al40 Cu16 2.562513 1_555
Al40 Cu17 2.562513 1_555
Al40 Al41 2.663737 1_555
Al40 Mg2 2.986113 1_555
Al40 Mg5 2.986113 1_555
Al40 Mg43 3.115080 1_555
Al40 Mg38 3.118680 1_555
Al40 Mg40 3.118680 1_555
Al41 Cu4 2.441855 1_555
Al41 Cu15 2.562513 1_555
Al41 Cu17 2.562513 1_555
Al41 Al44 2.647916 1_555
Al41 Mg8 2.986113 1_555
Al41 Mg11 2.986113 1_555
Al41 Mg43 3.115080 1_555
Al41 Mg41 3.118680 1_555
Al41 Mg40 3.118680 1_555
Al42 Cu8 2.441855 1_555
Al42 Cu19 2.562513 1_555
Al42 Cu18 2.562513 1_555
Al42 Al43 2.663737 1_555
Al42 Al44 2.663737 1_555
Al42 Mg6 2.986113 1_555
Al42 Mg4 2.986113 1_555
Al42 Mg43 3.115080 1_555
Al42 Mg39 3.118680 1_555
Al42 Mg40 3.118680 1_555
Al43 Cu6 2.441855 1_555
Al43 Cu20 2.562513 1_555
Al43 Cu19 2.562513 1_555
Al43 Al46 2.647916 1_555
Al43 Al44 2.663737 1_555
Al43 Mg12 2.986113 1_555
Al43 Mg13 2.986113 1_555
Al43 Mg43 3.115080 1_555
Al43 Mg39 3.118680 1_555
Al43 Mg41 3.118680 1_555
Al44 Cu7 2.441855 1_555
Al44 Cu20 2.562513 1_555
Al44 Cu18 2.562513 1_555
Al44 Mg8 2.986113 1_555
Al44 Mg11 2.986113 1_555
Al44 Mg43 3.115080 1_555
Al44 Mg41 3.118680 1_555
Al44 Mg40 3.118680 1_555
Al45 Cu11 2.441855 1_555
Al45 Cu21 2.562513 1_555
Al45 Cu22 2.562513 1_555
Al45 Al46 2.663737 1_555
Al45 Al47 2.663737 1_555
Al45 Mg10 2.986113 1_555
Al45 Mg9 2.986113 1_555
Al45 Mg43 3.115080 1_555
Al45 Mg38 3.118680 1_555
Al45 Mg41 3.118680 1_555
Al46 Cu9 2.441855 1_555
Al46 Cu23 2.562513 1_555
Al46 Cu22 2.562513 1_555
Al46 Al47 2.663737 1_555
Al46 Mg13 2.986113 1_555
Al46 Mg12 2.986113 1_555
Al46 Mg43 3.115080 1_555
Al46 Mg39 3.118680 1_555
Al46 Mg41 3.118680 1_555
Al47 Cu10 2.441855 1_555
Al47 Cu21 2.562513 1_555
Al47 Cu23 2.562513 1_555
Al47 Mg3 2.986113 1_555
Al47 Mg7 2.986113 1_555
Al47 Mg43 3.115080 1_555
Al47 Mg38 3.118680 1_555
Al47 Mg39 3.118680 1_555
Cu0 Mg35 2.760878 1_655
Cu0 Mg18 2.910402 1_655
Cu0 Mg15 2.910402 1_655
Cu0 Mg2 2.977977 1_555
Cu0 Mg5 2.977977 1_555
Cu1 Mg36 2.760878 1_655
Cu1 Mg16 2.910402 1_655
Cu1 Mg17 2.910402 1_655
Cu1 Mg3 2.977977 1_555
Cu1 Mg7 2.977977 1_555
Cu2 Mg34 2.760878 1_655
Cu2 Mg14 2.910402 1_655
Cu2 Mg19 2.910402 1_655
Cu2 Mg6 2.977977 1_555
Cu2 Mg4 2.977977 1_555
Cu3 Mg37 2.760878 1_565
Cu3 Mg20 2.910402 1_565
Cu3 Mg22 2.910402 1_565
Cu3 Mg2 2.977977 1_555
Cu3 Mg5 2.977977 1_555
Cu4 Mg34 2.760878 1_565
Cu4 Mg14 2.910402 1_565
Cu4 Mg21 2.910402 1_565
Cu4 Mg8 2.977977 1_555
Cu4 Mg11 2.977977 1_555
Cu5 Mg36 2.760878 1_565
Cu5 Mg23 2.910402 1_565
Cu5 Mg17 2.910402 1_565
Cu5 Mg9 2.977977 1_555
Cu5 Mg10 2.977977 1_555
Cu6 Mg36 2.760878 1_556
Cu6 Mg16 2.910402 1_556
Cu6 Mg23 2.910402 1_556
Cu6 Mg12 2.977977 1_555
Cu6 Mg13 2.977977 1_555
Cu7 Mg35 2.760878 1_556
Cu7 Mg18 2.910402 1_556
Cu7 Mg25 2.910402 1_556
Cu7 Mg8 2.977977 1_555
Cu7 Mg11 2.977977 1_555
Cu8 Mg37 2.760878 1_556
Cu8 Mg20 2.910402 1_556
Cu8 Mg24 2.910402 1_556
Cu8 Mg6 2.977977 1_555
Cu8 Mg4 2.977977 1_555
Cu9 Mg34 2.760878 1_555
Cu9 Mg21 2.910402 1_555
Cu9 Mg19 2.910402 1_555
Cu9 Mg12 2.977977 1_555
Cu9 Mg13 2.977977 1_555
Cu10 Mg37 2.760878 1_555
Cu10 Mg24 2.910402 1_555
Cu10 Mg22 2.910402 1_555
Cu10 Mg3 2.977977 1_555
Cu10 Mg7 2.977977 1_555
Cu11 Mg35 2.760878 1_555
Cu11 Mg15 2.910402 1_555
Cu11 Mg25 2.910402 1_555
Cu11 Mg10 2.977977 1_555
Cu11 Mg9 2.977977 1_555
Cu12 Mg39 2.760878 1_555
Cu12 Mg6 2.910402 1_555
Cu12 Mg3 2.910402 1_555
Cu12 Mg14 2.977977 1_655
Cu12 Mg17 2.977977 1_655
Cu13 Mg40 2.760878 1_555
Cu13 Mg5 2.910402 1_555
Cu13 Mg4 2.910402 1_555
Cu13 Mg19 2.977977 1_655
Cu13 Mg15 2.977977 1_655
Cu14 Mg38 2.760878 1_555
Cu14 Mg2 2.910402 1_555
Cu14 Mg7 2.910402 1_555
Cu14 Mg18 2.977977 1_655
Cu14 Mg16 2.977977 1_655
Cu15 Mg41 2.760878 1_555
Cu15 Mg8 2.910402 1_555
Cu15 Mg10 2.910402 1_555
Cu15 Mg14 2.977977 1_565
Cu15 Mg17 2.977977 1_565
Cu16 Mg38 2.760878 1_555
Cu16 Mg2 2.910402 1_555
Cu16 Mg9 2.910402 1_555
Cu16 Mg20 2.977977 1_565
Cu16 Mg23 2.977977 1_565
Cu17 Mg40 2.760878 1_555
Cu17 Mg5 2.910402 1_555
Cu17 Mg11 2.910402 1_555
Cu17 Mg22 2.977977 1_565
Cu17 Mg21 2.977977 1_565
Cu18 Mg40 2.760878 1_555
Cu18 Mg4 2.910402 1_555
Cu18 Mg11 2.910402 1_555
Cu18 Mg25 2.977977 1_556
Cu18 Mg24 2.977977 1_556
Cu19 Mg39 2.760878 1_555
Cu19 Mg6 2.910402 1_555
Cu19 Mg13 2.910402 1_555
Cu19 Mg20 2.977977 1_556
Cu19 Mg23 2.977977 1_556
Cu20 Mg41 2.760878 1_555
Cu20 Mg8 2.910402 1_555
Cu20 Mg12 2.910402 1_555
Cu20 Mg18 2.977977 1_556
Cu20 Mg16 2.977977 1_556
Cu21 Mg38 2.760878 1_555
Cu21 Mg9 2.910402 1_555
Cu21 Mg7 2.910402 1_555
Cu21 Mg24 2.977977 1_555
Cu21 Mg25 2.977977 1_555
Cu22 Mg41 2.760878 1_555
Cu22 Mg12 2.910402 1_555
Cu22 Mg10 2.910402 1_555
Cu22 Mg15 2.977977 1_555
Cu22 Mg19 2.977977 1_555
Cu23 Mg39 2.760878 1_555
Cu23 Mg3 2.910402 1_555
Cu23 Mg13 2.910402 1_555
Cu23 Mg21 2.977977 1_555
Cu23 Mg22 2.977977 1_555
