# generated using pymatgen
data_Li9Mn2Co5O16
_symmetry_space_group_name_H-M   'P 1'
_cell_length_a   4.97526100
_cell_length_b   5.94733438
_cell_length_c   9.70659369
_cell_angle_alpha   82.76306477
_cell_angle_beta   86.13799939
_cell_angle_gamma   88.38707902
_symmetry_Int_Tables_number   1
_chemical_formula_structural   Li9Mn2Co5O16
_chemical_formula_sum   'Li9 Mn2 Co5 O16'
_cell_volume   284.22250323
_cell_formula_units_Z   1
loop_
 _symmetry_equiv_pos_site_id
 _symmetry_equiv_pos_as_xyz
  1  'x, y, z'
loop_
 _atom_site_type_symbol
 _atom_site_label
 _atom_site_symmetry_multiplicity
 _atom_site_fract_x
 _atom_site_fract_y
 _atom_site_fract_z
 _atom_site_occupancy
  Li  Li0  1  0.61711900  0.92985300  0.25371000  1
  Li  Li1  1  0.38210600  0.56270800  0.74553000  1
  Li  Li2  1  0.12148500  0.18338100  0.25345400  1
  Li  Li3  1  0.11839100  0.69001600  0.25427300  1
  Li  Li4  1  0.87265000  0.31672400  0.74761800  1
  Li  Li5  1  0.62718200  0.44277600  0.25485600  1
  Li  Li6  1  0.37890300  0.06567000  0.74605700  1
  Li  Li7  1  0.87860700  0.80581100  0.74626400  1
  Li  Li8  1  0.74957200  0.62510100  0.49923200  1
  Mn  Mn0  1  0.99938800  0.00066200  0.99963500  1
  Mn  Mn1  1  0.75229800  0.12156100  0.50182100  1
  Co  Co0  1  0.49944000  0.25281400  0.00028400  1
  Co  Co1  1  0.25657200  0.86840900  0.49818900  1
  Co  Co2  1  0.00018300  0.50025500  0.00027700  1
  Co  Co3  1  0.49960400  0.74776200  0.99987800  1
  Co  Co4  1  0.25035400  0.38021800  0.49974200  1
  O  O0  1  0.80052100  0.20641500  0.11837600  1
  O  O1  1  0.55173600  0.86618300  0.60882700  1
  O  O2  1  0.30084100  0.47558600  0.11541600  1
  O  O3  1  0.30541200  0.97661300  0.11492900  1
  O  O4  1  0.09943300  0.60554400  0.60493500  1
  O  O5  1  0.80243200  0.69704800  0.11857600  1
  O  O6  1  0.56072800  0.33438400  0.61170500  1
  O  O7  1  0.05181900  0.07170300  0.61564800  1
  O  O8  1  0.41944100  0.68182500  0.38101200  1
  O  O9  1  0.19616700  0.30362400  0.88212800  1
  O  O10  1  0.94449300  0.91557900  0.38983000  1
  O  O11  1  0.94010100  0.37894900  0.39336900  1
  O  O12  1  0.69366700  0.02531700  0.88391600  1
  O  O13  1  0.43094100  0.14888700  0.39418100  1
  O  O14  1  0.19764600  0.79278600  0.88295100  1
  O  O15  1  0.70076800  0.52583700  0.88338000  1
loop_
_geom_bond_atom_site_label_1
_geom_bond_atom_site_label_2
_geom_bond_distance
_geom_bond_site_symmetry_2
Li0 O8 2.031949 1_555
Li0 O3 2.111824 1_555
Li0 O13 2.150234 1_565
Li0 O0 2.154594 1_565
Li0 O10 2.158630 1_555
Li0 O5 2.170347 1_555
Li1 O4 2.013942 1_555
Li1 O9 2.094838 1_555
Li1 O6 2.131208 1_555
Li1 O15 2.131742 1_555
Li1 O14 2.172130 1_555
Li1 O1 2.249895 1_555
Li2 O11 2.045832 1_455
Li2 O3 2.084477 1_545
Li2 O10 2.110732 1_445
Li2 O13 2.115029 1_555
Li2 O0 2.124235 1_455
Li2 O2 2.225135 1_555
Li3 O8 1.997046 1_555
Li3 O5 2.114025 1_455
Li3 O2 2.114253 1_555
Li3 O10 2.122621 1_455
Li3 O3 2.222473 1_555
Li3 O11 2.309557 1_455
Li4 O15 2.053240 1_555
Li4 O6 2.095599 1_555
Li4 O9 2.133519 1_655
Li4 O7 2.191432 1_655
Li4 O12 2.213004 1_555
Li4 O4 2.332586 1_655
Li5 O5 2.052269 1_555
Li5 O11 2.120296 1_555
Li5 O2 2.172058 1_555
Li5 O0 2.172971 1_555
Li5 O8 2.185045 1_555
Li5 O13 2.271527 1_555
Li6 O1 2.026758 1_545
Li6 O6 2.114340 1_555
Li6 O12 2.116813 1_555
Li6 O7 2.124749 1_555
Li6 O14 2.142532 1_545
Li6 O9 2.193298 1_555
Li7 O7 2.067641 1_665
Li7 O14 2.129955 1_655
Li7 O12 2.131286 1_565
Li7 O4 2.154657 1_655
Li7 O1 2.166112 1_555
Li7 O15 2.166276 1_555
Li8 O8 2.062409 1_555
Li8 O11 2.065741 1_555
Li8 O4 2.072490 1_655
Li8 O1 2.078469 1_555
Li8 O6 2.131136 1_555
Li8 O10 2.132143 1_555
Mn0 O3 1.941125 1_646
Mn0 O12 1.942376 1_555
Mn0 O14 1.979356 1_645
Mn0 O0 1.984521 1_556
Mn0 O9 2.221955 1_655
Mn0 O5 2.230612 1_546
Mn1 O7 1.908854 1_655
Mn1 O10 1.930367 1_545
Mn1 O6 1.945098 1_555
Mn1 O13 1.960089 1_555
Mn1 O11 1.966344 1_555
Mn1 O1 1.982317 1_545
Co0 O0 1.939664 1_555
Co0 O9 1.950248 1_554
Co0 O2 2.032524 1_555
Co0 O12 2.050527 1_554
Co0 O3 2.086282 1_545
Co0 O15 2.098041 1_554
Co1 O8 1.823422 1_555
Co1 O1 1.875576 1_555
Co1 O4 1.918445 1_555
Co1 O10 1.927927 1_455
Co1 O7 1.980144 1_565
Co1 O13 2.023257 1_565
Co2 O2 1.918249 1_555
Co2 O15 1.923845 1_454
Co2 O9 1.938196 1_554
Co2 O5 1.943694 1_455
Co2 O14 2.176067 1_554
Co2 O0 2.189627 1_455
Co3 O14 1.935789 1_555
Co3 O5 1.951697 1_556
Co3 O15 2.042459 1_555
Co3 O3 2.048570 1_556
Co3 O2 2.083085 1_556
Co3 O12 2.097435 1_565
Co4 O4 1.893948 1_555
Co4 O11 1.914716 1_455
Co4 O6 1.941045 1_555
Co4 O13 1.977759 1_555
Co4 O8 2.164939 1_555
Co4 O7 2.245062 1_555
