# generated using pymatgen
data_YCCl
_symmetry_space_group_name_H-M   'P 1'
_cell_length_a   3.90769874
_cell_length_b   3.90769874
_cell_length_c   9.61790969
_cell_angle_alpha   85.11302268
_cell_angle_beta   85.11302268
_cell_angle_gamma   57.16066057
_symmetry_Int_Tables_number   1
_chemical_formula_structural   YCCl
_chemical_formula_sum   'Y2 C2 Cl2'
_cell_volume   122.81441896
_cell_formula_units_Z   2
loop_
 _symmetry_equiv_pos_site_id
 _symmetry_equiv_pos_as_xyz
  1  'x, y, z'
loop_
 _atom_site_type_symbol
 _atom_site_label
 _atom_site_symmetry_multiplicity
 _atom_site_fract_x
 _atom_site_fract_y
 _atom_site_fract_z
 _atom_site_occupancy
  Y  Y0  1  0.85491413  0.85491413  0.15494403  1
  Y  Y1  1  0.14508587  0.14508587  0.84505597  1
  C  C0  1  0.57340985  0.57340985  0.04067449  1
  C  C1  1  0.42659015  0.42659015  0.95932551  1
  Cl  Cl0  1  0.82247859  0.82247859  0.66774229  1
  Cl  Cl1  1  0.17752141  0.17752141  0.33225771  1
loop_
_geom_bond_atom_site_label_1
_geom_bond_atom_site_label_2
_geom_bond_distance
_geom_bond_site_symmetry_2
C0 C1 1.334335 1_554
C0 Y0 2.313527 1_555
C0 Y0 2.575159 1_545
C0 Y0 2.575159 1_455
C0 Y1 2.664003 1_564
C0 Y1 2.664003 1_654
C1 Y1 2.313527 1_555
C1 Y1 2.575159 1_565
C1 Y1 2.575159 1_655
C1 Y0 2.664003 1_456
C1 Y0 2.664003 1_546
Cl0 Y1 2.735396 1_565
Cl0 Y1 2.735396 1_655
Cl0 Y1 2.922855 1_665
Cl1 Y0 2.735396 1_545
Cl1 Y0 2.735396 1_455
Cl1 Y0 2.922855 1_445
