# generated using pymatgen
data_Sr2ZnSn
_symmetry_space_group_name_H-M   'P 1'
_cell_length_a   13.25068118
_cell_length_b   13.25068118
_cell_length_c   13.25068118
_cell_angle_alpha   120.80458697
_cell_angle_beta   120.11525873
_cell_angle_gamma   89.20627039
_symmetry_Int_Tables_number   1
_chemical_formula_structural   Sr2ZnSn
_chemical_formula_sum   'Sr2 Zn1 Sn1'
_cell_volume   1633.44610449
_cell_formula_units_Z   1
loop_
 _symmetry_equiv_pos_site_id
 _symmetry_equiv_pos_as_xyz
  1  'x, y, z'
loop_
 _atom_site_type_symbol
 _atom_site_label
 _atom_site_symmetry_multiplicity
 _atom_site_fract_x
 _atom_site_fract_y
 _atom_site_fract_z
 _atom_site_occupancy
  Sr  Sr0  1  0.73868200  0.00000000  0.73868200  1
  Sr  Sr1  1  0.26131800  0.00000000  0.26131800  1
  Zn  Zn0  1  0.00000000  0.00000000  0.00000000  1
  Sn  Sn0  1  0.50000000  0.00000000  0.50000000  1
loop_
_geom_bond_atom_site_label_1
_geom_bond_atom_site_label_2
_geom_bond_distance
_geom_bond_site_symmetry_2
Sr0 Zn0 3.456607 1_656
Sr1 Zn0 3.456607 1_555
Sn0 Sr0 3.157188 1_555
Sn0 Sr1 3.157188 1_555
