# generated using pymatgen
data_H6AuN2ClO4
_symmetry_space_group_name_H-M   'P 1'
_cell_length_a   7.93144000
_cell_length_b   8.15634202
_cell_length_c   11.91085497
_cell_angle_alpha   71.92879150
_cell_angle_beta   73.62642482
_cell_angle_gamma   66.16529616
_symmetry_Int_Tables_number   1
_chemical_formula_structural   H6AuN2ClO4
_chemical_formula_sum   'H24 Au4 N8 Cl4 O16'
_cell_volume   659.10226530
_cell_formula_units_Z   4
loop_
 _symmetry_equiv_pos_site_id
 _symmetry_equiv_pos_as_xyz
  1  'x, y, z'
loop_
 _atom_site_type_symbol
 _atom_site_label
 _atom_site_symmetry_multiplicity
 _atom_site_fract_x
 _atom_site_fract_y
 _atom_site_fract_z
 _atom_site_occupancy
  H  H0  1  0.72024500  0.46642700  0.94346900  1
  H  H1  1  0.27975500  0.53357300  0.05653100  1
  H  H2  1  0.63651100  0.64523200  0.00667900  1
  H  H3  1  0.36348900  0.35476800  0.99332100  1
  H  H4  1  0.24113700  0.52246600  0.62947200  1
  H  H5  1  0.75886300  0.47753400  0.37052800  1
  H  H6  1  0.12621900  0.40608000  0.74247900  1
  H  H7  1  0.87378100  0.59392000  0.25752100  1
  H  H8  1  0.81868600  0.94240000  0.92035700  1
  H  H9  1  0.18131400  0.05760000  0.07964300  1
  H  H10  1  0.71946100  0.89604500  0.51342300  1
  H  H11  1  0.28053900  0.10395500  0.48657700  1
  H  H12  1  0.92985100  0.06071500  0.80942200  1
  H  H13  1  0.07014900  0.93928500  0.19057800  1
  H  H14  1  0.63645400  0.07982000  0.57096200  1
  H  H15  1  0.36354600  0.92018000  0.42903800  1
  H  H16  1  0.72031400  0.06735000  0.80222500  1
  H  H17  1  0.27968600  0.93265000  0.19777500  1
  H  H18  1  0.68216200  0.10497200  0.42299100  1
  H  H19  1  0.31783800  0.89502800  0.57700900  1
  H  H20  1  0.68309700  0.43368400  0.09239000  1
  H  H21  1  0.31690300  0.56631600  0.90761000  1
  H  H22  1  0.03397000  0.52555100  0.62070100  1
  H  H23  1  0.96603000  0.47444900  0.37929900  1
  Au  Au0  1  0.00000000  0.50000000  0.00000000  1
  Au  Au1  1  0.00000000  0.00000000  0.50000000  1
  Au  Au2  1  0.97734600  0.75576000  0.75200200  1
  Au  Au3  1  0.02265400  0.24424000  0.24799800  1
  N  N0  1  0.72770800  0.51214700  0.01258000  1
  N  N1  1  0.27229200  0.48785300  0.98742000  1
  N  N2  1  0.11070100  0.52528600  0.67717700  1
  N  N3  1  0.88929900  0.47471400  0.32282300  1
  N  N4  1  0.84596800  0.98334900  0.82867500  1
  N  N5  1  0.15403200  0.01665100  0.17132500  1
  N  N6  1  0.72773300  0.02313000  0.50131000  1
  N  N7  1  0.27226700  0.97687000  0.49869000  1
  Cl  Cl0  1  0.67222800  0.96574300  0.15977600  1
  Cl  Cl1  1  0.32777200  0.03425700  0.84022400  1
  Cl  Cl2  1  0.35774000  0.49985200  0.33597000  1
  Cl  Cl3  1  0.64226000  0.50014800  0.66403000  1
  O  O0  1  0.55393100  0.38499300  0.30469900  1
  O  O1  1  0.44606900  0.61500700  0.69530100  1
  O  O2  1  0.59103900  0.86425100  0.12106500  1
  O  O3  1  0.40896100  0.13574900  0.87893500  1
  O  O4  1  0.25633500  0.38717800  0.42817200  1
  O  O5  1  0.74366500  0.61282200  0.57182800  1
  O  O6  1  0.27018400  0.57678100  0.22938400  1
  O  O7  1  0.72981600  0.42321900  0.77061600  1
  O  O8  1  0.34861400  0.64857300  0.38356500  1
  O  O9  1  0.65138600  0.35142700  0.61643500  1
  O  O10  1  0.61758800  0.15680200  0.09322400  1
  O  O11  1  0.38241200  0.84319800  0.90677600  1
  O  O12  1  0.60876200  0.95546800  0.28858100  1
  O  O13  1  0.39123800  0.04453200  0.71141900  1
  O  O14  1  0.87783200  0.87948800  0.13474100  1
  O  O15  1  0.12216800  0.12051200  0.86525900  1
loop_
_geom_bond_atom_site_label_1
_geom_bond_atom_site_label_2
_geom_bond_distance
_geom_bond_site_symmetry_2
H0 N0 1.027583 1_556
H1 N1 1.027583 1_554
H2 N0 1.026248 1_555
H3 N1 1.026248 1_555
H4 N2 1.025246 1_555
H5 N3 1.025246 1_555
H6 N2 1.026425 1_555
H7 N3 1.026425 1_555
H8 N4 1.024585 1_555
H9 N5 1.024585 1_555
H10 N6 1.027813 1_565
H11 N7 1.027813 1_545
H12 N4 1.028071 1_545
H13 N5 1.028071 1_565
H14 N6 1.027135 1_555
H15 N7 1.027135 1_555
H16 N4 1.026239 1_545
H17 N5 1.026239 1_565
H18 N6 1.027237 1_555
H19 N7 1.027237 1_555
H20 N0 1.026819 1_555
H21 N1 1.026819 1_555
H22 N2 1.025535 1_555
H23 N3 1.025535 1_555
Au0 N1 2.085729 1_554
Au0 N0 2.085729 1_455
Au1 N6 2.086316 1_455
Au1 N7 2.086316 1_545
Au2 N4 2.077872 1_555
Au2 N2 2.085125 1_655
Au3 N5 2.077872 1_555
Au3 N3 2.085125 1_455
Cl0 O10 1.458117 1_565
Cl0 O12 1.460492 1_555
Cl0 O2 1.465446 1_555
Cl0 O14 1.473750 1_555
Cl1 O11 1.458117 1_545
Cl1 O13 1.460492 1_555
Cl1 O3 1.465446 1_555
Cl1 O15 1.473750 1_555
Cl2 O8 1.459641 1_555
Cl2 O6 1.462315 1_555
Cl2 O0 1.466046 1_555
Cl2 O4 1.473349 1_555
Cl3 O9 1.459641 1_555
Cl3 O7 1.462315 1_555
Cl3 O1 1.466046 1_555
Cl3 O5 1.473349 1_555
