# generated using pymatgen
data_Eu2Mo3H2Se2O17
_symmetry_space_group_name_H-M   'P 1'
_cell_length_a   7.39966100
_cell_length_b   7.04136600
_cell_length_c   14.72505478
_cell_angle_alpha   79.75450159
_cell_angle_beta   90.00000000
_cell_angle_gamma   90.00000000
_symmetry_Int_Tables_number   1
_chemical_formula_structural   Eu2Mo3H2Se2O17
_chemical_formula_sum   'Eu4 Mo6 H4 Se4 O34'
_cell_volume   754.99641762
_cell_formula_units_Z   2
loop_
 _symmetry_equiv_pos_site_id
 _symmetry_equiv_pos_as_xyz
  1  'x, y, z'
loop_
 _atom_site_type_symbol
 _atom_site_label
 _atom_site_symmetry_multiplicity
 _atom_site_fract_x
 _atom_site_fract_y
 _atom_site_fract_z
 _atom_site_occupancy
  Eu  Eu0  1  0.25000000  0.38349700  0.54916400  1
  Eu  Eu1  1  0.75000000  0.61650300  0.45083600  1
  Eu  Eu2  1  0.25000000  0.75008000  0.11695600  1
  Eu  Eu3  1  0.75000000  0.24992000  0.88304400  1
  Mo  Mo0  1  0.00488300  0.21412200  0.14050100  1
  Mo  Mo1  1  0.50488300  0.78587800  0.85949900  1
  Mo  Mo2  1  0.99511700  0.78587800  0.85949900  1
  Mo  Mo3  1  0.49511700  0.21412200  0.14050100  1
  Mo  Mo4  1  0.75000000  0.12875600  0.33007200  1
  Mo  Mo5  1  0.25000000  0.87124400  0.66992800  1
  H  H0  1  0.35500700  0.25248200  0.36469100  1
  H  H1  1  0.85500700  0.74751800  0.63530900  1
  H  H2  1  0.64499300  0.74751800  0.63530900  1
  H  H3  1  0.14499300  0.25248200  0.36469100  1
  Se  Se0  1  0.25000000  0.78238000  0.38300500  1
  Se  Se1  1  0.75000000  0.21762000  0.61699500  1
  Se  Se2  1  0.75000000  0.76132100  0.18664800  1
  Se  Se3  1  0.25000000  0.23867900  0.81335200  1
  O  O0  1  0.07452600  0.65738600  0.44470400  1
  O  O1  1  0.57452600  0.34261400  0.55529600  1
  O  O2  1  0.92547400  0.34261400  0.55529600  1
  O  O3  1  0.42547400  0.65738600  0.44470400  1
  O  O4  1  0.25000000  0.71369300  0.27907200  1
  O  O5  1  0.75000000  0.28630700  0.72092800  1
  O  O6  1  0.75000000  0.80668900  0.29771500  1
  O  O7  1  0.25000000  0.19331100  0.70228500  1
  O  O8  1  0.93767800  0.89459700  0.14174800  1
  O  O9  1  0.43767800  0.10540300  0.85825200  1
  O  O10  1  0.06232200  0.10540300  0.85825200  1
  O  O11  1  0.56232200  0.89459700  0.14174800  1
  O  O12  1  0.25000000  0.10493100  0.13541300  1
  O  O13  1  0.75000000  0.89506900  0.86458700  1
  O  O14  1  0.94043600  0.24481900  0.02329200  1
  O  O15  1  0.44043600  0.75518100  0.97670800  1
  O  O16  1  0.05956400  0.75518100  0.97670800  1
  O  O17  1  0.55956400  0.24481900  0.02329200  1
  O  O18  1  0.07161900  0.44958900  0.14959900  1
  O  O19  1  0.57161900  0.55041100  0.85040100  1
  O  O20  1  0.92838100  0.55041100  0.85040100  1
  O  O21  1  0.42838100  0.44958900  0.14959900  1
  O  O22  1  0.99371100  0.11956200  0.28691100  1
  O  O23  1  0.49371100  0.88043800  0.71308900  1
  O  O24  1  0.00628900  0.88043800  0.71308900  1
  O  O25  1  0.50628900  0.11956200  0.28691100  1
  O  O26  1  0.75000000  0.23070300  0.17844500  1
  O  O27  1  0.25000000  0.76929700  0.82155500  1
  O  O28  1  0.75000000  0.36333200  0.35972000  1
  O  O29  1  0.25000000  0.63666800  0.64028000  1
  O  O30  1  0.75000000  0.97490800  0.43982300  1
  O  O31  1  0.25000000  0.02509200  0.56017700  1
  O  O32  1  0.25000000  0.30941700  0.39132900  1
  O  O33  1  0.75000000  0.69058300  0.60867100  1
loop_
_geom_bond_atom_site_label_1
_geom_bond_atom_site_label_2
_geom_bond_distance
_geom_bond_site_symmetry_2
Eu0 O7 2.408942 1_555
Eu0 O29 2.414306 1_555
Eu0 O1 2.418349 1_555
Eu0 O2 2.418349 1_455
Eu0 O32 2.470816 1_555
Eu0 O31 2.499915 1_555
Eu0 O3 2.591527 1_555
Eu0 O0 2.591527 1_555
Eu1 O6 2.408942 1_555
Eu1 O28 2.414306 1_555
Eu1 O0 2.418349 1_655
Eu1 O3 2.418349 1_555
Eu1 O33 2.470816 1_555
Eu1 O30 2.499915 1_555
Eu1 O2 2.591527 1_555
Eu1 O1 2.591527 1_555
Eu2 O4 2.355130 1_555
Eu2 O21 2.467476 1_555
Eu2 O18 2.467476 1_555
Eu2 O15 2.495100 1_554
Eu2 O16 2.495100 1_554
Eu2 O12 2.560980 1_565
Eu2 O11 2.577208 1_555
Eu2 O8 2.577208 1_455
Eu3 O5 2.355130 1_555
Eu3 O19 2.467476 1_555
Eu3 O20 2.467476 1_555
Eu3 O14 2.495100 1_556
Eu3 O17 2.495100 1_556
Eu3 O13 2.560980 1_545
Eu3 O10 2.577208 1_655
Eu3 O9 2.577208 1_555
Mo0 O18 1.757788 1_555
Mo0 O14 1.766407 1_455
Mo0 O26 1.976408 1_455
Mo0 O12 1.976626 1_555
Mo0 O22 2.141824 1_455
Mo0 O8 2.301078 1_445
Mo1 O19 1.757788 1_555
Mo1 O15 1.766407 1_555
Mo1 O27 1.976408 1_555
Mo1 O13 1.976626 1_555
Mo1 O23 2.141824 1_555
Mo1 O9 2.301078 1_565
Mo2 O20 1.757788 1_555
Mo2 O16 1.766407 1_655
Mo2 O27 1.976408 1_655
Mo2 O13 1.976626 1_555
Mo2 O24 2.141824 1_655
Mo2 O10 2.301078 1_665
Mo3 O21 1.757788 1_555
Mo3 O17 1.766407 1_555
Mo3 O26 1.976408 1_555
Mo3 O12 1.976626 1_555
Mo3 O25 2.141824 1_555
Mo3 O11 2.301078 1_545
Mo4 O30 1.778342 1_545
Mo4 O28 1.781948 1_555
Mo4 O22 1.917009 1_555
Mo4 O25 1.917009 1_555
Mo4 O26 2.220400 1_555
Mo4 O6 2.398805 1_545
Mo5 O31 1.778342 1_565
Mo5 O29 1.781948 1_555
Mo5 O23 1.917009 1_555
Mo5 O24 1.917009 1_555
Mo5 O27 2.220400 1_555
Mo5 O7 2.398805 1_565
H0 O32 0.987052 1_555
H1 O33 0.987052 1_555
H2 O33 0.987052 1_555
H3 O32 0.987052 1_555
O0 Se0 1.732500 1_555
O1 Se1 1.732500 1_555
O2 Se1 1.732500 1_555
O3 Se0 1.732500 1_555
O4 Se0 1.685055 1_555
O5 Se1 1.685055 1_555
O6 Se2 1.721237 1_555
O7 Se3 1.721237 1_555
O8 Se2 1.739461 1_555
O9 Se3 1.739461 1_555
O10 Se3 1.739461 1_555
O11 Se2 1.739461 1_555
