# generated using pymatgen
data_Ba11B26P2(H3O29)2
_symmetry_space_group_name_H-M   'P 1'
_cell_length_a   6.99159710
_cell_length_b   13.81818066
_cell_length_c   25.99447691
_cell_angle_alpha   90.00000000
_cell_angle_beta   89.95142788
_cell_angle_gamma   90.00000000
_symmetry_Int_Tables_number   1
_chemical_formula_structural   Ba11B26P2(H3O29)2
_chemical_formula_sum   'Ba22 B52 P4 H12 O116'
_cell_volume   2511.35545249
_cell_formula_units_Z   2
loop_
 _symmetry_equiv_pos_site_id
 _symmetry_equiv_pos_as_xyz
  1  'x, y, z'
loop_
 _atom_site_type_symbol
 _atom_site_label
 _atom_site_symmetry_multiplicity
 _atom_site_fract_x
 _atom_site_fract_y
 _atom_site_fract_z
 _atom_site_occupancy
  Ba  Ba0  1  0.15717465  0.32432371  0.80365436  1
  Ba  Ba1  1  0.84282535  0.82432371  0.69634564  1
  Ba  Ba2  1  0.84282535  0.67567629  0.19634564  1
  Ba  Ba3  1  0.15717465  0.17567629  0.30365436  1
  Ba  Ba4  1  0.86387324  0.32689372  0.65274225  1
  Ba  Ba5  1  0.13612676  0.82689372  0.84725775  1
  Ba  Ba6  1  0.13612676  0.67310628  0.34725775  1
  Ba  Ba7  1  0.86387324  0.17310628  0.15274225  1
  Ba  Ba8  1  0.00000000  0.50000000  0.50000000  1
  Ba  Ba9  1  0.00000000  -0.00000000  0.00000000  1
  Ba  Ba10  1  0.81042117  0.52197666  0.91555847  1
  Ba  Ba11  1  0.18957883  0.02197666  0.58444153  1
  Ba  Ba12  1  0.18957883  0.47802334  0.08444153  1
  Ba  Ba13  1  0.81042117  0.97802334  0.41555847  1
  Ba  Ba14  1  0.48018005  0.56245759  0.72569558  1
  Ba  Ba15  1  0.51981995  0.06245759  0.77430442  1
  Ba  Ba16  1  0.51981995  0.43754241  0.27430442  1
  Ba  Ba17  1  0.48018005  0.93754241  0.22569558  1
  Ba  Ba18  1  0.67448601  0.21459966  0.90870084  1
  Ba  Ba19  1  0.32551399  0.71459966  0.59129916  1
  Ba  Ba20  1  0.32551399  0.78540034  0.09129916  1
  Ba  Ba21  1  0.67448601  0.28540034  0.40870084  1
  B  B0  1  0.01314065  0.57552930  0.73976027  1
  B  B1  1  0.98685935  0.07552930  0.76023973  1
  B  B2  1  0.98685935  0.42447070  0.26023973  1
  B  B3  1  0.01314065  0.92447070  0.23976027  1
  B  B4  1  0.80982885  0.65891951  0.80587301  1
  B  B5  1  0.19017115  0.15891951  0.69412699  1
  B  B6  1  0.19017115  0.34108049  0.19412699  1
  B  B7  1  0.80982885  0.84108049  0.30587301  1
  B  B8  1  0.01491601  0.07343574  0.85945460  1
  B  B9  1  0.98508399  0.57343574  0.64054540  1
  B  B10  1  0.98508399  0.92656426  0.14054540  1
  B  B11  1  0.01491601  0.42656426  0.35945460  1
  B  B12  1  0.30204356  0.47700742  0.60770204  1
  B  B13  1  0.69795644  0.97700742  0.89229796  1
  B  B14  1  0.69795644  0.52299258  0.39229796  1
  B  B15  1  0.30204356  0.02299258  0.10770204  1
  B  B16  1  0.48052585  0.65845716  0.85103151  1
  B  B17  1  0.51947415  0.15845716  0.64896849  1
  B  B18  1  0.51947415  0.34154284  0.14896849  1
  B  B19  1  0.48052585  0.84154284  0.35103151  1
  B  B20  1  0.66588710  0.53310185  0.59901041  1
  B  B21  1  0.33411290  0.03310185  0.90098959  1
  B  B22  1  0.33411290  0.46689815  0.40098959  1
  B  B23  1  0.66588710  0.96689815  0.09901041  1
  B  B24  1  0.51911896  0.39501918  0.54710954  1
  B  B25  1  0.48088104  0.89501918  0.95289046  1
  B  B26  1  0.48088104  0.60498082  0.45289046  1
  B  B27  1  0.51911896  0.10498082  0.04710954  1
  B  B28  1  0.32985002  0.31179962  0.65989801  1
  B  B29  1  0.67014998  0.81179962  0.84010199  1
  B  B30  1  0.67014998  0.68820038  0.34010199  1
  B  B31  1  0.32985002  0.18820038  0.15989801  1
  B  B32  1  0.34124535  0.52200099  0.90061857  1
  B  B33  1  0.65875465  0.02200099  0.59938143  1
  B  B34  1  0.65875465  0.47799901  0.09938143  1
  B  B35  1  0.34124535  0.97799901  0.40061857  1
  B  B36  1  0.14505050  0.58746412  0.82765053  1
  B  B37  1  0.85494950  0.08746412  0.67234947  1
  B  B38  1  0.85494950  0.41253588  0.17234947  1
  B  B39  1  0.14505050  0.91253588  0.32765053  1
  B  B40  1  0.15375621  0.19440411  0.92067061  1
  B  B41  1  0.84624379  0.69440411  0.57932939  1
  B  B42  1  0.84624379  0.80559589  0.07932939  1
  B  B43  1  0.15375621  0.30559589  0.42067061  1
  B  B44  1  0.26523125  0.36726366  0.94339621  1
  B  B45  1  0.73476875  0.86726366  0.55660379  1
  B  B46  1  0.73476875  0.63273634  0.05660379  1
  B  B47  1  0.26523125  0.13273634  0.44339621  1
  B  B48  1  0.99721080  0.29716980  0.99642497  1
  B  B49  1  0.00278920  0.79716980  0.50357503  1
  B  B50  1  0.00278920  0.70283020  0.00357503  1
  B  B51  1  0.99721080  0.20283020  0.49642497  1
  P  P0  1  0.66236082  0.34325774  0.79839592  1
  P  P1  1  0.33763918  0.84325774  0.70160408  1
  P  P2  1  0.33763918  0.65674226  0.20160408  1
  P  P3  1  0.66236082  0.15674226  0.29839592  1
  H  H0  1  0.88370967  0.77733533  0.94633725  1
  H  H1  1  0.11629033  0.27733533  0.55366275  1
  H  H2  1  0.11629033  0.22266467  0.05366275  1
  H  H3  1  0.88370967  0.72266467  0.44633725  1
  H  H4  1  0.72074873  0.33395149  0.01493217  1
  H  H5  1  0.27925127  0.83395149  0.48506783  1
  H  H6  1  0.27925127  0.66604851  0.98506783  1
  H  H7  1  0.72074873  0.16604851  0.51493217  1
  H  H8  1  0.41870399  0.20583223  0.00421341  1
  H  H9  1  0.58129601  0.70583223  0.49578659  1
  H  H10  1  0.58129601  0.79416777  0.99578659  1
  H  H11  1  0.41870399  0.29416777  0.50421341  1
  O  O0  1  0.47652469  0.26266643  0.63598444  1
  O  O1  1  0.52347531  0.76266643  0.86401556  1
  O  O2  1  0.52347531  0.73733357  0.36401556  1
  O  O3  1  0.47652469  0.23733357  0.13598444  1
  O  O4  1  0.07909079  0.56385099  0.69094967  1
  O  O5  1  0.92090921  0.06385099  0.80905033  1
  O  O6  1  0.92090921  0.43614901  0.30905033  1
  O  O7  1  0.07909079  0.93614901  0.19094967  1
  O  O8  1  0.21376054  0.26667956  0.69623095  1
  O  O9  1  0.78623946  0.76667956  0.80376905  1
  O  O10  1  0.78623946  0.73332044  0.30376905  1
  O  O11  1  0.21376054  0.23332044  0.19623095  1
  O  O12  1  0.85367404  0.63022081  0.75141423  1
  O  O13  1  0.14632596  0.13022081  0.74858577  1
  O  O14  1  0.14632596  0.36977919  0.24858577  1
  O  O15  1  0.85367404  0.86977919  0.25141423  1
  O  O16  1  0.96804364  0.63687855  0.84098173  1
  O  O17  1  0.03195636  0.13687855  0.65901827  1
  O  O18  1  0.03195636  0.36312145  0.15901827  1
  O  O19  1  0.96804364  0.86312145  0.34098173  1
  O  O20  1  0.04925237  0.17679959  0.87254095  1
  O  O21  1  0.95074763  0.67679959  0.62745905  1
  O  O22  1  0.95074763  0.82320041  0.12745905  1
  O  O23  1  0.04925237  0.32320041  0.37254095  1
  O  O24  1  0.63653586  0.61283576  0.82328735  1
  O  O25  1  0.36346414  0.11283576  0.67671265  1
  O  O26  1  0.36346414  0.38716424  0.17671265  1
  O  O27  1  0.63653586  0.88716424  0.32328735  1
  O  O28  1  0.45823355  0.60163489  0.90112137  1
  O  O29  1  0.54176645  0.10163489  0.59887863  1
  O  O30  1  0.54176645  0.39836511  0.09887863  1
  O  O31  1  0.45823355  0.89836511  0.40112137  1
  O  O32  1  0.18391570  0.51244865  0.86924275  1
  O  O33  1  0.81608430  0.01244865  0.63075725  1
  O  O34  1  0.81608430  0.48755135  0.13075725  1
  O  O35  1  0.18391570  0.98755135  0.36924275  1
  O  O36  1  0.33457397  0.42290191  0.55815219  1
  O  O37  1  0.66542603  0.92290191  0.94184781  1
  O  O38  1  0.66542603  0.57709809  0.44184781  1
  O  O39  1  0.33457397  0.07709809  0.05815219  1
  O  O40  1  0.80006923  0.52092045  0.64192917  1
  O  O41  1  0.19993077  0.02092045  0.85807083  1
  O  O42  1  0.19993077  0.47907955  0.35807083  1
  O  O43  1  0.80006923  0.97907955  0.14192917  1
  O  O44  1  0.53313339  0.04065127  0.88134029  1
  O  O45  1  0.46686661  0.54065127  0.61865971  1
  O  O46  1  0.46686661  0.95934873  0.11865971  1
  O  O47  1  0.53313339  0.45934873  0.38134029  1
  O  O48  1  0.71777993  0.61518580  0.56609116  1
  O  O49  1  0.28222007  0.11518580  0.93390884  1
  O  O50  1  0.28222007  0.38481420  0.43390884  1
  O  O51  1  0.71777993  0.88481420  0.06609116  1
  O  O52  1  0.54627354  0.18446946  0.01445591  1
  O  O53  1  0.45372646  0.68446946  0.48554409  1
  O  O54  1  0.45372646  0.81553054  0.98554409  1
  O  O55  1  0.54627354  0.31553054  0.51445591  1
  O  O56  1  0.27793610  0.40513575  0.64994855  1
  O  O57  1  0.72206390  0.90513575  0.85005145  1
  O  O58  1  0.72206390  0.59486425  0.35005145  1
  O  O59  1  0.27793610  0.09486425  0.14994855  1
  O  O60  1  0.12334416  0.53216110  0.60087663  1
  O  O61  1  0.87665584  0.03216110  0.89912337  1
  O  O62  1  0.87665584  0.46783890  0.39912337  1
  O  O63  1  0.12334416  0.96783890  0.10087663  1
  O  O64  1  0.77324219  0.37319355  0.84887503  1
  O  O65  1  0.22675781  0.87319355  0.65112497  1
  O  O66  1  0.22675781  0.62680645  0.15112497  1
  O  O67  1  0.77324219  0.12680645  0.34887503  1
  O  O68  1  0.27465355  0.28794767  0.91203168  1
  O  O69  1  0.72534645  0.78794767  0.58796832  1
  O  O70  1  0.72534645  0.71205233  0.08796832  1
  O  O71  1  0.27465355  0.21205233  0.41203168  1
  O  O72  1  0.30212476  0.65596101  0.82282755  1
  O  O73  1  0.69787524  0.15596101  0.67717245  1
  O  O74  1  0.69787524  0.34403899  0.17717245  1
  O  O75  1  0.30212476  0.84403899  0.32282755  1
  O  O76  1  0.67976088  0.05978753  0.06542122  1
  O  O77  1  0.32023912  0.55978753  0.43457878  1
  O  O78  1  0.32023912  0.94021247  0.93457878  1
  O  O79  1  0.67976088  0.44021247  0.56542122  1
  O  O80  1  0.12429744  0.53408989  0.77822877  1
  O  O81  1  0.87570256  0.03408989  0.72177123  1
  O  O82  1  0.87570256  0.46591011  0.22177123  1
  O  O83  1  0.12429744  0.96591011  0.27822877  1
  O  O84  1  0.38719164  0.44684619  0.93407471  1
  O  O85  1  0.61280836  0.94684619  0.56592529  1
  O  O86  1  0.61280836  0.55315381  0.06592529  1
  O  O87  1  0.38719164  0.05315381  0.43407471  1
  O  O88  1  0.57190122  0.24141801  0.80872809  1
  O  O89  1  0.42809878  0.74141801  0.69127191  1
  O  O90  1  0.42809878  0.75858199  0.19127191  1
  O  O91  1  0.57190122  0.25858199  0.30872809  1
  O  O92  1  0.81018677  0.34175314  0.75364267  1
  O  O93  1  0.18981323  0.84175314  0.74635733  1
  O  O94  1  0.18981323  0.65824686  0.24635733  1
  O  O95  1  0.81018677  0.15824686  0.25364267  1
  O  O96  1  0.49447270  0.41219290  0.78632559  1
  O  O97  1  0.50552730  0.91219290  0.71367441  1
  O  O98  1  0.50552730  0.58780710  0.21367441  1
  O  O99  1  0.49447270  0.08780710  0.28632559  1
  O  O100  1  0.01902886  0.21237511  0.96386203  1
  O  O101  1  0.98097114  0.71237511  0.53613797  1
  O  O102  1  0.98097114  0.78762489  0.03613797  1
  O  O103  1  0.01902886  0.28762489  0.46386203  1
  O  O104  1  0.14682205  0.37381131  0.98495264  1
  O  O105  1  0.85317795  0.87381131  0.51504736  1
  O  O106  1  0.85317795  0.62618869  0.01504736  1
  O  O107  1  0.14682205  0.12618869  0.48495264  1
  O  O108  1  0.98726462  0.73015835  0.94835806  1
  O  O109  1  0.01273538  0.23015835  0.55164194  1
  O  O110  1  0.01273538  0.26984165  0.05164194  1
  O  O111  1  0.98726462  0.76984165  0.44835806  1
  O  O112  1  0.81174562  0.34929991  0.98786853  1
  O  O113  1  0.18825438  0.84929991  0.51213147  1
  O  O114  1  0.18825438  0.65070009  0.01213147  1
  O  O115  1  0.81174562  0.15070009  0.48786853  1
loop_
_geom_bond_atom_site_label_1
_geom_bond_atom_site_label_2
_geom_bond_distance
_geom_bond_site_symmetry_2
Ba0 O96 2.690116 1_555
Ba0 O92 2.763856 1_455
Ba0 O20 2.815866 1_555
Ba0 O8 2.930307 1_555
Ba0 O68 2.977903 1_555
Ba0 O80 2.981899 1_555
Ba0 O64 3.006312 1_455
Ba0 O13 3.041216 1_555
Ba0 O32 3.114472 1_555
Ba0 O88 3.120600 1_555
Ba1 O97 2.690116 1_555
Ba1 O93 2.763856 1_655
Ba1 O21 2.815866 1_555
Ba1 O9 2.930307 1_555
Ba1 O69 2.977903 1_555
Ba1 O81 2.981899 1_565
Ba1 O65 3.006312 1_655
Ba1 O12 3.041216 1_555
Ba1 O33 3.114472 1_565
Ba1 O89 3.120600 1_555
Ba2 O98 2.690116 1_555
Ba2 O94 2.763856 1_655
Ba2 O22 2.815866 1_555
Ba2 O10 2.930307 1_555
Ba2 O70 2.977903 1_555
Ba2 O82 2.981899 1_555
Ba2 O66 3.006312 1_655
Ba2 O15 3.041216 1_555
Ba2 O34 3.114472 1_555
Ba2 O90 3.120600 1_555
Ba3 O99 2.690116 1_555
Ba3 O95 2.763856 1_455
Ba3 O23 2.815866 1_555
Ba3 O11 2.930307 1_555
Ba3 O71 2.977903 1_555
Ba3 O83 2.981899 1_545
Ba3 O67 3.006312 1_455
Ba3 O14 3.041216 1_555
Ba3 O35 3.114472 1_545
Ba3 O91 3.120600 1_555
Ba4 O92 2.657206 1_555
Ba4 O73 2.707020 1_555
Ba4 O40 2.732489 1_555
Ba4 O8 2.821204 1_655
Ba4 O17 2.881332 1_655
Ba4 O0 2.883346 1_555
Ba4 O79 3.044033 1_555
Ba4 O56 3.091056 1_655
Ba4 O109 3.126024 1_655
Ba5 O93 2.657206 1_555
Ba5 O72 2.707020 1_555
Ba5 O41 2.732489 1_565
Ba5 O9 2.821204 1_455
Ba5 O16 2.881332 1_455
Ba5 O1 2.883346 1_555
Ba5 O78 3.044033 1_555
Ba5 O57 3.091056 1_455
Ba5 O108 3.126024 1_455
Ba6 O94 2.657206 1_555
Ba6 O75 2.707020 1_555
Ba6 O42 2.732489 1_555
Ba6 O10 2.821204 1_455
Ba6 O19 2.881332 1_455
Ba6 O2 2.883346 1_555
Ba6 O77 3.044033 1_555
Ba6 O58 3.091056 1_455
Ba6 O111 3.126024 1_455
Ba7 O95 2.657206 1_555
Ba7 O74 2.707020 1_555
Ba7 O43 2.732489 1_545
Ba7 O11 2.821204 1_655
Ba7 O18 2.881332 1_655
Ba7 O3 2.883346 1_555
Ba7 O76 3.044033 1_555
Ba7 O59 3.091056 1_655
Ba7 O110 3.126024 1_655
Ba8 O60 2.796630 1_555
Ba8 O62 2.796630 1_455
Ba8 O79 2.929356 1_455
Ba8 O77 2.929356 1_555
Ba8 O38 2.982936 1_455
Ba8 O36 2.982936 1_555
Ba8 O50 3.061465 1_555
Ba8 O48 3.061465 1_455
Ba8 O101 3.084159 1_455
Ba8 O103 3.084159 1_555
Ba9 O63 2.796630 1_545
Ba9 O61 2.796630 1_454
Ba9 O78 2.929356 1_544
Ba9 O76 2.929356 1_455
Ba9 O39 2.982936 1_555
Ba9 O37 2.982936 1_444
Ba9 O51 3.061465 1_445
Ba9 O49 3.061465 1_554
Ba9 O102 3.084159 1_445
Ba9 O100 3.084159 1_554
Ba10 O64 2.701812 1_555
Ba10 O28 2.723454 1_555
Ba10 O16 2.736761 1_555
Ba10 O32 2.877589 1_655
Ba10 O24 2.968543 1_555
Ba10 O106 2.975326 1_556
Ba10 O112 3.037535 1_555
Ba10 O84 3.172227 1_555
Ba10 O108 3.245430 1_555
Ba11 O65 2.701812 1_545
Ba11 O29 2.723454 1_555
Ba11 O17 2.736761 1_555
Ba11 O33 2.877589 1_455
Ba11 O25 2.968543 1_555
Ba11 O107 2.975326 1_555
Ba11 O113 3.037535 1_545
Ba11 O85 3.172227 1_545
Ba11 O109 3.245430 1_555
Ba12 O66 2.701812 1_555
Ba12 O30 2.723454 1_555
Ba12 O18 2.736761 1_555
Ba12 O34 2.877589 1_455
Ba12 O26 2.968543 1_555
Ba12 O104 2.975326 1_554
Ba12 O114 3.037535 1_555
Ba12 O86 3.172227 1_555
Ba12 O110 3.245430 1_555
Ba13 O67 2.701812 1_565
Ba13 O31 2.723454 1_555
Ba13 O19 2.736761 1_555
Ba13 O35 2.877589 1_655
Ba13 O27 2.968543 1_555
Ba13 O105 2.975326 1_555
Ba13 O115 3.037535 1_565
Ba13 O87 3.172227 1_565
Ba13 O111 3.245430 1_555
Ba14 O96 2.608744 1_555
Ba14 O89 2.655019 1_555
Ba14 O45 2.800236 1_555
Ba14 O24 2.849550 1_555
Ba14 O12 2.854063 1_555
Ba14 O80 2.864221 1_555
Ba14 O4 2.946911 1_555
Ba14 O72 3.096595 1_555
Ba14 O40 3.172479 1_555
Ba14 O56 3.256834 1_555
Ba15 O97 2.608744 1_545
Ba15 O88 2.655019 1_555
Ba15 O44 2.800236 1_555
Ba15 O25 2.849550 1_555
Ba15 O13 2.854063 1_555
Ba15 O81 2.864221 1_555
Ba15 O5 2.946911 1_555
Ba15 O73 3.096595 1_555
Ba15 O41 3.172479 1_555
Ba15 O57 3.256834 1_545
Ba16 O98 2.608744 1_555
Ba16 O91 2.655019 1_555
Ba16 O47 2.800236 1_555
Ba16 O26 2.849550 1_555
Ba16 O14 2.854063 1_555
Ba16 O82 2.864221 1_555
Ba16 O6 2.946911 1_555
Ba16 O74 3.096595 1_555
Ba16 O42 3.172479 1_555
Ba16 O58 3.256834 1_555
Ba17 O99 2.608744 1_565
Ba17 O90 2.655019 1_555
Ba17 O46 2.800236 1_555
Ba17 O27 2.849550 1_555
Ba17 O15 2.854063 1_555
Ba17 O83 2.864221 1_555
Ba17 O7 2.946911 1_555
Ba17 O75 3.096595 1_555
Ba17 O43 3.172479 1_555
Ba17 O59 3.256834 1_565
Ba18 O44 2.694673 1_555
Ba18 O88 2.721830 1_555
Ba18 O64 2.774160 1_555
Ba18 O100 2.804577 1_655
Ba18 O20 2.831554 1_655
Ba18 O61 2.900797 1_555
Ba18 O52 2.920613 1_556
Ba18 O112 2.936636 1_555
Ba18 O68 2.974724 1_555
Ba19 O45 2.694673 1_555
Ba19 O89 2.721830 1_555
Ba19 O65 2.774160 1_555
Ba19 O101 2.804577 1_455
Ba19 O21 2.831554 1_455
Ba19 O60 2.900797 1_555
Ba19 O53 2.920613 1_555
Ba19 O113 2.936636 1_555
Ba19 O69 2.974724 1_555
Ba20 O46 2.694673 1_555
Ba20 O90 2.721830 1_555
Ba20 O66 2.774160 1_555
Ba20 O102 2.804577 1_455
Ba20 O22 2.831554 1_455
Ba20 O63 2.900797 1_555
Ba20 O54 2.920613 1_554
Ba20 O114 2.936636 1_555
Ba20 O70 2.974724 1_555
Ba21 O47 2.694673 1_555
Ba21 O91 2.721830 1_555
Ba21 O67 2.774160 1_555
Ba21 O103 2.804577 1_655
Ba21 O23 2.831554 1_655
Ba21 O62 2.900797 1_555
Ba21 O55 2.920613 1_555
Ba21 O115 2.936636 1_555
Ba21 O71 2.974724 1_555
B0 O4 1.359238 1_555
B0 O12 1.380362 1_455
B0 O80 1.390370 1_555
B1 O5 1.359238 1_555
B1 O13 1.380362 1_655
B1 O81 1.390370 1_555
B2 O6 1.359238 1_555
B2 O14 1.380362 1_655
B2 O82 1.390370 1_555
B3 O7 1.359238 1_555
B3 O15 1.380362 1_455
B3 O83 1.390370 1_555
B4 O24 1.441338 1_555
B4 O16 1.466626 1_555
B4 O9 1.499157 1_555
B4 O12 1.501499 1_555
B5 O25 1.441338 1_555
B5 O17 1.466626 1_555
B5 O8 1.499157 1_555
B5 O13 1.501499 1_555
B6 O26 1.441338 1_555
B6 O18 1.466626 1_555
B6 O11 1.499157 1_555
B6 O14 1.501499 1_555
B7 O27 1.441338 1_555
B7 O19 1.466626 1_555
B7 O10 1.499157 1_555
B7 O15 1.501499 1_555
B8 O5 1.472311 1_455
B8 O41 1.483602 1_555
B8 O20 1.487794 1_555
B8 O61 1.523594 1_455
B9 O4 1.472311 1_655
B9 O40 1.483602 1_555
B9 O21 1.487794 1_555
B9 O60 1.523594 1_655
B10 O7 1.472311 1_655
B10 O43 1.483602 1_555
B10 O22 1.487794 1_555
B10 O63 1.523594 1_655
B11 O6 1.472311 1_455
B11 O42 1.483602 1_555
B11 O23 1.487794 1_555
B11 O62 1.523594 1_455
B12 O60 1.474338 1_555
B12 O45 1.477525 1_555
B12 O56 1.490102 1_555
B12 O36 1.506386 1_555
B13 O61 1.474338 1_565
B13 O44 1.477525 1_565
B13 O57 1.490102 1_555
B13 O37 1.506386 1_555
B14 O62 1.474338 1_555
B14 O47 1.477525 1_555
B14 O58 1.490102 1_555
B14 O38 1.506386 1_555
B15 O63 1.474338 1_545
B15 O46 1.477525 1_545
B15 O59 1.490102 1_555
B15 O39 1.506386 1_555
B16 O72 1.447765 1_555
B16 O24 1.451191 1_555
B16 O1 1.509241 1_555
B16 O28 1.528338 1_555
B17 O73 1.447765 1_555
B17 O25 1.451191 1_555
B17 O0 1.509241 1_555
B17 O29 1.528338 1_555
B18 O74 1.447765 1_555
B18 O26 1.451191 1_555
B18 O3 1.509241 1_555
B18 O30 1.528338 1_555
B19 O75 1.447765 1_555
B19 O27 1.451191 1_555
B19 O2 1.509241 1_555
B19 O31 1.528338 1_555
B20 O48 1.466249 1_555
B20 O40 1.467959 1_555
B20 O45 1.485516 1_555
B20 O79 1.555365 1_555
B21 O49 1.466249 1_555
B21 O41 1.467959 1_555
B21 O44 1.485516 1_555
B21 O78 1.555365 1_545
B22 O50 1.466249 1_555
B22 O42 1.467959 1_555
B22 O47 1.485516 1_555
B22 O77 1.555365 1_555
B23 O51 1.466249 1_555
B23 O43 1.467959 1_555
B23 O46 1.485516 1_555
B23 O76 1.555365 1_565
B24 O79 1.370738 1_555
B24 O36 1.376589 1_555
B24 O55 1.400969 1_555
B25 O78 1.370738 1_555
B25 O37 1.376589 1_555
B25 O54 1.400969 1_555
B26 O77 1.370738 1_555
B26 O38 1.376589 1_555
B26 O53 1.400969 1_555
B27 O76 1.370738 1_555
B27 O39 1.376589 1_555
B27 O52 1.400969 1_555
B28 O56 1.364627 1_555
B28 O0 1.377646 1_555
B28 O8 1.392192 1_555
B29 O57 1.364627 1_555
B29 O1 1.377646 1_555
B29 O9 1.392192 1_555
B30 O58 1.364627 1_555
B30 O2 1.377646 1_555
B30 O10 1.392192 1_555
B31 O59 1.364627 1_555
B31 O3 1.377646 1_555
B31 O11 1.392192 1_555
B32 O28 1.371159 1_555
B32 O32 1.376268 1_555
B32 O84 1.392296 1_555
B33 O29 1.371159 1_555
B33 O33 1.376268 1_555
B33 O85 1.392296 1_545
B34 O30 1.371159 1_555
B34 O34 1.376268 1_555
B34 O86 1.392296 1_555
B35 O31 1.371159 1_555
B35 O35 1.376268 1_555
B35 O87 1.392296 1_565
B36 O16 1.455045 1_455
B36 O72 1.455127 1_555
B36 O80 1.488544 1_555
B36 O32 1.522416 1_555
B37 O17 1.455045 1_655
B37 O73 1.455127 1_555
B37 O81 1.488544 1_555
B37 O33 1.522416 1_555
B38 O18 1.455045 1_655
B38 O74 1.455127 1_555
B38 O82 1.488544 1_555
B38 O34 1.522416 1_555
B39 O19 1.455045 1_455
B39 O75 1.455127 1_555
B39 O83 1.488544 1_555
B39 O35 1.522416 1_555
B40 O49 1.457365 1_555
B40 O20 1.469639 1_555
B40 O100 1.485834 1_555
B40 O68 1.560577 1_555
B41 O48 1.457365 1_555
B41 O21 1.469639 1_555
B41 O101 1.485834 1_555
B41 O69 1.560577 1_555
B42 O51 1.457365 1_555
B42 O22 1.469639 1_555
B42 O102 1.485834 1_555
B42 O70 1.560577 1_555
B43 O50 1.457365 1_555
B43 O23 1.469639 1_555
B43 O103 1.485834 1_555
B43 O71 1.560577 1_555
B44 O104 1.363434 1_555
B44 O68 1.367550 1_555
B44 O84 1.412362 1_555
B45 O105 1.363434 1_555
B45 O69 1.367550 1_555
B45 O85 1.412362 1_555
B46 O106 1.363434 1_555
B46 O70 1.367550 1_555
B46 O86 1.412362 1_555
B47 O107 1.363434 1_555
B47 O71 1.367550 1_555
B47 O87 1.412362 1_555
B48 O100 1.453423 1_655
B48 O110 1.488233 1_656
B48 O112 1.500093 1_555
B48 O104 1.517941 1_655
B49 O101 1.453423 1_455
B49 O111 1.488233 1_455
B49 O113 1.500093 1_555
B49 O105 1.517941 1_455
B50 O102 1.453423 1_455
B50 O108 1.488233 1_454
B50 O114 1.500093 1_555
B50 O106 1.517941 1_455
B51 O103 1.453423 1_655
B51 O109 1.488233 1_655
B51 O115 1.500093 1_555
B51 O107 1.517941 1_655
H0 O108 0.975702 1_555
H1 O109 0.975702 1_555
H2 O110 0.975702 1_555
H3 O111 0.975702 1_555
H4 O112 0.971550 1_554
H5 O113 0.971550 1_555
H6 O114 0.971550 1_556
H7 O115 0.971550 1_555
H8 O52 0.976700 1_555
H9 O53 0.976700 1_555
H10 O54 0.976700 1_555
H11 O55 0.976700 1_555
O64 P0 1.579760 1_555
O65 P1 1.579760 1_555
O66 P2 1.579760 1_555
O67 P3 1.579760 1_555
O88 P0 1.565941 1_555
O89 P1 1.565941 1_555
O90 P2 1.565941 1_555
O91 P3 1.565941 1_555
O92 P0 1.555619 1_555
O93 P1 1.555619 1_555
O94 P2 1.555619 1_555
O95 P3 1.555619 1_555
O96 P0 1.544105 1_555
O97 P1 1.544105 1_555
O98 P2 1.544105 1_555
O99 P3 1.544105 1_555
