# generated using pymatgen
data_ScFeGe2
_symmetry_space_group_name_H-M   'P 1'
_cell_length_a   8.05093423
_cell_length_b   9.35165468
_cell_length_c   10.08006847
_cell_angle_alpha   90.00000000
_cell_angle_beta   90.00000000
_cell_angle_gamma   90.00000000
_symmetry_Int_Tables_number   1
_chemical_formula_structural   ScFeGe2
_chemical_formula_sum   'Sc12 Fe12 Ge24'
_cell_volume   758.92388732
_cell_formula_units_Z   12
loop_
 _symmetry_equiv_pos_site_id
 _symmetry_equiv_pos_as_xyz
  1  'x, y, z'
loop_
 _atom_site_type_symbol
 _atom_site_label
 _atom_site_symmetry_multiplicity
 _atom_site_fract_x
 _atom_site_fract_y
 _atom_site_fract_z
 _atom_site_occupancy
  Sc  Sc0  1  0.74250990  0.82950616  0.04760205  1
  Sc  Sc1  1  0.74250990  0.17049384  0.95239795  1
  Sc  Sc2  1  0.25749010  0.67049384  0.54760205  1
  Sc  Sc3  1  0.25749010  0.32950616  0.45239795  1
  Sc  Sc4  1  0.25749010  0.17049384  0.95239795  1
  Sc  Sc5  1  0.25749010  0.82950616  0.04760205  1
  Sc  Sc6  1  0.74250990  0.32950616  0.45239795  1
  Sc  Sc7  1  0.74250990  0.67049384  0.54760205  1
  Sc  Sc8  1  0.50000000  0.83637319  0.32202331  1
  Sc  Sc9  1  0.50000000  0.16362681  0.67797669  1
  Sc  Sc10  1  0.50000000  0.66362681  0.82202331  1
  Sc  Sc11  1  0.50000000  0.33637319  0.17797669  1
  Fe  Fe0  1  0.75130938  0.58100410  0.24475661  1
  Fe  Fe1  1  0.75130938  0.41899590  0.75524339  1
  Fe  Fe2  1  0.24869062  0.91899590  0.74475661  1
  Fe  Fe3  1  0.24869062  0.08100410  0.25524339  1
  Fe  Fe4  1  0.24869062  0.41899590  0.75524339  1
  Fe  Fe5  1  0.24869062  0.58100410  0.24475661  1
  Fe  Fe6  1  0.75130938  0.08100410  0.25524339  1
  Fe  Fe7  1  0.75130938  0.91899590  0.74475661  1
  Fe  Fe8  1  0.74543657  -0.00000000  0.50000000  1
  Fe  Fe9  1  0.25456343  0.50000000  -0.00000000  1
  Fe  Fe10  1  0.25456343  -0.00000000  0.50000000  1
  Fe  Fe11  1  0.74543657  0.50000000  -0.00000000  1
  Ge  Ge0  1  0.84389348  0.83137733  0.31803274  1
  Ge  Ge1  1  0.84389348  0.16862267  0.68196726  1
  Ge  Ge2  1  0.15610652  0.66862267  0.81803274  1
  Ge  Ge3  1  0.15610652  0.33137733  0.18196726  1
  Ge  Ge4  1  0.15610652  0.16862267  0.68196726  1
  Ge  Ge5  1  0.15610652  0.83137733  0.31803274  1
  Ge  Ge6  1  0.84389348  0.33137733  0.18196726  1
  Ge  Ge7  1  0.84389348  0.66862267  0.81803274  1
  Ge  Ge8  1  0.50000000  0.54165385  0.37773090  1
  Ge  Ge9  1  0.50000000  0.45834615  0.62226910  1
  Ge  Ge10  1  0.50000000  0.95834615  0.87773090  1
  Ge  Ge11  1  0.50000000  0.04165385  0.12226910  1
  Ge  Ge12  1  0.00000000  0.54070843  0.37833635  1
  Ge  Ge13  1  0.00000000  0.45929157  0.62166365  1
  Ge  Ge14  1  0.00000000  0.95929157  0.87833635  1
  Ge  Ge15  1  0.00000000  0.04070843  0.12166365  1
  Ge  Ge16  1  0.50000000  0.63088338  0.10458166  1
  Ge  Ge17  1  0.50000000  0.36911662  0.89541834  1
  Ge  Ge18  1  0.50000000  0.86911662  0.60458166  1
  Ge  Ge19  1  0.50000000  0.13088338  0.39541834  1
  Ge  Ge20  1  0.00000000  0.62492165  0.09605351  1
  Ge  Ge21  1  0.00000000  0.37507835  0.90394649  1
  Ge  Ge22  1  0.00000000  0.87507835  0.59605351  1
  Ge  Ge23  1  0.00000000  0.12492165  0.40394649  1
loop_
_geom_bond_atom_site_label_1
_geom_bond_atom_site_label_2
_geom_bond_distance
_geom_bond_site_symmetry_2
Fe0 Ge12 2.442093 1_655
Fe0 Ge8 2.454731 1_555
Fe0 Ge16 2.511516 1_555
Fe0 Ge6 2.530953 1_555
Fe0 Ge20 2.534613 1_655
Fe0 Ge0 2.565804 1_555
Fe0 Fe11 2.581273 1_555
Fe1 Ge13 2.442093 1_655
Fe1 Ge9 2.454731 1_555
Fe1 Ge17 2.511516 1_555
Fe1 Ge7 2.530953 1_555
Fe1 Ge21 2.534613 1_655
Fe1 Ge1 2.565804 1_555
Fe1 Fe11 2.581273 1_556
Fe2 Ge14 2.442093 1_555
Fe2 Ge10 2.454731 1_555
Fe2 Ge18 2.511516 1_555
Fe2 Ge4 2.530953 1_565
Fe2 Ge22 2.534613 1_555
Fe2 Ge2 2.565804 1_555
Fe3 Ge15 2.442093 1_555
Fe3 Ge11 2.454731 1_555
Fe3 Ge19 2.511516 1_555
Fe3 Ge5 2.530953 1_545
Fe3 Ge23 2.534613 1_555
Fe3 Ge3 2.565804 1_555
Fe4 Ge13 2.442093 1_555
Fe4 Ge9 2.454731 1_555
Fe4 Ge17 2.511516 1_555
Fe4 Ge2 2.530953 1_555
Fe4 Ge21 2.534613 1_555
Fe4 Ge4 2.565804 1_555
Fe4 Fe9 2.581273 1_556
Fe5 Ge12 2.442093 1_555
Fe5 Ge8 2.454731 1_555
Fe5 Ge16 2.511516 1_555
Fe5 Ge3 2.530953 1_555
Fe5 Ge20 2.534613 1_555
Fe5 Ge5 2.565804 1_555
Fe5 Fe9 2.581273 1_555
Fe6 Ge15 2.442093 1_655
Fe6 Ge11 2.454731 1_555
Fe6 Ge19 2.511516 1_555
Fe6 Ge0 2.530953 1_545
Fe6 Ge23 2.534613 1_655
Fe6 Ge6 2.565804 1_555
Fe6 Fe8 2.581273 1_555
Fe7 Ge14 2.442093 1_655
Fe7 Ge10 2.454731 1_555
Fe7 Ge18 2.511516 1_555
Fe7 Ge1 2.530953 1_565
Fe7 Ge22 2.534613 1_655
Fe7 Ge7 2.565804 1_555
Fe7 Fe8 2.581273 1_565
Fe8 Ge1 2.545464 1_555
Fe8 Ge0 2.545464 1_545
Fe8 Ge22 2.550010 1_645
Fe8 Ge23 2.550010 1_655
Fe8 Ge18 2.552251 1_545
Fe8 Ge19 2.552251 1_555
Fe8 Sc8 3.076443 1_545
Fe8 Sc9 3.076443 1_555
Fe8 Sc7 3.118652 1_545
Fe8 Sc6 3.118652 1_555
Fe9 Ge2 2.545464 1_554
Fe9 Ge3 2.545464 1_555
Fe9 Ge20 2.550010 1_555
Fe9 Ge21 2.550010 1_554
Fe9 Ge16 2.552251 1_555
Fe9 Ge17 2.552251 1_554
Fe9 Sc11 3.076443 1_555
Fe9 Sc10 3.076443 1_554
Fe9 Sc4 3.118652 1_554
Fe9 Sc5 3.118652 1_555
Fe10 Ge5 2.545464 1_545
Fe10 Ge4 2.545464 1_555
Fe10 Ge23 2.550010 1_555
Fe10 Ge22 2.550010 1_545
Fe10 Ge19 2.552251 1_555
Fe10 Ge18 2.552251 1_545
Fe10 Fe3 2.581273 1_555
Fe10 Fe2 2.581273 1_545
Fe10 Sc8 3.076443 1_545
Fe10 Sc9 3.076443 1_555
Fe10 Sc2 3.118652 1_545
Fe10 Sc3 3.118652 1_555
Fe11 Ge7 2.545464 1_554
Fe11 Ge6 2.545464 1_555
Fe11 Ge20 2.550010 1_655
Fe11 Ge21 2.550010 1_654
Fe11 Ge16 2.552251 1_555
Fe11 Ge17 2.552251 1_554
Fe11 Sc11 3.076443 1_555
Fe11 Sc10 3.076443 1_554
Fe11 Sc1 3.118652 1_554
Fe11 Sc0 3.118652 1_555
Ge0 Ge5 2.513607 1_655
Ge0 Sc8 2.769350 1_555
Ge0 Sc0 2.845593 1_555
Ge0 Sc7 2.878329 1_555
Ge1 Ge4 2.513607 1_655
Ge1 Sc9 2.769350 1_555
Ge1 Sc1 2.845593 1_555
Ge1 Sc6 2.878329 1_555
Ge2 Ge7 2.513607 1_455
Ge2 Sc10 2.769350 1_555
Ge2 Sc2 2.845593 1_555
Ge2 Sc5 2.878329 1_556
Ge3 Ge6 2.513607 1_455
Ge3 Sc11 2.769350 1_555
Ge3 Sc3 2.845593 1_555
Ge3 Sc4 2.878329 1_554
Ge4 Sc9 2.769350 1_555
Ge4 Sc4 2.845593 1_555
Ge4 Sc3 2.878329 1_555
Ge5 Sc8 2.769350 1_555
Ge5 Sc5 2.845593 1_555
Ge5 Sc2 2.878329 1_555
Ge6 Sc11 2.769350 1_555
Ge6 Sc6 2.845593 1_555
Ge6 Sc1 2.878329 1_554
Ge7 Sc10 2.769350 1_555
Ge7 Sc7 2.845593 1_555
Ge7 Sc0 2.878329 1_556
Ge8 Ge9 2.585146 1_555
Ge8 Sc11 2.782019 1_555
Ge8 Sc8 2.812736 1_555
Ge8 Sc7 2.862815 1_555
Ge8 Sc2 2.862815 1_555
Ge8 Sc6 2.883480 1_555
Ge8 Sc3 2.883480 1_555
Ge9 Sc10 2.782019 1_555
Ge9 Sc9 2.812736 1_555
Ge9 Sc6 2.862815 1_555
Ge9 Sc3 2.862815 1_555
Ge9 Sc7 2.883480 1_555
Ge9 Sc2 2.883480 1_555
Ge10 Ge11 2.585146 1_566
Ge10 Sc9 2.782019 1_565
Ge10 Sc10 2.812736 1_555
Ge10 Sc0 2.862815 1_556
Ge10 Sc5 2.862815 1_556
Ge10 Sc1 2.883480 1_565
Ge10 Sc4 2.883480 1_565
Ge11 Sc8 2.782019 1_545
Ge11 Sc11 2.812736 1_555
Ge11 Sc1 2.862815 1_554
Ge11 Sc4 2.862815 1_554
Ge11 Sc0 2.883480 1_545
Ge11 Sc5 2.883480 1_545
Ge12 Ge13 2.568212 1_555
Ge12 Sc2 2.946475 1_555
Ge12 Sc7 2.946475 1_455
Ge12 Sc3 2.959019 1_555
Ge12 Sc6 2.959019 1_455
Ge13 Sc3 2.946475 1_555
Ge13 Sc6 2.946475 1_455
Ge13 Sc2 2.959019 1_555
Ge13 Sc7 2.959019 1_455
Ge14 Ge15 2.568212 1_566
Ge14 Sc0 2.946475 1_456
Ge14 Sc5 2.946475 1_556
Ge14 Sc4 2.959019 1_565
Ge14 Sc1 2.959019 1_465
Ge15 Sc4 2.946475 1_554
Ge15 Sc1 2.946475 1_454
Ge15 Sc5 2.959019 1_545
Ge15 Sc0 2.959019 1_445
Ge16 Sc0 2.755359 1_555
Ge16 Sc5 2.755359 1_555
Ge16 Sc11 2.851794 1_555
Ge16 Sc10 2.864620 1_554
Ge16 Sc8 2.914948 1_555
Ge17 Sc1 2.755359 1_555
Ge17 Sc4 2.755359 1_555
Ge17 Sc10 2.851794 1_555
Ge17 Sc11 2.864620 1_556
Ge17 Sc9 2.914948 1_555
Ge18 Sc7 2.755359 1_555
Ge18 Sc2 2.755359 1_555
Ge18 Sc9 2.851794 1_565
Ge18 Sc8 2.864620 1_555
Ge18 Sc10 2.914948 1_555
Ge19 Sc6 2.755359 1_555
Ge19 Sc3 2.755359 1_555
Ge19 Sc8 2.851794 1_545
Ge19 Sc9 2.864620 1_555
Ge19 Sc11 2.914948 1_555
Ge20 Sc5 2.862928 1_555
Ge20 Sc0 2.862928 1_455
Ge21 Sc4 2.862928 1_555
Ge21 Sc1 2.862928 1_455
Ge22 Sc2 2.862928 1_555
Ge22 Sc7 2.862928 1_455
Ge23 Sc3 2.862928 1_555
Ge23 Sc6 2.862928 1_455
