# generated using pymatgen
data_Pr2Ta2O9
_symmetry_space_group_name_H-M   'P 1'
_cell_length_a   3.90825000
_cell_length_b   6.75478455
_cell_length_c   14.48431585
_cell_angle_alpha   93.08437234
_cell_angle_beta   90.00000000
_cell_angle_gamma   90.00000000
_symmetry_Int_Tables_number   1
_chemical_formula_structural   Pr2Ta2O9
_chemical_formula_sum   'Pr4 Ta4 O18'
_cell_volume   381.82313766
_cell_formula_units_Z   2
loop_
 _symmetry_equiv_pos_site_id
 _symmetry_equiv_pos_as_xyz
  1  'x, y, z'
loop_
 _atom_site_type_symbol
 _atom_site_label
 _atom_site_symmetry_multiplicity
 _atom_site_fract_x
 _atom_site_fract_y
 _atom_site_fract_z
 _atom_site_occupancy
  Pr  Pr0  1  0.00433800  0.00876800  0.69490600  1
  Pr  Pr1  1  0.99566200  0.99123200  0.30509400  1
  Pr  Pr2  1  0.50433800  0.49123200  0.80509400  1
  Pr  Pr3  1  0.49566200  0.50876800  0.19490600  1
  Ta  Ta0  1  0.00416400  0.26626000  0.96139300  1
  Ta  Ta1  1  0.99583600  0.73374000  0.03860700  1
  Ta  Ta2  1  0.50416400  0.23374000  0.53860700  1
  Ta  Ta3  1  0.49583600  0.76626000  0.46139300  1
  O  O0  1  0.00086100  0.57679500  0.91938300  1
  O  O1  1  0.99913900  0.42320500  0.08061700  1
  O  O2  1  0.50086100  0.92320500  0.58061700  1
  O  O3  1  0.49914000  0.07679500  0.41938300  1
  O  O4  1  0.50777100  0.84274500  0.78076900  1
  O  O5  1  0.49222900  0.15725500  0.21923100  1
  O  O6  1  0.00777100  0.65725500  0.71923100  1
  O  O7  1  0.99222900  0.34274500  0.28076900  1
  O  O8  1  0.00000000  0.00000000  0.00000000  1
  O  O9  1  0.50000000  0.50000000  0.50000000  1
  O  O10  1  0.50215400  0.29312500  0.95268100  1
  O  O11  1  0.49784600  0.70687500  0.04731900  1
  O  O12  1  0.00215400  0.20687500  0.54731900  1
  O  O13  1  0.99784600  0.79312500  0.45268100  1
  O  O14  1  0.00259400  0.24455000  0.82474500  1
  O  O15  1  0.99740600  0.75545000  0.17525500  1
  O  O16  1  0.50259400  0.25545000  0.67525500  1
  O  O17  1  0.49740600  0.74455000  0.32474500  1
loop_
_geom_bond_atom_site_label_1
_geom_bond_atom_site_label_2
_geom_bond_distance
_geom_bond_site_symmetry_2
O0 Ta1 1.977210 1_456
O0 Ta0 2.215330 1_555
O0 Pr2 2.595593 1_455
O0 Pr2 2.615974 1_555
O1 Ta0 1.977210 1_654
O1 Ta1 2.215330 1_555
O1 Pr3 2.595593 1_655
O1 Pr3 2.615974 1_555
O2 Ta3 1.977210 1_555
O2 Ta2 2.215330 1_565
O2 Pr0 2.595593 1_565
O2 Pr0 2.615974 1_665
O3 Ta2 1.977210 1_555
O3 Ta3 2.215330 1_545
O3 Pr1 2.595590 1_545
O3 Pr1 2.615977 1_445
O4 Pr2 2.419110 1_555
O4 Pr0 2.592449 1_665
O4 Pr0 2.612598 1_565
O5 Pr3 2.419110 1_555
O5 Pr1 2.592449 1_445
O5 Pr1 2.612598 1_545
O6 Pr0 2.419110 1_565
O6 Pr2 2.592449 1_555
O6 Pr2 2.612598 1_455
O7 Pr1 2.419110 1_545
O7 Pr3 2.592449 1_555
O7 Pr3 2.612598 1_655
O8 Ta0 1.912041 1_554
O8 Ta1 1.912041 1_445
O9 Ta2 1.912041 1_555
O9 Ta3 1.912041 1_555
O10 Ta0 1.959409 1_555
O10 Ta0 1.975015 1_655
O10 Pr2 2.582316 1_555
O11 Ta1 1.959409 1_555
O11 Ta1 1.975015 1_455
O11 Pr3 2.582316 1_555
O12 Ta2 1.959409 1_455
O12 Ta2 1.975015 1_555
O12 Pr0 2.582316 1_555
O13 Ta3 1.959409 1_655
O13 Ta3 1.975015 1_555
O13 Pr1 2.582316 1_555
O14 Ta0 1.976803 1_555
O14 Pr0 2.398134 1_555
O14 Pr2 2.588545 1_455
O14 Pr2 2.598816 1_555
O15 Ta1 1.976803 1_555
O15 Pr1 2.398134 1_555
O15 Pr3 2.588545 1_655
O15 Pr3 2.598816 1_555
O16 Ta2 1.976803 1_555
O16 Pr2 2.398134 1_555
O16 Pr0 2.588545 1_555
O16 Pr0 2.598816 1_655
O17 Ta3 1.976803 1_555
O17 Pr3 2.398134 1_555
O17 Pr1 2.588545 1_555
O17 Pr1 2.598816 1_455
