# generated using pymatgen
data_RbCrSe2
_symmetry_space_group_name_H-M   'P 1'
_cell_length_a   3.85460934
_cell_length_b   3.85461032
_cell_length_c   8.05720263
_cell_angle_alpha   76.17257721
_cell_angle_beta   76.17257579
_cell_angle_gamma   60.00187497
_symmetry_Int_Tables_number   1
_chemical_formula_structural   RbCrSe2
_chemical_formula_sum   'Rb1 Cr1 Se2'
_cell_volume   99.65106952
_cell_formula_units_Z   1
loop_
 _symmetry_equiv_pos_site_id
 _symmetry_equiv_pos_as_xyz
  1  'x, y, z'
loop_
 _atom_site_type_symbol
 _atom_site_label
 _atom_site_symmetry_multiplicity
 _atom_site_fract_x
 _atom_site_fract_y
 _atom_site_fract_z
 _atom_site_occupancy
  Rb  Rb0  1  0.83397009  0.83397037  0.49797489  1
  Cr  Cr0  1  0.00212672  0.00212605  0.99347994  1
  Se  Se0  1  0.61137797  0.61137759  0.16599876  1
  Se  Se1  1  0.39252523  0.39252499  0.82254641  1
loop_
_geom_bond_atom_site_label_1
_geom_bond_atom_site_label_2
_geom_bond_distance
_geom_bond_site_symmetry_2
Rb0 Se1 3.357196 1_565
Rb0 Se1 3.357197 1_655
Rb0 Se1 3.357233 1_555
Rb0 Se0 3.399564 1_555
Rb0 Se0 3.400750 1_565
Rb0 Se0 3.400751 1_655
Cr0 Se1 2.589052 1_545
Cr0 Se1 2.589053 1_455
Cr0 Se1 2.590162 1_555
Cr0 Se0 2.595438 1_446
Cr0 Se0 2.595860 1_546
Cr0 Se0 2.595862 1_456
