# generated using pymatgen
data_CaHo(SnO3)2
_symmetry_space_group_name_H-M   'P 1'
_cell_length_a   5.60332200
_cell_length_b   5.88985000
_cell_length_c   8.17204300
_cell_angle_alpha   90.00000000
_cell_angle_beta   90.00000000
_cell_angle_gamma   90.00000000
_symmetry_Int_Tables_number   1
_chemical_formula_structural   CaHo(SnO3)2
_chemical_formula_sum   'Ca2 Ho2 Sn4 O12'
_cell_volume   269.69969666
_cell_formula_units_Z   2
loop_
 _symmetry_equiv_pos_site_id
 _symmetry_equiv_pos_as_xyz
  1  'x, y, z'
loop_
 _atom_site_type_symbol
 _atom_site_label
 _atom_site_symmetry_multiplicity
 _atom_site_fract_x
 _atom_site_fract_y
 _atom_site_fract_z
 _atom_site_occupancy
  Ca  Ca0  1  0.49099100  0.20215700  0.00000000  1
  Ca  Ca1  1  0.99099100  0.79784300  0.50000000  1
  Ho  Ho0  1  0.02727900  0.68082200  0.00000000  1
  Ho  Ho1  1  0.52727900  0.31917800  0.50000000  1
  Sn  Sn0  1  0.00247400  0.24434900  0.74990300  1
  Sn  Sn1  1  0.00247400  0.24434900  0.25009700  1
  Sn  Sn2  1  0.50247400  0.75565100  0.24990300  1
  Sn  Sn3  1  0.50247400  0.75565100  0.75009700  1
  O  O0  1  0.14437700  0.19585200  0.50000000  1
  O  O1  1  0.17847000  0.93160500  0.81594800  1
  O  O2  1  0.17847000  0.93160500  0.18405200  1
  O  O3  1  0.29573900  0.45848200  0.81884900  1
  O  O4  1  0.29573900  0.45848200  0.18115100  1
  O  O5  1  0.38437500  0.68638400  0.50000000  1
  O  O6  1  0.64437700  0.80414800  0.00000000  1
  O  O7  1  0.67847000  0.06839500  0.31594800  1
  O  O8  1  0.67847000  0.06839500  0.68405200  1
  O  O9  1  0.79573900  0.54151800  0.68115100  1
  O  O10  1  0.79573900  0.54151800  0.31884900  1
  O  O11  1  0.88437500  0.31361600  0.00000000  1
loop_
_geom_bond_atom_site_label_1
_geom_bond_atom_site_label_2
_geom_bond_distance
_geom_bond_site_symmetry_2
Ca0 O11 2.299937 1_555
Ca0 O3 2.380696 1_554
Ca0 O4 2.380696 1_555
Ca0 O6 2.496803 1_545
Ca0 O1 2.805010 1_544
Ca0 O2 2.805010 1_545
Ca0 O7 2.896665 1_555
Ca0 O8 2.896665 1_554
Ca1 O5 2.299937 1_655
Ca1 O9 2.380696 1_555
Ca1 O10 2.380696 1_555
Ca1 O0 2.496803 1_665
Ca1 O8 2.805010 1_565
Ca1 O7 2.805010 1_565
Ca1 O1 2.896665 1_655
Ca1 O2 2.896665 1_655
Ho0 O6 2.265146 1_455
Ho0 O2 2.271939 1_555
Ho0 O1 2.271939 1_554
Ho0 O11 2.306260 1_455
Ho0 O3 2.483797 1_554
Ho0 O4 2.483797 1_555
Ho1 O0 2.265146 1_555
Ho1 O8 2.271939 1_555
Ho1 O7 2.271939 1_555
Ho1 O5 2.306260 1_555
Ho1 O9 2.483797 1_555
Ho1 O10 2.483797 1_555
O0 Sn0 2.210085 1_555
O0 Sn1 2.210085 1_555
O1 Sn0 2.157970 1_565
O1 Sn3 2.158618 1_555
O2 Sn1 2.157970 1_565
O2 Sn2 2.158618 1_555
O3 Sn0 2.146719 1_555
O3 Sn3 2.172798 1_555
O4 Sn1 2.146719 1_555
O4 Sn2 2.172798 1_555
O5 Sn2 2.186660 1_555
O5 Sn3 2.186660 1_555
O6 Sn2 2.210085 1_555
O6 Sn3 2.210085 1_554
O7 Sn2 2.157970 1_545
O7 Sn1 2.158618 1_655
O8 Sn3 2.157970 1_545
O8 Sn0 2.158618 1_655
O9 Sn3 2.146719 1_555
O9 Sn0 2.172798 1_655
O10 Sn2 2.146719 1_555
O10 Sn1 2.172798 1_655
O11 Sn1 2.186660 1_655
O11 Sn0 2.186660 1_654
