# generated using pymatgen
data_Sr2Pr2TlNi2O9
_symmetry_space_group_name_H-M   'P 1'
_cell_length_a   15.28520929
_cell_length_b   15.28063736
_cell_length_c   3.82695000
_cell_angle_alpha   82.87540987
_cell_angle_beta   82.73958839
_cell_angle_gamma   14.38500174
_symmetry_Int_Tables_number   1
_chemical_formula_structural   Sr2Pr2TlNi2O9
_chemical_formula_sum   'Sr2 Pr2 Tl1 Ni2 O9'
_cell_volume   220.28010704
_cell_formula_units_Z   1
loop_
 _symmetry_equiv_pos_site_id
 _symmetry_equiv_pos_as_xyz
  1  'x, y, z'
loop_
 _atom_site_type_symbol
 _atom_site_label
 _atom_site_symmetry_multiplicity
 _atom_site_fract_x
 _atom_site_fract_y
 _atom_site_fract_z
 _atom_site_occupancy
  Sr  Sr0  1  0.59140700  0.57624400  0.42375600  1
  Sr  Sr1  1  0.42375600  0.40859300  0.59140700  1
  Pr  Pr0  1  0.70312400  0.70151500  0.29848500  1
  Pr  Pr1  1  0.29848500  0.29687600  0.70312400  1
  Tl  Tl0  1  0.04423400  0.95576600  0.04423400  1
  Ni  Ni0  1  0.14709000  0.14452700  0.85547300  1
  Ni  Ni1  1  0.85547300  0.85291000  0.14709000  1
  O  O0  1  0.21922500  0.21827300  0.78172700  1
  O  O1  1  0.78172700  0.78077500  0.21922500  1
  O  O2  1  0.65053900  0.64613100  0.85313900  1
  O  O3  1  0.14980800  0.14686200  0.35386900  1
  O  O4  1  0.35386900  0.34946100  0.14980800  1
  O  O5  1  0.85313800  0.85019200  0.65053900  1
  O  O6  1  0.47467000  0.52533000  0.47467000  1
  O  O7  1  0.06975300  0.07029600  0.92970400  1
  O  O8  1  0.92970400  0.93024700  0.06975300  1
loop_
_geom_bond_atom_site_label_1
_geom_bond_atom_site_label_2
_geom_bond_distance
_geom_bond_site_symmetry_2
Ni0 O2 1.911449 1_455
Ni0 O3 1.911449 1_555
Ni0 O3 1.918519 1_556
Ni0 O2 1.918519 1_545
Ni0 O0 2.194265 1_555
Ni0 O7 2.279817 1_555
Ni1 O4 1.911449 1_565
Ni1 O5 1.911449 1_554
Ni1 O4 1.918519 1_655
Ni1 O5 1.918519 1_555
Ni1 O1 2.194265 1_555
Ni1 O8 2.279817 1_555
O0 Pr1 2.374488 1_555
O0 Pr0 2.738099 1_456
O0 Pr0 2.738099 1_545
O0 Pr0 2.761741 1_455
O0 Pr0 2.765256 1_546
O1 Pr0 2.374488 1_555
O1 Pr1 2.738099 1_565
O1 Pr1 2.738099 1_654
O1 Pr1 2.761741 1_564
O1 Pr1 2.765256 1_655
O2 Pr0 2.507754 1_556
O2 Pr0 2.511738 1_555
O2 Sr0 2.708915 1_555
O2 Sr0 2.742010 1_556
O3 Pr0 2.507756 1_545
O3 Pr0 2.511735 1_455
O3 Sr0 2.708912 1_455
O3 Sr0 2.742012 1_545
O4 Pr1 2.507756 1_555
O4 Pr1 2.511735 1_554
O4 Sr1 2.708912 1_554
O4 Sr1 2.742012 1_555
O5 Pr1 2.507756 1_655
O5 Pr1 2.511735 1_565
O5 Sr1 2.708912 1_565
O5 Sr1 2.742012 1_655
O6 Tl0 2.340661 1_555
O6 Sr1 2.528056 1_555
O6 Sr0 2.528056 1_555
O6 Tl0 2.719558 1_645
O6 Tl0 2.719558 1_556
O7 Tl0 2.120396 1_546
O7 Sr0 2.708251 1_455
O7 Sr0 2.725269 1_456
O7 Sr0 2.725269 1_545
O7 Sr0 2.792679 1_546
O8 Tl0 2.120396 1_655
O8 Sr1 2.708251 1_564
O8 Sr1 2.725269 1_565
O8 Sr1 2.725269 1_654
O8 Sr1 2.792679 1_655
