# generated using pymatgen
data_K2SN2O5
_symmetry_space_group_name_H-M   'P 1'
_cell_length_a   7.21728100
_cell_length_b   8.24090800
_cell_length_c   10.11494600
_cell_angle_alpha   90.00000000
_cell_angle_beta   90.00000000
_cell_angle_gamma   90.00000000
_symmetry_Int_Tables_number   1
_chemical_formula_structural   K2SN2O5
_chemical_formula_sum   'K8 S4 N8 O20'
_cell_volume   601.60612466
_cell_formula_units_Z   4
loop_
 _symmetry_equiv_pos_site_id
 _symmetry_equiv_pos_as_xyz
  1  'x, y, z'
loop_
 _atom_site_type_symbol
 _atom_site_label
 _atom_site_symmetry_multiplicity
 _atom_site_fract_x
 _atom_site_fract_y
 _atom_site_fract_z
 _atom_site_occupancy
  K  K0  1  0.55353700  0.48836000  0.81029400  1
  K  K1  1  0.94646300  0.01164000  0.31029400  1
  K  K2  1  0.44646300  0.98836000  0.18970600  1
  K  K3  1  0.05353700  0.51164000  0.68970600  1
  K  K4  1  0.44646300  0.51164000  0.18970600  1
  K  K5  1  0.05353700  0.98836000  0.68970600  1
  K  K6  1  0.55353700  0.01164000  0.81029400  1
  K  K7  1  0.94646300  0.48836000  0.31029400  1
  S  S0  1  0.35569700  0.25000000  0.50307400  1
  S  S1  1  0.14430300  0.25000000  0.00307400  1
  S  S2  1  0.64430300  0.75000000  0.49692600  1
  S  S3  1  0.85569700  0.75000000  0.99692600  1
  N  N0  1  0.59813500  0.25000000  0.46451100  1
  N  N1  1  0.90186500  0.25000000  0.96451100  1
  N  N2  1  0.40186500  0.75000000  0.53548900  1
  N  N3  1  0.09813500  0.75000000  0.03548900  1
  N  N4  1  0.71419500  0.25000000  0.56352900  1
  N  N5  1  0.78580500  0.25000000  0.06352900  1
  N  N6  1  0.28580500  0.75000000  0.43647100  1
  N  N7  1  0.21419500  0.75000000  0.93647100  1
  O  O0  1  0.34407000  0.25000000  0.64778500  1
  O  O1  1  0.15593000  0.25000000  0.14778500  1
  O  O2  1  0.65593000  0.75000000  0.35221500  1
  O  O3  1  0.84407000  0.75000000  0.85221500  1
  O  O4  1  0.28934400  0.39884400  0.44114600  1
  O  O5  1  0.21065600  0.10115600  0.94114600  1
  O  O6  1  0.71065600  0.89884400  0.55885400  1
  O  O7  1  0.78934400  0.60115600  0.05885400  1
  O  O8  1  0.71065600  0.60115600  0.55885400  1
  O  O9  1  0.78934400  0.89884400  0.05885400  1
  O  O10  1  0.28934400  0.10115600  0.44114600  1
  O  O11  1  0.21065600  0.39884400  0.94114600  1
  O  O12  1  0.63953100  0.25000000  0.33887100  1
  O  O13  1  0.86046900  0.25000000  0.83887100  1
  O  O14  1  0.36046900  0.75000000  0.66112900  1
  O  O15  1  0.13953100  0.75000000  0.16112900  1
  O  O16  1  0.88674100  0.25000000  0.52755000  1
  O  O17  1  0.61325900  0.25000000  0.02755000  1
  O  O18  1  0.11325900  0.75000000  0.47245000  1
  O  O19  1  0.38674100  0.75000000  0.97245000  1
loop_
_geom_bond_atom_site_label_1
_geom_bond_atom_site_label_2
_geom_bond_distance
_geom_bond_site_symmetry_2
K0 O11 2.901722 1_555
K0 O8 2.935698 1_555
K0 O19 2.964525 1_555
K0 O0 2.974214 1_555
K0 O13 2.974763 1_555
K0 O14 2.977766 1_555
K0 O17 2.978829 1_556
K0 O3 3.037368 1_555
K0 O7 3.175140 1_556
K1 O10 2.901722 1_655
K1 O9 2.935698 1_545
K1 O18 2.964525 1_645
K1 O1 2.974214 1_655
K1 O12 2.974763 1_555
K1 O15 2.977766 1_645
K1 O16 2.978829 1_555
K1 O2 3.037368 1_545
K1 O6 3.175140 1_545
K2 O9 2.901722 1_555
K2 O10 2.935698 1_565
K2 O17 2.964525 1_565
K2 O2 2.974214 1_555
K2 O15 2.974763 1_555
K2 O12 2.977766 1_565
K2 O19 2.978829 1_554
K2 O1 3.037368 1_565
K2 O5 3.175140 1_564
K3 O8 2.901722 1_455
K3 O11 2.935698 1_555
K3 O16 2.964525 1_455
K3 O3 2.974214 1_455
K3 O14 2.974763 1_555
K3 O13 2.977766 1_455
K3 O18 2.978829 1_555
K3 O0 3.037368 1_555
K3 O4 3.175140 1_555
K4 O7 2.901722 1_555
K4 O4 2.935698 1_555
K4 O17 2.964525 1_555
K4 O2 2.974214 1_555
K4 O15 2.974763 1_555
K4 O12 2.977766 1_555
K4 O19 2.978829 1_554
K4 O1 3.037368 1_555
K4 O11 3.175140 1_554
K5 O6 2.901722 1_455
K5 O5 2.935698 1_565
K5 O16 2.964525 1_465
K5 O3 2.974214 1_455
K5 O14 2.974763 1_555
K5 O13 2.977766 1_465
K5 O18 2.978829 1_555
K5 O0 3.037368 1_565
K5 O10 3.175140 1_565
K6 O5 2.901722 1_555
K6 O6 2.935698 1_545
K6 O19 2.964525 1_545
K6 O0 2.974214 1_555
K6 O13 2.974763 1_555
K6 O14 2.977766 1_545
K6 O17 2.978829 1_556
K6 O3 3.037368 1_545
K6 O9 3.175140 1_546
K7 O4 2.901722 1_655
K7 O7 2.935698 1_555
K7 O18 2.964525 1_655
K7 O1 2.974214 1_655
K7 O12 2.974763 1_555
K7 O15 2.977766 1_655
K7 O16 2.978829 1_555
K7 O2 3.037368 1_555
K7 O8 3.175140 1_555
N0 O12 1.305489 1_555
N0 N4 1.305666 1_555
N0 S0 1.792694 1_555
N1 O13 1.305489 1_555
N1 N5 1.305666 1_556
N1 S1 1.792694 1_656
N2 O14 1.305489 1_555
N2 N6 1.305666 1_555
N2 S2 1.792694 1_555
N3 O15 1.305489 1_555
N3 N7 1.305666 1_554
N3 S3 1.792694 1_454
N4 O16 1.297400 1_555
N5 O17 1.297400 1_555
N6 O18 1.297400 1_555
N7 O19 1.297400 1_555
O0 S0 1.466147 1_555
O1 S1 1.466147 1_555
O2 S2 1.466147 1_555
O3 S3 1.466147 1_555
O4 S0 1.458177 1_555
O5 S1 1.458177 1_556
O6 S2 1.458177 1_555
O7 S3 1.458177 1_554
O8 S2 1.458177 1_555
O9 S3 1.458177 1_554
O10 S0 1.458177 1_555
O11 S1 1.458177 1_556
