# generated using pymatgen
data_Al(V4Si)3
_symmetry_space_group_name_H-M   'P 1'
_cell_length_a   4.70437220
_cell_length_b   4.71150931
_cell_length_c   9.41420726
_cell_angle_alpha   90.00000615
_cell_angle_beta   90.00000000
_cell_angle_gamma   90.00000000
_symmetry_Int_Tables_number   1
_chemical_formula_structural   Al(V4Si)3
_chemical_formula_sum   'Al1 V12 Si3'
_cell_volume   208.66301769
_cell_formula_units_Z   1
loop_
 _symmetry_equiv_pos_site_id
 _symmetry_equiv_pos_as_xyz
  1  'x, y, z'
loop_
 _atom_site_type_symbol
 _atom_site_label
 _atom_site_symmetry_multiplicity
 _atom_site_fract_x
 _atom_site_fract_y
 _atom_site_fract_z
 _atom_site_occupancy
  Al  Al0  1  0.50000000  0.50000000  -0.00000000  1
  V  V0  1  0.00000000  0.50000000  0.12818439  1
  V  V1  1  0.00000000  0.50000000  0.62561359  1
  V  V2  1  0.50000000  0.24683539  0.74524841  1
  V  V3  1  0.50000000  0.24683539  0.25475159  1
  V  V4  1  0.75769000  0.00000000  -0.00000000  1
  V  V5  1  0.74877000  0.00000000  0.50000000  1
  V  V6  1  0.00000000  0.50000000  0.87181561  1
  V  V7  1  0.00000000  0.50000000  0.37438641  1
  V  V8  1  0.50000000  0.75316461  0.74524841  1
  V  V9  1  0.50000000  0.75316461  0.25475159  1
  V  V10  1  0.24231000  -0.00000000  -0.00000000  1
  V  V11  1  0.25123000  -0.00000000  0.50000000  1
  Si  Si0  1  0.50000000  0.50000000  0.50000000  1
  Si  Si1  1  0.00000000  0.00000000  0.74841200  1
  Si  Si2  1  0.00000000  -0.00000000  0.25158800  1
loop_
_geom_bond_atom_site_label_1
_geom_bond_atom_site_label_2
_geom_bond_distance
_geom_bond_site_symmetry_2
Al0 V0 2.643678 1_655
Al0 V0 2.643678 1_555
Al0 V6 2.643678 1_654
Al0 V6 2.643678 1_554
Al0 V4 2.649373 1_555
Al0 V4 2.649373 1_565
Al0 V10 2.649373 1_565
Al0 V10 2.649373 1_555
Al0 V2 2.678527 1_554
Al0 V9 2.678527 1_555
Al0 V8 2.678528 1_554
Al0 V3 2.678528 1_555
V0 V7 2.317797 1_555
V0 V6 2.413509 1_554
V0 V10 2.881882 1_555
V0 V4 2.881882 1_455
V0 V10 2.881882 1_565
V0 V4 2.881882 1_465
V0 V9 2.894005 1_455
V0 V9 2.894005 1_555
V0 V3 2.894005 1_555
V0 V3 2.894005 1_455
V1 V6 2.317797 1_555
V1 V7 2.365105 1_555
V1 V8 2.867751 1_555
V1 V8 2.867751 1_455
V1 V2 2.867752 1_455
V1 V2 2.867752 1_555
V2 V8 2.325934 1_545
V2 V8 2.385575 1_555
V2 V5 2.837738 1_555
V2 V6 2.894005 1_555
V2 V6 2.894005 1_655
V2 V4 2.928115 1_556
V3 V9 2.325934 1_545
V3 V9 2.385575 1_555
V3 V5 2.837738 1_555
V3 V7 2.867751 1_655
V3 V7 2.867751 1_555
V3 V4 2.928115 1_555
V4 V6 2.881882 1_644
V4 V6 2.881882 1_654
V4 V8 2.928115 1_544
V4 V9 2.928115 1_545
V5 V9 2.837738 1_545
V5 V8 2.837738 1_545
V6 V8 2.894005 1_555
V6 V8 2.894005 1_455
V7 V9 2.867752 1_555
V7 V9 2.867752 1_455
V10 V4 2.279833 1_455
V10 V4 2.424539 1_555
V10 V6 2.881882 1_544
V10 V6 2.881882 1_554
V10 V3 2.928115 1_555
V10 V8 2.928115 1_544
V10 V9 2.928115 1_545
V10 V2 2.928115 1_554
V11 V5 2.340613 1_555
V11 V5 2.363759 1_455
V11 V2 2.837738 1_555
V11 V9 2.837738 1_545
V11 V8 2.837738 1_545
V11 V3 2.837738 1_555
Si0 V3 2.598728 1_555
Si0 V8 2.598728 1_555
Si0 V2 2.598728 1_555
Si0 V9 2.598728 1_555
Si0 V11 2.630437 1_555
Si0 V5 2.630437 1_555
Si0 V11 2.630437 1_565
Si0 V5 2.630437 1_565
Si0 V7 2.632719 1_655
Si0 V7 2.632719 1_555
Si0 V1 2.632719 1_555
Si0 V1 2.632719 1_655
Si1 V11 2.620286 1_555
Si1 V5 2.620286 1_455
Si1 V1 2.624125 1_545
Si1 V1 2.624125 1_555
Si1 V8 2.624149 1_545
Si1 V8 2.624149 1_445
Si1 V2 2.624149 1_455
Si1 V2 2.624149 1_555
Si1 V6 2.626640 1_555
Si1 V6 2.626640 1_545
Si1 V4 2.628537 1_456
Si1 V10 2.628537 1_556
Si2 V5 2.620286 1_455
Si2 V11 2.620286 1_555
Si2 V7 2.624125 1_555
Si2 V7 2.624125 1_545
Si2 V3 2.624149 1_455
Si2 V3 2.624149 1_555
Si2 V9 2.624149 1_445
Si2 V9 2.624149 1_545
Si2 V0 2.626640 1_545
Si2 V0 2.626640 1_555
Si2 V4 2.628537 1_455
Si2 V10 2.628537 1_555
