# generated using pymatgen
data_LuGaNi2
_symmetry_space_group_name_H-M   'P 1'
_cell_length_a   5.08463760
_cell_length_b   5.08463112
_cell_length_c   15.61219376
_cell_angle_alpha   89.99986137
_cell_angle_beta   90.00005717
_cell_angle_gamma   119.99839656
_symmetry_Int_Tables_number   1
_chemical_formula_structural   LuGaNi2
_chemical_formula_sum   'Lu6 Ga6 Ni12'
_cell_volume   349.55944154
_cell_formula_units_Z   6
loop_
 _symmetry_equiv_pos_site_id
 _symmetry_equiv_pos_as_xyz
  1  'x, y, z'
loop_
 _atom_site_type_symbol
 _atom_site_label
 _atom_site_symmetry_multiplicity
 _atom_site_fract_x
 _atom_site_fract_y
 _atom_site_fract_z
 _atom_site_occupancy
  Lu  Lu0  1  0.33333098  0.66666375  0.54282707  1
  Lu  Lu1  1  0.66666949  0.33333743  0.45716697  1
  Lu  Lu2  1  0.66666686  0.33333516  0.04285982  1
  Lu  Lu3  1  0.33333107  0.66666566  0.95716160  1
  Lu  Lu4  1  0.33333638  0.66667373  0.74998842  1
  Lu  Lu5  1  0.66666577  0.33333223  0.25000272  1
  Ga  Ga0  1  0.00000308  0.00000029  0.24999971  1
  Ga  Ga1  1  -0.00000039  0.00000062  0.75000007  1
  Ga  Ga2  1  0.33333186  0.66666546  0.24999991  1
  Ga  Ga3  1  0.66666805  0.33333533  0.74999906  1
  Ga  Ga4  1  0.00000083  0.00000028  0.00002350  1
  Ga  Ga5  1  0.00000182  0.00000105  0.49997445  1
  Ni  Ni0  1  0.16893128  0.33786696  0.12565318  1
  Ni  Ni1  1  0.83107169  0.66213518  0.87440924  1
  Ni  Ni2  1  0.66213351  0.83107001  0.12565471  1
  Ni  Ni3  1  0.83107209  0.66213339  0.62557187  1
  Ni  Ni4  1  0.33786599  0.16892819  0.87440870  1
  Ni  Ni5  1  0.16892822  0.33786830  0.37436244  1
  Ni  Ni6  1  0.16893704  0.83106601  0.12565572  1
  Ni  Ni7  1  0.33786280  0.16892324  0.62557394  1
  Ni  Ni8  1  0.83106874  0.16893724  0.87440795  1
  Ni  Ni9  1  0.66212938  0.83106853  0.37436260  1
  Ni  Ni10  1  0.83105795  0.16892923  0.62557306  1
  Ni  Ni11  1  0.16893651  0.83106073  0.37436129  1
loop_
_geom_bond_atom_site_label_1
_geom_bond_atom_site_label_2
_geom_bond_distance
_geom_bond_site_symmetry_2
Lu0 Ni3 2.851745 1_455
Lu0 Ni7 2.851758 1_565
Lu0 Ni3 2.851799 1_555
Lu0 Ni7 2.851809 1_555
Lu0 Ni10 2.851818 1_565
Lu0 Ni10 2.851849 1_455
Lu0 Ni11 3.002271 1_555
Lu0 Ni5 3.002286 1_555
Lu0 Ni9 3.002287 1_555
Lu0 Lu4 3.234243 1_555
Lu1 Ni5 2.852166 1_655
Lu1 Ni9 2.852189 1_545
Lu1 Ni9 2.852193 1_555
Lu1 Ni5 2.852223 1_555
Lu1 Ni11 2.852233 1_655
Lu1 Ni11 2.852280 1_545
Lu1 Ni10 3.001466 1_555
Lu1 Ni3 3.001470 1_555
Lu1 Ni7 3.001519 1_555
Lu1 Lu5 3.234288 1_555
Lu2 Ni0 2.852108 1_655
Lu2 Ni2 2.852114 1_545
Lu2 Ni0 2.852123 1_555
Lu2 Ni2 2.852132 1_555
Lu2 Ni6 2.852183 1_545
Lu2 Ni6 2.852191 1_655
Lu2 Ni1 3.002098 1_554
Lu2 Ni8 3.002104 1_554
Lu2 Ni4 3.002111 1_554
Lu2 Lu5 3.233955 1_555
Lu3 Ni1 2.851798 1_455
Lu3 Ni4 2.851802 1_565
Lu3 Ni4 2.851851 1_555
Lu3 Ni1 2.851852 1_555
Lu3 Ni8 2.851869 1_455
Lu3 Ni8 2.851907 1_565
Lu3 Ni0 3.002655 1_556
Lu3 Ni6 3.002670 1_556
Lu3 Ni2 3.002688 1_556
Lu3 Lu4 3.234428 1_555
Lu4 Ni7 3.199413 1_565
Lu4 Ni3 3.199469 1_455
Lu4 Ni10 3.199482 1_565
Lu4 Ni4 3.199489 1_565
Lu4 Ni1 3.199518 1_455
Lu4 Ni3 3.199519 1_555
Lu4 Ni7 3.199530 1_555
Lu4 Ni1 3.199551 1_555
Lu4 Ni8 3.199563 1_565
Lu4 Ni4 3.199564 1_555
Lu4 Ni8 3.199576 1_455
Lu4 Ni10 3.199579 1_455
Lu5 Ni2 3.198830 1_545
Lu5 Ni0 3.198853 1_655
Lu5 Ni2 3.198853 1_555
Lu5 Ni0 3.198864 1_555
Lu5 Ni6 3.198874 1_545
Lu5 Ni6 3.198891 1_655
Lu5 Ni5 3.198932 1_655
Lu5 Ni9 3.198933 1_545
Lu5 Ni9 3.198976 1_555
Lu5 Ni5 3.198979 1_555
Lu5 Ni11 3.198992 1_545
Lu5 Ni11 3.198993 1_655
Ga0 Ni6 2.445819 1_545
Ga0 Ni2 2.445856 1_445
Ga0 Ni0 2.445863 1_555
Ga0 Ni11 2.446045 1_545
Ga0 Ni5 2.446073 1_555
Ga0 Ni9 2.446088 1_445
Ga0 Lu5 2.935603 1_455
Ga0 Lu5 2.935647 1_555
Ga0 Lu5 2.935667 1_445
Ga1 Ni8 2.446609 1_455
Ga1 Ni4 2.446636 1_555
Ga1 Ni1 2.446636 1_445
Ga1 Ni7 2.446844 1_555
Ga1 Ni10 2.446849 1_455
Ga1 Ni3 2.446882 1_445
Ga1 Lu4 2.935578 1_545
Ga1 Lu4 2.935649 1_445
Ga1 Lu4 2.935689 1_555
Ga2 Ni6 2.421723 1_555
Ga2 Ni2 2.421776 1_555
Ga2 Ni0 2.421788 1_555
Ga2 Ni11 2.421930 1_555
Ga2 Ni5 2.421977 1_555
Ga2 Ni9 2.421984 1_555
Ga2 Lu5 2.935593 1_555
Ga2 Lu5 2.935661 1_565
Ga2 Lu5 2.935662 1_455
Ga3 Ni8 2.422542 1_555
Ga3 Ni4 2.422583 1_555
Ga3 Ni1 2.422586 1_555
Ga3 Ni10 2.422753 1_555
Ga3 Ni7 2.422786 1_555
Ga3 Ni3 2.422789 1_555
Ga3 Lu4 2.935606 1_555
Ga3 Lu4 2.935638 1_545
Ga3 Lu4 2.935672 1_655
Ga4 Ni1 2.461603 1_444
Ga4 Ni8 2.461603 1_454
Ga4 Ni4 2.461608 1_554
Ga4 Ni0 2.461799 1_555
Ga4 Ni6 2.461814 1_545
Ga4 Ni2 2.461818 1_445
Ga4 Lu2 3.010816 1_455
Ga4 Lu2 3.010865 1_445
Ga4 Lu2 3.010874 1_555
Ga4 Lu3 3.010887 1_544
Ga4 Lu3 3.010955 1_554
Ga4 Lu3 3.010979 1_444
Ga5 Ni3 2.461395 1_445
Ga5 Ni10 2.461405 1_455
Ga5 Ni7 2.461407 1_555
Ga5 Ni5 2.461575 1_555
Ga5 Ni9 2.461591 1_445
Ga5 Ni11 2.461594 1_545
Ga5 Lu1 3.010713 1_455
Ga5 Lu1 3.010761 1_445
Ga5 Lu1 3.010781 1_555
Ga5 Lu0 3.010860 1_545
Ga5 Lu0 3.010914 1_555
Ga5 Lu0 3.010951 1_445
Ni0 Ni6 2.507721 1_555
Ni0 Ni2 2.507816 1_555
Ni0 Ni6 2.576911 1_545
Ni0 Ni2 2.576942 1_445
Ni1 Ni8 2.507722 1_555
Ni1 Ni4 2.507835 1_555
Ni1 Ni8 2.576909 1_565
Ni1 Ni4 2.576923 1_665
Ni2 Ni6 2.507715 1_555
Ni2 Ni6 2.576922 1_655
Ni3 Ni7 2.507852 1_555
Ni3 Ni7 2.576906 1_665
Ni4 Ni8 2.507734 1_555
Ni4 Ni8 2.576903 1_455
Ni5 Ni9 2.507806 1_555
Ni5 Ni9 2.576952 1_445
Ni10 Ni7 2.507703 1_555
Ni10 Ni3 2.507725 1_555
Ni10 Ni3 2.576906 1_545
Ni10 Ni7 2.576934 1_655
Ni11 Ni5 2.507681 1_555
Ni11 Ni9 2.507687 1_555
Ni11 Ni9 2.576950 1_455
Ni11 Ni5 2.576951 1_565
