# generated using pymatgen
data_Li2VNiO4
_symmetry_space_group_name_H-M   'P 1'
_cell_length_a   5.13631700
_cell_length_b   5.87719130
_cell_length_c   7.78705220
_cell_angle_alpha   100.73331466
_cell_angle_beta   108.99427881
_cell_angle_gamma   89.83867603
_symmetry_Int_Tables_number   1
_chemical_formula_structural   Li2VNiO4
_chemical_formula_sum   'Li6 V3 Ni3 O12'
_cell_volume   217.95767166
_cell_formula_units_Z   3
loop_
 _symmetry_equiv_pos_site_id
 _symmetry_equiv_pos_as_xyz
  1  'x, y, z'
loop_
 _atom_site_type_symbol
 _atom_site_label
 _atom_site_symmetry_multiplicity
 _atom_site_fract_x
 _atom_site_fract_y
 _atom_site_fract_z
 _atom_site_occupancy
  Li  Li0  1  0.16881300  0.92322900  0.66825200  1
  Li  Li1  1  0.49740600  0.75927900  0.00287000  1
  Li  Li2  1  0.16463100  0.41440300  0.66660400  1
  Li  Li3  1  0.83118700  0.07677100  0.33174800  1
  Li  Li4  1  0.83536900  0.58559700  0.33339600  1
  Li  Li5  1  0.50259400  0.24072100  0.99713000  1
  V  V0  1  0.66547200  0.67622800  0.66459400  1
  V  V1  1  0.33452800  0.32377200  0.33540600  1
  V  V2  1  0.00000000  0.50000000  0.00000000  1
  Ni  Ni0  1  0.66591700  0.16689200  0.66702900  1
  Ni  Ni1  1  0.33408300  0.83310800  0.33297100  1
  Ni  Ni2  1  0.00000000  0.00000000  0.00000000  1
  O  O0  1  0.72639800  0.38506400  0.49774900  1
  O  O1  1  0.74596700  0.86079400  0.51155600  1
  O  O2  1  0.39412300  0.52573100  0.17167300  1
  O  O3  1  0.41023000  0.05206000  0.17447700  1
  O  O4  1  0.06079200  0.69911500  0.83225700  1
  O  O5  1  0.07304600  0.23214300  0.84500200  1
  O  O6  1  0.25403300  0.13920600  0.48844400  1
  O  O7  1  0.27360200  0.61493600  0.50225100  1
  O  O8  1  0.92695400  0.76785700  0.15499800  1
  O  O9  1  0.93920800  0.30088500  0.16774300  1
  O  O10  1  0.58977000  0.94794000  0.82552300  1
  O  O11  1  0.60587700  0.47426900  0.82832700  1
loop_
_geom_bond_atom_site_label_1
_geom_bond_atom_site_label_2
_geom_bond_distance
_geom_bond_site_symmetry_2
Li0 O10 2.099461 1_555
Li0 O1 2.110257 1_455
Li0 O4 2.183049 1_555
Li0 O7 2.195138 1_555
Li0 O6 2.197131 1_565
Li0 O5 2.222037 1_565
Li1 O10 2.088417 1_554
Li1 O3 2.115611 1_565
Li1 O8 2.133228 1_555
Li1 O11 2.145518 1_554
Li1 O4 2.193025 1_554
Li1 O2 2.241292 1_555
Li2 O5 2.069073 1_555
Li2 O6 2.079961 1_555
Li2 O7 2.090955 1_555
Li2 O4 2.094571 1_555
Li2 O0 2.194620 1_455
Li2 O11 2.197217 1_555
Li3 O3 2.099461 1_555
Li3 O6 2.110257 1_655
Li3 O9 2.183049 1_555
Li3 O0 2.195138 1_555
Li3 O1 2.197131 1_545
Li3 O8 2.222037 1_545
Li4 O8 2.069073 1_555
Li4 O1 2.079961 1_555
Li4 O0 2.090955 1_555
Li4 O9 2.094571 1_555
Li4 O7 2.194620 1_655
Li4 O2 2.197217 1_555
Li5 O3 2.088417 1_556
Li5 O10 2.115611 1_545
Li5 O5 2.133228 1_555
Li5 O2 2.145518 1_556
Li5 O9 2.193025 1_556
Li5 O11 2.241292 1_555
Ni0 O10 2.059310 1_545
Ni0 O11 2.083280 1_555
Ni0 O5 2.088224 1_655
Ni0 O0 2.092043 1_555
Ni0 O1 2.092795 1_545
Ni0 O6 2.106790 1_555
Ni1 O3 2.059310 1_565
Ni1 O2 2.083280 1_555
Ni1 O8 2.088224 1_455
Ni1 O7 2.092043 1_555
Ni1 O6 2.092795 1_565
Ni1 O1 2.106790 1_555
Ni2 O9 2.081545 1_455
Ni2 O4 2.081545 1_544
Ni2 O10 2.089159 1_444
Ni2 O3 2.089159 1_555
Ni2 O8 2.090464 1_445
Ni2 O5 2.090464 1_554
O0 V1 1.989288 1_555
O0 V0 2.036603 1_555
O1 V0 1.890109 1_555
O2 V1 1.986946 1_555
O2 V2 2.018109 1_555
O3 V1 1.959592 1_555
O4 V2 2.002521 1_556
O4 V0 2.013959 1_455
O5 V2 1.912990 1_556
O6 V1 1.890109 1_555
O7 V0 1.989288 1_555
O7 V1 2.036603 1_555
O8 V2 1.912990 1_655
O9 V2 2.002521 1_655
O9 V1 2.013959 1_655
O10 V0 1.959592 1_555
O11 V0 1.986946 1_555
O11 V2 2.018109 1_656
