# generated using pymatgen
data_Eu3Ge5
_symmetry_space_group_name_H-M   'P 1'
_cell_length_a   6.27396623
_cell_length_b   6.27396586
_cell_length_c   9.75882749
_cell_angle_alpha   89.99826971
_cell_angle_beta   89.99826741
_cell_angle_gamma   101.60181538
_symmetry_Int_Tables_number   1
_chemical_formula_structural   Eu3Ge5
_chemical_formula_sum   'Eu6 Ge10'
_cell_volume   376.28503576
_cell_formula_units_Z   2
loop_
 _symmetry_equiv_pos_site_id
 _symmetry_equiv_pos_as_xyz
  1  'x, y, z'
loop_
 _atom_site_type_symbol
 _atom_site_label
 _atom_site_symmetry_multiplicity
 _atom_site_fract_x
 _atom_site_fract_y
 _atom_site_fract_z
 _atom_site_occupancy
  Eu  Eu0  1  0.79428073  0.20571463  0.50002830  1
  Eu  Eu1  1  0.79428381  0.20571171  -0.00002824  1
  Eu  Eu2  1  0.20571462  0.79428063  0.50002834  1
  Eu  Eu3  1  0.20571168  0.79428361  -0.00002827  1
  Eu  Eu4  1  0.65416131  0.65416128  0.25007675  1
  Eu  Eu5  1  0.34583522  0.34583547  0.74992342  1
  Ge  Ge0  1  0.09643029  0.47771447  0.25006651  1
  Ge  Ge1  1  0.52228134  0.90359585  0.74993364  1
  Ge  Ge2  1  0.90359579  0.52228176  0.74993359  1
  Ge  Ge3  1  0.47771437  0.09642999  0.25006649  1
  Ge  Ge4  1  0.30647917  0.30647899  0.44035234  1
  Ge  Ge5  1  0.69351484  0.69351498  0.55967727  1
  Ge  Ge6  1  0.30648209  0.30648204  0.05969384  1
  Ge  Ge7  1  0.69351206  0.69351216  0.94027687  1
  Ge  Ge8  1  0.05438972  0.05438941  0.25006695  1
  Ge  Ge9  1  0.94561496  0.94561502  0.74993317  1
loop_
_geom_bond_atom_site_label_1
_geom_bond_atom_site_label_2
_geom_bond_distance
_geom_bond_site_symmetry_2
Eu0 Ge2 3.132931 1_555
Eu0 Ge3 3.133341 1_555
Eu0 Ge9 3.183579 1_545
Eu0 Ge8 3.184012 1_655
Eu0 Ge5 3.201246 1_545
Eu0 Ge4 3.201287 1_655
Eu0 Ge5 3.298960 1_555
Eu0 Ge4 3.299010 1_555
Eu0 Ge1 3.339332 1_545
Eu0 Ge0 3.339825 1_655
Eu1 Ge2 3.133824 1_554
Eu1 Ge3 3.134235 1_555
Eu1 Ge9 3.184592 1_544
Eu1 Ge8 3.185026 1_655
Eu1 Ge7 3.201369 1_544
Eu1 Ge6 3.201410 1_655
Eu1 Ge7 3.299028 1_554
Eu1 Ge6 3.299079 1_555
Eu1 Ge1 3.340437 1_544
Eu1 Ge0 3.340930 1_655
Eu2 Ge1 3.132930 1_555
Eu2 Ge0 3.133340 1_555
Eu2 Ge9 3.183579 1_455
Eu2 Ge8 3.184011 1_565
Eu2 Ge5 3.201247 1_455
Eu2 Ge4 3.201286 1_565
Eu2 Ge5 3.298959 1_555
Eu2 Ge4 3.299011 1_555
Eu2 Ge2 3.339330 1_455
Eu2 Ge3 3.339825 1_565
Eu3 Ge1 3.133823 1_554
Eu3 Ge0 3.134234 1_555
Eu3 Ge9 3.184592 1_454
Eu3 Ge8 3.185025 1_565
Eu3 Ge7 3.201370 1_454
Eu3 Ge6 3.201411 1_565
Eu3 Ge7 3.299027 1_554
Eu3 Ge6 3.299078 1_555
Eu3 Ge2 3.340435 1_454
Eu3 Ge3 3.340930 1_565
Eu4 Ge5 3.037429 1_555
Eu4 Ge7 3.039333 1_554
Eu4 Ge8 3.174013 1_665
Eu4 Ge3 3.187539 1_565
Eu4 Ge0 3.187540 1_655
Eu4 Ge4 3.324176 1_555
Eu4 Ge6 3.324889 1_555
Eu4 Ge0 3.451338 1_555
Eu4 Ge3 3.451340 1_555
Eu5 Ge4 3.037146 1_555
Eu5 Ge6 3.039049 1_556
Eu5 Ge9 3.173950 1_445
Eu5 Ge2 3.187364 1_455
Eu5 Ge1 3.187365 1_545
Eu5 Ge5 3.323998 1_555
Eu5 Ge7 3.324712 1_555
Eu5 Ge1 3.451512 1_555
Eu5 Ge2 3.451514 1_555
Ge0 Ge8 2.615674 1_555
Ge0 Ge4 2.628438 1_555
Ge0 Ge6 2.629027 1_555
Ge1 Ge9 2.615742 1_555
Ge1 Ge5 2.628345 1_555
Ge1 Ge7 2.628935 1_555
Ge2 Ge9 2.615739 1_555
Ge2 Ge5 2.628344 1_555
Ge2 Ge7 2.628935 1_555
Ge3 Ge8 2.615672 1_555
Ge3 Ge4 2.628437 1_555
Ge3 Ge6 2.629027 1_555
Ge4 Ge8 2.728636 1_555
Ge5 Ge9 2.728502 1_555
Ge6 Ge8 2.729106 1_555
Ge7 Ge9 2.728971 1_555
