# generated using pymatgen
data_Li4MnCo2O7
_symmetry_space_group_name_H-M   'P 1'
_cell_length_a   2.97371100
_cell_length_b   5.96170890
_cell_length_c   14.29842567
_cell_angle_alpha   82.91795220
_cell_angle_beta   84.53165048
_cell_angle_gamma   85.83523810
_symmetry_Int_Tables_number   1
_chemical_formula_structural   Li4MnCo2O7
_chemical_formula_sum   'Li8 Mn2 Co4 O14'
_cell_volume   249.93349353
_cell_formula_units_Z   2
loop_
 _symmetry_equiv_pos_site_id
 _symmetry_equiv_pos_as_xyz
  1  'x, y, z'
loop_
 _atom_site_type_symbol
 _atom_site_label
 _atom_site_symmetry_multiplicity
 _atom_site_fract_x
 _atom_site_fract_y
 _atom_site_fract_z
 _atom_site_occupancy
  Li  Li0  1  0.00568800  0.49694900  0.99548800  1
  Li  Li1  1  0.57594800  0.79552800  0.85305900  1
  Li  Li2  1  0.13940900  0.07585000  0.71907700  1
  Li  Li3  1  0.42615100  0.21278500  0.14480800  1
  Li  Li4  1  0.85849400  0.92749500  0.28451600  1
  Li  Li5  1  0.28500200  0.64296300  0.42922200  1
  Li  Li6  1  0.71156000  0.35800500  0.57431000  1
  Li  Li7  1  0.56762300  0.27830200  0.85359400  1
  Mn  Mn0  1  0.00510100  0.00718600  0.99542400  1
  Mn  Mn1  1  0.28585700  0.14150000  0.42936100  1
  Co  Co0  1  0.13706200  0.56076700  0.72067800  1
  Co  Co1  1  0.71243500  0.85424700  0.57350800  1
  Co  Co2  1  0.85918200  0.43100500  0.28500900  1
  Co  Co3  1  0.43588200  0.71665100  0.14324100  1
  O  O0  1  0.52033400  0.77534700  0.00564000  1
  O  O1  1  0.06113200  0.02940300  0.86707200  1
  O  O2  1  0.61746600  0.34217600  0.71348300  1
  O  O3  1  0.89963100  0.47742400  0.14767600  1
  O  O4  1  0.32872900  0.19003100  0.28968100  1
  O  O5  1  0.75593400  0.89369200  0.43563200  1
  O  O6  1  0.18326800  0.61748400  0.58253000  1
  O  O7  1  0.47677800  0.22005200  0.00047600  1
  O  O8  1  0.07992600  0.54386100  0.84399600  1
  O  O9  1  0.67084200  0.80846000  0.70730900  1
  O  O10  1  0.96046900  0.95028400  0.13713100  1
  O  O11  1  0.38470000  0.66747100  0.27866900  1
  O  O12  1  0.81440400  0.39012700  0.42189500  1
  O  O13  1  0.24099500  0.09495800  0.56751300  1
loop_
_geom_bond_atom_site_label_1
_geom_bond_atom_site_label_2
_geom_bond_distance
_geom_bond_site_symmetry_2
Li0 O7 2.084887 1_556
Li0 O0 2.128479 1_456
Li0 O8 2.141817 1_555
Li0 O3 2.158768 1_456
Li0 O7 2.351734 1_456
Li0 O0 2.364024 1_556
Li1 O1 2.007058 1_565
Li1 O8 2.048968 1_655
Li1 O9 2.068833 1_555
Li1 O1 2.117084 1_665
Li1 O0 2.161227 1_556
Li1 O8 2.202138 1_555
Li2 O1 2.092777 1_555
Li2 O2 2.137945 1_455
Li2 O13 2.149424 1_555
Li2 O9 2.171740 1_545
Li2 O2 2.196177 1_555
Li2 O9 2.223610 1_445
Li3 O7 2.050163 1_555
Li3 O4 2.053120 1_555
Li3 O3 2.141777 1_455
Li3 O10 2.152604 1_545
Li3 O10 2.182870 1_445
Li3 O3 2.196105 1_555
Li4 O10 2.089265 1_555
Li4 O11 2.124456 1_655
Li4 O5 2.139697 1_555
Li4 O4 2.141298 1_565
Li4 O11 2.183298 1_555
Li4 O4 2.185552 1_665
Li5 O5 2.093494 1_455
Li5 O12 2.103390 1_555
Li5 O11 2.133151 1_555
Li5 O5 2.136869 1_555
Li5 O12 2.148182 1_455
Li5 O6 2.172076 1_555
Li6 O2 1.974468 1_555
Li6 O6 2.128729 1_555
Li6 O13 2.144113 1_655
Li6 O12 2.158263 1_555
Li6 O6 2.183094 1_655
Li6 O13 2.192961 1_555
Li7 O2 1.985937 1_555
Li7 O1 2.014892 1_655
Li7 O8 2.068684 1_555
Li7 O7 2.080863 1_556
Li7 O1 2.169399 1_555
Li7 O8 2.259001 1_655
Mn0 O1 1.816141 1_555
Mn0 O7 1.948170 1_456
Mn0 O7 1.970667 1_556
Mn0 O0 1.991098 1_546
Mn0 O10 2.005973 1_446
Mn0 O0 2.051650 1_446
Mn1 O13 1.953668 1_555
Mn1 O5 1.958556 1_545
Mn1 O12 1.965099 1_455
Mn1 O4 1.975634 1_555
Mn1 O12 2.224009 1_555
Mn1 O5 2.225411 1_445
Co0 O8 1.746326 1_555
Co0 O2 1.866638 1_555
Co0 O9 1.955189 1_455
Co0 O6 1.955848 1_555
Co0 O2 2.110000 1_455
Co0 O9 2.224786 1_555
Co1 O9 1.892343 1_555
Co1 O6 1.916199 1_655
Co1 O13 1.931959 1_565
Co1 O5 1.949356 1_555
Co1 O6 2.173528 1_555
Co1 O13 2.192905 1_665
Co2 O11 1.921036 1_555
Co2 O4 1.928919 1_655
Co2 O12 1.935301 1_555
Co2 O3 1.942364 1_555
Co2 O11 2.167769 1_655
Co2 O4 2.200448 1_555
Co3 O3 1.910119 1_555
Co3 O10 1.911505 1_455
Co3 O11 1.915494 1_555
Co3 O0 1.950722 1_555
Co3 O10 2.154251 1_555
Co3 O3 2.206755 1_455
