# generated using pymatgen
data_TePIr
_symmetry_space_group_name_H-M   'P 1'
_cell_length_a   6.10610600
_cell_length_b   6.11006400
_cell_length_c   12.37218700
_cell_angle_alpha   90.00000000
_cell_angle_beta   90.00000000
_cell_angle_gamma   90.00000000
_symmetry_Int_Tables_number   1
_chemical_formula_structural   TePIr
_chemical_formula_sum   'Te8 P8 Ir8'
_cell_volume   461.59019396
_cell_formula_units_Z   8
loop_
 _symmetry_equiv_pos_site_id
 _symmetry_equiv_pos_as_xyz
  1  'x, y, z'
loop_
 _atom_site_type_symbol
 _atom_site_label
 _atom_site_symmetry_multiplicity
 _atom_site_fract_x
 _atom_site_fract_y
 _atom_site_fract_z
 _atom_site_occupancy
  Te  Te0  1  0.37802400  0.29362700  0.42698800  1
  Te  Te1  1  0.87802400  0.20637300  0.57301200  1
  Te  Te2  1  0.62197600  0.79362700  0.07301200  1
  Te  Te3  1  0.12197600  0.70637300  0.92698800  1
  Te  Te4  1  0.62197600  0.70637300  0.57301200  1
  Te  Te5  1  0.12197600  0.79362700  0.42698800  1
  Te  Te6  1  0.37802400  0.20637300  0.92698800  1
  Te  Te7  1  0.87802400  0.29362700  0.07301200  1
  P  P0  1  0.62372400  0.04955800  0.30973000  1
  P  P1  1  0.12372400  0.45044200  0.69027000  1
  P  P2  1  0.37627600  0.54955800  0.19027000  1
  P  P3  1  0.87627600  0.95044200  0.80973000  1
  P  P4  1  0.37627600  0.95044200  0.69027000  1
  P  P5  1  0.87627600  0.54955800  0.30973000  1
  P  P6  1  0.62372400  0.45044200  0.80973000  1
  P  P7  1  0.12372400  0.04955800  0.19027000  1
  Ir  Ir0  1  0.47799900  0.18014600  0.14117600  1
  Ir  Ir1  1  0.97799900  0.31985400  0.85882400  1
  Ir  Ir2  1  0.52200100  0.68014600  0.35882400  1
  Ir  Ir3  1  0.02200100  0.81985400  0.64117600  1
  Ir  Ir4  1  0.52200100  0.81985400  0.85882400  1
  Ir  Ir5  1  0.02200100  0.68014600  0.14117600  1
  Ir  Ir6  1  0.47799900  0.31985400  0.64117600  1
  Ir  Ir7  1  0.97799900  0.18014600  0.35882400  1
loop_
_geom_bond_atom_site_label_1
_geom_bond_atom_site_label_2
_geom_bond_distance
_geom_bond_site_symmetry_2
P0 Te0 2.565026 1_555
P1 Te1 2.565026 1_455
P2 Te2 2.565026 1_555
P3 Te3 2.565026 1_655
P4 Te4 2.565026 1_555
P5 Te5 2.565026 1_655
P6 Te6 2.565026 1_555
P7 Te7 2.565026 1_455
Ir0 P7 2.384364 1_555
Ir0 P0 2.403587 1_555
Ir0 P2 2.418549 1_555
Ir0 Te2 2.657352 1_545
Ir0 Te7 2.675492 1_555
Ir0 Te6 2.724096 1_554
Ir1 P6 2.384364 1_555
Ir1 P1 2.403587 1_655
Ir1 P3 2.418549 1_545
Ir1 Te3 2.657352 1_655
Ir1 Te6 2.675492 1_655
Ir1 Te7 2.724096 1_556
Ir2 P5 2.384364 1_555
Ir2 P2 2.403587 1_555
Ir2 P0 2.418549 1_565
Ir2 Te0 2.657352 1_555
Ir2 Te5 2.675492 1_555
Ir2 Te4 2.724096 1_555
Ir3 P4 2.384364 1_555
Ir3 P3 2.403587 1_455
Ir3 P1 2.418549 1_555
Ir3 Te1 2.657352 1_465
Ir3 Te4 2.675492 1_455
Ir3 Te5 2.724096 1_555
Ir4 P3 2.384364 1_555
Ir4 P4 2.403587 1_555
Ir4 P6 2.418549 1_555
Ir4 Te6 2.657352 1_565
Ir4 Te3 2.675492 1_555
Ir4 Te2 2.724096 1_556
Ir5 P2 2.384364 1_555
Ir5 P5 2.403587 1_455
Ir5 P7 2.418549 1_565
Ir5 Te7 2.657352 1_455
Ir5 Te2 2.675492 1_455
Ir5 Te3 2.724096 1_554
Ir6 P1 2.384364 1_555
Ir6 P6 2.403587 1_555
Ir6 P4 2.418549 1_545
Ir6 Te4 2.657352 1_555
Ir6 Te1 2.675492 1_555
Ir6 Te0 2.724096 1_555
Ir7 P0 2.384364 1_555
Ir7 P7 2.403587 1_655
Ir7 P5 2.418549 1_555
Ir7 Te5 2.657352 1_645
Ir7 Te0 2.675492 1_655
Ir7 Te1 2.724096 1_555
