# generated using pymatgen
data_TeP2C6(NCl)2
_symmetry_space_group_name_H-M   'P 1'
_cell_length_a   12.37321396
_cell_length_b   6.91874600
_cell_length_c   14.85183951
_cell_angle_alpha   90.00000000
_cell_angle_beta   80.67651917
_cell_angle_gamma   90.00000000
_symmetry_Int_Tables_number   1
_chemical_formula_structural   TeP2C6(NCl)2
_chemical_formula_sum   'Te4 P8 C24 N8 Cl8'
_cell_volume   1254.62701806
_cell_formula_units_Z   4
loop_
 _symmetry_equiv_pos_site_id
 _symmetry_equiv_pos_as_xyz
  1  'x, y, z'
loop_
 _atom_site_type_symbol
 _atom_site_label
 _atom_site_symmetry_multiplicity
 _atom_site_fract_x
 _atom_site_fract_y
 _atom_site_fract_z
 _atom_site_occupancy
  Te  Te0  1  0.17732900  0.39807400  0.48284900  1
  Te  Te1  1  0.82267100  0.89807400  0.01715100  1
  Te  Te2  1  0.82267100  0.60192600  0.51715100  1
  Te  Te3  1  0.17732900  0.10192600  0.98284900  1
  P  P0  1  0.31512600  0.73043000  0.54645900  1
  P  P1  1  0.68487400  0.23043000  0.95354100  1
  P  P2  1  0.68487400  0.26957000  0.45354100  1
  P  P3  1  0.31512600  0.76957000  0.04645900  1
  P  P4  1  0.31296100  0.56069400  0.72881800  1
  P  P5  1  0.68703900  0.06069400  0.77118200  1
  P  P6  1  0.68703900  0.43930600  0.27118200  1
  P  P7  1  0.31296100  0.93930600  0.22881800  1
  C  C0  1  0.42764400  0.66788600  0.76961100  1
  C  C1  1  0.57235600  0.16788600  0.73038900  1
  C  C2  1  0.57235600  0.33211400  0.23038900  1
  C  C3  1  0.42764400  0.83211400  0.26961100  1
  C  C4  1  0.55119000  0.97465200  0.76876000  1
  C  C5  1  0.44881000  0.47465200  0.73124000  1
  C  C6  1  0.44881000  0.02534800  0.23124000  1
  C  C7  1  0.55119000  0.52534800  0.26876000  1
  C  C8  1  0.48372600  0.82749100  0.77520300  1
  C  C9  1  0.51627400  0.32749100  0.72479700  1
  C  C10  1  0.51627400  0.17250900  0.22479700  1
  C  C11  1  0.48372600  0.67250900  0.27520300  1
  C  C12  1  0.21444800  0.44557100  0.81060500  1
  C  C13  1  0.78555200  0.94557100  0.68939500  1
  C  C14  1  0.78555200  0.55442900  0.18939500  1
  C  C15  1  0.21444800  0.05442900  0.31060500  1
  C  C16  1  0.10049500  0.43487900  0.84808900  1
  C  C17  1  0.89950500  0.93487900  0.65191100  1
  C  C18  1  0.89950500  0.56512100  0.15191100  1
  C  C19  1  0.10049500  0.06512100  0.34808900  1
  C  C20  1  0.18220800  0.30889700  0.87384200  1
  C  C21  1  0.81779200  0.80889700  0.62615800  1
  C  C22  1  0.81779200  0.69110300  0.12615800  1
  C  C23  1  0.18220800  0.19110300  0.37384200  1
  N  N0  1  0.27623500  0.63222300  0.46000800  1
  N  N1  1  0.72376500  0.13222300  0.03999200  1
  N  N2  1  0.72376500  0.36777700  0.53999200  1
  N  N3  1  0.27623500  0.86777700  0.96000800  1
  N  N4  1  0.26379800  0.60961200  0.64023100  1
  N  N5  1  0.73620200  0.10961200  0.85976900  1
  N  N6  1  0.73620200  0.39038800  0.35976900  1
  N  N7  1  0.26379800  0.89038800  0.14023100  1
  Cl  Cl0  1  0.06787800  0.56231500  0.37866400  1
  Cl  Cl1  1  0.93212200  0.06231500  0.12133600  1
  Cl  Cl2  1  0.93212200  0.43768500  0.62133600  1
  Cl  Cl3  1  0.06787800  0.93768500  0.87866400  1
  Cl  Cl4  1  0.34157800  0.21352300  0.51360400  1
  Cl  Cl5  1  0.65842200  0.71352300  0.98639600  1
  Cl  Cl6  1  0.65842200  0.78647700  0.48639600  1
  Cl  Cl7  1  0.34157800  0.28647700  0.01360400  1
loop_
_geom_bond_atom_site_label_1
_geom_bond_atom_site_label_2
_geom_bond_distance
_geom_bond_site_symmetry_2
C0 C8 1.313961 1_555
C0 C5 1.460271 1_555
C0 P4 1.791421 1_555
C1 C9 1.313961 1_555
C1 C4 1.460271 1_545
C1 P5 1.791421 1_555
C2 C7 1.460271 1_555
C2 P6 1.791421 1_555
C3 C6 1.460271 1_565
C3 P7 1.791421 1_555
C4 C8 1.310247 1_555
C4 P5 1.789038 1_565
C5 C9 1.310247 1_555
C5 P4 1.789038 1_555
C6 P7 1.789038 1_545
C7 P6 1.789038 1_555
C10 C6 1.310247 1_555
C10 C2 1.313961 1_555
C11 C7 1.310247 1_555
C11 C3 1.313961 1_555
C12 C20 1.346845 1_555
C12 C16 1.431455 1_555
C12 P4 1.765196 1_555
C13 C21 1.346845 1_555
C13 C17 1.431455 1_555
C13 P5 1.765196 1_565
C14 C22 1.346845 1_555
C14 C18 1.431455 1_555
C14 P6 1.765196 1_555
C15 C23 1.346845 1_555
C15 C19 1.431455 1_555
C15 P7 1.765196 1_545
C16 C20 1.433028 1_555
C17 C21 1.433028 1_555
C18 C22 1.433028 1_555
C19 C23 1.433028 1_555
C20 Te3 2.154891 1_555
C21 Te2 2.154891 1_555
C22 Te1 2.154891 1_555
C23 Te0 2.154891 1_555
N0 P0 1.594357 1_555
N0 Te0 2.025505 1_555
N1 P1 1.594357 1_554
N1 Te1 2.025505 1_545
N2 P2 1.594357 1_555
N2 Te2 2.025505 1_555
N3 P3 1.594357 1_556
N3 Te3 2.025505 1_565
N4 P4 1.573187 1_555
N4 P0 1.659842 1_555
N5 P5 1.573187 1_555
N5 P1 1.659842 1_555
N6 P6 1.573187 1_555
N6 P2 1.659842 1_555
N7 P7 1.573187 1_555
N7 P3 1.659842 1_555
Cl0 Te0 2.489684 1_555
Cl1 Te1 2.489684 1_545
Cl2 Te2 2.489684 1_555
Cl3 Te3 2.489684 1_565
Cl4 Te0 2.503994 1_555
Cl5 Te1 2.503994 1_556
Cl6 Te2 2.503994 1_555
Cl7 Te3 2.503994 1_554
