# generated using pymatgen
data_K5Na3TaNb7O20
_symmetry_space_group_name_H-M   'P 1'
_cell_length_a   11.53596845
_cell_length_b   11.60763907
_cell_length_c   17.76488663
_cell_angle_alpha   109.25505398
_cell_angle_beta   108.77643466
_cell_angle_gamma   90.18907486
_symmetry_Int_Tables_number   1
_chemical_formula_structural   K5Na3TaNb7O20
_chemical_formula_sum   'K20 Na12 Ta4 Nb28 O80'
_cell_volume   2110.22794609
_cell_formula_units_Z   4
loop_
 _symmetry_equiv_pos_site_id
 _symmetry_equiv_pos_as_xyz
  1  'x, y, z'
loop_
 _atom_site_type_symbol
 _atom_site_label
 _atom_site_symmetry_multiplicity
 _atom_site_fract_x
 _atom_site_fract_y
 _atom_site_fract_z
 _atom_site_occupancy
  K  K0  1  0.30479900  0.06418600  0.12109600  1
  K  K1  1  0.31195500  0.56310800  0.11499700  1
  K  K2  1  0.79664100  0.06105100  0.10786900  1
  K  K3  1  0.81167000  0.56185300  0.12049900  1
  K  K4  1  0.81307600  0.57022800  0.62157100  1
  K  K5  1  0.20184700  0.93592100  0.38904200  1
  K  K6  1  0.19098900  0.93068400  0.87853400  1
  K  K7  1  0.69176600  0.44213900  0.38381400  1
  K  K8  1  0.68470900  0.42391700  0.87901900  1
  K  K9  1  0.69462000  0.93819000  0.38201600  1
  K  K10  1  0.68956300  0.91905500  0.87535700  1
  K  K11  1  0.04648100  0.29630800  0.11130200  1
  K  K12  1  0.06206300  0.79717000  0.11635200  1
  K  K13  1  0.55521600  0.31175700  0.12008700  1
  K  K14  1  0.56114100  0.80627900  0.11988500  1
  K  K15  1  0.43839500  0.19439700  0.38207300  1
  K  K16  1  0.45300800  0.70319800  0.39025000  1
  K  K17  1  0.44676600  0.70350600  0.88931100  1
  K  K18  1  0.94862600  0.69345800  0.38212700  1
  K  K19  1  0.93616600  0.69405700  0.87698500  1
  Na  Na0  1  0.29763600  0.07671100  0.60462800  1
  Na  Na1  1  0.30223500  0.56920200  0.60210900  1
  Na  Na2  1  0.80139600  0.06727000  0.59955700  1
  Na  Na3  1  0.20374900  0.44082300  0.40444800  1
  Na  Na4  1  0.20044900  0.43127400  0.89641000  1
  Na  Na5  1  0.04992900  0.28118300  0.60509600  1
  Na  Na6  1  0.05841600  0.79280900  0.60790400  1
  Na  Na7  1  0.55394600  0.28840300  0.60370400  1
  Na  Na8  1  0.55541300  0.78889300  0.60826300  1
  Na  Na9  1  0.44230900  0.21064200  0.89627500  1
  Na  Na10  1  0.95677800  0.21560000  0.40634500  1
  Na  Na11  1  0.94831400  0.21173300  0.89890500  1
  Ta  Ta0  1  0.99908900  0.99822900  0.00039800  1
  Ta  Ta1  1  0.99945900  0.49619000  0.99911400  1
  Ta  Ta2  1  0.49917200  0.99964100  0.99885900  1
  Ta  Ta3  1  0.25052800  0.74747500  0.99901000  1
  Nb  Nb0  1  0.00424200  0.00136400  0.50158300  1
  Nb  Nb1  1  0.00762300  0.50268900  0.50411900  1
  Nb  Nb2  1  0.50742100  0.00423300  0.50726700  1
  Nb  Nb3  1  0.49997600  0.49797100  0.99735400  1
  Nb  Nb4  1  0.50652300  0.50174800  0.50312200  1
  Nb  Nb5  1  0.24966200  0.24954500  0.99925500  1
  Nb  Nb6  1  0.25592800  0.25412300  0.50422400  1
  Nb  Nb7  1  0.25863900  0.75288900  0.50476300  1
  Nb  Nb8  1  0.74470600  0.24717500  0.99710600  1
  Nb  Nb9  1  0.75578300  0.25022900  0.50138500  1
  Nb  Nb10  1  0.75070400  0.74620100  0.00053600  1
  Nb  Nb11  1  0.75815400  0.75308400  0.50383400  1
  Nb  Nb12  1  0.09634400  0.09071300  0.25407000  1
  Nb  Nb13  1  0.08528000  0.08680300  0.74653300  1
  Nb  Nb14  1  0.14538200  0.58124900  0.25388300  1
  Nb  Nb15  1  0.13948900  0.56750400  0.74964600  1
  Nb  Nb16  1  0.62668400  0.10760200  0.25092000  1
  Nb  Nb17  1  0.58268500  0.07973400  0.74595100  1
  Nb  Nb18  1  0.61805300  0.61076000  0.25094800  1
  Nb  Nb19  1  0.59050300  0.57100100  0.74437600  1
  Nb  Nb20  1  0.34629200  0.41241800  0.25323900  1
  Nb  Nb21  1  0.34197900  0.42492100  0.74623400  1
  Nb  Nb22  1  0.37081400  0.89125400  0.25358900  1
  Nb  Nb23  1  0.37196800  0.92762900  0.74599000  1
  Nb  Nb24  1  0.87255600  0.39173400  0.25187700  1
  Nb  Nb25  1  0.86561000  0.39147400  0.74720500  1
  Nb  Nb26  1  0.89795500  0.92792400  0.25346400  1
  Nb  Nb27  1  0.87496600  0.93621100  0.74777300  1
  O  O0  1  0.12624100  0.12747800  0.50247200  1
  O  O1  1  0.11765400  0.11738100  0.99586400  1
  O  O2  1  0.13211400  0.62505600  0.50179600  1
  O  O3  1  0.12137200  0.61599200  0.98774400  1
  O  O4  1  0.62983900  0.12768100  0.50299700  1
  O  O5  1  0.61291200  0.11846200  0.98927600  1
  O  O6  1  0.63189800  0.63092200  0.50518600  1
  O  O7  1  0.62818700  0.62461100  0.99971500  1
  O  O8  1  0.12109300  0.36896200  0.99339200  1
  O  O9  1  0.13411300  0.38092000  0.50934600  1
  O  O10  1  0.12151200  0.87027000  0.99531700  1
  O  O11  1  0.13982100  0.88117400  0.51493900  1
  O  O12  1  0.61981000  0.36967200  0.99526900  1
  O  O13  1  0.63255400  0.37982200  0.51036200  1
  O  O14  1  0.62177500  0.87685600  0.99939600  1
  O  O15  1  0.64050400  0.88671900  0.51856800  1
  O  O16  1  0.37860000  0.12781200  0.50365200  1
  O  O17  1  0.37062400  0.12179700  0.99301200  1
  O  O18  1  0.37877200  0.62403700  0.50227100  1
  O  O19  1  0.36736700  0.62412800  0.99278400  1
  O  O20  1  0.87683600  0.12173700  0.49289900  1
  O  O21  1  0.87195300  0.11332800  0.98870600  1
  O  O22  1  0.88364200  0.62705000  0.50273700  1
  O  O23  1  0.87869800  0.61735900  0.99727300  1
  O  O24  1  0.37011700  0.37035500  0.99491500  1
  O  O25  1  0.37982700  0.37866300  0.50815600  1
  O  O26  1  0.37166900  0.87542700  0.99780200  1
  O  O27  1  0.38827200  0.88223000  0.51532900  1
  O  O28  1  0.87559700  0.37135600  0.99757700  1
  O  O29  1  0.88904400  0.37866100  0.51256500  1
  O  O30  1  0.87342900  0.86990500  0.99182000  1
  O  O31  1  0.88622400  0.88102100  0.50924900  1
  O  O32  1  0.05276100  0.05855100  0.12568400  1
  O  O33  1  0.06102400  0.09077100  0.63534700  1
  O  O34  1  0.07523300  0.55685700  0.12677700  1
  O  O35  1  0.09200700  0.59161100  0.64366600  1
  O  O36  1  0.55986800  0.06892900  0.12248300  1
  O  O37  1  0.56822600  0.10231500  0.64210800  1
  O  O38  1  0.56067300  0.56421300  0.12502300  1
  O  O39  1  0.57075100  0.58368400  0.63643800  1
  O  O40  1  0.43697700  0.43427400  0.37336100  1
  O  O41  1  0.42854400  0.43557500  0.86117400  1
  O  O42  1  0.44185100  0.93340800  0.37791800  1
  O  O43  1  0.43404200  0.92066500  0.85782000  1
  O  O44  1  0.94251200  0.42582800  0.37542600  1
  O  O45  1  0.93213000  0.41224000  0.86691200  1
  O  O46  1  0.94877200  0.92548400  0.36960900  1
  O  O47  1  0.93808200  0.92026600  0.85618200  1
  O  O48  1  0.30372200  0.31693500  0.12890600  1
  O  O49  1  0.31632700  0.30407400  0.63619600  1
  O  O50  1  0.30881300  0.80671800  0.12159900  1
  O  O51  1  0.34131000  0.79619800  0.64235600  1
  O  O52  1  0.80783400  0.30465300  0.12333300  1
  O  O53  1  0.83474600  0.28352500  0.63419800  1
  O  O54  1  0.82813300  0.81964400  0.13135300  1
  O  O55  1  0.85250400  0.80735300  0.64552600  1
  O  O56  1  0.18351800  0.18921800  0.37320900  1
  O  O57  1  0.17625900  0.18336000  0.86213100  1
  O  O58  1  0.19697200  0.69005500  0.37306500  1
  O  O59  1  0.19452600  0.69025600  0.85998400  1
  O  O60  1  0.68848200  0.19743100  0.37351000  1
  O  O61  1  0.67453600  0.17997400  0.85960400  1
  O  O62  1  0.69128000  0.69661800  0.37796700  1
  O  O63  1  0.67570900  0.67137200  0.86207200  1
  O  O64  1  0.48460300  0.01295100  0.24867100  1
  O  O65  1  0.40966900  0.09756000  0.74702300  1
  O  O66  1  0.47987700  0.51984600  0.25203300  1
  O  O67  1  0.41719600  0.57400100  0.73579400  1
  O  O68  1  0.93213100  0.10576800  0.26481300  1
  O  O69  1  0.91201200  0.10640600  0.74870200  1
  O  O70  1  0.98199200  0.51551300  0.24812100  1
  O  O71  1  0.97053200  0.52078800  0.74809600  1
  O  O72  1  0.18369700  0.41662200  0.26611400  1
  O  O73  1  0.16857900  0.39502300  0.74878800  1
  O  O74  1  0.22970300  0.98212100  0.25061700  1
  O  O75  1  0.19670900  0.95393400  0.73479600  1
  O  O76  1  0.73958800  0.49352400  0.25138300  1
  O  O77  1  0.70123700  0.43842700  0.73504400  1
  O  O78  1  0.73229000  0.98149200  0.24928900  1
  O  O79  1  0.69775300  0.95040600  0.73393500  1
loop_
_geom_bond_atom_site_label_1
_geom_bond_atom_site_label_2
_geom_bond_distance
_geom_bond_site_symmetry_2
K0 O64 2.768267 1_555
K0 O1 2.795432 1_554
K0 O26 2.850761 1_544
K0 O10 2.853062 1_544
K0 O17 2.883363 1_554
K0 O48 2.891294 1_555
K0 O36 2.934811 1_555
K0 O32 2.935866 1_555
K0 O50 2.992021 1_545
K0 O74 3.110548 1_545
K1 O19 2.743840 1_554
K1 O66 2.776333 1_555
K1 O24 2.791100 1_554
K1 O50 2.792103 1_555
K1 O34 2.807672 1_555
K1 O38 2.816644 1_555
K1 O3 2.836474 1_554
K1 O8 2.878824 1_554
K1 O48 2.952000 1_555
K2 O68 2.592428 1_555
K2 O14 2.665654 1_544
K2 O5 2.726841 1_554
K2 O52 2.747750 1_555
K2 O21 2.762625 1_554
K2 O36 2.824682 1_555
K2 O30 2.851219 1_544
K2 O32 2.869719 1_655
K2 O54 2.972935 1_545
K3 O70 2.689546 1_555
K3 O7 2.780709 1_554
K3 O23 2.796742 1_554
K3 O28 2.839825 1_554
K3 O12 2.889412 1_554
K3 O38 2.922322 1_555
K3 O54 2.935899 1_555
K3 O52 3.002883 1_555
K3 O34 3.007873 1_655
K3 O76 3.030413 1_555
K4 O71 2.628727 1_555
K4 O55 2.656804 1_555
K4 O6 2.707045 1_555
K4 O13 2.750616 1_555
K4 O22 2.752351 1_555
K4 O29 2.779903 1_555
K4 O39 2.891310 1_555
K4 O35 3.112383 1_655
K5 O16 2.751496 1_565
K5 O58 2.771825 1_555
K5 O74 2.795603 1_555
K5 O27 2.805651 1_555
K5 O11 2.807592 1_555
K5 O0 2.820346 1_565
K5 O46 2.824605 1_455
K5 O42 2.838034 1_555
K5 O56 3.046266 1_565
K6 O75 2.675885 1_555
K6 O59 2.702160 1_555
K6 O26 2.703186 1_555
K6 O10 2.732130 1_555
K6 O17 2.762692 1_565
K6 O47 2.811491 1_455
K6 O1 2.815078 1_565
K6 O43 2.940859 1_555
K6 O57 3.041581 1_565
K7 O60 2.784812 1_555
K7 O6 2.789311 1_555
K7 O22 2.817309 1_555
K7 O76 2.820245 1_555
K7 O13 2.846341 1_555
K7 O40 2.884029 1_555
K7 O44 2.947483 1_555
K7 O29 2.953868 1_555
K7 O62 2.989724 1_555
K7 O66 3.161094 1_555
K8 O12 2.659277 1_555
K8 O77 2.684101 1_555
K8 O61 2.734651 1_555
K8 O28 2.743724 1_555
K8 O7 2.839912 1_555
K8 O41 2.877386 1_555
K8 O23 2.879641 1_555
K8 O45 2.930843 1_555
K8 O63 2.983976 1_555
K9 O20 2.715677 1_565
K9 O78 2.727805 1_555
K9 O62 2.781007 1_555
K9 O4 2.818246 1_565
K9 O31 2.866634 1_555
K9 O42 2.893211 1_555
K9 O15 2.925692 1_555
K9 O46 3.010602 1_555
K9 O60 3.062256 1_565
K9 O64 3.147919 1_565
K10 O30 2.658280 1_555
K10 O79 2.684925 1_555
K10 O14 2.743301 1_555
K10 O21 2.795232 1_565
K10 O63 2.805730 1_555
K10 O43 2.863436 1_555
K10 O5 2.882890 1_565
K10 O47 2.994489 1_555
K10 O61 3.132468 1_565
K11 O72 2.582519 1_555
K11 O28 2.708294 1_454
K11 O21 2.721422 1_454
K11 O1 2.734827 1_554
K11 O52 2.828621 1_455
K11 O32 2.853326 1_555
K11 O8 2.856676 1_554
K11 O48 2.882676 1_555
K11 O34 2.952735 1_555
K11 O70 3.167484 1_455
K12 O23 2.735683 1_454
K12 O74 2.768373 1_555
K12 O54 2.800592 1_455
K12 O50 2.818481 1_555
K12 O3 2.820917 1_554
K12 O10 2.821755 1_554
K12 O34 2.857257 1_555
K12 O30 2.913297 1_454
K12 O32 2.987660 1_565
K13 O24 2.813775 1_554
K13 O76 2.818992 1_555
K13 O12 2.822669 1_554
K13 O36 2.833406 1_555
K13 O17 2.843246 1_554
K13 O52 2.898135 1_555
K13 O38 2.902543 1_555
K13 O5 2.905871 1_554
K13 O48 2.955135 1_555
K13 O66 3.110479 1_555
K14 O78 2.699482 1_555
K14 O7 2.776141 1_554
K14 O14 2.803323 1_554
K14 O38 2.841266 1_555
K14 O19 2.852449 1_554
K14 O26 2.869391 1_554
K14 O50 2.920795 1_555
K14 O54 3.020612 1_555
K14 O36 3.033995 1_565
K14 O64 3.076271 1_565
K15 O16 2.791890 1_555
K15 O64 2.804455 1_555
K15 O25 2.805756 1_555
K15 O40 2.839019 1_555
K15 O4 2.854171 1_555
K15 O13 2.879267 1_555
K15 O56 2.892755 1_555
K15 O60 2.938191 1_555
K15 O42 3.006644 1_545
K15 O74 3.141227 1_545
K16 O6 2.749601 1_555
K16 O42 2.752347 1_555
K16 O66 2.775308 1_555
K16 O18 2.799275 1_555
K16 O27 2.801182 1_555
K16 O62 2.825826 1_555
K16 O15 2.829385 1_555
K16 O58 2.868134 1_555
K16 O40 3.034995 1_555
K17 O67 2.551000 1_555
K17 O14 2.604896 1_555
K17 O26 2.645193 1_555
K17 O19 2.694849 1_555
K17 O43 2.751020 1_555
K17 O7 2.760497 1_555
K17 O59 2.780375 1_555
K17 O63 2.838797 1_555
K17 O41 2.978114 1_555
K18 O70 2.726501 1_555
K18 O46 2.774602 1_555
K18 O2 2.803192 1_655
K18 O22 2.804733 1_555
K18 O31 2.858721 1_555
K18 O11 2.899446 1_655
K18 O58 2.920386 1_655
K18 O62 2.946433 1_555
K18 O76 3.065618 1_555
K18 O44 3.069048 1_555
K19 O71 2.645241 1_555
K19 O30 2.658145 1_555
K19 O10 2.723268 1_655
K19 O47 2.770655 1_555
K19 O3 2.782062 1_655
K19 O23 2.821577 1_555
K19 O63 2.933193 1_555
K19 O59 3.089935 1_655
K19 O45 3.216005 1_555
Na0 O65 2.370118 1_555
Na0 O0 2.439913 1_555
Na0 O16 2.493731 1_555
Na0 O49 2.503665 1_555
Na0 O11 2.593242 1_545
Na0 O27 2.725321 1_545
Na0 O33 2.945843 1_555
Na0 O37 2.966634 1_555
Na1 O67 2.299291 1_555
Na1 O2 2.442643 1_555
Na1 O18 2.465635 1_555
Na1 O51 2.489817 1_555
Na1 O9 2.606285 1_555
Na1 O25 2.649290 1_555
Na1 O35 2.743043 1_555
Na1 O39 2.950950 1_555
Na2 O53 2.377024 1_555
Na2 O69 2.424994 1_555
Na2 O4 2.442958 1_555
Na2 O15 2.484692 1_545
Na2 O20 2.568118 1_555
Na2 O31 2.634831 1_545
Na2 O33 2.846644 1_655
Na2 O37 3.014213 1_555
Na3 O72 2.313001 1_555
Na3 O9 2.532994 1_555
Na3 O25 2.553063 1_555
Na3 O2 2.596023 1_555
Na3 O18 2.625781 1_555
Na3 O56 2.781213 1_555
Na3 O44 2.883601 1_455
Na3 O40 2.912009 1_555
Na4 O73 2.416641 1_555
Na4 O24 2.452263 1_555
Na4 O8 2.482408 1_555
Na4 O3 2.594868 1_555
Na4 O19 2.640401 1_555
Na4 O57 2.731181 1_555
Na4 O41 2.897950 1_555
Na4 O45 2.962998 1_455
Na5 O73 2.376932 1_555
Na5 O33 2.435429 1_555
Na5 O0 2.485987 1_555
Na5 O20 2.523056 1_455
Na5 O29 2.589123 1_455
Na5 O53 2.692099 1_455
Na5 O9 2.744374 1_555
Na5 O49 2.936822 1_555
Na6 O75 2.451351 1_555
Na6 O22 2.536959 1_455
Na6 O2 2.586386 1_555
Na6 O11 2.602068 1_555
Na6 O35 2.614211 1_555
Na6 O31 2.649848 1_455
Na6 O55 2.658560 1_455
Na7 O37 2.461774 1_555
Na7 O77 2.472270 1_555
Na7 O16 2.490187 1_555
Na7 O4 2.503082 1_555
Na7 O13 2.611562 1_555
Na7 O25 2.646776 1_555
Na8 O79 2.460595 1_555
Na8 O6 2.515980 1_555
Na8 O18 2.547034 1_555
Na8 O39 2.586085 1_555
Na8 O27 2.600279 1_555
Na8 O15 2.642894 1_555
Na8 O51 2.721185 1_555
Na9 O65 2.439979 1_555
Na9 O24 2.451154 1_555
Na9 O12 2.491773 1_555
Na9 O17 2.603623 1_555
Na9 O5 2.614276 1_555
Na9 O41 2.871212 1_555
Na9 O57 2.925118 1_555
Na9 O61 2.950390 1_555
Na10 O68 2.334767 1_555
Na10 O29 2.521326 1_555
Na10 O20 2.532383 1_555
Na10 O9 2.542459 1_655
Na10 O0 2.607754 1_655
Na10 O44 2.666852 1_555
Na10 O56 2.856501 1_655
Na10 O60 2.952360 1_555
Na11 O69 2.432236 1_555
Na11 O8 2.433688 1_655
Na11 O28 2.454408 1_555
Na11 O45 2.565489 1_555
Na11 O21 2.593374 1_555
Na11 O1 2.659836 1_655
Na11 O57 2.901647 1_655
Na11 O61 3.000205 1_555
Nb0 O31 2.013877 1_445
Nb0 O0 2.020091 1_555
Nb0 O20 2.036179 1_455
Nb0 O46 2.085779 1_445
Nb0 O11 2.107771 1_545
Nb0 O33 2.125996 1_555
Nb1 O44 2.032676 1_455
Nb1 O22 2.035777 1_455
Nb1 O2 2.035932 1_555
Nb1 O9 2.036820 1_555
Nb1 O29 2.056206 1_455
Nb1 O35 2.216036 1_555
Nb2 O42 2.039423 1_545
Nb2 O27 2.040329 1_545
Nb2 O4 2.044677 1_555
Nb2 O15 2.062512 1_545
Nb2 O16 2.069688 1_555
Nb2 O37 2.154217 1_555
Nb3 O38 2.012305 1_556
Nb3 O12 2.034806 1_555
Nb3 O7 2.062823 1_555
Nb3 O24 2.083645 1_555
Nb3 O19 2.122373 1_555
Nb3 O41 2.147865 1_555
Nb4 O13 2.036319 1_555
Nb4 O40 2.045845 1_555
Nb4 O18 2.049554 1_555
Nb4 O6 2.063176 1_555
Nb4 O25 2.083278 1_555
Nb4 O39 2.107764 1_555
Nb5 O24 2.007673 1_555
Nb5 O8 2.035040 1_555
Nb5 O17 2.040379 1_555
Nb5 O48 2.046833 1_556
Nb5 O1 2.130902 1_555
Nb5 O57 2.162128 1_555
Nb6 O25 1.998264 1_555
Nb6 O9 2.038845 1_555
Nb6 O16 2.040959 1_555
Nb6 O56 2.066452 1_555
Nb6 O0 2.079797 1_555
Nb6 O49 2.089826 1_555
Nb7 O11 2.030828 1_555
Nb7 O27 2.035738 1_555
Nb7 O18 2.041829 1_555
Nb7 O2 2.054155 1_555
Nb7 O58 2.076402 1_555
Nb7 O51 2.196061 1_555
Nb8 O52 1.990641 1_556
Nb8 O12 2.027959 1_555
Nb8 O5 2.067577 1_555
Nb8 O28 2.080229 1_555
Nb8 O21 2.143368 1_555
Nb8 O61 2.167200 1_555
Nb9 O60 2.020435 1_555
Nb9 O4 2.043329 1_555
Nb9 O20 2.048987 1_555
Nb9 O29 2.053830 1_555
Nb9 O13 2.076280 1_555
Nb9 O53 2.135094 1_555
Nb10 O7 1.987395 1_554
Nb10 O54 2.068172 1_555
Nb10 O30 2.089141 1_554
Nb10 O23 2.105394 1_554
Nb10 O14 2.127992 1_554
Nb10 O63 2.183907 1_554
Nb11 O62 1.985972 1_555
Nb11 O6 2.040597 1_555
Nb11 O31 2.048699 1_555
Nb11 O22 2.061451 1_555
Nb11 O15 2.071593 1_555
Nb11 O55 2.259084 1_555
Nb12 O56 1.955593 1_555
Nb12 O68 1.966843 1_455
Nb12 O74 1.995475 1_545
Nb12 O32 2.071959 1_555
Nb13 O57 1.913536 1_555
Nb13 O33 1.919935 1_555
Nb13 O75 2.011974 1_545
Nb13 O69 2.023689 1_455
Nb14 O58 1.962724 1_555
Nb14 O70 1.990026 1_455
Nb14 O72 2.027766 1_555
Nb14 O34 2.057720 1_555
Nb15 O35 1.899364 1_555
Nb15 O59 1.904284 1_555
Nb15 O71 2.010561 1_455
Nb15 O73 2.027027 1_555
Nb16 O78 1.906400 1_545
Nb16 O64 1.952472 1_555
Nb16 O60 1.958620 1_555
Nb16 O36 2.047354 1_555
Nb17 O61 1.902179 1_555
Nb17 O37 1.902834 1_555
Nb17 O79 2.011319 1_545
Nb17 O65 2.012814 1_555
Nb18 O66 1.917533 1_555
Nb18 O76 1.957077 1_555
Nb18 O38 1.995408 1_555
Nb18 O62 2.020560 1_555
Nb19 O39 1.911953 1_555
Nb19 O63 1.938554 1_555
Nb19 O67 1.956848 1_555
Nb19 O77 2.002114 1_555
Nb20 O72 1.960187 1_555
Nb20 O40 1.979038 1_555
Nb20 O66 1.989071 1_555
Nb20 O48 2.007916 1_555
Nb21 O49 1.921687 1_555
Nb21 O41 1.924018 1_555
Nb21 O67 2.021678 1_555
Nb21 O73 2.046479 1_555
Nb22 O74 1.938536 1_555
Nb22 O64 1.967027 1_565
Nb22 O42 1.977035 1_555
Nb22 O50 2.090620 1_555
Nb23 O51 1.888598 1_555
Nb23 O43 1.912216 1_555
Nb23 O75 2.001420 1_555
Nb23 O65 2.011359 1_565
Nb24 O76 1.938852 1_555
Nb24 O70 1.941150 1_555
Nb24 O44 1.977356 1_555
Nb24 O52 2.041791 1_555
Nb25 O53 1.898668 1_555
Nb25 O71 1.917905 1_555
Nb25 O77 1.939087 1_555
Nb25 O45 1.944088 1_555
Nb26 O46 1.965115 1_555
Nb26 O78 1.997867 1_555
Nb26 O54 2.001136 1_555
Nb26 O68 2.031397 1_565
Nb27 O55 1.872498 1_555
Nb27 O47 1.899124 1_555
Nb27 O79 1.993052 1_555
Nb27 O69 2.013489 1_565
O1 Ta0 1.980420 1_446
O3 Ta3 2.044713 1_555
O3 Ta1 2.075514 1_455
O5 Ta2 1.984839 1_545
O8 Ta1 2.041245 1_455
O10 Ta0 2.053352 1_456
O10 Ta3 2.064917 1_555
O14 Ta2 2.011310 1_555
O17 Ta2 2.057250 1_545
O19 Ta3 1.970572 1_555
O21 Ta0 1.994740 1_546
O23 Ta1 1.983413 1_555
O26 Ta3 2.045951 1_555
O26 Ta2 2.047696 1_555
O28 Ta1 2.019212 1_555
O30 Ta0 2.009266 1_556
O32 Ta0 1.977244 1_445
O34 Ta1 2.017384 1_454
O36 Ta2 1.949785 1_544
O43 Ta2 2.225153 1_555
O45 Ta1 2.092806 1_555
O47 Ta0 2.276822 1_556
O50 Ta3 1.932428 1_554
O59 Ta3 2.201460 1_555
