# generated using pymatgen
data_Mg30MnCoO32
_symmetry_space_group_name_H-M   'P 1'
_cell_length_a   8.52654500
_cell_length_b   8.52654500
_cell_length_c   8.54267500
_cell_angle_alpha   90.00000000
_cell_angle_beta   90.00000000
_cell_angle_gamma   90.00000000
_symmetry_Int_Tables_number   1
_chemical_formula_structural   Mg30MnCoO32
_chemical_formula_sum   'Mg30 Mn1 Co1 O32'
_cell_volume   621.06929847
_cell_formula_units_Z   1
loop_
 _symmetry_equiv_pos_site_id
 _symmetry_equiv_pos_as_xyz
  1  'x, y, z'
loop_
 _atom_site_type_symbol
 _atom_site_label
 _atom_site_symmetry_multiplicity
 _atom_site_fract_x
 _atom_site_fract_y
 _atom_site_fract_z
 _atom_site_occupancy
  Mg  Mg0  1  0.00000000  0.50000000  0.00000000  1
  Mg  Mg1  1  0.00000000  0.50000000  0.50000000  1
  Mg  Mg2  1  0.50000000  0.00000000  0.00000000  1
  Mg  Mg3  1  0.50000000  0.00000000  0.50000000  1
  Mg  Mg4  1  0.50000000  0.50000000  0.00000000  1
  Mg  Mg5  1  0.50000000  0.50000000  0.50000000  1
  Mg  Mg6  1  0.00000000  0.24970500  0.25077200  1
  Mg  Mg7  1  0.00000000  0.24970500  0.74922800  1
  Mg  Mg8  1  0.00000000  0.75029500  0.25077200  1
  Mg  Mg9  1  0.00000000  0.75029500  0.74922800  1
  Mg  Mg10  1  0.50000000  0.24961200  0.24984200  1
  Mg  Mg11  1  0.50000000  0.24961200  0.75015800  1
  Mg  Mg12  1  0.50000000  0.75038800  0.24984200  1
  Mg  Mg13  1  0.50000000  0.75038800  0.75015800  1
  Mg  Mg14  1  0.24970500  0.00000000  0.25077200  1
  Mg  Mg15  1  0.24970500  0.00000000  0.74922800  1
  Mg  Mg16  1  0.24961200  0.50000000  0.24984200  1
  Mg  Mg17  1  0.24961200  0.50000000  0.75015800  1
  Mg  Mg18  1  0.75029500  0.00000000  0.25077200  1
  Mg  Mg19  1  0.75029500  0.00000000  0.74922800  1
  Mg  Mg20  1  0.75038800  0.50000000  0.24984200  1
  Mg  Mg21  1  0.75038800  0.50000000  0.75015800  1
  Mg  Mg22  1  0.25069200  0.25069200  0.00000000  1
  Mg  Mg23  1  0.24996900  0.24996900  0.50000000  1
  Mg  Mg24  1  0.25069200  0.74930800  0.00000000  1
  Mg  Mg25  1  0.24996900  0.75003100  0.50000000  1
  Mg  Mg26  1  0.74930800  0.25069200  0.00000000  1
  Mg  Mg27  1  0.75003100  0.24996900  0.50000000  1
  Mg  Mg28  1  0.74930800  0.74930800  0.00000000  1
  Mg  Mg29  1  0.75003100  0.75003100  0.50000000  1
  Mn  Mn0  1  0.00000000  0.00000000  0.00000000  1
  Co  Co0  1  0.00000000  0.00000000  0.50000000  1
  O  O0  1  0.25725000  0.00000000  0.00000000  1
  O  O1  1  0.25119900  0.00000000  0.50000000  1
  O  O2  1  0.25072300  0.50000000  0.00000000  1
  O  O3  1  0.24983300  0.50000000  0.50000000  1
  O  O4  1  0.74275000  0.00000000  0.00000000  1
  O  O5  1  0.74880100  0.00000000  0.50000000  1
  O  O6  1  0.74927700  0.50000000  0.00000000  1
  O  O7  1  0.75016700  0.50000000  0.50000000  1
  O  O8  1  0.24950700  0.24950700  0.25007700  1
  O  O9  1  0.24950700  0.24950700  0.74992300  1
  O  O10  1  0.24950700  0.75049300  0.25007700  1
  O  O11  1  0.24950700  0.75049300  0.74992300  1
  O  O12  1  0.75049300  0.24950700  0.25007700  1
  O  O13  1  0.75049300  0.24950700  0.74992300  1
  O  O14  1  0.75049300  0.75049300  0.25007700  1
  O  O15  1  0.75049300  0.75049300  0.74992300  1
  O  O16  1  0.00000000  0.00000000  0.25096000  1
  O  O17  1  0.00000000  0.00000000  0.74904000  1
  O  O18  1  0.00000000  0.50000000  0.25102300  1
  O  O19  1  0.00000000  0.50000000  0.74897700  1
  O  O20  1  0.50000000  0.00000000  0.25102300  1
  O  O21  1  0.50000000  0.00000000  0.74897700  1
  O  O22  1  0.50000000  0.50000000  0.25025000  1
  O  O23  1  0.50000000  0.50000000  0.74975000  1
  O  O24  1  0.00000000  0.25725000  0.00000000  1
  O  O25  1  0.00000000  0.25119900  0.50000000  1
  O  O26  1  0.00000000  0.74275000  0.00000000  1
  O  O27  1  0.00000000  0.74880100  0.50000000  1
  O  O28  1  0.50000000  0.25072300  0.00000000  1
  O  O29  1  0.50000000  0.24983300  0.50000000  1
  O  O30  1  0.50000000  0.74927700  0.00000000  1
  O  O31  1  0.50000000  0.75016700  0.50000000  1
loop_
_geom_bond_atom_site_label_1
_geom_bond_atom_site_label_2
_geom_bond_distance
_geom_bond_site_symmetry_2
Mg0 O24 2.069819 1_555
Mg0 O26 2.069819 1_555
Mg0 O2 2.137801 1_555
Mg0 O6 2.137801 1_455
Mg0 O18 2.144408 1_555
Mg0 O19 2.144408 1_554
Mg1 O25 2.121413 1_555
Mg1 O27 2.121413 1_555
Mg1 O18 2.126930 1_555
Mg1 O19 2.126930 1_555
Mg1 O7 2.130212 1_455
Mg1 O3 2.130212 1_555
Mg2 O0 2.069819 1_555
Mg2 O4 2.069819 1_555
Mg2 O28 2.137801 1_555
Mg2 O30 2.137801 1_545
Mg2 O21 2.144408 1_554
Mg2 O20 2.144408 1_555
Mg3 O1 2.121413 1_555
Mg3 O5 2.121413 1_555
Mg3 O21 2.126930 1_555
Mg3 O20 2.126930 1_555
Mg3 O31 2.130212 1_545
Mg3 O29 2.130212 1_555
Mg4 O30 2.125472 1_555
Mg4 O6 2.125472 1_555
Mg4 O2 2.125472 1_555
Mg4 O28 2.125472 1_555
Mg4 O23 2.137804 1_554
Mg4 O22 2.137804 1_555
Mg5 O3 2.133060 1_555
Mg5 O7 2.133060 1_555
Mg5 O29 2.133060 1_555
Mg5 O31 2.133060 1_555
Mg5 O22 2.133533 1_555
Mg5 O23 2.133533 1_555
Mg6 O8 2.127442 1_555
Mg6 O12 2.127442 1_455
Mg6 O25 2.129112 1_555
Mg6 O16 2.129122 1_555
Mg6 O18 2.134153 1_555
Mg6 O24 2.143229 1_555
Mg7 O9 2.127442 1_555
Mg7 O13 2.127442 1_455
Mg7 O25 2.129112 1_555
Mg7 O17 2.129122 1_555
Mg7 O19 2.134153 1_555
Mg7 O24 2.143229 1_556
Mg8 O10 2.127442 1_555
Mg8 O14 2.127442 1_455
Mg8 O27 2.129112 1_555
Mg8 O16 2.129122 1_565
Mg8 O18 2.134153 1_555
Mg8 O26 2.143229 1_555
Mg9 O11 2.127442 1_555
Mg9 O15 2.127442 1_455
Mg9 O27 2.129112 1_555
Mg9 O17 2.129122 1_565
Mg9 O19 2.134153 1_555
Mg9 O26 2.143229 1_556
Mg10 O20 2.128352 1_555
Mg10 O28 2.134340 1_555
Mg10 O22 2.134947 1_555
Mg10 O8 2.135841 1_555
Mg10 O12 2.135841 1_555
Mg10 O29 2.137019 1_555
Mg11 O21 2.128352 1_555
Mg11 O28 2.134340 1_556
Mg11 O23 2.134947 1_555
Mg11 O9 2.135841 1_555
Mg11 O13 2.135841 1_555
Mg11 O29 2.137019 1_555
Mg12 O20 2.128352 1_565
Mg12 O30 2.134340 1_555
Mg12 O22 2.134947 1_555
Mg12 O14 2.135841 1_555
Mg12 O10 2.135841 1_555
Mg12 O31 2.137019 1_555
Mg13 O21 2.128352 1_565
Mg13 O30 2.134340 1_556
Mg13 O23 2.134947 1_555
Mg13 O11 2.135841 1_555
Mg13 O15 2.135841 1_555
Mg13 O31 2.137019 1_555
Mg14 O8 2.127442 1_555
Mg14 O10 2.127442 1_545
Mg14 O1 2.129112 1_555
Mg14 O16 2.129122 1_555
Mg14 O20 2.134153 1_555
Mg14 O0 2.143229 1_555
Mg15 O9 2.127442 1_555
Mg15 O11 2.127442 1_545
Mg15 O1 2.129112 1_555
Mg15 O17 2.129122 1_555
Mg15 O21 2.134153 1_555
Mg15 O0 2.143229 1_556
Mg16 O18 2.128352 1_555
Mg16 O2 2.134340 1_555
Mg16 O22 2.134947 1_555
Mg16 O8 2.135841 1_555
Mg16 O10 2.135841 1_555
Mg16 O3 2.137019 1_555
Mg17 O19 2.128352 1_555
Mg17 O2 2.134340 1_556
Mg17 O23 2.134947 1_555
Mg17 O11 2.135841 1_555
Mg17 O9 2.135841 1_555
Mg17 O3 2.137019 1_555
Mg18 O12 2.127442 1_555
Mg18 O14 2.127442 1_545
Mg18 O5 2.129112 1_555
Mg18 O16 2.129122 1_655
Mg18 O20 2.134153 1_555
Mg18 O4 2.143229 1_555
Mg19 O13 2.127442 1_555
Mg19 O15 2.127442 1_545
Mg19 O5 2.129112 1_555
Mg19 O17 2.129122 1_655
Mg19 O21 2.134153 1_555
Mg19 O4 2.143229 1_556
Mg20 O18 2.128352 1_655
Mg20 O6 2.134340 1_555
Mg20 O22 2.134947 1_555
Mg20 O14 2.135841 1_555
Mg20 O12 2.135841 1_555
Mg20 O7 2.137019 1_555
Mg21 O19 2.128352 1_655
Mg21 O6 2.134340 1_556
Mg21 O23 2.134947 1_555
Mg21 O15 2.135841 1_555
Mg21 O13 2.135841 1_555
Mg21 O7 2.137019 1_555
Mg22 O2 2.125736 1_555
Mg22 O28 2.125736 1_555
Mg22 O8 2.136374 1_555
Mg22 O9 2.136374 1_554
Mg22 O24 2.138268 1_555
Mg22 O0 2.138268 1_555
Mg23 O25 2.131398 1_555
Mg23 O1 2.131398 1_555
Mg23 O3 2.131901 1_555
Mg23 O29 2.131901 1_555
Mg23 O8 2.135018 1_555
Mg23 O9 2.135018 1_555
Mg24 O2 2.125736 1_555
Mg24 O30 2.125736 1_555
Mg24 O11 2.136374 1_554
Mg24 O10 2.136374 1_555
Mg24 O0 2.138268 1_565
Mg24 O26 2.138268 1_555
Mg25 O27 2.131398 1_555
Mg25 O1 2.131398 1_565
Mg25 O31 2.131901 1_555
Mg25 O3 2.131901 1_555
Mg25 O10 2.135018 1_555
Mg25 O11 2.135018 1_555
Mg26 O6 2.125736 1_555
Mg26 O28 2.125736 1_555
Mg26 O13 2.136374 1_554
Mg26 O12 2.136374 1_555
Mg26 O24 2.138268 1_655
Mg26 O4 2.138268 1_555
Mg27 O25 2.131398 1_655
Mg27 O5 2.131398 1_555
Mg27 O7 2.131901 1_555
Mg27 O29 2.131901 1_555
Mg27 O13 2.135018 1_555
Mg27 O12 2.135018 1_555
Mg28 O6 2.125736 1_555
Mg28 O30 2.125736 1_555
Mg28 O14 2.136374 1_555
Mg28 O15 2.136374 1_554
Mg28 O26 2.138268 1_655
Mg28 O4 2.138268 1_565
Mg29 O27 2.131398 1_655
Mg29 O5 2.131398 1_565
Mg29 O31 2.131901 1_555
Mg29 O7 2.131901 1_555
Mg29 O14 2.135018 1_555
Mg29 O15 2.135018 1_555
Mn0 O17 2.143870 1_554
Mn0 O16 2.143870 1_555
Mn0 O24 2.193454 1_555
Mn0 O0 2.193454 1_555
Mn0 O4 2.193454 1_455
Mn0 O26 2.193454 1_545
Co0 O16 2.127468 1_555
Co0 O17 2.127468 1_555
Co0 O5 2.141860 1_455
Co0 O27 2.141860 1_545
Co0 O1 2.141860 1_555
Co0 O25 2.141860 1_555
