# generated using pymatgen
data_SrCa3Al8(SiO5)8
_symmetry_space_group_name_H-M   'P 1'
_cell_length_a   13.08623000
_cell_length_b   5.91076200
_cell_length_c   8.92507598
_cell_angle_alpha   89.84423365
_cell_angle_beta   90.00000000
_cell_angle_gamma   90.00000000
_symmetry_Int_Tables_number   1
_chemical_formula_structural   SrCa3Al8(SiO5)8
_chemical_formula_sum   'Sr1 Ca3 Al8 Si8 O40'
_cell_volume   690.34842577
_cell_formula_units_Z   1
loop_
 _symmetry_equiv_pos_site_id
 _symmetry_equiv_pos_as_xyz
  1  'x, y, z'
loop_
 _atom_site_type_symbol
 _atom_site_label
 _atom_site_symmetry_multiplicity
 _atom_site_fract_x
 _atom_site_fract_y
 _atom_site_fract_z
 _atom_site_occupancy
  Sr  Sr0  1  0.50000000  0.99439600  0.67180900  1
  Ca  Ca0  1  0.00000000  0.50388800  0.83605900  1
  Ca  Ca1  1  0.00000000  0.00395100  0.33702800  1
  Ca  Ca2  1  0.50000000  0.49496600  0.16295000  1
  Al  Al0  1  0.75167200  0.25094200  0.75001300  1
  Al  Al1  1  0.75049900  0.74988800  0.24995200  1
  Al  Al2  1  0.24950100  0.74988800  0.24995200  1
  Al  Al3  1  0.24832800  0.25094200  0.75001300  1
  Al  Al4  1  0.75062300  0.25016100  0.25001600  1
  Al  Al5  1  0.75182000  0.74893600  0.75006600  1
  Al  Al6  1  0.24937700  0.25016100  0.25001600  1
  Al  Al7  1  0.24818000  0.74893600  0.75006600  1
  Si  Si0  1  0.62050000  0.50094300  0.51931800  1
  Si  Si1  1  0.61990600  0.00126100  0.02307100  1
  Si  Si2  1  0.11858300  0.49881200  0.47907800  1
  Si  Si3  1  0.11865400  0.99876000  0.97928200  1
  Si  Si4  1  0.88141700  0.49881200  0.47907800  1
  Si  Si5  1  0.88134600  0.99876000  0.97928200  1
  Si  Si6  1  0.37950000  0.50094300  0.51931800  1
  Si  Si7  1  0.38009400  0.00126100  0.02307100  1
  O  O0  1  0.69148100  0.49948900  0.85143500  1
  O  O1  1  0.69130300  0.99969700  0.35111800  1
  O  O2  1  0.19041800  0.50044700  0.14818900  1
  O  O3  1  0.19040100  0.00044600  0.64934300  1
  O  O4  1  0.80958200  0.50044700  0.14818900  1
  O  O5  1  0.80959900  0.00044600  0.64934300  1
  O  O6  1  0.30851900  0.49948900  0.85143500  1
  O  O7  1  0.30869700  0.99969700  0.35111800  1
  O  O8  1  0.36332300  0.23127100  0.12250300  1
  O  O9  1  0.35929900  0.72702100  0.61927800  1
  O  O10  1  0.86508300  0.77025200  0.87865400  1
  O  O11  1  0.86458500  0.27021300  0.37799700  1
  O  O12  1  0.13491700  0.77025200  0.87865400  1
  O  O13  1  0.13541500  0.27021300  0.37799700  1
  O  O14  1  0.63667700  0.23127100  0.12250300  1
  O  O15  1  0.64070100  0.72702100  0.61927800  1
  O  O16  1  0.68420200  0.49936100  0.36014100  1
  O  O17  1  0.68340500  0.99931600  0.86310300  1
  O  O18  1  0.18180700  0.50035000  0.63872000  1
  O  O19  1  0.18446600  0.00039900  0.13701900  1
  O  O20  1  0.81819300  0.50035000  0.63872000  1
  O  O21  1  0.81553400  0.00039900  0.13701900  1
  O  O22  1  0.31579800  0.49936100  0.36014100  1
  O  O23  1  0.31659500  0.99931600  0.86310300  1
  O  O24  1  0.00000000  0.47387600  0.11261000  1
  O  O25  1  0.00000000  0.97390100  0.61255000  1
  O  O26  1  0.50000000  0.52803700  0.88726800  1
  O  O27  1  0.50000000  0.02833100  0.37357900  1
  O  O28  1  0.63508500  0.77151300  0.12462300  1
  O  O29  1  0.63889800  0.27509400  0.62161400  1
  O  O30  1  0.13382200  0.22704300  0.87668900  1
  O  O31  1  0.13433000  0.72724600  0.37608900  1
  O  O32  1  0.86617800  0.22704300  0.87668900  1
  O  O33  1  0.86567000  0.72724600  0.37608900  1
  O  O34  1  0.36491500  0.77151300  0.12462300  1
  O  O35  1  0.36110200  0.27509400  0.62161400  1
  O  O36  1  0.00000000  0.49633000  0.54547500  1
  O  O37  1  0.00000000  0.99640900  0.04695100  1
  O  O38  1  0.50000000  0.50388200  0.45702800  1
  O  O39  1  0.50000000  0.00431400  0.96207200  1
loop_
_geom_bond_atom_site_label_1
_geom_bond_atom_site_label_2
_geom_bond_distance
_geom_bond_site_symmetry_2
Ca0 O10 2.396611 1_455
Ca0 O12 2.396611 1_555
Ca0 O30 2.423376 1_555
Ca0 O32 2.423376 1_455
Ca0 O24 2.474124 1_556
Ca0 O36 2.593990 1_555
Ca1 O11 2.398739 1_455
Ca1 O13 2.398739 1_555
Ca1 O33 2.425601 1_445
Ca1 O31 2.425601 1_545
Ca1 O25 2.464979 1_545
Ca1 O37 2.589464 1_545
Ca2 O8 2.400369 1_555
Ca2 O14 2.400369 1_555
Ca2 O28 2.431225 1_555
Ca2 O34 2.431225 1_555
Ca2 O26 2.467706 1_554
Ca2 O38 2.625341 1_555
Al0 O29 1.873682 1_555
Al0 O32 1.882202 1_555
Al0 O5 1.892456 1_555
Al0 O0 1.898764 1_555
Al0 O20 1.977298 1_555
Al0 O17 2.005181 1_545
Al1 O28 1.883579 1_555
Al1 O33 1.885734 1_555
Al1 O1 1.898111 1_555
Al1 O4 1.898367 1_555
Al1 O16 1.976037 1_555
Al1 O21 1.981068 1_565
Al2 O34 1.883579 1_555
Al2 O31 1.885734 1_555
Al2 O7 1.898111 1_555
Al2 O2 1.898367 1_555
Al2 O22 1.976037 1_555
Al2 O19 1.981068 1_565
Al3 O35 1.873682 1_555
Al3 O30 1.882202 1_555
Al3 O3 1.892456 1_555
Al3 O6 1.898764 1_555
Al3 O18 1.977298 1_555
Al3 O23 2.005181 1_545
Al4 O14 1.879307 1_555
Al4 O11 1.882437 1_555
Al4 O1 1.897695 1_545
Al4 O4 1.898023 1_555
Al4 O16 1.974598 1_555
Al4 O21 1.981450 1_555
Al5 O15 1.869402 1_555
Al5 O10 1.879003 1_555
Al5 O5 1.892773 1_565
Al5 O0 1.899653 1_555
Al5 O20 1.977088 1_555
Al5 O17 2.004417 1_555
Al6 O8 1.879307 1_555
Al6 O13 1.882437 1_555
Al6 O7 1.897695 1_545
Al6 O2 1.898023 1_555
Al6 O22 1.974598 1_555
Al6 O19 1.981450 1_555
Al7 O9 1.869402 1_555
Al7 O12 1.879003 1_555
Al7 O3 1.892773 1_565
Al7 O6 1.899653 1_555
Al7 O18 1.977088 1_555
Al7 O23 2.004417 1_555
O8 Si7 1.640307 1_555
O9 Si6 1.630331 1_555
O9 Sr0 2.472177 1_555
O10 Si5 1.637916 1_555
O11 Si4 1.641571 1_555
O12 Si3 1.637916 1_555
O13 Si2 1.641571 1_555
O14 Si1 1.640307 1_555
O15 Si0 1.630331 1_555
O15 Sr0 2.472177 1_555
O16 Si0 1.647232 1_555
O17 Si1 1.652006 1_566
O18 Si2 1.647661 1_555
O19 Si3 1.650403 1_544
O20 Si4 1.647661 1_555
O21 Si5 1.650403 1_544
O22 Si6 1.647232 1_555
O23 Si7 1.652006 1_566
O27 Sr0 2.668729 1_545
O28 Si1 1.642674 1_565
O29 Si0 1.633086 1_555
O29 Sr0 2.500651 1_545
O30 Si3 1.640664 1_545
O31 Si2 1.644296 1_555
O32 Si5 1.640664 1_545
O33 Si4 1.644296 1_555
O34 Si7 1.642674 1_565
O35 Si6 1.633086 1_555
O35 Sr0 2.500651 1_545
O36 Si4 1.661156 1_455
O36 Si2 1.661156 1_555
O37 Si3 1.666099 1_554
O37 Si5 1.666099 1_454
O38 Si6 1.672096 1_555
O38 Si0 1.672096 1_555
O39 Si1 1.660962 1_556
O39 Si7 1.660962 1_556
O39 Sr0 2.591442 1_545
