# generated using pymatgen
data_Cu6GeSb
_symmetry_space_group_name_H-M   'P 1'
_cell_length_a   4.25193667
_cell_length_b   4.25181700
_cell_length_c   7.57283600
_cell_angle_alpha   90.00000000
_cell_angle_beta   90.00000000
_cell_angle_gamma   60.00093876
_symmetry_Int_Tables_number   1
_chemical_formula_structural   Cu6GeSb
_chemical_formula_sum   'Cu6 Ge1 Sb1'
_cell_volume   118.56449135
_cell_formula_units_Z   1
loop_
 _symmetry_equiv_pos_site_id
 _symmetry_equiv_pos_as_xyz
  1  'x, y, z'
loop_
 _atom_site_type_symbol
 _atom_site_label
 _atom_site_symmetry_multiplicity
 _atom_site_fract_x
 _atom_site_fract_y
 _atom_site_fract_z
 _atom_site_occupancy
  Cu  Cu0  1  0.00000500  0.99999800  0.75000000  1
  Cu  Cu1  1  0.00003800  0.99998100  0.25000000  1
  Cu  Cu2  1  0.33333200  0.33333400  0.07323500  1
  Cu  Cu3  1  0.66665400  0.66667300  0.90815500  1
  Cu  Cu4  1  0.66665400  0.66667300  0.59184500  1
  Cu  Cu5  1  0.33333200  0.33333400  0.42676500  1
  Ge  Ge0  1  0.33333400  0.33333300  0.75000000  1
  Sb  Sb0  1  0.66665000  0.66667500  0.25000000  1
loop_
_geom_bond_atom_site_label_1
_geom_bond_atom_site_label_2
_geom_bond_distance
_geom_bond_site_symmetry_2
Cu0 Ge0 2.454801 1_565
Cu0 Ge0 2.454805 1_555
Cu0 Ge0 2.454896 1_465
Cu0 Cu3 2.731402 1_555
Cu0 Cu4 2.731402 1_555
Cu0 Cu3 2.731426 1_465
Cu0 Cu4 2.731426 1_465
Cu0 Cu3 2.731429 1_455
Cu0 Cu4 2.731429 1_455
Cu1 Sb0 2.454679 1_555
Cu1 Sb0 2.454911 1_455
Cu1 Sb0 2.454912 1_465
Cu1 Cu2 2.796001 1_565
Cu1 Cu5 2.796001 1_565
Cu1 Cu5 2.796001 1_555
Cu1 Cu2 2.796001 1_555
Cu1 Cu5 2.796253 1_465
Cu1 Cu2 2.796253 1_465
Cu2 Ge0 2.447806 1_554
Cu2 Cu5 2.677225 1_555
Cu2 Cu3 2.754778 1_554
Cu2 Cu3 2.754778 1_544
Cu2 Cu3 2.754896 1_454
Cu2 Sb0 2.796040 1_555
Cu2 Sb0 2.796040 1_545
Cu2 Sb0 2.796175 1_455
Cu3 Cu4 2.395364 1_555
Cu3 Sb0 2.588736 1_556
Cu3 Ge0 2.731376 1_555
Cu3 Ge0 2.731377 1_565
Cu3 Ge0 2.731505 1_655
Cu4 Sb0 2.588736 1_555
Cu4 Ge0 2.731376 1_555
Cu4 Ge0 2.731377 1_565
Cu4 Ge0 2.731505 1_655
Cu4 Cu5 2.754778 1_555
Cu4 Cu5 2.754778 1_565
Cu4 Cu5 2.754896 1_655
Cu5 Ge0 2.447806 1_555
Cu5 Sb0 2.796040 1_555
Cu5 Sb0 2.796040 1_545
Cu5 Sb0 2.796175 1_455
