# generated using pymatgen
data_Y2AlSiNO5
_symmetry_space_group_name_H-M   'P 1'
_cell_length_a   4.04937613
_cell_length_b   5.18041947
_cell_length_c   27.45247612
_cell_angle_alpha   89.09778820
_cell_angle_beta   86.05025970
_cell_angle_gamma   124.30617329
_symmetry_Int_Tables_number   1
_chemical_formula_structural   Y2AlSiNO5
_chemical_formula_sum   'Y6 Al3 Si3 N3 O15'
_cell_volume   473.52988175
_cell_formula_units_Z   3
loop_
 _symmetry_equiv_pos_site_id
 _symmetry_equiv_pos_as_xyz
  1  'x, y, z'
loop_
 _atom_site_type_symbol
 _atom_site_label
 _atom_site_symmetry_multiplicity
 _atom_site_fract_x
 _atom_site_fract_y
 _atom_site_fract_z
 _atom_site_occupancy
  Y  Y0  1  0.06057000  0.10909500  0.35322100  1
  Y  Y1  1  0.09449700  0.98991400  0.68116100  1
  Y  Y2  1  0.11903800  0.13968500  0.01247100  1
  Y  Y3  1  0.98706100  0.93784100  0.82139900  1
  Y  Y4  1  0.02787500  0.07776500  0.14624900  1
  Y  Y5  1  0.97425200  0.05946200  0.48660600  1
  Al  Al0  1  0.68313200  0.32112100  0.24644500  1
  Al  Al1  1  0.69282100  0.38605800  0.57622800  1
  Al  Al2  1  0.74657400  0.30295600  0.90772700  1
  Si  Si0  1  0.23178800  0.61113300  0.75089200  1
  Si  Si1  1  0.26180500  0.63431200  0.08114000  1
  Si  Si2  1  0.21099400  0.61279100  0.41856700  1
  N  N0  1  0.46164600  0.08759200  0.53552800  1
  N  N1  1  0.36787800  0.31447600  0.87653800  1
  N  N2  1  0.13585700  0.24734500  0.75084900  1
  O  O0  1  0.42305100  0.62865600  0.13529000  1
  O  O1  1  0.51038200  0.66742700  0.02822700  1
  O  O2  1  0.45534000  0.64833800  0.36478500  1
  O  O3  1  0.47674300  0.83802200  0.69920300  1
  O  O4  1  0.37927800  0.60148700  0.47176400  1
  O  O5  1  0.39010500  0.79413900  0.80274200  1
  O  O6  1  0.63008000  0.20326500  0.30592000  1
  O  O7  1  0.54597400  0.14903000  0.19273600  1
  O  O8  1  0.64597700  0.44661000  0.63621000  1
  O  O9  1  0.70050800  0.22039300  0.96958300  1
  O  O10  1  0.08954400  0.86054400  0.41842500  1
  O  O11  1  0.13847400  0.88237900  0.08033600  1
  O  O12  1  0.82849900  0.61950200  0.74984000  1
  O  O13  1  0.89422300  0.26153800  0.08150800  1
  O  O14  1  0.84203400  0.24112300  0.41841200  1
loop_
_geom_bond_atom_site_label_1
_geom_bond_atom_site_label_2
_geom_bond_distance
_geom_bond_site_symmetry_2
Al0 O6 1.690319 1_555
Al0 O7 1.695084 1_555
Al1 O8 1.698870 1_555
Al1 N0 1.755653 1_555
Al2 O9 1.716051 1_555
Al2 N1 1.835937 1_555
Al2 N1 2.568807 1_655
N0 Y5 2.401531 1_455
N0 Y5 2.469154 1_555
N1 Y3 2.345031 1_445
N1 Y3 3.033551 1_555
N2 Si0 1.696299 1_555
N2 Y3 2.310270 1_445
N2 Y1 2.310679 1_545
O0 Si1 1.670612 1_555
O0 Y4 2.280847 1_665
O0 Y4 2.356794 1_555
O1 Si1 1.657931 1_555
O1 Y2 2.295621 1_665
O1 Y2 2.328242 1_555
O2 Si2 1.666619 1_555
O2 Y0 2.253752 1_665
O2 Y0 2.350307 1_555
O3 Si0 1.678782 1_555
O3 Y1 2.172629 1_655
O3 Y1 2.174074 1_555
O4 Si2 1.667310 1_555
O4 Y5 2.306904 1_565
O4 Y5 2.328316 1_455
O5 Si0 1.678983 1_555
O5 Y3 2.178669 1_455
O5 Y3 2.194070 1_555
O6 Y0 2.354118 1_555
O6 Y0 2.492683 1_655
O7 Y4 2.382657 1_555
O7 Y4 2.461044 1_655
O8 Y1 2.383273 1_545
O8 Y1 2.720117 1_655
O9 Y2 2.343389 1_656
O9 Y2 2.366011 1_556
O10 Si2 1.612693 1_555
O10 Y0 2.236617 1_565
O10 Y5 2.294756 1_465
O11 Si1 1.620319 1_555
O11 Y4 2.226277 1_565
O11 Y2 2.305257 1_565
O12 Si0 1.660089 1_655
O12 Y1 2.381920 1_655
O12 Y3 2.464395 1_555
O13 Si1 1.643799 1_655
O13 Y4 2.240105 1_655
O13 Y2 2.294977 1_655
O14 Si2 1.642517 1_655
O14 Y0 2.226300 1_655
O14 Y5 2.308156 1_555
