# generated using pymatgen
data_Ca4NbGaO8
_symmetry_space_group_name_H-M   'P 1'
_cell_length_a   5.64834900
_cell_length_b   11.29031900
_cell_length_c   14.22877602
_cell_angle_alpha   58.38797699
_cell_angle_beta   90.00000000
_cell_angle_gamma   90.00000000
_symmetry_Int_Tables_number   1
_chemical_formula_structural   Ca4NbGaO8
_chemical_formula_sum   'Ca16 Nb4 Ga4 O32'
_cell_volume   772.75101022
_cell_formula_units_Z   4
loop_
 _symmetry_equiv_pos_site_id
 _symmetry_equiv_pos_as_xyz
  1  'x, y, z'
loop_
 _atom_site_type_symbol
 _atom_site_label
 _atom_site_symmetry_multiplicity
 _atom_site_fract_x
 _atom_site_fract_y
 _atom_site_fract_z
 _atom_site_occupancy
  Ca  Ca0  1  0.74489600  0.93110800  0.59934100  1
  Ca  Ca1  1  0.24489600  0.06889200  0.90065900  1
  Ca  Ca2  1  0.25510400  0.06889200  0.40065900  1
  Ca  Ca3  1  0.75510400  0.93110800  0.09934100  1
  Ca  Ca4  1  0.27576700  0.39348400  0.93070100  1
  Ca  Ca5  1  0.77576700  0.60651600  0.56929900  1
  Ca  Ca6  1  0.72423300  0.60651600  0.06929900  1
  Ca  Ca7  1  0.22423300  0.39348400  0.43070100  1
  Ca  Ca8  1  0.77069100  0.24370600  0.62220000  1
  Ca  Ca9  1  0.27069100  0.75629400  0.87780000  1
  Ca  Ca10  1  0.22930900  0.75629400  0.37780000  1
  Ca  Ca11  1  0.72930900  0.24370600  0.12220000  1
  Ca  Ca12  1  0.72849600  0.29013300  0.35979700  1
  Ca  Ca13  1  0.22849600  0.70986700  0.14020300  1
  Ca  Ca14  1  0.27150400  0.70986700  0.64020300  1
  Ca  Ca15  1  0.77150400  0.29013300  0.85979700  1
  Nb  Nb0  1  0.25081900  0.07591900  0.13123600  1
  Nb  Nb1  1  0.75081900  0.92408100  0.36876400  1
  Nb  Nb2  1  0.74918100  0.92408100  0.86876400  1
  Nb  Nb3  1  0.24918100  0.07591900  0.63123600  1
  Ga  Ga0  1  0.21058300  0.39038700  0.17153700  1
  Ga  Ga1  1  0.71058300  0.60961300  0.32846300  1
  Ga  Ga2  1  0.78941700  0.60961300  0.82846300  1
  Ga  Ga3  1  0.28941700  0.39038700  0.67153700  1
  O  O0  1  0.68154400  0.43137800  0.93039300  1
  O  O1  1  0.18154400  0.56862200  0.56960700  1
  O  O2  1  0.31845600  0.56862200  0.06960700  1
  O  O3  1  0.81845600  0.43137800  0.43039300  1
  O  O4  1  0.32883600  0.90721600  0.63867100  1
  O  O5  1  0.82883600  0.09278400  0.86132900  1
  O  O6  1  0.67116400  0.09278400  0.36132900  1
  O  O7  1  0.17116400  0.90721600  0.13867100  1
  O  O8  1  0.31668200  0.26612400  0.12646600  1
  O  O9  1  0.81668200  0.73387600  0.37353400  1
  O  O10  1  0.68331800  0.73387600  0.87353400  1
  O  O11  1  0.18331800  0.26612400  0.62646600  1
  O  O12  1  0.67664500  0.67910100  0.68767200  1
  O  O13  1  0.17664500  0.32089900  0.81232800  1
  O  O14  1  0.32335500  0.32089900  0.31232800  1
  O  O15  1  0.82335500  0.67910100  0.18767200  1
  O  O16  1  0.12228400  0.61302800  0.82382400  1
  O  O17  1  0.62228400  0.38697200  0.67617600  1
  O  O18  1  0.87771600  0.38697200  0.17617600  1
  O  O19  1  0.37771600  0.61302800  0.32382400  1
  O  O20  1  0.57185400  0.98842600  0.22380800  1
  O  O21  1  0.07185400  0.01157400  0.27619200  1
  O  O22  1  0.42814600  0.01157400  0.77619200  1
  O  O23  1  0.92814600  0.98842600  0.72380800  1
  O  O24  1  0.48190900  0.83274600  0.46457700  1
  O  O25  1  0.98190900  0.16725400  0.03542300  1
  O  O26  1  0.51809100  0.16725400  0.53542300  1
  O  O27  1  0.01809100  0.83274600  0.96457700  1
  O  O28  1  0.47228200  0.14277500  0.00573000  1
  O  O29  1  0.97228200  0.85722500  0.49427000  1
  O  O30  1  0.52771800  0.85722500  0.99427000  1
  O  O31  1  0.02771800  0.14277500  0.50573000  1
loop_
_geom_bond_atom_site_label_1
_geom_bond_atom_site_label_2
_geom_bond_distance
_geom_bond_site_symmetry_2
Ca0 O4 2.398005 1_555
Ca0 O23 2.414147 1_555
Ca0 O29 2.426497 1_555
Ca0 O12 2.464713 1_555
Ca0 O31 2.588475 1_665
Ca0 O26 2.652306 1_565
Ca0 O6 2.914449 1_565
Ca0 O24 3.057637 1_555
Ca1 O5 2.398005 1_455
Ca1 O22 2.414147 1_555
Ca1 O28 2.426497 1_556
Ca1 O13 2.464713 1_555
Ca1 O30 2.588475 1_545
Ca1 O27 2.652306 1_545
Ca1 O7 2.914449 1_546
Ca1 O25 3.057637 1_456
Ca2 O6 2.398005 1_555
Ca2 O21 2.414147 1_555
Ca2 O31 2.426497 1_555
Ca2 O14 2.464713 1_555
Ca2 O29 2.588475 1_445
Ca2 O24 2.652306 1_545
Ca2 O4 2.914449 1_545
Ca2 O26 3.057637 1_555
Ca3 O7 2.398005 1_655
Ca3 O20 2.414147 1_555
Ca3 O30 2.426497 1_554
Ca3 O15 2.464713 1_555
Ca3 O28 2.588475 1_565
Ca3 O25 2.652306 1_565
Ca3 O5 2.914449 1_564
Ca3 O27 3.057637 1_654
Ca4 O16 2.292727 1_555
Ca4 O13 2.295417 1_555
Ca4 O0 2.331142 1_555
Ca4 O8 2.383509 1_556
Ca4 O28 2.686278 1_556
Ca4 O25 2.740325 1_456
Ca5 O17 2.292727 1_555
Ca5 O12 2.295417 1_555
Ca5 O1 2.331142 1_655
Ca5 O9 2.383509 1_555
Ca5 O29 2.686278 1_555
Ca5 O24 2.740325 1_555
Ca6 O18 2.292727 1_555
Ca6 O15 2.295417 1_555
Ca6 O2 2.331142 1_555
Ca6 O10 2.383509 1_554
Ca6 O30 2.686278 1_554
Ca6 O27 2.740325 1_654
Ca7 O19 2.292727 1_555
Ca7 O14 2.295417 1_555
Ca7 O3 2.331142 1_455
Ca7 O11 2.383509 1_555
Ca7 O31 2.686278 1_555
Ca7 O26 2.740325 1_555
Ca8 O17 2.282804 1_555
Ca8 O26 2.328645 1_555
Ca8 O11 2.348582 1_655
Ca8 O3 2.438970 1_555
Ca8 O23 2.611489 1_545
Ca8 O31 2.851730 1_655
Ca8 O5 2.917274 1_555
Ca8 O22 3.064835 1_555
Ca9 O16 2.282804 1_555
Ca9 O27 2.328645 1_555
Ca9 O10 2.348582 1_555
Ca9 O2 2.438970 1_556
Ca9 O22 2.611489 1_565
Ca9 O30 2.851730 1_555
Ca9 O4 2.917274 1_555
Ca9 O23 3.064835 1_455
Ca10 O19 2.282804 1_555
Ca10 O24 2.328645 1_555
Ca10 O9 2.348582 1_455
Ca10 O1 2.438970 1_555
Ca10 O21 2.611489 1_565
Ca10 O29 2.851730 1_455
Ca10 O7 2.917274 1_555
Ca10 O20 3.064835 1_555
Ca11 O18 2.282804 1_555
Ca11 O25 2.328645 1_555
Ca11 O8 2.348582 1_555
Ca11 O0 2.438970 1_554
Ca11 O20 2.611489 1_545
Ca11 O28 2.851730 1_555
Ca11 O6 2.917274 1_555
Ca11 O21 3.064835 1_655
Ca12 O6 2.240313 1_555
Ca12 O3 2.342981 1_555
Ca12 O14 2.359571 1_555
Ca12 O18 2.395280 1_555
Ca12 O26 2.438726 1_555
Ca12 O31 2.512864 1_655
Ca13 O7 2.240313 1_555
Ca13 O2 2.342981 1_555
Ca13 O15 2.359571 1_455
Ca13 O19 2.395280 1_555
Ca13 O27 2.438726 1_554
Ca13 O30 2.512864 1_554
Ca14 O4 2.240313 1_555
Ca14 O1 2.342981 1_555
Ca14 O12 2.359571 1_555
Ca14 O16 2.395280 1_555
Ca14 O24 2.438726 1_555
Ca14 O29 2.512864 1_455
Ca15 O5 2.240313 1_555
Ca15 O0 2.342981 1_555
Ca15 O13 2.359571 1_655
Ca15 O17 2.395280 1_555
Ca15 O25 2.438726 1_556
Ca15 O28 2.512864 1_556
Nb0 O7 1.905335 1_545
Nb0 O25 1.937843 1_455
Nb0 O28 1.977491 1_555
Nb0 O21 2.057399 1_555
Nb0 O8 2.145194 1_555
Nb0 O20 2.152874 1_545
Nb1 O6 1.905335 1_565
Nb1 O24 1.937843 1_555
Nb1 O29 1.977491 1_555
Nb1 O20 2.057399 1_555
Nb1 O9 2.145194 1_555
Nb1 O21 2.152874 1_665
Nb2 O5 1.905335 1_565
Nb2 O27 1.937843 1_655
Nb2 O30 1.977491 1_555
Nb2 O23 2.057399 1_555
Nb2 O10 2.145194 1_555
Nb2 O22 2.152874 1_565
Nb3 O4 1.905335 1_545
Nb3 O26 1.937843 1_555
Nb3 O31 1.977491 1_555
Nb3 O22 2.057399 1_555
Nb3 O11 2.145194 1_555
Nb3 O23 2.152874 1_445
Ga0 O14 1.840318 1_555
Ga0 O2 1.861342 1_555
Ga0 O18 1.880993 1_455
Ga0 O8 1.918841 1_555
Ga1 O15 1.840318 1_555
Ga1 O3 1.861342 1_555
Ga1 O19 1.880993 1_555
Ga1 O9 1.918841 1_555
Ga2 O12 1.840318 1_555
Ga2 O0 1.861342 1_555
Ga2 O16 1.880993 1_655
Ga2 O10 1.918841 1_555
Ga3 O13 1.840318 1_555
Ga3 O1 1.861342 1_555
Ga3 O17 1.880993 1_555
Ga3 O11 1.918841 1_555
