# generated using pymatgen
data_Hf9Re4Ni
_symmetry_space_group_name_H-M   'P 1'
_cell_length_a   8.59908600
_cell_length_b   8.59908606
_cell_length_c   8.43278000
_cell_angle_alpha   90.00000000
_cell_angle_beta   90.00000000
_cell_angle_gamma   119.99999975
_symmetry_Int_Tables_number   1
_chemical_formula_structural   Hf9Re4Ni
_chemical_formula_sum   'Hf18 Re8 Ni2'
_cell_volume   540.01520855
_cell_formula_units_Z   2
loop_
 _symmetry_equiv_pos_site_id
 _symmetry_equiv_pos_as_xyz
  1  'x, y, z'
loop_
 _atom_site_type_symbol
 _atom_site_label
 _atom_site_symmetry_multiplicity
 _atom_site_fract_x
 _atom_site_fract_y
 _atom_site_fract_z
 _atom_site_occupancy
  Hf  Hf0  1  0.19826600  0.80173400  0.44505100  1
  Hf  Hf1  1  0.19826600  0.39653100  0.44505100  1
  Hf  Hf2  1  0.60346900  0.80173400  0.44505100  1
  Hf  Hf3  1  0.80173400  0.19826600  0.55494900  1
  Hf  Hf4  1  0.80173400  0.60346900  0.55494900  1
  Hf  Hf5  1  0.39653100  0.19826600  0.55494900  1
  Hf  Hf6  1  0.80173400  0.19826600  0.94505100  1
  Hf  Hf7  1  0.80173400  0.60346900  0.94505100  1
  Hf  Hf8  1  0.39653100  0.19826600  0.94505100  1
  Hf  Hf9  1  0.19826600  0.80173400  0.05494900  1
  Hf  Hf10  1  0.19826600  0.39653100  0.05494900  1
  Hf  Hf11  1  0.60346900  0.80173400  0.05494900  1
  Hf  Hf12  1  0.54031000  0.45969000  0.25000000  1
  Hf  Hf13  1  0.54031000  0.08062000  0.25000000  1
  Hf  Hf14  1  0.91938000  0.45969000  0.25000000  1
  Hf  Hf15  1  0.45969000  0.54031000  0.75000000  1
  Hf  Hf16  1  0.45969000  0.91938000  0.75000000  1
  Hf  Hf17  1  0.08062000  0.54031000  0.75000000  1
  Re  Re0  1  0.88936600  0.11063400  0.25000000  1
  Re  Re1  1  0.88936600  0.77873100  0.25000000  1
  Re  Re2  1  0.22126900  0.11063400  0.25000000  1
  Re  Re3  1  0.11063400  0.88936600  0.75000000  1
  Re  Re4  1  0.11063400  0.22126900  0.75000000  1
  Re  Re5  1  0.77873100  0.88936600  0.75000000  1
  Re  Re6  1  0.00000000  0.00000000  0.50000000  1
  Re  Re7  1  0.00000000  0.00000000  0.00000000  1
  Ni  Ni0  1  0.33333300  0.66666700  0.25000000  1
  Ni  Ni1  1  0.66666700  0.33333300  0.75000000  1
loop_
_geom_bond_atom_site_label_1
_geom_bond_atom_site_label_2
_geom_bond_distance
_geom_bond_site_symmetry_2
Hf0 Ni0 2.598530 1_555
Hf0 Re3 2.883834 1_555
Hf0 Re6 2.989119 1_565
Hf0 Re1 3.045464 1_455
Hf0 Re2 3.045464 1_565
Hf1 Ni0 2.598541 1_555
Hf1 Re4 2.883827 1_555
Hf1 Re6 2.989112 1_555
Hf1 Re2 3.045464 1_555
Hf1 Re0 3.045464 1_455
Hf2 Ni0 2.598541 1_555
Hf2 Re5 2.883827 1_555
Hf2 Re6 2.989112 1_665
Hf2 Re1 3.045464 1_555
Hf2 Re0 3.045464 1_565
Hf3 Ni1 2.598530 1_555
Hf3 Re0 2.883834 1_555
Hf3 Re6 2.989119 1_655
Hf3 Re4 3.045464 1_655
Hf3 Re5 3.045464 1_545
Hf4 Ni1 2.598541 1_555
Hf4 Re1 2.883827 1_555
Hf4 Re6 2.989112 1_665
Hf4 Re3 3.045464 1_655
Hf4 Re5 3.045464 1_555
Hf5 Ni1 2.598541 1_555
Hf5 Re2 2.883827 1_555
Hf5 Re6 2.989112 1_555
Hf5 Re4 3.045464 1_555
Hf5 Re3 3.045464 1_545
Hf6 Ni1 2.598530 1_555
Hf6 Re0 2.883834 1_556
Hf6 Re7 2.989119 1_656
Hf6 Re4 3.045464 1_655
Hf6 Re5 3.045464 1_545
Hf7 Ni1 2.598541 1_555
Hf7 Re1 2.883827 1_556
Hf7 Re7 2.989112 1_666
Hf7 Re3 3.045464 1_655
Hf7 Re5 3.045464 1_555
Hf8 Ni1 2.598541 1_555
Hf8 Re2 2.883827 1_556
Hf8 Re7 2.989112 1_556
Hf8 Re4 3.045464 1_555
Hf8 Re3 3.045464 1_545
Hf9 Ni0 2.598530 1_555
Hf9 Re3 2.883834 1_554
Hf9 Re7 2.989119 1_565
Hf9 Re1 3.045464 1_455
Hf9 Re2 3.045464 1_565
Hf10 Ni0 2.598541 1_555
Hf10 Re4 2.883827 1_554
Hf10 Re7 2.989112 1_555
Hf10 Re2 3.045464 1_555
Hf10 Re0 3.045464 1_455
Hf11 Ni0 2.598541 1_555
Hf11 Re5 2.883827 1_554
Hf11 Re7 2.989112 1_665
Hf11 Re1 3.045464 1_555
Hf11 Re0 3.045464 1_565
Hf12 Re1 2.881195 1_555
Hf12 Re2 2.881195 1_555
Hf12 Ni0 3.082727 1_555
Hf13 Re2 2.881190 1_555
Hf13 Re0 2.881199 1_555
Hf13 Ni0 3.082719 1_545
Hf14 Re1 2.881190 1_555
Hf14 Re0 2.881199 1_555
Hf14 Ni0 3.082719 1_655
Hf15 Re4 2.881195 1_555
Hf15 Re5 2.881195 1_555
Hf15 Ni1 3.082727 1_555
Hf16 Re5 2.881190 1_555
Hf16 Re3 2.881199 1_555
Hf16 Ni1 3.082719 1_565
Hf17 Re4 2.881190 1_555
Hf17 Re3 2.881199 1_555
Hf17 Ni1 3.082719 1_455
Re0 Re6 2.675760 1_655
Re0 Re7 2.675760 1_655
Re0 Re2 2.854062 1_655
Re0 Re1 2.854062 1_545
Re1 Re6 2.675765 1_665
Re1 Re7 2.675765 1_665
Re1 Re2 2.854062 1_665
Re2 Re6 2.675765 1_555
Re2 Re7 2.675765 1_555
Re3 Re6 2.675760 1_565
Re3 Re7 2.675760 1_566
Re3 Re5 2.854062 1_455
Re3 Re4 2.854062 1_565
Re4 Re7 2.675765 1_556
Re4 Re6 2.675765 1_555
Re4 Re5 2.854062 1_445
Re5 Re7 2.675765 1_666
Re5 Re6 2.675765 1_665
