# generated using pymatgen
data_Mn3NiP2
_symmetry_space_group_name_H-M   'P 1'
_cell_length_a   3.59872838
_cell_length_b   6.11652406
_cell_length_c   6.90470583
_cell_angle_alpha   90.00025979
_cell_angle_beta   90.00000033
_cell_angle_gamma   90.00000003
_symmetry_Int_Tables_number   1
_chemical_formula_structural   Mn3NiP2
_chemical_formula_sum   'Mn6 Ni2 P4'
_cell_volume   151.98437354
_cell_formula_units_Z   2
loop_
 _symmetry_equiv_pos_site_id
 _symmetry_equiv_pos_as_xyz
  1  'x, y, z'
loop_
 _atom_site_type_symbol
 _atom_site_label
 _atom_site_symmetry_multiplicity
 _atom_site_fract_x
 _atom_site_fract_y
 _atom_site_fract_z
 _atom_site_occupancy
  Mn  Mn0  1  0.25000003  0.64071912  0.93389474  1
  Mn  Mn1  1  0.24999997  0.14067174  0.56608086  1
  Mn  Mn2  1  0.74999999  0.47438747  0.66872954  1
  Mn  Mn3  1  0.75000001  0.97442799  0.83107447  1
  Mn  Mn4  1  0.24999995  0.52903579  0.32906986  1
  Mn  Mn5  1  0.24999999  0.02894211  0.17110380  1
  Ni  Ni0  1  0.75000011  0.35756642  0.06560177  1
  Ni  Ni1  1  0.74999992  0.85766908  0.43447723  1
  P  P0  1  0.75000001  0.73555821  0.12755699  1
  P  P1  1  0.74999998  0.23550413  0.37249062  1
  P  P2  1  0.25000006  0.26273737  0.87852355  1
  P  P3  1  0.24999997  0.76277757  0.62139757  1
loop_
_geom_bond_atom_site_label_1
_geom_bond_atom_site_label_2
_geom_bond_distance
_geom_bond_site_symmetry_2
Mn0 P3 2.283213 1_555
Mn0 P0 2.315655 1_556
Mn0 P0 2.315655 1_456
Mn0 P2 2.343332 1_555
Mn0 Ni0 2.657864 1_456
Mn0 Ni0 2.657865 1_556
Mn1 P2 2.282865 1_555
Mn1 P1 2.315360 1_455
Mn1 P1 2.315360 1_555
Mn1 P3 2.342745 1_545
Mn1 Ni1 2.657017 1_545
Mn1 Ni1 2.657017 1_445
Mn2 P1 2.513708 1_555
Mn2 P3 2.540871 1_655
Mn2 P3 2.540871 1_555
Mn2 P2 2.648011 1_555
Mn2 P2 2.648012 1_655
Mn2 Ni0 2.831916 1_556
Mn2 Ni1 2.848182 1_555
Mn3 P0 2.515039 1_556
Mn3 P2 2.540630 1_565
Mn3 P2 2.540631 1_665
Mn3 P3 2.647564 1_655
Mn3 P3 2.647564 1_555
Mn3 Ni1 2.829977 1_555
Mn3 Ni0 2.848528 1_566
Mn4 P3 2.473473 1_555
Mn4 P1 2.559500 1_455
Mn4 P1 2.559500 1_555
Mn4 P0 2.601799 1_455
Mn4 P0 2.601799 1_555
Mn4 Ni0 2.765329 1_455
Mn4 Ni0 2.765330 1_555
Mn4 Ni1 2.794258 1_555
Mn4 Ni1 2.794258 1_455
Mn5 P2 2.475095 1_554
Mn5 P0 2.558966 1_445
Mn5 P0 2.558966 1_545
Mn5 P1 2.601445 1_555
Mn5 P1 2.601445 1_455
Mn5 Ni1 2.764450 1_545
Mn5 Ni1 2.764451 1_445
Mn5 Ni0 2.794393 1_455
Mn5 Ni0 2.794394 1_555
Ni0 P1 2.246661 1_555
Ni0 P2 2.289688 1_654
Ni0 P2 2.289689 1_554
Ni0 P0 2.351237 1_555
Ni1 P0 2.246958 1_555
Ni1 P3 2.289173 1_555
Ni1 P3 2.289174 1_655
Ni1 P1 2.350337 1_565
