# generated using pymatgen
data_Ca5Ni9As7
_symmetry_space_group_name_H-M   'P 1'
_cell_length_a   3.99137700
_cell_length_b   9.96588561
_cell_length_c   9.96588561
_cell_angle_alpha   119.99999743
_cell_angle_beta   90.00000000
_cell_angle_gamma   90.00000000
_symmetry_Int_Tables_number   1
_chemical_formula_structural   Ca5Ni9As7
_chemical_formula_sum   'Ca5 Ni9 As7'
_cell_volume   343.30900057
_cell_formula_units_Z   1
loop_
 _symmetry_equiv_pos_site_id
 _symmetry_equiv_pos_as_xyz
  1  'x, y, z'
loop_
 _atom_site_type_symbol
 _atom_site_label
 _atom_site_symmetry_multiplicity
 _atom_site_fract_x
 _atom_site_fract_y
 _atom_site_fract_z
 _atom_site_occupancy
  Ca  Ca0  1  0.50000000  0.76811400  0.88895700  1
  Ca  Ca1  1  0.50000000  0.12084400  0.23188600  1
  Ca  Ca2  1  0.50000000  0.11104300  0.87915600  1
  Ca  Ca3  1  0.00000000  0.66666700  0.33333300  1
  Ca  Ca4  1  0.50000000  0.33333300  0.66666700  1
  Ni  Ni0  1  0.00000000  0.57937900  0.95466200  1
  Ni  Ni1  1  0.00000000  0.37528300  0.42062100  1
  Ni  Ni2  1  0.00000000  0.04533800  0.62471700  1
  Ni  Ni3  1  0.00000000  0.86633100  0.17080700  1
  Ni  Ni4  1  0.00000000  0.30447700  0.13366900  1
  Ni  Ni5  1  0.00000000  0.82919300  0.69552300  1
  Ni  Ni6  1  0.50000000  0.94424400  0.39621100  1
  Ni  Ni7  1  0.50000000  0.45196700  0.05575600  1
  Ni  Ni8  1  0.50000000  0.60378900  0.54803300  1
  As  As0  1  0.50000000  0.71592100  0.14157600  1
  As  As1  1  0.50000000  0.42565600  0.28407900  1
  As  As2  1  0.50000000  0.85842400  0.57434400  1
  As  As3  1  0.00000000  0.00000000  0.00000000  1
  As  As4  1  0.00000000  0.57533000  0.67183700  1
  As  As5  1  0.00000000  0.09650700  0.42467000  1
  As  As6  1  0.00000000  0.32816300  0.90349300  1
loop_
_geom_bond_atom_site_label_1
_geom_bond_atom_site_label_2
_geom_bond_distance
_geom_bond_site_symmetry_2
Ca0 Ni8 2.943052 1_555
Ca0 Ni0 3.030018 1_555
Ca0 Ni0 3.030018 1_655
Ca0 Ni5 3.040215 1_655
Ca0 Ni5 3.040215 1_555
Ca0 Ni3 3.175107 1_556
Ca0 Ni3 3.175107 1_656
Ca1 Ni6 2.943060 1_545
Ca1 Ni1 3.030013 1_655
Ca1 Ni1 3.030013 1_555
Ca1 Ni3 3.040215 1_545
Ca1 Ni3 3.040215 1_645
Ca1 Ni4 3.175107 1_555
Ca1 Ni4 3.175107 1_655
Ca2 Ni7 2.943052 1_556
Ca2 Ni2 3.030011 1_655
Ca2 Ni2 3.030011 1_555
Ca2 Ni4 3.040216 1_656
Ca2 Ni4 3.040216 1_556
Ca2 Ni5 3.175107 1_545
Ca2 Ni5 3.175107 1_645
Ca3 Ni3 3.131430 1_555
Ca3 Ni5 3.131430 1_555
Ca3 Ni4 3.131430 1_555
Ca3 Ni6 3.208489 1_455
Ca3 Ni6 3.208489 1_555
Ca3 Ni7 3.208492 1_555
Ca3 Ni7 3.208492 1_455
Ca3 Ni8 3.208497 1_555
Ca3 Ni8 3.208497 1_455
Ca3 Ni0 3.422777 1_554
Ca3 Ni2 3.422780 1_565
Ca3 Ni1 3.422787 1_555
Ca4 Ni2 3.345932 1_655
Ca4 Ni2 3.345932 1_555
Ca4 Ni0 3.345935 1_655
Ca4 Ni0 3.345935 1_555
Ca4 Ni1 3.345940 1_655
Ca4 Ni1 3.345940 1_555
Ca4 Ni7 3.442274 1_556
Ca4 Ni6 3.442276 1_545
Ca4 Ni8 3.442283 1_555
Ni0 Ni3 2.580315 1_556
Ni1 Ni4 2.580318 1_555
Ni2 Ni5 2.580308 1_545
Ni3 Ni6 2.808477 1_455
Ni3 Ni6 2.808477 1_555
Ni4 Ni7 2.808470 1_555
Ni4 Ni7 2.808470 1_455
Ni5 Ni8 2.808476 1_555
Ni5 Ni8 2.808476 1_455
As0 Ni7 2.324088 1_555
As0 Ni6 2.417243 1_555
As0 Ni3 2.424433 1_555
As0 Ni3 2.424433 1_655
As0 Ni0 2.601837 1_654
As0 Ni0 2.601837 1_554
As0 Ca0 2.813936 1_554
As0 Ca3 2.968803 1_555
As0 Ca3 2.968803 1_655
As1 Ni8 2.324086 1_555
As1 Ni7 2.417237 1_555
As1 Ni4 2.424433 1_555
As1 Ni4 2.424433 1_655
As1 Ni1 2.601842 1_555
As1 Ni1 2.601842 1_655
As1 Ca1 2.813936 1_555
As1 Ca3 2.968803 1_555
As1 Ca3 2.968803 1_655
As2 Ni6 2.324078 1_555
As2 Ni8 2.417247 1_555
As2 Ni5 2.424433 1_655
As2 Ni5 2.424433 1_555
As2 Ni2 2.601835 1_665
As2 Ni2 2.601835 1_565
As2 Ca2 2.813937 1_565
As2 Ca3 2.968803 1_655
As2 Ca3 2.968803 1_555
As3 Ni3 2.634352 1_545
As3 Ni5 2.634360 1_544
As3 Ni4 2.634361 1_555
As3 Ca0 2.826751 1_444
As3 Ca0 2.826751 1_544
As3 Ca1 2.826751 1_555
As3 Ca1 2.826751 1_455
As3 Ca2 2.826757 1_554
As3 Ca2 2.826757 1_454
As4 Ni1 2.291575 1_555
As4 Ni5 2.420591 1_555
As4 Ni8 2.436278 1_455
As4 Ni8 2.436278 1_555
As4 Ni0 2.798644 1_555
As4 Ca0 2.863356 1_455
As4 Ca0 2.863356 1_555
As4 Ca4 3.110873 1_555
As4 Ca4 3.110873 1_455
As5 Ni2 2.291575 1_555
As5 Ni3 2.420587 1_545
As5 Ni6 2.436278 1_545
As5 Ni6 2.436278 1_445
As5 Ni1 2.798644 1_555
As5 Ca1 2.863361 1_555
As5 Ca1 2.863361 1_455
As5 Ca4 3.110870 1_555
As5 Ca4 3.110870 1_455
As6 Ni0 2.291575 1_555
As6 Ni4 2.420581 1_556
As6 Ni7 2.436278 1_456
As6 Ni7 2.436278 1_556
As6 Ni2 2.798644 1_555
As6 Ca2 2.863353 1_455
As6 Ca2 2.863353 1_555
As6 Ca4 3.110866 1_455
As6 Ca4 3.110866 1_555
