# generated using pymatgen
data_La(CeB8)3
_symmetry_space_group_name_H-M   'P 1'
_cell_length_a   4.13015600
_cell_length_b   5.83705300
_cell_length_c   11.68182200
_cell_angle_alpha   90.00000000
_cell_angle_beta   90.00000000
_cell_angle_gamma   90.00000000
_symmetry_Int_Tables_number   1
_chemical_formula_structural   La(CeB8)3
_chemical_formula_sum   'La1 Ce3 B24'
_cell_volume   281.62465768
_cell_formula_units_Z   1
loop_
 _symmetry_equiv_pos_site_id
 _symmetry_equiv_pos_as_xyz
  1  'x, y, z'
loop_
 _atom_site_type_symbol
 _atom_site_label
 _atom_site_symmetry_multiplicity
 _atom_site_fract_x
 _atom_site_fract_y
 _atom_site_fract_z
 _atom_site_occupancy
  La  La0  1  0.00000000  0.00000000  0.00000000  1
  Ce  Ce0  1  0.00000000  0.50000000  0.25084000  1
  Ce  Ce1  1  0.00000000  0.00000000  0.50000000  1
  Ce  Ce2  1  0.00000000  0.50000000  0.74916000  1
  B  B0  1  0.19865700  0.50000000  0.50000000  1
  B  B1  1  0.19882200  0.00000000  0.74976500  1
  B  B2  1  0.19918400  0.50000000  0.00000000  1
  B  B3  1  0.19882200  0.00000000  0.25023500  1
  B  B4  1  0.50000000  0.65065800  0.57539400  1
  B  B5  1  0.50000000  0.15108300  0.82482700  1
  B  B6  1  0.50000000  0.64982100  0.07556800  1
  B  B7  1  0.50000000  0.15082900  0.32530400  1
  B  B8  1  0.50000000  0.34934200  0.57539400  1
  B  B9  1  0.50000000  0.84891700  0.82482700  1
  B  B10  1  0.50000000  0.35017900  0.07556800  1
  B  B11  1  0.50000000  0.84917100  0.32530400  1
  B  B12  1  0.50000000  0.34934200  0.42460600  1
  B  B13  1  0.50000000  0.84917100  0.67469600  1
  B  B14  1  0.50000000  0.35017900  0.92443200  1
  B  B15  1  0.50000000  0.84891700  0.17517300  1
  B  B16  1  0.50000000  0.65065800  0.42460600  1
  B  B17  1  0.50000000  0.15082900  0.67469600  1
  B  B18  1  0.50000000  0.64982100  0.92443200  1
  B  B19  1  0.50000000  0.15108300  0.17517300  1
  B  B20  1  0.80134300  0.50000000  0.50000000  1
  B  B21  1  0.80117800  0.00000000  0.74976500  1
  B  B22  1  0.80081600  0.50000000  0.00000000  1
  B  B23  1  0.80117800  0.00000000  0.25023500  1
loop_
_geom_bond_atom_site_label_1
_geom_bond_atom_site_label_2
_geom_bond_distance
_geom_bond_site_symmetry_2
B0 B20 1.640969 1_455
B0 B8 1.760130 1_555
B0 B4 1.760130 1_555
B0 B16 1.760130 1_555
B0 B12 1.760130 1_555
B0 Ce0 3.024076 1_555
B0 Ce2 3.024076 1_555
B0 Ce1 3.031665 1_565
B0 Ce1 3.031665 1_555
B1 B21 1.642332 1_455
B1 B17 1.758250 1_555
B1 B13 1.758250 1_545
B1 B9 1.758952 1_545
B1 B5 1.758952 1_555
B1 Ce1 3.031064 1_555
B1 Ce2 3.031858 1_555
B1 Ce2 3.031858 1_545
B1 La0 3.036349 1_556
B2 B22 1.645322 1_455
B2 B6 1.757174 1_555
B2 La0 3.032255 1_565
B2 La0 3.032255 1_555
B2 Ce2 3.043558 1_554
B2 Ce0 3.043558 1_555
B3 B7 1.758250 1_555
B3 Ce1 3.031064 1_555
B3 Ce0 3.031858 1_555
B3 Ce0 3.031858 1_545
B3 La0 3.036349 1_555
B4 B8 1.758797 1_555
B4 Ce2 3.026284 1_655
B4 Ce2 3.026284 1_555
B4 Ce1 3.032868 1_665
B4 Ce1 3.032868 1_565
B5 B9 1.763759 1_545
B5 Ce2 3.032129 1_555
B5 Ce2 3.032129 1_655
B5 La0 3.038053 1_656
B5 La0 3.038053 1_556
B6 Ce0 3.036702 1_655
B6 Ce0 3.036702 1_555
B6 La0 3.036746 1_565
B6 La0 3.036746 1_665
B7 Ce0 3.029060 1_555
B7 Ce0 3.029060 1_655
B7 Ce1 3.033872 1_555
B7 Ce1 3.033872 1_655
B8 Ce2 3.026284 1_655
B8 Ce2 3.026284 1_555
B8 Ce1 3.032868 1_555
B8 Ce1 3.032868 1_655
B9 Ce2 3.032129 1_555
B9 Ce2 3.032129 1_655
B9 La0 3.038053 1_566
B9 La0 3.038053 1_666
B10 B19 1.644520 1_555
B10 B6 1.749026 1_555
B10 B2 1.757174 1_555
B10 B22 1.757174 1_555
B10 B14 1.765544 1_554
B10 Ce0 3.036702 1_655
B10 Ce0 3.036702 1_555
B10 La0 3.036746 1_555
B10 La0 3.036746 1_655
B11 B16 1.639611 1_555
B11 B15 1.753804 1_555
B11 B3 1.758250 1_565
B11 B23 1.758250 1_565
B11 B7 1.760794 1_565
B11 Ce0 3.029060 1_555
B11 Ce0 3.029060 1_655
B11 Ce1 3.033872 1_665
B11 Ce1 3.033872 1_565
B12 B7 1.639611 1_555
B12 B16 1.758797 1_555
B12 B20 1.760130 1_555
B12 B8 1.761479 1_555
B12 Ce0 3.026284 1_555
B12 Ce0 3.026284 1_655
B12 Ce1 3.032868 1_555
B12 Ce1 3.032868 1_655
B13 B4 1.639611 1_555
B13 B9 1.753804 1_555
B13 B21 1.758250 1_565
B13 B17 1.760794 1_565
B13 Ce2 3.029060 1_555
B13 Ce2 3.029060 1_655
B13 Ce1 3.033872 1_665
B13 Ce1 3.033872 1_565
B14 B5 1.644520 1_555
B14 B18 1.749026 1_555
B14 B2 1.757174 1_556
B14 B22 1.757174 1_556
B14 Ce2 3.036702 1_655
B14 Ce2 3.036702 1_555
B14 La0 3.036746 1_656
B14 La0 3.036746 1_556
B15 B6 1.644520 1_555
B15 B23 1.758952 1_565
B15 B3 1.758952 1_565
B15 B19 1.763759 1_565
B15 Ce0 3.032129 1_555
B15 Ce0 3.032129 1_655
B15 La0 3.038053 1_565
B15 La0 3.038053 1_665
B16 B20 1.760130 1_555
B16 B4 1.761479 1_555
B16 Ce0 3.026284 1_555
B16 Ce0 3.026284 1_655
B16 Ce1 3.032868 1_665
B16 Ce1 3.032868 1_565
B17 B8 1.639611 1_555
B17 B5 1.753804 1_555
B17 B21 1.758250 1_555
B17 Ce2 3.029060 1_555
B17 Ce2 3.029060 1_655
B17 Ce1 3.033872 1_555
B17 Ce1 3.033872 1_655
B18 B9 1.644520 1_555
B18 B2 1.757174 1_556
B18 B22 1.757174 1_556
B18 B6 1.765544 1_556
B18 Ce2 3.036702 1_655
B18 Ce2 3.036702 1_555
B18 La0 3.036746 1_566
B18 La0 3.036746 1_666
B19 B7 1.753804 1_555
B19 B23 1.758952 1_555
B19 B3 1.758952 1_555
B19 Ce0 3.032129 1_555
B19 Ce0 3.032129 1_655
B19 La0 3.038053 1_655
B19 La0 3.038053 1_555
B20 B8 1.760130 1_555
B20 B4 1.760130 1_555
B20 Ce0 3.024076 1_655
B20 Ce2 3.024076 1_655
B20 Ce1 3.031665 1_665
B20 Ce1 3.031665 1_655
B21 B9 1.758952 1_545
B21 B5 1.758952 1_555
B21 Ce1 3.031064 1_655
B21 Ce2 3.031858 1_645
B21 Ce2 3.031858 1_655
B21 La0 3.036349 1_656
B22 B6 1.757174 1_555
B22 La0 3.032255 1_655
B22 La0 3.032255 1_665
B22 Ce2 3.043558 1_654
B22 Ce0 3.043558 1_655
B23 B3 1.642332 1_655
B23 B7 1.758250 1_555
B23 Ce1 3.031064 1_655
B23 Ce0 3.031858 1_655
B23 Ce0 3.031858 1_645
B23 La0 3.036349 1_655
