# generated using pymatgen
data_LaHfMg6O8
_symmetry_space_group_name_H-M   'P 1'
_cell_length_a   9.16597963
_cell_length_b   4.59146668
_cell_length_c   4.59146668
_cell_angle_alpha   90.00000000
_cell_angle_beta   90.00000000
_cell_angle_gamma   90.00000000
_symmetry_Int_Tables_number   1
_chemical_formula_structural   LaHfMg6O8
_chemical_formula_sum   'La1 Hf1 Mg6 O8'
_cell_volume   193.23320703
_cell_formula_units_Z   1
loop_
 _symmetry_equiv_pos_site_id
 _symmetry_equiv_pos_as_xyz
  1  'x, y, z'
loop_
 _atom_site_type_symbol
 _atom_site_label
 _atom_site_symmetry_multiplicity
 _atom_site_fract_x
 _atom_site_fract_y
 _atom_site_fract_z
 _atom_site_occupancy
  La  La0  1  -0.00000000  0.00000000  0.00000000  1
  Hf  Hf0  1  0.50000000  0.00000000  0.00000000  1
  Mg  Mg0  1  -0.00000000  0.50000000  0.50000000  1
  Mg  Mg1  1  0.50000000  0.50000000  0.50000000  1
  Mg  Mg2  1  0.26082076  0.00000000  0.50000000  1
  Mg  Mg3  1  0.73917924  -0.00000000  0.50000000  1
  Mg  Mg4  1  0.26082076  0.50000000  -0.00000000  1
  Mg  Mg5  1  0.73917924  0.50000000  0.00000000  1
  O  O0  1  0.26695197  0.00000000  0.00000000  1
  O  O1  1  0.73304803  -0.00000000  -0.00000000  1
  O  O2  1  0.24751525  0.50000000  0.50000000  1
  O  O3  1  0.75248475  0.50000000  0.50000000  1
  O  O4  1  -0.00000000  0.00000000  0.50000000  1
  O  O5  1  0.50000000  0.00000000  0.50000000  1
  O  O6  1  -0.00000000  0.50000000  0.00000000  1
  O  O7  1  0.50000000  0.50000000  0.00000000  1
loop_
_geom_bond_atom_site_label_1
_geom_bond_atom_site_label_2
_geom_bond_distance
_geom_bond_site_symmetry_2
La0 O6 2.295733 1_555
La0 O4 2.295733 1_555
La0 O4 2.295733 1_554
La0 O6 2.295733 1_545
La0 O0 2.446876 1_555
La0 O1 2.446876 1_455
Hf0 O1 2.136113 1_555
Hf0 O0 2.136113 1_555
Hf0 O5 2.295733 1_554
Hf0 O5 2.295733 1_555
Hf0 O7 2.295733 1_545
Hf0 O7 2.295733 1_555
Mg0 O3 2.268720 1_455
Mg0 O2 2.268720 1_555
Mg0 O6 2.295733 1_556
Mg0 O6 2.295733 1_555
Mg0 O4 2.295733 1_555
Mg0 O4 2.295733 1_565
Mg1 O7 2.295733 1_556
Mg1 O5 2.295733 1_555
Mg1 O5 2.295733 1_565
Mg1 O7 2.295733 1_555
Mg1 O2 2.314270 1_555
Mg1 O3 2.314270 1_555
Mg2 O5 2.192312 1_555
Mg2 O0 2.296421 1_555
Mg2 O0 2.296421 1_556
Mg2 O2 2.298970 1_555
Mg2 O2 2.298970 1_545
Mg2 O4 2.390678 1_555
Mg3 O5 2.192312 1_555
Mg3 O1 2.296421 1_555
Mg3 O1 2.296421 1_556
Mg3 O3 2.298970 1_545
Mg3 O3 2.298970 1_555
Mg3 O4 2.390678 1_655
Mg4 O7 2.192312 1_555
Mg4 O0 2.296421 1_555
Mg4 O0 2.296421 1_565
Mg4 O2 2.298970 1_555
Mg4 O2 2.298970 1_554
Mg4 O6 2.390678 1_555
Mg5 O7 2.192312 1_555
Mg5 O1 2.296421 1_555
Mg5 O1 2.296421 1_565
Mg5 O3 2.298970 1_555
Mg5 O3 2.298970 1_554
Mg5 O6 2.390678 1_655
