# generated using pymatgen
data_KBaMnO4
_symmetry_space_group_name_H-M   'P 1'
_cell_length_a   5.91411100
_cell_length_b   7.91167400
_cell_length_c   10.44420000
_cell_angle_alpha   90.00000000
_cell_angle_beta   90.00000000
_cell_angle_gamma   90.00000000
_symmetry_Int_Tables_number   1
_chemical_formula_structural   KBaMnO4
_chemical_formula_sum   'K4 Ba4 Mn4 O16'
_cell_volume   488.68953052
_cell_formula_units_Z   4
loop_
 _symmetry_equiv_pos_site_id
 _symmetry_equiv_pos_as_xyz
  1  'x, y, z'
loop_
 _atom_site_type_symbol
 _atom_site_label
 _atom_site_symmetry_multiplicity
 _atom_site_fract_x
 _atom_site_fract_y
 _atom_site_fract_z
 _atom_site_occupancy
  K  K0  1  0.75000000  0.66007700  0.08139000  1
  K  K1  1  0.75000000  0.16007700  0.41861000  1
  K  K2  1  0.25000000  0.33992300  0.91861000  1
  K  K3  1  0.25000000  0.83992300  0.58139000  1
  Ba  Ba0  1  0.75000000  0.99222200  0.80778000  1
  Ba  Ba1  1  0.75000000  0.49222200  0.69222000  1
  Ba  Ba2  1  0.25000000  0.00777800  0.19222000  1
  Ba  Ba3  1  0.25000000  0.50777800  0.30778000  1
  Mn  Mn0  1  0.75000000  0.23228400  0.08191300  1
  Mn  Mn1  1  0.75000000  0.73228400  0.41808700  1
  Mn  Mn2  1  0.25000000  0.76771600  0.91808700  1
  Mn  Mn3  1  0.25000000  0.26771600  0.58191300  1
  O  O0  1  0.75000000  0.30422700  0.92578800  1
  O  O1  1  0.75000000  0.80422700  0.57421200  1
  O  O2  1  0.25000000  0.69577300  0.07421200  1
  O  O3  1  0.25000000  0.19577300  0.42578800  1
  O  O4  1  0.98997200  0.30087500  0.15834800  1
  O  O5  1  0.51002800  0.80087500  0.34165200  1
  O  O6  1  0.48997200  0.69912500  0.84165200  1
  O  O7  1  0.01002800  0.19912500  0.65834800  1
  O  O8  1  0.01002800  0.69912500  0.84165200  1
  O  O9  1  0.48997200  0.19912500  0.65834800  1
  O  O10  1  0.51002800  0.30087500  0.15834800  1
  O  O11  1  0.98997200  0.80087500  0.34165200  1
  O  O12  1  0.75000000  0.01549000  0.07934700  1
  O  O13  1  0.75000000  0.51549000  0.42065300  1
  O  O14  1  0.25000000  0.98451000  0.92065300  1
  O  O15  1  0.25000000  0.48451000  0.57934700  1
loop_
_geom_bond_atom_site_label_1
_geom_bond_atom_site_label_2
_geom_bond_distance
_geom_bond_site_symmetry_2
K0 O12 2.811993 1_565
K0 O8 2.954615 1_654
K0 O6 2.954615 1_554
K0 O2 2.971457 1_555
K0 O2 2.971457 1_655
K0 O0 3.250750 1_554
K0 O11 3.262489 1_555
K0 O5 3.262489 1_555
K0 O4 3.276669 1_555
K0 O10 3.276669 1_555
K1 O13 2.811993 1_555
K1 O7 2.954615 1_655
K1 O9 2.954615 1_555
K1 O3 2.971457 1_555
K1 O3 2.971457 1_655
K1 O1 3.250750 1_545
K1 O4 3.262489 1_555
K1 O10 3.262489 1_555
K1 O11 3.276669 1_545
K1 O5 3.276669 1_545
K2 O14 2.811993 1_545
K2 O10 2.954615 1_556
K2 O4 2.954615 1_456
K2 O0 2.971457 1_555
K2 O0 2.971457 1_455
K2 O2 3.250750 1_556
K2 O9 3.262489 1_555
K2 O7 3.262489 1_555
K2 O6 3.276669 1_555
K2 O8 3.276669 1_555
K3 O15 2.811993 1_555
K3 O5 2.954615 1_555
K3 O11 2.954615 1_455
K3 O1 2.971457 1_455
K3 O1 2.971457 1_555
K3 O3 3.250750 1_565
K3 O6 3.262489 1_555
K3 O8 3.262489 1_555
K3 O9 3.276669 1_565
K3 O7 3.276669 1_565
Ba0 O7 2.735016 1_665
Ba0 O9 2.735016 1_565
Ba0 O0 2.759068 1_565
Ba0 O8 2.804875 1_655
Ba0 O6 2.804875 1_555
Ba0 O12 2.842268 1_566
Ba0 O1 2.857105 1_555
Ba0 O14 3.183965 1_555
Ba0 O14 3.183965 1_655
Ba1 O8 2.735016 1_655
Ba1 O6 2.735016 1_555
Ba1 O1 2.759068 1_555
Ba1 O7 2.804875 1_655
Ba1 O9 2.804875 1_555
Ba1 O13 2.842268 1_555
Ba1 O0 2.857105 1_555
Ba1 O15 3.183965 1_655
Ba1 O15 3.183965 1_555
Ba2 O5 2.735016 1_545
Ba2 O11 2.735016 1_445
Ba2 O2 2.759068 1_545
Ba2 O10 2.804875 1_555
Ba2 O4 2.804875 1_455
Ba2 O14 2.842268 1_544
Ba2 O3 2.857105 1_555
Ba2 O12 3.183965 1_555
Ba2 O12 3.183965 1_455
Ba3 O10 2.735016 1_555
Ba3 O4 2.735016 1_455
Ba3 O3 2.759068 1_555
Ba3 O5 2.804875 1_555
Ba3 O11 2.804875 1_455
Ba3 O15 2.842268 1_555
Ba3 O2 2.857105 1_555
Ba3 O13 3.183965 1_455
Ba3 O13 3.183965 1_555
Mn0 O12 1.715413 1_555
Mn0 O4 1.716382 1_555
Mn0 O10 1.716382 1_555
Mn0 O0 1.727089 1_554
Mn1 O13 1.715413 1_555
Mn1 O11 1.716382 1_555
Mn1 O5 1.716382 1_555
Mn1 O1 1.727089 1_555
Mn2 O14 1.715413 1_555
Mn2 O6 1.716382 1_555
Mn2 O8 1.716382 1_555
Mn2 O2 1.727089 1_556
Mn3 O15 1.715413 1_555
Mn3 O9 1.716382 1_555
Mn3 O7 1.716382 1_555
Mn3 O3 1.727089 1_555
