# generated using pymatgen
data_Mg14FeCuO16
_symmetry_space_group_name_H-M   'P 1'
_cell_length_a   8.53858852
_cell_length_b   8.56664449
_cell_length_c   4.24000573
_cell_angle_alpha   90.00000000
_cell_angle_beta   90.00000000
_cell_angle_gamma   90.00000000
_symmetry_Int_Tables_number   1
_chemical_formula_structural   Mg14FeCuO16
_chemical_formula_sum   'Mg14 Fe1 Cu1 O16'
_cell_volume   310.14392087
_cell_formula_units_Z   1
loop_
 _symmetry_equiv_pos_site_id
 _symmetry_equiv_pos_as_xyz
  1  'x, y, z'
loop_
 _atom_site_type_symbol
 _atom_site_label
 _atom_site_symmetry_multiplicity
 _atom_site_fract_x
 _atom_site_fract_y
 _atom_site_fract_z
 _atom_site_occupancy
  Mg  Mg0  1  0.50000000  0.00000000  0.00000000  1
  Mg  Mg1  1  0.50000000  0.50000000  0.00000000  1
  Mg  Mg2  1  0.00000000  0.25260464  0.50000000  1
  Mg  Mg3  1  0.00000000  0.74739536  0.50000000  1
  Mg  Mg4  1  0.50000000  0.25051662  0.50000000  1
  Mg  Mg5  1  0.50000000  0.74948338  0.50000000  1
  Mg  Mg6  1  0.25073407  0.00000000  0.50000000  1
  Mg  Mg7  1  0.24879751  0.50000000  0.50000000  1
  Mg  Mg8  1  0.74926593  0.00000000  0.50000000  1
  Mg  Mg9  1  0.75120249  0.50000000  0.50000000  1
  Mg  Mg10  1  0.25010371  0.25167627  0.00000000  1
  Mg  Mg11  1  0.25010371  0.74832373  0.00000000  1
  Mg  Mg12  1  0.74989629  0.25167627  0.00000000  1
  Mg  Mg13  1  0.74989629  0.74832373  0.00000000  1
  Fe  Fe0  1  0.00000000  0.00000000  0.00000000  1
  Cu  Cu0  1  0.00000000  0.50000000  0.00000000  1
  O  O0  1  0.25483551  0.00000000  0.00000000  1
  O  O1  1  0.25473237  0.50000000  0.00000000  1
  O  O2  1  0.74516449  0.00000000  0.00000000  1
  O  O3  1  0.74526763  0.50000000  0.00000000  1
  O  O4  1  0.24876017  0.25030988  0.50000000  1
  O  O5  1  0.24876017  0.74969012  0.50000000  1
  O  O6  1  0.75123983  0.25030988  0.50000000  1
  O  O7  1  0.75123983  0.74969012  0.50000000  1
  O  O8  1  0.00000000  0.00000000  0.50000000  1
  O  O9  1  0.00000000  0.50000000  0.50000000  1
  O  O10  1  0.50000000  0.00000000  0.50000000  1
  O  O11  1  0.50000000  0.50000000  0.50000000  1
  O  O12  1  0.00000000  0.23926975  0.00000000  1
  O  O13  1  0.00000000  0.76073025  0.00000000  1
  O  O14  1  0.50000000  0.24996102  0.00000000  1
  O  O15  1  0.50000000  0.75003898  0.00000000  1
loop_
_geom_bond_atom_site_label_1
_geom_bond_atom_site_label_2
_geom_bond_distance
_geom_bond_site_symmetry_2
Mg0 O2 2.093359 1_555
Mg0 O0 2.093359 1_555
Mg0 O10 2.120003 1_554
Mg0 O10 2.120003 1_555
Mg0 O15 2.141327 1_545
Mg0 O14 2.141327 1_555
Mg1 O3 2.094239 1_555
Mg1 O1 2.094239 1_555
Mg1 O11 2.120003 1_554
Mg1 O11 2.120003 1_555
Mg1 O14 2.141995 1_555
Mg1 O15 2.141995 1_555
Mg2 O9 2.119348 1_555
Mg2 O12 2.123078 1_556
Mg2 O12 2.123078 1_555
Mg2 O6 2.124152 1_455
Mg2 O4 2.124152 1_555
Mg2 O8 2.163974 1_555
Mg3 O9 2.119348 1_555
Mg3 O13 2.123078 1_556
Mg3 O13 2.123078 1_555
Mg3 O7 2.124152 1_455
Mg3 O5 2.124152 1_555
Mg3 O8 2.163974 1_565
Mg4 O14 2.120008 1_556
Mg4 O14 2.120008 1_555
Mg4 O11 2.137235 1_555
Mg4 O4 2.145234 1_555
Mg4 O6 2.145234 1_555
Mg4 O10 2.146087 1_555
Mg5 O15 2.120008 1_556
Mg5 O15 2.120008 1_555
Mg5 O11 2.137235 1_555
Mg5 O5 2.145234 1_555
Mg5 O7 2.145234 1_555
Mg5 O10 2.146087 1_565
Mg6 O0 2.120292 1_555
Mg6 O0 2.120292 1_556
Mg6 O10 2.128379 1_555
Mg6 O8 2.140915 1_555
Mg6 O5 2.144382 1_545
Mg6 O4 2.144382 1_555
Mg7 O1 2.120608 1_556
Mg7 O1 2.120608 1_555
Mg7 O9 2.124380 1_555
Mg7 O4 2.139007 1_555
Mg7 O5 2.139007 1_555
Mg7 O11 2.144915 1_555
Mg8 O2 2.120292 1_556
Mg8 O2 2.120292 1_555
Mg8 O10 2.128379 1_555
Mg8 O8 2.140915 1_655
Mg8 O6 2.144382 1_555
Mg8 O7 2.144382 1_545
Mg9 O3 2.120608 1_556
Mg9 O3 2.120608 1_555
Mg9 O9 2.124380 1_655
Mg9 O7 2.139007 1_555
Mg9 O6 2.139007 1_555
Mg9 O11 2.144915 1_555
Mg10 O4 2.120066 1_554
Mg10 O4 2.120066 1_555
Mg10 O1 2.127668 1_555
Mg10 O14 2.133812 1_555
Mg10 O12 2.138176 1_555
Mg10 O0 2.156400 1_555
Mg11 O5 2.120066 1_554
Mg11 O5 2.120066 1_555
Mg11 O1 2.127668 1_555
Mg11 O15 2.133812 1_555
Mg11 O13 2.138176 1_555
Mg11 O0 2.156400 1_565
Mg12 O6 2.120066 1_555
Mg12 O6 2.120066 1_554
Mg12 O3 2.127668 1_555
Mg12 O14 2.133812 1_555
Mg12 O12 2.138176 1_655
Mg12 O2 2.156400 1_555
Mg13 O7 2.120066 1_555
Mg13 O7 2.120066 1_554
Mg13 O3 2.127668 1_555
Mg13 O15 2.133812 1_555
Mg13 O13 2.138176 1_655
Mg13 O2 2.156400 1_565
Fe0 O13 2.049739 1_545
Fe0 O12 2.049739 1_555
Fe0 O8 2.120003 1_554
Fe0 O8 2.120003 1_555
Fe0 O0 2.175936 1_555
Fe0 O2 2.175936 1_455
Cu0 O9 2.120003 1_554
Cu0 O9 2.120003 1_555
Cu0 O1 2.175055 1_555
Cu0 O3 2.175055 1_455
Cu0 O12 2.233583 1_555
Cu0 O13 2.233583 1_555
