# generated using pymatgen
data_HoMgGa
_symmetry_space_group_name_H-M   'P 1'
_cell_length_a   7.19985714
_cell_length_b   7.19985714
_cell_length_c   4.40504686
_cell_angle_alpha   90.00000000
_cell_angle_beta   90.00000000
_cell_angle_gamma   120.00001007
_symmetry_Int_Tables_number   1
_chemical_formula_structural   HoMgGa
_chemical_formula_sum   'Ho3 Mg3 Ga3'
_cell_volume   197.75563994
_cell_formula_units_Z   3
loop_
 _symmetry_equiv_pos_site_id
 _symmetry_equiv_pos_as_xyz
  1  'x, y, z'
loop_
 _atom_site_type_symbol
 _atom_site_label
 _atom_site_symmetry_multiplicity
 _atom_site_fract_x
 _atom_site_fract_y
 _atom_site_fract_z
 _atom_site_occupancy
  Ho  Ho0  1  0.57392840  0.00000000  -0.00000000  1
  Ho  Ho1  1  0.00000000  0.57392840  0.00000000  1
  Ho  Ho2  1  0.42607160  0.42607160  0.00000000  1
  Mg  Mg0  1  0.24433432  0.00000000  0.50000000  1
  Mg  Mg1  1  0.00000000  0.24433432  0.50000000  1
  Mg  Mg2  1  0.75566568  0.75566568  0.50000000  1
  Ga  Ga0  1  0.33333300  0.66666700  0.50000000  1
  Ga  Ga1  1  0.66666700  0.33333300  0.50000000  1
  Ga  Ga2  1  -0.00000000  -0.00000000  -0.00000000  1
loop_
_geom_bond_atom_site_label_1
_geom_bond_atom_site_label_2
_geom_bond_distance
_geom_bond_site_symmetry_2
Ga0 Mg0 2.776363 1_565
Ga0 Mg1 2.776367 1_555
Ga0 Mg2 2.776370 1_555
Ga0 Ho1 3.074775 1_556
Ga0 Ho1 3.074775 1_555
Ga0 Ho0 3.074776 1_565
Ga0 Ho0 3.074776 1_566
Ga0 Ho2 3.074780 1_556
Ga0 Ho2 3.074780 1_555
Ga1 Mg1 2.776363 1_655
Ga1 Mg0 2.776367 1_555
Ga1 Mg2 2.776370 1_555
Ga1 Ho0 3.074775 1_556
Ga1 Ho0 3.074775 1_555
Ga1 Ho1 3.074776 1_655
Ga1 Ho1 3.074776 1_656
Ga1 Ho2 3.074780 1_556
Ga1 Ho2 3.074780 1_555
Ga2 Mg2 2.818829 1_444
Ga2 Mg2 2.818829 1_445
Ga2 Mg0 2.818829 1_554
Ga2 Mg1 2.818829 1_554
Ga2 Mg0 2.818829 1_555
Ga2 Mg1 2.818829 1_555
Ga2 Ho2 3.067654 1_555
Ga2 Ho0 3.067655 1_455
Ga2 Ho1 3.067655 1_545
