# generated using pymatgen
data_LaMg14Ga
_symmetry_space_group_name_H-M   'P 1'
_cell_length_a   6.54181914
_cell_length_b   6.54181858
_cell_length_c   10.37526190
_cell_angle_alpha   90.00000000
_cell_angle_beta   90.00000000
_cell_angle_gamma   120.00000281
_symmetry_Int_Tables_number   1
_chemical_formula_structural   LaMg14Ga
_chemical_formula_sum   'La1 Mg14 Ga1'
_cell_volume   384.52689139
_cell_formula_units_Z   1
loop_
 _symmetry_equiv_pos_site_id
 _symmetry_equiv_pos_as_xyz
  1  'x, y, z'
loop_
 _atom_site_type_symbol
 _atom_site_label
 _atom_site_symmetry_multiplicity
 _atom_site_fract_x
 _atom_site_fract_y
 _atom_site_fract_z
 _atom_site_occupancy
  La  La0  1  0.16666700  0.33333300  0.12500000  1
  Mg  Mg0  1  0.18124586  0.84062243  0.12500000  1
  Mg  Mg1  1  0.16101504  0.83050702  0.62500000  1
  Mg  Mg2  1  0.65937757  0.31875414  0.12500000  1
  Mg  Mg3  1  0.66949298  0.33898496  0.62500000  1
  Mg  Mg4  1  0.65937757  0.84062243  0.12500000  1
  Mg  Mg5  1  0.66949298  0.83050702  0.62500000  1
  Mg  Mg6  1  0.33394599  0.16605401  0.38608069  1
  Mg  Mg7  1  0.33394599  0.16605401  0.86391931  1
  Mg  Mg8  1  0.33394599  0.66789298  0.38608069  1
  Mg  Mg9  1  0.33394599  0.66789298  0.86391931  1
  Mg  Mg10  1  0.83210702  0.16605401  0.38608069  1
  Mg  Mg11  1  0.83210702  0.16605401  0.86391931  1
  Mg  Mg12  1  0.83333300  0.66666700  0.36461694  1
  Mg  Mg13  1  0.83333300  0.66666700  0.88538306  1
  Ga  Ga0  1  0.16666700  0.33333300  0.62500000  1
loop_
_geom_bond_atom_site_label_1
_geom_bond_atom_site_label_2
_geom_bond_distance
_geom_bond_site_symmetry_2
La0 Mg0 3.271952 1_555
La0 Mg4 3.271952 1_555
La0 Mg0 3.271952 1_545
La0 Mg4 3.271952 1_445
La0 Mg2 3.271952 1_555
La0 Mg2 3.271952 1_455
La0 Mg7 3.306059 1_554
La0 Mg6 3.306059 1_555
La0 Mg8 3.306066 1_555
La0 Mg9 3.306066 1_554
La0 Mg11 3.306066 1_454
La0 Mg10 3.306066 1_455
Mg0 Mg2 3.127851 1_565
Mg0 Mg4 3.127851 1_555
Mg0 Mg12 3.172650 1_455
Mg0 Mg13 3.172650 1_454
Mg0 Mg9 3.277339 1_554
Mg0 Mg8 3.277339 1_555
Mg0 Mg6 3.277345 1_565
Mg0 Mg7 3.277345 1_564
Mg0 Mg2 3.413968 1_455
Mg0 Mg4 3.413968 1_455
Mg1 Mg8 3.124036 1_555
Mg1 Mg9 3.124036 1_555
Mg1 Mg7 3.124043 1_565
Mg1 Mg6 3.124043 1_565
Mg1 Mg3 3.215448 1_455
Mg1 Mg5 3.215448 1_455
Mg1 Mg12 3.277913 1_455
Mg1 Mg13 3.277913 1_455
Mg1 Mg3 3.326370 1_565
Mg1 Mg5 3.326371 1_555
Mg2 Mg4 3.127851 1_545
Mg2 Mg7 3.277345 1_554
Mg2 Mg6 3.277345 1_555
Mg2 Mg4 3.413968 1_555
Mg3 Mg6 3.124043 1_555
Mg3 Mg7 3.124043 1_555
Mg3 Mg5 3.215448 1_555
Mg3 Mg5 3.326370 1_545
Mg4 Mg8 3.277345 1_555
Mg4 Mg9 3.277345 1_554
Mg5 Mg8 3.124043 1_555
Mg5 Mg9 3.124043 1_555
Mg6 Mg8 3.258879 1_545
Mg6 Mg8 3.282940 1_555
Mg7 Mg9 3.258879 1_545
Mg7 Mg9 3.282940 1_555
Mg10 Mg3 3.124036 1_555
Mg10 Mg5 3.124043 1_545
Mg10 Mg8 3.258879 1_545
Mg10 Mg6 3.258879 1_555
Mg10 Mg2 3.277339 1_555
Mg10 Mg4 3.277345 1_545
Mg10 Mg12 3.278489 1_555
Mg10 Mg12 3.278489 1_545
Mg10 Mg8 3.282940 1_655
Mg10 Mg6 3.282940 1_655
Mg11 Mg3 3.124036 1_555
Mg11 Mg5 3.124043 1_545
Mg11 Mg9 3.258879 1_545
Mg11 Mg7 3.258879 1_555
Mg11 Mg2 3.277339 1_556
Mg11 Mg4 3.277345 1_546
Mg11 Mg13 3.278489 1_555
Mg11 Mg13 3.278489 1_545
Mg11 Mg9 3.282940 1_655
Mg11 Mg7 3.282940 1_655
Mg12 Mg4 3.172643 1_555
Mg12 Mg2 3.172650 1_555
Mg12 Mg5 3.277907 1_555
Mg12 Mg3 3.277913 1_555
Mg12 Mg6 3.278489 1_555
Mg12 Mg6 3.278489 1_665
Mg12 Mg8 3.278489 1_555
Mg12 Mg8 3.278489 1_655
Mg13 Mg4 3.172643 1_556
Mg13 Mg2 3.172650 1_556
Mg13 Mg5 3.277907 1_555
Mg13 Mg3 3.277913 1_555
Mg13 Mg7 3.278489 1_555
Mg13 Mg7 3.278489 1_665
Mg13 Mg9 3.278489 1_555
Mg13 Mg9 3.278489 1_655
Ga0 Mg6 3.120454 1_555
Ga0 Mg7 3.120454 1_555
Ga0 Mg8 3.120461 1_555
Ga0 Mg9 3.120461 1_555
Ga0 Mg10 3.120461 1_455
Ga0 Mg11 3.120461 1_455
Ga0 Mg5 3.271066 1_445
Ga0 Mg1 3.271066 1_545
Ga0 Mg5 3.271066 1_555
Ga0 Mg1 3.271066 1_555
Ga0 Mg3 3.271066 1_455
Ga0 Mg3 3.271066 1_555
