# generated using pymatgen
data_Ba2Tl2Zn2Cr3O10
_symmetry_space_group_name_H-M   'P 1'
_cell_length_a   3.89008900
_cell_length_b   3.90188374
_cell_length_c   19.39741134
_cell_angle_alpha   89.87397551
_cell_angle_beta   88.93699591
_cell_angle_gamma   89.63599258
_symmetry_Int_Tables_number   1
_chemical_formula_structural   Ba2Tl2Zn2Cr3O10
_chemical_formula_sum   'Ba2 Tl2 Zn2 Cr3 O10'
_cell_volume   294.36975330
_cell_formula_units_Z   1
loop_
 _symmetry_equiv_pos_site_id
 _symmetry_equiv_pos_as_xyz
  1  'x, y, z'
loop_
 _atom_site_type_symbol
 _atom_site_label
 _atom_site_symmetry_multiplicity
 _atom_site_fract_x
 _atom_site_fract_y
 _atom_site_fract_z
 _atom_site_occupancy
  Ba  Ba0  1  0.20666000  0.80756100  0.70282800  1
  Ba  Ba1  1  0.84548100  0.15185400  0.29988300  1
  Tl  Tl0  1  0.74278100  0.25344900  0.55923700  1
  Tl  Tl1  1  0.27181600  0.71944600  0.44445200  1
  Zn  Zn0  1  0.87605700  0.13918500  0.11477200  1
  Zn  Zn1  1  0.18685600  0.80396000  0.88671300  1
  Cr  Cr0  1  0.36955100  0.64760300  0.18093900  1
  Cr  Cr1  1  0.70238000  0.30847000  0.81970400  1
  Cr  Cr2  1  0.37503900  0.28040400  0.99893100  1
  O  O0  1  0.87184600  0.65264300  0.16171400  1
  O  O1  1  0.35548500  0.64454700  0.27966400  1
  O  O2  1  0.37186900  0.14836000  0.15846200  1
  O  O3  1  0.78339000  0.32923800  0.43318500  1
  O  O4  1  0.35894800  0.77604300  0.98124100  1
  O  O5  1  0.71182800  0.80864800  0.83769500  1
  O  O6  1  0.70245200  0.31173500  0.72068200  1
  O  O7  1  0.20147000  0.30569100  0.84285700  1
  O  O8  1  0.21580000  0.65580900  0.56899100  1
  O  O9  1  0.86825200  0.26548200  0.01708900  1
loop_
_geom_bond_atom_site_label_1
_geom_bond_atom_site_label_2
_geom_bond_distance
_geom_bond_site_symmetry_2
Ba0 O8 2.663574 1_555
Ba0 O6 2.749007 1_555
Ba0 O6 2.780295 1_455
Ba0 O6 2.786725 1_465
Ba0 O6 2.790287 1_565
Ba1 O3 2.684377 1_555
Ba1 O1 2.731436 1_555
Ba1 O1 2.790066 1_545
Ba1 O1 2.793194 1_655
Ba1 O1 2.816522 1_645
Cr0 O1 1.914789 1_555
Cr0 O0 1.978452 1_455
Cr0 O0 1.982645 1_555
Cr0 O2 1.997047 1_555
Cr0 O2 2.001053 1_565
Cr1 O6 1.920780 1_555
Cr1 O5 1.980700 1_545
Cr1 O5 1.984038 1_555
Cr1 O7 1.991626 1_555
Cr1 O7 2.000830 1_655
Cr2 O9 1.957601 1_556
Cr2 O4 1.964197 1_555
Cr2 O9 1.997412 1_456
Cr2 O4 1.999964 1_545
O0 Zn0 2.103723 1_565
O0 Zn0 2.202330 1_555
O2 Zn0 2.121612 1_455
O2 Zn0 2.122239 1_555
O3 Tl1 2.455528 1_655
O3 Tl0 2.464531 1_555
O3 Tl1 2.504618 1_555
O4 Zn1 1.966178 1_555
O5 Zn1 2.093758 1_655
O5 Zn1 2.236801 1_555
O7 Zn1 2.123877 1_555
O7 Zn1 2.133490 1_545
O8 Tl1 2.433809 1_555
O8 Tl0 2.436683 1_455
O8 Tl0 2.578587 1_555
O9 Zn0 1.957515 1_555
