# generated using pymatgen
data_CaTbEuVO6
_symmetry_space_group_name_H-M   'P 1'
_cell_length_a   9.32688428
_cell_length_b   8.95835043
_cell_length_c   9.14099189
_cell_angle_alpha   90.00000000
_cell_angle_beta   90.00000000
_cell_angle_gamma   90.00000000
_symmetry_Int_Tables_number   1
_chemical_formula_structural   CaTbEuVO6
_chemical_formula_sum   'Ca4 Tb4 Eu4 V4 O24'
_cell_volume   763.76184577
_cell_formula_units_Z   4
loop_
 _symmetry_equiv_pos_site_id
 _symmetry_equiv_pos_as_xyz
  1  'x, y, z'
loop_
 _atom_site_type_symbol
 _atom_site_label
 _atom_site_symmetry_multiplicity
 _atom_site_fract_x
 _atom_site_fract_y
 _atom_site_fract_z
 _atom_site_occupancy
  Ca  Ca0  1  0.00000000  0.00000000  -0.00000000  1
  Ca  Ca1  1  0.50000000  0.50000000  0.50000000  1
  Ca  Ca2  1  0.50000000  -0.00000000  -0.00000000  1
  Ca  Ca3  1  0.00000000  0.00000000  0.50000000  1
  Tb  Tb0  1  0.74732883  0.75522509  0.74686786  1
  Tb  Tb1  1  0.25267117  0.24477491  0.74686786  1
  Tb  Tb2  1  0.25267117  0.75522509  0.25313214  1
  Tb  Tb3  1  0.74732883  0.24477491  0.25313214  1
  Eu  Eu0  1  0.00000000  0.50000000  0.50000000  1
  Eu  Eu1  1  0.50000000  -0.00000000  0.50000000  1
  Eu  Eu2  1  0.50000000  0.50000000  -0.00000000  1
  Eu  Eu3  1  0.00000000  0.50000000  -0.00000000  1
  V  V0  1  0.25115234  0.24690533  0.25193555  1
  V  V1  1  0.74884766  0.75309467  0.25193555  1
  V  V2  1  0.74884766  0.24690533  0.74806445  1
  V  V3  1  0.25115234  0.75309467  0.74806445  1
  O  O0  1  0.01947896  0.20913124  0.28524162  1
  O  O1  1  0.98052104  0.79086876  0.28524162  1
  O  O2  1  0.98052104  0.20913124  0.71475838  1
  O  O3  1  0.01947896  0.79086876  0.71475838  1
  O  O4  1  0.28582388  0.01931781  0.20881512  1
  O  O5  1  0.28582388  0.98068219  0.79118488  1
  O  O6  1  0.71417612  0.98068219  0.20881512  1
  O  O7  1  0.71417612  0.01931781  0.79118488  1
  O  O8  1  0.20866263  0.28523900  0.01930354  1
  O  O9  1  0.79133737  0.28523900  0.98069646  1
  O  O10  1  0.20866263  0.71476100  0.98069646  1
  O  O11  1  0.79133737  0.71476100  0.01930354  1
  O  O12  1  0.48046983  0.29045849  0.21578689  1
  O  O13  1  0.51953017  0.70954151  0.21578689  1
  O  O14  1  0.51953017  0.29045849  0.78421311  1
  O  O15  1  0.48046983  0.70954151  0.78421311  1
  O  O16  1  0.21534510  0.48099994  0.29023991  1
  O  O17  1  0.21534510  0.51900006  0.70976009  1
  O  O18  1  0.78465490  0.51900006  0.29023991  1
  O  O19  1  0.78465490  0.48099994  0.70976009  1
  O  O20  1  0.29198921  0.21467261  0.48041704  1
  O  O21  1  0.70801079  0.21467261  0.51958296  1
  O  O22  1  0.29198921  0.78532739  0.51958296  1
  O  O23  1  0.70801079  0.78532739  0.48041704  1
loop_
_geom_bond_atom_site_label_1
_geom_bond_atom_site_label_2
_geom_bond_distance
_geom_bond_site_symmetry_2
Ca2 O6 2.768351 1_545
Ca2 O7 2.768351 1_554
Ca2 O4 2.768351 1_555
Ca2 O5 2.768351 1_544
Ca3 O0 2.719684 1_555
Ca3 O2 2.719684 1_455
Ca3 O1 2.719684 1_445
Ca3 O3 2.719684 1_545
Eu0 O19 2.781999 1_455
Eu0 O16 2.781999 1_555
Eu0 O17 2.781999 1_555
Eu0 O18 2.781999 1_455
Eu0 O1 3.267489 1_455
Eu0 O3 3.267489 1_555
Eu0 O0 3.267489 1_555
Eu0 O2 3.267489 1_455
Eu1 O20 2.737584 1_555
Eu1 O21 2.737584 1_555
Eu1 O23 2.737584 1_545
Eu1 O22 2.737584 1_545
Eu2 O15 2.729036 1_554
Eu2 O14 2.729036 1_554
Eu2 O12 2.729036 1_555
Eu2 O13 2.729036 1_555
Eu3 O11 2.742286 1_455
Eu3 O10 2.742286 1_554
Eu3 O9 2.742286 1_454
Eu3 O8 2.742286 1_555
O0 V0 2.208216 1_555
O0 Tb3 2.575100 1_455
O1 V1 2.208216 1_555
O1 Tb2 2.575100 1_655
O2 V2 2.208216 1_555
O2 Tb1 2.575100 1_655
O3 V3 2.208216 1_555
O3 Tb0 2.575100 1_455
O4 V0 2.101590 1_555
O4 Tb2 2.420102 1_545
O5 V3 2.101590 1_555
O5 Tb1 2.420102 1_565
O6 V1 2.101590 1_555
O6 Tb3 2.420102 1_565
O7 V2 2.101590 1_555
O7 Tb0 2.420102 1_545
O8 V0 2.190189 1_555
O8 Tb1 2.549830 1_554
O9 V2 2.190189 1_555
O9 Tb3 2.549830 1_556
O10 V3 2.190189 1_555
O10 Tb2 2.549830 1_556
O11 V1 2.190189 1_555
O11 Tb0 2.549830 1_554
O12 V0 2.199081 1_555
O12 Tb3 2.545380 1_555
O13 V1 2.199081 1_555
O13 Tb2 2.545380 1_555
O14 V2 2.199081 1_555
O14 Tb1 2.545380 1_555
O15 V3 2.199081 1_555
O15 Tb0 2.545380 1_555
O16 V0 2.152201 1_555
O16 Tb2 2.504229 1_555
O17 V3 2.152201 1_555
O17 Tb1 2.504229 1_555
O18 V1 2.152201 1_555
O18 Tb3 2.504229 1_555
O19 V2 2.152201 1_555
O19 Tb0 2.504229 1_555
O20 V0 2.142540 1_555
O20 Tb1 2.477795 1_555
O21 V2 2.142540 1_555
O21 Tb3 2.477795 1_555
O22 V3 2.142540 1_555
O22 Tb2 2.477795 1_555
O23 V1 2.142540 1_555
O23 Tb0 2.477795 1_555
