# generated using pymatgen
data_Tb2MgSe4
_symmetry_space_group_name_H-M   'P 1'
_cell_length_a   13.28663523
_cell_length_b   7.93759743
_cell_length_c   13.48762048
_cell_angle_alpha   90.00000000
_cell_angle_beta   90.00000000
_cell_angle_gamma   90.00000000
_symmetry_Int_Tables_number   1
_chemical_formula_structural   Tb2MgSe4
_chemical_formula_sum   'Tb16 Mg8 Se32'
_cell_volume   1422.45788912
_cell_formula_units_Z   8
loop_
 _symmetry_equiv_pos_site_id
 _symmetry_equiv_pos_as_xyz
  1  'x, y, z'
loop_
 _atom_site_type_symbol
 _atom_site_label
 _atom_site_symmetry_multiplicity
 _atom_site_fract_x
 _atom_site_fract_y
 _atom_site_fract_z
 _atom_site_occupancy
  Tb  Tb0  1  0.10776322  0.88240273  0.68587713  1
  Tb  Tb1  1  0.89223678  0.11759727  0.18587713  1
  Tb  Tb2  1  0.39223678  0.88240273  0.18587713  1
  Tb  Tb3  1  0.60776322  0.11759727  0.68587713  1
  Tb  Tb4  1  0.12771772  0.38095608  0.32634745  1
  Tb  Tb5  1  0.87228228  0.61904392  0.82634745  1
  Tb  Tb6  1  0.37228228  0.38095608  0.82634745  1
  Tb  Tb7  1  0.62771772  0.61904392  0.32634745  1
  Tb  Tb8  1  0.13321299  0.62836707  0.99079171  1
  Tb  Tb9  1  0.86678701  0.37163293  0.49079171  1
  Tb  Tb10  1  0.36678701  0.62836707  0.49079171  1
  Tb  Tb11  1  0.63321299  0.37163293  0.99079171  1
  Tb  Tb12  1  0.13334264  0.12873942  0.99145697  1
  Tb  Tb13  1  0.86665736  0.87126058  0.49145697  1
  Tb  Tb14  1  0.36665736  0.12873942  0.49145697  1
  Tb  Tb15  1  0.63334264  0.87126058  0.99145697  1
  Mg  Mg0  1  0.11083082  0.38165563  0.69076559  1
  Mg  Mg1  1  0.88916918  0.61834437  0.19076559  1
  Mg  Mg2  1  0.38916918  0.38165563  0.19076559  1
  Mg  Mg3  1  0.61083082  0.61834437  0.69076559  1
  Mg  Mg4  1  0.12646384  0.87811231  0.32079923  1
  Mg  Mg5  1  0.87353616  0.12188769  0.82079923  1
  Mg  Mg6  1  0.37353616  0.87811231  0.82079923  1
  Mg  Mg7  1  0.62646384  0.12188769  0.32079923  1
  Se  Se0  1  0.01262723  0.87769728  0.87817050  1
  Se  Se1  1  0.98737277  0.12230272  0.37817050  1
  Se  Se2  1  0.48737277  0.87769728  0.37817050  1
  Se  Se3  1  0.51262723  0.12230272  0.87817050  1
  Se  Se4  1  0.03390857  0.37747574  0.12977321  1
  Se  Se5  1  0.96609143  0.62252426  0.62977321  1
  Se  Se6  1  0.46609143  0.37747574  0.62977321  1
  Se  Se7  1  0.53390857  0.62252426  0.12977321  1
  Se  Se8  1  0.02157807  0.37251938  0.86852503  1
  Se  Se9  1  0.97842193  0.62748062  0.36852503  1
  Se  Se10  1  0.47842193  0.37251938  0.36852503  1
  Se  Se11  1  0.52157807  0.62748062  0.86852503  1
  Se  Se12  1  0.04264072  0.87218799  0.13667745  1
  Se  Se13  1  0.95735928  0.12781201  0.63667745  1
  Se  Se14  1  0.45735928  0.87218799  0.63667745  1
  Se  Se15  1  0.54264072  0.12781201  0.13667745  1
  Se  Se16  1  0.21127843  0.87929324  0.50235163  1
  Se  Se17  1  0.78872157  0.12070676  0.00235163  1
  Se  Se18  1  0.28872157  0.87929324  0.00235163  1
  Se  Se19  1  0.71127843  0.12070676  0.50235163  1
  Se  Se20  1  0.21195988  0.37958795  0.51951058  1
  Se  Se21  1  0.78804012  0.62041205  0.01951058  1
  Se  Se22  1  0.28804012  0.37958795  0.01951058  1
  Se  Se23  1  0.71195988  0.62041205  0.51951058  1
  Se  Se24  1  0.23166639  0.12761206  0.77751075  1
  Se  Se25  1  0.76833361  0.87238794  0.27751075  1
  Se  Se26  1  0.26833361  0.12761206  0.27751075  1
  Se  Se27  1  0.73166639  0.87238794  0.77751075  1
  Se  Se28  1  0.23035069  0.63158282  0.77844378  1
  Se  Se29  1  0.76964931  0.36841718  0.27844378  1
  Se  Se30  1  0.26964931  0.63158282  0.27844378  1
  Se  Se31  1  0.73035069  0.36841718  0.77844378  1
loop_
_geom_bond_atom_site_label_1
_geom_bond_atom_site_label_2
_geom_bond_distance
_geom_bond_site_symmetry_2
Mg0 Se20 2.672262 1_555
Mg0 Se8 2.675780 1_555
Mg0 Se28 2.802823 1_555
Mg0 Se24 2.830679 1_555
Mg0 Se5 2.833811 1_455
Mg0 Se13 2.958051 1_455
Mg1 Se21 2.672262 1_555
Mg1 Se9 2.675780 1_555
Mg1 Se29 2.802823 1_555
Mg1 Se25 2.830679 1_555
Mg1 Se4 2.833811 1_655
Mg1 Se12 2.958051 1_655
Mg2 Se22 2.672262 1_555
Mg2 Se10 2.675780 1_555
Mg2 Se30 2.802823 1_555
Mg2 Se26 2.830679 1_555
Mg2 Se7 2.833811 1_555
Mg2 Se15 2.958051 1_555
Mg3 Se23 2.672262 1_555
Mg3 Se11 2.675780 1_555
Mg3 Se31 2.802823 1_555
Mg3 Se27 2.830679 1_555
Mg3 Se6 2.833811 1_555
Mg3 Se14 2.958051 1_555
Mg4 Se16 2.695584 1_555
Mg4 Se12 2.722076 1_555
Mg4 Se1 2.787654 1_465
Mg4 Se30 2.788360 1_555
Mg4 Se26 2.795730 1_565
Mg4 Se9 2.870737 1_455
Mg5 Se17 2.695584 1_556
Mg5 Se13 2.722076 1_555
Mg5 Se0 2.787654 1_645
Mg5 Se31 2.788360 1_555
Mg5 Se27 2.795730 1_545
Mg5 Se8 2.870737 1_655
Mg6 Se18 2.695584 1_556
Mg6 Se14 2.722076 1_555
Mg6 Se3 2.787654 1_565
Mg6 Se28 2.788360 1_555
Mg6 Se24 2.795730 1_565
Mg6 Se11 2.870737 1_555
Mg7 Se19 2.695584 1_555
Mg7 Se15 2.722076 1_555
Mg7 Se2 2.787654 1_545
Mg7 Se29 2.788360 1_555
Mg7 Se25 2.795730 1_545
Mg7 Se10 2.870737 1_555
Se0 Tb5 2.860223 1_455
Se0 Tb0 2.885454 1_555
Se0 Tb8 2.964976 1_555
Se0 Tb12 2.979583 1_565
Se1 Tb4 2.860223 1_655
Se1 Tb1 2.885454 1_555
Se1 Tb9 2.964976 1_555
Se1 Tb13 2.979583 1_545
Se2 Tb7 2.860223 1_555
Se2 Tb2 2.885454 1_555
Se2 Tb10 2.964976 1_555
Se2 Tb14 2.979583 1_565
Se3 Tb6 2.860223 1_555
Se3 Tb3 2.885454 1_555
Se3 Tb11 2.964976 1_555
Se3 Tb15 2.979583 1_545
Se4 Tb1 2.893269 1_455
Se4 Tb4 2.929810 1_555
Se4 Tb12 3.020572 1_554
Se4 Tb8 3.036561 1_554
Se5 Tb0 2.893269 1_655
Se5 Tb5 2.929810 1_555
Se5 Tb13 3.020572 1_555
Se5 Tb9 3.036561 1_555
Se6 Tb3 2.893269 1_555
Se6 Tb6 2.929810 1_555
Se6 Tb14 3.020572 1_555
Se6 Tb10 3.036561 1_555
Se7 Tb2 2.893269 1_555
Se7 Tb7 2.929810 1_555
Se7 Tb15 3.020572 1_554
Se7 Tb11 3.036561 1_554
Se8 Tb5 2.843863 1_455
Se8 Tb12 2.949346 1_555
Se8 Tb8 3.007281 1_555
Se9 Tb4 2.843863 1_655
Se9 Tb13 2.949346 1_555
Se9 Tb9 3.007281 1_555
Se10 Tb7 2.843863 1_555
Se10 Tb14 2.949346 1_555
Se10 Tb10 3.007281 1_555
Se11 Tb6 2.843863 1_555
Se11 Tb15 2.949346 1_555
Se11 Tb11 3.007281 1_555
Se12 Tb1 2.868510 1_465
Se12 Tb8 3.010883 1_554
Se12 Tb12 3.071755 1_564
Se13 Tb0 2.868510 1_645
Se13 Tb9 3.010883 1_555
Se13 Tb13 3.071755 1_545
Se14 Tb3 2.868510 1_565
Se14 Tb10 3.010883 1_555
Se14 Tb14 3.071755 1_565
Se15 Tb2 2.868510 1_545
Se15 Tb11 3.010883 1_554
Se15 Tb15 3.071755 1_544
Se16 Tb0 2.831867 1_555
Se16 Tb14 2.864265 1_565
Se16 Tb10 2.874109 1_555
Se17 Tb1 2.831867 1_555
Se17 Tb15 2.864265 1_544
Se17 Tb11 2.874109 1_554
Se18 Tb2 2.831867 1_555
Se18 Tb12 2.864265 1_564
Se18 Tb8 2.874109 1_554
Se19 Tb3 2.831867 1_555
Se19 Tb13 2.864265 1_545
Se19 Tb9 2.874109 1_555
Se20 Tb4 2.835592 1_555
Se20 Tb10 2.877725 1_555
Se20 Tb14 2.886606 1_555
Se21 Tb5 2.835592 1_554
Se21 Tb11 2.877725 1_554
Se21 Tb15 2.886606 1_554
Se22 Tb6 2.835592 1_554
Se22 Tb8 2.877725 1_554
Se22 Tb12 2.886606 1_554
Se23 Tb7 2.835592 1_555
Se23 Tb9 2.877725 1_555
Se23 Tb13 2.886606 1_555
Se24 Tb6 2.822827 1_555
Se24 Tb0 2.833024 1_545
Se24 Tb12 3.167582 1_555
Se25 Tb7 2.822827 1_555
Se25 Tb1 2.833024 1_565
Se25 Tb13 3.167582 1_555
Se26 Tb4 2.822827 1_555
Se26 Tb2 2.833024 1_545
Se26 Tb14 3.167582 1_555
Se27 Tb5 2.822827 1_555
Se27 Tb3 2.833024 1_565
Se27 Tb15 3.167582 1_555
Se28 Tb6 2.816253 1_555
Se28 Tb0 2.859263 1_555
Se28 Tb8 3.141540 1_555
Se29 Tb7 2.816253 1_555
Se29 Tb1 2.859263 1_555
Se29 Tb9 3.141540 1_555
Se30 Tb4 2.816253 1_555
Se30 Tb2 2.859263 1_555
Se30 Tb10 3.141540 1_555
Se31 Tb5 2.816253 1_555
Se31 Tb3 2.859263 1_555
Se31 Tb11 3.141540 1_555
