# generated using pymatgen
data_CeSbPd
_symmetry_space_group_name_H-M   'P 1'
_cell_length_a   4.60572339
_cell_length_b   4.60572339
_cell_length_c   8.15566628
_cell_angle_alpha   90.00000000
_cell_angle_beta   90.00000000
_cell_angle_gamma   119.99999722
_symmetry_Int_Tables_number   1
_chemical_formula_structural   CeSbPd
_chemical_formula_sum   'Ce2 Sb2 Pd2'
_cell_volume   149.82551980
_cell_formula_units_Z   2
loop_
 _symmetry_equiv_pos_site_id
 _symmetry_equiv_pos_as_xyz
  1  'x, y, z'
loop_
 _atom_site_type_symbol
 _atom_site_label
 _atom_site_symmetry_multiplicity
 _atom_site_fract_x
 _atom_site_fract_y
 _atom_site_fract_z
 _atom_site_occupancy
  Ce  Ce0  1  0.00000000  -0.00000000  0.50000000  1
  Ce  Ce1  1  0.00000000  -0.00000000  0.00000000  1
  Sb  Sb0  1  0.33333300  0.66666700  0.74994346  1
  Sb  Sb1  1  0.66666700  0.33333300  0.25005654  1
  Pd  Pd0  1  0.33333300  0.66666700  0.25066991  1
  Pd  Pd1  1  0.66666700  0.33333300  0.74933009  1
loop_
_geom_bond_atom_site_label_1
_geom_bond_atom_site_label_2
_geom_bond_distance
_geom_bond_site_symmetry_2
Ce0 Pd0 3.347508 1_545
Ce0 Pd1 3.347508 1_455
Ce0 Pd0 3.347512 1_445
Ce0 Pd0 3.347512 1_555
Ce0 Pd1 3.347512 1_445
Ce0 Pd1 3.347512 1_555
Ce0 Sb0 3.350550 1_545
Ce0 Sb1 3.350550 1_455
Ce0 Sb0 3.350553 1_445
Ce0 Sb1 3.350553 1_445
Ce0 Sb0 3.350553 1_555
Ce0 Sb1 3.350553 1_555
Ce1 Sb0 3.351111 1_544
Ce1 Sb1 3.351111 1_455
Ce1 Sb1 3.351114 1_555
Ce1 Sb0 3.351114 1_444
Ce1 Sb1 3.351114 1_445
Ce1 Sb0 3.351114 1_554
Ce1 Pd1 3.354157 1_454
Ce1 Pd0 3.354157 1_545
Ce1 Pd0 3.354161 1_445
Ce1 Pd1 3.354161 1_444
Ce1 Pd1 3.354161 1_554
Ce1 Pd0 3.354161 1_555
Pd0 Sb1 2.659118 1_455
Pd0 Sb1 2.659118 1_565
Pd0 Sb1 2.659126 1_555
Pd1 Sb0 2.659118 1_545
Pd1 Sb0 2.659118 1_655
Pd1 Sb0 2.659126 1_555
