# generated using pymatgen
data_Ti2Co3Si
_symmetry_space_group_name_H-M   'P 1'
_cell_length_a   4.78665605
_cell_length_b   4.78664552
_cell_length_c   7.29476929
_cell_angle_alpha   89.99995628
_cell_angle_beta   89.99999998
_cell_angle_gamma   120.00007053
_symmetry_Int_Tables_number   1
_chemical_formula_structural   Ti2Co3Si
_chemical_formula_sum   'Ti4 Co6 Si2'
_cell_volume   144.74560046
_cell_formula_units_Z   2
loop_
 _symmetry_equiv_pos_site_id
 _symmetry_equiv_pos_as_xyz
  1  'x, y, z'
loop_
 _atom_site_type_symbol
 _atom_site_label
 _atom_site_symmetry_multiplicity
 _atom_site_fract_x
 _atom_site_fract_y
 _atom_site_fract_z
 _atom_site_occupancy
  Ti  Ti0  1  0.33333443  0.66666787  0.93889429  1
  Ti  Ti1  1  0.66666660  0.33333321  0.06113930  1
  Ti  Ti2  1  0.66666696  0.33333291  0.43884110  1
  Ti  Ti3  1  0.33333436  0.66666772  0.56112449  1
  Co  Co0  1  0.82908473  0.17091502  0.75001028  1
  Co  Co1  1  0.82908561  0.65817121  0.75000944  1
  Co  Co2  1  0.34183129  0.17091502  0.75001028  1
  Co  Co3  1  0.17091575  0.82908473  0.24999031  1
  Co  Co4  1  0.17091516  0.34183032  0.24999039  1
  Co  Co5  1  0.65816998  0.82908473  0.24999031  1
  Si  Si0  1  0.99999809  0.99999819  1.00001752  1
  Si  Si1  1  0.99999804  0.99999809  0.49998231  1
loop_
_geom_bond_atom_site_label_1
_geom_bond_atom_site_label_2
_geom_bond_distance
_geom_bond_site_symmetry_2
Ti0 Ti3 2.755744 1_555
Ti0 Ti1 2.903878 1_566
Ti0 Ti1 2.903888 1_556
Ti0 Ti1 2.903892 1_456
Ti1 Ti2 2.755247 1_555
Ti2 Ti3 2.903961 1_545
Ti2 Ti3 2.903977 1_555
Ti2 Ti3 2.903977 1_655
Co0 Si0 2.309537 1_545
Co0 Si1 2.309658 1_545
Co0 Co2 2.332315 1_555
Co0 Co1 2.332321 1_555
Co0 Co1 2.454325 1_545
Co0 Co2 2.454341 1_655
Co0 Ti1 2.639013 1_556
Co0 Ti2 2.639262 1_555
Co0 Ti0 2.761831 1_545
Co0 Ti3 2.761840 1_545
Co0 Ti0 2.761844 1_655
Co0 Ti3 2.761848 1_655
Co1 Si0 2.309533 1_555
Co1 Si1 2.309641 1_555
Co1 Co2 2.332318 1_555
Co1 Co2 2.454327 1_665
Co1 Ti1 2.639018 1_556
Co1 Ti2 2.639263 1_555
Co1 Ti0 2.761843 1_555
Co1 Ti3 2.761844 1_555
Co1 Ti0 2.761847 1_655
Co1 Ti3 2.761848 1_655
Co2 Si0 2.309545 1_445
Co2 Si1 2.309665 1_445
Co2 Ti1 2.639011 1_556
Co2 Ti2 2.639262 1_555
Co2 Ti0 2.761831 1_545
Co2 Ti3 2.761840 1_545
Co2 Ti0 2.761844 1_555
Co2 Ti3 2.761848 1_555
Co3 Si0 2.309341 1_454
Co3 Si1 2.309453 1_455
Co3 Co4 2.332313 1_555
Co3 Co5 2.332318 1_555
Co3 Co4 2.454333 1_565
Co3 Co5 2.454338 1_455
Co3 Ti0 2.638804 1_554
Co3 Ti3 2.639043 1_555
Co3 Ti1 2.761715 1_565
Co3 Ti2 2.761716 1_565
Co3 Ti2 2.761717 1_455
Co3 Ti1 2.761720 1_455
Co4 Si0 2.309344 1_444
Co4 Si1 2.309452 1_445
Co4 Co5 2.332315 1_555
Co4 Co5 2.454330 1_445
Co4 Ti0 2.638806 1_554
Co4 Ti3 2.639046 1_555
Co4 Ti2 2.761719 1_455
Co4 Ti1 2.761722 1_555
Co4 Ti1 2.761722 1_455
Co4 Ti2 2.761723 1_555
Co5 Si0 2.309333 1_554
Co5 Si1 2.309445 1_555
Co5 Ti0 2.638804 1_554
Co5 Ti3 2.639043 1_555
Co5 Ti2 2.761716 1_565
Co5 Ti2 2.761717 1_555
Co5 Ti1 2.761717 1_565
Co5 Ti1 2.761718 1_555
Si0 Ti1 2.799299 1_556
Si0 Ti0 2.799302 1_555
Si0 Ti1 2.799311 1_566
Si0 Ti0 2.799314 1_655
Si0 Ti0 2.799320 1_665
Si0 Ti1 2.799320 1_666
Si1 Ti2 2.799323 1_555
Si1 Ti3 2.799323 1_555
Si1 Ti2 2.799331 1_565
Si1 Ti3 2.799335 1_655
Si1 Ti3 2.799342 1_665
Si1 Ti2 2.799344 1_665
