# generated using pymatgen
data_Sm3(P3Pd10)2
_symmetry_space_group_name_H-M   'P 1'
_cell_length_a   8.66048628
_cell_length_b   8.66049316
_cell_length_c   8.66050026
_cell_angle_alpha   59.99998331
_cell_angle_beta   59.99996432
_cell_angle_gamma   59.99991203
_symmetry_Int_Tables_number   1
_chemical_formula_structural   Sm3(P3Pd10)2
_chemical_formula_sum   'Sm3 P6 Pd20'
_cell_volume   459.31689598
_cell_formula_units_Z   1
loop_
 _symmetry_equiv_pos_site_id
 _symmetry_equiv_pos_as_xyz
  1  'x, y, z'
loop_
 _atom_site_type_symbol
 _atom_site_label
 _atom_site_symmetry_multiplicity
 _atom_site_fract_x
 _atom_site_fract_y
 _atom_site_fract_z
 _atom_site_occupancy
  Sm  Sm0  1  0.25000145  0.24999762  0.24999995  1
  Sm  Sm1  1  0.74999964  0.75000230  0.74999910  1
  Sm  Sm2  1  -0.00000000  0.99999975  0.00000028  1
  P  P0  1  0.73738395  0.26261612  0.26261597  1
  P  P1  1  0.26261588  0.73738479  0.73738385  1
  P  P2  1  0.26261602  0.73738391  0.26261584  1
  P  P3  1  0.73738424  0.26261606  0.73738409  1
  P  P4  1  0.26261629  0.26261571  0.73738357  1
  P  P5  1  0.73738377  0.73738481  0.26261526  1
  Pd  Pd0  1  0.38547013  0.38547163  0.38547108  1
  Pd  Pd1  1  0.61452623  0.61452760  0.61453095  1
  Pd  Pd2  1  0.38546643  0.38547268  0.84358693  1
  Pd  Pd3  1  0.38546947  0.84358561  0.38547047  1
  Pd  Pd4  1  0.61452850  0.61452787  0.15641173  1
  Pd  Pd5  1  0.61452705  0.15641682  0.61452767  1
  Pd  Pd6  1  0.84358789  0.38547254  0.38546501  1
  Pd  Pd7  1  0.15641426  0.61452679  0.61452814  1
  Pd  Pd8  1  0.34663078  0.99999977  0.00000350  1
  Pd  Pd9  1  0.65336388  0.99999848  0.00000104  1
  Pd  Pd10  1  0.00000275  0.34663352  0.65336782  1
  Pd  Pd11  1  0.00000226  0.65337104  0.34663147  1
  Pd  Pd12  1  0.00000389  0.34662910  0.00000217  1
  Pd  Pd13  1  0.65336920  0.00000066  0.34663385  1
  Pd  Pd14  1  0.00000032  0.65336549  -0.00000029  1
  Pd  Pd15  1  0.34663447  0.00000031  0.65336958  1
  Pd  Pd16  1  0.00000292  0.99999871  0.34663057  1
  Pd  Pd17  1  0.00000107  0.99999691  0.65336535  1
  Pd  Pd18  1  0.65336616  0.34663248  0.00000401  1
  Pd  Pd19  1  0.34663211  0.65336992  0.00000205  1
loop_
_geom_bond_atom_site_label_1
_geom_bond_atom_site_label_2
_geom_bond_distance
_geom_bond_site_symmetry_2
P0 Pd18 2.387916 1_555
P0 Pd13 2.387923 1_555
P0 Pd12 2.387946 1_655
P0 Pd16 2.387952 1_645
P0 Pd6 2.489837 1_555
P0 Pd4 2.489851 1_555
P0 Pd5 2.489855 1_555
P0 Pd0 2.489864 1_555
P0 Sm2 3.216464 1_645
P1 Pd17 2.387925 1_555
P1 Pd14 2.387944 1_556
P1 Pd15 2.387954 1_565
P1 Pd19 2.387963 1_556
P1 Pd1 2.489839 1_555
P1 Pd2 2.489854 1_555
P1 Pd3 2.489867 1_555
P1 Pd7 2.489880 1_555
P1 Sm2 3.216460 1_556
P2 Pd11 2.387903 1_555
P2 Pd19 2.387911 1_555
P2 Pd16 2.387918 1_555
P2 Pd8 2.387925 1_555
P2 Pd3 2.489840 1_555
P2 Pd4 2.489854 1_555
P2 Pd0 2.489855 1_555
P2 Pd7 2.489859 1_555
P2 Sm2 3.216461 1_555
P3 Pd9 2.387962 1_546
P3 Pd17 2.387962 1_645
P3 Pd10 2.387966 1_655
P3 Pd18 2.387969 1_556
P3 Pd1 2.489850 1_555
P3 Pd5 2.489863 1_555
P3 Pd2 2.489892 1_555
P3 Pd6 2.489907 1_555
P3 Sm2 3.216463 1_646
P4 Pd10 2.387911 1_555
P4 Pd15 2.387917 1_555
P4 Pd12 2.387935 1_556
P4 Pd8 2.387956 1_546
P4 Pd5 2.489843 1_555
P4 Pd2 2.489845 1_555
P4 Pd7 2.489847 1_555
P4 Pd0 2.489860 1_555
P4 Sm2 3.216466 1_546
P5 Pd9 2.387933 1_555
P5 Pd14 2.387946 1_655
P5 Pd13 2.387956 1_565
P5 Pd11 2.387965 1_655
P5 Pd6 2.489855 1_555
P5 Pd3 2.489868 1_555
P5 Pd4 2.489882 1_555
P5 Pd1 2.489883 1_555
P5 Sm2 3.216459 1_655
Pd0 Sm0 2.873860 1_555
Pd0 Pd10 3.039361 1_555
Pd0 Pd18 3.039363 1_555
Pd0 Pd11 3.039369 1_555
Pd0 Pd19 3.039378 1_555
Pd0 Pd13 3.039385 1_555
Pd0 Pd15 3.039386 1_555
Pd1 Sm1 2.873877 1_555
Pd1 Pd15 3.039390 1_565
Pd1 Pd19 3.039395 1_556
Pd1 Pd18 3.039405 1_556
Pd1 Pd10 3.039413 1_655
Pd1 Pd13 3.039414 1_565
Pd1 Pd11 3.039435 1_655
Pd2 Sm0 2.873855 1_556
Pd2 Pd8 3.039388 1_546
Pd2 Pd9 3.039404 1_546
Pd3 Sm0 2.873844 1_565
Pd3 Pd8 3.039357 1_555
Pd3 Pd9 3.039373 1_555
Pd4 Sm1 2.873852 1_554
Pd4 Pd9 3.039376 1_555
Pd4 Pd8 3.039381 1_555
Pd5 Sm1 2.873862 1_545
Pd5 Pd9 3.039396 1_546
Pd5 Pd8 3.039418 1_546
Pd6 Sm0 2.873852 1_655
Pd7 Sm1 2.873860 1_455
Pd8 Pd9 2.656442 1_555
Pd8 Sm2 3.002005 1_555
Pd8 Sm0 3.337594 1_565
Pd8 Sm1 3.337632 1_554
Pd9 Sm2 3.002040 1_655
Pd9 Sm0 3.337595 1_565
Pd9 Sm1 3.337600 1_554
Pd10 Pd11 2.656494 1_555
Pd10 Pd15 3.002003 1_555
Pd10 Pd12 3.002013 1_556
Pd10 Sm2 3.002014 1_546
Pd10 Pd18 3.002041 1_456
Pd10 Pd17 3.002062 1_545
Pd10 Pd7 3.039347 1_555
Pd10 Pd6 3.039451 1_455
Pd10 Sm1 3.337626 1_455
Pd10 Sm0 3.337641 1_555
Pd11 Pd16 3.001966 1_555
Pd11 Pd19 3.001982 1_555
Pd11 Sm2 3.001987 1_555
Pd11 Pd13 3.001993 1_465
Pd11 Pd14 3.002037 1_555
Pd11 Pd7 3.039360 1_555
Pd11 Pd6 3.039435 1_455
Pd11 Sm1 3.337621 1_455
Pd11 Sm0 3.337661 1_555
Pd12 Pd14 2.656462 1_555
Pd12 Pd8 3.001965 1_545
Pd12 Pd16 3.001982 1_545
Pd12 Sm2 3.002006 1_545
Pd12 Pd18 3.002029 1_455
Pd12 Pd2 3.039333 1_554
Pd12 Pd6 3.039339 1_455
Pd12 Pd7 3.039400 1_554
Pd12 Pd4 3.039402 1_455
Pd12 Sm0 3.337593 1_555
Pd12 Sm1 3.337669 1_454
Pd13 Pd15 2.656477 1_555
Pd13 Pd16 3.001994 1_645
Pd13 Pd18 3.001994 1_555
Pd13 Sm2 3.002004 1_645
Pd13 Pd9 3.002046 1_545
Pd13 Pd5 3.039374 1_555
Pd13 Pd3 3.039435 1_545
Pd13 Sm1 3.337601 1_545
Pd13 Sm0 3.337627 1_555
Pd14 Pd17 3.002012 1_554
Pd14 Pd9 3.002022 1_455
Pd14 Sm2 3.002025 1_555
Pd14 Pd19 3.002029 1_555
Pd14 Pd2 3.039348 1_554
Pd14 Pd6 3.039350 1_455
Pd14 Pd4 3.039390 1_455
Pd14 Pd7 3.039394 1_554
Pd14 Sm1 3.337619 1_454
Pd14 Sm0 3.337628 1_555
Pd15 Pd19 3.002000 1_546
Pd15 Pd8 3.002005 1_546
Pd15 Sm2 3.002008 1_546
Pd15 Pd17 3.002047 1_545
Pd15 Pd5 3.039365 1_555
Pd15 Pd3 3.039437 1_545
Pd15 Sm1 3.337591 1_545
Pd15 Sm0 3.337643 1_555
Pd16 Pd17 2.656461 1_555
Pd16 Pd8 3.001963 1_555
Pd16 Sm2 3.002000 1_555
Pd16 Pd3 3.039353 1_555
Pd16 Pd7 3.039391 1_555
Pd16 Pd6 3.039391 1_465
Pd16 Pd5 3.039420 1_465
Pd16 Sm0 3.337611 1_565
Pd16 Sm1 3.337627 1_455
Pd17 Sm2 3.002040 1_556
Pd17 Pd9 3.002041 1_456
Pd17 Pd3 3.039363 1_555
Pd17 Pd7 3.039374 1_555
Pd17 Pd5 3.039396 1_465
Pd17 Pd6 3.039421 1_465
Pd17 Sm1 3.337590 1_455
Pd17 Sm0 3.337622 1_565
Pd18 Pd19 2.656478 1_555
Pd18 Sm2 3.002010 1_645
Pd18 Pd9 3.002044 1_545
Pd18 Pd4 3.039348 1_555
Pd18 Pd2 3.039434 1_554
Pd18 Sm0 3.337610 1_555
Pd18 Sm1 3.337645 1_554
Pd19 Pd8 3.001986 1_555
Pd19 Sm2 3.001990 1_555
Pd19 Pd4 3.039349 1_555
Pd19 Pd2 3.039427 1_554
Pd19 Sm1 3.337621 1_554
Pd19 Sm0 3.337652 1_555
