# generated using pymatgen
data_In2Bi
_symmetry_space_group_name_H-M   'P 1'
_cell_length_a   10.96433966
_cell_length_b   10.96433966
_cell_length_c   6.70784764
_cell_angle_alpha   90.00000000
_cell_angle_beta   90.00000000
_cell_angle_gamma   119.99999671
_symmetry_Int_Tables_number   1
_chemical_formula_structural   In2Bi
_chemical_formula_sum   'In16 Bi8'
_cell_volume   698.35910087
_cell_formula_units_Z   8
loop_
 _symmetry_equiv_pos_site_id
 _symmetry_equiv_pos_as_xyz
  1  'x, y, z'
loop_
 _atom_site_type_symbol
 _atom_site_label
 _atom_site_symmetry_multiplicity
 _atom_site_fract_x
 _atom_site_fract_y
 _atom_site_fract_z
 _atom_site_occupancy
  In  In0_0  1  0.00000000  0.00000000  0.25000000  1
  In  In0_1  1  0.00000000  0.00000000  0.75000000  1
  In  In0_2  1  0.00000000  0.50000000  0.25000000  1
  In  In0_3  1  0.00000000  0.50000000  0.75000000  1
  In  In0_4  1  0.50000000  0.00000000  0.25000000  1
  In  In0_5  1  0.50000000  0.00000000  0.75000000  1
  In  In0_6  1  0.50000000  0.50000000  0.25000000  1
  In  In0_7  1  0.50000000  0.50000000  0.75000000  1
  In  In1_0  1  0.16666650  0.33333350  0.00000000  1
  In  In1_1  1  0.16666650  0.33333350  0.50000000  1
  In  In1_2  1  0.16666650  0.83333350  0.00000000  1
  In  In1_3  1  0.16666650  0.83333350  0.50000000  1
  In  In1_4  1  0.66666650  0.33333350  0.00000000  1
  In  In1_5  1  0.66666650  0.33333350  0.50000000  1
  In  In1_6  1  0.66666650  0.83333350  0.00000000  1
  In  In1_7  1  0.66666650  0.83333350  0.50000000  1
  Bi  Bi0_0  1  0.33333350  0.16666650  0.25000000  1
  Bi  Bi0_1  1  0.33333350  0.16666650  0.75000000  1
  Bi  Bi0_2  1  0.33333350  0.66666650  0.25000000  1
  Bi  Bi0_3  1  0.33333350  0.66666650  0.75000000  1
  Bi  Bi0_4  1  0.83333350  0.16666650  0.25000000  1
  Bi  Bi0_5  1  0.83333350  0.16666650  0.75000000  1
  Bi  Bi0_6  1  0.83333350  0.66666650  0.25000000  1
  Bi  Bi0_7  1  0.83333350  0.66666650  0.75000000  1
loop_
_geom_bond_atom_site_label_1
_geom_bond_atom_site_label_2
_geom_bond_distance
_geom_bond_site_symmetry_2
In1_0 In1_1 3.353924 1_555
In1_0 In1_1 3.353924 1_554
In1_2 In1_3 3.353924 1_555
In1_2 In1_3 3.353924 1_554
In1_4 In1_5 3.353924 1_555
In1_4 In1_5 3.353924 1_554
In1_6 In1_7 3.353924 1_555
In1_6 In1_7 3.353924 1_554
Bi0_0 In0_4 3.165129 1_555
Bi0_0 In0_0 3.165134 1_555
Bi0_0 In0_6 3.165134 1_555
Bi0_0 Bi0_1 3.353924 1_555
Bi0_0 Bi0_1 3.353924 1_554
Bi0_0 In1_2 3.581933 1_545
Bi0_0 In1_5 3.581933 1_555
Bi0_0 In1_3 3.581933 1_545
Bi0_0 In1_4 3.581933 1_555
Bi0_0 In1_0 3.581941 1_555
Bi0_0 In1_1 3.581941 1_555
Bi0_1 In0_5 3.165129 1_555
Bi0_1 In0_1 3.165134 1_555
Bi0_1 In0_7 3.165134 1_555
Bi0_1 In1_3 3.581933 1_545
Bi0_1 In1_5 3.581933 1_555
Bi0_1 In1_2 3.581933 1_546
Bi0_1 In1_4 3.581933 1_556
Bi0_1 In1_1 3.581941 1_555
Bi0_1 In1_0 3.581941 1_556
Bi0_2 In0_6 3.165129 1_555
Bi0_2 In0_4 3.165134 1_565
Bi0_2 In0_2 3.165134 1_555
Bi0_2 Bi0_3 3.353924 1_555
Bi0_2 Bi0_3 3.353924 1_554
Bi0_2 In1_0 3.581933 1_555
Bi0_2 In1_1 3.581933 1_555
Bi0_2 In1_7 3.581933 1_555
Bi0_2 In1_6 3.581933 1_555
Bi0_2 In1_2 3.581941 1_555
Bi0_2 In1_3 3.581941 1_555
Bi0_3 In0_7 3.165129 1_555
Bi0_3 In0_5 3.165134 1_565
Bi0_3 In0_3 3.165134 1_555
Bi0_3 In1_1 3.581933 1_555
Bi0_3 In1_7 3.581933 1_555
Bi0_3 In1_0 3.581933 1_556
Bi0_3 In1_6 3.581933 1_556
Bi0_3 In1_3 3.581941 1_555
Bi0_3 In1_2 3.581941 1_556
Bi0_4 In0_0 3.165129 1_655
Bi0_4 In0_4 3.165134 1_555
Bi0_4 In0_2 3.165134 1_655
Bi0_4 Bi0_5 3.353924 1_555
Bi0_4 Bi0_5 3.353924 1_554
Bi0_4 In1_6 3.581933 1_545
Bi0_4 In1_7 3.581933 1_545
Bi0_4 In1_0 3.581933 1_655
Bi0_4 In1_1 3.581933 1_655
Bi0_4 In1_4 3.581941 1_555
Bi0_4 In1_5 3.581941 1_555
Bi0_5 In0_1 3.165129 1_655
Bi0_5 In0_5 3.165134 1_555
Bi0_5 In0_3 3.165134 1_655
Bi0_5 In1_7 3.581933 1_545
Bi0_5 In1_1 3.581933 1_655
Bi0_5 In1_6 3.581933 1_546
Bi0_5 In1_0 3.581933 1_656
Bi0_5 In1_5 3.581941 1_555
Bi0_5 In1_4 3.581941 1_556
Bi0_6 In0_2 3.165129 1_655
Bi0_6 In0_0 3.165134 1_665
Bi0_6 In0_6 3.165134 1_555
Bi0_6 Bi0_7 3.353924 1_555
Bi0_6 Bi0_7 3.353924 1_554
Bi0_6 In1_4 3.581933 1_555
Bi0_6 In1_5 3.581933 1_555
Bi0_6 In1_3 3.581933 1_655
Bi0_6 In1_2 3.581933 1_655
Bi0_6 In1_6 3.581941 1_555
Bi0_6 In1_7 3.581941 1_555
Bi0_7 In0_3 3.165129 1_655
Bi0_7 In0_1 3.165134 1_665
Bi0_7 In0_7 3.165134 1_555
Bi0_7 In1_5 3.581933 1_555
Bi0_7 In1_3 3.581933 1_655
Bi0_7 In1_4 3.581933 1_556
Bi0_7 In1_2 3.581933 1_656
Bi0_7 In1_7 3.581941 1_555
Bi0_7 In1_6 3.581941 1_556
