# generated using pymatgen
data_Na3YN6
_symmetry_space_group_name_H-M   'P 1'
_cell_length_a   12.03860268
_cell_length_b   11.51507015
_cell_length_c   6.22305386
_cell_angle_alpha   79.38707333
_cell_angle_beta   70.07674832
_cell_angle_gamma   30.53617835
_symmetry_Int_Tables_number   1
_chemical_formula_structural   Na3YN6
_chemical_formula_sum   'Na6 Y2 N12'
_cell_volume   401.13791755
_cell_formula_units_Z   2
loop_
 _symmetry_equiv_pos_site_id
 _symmetry_equiv_pos_as_xyz
  1  'x, y, z'
loop_
 _atom_site_type_symbol
 _atom_site_label
 _atom_site_symmetry_multiplicity
 _atom_site_fract_x
 _atom_site_fract_y
 _atom_site_fract_z
 _atom_site_occupancy
  Na  Na0  1  0.50000000  0.50000000  0.50000000  1
  Na  Na1  1  0.75000000  0.75000000  0.75000000  1
  Na  Na2  1  0.83466500  0.83466500  0.16533500  1
  Na  Na3  1  0.16533500  0.16533500  0.83466500  1
  Na  Na4  1  0.41533500  0.41533500  0.08466500  1
  Na  Na5  1  0.08466500  0.08466500  0.41533500  1
  Y  Y0  1  0.00000000  0.00000000  0.00000000  1
  Y  Y1  1  0.25000000  0.25000000  0.25000000  1
  N  N0  1  0.23471300  0.76528700  0.23471300  1
  N  N1  1  0.76528700  0.23471300  0.76528700  1
  N  N2  1  0.01528700  0.48471300  0.01528700  1
  N  N3  1  0.48471300  0.01528700  0.48471300  1
  N  N4  1  0.86757300  0.28277000  0.16034600  1
  N  N5  1  0.68931000  0.16034600  0.28277000  1
  N  N6  1  0.16034600  0.68931000  0.86757300  1
  N  N7  1  0.28277000  0.86757300  0.68931000  1
  N  N8  1  0.38242700  0.96723000  0.08965400  1
  N  N9  1  0.56069000  0.08965400  0.96723000  1
  N  N10  1  0.08965400  0.56069000  0.38242700  1
  N  N11  1  0.96723000  0.38242700  0.56069000  1
loop_
_geom_bond_atom_site_label_1
_geom_bond_atom_site_label_2
_geom_bond_distance
_geom_bond_site_symmetry_2
N0 Y0 2.371821 1_565
N0 Na5 2.597454 1_565
N0 Na4 2.597454 1_555
N0 Na0 2.680778 1_555
N1 Y0 2.371821 1_656
N1 Na5 2.597454 1_655
N1 Na4 2.597454 1_556
N1 Na0 2.680778 1_555
N2 Y1 2.371821 1_555
N2 Na2 2.597454 1_455
N2 Na3 2.597454 1_554
N2 Na1 2.680778 1_454
N3 Y1 2.371821 1_555
N3 Na2 2.597454 1_545
N3 Na3 2.597454 1_555
N3 Na1 2.680778 1_545
N4 Y0 2.304357 1_655
N4 Na5 2.403144 1_655
N4 Na3 2.548310 1_654
N4 Na0 2.609891 1_555
N5 Y0 2.304365 1_655
N5 Na4 2.403138 1_555
N5 Na2 2.548301 1_545
N5 Na0 2.609898 1_555
N6 Y0 2.304367 1_566
N6 Na4 2.403142 1_556
N6 Na2 2.548304 1_456
N6 Na0 2.609895 1_555
N7 Y0 2.304360 1_566
N7 Na5 2.403138 1_565
N7 Na3 2.548312 1_565
N7 Na0 2.609889 1_555
N8 Y1 2.304357 1_565
N8 Na3 2.403144 1_564
N8 Na5 2.548310 1_565
N8 Na1 2.609891 1_554
N9 Y1 2.304365 1_556
N9 Na2 2.403138 1_546
N9 Na4 2.548301 1_556
N9 Na1 2.609898 1_545
N10 Y1 2.304367 1_555
N10 Na2 2.403142 1_455
N10 Na4 2.548304 1_555
N10 Na1 2.609895 1_455
N11 Y1 2.304360 1_655
N11 Na3 2.403138 1_655
N11 Na5 2.548312 1_655
N11 Na1 2.609889 1_555
