# generated using pymatgen
data_Al2FeNi
_symmetry_space_group_name_H-M   'P 1'
_cell_length_a   2.87093017
_cell_length_b   2.87093017
_cell_length_c   5.59517546
_cell_angle_alpha   90.00000000
_cell_angle_beta   90.00000000
_cell_angle_gamma   90.00000000
_symmetry_Int_Tables_number   1
_chemical_formula_structural   Al2FeNi
_chemical_formula_sum   'Al2 Fe1 Ni1'
_cell_volume   46.11677921
_cell_formula_units_Z   1
loop_
 _symmetry_equiv_pos_site_id
 _symmetry_equiv_pos_as_xyz
  1  'x, y, z'
loop_
 _atom_site_type_symbol
 _atom_site_label
 _atom_site_symmetry_multiplicity
 _atom_site_fract_x
 _atom_site_fract_y
 _atom_site_fract_z
 _atom_site_occupancy
  Al  Al0  1  -0.00000000  0.00000000  0.73984942  1
  Al  Al1  1  -0.00000000  0.00000000  0.26015058  1
  Fe  Fe0  1  0.50000000  0.50000000  0.50000000  1
  Ni  Ni0  1  0.50000000  0.50000000  -0.00000000  1
loop_
_geom_bond_atom_site_label_1
_geom_bond_atom_site_label_2
_geom_bond_distance
_geom_bond_site_symmetry_2
Al0 Fe0 2.433533 1_545
Al0 Fe0 2.433533 1_455
Al0 Fe0 2.433533 1_555
Al0 Fe0 2.433533 1_445
Al0 Ni0 2.497971 1_456
Al0 Ni0 2.497971 1_556
Al0 Ni0 2.497971 1_546
Al0 Ni0 2.497971 1_446
Al1 Fe0 2.433533 1_545
Al1 Fe0 2.433533 1_455
Al1 Fe0 2.433533 1_555
Al1 Fe0 2.433533 1_445
Al1 Ni0 2.497971 1_455
Al1 Ni0 2.497971 1_545
Al1 Ni0 2.497971 1_555
Al1 Ni0 2.497971 1_445
