# generated using pymatgen
data_Sr2CaCu2(BiO4)2
_symmetry_space_group_name_H-M   'P 1'
_cell_length_a   16.11398919
_cell_length_b   16.11398919
_cell_length_c   5.41711500
_cell_angle_alpha   90.00000000
_cell_angle_beta   90.00000000
_cell_angle_gamma   160.44549941
_symmetry_Int_Tables_number   1
_chemical_formula_structural   Sr2CaCu2(BiO4)2
_chemical_formula_sum   'Sr4 Ca2 Cu4 Bi4 O16'
_cell_volume   470.79762861
_cell_formula_units_Z   2
loop_
 _symmetry_equiv_pos_site_id
 _symmetry_equiv_pos_as_xyz
  1  'x, y, z'
loop_
 _atom_site_type_symbol
 _atom_site_label
 _atom_site_symmetry_multiplicity
 _atom_site_fract_x
 _atom_site_fract_y
 _atom_site_fract_z
 _atom_site_occupancy
  Sr  Sr0  1  0.60699000  0.89545300  0.49433200  1
  Sr  Sr1  1  0.39301000  0.10454700  0.49433200  1
  Sr  Sr2  1  0.89545300  0.60699000  0.99433200  1
  Sr  Sr3  1  0.10454700  0.39301000  0.99433200  1
  Ca  Ca0  1  0.00000000  0.50000000  0.99874500  1
  Ca  Ca1  1  0.50000000  0.00000000  0.49874500  1
  Cu  Cu0  1  0.54872500  0.95110600  0.99755200  1
  Cu  Cu1  1  0.45127500  0.04889400  0.99755200  1
  Cu  Cu2  1  0.95110600  0.54872500  0.49755200  1
  Cu  Cu3  1  0.04889400  0.45127500  0.49755200  1
  Bi  Bi0  1  0.77478700  0.67180200  0.44109100  1
  Bi  Bi1  1  0.22521300  0.32819800  0.44109100  1
  Bi  Bi2  1  0.32819800  0.22521300  0.94109100  1
  Bi  Bi3  1  0.67180200  0.77478700  0.94109100  1
  O  O0  1  0.12535500  0.35645900  0.48394700  1
  O  O1  1  0.87464500  0.64354100  0.48394700  1
  O  O2  1  0.35645900  0.12535500  0.98394700  1
  O  O3  1  0.64354100  0.87464500  0.98394700  1
  O  O4  1  0.19906500  0.80098100  0.74736300  1
  O  O5  1  0.80093500  0.19901900  0.74736300  1
  O  O6  1  0.80098100  0.19906500  0.24736300  1
  O  O7  1  0.19901900  0.80093500  0.24736300  1
  O  O8  1  0.71843900  0.61161200  0.03670200  1
  O  O9  1  0.28156100  0.38838800  0.03670200  1
  O  O10  1  0.61161200  0.71843900  0.53670200  1
  O  O11  1  0.38838800  0.28156100  0.53670200  1
  O  O12  1  0.69867000  0.30094900  0.24764100  1
  O  O13  1  0.30133000  0.69905100  0.24764100  1
  O  O14  1  0.30094900  0.69867000  0.74764100  1
  O  O15  1  0.69905100  0.30133000  0.74764100  1
loop_
_geom_bond_atom_site_label_1
_geom_bond_atom_site_label_2
_geom_bond_distance
_geom_bond_site_symmetry_2
Ca0 O6 2.510941 1_456
Ca0 O7 2.510941 1_556
Ca0 O12 2.516103 1_456
Ca0 O13 2.516103 1_556
Ca0 O4 2.519141 1_555
Ca0 O5 2.519141 1_455
Ca0 O14 2.521402 1_555
Ca0 O15 2.521402 1_455
Ca1 O4 2.510941 1_545
Ca1 O5 2.510941 1_555
Ca1 O14 2.516103 1_545
Ca1 O15 2.516103 1_555
Ca1 O6 2.519141 1_555
Ca1 O7 2.519141 1_545
Ca1 O12 2.521402 1_555
Ca1 O13 2.521402 1_545
Cu0 O13 1.925818 1_556
Cu0 O6 1.926033 1_566
Cu0 O14 1.926621 1_555
Cu0 O5 1.927294 1_565
Cu0 O3 2.721330 1_555
Cu1 O12 1.925818 1_556
Cu1 O7 1.926033 1_546
Cu1 O15 1.926621 1_555
Cu1 O4 1.927294 1_545
Cu1 O2 2.721330 1_555
Cu2 O15 1.925818 1_555
Cu2 O4 1.926033 1_655
Cu2 O12 1.926621 1_555
Cu2 O7 1.927294 1_655
Cu2 O1 2.721330 1_555
Cu3 O14 1.925818 1_555
Cu3 O5 1.926033 1_455
Cu3 O13 1.926621 1_555
Cu3 O6 1.927294 1_455
Cu3 O0 2.721330 1_555
Bi0 O1 2.057076 1_555
Bi0 O11 2.188289 1_555
Bi0 O8 2.214553 1_555
Bi1 O0 2.057076 1_555
Bi1 O10 2.188289 1_555
Bi1 O9 2.214553 1_555
Bi2 O2 2.057076 1_555
Bi2 O8 2.188289 1_556
Bi2 O11 2.214553 1_555
Bi3 O3 2.057076 1_555
Bi3 O9 2.188289 1_556
Bi3 O10 2.214553 1_555
O0 Sr3 2.804678 1_554
O0 Sr0 2.831116 1_445
O0 Sr3 2.911308 1_555
O0 Sr0 2.938216 1_555
O1 Sr2 2.804678 1_554
O1 Sr1 2.831116 1_665
O1 Sr2 2.911308 1_555
O1 Sr1 2.938216 1_555
O2 Sr1 2.804678 1_555
O2 Sr2 2.831116 1_445
O2 Sr1 2.911308 1_556
O2 Sr2 2.938216 1_555
O3 Sr0 2.804678 1_555
O3 Sr3 2.831116 1_665
O3 Sr0 2.911308 1_556
O3 Sr3 2.938216 1_555
O4 Sr2 2.583466 1_455
O4 Sr1 2.600492 1_565
O5 Sr3 2.583466 1_655
O5 Sr0 2.600492 1_545
O6 Sr0 2.583466 1_545
O6 Sr3 2.600492 1_654
O7 Sr1 2.583466 1_565
O7 Sr2 2.600492 1_454
O8 Sr2 2.931690 1_554
O9 Sr3 2.931690 1_554
O10 Sr0 2.931690 1_555
O11 Sr1 2.931690 1_555
O12 Sr1 2.585268 1_555
O12 Sr2 2.605082 1_554
O13 Sr0 2.585268 1_555
O13 Sr3 2.605082 1_554
O14 Sr3 2.585268 1_555
O14 Sr0 2.605082 1_555
O15 Sr2 2.585268 1_555
O15 Sr1 2.605082 1_555
