# generated using pymatgen
data_PrYAl4
_symmetry_space_group_name_H-M   'P 1'
_cell_length_a   5.62734789
_cell_length_b   5.62734933
_cell_length_c   5.62734789
_cell_angle_alpha   60.00000008
_cell_angle_beta   60.00000000
_cell_angle_gamma   60.00000008
_symmetry_Int_Tables_number   1
_chemical_formula_structural   PrYAl4
_chemical_formula_sum   'Pr1 Y1 Al4'
_cell_volume   126.00750340
_cell_formula_units_Z   1
loop_
 _symmetry_equiv_pos_site_id
 _symmetry_equiv_pos_as_xyz
  1  'x, y, z'
loop_
 _atom_site_type_symbol
 _atom_site_label
 _atom_site_symmetry_multiplicity
 _atom_site_fract_x
 _atom_site_fract_y
 _atom_site_fract_z
 _atom_site_occupancy
  Pr  Pr0  1  0.25000000  0.25000000  0.25000000  1
  Y  Y0  1  0.00000000  -0.00000000  -0.00000000  1
  Al  Al0  1  0.62506805  0.62506805  0.12479585  1
  Al  Al1  1  0.62506805  0.12479585  0.62506805  1
  Al  Al2  1  0.12479585  0.62506805  0.62506805  1
  Al  Al3  1  0.62506805  0.62506805  0.62506805  1
loop_
_geom_bond_atom_site_label_1
_geom_bond_atom_site_label_2
_geom_bond_distance
_geom_bond_site_symmetry_2
Pr0 Y0 3.446033 1_556
Pr0 Y0 3.446033 1_655
Pr0 Y0 3.446033 1_555
Pr0 Y0 3.446034 1_565
Al0 Al3 2.812142 1_554
Al0 Al2 2.812142 1_654
Al0 Al1 2.812143 1_564
Al0 Al3 2.815206 1_555
Al0 Al2 2.815206 1_555
Al0 Al1 2.815206 1_555
Al0 Y0 3.299162 1_565
Al0 Y0 3.299162 1_665
Al0 Y0 3.299163 1_655
Al0 Pr0 3.299489 1_655
Al0 Pr0 3.299489 1_555
Al0 Pr0 3.299489 1_565
Al1 Al2 2.812143 1_645
Al1 Al3 2.812143 1_545
Al1 Al2 2.815206 1_555
Al1 Al3 2.815206 1_555
Al1 Y0 3.299162 1_656
Al1 Y0 3.299162 1_556
Al1 Y0 3.299162 1_655
Al1 Pr0 3.299488 1_555
Al1 Pr0 3.299489 1_556
Al1 Pr0 3.299489 1_655
Al2 Al3 2.812142 1_455
Al2 Al3 2.815206 1_555
Al2 Y0 3.299162 1_565
Al2 Y0 3.299162 1_566
Al2 Y0 3.299163 1_556
Al2 Pr0 3.299489 1_556
Al2 Pr0 3.299489 1_555
Al2 Pr0 3.299489 1_565
Al3 Y0 3.299162 1_665
Al3 Y0 3.299162 1_566
Al3 Y0 3.299162 1_656
Al3 Pr0 3.299489 1_655
Al3 Pr0 3.299489 1_556
Al3 Pr0 3.299489 1_565
