# generated using pymatgen
data_NbGeRh
_symmetry_space_group_name_H-M   'P 1'
_cell_length_a   3.84308842
_cell_length_b   6.49037519
_cell_length_c   7.44921027
_cell_angle_alpha   90.00000000
_cell_angle_beta   90.00000000
_cell_angle_gamma   90.00000000
_symmetry_Int_Tables_number   1
_chemical_formula_structural   NbGeRh
_chemical_formula_sum   'Nb4 Ge4 Rh4'
_cell_volume   185.80629042
_cell_formula_units_Z   4
loop_
 _symmetry_equiv_pos_site_id
 _symmetry_equiv_pos_as_xyz
  1  'x, y, z'
loop_
 _atom_site_type_symbol
 _atom_site_label
 _atom_site_symmetry_multiplicity
 _atom_site_fract_x
 _atom_site_fract_y
 _atom_site_fract_z
 _atom_site_occupancy
  Nb  Nb0  1  0.75000000  0.52754275  0.17808740  1
  Nb  Nb1  1  0.75000000  0.02754275  0.32191260  1
  Nb  Nb2  1  0.25000000  0.47245725  0.82191260  1
  Nb  Nb3  1  0.25000000  0.97245725  0.67808740  1
  Ge  Ge0  1  0.75000000  0.76142643  0.87584936  1
  Ge  Ge1  1  0.75000000  0.26142643  0.62415064  1
  Ge  Ge2  1  0.25000000  0.23857357  0.12415064  1
  Ge  Ge3  1  0.25000000  0.73857357  0.37584936  1
  Rh  Rh0  1  0.75000000  0.14292285  0.93822920  1
  Rh  Rh1  1  0.75000000  0.64292285  0.56177080  1
  Rh  Rh2  1  0.25000000  0.85707715  0.06177080  1
  Rh  Rh3  1  0.25000000  0.35707715  0.43822920  1
loop_
_geom_bond_atom_site_label_1
_geom_bond_atom_site_label_2
_geom_bond_distance
_geom_bond_site_symmetry_2
Nb0 Rh3 2.944773 1_655
Nb0 Rh3 2.944773 1_555
Nb0 Rh1 2.954614 1_555
Nb0 Rh2 3.002927 1_555
Nb0 Rh2 3.002927 1_655
Nb0 Rh0 3.069876 1_554
Nb1 Rh2 2.944773 1_645
Nb1 Rh2 2.944773 1_545
Nb1 Rh0 2.954614 1_554
Nb1 Rh3 3.002927 1_555
Nb1 Rh3 3.002927 1_655
Nb1 Rh1 3.069876 1_545
Nb2 Rh1 2.944773 1_555
Nb2 Rh1 2.944773 1_455
Nb2 Rh3 2.954614 1_555
Nb2 Rh0 3.002927 1_455
Nb2 Rh0 3.002927 1_555
Nb2 Rh2 3.069876 1_556
Nb3 Rh0 2.944773 1_565
Nb3 Rh0 2.944773 1_465
Nb3 Rh2 2.954614 1_556
Nb3 Rh1 3.002927 1_555
Nb3 Rh1 3.002927 1_455
Nb3 Rh3 3.069876 1_565
Ge0 Rh2 2.448647 1_556
Ge0 Rh2 2.448647 1_656
Ge0 Rh1 2.462817 1_555
Ge0 Rh0 2.519281 1_565
Ge0 Nb2 2.715020 1_555
Ge0 Nb2 2.715020 1_655
Ge0 Nb0 2.715375 1_556
Ge0 Nb3 2.781826 1_655
Ge0 Nb3 2.781826 1_555
Ge1 Rh3 2.448647 1_655
Ge1 Rh3 2.448647 1_555
Ge1 Rh0 2.462817 1_555
Ge1 Rh1 2.519281 1_555
Ge1 Nb3 2.715020 1_545
Ge1 Nb3 2.715020 1_645
Ge1 Nb1 2.715375 1_555
Ge1 Nb2 2.781826 1_555
Ge1 Nb2 2.781826 1_655
Ge2 Rh0 2.448647 1_454
Ge2 Rh0 2.448647 1_554
Ge2 Rh3 2.462817 1_555
Ge2 Rh2 2.519281 1_545
Ge2 Nb0 2.715020 1_455
Ge2 Nb0 2.715020 1_555
Ge2 Nb2 2.715375 1_554
Ge2 Nb1 2.781826 1_455
Ge2 Nb1 2.781826 1_555
Ge3 Rh1 2.448647 1_555
Ge3 Rh1 2.448647 1_455
Ge3 Rh2 2.462817 1_555
Ge3 Rh3 2.519281 1_555
Ge3 Nb1 2.715020 1_565
Ge3 Nb1 2.715020 1_465
Ge3 Nb3 2.715375 1_555
Ge3 Nb0 2.781826 1_455
Ge3 Nb0 2.781826 1_555
Rh0 Rh2 2.825101 1_546
Rh0 Rh2 2.825101 1_646
Rh1 Rh3 2.825101 1_655
Rh1 Rh3 2.825101 1_555
