# generated using pymatgen
data_Co2(CN2)3
_symmetry_space_group_name_H-M   'P 1'
_cell_length_a   9.62890847
_cell_length_b   5.27748411
_cell_length_c   27.40228824
_cell_angle_alpha   89.99993250
_cell_angle_beta   161.55235758
_cell_angle_gamma   74.09510302
_symmetry_Int_Tables_number   1
_chemical_formula_structural   Co2(CN2)3
_chemical_formula_sum   'Co4 C6 N12'
_cell_volume   220.31951260
_cell_formula_units_Z   2
loop_
 _symmetry_equiv_pos_site_id
 _symmetry_equiv_pos_as_xyz
  1  'x, y, z'
loop_
 _atom_site_type_symbol
 _atom_site_label
 _atom_site_symmetry_multiplicity
 _atom_site_fract_x
 _atom_site_fract_y
 _atom_site_fract_z
 _atom_site_occupancy
  Co  Co0  1  0.00004465  0.99997218  0.16487416  1
  Co  Co1  1  0.99996463  0.00002488  0.66484711  1
  Co  Co2  1  0.99995651  0.00002669  0.83514563  1
  Co  Co3  1  0.00003650  0.99997524  0.33517032  1
  C  C0  1  0.96443170  0.67851568  0.07148559  1
  C  C1  1  -0.00000423  0.67853072  0.75000499  1
  C  C2  1  0.03557050  0.64296060  0.42853031  1
  C  C3  1  0.96439253  0.35706222  0.57147410  1
  C  C4  1  0.03559708  0.32148004  0.92854058  1
  C  C5  1  0.00000916  0.32145517  0.25001358  1
  N  N0  1  0.87174178  0.75587091  0.08495529  1
  N  N1  1  0.13935952  0.61653346  0.84082636  1
  N  N2  1  0.98897162  0.62757729  0.45736477  1
  N  N3  1  0.87175083  0.37239028  0.58495569  1
  N  N4  1  0.98893884  0.38347050  0.95735089  1
  N  N5  1  0.13937677  0.24412156  0.34083032  1
  N  N6  1  0.12824883  0.24412502  0.91506174  1
  N  N7  1  0.86061653  0.38348594  0.15918618  1
  N  N8  1  0.01106792  0.37240409  0.54266804  1
  N  N9  1  0.12825952  0.62759489  0.41506495  1
  N  N10  1  0.01102822  0.61654834  0.04265531  1
  N  N11  1  0.86064259  0.75587530  0.65919309  1
loop_
_geom_bond_atom_site_label_1
_geom_bond_atom_site_label_2
_geom_bond_distance
_geom_bond_site_symmetry_2
Co0 N0 1.929005 1_455
Co0 N2 1.929078 1_555
Co0 N1 1.929157 1_464
Co0 N8 2.009099 1_655
Co0 N7 2.009213 1_465
Co0 N6 2.009269 1_464
Co1 N5 1.929010 1_555
Co1 N3 1.929050 1_555
Co1 N4 1.929177 1_645
Co1 N9 2.009116 1_555
Co1 N10 2.009151 1_746
Co1 N11 2.009217 1_545
Co2 N6 1.928978 1_655
Co2 N8 1.929032 1_555
Co2 N7 1.929125 1_646
Co2 N2 2.009054 1_455
Co2 N1 2.009157 1_645
Co2 N0 2.009225 1_646
Co3 N11 1.929043 1_555
Co3 N9 1.929099 1_555
Co3 N10 1.929223 1_465
Co3 N3 2.009151 1_555
Co3 N4 2.009186 1_364
Co3 N5 2.009247 1_565
C0 N10 1.234687 1_655
C0 N0 1.234808 1_555
C1 N11 1.234650 1_455
C1 N1 1.234816 1_555
C2 N9 1.234660 1_555
C2 N2 1.234832 1_455
C3 N3 1.234674 1_555
C3 N8 1.234758 1_655
C4 N4 1.234702 1_455
C4 N6 1.234718 1_555
C5 N5 1.234651 1_555
C5 N7 1.234723 1_455
