# generated using pymatgen
data_Ce3Sn5Au6
_symmetry_space_group_name_H-M   'P 1'
_cell_length_a   4.65838100
_cell_length_b   10.26978200
_cell_length_c   13.78062800
_cell_angle_alpha   90.00000000
_cell_angle_beta   90.00000000
_cell_angle_gamma   90.00000000
_symmetry_Int_Tables_number   1
_chemical_formula_structural   Ce3Sn5Au6
_chemical_formula_sum   'Ce6 Sn10 Au12'
_cell_volume   659.27292406
_cell_formula_units_Z   2
loop_
 _symmetry_equiv_pos_site_id
 _symmetry_equiv_pos_as_xyz
  1  'x, y, z'
loop_
 _atom_site_type_symbol
 _atom_site_label
 _atom_site_symmetry_multiplicity
 _atom_site_fract_x
 _atom_site_fract_y
 _atom_site_fract_z
 _atom_site_occupancy
  Ce  Ce0  1  0.50000000  0.75659900  0.50000000  1
  Ce  Ce1  1  0.00000000  0.24340100  0.00000000  1
  Ce  Ce2  1  0.50000000  0.75459500  0.81682900  1
  Ce  Ce3  1  0.50000000  0.75459500  0.18317100  1
  Ce  Ce4  1  0.00000000  0.24540500  0.68317100  1
  Ce  Ce5  1  0.00000000  0.24540500  0.31682900  1
  Sn  Sn0  1  0.50000000  0.47715800  0.64061500  1
  Sn  Sn1  1  0.50000000  0.47715800  0.35938500  1
  Sn  Sn2  1  0.00000000  0.52284200  0.85938500  1
  Sn  Sn3  1  0.00000000  0.52284200  0.14061500  1
  Sn  Sn4  1  0.50000000  0.12100000  0.83696500  1
  Sn  Sn5  1  0.50000000  0.12100000  0.16303500  1
  Sn  Sn6  1  0.00000000  0.87900000  0.66303500  1
  Sn  Sn7  1  0.00000000  0.87900000  0.33696500  1
  Sn  Sn8  1  0.50000000  0.22319600  0.50000000  1
  Sn  Sn9  1  0.00000000  0.77680400  0.00000000  1
  Au  Au0  1  0.50000000  0.02281200  0.64653700  1
  Au  Au1  1  0.50000000  0.02281200  0.35346300  1
  Au  Au2  1  0.00000000  0.97718800  0.85346300  1
  Au  Au3  1  0.00000000  0.97718800  0.14653700  1
  Au  Au4  1  0.00000000  0.03901000  0.50000000  1
  Au  Au5  1  0.50000000  0.96099000  0.00000000  1
  Au  Au6  1  0.50000000  0.38119300  0.83684800  1
  Au  Au7  1  0.50000000  0.38119300  0.16315200  1
  Au  Au8  1  0.00000000  0.61880700  0.66315200  1
  Au  Au9  1  0.00000000  0.61880700  0.33684800  1
  Au  Au10  1  0.00000000  0.43978200  0.50000000  1
  Au  Au11  1  0.50000000  0.56021800  0.00000000  1
loop_
_geom_bond_atom_site_label_1
_geom_bond_atom_site_label_2
_geom_bond_distance
_geom_bond_site_symmetry_2
Ce0 Sn0 3.462754 1_555
Ce0 Sn1 3.462754 1_555
Ce0 Sn7 3.471747 1_555
Ce0 Sn7 3.471747 1_655
Ce0 Sn6 3.471747 1_655
Ce0 Sn6 3.471747 1_555
Ce1 Sn3 3.462754 1_555
Ce1 Sn2 3.462754 1_554
Ce1 Sn5 3.471747 1_455
Ce1 Sn5 3.471747 1_555
Ce1 Sn4 3.471747 1_454
Ce1 Sn4 3.471747 1_554
Ce2 Sn2 3.381376 1_555
Ce2 Sn2 3.381376 1_655
Ce2 Sn6 3.398409 1_655
Ce2 Sn6 3.398409 1_555
Ce2 Sn9 3.442208 1_556
Ce2 Sn9 3.442208 1_656
Ce2 Sn0 3.743644 1_555
Ce2 Sn4 3.773117 1_565
Ce3 Sn3 3.381376 1_655
Ce3 Sn3 3.381376 1_555
Ce3 Sn7 3.398409 1_555
Ce3 Sn7 3.398409 1_655
Ce3 Sn9 3.442208 1_655
Ce3 Sn9 3.442208 1_555
Ce3 Sn1 3.743644 1_555
Ce3 Sn5 3.773117 1_565
Ce4 Sn0 3.381376 1_455
Ce4 Sn0 3.381376 1_555
Ce4 Sn4 3.398409 1_455
Ce4 Sn4 3.398409 1_555
Ce4 Sn8 3.442208 1_555
Ce4 Sn8 3.442208 1_455
Ce4 Sn2 3.743644 1_555
Ce4 Sn6 3.773117 1_545
Ce5 Sn1 3.381376 1_455
Ce5 Sn1 3.381376 1_555
Ce5 Sn5 3.398409 1_455
Ce5 Sn5 3.398409 1_555
Ce5 Sn8 3.442208 1_555
Ce5 Sn8 3.442208 1_455
Ce5 Sn3 3.743644 1_555
Ce5 Sn7 3.773117 1_545
Sn0 Sn8 3.249198 1_555
Sn1 Sn8 3.249198 1_555
Sn2 Sn9 3.249198 1_556
Sn3 Sn9 3.249198 1_555
Au0 Sn6 2.767328 1_545
Au0 Sn6 2.767328 1_645
Au0 Sn4 2.811285 1_555
Au0 Sn8 2.883195 1_555
Au0 Au4 3.087177 1_555
Au0 Au4 3.087177 1_655
Au0 Ce4 3.302378 1_555
Au0 Ce4 3.302378 1_655
Au0 Ce0 3.398874 1_545
Au0 Ce2 3.618644 1_545
Au1 Sn7 2.767328 1_545
Au1 Sn7 2.767328 1_645
Au1 Sn5 2.811285 1_555
Au1 Sn8 2.883195 1_555
Au1 Au4 3.087177 1_655
Au1 Au4 3.087177 1_555
Au1 Ce5 3.302378 1_655
Au1 Ce5 3.302378 1_555
Au1 Ce0 3.398874 1_545
Au1 Ce3 3.618644 1_545
Au2 Sn4 2.767328 1_565
Au2 Sn4 2.767328 1_465
Au2 Sn6 2.811285 1_555
Au2 Sn9 2.883195 1_556
Au2 Au5 3.087177 1_456
Au2 Au5 3.087177 1_556
Au2 Ce2 3.302378 1_555
Au2 Ce2 3.302378 1_455
Au2 Ce1 3.398874 1_566
Au2 Ce4 3.618644 1_565
Au3 Sn5 2.767328 1_465
Au3 Sn5 2.767328 1_565
Au3 Sn7 2.811285 1_555
Au3 Sn9 2.883195 1_555
Au3 Au5 3.087177 1_555
Au3 Au5 3.087177 1_455
Au3 Ce3 3.302378 1_455
Au3 Ce3 3.302378 1_555
Au3 Ce1 3.398874 1_565
Au3 Ce5 3.618644 1_565
Au4 Sn7 2.783541 1_545
Au4 Sn6 2.783541 1_545
Au4 Sn8 3.000515 1_555
Au4 Sn8 3.000515 1_455
Au4 Ce5 3.296131 1_555
Au4 Ce4 3.296131 1_555
Au4 Ce0 3.719794 1_445
Au4 Ce0 3.719794 1_545
Au5 Sn5 2.783541 1_565
Au5 Sn4 2.783541 1_564
Au5 Sn9 3.000515 1_655
Au5 Sn9 3.000515 1_555
Au5 Ce2 3.296131 1_554
Au5 Ce3 3.296131 1_555
Au5 Ce1 3.719794 1_665
Au5 Ce1 3.719794 1_565
Au6 Sn4 2.672126 1_555
Au6 Sn2 2.763648 1_655
Au6 Sn2 2.763648 1_555
Au6 Sn0 2.878205 1_555
Au6 Ce4 3.443069 1_655
Au6 Ce4 3.443069 1_555
Au6 Ce1 3.533078 1_556
Au6 Ce1 3.533078 1_656
Au6 Ce2 3.844668 1_555
Au7 Sn5 2.672126 1_555
Au7 Sn3 2.763648 1_655
Au7 Sn3 2.763648 1_555
Au7 Sn1 2.878205 1_555
Au7 Ce5 3.443069 1_555
Au7 Ce5 3.443069 1_655
Au7 Ce1 3.533078 1_555
Au7 Ce1 3.533078 1_655
Au7 Ce3 3.844668 1_555
Au8 Sn6 2.672126 1_555
Au8 Sn0 2.763648 1_455
Au8 Sn0 2.763648 1_555
Au8 Sn2 2.878205 1_555
Au8 Ce2 3.443069 1_455
Au8 Ce2 3.443069 1_555
Au8 Ce0 3.533078 1_455
Au8 Ce0 3.533078 1_555
Au8 Ce4 3.844668 1_555
Au9 Sn7 2.672126 1_555
Au9 Sn1 2.763648 1_455
Au9 Sn1 2.763648 1_555
Au9 Sn3 2.878205 1_555
Au9 Ce3 3.443069 1_455
Au9 Ce3 3.443069 1_555
Au9 Ce0 3.533078 1_455
Au9 Ce0 3.533078 1_555
Au9 Ce5 3.844668 1_555
Au10 Au8 2.904355 1_555
Au10 Au9 2.904355 1_555
Au10 Sn1 3.054078 1_555
Au10 Sn0 3.054078 1_455
Au10 Sn1 3.054078 1_455
Au10 Sn0 3.054078 1_555
Au10 Ce5 3.218151 1_555
Au10 Ce4 3.218151 1_555
Au10 Sn8 3.220652 1_455
Au10 Sn8 3.220652 1_555
Au11 Au7 2.904355 1_555
Au11 Au6 2.904355 1_554
Au11 Sn3 3.054078 1_655
Au11 Sn3 3.054078 1_555
Au11 Sn2 3.054078 1_554
Au11 Sn2 3.054078 1_654
Au11 Ce2 3.218151 1_554
Au11 Ce3 3.218151 1_555
Au11 Sn9 3.220652 1_655
Au11 Sn9 3.220652 1_555
