# generated using pymatgen
data_Na3Mg2V3O12
_symmetry_space_group_name_H-M   'P 1'
_cell_length_a   10.96916437
_cell_length_b   10.96916437
_cell_length_c   10.96916437
_cell_angle_alpha   109.47122063
_cell_angle_beta   109.47122063
_cell_angle_gamma   109.47122063
_symmetry_Int_Tables_number   1
_chemical_formula_structural   Na3Mg2V3O12
_chemical_formula_sum   'Na12 Mg8 V12 O48'
_cell_volume   1016.01177647
_cell_formula_units_Z   4
loop_
 _symmetry_equiv_pos_site_id
 _symmetry_equiv_pos_as_xyz
  1  'x, y, z'
loop_
 _atom_site_type_symbol
 _atom_site_label
 _atom_site_symmetry_multiplicity
 _atom_site_fract_x
 _atom_site_fract_y
 _atom_site_fract_z
 _atom_site_occupancy
  Na  Na0  1  0.25000000  0.37500000  0.12500000  1
  Na  Na1  1  0.75000000  0.62500000  0.87500000  1
  Na  Na2  1  0.75000000  0.12500000  0.37500000  1
  Na  Na3  1  0.12500000  0.25000000  0.37500000  1
  Na  Na4  1  0.37500000  0.75000000  0.12500000  1
  Na  Na5  1  0.25000000  0.87500000  0.62500000  1
  Na  Na6  1  0.87500000  0.75000000  0.62500000  1
  Na  Na7  1  0.62500000  0.25000000  0.87500000  1
  Na  Na8  1  0.37500000  0.12500000  0.25000000  1
  Na  Na9  1  0.62500000  0.87500000  0.75000000  1
  Na  Na10  1  0.12500000  0.37500000  0.75000000  1
  Na  Na11  1  0.87500000  0.62500000  0.25000000  1
  Mg  Mg0  1  0.00000000  0.00000000  0.00000000  1
  Mg  Mg1  1  0.50000000  0.00000000  0.50000000  1
  Mg  Mg2  1  0.00000000  0.50000000  0.50000000  1
  Mg  Mg3  1  0.50000000  0.00000000  0.00000000  1
  Mg  Mg4  1  0.50000000  0.50000000  0.00000000  1
  Mg  Mg5  1  0.50000000  0.50000000  0.50000000  1
  Mg  Mg6  1  0.00000000  0.00000000  0.50000000  1
  Mg  Mg7  1  0.00000000  0.50000000  0.00000000  1
  V  V0  1  0.25000000  0.62500000  0.37500000  1
  V  V1  1  0.75000000  0.37500000  0.62500000  1
  V  V2  1  0.75000000  0.87500000  0.12500000  1
  V  V3  1  0.37500000  0.25000000  0.62500000  1
  V  V4  1  0.62500000  0.75000000  0.37500000  1
  V  V5  1  0.25000000  0.12500000  0.87500000  1
  V  V6  1  0.12500000  0.75000000  0.87500000  1
  V  V7  1  0.87500000  0.25000000  0.12500000  1
  V  V8  1  0.62500000  0.37500000  0.25000000  1
  V  V9  1  0.37500000  0.62500000  0.75000000  1
  V  V10  1  0.87500000  0.12500000  0.75000000  1
  V  V11  1  0.12500000  0.87500000  0.25000000  1
  O  O0  1  0.49122300  0.38759900  0.29763400  1
  O  O1  1  0.50877700  0.61240100  0.70236600  1
  O  O2  1  0.58996500  0.19358900  0.20236600  1
  O  O3  1  0.91003500  0.11240100  0.60362500  1
  O  O4  1  0.29763400  0.49122300  0.38759900  1
  O  O5  1  0.30641100  0.91003500  0.29763400  1
  O  O6  1  0.41003500  0.80641100  0.79763400  1
  O  O7  1  0.08996500  0.88759900  0.39637500  1
  O  O8  1  0.70236600  0.50877700  0.61240100  1
  O  O9  1  0.69358900  0.08996500  0.70236600  1
  O  O10  1  0.00877700  0.30641100  0.89637500  1
  O  O11  1  0.20236600  0.58996500  0.19358900  1
  O  O12  1  0.11240100  0.00877700  0.20236600  1
  O  O13  1  0.99122300  0.69358900  0.10362500  1
  O  O14  1  0.79763400  0.41003500  0.80641100  1
  O  O15  1  0.88759900  0.99122300  0.79763400  1
  O  O16  1  0.60362500  0.91003500  0.11240100  1
  O  O17  1  0.19358900  0.49122300  0.60362500  1
  O  O18  1  0.39637500  0.08996500  0.88759900  1
  O  O19  1  0.80641100  0.50877700  0.39637500  1
  O  O20  1  0.89637500  0.00877700  0.30641100  1
  O  O21  1  0.38759900  0.58996500  0.89637500  1
  O  O22  1  0.10362500  0.99122300  0.69358900  1
  O  O23  1  0.61240100  0.41003500  0.10362500  1
  O  O24  1  0.38759900  0.29763400  0.49122300  1
  O  O25  1  0.58996500  0.89637500  0.38759900  1
  O  O26  1  0.61240100  0.70236600  0.50877700  1
  O  O27  1  0.41003500  0.10362500  0.61240100  1
  O  O28  1  0.11240100  0.60362500  0.91003500  1
  O  O29  1  0.00877700  0.20236600  0.11240100  1
  O  O30  1  0.88759900  0.39637500  0.08996500  1
  O  O31  1  0.99122300  0.79763400  0.88759900  1
  O  O32  1  0.30641100  0.89637500  0.00877700  1
  O  O33  1  0.91003500  0.29763400  0.30641100  1
  O  O34  1  0.69358900  0.10362500  0.99122300  1
  O  O35  1  0.08996500  0.70236600  0.69358900  1
  O  O36  1  0.19358900  0.20236600  0.58996500  1
  O  O37  1  0.49122300  0.60362500  0.19358900  1
  O  O38  1  0.80641100  0.79763400  0.41003500  1
  O  O39  1  0.50877700  0.39637500  0.80641100  1
  O  O40  1  0.29763400  0.30641100  0.91003500  1
  O  O41  1  0.70236600  0.69358900  0.08996500  1
  O  O42  1  0.20236600  0.11240100  0.00877700  1
  O  O43  1  0.79763400  0.88759900  0.99122300  1
  O  O44  1  0.89637500  0.38759900  0.58996500  1
  O  O45  1  0.10362500  0.61240100  0.41003500  1
  O  O46  1  0.60362500  0.19358900  0.49122300  1
  O  O47  1  0.39637500  0.80641100  0.50877700  1
loop_
_geom_bond_atom_site_label_1
_geom_bond_atom_site_label_2
_geom_bond_distance
_geom_bond_site_symmetry_2
Na0 O11 2.509961 1_555
Na0 O40 2.509961 1_554
Na0 O4 2.509961 1_555
Na0 O42 2.509961 1_555
Na0 O29 2.616817 1_555
Na0 O0 2.616817 1_555
Na0 O37 2.616823 1_555
Na0 O10 2.616823 1_554
Na1 O14 2.509961 1_555
Na1 O43 2.509961 1_555
Na1 O41 2.509961 1_556
Na1 O8 2.509961 1_555
Na1 O31 2.616817 1_555
Na1 O1 2.616817 1_555
Na1 O39 2.616823 1_555
Na1 O13 2.616823 1_556
Na2 O20 2.509951 1_555
Na2 O46 2.509951 1_555
Na2 O44 2.509961 1_555
Na2 O16 2.509961 1_545
Na2 O2 2.616817 1_555
Na2 O33 2.616817 1_555
Na2 O25 2.616825 1_545
Na2 O3 2.616825 1_555
Na3 O36 2.509961 1_555
Na3 O33 2.509961 1_455
Na3 O29 2.509961 1_555
Na3 O24 2.509961 1_555
Na3 O4 2.616817 1_555
Na3 O12 2.616817 1_555
Na3 O20 2.616823 1_455
Na3 O17 2.616823 1_555
Na4 O32 2.509951 1_555
Na4 O37 2.509951 1_555
Na4 O25 2.509961 1_555
Na4 O28 2.509961 1_554
Na4 O11 2.616817 1_555
Na4 O5 2.616817 1_555
Na4 O21 2.616825 1_554
Na4 O16 2.616825 1_555
Na5 O47 2.509951 1_555
Na5 O22 2.509951 1_555
Na5 O45 2.509961 1_555
Na5 O18 2.509961 1_565
Na5 O6 2.616817 1_555
Na5 O35 2.616817 1_555
Na5 O27 2.616825 1_565
Na5 O7 2.616825 1_555
Na6 O38 2.509961 1_555
Na6 O31 2.509961 1_555
Na6 O26 2.509961 1_555
Na6 O35 2.509961 1_655
Na6 O15 2.616817 1_555
Na6 O8 2.616817 1_555
Na6 O19 2.616823 1_555
Na6 O22 2.616823 1_655
Na7 O39 2.509951 1_555
Na7 O34 2.509951 1_555
Na7 O27 2.509961 1_555
Na7 O30 2.509961 1_556
Na7 O9 2.616817 1_555
Na7 O14 2.616817 1_555
Na7 O18 2.616825 1_555
Na7 O23 2.616825 1_556
Na8 O2 2.509961 1_555
Na8 O5 2.509961 1_545
Na8 O12 2.509961 1_555
Na8 O0 2.509961 1_555
Na8 O42 2.616817 1_555
Na8 O24 2.616817 1_555
Na8 O46 2.616823 1_555
Na8 O32 2.616823 1_545
Na9 O6 2.509961 1_555
Na9 O1 2.509961 1_555
Na9 O9 2.509961 1_565
Na9 O15 2.509961 1_555
Na9 O43 2.616817 1_555
Na9 O26 2.616817 1_555
Na9 O47 2.616823 1_555
Na9 O34 2.616823 1_565
Na10 O10 2.509951 1_555
Na10 O17 2.509951 1_555
Na10 O21 2.509961 1_555
Na10 O3 2.509961 1_455
Na10 O40 2.616817 1_555
Na10 O36 2.616817 1_555
Na10 O44 2.616825 1_455
Na10 O28 2.616825 1_555
Na11 O19 2.509951 1_555
Na11 O13 2.509951 1_555
Na11 O23 2.509961 1_555
Na11 O7 2.509961 1_655
Na11 O38 2.616817 1_555
Na11 O41 2.616817 1_555
Na11 O30 2.616825 1_555
Na11 O45 2.616825 1_655
Mg0 O12 2.100162 1_555
Mg0 O43 2.100162 1_444
Mg0 O29 2.100162 1_555
Mg0 O42 2.100162 1_555
Mg0 O31 2.100162 1_444
Mg0 O15 2.100162 1_444
Mg1 O5 2.100162 1_545
Mg1 O9 2.100162 1_555
Mg1 O46 2.100164 1_555
Mg1 O47 2.100164 1_545
Mg1 O25 2.100167 1_545
Mg1 O27 2.100167 1_555
Mg2 O33 2.100162 1_455
Mg2 O35 2.100162 1_555
Mg2 O17 2.100164 1_555
Mg2 O19 2.100164 1_455
Mg2 O44 2.100167 1_455
Mg2 O45 2.100167 1_555
Mg3 O2 2.100162 1_555
Mg3 O6 2.100162 1_544
Mg3 O32 2.100164 1_545
Mg3 O34 2.100164 1_554
Mg3 O16 2.100167 1_545
Mg3 O18 2.100167 1_554
Mg4 O40 2.100162 1_554
Mg4 O41 2.100162 1_555
Mg4 O37 2.100164 1_555
Mg4 O39 2.100164 1_554
Mg4 O21 2.100167 1_554
Mg4 O23 2.100167 1_555
Mg5 O0 2.100162 1_555
Mg5 O4 2.100162 1_555
Mg5 O1 2.100162 1_555
Mg5 O8 2.100162 1_555
Mg5 O24 2.100162 1_555
Mg5 O26 2.100162 1_555
Mg6 O36 2.100162 1_555
Mg6 O38 2.100162 1_445
Mg6 O20 2.100164 1_455
Mg6 O22 2.100164 1_545
Mg6 O3 2.100167 1_455
Mg6 O7 2.100167 1_545
Mg7 O11 2.100162 1_555
Mg7 O14 2.100162 1_454
Mg7 O10 2.100164 1_554
Mg7 O13 2.100164 1_455
Mg7 O28 2.100167 1_554
Mg7 O30 2.100167 1_455
O0 V8 1.744607 1_555
O1 V9 1.744607 1_555
O2 V8 1.744607 1_555
O3 V10 1.744596 1_555
O4 V0 1.744607 1_555
O5 V11 1.744607 1_555
O6 V9 1.744607 1_555
O7 V11 1.744596 1_555
O8 V1 1.744607 1_555
O9 V10 1.744607 1_555
O10 V10 1.744604 1_455
O11 V0 1.744607 1_555
O12 V11 1.744607 1_545
O13 V11 1.744604 1_655
O14 V1 1.744607 1_555
O15 V10 1.744607 1_565
O16 V2 1.744596 1_555
O17 V9 1.744604 1_555
O18 V5 1.744596 1_555
O19 V8 1.744604 1_555
O20 V2 1.744604 1_545
O21 V9 1.744596 1_555
O22 V5 1.744604 1_565
O23 V8 1.744596 1_555
O24 V3 1.744607 1_555
O25 V4 1.744596 1_555
O26 V4 1.744607 1_555
O27 V3 1.744596 1_555
O28 V6 1.744596 1_555
O29 V7 1.744607 1_455
O30 V7 1.744596 1_555
O31 V6 1.744607 1_655
O32 V6 1.744604 1_554
O33 V7 1.744607 1_555
O34 V7 1.744604 1_556
O35 V6 1.744607 1_555
O36 V3 1.744607 1_555
O37 V4 1.744604 1_555
O38 V4 1.744607 1_555
O39 V3 1.744604 1_555
O40 V5 1.744607 1_555
O41 V2 1.744607 1_555
O42 V5 1.744607 1_554
O43 V2 1.744607 1_556
O44 V1 1.744596 1_555
O45 V0 1.744596 1_555
O46 V1 1.744604 1_555
O47 V0 1.744604 1_555
