# generated using pymatgen
data_K3TiFeH4S4O19
_symmetry_space_group_name_H-M   'P 1'
_cell_length_a   7.77363856
_cell_length_b   9.33935862
_cell_length_c   12.43632635
_cell_angle_alpha   92.13527494
_cell_angle_beta   84.86361926
_cell_angle_gamma   114.59341292
_symmetry_Int_Tables_number   1
_chemical_formula_structural   K3TiFeH4S4O19
_chemical_formula_sum   'K6 Ti2 Fe2 H8 S8 O38'
_cell_volume   817.68415488
_cell_formula_units_Z   2
loop_
 _symmetry_equiv_pos_site_id
 _symmetry_equiv_pos_as_xyz
  1  'x, y, z'
loop_
 _atom_site_type_symbol
 _atom_site_label
 _atom_site_symmetry_multiplicity
 _atom_site_fract_x
 _atom_site_fract_y
 _atom_site_fract_z
 _atom_site_occupancy
  K  K0  1  0.88679600  0.77347000  0.75049000  1
  K  K1  1  0.11332600  0.22653000  0.25049000  1
  K  K2  1  0.99985400  0.49877000  0.00032200  1
  K  K3  1  0.50108300  0.50123000  0.50032200  1
  K  K4  1  0.47210000  0.94515700  0.74970900  1
  K  K5  1  0.52694300  0.05484300  0.24970900  1
  Ti  Ti0  1  0.99413500  0.21391000  0.64239000  1
  Ti  Ti1  1  0.78022500  0.78609000  0.14239000  1
  Fe  Fe0  1  0.23191300  0.22037300  0.86458400  1
  Fe  Fe1  1  0.01154000  0.77962700  0.36458400  1
  H  H0  1  0.53888600  0.39159200  0.95559800  1
  H  H1  1  0.85348700  0.39239100  0.54352900  1
  H  H2  1  0.46109600  0.60760900  0.04352900  1
  H  H3  1  0.14729400  0.60840800  0.45559800  1
  H  H4  1  0.41384800  0.24366600  0.03264200  1
  H  H5  1  0.83128900  0.24670200  0.46649900  1
  H  H6  1  0.58458700  0.75329800  0.96649900  1
  H  H7  1  0.17018200  0.75633400  0.53264200  1
  S  S0  1  0.68077500  0.36139600  0.74949100  1
  S  S1  1  0.31937800  0.63860400  0.24949100  1
  S  S2  1  0.27303800  0.54727100  0.75042100  1
  S  S3  1  0.72576700  0.45272900  0.25042100  1
  S  S4  1  0.79878300  0.07414300  0.98886000  1
  S  S5  1  0.27568300  0.07411200  0.51036100  1
  S  S6  1  0.20157100  0.92588800  0.01036100  1
  S  S7  1  0.72463900  0.92585700  0.48886000  1
  O  O0  1  0.68762400  0.16636400  0.00308600  1
  O  O1  1  0.47773600  0.17279300  0.49998200  1
  O  O2  1  0.30494300  0.82720700  0.99998200  1
  O  O3  1  0.52126000  0.83363600  0.50308600  1
  O  O4  1  0.00747800  0.18457900  0.97435300  1
  O  O5  1  0.17118900  0.18269800  0.52748400  1
  O  O6  1  0.98849100  0.81730200  0.02748400  1
  O  O7  1  0.82289900  0.81542100  0.47435300  1
  O  O8  1  0.47254800  0.25155000  0.76325700  1
  O  O9  1  0.78510400  0.25454600  0.73423700  1
  O  O10  1  0.53055900  0.74545400  0.23423700  1
  O  O11  1  0.22099800  0.74845000  0.26325700  1
  O  O12  1  0.25183800  0.44293400  0.84536200  1
  O  O13  1  0.18328800  0.43783600  0.65665100  1
  O  O14  1  0.74545200  0.56216400  0.15665100  1
  O  O15  1  0.80890400  0.55706600  0.34536200  1
  O  O16  1  0.47341500  0.64066000  0.71713000  1
  O  O17  1  0.16855100  0.64423200  0.77871200  1
  O  O18  1  0.52431900  0.35576800  0.27871200  1
  O  O19  1  0.83275500  0.35934000  0.21713000  1
  O  O20  1  0.73542500  0.45663400  0.84798200  1
  O  O21  1  0.72331600  0.45938100  0.65238000  1
  O  O22  1  0.26393500  0.54061900  0.15238000  1
  O  O23  1  0.27879200  0.54336600  0.34798200  1
  O  O24  1  0.06735500  0.14198000  0.74778300  1
  O  O25  1  0.92537500  0.85802000  0.24778300  1
  O  O26  1  0.74354500  0.95557700  0.90232700  1
  O  O27  1  0.21221100  0.95505900  0.59647500  1
  O  O28  1  0.25715200  0.04494100  0.09647500  1
  O  O29  1  0.78796800  0.04442300  0.40232700  1
  O  O30  1  0.22157800  0.00573400  0.90222100  1
  O  O31  1  0.78941300  0.01066400  0.59680900  1
  O  O32  1  0.77875000  0.98933600  0.09680900  1
  O  O33  1  0.21584400  0.99426600  0.40222100  1
  O  O34  1  0.40883800  0.32713400  0.98823400  1
  O  O35  1  0.92036900  0.32950500  0.51063800  1
  O  O36  1  0.59086400  0.67049500  0.01063800  1
  O  O37  1  0.08170400  0.67286600  0.48823400  1
loop_
_geom_bond_atom_site_label_1
_geom_bond_atom_site_label_2
_geom_bond_distance
_geom_bond_site_symmetry_2
K0 O21 2.935396 1_555
K0 O26 2.942603 1_555
K0 O20 2.953693 1_555
K0 O17 2.957522 1_655
K0 O27 2.957640 1_655
K0 O16 2.986596 1_555
K0 O24 3.129775 1_665
K0 O30 3.303692 1_665
K0 O31 3.332199 1_565
K1 O22 2.935396 1_555
K1 O29 2.942603 1_455
K1 O23 2.953694 1_555
K1 O18 2.957522 1_555
K1 O28 2.957639 1_555
K1 O19 2.986596 1_455
K1 O25 3.129775 1_445
K1 O33 3.303692 1_545
K1 O32 3.332195 1_445
K2 O22 2.813407 1_655
K2 O12 2.814645 1_654
K2 O20 2.817448 1_554
K2 O14 2.870833 1_555
K2 O4 2.964606 1_654
K2 O19 2.979868 1_555
K2 O2 2.996268 1_654
K2 O6 3.018335 1_555
K2 O0 3.041575 1_555
K2 O17 3.051217 1_654
K3 O21 2.813413 1_555
K3 O15 2.814651 1_555
K3 O23 2.817437 1_555
K3 O13 2.870827 1_555
K3 O7 2.964609 1_555
K3 O16 2.979866 1_555
K3 O1 2.996271 1_555
K3 O5 3.018331 1_555
K3 O3 3.041573 1_555
K3 O18 3.051218 1_555
K4 O30 2.808178 1_565
K4 O17 2.828424 1_555
K4 O31 2.839946 1_565
K4 O8 2.858767 1_565
K4 O16 2.861659 1_555
K4 O9 2.900376 1_565
K4 O27 2.929106 1_555
K4 O26 2.932049 1_555
K4 O3 3.243644 1_555
K4 O2 3.305959 1_555
K5 O33 2.808178 1_545
K5 O18 2.828424 1_555
K5 O32 2.839952 1_545
K5 O11 2.858767 1_545
K5 O19 2.861659 1_555
K5 O10 2.900379 1_545
K5 O28 2.929106 1_555
K5 O29 2.932049 1_555
K5 O0 3.243644 1_555
K5 O1 3.305959 1_555
Fe0 O24 1.938118 1_555
Fe0 O4 2.035021 1_555
Fe0 O12 2.040598 1_555
Fe0 O30 2.042807 1_555
Fe0 O8 2.079379 1_555
Fe0 O34 2.091277 1_555
Fe1 O25 1.938118 1_455
Fe1 O7 2.035021 1_455
Fe1 O15 2.040598 1_455
Fe1 O33 2.042807 1_555
Fe1 O11 2.079379 1_555
Fe1 O37 2.091277 1_555
H0 O34 0.993642 1_555
H1 O35 0.990328 1_555
H2 O36 0.990328 1_555
H3 O37 0.993642 1_555
H4 O34 0.987625 1_554
H5 O35 0.984669 1_555
H6 O36 0.984669 1_556
H7 O37 0.987625 1_555
O0 S4 1.449325 1_554
O1 S5 1.449403 1_555
O2 S6 1.449403 1_556
O3 S7 1.449319 1_555
O4 S4 1.515577 1_455
O5 S5 1.540203 1_555
O5 Ti0 1.993019 1_455
O6 S6 1.540203 1_655
O6 Ti1 1.993019 1_555
O7 S7 1.515583 1_555
O8 S0 1.511014 1_555
O9 S0 1.523662 1_555
O9 Ti0 2.058593 1_555
O10 S1 1.523674 1_555
O10 Ti1 2.058587 1_555
O11 S1 1.511008 1_555
O12 S2 1.512619 1_555
O13 S2 1.534473 1_555
O13 Ti0 2.006659 1_455
O14 S3 1.534473 1_555
O14 Ti1 2.006659 1_555
O15 S3 1.512619 1_555
O16 S2 1.462550 1_555
O17 S2 1.463170 1_555
O18 S3 1.463170 1_555
O19 S3 1.462550 1_555
O20 S0 1.472884 1_555
O21 S0 1.471157 1_555
O22 S1 1.471156 1_555
O23 S1 1.472885 1_555
O24 Ti0 1.735125 1_455
O25 Ti1 1.735125 1_555
O26 S4 1.472018 1_565
O27 S5 1.471096 1_565
O28 S6 1.471096 1_545
O29 S7 1.472018 1_545
O30 S6 1.526329 1_546
O31 S7 1.546931 1_545
O31 Ti0 2.006004 1_555
O32 S4 1.546931 1_564
O32 Ti1 2.006001 1_555
O33 S5 1.526329 1_565
O35 Ti0 2.234809 1_555
O36 Ti1 2.234809 1_555
