# generated using pymatgen
data_Ba(ZnN)2
_symmetry_space_group_name_H-M   'P 1'
_cell_length_a   6.25871858
_cell_length_b   6.66537132
_cell_length_c   8.23601268
_cell_angle_alpha   89.99999776
_cell_angle_beta   48.85528979
_cell_angle_gamma   57.82635969
_symmetry_Int_Tables_number   1
_chemical_formula_structural   Ba(ZnN)2
_chemical_formula_sum   'Ba2 Zn4 N4'
_cell_volume   182.95138574
_cell_formula_units_Z   2
loop_
 _symmetry_equiv_pos_site_id
 _symmetry_equiv_pos_as_xyz
  1  'x, y, z'
loop_
 _atom_site_type_symbol
 _atom_site_label
 _atom_site_symmetry_multiplicity
 _atom_site_fract_x
 _atom_site_fract_y
 _atom_site_fract_z
 _atom_site_occupancy
  Ba  Ba0  1  0.00000000  0.00000000  0.25000000  1
  Ba  Ba1  1  0.00000000  0.00000000  0.75000000  1
  Zn  Zn0  1  0.73044000  0.50000000  0.63478000  1
  Zn  Zn1  1  0.26956000  0.50000000  0.36522000  1
  Zn  Zn2  1  0.26956000  0.23044000  0.86522000  1
  Zn  Zn3  1  0.73044000  0.76956000  0.13478000  1
  N  N0  1  0.67347200  0.50000000  0.16326400  1
  N  N1  1  0.32652800  0.50000000  0.83673600  1
  N  N2  1  0.32652800  0.17347200  0.33673600  1
  N  N3  1  0.67347200  0.82652800  0.66326400  1
loop_
_geom_bond_atom_site_label_1
_geom_bond_atom_site_label_2
_geom_bond_distance
_geom_bond_site_symmetry_2
Ba0 N0 3.234401 1_545
Ba0 N2 3.234401 1_455
Ba0 N0 3.234401 1_455
Ba0 N2 3.234402 1_555
Ba0 N3 3.234402 1_445
Ba0 N1 3.234402 1_544
Ba0 N3 3.234402 1_544
Ba0 N1 3.234402 1_455
Ba0 Zn1 3.312475 1_455
Ba0 Zn3 3.312475 1_545
Ba0 Zn1 3.312475 1_545
Ba0 Zn3 3.312475 1_445
Ba0 Zn2 3.312475 1_554
Ba0 Zn0 3.312475 1_455
Ba0 Zn2 3.312475 1_455
Ba0 Zn0 3.312475 1_544
Ba1 N1 3.234401 1_455
Ba1 N3 3.234401 1_545
Ba1 N1 3.234401 1_545
Ba1 N3 3.234402 1_445
Ba1 N2 3.234402 1_555
Ba1 N0 3.234402 1_456
Ba1 N2 3.234402 1_456
Ba1 N0 3.234402 1_545
Ba1 Zn0 3.312475 1_545
Ba1 Zn2 3.312475 1_455
Ba1 Zn0 3.312475 1_455
Ba1 Zn2 3.312475 1_555
Ba1 Zn3 3.312475 1_446
Ba1 Zn1 3.312475 1_545
Ba1 Zn3 3.312475 1_545
Ba1 Zn1 3.312475 1_456
N0 Zn1 1.903689 1_555
N0 Zn2 1.995626 1_654
N0 Zn3 1.995626 1_555
N1 Zn0 1.903689 1_555
N1 Zn3 1.995626 1_456
N1 Zn2 1.995626 1_555
N2 Zn3 1.903689 1_545
N2 Zn0 1.995626 1_455
N2 Zn1 1.995626 1_555
N3 Zn2 1.903689 1_565
N3 Zn1 1.995626 1_655
N3 Zn0 1.995626 1_555
