# generated using pymatgen
data_Li3Fe2(CoO4)2
_symmetry_space_group_name_H-M   'P 1'
_cell_length_a   5.89235912
_cell_length_b   5.89235912
_cell_length_c   5.87240373
_cell_angle_alpha   60.28375367
_cell_angle_beta   60.28375367
_cell_angle_gamma   60.64568612
_symmetry_Int_Tables_number   1
_chemical_formula_structural   Li3Fe2(CoO4)2
_chemical_formula_sum   'Li3 Fe2 Co2 O8'
_cell_volume   145.48608921
_cell_formula_units_Z   1
loop_
 _symmetry_equiv_pos_site_id
 _symmetry_equiv_pos_as_xyz
  1  'x, y, z'
loop_
 _atom_site_type_symbol
 _atom_site_label
 _atom_site_symmetry_multiplicity
 _atom_site_fract_x
 _atom_site_fract_y
 _atom_site_fract_z
 _atom_site_occupancy
  Li  Li0  1  0.50000000  0.00000000  0.00000000  1
  Li  Li1  1  0.00000000  0.50000000  0.00000000  1
  Li  Li2  1  0.50000000  0.50000000  0.00000000  1
  Fe  Fe0  1  0.50000000  0.00000000  0.50000000  1
  Fe  Fe1  1  0.00000000  0.50000000  0.50000000  1
  Co  Co0  1  0.00000000  0.00000000  0.00000000  1
  Co  Co1  1  0.00000000  0.00000000  0.50000000  1
  O  O0  1  0.78476500  0.22321400  0.75723600  1
  O  O1  1  0.22927100  0.22927100  0.76196600  1
  O  O2  1  0.77678600  0.21523500  0.24276400  1
  O  O3  1  0.24548500  0.24548500  0.26843500  1
  O  O4  1  0.75451500  0.75451500  0.73156500  1
  O  O5  1  0.22321400  0.78476500  0.75723600  1
  O  O6  1  0.77072900  0.77072900  0.23803400  1
  O  O7  1  0.21523500  0.77678600  0.24276400  1
loop_
_geom_bond_atom_site_label_1
_geom_bond_atom_site_label_2
_geom_bond_distance
_geom_bond_site_symmetry_2
Li0 O0 2.123904 1_554
Li0 O7 2.123904 1_545
Li0 O1 2.132937 1_554
Li0 O6 2.132937 1_545
Li0 O4 2.148569 1_544
Li0 O3 2.148569 1_555
Li1 O2 2.123904 1_455
Li1 O5 2.123904 1_554
Li1 O1 2.132937 1_554
Li1 O6 2.132937 1_455
Li1 O4 2.148569 1_454
Li1 O3 2.148569 1_555
Li2 O3 2.121465 1_555
Li2 O4 2.121465 1_554
Li2 O5 2.181352 1_554
Li2 O2 2.181352 1_555
Li2 O0 2.181352 1_554
Li2 O7 2.181352 1_555
Fe0 O3 2.033594 1_555
Fe0 O4 2.033594 1_545
Fe0 O5 2.058227 1_545
Fe0 O2 2.058227 1_555
Fe0 O1 2.061786 1_555
Fe0 O6 2.061786 1_545
Fe1 O4 2.033594 1_455
Fe1 O3 2.033594 1_555
Fe1 O0 2.058227 1_455
Fe1 O7 2.058227 1_555
Fe1 O1 2.061786 1_555
Fe1 O6 2.061786 1_455
Co0 O6 1.910240 1_445
Co0 O1 1.910240 1_554
Co0 O5 1.915424 1_544
Co0 O0 1.915424 1_454
Co0 O2 1.915424 1_455
Co0 O7 1.915424 1_545
Co1 O5 2.013763 1_545
Co1 O2 2.013763 1_455
Co1 O0 2.013763 1_455
Co1 O7 2.013763 1_545
Co1 O4 2.045720 1_445
Co1 O3 2.045720 1_555
