# generated using pymatgen
data_Li6Mn(FeO3)2
_symmetry_space_group_name_H-M   'P 1'
_cell_length_a   3.21995135
_cell_length_b   7.67273461
_cell_length_c   11.88273463
_cell_angle_alpha   106.46029747
_cell_angle_beta   90.54183313
_cell_angle_gamma   88.33088678
_symmetry_Int_Tables_number   1
_chemical_formula_structural   Li6Mn(FeO3)2
_chemical_formula_sum   'Li12 Mn2 Fe4 O12'
_cell_volume   281.42147145
_cell_formula_units_Z   2
loop_
 _symmetry_equiv_pos_site_id
 _symmetry_equiv_pos_as_xyz
  1  'x, y, z'
loop_
 _atom_site_type_symbol
 _atom_site_label
 _atom_site_symmetry_multiplicity
 _atom_site_fract_x
 _atom_site_fract_y
 _atom_site_fract_z
 _atom_site_occupancy
  Li  Li0  1  0.50530700  0.60114100  0.49230100  1
  Li  Li1  1  0.98937200  0.60277400  0.99463400  1
  Li  Li2  1  0.49281400  0.62453900  0.13790200  1
  Li  Li3  1  0.00880000  0.62374600  0.63588400  1
  Li  Li4  1  0.49591000  0.28575500  0.46947900  1
  Li  Li5  1  0.01378500  0.29262800  0.97173500  1
  Li  Li6  1  0.50701700  0.94061700  0.16118700  1
  Li  Li7  1  0.98610700  0.93365300  0.65843700  1
  Li  Li8  1  0.00009000  0.26626900  0.32597800  1
  Li  Li9  1  0.51139200  0.26868300  0.82442000  1
  Li  Li10  1  0.00212400  0.95932700  0.30470800  1
  Li  Li11  1  0.48764400  0.95755200  0.80587000  1
  Mn  Mn0  1  0.49951500  0.61306300  0.81541400  1
  Mn  Mn1  1  0.99908900  0.61282500  0.31509300  1
  Fe  Fe0  1  0.99844100  0.94706000  0.98439400  1
  Fe  Fe1  1  0.00135900  0.27927300  0.64613400  1
  Fe  Fe2  1  0.49788400  0.94743900  0.48165900  1
  Fe  Fe3  1  0.50280900  0.27815300  0.14854000  1
  O  O0  1  0.47476200  0.75792200  0.00837000  1
  O  O1  1  0.99639400  0.74996100  0.50792800  1
  O  O2  1  0.00167100  0.47575800  0.12196600  1
  O  O3  1  0.52428000  0.46874700  0.62238200  1
  O  O4  1  0.49445900  0.41457900  0.33674700  1
  O  O5  1  0.00051000  0.41809900  0.84203400  1
  O  O6  1  0.50713000  0.81080500  0.29358600  1
  O  O7  1  0.99793700  0.80852700  0.78832200  1
  O  O8  1  0.00187800  0.08629600  0.17534500  1
  O  O9  1  0.47280200  0.08660200  0.66980600  1
  O  O10  1  0.00180400  0.13961900  0.45557300  1
  O  O11  1  0.52691400  0.13954000  0.96033600  1
loop_
_geom_bond_atom_site_label_1
_geom_bond_atom_site_label_2
_geom_bond_distance
_geom_bond_site_symmetry_2
Li0 O1 1.949402 1_455
Li0 O1 1.954027 1_555
Li0 O4 1.992264 1_555
Li0 O3 2.075884 1_555
Li1 O5 1.959423 1_655
Li1 O0 1.969752 1_656
Li1 O0 1.992366 1_556
Li1 O2 2.018147 1_656
Li2 O2 1.948866 1_655
Li2 O2 1.953719 1_555
Li2 O6 1.992711 1_555
Li2 O0 2.075427 1_555
Li3 O7 1.958406 1_455
Li3 O3 1.967060 1_455
Li3 O3 1.994245 1_555
Li3 O1 2.020464 1_455
Li4 O10 1.931765 1_655
Li4 O10 1.951860 1_555
Li4 O3 1.959466 1_555
Li4 O4 2.085115 1_555
Li5 O2 1.933720 1_556
Li5 O11 1.966932 1_455
Li5 O11 1.982167 1_555
Li5 O5 2.034974 1_555
Li6 O8 1.927682 1_565
Li6 O8 1.951619 1_665
Li6 O0 1.958464 1_555
Li6 O6 2.086907 1_555
Li7 O1 1.938058 1_555
Li7 O9 1.965868 1_665
Li7 O9 1.982077 1_565
Li7 O7 2.035111 1_555
Li8 O8 1.926072 1_555
Li8 O4 1.943068 1_455
Li8 O4 1.965810 1_555
Li8 O10 2.040421 1_555
Li9 O5 1.949743 1_655
Li9 O5 1.955723 1_555
Li9 O9 1.973292 1_555
Li9 O11 2.120197 1_555
Li10 O10 1.929233 1_565
Li10 O6 1.941916 1_555
Li10 O6 1.967979 1_455
Li10 O8 2.039752 1_565
Li11 O7 1.949618 1_455
Li11 O7 1.952605 1_555
Li11 O11 1.971855 1_565
Li11 O9 2.121277 1_565
Mn0 O3 2.247825 1_555
Mn0 O0 2.247876 1_556
Mn0 O5 2.249015 1_655
Mn0 O7 2.254761 1_455
Mn0 O5 2.310259 1_555
Mn0 O7 2.313471 1_555
Mn1 O6 2.225827 1_555
Mn1 O1 2.234115 1_555
Mn1 O4 2.235365 1_655
Mn1 O2 2.237116 1_655
Mn1 O4 2.322468 1_555
Mn1 O6 2.328422 1_655
Fe0 O0 2.153108 1_656
Fe0 O11 2.160659 1_565
Fe0 O8 2.217293 1_666
Fe0 O7 2.270401 1_555
Fe0 O0 2.327326 1_556
Fe0 O11 2.356544 1_665
Fe1 O3 2.155735 1_455
Fe1 O9 2.160041 1_555
Fe1 O10 2.213723 1_555
Fe1 O5 2.268959 1_555
Fe1 O3 2.326451 1_555
Fe1 O9 2.356346 1_455
Fe2 O6 2.183137 1_555
Fe2 O9 2.188734 1_565
Fe2 O10 2.221340 1_565
Fe2 O1 2.255376 1_555
Fe2 O10 2.304584 1_665
Fe2 O1 2.328271 1_455
Fe3 O4 2.184223 1_555
Fe3 O11 2.188405 1_554
Fe3 O8 2.229135 1_655
Fe3 O2 2.263068 1_555
Fe3 O8 2.298667 1_555
Fe3 O2 2.324114 1_655
