# generated using pymatgen
data_Mg14ZnFe
_symmetry_space_group_name_H-M   'P 1'
_cell_length_a   6.25449521
_cell_length_b   6.25449471
_cell_length_c   9.77071506
_cell_angle_alpha   90.00000000
_cell_angle_beta   90.00000000
_cell_angle_gamma   120.00000257
_symmetry_Int_Tables_number   1
_chemical_formula_structural   Mg14ZnFe
_chemical_formula_sum   'Mg14 Zn1 Fe1'
_cell_volume   331.01026566
_cell_formula_units_Z   1
loop_
 _symmetry_equiv_pos_site_id
 _symmetry_equiv_pos_as_xyz
  1  'x, y, z'
loop_
 _atom_site_type_symbol
 _atom_site_label
 _atom_site_symmetry_multiplicity
 _atom_site_fract_x
 _atom_site_fract_y
 _atom_site_fract_z
 _atom_site_occupancy
  Mg  Mg0  1  0.16741516  0.83370708  0.12500000  1
  Mg  Mg1  1  0.16599976  0.83299938  0.62500000  1
  Mg  Mg2  1  0.66629292  0.33258484  0.12500000  1
  Mg  Mg3  1  0.66700062  0.33400024  0.62500000  1
  Mg  Mg4  1  0.66629292  0.83370708  0.12500000  1
  Mg  Mg5  1  0.66700062  0.83299938  0.62500000  1
  Mg  Mg6  1  0.32427851  0.17572149  0.38177023  1
  Mg  Mg7  1  0.32427851  0.17572149  0.86822977  1
  Mg  Mg8  1  0.32427851  0.64855802  0.38177023  1
  Mg  Mg9  1  0.32427851  0.64855802  0.86822977  1
  Mg  Mg10  1  0.85144198  0.17572149  0.38177023  1
  Mg  Mg11  1  0.85144198  0.17572149  0.86822977  1
  Mg  Mg12  1  0.83333300  0.66666700  0.37340939  1
  Mg  Mg13  1  0.83333300  0.66666700  0.87659061  1
  Zn  Zn0  1  0.16666700  0.33333300  0.12500000  1
  Fe  Fe0  1  0.16666700  0.33333300  0.62500000  1
loop_
_geom_bond_atom_site_label_1
_geom_bond_atom_site_label_2
_geom_bond_distance
_geom_bond_site_symmetry_2
Mg0 Mg13 3.027466 1_454
Mg0 Mg12 3.027466 1_455
Mg0 Mg8 3.119921 1_555
Mg0 Mg9 3.119921 1_554
Mg0 Mg6 3.119927 1_565
Mg0 Mg7 3.119927 1_564
Mg0 Mg2 3.120228 1_565
Mg0 Mg4 3.120229 1_555
Mg0 Zn0 3.127250 1_555
Mg0 Zn0 3.127250 1_565
Mg0 Mg2 3.134266 1_455
Mg0 Mg4 3.134267 1_455
Mg1 Mg8 3.016730 1_555
Mg1 Mg9 3.016730 1_555
Mg1 Mg6 3.016737 1_565
Mg1 Mg7 3.016737 1_565
Mg1 Mg12 3.047903 1_455
Mg1 Mg13 3.047903 1_455
Mg1 Mg3 3.120987 1_455
Mg1 Mg5 3.120988 1_455
Mg1 Mg3 3.133507 1_565
Mg1 Mg5 3.133507 1_555
Mg2 Mg7 3.119927 1_554
Mg2 Mg6 3.119927 1_555
Mg2 Mg4 3.120228 1_545
Mg2 Zn0 3.127250 1_555
Mg2 Zn0 3.127250 1_655
Mg2 Mg4 3.134266 1_555
Mg3 Mg6 3.016737 1_555
Mg3 Mg7 3.016737 1_555
Mg3 Mg5 3.120987 1_555
Mg3 Mg5 3.133507 1_545
Mg4 Mg8 3.119927 1_555
Mg4 Mg9 3.119927 1_554
Mg4 Zn0 3.127250 1_555
Mg4 Zn0 3.127250 1_665
Mg5 Mg9 3.016736 1_555
Mg5 Mg8 3.016736 1_555
Mg6 Mg8 2.957354 1_555
Mg6 Zn0 3.034718 1_555
Mg6 Mg8 3.297141 1_545
Mg7 Mg9 2.957354 1_555
Mg7 Zn0 3.034718 1_556
Mg7 Mg9 3.297141 1_545
Mg8 Zn0 3.034724 1_555
Mg9 Zn0 3.034724 1_556
Mg10 Mg8 2.957354 1_655
Mg10 Mg6 2.957354 1_655
Mg10 Mg3 3.016730 1_555
Mg10 Mg5 3.016736 1_545
Mg10 Zn0 3.034724 1_655
Mg10 Mg2 3.119921 1_555
Mg10 Mg4 3.119927 1_545
Mg10 Mg12 3.129852 1_545
Mg10 Mg12 3.129852 1_555
Mg10 Mg8 3.297141 1_545
Mg10 Mg6 3.297141 1_555
Mg11 Mg9 2.957354 1_655
Mg11 Mg7 2.957354 1_655
Mg11 Mg3 3.016730 1_555
Mg11 Mg5 3.016736 1_545
Mg11 Zn0 3.034724 1_656
Mg11 Mg2 3.119921 1_556
Mg11 Mg4 3.119927 1_546
Mg11 Mg13 3.129852 1_545
Mg11 Mg13 3.129852 1_555
Mg11 Mg9 3.297141 1_545
Mg11 Mg7 3.297141 1_555
Mg12 Mg4 3.027460 1_555
Mg12 Mg2 3.027466 1_555
Mg12 Mg5 3.047897 1_555
Mg12 Mg3 3.047903 1_555
Mg12 Mg6 3.129852 1_665
Mg12 Mg6 3.129852 1_555
Mg12 Mg8 3.129852 1_655
Mg12 Mg8 3.129852 1_555
Mg13 Mg4 3.027460 1_556
Mg13 Mg2 3.027466 1_556
Mg13 Mg5 3.047897 1_555
Mg13 Mg3 3.047903 1_555
Mg13 Mg7 3.129852 1_665
Mg13 Mg7 3.129852 1_555
Mg13 Mg9 3.129852 1_655
Mg13 Mg9 3.129852 1_555
Fe0 Mg7 2.926291 1_555
Fe0 Mg6 2.926291 1_555
Fe0 Mg8 2.926297 1_555
Fe0 Mg9 2.926297 1_555
Fe0 Mg10 2.926297 1_455
Fe0 Mg11 2.926297 1_455
Fe0 Mg1 3.127249 1_545
Fe0 Mg1 3.127249 1_555
Fe0 Mg5 3.127249 1_445
Fe0 Mg5 3.127249 1_555
Fe0 Mg3 3.127250 1_455
Fe0 Mg3 3.127250 1_555
