# generated using pymatgen
data_PrNdAl6
_symmetry_space_group_name_H-M   'P 1'
_cell_length_a   6.54378693
_cell_length_b   6.54378693
_cell_length_c   4.59899601
_cell_angle_alpha   90.00000000
_cell_angle_beta   90.00000000
_cell_angle_gamma   120.00000661
_symmetry_Int_Tables_number   1
_chemical_formula_structural   PrNdAl6
_chemical_formula_sum   'Pr1 Nd1 Al6'
_cell_volume   170.55008335
_cell_formula_units_Z   1
loop_
 _symmetry_equiv_pos_site_id
 _symmetry_equiv_pos_as_xyz
  1  'x, y, z'
loop_
 _atom_site_type_symbol
 _atom_site_label
 _atom_site_symmetry_multiplicity
 _atom_site_fract_x
 _atom_site_fract_y
 _atom_site_fract_z
 _atom_site_occupancy
  Pr  Pr0  1  0.33333300  0.66666700  -0.00000000  1
  Nd  Nd0  1  0.66666700  0.33333300  0.50000000  1
  Al  Al0  1  0.72325364  0.86162632  0.50000000  1
  Al  Al1  1  0.13837368  0.86162632  0.50000000  1
  Al  Al2  1  0.13837368  0.27674636  0.50000000  1
  Al  Al3  1  0.27793363  0.13896582  -0.00000000  1
  Al  Al4  1  0.86103418  0.13896582  -0.00000000  1
  Al  Al5  1  0.86103418  0.72206637  0.00000000  1
loop_
_geom_bond_atom_site_label_1
_geom_bond_atom_site_label_2
_geom_bond_distance
_geom_bond_site_symmetry_2
Al0 Al2 2.716457 1_665
Al0 Al1 2.716457 1_655
Al0 Al4 2.785316 1_566
Al0 Al4 2.785316 1_565
Al0 Al5 2.785320 1_555
Al0 Al5 2.785320 1_556
Al0 Pr0 3.189126 1_556
Al0 Pr0 3.189126 1_555
Al0 Nd0 3.287571 1_555
Al0 Nd0 3.287571 1_565
Al1 Al2 2.716457 1_565
Al1 Al3 2.785316 1_566
Al1 Al3 2.785316 1_565
Al1 Al5 2.785316 1_455
Al1 Al5 2.785316 1_456
Al1 Pr0 3.189118 1_555
Al1 Pr0 3.189118 1_556
Al1 Nd0 3.287571 1_455
Al1 Nd0 3.287571 1_565
Al2 Al4 2.785316 1_455
Al2 Al4 2.785316 1_456
Al2 Al3 2.785320 1_556
Al2 Al3 2.785320 1_555
Al2 Pr0 3.189126 1_556
Al2 Pr0 3.189126 1_555
Al2 Nd0 3.287571 1_555
Al2 Nd0 3.287571 1_455
Al3 Al5 2.728101 1_445
Al3 Al4 2.728101 1_455
Al3 Nd0 3.184468 1_555
Al3 Nd0 3.184468 1_554
Al3 Pr0 3.286912 1_545
Al3 Pr0 3.286931 1_555
Al4 Al5 2.728101 1_545
Al4 Nd0 3.184472 1_554
Al4 Nd0 3.184472 1_555
Al4 Pr0 3.286923 1_545
Al4 Pr0 3.286923 1_655
Al5 Nd0 3.184468 1_555
Al5 Nd0 3.184468 1_554
Al5 Pr0 3.286912 1_655
Al5 Pr0 3.286931 1_555
