# generated using pymatgen
data_LaZnCrWO6
_symmetry_space_group_name_H-M   'P 1'
_cell_length_a   5.64597709
_cell_length_b   5.64597709
_cell_length_c   5.64597709
_cell_angle_alpha   60.00000000
_cell_angle_beta   60.00000000
_cell_angle_gamma   60.00000000
_symmetry_Int_Tables_number   1
_chemical_formula_structural   LaZnCrWO6
_chemical_formula_sum   'La1 Zn1 Cr1 W1 O6'
_cell_volume   127.26305308
_cell_formula_units_Z   1
loop_
 _symmetry_equiv_pos_site_id
 _symmetry_equiv_pos_as_xyz
  1  'x, y, z'
loop_
 _atom_site_type_symbol
 _atom_site_label
 _atom_site_symmetry_multiplicity
 _atom_site_fract_x
 _atom_site_fract_y
 _atom_site_fract_z
 _atom_site_occupancy
  La  La0  1  0.75000000  0.75000000  0.75000000  1
  Zn  Zn0  1  0.00000000  -0.00000000  0.00000000  1
  Cr  Cr0  1  0.25000000  0.25000000  0.25000000  1
  W  W0  1  0.50000000  0.50000000  0.50000000  1
  O  O0  1  0.74272696  0.25727304  0.25727304  1
  O  O1  1  0.25727304  0.74272696  0.74272696  1
  O  O2  1  0.74272696  0.25727304  0.74272696  1
  O  O3  1  0.25727304  0.74272696  0.25727304  1
  O  O4  1  0.74272696  0.74272696  0.25727304  1
  O  O5  1  0.25727304  0.25727304  0.74272696  1
loop_
_geom_bond_atom_site_label_1
_geom_bond_atom_site_label_2
_geom_bond_distance
_geom_bond_site_symmetry_2
La0 O1 2.823586 1_555
La0 O2 2.823586 1_555
La0 O4 2.823586 1_555
La0 O0 2.823586 1_556
La0 O3 2.823586 1_556
La0 O0 2.823586 1_565
La0 O3 2.823586 1_655
La0 O5 2.823586 1_565
La0 O5 2.823586 1_655
La0 O4 2.823586 1_556
La0 O1 2.823586 1_655
La0 O2 2.823586 1_565
Cr0 O3 2.823586 1_545
Cr0 O5 2.823586 1_554
Cr0 O0 2.823586 1_455
Cr0 O3 2.823586 1_555
Cr0 O4 2.823586 1_455
Cr0 O1 2.823586 1_554
Cr0 O5 2.823586 1_555
Cr0 O2 2.823586 1_455
Cr0 O2 2.823586 1_554
Cr0 O4 2.823586 1_545
Cr0 O1 2.823586 1_545
Cr0 O0 2.823586 1_555
O0 W0 1.938082 1_555
O0 Zn0 2.054227 1_655
O1 W0 1.938082 1_555
O1 Zn0 2.054227 1_566
O2 W0 1.938082 1_555
O2 Zn0 2.054227 1_656
O3 W0 1.938082 1_555
O3 Zn0 2.054227 1_565
O4 W0 1.938082 1_555
O4 Zn0 2.054227 1_665
O5 W0 1.938082 1_555
O5 Zn0 2.054227 1_556
