# generated using pymatgen
data_Li4Mn3O7
_symmetry_space_group_name_H-M   'P 1'
_cell_length_a   6.88663857
_cell_length_b   6.88663857
_cell_length_c   14.75821585
_cell_angle_alpha   65.77290175
_cell_angle_beta   65.77290175
_cell_angle_gamma   24.16264254
_symmetry_Int_Tables_number   1
_chemical_formula_structural   Li4Mn3O7
_chemical_formula_sum   'Li8 Mn6 O14'
_cell_volume   260.04949087
_cell_formula_units_Z   2
loop_
 _symmetry_equiv_pos_site_id
 _symmetry_equiv_pos_as_xyz
  1  'x, y, z'
loop_
 _atom_site_type_symbol
 _atom_site_label
 _atom_site_symmetry_multiplicity
 _atom_site_fract_x
 _atom_site_fract_y
 _atom_site_fract_z
 _atom_site_occupancy
  Li  Li0  1  0.71146800  0.71146800  0.93060900  1
  Li  Li1  1  0.28853200  0.28853200  0.06939100  1
  Li  Li2  1  0.86531500  0.86531500  0.20897900  1
  Li  Li3  1  0.13468500  0.13468500  0.79102100  1
  Li  Li4  1  0.57314300  0.57314300  0.64300900  1
  Li  Li5  1  0.42685700  0.42685700  0.35699100  1
  Li  Li6  1  0.00000000  0.00000000  0.50000000  1
  Li  Li7  1  0.00000000  0.00000000  0.00000000  1
  Mn  Mn0  1  0.43635400  0.43635400  0.86302000  1
  Mn  Mn1  1  0.56364600  0.56364600  0.13698000  1
  Mn  Mn2  1  0.14064900  0.14064900  0.28209300  1
  Mn  Mn3  1  0.71293900  0.71293900  0.42809600  1
  Mn  Mn4  1  0.28706100  0.28706100  0.57190400  1
  Mn  Mn5  1  0.85935100  0.85935100  0.71790700  1
  O  O0  1  0.86297700  0.86297700  0.95468900  1
  O  O1  1  0.44280900  0.44280900  0.11140000  1
  O  O2  1  0.00499600  0.00499600  0.23656800  1
  O  O3  1  0.29921300  0.29921300  0.81805200  1
  O  O4  1  0.71953800  0.71953800  0.66866200  1
  O  O5  1  0.57387400  0.57387400  0.37965700  1
  O  O6  1  0.14463500  0.14463500  0.52559600  1
  O  O7  1  0.55719100  0.55719100  0.88860000  1
  O  O8  1  0.13702300  0.13702300  0.04531100  1
  O  O9  1  0.70078700  0.70078700  0.18194800  1
  O  O10  1  0.99500400  0.99500400  0.76343200  1
  O  O11  1  0.42612600  0.42612600  0.62034300  1
  O  O12  1  0.28046200  0.28046200  0.33133800  1
  O  O13  1  0.85536500  0.85536500  0.47440400  1
loop_
_geom_bond_atom_site_label_1
_geom_bond_atom_site_label_2
_geom_bond_distance
_geom_bond_site_symmetry_2
Li0 O8 2.126944 1_566
Li0 O8 2.126944 1_656
Li0 O3 2.141473 1_655
Li0 O3 2.141473 1_565
Li0 O0 2.213323 1_555
Li0 O7 2.404781 1_555
Li1 O0 2.126944 1_544
Li1 O0 2.126944 1_454
Li1 O9 2.141473 1_545
Li1 O9 2.141473 1_455
Li1 O8 2.213323 1_555
Li1 O1 2.404781 1_555
Li2 O1 1.994805 1_655
Li2 O1 1.994805 1_565
Li2 O2 2.085135 1_665
Li2 O12 2.216403 1_655
Li2 O12 2.216403 1_565
Li2 O9 2.410660 1_555
Li3 O7 1.994805 1_545
Li3 O7 1.994805 1_455
Li3 O10 2.085135 1_445
Li3 O4 2.216403 1_545
Li3 O4 2.216403 1_455
Li3 O3 2.410660 1_555
Li4 O11 2.142062 1_555
Li4 O6 2.146380 1_565
Li4 O6 2.146380 1_655
Li4 O4 2.158092 1_555
Li4 O10 2.184914 1_455
Li4 O10 2.184914 1_545
Li5 O5 2.142062 1_555
Li5 O13 2.146380 1_455
Li5 O13 2.146380 1_545
Li5 O12 2.158092 1_555
Li5 O2 2.184914 1_655
Li5 O2 2.184914 1_565
Li6 O6 2.134222 1_555
Li6 O13 2.134222 1_445
Li6 O11 2.176860 1_545
Li6 O11 2.176860 1_455
Li6 O5 2.176860 1_545
Li6 O5 2.176860 1_455
Li7 O7 2.076283 1_544
Li7 O7 2.076283 1_454
Li7 O1 2.076283 1_455
Li7 O1 2.076283 1_545
Li7 O8 2.211026 1_555
Li7 O0 2.211026 1_444
Mn0 O7 1.818460 1_555
Mn0 O0 1.939675 1_545
Mn0 O0 1.939675 1_455
Mn0 O10 1.971613 1_455
Mn0 O10 1.971613 1_545
Mn0 O3 2.209254 1_555
Mn1 O1 1.818460 1_555
Mn1 O8 1.939675 1_565
Mn1 O8 1.939675 1_655
Mn1 O2 1.971613 1_655
Mn1 O2 1.971613 1_565
Mn1 O9 2.209254 1_555
Mn2 O5 1.967933 1_455
Mn2 O5 1.967933 1_545
Mn2 O9 1.978191 1_545
Mn2 O9 1.978191 1_455
Mn2 O2 2.195357 1_555
Mn2 O12 2.285302 1_555
Mn3 O12 1.963103 1_565
Mn3 O12 1.963103 1_655
Mn3 O6 1.970621 1_565
Mn3 O6 1.970621 1_655
Mn3 O5 2.267769 1_555
Mn3 O13 2.290620 1_555
Mn4 O4 1.963103 1_545
Mn4 O4 1.963103 1_455
Mn4 O13 1.970621 1_545
Mn4 O13 1.970621 1_455
Mn4 O11 2.267769 1_555
Mn4 O6 2.290620 1_555
Mn5 O11 1.967933 1_655
Mn5 O11 1.967933 1_565
Mn5 O3 1.978191 1_655
Mn5 O3 1.978191 1_565
Mn5 O10 2.195357 1_555
Mn5 O4 2.285302 1_555
