# generated using pymatgen
data_SmCrO4
_symmetry_space_group_name_H-M   'P 1'
_cell_length_a   6.03006353
_cell_length_b   6.03006435
_cell_length_c   6.03006719
_cell_angle_alpha   106.04180670
_cell_angle_beta   106.04182748
_cell_angle_gamma   116.57201574
_symmetry_Int_Tables_number   1
_chemical_formula_structural   SmCrO4
_chemical_formula_sum   'Sm2 Cr2 O8'
_cell_volume   166.82157004
_cell_formula_units_Z   2
loop_
 _symmetry_equiv_pos_site_id
 _symmetry_equiv_pos_as_xyz
  1  'x, y, z'
loop_
 _atom_site_type_symbol
 _atom_site_label
 _atom_site_symmetry_multiplicity
 _atom_site_fract_x
 _atom_site_fract_y
 _atom_site_fract_z
 _atom_site_occupancy
  Sm  Sm0  1  0.37500000  0.62500000  0.75000000  1
  Sm  Sm1  1  0.62500100  0.37500100  0.25000100  1
  Cr  Cr0  1  0.87500000  0.12500100  0.75000000  1
  Cr  Cr1  1  0.12500000  0.87500000  0.25000000  1
  O  O0  1  0.29571039  0.22706088  0.43135149  1
  O  O1  1  0.86673551  0.29627327  0.57046425  1
  O  O2  1  0.22580902  0.29627327  0.92953775  1
  O  O3  1  0.29570939  0.86435890  0.06864851  1
  O  O4  1  0.13564210  0.70429061  0.43135049  1
  O  O5  1  0.70372673  0.77419098  0.57046325  1
  O  O6  1  0.77293912  0.70428961  0.06864851  1
  O  O7  1  0.70372773  0.13326549  0.92953675  1
loop_
_geom_bond_atom_site_label_1
_geom_bond_atom_site_label_2
_geom_bond_distance
_geom_bond_site_symmetry_2
Cr0 O1 1.695687 1_555
Cr0 O7 1.695692 1_555
Cr0 O2 1.695692 1_655
Cr0 O5 1.695695 1_545
Cr1 O4 1.703550 1_555
Cr1 O6 1.703553 1_455
Cr1 O0 1.703554 1_565
Cr1 O3 1.703554 1_555
O0 Sm0 2.365649 1_555
O0 Sm1 2.467585 1_555
O1 Sm1 2.377757 1_555
O1 Sm0 2.457567 1_655
O2 Sm1 2.377764 1_556
O2 Sm0 2.457568 1_555
O3 Sm0 2.365649 1_554
O3 Sm1 2.467588 1_565
O4 Sm0 2.365650 1_555
O4 Sm1 2.467584 1_455
O5 Sm1 2.377759 1_555
O5 Sm0 2.457563 1_555
O6 Sm0 2.365648 1_554
O6 Sm1 2.467583 1_555
O7 Sm1 2.377761 1_556
O7 Sm0 2.457572 1_545
