# generated using pymatgen
data_TmCo2B2C
_symmetry_space_group_name_H-M   'P 1'
_cell_length_a   3.48342000
_cell_length_b   3.48342000
_cell_length_c   5.75421289
_cell_angle_alpha   107.61890100
_cell_angle_beta   107.61890100
_cell_angle_gamma   90.00000000
_symmetry_Int_Tables_number   1
_chemical_formula_structural   TmCo2B2C
_chemical_formula_sum   'Tm1 Co2 B2 C1'
_cell_volume   63.10241926
_cell_formula_units_Z   1
loop_
 _symmetry_equiv_pos_site_id
 _symmetry_equiv_pos_as_xyz
  1  'x, y, z'
loop_
 _atom_site_type_symbol
 _atom_site_label
 _atom_site_symmetry_multiplicity
 _atom_site_fract_x
 _atom_site_fract_y
 _atom_site_fract_z
 _atom_site_occupancy
  Tm  Tm0  1  0.00000000  0.00000000  0.00000000  1
  Co  Co0  1  0.75000000  0.25000000  0.50000000  1
  Co  Co1  1  0.25000000  0.75000000  0.50000000  1
  B  B0  1  0.64412700  0.64412700  0.28825400  1
  B  B1  1  0.35587300  0.35587300  0.71174600  1
  C  C0  1  0.50000000  0.50000000  0.00000000  1
loop_
_geom_bond_atom_site_label_1
_geom_bond_atom_site_label_2
_geom_bond_distance
_geom_bond_site_symmetry_2
B0 C0 1.499028 1_555
B0 Co0 2.060607 1_555
B0 Co1 2.060607 1_555
B0 Co0 2.060607 1_565
B0 Co1 2.060607 1_655
B1 C0 1.499028 1_556
B1 Co0 2.060607 1_555
B1 Co1 2.060607 1_555
B1 Co1 2.060607 1_545
B1 Co0 2.060607 1_455
C0 Tm0 2.463150 1_555
C0 Tm0 2.463150 1_655
C0 Tm0 2.463150 1_565
C0 Tm0 2.463150 1_665
