# generated using pymatgen
data_BaNb4Bi4PbO18
_symmetry_space_group_name_H-M   'P 1'
_cell_length_a   12.82314479
_cell_length_b   12.82314479
_cell_length_c   5.66769000
_cell_angle_alpha   90.00000000
_cell_angle_beta   90.00000000
_cell_angle_gamma   154.40159879
_symmetry_Int_Tables_number   1
_chemical_formula_structural   BaNb4Bi4PbO18
_chemical_formula_sum   'Ba1 Nb4 Bi4 Pb1 O18'
_cell_volume   402.66124167
_cell_formula_units_Z   1
loop_
 _symmetry_equiv_pos_site_id
 _symmetry_equiv_pos_as_xyz
  1  'x, y, z'
loop_
 _atom_site_type_symbol
 _atom_site_label
 _atom_site_symmetry_multiplicity
 _atom_site_fract_x
 _atom_site_fract_y
 _atom_site_fract_z
 _atom_site_occupancy
  Ba  Ba0  1  0.24159700  0.24159700  0.50000000  1
  Nb  Nb0  1  0.82445800  0.65000800  0.50000000  1
  Nb  Nb1  1  0.32561300  0.15020300  0.00000000  1
  Nb  Nb2  1  0.15020300  0.32561300  0.00000000  1
  Nb  Nb3  1  0.65000800  0.82445800  0.50000000  1
  Bi  Bi0  1  0.49052200  0.08612100  0.50000000  1
  Bi  Bi1  1  0.90254000  0.50075700  0.00000000  1
  Bi  Bi2  1  0.50075700  0.90254000  0.00000000  1
  Bi  Bi3  1  0.08612100  0.49052200  0.50000000  1
  Pb  Pb0  1  0.71124000  0.71124000  0.00000000  1
  O  O0  1  0.77272400  0.77272400  0.50000000  1
  O  O1  1  0.24782400  0.24782400  0.00000000  1
  O  O2  1  0.09820900  0.92400000  0.25458600  1
  O  O3  1  0.09820900  0.92400000  0.74541400  1
  O  O4  1  0.92400000  0.09820900  0.25458600  1
  O  O5  1  0.92400000  0.09820900  0.74541400  1
  O  O6  1  0.24665600  0.75292000  0.25047200  1
  O  O7  1  0.24665600  0.75292000  0.74952800  1
  O  O8  1  0.75292000  0.24665600  0.25047200  1
  O  O9  1  0.75292000  0.24665600  0.74952800  1
  O  O10  1  0.43716400  0.58629800  0.24501600  1
  O  O11  1  0.43716400  0.58629800  0.75498400  1
  O  O12  1  0.58629800  0.43716400  0.24501600  1
  O  O13  1  0.58629800  0.43716400  0.75498400  1
  O  O14  1  0.84618800  0.52182600  0.50000000  1
  O  O15  1  0.48059200  0.15733800  0.00000000  1
  O  O16  1  0.15733800  0.48059200  0.00000000  1
  O  O17  1  0.52182600  0.84618800  0.50000000  1
loop_
_geom_bond_atom_site_label_1
_geom_bond_atom_site_label_2
_geom_bond_distance
_geom_bond_site_symmetry_2
Ba0 O0 2.663924 1_445
Ba0 O13 2.814556 1_555
Ba0 O10 2.814556 1_555
Ba0 O11 2.814556 1_555
Ba0 O12 2.814556 1_555
Ba0 O1 2.834066 1_555
Ba0 O1 2.834066 1_556
Ba0 O2 2.897421 1_545
Ba0 O5 2.897421 1_455
Ba0 O3 2.897421 1_545
Ba0 O4 2.897421 1_455
Ba0 O0 3.017624 1_555
Nb0 O14 1.898813 1_555
Nb0 O13 1.957091 1_555
Nb0 O12 1.957091 1_555
Nb0 O2 2.087074 1_655
Nb0 O3 2.087074 1_655
Nb0 O0 2.190714 1_555
Nb1 O15 1.905216 1_555
Nb1 O3 1.934607 1_544
Nb1 O2 1.934607 1_545
Nb1 O13 2.111089 1_554
Nb1 O12 2.111089 1_555
Nb1 O1 2.194141 1_555
Nb2 O16 1.905216 1_555
Nb2 O5 1.934607 1_454
Nb2 O4 1.934607 1_455
Nb2 O11 2.111089 1_554
Nb2 O10 2.111089 1_555
Nb2 O1 2.194141 1_555
Nb3 O17 1.898813 1_555
Nb3 O10 1.957091 1_555
Nb3 O11 1.957091 1_555
Nb3 O4 2.087074 1_565
Nb3 O5 2.087074 1_565
Nb3 O0 2.190714 1_555
Bi0 O9 2.250784 1_555
Bi0 O8 2.250784 1_555
Bi0 O6 2.436257 1_545
Bi0 O7 2.436257 1_545
Bi0 O14 2.460829 1_555
Bi1 O9 2.244436 1_554
Bi1 O8 2.244436 1_555
Bi1 O15 2.385698 1_555
Bi1 O7 2.491313 1_654
Bi1 O6 2.491313 1_655
Bi2 O6 2.244436 1_555
Bi2 O7 2.244436 1_554
Bi2 O16 2.385698 1_555
Bi2 O8 2.491313 1_565
Bi2 O9 2.491313 1_564
Bi3 O6 2.250784 1_555
Bi3 O7 2.250784 1_555
Bi3 O9 2.436257 1_455
Bi3 O8 2.436257 1_455
Bi3 O17 2.460829 1_555
O1 Pb0 2.632920 1_555
O10 Pb0 2.586687 1_555
O11 Pb0 2.586687 1_556
O12 Pb0 2.586687 1_555
O13 Pb0 2.586687 1_556
