# generated using pymatgen
data_Mg30TiSnO32
_symmetry_space_group_name_H-M   'P 1'
_cell_length_a   8.60169300
_cell_length_b   8.60169300
_cell_length_c   8.62616200
_cell_angle_alpha   90.00000000
_cell_angle_beta   90.00000000
_cell_angle_gamma   90.00000000
_symmetry_Int_Tables_number   1
_chemical_formula_structural   Mg30TiSnO32
_chemical_formula_sum   'Mg30 Ti1 Sn1 O32'
_cell_volume   638.24215663
_cell_formula_units_Z   1
loop_
 _symmetry_equiv_pos_site_id
 _symmetry_equiv_pos_as_xyz
  1  'x, y, z'
loop_
 _atom_site_type_symbol
 _atom_site_label
 _atom_site_symmetry_multiplicity
 _atom_site_fract_x
 _atom_site_fract_y
 _atom_site_fract_z
 _atom_site_occupancy
  Mg  Mg0  1  0.00000000  0.50000000  0.00000000  1
  Mg  Mg1  1  0.50000000  0.00000000  0.00000000  1
  Mg  Mg2  1  0.00000000  0.00000000  0.50000000  1
  Mg  Mg3  1  0.00000000  0.50000000  0.50000000  1
  Mg  Mg4  1  0.50000000  0.00000000  0.50000000  1
  Mg  Mg5  1  0.50000000  0.50000000  0.50000000  1
  Mg  Mg6  1  0.25239600  0.25239600  0.00000000  1
  Mg  Mg7  1  0.25239600  0.74760400  0.00000000  1
  Mg  Mg8  1  0.74760400  0.25239600  0.00000000  1
  Mg  Mg9  1  0.74760400  0.74760400  0.00000000  1
  Mg  Mg10  1  0.25053100  0.25053100  0.50000000  1
  Mg  Mg11  1  0.25053100  0.74946900  0.50000000  1
  Mg  Mg12  1  0.74946900  0.25053100  0.50000000  1
  Mg  Mg13  1  0.74946900  0.74946900  0.50000000  1
  Mg  Mg14  1  0.00000000  0.25460400  0.25488400  1
  Mg  Mg15  1  0.00000000  0.74539600  0.25488400  1
  Mg  Mg16  1  0.50000000  0.25081900  0.25130300  1
  Mg  Mg17  1  0.50000000  0.74918100  0.25130300  1
  Mg  Mg18  1  0.00000000  0.25460400  0.74511600  1
  Mg  Mg19  1  0.00000000  0.74539600  0.74511600  1
  Mg  Mg20  1  0.50000000  0.25081900  0.74869700  1
  Mg  Mg21  1  0.50000000  0.74918100  0.74869700  1
  Mg  Mg22  1  0.25460400  0.00000000  0.25488400  1
  Mg  Mg23  1  0.25081900  0.50000000  0.25130300  1
  Mg  Mg24  1  0.74539600  0.00000000  0.25488400  1
  Mg  Mg25  1  0.74918100  0.50000000  0.25130300  1
  Mg  Mg26  1  0.25460400  0.00000000  0.74511600  1
  Mg  Mg27  1  0.25081900  0.50000000  0.74869700  1
  Mg  Mg28  1  0.74539600  0.00000000  0.74511600  1
  Mg  Mg29  1  0.74918100  0.50000000  0.74869700  1
  Ti  Ti0  1  0.50000000  0.50000000  0.00000000  1
  Sn  Sn0  1  0.00000000  0.00000000  0.00000000  1
  O  O0  1  0.00000000  0.00000000  0.27009100  1
  O  O1  1  0.00000000  0.50000000  0.25340500  1
  O  O2  1  0.50000000  0.00000000  0.25340500  1
  O  O3  1  0.50000000  0.50000000  0.26077100  1
  O  O4  1  0.00000000  0.00000000  0.72990900  1
  O  O5  1  0.00000000  0.50000000  0.74659500  1
  O  O6  1  0.50000000  0.00000000  0.74659500  1
  O  O7  1  0.50000000  0.50000000  0.73922900  1
  O  O8  1  0.24959500  0.24959500  0.24914200  1
  O  O9  1  0.24959500  0.75040500  0.24914200  1
  O  O10  1  0.75040500  0.24959500  0.24914200  1
  O  O11  1  0.75040500  0.75040500  0.24914200  1
  O  O12  1  0.24959500  0.24959500  0.75085800  1
  O  O13  1  0.24959500  0.75040500  0.75085800  1
  O  O14  1  0.75040500  0.24959500  0.75085800  1
  O  O15  1  0.75040500  0.75040500  0.75085800  1
  O  O16  1  0.00000000  0.26993600  0.00000000  1
  O  O17  1  0.00000000  0.73006400  0.00000000  1
  O  O18  1  0.50000000  0.24927400  0.00000000  1
  O  O19  1  0.50000000  0.75072600  0.00000000  1
  O  O20  1  0.00000000  0.25296600  0.50000000  1
  O  O21  1  0.00000000  0.74703400  0.50000000  1
  O  O22  1  0.50000000  0.24923600  0.50000000  1
  O  O23  1  0.50000000  0.75076400  0.50000000  1
  O  O24  1  0.26993600  0.00000000  0.00000000  1
  O  O25  1  0.24927400  0.50000000  0.00000000  1
  O  O26  1  0.73006400  0.00000000  0.00000000  1
  O  O27  1  0.75072600  0.50000000  0.00000000  1
  O  O28  1  0.25296600  0.00000000  0.50000000  1
  O  O29  1  0.24923600  0.50000000  0.50000000  1
  O  O30  1  0.74703400  0.00000000  0.50000000  1
  O  O31  1  0.75076400  0.50000000  0.50000000  1
loop_
_geom_bond_atom_site_label_1
_geom_bond_atom_site_label_2
_geom_bond_distance
_geom_bond_site_symmetry_2
Mg0 O16 1.978940 1_555
Mg0 O17 1.978940 1_555
Mg0 O25 2.144178 1_555
Mg0 O27 2.144178 1_455
Mg0 O1 2.185913 1_555
Mg0 O5 2.185913 1_554
Mg1 O24 1.978940 1_555
Mg1 O26 1.978940 1_555
Mg1 O19 2.144178 1_545
Mg1 O18 2.144178 1_555
Mg1 O2 2.185913 1_555
Mg1 O6 2.185913 1_554
Mg2 O0 1.983232 1_555
Mg2 O4 1.983232 1_555
Mg2 O20 2.175936 1_555
Mg2 O28 2.175936 1_555
Mg2 O30 2.175936 1_455
Mg2 O21 2.175936 1_545
Mg3 O21 2.124911 1_555
Mg3 O20 2.124911 1_555
Mg3 O1 2.127168 1_555
Mg3 O5 2.127168 1_555
Mg3 O29 2.143852 1_555
Mg3 O31 2.143852 1_455
Mg4 O28 2.124911 1_555
Mg4 O30 2.124911 1_555
Mg4 O6 2.127168 1_555
Mg4 O2 2.127168 1_555
Mg4 O23 2.143852 1_545
Mg4 O22 2.143852 1_555
Mg5 O3 2.063628 1_555
Mg5 O7 2.063628 1_555
Mg5 O29 2.156995 1_555
Mg5 O31 2.156995 1_555
Mg5 O22 2.156995 1_555
Mg5 O23 2.156995 1_555
Mg6 O18 2.129983 1_555
Mg6 O25 2.129983 1_555
Mg6 O12 2.149409 1_554
Mg6 O8 2.149409 1_555
Mg6 O24 2.176269 1_555
Mg6 O16 2.176269 1_555
Mg7 O19 2.129983 1_555
Mg7 O25 2.129983 1_555
Mg7 O13 2.149409 1_554
Mg7 O9 2.149409 1_555
Mg7 O24 2.176269 1_565
Mg7 O17 2.176269 1_555
Mg8 O27 2.129983 1_555
Mg8 O18 2.129983 1_555
Mg8 O14 2.149409 1_554
Mg8 O10 2.149409 1_555
Mg8 O16 2.176269 1_655
Mg8 O26 2.176269 1_555
Mg9 O19 2.129983 1_555
Mg9 O27 2.129983 1_555
Mg9 O15 2.149409 1_554
Mg9 O11 2.149409 1_555
Mg9 O26 2.176269 1_565
Mg9 O17 2.176269 1_655
Mg10 O22 2.145885 1_555
Mg10 O29 2.145885 1_555
Mg10 O28 2.155093 1_555
Mg10 O20 2.155093 1_555
Mg10 O12 2.163972 1_555
Mg10 O8 2.163972 1_555
Mg11 O23 2.145885 1_555
Mg11 O29 2.145885 1_555
Mg11 O28 2.155093 1_565
Mg11 O21 2.155093 1_555
Mg11 O13 2.163972 1_555
Mg11 O9 2.163972 1_555
Mg12 O31 2.145885 1_555
Mg12 O22 2.145885 1_555
Mg12 O20 2.155093 1_655
Mg12 O30 2.155093 1_555
Mg12 O10 2.163972 1_555
Mg12 O14 2.163972 1_555
Mg13 O31 2.145885 1_555
Mg13 O23 2.145885 1_555
Mg13 O30 2.155093 1_565
Mg13 O21 2.155093 1_655
Mg13 O11 2.163972 1_555
Mg13 O15 2.163972 1_555
Mg14 O1 2.110860 1_555
Mg14 O20 2.114457 1_555
Mg14 O10 2.147943 1_455
Mg14 O8 2.147943 1_555
Mg14 O0 2.193951 1_555
Mg14 O16 2.202622 1_555
Mg15 O1 2.110860 1_555
Mg15 O21 2.114457 1_555
Mg15 O9 2.147943 1_555
Mg15 O11 2.147943 1_455
Mg15 O0 2.193951 1_565
Mg15 O17 2.202622 1_555
Mg16 O3 2.144934 1_555
Mg16 O22 2.145344 1_555
Mg16 O10 2.154013 1_555
Mg16 O8 2.154013 1_555
Mg16 O2 2.157544 1_555
Mg16 O18 2.167821 1_555
Mg17 O3 2.144934 1_555
Mg17 O23 2.145344 1_555
Mg17 O11 2.154013 1_555
Mg17 O9 2.154013 1_555
Mg17 O2 2.157544 1_565
Mg17 O19 2.167821 1_555
Mg18 O5 2.110860 1_555
Mg18 O20 2.114457 1_555
Mg18 O14 2.147943 1_455
Mg18 O12 2.147943 1_555
Mg18 O4 2.193951 1_555
Mg18 O16 2.202622 1_556
Mg19 O5 2.110860 1_555
Mg19 O21 2.114457 1_555
Mg19 O13 2.147943 1_555
Mg19 O15 2.147943 1_455
Mg19 O4 2.193951 1_565
Mg19 O17 2.202622 1_556
Mg20 O7 2.144934 1_555
Mg20 O22 2.145344 1_555
Mg20 O12 2.154013 1_555
Mg20 O14 2.154013 1_555
Mg20 O6 2.157544 1_555
Mg20 O18 2.167821 1_556
Mg21 O7 2.144934 1_555
Mg21 O23 2.145344 1_555
Mg21 O15 2.154013 1_555
Mg21 O13 2.154013 1_555
Mg21 O6 2.157544 1_565
Mg21 O19 2.167821 1_556
Mg22 O2 2.110860 1_555
Mg22 O28 2.114457 1_555
Mg22 O9 2.147943 1_545
Mg22 O8 2.147943 1_555
Mg22 O0 2.193951 1_555
Mg22 O24 2.202622 1_555
Mg23 O3 2.144934 1_555
Mg23 O29 2.145344 1_555
Mg23 O9 2.154013 1_555
Mg23 O8 2.154013 1_555
Mg23 O1 2.157544 1_555
Mg23 O25 2.167821 1_555
Mg24 O2 2.110860 1_555
Mg24 O30 2.114457 1_555
Mg24 O11 2.147943 1_545
Mg24 O10 2.147943 1_555
Mg24 O0 2.193951 1_655
Mg24 O26 2.202622 1_555
Mg25 O3 2.144934 1_555
Mg25 O31 2.145344 1_555
Mg25 O10 2.154013 1_555
Mg25 O11 2.154013 1_555
Mg25 O1 2.157544 1_655
Mg25 O27 2.167821 1_555
Mg26 O6 2.110860 1_555
Mg26 O28 2.114457 1_555
Mg26 O12 2.147943 1_555
Mg26 O13 2.147943 1_545
Mg26 O4 2.193951 1_555
Mg26 O24 2.202622 1_556
Mg27 O7 2.144934 1_555
Mg27 O29 2.145344 1_555
Mg27 O13 2.154013 1_555
Mg27 O12 2.154013 1_555
Mg27 O5 2.157544 1_555
Mg27 O25 2.167821 1_556
Mg28 O6 2.110860 1_555
Mg28 O30 2.114457 1_555
Mg28 O15 2.147943 1_545
Mg28 O14 2.147943 1_555
Mg28 O4 2.193951 1_655
Mg28 O26 2.202622 1_556
Mg29 O7 2.144934 1_555
Mg29 O31 2.145344 1_555
Mg29 O15 2.154013 1_555
Mg29 O14 2.154013 1_555
Mg29 O5 2.157544 1_655
Mg29 O27 2.167821 1_556
O0 Sn0 2.329849 1_555
O3 Ti0 2.249453 1_555
O4 Sn0 2.329849 1_556
O7 Ti0 2.249453 1_556
O16 Sn0 2.321907 1_555
O17 Sn0 2.321907 1_565
O18 Ti0 2.156668 1_555
O19 Ti0 2.156668 1_555
O24 Sn0 2.321907 1_555
O25 Ti0 2.156668 1_555
O26 Sn0 2.321907 1_655
O27 Ti0 2.156668 1_555
