# generated using pymatgen
data_K3(InAu)8
_symmetry_space_group_name_H-M   'P 1'
_cell_length_a   5.89072348
_cell_length_b   13.09640600
_cell_length_c   13.03494853
_cell_angle_alpha   90.00000000
_cell_angle_beta   90.21165910
_cell_angle_gamma   90.00000000
_symmetry_Int_Tables_number   1
_chemical_formula_structural   K3(InAu)8
_chemical_formula_sum   'K6 In16 Au16'
_cell_volume   1005.60430559
_cell_formula_units_Z   2
loop_
 _symmetry_equiv_pos_site_id
 _symmetry_equiv_pos_as_xyz
  1  'x, y, z'
loop_
 _atom_site_type_symbol
 _atom_site_label
 _atom_site_symmetry_multiplicity
 _atom_site_fract_x
 _atom_site_fract_y
 _atom_site_fract_z
 _atom_site_occupancy
  K  K0  1  0.24945800  0.99930000  0.49879700  1
  K  K1  1  0.24945800  0.50070000  0.49879700  1
  K  K2  1  0.75034900  0.00101000  0.99929800  1
  K  K3  1  0.75034900  0.49899000  0.99929800  1
  K  K4  1  0.74963700  0.00076000  0.50130500  1
  K  K5  1  0.74963700  0.49924000  0.50130500  1
  In  In0  1  0.97909100  0.12495400  0.75151600  1
  In  In1  1  0.97909100  0.37504600  0.75151600  1
  In  In2  1  0.47031900  0.75000000  0.12371700  1
  In  In3  1  0.47642000  0.75000000  0.37441200  1
  In  In4  1  0.02817700  0.87585500  0.24827700  1
  In  In5  1  0.02817700  0.62414500  0.24827700  1
  In  In6  1  0.51975800  0.25000000  0.87530400  1
  In  In7  1  0.52577700  0.25000000  0.62521400  1
  In  In8  1  0.63421600  0.62504300  0.75030100  1
  In  In9  1  0.63421600  0.87495700  0.75030100  1
  In  In10  1  0.13738700  0.75000000  0.62615600  1
  In  In11  1  0.14241100  0.75000000  0.87696100  1
  In  In12  1  0.36037600  0.37569400  0.24725900  1
  In  In13  1  0.36037600  0.12430600  0.24725900  1
  In  In14  1  0.86278300  0.25000000  0.37492000  1
  In  In15  1  0.86295600  0.25000000  0.12554000  1
  Au  Au0  1  0.47986000  0.07653600  0.74824600  1
  Au  Au1  1  0.47986000  0.42346400  0.74824600  1
  Au  Au2  1  0.97678100  0.75000000  0.07702300  1
  Au  Au3  1  0.97984500  0.75000000  0.42313400  1
  Au  Au4  1  0.52181100  0.92347800  0.25201000  1
  Au  Au5  1  0.52181100  0.57652200  0.25201000  1
  Au  Au6  1  0.02133500  0.25000000  0.92384000  1
  Au  Au7  1  0.02084900  0.25000000  0.57671700  1
  Au  Au8  1  0.12667000  0.57553900  0.74905300  1
  Au  Au9  1  0.12667000  0.92446100  0.74905300  1
  Au  Au10  1  0.62769800  0.75000000  0.57531000  1
  Au  Au11  1  0.63086300  0.75000000  0.92418100  1
  Au  Au12  1  0.87194200  0.42446200  0.25229300  1
  Au  Au13  1  0.87194200  0.07553800  0.25229300  1
  Au  Au14  1  0.37242400  0.25000000  0.42408500  1
  Au  Au15  1  0.36922000  0.25000000  0.07537700  1
loop_
_geom_bond_atom_site_label_1
_geom_bond_atom_site_label_2
_geom_bond_distance
_geom_bond_site_symmetry_2
K0 K4 2.944672 1_465
K0 K4 2.946539 1_565
K1 K5 2.944672 1_455
K1 K5 2.946539 1_555
In0 K2 3.861918 1_555
In0 K4 3.882934 1_555
In0 K0 4.016838 1_645
In1 K3 3.861918 1_555
In1 K5 3.882934 1_555
In1 K1 4.016838 1_655
In2 K2 4.022142 1_564
In2 K3 4.022142 1_554
In3 K1 3.884853 1_555
In3 K0 3.884853 1_555
In3 K5 4.011424 1_555
In3 K4 4.011424 1_565
In4 K0 3.865869 1_555
In4 K2 3.982290 1_464
In4 K4 4.035622 1_465
In5 K1 3.865869 1_555
In5 K3 3.982290 1_454
In5 K5 4.035622 1_455
In6 K2 3.882585 1_555
In6 K3 3.882585 1_555
In7 K4 3.875315 1_555
In7 K5 3.875315 1_555
In7 K0 4.015580 1_545
In7 K1 4.015580 1_555
In8 K3 3.702864 1_555
In8 K5 3.705038 1_555
In9 K2 3.702864 1_565
In9 K4 3.705038 1_565
In10 K1 3.722864 1_555
In10 K0 3.722864 1_555
In12 K1 3.724697 1_555
In13 K0 3.724697 1_545
In14 K4 3.717662 1_555
In14 K5 3.717662 1_555
In15 K2 3.711214 1_554
In15 K3 3.711214 1_554
Au0 In9 2.792257 1_545
Au0 In7 2.794484 1_555
Au0 In6 2.820676 1_555
Au0 Au9 2.880200 1_545
Au0 In0 3.008566 1_555
Au0 In0 3.017730 1_455
Au0 K0 3.661318 1_545
Au0 K4 3.729506 1_555
Au0 K2 3.766644 1_555
Au1 In8 2.792257 1_555
Au1 In7 2.794484 1_555
Au1 In6 2.820676 1_555
Au1 Au8 2.880200 1_555
Au1 In1 3.008566 1_555
Au1 In1 3.017730 1_455
Au1 K1 3.661318 1_555
Au1 K5 3.729506 1_555
Au1 K3 3.766644 1_555
Au2 In11 2.787716 1_654
Au2 In4 2.790430 1_655
Au2 In5 2.790430 1_655
Au2 In2 2.968123 1_655
Au2 In2 3.047083 1_555
Au2 K3 3.688110 1_554
Au2 K2 3.688110 1_564
Au3 In10 2.801150 1_655
Au3 In4 2.827997 1_655
Au3 In5 2.827997 1_655
Au3 In3 2.995626 1_655
Au3 In3 3.030484 1_555
Au3 K5 3.697631 1_555
Au3 K4 3.697631 1_565
Au3 K1 3.760767 1_655
Au3 K0 3.760767 1_655
Au4 In3 2.789621 1_555
Au4 In13 2.797374 1_565
Au4 In2 2.836640 1_555
Au4 In4 2.974217 1_555
Au4 In4 3.047933 1_655
Au4 K4 3.654154 1_565
Au4 K2 3.705023 1_564
Au4 K0 3.734473 1_555
Au5 In3 2.789621 1_555
Au5 In12 2.797374 1_555
Au5 In2 2.836640 1_555
Au5 In5 2.974217 1_555
Au5 In5 3.047933 1_655
Au5 K5 3.654154 1_555
Au5 K3 3.705023 1_554
Au5 K1 3.734473 1_555
Au6 In1 2.790210 1_455
Au6 In0 2.790210 1_455
Au6 In15 2.793023 1_456
Au6 In6 3.005746 1_555
Au6 In6 3.019341 1_455
Au6 K2 3.763049 1_455
Au6 K3 3.763049 1_455
Au7 In14 2.787108 1_455
Au7 In1 2.817464 1_455
Au7 In0 2.817464 1_455
Au7 In7 2.986342 1_455
Au7 In7 3.038541 1_555
Au7 K0 3.692574 1_545
Au7 K1 3.692574 1_555
Au7 K4 3.763213 1_455
Au7 K5 3.763213 1_455
Au8 In1 2.766134 1_455
Au8 In10 2.791301 1_555
Au8 In11 2.829775 1_555
Au8 In8 2.972578 1_455
Au8 In8 3.059283 1_555
Au8 K1 3.484591 1_555
Au8 K5 4.038222 1_455
Au8 K3 4.075889 1_455
Au9 In0 2.766134 1_465
Au9 In10 2.791301 1_555
Au9 In11 2.829775 1_555
Au9 In9 2.972578 1_455
Au9 In9 3.059283 1_555
Au9 K0 3.484591 1_555
Au9 K4 4.038222 1_465
Au9 K2 4.075889 1_465
Au10 In3 2.763050 1_555
Au10 In9 2.807468 1_555
Au10 In8 2.807468 1_555
Au10 Au3 2.875454 1_555
Au10 In10 2.965740 1_555
Au10 In10 3.072327 1_655
Au10 K5 3.498093 1_555
Au10 K4 3.498093 1_565
Au10 K1 4.074620 1_555
Au10 K0 4.074620 1_555
Au11 In2 2.770822 1_556
Au11 In9 2.795695 1_555
Au11 In8 2.795695 1_555
Au11 Au2 2.844550 1_556
Au11 In11 2.940209 1_555
Au11 In11 3.077834 1_655
Au11 K2 3.500798 1_565
Au11 K3 3.500798 1_555
Au12 In5 2.772908 1_655
Au12 In14 2.789081 1_555
Au12 In15 2.820002 1_555
Au12 Au5 2.867019 1_555
Au12 In12 2.948232 1_655
Au12 In12 3.080894 1_555
Au12 K5 3.468576 1_555
Au12 K3 3.510498 1_554
Au12 K1 4.026663 1_655
Au13 In4 2.772908 1_645
Au13 In14 2.789081 1_555
Au13 In15 2.820002 1_555
Au13 Au4 2.867019 1_545
Au13 In13 2.948232 1_655
Au13 In13 3.080894 1_555
Au13 K4 3.468576 1_555
Au13 K2 3.510498 1_554
Au13 K0 4.026663 1_645
Au14 In7 2.769820 1_555
Au14 In12 2.833064 1_555
Au14 In13 2.833064 1_555
Au14 Au7 2.877138 1_555
Au14 In14 2.961117 1_555
Au14 In14 3.067478 1_455
Au14 K0 3.501168 1_545
Au14 K1 3.501168 1_555
Au14 K4 4.072940 1_555
Au14 K5 4.072940 1_555
Au15 In6 2.757684 1_554
Au15 In12 2.780840 1_555
Au15 In13 2.780840 1_555
Au15 Au6 2.841024 1_554
Au15 In15 2.978699 1_555
Au15 In15 3.055460 1_455
Au15 K3 4.083354 1_554
Au15 K2 4.083354 1_554
