# generated using pymatgen
data_Sc7Cr5Ge9
_symmetry_space_group_name_H-M   'P 1'
_cell_length_a   9.96614672
_cell_length_b   9.96614672
_cell_length_c   9.95373707
_cell_angle_alpha   60.23481195
_cell_angle_beta   60.23481195
_cell_angle_gamma   90.47803409
_symmetry_Int_Tables_number   1
_chemical_formula_structural   Sc7Cr5Ge9
_chemical_formula_sum   'Sc14 Cr10 Ge18'
_cell_volume   701.10209583
_cell_formula_units_Z   2
loop_
 _symmetry_equiv_pos_site_id
 _symmetry_equiv_pos_as_xyz
  1  'x, y, z'
loop_
 _atom_site_type_symbol
 _atom_site_label
 _atom_site_symmetry_multiplicity
 _atom_site_fract_x
 _atom_site_fract_y
 _atom_site_fract_z
 _atom_site_occupancy
  Sc  Sc0  1  0.83745400  0.83745400  0.32509100  1
  Sc  Sc1  1  0.16254600  0.16254600  0.67490900  1
  Sc  Sc2  1  0.43490700  0.68669000  0.62303400  1
  Sc  Sc3  1  0.94205900  0.69027600  0.62303400  1
  Sc  Sc4  1  0.69027600  0.94205900  0.62303400  1
  Sc  Sc5  1  0.68669000  0.43490700  0.62303400  1
  Sc  Sc6  1  0.56509300  0.31331000  0.37696600  1
  Sc  Sc7  1  0.05794100  0.30972400  0.37696600  1
  Sc  Sc8  1  0.30972400  0.05794100  0.37696600  1
  Sc  Sc9  1  0.31331000  0.56509300  0.37696600  1
  Sc  Sc10  1  0.67823300  0.32176700  0.00000000  1
  Sc  Sc11  1  0.32176700  0.67823300  0.00000000  1
  Sc  Sc12  1  0.32016200  0.32016200  0.00000000  1
  Sc  Sc13  1  0.67983800  0.67983800  0.00000000  1
  Cr  Cr0  1  0.58326600  0.90379100  0.19372100  1
  Cr  Cr1  1  0.22301300  0.90248800  0.19372100  1
  Cr  Cr2  1  0.90248800  0.22301300  0.19372100  1
  Cr  Cr3  1  0.90379100  0.58326600  0.19372100  1
  Cr  Cr4  1  0.41673400  0.09620900  0.80627900  1
  Cr  Cr5  1  0.77698700  0.09751200  0.80627900  1
  Cr  Cr6  1  0.09751200  0.77698700  0.80627900  1
  Cr  Cr7  1  0.09620900  0.41673400  0.80627900  1
  Cr  Cr8  1  0.12311200  0.12311200  0.00000000  1
  Cr  Cr9  1  0.87688800  0.87688800  0.00000000  1
  Ge  Ge0  1  0.50069100  0.87406500  0.00000000  1
  Ge  Ge1  1  0.49930900  0.12593500  0.00000000  1
  Ge  Ge2  1  0.87406500  0.50069100  0.00000000  1
  Ge  Ge3  1  0.12593500  0.49930900  0.00000000  1
  Ge  Ge4  1  0.61110900  0.61110900  0.77778100  1
  Ge  Ge5  1  0.38889100  0.38889100  0.22221900  1
  Ge  Ge6  1  0.25000000  0.75000000  0.50000000  1
  Ge  Ge7  1  0.75000000  0.25000000  0.50000000  1
  Ge  Ge8  1  0.62296700  0.03849600  0.33853700  1
  Ge  Ge9  1  0.03849600  0.62296700  0.33853700  1
  Ge  Ge10  1  0.03880200  0.03880200  0.32786700  1
  Ge  Ge11  1  0.63333000  0.63333000  0.32786700  1
  Ge  Ge12  1  0.37703300  0.96150400  0.66146300  1
  Ge  Ge13  1  0.96150400  0.37703300  0.66146300  1
  Ge  Ge14  1  0.96119800  0.96119800  0.67213300  1
  Ge  Ge15  1  0.36667000  0.36667000  0.67213300  1
  Ge  Ge16  1  0.87447500  0.12552500  0.00000000  1
  Ge  Ge17  1  0.12552500  0.87447500  0.00000000  1
loop_
_geom_bond_atom_site_label_1
_geom_bond_atom_site_label_2
_geom_bond_distance
_geom_bond_site_symmetry_2
Cr0 Ge11 2.531345 1_555
Cr0 Ge8 2.552538 1_565
Cr0 Ge0 2.573299 1_555
Cr0 Ge1 2.591121 1_565
Cr0 Ge16 2.670236 1_565
Cr0 Cr9 2.697604 1_555
Cr0 Ge6 2.810122 1_555
Cr1 Ge10 2.531342 1_565
Cr1 Ge9 2.552538 1_555
Cr1 Ge1 2.573298 1_565
Cr1 Ge0 2.591121 1_555
Cr1 Ge17 2.670236 1_555
Cr1 Cr8 2.697604 1_565
Cr1 Ge6 2.810123 1_555
Cr2 Ge10 2.531342 1_655
Cr2 Ge8 2.552538 1_555
Cr2 Ge3 2.573298 1_655
Cr2 Ge2 2.591121 1_555
Cr2 Ge16 2.670236 1_555
Cr2 Cr8 2.697604 1_655
Cr2 Ge7 2.810123 1_555
Cr3 Ge11 2.531345 1_555
Cr3 Ge9 2.552538 1_655
Cr3 Ge2 2.573299 1_555
Cr3 Ge3 2.591121 1_655
Cr3 Ge17 2.670236 1_655
Cr3 Cr9 2.697604 1_555
Cr3 Ge7 2.810122 1_555
Cr4 Ge15 2.531345 1_555
Cr4 Ge12 2.552538 1_545
Cr4 Ge1 2.573299 1_556
Cr4 Ge0 2.591121 1_546
Cr4 Ge17 2.670236 1_546
Cr4 Cr8 2.697604 1_556
Cr4 Ge7 2.810122 1_555
Cr5 Ge14 2.531342 1_545
Cr5 Ge13 2.552538 1_555
Cr5 Ge0 2.573298 1_546
Cr5 Ge1 2.591121 1_556
Cr5 Ge16 2.670236 1_556
Cr5 Cr9 2.697604 1_546
Cr5 Ge7 2.810123 1_555
Cr6 Ge14 2.531342 1_455
Cr6 Ge12 2.552538 1_555
Cr6 Ge2 2.573298 1_456
Cr6 Ge3 2.591121 1_556
Cr6 Ge17 2.670236 1_556
Cr6 Cr9 2.697604 1_456
Cr6 Ge6 2.810123 1_555
Cr7 Ge15 2.531345 1_555
Cr7 Ge13 2.552538 1_455
Cr7 Ge3 2.573299 1_556
Cr7 Ge2 2.591121 1_456
Cr7 Ge16 2.670236 1_456
Cr7 Cr8 2.697604 1_556
Cr7 Ge6 2.810122 1_555
Cr8 Ge17 2.478270 1_545
Cr8 Ge16 2.478270 1_455
Cr8 Ge10 2.570093 1_555
Cr8 Ge15 2.570099 1_554
Cr8 Sc12 2.765664 1_555
Cr8 Sc1 2.872601 1_554
Cr8 Sc0 2.872609 1_445
Cr9 Ge16 2.478270 1_565
Cr9 Ge17 2.478270 1_655
Cr9 Ge14 2.570093 1_554
Cr9 Ge11 2.570099 1_555
Cr9 Sc13 2.765664 1_555
Cr9 Sc0 2.872601 1_555
Cr9 Sc1 2.872609 1_664
Ge0 Ge1 2.510326 1_565
Ge0 Sc11 2.632635 1_555
Ge0 Sc13 2.644287 1_555
Ge0 Sc9 2.919449 1_555
Ge0 Sc4 2.919449 1_554
Ge1 Sc10 2.632635 1_555
Ge1 Sc12 2.644287 1_555
Ge1 Sc5 2.919449 1_554
Ge1 Sc8 2.919449 1_555
Ge2 Ge3 2.510326 1_655
Ge2 Sc10 2.632635 1_555
Ge2 Sc13 2.644287 1_555
Ge2 Sc6 2.919449 1_555
Ge2 Sc3 2.919449 1_554
Ge3 Sc11 2.632635 1_555
Ge3 Sc12 2.644287 1_555
Ge3 Sc2 2.919449 1_554
Ge3 Sc7 2.919449 1_555
Ge4 Sc5 2.753071 1_555
Ge4 Sc2 2.753071 1_555
Ge4 Sc3 2.753080 1_555
Ge4 Sc4 2.753080 1_555
Ge4 Sc11 2.970477 1_556
Ge4 Sc10 2.970477 1_556
Ge4 Sc12 2.971803 1_556
Ge4 Sc13 2.971815 1_556
Ge4 Sc0 3.195529 1_555
Ge5 Sc9 2.753071 1_555
Ge5 Sc6 2.753071 1_555
Ge5 Sc8 2.753080 1_555
Ge5 Sc7 2.753080 1_555
Ge5 Sc11 2.970477 1_555
Ge5 Sc10 2.970477 1_555
Ge5 Sc13 2.971803 1_555
Ge5 Sc12 2.971815 1_555
Ge5 Sc1 3.195529 1_555
Ge6 Sc8 2.605142 1_565
Ge6 Sc3 2.605142 1_455
Ge6 Sc2 2.605143 1_555
Ge6 Sc9 2.605143 1_555
Ge7 Sc7 2.605142 1_655
Ge7 Sc4 2.605142 1_545
Ge7 Sc5 2.605143 1_555
Ge7 Sc6 2.605143 1_555
Ge8 Sc10 2.883413 1_555
Ge8 Sc2 2.930425 1_545
Ge8 Sc4 2.930425 1_545
Ge8 Sc0 2.942009 1_545
Ge8 Sc8 2.971147 1_555
Ge8 Sc6 2.971147 1_555
Ge9 Sc11 2.883413 1_555
Ge9 Sc5 2.930425 1_455
Ge9 Sc3 2.930425 1_455
Ge9 Sc0 2.942009 1_455
Ge9 Sc7 2.971147 1_555
Ge9 Sc9 2.971147 1_555
Ge10 Ge14 2.768748 1_445
Ge10 Sc12 2.841263 1_555
Ge10 Sc0 2.845536 1_445
Ge10 Sc3 2.936912 1_445
Ge10 Sc4 2.936912 1_445
Ge10 Sc7 2.993266 1_555
Ge10 Sc8 2.993266 1_555
Ge11 Ge15 2.768734 1_555
Ge11 Sc13 2.841255 1_555
Ge11 Sc0 2.845536 1_555
Ge11 Sc2 2.936917 1_555
Ge11 Sc5 2.936917 1_555
Ge11 Sc9 2.993254 1_555
Ge11 Sc6 2.993254 1_555
Ge12 Ge8 2.574004 1_565
Ge12 Ge17 2.658105 1_556
Ge12 Sc11 2.883413 1_556
Ge12 Sc6 2.930425 1_565
Ge12 Sc8 2.930425 1_565
Ge12 Sc1 2.942009 1_565
Ge12 Sc4 2.971147 1_555
Ge12 Sc2 2.971147 1_555
Ge13 Ge9 2.574004 1_655
Ge13 Ge16 2.658105 1_556
Ge13 Sc10 2.883413 1_556
Ge13 Sc9 2.930425 1_655
Ge13 Sc7 2.930425 1_655
Ge13 Sc1 2.942009 1_655
Ge13 Sc3 2.971147 1_555
Ge13 Sc5 2.971147 1_555
Ge14 Sc13 2.841263 1_556
Ge14 Sc1 2.845536 1_665
Ge14 Sc8 2.936912 1_665
Ge14 Sc7 2.936912 1_665
Ge14 Sc4 2.993266 1_555
Ge14 Sc3 2.993266 1_555
Ge15 Sc12 2.841255 1_556
Ge15 Sc1 2.845536 1_555
Ge15 Sc6 2.936917 1_555
Ge15 Sc9 2.936917 1_555
Ge15 Sc2 2.993254 1_555
Ge15 Sc5 2.993254 1_555
Ge16 Ge8 2.658105 1_555
Ge16 Sc10 2.777400 1_555
Ge16 Sc0 2.902115 1_545
Ge16 Sc1 2.902115 1_654
Ge17 Ge9 2.658105 1_555
Ge17 Sc11 2.777400 1_555
Ge17 Sc0 2.902115 1_455
Ge17 Sc1 2.902115 1_564
