# generated using pymatgen
data_Ca2Ga2O5
_symmetry_space_group_name_H-M   'P 1'
_cell_length_a   8.33177433
_cell_length_b   8.33177433
_cell_length_c   8.33177433
_cell_angle_alpha   141.95857599
_cell_angle_beta   140.36649303
_cell_angle_gamma   56.10271521
_symmetry_Int_Tables_number   1
_chemical_formula_structural   Ca2Ga2O5
_chemical_formula_sum   'Ca4 Ga4 O10'
_cell_volume   225.58705770
_cell_formula_units_Z   2
loop_
 _symmetry_equiv_pos_site_id
 _symmetry_equiv_pos_as_xyz
  1  'x, y, z'
loop_
 _atom_site_type_symbol
 _atom_site_label
 _atom_site_symmetry_multiplicity
 _atom_site_fract_x
 _atom_site_fract_y
 _atom_site_fract_z
 _atom_site_occupancy
  Ca  Ca0  1  0.13605100  0.59187600  0.51270100  1
  Ca  Ca1  1  0.86394900  0.37665000  0.45582600  1
  Ca  Ca2  1  0.57917600  0.09187600  0.45582600  1
  Ca  Ca3  1  0.42082400  0.87665000  0.51270100  1
  Ga  Ga0  1  0.82053300  0.70358700  0.02412100  1
  Ga  Ga1  1  0.17946700  0.20358700  0.88305400  1
  Ga  Ga2  1  0.50000000  0.49763300  0.99763300  1
  Ga  Ga3  1  0.00000000  0.99763300  0.99763300  1
  O  O0  1  0.76015300  0.26123700  0.99125900  1
  O  O1  1  0.23984700  0.23110600  0.50108300  1
  O  O2  1  0.76997700  0.76123700  0.50108300  1
  O  O3  1  0.23002300  0.73110600  0.99125900  1
  O  O4  1  0.12631500  0.85359200  0.47990700  1
  O  O5  1  0.87368500  0.35359200  0.72727700  1
  O  O6  1  0.43144800  0.39194400  0.10692300  1
  O  O7  1  0.56855200  0.67547500  0.96049600  1
  O  O8  1  0.21497900  0.17547500  0.10692300  1
  O  O9  1  0.78502100  0.89194400  0.96049600  1
loop_
_geom_bond_atom_site_label_1
_geom_bond_atom_site_label_2
_geom_bond_distance
_geom_bond_site_symmetry_2
Ca0 O7 2.321286 1_555
Ca0 O4 2.354378 1_555
Ca0 O0 2.467080 1_454
Ca0 O2 2.502623 1_455
Ca0 O8 2.510662 1_555
Ca0 O1 2.561946 1_555
Ca0 O3 2.603047 1_555
Ca1 O6 2.321287 1_555
Ca1 O5 2.354370 1_555
Ca1 O1 2.467087 1_655
Ca1 O3 2.502624 1_655
Ca1 O9 2.510663 1_544
Ca1 O0 2.561959 1_554
Ca1 O2 2.603060 1_555
Ca2 O8 2.321291 1_555
Ca2 O5 2.354376 1_555
Ca2 O2 2.467072 1_545
Ca2 O0 2.502616 1_555
Ca2 O7 2.510662 1_544
Ca2 O3 2.561949 1_544
Ca2 O1 2.603049 1_555
Ca3 O9 2.321287 1_555
Ca3 O4 2.354370 1_555
Ca3 O3 2.467087 1_554
Ca3 O1 2.502624 1_565
Ca3 O6 2.510663 1_555
Ca3 O2 2.561956 1_555
Ca3 O0 2.603057 1_565
Ga0 O7 1.839088 1_554
Ga0 O9 1.839100 1_554
Ga0 O4 1.909866 1_655
Ga0 O5 1.924331 1_554
Ga1 O6 1.839093 1_556
Ga1 O8 1.839093 1_556
Ga1 O5 1.909870 1_455
Ga1 O4 1.924329 1_545
Ga2 O0 1.957296 1_555
Ga2 O1 1.957299 1_555
Ga2 O3 1.986116 1_555
Ga2 O2 1.986117 1_556
Ga2 O7 2.134447 1_555
Ga2 O6 2.134447 1_556
Ga3 O3 1.957299 1_555
Ga3 O2 1.957300 1_455
Ga3 O1 1.986116 1_566
Ga3 O0 1.986121 1_465
Ga3 O8 2.134447 1_566
Ga3 O9 2.134447 1_455
