# generated using pymatgen
data_In2As2Cl2O5
_symmetry_space_group_name_H-M   'P 1'
_cell_length_a   6.84376100
_cell_length_b   7.63316310
_cell_length_c   9.17066783
_cell_angle_alpha   108.41518677
_cell_angle_beta   104.79502943
_cell_angle_gamma   102.17767143
_symmetry_Int_Tables_number   1
_chemical_formula_structural   In2As2Cl2O5
_chemical_formula_sum   'In4 As4 Cl4 O10'
_cell_volume   416.67286491
_cell_formula_units_Z   2
loop_
 _symmetry_equiv_pos_site_id
 _symmetry_equiv_pos_as_xyz
  1  'x, y, z'
loop_
 _atom_site_type_symbol
 _atom_site_label
 _atom_site_symmetry_multiplicity
 _atom_site_fract_x
 _atom_site_fract_y
 _atom_site_fract_z
 _atom_site_occupancy
  In  In0  1  0.40108500  0.69474600  0.52378000  1
  In  In1  1  0.59891500  0.30525400  0.47622000  1
  In  In2  1  0.85248800  0.77590800  0.33847700  1
  In  In3  1  0.14751200  0.22409200  0.66152300  1
  As  As0  1  0.88964800  0.84547400  0.75199300  1
  As  As1  1  0.11035200  0.15452600  0.24800700  1
  As  As2  1  0.70210500  0.22890700  0.79744900  1
  As  As3  1  0.29789500  0.77109300  0.20255100  1
  Cl  Cl0  1  0.23611400  0.61027700  0.71801700  1
  Cl  Cl1  1  0.76388600  0.38972300  0.28198300  1
  Cl  Cl2  1  0.75383200  0.71135600  0.04483600  1
  Cl  Cl3  1  0.24616800  0.28864400  0.95516400  1
  O  O0  1  0.83768500  0.26890200  0.65730600  1
  O  O1  1  0.16231500  0.73109800  0.34269400  1
  O  O2  1  0.54157600  0.78756800  0.35002900  1
  O  O3  1  0.45842400  0.21243200  0.64997100  1
  O  O4  1  0.66082100  0.95891400  0.73154900  1
  O  O5  1  0.33917900  0.04108600  0.26845100  1
  O  O6  1  0.68635400  0.62077100  0.61463300  1
  O  O7  1  0.31364600  0.37922900  0.38536700  1
  O  O8  1  0.99168100  0.90638800  0.60450300  1
  O  O9  1  0.00831900  0.09361200  0.39549700  1
loop_
_geom_bond_atom_site_label_1
_geom_bond_atom_site_label_2
_geom_bond_distance
_geom_bond_site_symmetry_2
In0 O1 2.145128 1_555
In0 O6 2.180856 1_555
In0 O7 2.200511 1_555
In0 O2 2.274591 1_555
In0 O4 2.277461 1_555
In1 O0 2.145128 1_555
In1 O7 2.180856 1_555
In1 O6 2.200511 1_555
In1 O3 2.274591 1_555
In1 O5 2.277461 1_555
In2 O8 2.174600 1_555
In2 O2 2.176184 1_555
In2 O1 2.210648 1_655
In2 O9 2.261573 1_665
In3 O9 2.174600 1_555
In3 O3 2.176184 1_555
In3 O0 2.210648 1_455
In3 O8 2.261573 1_445
As0 O6 1.788147 1_555
As0 O8 1.809978 1_555
As0 O4 1.939621 1_555
As1 O7 1.788147 1_555
As1 O9 1.809978 1_555
As1 O5 1.939621 1_555
As2 O3 1.810613 1_555
As2 O0 1.828479 1_555
As2 O4 1.890133 1_545
As3 O2 1.810613 1_555
As3 O1 1.828479 1_555
As3 O5 1.890133 1_565
Cl0 In0 2.511776 1_555
Cl0 In3 2.728781 1_555
Cl1 In1 2.511776 1_555
Cl1 In2 2.728781 1_555
Cl2 In2 2.458254 1_555
Cl3 In3 2.458254 1_555
