# generated using pymatgen
data_MnOF
_symmetry_space_group_name_H-M   'P 1'
_cell_length_a   5.52449682
_cell_length_b   5.80079392
_cell_length_c   5.52812059
_cell_angle_alpha   85.55957706
_cell_angle_beta   116.60675393
_cell_angle_gamma   85.83966582
_symmetry_Int_Tables_number   1
_chemical_formula_structural   MnOF
_chemical_formula_sum   'Mn4 O4 F4'
_cell_volume   156.77408758
_cell_formula_units_Z   4
loop_
 _symmetry_equiv_pos_site_id
 _symmetry_equiv_pos_as_xyz
  1  'x, y, z'
loop_
 _atom_site_type_symbol
 _atom_site_label
 _atom_site_symmetry_multiplicity
 _atom_site_fract_x
 _atom_site_fract_y
 _atom_site_fract_z
 _atom_site_occupancy
  Mn  Mn0  1  0.50978900  0.87411100  0.74129700  1
  Mn  Mn1  1  0.49021000  0.12588800  0.25870000  1
  Mn  Mn2  1  0.00973800  0.37410500  0.24128500  1
  Mn  Mn3  1  0.99026100  0.62589500  0.75871500  1
  O  O0  1  0.78771200  0.62505900  0.96203200  1
  O  O1  1  0.28773500  0.12508500  0.46207800  1
  O  O2  1  0.21228900  0.37494200  0.03796900  1
  O  O3  1  0.71226500  0.87491500  0.53792100  1
  F  F0  1  0.69871400  0.12653600  0.04954900  1
  F  F1  1  0.19871600  0.62659500  0.54953100  1
  F  F2  1  0.30128500  0.87346500  0.95045100  1
  F  F3  1  0.80128500  0.37340400  0.45047300  1
loop_
_geom_bond_atom_site_label_1
_geom_bond_atom_site_label_2
_geom_bond_distance
_geom_bond_site_symmetry_2
Mn0 O3 1.908318 1_555
Mn0 O0 1.913258 1_555
Mn0 O1 1.924513 1_565
Mn1 O1 1.908322 1_555
Mn1 O2 1.913255 1_555
Mn1 O3 1.924516 1_545
Mn2 O2 1.908387 1_555
Mn2 O1 1.913397 1_555
Mn2 O0 1.924489 1_454
Mn3 O0 1.908383 1_555
Mn3 O3 1.913396 1_555
Mn3 O2 1.924491 1_656
F0 Mn1 1.963815 1_555
F0 Mn2 2.258457 1_655
F0 Mn0 2.269853 1_544
F1 Mn3 1.963740 1_455
F1 Mn0 2.258424 1_555
F1 Mn2 2.270161 1_555
F2 Mn0 1.963829 1_555
F2 Mn3 2.258461 1_455
F2 Mn1 2.269835 1_566
F3 Mn2 1.963749 1_655
F3 Mn1 2.258438 1_555
F3 Mn3 2.270150 1_555
