# generated using pymatgen
data_KNa2P
_symmetry_space_group_name_H-M   'P 1'
_cell_length_a   13.20346293
_cell_length_b   14.03056463
_cell_length_c   14.03056418
_cell_angle_alpha   60.25319626
_cell_angle_beta   61.93161847
_cell_angle_gamma   61.93161645
_symmetry_Int_Tables_number   1
_chemical_formula_structural   KNa2P
_chemical_formula_sum   'K1 Na2 P1'
_cell_volume   1893.53618053
_cell_formula_units_Z   1
loop_
 _symmetry_equiv_pos_site_id
 _symmetry_equiv_pos_as_xyz
  1  'x, y, z'
loop_
 _atom_site_type_symbol
 _atom_site_label
 _atom_site_symmetry_multiplicity
 _atom_site_fract_x
 _atom_site_fract_y
 _atom_site_fract_z
 _atom_site_occupancy
  K  K0  1  0.50000000  0.00000000  0.00000000  1
  Na  Na0  1  0.79789511  1.00000000  0.00000000  1
  Na  Na1  1  0.20210489  0.00000000  1.00000000  1
  P  P0  1  0.00000000  0.00000000  0.00000000  1
loop_
_geom_bond_atom_site_label_1
_geom_bond_atom_site_label_2
_geom_bond_distance
_geom_bond_site_symmetry_2
K0 Na1 3.933247 1_554
K0 Na0 3.933247 1_545
Na0 P0 2.668484 1_665
Na1 P0 2.668484 1_556
