# generated using pymatgen
data_Tm2CoSi2
_symmetry_space_group_name_H-M   'P 1'
_cell_length_a   5.47489002
_cell_length_b   5.47489002
_cell_length_c   9.85244454
_cell_angle_alpha   63.20673456
_cell_angle_beta   63.20673456
_cell_angle_gamma   44.02440239
_symmetry_Int_Tables_number   1
_chemical_formula_structural   Tm2CoSi2
_chemical_formula_sum   'Tm4 Co2 Si4'
_cell_volume   179.34482213
_cell_formula_units_Z   2
loop_
 _symmetry_equiv_pos_site_id
 _symmetry_equiv_pos_as_xyz
  1  'x, y, z'
loop_
 _atom_site_type_symbol
 _atom_site_label
 _atom_site_symmetry_multiplicity
 _atom_site_fract_x
 _atom_site_fract_y
 _atom_site_fract_z
 _atom_site_occupancy
  Tm  Tm0  1  0.99803928  0.99803928  0.32881962  1
  Tm  Tm1  1  0.00196072  0.00196072  0.67118038  1
  Tm  Tm2  1  0.81240772  0.81240772  0.10479270  1
  Tm  Tm3  1  0.18759228  0.18759228  0.89520730  1
  Co  Co0  1  0.72764504  0.72764504  0.62713506  1
  Co  Co1  1  0.27235496  0.27235496  0.37286494  1
  Si  Si0  1  0.64988788  0.64988788  0.43484217  1
  Si  Si1  1  0.35011212  0.35011212  0.56515783  1
  Si  Si2  1  0.50541250  0.50541250  0.12480704  1
  Si  Si3  1  0.49458750  0.49458750  0.87519296  1
loop_
_geom_bond_atom_site_label_1
_geom_bond_atom_site_label_2
_geom_bond_distance
_geom_bond_site_symmetry_2
Co0 Si1 2.321858 1_565
Co0 Si1 2.321858 1_655
Co0 Si0 2.380479 1_555
Co0 Si3 2.438794 1_555
Co0 Tm0 2.885802 1_555
Co0 Tm1 2.946386 1_565
Co0 Tm1 2.946386 1_655
Co0 Tm1 3.019639 1_665
Co0 Tm3 3.210536 1_565
Co0 Tm3 3.210536 1_655
Co1 Si0 2.321858 1_455
Co1 Si0 2.321858 1_545
Co1 Si1 2.380479 1_555
Co1 Si2 2.438794 1_555
Co1 Tm1 2.885802 1_555
Co1 Tm0 2.946386 1_545
Co1 Tm0 2.946386 1_455
Co1 Tm0 3.019639 1_445
Co1 Tm2 3.210536 1_545
Co1 Tm2 3.210536 1_455
Si0 Si1 2.666459 1_555
Si0 Tm2 2.842376 1_555
Si0 Tm1 2.913328 1_565
Si0 Tm1 2.913328 1_655
Si0 Tm0 3.040389 1_545
Si0 Tm0 3.040389 1_455
Si0 Tm0 3.161056 1_555
Si1 Tm3 2.842376 1_555
Si1 Tm0 2.913328 1_545
Si1 Tm0 2.913328 1_455
Si1 Tm1 3.040389 1_565
Si1 Tm1 3.040389 1_655
Si1 Tm1 3.161056 1_555
Si2 Si3 2.514574 1_554
Si2 Tm0 2.847848 1_545
Si2 Tm0 2.847848 1_455
Si2 Tm2 2.909332 1_545
Si2 Tm2 2.909332 1_455
Si2 Tm3 2.946184 1_654
Si2 Tm3 2.946184 1_564
Si2 Tm2 3.025522 1_555
Si3 Tm1 2.847848 1_565
Si3 Tm1 2.847848 1_655
Si3 Tm3 2.909332 1_655
Si3 Tm3 2.909332 1_565
Si3 Tm2 2.946184 1_456
Si3 Tm2 2.946184 1_546
Si3 Tm3 3.025522 1_555
