# generated using pymatgen
data_Sr2ErUO6
_symmetry_space_group_name_H-M   'P 1'
_cell_length_a   6.12115329
_cell_length_b   6.12115329
_cell_length_c   6.12115329
_cell_angle_alpha   60.00000000
_cell_angle_beta   60.00000000
_cell_angle_gamma   60.00000000
_symmetry_Int_Tables_number   1
_chemical_formula_structural   Sr2ErUO6
_chemical_formula_sum   'Sr2 Er1 U1 O6'
_cell_volume   162.17532194
_cell_formula_units_Z   1
loop_
 _symmetry_equiv_pos_site_id
 _symmetry_equiv_pos_as_xyz
  1  'x, y, z'
loop_
 _atom_site_type_symbol
 _atom_site_label
 _atom_site_symmetry_multiplicity
 _atom_site_fract_x
 _atom_site_fract_y
 _atom_site_fract_z
 _atom_site_occupancy
  Sr  Sr0  1  0.25000000  0.25000000  0.25000000  1
  Sr  Sr1  1  0.75000000  0.75000000  0.75000000  1
  Er  Er0  1  0.50000000  0.50000000  0.50000000  1
  U  U0  1  0.00000000  0.00000000  0.00000000  1
  O  O0  1  0.75352900  0.24647100  0.24647100  1
  O  O1  1  0.24647100  0.75352900  0.75352900  1
  O  O2  1  0.24647100  0.75352900  0.24647100  1
  O  O3  1  0.75352900  0.24647100  0.75352900  1
  O  O4  1  0.24647100  0.24647100  0.75352900  1
  O  O5  1  0.75352900  0.75352900  0.24647100  1
loop_
_geom_bond_atom_site_label_1
_geom_bond_atom_site_label_2
_geom_bond_distance
_geom_bond_site_symmetry_2
Er0 O3 2.194704 1_555
Er0 O2 2.194704 1_555
Er0 O0 2.194704 1_555
Er0 O4 2.194704 1_555
Er0 O1 2.194704 1_555
Er0 O5 2.194704 1_555
O0 U0 2.133605 1_655
O0 Sr1 3.060729 1_545
O0 Sr0 3.060729 1_555
O0 Sr1 3.060729 1_554
O0 Sr0 3.060729 1_655
O1 U0 2.133605 1_566
O1 Sr0 3.060729 1_556
O1 Sr1 3.060729 1_455
O1 Sr1 3.060729 1_555
O1 Sr0 3.060729 1_565
O2 U0 2.133605 1_565
O2 Sr0 3.060729 1_555
O2 Sr1 3.060729 1_554
O2 Sr1 3.060729 1_455
O2 Sr0 3.060729 1_565
O3 U0 2.133605 1_656
O3 Sr1 3.060729 1_545
O3 Sr0 3.060729 1_556
O3 Sr1 3.060729 1_555
O3 Sr0 3.060729 1_655
O4 U0 2.133605 1_556
O4 Sr1 3.060729 1_545
O4 Sr0 3.060729 1_555
O4 Sr0 3.060729 1_556
O4 Sr1 3.060729 1_455
O5 U0 2.133605 1_665
O5 Sr1 3.060729 1_554
O5 Sr1 3.060729 1_555
O5 Sr0 3.060729 1_565
O5 Sr0 3.060729 1_655
