# generated using pymatgen
data_Na3VN2
_symmetry_space_group_name_H-M   'P 1'
_cell_length_a   9.52154300
_cell_length_b   10.99453135
_cell_length_c   10.99453124
_cell_angle_alpha   90.00000116
_cell_angle_beta   125.26439243
_cell_angle_gamma   54.73560799
_symmetry_Int_Tables_number   1
_chemical_formula_structural   Na3VN2
_chemical_formula_sum   'Na24 V8 N16'
_cell_volume   664.50782533
_cell_formula_units_Z   8
loop_
 _symmetry_equiv_pos_site_id
 _symmetry_equiv_pos_as_xyz
  1  'x, y, z'
loop_
 _atom_site_type_symbol
 _atom_site_label
 _atom_site_symmetry_multiplicity
 _atom_site_fract_x
 _atom_site_fract_y
 _atom_site_fract_z
 _atom_site_occupancy
  Na  Na0  1  0.17780000  0.07583500  0.94561400  1
  Na  Na1  1  0.82220000  0.75363400  0.55438600  1
  Na  Na2  1  0.82220000  0.42416500  0.76781500  1
  Na  Na3  1  0.17780000  0.74636600  0.73218500  1
  Na  Na4  1  0.28657100  0.76781500  0.30802000  1
  Na  Na5  1  0.71342900  0.73218500  0.02144800  1
  Na  Na6  1  0.28657100  0.94561400  0.47855200  1
  Na  Na7  1  0.71342900  0.55438600  0.19198000  1
  Na  Na8  1  0.67053200  0.02144800  0.74636600  1
  Na  Na9  1  0.67053200  0.30802000  0.42416500  1
  Na  Na10  1  0.32946800  0.19198000  0.75363400  1
  Na  Na11  1  0.32946800  0.47855200  0.07583500  1
  Na  Na12  1  0.82220000  0.92416500  0.05438600  1
  Na  Na13  1  0.17780000  0.24636600  0.44561400  1
  Na  Na14  1  0.17780000  0.57583500  0.23218500  1
  Na  Na15  1  0.82220000  0.25363400  0.26781500  1
  Na  Na16  1  0.71342900  0.23218500  0.69198000  1
  Na  Na17  1  0.28657100  0.26781500  0.97855200  1
  Na  Na18  1  0.71342900  0.05438600  0.52144800  1
  Na  Na19  1  0.28657100  0.44561400  0.80802000  1
  Na  Na20  1  0.32946800  0.97855200  0.25363400  1
  Na  Na21  1  0.32946800  0.69198000  0.57583500  1
  Na  Na22  1  0.67053200  0.80802000  0.24636600  1
  Na  Na23  1  0.67053200  0.52144800  0.92416500  1
  V  V0  1  0.20304200  0.00000000  0.70304200  1
  V  V1  1  0.79695800  0.70304200  0.79695800  1
  V  V2  1  0.79695800  0.50000000  0.50000000  1
  V  V3  1  0.20304200  0.79695800  0.00000000  1
  V  V4  1  0.79695800  0.00000000  0.29695800  1
  V  V5  1  0.20304200  0.29695800  0.20304200  1
  V  V6  1  0.20304200  0.50000000  0.50000000  1
  V  V7  1  0.79695800  0.20304200  0.00000000  1
  N  N0  1  0.00000000  0.00000000  0.50000000  1
  N  N1  1  0.00000000  0.50000000  0.00000000  1
  N  N2  1  0.00000000  0.50000000  0.50000000  1
  N  N3  1  0.00000000  0.00000000  0.00000000  1
  N  N4  1  0.50000000  0.90688200  0.75000000  1
  N  N5  1  0.50000000  0.59311800  0.25000000  1
  N  N6  1  0.00000000  0.25000000  0.65688200  1
  N  N7  1  0.00000000  0.75000000  0.84311800  1
  N  N8  1  0.68623600  0.65688200  0.59311800  1
  N  N9  1  0.31376400  0.84311800  0.90688200  1
  N  N10  1  0.50000000  0.09311800  0.25000000  1
  N  N11  1  0.50000000  0.40688200  0.75000000  1
  N  N12  1  0.00000000  0.75000000  0.34311800  1
  N  N13  1  0.00000000  0.25000000  0.15688200  1
  N  N14  1  0.31376400  0.34311800  0.40688200  1
  N  N15  1  0.68623600  0.15688200  0.09311800  1
loop_
_geom_bond_atom_site_label_1
_geom_bond_atom_site_label_2
_geom_bond_distance
_geom_bond_site_symmetry_2
N0 V0 1.933273 1_555
N0 V4 1.933273 1_455
N0 Na6 2.591796 1_545
N0 Na18 2.591796 1_455
N0 Na15 2.591798 1_455
N0 Na3 2.591798 1_545
N0 Na9 2.591801 1_455
N0 Na21 2.591801 1_545
N1 V5 1.933273 1_555
N1 V1 1.933273 1_454
N1 Na17 2.591795 1_554
N1 Na5 2.591795 1_455
N1 Na23 2.591801 1_454
N1 Na11 2.591801 1_555
N1 Na14 2.591806 1_555
N1 Na2 2.591806 1_454
N2 V6 1.933273 1_555
N2 V2 1.933273 1_455
N2 Na19 2.591803 1_555
N2 Na7 2.591803 1_455
N2 Na10 2.591805 1_555
N2 Na22 2.591805 1_455
N2 Na1 2.591805 1_455
N2 Na13 2.591805 1_555
N3 V7 1.933273 1_455
N3 V3 1.933273 1_545
N3 Na16 2.591803 1_454
N3 Na4 2.591803 1_545
N3 Na20 2.591805 1_545
N3 Na8 2.591805 1_454
N3 Na0 2.591813 1_554
N3 Na12 2.591813 1_445
N4 V1 2.069116 1_555
N4 V0 2.069116 1_565
N4 Na6 2.283761 1_555
N4 Na5 2.283761 1_556
N4 Na10 2.580937 1_565
N4 Na8 2.580937 1_565
N5 V2 2.069116 1_555
N5 V3 2.069116 1_555
N5 Na4 2.283770 1_555
N5 Na7 2.283770 1_555
N5 Na11 2.580933 1_555
N5 Na9 2.580933 1_555
N6 V0 2.069116 1_555
N6 V2 2.069116 1_455
N6 Na10 2.283761 1_555
N6 Na9 2.283764 1_455
N6 Na0 2.580933 1_555
N6 Na2 2.580943 1_455
N7 V3 2.069116 1_556
N7 V1 2.069116 1_455
N7 Na8 2.283761 1_465
N7 Na11 2.283764 1_556
N7 Na1 2.580937 1_455
N7 Na3 2.580947 1_555
N8 V1 2.069116 1_555
N8 V2 2.069116 1_555
N8 Na1 2.283761 1_555
N8 Na2 2.283775 1_555
N8 Na4 2.580938 1_555
N8 Na6 2.580942 1_555
N9 V0 2.069116 1_565
N9 V3 2.069116 1_556
N9 Na3 2.283766 1_555
N9 Na0 2.283769 1_565
N9 Na7 2.580938 1_556
N9 Na5 2.580942 1_556
N10 V5 2.069116 1_555
N10 V4 2.069116 1_555
N10 Na18 2.283761 1_555
N10 Na17 2.283761 1_554
N10 Na22 2.580937 1_545
N10 Na20 2.580937 1_545
N11 V6 2.069116 1_555
N11 V7 2.069116 1_556
N11 Na16 2.283770 1_555
N11 Na19 2.283770 1_555
N11 Na23 2.580933 1_555
N11 Na21 2.580933 1_555
N12 V4 2.069116 1_465
N12 V6 2.069116 1_555
N12 Na22 2.283761 1_455
N12 Na21 2.283764 1_555
N12 Na12 2.580933 1_455
N12 Na14 2.580943 1_555
N13 V7 2.069116 1_455
N13 V5 2.069116 1_555
N13 Na20 2.283761 1_545
N13 Na23 2.283764 1_454
N13 Na13 2.580937 1_555
N13 Na15 2.580947 1_455
N14 V5 2.069116 1_555
N14 V6 2.069116 1_555
N14 Na13 2.283761 1_555
N14 Na14 2.283775 1_555
N14 Na16 2.580938 1_555
N14 Na18 2.580942 1_555
N15 V4 2.069116 1_555
N15 V7 2.069116 1_555
N15 Na15 2.283766 1_555
N15 Na12 2.283769 1_545
N15 Na19 2.580938 1_554
N15 Na17 2.580942 1_554
