# generated using pymatgen
data_Al2O3
_symmetry_space_group_name_H-M   'P 1'
_cell_length_a   10.02485551
_cell_length_b   10.02510928
_cell_length_c   10.97272465
_cell_angle_alpha   90.96522365
_cell_angle_beta   86.21402004
_cell_angle_gamma   89.32107611
_symmetry_Int_Tables_number   1
_chemical_formula_structural   Al2O3
_chemical_formula_sum   'Al40 O60'
_cell_volume   1100.10621840
_cell_formula_units_Z   20
loop_
 _symmetry_equiv_pos_site_id
 _symmetry_equiv_pos_as_xyz
  1  'x, y, z'
loop_
 _atom_site_type_symbol
 _atom_site_label
 _atom_site_symmetry_multiplicity
 _atom_site_fract_x
 _atom_site_fract_y
 _atom_site_fract_z
 _atom_site_occupancy
  Al  Al0  1  0.75599800  0.48647400  0.76510900  1
  Al  Al1  1  0.78885100  0.82776500  0.32462800  1
  Al  Al2  1  0.55226300  0.70303700  0.73796900  1
  Al  Al3  1  0.05826100  0.67662500  0.14665700  1
  Al  Al4  1  0.83593900  0.48801900  0.20041400  1
  Al  Al5  1  0.22654400  0.00477600  0.46523400  1
  Al  Al6  1  0.05869100  0.57522500  0.68037100  1
  Al  Al7  1  0.95331500  0.34382700  0.55620300  1
  Al  Al8  1  0.56355200  0.35975300  0.18265200  1
  Al  Al9  1  0.69601400  0.24446800  0.92368300  1
  Al  Al10  1  0.46721700  0.48439800  0.50520700  1
  Al  Al11  1  0.24264000  0.25930900  0.63022400  1
  Al  Al12  1  0.68005400  0.30083900  0.60441700  1
  Al  Al13  1  0.72616500  0.80680000  0.55743300  1
  Al  Al14  1  0.55946300  0.04365200  0.03957600  1
  Al  Al15  1  0.07256100  0.88946500  0.67908600  1
  Al  Al16  1  0.32786500  0.15249300  0.22558700  1
  Al  Al17  1  0.77836600  0.91541900  0.82812400  1
  Al  Al18  1  0.37021900  0.45539700  0.73686400  1
  Al  Al19  1  0.48482600  0.90518900  0.30283100  1
  Al  Al20  1  0.55143600  0.11546300  0.75853500  1
  Al  Al21  1  0.20452400  0.50096300  0.91980800  1
  Al  Al22  1  0.93876700  0.64581200  0.93451400  1
  Al  Al23  1  0.07634900  0.90893700  0.27577000  1
  Al  Al24  1  0.28707500  0.67519200  0.31759800  1
  Al  Al25  1  0.49842700  0.19020900  0.44900900  1
  Al  Al26  1  0.99301700  0.26094400  0.00370800  1
  Al  Al27  1  0.53885100  0.53249400  0.98435700  1
  Al  Al28  1  0.11355900  0.95252400  0.98315600  1
  Al  Al29  1  0.90706500  0.07676200  0.45567500  1
  Al  Al30  1  0.84674000  0.05443800  0.14533600  1
  Al  Al31  1  0.53878300  0.63578700  0.23967200  1
  Al  Al32  1  0.42498500  0.89979800  0.58440800  1
  Al  Al33  1  0.32033700  0.21382100  0.93149200  1
  Al  Al34  1  0.30800900  0.89933900  0.80888700  1
  Al  Al35  1  0.71476900  0.79293200  0.04586200  1
  Al  Al36  1  0.28807100  0.41397600  0.17607500  1
  Al  Al37  1  0.90165600  0.15886600  0.74133800  1
  Al  Al38  1  0.02277200  0.33793100  0.28953900  1
  Al  Al39  1  0.98938400  0.64397100  0.43538300  1
  O  O0  1  0.95273300  0.76522000  0.27207200  1
  O  O1  1  0.19240900  0.30433800  0.27042600  1
  O  O2  1  0.72272300  0.09080300  0.80750900  1
  O  O3  1  0.83293700  0.18686900  0.59480400  1
  O  O4  1  0.55757300  0.04116700  0.38176700  1
  O  O5  1  0.80188600  0.43610200  0.61121300  1
  O  O6  1  0.19691300  0.52410900  0.76139000  1
  O  O7  1  0.24712400  0.92292100  0.64463800  1
  O  O8  1  0.63415400  0.38048200  0.02332900  1
  O  O9  1  0.02851300  0.73265400  0.62596800  1
  O  O10  1  0.26140200  0.04237100  0.92938700  1
  O  O11  1  0.06149200  0.25604700  0.66295200  1
  O  O12  1  0.95607300  0.25233600  0.41419100  1
  O  O13  1  0.60757700  0.66194100  0.07977800  1
  O  O14  1  0.39968700  0.74930300  0.81460400  1
  O  O15  1  0.78782400  0.94128500  0.46358900  1
  O  O16  1  0.44767400  0.01915600  0.16576500  1
  O  O17  1  0.92430100  0.32655800  0.15093300  1
  O  O18  1  0.85725300  0.80064400  0.93353700  1
  O  O19  1  0.12983100  0.85689200  0.84453300  1
  O  O20  1  0.20928600  0.03132600  0.30033500  1
  O  O21  1  0.88271800  0.26474600  0.88370000  1
  O  O22  1  0.40187600  0.76344600  0.22590900  1
  O  O23  1  0.93829000  0.98678300  0.75314100  1
  O  O24  1  0.81771500  0.69204100  0.46207800  1
  O  O25  1  0.50728200  0.15887800  0.92060200  1
  O  O26  1  0.92076200  0.54643400  0.80201800  1
  O  O27  1  0.14863100  0.33660700  0.96469700  1
  O  O28  1  0.14122500  0.74802100  0.38637300  1
  O  O29  1  0.33117900  0.26984400  0.77188600  1
  O  O30  1  0.70886900  0.14170200  0.07463800  1
  O  O31  1  0.32510000  0.40569600  0.57907600  1
  O  O32  1  0.44542400  0.49223300  0.14789100  1
  O  O33  1  0.95742400  0.50537800  0.31250200  1
  O  O34  1  0.93529300  0.03672300  0.28374000  1
  O  O35  1  0.99129900  0.08259700  0.03479800  1
  O  O36  1  0.11392800  0.85336900  0.11673000  1
  O  O37  1  0.41704700  0.57445300  0.37979100  1
  O  O38  1  0.45796100  0.26332800  0.28860200  1
  O  O39  1  0.05280100  0.99500300  0.51325100  1
  O  O40  1  0.66798000  0.47998600  0.25211400  1
  O  O41  1  0.56241400  0.16878600  0.60827500  1
  O  O42  1  0.19716000  0.57202500  0.20013100  1
  O  O43  1  0.58704600  0.35338800  0.47439100  1
  O  O44  1  0.54951300  0.77577200  0.57746800  1
  O  O45  1  0.66090200  0.33208200  0.77837600  1
  O  O46  1  0.50816500  0.54041600  0.65854800  1
  O  O47  1  0.76713100  0.89941300  0.16464900  1
  O  O48  1  0.63995000  0.59383700  0.84855600  1
  O  O49  1  0.62146900  0.77304400  0.31516400  1
  O  O50  1  0.45492500  0.97851200  0.73060900  1
  O  O51  1  0.72182000  0.80121500  0.71910800  1
  O  O52  1  0.04470700  0.49751300  0.53373100  1
  O  O53  1  0.38446000  0.48330800  0.90894400  1
  O  O54  1  0.31429700  0.15281900  0.50971100  1
  O  O55  1  0.88306900  0.60837500  0.09100000  1
  O  O56  1  0.63179000  0.90804300  0.95386700  1
  O  O57  1  0.10193700  0.62555700  0.98556400  1
  O  O58  1  0.33991800  0.25833600  0.08830400  1
  O  O59  1  0.36317300  0.88832200  0.43753900  1
loop_
_geom_bond_atom_site_label_1
_geom_bond_atom_site_label_2
_geom_bond_distance
_geom_bond_site_symmetry_2
Al0 O48 1.773906 1_555
Al0 O5 1.783641 1_555
Al0 O45 1.830280 1_555
Al0 O26 1.832278 1_555
Al1 O49 1.780521 1_555
Al1 O0 1.806406 1_555
Al1 O15 1.886639 1_555
Al1 O47 1.932365 1_555
Al1 O24 2.080193 1_555
Al2 O14 1.749845 1_555
Al2 O48 1.899063 1_555
Al2 O46 1.905998 1_555
Al2 O44 1.919179 1_555
Al2 O51 1.975067 1_555
Al3 O57 1.854810 1_554
Al3 O42 1.864623 1_555
Al3 O0 1.883105 1_455
Al3 O36 1.891466 1_555
Al3 O55 2.020311 1_455
Al4 O40 1.744127 1_555
Al4 O55 1.762907 1_555
Al4 O33 1.794935 1_555
Al4 O17 1.890087 1_555
Al5 O39 1.790386 1_545
Al5 O59 1.796259 1_545
Al5 O54 1.810524 1_555
Al5 O20 1.852336 1_555
Al5 O7 2.166840 1_545
Al6 O9 1.727136 1_555
Al6 O6 1.770355 1_555
Al6 O52 1.790463 1_555
Al6 O26 1.885632 1_455
Al7 O12 1.793254 1_555
Al7 O52 1.813957 1_655
Al7 O5 1.830705 1_555
Al7 O11 1.871451 1_655
Al7 O3 2.027714 1_555
Al8 O40 1.798352 1_555
Al8 O38 1.818266 1_555
Al8 O32 1.830633 1_555
Al8 O8 1.858140 1_555
Al9 O8 1.810950 1_556
Al9 O45 1.884544 1_555
Al9 O21 1.908029 1_555
Al9 O30 1.975894 1_556
Al9 O2 1.987165 1_555
Al9 O25 2.088789 1_555
Al10 O37 1.756225 1_555
Al10 O43 1.782240 1_555
Al10 O31 1.790240 1_555
Al10 O46 1.838414 1_555
Al11 O31 1.774050 1_555
Al11 O54 1.792536 1_555
Al11 O11 1.828526 1_555
Al11 O29 1.842303 1_555
Al12 O41 1.782543 1_555
Al12 O43 1.836253 1_555
Al12 O5 1.839546 1_555
Al12 O3 1.897003 1_555
Al12 O45 1.925755 1_555
Al13 O24 1.751644 1_555
Al13 O51 1.773517 1_555
Al13 O15 1.800720 1_555
Al13 O44 1.801432 1_555
Al14 O16 1.745418 1_555
Al14 O56 1.761230 1_544
Al14 O25 1.854438 1_554
Al14 O30 1.858978 1_555
Al15 O9 1.739426 1_555
Al15 O23 1.794911 1_455
Al15 O7 1.802384 1_555
Al15 O19 1.971070 1_555
Al15 O39 2.139471 1_555
Al16 O58 1.855399 1_555
Al16 O16 1.867761 1_555
Al16 O20 1.870926 1_555
Al16 O38 1.881803 1_555
Al16 O1 2.059337 1_555
Al17 O51 1.766872 1_555
Al17 O18 1.852383 1_555
Al17 O2 1.860259 1_565
Al17 O23 1.905756 1_555
Al17 O56 1.951046 1_555
Al18 O46 1.809137 1_555
Al18 O6 1.862532 1_555
Al18 O31 1.878873 1_555
Al18 O53 1.919028 1_555
Al18 O29 1.944897 1_555
Al19 O4 1.790962 1_565
Al19 O59 1.864397 1_555
Al19 O22 1.871737 1_555
Al19 O49 1.907161 1_555
Al19 O16 1.956490 1_565
Al20 O50 1.723779 1_545
Al20 O41 1.738798 1_555
Al20 O25 1.847479 1_555
Al20 O2 1.847889 1_555
Al21 O57 1.726157 1_555
Al21 O6 1.764074 1_555
Al21 O53 1.806288 1_555
Al21 O27 1.812240 1_555
Al22 O18 1.746105 1_555
Al22 O26 1.768875 1_555
Al22 O57 1.774167 1_655
Al22 O55 1.816879 1_556
Al23 O36 1.836597 1_555
Al23 O20 1.851799 1_565
Al23 O34 1.893497 1_465
Al23 O0 1.913157 1_455
Al23 O28 2.154901 1_555
Al24 O22 1.738012 1_555
Al24 O28 1.746655 1_555
Al24 O37 1.814603 1_555
Al24 O42 1.916807 1_555
Al25 O4 1.735675 1_555
Al25 O43 1.895970 1_555
Al25 O41 1.915479 1_555
Al25 O54 1.963123 1_555
Al25 O38 1.982565 1_555
Al26 O27 1.772857 1_654
Al26 O21 1.775126 1_554
Al26 O17 1.823028 1_555
Al26 O35 1.825907 1_555
Al27 O13 1.823650 1_556
Al27 O8 1.859958 1_556
Al27 O48 1.863330 1_555
Al27 O53 1.869992 1_555
Al27 O32 2.017784 1_556
Al28 O19 1.781519 1_555
Al28 O36 1.784946 1_556
Al28 O10 1.813862 1_565
Al28 O35 1.835539 1_466
Al29 O15 1.819294 1_545
Al29 O39 1.821090 1_645
Al29 O12 1.888028 1_555
Al29 O34 1.923988 1_555
Al29 O3 1.968561 1_555
Al30 O47 1.765032 1_545
Al30 O34 1.819162 1_555
Al30 O30 1.847491 1_555
Al30 O35 1.854741 1_555
Al31 O49 1.829206 1_555
Al31 O13 1.866155 1_555
Al31 O22 1.880591 1_555
Al31 O37 2.008266 1_555
Al31 O32 2.017140 1_555
Al31 O40 2.029366 1_555
Al32 O44 1.748625 1_555
Al32 O59 1.766814 1_555
Al32 O50 1.820130 1_555
Al32 O7 1.870597 1_555
Al33 O58 1.794199 1_556
Al33 O10 1.824395 1_555
Al33 O29 1.844937 1_555
Al33 O25 1.942589 1_555
Al33 O27 2.112533 1_555
Al34 O14 1.757565 1_555
Al34 O50 1.849466 1_555
Al34 O19 1.859023 1_555
Al34 O7 1.957748 1_555
Al34 O10 1.965023 1_565
Al35 O13 1.736322 1_555
Al35 O56 1.780462 1_554
Al35 O47 1.780651 1_555
Al35 O18 1.827203 1_554
Al36 O1 1.769687 1_555
Al36 O32 1.781161 1_555
Al36 O42 1.825020 1_555
Al36 O58 1.869838 1_555
Al37 O23 1.768215 1_545
Al37 O3 1.815368 1_555
Al37 O21 1.871654 1_555
Al37 O2 2.020918 1_555
Al37 O11 2.034612 1_655
Al38 O1 1.728104 1_555
Al38 O12 1.728175 1_455
Al38 O33 1.802356 1_455
Al38 O17 1.869670 1_455
Al39 O24 1.785706 1_555
Al39 O28 1.908600 1_655
Al39 O52 1.934178 1_655
Al39 O33 1.963572 1_555
Al39 O0 2.230116 1_555
Al39 O9 2.317654 1_655
