# generated using pymatgen
data_Gd2GeMoO8
_symmetry_space_group_name_H-M   'P 1'
_cell_length_a   6.73859832
_cell_length_b   6.73859832
_cell_length_c   6.73859832
_cell_angle_alpha   134.64093333
_cell_angle_beta   134.64093333
_cell_angle_gamma   66.08862287
_symmetry_Int_Tables_number   1
_chemical_formula_structural   Gd2GeMoO8
_chemical_formula_sum   'Gd2 Ge1 Mo1 O8'
_cell_volume   152.53266518
_cell_formula_units_Z   1
loop_
 _symmetry_equiv_pos_site_id
 _symmetry_equiv_pos_as_xyz
  1  'x, y, z'
loop_
 _atom_site_type_symbol
 _atom_site_label
 _atom_site_symmetry_multiplicity
 _atom_site_fract_x
 _atom_site_fract_y
 _atom_site_fract_z
 _atom_site_occupancy
  Gd  Gd0  1  0.75000000  0.25000000  0.50000000  1
  Gd  Gd1  1  0.50000000  0.50000000  0.00000000  1
  Ge  Ge0  1  0.25000000  0.75000000  0.50000000  1
  Mo  Mo0  1  0.00000000  0.00000000  0.00000000  1
  O  O0  1  0.40758100  0.50076400  0.57909000  1
  O  O1  1  0.92167400  0.82849100  0.42091000  1
  O  O2  1  0.07204100  0.17768000  0.41176500  1
  O  O3  1  0.76591600  0.66027600  0.58823500  1
  O  O4  1  0.82232000  0.23408400  0.89436000  1
  O  O5  1  0.33972400  0.92795900  0.10564000  1
  O  O6  1  0.17150900  0.59241900  0.09318400  1
  O  O7  1  0.49923600  0.07832600  0.90681600  1
loop_
_geom_bond_atom_site_label_1
_geom_bond_atom_site_label_2
_geom_bond_distance
_geom_bond_site_symmetry_2
Gd0 O1 2.401141 1_545
Gd0 O0 2.401141 1_555
Gd0 O6 2.401142 1_656
Gd0 O7 2.401146 1_554
Gd0 O4 2.418499 1_555
Gd0 O2 2.418501 1_655
Gd0 O3 2.418503 1_555
Gd0 O5 2.418503 1_545
Gd1 O3 2.379153 1_555
Gd1 O5 2.379153 1_555
Gd1 O2 2.379155 1_554
Gd1 O4 2.379159 1_554
Gd1 O7 2.443001 1_554
Gd1 O0 2.443005 1_554
Gd1 O1 2.443005 1_555
Gd1 O6 2.443010 1_555
Ge0 O6 1.802550 1_555
Ge0 O7 1.802556 1_565
Ge0 O0 1.802556 1_555
Ge0 O1 1.802556 1_455
Mo0 O4 1.810446 1_454
Mo0 O3 1.810446 1_444
Mo0 O5 1.810446 1_545
Mo0 O2 1.810448 1_555
