# generated using pymatgen
data_Sr2LiTi6N2O11
_symmetry_space_group_name_H-M   'P 1'
_cell_length_a   3.91852845
_cell_length_b   7.96928110
_cell_length_c   9.32939333
_cell_angle_alpha   81.48755528
_cell_angle_beta   89.98253860
_cell_angle_gamma   75.71400706
_symmetry_Int_Tables_number   1
_chemical_formula_structural   Sr2LiTi6N2O11
_chemical_formula_sum   'Sr2 Li1 Ti6 N2 O11'
_cell_volume   279.01797625
_cell_formula_units_Z   1
loop_
 _symmetry_equiv_pos_site_id
 _symmetry_equiv_pos_as_xyz
  1  'x, y, z'
loop_
 _atom_site_type_symbol
 _atom_site_label
 _atom_site_symmetry_multiplicity
 _atom_site_fract_x
 _atom_site_fract_y
 _atom_site_fract_z
 _atom_site_occupancy
  Sr  Sr0  1  0.53700900  0.92471600  0.79678100  1
  Sr  Sr1  1  0.41345900  0.17213800  0.24369300  1
  Li  Li0  1  0.58696300  0.82204700  0.29408700  1
  Ti  Ti0  1  0.12484000  0.74731600  0.09176100  1
  Ti  Ti1  1  0.17497600  0.64656200  0.43275600  1
  Ti  Ti2  1  0.23713000  0.52281700  0.76461000  1
  Ti  Ti3  1  0.75280500  0.49193100  0.22023600  1
  Ti  Ti4  1  0.83754900  0.32271500  0.57025700  1
  Ti  Ti5  1  0.87970200  0.23838700  0.92246700  1
  N  N0  1  0.23349900  0.53037400  0.24548800  1
  N  N1  1  0.83555800  0.32684900  0.09297800  1
  O  O0  1  0.06572200  0.86431000  0.30214400  1
  O  O1  1  0.13733900  0.72107400  0.62392100  1
  O  O2  1  0.16826000  0.66028700  0.91181200  1
  O  O3  1  0.62472600  0.74741900  0.10904300  1
  O  O4  1  0.68862800  0.61941900  0.43099200  1
  O  O5  1  0.76756900  0.46199400  0.75771900  1
  O  O6  1  0.30127700  0.39500800  0.56864800  1
  O  O7  1  0.36888300  0.25992600  0.87627500  1
  O  O8  1  0.86286900  0.27256800  0.38371700  1
  O  O9  1  0.94053200  0.11744700  0.68231400  1
  O  O10  1  0.00136300  0.99470800  0.98299800  1
loop_
_geom_bond_atom_site_label_1
_geom_bond_atom_site_label_2
_geom_bond_distance
_geom_bond_site_symmetry_2
Li0 O4 1.862755 1_555
Li0 O3 1.901644 1_555
Li0 O0 1.989472 1_655
Li0 O0 1.989668 1_555
N0 Ti3 2.000910 1_555
N0 Ti3 2.000948 1_455
N0 Ti0 2.032285 1_555
N0 Ti1 2.082347 1_555
N0 Sr1 2.769205 1_555
N1 Ti5 1.824582 1_554
N1 Ti3 1.870048 1_555
N1 Sr1 2.593206 1_555
N1 Sr1 2.595387 1_655
O0 Ti1 1.920163 1_555
O0 Ti0 2.282590 1_555
O1 Ti2 1.858342 1_555
O1 Ti1 1.955813 1_555
O1 Sr0 3.107522 1_455
O1 Sr0 3.117356 1_555
O2 Ti2 1.859642 1_555
O2 Ti0 1.901233 1_556
O2 Sr0 2.910427 1_455
O2 Sr0 2.917643 1_555
O3 Ti0 1.965703 1_555
O3 Ti0 1.966091 1_655
O3 Ti3 2.084285 1_555
O3 Sr0 3.023852 1_554
O4 Ti1 1.970669 1_655
O4 Ti1 1.970895 1_555
O4 Ti3 2.329490 1_555
O4 Ti4 2.455512 1_555
O5 Ti2 2.017754 1_555
O5 Ti2 2.018439 1_655
O5 Ti5 2.129330 1_555
O5 Ti4 2.188619 1_555
O6 Ti4 2.036659 1_555
O6 Ti4 2.036713 1_455
O6 Ti1 2.151600 1_555
O6 Ti2 2.206264 1_555
O7 Ti5 2.007373 1_455
O7 Ti5 2.007703 1_555
O7 Ti2 2.135753 1_555
O7 Sr0 2.799641 1_545
O8 Ti4 1.839684 1_555
O8 Ti3 2.099338 1_555
O8 Sr1 2.540635 1_555
O8 Sr1 2.541164 1_655
O9 Ti4 1.760655 1_555
O9 Ti5 2.555596 1_555
O9 Sr0 2.589737 1_645
O9 Sr0 2.590698 1_545
O10 Ti5 1.880409 1_465
O10 Ti0 2.021864 1_556
O10 Sr0 2.725784 1_455
O10 Sr0 2.727954 1_555
