# generated using pymatgen
data_LiYb(CN2)2
_symmetry_space_group_name_H-M   'P 1'
_cell_length_a   6.05501300
_cell_length_b   6.94255900
_cell_length_c   10.12593600
_cell_angle_alpha   90.00000000
_cell_angle_beta   90.00000000
_cell_angle_gamma   90.00000000
_symmetry_Int_Tables_number   1
_chemical_formula_structural   LiYb(CN2)2
_chemical_formula_sum   'Li4 Yb4 C8 N16'
_cell_volume   425.66685751
_cell_formula_units_Z   4
loop_
 _symmetry_equiv_pos_site_id
 _symmetry_equiv_pos_as_xyz
  1  'x, y, z'
loop_
 _atom_site_type_symbol
 _atom_site_label
 _atom_site_symmetry_multiplicity
 _atom_site_fract_x
 _atom_site_fract_y
 _atom_site_fract_z
 _atom_site_occupancy
  Li  Li0  1  0.25000000  0.60867600  0.00000000  1
  Li  Li1  1  0.75000000  0.89132400  0.50000000  1
  Li  Li2  1  0.75000000  0.39132400  0.00000000  1
  Li  Li3  1  0.25000000  0.10867600  0.50000000  1
  Yb  Yb0  1  0.25000000  0.13782600  0.00000000  1
  Yb  Yb1  1  0.75000000  0.36217400  0.50000000  1
  Yb  Yb2  1  0.75000000  0.86217400  0.00000000  1
  Yb  Yb3  1  0.25000000  0.63782600  0.50000000  1
  C  C0  1  0.41901500  0.38775300  0.75367800  1
  C  C1  1  0.91901500  0.11224700  0.74632200  1
  C  C2  1  0.58098500  0.11224700  0.25367800  1
  C  C3  1  0.08098500  0.38775300  0.24632200  1
  C  C4  1  0.58098500  0.61224700  0.24632200  1
  C  C5  1  0.08098500  0.88775300  0.25367800  1
  C  C6  1  0.41901500  0.88775300  0.74632200  1
  C  C7  1  0.91901500  0.61224700  0.75367800  1
  N  N0  1  0.41861000  0.38964400  0.87547600  1
  N  N1  1  0.91861000  0.11035600  0.62452400  1
  N  N2  1  0.58139000  0.11035600  0.37547600  1
  N  N3  1  0.08139000  0.38964400  0.12452400  1
  N  N4  1  0.58139000  0.61035600  0.12452400  1
  N  N5  1  0.08139000  0.88964400  0.37547600  1
  N  N6  1  0.41861000  0.88964400  0.62452400  1
  N  N7  1  0.91861000  0.61035600  0.87547600  1
  N  N8  1  0.42061700  0.38686000  0.63159300  1
  N  N9  1  0.92061700  0.11314000  0.86840700  1
  N  N10  1  0.57938300  0.11314000  0.13159300  1
  N  N11  1  0.07938300  0.38686000  0.36840700  1
  N  N12  1  0.57938300  0.61314000  0.36840700  1
  N  N13  1  0.07938300  0.88686000  0.13159300  1
  N  N14  1  0.42061700  0.88686000  0.86840700  1
  N  N15  1  0.92061700  0.61314000  0.63159300  1
loop_
_geom_bond_atom_site_label_1
_geom_bond_atom_site_label_2
_geom_bond_distance
_geom_bond_site_symmetry_2
Li0 N0 2.223643 1_554
Li0 N3 2.223643 1_555
Li0 N4 2.369892 1_555
Li0 N7 2.369892 1_454
Li0 N14 2.563745 1_554
Li0 N13 2.563745 1_555
Li1 N1 2.223643 1_565
Li1 N2 2.223643 1_565
Li1 N6 2.369892 1_555
Li1 N5 2.369892 1_655
Li1 N15 2.563745 1_555
Li1 N12 2.563745 1_555
Li2 N7 2.223643 1_554
Li2 N4 2.223643 1_555
Li2 N0 2.369892 1_554
Li2 N3 2.369892 1_655
Li2 N10 2.563745 1_555
Li2 N9 2.563745 1_554
Li3 N6 2.223643 1_545
Li3 N5 2.223643 1_545
Li3 N1 2.369892 1_455
Li3 N2 2.369892 1_555
Li3 N8 2.563745 1_555
Li3 N11 2.563745 1_555
C0 N0 1.233391 1_555
C0 N8 1.236278 1_555
C1 N1 1.233391 1_555
C1 N9 1.236278 1_555
C2 N2 1.233391 1_555
C2 N10 1.236278 1_555
C3 N3 1.233391 1_555
C3 N11 1.236278 1_555
C4 N4 1.233391 1_555
C4 N12 1.236278 1_555
C5 N5 1.233391 1_555
C5 N13 1.236278 1_555
C6 N6 1.233391 1_555
C6 N14 1.236278 1_555
C7 N7 1.233391 1_555
C7 N15 1.236278 1_555
N0 Yb0 2.385089 1_556
N1 Yb1 2.385089 1_555
N2 Yb1 2.385089 1_555
N3 Yb0 2.385089 1_555
N4 Yb2 2.385089 1_555
N5 Yb3 2.385089 1_555
N6 Yb3 2.385089 1_555
N7 Yb2 2.385089 1_556
N8 Yb1 2.404712 1_555
N8 Yb3 2.424583 1_555
N9 Yb0 2.404712 1_656
N9 Yb2 2.424583 1_546
N10 Yb0 2.404712 1_555
N10 Yb2 2.424583 1_545
N11 Yb1 2.404712 1_455
N11 Yb3 2.424583 1_555
N12 Yb3 2.404712 1_555
N12 Yb1 2.424583 1_555
N13 Yb2 2.404712 1_455
N13 Yb0 2.424583 1_565
N14 Yb2 2.404712 1_556
N14 Yb0 2.424583 1_566
N15 Yb3 2.404712 1_655
N15 Yb1 2.424583 1_555
