# generated using pymatgen
data_V3Cu2Sn(PO4)6
_symmetry_space_group_name_H-M   'P 1'
_cell_length_a   8.66465115
_cell_length_b   8.66465115
_cell_length_c   8.66465167
_cell_angle_alpha   59.76250157
_cell_angle_beta   59.76250157
_cell_angle_gamma   59.76249924
_symmetry_Int_Tables_number   1
_chemical_formula_structural   V3Cu2Sn(PO4)6
_chemical_formula_sum   'V3 Cu2 Sn1 P6 O24'
_cell_volume   457.49876065
_cell_formula_units_Z   1
loop_
 _symmetry_equiv_pos_site_id
 _symmetry_equiv_pos_as_xyz
  1  'x, y, z'
loop_
 _atom_site_type_symbol
 _atom_site_label
 _atom_site_symmetry_multiplicity
 _atom_site_fract_x
 _atom_site_fract_y
 _atom_site_fract_z
 _atom_site_occupancy
  V  V0  1  0.35700900  0.35700900  0.35700900  1
  V  V1  1  0.14229900  0.14229900  0.14229900  1
  V  V2  1  0.64201500  0.64201500  0.64201500  1
  Cu  Cu0  1  0.00247800  0.00247800  0.00247800  1
  Cu  Cu1  1  0.49943300  0.49943300  0.49943300  1
  Sn  Sn0  1  0.85723100  0.85723100  0.85723100  1
  P  P0  1  0.45419600  0.74885600  0.04262100  1
  P  P1  1  0.74885600  0.04262100  0.45419600  1
  P  P2  1  0.04262100  0.45419600  0.74885600  1
  P  P3  1  0.95998300  0.53706100  0.25415200  1
  P  P4  1  0.25415200  0.95998300  0.53706100  1
  P  P5  1  0.53706100  0.25415200  0.95998300  1
  O  O0  1  0.69761700  0.87701300  0.49507600  1
  O  O1  1  0.87701300  0.49507600  0.69761700  1
  O  O2  1  0.49507600  0.69761700  0.87701300  1
  O  O3  1  0.26374100  0.91705700  0.06000800  1
  O  O4  1  0.61290100  0.80000100  0.01772100  1
  O  O5  1  0.43396300  0.58213300  0.23456700  1
  O  O6  1  0.91705700  0.06000800  0.26374100  1
  O  O7  1  0.58213300  0.23456700  0.43396300  1
  O  O8  1  0.99454500  0.37921500  0.19574700  1
  O  O9  1  0.23456700  0.43396300  0.58213300  1
  O  O10  1  0.94630700  0.73166900  0.08889200  1
  O  O11  1  0.19574700  0.99454500  0.37921500  1
  O  O12  1  0.80000100  0.01772100  0.61290100  1
  O  O13  1  0.06000800  0.26374100  0.91705700  1
  O  O14  1  0.76712100  0.55618200  0.42012500  1
  O  O15  1  0.01772100  0.61290100  0.80000100  1
  O  O16  1  0.42012500  0.76712100  0.55618200  1
  O  O17  1  0.08889200  0.94630700  0.73166900  1
  O  O18  1  0.55618200  0.42012500  0.76712100  1
  O  O19  1  0.37921500  0.19574700  0.99454500  1
  O  O20  1  0.73166900  0.08889200  0.94630700  1
  O  O21  1  0.49967000  0.31115300  0.12026900  1
  O  O22  1  0.12026900  0.49967000  0.31115300  1
  O  O23  1  0.31115300  0.12026900  0.49967000  1
loop_
_geom_bond_atom_site_label_1
_geom_bond_atom_site_label_2
_geom_bond_distance
_geom_bond_site_symmetry_2
Cu0 O3 2.235684 1_545
Cu0 O13 2.235684 1_554
Cu0 O6 2.235684 1_455
Cu0 O20 2.305880 1_454
Cu0 O10 2.305880 1_445
Cu0 O17 2.305880 1_544
Cu1 O16 2.301473 1_555
Cu1 O14 2.301473 1_555
Cu1 O18 2.301474 1_555
Cu1 O7 2.312505 1_555
Cu1 O9 2.312505 1_555
Cu1 O5 2.312505 1_555
O0 P1 1.533932 1_565
O0 V2 1.938639 1_555
O1 P2 1.533932 1_655
O1 V2 1.938639 1_555
O2 P0 1.533932 1_556
O2 V2 1.938639 1_555
O3 P0 1.555126 1_555
O3 V1 2.000521 1_565
O4 P0 1.533803 1_555
O4 Sn0 2.014756 1_554
O5 P0 1.557323 1_555
O5 V0 1.971869 1_555
O6 P1 1.555126 1_555
O6 V1 2.000521 1_655
O7 P1 1.557323 1_555
O7 V0 1.971868 1_555
O8 P3 1.532406 1_555
O8 V1 1.944447 1_655
O9 P2 1.557323 1_555
O9 V0 1.971869 1_555
O10 P3 1.563829 1_555
O10 Sn0 2.079325 1_554
O11 P4 1.532406 1_555
O11 V1 1.944447 1_565
O12 P1 1.533803 1_555
O12 Sn0 2.014756 1_545
O13 P2 1.555126 1_555
O13 V1 2.000521 1_556
O14 P3 1.558461 1_555
O14 V2 1.988381 1_555
O15 P2 1.533803 1_555
O15 Sn0 2.014756 1_455
O16 P4 1.558461 1_555
O16 V2 1.988381 1_555
O17 P4 1.563829 1_555
O17 Sn0 2.079325 1_455
O18 P5 1.558461 1_555
O18 V2 1.988381 1_555
O19 P5 1.532406 1_555
O19 V1 1.944447 1_556
O20 P5 1.563829 1_555
O20 Sn0 2.079325 1_545
O21 P5 1.534352 1_554
O21 V0 1.914673 1_555
O22 P3 1.534352 1_455
O22 V0 1.914673 1_555
O23 P4 1.534352 1_545
O23 V0 1.914673 1_555
