# generated using pymatgen
data_Na3Y(Si2O5)3
_symmetry_space_group_name_H-M   'P 1'
_cell_length_a   10.27610881
_cell_length_b   10.27610881
_cell_length_c   10.62041254
_cell_angle_alpha   59.04558916
_cell_angle_beta   59.04558916
_cell_angle_gamma   48.90356353
_symmetry_Int_Tables_number   1
_chemical_formula_structural   Na3Y(Si2O5)3
_chemical_formula_sum   'Na6 Y2 Si12 O30'
_cell_volume   697.31939922
_cell_formula_units_Z   2
loop_
 _symmetry_equiv_pos_site_id
 _symmetry_equiv_pos_as_xyz
  1  'x, y, z'
loop_
 _atom_site_type_symbol
 _atom_site_label
 _atom_site_symmetry_multiplicity
 _atom_site_fract_x
 _atom_site_fract_y
 _atom_site_fract_z
 _atom_site_occupancy
  Na  Na0  1  0.26048600  0.75933900  0.74053800  1
  Na  Na1  1  0.75933900  0.26048600  0.74053800  1
  Na  Na2  1  0.73951400  0.24066100  0.25946200  1
  Na  Na3  1  0.24066100  0.73951400  0.25946200  1
  Na  Na4  1  0.78953800  0.78953800  0.88275400  1
  Na  Na5  1  0.21046200  0.21046200  0.11724600  1
  Y  Y0  1  0.00000000  0.00000000  0.50000000  1
  Y  Y1  1  0.50000000  0.50000000  0.00000000  1
  Si  Si0  1  0.67070500  0.02872200  0.11658200  1
  Si  Si1  1  0.52652900  0.17246700  0.68414300  1
  Si  Si2  1  0.17246700  0.52652900  0.68414300  1
  Si  Si3  1  0.02872200  0.67070500  0.11658200  1
  Si  Si4  1  0.32929500  0.97127800  0.88341800  1
  Si  Si5  1  0.47347100  0.82753300  0.31585700  1
  Si  Si6  1  0.82753300  0.47347100  0.31585700  1
  Si  Si7  1  0.97127800  0.32929500  0.88341800  1
  Si  Si8  1  0.84737000  0.84737000  0.36790500  1
  Si  Si9  1  0.34744500  0.34744500  0.43700600  1
  Si  Si10  1  0.15263000  0.15263000  0.63209500  1
  Si  Si11  1  0.65255500  0.65255500  0.56299400  1
  O  O0  1  0.36264700  0.36264700  0.73450300  1
  O  O1  1  0.86155600  0.86155600  0.04000400  1
  O  O2  1  0.63735300  0.63735300  0.26549700  1
  O  O3  1  0.13844400  0.13844400  0.95999600  1
  O  O4  1  0.01405600  0.48650000  0.82040700  1
  O  O5  1  0.98594400  0.51350000  0.17959300  1
  O  O6  1  0.51350000  0.98594400  0.17959300  1
  O  O7  1  0.48650000  0.01405600  0.82040700  1
  O  O8  1  0.07509800  0.07509800  0.60894000  1
  O  O9  1  0.57519400  0.57519400  0.74028200  1
  O  O10  1  0.92490200  0.92490200  0.39106000  1
  O  O11  1  0.42480600  0.42480600  0.25971800  1
  O  O12  1  0.29718300  0.98904100  0.73670200  1
  O  O13  1  0.48857700  0.79721100  0.47732500  1
  O  O14  1  0.79721100  0.48857700  0.47732500  1
  O  O15  1  0.98904100  0.29718300  0.73670200  1
  O  O16  1  0.70281700  0.01095900  0.26329800  1
  O  O17  1  0.51142300  0.20278900  0.52267500  1
  O  O18  1  0.20278900  0.51142300  0.52267500  1
  O  O19  1  0.01095900  0.70281700  0.26329800  1
  O  O20  1  0.27717100  0.89326000  0.32856600  1
  O  O21  1  0.38941400  0.77783400  0.00215600  1
  O  O22  1  0.77783400  0.38941400  0.00215600  1
  O  O23  1  0.89326000  0.27717100  0.32856600  1
  O  O24  1  0.72282900  0.10674000  0.67143400  1
  O  O25  1  0.61058600  0.22216600  0.99784400  1
  O  O26  1  0.22216600  0.61058600  0.99784400  1
  O  O27  1  0.10674000  0.72282900  0.67143400  1
  O  O28  1  0.24990900  0.24990900  0.47286100  1
  O  O29  1  0.75009100  0.75009100  0.52713900  1
loop_
_geom_bond_atom_site_label_1
_geom_bond_atom_site_label_2
_geom_bond_distance
_geom_bond_site_symmetry_2
Na0 O26 2.312257 1_555
Na0 O27 2.330415 1_555
Na0 O9 2.447530 1_555
Na0 O8 2.461394 1_565
Na0 O12 2.602122 1_555
Na0 O13 2.607578 1_555
Na1 O25 2.312257 1_555
Na1 O24 2.330415 1_555
Na1 O9 2.447530 1_555
Na1 O8 2.461394 1_655
Na1 O15 2.602122 1_555
Na1 O14 2.607578 1_555
Na2 O22 2.312257 1_555
Na2 O23 2.330415 1_555
Na2 O11 2.447530 1_555
Na2 O10 2.461394 1_545
Na2 O16 2.602122 1_555
Na2 O17 2.607578 1_555
Na3 O21 2.312257 1_555
Na3 O20 2.330415 1_555
Na3 O11 2.447530 1_555
Na3 O10 2.461394 1_455
Na3 O19 2.602122 1_555
Na3 O18 2.607578 1_555
Na4 O7 2.561848 1_565
Na4 O4 2.561848 1_655
Na4 O1 2.673463 1_556
Na4 O27 2.692830 1_655
Na4 O24 2.692830 1_565
Na5 O6 2.561848 1_545
Na5 O5 2.561848 1_455
Na5 O3 2.673463 1_554
Na5 O20 2.692830 1_545
Na5 O23 2.692830 1_455
O0 Si1 1.662340 1_555
O0 Si2 1.662340 1_555
O1 Si0 1.681060 1_565
O1 Si3 1.681060 1_655
O2 Si6 1.662340 1_555
O2 Si5 1.662340 1_555
O3 Si7 1.681060 1_455
O3 Si4 1.681060 1_545
O4 Si2 1.660697 1_555
O4 Si7 1.664221 1_455
O5 Si6 1.660697 1_555
O5 Si3 1.664221 1_655
O6 Si5 1.660697 1_555
O6 Si0 1.664221 1_565
O7 Si1 1.660697 1_555
O7 Si4 1.664221 1_545
O8 Si10 1.602386 1_555
O8 Y0 2.269283 1_555
O9 Si11 1.600121 1_555
O9 Y1 2.280848 1_556
O10 Si8 1.602386 1_555
O10 Y0 2.269283 1_665
O11 Si9 1.600121 1_555
O11 Y1 2.280848 1_555
O12 Si4 1.651459 1_555
O12 Si10 1.661426 1_565
O13 Si5 1.649999 1_555
O13 Si11 1.664255 1_555
O14 Si6 1.649999 1_555
O14 Si11 1.664255 1_555
O15 Si7 1.651459 1_555
O15 Si10 1.661426 1_655
O16 Si0 1.651459 1_555
O16 Si8 1.661426 1_545
O17 Si1 1.649999 1_555
O17 Si9 1.664255 1_555
O18 Si2 1.649999 1_555
O18 Si9 1.664255 1_555
O19 Si3 1.651459 1_555
O19 Si8 1.661426 1_455
O20 Si5 1.601886 1_555
O20 Y0 2.289778 1_565
O21 Si4 1.591114 1_554
O21 Y1 2.284374 1_555
O22 Si7 1.591114 1_554
O22 Y1 2.284374 1_555
O23 Si6 1.601886 1_555
O23 Y0 2.289778 1_655
O24 Si1 1.601886 1_555
O24 Y0 2.289778 1_655
O25 Si0 1.591114 1_556
O25 Y1 2.284374 1_556
O26 Si3 1.591114 1_556
O26 Y1 2.284374 1_556
O27 Si2 1.601886 1_555
O27 Y0 2.289778 1_565
O28 Si9 1.640004 1_555
O28 Si10 1.641373 1_555
O29 Si11 1.640004 1_555
O29 Si8 1.641373 1_555
