# generated using pymatgen
data_KTaW2O9
_symmetry_space_group_name_H-M   'P 1'
_cell_length_a   3.92991464
_cell_length_b   12.80825973
_cell_length_c   12.83577593
_cell_angle_alpha   60.08705456
_cell_angle_beta   89.99983330
_cell_angle_gamma   90.05416076
_symmetry_Int_Tables_number   1
_chemical_formula_structural   KTaW2O9
_chemical_formula_sum   'K3 Ta3 W6 O27'
_cell_volume   560.02323487
_cell_formula_units_Z   3
loop_
 _symmetry_equiv_pos_site_id
 _symmetry_equiv_pos_as_xyz
  1  'x, y, z'
loop_
 _atom_site_type_symbol
 _atom_site_label
 _atom_site_symmetry_multiplicity
 _atom_site_fract_x
 _atom_site_fract_y
 _atom_site_fract_z
 _atom_site_occupancy
  K  K0  1  -0.01818917  0.83417295  0.78797184  1
  K  K1  1  0.97057904  0.20379914  0.18424244  1
  K  K2  1  0.75372655  0.50020346  0.50006714  1
  Ta  Ta0  1  0.43088291  0.66571043  0.66478411  1
  Ta  Ta1  1  0.43366590  0.33515667  0.33579085  1
  Ta  Ta2  1  0.42953335  0.16525136  0.66703620  1
  W  W0  1  0.52377380  0.00173026  0.49791503  1
  W  W1  1  0.52503162  0.50249576  0.99909544  1
  W  W2  1  0.52985159  0.00159498  -0.00003948  1
  W  W3  1  0.39769499  0.83306910  0.33326092  1
  W  W4  1  0.40200808  0.33164491  0.83673077  1
  W  W5  1  0.39903450  0.66892992  0.16477034  1
  O  O0  1  0.46479708  0.83641090  0.61834379  1
  O  O1  1  0.46516577  0.16145579  0.37419410  1
  O  O2  1  0.46607956  0.38087134  0.16015761  1
  O  O3  1  0.46382992  0.62398417  0.83672609  1
  O  O4  1  0.95695631  0.15599152  0.67294399  1
  O  O5  1  0.94786730  0.83208334  0.33244338  1
  O  O6  1  0.95219864  0.32780952  0.84410332  1
  O  O7  1  0.94965703  0.66971560  0.16306020  1
  O  O8  1  0.97582301  0.99919237  0.49586129  1
  O  O9  1  0.97637172  0.50288653  0.99879382  1
  O  O10  1  0.46713678  0.03740226  0.62111155  1
  O  O11  1  0.46038682  0.95139967  0.37797241  1
  O  O12  1  0.46639843  0.37925916  0.95673447  1
  O  O13  1  0.46325578  0.62372597  0.04451906  1
  O  O14  1  0.95484073  0.66459943  0.66742952  1
  O  O15  1  0.95704885  0.32973889  0.32889675  1
  O  O16  1  0.45808899  0.70720477  0.49414577  1
  O  O17  1  0.46233837  0.29484731  0.50212750  1
  O  O18  1  0.46125452  0.50678851  0.28627495  1
  O  O19  1  0.46015019  0.49113855  0.71504051  1
  O  O20  1  0.46073540  0.28487222  0.72134975  1
  O  O21  1  0.45547769  0.71080402  0.28734974  1
  O  O22  1  0.47024108  0.03740630  0.84312067  1
  O  O23  1  0.46315537  0.95047241  0.16945003  1
  O  O24  1  0.46750813  0.16370241  0.96195315  1
  O  O25  1  0.46610358  0.83319914  0.04876277  1
  O  O26  1  0.97933979  0.99927896  0.00551021  1
loop_
_geom_bond_atom_site_label_1
_geom_bond_atom_site_label_2
_geom_bond_distance
_geom_bond_site_symmetry_2
K0 O0 2.877826 1_555
K0 O0 2.967772 1_455
K0 O10 3.070968 1_565
K0 O3 3.091439 1_555
K0 O10 3.146981 1_465
K0 O3 3.176851 1_455
K0 O14 3.236329 1_455
K0 O8 3.259209 1_455
K1 O2 2.885059 1_655
K1 O2 2.911942 1_555
K1 O1 2.949563 1_655
K1 O1 2.977086 1_555
K1 O15 3.006607 1_555
K1 O12 3.289574 1_654
K1 O12 3.311675 1_554
K2 O17 2.855730 1_555
K2 O16 2.861817 1_555
K2 O18 2.937370 1_555
K2 O19 2.939180 1_555
K2 O21 2.960626 1_555
K2 O20 3.029994 1_555
O0 W0 1.913465 1_565
O0 Ta0 1.962886 1_555
O1 W0 1.876402 1_555
O1 Ta1 2.028496 1_555
O2 W1 1.881926 1_554
O2 Ta1 2.030927 1_555
O3 W1 1.894465 1_555
O3 Ta0 1.999250 1_555
O4 Ta2 1.859993 1_655
O4 Ta2 2.075454 1_555
O5 W3 1.767886 1_655
O5 W3 2.162235 1_555
O6 W4 1.769569 1_655
O6 W4 2.163805 1_555
O7 W5 1.766127 1_655
O7 W5 2.163974 1_555
O8 W0 1.777279 1_565
O8 W0 2.153974 1_665
O9 W1 1.773729 1_555
O9 W1 2.156196 1_655
O10 W0 1.865386 1_555
O10 Ta2 2.003500 1_555
O11 W3 1.885195 1_555
O11 W0 1.958932 1_565
O12 W1 1.922381 1_555
O12 W4 1.935260 1_555
O13 W5 1.916498 1_555
O13 W1 1.927061 1_554
O14 Ta0 1.871025 1_655
O14 Ta0 2.059335 1_555
O15 Ta1 1.878003 1_655
O15 Ta1 2.061473 1_555
O16 W3 1.897403 1_555
O16 Ta0 1.982445 1_555
O17 Ta1 1.933503 1_555
O17 Ta2 1.935903 1_555
O18 W5 1.890933 1_555
O18 Ta1 1.963236 1_555
O19 W4 1.865965 1_555
O19 Ta0 1.997697 1_555
O20 W4 1.868340 1_555
O20 Ta2 1.978250 1_555
O21 W5 1.911511 1_555
O21 W3 1.942243 1_555
O22 W2 1.843183 1_556
O22 Ta2 2.030907 1_555
O23 W3 1.895855 1_555
O23 W2 1.951739 1_565
O24 W2 1.897314 1_556
O24 W4 1.956908 1_555
O25 W5 1.894149 1_555
O25 W2 1.938721 1_565
O26 W2 1.767567 1_565
O26 W2 2.164325 1_665
