# generated using pymatgen
data_Mg14VCr
_symmetry_space_group_name_H-M   'P 1'
_cell_length_a   6.31313874
_cell_length_b   6.34870565
_cell_length_c   10.04007071
_cell_angle_alpha   90.00000000
_cell_angle_beta   90.00000000
_cell_angle_gamma   120.18654533
_symmetry_Int_Tables_number   1
_chemical_formula_structural   Mg14VCr
_chemical_formula_sum   'Mg14 V1 Cr1'
_cell_volume   347.83917235
_cell_formula_units_Z   1
loop_
 _symmetry_equiv_pos_site_id
 _symmetry_equiv_pos_as_xyz
  1  'x, y, z'
loop_
 _atom_site_type_symbol
 _atom_site_label
 _atom_site_symmetry_multiplicity
 _atom_site_fract_x
 _atom_site_fract_y
 _atom_site_fract_z
 _atom_site_occupancy
  Mg  Mg0  1  0.16824834  0.33412367  0.62500000  1
  Mg  Mg1  1  0.16846051  0.83422976  0.62500000  1
  Mg  Mg2  1  0.66460709  0.33133249  0.12500000  1
  Mg  Mg3  1  0.66603460  0.33279192  0.62500000  1
  Mg  Mg4  1  0.66460709  0.83327361  0.12500000  1
  Mg  Mg5  1  0.66603460  0.83324168  0.62500000  1
  Mg  Mg6  1  0.32761448  0.16432725  0.36594922  1
  Mg  Mg7  1  0.32761448  0.16432725  0.88405078  1
  Mg  Mg8  1  0.32761448  0.66328823  0.36594922  1
  Mg  Mg9  1  0.32761448  0.66328823  0.88405078  1
  Mg  Mg10  1  0.83942105  0.16971102  0.37127868  1
  Mg  Mg11  1  0.83942105  0.16971102  0.87872132  1
  Mg  Mg12  1  0.83853217  0.66926659  0.37054450  1
  Mg  Mg13  1  0.83853217  0.66926659  0.87945550  1
  V  V0  1  0.16717182  0.33358541  0.12500000  1
  Cr  Cr0  1  0.16847160  0.83423530  0.12500000  1
loop_
_geom_bond_atom_site_label_1
_geom_bond_atom_site_label_2
_geom_bond_distance
_geom_bond_site_symmetry_2
Mg0 Mg10 3.115942 1_455
Mg0 Mg11 3.115942 1_455
Mg0 Mg5 3.146853 1_555
Mg0 Mg3 3.146853 1_555
Mg0 Mg5 3.166302 1_445
Mg0 Mg3 3.166302 1_455
Mg0 Mg6 3.166953 1_555
Mg0 Mg7 3.166953 1_555
Mg0 Mg8 3.166959 1_555
Mg0 Mg9 3.166959 1_555
Mg0 Mg1 3.174353 1_545
Mg0 Mg1 3.174353 1_555
Mg1 Mg13 3.125428 1_455
Mg1 Mg12 3.125428 1_455
Mg1 Mg3 3.144413 1_565
Mg1 Mg5 3.144413 1_555
Mg1 Mg3 3.168735 1_455
Mg1 Mg5 3.168735 1_455
Mg1 Mg8 3.169939 1_555
Mg1 Mg9 3.169939 1_555
Mg1 Mg6 3.169946 1_565
Mg1 Mg7 3.169946 1_565
Mg2 Mg7 3.038784 1_554
Mg2 Mg6 3.038784 1_555
Mg2 V0 3.147594 1_555
Mg2 Mg4 3.162029 1_545
Mg2 V0 3.165593 1_655
Mg2 Mg4 3.186676 1_555
Mg3 Mg5 3.171497 1_545
Mg3 Mg5 3.177208 1_555
Mg3 Mg6 3.189859 1_555
Mg3 Mg7 3.189859 1_555
Mg4 Mg9 3.038784 1_554
Mg4 Mg8 3.038784 1_555
Mg4 V0 3.147594 1_555
Mg4 V0 3.165593 1_665
Mg5 Mg8 3.189859 1_555
Mg5 Mg9 3.189859 1_555
Mg6 V0 3.021174 1_555
Mg6 Mg8 3.167756 1_555
Mg6 Mg8 3.180949 1_545
Mg7 V0 3.021174 1_556
Mg7 Mg9 3.167756 1_555
Mg7 Mg9 3.180949 1_545
Mg8 V0 3.021181 1_555
Mg9 V0 3.021181 1_556
Mg10 V0 3.051708 1_655
Mg10 Mg2 3.086043 1_555
Mg10 Mg4 3.086049 1_545
Mg10 Mg8 3.099822 1_655
Mg10 Mg6 3.099822 1_655
Mg10 Mg3 3.146263 1_555
Mg10 Mg5 3.146269 1_545
Mg10 Mg12 3.174365 1_545
Mg10 Mg12 3.174365 1_555
Mg10 Mg8 3.214500 1_545
Mg10 Mg6 3.214501 1_555
Mg11 V0 3.051708 1_656
Mg11 Mg2 3.086043 1_556
Mg11 Mg4 3.086049 1_546
Mg11 Mg9 3.099822 1_655
Mg11 Mg7 3.099822 1_655
Mg11 Mg3 3.146263 1_555
Mg11 Mg5 3.146269 1_545
Mg11 Mg13 3.174365 1_545
Mg11 Mg13 3.174365 1_555
Mg11 Mg9 3.214500 1_545
Mg11 Mg7 3.214501 1_555
Mg12 Mg4 3.084988 1_555
Mg12 Mg2 3.084995 1_555
Mg12 Mg6 3.107244 1_665
Mg12 Mg8 3.107245 1_655
Mg12 Mg5 3.152220 1_555
Mg12 Mg3 3.152226 1_555
Mg12 Mg6 3.206909 1_555
Mg12 Mg8 3.206910 1_555
Mg13 Mg4 3.084988 1_556
Mg13 Mg2 3.084995 1_556
Mg13 Mg7 3.107244 1_665
Mg13 Mg9 3.107245 1_655
Mg13 Mg5 3.152220 1_555
Mg13 Mg3 3.152226 1_555
Mg13 Mg7 3.206909 1_555
Mg13 Mg9 3.206910 1_555
Cr0 Mg9 3.022592 1_554
Cr0 Mg8 3.022592 1_555
Cr0 Mg7 3.022599 1_564
Cr0 Mg6 3.022599 1_565
Cr0 Mg12 3.052768 1_455
Cr0 Mg13 3.052768 1_454
Cr0 Mg2 3.135246 1_565
Cr0 Mg4 3.135247 1_555
Cr0 V0 3.174361 1_555
Cr0 V0 3.174361 1_565
Cr0 Mg2 3.177901 1_455
Cr0 Mg4 3.177901 1_455
