# generated using pymatgen
data_MgCr2O4
_symmetry_space_group_name_H-M   'P 1'
_cell_length_a   2.93722900
_cell_length_b   8.94315700
_cell_length_c   10.52144800
_cell_angle_alpha   90.00000000
_cell_angle_beta   90.00000000
_cell_angle_gamma   90.00000000
_symmetry_Int_Tables_number   1
_chemical_formula_structural   MgCr2O4
_chemical_formula_sum   'Mg4 Cr8 O16'
_cell_volume   276.37844918
_cell_formula_units_Z   4
loop_
 _symmetry_equiv_pos_site_id
 _symmetry_equiv_pos_as_xyz
  1  'x, y, z'
loop_
 _atom_site_type_symbol
 _atom_site_label
 _atom_site_symmetry_multiplicity
 _atom_site_fract_x
 _atom_site_fract_y
 _atom_site_fract_z
 _atom_site_occupancy
  Mg  Mg0  1  0.25000000  0.73788600  0.84443000  1
  Mg  Mg1  1  0.75000000  0.26211400  0.15557000  1
  Mg  Mg2  1  0.25000000  0.23788600  0.65557000  1
  Mg  Mg3  1  0.75000000  0.76211400  0.34443000  1
  Cr  Cr0  1  0.75000000  0.91313100  0.60120800  1
  Cr  Cr1  1  0.25000000  0.58686900  0.10120800  1
  Cr  Cr2  1  0.75000000  0.41313100  0.89879200  1
  Cr  Cr3  1  0.25000000  0.08686900  0.39879200  1
  Cr  Cr4  1  0.25000000  0.05908500  0.88270200  1
  Cr  Cr5  1  0.75000000  0.94091500  0.11729800  1
  Cr  Cr6  1  0.25000000  0.55908500  0.61729800  1
  Cr  Cr7  1  0.75000000  0.44091500  0.38270200  1
  O  O0  1  0.75000000  0.40946300  0.57496700  1
  O  O1  1  0.25000000  0.59053700  0.42503300  1
  O  O2  1  0.75000000  0.90946300  0.92503300  1
  O  O3  1  0.25000000  0.09053700  0.07496700  1
  O  O4  1  0.75000000  0.52906100  0.21289300  1
  O  O5  1  0.25000000  0.47093900  0.78710700  1
  O  O6  1  0.75000000  0.02906100  0.28710700  1
  O  O7  1  0.25000000  0.97093900  0.71289300  1
  O  O8  1  0.75000000  0.12462500  0.53277400  1
  O  O9  1  0.25000000  0.87537500  0.46722600  1
  O  O10  1  0.75000000  0.62462500  0.96722600  1
  O  O11  1  0.25000000  0.37537500  0.03277400  1
  O  O12  1  0.25000000  0.29607300  0.32118200  1
  O  O13  1  0.75000000  0.70392700  0.67881800  1
  O  O14  1  0.75000000  0.20392700  0.82118200  1
  O  O15  1  0.25000000  0.79607300  0.17881800  1
loop_
_geom_bond_atom_site_label_1
_geom_bond_atom_site_label_2
_geom_bond_distance
_geom_bond_site_symmetry_2
Mg0 O10 2.202739 1_455
Mg0 O10 2.202739 1_555
Mg0 O2 2.287038 1_455
Mg0 O2 2.287038 1_555
Mg0 O13 2.298976 1_455
Mg0 O13 2.298976 1_555
Mg0 O5 2.462355 1_555
Mg0 O7 2.501871 1_555
Mg1 O11 2.202739 1_655
Mg1 O11 2.202739 1_555
Mg1 O3 2.287038 1_555
Mg1 O3 2.287038 1_655
Mg1 O12 2.298976 1_555
Mg1 O12 2.298976 1_655
Mg1 O4 2.462355 1_555
Mg1 O6 2.501871 1_555
Mg2 O8 2.202739 1_555
Mg2 O8 2.202739 1_455
Mg2 O0 2.287038 1_455
Mg2 O0 2.287038 1_555
Mg2 O14 2.298976 1_455
Mg2 O14 2.298976 1_555
Mg2 O7 2.462355 1_545
Mg2 O5 2.501871 1_555
Mg3 O9 2.202739 1_555
Mg3 O9 2.202739 1_655
Mg3 O1 2.287038 1_555
Mg3 O1 2.287038 1_655
Mg3 O15 2.298976 1_555
Mg3 O15 2.298976 1_655
Mg3 O6 2.462355 1_565
Mg3 O4 2.501871 1_555
Cr0 O7 1.950624 1_555
Cr0 O7 1.950624 1_655
Cr0 O8 2.023838 1_565
Cr0 O13 2.041377 1_555
Cr0 O9 2.063505 1_555
Cr0 O9 2.063505 1_655
Cr1 O4 1.950624 1_455
Cr1 O4 1.950624 1_555
Cr1 O11 2.023838 1_555
Cr1 O15 2.041377 1_555
Cr1 O10 2.063505 1_554
Cr1 O10 2.063505 1_454
Cr2 O5 1.950624 1_655
Cr2 O5 1.950624 1_555
Cr2 O10 2.023838 1_555
Cr2 O14 2.041377 1_555
Cr2 O11 2.063505 1_556
Cr2 O11 2.063505 1_656
Cr3 O6 1.950624 1_555
Cr3 O6 1.950624 1_455
Cr3 O9 2.023838 1_545
Cr3 O12 2.041377 1_555
Cr3 O8 2.063505 1_555
Cr3 O8 2.063505 1_455
Cr4 O7 1.952817 1_545
Cr4 O2 2.036096 1_445
Cr4 O2 2.036096 1_545
Cr4 O3 2.042368 1_556
Cr4 O14 2.062454 1_455
Cr4 O14 2.062454 1_555
Cr5 O6 1.952817 1_565
Cr5 O3 2.036096 1_665
Cr5 O3 2.036096 1_565
Cr5 O2 2.042368 1_554
Cr5 O15 2.062454 1_655
Cr5 O15 2.062454 1_555
Cr6 O5 1.952817 1_555
Cr6 O0 2.036096 1_455
Cr6 O0 2.036096 1_555
Cr6 O1 2.042368 1_555
Cr6 O13 2.062454 1_455
Cr6 O13 2.062454 1_555
Cr7 O4 1.952817 1_555
Cr7 O1 2.036096 1_555
Cr7 O1 2.036096 1_655
Cr7 O0 2.042368 1_555
Cr7 O12 2.062454 1_555
Cr7 O12 2.062454 1_655
