# generated using pymatgen
data_Se2NO6
_symmetry_space_group_name_H-M   'P 1'
_cell_length_a   5.26326100
_cell_length_b   6.71754000
_cell_length_c   19.77941600
_cell_angle_alpha   90.00000000
_cell_angle_beta   90.00000000
_cell_angle_gamma   90.00000000
_symmetry_Int_Tables_number   1
_chemical_formula_structural   Se2NO6
_chemical_formula_sum   'Se8 N4 O24'
_cell_volume   699.32432137
_cell_formula_units_Z   4
loop_
 _symmetry_equiv_pos_site_id
 _symmetry_equiv_pos_as_xyz
  1  'x, y, z'
loop_
 _atom_site_type_symbol
 _atom_site_label
 _atom_site_symmetry_multiplicity
 _atom_site_fract_x
 _atom_site_fract_y
 _atom_site_fract_z
 _atom_site_occupancy
  Se  Se0  1  0.30563600  0.82320200  0.12273400  1
  Se  Se1  1  0.80563600  0.67679800  0.87726600  1
  Se  Se2  1  0.19436400  0.17679800  0.62273400  1
  Se  Se3  1  0.69436400  0.32320200  0.37726600  1
  Se  Se4  1  0.30922400  0.78996000  0.77285700  1
  Se  Se5  1  0.80922400  0.71004000  0.22714300  1
  Se  Se6  1  0.19077600  0.21004000  0.27285700  1
  Se  Se7  1  0.69077600  0.28996000  0.72714300  1
  N  N0  1  0.70573500  0.44411200  0.10621600  1
  N  N1  1  0.20573500  0.05588800  0.89378400  1
  N  N2  1  0.79426500  0.55588800  0.60621600  1
  N  N3  1  0.29426500  0.94411200  0.39378400  1
  O  O0  1  0.32873500  0.05015800  0.94085200  1
  O  O1  1  0.82873500  0.44984200  0.05914800  1
  O  O2  1  0.17126500  0.94984200  0.44085200  1
  O  O3  1  0.67126500  0.55015800  0.55914800  1
  O  O4  1  0.07661200  0.88008400  0.06861400  1
  O  O5  1  0.57661200  0.61991600  0.93138600  1
  O  O6  1  0.42338800  0.11991600  0.56861400  1
  O  O7  1  0.92338800  0.38008400  0.43138600  1
  O  O8  1  0.41997200  0.59882900  0.09063800  1
  O  O9  1  0.91997200  0.90117100  0.90936200  1
  O  O10  1  0.08002800  0.40117100  0.59063800  1
  O  O11  1  0.58002800  0.09882900  0.40936200  1
  O  O12  1  0.34931500  0.74103500  0.69211000  1
  O  O13  1  0.84931500  0.75896500  0.30789000  1
  O  O14  1  0.15068500  0.25896500  0.19211000  1
  O  O15  1  0.65068500  0.24103500  0.80789000  1
  O  O16  1  0.16150100  0.76890300  0.20239600  1
  O  O17  1  0.66150100  0.73109700  0.79760400  1
  O  O18  1  0.33849900  0.23109700  0.70239600  1
  O  O19  1  0.83849900  0.26890300  0.29760400  1
  O  O20  1  0.15421900  0.58624100  0.80567200  1
  O  O21  1  0.65421900  0.91375900  0.19432800  1
  O  O22  1  0.34578100  0.41375900  0.30567200  1
  O  O23  1  0.84578100  0.08624100  0.69432800  1
loop_
_geom_bond_atom_site_label_1
_geom_bond_atom_site_label_2
_geom_bond_distance
_geom_bond_site_symmetry_2
N0 O1 1.134594 1_555
N0 O8 1.853989 1_555
N1 O0 1.134594 1_555
N1 O9 1.853989 1_445
N2 O3 1.134594 1_555
N2 O10 1.853989 1_655
N3 O2 1.134594 1_555
N3 O11 1.853989 1_565
O4 Se0 1.656779 1_555
O5 Se1 1.656779 1_555
O6 Se2 1.656779 1_555
O7 Se3 1.656779 1_555
O8 Se0 1.742675 1_555
O9 Se1 1.742675 1_555
O10 Se2 1.742675 1_555
O11 Se3 1.742675 1_555
O12 Se4 1.644189 1_555
O13 Se5 1.644189 1_555
O14 Se6 1.644189 1_555
O15 Se7 1.644189 1_555
O16 Se0 1.786416 1_555
O16 Se5 1.957991 1_455
O17 Se1 1.786416 1_555
O17 Se4 1.957991 1_555
O18 Se2 1.786416 1_555
O18 Se7 1.957991 1_555
O19 Se3 1.786416 1_555
O19 Se6 1.957991 1_655
O20 Se4 1.720357 1_555
O20 Se1 2.396126 1_455
O21 Se5 1.720357 1_555
O21 Se0 2.396126 1_555
O22 Se6 1.720357 1_555
O22 Se3 2.396126 1_555
O23 Se7 1.720357 1_555
O23 Se2 2.396126 1_655
