# generated using pymatgen
data_La2NbCrO6
_symmetry_space_group_name_H-M   'P 1'
_cell_length_a   5.74493839
_cell_length_b   5.74493839
_cell_length_c   5.74493839
_cell_angle_alpha   119.78365957
_cell_angle_beta   119.78365957
_cell_angle_gamma   90.37512284
_symmetry_Int_Tables_number   1
_chemical_formula_structural   La2NbCrO6
_chemical_formula_sum   'La2 Nb1 Cr1 O6'
_cell_volume   134.50823314
_cell_formula_units_Z   1
loop_
 _symmetry_equiv_pos_site_id
 _symmetry_equiv_pos_as_xyz
  1  'x, y, z'
loop_
 _atom_site_type_symbol
 _atom_site_label
 _atom_site_symmetry_multiplicity
 _atom_site_fract_x
 _atom_site_fract_y
 _atom_site_fract_z
 _atom_site_occupancy
  La  La0  1  0.75000000  0.25000000  0.50000000  1
  La  La1  1  0.25000000  0.75000000  0.50000000  1
  Nb  Nb0  1  0.50000000  0.50000000  0.00000000  1
  Cr  Cr0  1  0.00000000  0.00000000  0.00000000  1
  O  O0  1  0.75286200  0.75286200  0.00000000  1
  O  O1  1  0.24713800  0.24713800  0.00000000  1
  O  O2  1  0.18321300  0.66311400  0.84632600  1
  O  O3  1  0.81678700  0.33688600  0.15367400  1
  O  O4  1  0.33688600  0.18321300  0.52009900  1
  O  O5  1  0.66311400  0.81678700  0.47990100  1
loop_
_geom_bond_atom_site_label_1
_geom_bond_atom_site_label_2
_geom_bond_distance
_geom_bond_site_symmetry_2
La0 O3 2.469307 1_555
La0 O5 2.469313 1_545
La0 O4 2.469313 1_555
La0 O2 2.469314 1_655
La0 O1 2.881950 1_555
La0 O0 2.881950 1_545
La0 O1 2.881950 1_656
La0 O0 2.881950 1_556
La1 O2 2.469307 1_555
La1 O4 2.469313 1_565
La1 O5 2.469313 1_555
La1 O3 2.469314 1_455
La1 O1 2.881950 1_555
La1 O1 2.881950 1_566
La1 O0 2.881950 1_455
La1 O0 2.881950 1_556
Nb0 O0 2.047659 1_555
Nb0 O1 2.047659 1_555
Nb0 O5 2.053696 1_555
Nb0 O4 2.053696 1_554
Nb0 O3 2.053697 1_555
Nb0 O2 2.053697 1_554
Cr0 O1 2.001306 1_555
Cr0 O0 2.001306 1_445
Cr0 O4 2.210286 1_555
Cr0 O5 2.210286 1_444
Cr0 O3 2.210287 1_455
Cr0 O2 2.210287 1_544
