# generated using pymatgen
data_Sm2Si5Ni3
_symmetry_space_group_name_H-M   'P 1'
_cell_length_a   7.94654719
_cell_length_b   7.94654719
_cell_length_c   7.94654719
_cell_angle_alpha   137.91314594
_cell_angle_beta   105.52847989
_cell_angle_gamma   89.43580066
_symmetry_Int_Tables_number   1
_chemical_formula_structural   Sm2Si5Ni3
_chemical_formula_sum   'Sm4 Si10 Ni6'
_cell_volume   309.89764127
_cell_formula_units_Z   2
loop_
 _symmetry_equiv_pos_site_id
 _symmetry_equiv_pos_as_xyz
  1  'x, y, z'
loop_
 _atom_site_type_symbol
 _atom_site_label
 _atom_site_symmetry_multiplicity
 _atom_site_fract_x
 _atom_site_fract_y
 _atom_site_fract_z
 _atom_site_occupancy
  Sm  Sm0  1  0.86830100  0.63112300  0.23717800  1
  Sm  Sm1  1  0.13169900  0.36887700  0.76282200  1
  Sm  Sm2  1  0.39394500  0.13112300  0.26282200  1
  Sm  Sm3  1  0.60605500  0.86887700  0.73717800  1
  Si  Si0  1  0.50000000  0.75000000  0.25000000  1
  Si  Si1  1  0.50000000  0.25000000  0.75000000  1
  Si  Si2  1  0.23527900  0.98527900  0.75000000  1
  Si  Si3  1  0.76472100  0.51472100  0.75000000  1
  Si  Si4  1  0.76472100  0.01472100  0.25000000  1
  Si  Si5  1  0.23527900  0.48527900  0.25000000  1
  Si  Si6  1  0.04233600  0.89244200  0.14989300  1
  Si  Si7  1  0.95766400  0.10755800  0.85010700  1
  Si  Si8  1  0.74254900  0.39244200  0.35010700  1
  Si  Si9  1  0.25745100  0.60755800  0.64989300  1
  Ni  Ni0  1  0.00000000  0.75000000  0.75000000  1
  Ni  Ni1  1  0.00000000  0.25000000  0.25000000  1
  Ni  Ni2  1  0.25582900  0.86703700  0.38879200  1
  Ni  Ni3  1  0.74417100  0.13296300  0.61120800  1
  Ni  Ni4  1  0.47824600  0.36703700  0.11120800  1
  Ni  Ni5  1  0.52175400  0.63296300  0.88879200  1
loop_
_geom_bond_atom_site_label_1
_geom_bond_atom_site_label_2
_geom_bond_distance
_geom_bond_site_symmetry_2
Si0 Sm3 3.070964 1_555
Si0 Sm0 3.070964 1_555
Si0 Sm1 3.070964 1_554
Si0 Sm2 3.070964 1_565
Si1 Sm3 3.070964 1_545
Si1 Sm0 3.070964 1_556
Si1 Sm2 3.070964 1_555
Si1 Sm1 3.070964 1_555
Si2 Si9 2.488755 1_555
Si2 Si7 2.488763 1_465
Si2 Sm1 3.084539 1_565
Si2 Sm3 3.084539 1_555
Si2 Sm2 3.131684 1_566
Si2 Sm0 3.131684 1_455
Si3 Si8 2.488755 1_555
Si3 Si6 2.488760 1_656
Si3 Sm2 3.084539 1_555
Si3 Sm0 3.084539 1_556
Si3 Sm1 3.131684 1_655
Si3 Sm3 3.131684 1_555
Si4 Si8 2.488755 1_555
Si4 Si6 2.488763 1_645
Si4 Sm0 3.084539 1_545
Si4 Sm2 3.084539 1_555
Si4 Sm3 3.131684 1_544
Si4 Sm1 3.131684 1_655
Si5 Si9 2.488755 1_555
Si5 Si7 2.488760 1_454
Si5 Sm3 3.084539 1_555
Si5 Sm1 3.084539 1_554
Si5 Sm2 3.131684 1_555
Si5 Sm0 3.131684 1_455
Si6 Sm2 2.906048 1_565
Si6 Sm1 3.064668 1_554
Si6 Sm1 3.064673 1_565
Si6 Sm0 3.068217 1_455
Si7 Sm3 2.906048 1_545
Si7 Sm0 3.064668 1_556
Si7 Sm0 3.064673 1_545
Si7 Sm1 3.068217 1_655
Si8 Sm0 2.906055 1_555
Si8 Sm3 3.064672 1_555
Si8 Sm3 3.064672 1_544
Si8 Sm2 3.068213 1_555
Si9 Sm1 2.906055 1_555
Si9 Sm2 3.064672 1_566
Si9 Sm2 3.064672 1_555
Si9 Sm3 3.068213 1_555
Ni0 Si6 2.364077 1_556
Ni0 Si9 2.364078 1_555
Ni0 Si8 2.364078 1_455
Ni0 Si7 2.364080 1_465
Ni0 Si2 2.657079 1_555
Ni0 Si3 2.657079 1_455
Ni0 Ni1 2.853410 1_555
Ni0 Ni1 2.853410 1_566
Ni0 Sm2 3.258320 1_566
Ni0 Sm1 3.258320 1_555
Ni0 Sm0 3.258320 1_455
Ni0 Sm3 3.258320 1_455
Ni1 Si7 2.364077 1_454
Ni1 Si9 2.364078 1_555
Ni1 Si8 2.364078 1_455
Ni1 Si6 2.364080 1_545
Ni1 Si4 2.657079 1_455
Ni1 Si5 2.657079 1_555
Ni1 Sm1 3.258320 1_555
Ni1 Sm0 3.258320 1_455
Ni1 Sm3 3.258320 1_444
Ni1 Sm2 3.258320 1_555
Ni2 Si6 2.315297 1_555
Ni2 Si5 2.322359 1_555
Ni2 Si2 2.322359 1_555
Ni2 Si1 2.331102 1_565
Ni2 Si0 2.331102 1_555
Ni2 Sm0 3.037126 1_455
Ni2 Sm1 3.099993 1_565
Ni2 Sm1 3.099993 1_554
Ni2 Sm2 3.219055 1_565
Ni2 Sm3 3.350440 1_555
Ni3 Si7 2.315297 1_555
Ni3 Si3 2.322359 1_555
Ni3 Si4 2.322359 1_555
Ni3 Si0 2.331102 1_545
Ni3 Si1 2.331102 1_555
Ni3 Sm1 3.037126 1_655
Ni3 Sm0 3.099993 1_545
Ni3 Sm0 3.099993 1_556
Ni3 Sm3 3.219055 1_545
Ni3 Sm2 3.350440 1_555
Ni4 Si8 2.315296 1_555
Ni4 Si2 2.322363 1_544
Ni4 Si5 2.322366 1_555
Ni4 Si1 2.331098 1_554
Ni4 Si0 2.331102 1_555
Ni4 Sm2 3.037129 1_555
Ni4 Sm3 3.099988 1_544
Ni4 Sm3 3.099993 1_555
Ni4 Sm0 3.219048 1_555
Ni4 Sm1 3.350445 1_554
Ni5 Si9 2.315296 1_555
Ni5 Si4 2.322363 1_566
Ni5 Si3 2.322366 1_555
Ni5 Si0 2.331098 1_556
Ni5 Si1 2.331102 1_555
Ni5 Sm3 3.037129 1_555
Ni5 Sm2 3.099988 1_566
Ni5 Sm2 3.099993 1_555
Ni5 Sm1 3.219048 1_555
Ni5 Sm0 3.350445 1_556
