# generated using pymatgen
data_Y2MgS4
_symmetry_space_group_name_H-M   'P 1'
_cell_length_a   7.96257900
_cell_length_b   7.29880300
_cell_length_c   11.46839600
_cell_angle_alpha   90.00000000
_cell_angle_beta   90.00000000
_cell_angle_gamma   90.00000000
_symmetry_Int_Tables_number   1
_chemical_formula_structural   Y2MgS4
_chemical_formula_sum   'Y8 Mg4 S16'
_cell_volume   666.51215916
_cell_formula_units_Z   4
loop_
 _symmetry_equiv_pos_site_id
 _symmetry_equiv_pos_as_xyz
  1  'x, y, z'
loop_
 _atom_site_type_symbol
 _atom_site_label
 _atom_site_symmetry_multiplicity
 _atom_site_fract_x
 _atom_site_fract_y
 _atom_site_fract_z
 _atom_site_occupancy
  Y  Y0  1  0.04066000  0.75000000  0.30895000  1
  Y  Y1  1  0.95934000  0.25000000  0.69105000  1
  Y  Y2  1  0.45934000  0.25000000  0.80895000  1
  Y  Y3  1  0.54066000  0.75000000  0.19105000  1
  Y  Y4  1  0.07179800  0.25000000  0.02028900  1
  Y  Y5  1  0.92820200  0.75000000  0.97971100  1
  Y  Y6  1  0.42820200  0.75000000  0.52028900  1
  Y  Y7  1  0.57179800  0.25000000  0.47971100  1
  Mg  Mg0  1  0.18083100  0.25000000  0.40752900  1
  Mg  Mg1  1  0.81916900  0.75000000  0.59247100  1
  Mg  Mg2  1  0.31916900  0.75000000  0.90752900  1
  Mg  Mg3  1  0.68083100  0.25000000  0.09247100  1
  S  S0  1  0.12969700  0.50204200  0.84250300  1
  S  S1  1  0.87030300  0.49795800  0.15749700  1
  S  S2  1  0.37030300  0.49795800  0.34250300  1
  S  S3  1  0.62969700  0.50204200  0.65749700  1
  S  S4  1  0.62969700  0.99795800  0.65749700  1
  S  S5  1  0.37030300  0.00204200  0.34250300  1
  S  S6  1  0.87030300  0.00204200  0.15749700  1
  S  S7  1  0.12969700  0.99795800  0.84250300  1
  S  S8  1  0.89558500  0.25000000  0.45644000  1
  S  S9  1  0.10441500  0.75000000  0.54356000  1
  S  S10  1  0.60441500  0.75000000  0.95644000  1
  S  S11  1  0.39558500  0.25000000  0.04356000  1
  S  S12  1  0.22099300  0.75000000  0.10969800  1
  S  S13  1  0.77900700  0.25000000  0.89030200  1
  S  S14  1  0.27900700  0.25000000  0.60969800  1
  S  S15  1  0.72099300  0.75000000  0.39030200  1
loop_
_geom_bond_atom_site_label_1
_geom_bond_atom_site_label_2
_geom_bond_distance
_geom_bond_site_symmetry_2
Mg0 S8 2.339534 1_455
Mg0 S14 2.446794 1_555
Mg0 S5 2.471362 1_555
Mg0 S2 2.471362 1_555
Mg1 S9 2.339534 1_655
Mg1 S15 2.446794 1_555
Mg1 S3 2.471362 1_555
Mg1 S4 2.471362 1_555
Mg2 S10 2.339534 1_555
Mg2 S12 2.446794 1_556
Mg2 S7 2.471362 1_555
Mg2 S0 2.471362 1_555
Mg3 S11 2.339534 1_555
Mg3 S13 2.446794 1_554
Mg3 S6 2.471362 1_555
Mg3 S1 2.471362 1_555
S0 Y4 2.784580 1_556
S0 Y1 2.870730 1_455
S0 Y5 2.885412 1_455
S0 Y2 3.228287 1_555
S1 Y5 2.784580 1_554
S1 Y0 2.870730 1_655
S1 Y4 2.885412 1_655
S1 Y3 3.228287 1_555
S2 Y6 2.784580 1_555
S2 Y3 2.870730 1_555
S2 Y7 2.885412 1_555
S2 Y0 3.228287 1_555
S3 Y7 2.784580 1_555
S3 Y2 2.870730 1_555
S3 Y6 2.885412 1_555
S3 Y1 3.228287 1_555
S4 Y7 2.784580 1_565
S4 Y2 2.870730 1_565
S4 Y6 2.885412 1_555
S4 Y1 3.228287 1_565
S5 Y6 2.784580 1_545
S5 Y3 2.870730 1_545
S5 Y7 2.885412 1_555
S5 Y0 3.228287 1_545
S6 Y5 2.784580 1_544
S6 Y0 2.870730 1_645
S6 Y4 2.885412 1_655
S6 Y3 3.228287 1_545
S7 Y4 2.784580 1_566
S7 Y1 2.870730 1_465
S7 Y5 2.885412 1_455
S7 Y2 3.228287 1_565
S8 Y7 2.591956 1_555
S8 Y1 2.738073 1_555
S9 Y6 2.591956 1_555
S9 Y0 2.738073 1_555
S10 Y5 2.591956 1_555
S10 Y3 2.738073 1_556
S11 Y4 2.591956 1_555
S11 Y2 2.738073 1_554
S12 Y0 2.698803 1_555
S12 Y3 2.710973 1_555
S12 Y5 2.767238 1_454
S13 Y1 2.698803 1_555
S13 Y2 2.710973 1_555
S13 Y4 2.767238 1_656
S14 Y2 2.698803 1_555
S14 Y1 2.710973 1_455
S14 Y7 2.767238 1_555
S15 Y3 2.698803 1_555
S15 Y0 2.710973 1_655
S15 Y6 2.767238 1_555
