# generated using pymatgen
data_Fe7GeN6
_symmetry_space_group_name_H-M   'P 1'
_cell_length_a   8.08677700
_cell_length_b   6.33944500
_cell_length_c   10.70788200
_cell_angle_alpha   90.00000000
_cell_angle_beta   90.00000000
_cell_angle_gamma   90.00000000
_symmetry_Int_Tables_number   1
_chemical_formula_structural   Fe7GeN6
_chemical_formula_sum   'Fe28 Ge4 N24'
_cell_volume   548.94683087
_cell_formula_units_Z   4
loop_
 _symmetry_equiv_pos_site_id
 _symmetry_equiv_pos_as_xyz
  1  'x, y, z'
loop_
 _atom_site_type_symbol
 _atom_site_label
 _atom_site_symmetry_multiplicity
 _atom_site_fract_x
 _atom_site_fract_y
 _atom_site_fract_z
 _atom_site_occupancy
  Fe  Fe0  1  0.00806800  0.68308400  0.94680800  1
  Fe  Fe1  1  0.49193200  0.81691600  0.44680800  1
  Fe  Fe2  1  0.50806800  0.81691600  0.05319200  1
  Fe  Fe3  1  0.99193200  0.68308400  0.55319200  1
  Fe  Fe4  1  0.99193200  0.31691600  0.05319200  1
  Fe  Fe5  1  0.50806800  0.18308400  0.55319200  1
  Fe  Fe6  1  0.49193200  0.18308400  0.94680800  1
  Fe  Fe7  1  0.00806800  0.31691600  0.44680800  1
  Fe  Fe8  1  0.26577100  0.63673200  0.67365000  1
  Fe  Fe9  1  0.23422900  0.86326800  0.17365000  1
  Fe  Fe10  1  0.76577100  0.86326800  0.32635000  1
  Fe  Fe11  1  0.73422900  0.63673200  0.82635000  1
  Fe  Fe12  1  0.73422900  0.36326800  0.32635000  1
  Fe  Fe13  1  0.76577100  0.13673200  0.82635000  1
  Fe  Fe14  1  0.23422900  0.13673200  0.67365000  1
  Fe  Fe15  1  0.26577100  0.36326800  0.17365000  1
  Fe  Fe16  1  0.31590700  0.59394400  0.92268300  1
  Fe  Fe17  1  0.18409300  0.90605600  0.42268300  1
  Fe  Fe18  1  0.81590700  0.90605600  0.07731700  1
  Fe  Fe19  1  0.68409300  0.59394400  0.57731700  1
  Fe  Fe20  1  0.68409300  0.40605600  0.07731700  1
  Fe  Fe21  1  0.81590700  0.09394400  0.57731700  1
  Fe  Fe22  1  0.18409300  0.09394400  0.92268300  1
  Fe  Fe23  1  0.31590700  0.40605600  0.42268300  1
  Fe  Fe24  1  0.00000000  0.39633100  0.75000000  1
  Fe  Fe25  1  0.50000000  0.10366900  0.25000000  1
  Fe  Fe26  1  0.00000000  0.60366900  0.25000000  1
  Fe  Fe27  1  0.50000000  0.89633100  0.75000000  1
  Ge  Ge0  1  0.00000000  0.90023600  0.75000000  1
  Ge  Ge1  1  0.50000000  0.59976400  0.25000000  1
  Ge  Ge2  1  0.00000000  0.09976400  0.25000000  1
  Ge  Ge3  1  0.50000000  0.40023600  0.75000000  1
  N  N0  1  0.14440700  0.58730800  0.81669100  1
  N  N1  1  0.35559300  0.91269200  0.31669100  1
  N  N2  1  0.64440700  0.91269200  0.18330900  1
  N  N3  1  0.85559300  0.58730800  0.68330900  1
  N  N4  1  0.85559300  0.41269200  0.18330900  1
  N  N5  1  0.64440700  0.08730800  0.68330900  1
  N  N6  1  0.35559300  0.08730800  0.81669100  1
  N  N7  1  0.14440700  0.41269200  0.31669100  1
  N  N8  1  0.20739200  0.62538200  0.51045100  1
  N  N9  1  0.29260800  0.87461800  0.01045100  1
  N  N10  1  0.70739200  0.87461800  0.48954900  1
  N  N11  1  0.79260800  0.62538200  0.98954900  1
  N  N12  1  0.79260800  0.37461800  0.48954900  1
  N  N13  1  0.70739200  0.12538200  0.98954900  1
  N  N14  1  0.29260800  0.12538200  0.51045100  1
  N  N15  1  0.20739200  0.37461800  0.01045100  1
  N  N16  1  0.47494700  0.72334600  0.61208700  1
  N  N17  1  0.02505300  0.77665400  0.11208700  1
  N  N18  1  0.97494700  0.77665400  0.38791300  1
  N  N19  1  0.52505300  0.72334600  0.88791300  1
  N  N20  1  0.52505300  0.27665400  0.38791300  1
  N  N21  1  0.97494700  0.22334600  0.88791300  1
  N  N22  1  0.02505300  0.22334600  0.61208700  1
  N  N23  1  0.47494700  0.27665400  0.11208700  1
loop_
_geom_bond_atom_site_label_1
_geom_bond_atom_site_label_2
_geom_bond_distance
_geom_bond_site_symmetry_2
Fe0 N11 1.838245 1_455
Fe0 N17 1.871598 1_556
Fe0 N0 1.877625 1_555
Fe0 Ge0 2.518029 1_555
Fe1 N10 1.838245 1_555
Fe1 N16 1.871598 1_555
Fe1 N1 1.877625 1_555
Fe1 Ge1 2.518029 1_555
Fe2 N9 1.838245 1_555
Fe2 N19 1.871598 1_554
Fe2 N2 1.877625 1_555
Fe2 Ge1 2.518029 1_555
Fe3 N8 1.838245 1_655
Fe3 N18 1.871598 1_555
Fe3 N3 1.877625 1_555
Fe3 Ge0 2.518029 1_655
Fe4 N15 1.838245 1_655
Fe4 N21 1.871598 1_554
Fe4 N4 1.877625 1_555
Fe4 Ge2 2.518029 1_655
Fe5 N14 1.838245 1_555
Fe5 N20 1.871598 1_555
Fe5 N5 1.877625 1_555
Fe5 Ge3 2.518029 1_555
Fe6 N13 1.838245 1_555
Fe6 N23 1.871598 1_556
Fe6 N6 1.877625 1_555
Fe6 Ge3 2.518029 1_555
Fe7 N12 1.838245 1_455
Fe7 N22 1.871598 1_555
Fe7 N7 1.877625 1_555
Fe7 Ge2 2.518029 1_555
Fe8 N8 1.811592 1_555
Fe8 N0 1.845915 1_555
Fe8 N16 1.896688 1_555
Fe8 Ge3 2.550290 1_555
Fe8 Ge0 2.842190 1_555
Fe9 N9 1.811592 1_555
Fe9 N1 1.845915 1_555
Fe9 N17 1.896688 1_555
Fe9 Ge2 2.550290 1_565
Fe9 Ge1 2.842190 1_555
Fe10 N10 1.811592 1_555
Fe10 N2 1.845915 1_555
Fe10 N18 1.896688 1_555
Fe10 Ge2 2.550290 1_665
Fe10 Ge1 2.842190 1_555
Fe11 N11 1.811592 1_555
Fe11 N3 1.845915 1_555
Fe11 N19 1.896688 1_555
Fe11 Ge3 2.550290 1_555
Fe11 Ge0 2.842190 1_655
Fe12 N12 1.811592 1_555
Fe12 N4 1.845915 1_555
Fe12 N20 1.896688 1_555
Fe12 Ge1 2.550290 1_555
Fe12 Ge2 2.842190 1_655
Fe13 N13 1.811592 1_555
Fe13 N5 1.845915 1_555
Fe13 N21 1.896688 1_555
Fe13 Ge0 2.550290 1_645
Fe13 Ge3 2.842190 1_555
Fe14 N14 1.811592 1_555
Fe14 N6 1.845915 1_555
Fe14 N22 1.896688 1_555
Fe14 Ge0 2.550290 1_545
Fe14 Ge3 2.842190 1_555
Fe15 N15 1.811592 1_555
Fe15 N7 1.845915 1_555
Fe15 N23 1.896688 1_555
Fe15 Ge1 2.550290 1_555
Fe15 Ge2 2.842190 1_555
Fe16 N0 1.792574 1_555
Fe16 N15 1.893816 1_556
Fe16 N19 1.916278 1_555
Fe16 N9 2.021067 1_556
Fe16 Ge3 2.672701 1_555
Fe17 N1 1.792574 1_555
Fe17 N14 1.893816 1_565
Fe17 N18 1.916278 1_455
Fe17 N8 2.021067 1_555
Fe17 Ge2 2.672701 1_565
Fe18 N2 1.792574 1_555
Fe18 N13 1.893816 1_564
Fe18 N17 1.916278 1_655
Fe18 N11 2.021067 1_554
Fe18 Ge2 2.672701 1_665
Fe19 N3 1.792574 1_555
Fe19 N12 1.893816 1_555
Fe19 N16 1.916278 1_555
Fe19 N10 2.021067 1_555
Fe19 Ge3 2.672701 1_555
Fe20 N4 1.792574 1_555
Fe20 N11 1.893816 1_554
Fe20 N23 1.916278 1_555
Fe20 N13 2.021067 1_554
Fe20 Ge1 2.672701 1_555
Fe21 N5 1.792574 1_555
Fe21 N10 1.893816 1_545
Fe21 N22 1.916278 1_655
Fe21 N12 2.021067 1_555
Fe21 Ge0 2.672701 1_645
Fe22 N6 1.792574 1_555
Fe22 N9 1.893816 1_546
Fe22 N21 1.916278 1_455
Fe22 N15 2.021067 1_556
Fe22 Ge0 2.672701 1_545
Fe23 N7 1.792574 1_555
Fe23 N8 1.893816 1_555
Fe23 N20 1.916278 1_555
Fe23 N14 2.021067 1_555
Fe23 Ge1 2.672701 1_555
Fe24 N3 1.827419 1_455
Fe24 N0 1.827419 1_555
Fe24 N21 1.850527 1_455
Fe24 N22 1.850527 1_555
Fe25 N2 1.827419 1_545
Fe25 N1 1.827419 1_545
Fe25 N20 1.850527 1_555
Fe25 N23 1.850527 1_555
Fe26 N4 1.827419 1_455
Fe26 N7 1.827419 1_555
Fe26 N18 1.850527 1_455
Fe26 N17 1.850527 1_555
Fe27 N5 1.827419 1_565
Fe27 N6 1.827419 1_565
Fe27 N16 1.850527 1_555
Fe27 N19 1.850527 1_555
Ge0 N0 2.410211 1_555
Ge0 N3 2.410211 1_455
Ge0 N22 2.533287 1_565
Ge0 N21 2.533287 1_465
Ge1 N2 2.410211 1_555
Ge1 N1 2.410211 1_555
Ge1 N20 2.533287 1_555
Ge1 N23 2.533287 1_555
Ge2 N4 2.410211 1_455
Ge2 N7 2.410211 1_555
Ge2 N17 2.533287 1_545
Ge2 N18 2.533287 1_445
Ge3 N6 2.410211 1_555
Ge3 N5 2.410211 1_555
Ge3 N16 2.533287 1_555
Ge3 N19 2.533287 1_555
