# generated using pymatgen
data_TiAgPO5
_symmetry_space_group_name_H-M   'P 1'
_cell_length_a   6.29254803
_cell_length_b   10.49910933
_cell_length_c   12.51379858
_cell_angle_alpha   90.00000000
_cell_angle_beta   90.00000000
_cell_angle_gamma   90.00000000
_symmetry_Int_Tables_number   1
_chemical_formula_structural   TiAgPO5
_chemical_formula_sum   'Ti8 Ag8 P8 O40'
_cell_volume   826.73849069
_cell_formula_units_Z   8
loop_
 _symmetry_equiv_pos_site_id
 _symmetry_equiv_pos_as_xyz
  1  'x, y, z'
loop_
 _atom_site_type_symbol
 _atom_site_label
 _atom_site_symmetry_multiplicity
 _atom_site_fract_x
 _atom_site_fract_y
 _atom_site_fract_z
 _atom_site_occupancy
  Ti  Ti0  1  0.29432043  0.23500113  0.28211888  1
  Ti  Ti1  1  0.70567957  0.73500113  0.71788112  1
  Ti  Ti2  1  0.20567957  0.23500113  0.78211888  1
  Ti  Ti3  1  0.79432043  0.73500113  0.21788112  1
  Ti  Ti4  1  0.53871506  0.00716319  0.12932395  1
  Ti  Ti5  1  0.46128494  0.50716319  0.87067605  1
  Ti  Ti6  1  0.96128494  0.00716319  0.62932395  1
  Ti  Ti7  1  0.03871506  0.50716319  0.37067605  1
  Ag  Ag0  1  0.24857379  0.61179004  0.11206170  1
  Ag  Ag1  1  0.75142621  0.11179004  0.88793830  1
  Ag  Ag2  1  0.25142621  0.61179004  0.61206170  1
  Ag  Ag3  1  0.74857379  0.11179004  0.38793830  1
  Ag  Ag4  1  0.81971171  0.29228136  0.15827286  1
  Ag  Ag5  1  0.18028829  0.79228136  0.84172714  1
  Ag  Ag6  1  0.68028829  0.29228136  0.65827286  1
  Ag  Ag7  1  0.31971171  0.79228136  0.34172714  1
  P  P0  1  0.34675181  0.27683551  0.02648416  1
  P  P1  1  0.65324819  0.77683551  0.97351584  1
  P  P2  1  0.15324819  0.27683551  0.52648416  1
  P  P3  1  0.84675181  0.77683551  0.47351584  1
  P  P4  1  0.04482538  0.00299257  0.18311763  1
  P  P5  1  0.95517462  0.50299257  0.81688237  1
  P  P6  1  0.45517462  0.00299257  0.68311763  1
  P  P7  1  0.54482538  0.50299257  0.31688237  1
  O  O0  1  0.21600811  0.26814772  0.12934877  1
  O  O1  1  0.78399189  0.76814772  0.87065123  1
  O  O2  1  0.28399189  0.26814772  0.62934877  1
  O  O3  1  0.71600811  0.76814772  0.37065123  1
  O  O4  1  0.23458031  0.00031505  0.10771918  1
  O  O5  1  0.76541969  0.50031505  0.89228082  1
  O  O6  1  0.26541969  0.00031505  0.60771918  1
  O  O7  1  0.73458031  0.50031505  0.39228082  1
  O  O8  1  0.08153696  0.09620585  0.27674886  1
  O  O9  1  0.91846304  0.59620585  0.72325114  1
  O  O10  1  0.41846304  0.09620585  0.77674886  1
  O  O11  1  0.58153696  0.59620585  0.22325114  1
  O  O12  1  0.51357195  0.36984545  0.26873514  1
  O  O13  1  0.48642805  0.86984545  0.73126486  1
  O  O14  1  0.98642805  0.36984545  0.76873514  1
  O  O15  1  0.01357195  0.86984545  0.23126486  1
  O  O16  1  0.08188309  0.41559270  0.51108536  1
  O  O17  1  0.91811691  0.91559270  0.48891464  1
  O  O18  1  0.41811691  0.41559270  0.01108536  1
  O  O19  1  0.58188309  0.91559270  0.98891464  1
  O  O20  1  0.30192937  0.23387005  0.43499448  1
  O  O21  1  0.69807063  0.73387005  0.56500552  1
  O  O22  1  0.19807063  0.23387005  0.93499448  1
  O  O23  1  0.80192937  0.73387005  0.06500552  1
  O  O24  1  0.06274801  0.36356517  0.29832134  1
  O  O25  1  0.93725199  0.86356517  0.70167866  1
  O  O26  1  0.43725199  0.36356517  0.79832134  1
  O  O27  1  0.56274801  0.86356517  0.20167866  1
  O  O28  1  0.54131334  0.18768727  0.03353050  1
  O  O29  1  0.45868666  0.68768727  0.96646950  1
  O  O30  1  0.95868666  0.18768727  0.53353050  1
  O  O31  1  0.04131334  0.68768727  0.46646950  1
  O  O32  1  0.50734707  0.11856934  0.25151071  1
  O  O33  1  0.49265293  0.61856934  0.74848929  1
  O  O34  1  0.99265293  0.11856934  0.75151071  1
  O  O35  1  0.00734707  0.61856934  0.24848929  1
  O  O36  1  0.34865620  0.54623762  0.37865467  1
  O  O37  1  0.65134380  0.04623762  0.62134533  1
  O  O38  1  0.15134380  0.54623762  0.87865467  1
  O  O39  1  0.84865620  0.04623762  0.12134533  1
loop_
_geom_bond_atom_site_label_1
_geom_bond_atom_site_label_2
_geom_bond_distance
_geom_bond_site_symmetry_2
Ag0 O35 2.285565 1_555
Ag0 O29 2.387971 1_554
Ag0 O11 2.520432 1_555
Ag0 O18 2.641598 1_555
Ag1 O34 2.285565 1_555
Ag1 O28 2.387971 1_556
Ag1 O10 2.520432 1_555
Ag1 O19 2.641598 1_545
Ag2 O33 2.285565 1_555
Ag2 O31 2.387971 1_555
Ag2 O9 2.520432 1_455
Ag2 O16 2.641598 1_555
Ag3 O32 2.285565 1_555
Ag3 O30 2.387971 1_555
Ag3 O8 2.520432 1_655
Ag3 O17 2.641598 1_545
Ag4 O24 2.443426 1_655
Ag4 O12 2.506980 1_555
Ag4 O0 2.532552 1_655
Ag4 O28 2.590670 1_555
Ag4 O39 2.630559 1_555
Ag5 O25 2.443426 1_455
Ag5 O13 2.506980 1_555
Ag5 O1 2.532552 1_455
Ag5 O29 2.590670 1_555
Ag5 O38 2.630559 1_555
Ag6 O26 2.443426 1_555
Ag6 O14 2.506980 1_555
Ag6 O2 2.532552 1_555
Ag6 O30 2.590670 1_555
Ag6 O37 2.630559 1_555
Ag7 O27 2.443426 1_555
Ag7 O15 2.506980 1_555
Ag7 O3 2.532552 1_555
Ag7 O31 2.590670 1_555
Ag7 O36 2.630559 1_555
O0 P0 1.530401 1_555
O0 Ti0 2.004663 1_555
O1 P1 1.530401 1_555
O1 Ti1 2.004663 1_555
O2 P2 1.530401 1_555
O2 Ti2 2.004663 1_555
O3 P3 1.530401 1_555
O3 Ti3 2.004663 1_555
O4 P4 1.522090 1_555
O4 Ti4 1.934122 1_555
O5 P5 1.522090 1_555
O5 Ti5 1.934122 1_555
O6 P6 1.522090 1_555
O6 Ti6 1.934122 1_455
O7 P7 1.522090 1_555
O7 Ti7 1.934122 1_655
O8 P4 1.544012 1_555
O8 Ti0 1.980104 1_555
O9 P5 1.544012 1_555
O9 Ti1 1.980104 1_555
O10 P6 1.544012 1_555
O10 Ti2 1.980104 1_555
O11 P7 1.544012 1_555
O11 Ti3 1.980104 1_555
O12 P7 1.534890 1_555
O12 Ti0 1.983890 1_555
O13 P6 1.534890 1_565
O13 Ti1 1.983890 1_555
O14 P5 1.534890 1_555
O14 Ti2 1.983890 1_655
O15 P4 1.534890 1_565
O15 Ti3 1.983890 1_455
O16 P2 1.536600 1_555
O16 Ti7 2.021220 1_555
O17 P3 1.536600 1_555
O17 Ti6 2.021220 1_565
O18 P0 1.536600 1_555
O18 Ti5 2.021220 1_554
O19 P1 1.536600 1_555
O19 Ti4 2.021220 1_566
O20 P2 1.545822 1_555
O20 Ti0 1.913690 1_555
O21 P3 1.545822 1_555
O21 Ti1 1.913690 1_555
O22 P0 1.545822 1_556
O22 Ti2 1.913690 1_555
O23 P1 1.545822 1_554
O23 Ti3 1.913690 1_555
O24 Ti7 1.765132 1_555
O24 Ti0 1.996614 1_555
O25 Ti6 1.765132 1_565
O25 Ti1 1.996614 1_555
O26 Ti5 1.765132 1_555
O26 Ti2 1.996614 1_555
O27 Ti4 1.765132 1_565
O27 Ti3 1.996614 1_555
O28 P0 1.543603 1_555
O28 Ti4 2.242669 1_555
O29 P1 1.543603 1_555
O29 Ti5 2.242669 1_555
O30 P2 1.543603 1_655
O30 Ti6 2.242669 1_555
O31 P3 1.543603 1_455
O31 Ti7 2.242669 1_555
O32 Ti0 1.854166 1_555
O32 Ti4 1.935195 1_555
O33 Ti1 1.854166 1_555
O33 Ti5 1.935195 1_555
O34 Ti2 1.854166 1_655
O34 Ti6 1.935195 1_555
O35 Ti3 1.854166 1_455
O35 Ti7 1.935195 1_555
O36 P7 1.525595 1_555
O36 Ti7 1.995499 1_555
O37 P6 1.525595 1_555
O37 Ti6 1.995499 1_555
O38 P5 1.525595 1_455
O38 Ti5 1.995499 1_555
O39 P4 1.525595 1_655
O39 Ti4 1.995499 1_555
