# generated using pymatgen
data_Cs3La(MoO4)3
_symmetry_space_group_name_H-M   'P 1'
_cell_length_a   6.56724400
_cell_length_b   9.57543700
_cell_length_c   26.57538900
_cell_angle_alpha   90.00000000
_cell_angle_beta   90.00000000
_cell_angle_gamma   90.00000000
_symmetry_Int_Tables_number   1
_chemical_formula_structural   Cs3La(MoO4)3
_chemical_formula_sum   'Cs12 La4 Mo12 O48'
_cell_volume   1671.17290572
_cell_formula_units_Z   4
loop_
 _symmetry_equiv_pos_site_id
 _symmetry_equiv_pos_as_xyz
  1  'x, y, z'
loop_
 _atom_site_type_symbol
 _atom_site_label
 _atom_site_symmetry_multiplicity
 _atom_site_fract_x
 _atom_site_fract_y
 _atom_site_fract_z
 _atom_site_occupancy
  Cs  Cs0  1  0.25000000  0.52515000  0.09205400  1
  Cs  Cs1  1  0.75000000  0.47485000  0.90794600  1
  Cs  Cs2  1  0.75000000  0.97485000  0.59205400  1
  Cs  Cs3  1  0.25000000  0.02515000  0.40794600  1
  Cs  Cs4  1  0.25000000  0.60330700  0.67972200  1
  Cs  Cs5  1  0.75000000  0.39669300  0.32027800  1
  Cs  Cs6  1  0.75000000  0.89669300  0.17972200  1
  Cs  Cs7  1  0.25000000  0.10330700  0.82027800  1
  Cs  Cs8  1  0.25000000  0.68808100  0.25878600  1
  Cs  Cs9  1  0.75000000  0.31191900  0.74121400  1
  Cs  Cs10  1  0.75000000  0.81191900  0.75878600  1
  Cs  Cs11  1  0.25000000  0.18808100  0.24121400  1
  La  La0  1  0.25000000  0.81713900  0.95885100  1
  La  La1  1  0.75000000  0.18286100  0.04114900  1
  La  La2  1  0.75000000  0.68286100  0.45885100  1
  La  La3  1  0.25000000  0.31713900  0.54114900  1
  Mo  Mo0  1  0.25000000  0.61476400  0.82523400  1
  Mo  Mo1  1  0.75000000  0.38523600  0.17476600  1
  Mo  Mo2  1  0.75000000  0.88523600  0.32523400  1
  Mo  Mo3  1  0.25000000  0.11476400  0.67476600  1
  Mo  Mo4  1  0.25000000  0.75472500  0.52459400  1
  Mo  Mo5  1  0.75000000  0.24527500  0.47540600  1
  Mo  Mo6  1  0.75000000  0.74527500  0.02459400  1
  Mo  Mo7  1  0.25000000  0.25472500  0.97540600  1
  Mo  Mo8  1  0.25000000  0.97958300  0.10017200  1
  Mo  Mo9  1  0.75000000  0.02041700  0.89982800  1
  Mo  Mo10  1  0.75000000  0.52041700  0.60017200  1
  Mo  Mo11  1  0.25000000  0.47958300  0.39982800  1
  O  O0  1  0.25000000  0.77825900  0.79211000  1
  O  O1  1  0.75000000  0.22174100  0.20789000  1
  O  O2  1  0.75000000  0.72174100  0.29211000  1
  O  O3  1  0.25000000  0.27825900  0.70789000  1
  O  O4  1  0.25000000  0.84124500  0.05469600  1
  O  O5  1  0.75000000  0.15875500  0.94530400  1
  O  O6  1  0.75000000  0.65875500  0.55469600  1
  O  O7  1  0.25000000  0.34124500  0.44530400  1
  O  O8  1  0.25000000  0.64555400  0.89302800  1
  O  O9  1  0.75000000  0.35444600  0.10697200  1
  O  O10  1  0.75000000  0.85444600  0.39302800  1
  O  O11  1  0.25000000  0.14555400  0.60697200  1
  O  O12  1  0.25000000  0.80118600  0.58885800  1
  O  O13  1  0.75000000  0.19881400  0.41114200  1
  O  O14  1  0.75000000  0.69881400  0.08885800  1
  O  O15  1  0.25000000  0.30118600  0.91114200  1
  O  O16  1  0.52853800  0.67594100  0.99265400  1
  O  O17  1  0.47146200  0.32405900  0.00734600  1
  O  O18  1  0.47146200  0.82405900  0.49265400  1
  O  O19  1  0.02853800  0.32405900  0.00734600  1
  O  O20  1  0.52853800  0.17594100  0.50734600  1
  O  O21  1  0.97146200  0.67594100  0.99265400  1
  O  O22  1  0.97146200  0.17594100  0.50734600  1
  O  O23  1  0.02853800  0.82405900  0.49265400  1
  O  O24  1  0.25000000  0.56719700  0.51834800  1
  O  O25  1  0.75000000  0.43280300  0.48165200  1
  O  O26  1  0.75000000  0.93280300  0.01834800  1
  O  O27  1  0.25000000  0.06719700  0.98165200  1
  O  O28  1  0.52302600  0.91525300  0.90502300  1
  O  O29  1  0.47697400  0.08474700  0.09497700  1
  O  O30  1  0.47697400  0.58474700  0.40502300  1
  O  O31  1  0.02302600  0.08474700  0.09497700  1
  O  O32  1  0.52302600  0.41525300  0.59497700  1
  O  O33  1  0.97697400  0.91525300  0.90502300  1
  O  O34  1  0.97697400  0.41525300  0.59497700  1
  O  O35  1  0.02302600  0.58474700  0.40502300  1
  O  O36  1  0.02487200  0.52193400  0.80658400  1
  O  O37  1  0.97512800  0.47806600  0.19341600  1
  O  O38  1  0.97512800  0.97806600  0.30658400  1
  O  O39  1  0.52487200  0.47806600  0.19341600  1
  O  O40  1  0.02487200  0.02193400  0.69341600  1
  O  O41  1  0.47512800  0.52193400  0.80658400  1
  O  O42  1  0.47512800  0.02193400  0.69341600  1
  O  O43  1  0.52487200  0.97806600  0.30658400  1
  O  O44  1  0.25000000  0.90357500  0.16173000  1
  O  O45  1  0.75000000  0.09642500  0.83827000  1
  O  O46  1  0.75000000  0.59642500  0.66173000  1
  O  O47  1  0.25000000  0.40357500  0.33827000  1
loop_
_geom_bond_atom_site_label_1
_geom_bond_atom_site_label_2
_geom_bond_distance
_geom_bond_site_symmetry_2
Cs0 O4 3.185414 1_555
Cs0 O39 3.273842 1_555
Cs0 O37 3.273842 1_455
Cs0 O17 3.300093 1_555
Cs0 O19 3.300093 1_555
Cs0 O21 3.522628 1_454
Cs0 O16 3.522628 1_554
Cs0 O14 3.681664 1_455
Cs0 O14 3.681664 1_555
Cs0 O9 3.689329 1_455
Cs0 O9 3.689329 1_555
Cs1 O5 3.185414 1_555
Cs1 O36 3.273842 1_655
Cs1 O41 3.273842 1_555
Cs1 O16 3.300093 1_555
Cs1 O21 3.300093 1_555
Cs1 O19 3.522628 1_656
Cs1 O17 3.522628 1_556
Cs1 O15 3.681664 1_555
Cs1 O15 3.681664 1_655
Cs1 O8 3.689329 1_655
Cs1 O8 3.689329 1_555
Cs2 O6 3.185414 1_555
Cs2 O42 3.273842 1_565
Cs2 O40 3.273842 1_665
Cs2 O20 3.300093 1_565
Cs2 O22 3.300093 1_565
Cs2 O23 3.522628 1_655
Cs2 O18 3.522628 1_555
Cs2 O12 3.681664 1_655
Cs2 O12 3.681664 1_555
Cs2 O11 3.689329 1_665
Cs2 O11 3.689329 1_565
Cs3 O7 3.185414 1_555
Cs3 O43 3.273842 1_545
Cs3 O38 3.273842 1_445
Cs3 O18 3.300093 1_545
Cs3 O23 3.300093 1_545
Cs3 O22 3.522628 1_455
Cs3 O20 3.522628 1_555
Cs3 O13 3.681664 1_455
Cs3 O13 3.681664 1_555
Cs3 O10 3.689329 1_545
Cs3 O10 3.689329 1_445
Cs4 O12 3.069394 1_555
Cs4 O3 3.201230 1_555
Cs4 O46 3.318906 1_555
Cs4 O46 3.318906 1_455
Cs4 O34 3.395521 1_455
Cs4 O32 3.395521 1_555
Cs4 O0 3.424491 1_555
Cs5 O13 3.069394 1_555
Cs5 O2 3.201230 1_555
Cs5 O47 3.318906 1_555
Cs5 O47 3.318906 1_655
Cs5 O30 3.395521 1_555
Cs5 O35 3.395521 1_655
Cs5 O1 3.424491 1_555
Cs6 O14 3.069394 1_555
Cs6 O1 3.201230 1_565
Cs6 O44 3.318906 1_655
Cs6 O44 3.318906 1_555
Cs6 O29 3.395521 1_565
Cs6 O31 3.395521 1_665
Cs6 O2 3.424491 1_555
Cs7 O15 3.069394 1_555
Cs7 O0 3.201230 1_545
Cs7 O45 3.318906 1_455
Cs7 O45 3.318906 1_555
Cs7 O33 3.395521 1_445
Cs7 O28 3.395521 1_545
Cs7 O3 3.424491 1_555
Cs8 O39 3.212571 1_555
Cs8 O37 3.212571 1_455
Cs8 O44 3.303122 1_555
Cs8 O2 3.416188 1_555
Cs8 O2 3.416188 1_455
Cs8 O47 3.447250 1_555
Cs8 O43 3.547162 1_555
Cs8 O38 3.547162 1_455
Cs9 O36 3.212571 1_655
Cs9 O41 3.212571 1_555
Cs9 O45 3.303122 1_555
Cs9 O3 3.416188 1_655
Cs9 O3 3.416188 1_555
Cs9 O46 3.447250 1_555
Cs9 O42 3.547162 1_555
Cs9 O40 3.547162 1_655
Cs10 O40 3.212571 1_665
Cs10 O42 3.212571 1_565
Cs10 O46 3.303122 1_555
Cs10 O0 3.416188 1_555
Cs10 O0 3.416188 1_655
Cs10 O45 3.447250 1_565
Cs10 O36 3.547162 1_655
Cs10 O41 3.547162 1_555
Cs11 O43 3.212571 1_545
Cs11 O38 3.212571 1_445
Cs11 O47 3.303122 1_555
Cs11 O1 3.416188 1_455
Cs11 O1 3.416188 1_555
Cs11 O44 3.447250 1_545
Cs11 O39 3.547162 1_555
Cs11 O37 3.547162 1_455
La0 O8 2.399876 1_555
La0 O21 2.445620 1_455
La0 O16 2.445620 1_555
La0 O27 2.469897 1_565
La0 O28 2.478692 1_555
La0 O33 2.478692 1_455
La0 O4 2.557556 1_556
La1 O9 2.399876 1_555
La1 O17 2.445620 1_555
La1 O19 2.445620 1_655
La1 O26 2.469897 1_545
La1 O29 2.478692 1_555
La1 O31 2.478692 1_655
La1 O5 2.557556 1_554
La2 O10 2.399876 1_555
La2 O23 2.445620 1_655
La2 O18 2.445620 1_555
La2 O25 2.469897 1_555
La2 O30 2.478692 1_555
La2 O35 2.478692 1_655
La2 O6 2.557556 1_555
La3 O11 2.399876 1_555
La3 O22 2.445620 1_455
La3 O20 2.445620 1_555
La3 O24 2.469897 1_555
La3 O34 2.478692 1_455
La3 O32 2.478692 1_555
La3 O7 2.557556 1_555
Mo0 O41 1.794895 1_555
Mo0 O36 1.794895 1_555
Mo0 O0 1.796052 1_555
Mo0 O8 1.825616 1_555
Mo1 O39 1.794895 1_555
Mo1 O37 1.794895 1_555
Mo1 O1 1.796052 1_555
Mo1 O9 1.825616 1_555
Mo2 O43 1.794895 1_555
Mo2 O38 1.794895 1_555
Mo2 O2 1.796052 1_555
Mo2 O10 1.825616 1_555
Mo3 O42 1.794895 1_555
Mo3 O40 1.794895 1_555
Mo3 O3 1.796052 1_555
Mo3 O11 1.825616 1_555
Mo4 O12 1.764835 1_555
Mo4 O24 1.803318 1_555
Mo4 O18 1.810117 1_555
Mo4 O23 1.810117 1_555
Mo5 O13 1.764835 1_555
Mo5 O25 1.803318 1_555
Mo5 O20 1.810117 1_555
Mo5 O22 1.810117 1_555
Mo6 O14 1.764835 1_555
Mo6 O26 1.803318 1_555
Mo6 O16 1.810117 1_554
Mo6 O21 1.810117 1_554
Mo7 O15 1.764835 1_555
Mo7 O27 1.803318 1_555
Mo7 O19 1.810117 1_556
Mo7 O17 1.810117 1_556
Mo8 O44 1.790521 1_555
Mo8 O4 1.793116 1_555
Mo8 O29 1.804151 1_565
Mo8 O31 1.804151 1_565
Mo9 O45 1.790521 1_555
Mo9 O5 1.793116 1_555
Mo9 O33 1.804151 1_545
Mo9 O28 1.804151 1_545
Mo10 O46 1.790521 1_555
Mo10 O6 1.793116 1_555
Mo10 O34 1.804151 1_555
Mo10 O32 1.804151 1_555
Mo11 O47 1.790521 1_555
Mo11 O7 1.793116 1_555
Mo11 O35 1.804151 1_555
Mo11 O30 1.804151 1_555
