# generated using pymatgen
data_Na4TaAl3(PO4)6
_symmetry_space_group_name_H-M   'P 1'
_cell_length_a   8.57921400
_cell_length_b   8.58077738
_cell_length_c   8.73084391
_cell_angle_alpha   60.67592858
_cell_angle_beta   60.69166781
_cell_angle_gamma   60.06200678
_symmetry_Int_Tables_number   1
_chemical_formula_structural   Na4TaAl3(PO4)6
_chemical_formula_sum   'Na4 Ta1 Al3 P6 O24'
_cell_volume   459.34052313
_cell_formula_units_Z   1
loop_
 _symmetry_equiv_pos_site_id
 _symmetry_equiv_pos_as_xyz
  1  'x, y, z'
loop_
 _atom_site_type_symbol
 _atom_site_label
 _atom_site_symmetry_multiplicity
 _atom_site_fract_x
 _atom_site_fract_y
 _atom_site_fract_z
 _atom_site_occupancy
  Na  Na0  1  0.38756300  0.74597300  0.75421500  1
  Na  Na1  1  0.75116500  0.11066300  0.75248600  1
  Na  Na2  1  0.49003000  0.50103400  0.49165700  1
  Na  Na3  1  0.00563200  0.01789500  0.98975700  1
  Ta  Ta0  1  0.86129600  0.85768600  0.42240900  1
  Al  Al0  1  0.64382300  0.64164900  0.07101800  1
  Al  Al1  1  0.14848400  0.15318000  0.55592900  1
  Al  Al2  1  0.34886800  0.35264900  0.93987500  1
  P  P0  1  0.03885500  0.74287900  0.76065600  1
  P  P1  1  0.75348200  0.45287900  0.75946400  1
  P  P2  1  0.45274700  0.04009400  0.75831000  1
  P  P3  1  0.26470300  0.52763200  0.24225400  1
  P  P4  1  0.52589800  0.96364400  0.24672100  1
  P  P5  1  0.96221400  0.26344200  0.25036000  1
  O  O0  1  0.71741000  0.49191800  0.92720700  1
  O  O1  1  0.48926900  0.86242600  0.92436600  1
  O  O2  1  0.85956300  0.72163700  0.92481800  1
  O  O3  1  0.98728600  0.21151800  0.43468900  1
  O  O4  1  0.21713300  0.36496100  0.41687600  1
  O  O5  1  0.36498800  0.99295900  0.42725800  1
  O  O6  1  0.29527800  0.51071900  0.06213500  1
  O  O7  1  0.50485800  0.13306600  0.06988800  1
  O  O8  1  0.13398800  0.28989800  0.07988700  1
  O  O9  1  0.00633700  0.78288400  0.58064100  1
  O  O10  1  0.78266900  0.63126000  0.58216000  1
  O  O11  1  0.63170100  0.00683300  0.58145600  1
  O  O12  1  0.77737600  0.43053000  0.23785200  1
  O  O13  1  0.43046300  0.55713300  0.23340900  1
  O  O14  1  0.55453800  0.77879800  0.23530000  1
  O  O15  1  0.92658600  0.27192000  0.73595300  1
  O  O16  1  0.27629300  0.06243600  0.73286400  1
  O  O17  1  0.06494700  0.92006800  0.74033000  1
  O  O18  1  0.22560000  0.57419800  0.76709800  1
  O  O19  1  0.58057400  0.43267400  0.76337500  1
  O  O20  1  0.43678700  0.22247600  0.76681200  1
  O  O21  1  0.08453800  0.71734100  0.25789400  1
  O  O22  1  0.71601500  0.93926900  0.26071100  1
  O  O23  1  0.93854100  0.08427900  0.26191000  1
loop_
_geom_bond_atom_site_label_1
_geom_bond_atom_site_label_2
_geom_bond_distance
_geom_bond_site_symmetry_2
Na0 O16 2.326150 1_565
Na0 O19 2.334819 1_555
Na0 O18 2.417606 1_555
Na0 O17 2.435396 1_555
Na0 O6 2.474882 1_556
Na0 O5 2.623666 1_555
Na0 O1 2.749564 1_555
Na0 O10 2.801501 1_555
Na1 O20 2.327017 1_555
Na1 O17 2.329971 1_645
Na1 O19 2.422909 1_555
Na1 O15 2.422945 1_555
Na1 O3 2.538943 1_555
Na1 O7 2.562239 1_556
Na1 O2 2.761088 1_545
Na1 O11 2.790487 1_555
Na2 O13 2.322946 1_555
Na2 O12 2.414535 1_555
Na2 O14 2.423892 1_555
Na2 O18 2.457644 1_555
Na2 O20 2.466606 1_555
Na2 O19 2.561590 1_555
Na3 O15 2.320804 1_455
Na3 O16 2.348598 1_555
Na3 O23 2.441572 1_456
Na3 O17 2.446482 1_545
Na3 O21 2.546603 1_546
Na3 O22 2.565244 1_446
Al0 O0 1.902702 1_554
Al0 O2 1.903426 1_554
Al0 O13 1.914096 1_555
Al0 O12 1.921927 1_555
Al0 O14 1.925346 1_555
Al0 O1 1.940478 1_554
Al1 O4 1.824945 1_555
Al1 O3 1.872644 1_455
Al1 O5 1.877053 1_545
Al1 O16 1.955232 1_555
Al1 O15 1.958534 1_455
Al1 O17 2.062438 1_545
Al2 O8 1.822785 1_556
Al2 O7 1.872195 1_556
Al2 O6 1.872367 1_556
Al2 O18 1.937569 1_555
Al2 O20 1.948356 1_555
Al2 O19 2.030946 1_555
O0 P1 1.512020 1_555
O1 P2 1.525550 1_565
O2 P0 1.522852 1_655
O3 P5 1.541326 1_555
O4 P3 1.521284 1_555
O5 P4 1.537851 1_555
O6 P3 1.531211 1_555
O7 P4 1.530398 1_545
O8 P5 1.514639 1_455
O9 P0 1.571966 1_555
O9 Ta0 1.971330 1_455
O10 P1 1.576106 1_555
O10 Ta0 1.976865 1_555
O11 P2 1.579930 1_555
O11 Ta0 1.998189 1_545
O12 P5 1.526126 1_555
O13 P3 1.524807 1_555
O14 P4 1.525791 1_555
O15 P1 1.539741 1_555
O16 P2 1.541325 1_555
O17 P0 1.558783 1_555
O18 P0 1.535860 1_555
O19 P1 1.559827 1_555
O20 P2 1.537326 1_555
O21 P3 1.599167 1_555
O21 Ta0 1.969882 1_455
O22 P4 1.596408 1_555
O22 Ta0 1.979999 1_555
O23 P5 1.598321 1_555
O23 Ta0 1.972684 1_545
