# generated using pymatgen
data_Sb2O3
_symmetry_space_group_name_H-M   'P 1'
_cell_length_a   4.81322434
_cell_length_b   8.12445297
_cell_length_c   9.47519379
_cell_angle_alpha   107.20171746
_cell_angle_beta   90.00000000
_cell_angle_gamma   90.00000000
_symmetry_Int_Tables_number   1
_chemical_formula_structural   Sb2O3
_chemical_formula_sum   'Sb8 O12'
_cell_volume   353.95189773
_cell_formula_units_Z   4
loop_
 _symmetry_equiv_pos_site_id
 _symmetry_equiv_pos_as_xyz
  1  'x, y, z'
loop_
 _atom_site_type_symbol
 _atom_site_label
 _atom_site_symmetry_multiplicity
 _atom_site_fract_x
 _atom_site_fract_y
 _atom_site_fract_z
 _atom_site_occupancy
  Sb  Sb0  1  0.65685137  0.91076854  0.80495453  1
  Sb  Sb1  1  0.15685137  0.58923146  0.69504547  1
  Sb  Sb2  1  0.34314863  0.08923146  0.19504547  1
  Sb  Sb3  1  0.84314863  0.41076854  0.30495453  1
  Sb  Sb4  1  0.18208888  0.31003195  0.90225902  1
  Sb  Sb5  1  0.68208888  0.18996805  0.59774098  1
  Sb  Sb6  1  0.81791112  0.68996805  0.09774098  1
  Sb  Sb7  1  0.31791112  0.81003195  0.40225902  1
  O  O0  1  0.04915682  0.83823260  0.78470357  1
  O  O1  1  0.54915682  0.66176740  0.71529643  1
  O  O2  1  0.95084318  0.16176740  0.21529643  1
  O  O3  1  0.45084318  0.33823260  0.28470357  1
  O  O4  1  0.34165195  0.29653611  0.69651019  1
  O  O5  1  0.84165195  0.20346389  0.80348981  1
  O  O6  1  0.65834805  0.70346389  0.30348981  1
  O  O7  1  0.15834805  0.79653611  0.19651019  1
  O  O8  1  0.10784586  0.55144193  0.89637200  1
  O  O9  1  0.60784586  0.94855807  0.60362800  1
  O  O10  1  0.89215414  0.44855807  0.10362800  1
  O  O11  1  0.39215414  0.05144193  0.39637200  1
loop_
_geom_bond_atom_site_label_1
_geom_bond_atom_site_label_2
_geom_bond_distance
_geom_bond_site_symmetry_2
O0 Sb0 1.970465 1_455
O0 Sb1 2.016535 1_555
O1 Sb1 1.970465 1_555
O1 Sb0 2.016535 1_555
O2 Sb2 1.970465 1_655
O2 Sb3 2.016535 1_555
O3 Sb3 1.970465 1_555
O3 Sb2 2.016535 1_555
O4 Sb5 1.957346 1_555
O4 Sb4 2.067855 1_555
O4 Sb1 2.542781 1_555
O5 Sb4 1.957346 1_655
O5 Sb5 2.067855 1_555
O5 Sb0 2.542781 1_545
O6 Sb7 1.957346 1_555
O6 Sb6 2.067855 1_555
O6 Sb3 2.542781 1_555
O7 Sb6 1.957346 1_455
O7 Sb7 2.067855 1_555
O7 Sb2 2.542781 1_565
O8 Sb4 2.010550 1_555
O8 Sb1 2.033538 1_555
O8 Sb6 2.363156 1_456
O9 Sb5 2.010550 1_565
O9 Sb0 2.033538 1_555
O9 Sb7 2.363156 1_555
O10 Sb6 2.010550 1_555
O10 Sb3 2.033538 1_555
O10 Sb4 2.363156 1_654
O11 Sb7 2.010550 1_545
O11 Sb2 2.033538 1_555
O11 Sb5 2.363156 1_555
