# generated using pymatgen
data_Dy3Ir2
_symmetry_space_group_name_H-M   'P 1'
_cell_length_a   14.81509330
_cell_length_b   14.81508318
_cell_length_c   14.81520791
_cell_angle_alpha   135.69809498
_cell_angle_beta   135.69808225
_cell_angle_gamma   64.45520068
_symmetry_Int_Tables_number   1
_chemical_formula_structural   Dy3Ir2
_chemical_formula_sum   'Dy42 Ir28'
_cell_volume   1564.25468787
_cell_formula_units_Z   14
loop_
 _symmetry_equiv_pos_site_id
 _symmetry_equiv_pos_as_xyz
  1  'x, y, z'
loop_
 _atom_site_type_symbol
 _atom_site_label
 _atom_site_symmetry_multiplicity
 _atom_site_fract_x
 _atom_site_fract_y
 _atom_site_fract_z
 _atom_site_occupancy
  Dy  Dy0  1  0.63304052  0.50274236  0.27880236  1
  Dy  Dy1  1  0.22388160  0.35427658  0.72119625  1
  Dy  Dy2  1  0.13307943  0.85429174  0.13036683  1
  Dy  Dy3  1  0.72392470  0.00265970  0.86960470  1
  Dy  Dy4  1  0.35429094  0.63308138  0.13036312  1
  Dy  Dy5  1  0.50265405  0.22392185  0.86959724  1
  Dy  Dy6  1  0.00274411  0.13303784  0.27880889  1
  Dy  Dy7  1  0.85428136  0.72388571  0.72120142  1
  Dy  Dy8  1  0.36697213  0.49727067  0.72118417  1
  Dy  Dy9  1  0.77614282  0.64574660  0.27881281  1
  Dy  Dy10  1  0.86693090  0.14573100  0.86962689  1
  Dy  Dy11  1  0.27610370  0.99735655  0.13040019  1
  Dy  Dy12  1  0.64573283  0.36693312  0.86963561  1
  Dy  Dy13  1  0.49736000  0.77610274  0.13040296  1
  Dy  Dy14  1  0.99727162  0.86697165  0.72117685  1
  Dy  Dy15  1  0.14574167  0.27614246  0.27881068  1
  Dy  Dy16  1  0.38582669  0.51654934  0.29020956  1
  Dy  Dy17  1  0.22631995  0.09556020  0.70974746  1
  Dy  Dy18  1  0.88584974  0.59556571  0.86928879  1
  Dy  Dy19  1  0.72637898  0.01660844  0.13082848  1
  Dy  Dy20  1  0.09556243  0.38583646  0.86926935  1
  Dy  Dy21  1  0.51660696  0.22637439  0.13081908  1
  Dy  Dy22  1  0.01654712  0.88583701  0.29022315  1
  Dy  Dy23  1  0.59556202  0.72632418  0.70975342  1
  Dy  Dy24  1  0.61417038  0.48344331  0.70978624  1
  Dy  Dy25  1  0.77367476  0.90443872  0.29025320  1
  Dy  Dy26  1  0.11414770  0.40444259  0.13072036  1
  Dy  Dy27  1  0.27361857  0.98337852  0.86915813  1
  Dy  Dy28  1  0.90443997  0.61416248  0.13073630  1
  Dy  Dy29  1  0.48338499  0.77362113  0.86917151  1
  Dy  Dy30  1  0.98344119  0.11415971  0.70976581  1
  Dy  Dy31  1  0.40444217  0.27367214  0.29025326  1
  Dy  Dy32  1  0.84921217  0.34921258  0.19844466  1
  Dy  Dy33  1  0.15080280  0.65080240  0.80155338  1
  Dy  Dy34  1  0.34925645  0.15075579  0.50000047  1
  Dy  Dy35  1  0.65075581  0.84925878  0.49999896  1
  Dy  Dy36  1  0.38687830  0.88688330  0.50001578  1
  Dy  Dy37  1  0.88688937  0.38688196  0.49990209  1
  Dy  Dy38  1  0.61311431  0.11310989  0.49998181  1
  Dy  Dy39  1  0.11310601  0.61311300  0.50009790  1
  Dy  Dy40  1  0.24997494  0.74998307  0.50002003  1
  Dy  Dy41  1  0.74999459  0.24998543  0.49997968  1
  Ir  Ir0  1  0.71401048  0.21400994  0.14059485  1
  Ir  Ir1  1  0.07337282  0.57336895  0.85927023  1
  Ir  Ir2  1  0.21416522  0.07340295  0.50008523  1
  Ir  Ir3  1  0.57340055  0.71416641  0.50008101  1
  Ir  Ir4  1  0.28600013  0.78600125  0.85940853  1
  Ir  Ir5  1  0.92663581  0.42663720  0.14072454  1
  Ir  Ir6  1  0.78584573  0.92660191  0.49991620  1
  Ir  Ir7  1  0.42660213  0.28584291  0.49991613  1
  Ir  Ir8  1  0.46527543  0.96528044  0.80734016  1
  Ir  Ir9  1  0.15796033  0.65796530  0.19269560  1
  Ir  Ir10  1  0.96528641  0.15784728  0.49990118  1
  Ir  Ir11  1  0.65785337  0.46528021  0.49989775  1
  Ir  Ir12  1  0.53468131  0.03467558  0.19267431  1
  Ir  Ir13  1  0.84198249  0.34197933  0.80729470  1
  Ir  Ir14  1  0.03467668  0.84210715  0.50010928  1
  Ir  Ir15  1  0.34210348  0.53468143  0.50011245  1
  Ir  Ir16  1  0.59646779  0.09646932  0.69291295  1
  Ir  Ir17  1  0.40354938  0.90354654  0.30709028  1
  Ir  Ir18  1  0.09639321  0.40362090  0.50000139  1
  Ir  Ir19  1  0.90362255  0.59639600  0.49999978  1
  Ir  Ir20  1  0.36678379  0.36679906  0.99997473  1
  Ir  Ir21  1  0.86680082  0.86678776  0.99998499  1
  Ir  Ir22  1  0.63321835  0.63320215  0.00002527  1
  Ir  Ir23  1  0.13319917  0.13321566  0.00001501  1
  Ir  Ir24  1  0.50001005  0.50000953  0.00000267  1
  Ir  Ir25  1  0.00000930  0.00000979  0.00000092  1
  Ir  Ir26  1  0.25000080  0.24997387  -0.00000843  1
  Ir  Ir27  1  0.74998167  0.75000870  0.00000843  1
loop_
_geom_bond_atom_site_label_1
_geom_bond_atom_site_label_2
_geom_bond_distance
_geom_bond_site_symmetry_2
Dy0 Ir19 2.866965 1_555
Dy0 Ir20 2.881060 1_554
Dy0 Ir3 2.898356 1_555
Dy0 Ir24 3.020641 1_555
Dy0 Ir0 3.237744 1_555
Dy0 Ir11 3.446043 1_555
Dy1 Ir18 2.867005 1_555
Dy1 Ir20 2.881175 1_555
Dy1 Ir2 2.897887 1_555
Dy1 Ir24 3.020695 1_556
Dy1 Ir1 3.236537 1_555
Dy1 Ir10 3.446117 1_455
Dy2 Ir17 2.866084 1_555
Dy2 Ir21 2.881489 1_454
Dy2 Ir1 2.898109 1_554
Dy2 Ir25 3.020746 1_565
Dy2 Ir2 3.236952 1_565
Dy2 Ir9 3.446877 1_555
Dy3 Ir16 2.866805 1_555
Dy3 Ir21 2.881321 1_545
Dy3 Ir0 2.897990 1_556
Dy3 Ir25 3.020523 1_656
Dy3 Ir3 3.235088 1_545
Dy3 Ir8 3.446824 1_545
Dy4 Ir17 2.866017 1_555
Dy4 Ir20 2.881511 1_554
Dy4 Ir1 2.898058 1_554
Dy4 Ir24 3.020703 1_555
Dy4 Ir3 3.236953 1_555
Dy4 Ir9 3.446964 1_555
Dy5 Ir16 2.866784 1_555
Dy5 Ir20 2.881273 1_555
Dy5 Ir0 2.898049 1_556
Dy5 Ir24 3.020527 1_556
Dy5 Ir2 3.235015 1_555
Dy5 Ir8 3.446773 1_545
Dy6 Ir18 2.866971 1_555
Dy6 Ir21 2.880997 1_444
Dy6 Ir2 2.898282 1_555
Dy6 Ir25 3.020742 1_555
Dy6 Ir0 3.237762 1_455
Dy6 Ir10 3.445978 1_455
Dy7 Ir19 2.867049 1_555
Dy7 Ir21 2.881269 1_555
Dy7 Ir3 2.897962 1_555
Dy7 Ir25 3.020637 1_666
Dy7 Ir1 3.236586 1_655
Dy7 Ir11 3.446168 1_555
Dy8 Ir18 2.866957 1_555
Dy8 Ir22 2.880904 1_556
Dy8 Ir7 2.898177 1_555
Dy8 Ir24 3.020793 1_556
Dy8 Ir4 3.237720 1_555
Dy8 Ir15 3.444559 1_555
Dy9 Ir19 2.867013 1_555
Dy9 Ir22 2.880994 1_555
Dy9 Ir6 2.897731 1_555
Dy9 Ir24 3.020752 1_555
Dy9 Ir5 3.236521 1_555
Dy9 Ir14 3.444731 1_655
Dy10 Ir16 2.866056 1_555
Dy10 Ir23 2.881320 1_656
Dy10 Ir5 2.897971 1_556
Dy10 Ir25 3.020856 1_656
Dy10 Ir6 3.236862 1_545
Dy10 Ir13 3.445324 1_555
Dy11 Ir17 2.866824 1_555
Dy11 Ir23 2.881184 1_565
Dy11 Ir4 2.897858 1_554
Dy11 Ir25 3.020632 1_565
Dy11 Ir7 3.234999 1_565
Dy11 Ir12 3.445282 1_565
Dy12 Ir16 2.866037 1_555
Dy12 Ir22 2.881321 1_556
Dy12 Ir5 2.897929 1_556
Dy12 Ir24 3.020811 1_556
Dy12 Ir7 3.236923 1_555
Dy12 Ir13 3.445412 1_555
Dy13 Ir17 2.866806 1_555
Dy13 Ir22 2.881107 1_555
Dy13 Ir4 2.897907 1_554
Dy13 Ir24 3.020614 1_555
Dy13 Ir6 3.234987 1_555
Dy13 Ir12 3.445251 1_565
Dy14 Ir19 2.866931 1_555
Dy14 Ir23 2.880868 1_666
Dy14 Ir6 2.898114 1_555
Dy14 Ir25 3.020877 1_666
Dy14 Ir4 3.237689 1_655
Dy14 Ir14 3.444471 1_655
Dy15 Ir18 2.867040 1_555
Dy15 Ir23 2.881107 1_555
Dy15 Ir7 2.897790 1_555
Dy15 Ir25 3.020727 1_555
Dy15 Ir5 3.236514 1_455
Dy15 Ir15 3.444767 1_555
Dy16 Ir3 2.753395 1_555
Dy16 Ir26 2.880643 1_555
Dy16 Ir20 2.939345 1_554
Dy16 Ir9 3.020725 1_555
Dy16 Ir11 3.047423 1_555
Dy16 Ir15 3.420502 1_555
Dy17 Ir2 2.753091 1_555
Dy17 Ir26 2.880886 1_556
Dy17 Ir20 2.939353 1_555
Dy17 Ir8 3.020525 1_545
Dy17 Ir10 3.048305 1_455
Dy17 Ir14 3.418625 1_545
Dy18 Ir1 2.753335 1_655
Dy18 Ir27 2.881450 1_556
Dy18 Ir21 2.939804 1_555
Dy18 Ir11 3.021450 1_555
Dy18 Ir9 3.048012 1_656
Dy18 Ir13 3.419458 1_555
Dy19 Ir0 2.752714 1_555
Dy19 Ir27 2.881097 1_545
Dy19 Ir21 2.939988 1_544
Dy19 Ir10 3.018876 1_555
Dy19 Ir8 3.048837 1_544
Dy19 Ir12 3.419775 1_555
Dy20 Ir1 2.753311 1_555
Dy20 Ir26 2.881403 1_556
Dy20 Ir20 2.939768 1_555
Dy20 Ir10 3.021276 1_455
Dy20 Ir9 3.048223 1_556
Dy20 Ir13 3.419484 1_455
Dy21 Ir0 2.752675 1_555
Dy21 Ir26 2.881154 1_555
Dy21 Ir20 2.940031 1_554
Dy21 Ir11 3.018902 1_555
Dy21 Ir8 3.048715 1_544
Dy21 Ir12 3.419852 1_555
Dy22 Ir2 2.753378 1_565
Dy22 Ir27 2.880562 1_455
Dy22 Ir21 2.939343 1_454
Dy22 Ir9 3.020774 1_555
Dy22 Ir10 3.047214 1_465
Dy22 Ir14 3.420361 1_555
Dy23 Ir3 2.753169 1_555
Dy23 Ir27 2.880969 1_556
Dy23 Ir21 2.939352 1_555
Dy23 Ir8 3.020570 1_555
Dy23 Ir11 3.048443 1_555
Dy23 Ir15 3.418667 1_555
Dy24 Ir7 2.753177 1_555
Dy24 Ir27 2.880506 1_556
Dy24 Ir22 2.939319 1_556
Dy24 Ir13 3.020722 1_555
Dy24 Ir15 3.047471 1_555
Dy24 Ir11 3.419511 1_555
Dy25 Ir6 2.752879 1_555
Dy25 Ir27 2.880731 1_555
Dy25 Ir22 2.939304 1_555
Dy25 Ir12 3.020514 1_565
Dy25 Ir14 3.048482 1_655
Dy25 Ir10 3.417719 1_565
Dy26 Ir5 2.753034 1_455
Dy26 Ir26 2.881350 1_555
Dy26 Ir23 2.939831 1_555
Dy26 Ir15 3.021522 1_555
Dy26 Ir13 3.048155 1_454
Dy26 Ir9 3.418327 1_555
Dy27 Ir4 2.752452 1_555
Dy27 Ir26 2.881001 1_566
Dy27 Ir23 2.940076 1_566
Dy27 Ir14 3.018751 1_555
Dy27 Ir12 3.049036 1_566
Dy27 Ir8 3.418628 1_555
Dy28 Ir5 2.753060 1_555
Dy28 Ir27 2.881254 1_555
Dy28 Ir22 2.939749 1_555
Dy28 Ir14 3.021354 1_655
Dy28 Ir13 3.048359 1_554
Dy28 Ir9 3.418381 1_655
Dy29 Ir4 2.752443 1_555
Dy29 Ir27 2.881008 1_556
Dy29 Ir22 2.940042 1_556
Dy29 Ir15 3.018801 1_555
Dy29 Ir12 3.048911 1_566
Dy29 Ir8 3.418742 1_555
Dy30 Ir6 2.753132 1_545
Dy30 Ir26 2.880466 1_656
Dy30 Ir23 2.939378 1_656
Dy30 Ir13 3.020784 1_555
Dy30 Ir14 3.047286 1_645
Dy30 Ir10 3.419296 1_555
Dy31 Ir7 2.752910 1_555
Dy31 Ir26 2.880857 1_555
Dy31 Ir23 2.939362 1_555
Dy31 Ir12 3.020555 1_555
Dy31 Ir15 3.048592 1_555
Dy31 Ir11 3.417741 1_555
Dy32 Ir0 2.702707 1_555
Dy32 Ir5 2.702839 1_555
Dy32 Ir19 2.827276 1_555
Dy32 Ir18 2.827287 1_655
Dy33 Ir4 2.702548 1_555
Dy33 Ir1 2.702982 1_555
Dy33 Ir18 2.827250 1_555
Dy33 Ir19 2.827271 1_455
Dy34 Ir7 2.702184 1_555
Dy34 Ir2 2.702325 1_555
Dy34 Ir16 2.827735 1_555
Dy34 Ir17 2.827752 1_545
Dy35 Ir6 2.702175 1_555
Dy35 Ir3 2.702333 1_555
Dy35 Ir17 2.827694 1_555
Dy35 Ir16 2.827744 1_565
Dy36 Ir2 2.843388 1_565
Dy36 Ir3 2.843441 1_555
Dy36 Ir9 3.074064 1_555
Dy36 Ir8 3.074642 1_555
Dy36 Ir16 3.219081 1_565
Dy36 Ir17 3.219380 1_555
Dy37 Ir0 2.843279 1_555
Dy37 Ir1 2.843743 1_655
Dy37 Ir11 3.076299 1_555
Dy37 Ir10 3.076306 1_555
Dy37 Ir18 3.217446 1_655
Dy37 Ir19 3.217571 1_555
Dy38 Ir6 2.843421 1_545
Dy38 Ir7 2.843468 1_555
Dy38 Ir13 3.073319 1_555
Dy38 Ir12 3.073845 1_555
Dy38 Ir17 3.218600 1_545
Dy38 Ir16 3.218942 1_555
Dy39 Ir4 2.843284 1_555
Dy39 Ir5 2.843762 1_455
Dy39 Ir14 3.075614 1_555
Dy39 Ir15 3.075635 1_555
Dy39 Ir19 3.216998 1_455
Dy39 Ir18 3.217111 1_555
Dy40 Ir8 2.877286 1_555
Dy40 Ir9 2.877797 1_555
Dy40 Ir14 2.878489 1_555
Dy40 Ir15 2.878553 1_555
Dy41 Ir12 2.877457 1_555
Dy41 Ir13 2.878012 1_555
Dy41 Ir10 2.878329 1_555
Dy41 Ir11 2.878390 1_555
