# generated using pymatgen
data_LiMnO4
_symmetry_space_group_name_H-M   'P 1'
_cell_length_a   5.07546303
_cell_length_b   5.07546303
_cell_length_c   6.58266700
_cell_angle_alpha   90.00000000
_cell_angle_beta   90.00000000
_cell_angle_gamma   113.82272681
_symmetry_Int_Tables_number   1
_chemical_formula_structural   LiMnO4
_chemical_formula_sum   'Li2 Mn2 O8'
_cell_volume   155.12405668
_cell_formula_units_Z   2
loop_
 _symmetry_equiv_pos_site_id
 _symmetry_equiv_pos_as_xyz
  1  'x, y, z'
loop_
 _atom_site_type_symbol
 _atom_site_label
 _atom_site_symmetry_multiplicity
 _atom_site_fract_x
 _atom_site_fract_y
 _atom_site_fract_z
 _atom_site_occupancy
  Li  Li0  1  0.00000000  0.00000000  0.00000000  1
  Li  Li1  1  0.00000000  0.00000000  0.50000000  1
  Mn  Mn0  1  0.35417900  0.64582100  0.75000000  1
  Mn  Mn1  1  0.64582100  0.35417900  0.25000000  1
  O  O0  1  0.24507500  0.75492500  0.94912000  1
  O  O1  1  0.70574800  0.77675600  0.75000000  1
  O  O2  1  0.75492500  0.24507500  0.05088000  1
  O  O3  1  0.75492500  0.24507500  0.44912000  1
  O  O4  1  0.24507500  0.75492500  0.55088000  1
  O  O5  1  0.77675600  0.70574800  0.25000000  1
  O  O6  1  0.22324400  0.29425200  0.75000000  1
  O  O7  1  0.29425200  0.22324400  0.25000000  1
loop_
_geom_bond_atom_site_label_1
_geom_bond_atom_site_label_2
_geom_bond_distance
_geom_bond_site_symmetry_2
Li0 O2 2.111032 1_455
Li0 O0 2.111032 1_544
Li0 O7 2.203523 1_555
Li0 O1 2.203523 1_444
Li0 O6 2.203523 1_554
Li0 O5 2.203523 1_445
Li1 O4 2.111032 1_545
Li1 O3 2.111032 1_455
Li1 O6 2.203523 1_555
Li1 O7 2.203523 1_555
Li1 O1 2.203523 1_445
Li1 O5 2.203523 1_445
Mn0 O4 1.605938 1_555
Mn0 O0 1.605938 1_555
Mn0 O6 1.633312 1_555
Mn0 O1 1.633312 1_555
Mn1 O2 1.605938 1_555
Mn1 O3 1.605938 1_555
Mn1 O7 1.633312 1_555
Mn1 O5 1.633312 1_555
