# generated using pymatgen
data_Ba3PrIrRuO9
_symmetry_space_group_name_H-M   'P 1'
_cell_length_a   6.03284609
_cell_length_b   6.03284609
_cell_length_c   15.00762000
_cell_angle_alpha   90.00000000
_cell_angle_beta   90.00000000
_cell_angle_gamma   120.00000102
_symmetry_Int_Tables_number   1
_chemical_formula_structural   Ba3PrIrRuO9
_chemical_formula_sum   'Ba6 Pr2 Ir2 Ru2 O18'
_cell_volume   473.02810346
_cell_formula_units_Z   2
loop_
 _symmetry_equiv_pos_site_id
 _symmetry_equiv_pos_as_xyz
  1  'x, y, z'
loop_
 _atom_site_type_symbol
 _atom_site_label
 _atom_site_symmetry_multiplicity
 _atom_site_fract_x
 _atom_site_fract_y
 _atom_site_fract_z
 _atom_site_occupancy
  Ba  Ba0  1  0.00000000  0.00000000  0.25032000  1
  Ba  Ba1  1  0.00000000  0.00000000  0.75032000  1
  Ba  Ba2  1  0.33333300  0.66666700  0.59934900  1
  Ba  Ba3  1  0.66666700  0.33333300  0.39970600  1
  Ba  Ba4  1  0.66666700  0.33333300  0.09934900  1
  Ba  Ba5  1  0.33333300  0.66666700  0.89970600  1
  Pr  Pr0  1  0.00000000  0.00000000  0.49895700  1
  Pr  Pr1  1  0.00000000  0.00000000  0.99895700  1
  Ir  Ir0  1  0.33333300  0.66666700  0.33303600  1
  Ir  Ir1  1  0.66666700  0.33333300  0.83303600  1
  Ru  Ru0  1  0.66666700  0.33333300  0.66557200  1
  Ru  Ru1  1  0.33333300  0.66666700  0.16557200  1
  O  O0  1  0.48990900  0.51009100  0.24923200  1
  O  O1  1  0.48990900  0.97981900  0.24923200  1
  O  O2  1  0.02018100  0.51009100  0.24923200  1
  O  O3  1  0.51009100  0.48990900  0.74923200  1
  O  O4  1  0.51009100  0.02018100  0.74923200  1
  O  O5  1  0.97981900  0.48990900  0.74923200  1
  O  O6  1  0.17968100  0.82031900  0.09220900  1
  O  O7  1  0.17968100  0.35936100  0.09220900  1
  O  O8  1  0.64063900  0.82031900  0.09220900  1
  O  O9  1  0.82090400  0.17909600  0.90957800  1
  O  O10  1  0.82090400  0.64180800  0.90957800  1
  O  O11  1  0.35819200  0.17909600  0.90957800  1
  O  O12  1  0.82031900  0.17968100  0.59220900  1
  O  O13  1  0.82031900  0.64063900  0.59220900  1
  O  O14  1  0.35936100  0.17968100  0.59220900  1
  O  O15  1  0.17909600  0.82090400  0.40957800  1
  O  O16  1  0.17909600  0.35819200  0.40957800  1
  O  O17  1  0.64180800  0.82090400  0.40957800  1
loop_
_geom_bond_atom_site_label_1
_geom_bond_atom_site_label_2
_geom_bond_distance
_geom_bond_site_symmetry_2
Ba0 O1 3.018306 1_545
Ba0 O2 3.018306 1_545
Ba0 O0 3.018310 1_555
Ba0 O0 3.018310 1_445
Ba0 O2 3.018312 1_555
Ba0 O1 3.018312 1_445
Ba0 O7 3.025819 1_555
Ba0 O8 3.025819 1_445
Ba0 O6 3.025822 1_545
Ba0 O17 3.035568 1_445
Ba0 O16 3.035568 1_555
Ba0 O15 3.035568 1_545
Ba1 O5 3.018306 1_455
Ba1 O4 3.018306 1_455
Ba1 O3 3.018310 1_555
Ba1 O3 3.018310 1_445
Ba1 O4 3.018312 1_555
Ba1 O5 3.018312 1_445
Ba1 O14 3.025819 1_555
Ba1 O13 3.025819 1_445
Ba1 O12 3.025822 1_455
Ba1 O11 3.035568 1_555
Ba1 O10 3.035568 1_445
Ba1 O9 3.035568 1_455
Ba2 O4 2.910504 1_565
Ba2 O5 2.910504 1_455
Ba2 O3 2.910511 1_555
Ba2 O12 3.021387 1_565
Ba2 O12 3.021387 1_455
Ba2 O13 3.021387 1_455
Ba2 O14 3.021387 1_565
Ba2 O13 3.021387 1_555
Ba2 O14 3.021387 1_555
Ba2 O15 3.272398 1_555
Ba2 O16 3.272401 1_555
Ba2 O17 3.272401 1_555
Ba3 O2 2.917364 1_655
Ba3 O1 2.917364 1_545
Ba3 O0 2.917371 1_555
Ba3 O16 3.022848 1_655
Ba3 O17 3.022848 1_545
Ba3 O15 3.022850 1_655
Ba3 O15 3.022850 1_545
Ba3 O17 3.022854 1_555
Ba3 O16 3.022854 1_555
Ba3 O12 3.305170 1_555
Ba3 O14 3.305175 1_555
Ba3 O13 3.305175 1_555
Ba4 O2 2.910504 1_655
Ba4 O1 2.910504 1_545
Ba4 O0 2.910511 1_555
Ba4 O6 3.021387 1_655
Ba4 O6 3.021387 1_545
Ba4 O8 3.021387 1_545
Ba4 O7 3.021387 1_655
Ba4 O7 3.021387 1_555
Ba4 O8 3.021387 1_555
Ba4 O9 3.272398 1_554
Ba4 O10 3.272401 1_554
Ba4 O11 3.272401 1_554
Ba5 O5 2.917364 1_455
Ba5 O4 2.917364 1_565
Ba5 O3 2.917371 1_555
Ba5 O11 3.022848 1_565
Ba5 O10 3.022848 1_455
Ba5 O9 3.022850 1_565
Ba5 O9 3.022850 1_455
Ba5 O10 3.022854 1_555
Ba5 O11 3.022854 1_555
Ba5 O6 3.305170 1_556
Ba5 O7 3.305175 1_556
Ba5 O8 3.305175 1_556
Ir0 O15 1.979133 1_555
Ir0 O16 1.979137 1_555
Ir0 O17 1.979137 1_555
Ir0 O1 2.063639 1_555
Ir0 O2 2.063639 1_555
Ir0 O0 2.063639 1_555
Ir1 O9 1.979133 1_555
Ir1 O11 1.979137 1_555
Ir1 O10 1.979137 1_555
Ir1 O5 2.063639 1_555
Ir1 O4 2.063639 1_555
Ir1 O3 2.063639 1_555
O0 Ru1 2.062323 1_555
O1 Ru1 2.062323 1_555
O2 Ru1 2.062323 1_555
O3 Ru0 2.062323 1_555
O4 Ru0 2.062323 1_555
O5 Ru0 2.062323 1_555
O6 Ru1 1.946784 1_555
O6 Pr1 2.341722 1_564
O7 Ru1 1.946793 1_555
O7 Pr1 2.341718 1_554
O8 Ru1 1.946793 1_555
O8 Pr1 2.341718 1_664
O9 Pr1 2.302485 1_655
O10 Pr1 2.302485 1_665
O11 Pr1 2.302485 1_555
O12 Ru0 1.946784 1_555
O12 Pr0 2.341722 1_655
O13 Ru0 1.946793 1_555
O13 Pr0 2.341718 1_665
O14 Ru0 1.946793 1_555
O14 Pr0 2.341718 1_555
O15 Pr0 2.302485 1_565
O16 Pr0 2.302485 1_555
O17 Pr0 2.302485 1_665
