# generated using pymatgen
data_Sc3(CuSi)4
_symmetry_space_group_name_H-M   'P 1'
_cell_length_a   7.52622278
_cell_length_b   7.52622278
_cell_length_c   7.52622278
_cell_angle_alpha   149.62927856
_cell_angle_beta   129.76342301
_cell_angle_gamma   59.84166975
_symmetry_Int_Tables_number   1
_chemical_formula_structural   Sc3(CuSi)4
_chemical_formula_sum   'Sc3 Cu4 Si4'
_cell_volume   164.33866262
_cell_formula_units_Z   1
loop_
 _symmetry_equiv_pos_site_id
 _symmetry_equiv_pos_as_xyz
  1  'x, y, z'
loop_
 _atom_site_type_symbol
 _atom_site_label
 _atom_site_symmetry_multiplicity
 _atom_site_fract_x
 _atom_site_fract_y
 _atom_site_fract_z
 _atom_site_occupancy
  Sc  Sc0  1  0.37353171  0.87353171  0.50000000  1
  Sc  Sc1  1  0.62646829  0.12646829  0.50000000  1
  Sc  Sc2  1  0.00000000  -0.00000000  0.00000000  1
  Cu  Cu0  1  0.63459389  0.32836089  0.30623400  1
  Cu  Cu1  1  0.36540611  0.67163911  0.69376600  1
  Cu  Cu2  1  0.02212789  0.32836089  0.69376600  1
  Cu  Cu3  1  0.97787211  0.67163911  0.30623400  1
  Si  Si0  1  0.21701060  0.21701060  0.00000000  1
  Si  Si1  1  0.78298940  0.78298940  0.00000000  1
  Si  Si2  1  0.68719886  0.50000000  0.18719886  1
  Si  Si3  1  0.31280114  0.50000000  0.81280114  1
loop_
_geom_bond_atom_site_label_1
_geom_bond_atom_site_label_2
_geom_bond_distance
_geom_bond_site_symmetry_2
Sc0 Si3 2.835410 1_565
Sc0 Si2 2.835410 1_555
Sc0 Si2 2.835410 1_566
Sc0 Si3 2.835410 1_554
Sc0 Si0 2.838371 1_566
Sc0 Si0 2.838371 1_555
Sc1 Si3 2.835410 1_544
Sc1 Si3 2.835410 1_555
Sc1 Si2 2.835410 1_545
Sc1 Si2 2.835410 1_556
Sc1 Si1 2.838371 1_545
Sc1 Si1 2.838371 1_556
Sc2 Si3 2.807357 1_555
Sc2 Si2 2.807357 1_444
Sc2 Si2 2.807357 1_455
Sc2 Si3 2.807357 1_544
Sc2 Si0 2.831161 1_555
Sc2 Si1 2.831161 1_445
Cu0 Si2 2.364887 1_555
Cu0 Si1 2.402039 1_556
Cu0 Si1 2.402042 1_545
Cu0 Si0 2.437008 1_555
Cu0 Cu2 2.476177 1_655
Cu0 Sc0 2.839463 1_555
Cu0 Sc0 2.839466 1_544
Cu0 Sc1 2.910397 1_555
Cu0 Cu1 2.929742 1_555
Cu0 Cu1 2.929748 1_544
Cu0 Sc2 3.230113 1_666
Cu0 Sc2 3.230116 1_655
Cu1 Si3 2.364887 1_555
Cu1 Si0 2.402039 1_555
Cu1 Si0 2.402042 1_566
Cu1 Si1 2.437008 1_556
Cu1 Cu3 2.476177 1_455
Cu1 Sc1 2.839463 1_555
Cu1 Sc1 2.839466 1_566
Cu1 Sc0 2.910397 1_555
Cu1 Sc2 3.230113 1_555
Cu1 Sc2 3.230116 1_566
Cu2 Si3 2.364875 1_555
Cu2 Si1 2.402042 1_445
Cu2 Si1 2.402046 1_456
Cu2 Si0 2.437016 1_556
Cu2 Sc0 2.839461 1_545
Cu2 Sc0 2.839463 1_556
Cu2 Sc1 2.910408 1_455
Cu2 Cu3 2.929760 1_445
Cu2 Cu3 2.929766 1_456
Cu2 Sc2 3.230104 1_555
Cu2 Sc2 3.230107 1_566
Cu3 Si2 2.364875 1_555
Cu3 Si0 2.402042 1_666
Cu3 Si0 2.402046 1_655
Cu3 Si1 2.437016 1_555
Cu3 Sc1 2.839461 1_565
Cu3 Sc1 2.839463 1_554
Cu3 Sc0 2.910408 1_655
Cu3 Sc2 3.230104 1_666
Cu3 Sc2 3.230107 1_655
Si2 Si3 2.392248 1_554
