# generated using pymatgen
data_Sr2GaSb2O7
_symmetry_space_group_name_H-M   'P 1'
_cell_length_a   11.49927725
_cell_length_b   11.49927725
_cell_length_c   6.04555858
_cell_angle_alpha   75.18120421
_cell_angle_beta   75.18120421
_cell_angle_gamma   29.50964126
_symmetry_Int_Tables_number   1
_chemical_formula_structural   Sr2GaSb2O7
_chemical_formula_sum   'Sr4 Ga2 Sb4 O14'
_cell_volume   379.75033925
_cell_formula_units_Z   2
loop_
 _symmetry_equiv_pos_site_id
 _symmetry_equiv_pos_as_xyz
  1  'x, y, z'
loop_
 _atom_site_type_symbol
 _atom_site_label
 _atom_site_symmetry_multiplicity
 _atom_site_fract_x
 _atom_site_fract_y
 _atom_site_fract_z
 _atom_site_occupancy
  Sr  Sr0  1  0.84752100  0.85049100  0.62552300  1
  Sr  Sr1  1  0.14950900  0.15247900  0.37447700  1
  Sr  Sr2  1  0.34541900  0.35259300  0.17658400  1
  Sr  Sr3  1  0.64740700  0.65458100  0.82341600  1
  Ga  Ga0  1  0.71051400  0.78996900  0.16240100  1
  Ga  Ga1  1  0.21003100  0.28948600  0.83759900  1
  Sb  Sb0  1  0.57283000  0.57243600  0.42088700  1
  Sb  Sb1  1  0.92942900  0.92556100  0.07179400  1
  Sb  Sb2  1  0.07443900  0.07057100  0.92820600  1
  Sb  Sb3  1  0.42756400  0.42717000  0.57911300  1
  O  O0  1  0.67552800  0.16735700  0.31835800  1
  O  O1  1  0.39001700  0.10988700  0.09884900  1
  O  O2  1  0.16701700  0.67793400  0.32742900  1
  O  O3  1  0.19410500  0.15586700  0.76617700  1
  O  O4  1  0.85251900  0.33326500  0.14694700  1
  O  O5  1  0.33766200  0.84669600  0.15014600  1
  O  O6  1  0.89011300  0.60998300  0.90115100  1
  O  O7  1  0.32206600  0.83298300  0.67257100  1
  O  O8  1  0.83264300  0.32447200  0.68164200  1
  O  O9  1  0.68967000  0.65970700  0.38133500  1
  O  O10  1  0.84413300  0.80589500  0.23382300  1
  O  O11  1  0.34029300  0.31033000  0.61866500  1
  O  O12  1  0.66673500  0.14748100  0.85305300  1
  O  O13  1  0.15330400  0.66233800  0.84985400  1
loop_
_geom_bond_atom_site_label_1
_geom_bond_atom_site_label_2
_geom_bond_distance
_geom_bond_site_symmetry_2
Ga0 O10 1.857546 1_555
Ga0 O9 1.871244 1_555
Ga0 O6 1.899252 1_554
Ga0 O1 1.914867 1_565
Ga1 O3 1.857546 1_555
Ga1 O11 1.871244 1_555
Ga1 O1 1.899252 1_556
Ga1 O6 1.914867 1_455
O0 Sb1 2.059479 1_545
O0 Sb3 2.196317 1_555
O0 Sr2 2.517590 1_555
O0 Sr0 2.551673 1_545
O1 Sr2 2.515867 1_555
O1 Sr1 2.523464 1_555
O2 Sb1 2.080620 1_455
O2 Sb3 2.158001 1_555
O2 Sr0 2.537051 1_455
O2 Sr2 2.542878 1_555
O3 Sb2 2.232356 1_555
O3 Sr1 2.564235 1_555
O3 Sr3 2.850017 1_545
O3 Sr3 3.111369 1_455
O4 Sb2 2.070233 1_654
O4 Sb0 2.204570 1_555
O4 Sr1 2.541660 1_655
O4 Sr3 2.556449 1_554
O5 Sb2 2.082630 1_564
O5 Sb0 2.171994 1_555
O5 Sr3 2.531051 1_554
O5 Sr1 2.565400 1_565
O6 Sr3 2.515867 1_555
O6 Sr0 2.523464 1_555
O7 Sb2 2.080620 1_565
O7 Sb0 2.158001 1_555
O7 Sr1 2.537051 1_565
O7 Sr3 2.542878 1_555
O8 Sb2 2.059479 1_655
O8 Sb0 2.196317 1_555
O8 Sr3 2.517590 1_555
O8 Sr1 2.551673 1_655
O9 Sb0 2.220196 1_555
O9 Sr3 2.586013 1_555
O9 Sr1 2.883135 1_655
O9 Sr1 3.072840 1_565
O10 Sb1 2.232356 1_555
O10 Sr0 2.564235 1_555
O10 Sr2 2.850017 1_655
O10 Sr2 3.111369 1_565
O11 Sb3 2.220196 1_555
O11 Sr2 2.586013 1_555
O11 Sr0 2.883135 1_545
O11 Sr0 3.072840 1_455
O12 Sb1 2.070233 1_546
O12 Sb3 2.204570 1_555
O12 Sr0 2.541660 1_545
O12 Sr2 2.556449 1_556
O13 Sb1 2.082630 1_456
O13 Sb3 2.171994 1_555
O13 Sr2 2.531051 1_556
O13 Sr0 2.565400 1_455
