# generated using pymatgen
data_Nd(MnGe)6
_symmetry_space_group_name_H-M   'P 1'
_cell_length_a   5.22668972
_cell_length_b   5.22703643
_cell_length_c   8.17795500
_cell_angle_alpha   90.00000000
_cell_angle_beta   90.00000000
_cell_angle_gamma   119.99779863
_symmetry_Int_Tables_number   1
_chemical_formula_structural   Nd(MnGe)6
_chemical_formula_sum   'Nd1 Mn6 Ge6'
_cell_volume   193.49387776
_cell_formula_units_Z   1
loop_
 _symmetry_equiv_pos_site_id
 _symmetry_equiv_pos_as_xyz
  1  'x, y, z'
loop_
 _atom_site_type_symbol
 _atom_site_label
 _atom_site_symmetry_multiplicity
 _atom_site_fract_x
 _atom_site_fract_y
 _atom_site_fract_z
 _atom_site_occupancy
  Nd  Nd0  1  0.00002100  0.00000000  0.00000000  1
  Mn  Mn0  1  0.49999800  0.00000000  0.25228200  1
  Mn  Mn1  1  0.49997800  0.49999600  0.25227400  1
  Mn  Mn2  1  0.99998200  0.50000400  0.25227400  1
  Mn  Mn3  1  0.49999800  0.00000000  0.74771800  1
  Mn  Mn4  1  0.49997800  0.49999600  0.74772600  1
  Mn  Mn5  1  0.99998200  0.50000400  0.74772600  1
  Ge  Ge0  1  0.33333600  0.66673100  0.00000000  1
  Ge  Ge1  1  0.66660500  0.33326900  0.00000000  1
  Ge  Ge2  1  0.33333600  0.66665300  0.50000000  1
  Ge  Ge3  1  0.66668300  0.33334700  0.50000000  1
  Ge  Ge4  1  0.99995300  0.00000000  0.34755600  1
  Ge  Ge5  1  0.99995300  0.00000000  0.65244400  1
loop_
_geom_bond_atom_site_label_1
_geom_bond_atom_site_label_2
_geom_bond_distance
_geom_bond_site_symmetry_2
Ge0 Mn3 2.555903 1_564
Ge0 Mn0 2.555903 1_565
Ge0 Mn5 2.556018 1_454
Ge0 Mn2 2.556018 1_455
Ge0 Mn4 2.556079 1_554
Ge0 Mn1 2.556079 1_555
Ge0 Nd0 3.017323 1_565
Ge0 Nd0 3.017781 1_665
Ge0 Nd0 3.018189 1_555
Ge1 Mn3 2.555903 1_554
Ge1 Mn0 2.555903 1_555
Ge1 Mn1 2.556018 1_555
Ge1 Mn4 2.556018 1_554
Ge1 Mn2 2.556080 1_555
Ge1 Mn5 2.556080 1_554
Ge1 Nd0 3.017323 1_555
Ge1 Nd0 3.017780 1_655
Ge1 Nd0 3.018189 1_665
Ge2 Mn4 2.525944 1_555
Ge2 Mn1 2.525944 1_555
Ge2 Mn0 2.526081 1_565
Ge2 Mn3 2.526081 1_565
Ge2 Mn5 2.526093 1_455
Ge2 Mn2 2.526093 1_455
Ge3 Mn5 2.525944 1_555
Ge3 Mn2 2.525944 1_555
Ge3 Mn3 2.526081 1_555
Ge3 Mn0 2.526081 1_555
Ge3 Mn4 2.526093 1_555
Ge3 Mn1 2.526093 1_555
Ge4 Ge5 2.493360 1_555
Ge4 Mn0 2.726795 1_555
Ge4 Mn2 2.727153 1_555
Ge4 Mn1 2.727153 1_545
Ge4 Mn0 2.727246 1_655
Ge4 Mn2 2.727258 1_545
Ge4 Mn1 2.727258 1_655
Ge4 Nd0 2.842297 1_655
Ge5 Mn3 2.726795 1_555
Ge5 Mn5 2.727153 1_555
Ge5 Mn4 2.727153 1_545
Ge5 Mn3 2.727246 1_655
Ge5 Mn5 2.727258 1_545
Ge5 Mn4 2.727258 1_655
Ge5 Nd0 2.842297 1_656
