# generated using pymatgen
data_NaAsW2O9
_symmetry_space_group_name_H-M   'P 1'
_cell_length_a   5.00083700
_cell_length_b   8.89981900
_cell_length_c   16.85998200
_cell_angle_alpha   90.00000000
_cell_angle_beta   90.00000000
_cell_angle_gamma   90.00000000
_symmetry_Int_Tables_number   1
_chemical_formula_structural   NaAsW2O9
_chemical_formula_sum   'Na4 As4 W8 O36'
_cell_volume   750.37953323
_cell_formula_units_Z   4
loop_
 _symmetry_equiv_pos_site_id
 _symmetry_equiv_pos_as_xyz
  1  'x, y, z'
loop_
 _atom_site_type_symbol
 _atom_site_label
 _atom_site_symmetry_multiplicity
 _atom_site_fract_x
 _atom_site_fract_y
 _atom_site_fract_z
 _atom_site_occupancy
  Na  Na0  1  0.30353000  0.51541000  0.10903400  1
  Na  Na1  1  0.19647000  0.48459000  0.60903400  1
  Na  Na2  1  0.80353000  0.98459000  0.89096600  1
  Na  Na3  1  0.69647000  0.01541000  0.39096600  1
  As  As0  1  0.63556300  0.22931200  0.22934300  1
  As  As1  1  0.86443700  0.77068800  0.72934300  1
  As  As2  1  0.13556300  0.27068800  0.77065700  1
  As  As3  1  0.36443700  0.72931200  0.27065700  1
  W  W0  1  0.63722800  0.61880000  0.45600700  1
  W  W1  1  0.86277200  0.38120000  0.95600700  1
  W  W2  1  0.13722800  0.88120000  0.54399300  1
  W  W3  1  0.36277200  0.11880000  0.04399300  1
  W  W4  1  0.88500600  0.89298300  0.15562700  1
  W  W5  1  0.61499400  0.10701700  0.65562700  1
  W  W6  1  0.38500600  0.60701700  0.84437300  1
  W  W7  1  0.11499400  0.39298300  0.34437300  1
  O  O0  1  0.96518900  0.24787300  0.39944400  1
  O  O1  1  0.53481100  0.75212700  0.89944400  1
  O  O2  1  0.46518900  0.25212700  0.60055600  1
  O  O3  1  0.03481100  0.74787300  0.10055600  1
  O  O4  1  0.78224300  0.50335300  0.52833900  1
  O  O5  1  0.71775700  0.49664700  0.02833900  1
  O  O6  1  0.28224300  0.99664700  0.47166100  1
  O  O7  1  0.21775700  0.00335300  0.97166100  1
  O  O8  1  0.51330000  0.27111000  0.13793300  1
  O  O9  1  0.98670000  0.72889000  0.63793300  1
  O  O10  1  0.01330000  0.22889000  0.86206700  1
  O  O11  1  0.48670000  0.77111000  0.36206700  1
  O  O12  1  0.72113300  0.04536500  0.24394000  1
  O  O13  1  0.77886700  0.95463500  0.74394000  1
  O  O14  1  0.22113300  0.45463500  0.75606000  1
  O  O15  1  0.27886700  0.54536500  0.25606000  1
  O  O16  1  0.90511200  0.34825400  0.24407900  1
  O  O17  1  0.59488800  0.65174600  0.74407900  1
  O  O18  1  0.40511200  0.15174600  0.75592100  1
  O  O19  1  0.09488800  0.84825400  0.25592100  1
  O  O20  1  0.40456100  0.25480900  0.30440600  1
  O  O21  1  0.09543900  0.74519100  0.80440600  1
  O  O22  1  0.90456100  0.24519100  0.69559400  1
  O  O23  1  0.59543900  0.75480900  0.19559400  1
  O  O24  1  0.86648300  0.55043900  0.36936600  1
  O  O25  1  0.63351700  0.44956100  0.86936600  1
  O  O26  1  0.36648300  0.94956100  0.63063400  1
  O  O27  1  0.13351700  0.05043900  0.13063400  1
  O  O28  1  0.85545400  0.79512600  0.47579800  1
  O  O29  1  0.64454600  0.20487400  0.97579800  1
  O  O30  1  0.35545400  0.70487400  0.52420200  1
  O  O31  1  0.14454600  0.29512600  0.02420200  1
  O  O32  1  0.36310600  0.47643200  0.41847200  1
  O  O33  1  0.13689400  0.52356800  0.91847200  1
  O  O34  1  0.86310600  0.02356800  0.58152800  1
  O  O35  1  0.63689400  0.97643200  0.08152800  1
loop_
_geom_bond_atom_site_label_1
_geom_bond_atom_site_label_2
_geom_bond_distance
_geom_bond_site_symmetry_2
Na0 O8 2.462745 1_555
Na0 O3 2.471142 1_555
Na0 O5 2.483934 1_555
Na0 O15 2.496199 1_555
Na0 O31 2.553680 1_555
Na0 O23 2.966534 1_555
Na1 O9 2.462745 1_455
Na1 O2 2.471142 1_555
Na1 O4 2.483934 1_455
Na1 O14 2.496199 1_555
Na1 O30 2.553680 1_555
Na1 O22 2.966534 1_455
Na2 O10 2.462745 1_665
Na2 O1 2.471142 1_555
Na2 O7 2.483934 1_665
Na2 O13 2.496199 1_555
Na2 O29 2.553680 1_565
Na2 O21 2.966534 1_655
Na3 O11 2.462745 1_545
Na3 O0 2.471142 1_555
Na3 O6 2.483934 1_545
Na3 O12 2.496199 1_555
Na3 O28 2.553680 1_545
Na3 O20 2.966534 1_555
As0 O8 1.699241 1_555
As0 O12 1.709902 1_555
As0 O20 1.728477 1_555
As0 O16 1.731850 1_555
As1 O9 1.699241 1_555
As1 O13 1.709902 1_555
As1 O21 1.728477 1_655
As1 O17 1.731850 1_555
As2 O10 1.699241 1_555
As2 O14 1.709902 1_555
As2 O22 1.728477 1_455
As2 O18 1.731850 1_555
As3 O11 1.699241 1_555
As3 O15 1.709902 1_555
As3 O23 1.728477 1_555
As3 O19 1.731850 1_555
O0 W7 1.758176 1_655
O1 W6 1.758176 1_555
O2 W5 1.758176 1_555
O3 W4 1.758176 1_455
O4 W0 1.751799 1_555
O5 W1 1.751799 1_554
O6 W2 1.751799 1_555
O7 W3 1.751799 1_556
O8 W3 2.216445 1_555
O9 W2 2.216445 1_655
O10 W1 2.216445 1_455
O11 W0 2.216445 1_555
O12 W4 2.174345 1_545
O13 W5 2.174345 1_565
O14 W6 2.174345 1_555
O15 W7 2.174345 1_555
O16 W7 2.029637 1_655
O17 W6 2.029637 1_555
O18 W5 2.029637 1_555
O19 W4 2.029637 1_455
O20 W7 2.015741 1_555
O21 W6 2.015741 1_555
O22 W5 2.015741 1_555
O23 W4 2.015741 1_555
O24 W7 1.919830 1_655
O24 W0 1.954066 1_555
O25 W6 1.919830 1_555
O25 W1 1.954066 1_555
O26 W5 1.919830 1_565
O26 W2 1.954066 1_555
O27 W4 1.919830 1_445
O27 W3 1.954066 1_555
O28 W0 1.940338 1_555
O28 W2 1.973414 1_655
O29 W1 1.940338 1_555
O29 W3 1.973414 1_556
O30 W2 1.940338 1_555
O30 W0 1.973414 1_555
O31 W3 1.940338 1_555
O31 W1 1.973414 1_454
O32 W7 1.910981 1_555
O32 W0 1.971066 1_555
O33 W6 1.910981 1_555
O33 W1 1.971066 1_455
O34 W5 1.910981 1_555
O34 W2 1.971066 1_645
O35 W4 1.910981 1_555
O35 W3 1.971066 1_565
