# generated using pymatgen
data_Ba2Y2Mg(Fe2O5)2
_symmetry_space_group_name_H-M   'P 1'
_cell_length_a   3.79257800
_cell_length_b   10.08653766
_cell_length_c   7.68790354
_cell_angle_alpha   89.81916581
_cell_angle_beta   90.00000000
_cell_angle_gamma   90.00000000
_symmetry_Int_Tables_number   1
_chemical_formula_structural   Ba2Y2Mg(Fe2O5)2
_chemical_formula_sum   'Ba2 Y2 Mg1 Fe4 O10'
_cell_volume   294.09144981
_cell_formula_units_Z   1
loop_
 _symmetry_equiv_pos_site_id
 _symmetry_equiv_pos_as_xyz
  1  'x, y, z'
loop_
 _atom_site_type_symbol
 _atom_site_label
 _atom_site_symmetry_multiplicity
 _atom_site_fract_x
 _atom_site_fract_y
 _atom_site_fract_z
 _atom_site_occupancy
  Ba  Ba0  1  0.00000000  0.95869000  0.51887200  1
  Ba  Ba1  1  0.00000000  0.95439800  0.00177800  1
  Y  Y0  1  0.00000000  0.60755300  0.01116300  1
  Y  Y1  1  0.00000000  0.44006300  0.48150400  1
  Mg  Mg0  1  0.00000000  0.30568000  0.01419200  1
  Fe  Fe0  1  0.49999900  0.71394600  0.30386500  1
  Fe  Fe1  1  0.49999900  0.23709000  0.74175900  1
  Fe  Fe2  1  0.49999900  0.18897100  0.27105700  1
  Fe  Fe3  1  0.49999900  0.69851600  0.70454800  1
  O  O0  1  0.49999900  0.58102000  0.49836300  1
  O  O1  1  0.49999900  0.29661500  0.47554600  1
  O  O2  1  0.49999900  0.71040300  0.99103800  1
  O  O3  1  0.49999900  0.22978400  0.02598900  1
  O  O4  1  0.00000000  0.73910300  0.73478900  1
  O  O5  1  0.00000000  0.44169200  0.19028700  1
  O  O6  1  0.00000000  0.74435000  0.25486500  1
  O  O7  1  0.00000000  0.36917400  0.77188300  1
  O  O8  1  0.49999900  0.00071700  0.26872500  1
  O  O9  1  0.49999900  0.04056500  0.73977800  1
loop_
_geom_bond_atom_site_label_1
_geom_bond_atom_site_label_2
_geom_bond_distance
_geom_bond_site_symmetry_2
Ba0 O9 2.677871 1_565
Ba0 O9 2.677876 1_465
Ba0 O8 2.732908 1_565
Ba0 O8 2.732913 1_465
Ba0 O4 2.763672 1_555
Ba0 O6 2.970057 1_555
Ba1 O8 2.834080 1_565
Ba1 O8 2.834085 1_465
Ba1 O6 2.872015 1_555
Ba1 O9 2.897819 1_564
Ba1 O9 2.897824 1_464
Ba1 O4 2.992826 1_554
Ba1 O2 3.108189 1_554
Ba1 O2 3.108193 1_454
Mg0 O5 1.930436 1_555
Mg0 O7 1.967951 1_554
Mg0 O3 2.046880 1_555
Mg0 O3 2.046887 1_455
Fe0 O6 1.957326 1_555
Fe0 O6 1.957333 1_655
Fe0 O0 2.005208 1_555
Fe0 O2 2.405362 1_554
Fe1 O9 1.982363 1_555
Fe1 O1 2.131051 1_555
Fe1 O3 2.186143 1_556
Fe1 O7 2.329468 1_555
Fe1 O7 2.329475 1_655
Fe2 O8 1.898972 1_555
Fe2 O1 1.913403 1_555
Fe2 O3 1.927239 1_555
Fe3 O4 1.954007 1_555
Fe3 O4 1.954014 1_655
Fe3 O0 1.982177 1_555
Fe3 O2 2.206146 1_555
O0 Y1 2.373875 1_555
O0 Y1 2.373881 1_655
O1 Y1 2.385774 1_555
O1 Y1 2.385780 1_655
O2 Y0 2.166800 1_556
O2 Y0 2.166807 1_656
O4 Y0 2.501466 1_556
O5 Y0 2.163478 1_555
O5 Y1 2.238857 1_555
O6 Y0 2.330323 1_555
O7 Y1 2.341969 1_555
O7 Y0 3.032018 1_556
