# generated using pymatgen
data_Tl3GeF7
_symmetry_space_group_name_H-M   'P 1'
_cell_length_a   7.99259864
_cell_length_b   7.99259864
_cell_length_c   5.89477369
_cell_angle_alpha   90.00000000
_cell_angle_beta   90.00000000
_cell_angle_gamma   90.00000000
_symmetry_Int_Tables_number   1
_chemical_formula_structural   Tl3GeF7
_chemical_formula_sum   'Tl6 Ge2 F14'
_cell_volume   376.56776960
_cell_formula_units_Z   2
loop_
 _symmetry_equiv_pos_site_id
 _symmetry_equiv_pos_as_xyz
  1  'x, y, z'
loop_
 _atom_site_type_symbol
 _atom_site_label
 _atom_site_symmetry_multiplicity
 _atom_site_fract_x
 _atom_site_fract_y
 _atom_site_fract_z
 _atom_site_occupancy
  Tl  Tl0  1  0.69768607  0.19768607  0.50000000  1
  Tl  Tl1  1  0.30231393  0.80231393  0.50000000  1
  Tl  Tl2  1  0.19768607  0.30231393  0.50000000  1
  Tl  Tl3  1  0.80231393  0.69768607  0.50000000  1
  Tl  Tl4  1  -0.00000000  0.00000000  -0.00000000  1
  Tl  Tl5  1  0.50000000  0.50000000  -0.00000000  1
  Ge  Ge0  1  0.50000000  0.00000000  -0.00000000  1
  Ge  Ge1  1  -0.00000000  0.50000000  -0.00000000  1
  F  F0  1  0.11211780  0.61211780  0.21879954  1
  F  F1  1  0.88788220  0.38788220  0.78120046  1
  F  F2  1  0.88788220  0.38788220  0.21879954  1
  F  F3  1  0.61211780  0.88788220  0.21879954  1
  F  F4  1  0.61211780  0.88788220  0.78120046  1
  F  F5  1  0.11211780  0.61211780  0.78120046  1
  F  F6  1  0.38788220  0.11211780  0.78120046  1
  F  F7  1  0.38788220  0.11211780  0.21879954  1
  F  F8  1  0.66010027  0.16010027  -0.00000000  1
  F  F9  1  0.33989973  0.83989973  -0.00000000  1
  F  F10  1  0.16010027  0.33989973  -0.00000000  1
  F  F11  1  0.83989973  0.66010027  -0.00000000  1
  F  F12  1  -0.00000000  0.00000000  0.50000000  1
  F  F13  1  0.50000000  0.50000000  0.50000000  1
loop_
_geom_bond_atom_site_label_1
_geom_bond_atom_site_label_2
_geom_bond_distance
_geom_bond_site_symmetry_2
F0 Ge1 1.808190 1_555
F0 Tl1 2.714675 1_555
F1 Ge1 1.808190 1_656
F1 Tl0 2.714675 1_555
F2 Ge1 1.808190 1_655
F2 Tl0 2.714675 1_555
F3 Ge0 1.808190 1_565
F3 Tl3 2.714675 1_555
F4 Ge0 1.808190 1_566
F4 Tl3 2.714675 1_555
F5 Ge1 1.808190 1_556
F5 Tl1 2.714675 1_555
F6 Ge0 1.808190 1_556
F6 Tl2 2.714675 1_555
F7 Ge0 1.808190 1_555
F7 Tl2 2.714675 1_555
F8 Ge0 1.809652 1_555
F9 Ge0 1.809652 1_565
F10 Ge1 1.809652 1_555
F11 Ge1 1.809652 1_655
