# generated using pymatgen
data_RbNa2FeF6
_symmetry_space_group_name_H-M   'P 1'
_cell_length_a   6.27992900
_cell_length_b   6.27992871
_cell_length_c   6.27992819
_cell_angle_alpha   60.00000282
_cell_angle_beta   60.00000102
_cell_angle_gamma   60.00000373
_symmetry_Int_Tables_number   1
_chemical_formula_structural   RbNa2FeF6
_chemical_formula_sum   'Rb1 Na2 Fe1 F6'
_cell_volume   175.12540483
_cell_formula_units_Z   1
loop_
 _symmetry_equiv_pos_site_id
 _symmetry_equiv_pos_as_xyz
  1  'x, y, z'
loop_
 _atom_site_type_symbol
 _atom_site_label
 _atom_site_symmetry_multiplicity
 _atom_site_fract_x
 _atom_site_fract_y
 _atom_site_fract_z
 _atom_site_occupancy
  Rb  Rb0  1  0.50000000  0.50000000  0.50000000  1
  Na  Na0  1  0.25000000  0.25000000  0.25000000  1
  Na  Na1  1  0.75000000  0.75000000  0.75000000  1
  Fe  Fe0  1  0.00000000  0.00000000  0.00000000  1
  F  F0  1  0.21110200  0.78889800  0.21110200  1
  F  F1  1  0.78889800  0.78889800  0.21110200  1
  F  F2  1  0.78889800  0.21110200  0.78889800  1
  F  F3  1  0.78889800  0.21110200  0.21110200  1
  F  F4  1  0.21110200  0.78889800  0.78889800  1
  F  F5  1  0.21110200  0.21110200  0.78889800  1
loop_
_geom_bond_atom_site_label_1
_geom_bond_atom_site_label_2
_geom_bond_distance
_geom_bond_site_symmetry_2
F0 Fe0 1.874831 1_565
F0 Rb0 2.565750 1_555
F1 Fe0 1.874831 1_665
F1 Rb0 2.565750 1_555
F2 Fe0 1.874831 1_656
F2 Rb0 2.565750 1_555
F3 Fe0 1.874831 1_655
F3 Rb0 2.565749 1_555
F4 Fe0 1.874831 1_566
F4 Rb0 2.565749 1_555
F5 Fe0 1.874831 1_556
F5 Rb0 2.565750 1_555
