# generated using pymatgen
data_FeAg3F6
_symmetry_space_group_name_H-M   'P 1'
_cell_length_a   6.14514206
_cell_length_b   6.14514206
_cell_length_c   6.14514206
_cell_angle_alpha   115.95844008
_cell_angle_beta   115.95844008
_cell_angle_gamma   97.15545277
_symmetry_Int_Tables_number   1
_chemical_formula_structural   FeAg3F6
_chemical_formula_sum   'Fe1 Ag3 F6'
_cell_volume   172.65408627
_cell_formula_units_Z   1
loop_
 _symmetry_equiv_pos_site_id
 _symmetry_equiv_pos_as_xyz
  1  'x, y, z'
loop_
 _atom_site_type_symbol
 _atom_site_label
 _atom_site_symmetry_multiplicity
 _atom_site_fract_x
 _atom_site_fract_y
 _atom_site_fract_z
 _atom_site_occupancy
  Fe  Fe0  1  0.00000000  0.00000000  0.00000000  1
  Ag  Ag0  1  0.75000000  0.25000000  0.50000000  1
  Ag  Ag1  1  0.25000000  0.75000000  0.50000000  1
  Ag  Ag2  1  0.50000000  0.50000000  0.00000000  1
  F  F0  1  0.00000000  0.29930500  0.29930500  1
  F  F1  1  0.00000000  0.70069500  0.70069500  1
  F  F2  1  0.29930500  0.00000000  0.29930500  1
  F  F3  1  0.70069500  0.00000000  0.70069500  1
  F  F4  1  0.24079600  0.24079600  0.00000000  1
  F  F5  1  0.75920400  0.75920400  0.00000000  1
loop_
_geom_bond_atom_site_label_1
_geom_bond_atom_site_label_2
_geom_bond_distance
_geom_bond_site_symmetry_2
Ag0 F3 2.417201 1_555
Ag0 F2 2.417201 1_555
Ag0 F1 2.417201 1_655
Ag0 F0 2.417201 1_655
Ag1 F3 2.417201 1_565
Ag1 F1 2.417201 1_555
Ag1 F0 2.417201 1_555
Ag1 F2 2.417201 1_565
Ag2 F5 2.107664 1_555
Ag2 F4 2.107664 1_555
F0 Fe0 1.950462 1_555
F1 Fe0 1.950462 1_566
F2 Fe0 1.950462 1_555
F3 Fe0 1.950462 1_656
F4 Fe0 1.957983 1_555
F5 Fe0 1.957983 1_665
