# generated using pymatgen
data_Mg2Al4Zn3
_symmetry_space_group_name_H-M   'P 1'
_cell_length_a   4.98352099
_cell_length_b   4.98352099
_cell_length_c   14.86742500
_cell_angle_alpha   90.00000000
_cell_angle_beta   90.00000000
_cell_angle_gamma   120.07957149
_symmetry_Int_Tables_number   1
_chemical_formula_structural   Mg2Al4Zn3
_chemical_formula_sum   'Mg4 Al8 Zn6'
_cell_volume   319.51421897
_cell_formula_units_Z   2
loop_
 _symmetry_equiv_pos_site_id
 _symmetry_equiv_pos_as_xyz
  1  'x, y, z'
loop_
 _atom_site_type_symbol
 _atom_site_label
 _atom_site_symmetry_multiplicity
 _atom_site_fract_x
 _atom_site_fract_y
 _atom_site_fract_z
 _atom_site_occupancy
  Mg  Mg0  1  0.66675900  0.33324100  0.14237300  1
  Mg  Mg1  1  0.33324100  0.66675900  0.85762700  1
  Mg  Mg2  1  0.33324100  0.66675900  0.64237300  1
  Mg  Mg3  1  0.66675900  0.33324100  0.35762700  1
  Al  Al0  1  0.66674400  0.33325600  0.56065200  1
  Al  Al1  1  0.33325600  0.66674400  0.43934800  1
  Al  Al2  1  0.33325600  0.66674400  0.06065200  1
  Al  Al3  1  0.66674400  0.33325600  0.93934800  1
  Al  Al4  1  0.99991000  0.00009000  0.58753100  1
  Al  Al5  1  0.00009000  0.99991000  0.41246900  1
  Al  Al6  1  0.00009000  0.99991000  0.08753100  1
  Al  Al7  1  0.99991000  0.00009000  0.91246900  1
  Zn  Zn0  1  0.83198300  0.66389300  0.75000000  1
  Zn  Zn1  1  0.83185100  0.16814900  0.75000000  1
  Zn  Zn2  1  0.33610700  0.16801700  0.75000000  1
  Zn  Zn3  1  0.16801700  0.33610700  0.25000000  1
  Zn  Zn4  1  0.16814900  0.83185100  0.25000000  1
  Zn  Zn5  1  0.66389300  0.83198300  0.25000000  1
loop_
_geom_bond_atom_site_label_1
_geom_bond_atom_site_label_2
_geom_bond_distance
_geom_bond_site_symmetry_2
Mg0 Zn4 2.958804 1_545
Mg0 Zn4 2.958804 1_655
Mg0 Zn3 2.960579 1_655
Mg0 Zn5 2.960579 1_545
Mg0 Zn5 2.962076 1_555
Mg0 Zn3 2.962076 1_555
Mg0 Mg3 3.200273 1_555
Mg1 Zn1 2.958804 1_455
Mg1 Zn1 2.958804 1_565
Mg1 Zn2 2.960579 1_565
Mg1 Zn0 2.960579 1_455
Mg1 Zn0 2.962076 1_555
Mg1 Zn2 2.962076 1_555
Mg1 Mg2 3.200273 1_555
Mg2 Zn1 2.958804 1_455
Mg2 Zn1 2.958804 1_565
Mg2 Zn2 2.960579 1_565
Mg2 Zn0 2.960579 1_455
Mg2 Zn0 2.962076 1_555
Mg2 Zn2 2.962076 1_555
Mg3 Zn4 2.958804 1_545
Mg3 Zn4 2.958804 1_655
Mg3 Zn3 2.960579 1_655
Mg3 Zn5 2.960579 1_545
Mg3 Zn5 2.962076 1_555
Mg3 Zn3 2.962076 1_555
Al0 Al4 2.903288 1_565
Al0 Al4 2.903288 1_455
Al0 Al4 2.904567 1_555
Al0 Mg3 3.018459 1_555
Al0 Mg2 3.120447 1_545
Al0 Mg2 3.120447 1_655
Al0 Mg2 3.125659 1_555
Al1 Al5 2.903288 1_655
Al1 Al5 2.903288 1_545
Al1 Al5 2.904567 1_555
Al1 Mg2 3.018459 1_555
Al1 Mg3 3.120447 1_455
Al1 Mg3 3.120447 1_565
Al1 Mg3 3.125659 1_555
Al2 Al6 2.903288 1_655
Al2 Al6 2.903288 1_545
Al2 Al6 2.904567 1_555
Al2 Mg1 3.018459 1_554
Al2 Mg0 3.120447 1_455
Al2 Mg0 3.120447 1_565
Al2 Mg0 3.125659 1_555
Al3 Al7 2.903288 1_565
Al3 Al7 2.903288 1_455
Al3 Al7 2.904567 1_555
Al3 Mg0 3.018459 1_556
Al3 Mg1 3.120447 1_545
Al3 Mg1 3.120447 1_655
Al3 Mg1 3.125659 1_555
Al4 Al5 2.602722 1_645
Al4 Zn2 2.817195 1_655
Al4 Zn0 2.817195 1_545
Al4 Zn1 2.817916 1_555
Al4 Mg2 2.988326 1_655
Al4 Mg2 2.988326 1_545
Al4 Mg2 2.991626 1_645
Al5 Zn3 2.817195 1_565
Al5 Zn5 2.817195 1_455
Al5 Zn4 2.817916 1_555
Al5 Mg3 2.988326 1_565
Al5 Mg3 2.988326 1_455
Al5 Mg3 2.991626 1_465
Al6 Al7 2.602722 1_464
Al6 Zn3 2.817195 1_565
Al6 Zn5 2.817195 1_455
Al6 Zn4 2.817916 1_555
Al6 Mg0 2.988326 1_565
Al6 Mg0 2.988326 1_455
Al6 Mg0 2.991626 1_465
Al7 Zn2 2.817195 1_655
Al7 Zn0 2.817195 1_545
Al7 Zn1 2.817916 1_555
Al7 Mg1 2.988326 1_655
Al7 Mg1 2.988326 1_545
Al7 Mg1 2.991626 1_645
Zn0 Zn2 2.468236 1_555
Zn0 Zn1 2.470221 1_555
Zn0 Zn2 2.509290 1_665
Zn0 Zn1 2.513300 1_565
Zn1 Zn2 2.470221 1_555
Zn1 Zn2 2.513300 1_655
Zn3 Zn5 2.468236 1_555
Zn3 Zn4 2.470221 1_555
Zn3 Zn5 2.509290 1_445
Zn3 Zn4 2.513300 1_545
Zn4 Zn5 2.470221 1_555
Zn4 Zn5 2.513300 1_455
