# generated using pymatgen
data_MgSn4O9
_symmetry_space_group_name_H-M   'P 1'
_cell_length_a   8.15665800
_cell_length_b   8.15665800
_cell_length_c   5.06677200
_cell_angle_alpha   90.00000000
_cell_angle_beta   90.00000000
_cell_angle_gamma   90.00000000
_symmetry_Int_Tables_number   1
_chemical_formula_structural   MgSn4O9
_chemical_formula_sum   'Mg2 Sn8 O18'
_cell_volume   337.09776123
_cell_formula_units_Z   2
loop_
 _symmetry_equiv_pos_site_id
 _symmetry_equiv_pos_as_xyz
  1  'x, y, z'
loop_
 _atom_site_type_symbol
 _atom_site_label
 _atom_site_symmetry_multiplicity
 _atom_site_fract_x
 _atom_site_fract_y
 _atom_site_fract_z
 _atom_site_occupancy
  Mg  Mg0  1  0.00000000  0.50000000  0.71985000  1
  Mg  Mg1  1  0.50000000  0.00000000  0.28015000  1
  Sn  Sn0  1  0.68803700  0.38631600  0.26851500  1
  Sn  Sn1  1  0.38631600  0.31196300  0.73148500  1
  Sn  Sn2  1  0.88631600  0.81196300  0.26851500  1
  Sn  Sn3  1  0.18803700  0.88631600  0.73148500  1
  Sn  Sn4  1  0.31196300  0.61368400  0.26851500  1
  Sn  Sn5  1  0.11368400  0.18803700  0.26851500  1
  Sn  Sn6  1  0.81196300  0.11368400  0.73148500  1
  Sn  Sn7  1  0.61368400  0.68803700  0.73148500  1
  O  O0  1  0.50000000  0.50000000  0.50000000  1
  O  O1  1  0.00000000  0.00000000  0.50000000  1
  O  O2  1  0.50413900  0.74625700  0.08255300  1
  O  O3  1  0.75374300  0.00413900  0.08255300  1
  O  O4  1  0.24625700  0.99586100  0.08255300  1
  O  O5  1  0.49586100  0.25374300  0.08255300  1
  O  O6  1  0.99586100  0.75374300  0.91744700  1
  O  O7  1  0.74625700  0.49586100  0.91744700  1
  O  O8  1  0.25374300  0.50413900  0.91744700  1
  O  O9  1  0.00413900  0.24625700  0.91744700  1
  O  O10  1  0.20558900  0.39695400  0.44197300  1
  O  O11  1  0.10304600  0.70558900  0.44197300  1
  O  O12  1  0.89695400  0.29441100  0.44197300  1
  O  O13  1  0.79441100  0.60304600  0.44197300  1
  O  O14  1  0.70558900  0.89695400  0.55802700  1
  O  O15  1  0.39695400  0.79441100  0.55802700  1
  O  O16  1  0.60304600  0.20558900  0.55802700  1
  O  O17  1  0.29441100  0.10304600  0.55802700  1
loop_
_geom_bond_atom_site_label_1
_geom_bond_atom_site_label_2
_geom_bond_distance
_geom_bond_site_symmetry_2
Mg0 O6 2.299377 1_455
Mg0 O8 2.299377 1_555
Mg0 O7 2.299377 1_455
Mg0 O9 2.299377 1_555
Mg0 O13 2.345381 1_455
Mg0 O10 2.345381 1_555
Mg0 O11 2.345381 1_555
Mg0 O12 2.345381 1_455
Mg1 O3 2.299377 1_555
Mg1 O5 2.299377 1_555
Mg1 O2 2.299377 1_545
Mg1 O4 2.299377 1_545
Mg1 O16 2.345381 1_555
Mg1 O17 2.345381 1_555
Mg1 O15 2.345381 1_545
Mg1 O14 2.345381 1_545
O0 Sn1 2.141939 1_555
O0 Sn7 2.141939 1_555
O0 Sn4 2.141939 1_555
O0 Sn0 2.141939 1_555
O1 Sn3 2.141939 1_545
O1 Sn5 2.141939 1_555
O1 Sn6 2.141939 1_455
O1 Sn2 2.141939 1_445
O2 Sn7 2.046449 1_554
O2 Sn4 2.124668 1_555
O3 Sn6 2.046449 1_554
O3 Sn2 2.124668 1_545
O4 Sn3 2.046449 1_554
O4 Sn5 2.124668 1_565
O5 Sn1 2.046449 1_554
O5 Sn0 2.124668 1_555
O6 Sn2 2.046449 1_556
O6 Sn3 2.124668 1_655
O7 Sn0 2.046449 1_556
O7 Sn7 2.124668 1_555
O8 Sn4 2.046449 1_556
O8 Sn1 2.124668 1_555
O9 Sn5 2.046449 1_556
O9 Sn6 2.124668 1_455
O10 Sn5 2.058691 1_555
O10 Sn4 2.156463 1_555
O10 Sn1 2.192124 1_555
O11 Sn4 2.058691 1_555
O11 Sn2 2.156463 1_455
O11 Sn3 2.192124 1_555
O12 Sn0 2.058691 1_555
O12 Sn5 2.156463 1_655
O12 Sn6 2.192124 1_555
O13 Sn2 2.058691 1_555
O13 Sn0 2.156463 1_555
O13 Sn7 2.192124 1_555
O14 Sn7 2.058691 1_555
O14 Sn6 2.156463 1_565
O14 Sn2 2.192124 1_555
O15 Sn3 2.058691 1_555
O15 Sn7 2.156463 1_555
O15 Sn4 2.192124 1_555
O16 Sn6 2.058691 1_555
O16 Sn1 2.156463 1_555
O16 Sn0 2.192124 1_555
O17 Sn1 2.058691 1_555
O17 Sn3 2.156463 1_545
O17 Sn5 2.192124 1_555
