# generated using pymatgen
data_BaCaSi
_symmetry_space_group_name_H-M   'P 1'
_cell_length_a   5.08204403
_cell_length_b   8.58932451
_cell_length_c   9.16594556
_cell_angle_alpha   90.00000000
_cell_angle_beta   90.00000000
_cell_angle_gamma   90.00000000
_symmetry_Int_Tables_number   1
_chemical_formula_structural   BaCaSi
_chemical_formula_sum   'Ba4 Ca4 Si4'
_cell_volume   400.10567176
_cell_formula_units_Z   4
loop_
 _symmetry_equiv_pos_site_id
 _symmetry_equiv_pos_as_xyz
  1  'x, y, z'
loop_
 _atom_site_type_symbol
 _atom_site_label
 _atom_site_symmetry_multiplicity
 _atom_site_fract_x
 _atom_site_fract_y
 _atom_site_fract_z
 _atom_site_occupancy
  Ba  Ba0  1  0.25000000  0.02722504  0.82374619  1
  Ba  Ba1  1  0.75000000  0.97277496  0.17625381  1
  Ba  Ba2  1  0.25000000  0.52722504  0.67625381  1
  Ba  Ba3  1  0.75000000  0.47277496  0.32374619  1
  Ca  Ca0  1  0.75000000  0.35894829  0.92554394  1
  Ca  Ca1  1  0.25000000  0.64105171  0.07445606  1
  Ca  Ca2  1  0.75000000  0.85894829  0.57445606  1
  Ca  Ca3  1  0.25000000  0.14105171  0.42554394  1
  Si  Si0  1  0.25000000  0.78248094  0.39182602  1
  Si  Si1  1  0.75000000  0.21751906  0.60817398  1
  Si  Si2  1  0.25000000  0.28248094  0.10817398  1
  Si  Si3  1  0.75000000  0.71751906  0.89182602  1
loop_
_geom_bond_atom_site_label_1
_geom_bond_atom_site_label_2
_geom_bond_distance
_geom_bond_site_symmetry_2
Ba0 Si2 3.406414 1_556
Ba0 Si1 3.610076 1_555
Ba0 Si1 3.610076 1_455
Ba0 Si3 3.731309 1_545
Ba0 Si3 3.731309 1_445
Ba1 Si3 3.406414 1_554
Ba1 Si0 3.610076 1_655
Ba1 Si0 3.610076 1_555
Ba1 Si2 3.731309 1_665
Ba1 Si2 3.731309 1_565
Ba2 Si0 3.406414 1_555
Ba2 Si3 3.610076 1_455
Ba2 Si3 3.610076 1_555
Ba2 Si1 3.731309 1_555
Ba2 Si1 3.731309 1_455
Ba3 Si1 3.406414 1_555
Ba3 Si2 3.610076 1_655
Ba3 Si2 3.610076 1_555
Ba3 Si0 3.731309 1_655
Ba3 Si0 3.731309 1_555
Ca0 Si3 3.095348 1_555
Ca0 Si2 3.112938 1_556
Ca0 Si2 3.112938 1_656
Ca0 Si1 3.152452 1_555
Ca1 Si2 3.095348 1_555
Ca1 Si3 3.112938 1_554
Ca1 Si3 3.112938 1_454
Ca1 Si0 3.152452 1_555
Ca2 Si1 3.095348 1_565
Ca2 Si0 3.112938 1_655
Ca2 Si0 3.112938 1_555
Ca2 Si3 3.152452 1_555
Ca3 Si0 3.095348 1_545
Ca3 Si1 3.112938 1_555
Ca3 Si1 3.112938 1_455
Ca3 Si2 3.152452 1_555
