# generated using pymatgen
data_Ba2MgMo4(P2O7)4
_symmetry_space_group_name_H-M   'P 1'
_cell_length_a   7.90603328
_cell_length_b   7.82495031
_cell_length_c   10.26516190
_cell_angle_alpha   81.56429498
_cell_angle_beta   80.57340976
_cell_angle_gamma   90.29845600
_symmetry_Int_Tables_number   1
_chemical_formula_structural   Ba2MgMo4(P2O7)4
_chemical_formula_sum   'Ba2 Mg1 Mo4 P8 O28'
_cell_volume   619.41580281
_cell_formula_units_Z   1
loop_
 _symmetry_equiv_pos_site_id
 _symmetry_equiv_pos_as_xyz
  1  'x, y, z'
loop_
 _atom_site_type_symbol
 _atom_site_label
 _atom_site_symmetry_multiplicity
 _atom_site_fract_x
 _atom_site_fract_y
 _atom_site_fract_z
 _atom_site_occupancy
  Ba  Ba0  1  0.02073628  0.44426397  0.11453357  1
  Ba  Ba1  1  0.50197288  0.01004501  0.49067731  1
  Mg  Mg0  1  0.98181563  0.65752841  0.78547833  1
  Mo  Mo0  1  0.00272295  0.00854575  0.49173934  1
  Mo  Mo1  1  0.00850414  0.00113834  0.99182877  1
  Mo  Mo2  1  0.45582215  0.52834600  0.25501727  1
  Mo  Mo3  1  0.54484324  0.47549072  0.74039595  1
  P  P0  1  0.80056303  0.75681764  0.29200853  1
  P  P1  1  0.30623642  0.14037875  0.19185353  1
  P  P2  1  0.19910212  0.25407309  0.69835310  1
  P  P3  1  0.69423836  0.85661347  0.80661741  1
  P  P4  1  0.76048668  0.39139510  0.44277586  1
  P  P5  1  0.65286384  0.26871893  0.03539697  1
  P  P6  1  0.24076421  0.61721592  0.55353146  1
  P  P7  1  0.35294412  0.72808385  0.96307113  1
  O  O0  1  0.92066613  0.79410378  0.15737819  1
  O  O1  1  0.29116265  0.00238966  0.31248793  1
  O  O2  1  0.08381628  0.20661439  0.83223933  1
  O  O3  1  0.66231255  0.99078904  0.69452533  1
  O  O4  1  0.60980949  0.74371401  0.28328481  1
  O  O5  1  0.28960564  0.32455388  0.23022739  1
  O  O6  1  0.39081858  0.26968538  0.70225612  1
  O  O7  1  0.72454390  0.67367695  0.76341852  1
  O  O8  1  0.82433317  0.87442800  0.39386680  1
  O  O9  1  0.17395966  0.12498180  0.09975254  1
  O  O10  1  0.17638326  0.14262368  0.59166040  1
  O  O11  1  0.85846101  0.88430310  0.86594707  1
  O  O12  1  0.85878570  0.56054841  0.34531897  1
  O  O13  1  0.49769047  0.13300661  0.10776130  1
  O  O14  1  0.31880857  0.68071006  0.11525929  1
  O  O15  1  0.25709521  0.59215594  0.40910316  1
  O  O16  1  0.64576930  0.30303312  0.88756463  1
  O  O17  1  0.74461153  0.42248197  0.58598556  1
  O  O18  1  0.36698486  0.56488840  0.89592798  1
  O  O19  1  0.41368230  0.64709287  0.59897828  1
  O  O20  1  0.64254844  0.43162311  0.10496250  1
  O  O21  1  0.13778303  0.45210916  0.65068119  1
  O  O22  1  0.21167481  0.84212575  0.91434011  1
  O  O23  1  0.11342756  0.75977946  0.59315777  1
  O  O24  1  0.81555435  0.17357079  0.06597739  1
  O  O25  1  0.87749274  0.24468025  0.40695181  1
  O  O26  1  0.53351167  0.83736248  0.92717368  1
  O  O27  1  0.58509110  0.36764697  0.39803242  1
loop_
_geom_bond_atom_site_label_1
_geom_bond_atom_site_label_2
_geom_bond_distance
_geom_bond_site_symmetry_2
Ba0 O5 2.706979 1_555
Ba0 O12 2.780419 1_455
Ba0 O9 2.795508 1_555
Ba0 O24 2.811640 1_455
Ba0 O0 2.928306 1_455
Ba0 O14 2.990152 1_555
Ba0 O20 3.009207 1_455
Ba0 O25 3.197574 1_455
Ba0 O18 3.280185 1_554
Ba1 O3 2.605134 1_545
Ba1 O1 2.675234 1_555
Ba1 O8 2.849034 1_545
Ba1 O27 2.856857 1_555
Ba1 O10 2.871616 1_555
Ba1 O19 2.930532 1_545
Mg0 O7 2.085559 1_555
Mg0 O23 2.115498 1_655
Mg0 O11 2.228560 1_555
Mg0 O21 2.476528 1_655
Mo0 O10 2.190856 1_555
Mo0 O8 2.204073 1_445
Mo0 O25 2.231906 1_455
Mo0 O23 2.315319 1_545
Mo0 O1 2.690916 1_555
Mo1 O2 2.126291 1_555
Mo1 O22 2.157245 1_545
Mo1 O9 2.157323 1_556
Mo1 O24 2.160871 1_456
Mo1 O11 2.179494 1_445
Mo1 O0 2.188301 1_446
Mo2 O5 2.131049 1_555
Mo2 O4 2.155040 1_555
Mo2 O15 2.155336 1_555
Mo2 O14 2.161872 1_555
Mo2 O20 2.175692 1_555
Mo2 O27 2.178114 1_555
Mo3 O16 2.132591 1_555
Mo3 O6 2.133143 1_555
Mo3 O17 2.135076 1_555
Mo3 O18 2.148990 1_555
Mo3 O7 2.161904 1_555
Mo3 O19 2.218422 1_555
O0 P0 1.531547 1_555
O1 P1 1.507169 1_555
O2 P2 1.514571 1_555
O3 P3 1.494477 1_555
O4 P0 1.529128 1_555
O5 P1 1.549507 1_555
O6 P2 1.527523 1_555
O7 P3 1.567854 1_555
O8 P0 1.523289 1_555
O9 P1 1.535578 1_555
O10 P2 1.528181 1_555
O11 P3 1.548670 1_555
O12 P4 1.644036 1_555
O12 P0 1.647216 1_555
O13 P1 1.620835 1_555
O13 P5 1.625127 1_555
O14 P7 1.530285 1_554
O15 P6 1.508650 1_555
O16 P5 1.512153 1_556
O17 P4 1.510242 1_555
O18 P7 1.533864 1_555
O19 P6 1.542346 1_555
O20 P5 1.546149 1_555
O21 P6 1.634503 1_555
O21 P2 1.654954 1_555
O22 P7 1.535058 1_555
O23 P6 1.560165 1_555
O24 P5 1.543028 1_555
O25 P4 1.527234 1_555
O26 P3 1.611544 1_555
O26 P7 1.620945 1_555
O27 P4 1.548988 1_555
