# generated using pymatgen
data_Er2SeO2
_symmetry_space_group_name_H-M   'P 1'
_cell_length_a   3.77849704
_cell_length_b   3.77849589
_cell_length_c   6.72783968
_cell_angle_alpha   90.00000000
_cell_angle_beta   90.00000000
_cell_angle_gamma   120.00000115
_symmetry_Int_Tables_number   1
_chemical_formula_structural   Er2SeO2
_chemical_formula_sum   'Er2 Se1 O2'
_cell_volume   83.18486210
_cell_formula_units_Z   1
loop_
 _symmetry_equiv_pos_site_id
 _symmetry_equiv_pos_as_xyz
  1  'x, y, z'
loop_
 _atom_site_type_symbol
 _atom_site_label
 _atom_site_symmetry_multiplicity
 _atom_site_fract_x
 _atom_site_fract_y
 _atom_site_fract_z
 _atom_site_occupancy
  Er  Er0  1  0.66666700  0.33333300  0.70811020  1
  Er  Er1  1  0.33333300  0.66666700  0.29188980  1
  Se  Se0  1  -0.00000000  0.00000000  0.00000000  1
  O  O0  1  0.66666700  0.33333300  0.37472366  1
  O  O1  1  0.33333300  0.66666700  0.62527634  1
loop_
_geom_bond_atom_site_label_1
_geom_bond_atom_site_label_2
_geom_bond_distance
_geom_bond_site_symmetry_2
Er0 O0 2.242971 1_555
Er0 O1 2.251572 1_545
Er0 O1 2.251573 1_655
Er0 O1 2.251579 1_555
Er0 Se0 2.935211 1_656
Er0 Se0 2.935213 1_666
Er0 Se0 2.935214 1_556
Er1 O1 2.242971 1_555
Er1 O0 2.251572 1_565
Er1 O0 2.251573 1_455
Er1 O0 2.251579 1_555
Er1 Se0 2.935211 1_565
Er1 Se0 2.935213 1_555
Er1 Se0 2.935214 1_665
