# generated using pymatgen
data_La4MgGa2(FeO6)2
_symmetry_space_group_name_H-M   'P 1'
_cell_length_a   6.04657288
_cell_length_b   5.69877845
_cell_length_c   8.44496211
_cell_angle_alpha   95.81050882
_cell_angle_beta   91.43645181
_cell_angle_gamma   86.06798033
_symmetry_Int_Tables_number   1
_chemical_formula_structural   La4MgGa2(FeO6)2
_chemical_formula_sum   'La4 Mg1 Ga2 Fe2 O12'
_cell_volume   288.77245232
_cell_formula_units_Z   1
loop_
 _symmetry_equiv_pos_site_id
 _symmetry_equiv_pos_as_xyz
  1  'x, y, z'
loop_
 _atom_site_type_symbol
 _atom_site_label
 _atom_site_symmetry_multiplicity
 _atom_site_fract_x
 _atom_site_fract_y
 _atom_site_fract_z
 _atom_site_occupancy
  La  La0  1  0.37587400  0.45929600  0.79776800  1
  La  La1  1  0.92188800  0.05489100  0.73041800  1
  La  La2  1  0.55797200  0.52291700  0.22727500  1
  La  La3  1  0.04725700  0.96547900  0.24377900  1
  Mg  Mg0  1  0.72482100  0.62374400  0.60517200  1
  Ga  Ga0  1  0.98256600  0.46518400  0.03814400  1
  Ga  Ga1  1  0.48325800  0.04382900  0.45751600  1
  Fe  Fe0  1  0.11635700  0.49385200  0.46383600  1
  Fe  Fe1  1  0.51407500  0.97880900  0.99901400  1
  O  O0  1  0.55785300  0.82748300  0.77151800  1
  O  O1  1  0.03039200  0.63262900  0.69241400  1
  O  O2  1  0.44874100  0.11987800  0.23731000  1
  O  O3  1  0.96431900  0.38492900  0.25599500  1
  O  O4  1  0.64156200  0.30079900  0.57885400  1
  O  O5  1  0.16254800  0.20445000  0.93615800  1
  O  O6  1  0.26103600  0.66435300  0.05394100  1
  O  O7  1  0.75534300  0.84153000  0.44161900  1
  O  O8  1  0.30973200  0.74266900  0.40443700  1
  O  O9  1  0.79845300  0.75346900  0.07715300  1
  O  O10  1  0.70112500  0.29607300  0.95407200  1
  O  O11  1  0.20435100  0.18326200  0.55027400  1
loop_
_geom_bond_atom_site_label_1
_geom_bond_atom_site_label_2
_geom_bond_distance
_geom_bond_site_symmetry_2
La0 O5 2.411441 1_555
La0 O1 2.435759 1_555
La0 O6 2.445415 1_556
La0 O0 2.466874 1_555
La0 O10 2.518505 1_555
La0 O4 2.535005 1_555
La0 O11 2.714392 1_555
La1 O5 2.367746 1_655
La1 O1 2.441671 1_645
La1 O11 2.508697 1_655
La1 O4 2.530580 1_555
La1 O10 2.566608 1_555
La1 O0 2.676878 1_545
La1 O7 2.808038 1_545
La2 O8 2.352685 1_555
La2 O6 2.434058 1_555
La2 O2 2.443174 1_555
La2 O9 2.477813 1_555
La2 O3 2.541227 1_555
La2 O10 2.662006 1_554
La2 O7 2.742442 1_555
La3 O9 2.345629 1_455
La3 O3 2.400871 1_465
La3 O8 2.436455 1_555
La3 O6 2.535454 1_555
La3 O7 2.638873 1_455
La3 O2 2.641924 1_565
La3 O11 2.920629 1_565
La3 O5 3.166502 1_564
Mg0 O4 1.930938 1_555
Mg0 O7 1.968101 1_555
Mg0 O1 1.973889 1_655
Mg0 O0 1.980113 1_555
Ga0 O5 1.923545 1_654
Ga0 O9 1.924801 1_555
Ga0 O3 1.947683 1_555
Ga0 O10 2.086772 1_554
Ga0 O6 2.088396 1_655
Ga1 O7 1.942509 1_545
Ga1 O2 1.954721 1_555
Ga1 O11 1.960989 1_555
Ga1 O4 1.987453 1_555
Ga1 O8 2.077243 1_545
Fe0 O8 2.007531 1_555
Fe0 O11 2.015381 1_555
Fe0 O3 2.021869 1_455
Fe0 O1 2.075247 1_555
Fe1 O0 2.040460 1_555
Fe1 O2 2.126227 1_566
Fe1 O9 2.202974 1_556
Fe1 O10 2.265628 1_565
Fe1 O5 2.481922 1_565
Fe1 O6 2.519396 1_556
