# generated using pymatgen
data_Y4MgPd
_symmetry_space_group_name_H-M   'P 1'
_cell_length_a   9.81845575
_cell_length_b   9.81845575
_cell_length_c   9.81845575
_cell_angle_alpha   59.99907794
_cell_angle_beta   59.99907794
_cell_angle_gamma   59.99907794
_symmetry_Int_Tables_number   1
_chemical_formula_structural   Y4MgPd
_chemical_formula_sum   'Y16 Mg4 Pd4'
_cell_volume   669.27635838
_cell_formula_units_Z   4
loop_
 _symmetry_equiv_pos_site_id
 _symmetry_equiv_pos_as_xyz
  1  'x, y, z'
loop_
 _atom_site_type_symbol
 _atom_site_label
 _atom_site_symmetry_multiplicity
 _atom_site_fract_x
 _atom_site_fract_y
 _atom_site_fract_z
 _atom_site_occupancy
  Y  Y0  1  0.34998573  0.34998573  0.34998573  1
  Y  Y1  1  0.35000995  0.35000995  0.95001561  1
  Y  Y2  1  0.35000995  0.95001561  0.35000995  1
  Y  Y3  1  0.95001561  0.35000995  0.35000995  1
  Y  Y4  1  0.81087094  0.18911105  0.18911105  1
  Y  Y5  1  0.18913557  0.81087765  0.81087765  1
  Y  Y6  1  0.18911105  0.81087094  0.18911105  1
  Y  Y7  1  0.81087765  0.18913557  0.81087765  1
  Y  Y8  1  0.18911105  0.18911105  0.81087094  1
  Y  Y9  1  0.81087765  0.81087765  0.18913557  1
  Y  Y10  1  0.93430951  0.56566375  0.56566375  1
  Y  Y11  1  0.56566617  0.93432858  0.93432858  1
  Y  Y12  1  0.56566375  0.93430951  0.56566375  1
  Y  Y13  1  0.93432858  0.56566617  0.93432858  1
  Y  Y14  1  0.56566375  0.56566375  0.93430951  1
  Y  Y15  1  0.93432858  0.93432858  0.56566617  1
  Mg  Mg0  1  0.57944413  0.57944413  0.57944413  1
  Mg  Mg1  1  0.57937715  0.57937715  0.26180829  1
  Mg  Mg2  1  0.57937715  0.26180829  0.57937715  1
  Mg  Mg3  1  0.26180829  0.57937715  0.57937715  1
  Pd  Pd0  1  0.14320068  0.14320068  0.14320068  1
  Pd  Pd1  1  0.14321102  0.14321102  0.57039804  1
  Pd  Pd2  1  0.14321102  0.57039804  0.14321102  1
  Pd  Pd3  1  0.57039804  0.14321102  0.14321102  1
loop_
_geom_bond_atom_site_label_1
_geom_bond_atom_site_label_2
_geom_bond_distance
_geom_bond_site_symmetry_2
Y0 Y10 3.581107 1_455
Y0 Y12 3.581107 1_545
Y0 Y14 3.581107 1_554
Y1 Y14 3.580619 1_555
Y1 Y13 3.581191 1_455
Y1 Y11 3.581191 1_545
Y10 Y3 3.580619 1_555
Y10 Y14 3.619482 1_555
Y10 Y12 3.619482 1_555
Y10 Y15 3.619825 1_555
Y10 Y13 3.619825 1_555
Y10 Y9 3.687024 1_555
Y10 Y7 3.687024 1_555
Y10 Y8 3.687328 1_655
Y10 Y6 3.687328 1_655
Y11 Y2 3.581191 1_556
Y11 Y13 3.619645 1_555
Y11 Y15 3.619645 1_555
Y11 Y12 3.619825 1_555
Y11 Y14 3.619825 1_555
Y11 Y8 3.687370 1_565
Y11 Y6 3.687370 1_556
Y11 Y9 3.687471 1_556
Y11 Y7 3.687471 1_565
Y12 Y2 3.580619 1_555
Y12 Y14 3.619482 1_555
Y12 Y15 3.619825 1_555
Y12 Y9 3.687024 1_555
Y12 Y5 3.687024 1_555
Y12 Y4 3.687328 1_565
Y12 Y8 3.687328 1_565
Y13 Y3 3.581191 1_556
Y13 Y15 3.619645 1_555
Y13 Y14 3.619825 1_555
Y13 Y8 3.687370 1_655
Y13 Y4 3.687370 1_556
Y13 Y9 3.687471 1_556
Y13 Y5 3.687471 1_655
Y14 Y7 3.687024 1_555
Y14 Y5 3.687024 1_555
Y14 Y4 3.687328 1_556
Y14 Y6 3.687328 1_556
Y15 Y3 3.581191 1_565
Y15 Y2 3.581191 1_655
Y15 Y6 3.687370 1_655
Y15 Y4 3.687370 1_565
Y15 Y5 3.687471 1_655
Y15 Y7 3.687471 1_565
Mg0 Mg2 3.119351 1_555
Mg0 Mg3 3.119351 1_555
Mg0 Mg1 3.119351 1_555
Mg0 Y10 3.354386 1_555
Mg0 Y12 3.354386 1_555
Mg0 Y14 3.354386 1_555
Mg0 Y1 3.474076 1_555
Mg0 Y3 3.474076 1_555
Mg0 Y2 3.474076 1_555
Mg0 Y7 3.572092 1_555
Mg0 Y5 3.572092 1_555
Mg0 Y9 3.572092 1_555
Mg1 Mg2 3.117992 1_555
Mg1 Mg3 3.117992 1_555
Mg1 Y14 3.355587 1_554
Mg1 Y11 3.355588 1_554
Mg1 Y13 3.355588 1_554
Mg1 Y0 3.473883 1_555
Mg1 Y2 3.474232 1_555
Mg1 Y3 3.474232 1_555
Mg1 Y4 3.572324 1_555
Mg1 Y6 3.572324 1_555
Mg1 Y9 3.572782 1_555
Mg2 Mg3 3.117992 1_555
Mg2 Y12 3.355587 1_545
Mg2 Y11 3.355588 1_545
Mg2 Y15 3.355588 1_545
Mg2 Y0 3.473883 1_555
Mg2 Y3 3.474232 1_555
Mg2 Y1 3.474232 1_555
Mg2 Y4 3.572324 1_555
Mg2 Y8 3.572324 1_555
Mg2 Y7 3.572782 1_555
Mg3 Y10 3.355587 1_455
Mg3 Y15 3.355588 1_455
Mg3 Y13 3.355588 1_455
Mg3 Y0 3.473883 1_555
Mg3 Y2 3.474232 1_555
Mg3 Y1 3.474232 1_555
Mg3 Y6 3.572324 1_555
Mg3 Y8 3.572324 1_555
Mg3 Y5 3.572782 1_555
Pd0 Y3 2.874725 1_455
Pd0 Y2 2.874725 1_545
Pd0 Y1 2.874725 1_554
Pd0 Y8 2.883532 1_554
Pd0 Y6 2.883532 1_545
Pd0 Y4 2.883532 1_455
Pd0 Y13 3.579006 1_454
Pd0 Y11 3.579006 1_544
Pd0 Y15 3.579006 1_445
Pd1 Y0 2.874246 1_555
Pd1 Y3 2.874466 1_455
Pd1 Y2 2.874466 1_545
Pd1 Y8 2.883080 1_555
Pd1 Y7 2.883433 1_455
Pd1 Y5 2.883433 1_545
Pd1 Y10 3.578878 1_455
Pd1 Y12 3.578878 1_545
Pd1 Y15 3.579310 1_445
Pd2 Y0 2.874246 1_555
Pd2 Y3 2.874466 1_455
Pd2 Y1 2.874466 1_554
Pd2 Y6 2.883080 1_555
Pd2 Y5 2.883433 1_554
Pd2 Y9 2.883433 1_455
Pd2 Y10 3.578878 1_455
Pd2 Y14 3.578878 1_554
Pd2 Y13 3.579310 1_454
Pd3 Y0 2.874246 1_555
Pd3 Y2 2.874466 1_545
Pd3 Y1 2.874466 1_554
Pd3 Y4 2.883080 1_555
Pd3 Y9 2.883433 1_545
Pd3 Y7 2.883433 1_554
Pd3 Y12 3.578878 1_545
Pd3 Y14 3.578878 1_554
Pd3 Y11 3.579310 1_544
