# generated using pymatgen
data_Li3(FeO3)2
_symmetry_space_group_name_H-M   'P 1'
_cell_length_a   5.07421683
_cell_length_b   5.07253627
_cell_length_c   9.66710440
_cell_angle_alpha   85.11448498
_cell_angle_beta   85.11572601
_cell_angle_gamma   120.37238522
_symmetry_Int_Tables_number   1
_chemical_formula_structural   Li3(FeO3)2
_chemical_formula_sum   'Li6 Fe4 O12'
_cell_volume   211.50181262
_cell_formula_units_Z   2
loop_
 _symmetry_equiv_pos_site_id
 _symmetry_equiv_pos_as_xyz
  1  'x, y, z'
loop_
 _atom_site_type_symbol
 _atom_site_label
 _atom_site_symmetry_multiplicity
 _atom_site_fract_x
 _atom_site_fract_y
 _atom_site_fract_z
 _atom_site_occupancy
  Li  Li0  1  0.98941600  0.51043700  0.00005100  1
  Li  Li1  1  0.48945900  0.01058800  0.49999300  1
  Li  Li2  1  0.65035400  0.84979500  0.00002500  1
  Li  Li3  1  0.15012200  0.34954500  0.50006600  1
  Li  Li4  1  0.35126200  0.14887800  0.00001700  1
  Li  Li5  1  0.85116000  0.64871400  0.49993900  1
  Fe  Fe0  1  0.08658100  0.91365800  0.75000200  1
  Fe  Fe1  1  0.92106000  0.07875800  0.25001000  1
  Fe  Fe2  1  0.58624100  0.41346300  0.25001000  1
  Fe  Fe3  1  0.42144100  0.57902000  0.74995500  1
  O  O0  1  0.65723900  0.16665800  0.13216800  1
  O  O1  1  0.15752300  0.66656000  0.63214400  1
  O  O2  1  0.83316000  0.34254700  0.36781700  1
  O  O3  1  0.33327500  0.84264600  0.86791800  1
  O  O4  1  0.28599800  0.40153200  0.13712100  1
  O  O5  1  0.78633500  0.90156500  0.63702300  1
  O  O6  1  0.59843800  0.71394900  0.36286100  1
  O  O7  1  0.09884200  0.21414000  0.86282400  1
  O  O8  1  0.22796900  0.10183600  0.36702400  1
  O  O9  1  0.72810600  0.60200500  0.86698000  1
  O  O10  1  0.89793300  0.77187900  0.13306400  1
  O  O11  1  0.39808900  0.27182900  0.63298900  1
loop_
_geom_bond_atom_site_label_1
_geom_bond_atom_site_label_2
_geom_bond_distance
_geom_bond_site_symmetry_2
Li0 O0 1.948059 1_555
Li0 O3 1.948392 1_654
Li0 O10 2.106889 1_555
Li0 O9 2.107180 1_554
Li0 O4 2.319776 1_655
Li0 O7 2.320596 1_654
Li1 O2 1.947828 1_555
Li1 O1 1.948297 1_545
Li1 O11 2.105696 1_555
Li1 O8 2.106478 1_555
Li1 O6 2.320283 1_545
Li1 O5 2.321072 1_545
Li2 O10 2.019685 1_555
Li2 O9 2.019934 1_554
Li2 O0 2.125330 1_565
Li2 O3 2.125961 1_554
Li2 O4 2.272274 1_555
Li2 O7 2.273566 1_664
Li3 O8 2.019816 1_555
Li3 O11 2.019994 1_555
Li3 O1 2.124704 1_555
Li3 O2 2.126643 1_455
Li3 O5 2.270179 1_445
Li3 O6 2.273188 1_555
Li4 O7 2.037732 1_554
Li4 O4 2.037796 1_555
Li4 O3 2.065532 1_544
Li4 O0 2.065554 1_555
Li4 O9 2.286209 1_554
Li4 O10 2.287251 1_445
Li5 O5 2.037482 1_555
Li5 O6 2.038081 1_555
Li5 O2 2.065408 1_555
Li5 O1 2.067350 1_655
Li5 O8 2.285668 1_665
Li5 O11 2.286401 1_555
Fe0 O11 1.876257 1_565
Fe0 O9 1.877226 1_455
Fe0 O3 1.903971 1_555
Fe0 O1 1.904838 1_555
Fe0 O7 1.927546 1_565
Fe0 O5 1.928203 1_455
Fe1 O6 1.892902 1_545
Fe1 O4 1.893755 1_655
Fe1 O10 1.962819 1_545
Fe1 O8 1.963854 1_655
Fe1 O2 2.015679 1_555
Fe1 O0 2.016285 1_555
Fe2 O8 1.876836 1_555
Fe2 O10 1.876859 1_555
Fe2 O0 1.903677 1_555
Fe2 O2 1.903987 1_555
Fe2 O6 1.927845 1_555
Fe2 O4 1.927900 1_555
Fe3 O7 1.893114 1_555
Fe3 O5 1.893447 1_555
Fe3 O9 1.963056 1_555
Fe3 O11 1.963896 1_555
Fe3 O1 2.015582 1_555
Fe3 O3 2.016594 1_555
