# generated using pymatgen
data_Ba2HgS5
_symmetry_space_group_name_H-M   'P 1'
_cell_length_a   8.47023050
_cell_length_b   8.75834125
_cell_length_c   12.27656828
_cell_angle_alpha   90.00000000
_cell_angle_beta   90.00000000
_cell_angle_gamma   90.00000000
_symmetry_Int_Tables_number   1
_chemical_formula_structural   Ba2HgS5
_chemical_formula_sum   'Ba8 Hg4 S20'
_cell_volume   910.73929486
_cell_formula_units_Z   4
loop_
 _symmetry_equiv_pos_site_id
 _symmetry_equiv_pos_as_xyz
  1  'x, y, z'
loop_
 _atom_site_type_symbol
 _atom_site_label
 _atom_site_symmetry_multiplicity
 _atom_site_fract_x
 _atom_site_fract_y
 _atom_site_fract_z
 _atom_site_occupancy
  Ba  Ba0  1  0.64336189  0.50629829  0.81099876  1
  Ba  Ba1  1  0.85663811  0.99370171  0.31099876  1
  Ba  Ba2  1  0.35663811  0.00629829  0.18900124  1
  Ba  Ba3  1  0.14336189  0.49370171  0.68900124  1
  Ba  Ba4  1  0.35663811  0.49370171  0.18900124  1
  Ba  Ba5  1  0.14336189  0.00629829  0.68900124  1
  Ba  Ba6  1  0.64336189  0.99370171  0.81099876  1
  Ba  Ba7  1  0.85663811  0.50629829  0.31099876  1
  Hg  Hg0  1  0.01163649  0.75000000  0.00870369  1
  Hg  Hg1  1  0.48836351  0.75000000  0.50870369  1
  Hg  Hg2  1  0.98836351  0.25000000  0.99129631  1
  Hg  Hg3  1  0.51163649  0.25000000  0.49129631  1
  S  S0  1  0.56953901  0.75000000  0.02747771  1
  S  S1  1  0.93046099  0.75000000  0.52747771  1
  S  S2  1  0.43046099  0.25000000  0.97252229  1
  S  S3  1  0.06953901  0.25000000  0.47252229  1
  S  S4  1  0.08964096  0.75000000  0.19345546  1
  S  S5  1  0.41035904  0.75000000  0.69345546  1
  S  S6  1  0.91035904  0.25000000  0.80654454  1
  S  S7  1  0.58964096  0.25000000  0.30654454  1
  S  S8  1  0.94289200  0.75000000  0.82326090  1
  S  S9  1  0.55710800  0.75000000  0.32326090  1
  S  S10  1  0.05710800  0.25000000  0.17673910  1
  S  S11  1  0.44289200  0.25000000  0.67673910  1
  S  S12  1  0.69377723  0.55377900  0.06735063  1
  S  S13  1  0.80622277  0.94622100  0.56735063  1
  S  S14  1  0.30622277  0.05377900  0.93264937  1
  S  S15  1  0.19377723  0.44622100  0.43264937  1
  S  S16  1  0.30622277  0.44622100  0.93264937  1
  S  S17  1  0.19377723  0.05377900  0.43264937  1
  S  S18  1  0.69377723  0.94622100  0.06735063  1
  S  S19  1  0.80622277  0.55377900  0.56735063  1
loop_
_geom_bond_atom_site_label_1
_geom_bond_atom_site_label_2
_geom_bond_distance
_geom_bond_site_symmetry_2
Ba0 S6 3.186909 1_555
Ba0 S12 3.203070 1_556
Ba0 S5 3.245480 1_555
Ba0 S11 3.261734 1_555
Ba0 S16 3.265268 1_555
Ba0 S8 3.318922 1_555
Ba0 S19 3.320079 1_555
Ba0 S0 3.465500 1_556
Ba0 S2 3.496136 1_555
Ba1 S7 3.186909 1_565
Ba1 S13 3.203070 1_555
Ba1 S4 3.245480 1_655
Ba1 S10 3.261734 1_665
Ba1 S17 3.265268 1_665
Ba1 S9 3.318922 1_555
Ba1 S18 3.320079 1_555
Ba1 S1 3.465500 1_555
Ba1 S3 3.496136 1_665
Ba2 S4 3.186909 1_545
Ba2 S14 3.203070 1_554
Ba2 S7 3.245480 1_555
Ba2 S9 3.261734 1_545
Ba2 S18 3.265268 1_545
Ba2 S10 3.318922 1_555
Ba2 S17 3.320079 1_555
Ba2 S2 3.465500 1_554
Ba2 S0 3.496136 1_545
Ba3 S5 3.186909 1_555
Ba3 S15 3.203070 1_555
Ba3 S6 3.245480 1_455
Ba3 S8 3.261734 1_455
Ba3 S19 3.265268 1_455
Ba3 S11 3.318922 1_555
Ba3 S16 3.320079 1_555
Ba3 S3 3.465500 1_555
Ba3 S1 3.496136 1_455
Ba4 S4 3.186909 1_555
Ba4 S16 3.203070 1_554
Ba4 S7 3.245480 1_555
Ba4 S9 3.261734 1_555
Ba4 S12 3.265268 1_555
Ba4 S10 3.318922 1_555
Ba4 S15 3.320079 1_555
Ba4 S2 3.465500 1_554
Ba4 S0 3.496136 1_555
Ba5 S5 3.186909 1_545
Ba5 S17 3.203070 1_555
Ba5 S6 3.245480 1_455
Ba5 S8 3.261734 1_445
Ba5 S13 3.265268 1_445
Ba5 S11 3.318922 1_555
Ba5 S14 3.320079 1_555
Ba5 S3 3.465500 1_555
Ba5 S1 3.496136 1_445
Ba6 S6 3.186909 1_565
Ba6 S18 3.203070 1_556
Ba6 S5 3.245480 1_555
Ba6 S11 3.261734 1_565
Ba6 S14 3.265268 1_565
Ba6 S8 3.318922 1_555
Ba6 S13 3.320079 1_555
Ba6 S0 3.465500 1_556
Ba6 S2 3.496136 1_565
Ba7 S7 3.186909 1_555
Ba7 S19 3.203070 1_555
Ba7 S4 3.245480 1_655
Ba7 S10 3.261734 1_655
Ba7 S15 3.265268 1_655
Ba7 S9 3.318922 1_555
Ba7 S12 3.320079 1_555
Ba7 S1 3.465500 1_555
Ba7 S3 3.496136 1_655
Hg0 S8 2.349886 1_454
Hg0 S4 2.362394 1_555
Hg1 S9 2.349886 1_555
Hg1 S5 2.362394 1_555
Hg2 S10 2.349886 1_656
Hg2 S6 2.362394 1_555
Hg3 S11 2.349886 1_555
Hg3 S7 2.362394 1_555
S0 S12 2.073762 1_555
S0 S18 2.073762 1_555
S1 S19 2.073762 1_555
S1 S13 2.073762 1_555
S14 S2 2.073762 1_555
S15 S3 2.073762 1_555
S16 S2 2.073762 1_555
S17 S3 2.073762 1_555
