# generated using pymatgen
data_Mg6MnSb
_symmetry_space_group_name_H-M   'P 1'
_cell_length_a   5.06416100
_cell_length_b   6.30932200
_cell_length_c   10.78542400
_cell_angle_alpha   90.00000000
_cell_angle_beta   90.00000000
_cell_angle_gamma   90.00000000
_symmetry_Int_Tables_number   1
_chemical_formula_structural   Mg6MnSb
_chemical_formula_sum   'Mg12 Mn2 Sb2'
_cell_volume   344.60963808
_cell_formula_units_Z   2
loop_
 _symmetry_equiv_pos_site_id
 _symmetry_equiv_pos_as_xyz
  1  'x, y, z'
loop_
 _atom_site_type_symbol
 _atom_site_label
 _atom_site_symmetry_multiplicity
 _atom_site_fract_x
 _atom_site_fract_y
 _atom_site_fract_z
 _atom_site_occupancy
  Mg  Mg0  1  0.00000000  0.24375300  0.08161200  1
  Mg  Mg1  1  0.00000000  0.75624700  0.08161200  1
  Mg  Mg2  1  0.00000000  0.50000000  0.83367400  1
  Mg  Mg3  1  0.50000000  0.24456900  0.91454700  1
  Mg  Mg4  1  0.50000000  0.75543100  0.91454700  1
  Mg  Mg5  1  0.50000000  0.50000000  0.66775600  1
  Mg  Mg6  1  0.00000000  0.74375300  0.58161200  1
  Mg  Mg7  1  0.00000000  0.25624700  0.58161200  1
  Mg  Mg8  1  0.00000000  0.00000000  0.33367400  1
  Mg  Mg9  1  0.50000000  0.74456900  0.41454700  1
  Mg  Mg10  1  0.50000000  0.25543100  0.41454700  1
  Mg  Mg11  1  0.50000000  0.00000000  0.16775600  1
  Mn  Mn0  1  0.00000000  0.50000000  0.33464800  1
  Mn  Mn1  1  0.00000000  0.00000000  0.83464800  1
  Sb  Sb0  1  0.50000000  0.50000000  0.17160400  1
  Sb  Sb1  1  0.50000000  0.00000000  0.67160400  1
loop_
_geom_bond_atom_site_label_1
_geom_bond_atom_site_label_2
_geom_bond_distance
_geom_bond_site_symmetry_2
Mg0 Mn1 3.075713 1_554
Mg0 Mg1 3.075832 1_545
Mg0 Mg11 3.104810 1_455
Mg0 Mg11 3.104810 1_555
Mg0 Mg3 3.107762 1_554
Mg0 Mg3 3.107762 1_454
Mg0 Mg8 3.123451 1_555
Mg0 Mg2 3.124862 1_554
Mg0 Sb0 3.157113 1_455
Mg0 Sb0 3.157113 1_555
Mg0 Mn0 3.172043 1_555
Mg0 Mg1 3.233490 1_555
Mg1 Mn1 3.075713 1_564
Mg1 Mg11 3.104810 1_565
Mg1 Mg11 3.104810 1_465
Mg1 Mg4 3.107762 1_454
Mg1 Mg4 3.107762 1_554
Mg1 Mg8 3.123451 1_565
Mg1 Mg2 3.124862 1_554
Mg1 Sb0 3.157113 1_455
Mg1 Sb0 3.157113 1_555
Mg1 Mn0 3.172043 1_555
Mg2 Mg5 3.100601 1_455
Mg2 Mg5 3.100601 1_555
Mg2 Mg6 3.123451 1_555
Mg2 Mg7 3.123451 1_555
Mg2 Mg4 3.125619 1_455
Mg2 Mg4 3.125619 1_555
Mg2 Mg3 3.125619 1_455
Mg2 Mg3 3.125619 1_555
Mg2 Mn1 3.154678 1_565
Mg2 Mn1 3.154678 1_555
Mg3 Sb1 3.040842 1_555
Mg3 Mg4 3.086129 1_545
Mg3 Mn1 3.087893 1_555
Mg3 Mn1 3.087893 1_655
Mg3 Mg5 3.111613 1_555
Mg3 Sb0 3.206840 1_556
Mg3 Mg4 3.223193 1_555
Mg4 Sb1 3.040842 1_565
Mg4 Mn1 3.087893 1_565
Mg4 Mn1 3.087893 1_665
Mg4 Mg5 3.111613 1_555
Mg4 Sb0 3.206840 1_556
Mg5 Mg7 3.104810 1_555
Mg5 Mg6 3.104810 1_655
Mg5 Mg7 3.104810 1_655
Mg5 Mg6 3.104810 1_555
Mg5 Mg9 3.136754 1_555
Mg5 Sb1 3.154934 1_555
Mg5 Sb1 3.154934 1_565
Mg6 Mn0 3.075713 1_555
Mg6 Mg7 3.075832 1_555
Mg6 Mg9 3.107762 1_455
Mg6 Mg9 3.107762 1_555
Mg6 Mg8 3.124862 1_565
Mg6 Sb1 3.157113 1_565
Mg6 Sb1 3.157113 1_465
Mg6 Mn1 3.172043 1_565
Mg6 Mg7 3.233490 1_565
Mg7 Mn0 3.075713 1_555
Mg7 Mg8 3.124862 1_555
Mg7 Sb1 3.157113 1_455
Mg7 Sb1 3.157113 1_555
Mg7 Mn1 3.172043 1_555
Mg8 Mg9 3.125619 1_545
Mg8 Mg9 3.125619 1_445
Mg8 Mn0 3.154678 1_555
Mg8 Mn0 3.154678 1_545
Mg9 Sb0 3.040842 1_555
Mg9 Mn0 3.087893 1_555
Mg9 Mn0 3.087893 1_655
Mg9 Sb1 3.206840 1_565
Mg10 Sb0 3.040842 1_555
Mg10 Mg9 3.086129 1_555
Mg10 Mn0 3.087893 1_655
Mg10 Mn0 3.087893 1_555
Mg10 Mg7 3.107762 1_655
Mg10 Mg7 3.107762 1_555
Mg10 Mg11 3.111613 1_555
Mg10 Mg8 3.125619 1_555
Mg10 Mg8 3.125619 1_655
Mg10 Mg5 3.136754 1_555
Mg10 Sb1 3.206840 1_555
Mg10 Mg9 3.223193 1_545
Mg11 Mg8 3.100601 1_555
Mg11 Mg8 3.100601 1_655
Mg11 Mg9 3.111613 1_545
Mg11 Mg3 3.136754 1_554
Mg11 Mg4 3.136754 1_544
Mg11 Sb0 3.154934 1_545
Mg11 Sb0 3.154934 1_555
Mn0 Sb0 3.082815 1_455
Mn0 Sb0 3.082815 1_555
Mn1 Sb1 3.082815 1_455
Mn1 Sb1 3.082815 1_555
