# generated using pymatgen
data_Fe
_symmetry_space_group_name_H-M   'P 1'
_cell_length_a   4.86831542
_cell_length_b   4.86831492
_cell_length_c   7.68386894
_cell_angle_alpha   90.00000000
_cell_angle_beta   90.00000000
_cell_angle_gamma   120.00001684
_symmetry_Int_Tables_number   1
_chemical_formula_structural   Fe
_chemical_formula_sum   Fe16
_cell_volume   157.71314033
_cell_formula_units_Z   16
loop_
 _symmetry_equiv_pos_site_id
 _symmetry_equiv_pos_as_xyz
  1  'x, y, z'
loop_
 _atom_site_type_symbol
 _atom_site_label
 _atom_site_symmetry_multiplicity
 _atom_site_fract_x
 _atom_site_fract_y
 _atom_site_fract_z
 _atom_site_occupancy
  Fe  Fe0_0  1  0.16666650  0.33333350  0.12500000  1
  Fe  Fe0_1  1  0.16666650  0.33333350  0.62500000  1
  Fe  Fe0_2  1  0.16666650  0.83333350  0.12500000  1
  Fe  Fe0_3  1  0.16666650  0.83333350  0.62500000  1
  Fe  Fe0_4  1  0.66666650  0.33333350  0.12500000  1
  Fe  Fe0_5  1  0.66666650  0.33333350  0.62500000  1
  Fe  Fe0_6  1  0.66666650  0.83333350  0.12500000  1
  Fe  Fe0_7  1  0.66666650  0.83333350  0.62500000  1
  Fe  Fe1_0  1  0.33333350  0.16666650  0.37500000  1
  Fe  Fe1_1  1  0.33333350  0.16666650  0.87500000  1
  Fe  Fe1_2  1  0.33333350  0.66666650  0.37500000  1
  Fe  Fe1_3  1  0.33333350  0.66666650  0.87500000  1
  Fe  Fe1_4  1  0.83333350  0.16666650  0.37500000  1
  Fe  Fe1_5  1  0.83333350  0.16666650  0.87500000  1
  Fe  Fe1_6  1  0.83333350  0.66666650  0.37500000  1
  Fe  Fe1_7  1  0.83333350  0.66666650  0.87500000  1
loop_
_geom_bond_atom_site_label_1
_geom_bond_atom_site_label_2
_geom_bond_distance
_geom_bond_site_symmetry_2
Fe0_0 Fe1_3 2.380158 1_554
Fe0_0 Fe1_2 2.380158 1_555
Fe0_0 Fe1_5 2.380158 1_454
Fe0_0 Fe1_4 2.380158 1_455
Fe0_0 Fe1_1 2.380161 1_554
Fe0_0 Fe1_0 2.380161 1_555
Fe0_0 Fe0_6 2.434157 1_555
Fe0_0 Fe0_6 2.434157 1_445
Fe0_0 Fe0_2 2.434157 1_555
Fe0_0 Fe0_2 2.434157 1_545
Fe0_0 Fe0_4 2.434158 1_555
Fe0_0 Fe0_4 2.434158 1_455
Fe0_1 Fe1_2 2.380158 1_555
Fe0_1 Fe1_3 2.380158 1_555
Fe0_1 Fe1_4 2.380158 1_455
Fe0_1 Fe1_5 2.380158 1_455
Fe0_1 Fe1_0 2.380161 1_555
Fe0_1 Fe1_1 2.380161 1_555
Fe0_1 Fe0_7 2.434157 1_445
Fe0_1 Fe0_7 2.434157 1_555
Fe0_1 Fe0_3 2.434157 1_555
Fe0_1 Fe0_3 2.434157 1_545
Fe0_1 Fe0_5 2.434158 1_555
Fe0_1 Fe0_5 2.434158 1_455
Fe0_2 Fe1_1 2.380158 1_564
Fe0_2 Fe1_0 2.380158 1_565
Fe0_2 Fe1_7 2.380158 1_454
Fe0_2 Fe1_6 2.380158 1_455
Fe0_2 Fe1_3 2.380161 1_554
Fe0_2 Fe1_2 2.380161 1_555
Fe0_2 Fe0_4 2.434157 1_455
Fe0_2 Fe0_4 2.434157 1_565
Fe0_2 Fe0_6 2.434158 1_455
Fe0_2 Fe0_6 2.434158 1_555
Fe0_3 Fe1_0 2.380158 1_565
Fe0_3 Fe1_1 2.380158 1_565
Fe0_3 Fe1_6 2.380158 1_455
Fe0_3 Fe1_7 2.380158 1_455
Fe0_3 Fe1_2 2.380161 1_555
Fe0_3 Fe1_3 2.380161 1_555
Fe0_3 Fe0_5 2.434157 1_455
Fe0_3 Fe0_5 2.434157 1_565
Fe0_3 Fe0_7 2.434158 1_455
Fe0_3 Fe0_7 2.434158 1_555
Fe0_4 Fe1_7 2.380158 1_554
Fe0_4 Fe1_6 2.380158 1_555
Fe0_4 Fe1_1 2.380158 1_554
Fe0_4 Fe1_0 2.380158 1_555
Fe0_4 Fe1_5 2.380161 1_554
Fe0_4 Fe1_4 2.380161 1_555
Fe0_4 Fe0_6 2.434157 1_555
Fe0_4 Fe0_6 2.434157 1_545
Fe0_5 Fe1_6 2.380158 1_555
Fe0_5 Fe1_7 2.380158 1_555
Fe0_5 Fe1_0 2.380158 1_555
Fe0_5 Fe1_1 2.380158 1_555
Fe0_5 Fe1_4 2.380161 1_555
Fe0_5 Fe1_5 2.380161 1_555
Fe0_5 Fe0_7 2.434157 1_555
Fe0_5 Fe0_7 2.434157 1_545
Fe0_6 Fe1_5 2.380158 1_564
Fe0_6 Fe1_4 2.380158 1_565
Fe0_6 Fe1_3 2.380158 1_554
Fe0_6 Fe1_2 2.380158 1_555
Fe0_6 Fe1_7 2.380161 1_554
Fe0_6 Fe1_6 2.380161 1_555
Fe0_7 Fe1_4 2.380158 1_565
Fe0_7 Fe1_5 2.380158 1_565
Fe0_7 Fe1_2 2.380158 1_555
Fe0_7 Fe1_3 2.380158 1_555
Fe0_7 Fe1_6 2.380161 1_555
Fe0_7 Fe1_7 2.380161 1_555
Fe1_0 Fe1_6 2.434157 1_555
Fe1_0 Fe1_6 2.434157 1_445
Fe1_0 Fe1_2 2.434157 1_555
Fe1_0 Fe1_2 2.434157 1_545
Fe1_0 Fe1_4 2.434158 1_455
Fe1_0 Fe1_4 2.434158 1_555
Fe1_1 Fe1_7 2.434157 1_555
Fe1_1 Fe1_7 2.434157 1_445
Fe1_1 Fe1_3 2.434157 1_555
Fe1_1 Fe1_3 2.434157 1_545
Fe1_1 Fe1_5 2.434158 1_455
Fe1_1 Fe1_5 2.434158 1_555
Fe1_2 Fe1_4 2.434157 1_455
Fe1_2 Fe1_4 2.434157 1_565
Fe1_2 Fe1_6 2.434158 1_555
Fe1_2 Fe1_6 2.434158 1_455
Fe1_3 Fe1_5 2.434157 1_455
Fe1_3 Fe1_5 2.434157 1_565
Fe1_3 Fe1_7 2.434158 1_555
Fe1_3 Fe1_7 2.434158 1_455
Fe1_4 Fe1_6 2.434157 1_555
Fe1_4 Fe1_6 2.434157 1_545
Fe1_5 Fe1_7 2.434157 1_555
Fe1_5 Fe1_7 2.434157 1_545
