# generated using pymatgen
data_RbNb3(TeO6)2
_symmetry_space_group_name_H-M   'P 1'
_cell_length_a   4.11685800
_cell_length_b   15.23982000
_cell_length_c   17.82833100
_cell_angle_alpha   90.00000000
_cell_angle_beta   90.00000000
_cell_angle_gamma   90.00000000
_symmetry_Int_Tables_number   1
_chemical_formula_structural   RbNb3(TeO6)2
_chemical_formula_sum   'Rb4 Nb12 Te8 O48'
_cell_volume   1118.55260486
_cell_formula_units_Z   4
loop_
 _symmetry_equiv_pos_site_id
 _symmetry_equiv_pos_as_xyz
  1  'x, y, z'
loop_
 _atom_site_type_symbol
 _atom_site_label
 _atom_site_symmetry_multiplicity
 _atom_site_fract_x
 _atom_site_fract_y
 _atom_site_fract_z
 _atom_site_occupancy
  Rb  Rb0  1  0.21938600  0.07402600  0.75000000  1
  Rb  Rb1  1  0.78061400  0.92597400  0.25000000  1
  Rb  Rb2  1  0.21938600  0.42597400  0.25000000  1
  Rb  Rb3  1  0.78061400  0.57402600  0.75000000  1
  Nb  Nb0  1  0.24017600  0.79314100  0.75000000  1
  Nb  Nb1  1  0.75982400  0.20685900  0.25000000  1
  Nb  Nb2  1  0.24017600  0.70685900  0.25000000  1
  Nb  Nb3  1  0.75982400  0.29314100  0.75000000  1
  Nb  Nb4  1  0.76555400  0.15078200  0.56941800  1
  Nb  Nb5  1  0.23444600  0.84921800  0.06941800  1
  Nb  Nb6  1  0.76555400  0.34921800  0.43058200  1
  Nb  Nb7  1  0.23444600  0.65078200  0.93058200  1
  Nb  Nb8  1  0.23444600  0.84921800  0.43058200  1
  Nb  Nb9  1  0.76555400  0.15078200  0.93058200  1
  Nb  Nb10  1  0.23444600  0.65078200  0.56941800  1
  Nb  Nb11  1  0.76555400  0.34921800  0.06941800  1
  Te  Te0  1  0.61357400  0.91373000  0.59676900  1
  Te  Te1  1  0.38642600  0.08627000  0.09676900  1
  Te  Te2  1  0.61357400  0.58627000  0.40323100  1
  Te  Te3  1  0.38642600  0.41373000  0.90323100  1
  Te  Te4  1  0.38642600  0.08627000  0.40323100  1
  Te  Te5  1  0.61357400  0.91373000  0.90323100  1
  Te  Te6  1  0.38642600  0.41373000  0.59676900  1
  Te  Te7  1  0.61357400  0.58627000  0.09676900  1
  O  O0  1  0.28476900  0.93201200  0.52321900  1
  O  O1  1  0.71523100  0.06798800  0.02321900  1
  O  O2  1  0.28476900  0.56798800  0.47678100  1
  O  O3  1  0.71523100  0.43201200  0.97678100  1
  O  O4  1  0.71523100  0.06798800  0.47678100  1
  O  O5  1  0.28476900  0.93201200  0.97678100  1
  O  O6  1  0.71523100  0.43201200  0.52321900  1
  O  O7  1  0.28476900  0.56798800  0.02321900  1
  O  O8  1  0.69851100  0.03094600  0.62734100  1
  O  O9  1  0.30148900  0.96905400  0.12734100  1
  O  O10  1  0.69851100  0.46905400  0.37265900  1
  O  O11  1  0.30148900  0.53094600  0.87265900  1
  O  O12  1  0.30148900  0.96905400  0.37265900  1
  O  O13  1  0.69851100  0.03094600  0.87265900  1
  O  O14  1  0.30148900  0.53094600  0.62734100  1
  O  O15  1  0.69851100  0.46905400  0.12734100  1
  O  O16  1  0.29651700  0.89501400  0.67340900  1
  O  O17  1  0.70348300  0.10498600  0.17340900  1
  O  O18  1  0.29651700  0.60498600  0.32659100  1
  O  O19  1  0.70348300  0.39501400  0.82659100  1
  O  O20  1  0.70348300  0.10498600  0.32659100  1
  O  O21  1  0.29651700  0.89501400  0.82659100  1
  O  O22  1  0.70348300  0.39501400  0.67340900  1
  O  O23  1  0.29651700  0.60498600  0.17340900  1
  O  O24  1  0.29304600  0.70775100  0.66779400  1
  O  O25  1  0.70695400  0.29224900  0.16779400  1
  O  O26  1  0.29304600  0.79224900  0.33220600  1
  O  O27  1  0.70695400  0.20775100  0.83220600  1
  O  O28  1  0.70695400  0.29224900  0.33220600  1
  O  O29  1  0.29304600  0.70775100  0.83220600  1
  O  O30  1  0.70695400  0.20775100  0.66779400  1
  O  O31  1  0.29304600  0.79224900  0.16779400  1
  O  O32  1  0.79569700  0.79928800  0.75000000  1
  O  O33  1  0.20430300  0.20071200  0.25000000  1
  O  O34  1  0.79569700  0.70071200  0.25000000  1
  O  O35  1  0.20430300  0.29928800  0.75000000  1
  O  O36  1  0.70351500  0.25000000  0.50000000  1
  O  O37  1  0.29648500  0.75000000  0.00000000  1
  O  O38  1  0.29648500  0.75000000  0.50000000  1
  O  O39  1  0.70351500  0.25000000  0.00000000  1
  O  O40  1  0.20791400  0.14685200  0.56793700  1
  O  O41  1  0.79208600  0.85314800  0.06793700  1
  O  O42  1  0.20791400  0.35314800  0.43206300  1
  O  O43  1  0.79208600  0.64685200  0.93206300  1
  O  O44  1  0.79208600  0.85314800  0.43206300  1
  O  O45  1  0.20791400  0.14685200  0.93206300  1
  O  O46  1  0.79208600  0.64685200  0.56793700  1
  O  O47  1  0.20791400  0.35314800  0.06793700  1
loop_
_geom_bond_atom_site_label_1
_geom_bond_atom_site_label_2
_geom_bond_distance
_geom_bond_site_symmetry_2
Nb0 O32 1.832253 1_455
Nb0 O29 1.972004 1_555
Nb0 O24 1.972004 1_555
Nb0 O21 2.080553 1_555
Nb0 O16 2.080553 1_555
Nb0 O32 2.288919 1_555
Nb1 O33 1.832253 1_655
Nb1 O25 1.972004 1_555
Nb1 O28 1.972004 1_555
Nb1 O20 2.080553 1_555
Nb1 O17 2.080553 1_555
Nb1 O33 2.288919 1_555
Nb2 O34 1.832253 1_455
Nb2 O31 1.972004 1_555
Nb2 O26 1.972004 1_555
Nb2 O18 2.080553 1_555
Nb2 O23 2.080553 1_555
Nb2 O34 2.288919 1_555
Nb3 O35 1.832253 1_655
Nb3 O27 1.972004 1_555
Nb3 O30 1.972004 1_555
Nb3 O19 2.080553 1_555
Nb3 O22 2.080553 1_555
Nb3 O35 2.288919 1_555
Nb4 O40 1.822309 1_655
Nb4 O36 1.970594 1_555
Nb4 O30 1.971817 1_555
Nb4 O4 2.088692 1_555
Nb4 O8 2.116101 1_555
Nb4 O40 2.296658 1_555
Nb5 O41 1.822309 1_455
Nb5 O37 1.970594 1_555
Nb5 O31 1.971817 1_555
Nb5 O5 2.088692 1_554
Nb5 O9 2.116101 1_555
Nb5 O41 2.296658 1_555
Nb6 O42 1.822309 1_655
Nb6 O36 1.970594 1_555
Nb6 O28 1.971817 1_555
Nb6 O6 2.088692 1_555
Nb6 O10 2.116101 1_555
Nb6 O42 2.296658 1_555
Nb7 O43 1.822309 1_455
Nb7 O37 1.970594 1_556
Nb7 O29 1.971817 1_555
Nb7 O7 2.088692 1_556
Nb7 O11 2.116101 1_555
Nb7 O43 2.296658 1_555
Nb8 O44 1.822309 1_455
Nb8 O38 1.970594 1_555
Nb8 O26 1.971817 1_555
Nb8 O0 2.088692 1_555
Nb8 O12 2.116101 1_555
Nb8 O44 2.296658 1_555
Nb9 O45 1.822309 1_655
Nb9 O39 1.970594 1_556
Nb9 O27 1.971817 1_555
Nb9 O1 2.088692 1_556
Nb9 O13 2.116101 1_555
Nb9 O45 2.296658 1_555
Nb10 O46 1.822309 1_455
Nb10 O38 1.970594 1_555
Nb10 O24 1.971817 1_555
Nb10 O2 2.088692 1_555
Nb10 O14 2.116101 1_555
Nb10 O46 2.296658 1_555
Nb11 O47 1.822309 1_655
Nb11 O39 1.970594 1_555
Nb11 O25 1.971817 1_555
Nb11 O3 2.088692 1_554
Nb11 O15 2.116101 1_555
Nb11 O47 2.296658 1_555
O0 Te0 1.905102 1_555
O1 Te1 1.905102 1_555
O2 Te2 1.905102 1_555
O3 Te3 1.905102 1_555
O4 Te4 1.905102 1_555
O5 Te5 1.905102 1_555
O6 Te6 1.905102 1_555
O7 Te7 1.905102 1_555
O8 Te0 1.900105 1_545
O8 Rb0 3.017261 1_555
O8 Rb0 3.132326 1_655
O9 Te1 1.900105 1_565
O9 Rb1 3.017261 1_555
O9 Rb1 3.132326 1_455
O10 Te2 1.900105 1_555
O10 Rb2 3.017261 1_555
O10 Rb2 3.132326 1_655
O11 Te3 1.900105 1_555
O11 Rb3 3.017261 1_555
O11 Rb3 3.132326 1_455
O12 Te4 1.900105 1_565
O12 Rb1 3.017261 1_555
O12 Rb1 3.132326 1_455
O13 Te5 1.900105 1_545
O13 Rb0 3.017261 1_555
O13 Rb0 3.132326 1_655
O14 Te6 1.900105 1_555
O14 Rb3 3.017261 1_555
O14 Rb3 3.132326 1_455
O15 Te7 1.900105 1_555
O15 Rb2 3.017261 1_555
O15 Rb2 3.132326 1_655
O16 Te0 1.911035 1_555
O16 Rb0 3.067243 1_565
O17 Te1 1.911035 1_555
O17 Rb1 3.067243 1_545
O18 Te2 1.911035 1_555
O18 Rb2 3.067243 1_555
O19 Te3 1.911035 1_555
O19 Rb3 3.067243 1_555
O20 Te4 1.911035 1_555
O20 Rb1 3.067243 1_545
O21 Te5 1.911035 1_555
O21 Rb0 3.067243 1_565
O22 Te6 1.911035 1_555
O22 Rb3 3.067243 1_555
O23 Te7 1.911035 1_555
O23 Rb2 3.067243 1_555
O24 Rb3 3.214068 1_555
O24 Rb3 3.278970 1_455
O25 Rb2 3.214068 1_555
O25 Rb2 3.278970 1_655
O26 Rb1 3.214068 1_555
O26 Rb1 3.278970 1_455
O27 Rb0 3.214068 1_555
O27 Rb0 3.278970 1_655
O28 Rb2 3.214068 1_555
O28 Rb2 3.278970 1_655
O29 Rb3 3.214068 1_555
O29 Rb3 3.278970 1_455
O30 Rb0 3.214068 1_555
O30 Rb0 3.278970 1_655
O31 Rb1 3.214068 1_555
O31 Rb1 3.278970 1_455
O32 Rb3 3.433514 1_555
O33 Rb2 3.433514 1_555
O34 Rb1 3.433514 1_555
O35 Rb0 3.433514 1_555
O40 Rb0 3.430706 1_555
O41 Rb1 3.430706 1_555
O42 Rb2 3.430706 1_555
O43 Rb3 3.430706 1_555
O44 Rb1 3.430706 1_555
O45 Rb0 3.430706 1_555
O46 Rb3 3.430706 1_555
O47 Rb2 3.430706 1_555
