# generated using pymatgen
data_Ca4Mn3SbO12
_symmetry_space_group_name_H-M   'P 1'
_cell_length_a   5.35377645
_cell_length_b   9.55367109
_cell_length_c   9.58668297
_cell_angle_alpha   69.38510176
_cell_angle_beta   89.79602677
_cell_angle_gamma   89.68031814
_symmetry_Int_Tables_number   1
_chemical_formula_structural   Ca4Mn3SbO12
_chemical_formula_sum   'Ca8 Mn6 Sb2 O24'
_cell_volume   458.93639625
_cell_formula_units_Z   2
loop_
 _symmetry_equiv_pos_site_id
 _symmetry_equiv_pos_as_xyz
  1  'x, y, z'
loop_
 _atom_site_type_symbol
 _atom_site_label
 _atom_site_symmetry_multiplicity
 _atom_site_fract_x
 _atom_site_fract_y
 _atom_site_fract_z
 _atom_site_occupancy
  Ca  Ca0  1  0.99042800  0.84209200  0.88500400  1
  Ca  Ca1  1  0.99208400  0.35078000  0.38913400  1
  Ca  Ca2  1  0.00956200  0.15785100  0.11496800  1
  Ca  Ca3  1  0.00786300  0.64927900  0.61087400  1
  Ca  Ca4  1  0.51298500  0.59855800  0.13908300  1
  Ca  Ca5  1  0.51237700  0.08811000  0.64596900  1
  Ca  Ca6  1  0.48713700  0.40145600  0.86077000  1
  Ca  Ca7  1  0.48760700  0.91190800  0.35416400  1
  Mn  Mn0  1  0.49993500  0.50013000  0.50000000  1
  Mn  Mn1  1  0.00013300  0.49994300  0.99999900  1
  Mn  Mn2  1  0.99988500  0.00004100  0.50004600  1
  Mn  Mn3  1  0.50536600  0.25345300  0.25107200  1
  Mn  Mn4  1  0.49438500  0.74646300  0.74885700  1
  Mn  Mn5  1  0.50017700  0.00005300  0.99996300  1
  Sb  Sb0  1  0.99715700  0.24480400  0.74854400  1
  Sb  Sb1  1  0.00278400  0.75517100  0.25147800  1
  O  O0  1  0.70815500  0.62347900  0.91004200  1
  O  O1  1  0.71048800  0.12552100  0.41718700  1
  O  O2  1  0.29197300  0.37650300  0.08985900  1
  O  O3  1  0.28934600  0.87452900  0.58286000  1
  O  O4  1  0.30935300  0.16761200  0.86626100  1
  O  O5  1  0.30024800  0.67523600  0.38536600  1
  O  O6  1  0.69083500  0.83225600  0.13374800  1
  O  O7  1  0.69982500  0.32476600  0.61468700  1
  O  O8  1  0.08475000  0.64671900  0.11859500  1
  O  O9  1  0.08418600  0.13081400  0.61199000  1
  O  O10  1  0.91529900  0.35328000  0.88141200  1
  O  O11  1  0.91578200  0.86926200  0.38792300  1
  O  O12  1  0.78849000  0.37660000  0.16773600  1
  O  O13  1  0.79205400  0.87259300  0.66002100  1
  O  O14  1  0.21166500  0.62336400  0.83228600  1
  O  O15  1  0.20786600  0.12751300  0.33992300  1
  O  O16  1  0.20161800  0.41992900  0.62043700  1
  O  O17  1  0.20292300  0.93192700  0.12910900  1
  O  O18  1  0.79832400  0.58002600  0.37958500  1
  O  O19  1  0.79694400  0.06796800  0.87101600  1
  O  O20  1  0.41873100  0.39649800  0.36364600  1
  O  O21  1  0.42311000  0.87168100  0.85982100  1
  O  O22  1  0.58123400  0.60355500  0.63628600  1
  O  O23  1  0.57693500  0.12828100  0.14028100  1
loop_
_geom_bond_atom_site_label_1
_geom_bond_atom_site_label_2
_geom_bond_distance
_geom_bond_site_symmetry_2
Ca0 O13 2.331333 1_555
Ca0 O21 2.336569 1_655
Ca0 O19 2.349470 1_565
Ca0 O8 2.409958 1_656
Ca0 O0 2.526483 1_555
Ca0 O14 2.595534 1_655
Ca0 O6 2.843346 1_556
Ca0 O17 2.991877 1_656
Ca1 O12 2.323494 1_555
Ca1 O20 2.323775 1_655
Ca1 O18 2.390676 1_555
Ca1 O9 2.461342 1_655
Ca1 O1 2.569491 1_555
Ca1 O15 2.604643 1_655
Ca1 O7 2.605267 1_555
Ca1 O16 2.769361 1_655
Ca2 O15 2.331241 1_555
Ca2 O23 2.336332 1_455
Ca2 O17 2.349206 1_545
Ca2 O10 2.409911 1_454
Ca2 O2 2.527090 1_555
Ca2 O12 2.595539 1_455
Ca2 O4 2.843834 1_554
Ca2 O19 2.991092 1_454
Ca3 O22 2.323663 1_455
Ca3 O14 2.323940 1_555
Ca3 O16 2.391521 1_555
Ca3 O11 2.461926 1_455
Ca3 O3 2.569136 1_555
Ca3 O13 2.604814 1_455
Ca3 O5 2.605433 1_555
Ca3 O18 2.769773 1_455
Ca4 O8 2.331188 1_555
Ca4 O0 2.363916 1_554
Ca4 O20 2.385891 1_555
Ca4 O6 2.415997 1_555
Ca4 O12 2.511066 1_555
Ca4 O2 2.619199 1_555
Ca4 O18 2.723144 1_555
Ca4 O5 2.932201 1_555
Ca5 O9 2.330050 1_555
Ca5 O1 2.344945 1_555
Ca5 O21 2.392872 1_545
Ca5 O7 2.398875 1_555
Ca5 O13 2.504246 1_545
Ca5 O19 2.596248 1_555
Ca5 O3 2.618589 1_545
Ca5 O4 2.705975 1_555
Ca6 O10 2.330854 1_555
Ca6 O2 2.364244 1_556
Ca6 O22 2.385429 1_555
Ca6 O4 2.416681 1_555
Ca6 O14 2.510881 1_555
Ca6 O0 2.619160 1_555
Ca6 O16 2.722483 1_555
Ca6 O7 2.930452 1_555
Ca7 O11 2.329727 1_555
Ca7 O3 2.344634 1_555
Ca7 O23 2.392800 1_565
Ca7 O5 2.398971 1_555
Ca7 O15 2.504700 1_565
Ca7 O17 2.596940 1_555
Ca7 O1 2.618065 1_565
Ca7 O6 2.708245 1_555
Mn0 O22 1.946972 1_555
Mn0 O20 1.948884 1_555
Mn0 O5 1.960377 1_555
Mn0 O18 1.961443 1_555
Mn0 O16 1.961769 1_555
Mn0 O7 1.962709 1_555
Mn1 O2 1.961568 1_556
Mn1 O0 1.962775 1_455
Mn1 O14 1.981136 1_555
Mn1 O12 1.981381 1_456
Mn1 O10 2.143472 1_455
Mn1 O8 2.144194 1_556
Mn2 O13 1.939242 1_545
Mn2 O15 1.940590 1_655
Mn2 O1 1.945794 1_555
Mn2 O3 1.946126 1_645
Mn2 O9 1.967277 1_655
Mn2 O11 1.968397 1_545
Mn3 O23 1.895087 1_555
Mn3 O12 1.915578 1_555
Mn3 O2 1.947812 1_555
Mn3 O1 1.965386 1_555
Mn3 O15 2.000025 1_555
Mn3 O20 2.067692 1_555
Mn4 O21 1.896439 1_555
Mn4 O14 1.913823 1_555
Mn4 O0 1.948637 1_555
Mn4 O3 1.964894 1_555
Mn4 O13 2.001546 1_555
Mn4 O22 2.066818 1_555
Mn5 O4 1.948186 1_555
Mn5 O6 1.949353 1_546
Mn5 O19 1.976411 1_555
Mn5 O17 1.979700 1_546
Mn5 O23 2.156178 1_556
Mn5 O21 2.156198 1_545
O4 Sb0 2.006168 1_455
O5 Sb1 2.019322 1_555
O6 Sb1 2.004952 1_655
O7 Sb0 2.018653 1_555
O8 Sb1 1.951751 1_555
O9 Sb0 2.027485 1_455
O10 Sb0 1.951678 1_555
O11 Sb1 2.027318 1_655
O16 Sb0 2.017351 1_455
O17 Sb1 1.998046 1_555
O18 Sb1 2.017466 1_655
O19 Sb0 1.999034 1_555
