# generated using pymatgen
data_NaAl3Cr2O14
_symmetry_space_group_name_H-M   'P 1'
_cell_length_a   7.10883823
_cell_length_b   7.10883823
_cell_length_c   7.10883879
_cell_angle_alpha   59.65152617
_cell_angle_beta   59.65152617
_cell_angle_gamma   59.65152722
_symmetry_Int_Tables_number   1
_chemical_formula_structural   NaAl3Cr2O14
_chemical_formula_sum   'Na1 Al3 Cr2 O14'
_cell_volume   252.01625051
_cell_formula_units_Z   1
loop_
 _symmetry_equiv_pos_site_id
 _symmetry_equiv_pos_as_xyz
  1  'x, y, z'
loop_
 _atom_site_type_symbol
 _atom_site_label
 _atom_site_symmetry_multiplicity
 _atom_site_fract_x
 _atom_site_fract_y
 _atom_site_fract_z
 _atom_site_occupancy
  Na  Na0  1  0.00000000  0.00000000  0.00000000  1
  Al  Al0  1  0.00000000  0.50000000  0.00000000  1
  Al  Al1  1  0.00000000  0.00000000  0.50000000  1
  Al  Al2  1  0.50000000  0.00000000  0.00000000  1
  Cr  Cr0  1  0.68765700  0.68765700  0.68765700  1
  Cr  Cr1  1  0.31234300  0.31234300  0.31234300  1
  O  O0  1  0.59606400  0.59606400  0.59606400  1
  O  O1  1  0.40393600  0.40393600  0.40393600  1
  O  O2  1  0.85216200  0.46610600  0.85216200  1
  O  O3  1  0.85216200  0.85216200  0.46610600  1
  O  O4  1  0.46610600  0.85216200  0.85216200  1
  O  O5  1  0.14783800  0.53389400  0.14783800  1
  O  O6  1  0.14783800  0.14783800  0.53389400  1
  O  O7  1  0.53389400  0.14783800  0.14783800  1
  O  O8  1  0.74245500  0.08450400  0.74245500  1
  O  O9  1  0.74245500  0.74245500  0.08450400  1
  O  O10  1  0.08450400  0.74245500  0.74245500  1
  O  O11  1  0.25754500  0.91549600  0.25754500  1
  O  O12  1  0.25754500  0.25754500  0.91549600  1
  O  O13  1  0.91549600  0.25754500  0.25754500  1
loop_
_geom_bond_atom_site_label_1
_geom_bond_atom_site_label_2
_geom_bond_distance
_geom_bond_site_symmetry_2
Na0 O2 2.695621 1_454
Na0 O4 2.695621 1_544
Na0 O5 2.695621 1_545
Na0 O7 2.695621 1_455
Na0 O3 2.695621 1_445
Na0 O6 2.695621 1_554
Na0 O12 2.868677 1_554
Na0 O9 2.868677 1_445
Na0 O13 2.868677 1_455
Na0 O11 2.868677 1_545
Na0 O8 2.868677 1_454
Na0 O10 2.868677 1_544
Al0 O9 1.851938 1_455
Al0 O12 1.851938 1_554
Al0 O10 1.851938 1_554
Al0 O13 1.851938 1_455
Al0 O5 1.973569 1_555
Al0 O2 1.973569 1_454
Al1 O10 1.851938 1_545
Al1 O8 1.851938 1_455
Al1 O13 1.851938 1_455
Al1 O11 1.851938 1_545
Al1 O6 1.973569 1_555
Al1 O3 1.973569 1_445
Al2 O9 1.851938 1_545
Al2 O12 1.851938 1_554
Al2 O8 1.851938 1_554
Al2 O11 1.851938 1_545
Al2 O7 1.973569 1_555
Al2 O4 1.973569 1_544
Cr0 O0 1.599099 1_555
Cr0 O3 1.695664 1_555
Cr0 O2 1.695664 1_555
Cr0 O4 1.695664 1_555
Cr1 O1 1.599099 1_555
Cr1 O6 1.695664 1_555
Cr1 O5 1.695664 1_555
Cr1 O7 1.695664 1_555
