# generated using pymatgen
data_Mn(CoN)3
_symmetry_space_group_name_H-M   'P 1'
_cell_length_a   6.81372525
_cell_length_b   5.99573912
_cell_length_c   3.79368200
_cell_angle_alpha   90.00000000
_cell_angle_beta   90.00000000
_cell_angle_gamma   120.12296772
_symmetry_Int_Tables_number   1
_chemical_formula_structural   Mn(CoN)3
_chemical_formula_sum   'Mn2 Co6 N6'
_cell_volume   134.05389283
_cell_formula_units_Z   2
loop_
 _symmetry_equiv_pos_site_id
 _symmetry_equiv_pos_as_xyz
  1  'x, y, z'
loop_
 _atom_site_type_symbol
 _atom_site_label
 _atom_site_symmetry_multiplicity
 _atom_site_fract_x
 _atom_site_fract_y
 _atom_site_fract_z
 _atom_site_occupancy
  Mn  Mn0  1  0.66392100  0.28006200  0.75000000  1
  Mn  Mn1  1  0.33607900  0.71993800  0.25000000  1
  Co  Co0  1  0.87652100  0.70175500  0.25000000  1
  Co  Co1  1  0.82909700  0.11557500  0.25000000  1
  Co  Co2  1  0.37853400  0.29521100  0.25000000  1
  Co  Co3  1  0.12347900  0.29824500  0.75000000  1
  Co  Co4  1  0.17090300  0.88442500  0.75000000  1
  Co  Co5  1  0.62146600  0.70478900  0.75000000  1
  N  N0  1  0.86973800  0.61105400  0.75000000  1
  N  N1  1  0.78649700  0.07163800  0.75000000  1
  N  N2  1  0.39287100  0.26591800  0.75000000  1
  N  N3  1  0.13026200  0.38894600  0.25000000  1
  N  N4  1  0.21350300  0.92836200  0.25000000  1
  N  N5  1  0.60712900  0.73408200  0.25000000  1
loop_
_geom_bond_atom_site_label_1
_geom_bond_atom_site_label_2
_geom_bond_distance
_geom_bond_site_symmetry_2
Mn0 N0 1.763988 1_555
Mn0 N2 1.805791 1_555
Mn0 N1 1.818457 1_555
Mn1 N3 1.763988 1_555
Mn1 N5 1.805791 1_555
Mn1 N4 1.818457 1_555
Co0 N5 1.940092 1_555
Co0 N0 1.967398 1_554
Co0 N0 1.967398 1_555
Co0 N4 1.996707 1_655
Co1 N3 1.876570 1_655
Co1 N1 1.917005 1_555
Co1 N1 1.917005 1_554
Co1 N5 2.011729 1_545
Co2 N4 1.902597 1_545
Co2 N2 1.911967 1_554
Co2 N2 1.911967 1_555
Co2 N3 2.032688 1_555
Co2 N5 2.288300 1_555
Co3 N2 1.940092 1_555
Co3 N3 1.967398 1_555
Co3 N3 1.967398 1_556
Co3 N1 1.996707 1_455
Co4 N0 1.876570 1_455
Co4 N4 1.917005 1_555
Co4 N4 1.917005 1_556
Co4 N2 2.011729 1_565
Co5 N1 1.902597 1_565
Co5 N5 1.911967 1_556
Co5 N5 1.911967 1_555
Co5 N0 2.032688 1_555
Co5 N2 2.288300 1_555
