# generated using pymatgen
data_Dy9Al5S21
_symmetry_space_group_name_H-M   'P 1'
_cell_length_a   11.37586684
_cell_length_b   11.37585959
_cell_length_c   11.37586480
_cell_angle_alpha   94.03088049
_cell_angle_beta   94.03078731
_cell_angle_gamma   94.03092658
_symmetry_Int_Tables_number   1
_chemical_formula_structural   Dy9Al5S21
_chemical_formula_sum   'Dy18 Al10 S42'
_cell_volume   1460.68630597
_cell_formula_units_Z   2
loop_
 _symmetry_equiv_pos_site_id
 _symmetry_equiv_pos_as_xyz
  1  'x, y, z'
loop_
 _atom_site_type_symbol
 _atom_site_label
 _atom_site_symmetry_multiplicity
 _atom_site_fract_x
 _atom_site_fract_y
 _atom_site_fract_z
 _atom_site_occupancy
  Dy  Dy0  1  0.11383513  0.88204949  0.73648019  1
  Dy  Dy1  1  0.45256701  0.22452942  0.06752469  1
  Dy  Dy2  1  0.76530128  0.55161565  0.39570494  1
  Dy  Dy3  1  0.39570503  0.76530083  0.55161416  1
  Dy  Dy4  1  0.73648086  0.11383748  0.88204912  1
  Dy  Dy5  1  0.06752496  0.45256743  0.22452987  1
  Dy  Dy6  1  0.22453090  0.06752550  0.45256719  1
  Dy  Dy7  1  0.55161378  0.39570486  0.76530078  1
  Dy  Dy8  1  0.88204813  0.73648033  0.11383717  1
  Dy  Dy9  1  0.20814572  0.43155405  0.58554559  1
  Dy  Dy10  1  0.54511143  0.77248144  0.92975002  1
  Dy  Dy11  1  0.87446778  0.09730308  0.24490879  1
  Dy  Dy12  1  0.92974900  0.54511242  0.77248091  1
  Dy  Dy13  1  0.24490709  0.87446546  0.09730443  1
  Dy  Dy14  1  0.58554627  0.20814770  0.43155353  1
  Dy  Dy15  1  0.09730290  0.24490818  0.87446256  1
  Dy  Dy16  1  0.43155427  0.58554654  0.20814798  1
  Dy  Dy17  1  0.77248187  0.92974864  0.54511154  1
  Al  Al0  1  0.71942143  0.38696524  0.04666432  1
  Al  Al1  1  0.04666994  0.71942167  0.38697051  1
  Al  Al2  1  0.38696496  0.04666691  0.71942103  1
  Al  Al3  1  0.88254440  0.22292941  0.54743133  1
  Al  Al4  1  0.22293206  0.54743409  0.88254291  1
  Al  Al5  1  0.54743404  0.88254304  0.22293327  1
  Al  Al6  1  0.86011141  0.86011272  0.86011297  1
  Al  Al7  1  0.17635548  0.17635571  0.17635506  1
  Al  Al8  1  0.67755830  0.67756029  0.67756003  1
  Al  Al9  1  0.35851242  0.35851192  0.35851154  1
  S  S0  1  0.83857216  0.50829998  0.17110100  1
  S  S1  1  0.17110406  0.83857475  0.50830237  1
  S  S2  1  0.50830002  0.17110094  0.83857255  1
  S  S3  1  0.67213024  0.00717977  0.33838061  1
  S  S4  1  0.00717604  0.33838067  0.67212573  1
  S  S5  1  0.33838054  0.67212863  0.00718007  1
  S  S6  1  0.55513971  0.41430391  0.31134565  1
  S  S7  1  0.89360761  0.76357024  0.66609968  1
  S  S8  1  0.23786530  0.10266417  0.99864534  1
  S  S9  1  0.99864547  0.23786557  0.10266436  1
  S  S10  1  0.31134571  0.55513902  0.41430302  1
  S  S11  1  0.66609915  0.89360796  0.76357090  1
  S  S12  1  0.76356974  0.66610027  0.89360878  1
  S  S13  1  0.10266384  0.99864549  0.23786663  1
  S  S14  1  0.41430568  0.31134718  0.55513372  1
  S  S15  1  0.15386083  0.28401618  0.38107180  1
  S  S16  1  0.49002324  0.62191148  0.72905294  1
  S  S17  1  0.79895352  0.94306369  0.04291979  1
  S  S18  1  0.72905345  0.49002541  0.62191146  1
  S  S19  1  0.04291782  0.79895378  0.94306266  1
  S  S20  1  0.38107239  0.15386060  0.28401701  1
  S  S21  1  0.94306308  0.04291868  0.79895538  1
  S  S22  1  0.28401736  0.38107142  0.15386086  1
  S  S23  1  0.62191119  0.72905304  0.49002402  1
  S  S24  1  0.53904358  0.44695702  0.00633032  1
  S  S25  1  0.86761254  0.78299221  0.35196151  1
  S  S26  1  0.20383040  0.10611218  0.68952827  1
  S  S27  1  0.68952832  0.20382961  0.10611133  1
  S  S28  1  0.00633183  0.53904366  0.44695663  1
  S  S29  1  0.35195939  0.86761222  0.78299280  1
  S  S30  1  0.78299477  0.35196061  0.86761100  1
  S  S31  1  0.10611167  0.68952820  0.20383258  1
  S  S32  1  0.44695657  0.00633073  0.53904351  1
  S  S33  1  0.96219804  0.06113370  0.47663657  1
  S  S34  1  0.29693321  0.38266846  0.81254433  1
  S  S35  1  0.62744676  0.71711718  0.15788018  1
  S  S36  1  0.81254361  0.29692973  0.38266163  1
  S  S37  1  0.15787850  0.62744697  0.71711693  1
  S  S38  1  0.47662851  0.96219487  0.06113363  1
  S  S39  1  0.71711546  0.15787774  0.62744498  1
  S  S40  1  0.06113334  0.47662805  0.96219427  1
  S  S41  1  0.38266754  0.81254451  0.29693379  1
loop_
_geom_bond_atom_site_label_1
_geom_bond_atom_site_label_2
_geom_bond_distance
_geom_bond_site_symmetry_2
Dy0 S1 2.740318 1_555
Dy0 S29 2.741930 1_555
Dy0 S19 2.745686 1_555
Dy0 S26 2.780597 1_565
Dy0 S7 2.797428 1_455
Dy0 S21 2.852924 1_465
Dy0 S37 2.969525 1_555
Dy1 S27 2.729841 1_555
Dy1 S8 2.757438 1_554
Dy1 S2 2.760204 1_554
Dy1 S20 2.800197 1_555
Dy1 S24 2.801566 1_555
Dy1 S22 2.882912 1_555
Dy1 S38 3.012188 1_545
Dy2 S18 2.764925 1_555
Dy2 S0 2.765150 1_555
Dy2 S28 2.778611 1_655
Dy2 S6 2.831673 1_555
Dy2 S23 2.879382 1_555
Dy2 S25 2.892248 1_555
Dy2 S36 2.979043 1_555
Dy3 S23 2.764921 1_555
Dy3 S1 2.765129 1_555
Dy3 S32 2.778598 1_565
Dy3 S10 2.831671 1_555
Dy3 S16 2.879386 1_555
Dy3 S29 2.892278 1_555
Dy3 S41 2.978987 1_555
Dy4 S2 2.740336 1_555
Dy4 S30 2.741918 1_555
Dy4 S21 2.745681 1_555
Dy4 S27 2.780584 1_556
Dy4 S11 2.797444 1_545
Dy4 S17 2.852944 1_546
Dy4 S39 2.969536 1_555
Dy5 S31 2.729827 1_555
Dy5 S9 2.757440 1_455
Dy5 S0 2.760213 1_455
Dy5 S22 2.800205 1_555
Dy5 S28 2.801552 1_555
Dy5 S15 2.882925 1_555
Dy5 S40 3.012200 1_554
Dy6 S26 2.729838 1_555
Dy6 S13 2.757439 1_545
Dy6 S1 2.760192 1_545
Dy6 S15 2.800189 1_555
Dy6 S32 2.801551 1_555
Dy6 S20 2.882906 1_555
Dy6 S33 3.012185 1_455
Dy7 S16 2.764927 1_555
Dy7 S2 2.765150 1_555
Dy7 S24 2.778596 1_556
Dy7 S14 2.831699 1_555
Dy7 S18 2.879399 1_555
Dy7 S30 2.892296 1_555
Dy7 S34 2.978988 1_555
Dy8 S0 2.740328 1_555
Dy8 S25 2.741925 1_555
Dy8 S17 2.745692 1_555
Dy8 S31 2.780611 1_655
Dy8 S12 2.797433 1_554
Dy8 S19 2.852942 1_654
Dy8 S35 2.969511 1_555
Dy9 S37 2.713626 1_555
Dy9 S4 2.728168 1_555
Dy9 S10 2.761176 1_555
Dy9 S15 2.777112 1_555
Dy9 S34 2.812815 1_555
Dy9 S14 2.826349 1_555
Dy9 S28 3.067306 1_555
Dy10 S38 2.728548 1_556
Dy10 S16 2.763573 1_555
Dy10 S5 2.768566 1_556
Dy10 S11 2.798584 1_555
Dy10 S35 2.824872 1_556
Dy10 S12 2.882023 1_555
Dy10 S29 2.976398 1_555
Dy11 S9 2.745607 1_555
Dy11 S3 2.765041 1_555
Dy11 S33 2.820412 1_555
Dy11 S36 2.826446 1_555
Dy11 S17 2.835534 1_545
Dy11 S13 2.903627 1_645
Dy11 S27 2.923730 1_555
Dy12 S40 2.728561 1_655
Dy12 S18 2.763557 1_555
Dy12 S4 2.768571 1_655
Dy12 S12 2.798595 1_555
Dy12 S37 2.824859 1_655
Dy12 S7 2.882018 1_555
Dy12 S30 2.976369 1_555
Dy13 S13 2.745611 1_555
Dy13 S5 2.765048 1_555
Dy13 S38 2.820343 1_555
Dy13 S41 2.826505 1_555
Dy13 S19 2.835546 1_554
Dy13 S8 2.903660 1_564
Dy13 S31 2.923704 1_555
Dy14 S39 2.713613 1_555
Dy14 S3 2.728170 1_555
Dy14 S14 2.761129 1_555
Dy14 S20 2.777110 1_555
Dy14 S36 2.812799 1_555
Dy14 S6 2.826308 1_555
Dy14 S32 3.067333 1_555
Dy15 S8 2.745637 1_555
Dy15 S4 2.765055 1_555
Dy15 S40 2.820332 1_555
Dy15 S34 2.826498 1_555
Dy15 S21 2.835523 1_455
Dy15 S9 2.903684 1_456
Dy15 S26 2.923681 1_555
Dy16 S35 2.713620 1_555
Dy16 S5 2.728166 1_555
Dy16 S6 2.761172 1_555
Dy16 S22 2.777120 1_555
Dy16 S41 2.812803 1_555
Dy16 S10 2.826300 1_555
Dy16 S24 3.067336 1_555
Dy17 S33 2.728545 1_565
Dy17 S23 2.763562 1_555
Dy17 S3 2.768570 1_565
Dy17 S7 2.798579 1_555
Dy17 S39 2.824860 1_565
Dy17 S11 2.882039 1_555
Dy17 S25 2.976372 1_555
Al0 S0 2.222341 1_555
Al0 S30 2.228014 1_554
Al0 S24 2.235024 1_555
Al0 S27 2.245888 1_555
Al1 S1 2.222322 1_555
Al1 S25 2.228053 1_455
Al1 S28 2.235006 1_555
Al1 S31 2.245891 1_555
Al2 S2 2.222331 1_555
Al2 S29 2.228022 1_545
Al2 S32 2.235022 1_555
Al2 S26 2.245871 1_555
Al3 S4 2.222783 1_655
Al3 S36 2.227642 1_555
Al3 S33 2.232938 1_555
Al3 S39 2.248866 1_555
Al4 S5 2.222802 1_556
Al4 S34 2.227597 1_555
Al4 S40 2.232996 1_555
Al4 S37 2.248842 1_555
Al5 S3 2.222803 1_565
Al5 S41 2.227601 1_555
Al5 S38 2.233008 1_555
Al5 S35 2.248837 1_555
Al6 S21 2.391430 1_565
Al6 S19 2.391436 1_655
Al6 S17 2.391438 1_556
Al6 S12 2.461450 1_555
Al6 S11 2.461452 1_555
Al6 S7 2.461464 1_555
Al7 S8 2.307016 1_554
Al7 S9 2.307019 1_455
Al7 S13 2.307029 1_545
Al7 S22 2.591471 1_555
Al7 S15 2.591477 1_555
Al7 S20 2.591490 1_555
Al8 S16 2.309355 1_555
Al8 S18 2.309362 1_555
Al8 S23 2.309362 1_555
Al8 S11 2.596088 1_555
Al8 S7 2.596104 1_555
Al8 S12 2.596106 1_555
Al9 S14 2.389721 1_555
Al9 S10 2.389774 1_555
Al9 S6 2.389774 1_555
Al9 S22 2.457882 1_555
Al9 S20 2.457886 1_555
Al9 S15 2.457893 1_555
