# generated using pymatgen
data_Sr3Ca5Mn8O22
_symmetry_space_group_name_H-M   'P 1'
_cell_length_a   7.72101768
_cell_length_b   7.71462069
_cell_length_c   7.72549800
_cell_angle_alpha   90.00000000
_cell_angle_beta   90.00000000
_cell_angle_gamma   89.95172282
_symmetry_Int_Tables_number   1
_chemical_formula_structural   Sr3Ca5Mn8O22
_chemical_formula_sum   'Sr3 Ca5 Mn8 O22'
_cell_volume   460.16698305
_cell_formula_units_Z   1
loop_
 _symmetry_equiv_pos_site_id
 _symmetry_equiv_pos_as_xyz
  1  'x, y, z'
loop_
 _atom_site_type_symbol
 _atom_site_label
 _atom_site_symmetry_multiplicity
 _atom_site_fract_x
 _atom_site_fract_y
 _atom_site_fract_z
 _atom_site_occupancy
  Sr  Sr0  1  0.25000000  0.25000000  0.25000000  1
  Sr  Sr1  1  0.25000000  0.25000000  0.75000000  1
  Sr  Sr2  1  0.75000000  0.25000000  0.25000000  1
  Ca  Ca0  1  0.25000000  0.75000000  0.25000000  1
  Ca  Ca1  1  0.25000000  0.75000000  0.75000000  1
  Ca  Ca2  1  0.75000000  0.25000000  0.75000000  1
  Ca  Ca3  1  0.75000000  0.75000000  0.25000000  1
  Ca  Ca4  1  0.75000000  0.75000000  0.75000000  1
  Mn  Mn0  1  0.99920600  0.99775900  0.99070900  1
  Mn  Mn1  1  0.99920600  0.99775900  0.50929100  1
  Mn  Mn2  1  0.99919100  0.50308900  0.00602300  1
  Mn  Mn3  1  0.99919100  0.50308900  0.49397700  1
  Mn  Mn4  1  0.50080900  0.99691100  0.00602300  1
  Mn  Mn5  1  0.50080900  0.99691100  0.49397700  1
  Mn  Mn6  1  0.50079400  0.50224100  0.99070900  1
  Mn  Mn7  1  0.50079400  0.50224100  0.50929100  1
  O  O0  1  0.99639200  0.99328000  0.75000000  1
  O  O1  1  0.99944300  0.50344600  0.25000000  1
  O  O2  1  0.99647800  0.50728000  0.75000000  1
  O  O3  1  0.50055700  0.99655400  0.25000000  1
  O  O4  1  0.50352200  0.99272000  0.75000000  1
  O  O5  1  0.50360800  0.50672000  0.75000000  1
  O  O6  1  0.24489900  0.99321100  0.01864300  1
  O  O7  1  0.24489900  0.99321100  0.48135700  1
  O  O8  1  0.25510100  0.50678900  0.01864300  1
  O  O9  1  0.25510100  0.50678900  0.48135700  1
  O  O10  1  0.75467700  0.99423900  0.01798200  1
  O  O11  1  0.75467700  0.99423900  0.48201800  1
  O  O12  1  0.74532300  0.50576100  0.01798200  1
  O  O13  1  0.74532300  0.50576100  0.48201800  1
  O  O14  1  0.99810300  0.24557900  0.01288900  1
  O  O15  1  0.99810300  0.24557900  0.48711100  1
  O  O16  1  0.99936900  0.75542300  0.02413300  1
  O  O17  1  0.99936900  0.75542300  0.47586700  1
  O  O18  1  0.50189700  0.25442100  0.01288900  1
  O  O19  1  0.50189700  0.25442100  0.48711100  1
  O  O20  1  0.50063100  0.74457700  0.02413300  1
  O  O21  1  0.50063100  0.74457700  0.47586700  1
loop_
_geom_bond_atom_site_label_1
_geom_bond_atom_site_label_2
_geom_bond_distance
_geom_bond_site_symmetry_2
Ca0 O7 2.591615 1_555
Ca0 O6 2.591615 1_555
Ca0 O9 2.591615 1_555
Ca0 O8 2.591615 1_555
Ca0 O21 2.605979 1_555
Ca0 O20 2.605979 1_555
Ca0 O17 2.605979 1_455
Ca0 O16 2.605979 1_455
Ca0 O3 2.714144 1_555
Ca0 O1 2.714144 1_455
Ca1 O2 2.709983 1_455
Ca1 O4 2.709983 1_555
Ca1 O5 2.711169 1_555
Ca1 O0 2.711169 1_455
Ca1 O7 2.798061 1_555
Ca1 O6 2.798061 1_556
Ca1 O8 2.798061 1_556
Ca1 O9 2.798061 1_555
Ca1 O20 2.869053 1_556
Ca1 O21 2.869053 1_555
Ca1 O16 2.869053 1_456
Ca1 O17 2.869053 1_455
Ca2 O0 2.745020 1_545
Ca2 O5 2.745020 1_555
Ca2 O4 2.750910 1_545
Ca2 O2 2.750910 1_555
Ca2 O14 2.792017 1_556
Ca2 O18 2.792017 1_556
Ca2 O15 2.792017 1_555
Ca2 O19 2.792017 1_555
Ca2 O10 2.860144 1_546
Ca2 O12 2.860144 1_556
Ca2 O13 2.860144 1_555
Ca2 O11 2.860144 1_545
Ca3 O17 2.598804 1_555
Ca3 O16 2.598804 1_555
Ca3 O21 2.598804 1_555
Ca3 O20 2.598804 1_555
Ca3 O11 2.600878 1_555
Ca3 O13 2.600878 1_555
Ca3 O10 2.600878 1_555
Ca3 O12 2.600878 1_555
Ca3 O3 2.705734 1_555
Ca3 O1 2.705734 1_555
Ca4 O2 2.668682 1_555
Ca4 O4 2.668682 1_555
Ca4 O0 2.673492 1_555
Ca4 O5 2.673492 1_555
Ca4 O10 2.799605 1_556
Ca4 O12 2.799605 1_556
Ca4 O11 2.799605 1_555
Ca4 O13 2.799605 1_555
Ca4 O16 2.862537 1_556
Ca4 O17 2.862537 1_555
Ca4 O20 2.862537 1_556
Ca4 O21 2.862537 1_555
Mn0 O0 1.860045 1_555
Mn0 O16 1.887278 1_556
Mn0 O10 1.899950 1_556
Mn0 O6 1.909529 1_656
Mn0 O14 1.919513 1_566
Mn1 O0 1.860045 1_555
Mn1 O17 1.887278 1_555
Mn1 O11 1.899950 1_555
Mn1 O7 1.909529 1_655
Mn1 O15 1.919513 1_565
Mn2 O1 1.884847 1_555
Mn2 O16 1.951684 1_555
Mn2 O12 1.962386 1_555
Mn2 O2 1.978280 1_554
Mn2 O8 1.978519 1_655
Mn2 O14 1.987325 1_555
Mn3 O1 1.884847 1_555
Mn3 O17 1.951684 1_555
Mn3 O13 1.962386 1_555
Mn3 O2 1.978280 1_555
Mn3 O9 1.978519 1_655
Mn3 O15 1.987325 1_555
Mn4 O3 1.884847 1_555
Mn4 O20 1.951684 1_555
Mn4 O10 1.962386 1_555
Mn4 O4 1.978280 1_554
Mn4 O6 1.978519 1_555
Mn4 O18 1.987325 1_565
Mn5 O3 1.884847 1_555
Mn5 O21 1.951684 1_555
Mn5 O11 1.962386 1_555
Mn5 O4 1.978280 1_555
Mn5 O7 1.978519 1_555
Mn5 O19 1.987325 1_565
Mn6 O5 1.860045 1_555
Mn6 O20 1.887278 1_556
Mn6 O12 1.899950 1_556
Mn6 O8 1.909529 1_556
Mn6 O18 1.919513 1_556
Mn7 O5 1.860045 1_555
Mn7 O21 1.887278 1_555
Mn7 O13 1.899950 1_555
Mn7 O9 1.909529 1_555
Mn7 O19 1.919513 1_555
O0 Sr1 2.786235 1_665
O1 Sr2 2.745652 1_555
O1 Sr0 2.749380 1_655
O2 Sr1 2.786495 1_655
O3 Sr2 2.745652 1_565
O3 Sr0 2.749380 1_565
O4 Sr1 2.786495 1_565
O5 Sr1 2.786235 1_555
O6 Sr0 2.668478 1_565
O6 Sr1 2.869399 1_564
O7 Sr0 2.668478 1_565
O7 Sr1 2.869399 1_565
O8 Sr0 2.668478 1_555
O8 Sr1 2.869399 1_554
O9 Sr0 2.668478 1_555
O9 Sr1 2.869399 1_555
O10 Sr2 2.665933 1_565
O11 Sr2 2.665933 1_565
O12 Sr2 2.665933 1_555
O13 Sr2 2.665933 1_555
O14 Sr2 2.650679 1_555
O14 Sr0 2.671967 1_655
O14 Sr1 2.812235 1_654
O15 Sr2 2.650679 1_555
O15 Sr0 2.671967 1_655
O15 Sr1 2.812235 1_655
O18 Sr2 2.650679 1_555
O18 Sr0 2.671967 1_555
O18 Sr1 2.812235 1_554
O19 Sr2 2.650679 1_555
O19 Sr0 2.671967 1_555
O19 Sr1 2.812235 1_555
