# generated using pymatgen
data_Zr6FeSn2
_symmetry_space_group_name_H-M   'P 1'
_cell_length_a   7.05061790
_cell_length_b   15.95619183
_cell_length_c   15.95711775
_cell_angle_alpha   120.00077343
_cell_angle_beta   90.00000000
_cell_angle_gamma   90.00000000
_symmetry_Int_Tables_number   1
_chemical_formula_structural   Zr6FeSn2
_chemical_formula_sum   'Zr48 Fe8 Sn16'
_cell_volume   1554.66966554
_cell_formula_units_Z   8
loop_
 _symmetry_equiv_pos_site_id
 _symmetry_equiv_pos_as_xyz
  1  'x, y, z'
loop_
 _atom_site_type_symbol
 _atom_site_label
 _atom_site_symmetry_multiplicity
 _atom_site_fract_x
 _atom_site_fract_y
 _atom_site_fract_z
 _atom_site_occupancy
  Zr  Zr0_0  1  0.25000000  0.37827002  0.37828347  1
  Zr  Zr0_1  1  0.25000000  0.37827002  0.87828347  1
  Zr  Zr0_2  1  0.25000000  0.87827002  0.37828347  1
  Zr  Zr0_3  1  0.25000000  0.87827002  0.87828347  1
  Zr  Zr0_4  1  0.75000000  0.37827002  0.37828347  1
  Zr  Zr0_5  1  0.75000000  0.37827002  0.87828347  1
  Zr  Zr0_6  1  0.75000000  0.87827002  0.37828347  1
  Zr  Zr0_7  1  0.75000000  0.87827002  0.87828347  1
  Zr  Zr1_0  1  0.25000000  0.00000146  0.12170677  1
  Zr  Zr1_1  1  0.25000000  0.00000146  0.62170677  1
  Zr  Zr1_2  1  0.25000000  0.50000146  0.12170677  1
  Zr  Zr1_3  1  0.25000000  0.50000146  0.62170677  1
  Zr  Zr1_4  1  0.75000000  0.00000146  0.12170677  1
  Zr  Zr1_5  1  0.75000000  0.00000146  0.62170677  1
  Zr  Zr1_6  1  0.75000000  0.50000146  0.12170677  1
  Zr  Zr1_7  1  0.75000000  0.50000146  0.62170677  1
  Zr  Zr2_0  1  0.25000000  0.12173004  0.00001568  1
  Zr  Zr2_1  1  0.25000000  0.12173004  0.50001568  1
  Zr  Zr2_2  1  0.25000000  0.62173004  0.00001568  1
  Zr  Zr2_3  1  0.25000000  0.62173004  0.50001568  1
  Zr  Zr2_4  1  0.75000000  0.12173004  0.00001568  1
  Zr  Zr2_5  1  0.75000000  0.12173004  0.50001568  1
  Zr  Zr2_6  1  0.75000000  0.62173004  0.00001568  1
  Zr  Zr2_7  1  0.75000000  0.62173004  0.50001568  1
  Zr  Zr3_0  1  0.00000000  0.19676802  0.19676253  1
  Zr  Zr3_1  1  0.00000000  0.19676802  0.69676253  1
  Zr  Zr3_2  1  0.00000000  0.69676802  0.19676253  1
  Zr  Zr3_3  1  0.00000000  0.69676802  0.69676253  1
  Zr  Zr3_4  1  0.50000000  0.19676802  0.19676253  1
  Zr  Zr3_5  1  0.50000000  0.19676802  0.69676253  1
  Zr  Zr3_6  1  0.50000000  0.69676802  0.19676253  1
  Zr  Zr3_7  1  0.50000000  0.69676802  0.69676253  1
  Zr  Zr4_0  1  0.00000000  0.49999973  0.30321569  1
  Zr  Zr4_1  1  0.00000000  0.49999973  0.80321569  1
  Zr  Zr4_2  1  0.00000000  0.99999973  0.30321569  1
  Zr  Zr4_3  1  0.00000000  0.99999973  0.80321569  1
  Zr  Zr4_4  1  0.50000000  0.49999973  0.30321569  1
  Zr  Zr4_5  1  0.50000000  0.49999973  0.80321569  1
  Zr  Zr4_6  1  0.50000000  0.99999973  0.30321569  1
  Zr  Zr4_7  1  0.50000000  0.99999973  0.80321569  1
  Zr  Zr5_0  1  0.00000000  0.30324424  0.99999211  1
  Zr  Zr5_1  1  0.00000000  0.30324425  0.49999211  1
  Zr  Zr5_2  1  0.00000000  0.80324425  0.99999211  1
  Zr  Zr5_3  1  0.00000000  0.80324424  0.49999211  1
  Zr  Zr5_4  1  0.50000000  0.30324424  0.99999211  1
  Zr  Zr5_5  1  0.50000000  0.30324425  0.49999211  1
  Zr  Zr5_6  1  0.50000000  0.80324425  0.99999211  1
  Zr  Zr5_7  1  0.50000000  0.80324424  0.49999211  1
  Fe  Fe0_0  1  0.00000000  0.49999052  0.00002983  1
  Fe  Fe0_1  1  0.00000000  0.49999052  0.50002983  1
  Fe  Fe0_2  1  0.00000000  0.99999052  0.00002983  1
  Fe  Fe0_3  1  0.00000000  0.99999052  0.50002983  1
  Fe  Fe0_4  1  0.50000000  0.49999052  0.00002983  1
  Fe  Fe0_5  1  0.50000000  0.49999052  0.50002983  1
  Fe  Fe0_6  1  0.50000000  0.99999052  0.00002983  1
  Fe  Fe0_7  1  0.50000000  0.99999052  0.50002983  1
  Sn  Sn0_0  1  0.25000000  0.33332080  0.16665483  1
  Sn  Sn0_1  1  0.25000000  0.33332080  0.66665483  1
  Sn  Sn0_2  1  0.25000000  0.83332080  0.16665483  1
  Sn  Sn0_3  1  0.25000000  0.83332080  0.66665483  1
  Sn  Sn0_4  1  0.75000000  0.33332080  0.16665483  1
  Sn  Sn0_5  1  0.75000000  0.33332080  0.66665483  1
  Sn  Sn0_6  1  0.75000000  0.83332080  0.16665483  1
  Sn  Sn0_7  1  0.75000000  0.83332080  0.66665483  1
  Sn  Sn1_0  1  0.25000000  0.16667466  0.33333862  1
  Sn  Sn1_1  1  0.25000000  0.16667466  0.83333862  1
  Sn  Sn1_2  1  0.25000000  0.66667466  0.33333862  1
  Sn  Sn1_3  1  0.25000000  0.66667466  0.83333862  1
  Sn  Sn1_4  1  0.75000000  0.16667466  0.33333862  1
  Sn  Sn1_5  1  0.75000000  0.16667466  0.83333862  1
  Sn  Sn1_6  1  0.75000000  0.66667466  0.33333862  1
  Sn  Sn1_7  1  0.75000000  0.66667466  0.83333862  1
loop_
_geom_bond_atom_site_label_1
_geom_bond_atom_site_label_2
_geom_bond_distance
_geom_bond_site_symmetry_2
Zr0_0 Zr5_1 3.261426 1_555
Zr0_0 Zr5_5 3.261426 1_555
Zr0_0 Zr4_0 3.262092 1_555
Zr0_0 Zr4_4 3.262092 1_555
Zr0_0 Zr3_0 3.390487 1_555
Zr0_0 Zr3_4 3.390487 1_555
Zr0_1 Zr5_0 3.261426 1_555
Zr0_1 Zr5_4 3.261426 1_555
Zr0_1 Zr4_5 3.262092 1_555
Zr0_1 Zr4_1 3.262092 1_555
Zr0_1 Zr3_5 3.390487 1_555
Zr0_1 Zr3_1 3.390487 1_555
Zr0_2 Zr5_3 3.261426 1_555
Zr0_2 Zr5_7 3.261426 1_555
Zr0_2 Zr4_2 3.262092 1_555
Zr0_2 Zr4_6 3.262092 1_555
Zr0_2 Zr3_2 3.390487 1_555
Zr0_2 Zr3_6 3.390487 1_555
Zr0_3 Zr5_2 3.261426 1_555
Zr0_3 Zr5_6 3.261426 1_555
Zr0_3 Zr4_3 3.262092 1_555
Zr0_3 Zr4_7 3.262092 1_555
Zr0_3 Zr3_3 3.390487 1_555
Zr0_3 Zr3_7 3.390487 1_555
Zr0_4 Zr5_5 3.261426 1_555
Zr0_4 Zr5_1 3.261426 1_655
Zr0_4 Zr4_0 3.262092 1_655
Zr0_4 Zr4_4 3.262092 1_555
Zr0_4 Zr3_0 3.390487 1_655
Zr0_4 Zr3_4 3.390487 1_555
Zr0_5 Zr5_0 3.261426 1_655
Zr0_5 Zr5_4 3.261426 1_555
Zr0_5 Zr4_5 3.262092 1_555
Zr0_5 Zr4_1 3.262092 1_655
Zr0_5 Zr3_1 3.390487 1_655
Zr0_5 Zr3_5 3.390487 1_555
Zr0_6 Zr5_3 3.261426 1_655
Zr0_6 Zr5_7 3.261426 1_555
Zr0_6 Zr4_6 3.262092 1_555
Zr0_6 Zr4_2 3.262092 1_655
Zr0_6 Zr3_2 3.390487 1_655
Zr0_6 Zr3_6 3.390487 1_555
Zr0_7 Zr5_6 3.261426 1_555
Zr0_7 Zr5_2 3.261426 1_655
Zr0_7 Zr4_3 3.262092 1_655
Zr0_7 Zr4_7 3.262092 1_555
Zr0_7 Zr3_7 3.390487 1_555
Zr0_7 Zr3_3 3.390487 1_655
Zr1_0 Zr5_2 3.261574 1_544
Zr1_0 Zr5_6 3.261574 1_544
Zr1_0 Zr3_0 3.261654 1_555
Zr1_0 Zr3_4 3.261654 1_555
Zr1_0 Zr4_2 3.390564 1_545
Zr1_0 Zr4_6 3.390564 1_545
Zr1_1 Zr5_3 3.261574 1_545
Zr1_1 Zr5_7 3.261574 1_545
Zr1_1 Zr3_1 3.261654 1_555
Zr1_1 Zr3_5 3.261654 1_555
Zr1_1 Zr4_3 3.390564 1_545
Zr1_1 Zr4_7 3.390564 1_545
Zr1_2 Zr5_4 3.261574 1_554
Zr1_2 Zr5_0 3.261574 1_554
Zr1_2 Zr3_2 3.261654 1_555
Zr1_2 Zr3_6 3.261654 1_555
Zr1_2 Zr4_0 3.390564 1_555
Zr1_2 Zr4_4 3.390564 1_555
Zr1_3 Zr5_1 3.261574 1_555
Zr1_3 Zr5_5 3.261574 1_555
Zr1_3 Zr3_3 3.261654 1_555
Zr1_3 Zr3_7 3.261654 1_555
Zr1_3 Zr4_5 3.390564 1_555
Zr1_3 Zr4_1 3.390564 1_555
Zr1_4 Zr5_6 3.261574 1_544
Zr1_4 Zr5_2 3.261574 1_644
Zr1_4 Zr3_4 3.261654 1_555
Zr1_4 Zr3_0 3.261654 1_655
Zr1_4 Zr4_2 3.390564 1_645
Zr1_4 Zr4_6 3.390564 1_545
Zr1_5 Zr5_3 3.261574 1_645
Zr1_5 Zr5_7 3.261574 1_545
Zr1_5 Zr3_1 3.261654 1_655
Zr1_5 Zr3_5 3.261654 1_555
Zr1_5 Zr4_7 3.390564 1_545
Zr1_5 Zr4_3 3.390564 1_645
Zr1_6 Zr5_0 3.261574 1_654
Zr1_6 Zr5_4 3.261574 1_554
Zr1_6 Zr3_2 3.261654 1_655
Zr1_6 Zr3_6 3.261654 1_555
Zr1_6 Zr4_0 3.390564 1_655
Zr1_6 Zr4_4 3.390564 1_555
Zr1_7 Zr5_1 3.261574 1_655
Zr1_7 Zr5_5 3.261574 1_555
Zr1_7 Zr3_3 3.261654 1_655
Zr1_7 Zr3_7 3.261654 1_555
Zr1_7 Zr4_1 3.390564 1_655
Zr1_7 Zr4_5 3.390564 1_555
Zr2_0 Zr3_0 3.261591 1_555
Zr2_0 Zr3_4 3.261591 1_555
Zr2_0 Zr4_3 3.262165 1_544
Zr2_0 Zr4_7 3.262165 1_544
Zr2_0 Zr5_4 3.390642 1_554
Zr2_0 Zr5_0 3.390642 1_554
Zr2_1 Zr3_1 3.261591 1_555
Zr2_1 Zr3_5 3.261591 1_555
Zr2_1 Zr4_2 3.262165 1_545
Zr2_1 Zr4_6 3.262165 1_545
Zr2_1 Zr5_1 3.390642 1_555
Zr2_1 Zr5_5 3.390642 1_555
Zr2_2 Zr3_6 3.261591 1_555
Zr2_2 Zr3_2 3.261591 1_555
Zr2_2 Zr4_1 3.262165 1_554
Zr2_2 Zr4_5 3.262165 1_554
Zr2_2 Zr5_2 3.390642 1_554
Zr2_2 Zr5_6 3.390642 1_554
Zr2_3 Zr3_3 3.261591 1_555
Zr2_3 Zr3_7 3.261591 1_555
Zr2_3 Zr4_0 3.262165 1_555
Zr2_3 Zr4_4 3.262165 1_555
Zr2_3 Zr5_3 3.390642 1_555
Zr2_3 Zr5_7 3.390642 1_555
Zr2_4 Zr3_4 3.261591 1_555
Zr2_4 Zr3_0 3.261591 1_655
Zr2_4 Zr4_3 3.262165 1_644
Zr2_4 Zr4_7 3.262165 1_544
Zr2_4 Zr5_0 3.390642 1_654
Zr2_4 Zr5_4 3.390642 1_554
Zr2_5 Zr3_1 3.261591 1_655
Zr2_5 Zr3_5 3.261591 1_555
Zr2_5 Zr4_2 3.262165 1_645
Zr2_5 Zr4_6 3.262165 1_545
Zr2_5 Zr5_1 3.390642 1_655
Zr2_5 Zr5_5 3.390642 1_555
Zr2_6 Zr3_2 3.261591 1_655
Zr2_6 Zr3_6 3.261591 1_555
Zr2_6 Zr4_1 3.262165 1_654
Zr2_6 Zr4_5 3.262165 1_554
Zr2_6 Zr5_2 3.390642 1_654
Zr2_6 Zr5_6 3.390642 1_554
Zr2_7 Zr3_7 3.261591 1_555
Zr2_7 Zr3_3 3.261591 1_655
Zr2_7 Zr4_0 3.262165 1_655
Zr2_7 Zr4_4 3.262165 1_555
Zr2_7 Zr5_3 3.390642 1_655
Zr2_7 Zr5_7 3.390642 1_555
Zr3_0 Zr3_4 3.525309 1_555
Zr3_0 Zr3_4 3.525309 1_455
Zr3_1 Zr3_5 3.525309 1_555
Zr3_1 Zr3_5 3.525309 1_455
Zr3_2 Zr3_6 3.525309 1_555
Zr3_2 Zr3_6 3.525309 1_455
Zr3_3 Zr3_7 3.525309 1_555
Zr3_3 Zr3_7 3.525309 1_455
Zr4_0 Zr4_4 3.525309 1_555
Zr4_0 Zr4_4 3.525309 1_455
Zr4_1 Zr4_5 3.525309 1_555
Zr4_1 Zr4_5 3.525309 1_455
Zr4_2 Zr4_6 3.525309 1_555
Zr4_2 Zr4_6 3.525309 1_455
Zr4_3 Zr4_7 3.525309 1_555
Zr4_3 Zr4_7 3.525309 1_455
Zr5_0 Zr5_4 3.525309 1_555
Zr5_0 Zr5_4 3.525309 1_455
Zr5_1 Zr5_5 3.525309 1_555
Zr5_1 Zr5_5 3.525309 1_455
Zr5_2 Zr5_6 3.525309 1_555
Zr5_2 Zr5_6 3.525309 1_455
Zr5_3 Zr5_7 3.525309 1_555
Zr5_3 Zr5_7 3.525309 1_455
Fe0_0 Zr1_2 2.622303 1_555
Fe0_0 Zr1_6 2.622303 1_455
Fe0_0 Zr0_5 2.622977 1_454
Fe0_0 Zr0_1 2.622977 1_554
Fe0_0 Zr2_2 2.623107 1_555
Fe0_0 Zr2_6 2.623107 1_455
Fe0_0 Zr5_0 3.139020 1_554
Fe0_0 Zr3_2 3.139517 1_555
Fe0_0 Zr4_1 3.140660 1_554
Fe0_1 Zr1_7 2.622303 1_455
Fe0_1 Zr1_3 2.622303 1_555
Fe0_1 Zr0_0 2.622977 1_555
Fe0_1 Zr0_4 2.622977 1_455
Fe0_1 Zr2_3 2.623107 1_555
Fe0_1 Zr2_7 2.623107 1_455
Fe0_1 Zr5_1 3.139020 1_555
Fe0_1 Zr3_3 3.139517 1_555
Fe0_1 Zr4_0 3.140660 1_555
Fe0_2 Zr1_0 2.622303 1_565
Fe0_2 Zr1_4 2.622303 1_465
Fe0_2 Zr0_3 2.622977 1_554
Fe0_2 Zr0_7 2.622977 1_454
Fe0_2 Zr2_0 2.623107 1_565
Fe0_2 Zr2_4 2.623107 1_465
Fe0_2 Zr5_2 3.139020 1_554
Fe0_2 Zr3_0 3.139517 1_565
Fe0_2 Zr4_3 3.140660 1_554
Fe0_3 Zr1_1 2.622303 1_565
Fe0_3 Zr1_5 2.622303 1_465
Fe0_3 Zr0_2 2.622977 1_555
Fe0_3 Zr0_6 2.622977 1_455
Fe0_3 Zr2_1 2.623107 1_565
Fe0_3 Zr2_5 2.623107 1_465
Fe0_3 Zr5_3 3.139020 1_555
Fe0_3 Zr3_1 3.139517 1_565
Fe0_3 Zr4_2 3.140660 1_555
Fe0_4 Zr1_2 2.622303 1_555
Fe0_4 Zr1_6 2.622303 1_555
Fe0_4 Zr0_1 2.622977 1_554
Fe0_4 Zr0_5 2.622977 1_554
Fe0_4 Zr2_2 2.623107 1_555
Fe0_4 Zr2_6 2.623107 1_555
Fe0_4 Zr5_4 3.139020 1_554
Fe0_4 Zr3_6 3.139517 1_555
Fe0_4 Zr4_5 3.140660 1_554
Fe0_5 Zr1_7 2.622303 1_555
Fe0_5 Zr1_3 2.622303 1_555
Fe0_5 Zr0_0 2.622977 1_555
Fe0_5 Zr0_4 2.622977 1_555
Fe0_5 Zr2_3 2.623107 1_555
Fe0_5 Zr2_7 2.623107 1_555
Fe0_5 Zr5_5 3.139020 1_555
Fe0_5 Zr3_7 3.139517 1_555
Fe0_5 Zr4_4 3.140660 1_555
Fe0_6 Zr1_0 2.622303 1_565
Fe0_6 Zr1_4 2.622303 1_565
Fe0_6 Zr0_3 2.622977 1_554
Fe0_6 Zr0_7 2.622977 1_554
Fe0_6 Zr2_0 2.623107 1_565
Fe0_6 Zr2_4 2.623107 1_565
Fe0_6 Zr5_6 3.139020 1_554
Fe0_6 Zr3_4 3.139517 1_565
Fe0_6 Zr4_7 3.140660 1_554
Fe0_7 Zr1_1 2.622303 1_565
Fe0_7 Zr1_5 2.622303 1_565
Fe0_7 Zr0_2 2.622977 1_555
Fe0_7 Zr0_6 2.622977 1_555
Fe0_7 Zr2_1 2.623107 1_565
Fe0_7 Zr2_5 2.623107 1_565
Fe0_7 Zr5_7 3.139020 1_555
Fe0_7 Zr3_5 3.139517 1_565
Fe0_7 Zr4_6 3.140660 1_555
Sn0_0 Zr3_4 3.021924 1_555
Sn0_0 Zr3_0 3.021924 1_555
Sn0_0 Zr4_0 3.022108 1_555
Sn0_0 Zr4_4 3.022108 1_555
Sn0_0 Zr5_4 3.022193 1_554
Sn0_0 Zr5_0 3.022193 1_554
Sn0_0 Zr2_0 3.080839 1_555
Sn0_0 Zr1_2 3.081470 1_555
Sn0_0 Zr0_0 3.081611 1_555
Sn0_1 Zr3_1 3.021924 1_555
Sn0_1 Zr3_5 3.021924 1_555
Sn0_1 Zr4_1 3.022108 1_555
Sn0_1 Zr4_5 3.022108 1_555
Sn0_1 Zr5_5 3.022193 1_555
Sn0_1 Zr5_1 3.022193 1_555
Sn0_1 Zr2_1 3.080839 1_555
Sn0_1 Zr1_3 3.081470 1_555
Sn0_1 Zr0_1 3.081611 1_555
Sn0_2 Zr3_2 3.021924 1_555
Sn0_2 Zr3_6 3.021924 1_555
Sn0_2 Zr4_6 3.022108 1_555
Sn0_2 Zr4_2 3.022108 1_555
Sn0_2 Zr5_2 3.022193 1_554
Sn0_2 Zr5_6 3.022193 1_554
Sn0_2 Zr2_2 3.080839 1_555
Sn0_2 Zr1_0 3.081470 1_565
Sn0_2 Zr0_2 3.081611 1_555
Sn0_3 Zr3_7 3.021924 1_555
Sn0_3 Zr3_3 3.021924 1_555
Sn0_3 Zr4_3 3.022108 1_555
Sn0_3 Zr4_7 3.022108 1_555
Sn0_3 Zr5_3 3.022193 1_555
Sn0_3 Zr5_7 3.022193 1_555
Sn0_3 Zr2_3 3.080839 1_555
Sn0_3 Zr1_1 3.081470 1_565
Sn0_3 Zr0_3 3.081611 1_555
Sn0_4 Zr3_0 3.021924 1_655
Sn0_4 Zr3_4 3.021924 1_555
Sn0_4 Zr4_0 3.022108 1_655
Sn0_4 Zr4_4 3.022108 1_555
Sn0_4 Zr5_4 3.022193 1_554
Sn0_4 Zr5_0 3.022193 1_654
Sn0_4 Zr2_4 3.080839 1_555
Sn0_4 Zr1_6 3.081470 1_555
Sn0_4 Zr0_4 3.081611 1_555
Sn0_5 Zr3_5 3.021924 1_555
Sn0_5 Zr3_1 3.021924 1_655
Sn0_5 Zr4_1 3.022108 1_655
Sn0_5 Zr4_5 3.022108 1_555
Sn0_5 Zr5_1 3.022193 1_655
Sn0_5 Zr5_5 3.022193 1_555
Sn0_5 Zr2_5 3.080839 1_555
Sn0_5 Zr1_7 3.081470 1_555
Sn0_5 Zr0_5 3.081611 1_555
Sn0_6 Zr3_2 3.021924 1_655
Sn0_6 Zr3_6 3.021924 1_555
Sn0_6 Zr4_6 3.022108 1_555
Sn0_6 Zr4_2 3.022108 1_655
Sn0_6 Zr5_2 3.022193 1_654
Sn0_6 Zr5_6 3.022193 1_554
Sn0_6 Zr2_6 3.080839 1_555
Sn0_6 Zr1_4 3.081470 1_565
Sn0_6 Zr0_6 3.081611 1_555
Sn0_7 Zr3_7 3.021924 1_555
Sn0_7 Zr3_3 3.021924 1_655
Sn0_7 Zr4_3 3.022108 1_655
Sn0_7 Zr4_7 3.022108 1_555
Sn0_7 Zr5_3 3.022193 1_655
Sn0_7 Zr5_7 3.022193 1_555
Sn0_7 Zr2_7 3.080839 1_555
Sn0_7 Zr1_5 3.081470 1_565
Sn0_7 Zr0_7 3.081611 1_555
Sn1_0 Zr5_5 3.021981 1_555
Sn1_0 Zr5_1 3.021981 1_555
Sn1_0 Zr4_6 3.022009 1_545
Sn1_0 Zr4_2 3.022009 1_545
Sn1_0 Zr3_4 3.022190 1_555
Sn1_0 Zr3_0 3.022190 1_555
Sn1_0 Zr0_0 3.080908 1_555
Sn1_0 Zr2_1 3.081501 1_555
Sn1_0 Zr1_0 3.081527 1_555
Sn1_1 Zr5_0 3.021981 1_555
Sn1_1 Zr5_4 3.021981 1_555
Sn1_1 Zr4_7 3.022009 1_545
Sn1_1 Zr4_3 3.022009 1_545
Sn1_1 Zr3_1 3.022190 1_555
Sn1_1 Zr3_5 3.022190 1_555
Sn1_1 Zr0_1 3.080908 1_555
Sn1_1 Zr2_0 3.081501 1_556
Sn1_1 Zr1_1 3.081527 1_555
Sn1_2 Zr5_3 3.021981 1_555
Sn1_2 Zr5_7 3.021981 1_555
Sn1_2 Zr4_0 3.022009 1_555
Sn1_2 Zr4_4 3.022009 1_555
Sn1_2 Zr3_6 3.022190 1_555
Sn1_2 Zr3_2 3.022190 1_555
Sn1_2 Zr0_2 3.080908 1_555
Sn1_2 Zr2_3 3.081501 1_555
Sn1_2 Zr1_2 3.081527 1_555
Sn1_3 Zr5_2 3.021981 1_555
Sn1_3 Zr5_6 3.021981 1_555
Sn1_3 Zr4_1 3.022009 1_555
Sn1_3 Zr4_5 3.022009 1_555
Sn1_3 Zr3_3 3.022190 1_555
Sn1_3 Zr3_7 3.022190 1_555
Sn1_3 Zr0_3 3.080908 1_555
Sn1_3 Zr2_2 3.081501 1_556
Sn1_3 Zr1_3 3.081527 1_555
Sn1_4 Zr5_5 3.021981 1_555
Sn1_4 Zr5_1 3.021981 1_655
Sn1_4 Zr4_2 3.022009 1_645
Sn1_4 Zr4_6 3.022009 1_545
Sn1_4 Zr3_4 3.022190 1_555
Sn1_4 Zr3_0 3.022190 1_655
Sn1_4 Zr0_4 3.080908 1_555
Sn1_4 Zr2_5 3.081501 1_555
Sn1_4 Zr1_4 3.081527 1_555
Sn1_5 Zr5_4 3.021981 1_555
Sn1_5 Zr5_0 3.021981 1_655
Sn1_5 Zr4_7 3.022009 1_545
Sn1_5 Zr4_3 3.022009 1_645
Sn1_5 Zr3_5 3.022190 1_555
Sn1_5 Zr3_1 3.022190 1_655
Sn1_5 Zr0_5 3.080908 1_555
Sn1_5 Zr2_4 3.081501 1_556
Sn1_5 Zr1_5 3.081527 1_555
Sn1_6 Zr5_3 3.021981 1_655
Sn1_6 Zr5_7 3.021981 1_555
Sn1_6 Zr4_0 3.022009 1_655
Sn1_6 Zr4_4 3.022009 1_555
Sn1_6 Zr3_2 3.022190 1_655
Sn1_6 Zr3_6 3.022190 1_555
Sn1_6 Zr0_6 3.080908 1_555
Sn1_6 Zr2_7 3.081501 1_555
Sn1_6 Zr1_6 3.081527 1_555
Sn1_7 Zr5_6 3.021981 1_555
Sn1_7 Zr5_2 3.021981 1_655
Sn1_7 Zr4_1 3.022009 1_655
Sn1_7 Zr4_5 3.022009 1_555
Sn1_7 Zr3_7 3.022190 1_555
Sn1_7 Zr3_3 3.022190 1_655
Sn1_7 Zr0_7 3.080908 1_555
Sn1_7 Zr2_6 3.081501 1_556
Sn1_7 Zr1_7 3.081527 1_555
