# generated using pymatgen
data_Pr(BRu)4
_symmetry_space_group_name_H-M   'P 1'
_cell_length_a   9.27694202
_cell_length_b   9.27694202
_cell_length_c   9.27694202
_cell_angle_alpha   131.79820033
_cell_angle_beta   131.79820033
_cell_angle_gamma   70.54793485
_symmetry_Int_Tables_number   1
_chemical_formula_structural   Pr(BRu)4
_chemical_formula_sum   'Pr4 B16 Ru16'
_cell_volume   434.74199725
_cell_formula_units_Z   4
loop_
 _symmetry_equiv_pos_site_id
 _symmetry_equiv_pos_as_xyz
  1  'x, y, z'
loop_
 _atom_site_type_symbol
 _atom_site_label
 _atom_site_symmetry_multiplicity
 _atom_site_fract_x
 _atom_site_fract_y
 _atom_site_fract_z
 _atom_site_occupancy
  Pr  Pr0  1  0.75000000  0.75000000  0.00000000  1
  Pr  Pr1  1  0.25000000  0.25000000  0.00000000  1
  Pr  Pr2  1  0.00000000  0.50000000  0.50000000  1
  Pr  Pr3  1  0.50000000  0.00000000  0.50000000  1
  B  B0  1  0.72512400  0.41471600  0.97614600  1
  B  B1  1  0.22512400  0.24897800  0.31040800  1
  B  B2  1  0.66471600  0.47512400  0.47614600  1
  B  B3  1  0.16471600  0.68857000  0.18959200  1
  B  B4  1  0.02487600  0.83528400  0.52385400  1
  B  B5  1  0.52487600  0.00102200  0.18959200  1
  B  B6  1  0.08528400  0.77487600  0.02385400  1
  B  B7  1  0.58528400  0.56143000  0.31040800  1
  B  B8  1  0.93857000  0.91471600  0.68959200  1
  B  B9  1  0.43857000  0.74897800  0.02385400  1
  B  B10  1  0.49897800  0.97512400  0.81040800  1
  B  B11  1  0.99897800  0.18857000  0.52385400  1
  B  B12  1  0.81143000  0.33528400  0.81040800  1
  B  B13  1  0.31143000  0.50102200  0.47614600  1
  B  B14  1  0.25102200  0.27487600  0.68959200  1
  B  B15  1  0.75102200  0.06143000  0.97614600  1
  Ru  Ru0  1  0.04375800  0.57241300  0.23983300  1
  Ru  Ru1  1  0.54375800  0.30392500  0.47134400  1
  Ru  Ru2  1  0.82241300  0.79375800  0.73983300  1
  Ru  Ru3  1  0.32241300  0.58258100  0.02865600  1
  Ru  Ru4  1  0.70624200  0.67758700  0.26016700  1
  Ru  Ru5  1  0.20624200  0.94607500  0.02865600  1
  Ru  Ru6  1  0.92758700  0.45624200  0.76016700  1
  Ru  Ru7  1  0.42758700  0.66741900  0.47134400  1
  Ru  Ru8  1  0.83258100  0.07241300  0.52865600  1
  Ru  Ru9  1  0.33258100  0.80392500  0.76016700  1
  Ru  Ru10  1  0.55392500  0.29375800  0.97134400  1
  Ru  Ru11  1  0.05392500  0.08258100  0.26016700  1
  Ru  Ru12  1  0.91741900  0.17758700  0.97134400  1
  Ru  Ru13  1  0.41741900  0.44607500  0.73983300  1
  Ru  Ru14  1  0.19607500  0.95624200  0.52865600  1
  Ru  Ru15  1  0.69607500  0.16741900  0.23983300  1
loop_
_geom_bond_atom_site_label_1
_geom_bond_atom_site_label_2
_geom_bond_distance
_geom_bond_site_symmetry_2
Pr0 Ru15 2.984015 1_565
Pr0 Ru9 2.984015 1_554
Pr0 Ru6 2.984022 1_554
Pr0 Ru0 2.984022 1_655
Pr0 Ru2 3.176518 1_554
Pr0 Ru4 3.176518 1_555
Pr0 Ru13 3.176525 1_554
Pr0 Ru11 3.176525 1_665
Pr0 Ru1 3.247960 1_554
Pr0 Ru14 3.247960 1_655
Pr0 Ru8 3.247960 1_565
Pr0 Ru7 3.247960 1_554
Pr1 Ru14 2.984015 1_544
Pr1 Ru1 2.984015 1_555
Pr1 Ru7 2.984015 1_555
Pr1 Ru8 2.984015 1_454
Pr1 Ru12 3.176521 1_454
Pr1 Ru3 3.176521 1_555
Pr1 Ru10 3.176525 1_554
Pr1 Ru5 3.176525 1_545
Pr1 Ru0 3.247957 1_555
Pr1 Ru6 3.247957 1_454
Pr1 Ru9 3.247960 1_544
Pr1 Ru15 3.247960 1_555
Pr2 Ru11 2.984015 1_555
Pr2 Ru13 2.984015 1_555
Pr2 Ru4 2.984022 1_455
Pr2 Ru2 2.984022 1_455
Pr2 Ru6 3.176518 1_455
Pr2 Ru0 3.176518 1_555
Pr2 Ru9 3.176525 1_555
Pr2 Ru15 3.176525 1_455
Pr2 Ru5 3.247960 1_556
Pr2 Ru10 3.247960 1_454
Pr2 Ru3 3.247960 1_556
Pr2 Ru12 3.247960 1_454
Pr3 Ru10 2.984015 1_555
Pr3 Ru5 2.984015 1_545
Pr3 Ru12 2.984015 1_555
Pr3 Ru3 2.984015 1_545
Pr3 Ru8 3.176521 1_555
Pr3 Ru7 3.176521 1_545
Pr3 Ru1 3.176525 1_555
Pr3 Ru14 3.176525 1_545
Pr3 Ru4 3.247957 1_545
Pr3 Ru2 3.247957 1_545
Pr3 Ru11 3.247960 1_555
Pr3 Ru13 3.247960 1_555
B0 B12 1.812686 1_555
B0 Ru4 2.164616 1_556
B0 Ru10 2.193071 1_555
B0 Ru13 2.234784 1_555
B0 Ru0 2.309258 1_656
B0 Ru12 2.320593 1_555
B0 Pr3 3.012570 1_555
B0 Pr0 3.044561 1_556
B0 Pr2 3.231847 1_656
B1 B13 1.812686 1_555
B1 Ru5 2.164613 1_545
B1 Ru11 2.193071 1_555
B1 Ru12 2.234786 1_454
B1 Ru1 2.309262 1_555
B1 Ru13 2.320600 1_555
B1 Pr2 3.012570 1_555
B1 Pr1 3.044561 1_555
B1 Pr3 3.231847 1_555
B2 B7 1.812686 1_555
B2 Ru6 2.164616 1_555
B2 Ru1 2.193071 1_555
B2 Ru15 2.234784 1_555
B2 Ru2 2.309258 1_555
B2 Ru7 2.320593 1_555
B2 Pr1 3.012570 1_555
B2 Pr2 3.044561 1_655
B2 Pr0 3.231847 1_556
B3 B6 1.812686 1_555
B3 Ru7 2.164616 1_555
B3 Ru0 2.193078 1_555
B3 Ru14 2.234784 1_555
B3 Ru3 2.309253 1_555
B3 Ru6 2.320599 1_454
B3 Pr0 3.012570 1_455
B3 Pr3 3.044561 1_565
B3 Pr1 3.231847 1_555
B4 B8 1.812686 1_455
B4 Ru0 2.164616 1_555
B4 Ru14 2.193071 1_555
B4 Ru9 2.234784 1_555
B4 Ru4 2.309258 1_455
B4 Ru8 2.320593 1_465
B4 Pr1 3.012570 1_566
B4 Pr2 3.044561 1_555
B4 Pr0 3.231847 1_455
B5 B9 1.812686 1_545
B5 Ru1 2.164613 1_555
B5 Ru15 2.193071 1_555
B5 Ru8 2.234786 1_555
B5 Ru5 2.309262 1_545
B5 Ru9 2.320600 1_544
B5 Pr0 3.012570 1_545
B5 Pr3 3.044561 1_555
B5 Pr1 3.231847 1_555
B6 Ru2 2.164616 1_454
B6 Ru5 2.193071 1_555
B6 Ru11 2.234784 1_565
B6 Ru6 2.309258 1_454
B6 Ru3 2.320593 1_555
B6 Pr3 3.012570 1_565
B6 Pr0 3.044561 1_455
B6 Pr2 3.231847 1_554
B7 Ru3 2.164616 1_555
B7 Ru4 2.193078 1_555
B7 Ru10 2.234784 1_554
B7 Ru7 2.309253 1_555
B7 Ru2 2.320599 1_555
B7 Pr2 3.012570 1_655
B7 Pr1 3.044561 1_555
B7 Pr3 3.231847 1_565
B8 Ru12 2.164616 1_565
B8 Ru2 2.193078 1_555
B8 Ru5 2.234784 1_656
B8 Ru8 2.309253 1_565
B8 Ru4 2.320599 1_555
B8 Pr2 3.012570 1_655
B8 Pr1 3.044561 1_666
B8 Pr3 3.231847 1_565
B9 Ru13 2.164613 1_554
B9 Ru3 2.193078 1_555
B9 Ru4 2.234778 1_555
B9 Ru9 2.309262 1_554
B9 Ru5 2.320600 1_555
B9 Pr3 3.012570 1_565
B9 Pr0 3.044561 1_555
B9 Pr2 3.231847 1_554
B10 B15 1.812686 1_565
B10 Ru14 2.164613 1_555
B10 Ru9 2.193071 1_555
B10 Ru7 2.234786 1_555
B10 Ru10 2.309262 1_565
B10 Ru15 2.320600 1_566
B10 Pr0 3.012570 1_556
B10 Pr3 3.044561 1_565
B10 Pr1 3.231847 1_566
B11 B14 1.812686 1_655
B11 Ru15 2.164613 1_555
B11 Ru8 2.193078 1_555
B11 Ru6 2.234778 1_555
B11 Ru11 2.309262 1_655
B11 Ru14 2.320600 1_645
B11 Pr1 3.012570 1_656
B11 Pr2 3.044561 1_655
B11 Pr0 3.231847 1_545
B12 Ru8 2.164616 1_555
B12 Ru6 2.193078 1_555
B12 Ru1 2.234784 1_555
B12 Ru12 2.309253 1_555
B12 Ru0 2.320599 1_656
B12 Pr0 3.012570 1_556
B12 Pr3 3.044561 1_555
B12 Pr1 3.231847 1_656
B13 Ru9 2.164613 1_555
B13 Ru7 2.193078 1_555
B13 Ru0 2.234778 1_555
B13 Ru13 2.309262 1_555
B13 Ru1 2.320600 1_555
B13 Pr1 3.012570 1_555
B13 Pr2 3.044561 1_555
B13 Pr0 3.231847 1_556
B14 Ru10 2.164613 1_555
B14 Ru13 2.193071 1_555
B14 Ru3 2.234786 1_556
B14 Ru14 2.309262 1_545
B14 Ru11 2.320600 1_555
B14 Pr2 3.012570 1_555
B14 Pr1 3.044561 1_556
B14 Pr3 3.231847 1_555
B15 Ru11 2.164613 1_656
B15 Ru12 2.193078 1_555
B15 Ru2 2.234778 1_545
B15 Ru15 2.309262 1_556
B15 Ru10 2.320600 1_555
B15 Pr3 3.012570 1_555
B15 Pr0 3.044561 1_546
B15 Pr2 3.231847 1_656
