# generated using pymatgen
data_CaAgSn
_symmetry_space_group_name_H-M   'P 1'
_cell_length_a   4.86093148
_cell_length_b   4.86093148
_cell_length_c   11.04473900
_cell_angle_alpha   90.00000000
_cell_angle_beta   90.00000000
_cell_angle_gamma   119.99999295
_symmetry_Int_Tables_number   1
_chemical_formula_structural   CaAgSn
_chemical_formula_sum   'Ca3 Ag3 Sn3'
_cell_volume   226.00868005
_cell_formula_units_Z   3
loop_
 _symmetry_equiv_pos_site_id
 _symmetry_equiv_pos_as_xyz
  1  'x, y, z'
loop_
 _atom_site_type_symbol
 _atom_site_label
 _atom_site_symmetry_multiplicity
 _atom_site_fract_x
 _atom_site_fract_y
 _atom_site_fract_z
 _atom_site_occupancy
  Ca  Ca0  1  0.00000000  0.00000000  0.82792500  1
  Ca  Ca1  1  0.00000000  0.00000000  0.49557400  1
  Ca  Ca2  1  0.00000000  0.00000000  0.16315900  1
  Ag  Ag0  1  0.66666700  0.33333300  0.98833900  1
  Ag  Ag1  1  0.33333300  0.66666700  0.68321200  1
  Ag  Ag2  1  0.33333300  0.66666700  0.30500800  1
  Sn  Sn0  1  0.66666700  0.33333300  0.64437700  1
  Sn  Sn1  1  0.66666700  0.33333300  0.34996300  1
  Sn  Sn2  1  0.33333300  0.66666700  0.99844200  1
loop_
_geom_bond_atom_site_label_1
_geom_bond_atom_site_label_2
_geom_bond_distance
_geom_bond_site_symmetry_2
Ca0 Sn2 3.379805 1_545
Ca0 Sn2 3.379809 1_555
Ca0 Sn2 3.379809 1_445
Ca0 Sn0 3.462066 1_455
Ca0 Sn0 3.462070 1_445
Ca0 Sn0 3.462070 1_555
Ca1 Sn1 3.234598 1_455
Ca1 Sn1 3.234602 1_445
Ca1 Sn1 3.234602 1_555
Ca1 Sn0 3.252270 1_455
Ca1 Sn0 3.252274 1_445
Ca1 Sn0 3.252274 1_555
Ca2 Sn2 3.344532 1_544
Ca2 Sn2 3.344536 1_444
Ca2 Sn2 3.344536 1_554
Ca2 Sn1 3.483246 1_455
Ca2 Sn1 3.483250 1_445
Ca2 Sn1 3.483250 1_555
Ag0 Sn2 2.808675 1_545
Ag0 Sn2 2.808675 1_655
Ag0 Sn2 2.808683 1_555
Ag0 Ca0 3.318920 1_655
Ag0 Ca0 3.318924 1_665
Ag0 Ca0 3.318924 1_555
Ag0 Ca2 3.406516 1_656
Ag0 Ca2 3.406520 1_666
Ag0 Ca2 3.406520 1_556
Ag1 Sn0 2.839045 1_455
Ag1 Sn0 2.839045 1_565
Ag1 Sn0 2.839053 1_555
Ag1 Ca0 3.229678 1_565
Ag1 Ca0 3.229682 1_665
Ag1 Ca0 3.229682 1_555
Ag1 Sn2 3.481633 1_555
Ag1 Ca1 3.488710 1_565
Ag1 Ca1 3.488713 1_555
Ag1 Ca1 3.488713 1_665
Ag2 Sn1 2.850041 1_455
Ag2 Sn1 2.850041 1_565
Ag2 Sn1 2.850049 1_555
Ag2 Ca2 3.214141 1_565
Ag2 Ca2 3.214145 1_555
Ag2 Ca2 3.214145 1_665
Ag2 Sn2 3.385941 1_554
Ag2 Ca1 3.508017 1_565
Ag2 Ca1 3.508020 1_665
Ag2 Ca1 3.508020 1_555
Sn0 Sn1 3.251726 1_555
