# generated using pymatgen
data_Er2SiSeO4
_symmetry_space_group_name_H-M   'P 1'
_cell_length_a   6.02014600
_cell_length_b   6.92076900
_cell_length_c   10.78953700
_cell_angle_alpha   90.00000000
_cell_angle_beta   90.00000000
_cell_angle_gamma   90.00000000
_symmetry_Int_Tables_number   1
_chemical_formula_structural   Er2SiSeO4
_chemical_formula_sum   'Er8 Si4 Se4 O16'
_cell_volume   449.53569912
_cell_formula_units_Z   4
loop_
 _symmetry_equiv_pos_site_id
 _symmetry_equiv_pos_as_xyz
  1  'x, y, z'
loop_
 _atom_site_type_symbol
 _atom_site_label
 _atom_site_symmetry_multiplicity
 _atom_site_fract_x
 _atom_site_fract_y
 _atom_site_fract_z
 _atom_site_occupancy
  Er  Er0  1  0.60931300  0.25000000  0.50000000  1
  Er  Er1  1  0.60931300  0.25000000  0.00000000  1
  Er  Er2  1  0.39068700  0.75000000  0.50000000  1
  Er  Er3  1  0.39068700  0.75000000  0.00000000  1
  Er  Er4  1  0.86549400  0.52694200  0.75000000  1
  Er  Er5  1  0.86549400  0.97305800  0.25000000  1
  Er  Er6  1  0.13450600  0.02694200  0.75000000  1
  Er  Er7  1  0.13450600  0.47305800  0.25000000  1
  Si  Si0  1  0.11462400  0.25000000  0.00000000  1
  Si  Si1  1  0.88537600  0.75000000  0.00000000  1
  Si  Si2  1  0.88537600  0.75000000  0.50000000  1
  Si  Si3  1  0.11462400  0.25000000  0.50000000  1
  Se  Se0  1  0.57096200  0.86669700  0.75000000  1
  Se  Se1  1  0.57096200  0.63330300  0.25000000  1
  Se  Se2  1  0.42903800  0.36669700  0.75000000  1
  Se  Se3  1  0.42903800  0.13330300  0.25000000  1
  O  O0  1  0.27904500  0.43294600  0.03137200  1
  O  O1  1  0.27904500  0.06705400  0.96862800  1
  O  O2  1  0.72095500  0.93294600  0.46862800  1
  O  O3  1  0.72095500  0.56705400  0.53137200  1
  O  O4  1  0.72095500  0.56705400  0.96862800  1
  O  O5  1  0.72095500  0.93294600  0.03137200  1
  O  O6  1  0.27904500  0.06705400  0.53137200  1
  O  O7  1  0.27904500  0.43294600  0.46862800  1
  O  O8  1  0.05308700  0.74125300  0.12136300  1
  O  O9  1  0.05308700  0.74125300  0.37863700  1
  O  O10  1  0.94691300  0.24125300  0.37863700  1
  O  O11  1  0.94691300  0.25874700  0.62136300  1
  O  O12  1  0.94691300  0.25874700  0.87863700  1
  O  O13  1  0.94691300  0.24125300  0.12136300  1
  O  O14  1  0.05308700  0.75874700  0.62136300  1
  O  O15  1  0.05308700  0.75874700  0.87863700  1
loop_
_geom_bond_atom_site_label_1
_geom_bond_atom_site_label_2
_geom_bond_distance
_geom_bond_site_symmetry_2
Er0 O3 2.319711 1_555
Er0 O2 2.319711 1_545
Er0 O6 2.381352 1_555
Er0 O7 2.381352 1_555
Er0 O10 2.418467 1_555
Er0 O11 2.418467 1_555
Er0 Se3 3.017613 1_555
Er0 Se2 3.017613 1_555
Er1 O4 2.319711 1_554
Er1 O5 2.319711 1_545
Er1 O0 2.381352 1_555
Er1 O1 2.381352 1_554
Er1 O12 2.418467 1_554
Er1 O13 2.418467 1_555
Er1 Se2 3.017613 1_554
Er1 Se3 3.017613 1_555
Er2 O6 2.319711 1_565
Er2 O7 2.319711 1_555
Er2 O2 2.381352 1_555
Er2 O3 2.381352 1_555
Er2 O14 2.418467 1_555
Er2 O9 2.418467 1_555
Er2 Se0 3.017613 1_555
Er2 Se1 3.017613 1_555
Er3 O0 2.319711 1_555
Er3 O1 2.319711 1_564
Er3 O5 2.381352 1_555
Er3 O4 2.381352 1_554
Er3 O8 2.418467 1_555
Er3 O15 2.418467 1_554
Er3 Se0 3.017613 1_554
Er3 Se1 3.017613 1_555
Er4 O12 2.368919 1_555
Er4 O11 2.368919 1_555
Er4 O14 2.403215 1_655
Er4 O15 2.403215 1_655
Er4 O4 2.529546 1_555
Er4 O3 2.529546 1_555
Er4 Se2 2.851987 1_555
Er4 Se0 2.944978 1_555
Er5 O13 2.368919 1_565
Er5 O10 2.368919 1_565
Er5 O9 2.403215 1_655
Er5 O8 2.403215 1_655
Er5 O2 2.529546 1_555
Er5 O5 2.529546 1_555
Er5 Se3 2.851987 1_565
Er5 Se1 2.944978 1_555
Er6 O14 2.368919 1_545
Er6 O15 2.368919 1_545
Er6 O11 2.403215 1_455
Er6 O12 2.403215 1_455
Er6 O1 2.529546 1_555
Er6 O6 2.529546 1_555
Er6 Se0 2.851987 1_545
Er6 Se2 2.944978 1_555
Er7 O8 2.368919 1_555
Er7 O9 2.368919 1_555
Er7 O13 2.403215 1_455
Er7 O10 2.403215 1_455
Er7 O7 2.529546 1_555
Er7 O0 2.529546 1_555
Er7 Se1 2.851987 1_555
Er7 Se3 2.944978 1_555
O0 Si0 1.642386 1_555
O1 Si0 1.642386 1_556
O2 Si2 1.642386 1_555
O3 Si2 1.642386 1_555
O4 Si1 1.642386 1_556
O5 Si1 1.642386 1_555
O6 Si3 1.642386 1_555
O7 Si3 1.642386 1_555
O8 Si1 1.654602 1_455
O9 Si2 1.654602 1_455
O10 Si3 1.654602 1_655
O11 Si3 1.654602 1_655
O12 Si0 1.654602 1_656
O13 Si0 1.654602 1_655
O14 Si2 1.654602 1_455
O15 Si1 1.654602 1_456
