# generated using pymatgen
data_Al3P3C4NO13
_symmetry_space_group_name_H-M   'P 1'
_cell_length_a   9.48577700
_cell_length_b   10.28118800
_cell_length_c   15.25117000
_cell_angle_alpha   90.00000000
_cell_angle_beta   90.00000000
_cell_angle_gamma   90.00000000
_symmetry_Int_Tables_number   1
_chemical_formula_structural   Al3P3C4NO13
_chemical_formula_sum   'Al12 P12 C16 N4 O52'
_cell_volume   1487.37121843
_cell_formula_units_Z   4
loop_
 _symmetry_equiv_pos_site_id
 _symmetry_equiv_pos_as_xyz
  1  'x, y, z'
loop_
 _atom_site_type_symbol
 _atom_site_label
 _atom_site_symmetry_multiplicity
 _atom_site_fract_x
 _atom_site_fract_y
 _atom_site_fract_z
 _atom_site_occupancy
  Al  Al0  1  0.62388700  0.14939100  0.10448500  1
  Al  Al1  1  0.62388700  0.85060900  0.89551500  1
  Al  Al2  1  0.37611300  0.64939100  0.39551500  1
  Al  Al3  1  0.37611300  0.35060900  0.60448500  1
  Al  Al4  1  0.62036700  0.14693000  0.39606000  1
  Al  Al5  1  0.62036700  0.85307000  0.60394000  1
  Al  Al6  1  0.37963300  0.64693000  0.10394000  1
  Al  Al7  1  0.37963300  0.35307000  0.89606000  1
  Al  Al8  1  0.86823500  0.14622400  0.74892200  1
  Al  Al9  1  0.86823500  0.85377600  0.25107800  1
  Al  Al10  1  0.13176500  0.64622400  0.75107800  1
  Al  Al11  1  0.13176500  0.35377600  0.24892200  1
  P  P0  1  0.86033700  0.15935000  0.25423400  1
  P  P1  1  0.86033700  0.84065000  0.74576600  1
  P  P2  1  0.13966300  0.65935000  0.24576600  1
  P  P3  1  0.13966300  0.34065000  0.75423400  1
  P  P4  1  0.62716800  0.15269600  0.60765800  1
  P  P5  1  0.62716800  0.84730400  0.39234200  1
  P  P6  1  0.37283200  0.65269600  0.89234200  1
  P  P7  1  0.37283200  0.34730400  0.10765800  1
  P  P8  1  0.63290000  0.15567100  0.89788900  1
  P  P9  1  0.63290000  0.84432900  0.10211100  1
  P  P10  1  0.36710000  0.65567100  0.60211100  1
  P  P11  1  0.36710000  0.34432900  0.39788900  1
  C  C0  1  0.80222300  0.44801200  0.57072400  1
  C  C1  1  0.80222300  0.55198800  0.42927600  1
  C  C2  1  0.19777700  0.94801200  0.92927600  1
  C  C3  1  0.19777700  0.05198800  0.07072400  1
  C  C4  1  0.94267200  0.54853800  0.43494100  1
  C  C5  1  0.94267200  0.45146200  0.56505900  1
  C  C6  1  0.05732800  0.04853800  0.06505900  1
  C  C7  1  0.05732800  0.95146200  0.93494100  1
  C  C8  1  0.79373500  0.42428300  0.06093800  1
  C  C9  1  0.79373500  0.57571700  0.93906200  1
  C  C10  1  0.20626500  0.92428300  0.43906200  1
  C  C11  1  0.20626500  0.07571700  0.56093800  1
  C  C12  1  0.94441000  0.57606800  0.93813400  1
  C  C13  1  0.94441000  0.42393200  0.06186600  1
  C  C14  1  0.05559000  0.07606800  0.56186600  1
  C  C15  1  0.05559000  0.92393200  0.43813400  1
  N  N0  1  0.01607000  0.50000000  0.50000000  1
  N  N1  1  0.98393000  0.00000000  0.00000000  1
  N  N2  1  0.75764000  0.50000000  0.00000000  1
  N  N3  1  0.24236000  0.00000000  0.50000000  1
  O  O0  1  0.73053900  0.50000000  0.50000000  1
  O  O1  1  0.26946100  0.00000000  0.00000000  1
  O  O2  1  0.00636100  0.50000000  0.00000000  1
  O  O3  1  0.99363900  0.00000000  0.50000000  1
  O  O4  1  0.76754700  0.17992200  0.17295800  1
  O  O5  1  0.76754700  0.82007800  0.82704200  1
  O  O6  1  0.23245300  0.67992200  0.32704200  1
  O  O7  1  0.23245300  0.32007800  0.67295800  1
  O  O8  1  0.77489800  0.18654300  0.33845000  1
  O  O9  1  0.77489800  0.81345700  0.66155000  1
  O  O10  1  0.22510200  0.68654300  0.16155000  1
  O  O11  1  0.22510200  0.31345700  0.83845000  1
  O  O12  1  0.91766300  0.01888100  0.25440000  1
  O  O13  1  0.91766300  0.98111900  0.74560000  1
  O  O14  1  0.08233700  0.51888100  0.24560000  1
  O  O15  1  0.08233700  0.48111900  0.75440000  1
  O  O16  1  0.98447600  0.25376600  0.25204000  1
  O  O17  1  0.98447600  0.74623400  0.74796000  1
  O  O18  1  0.01552400  0.75376600  0.24796000  1
  O  O19  1  0.01552400  0.24623400  0.75204000  1
  O  O20  1  0.76578900  0.17887500  0.65621700  1
  O  O21  1  0.76578900  0.82112500  0.34378300  1
  O  O22  1  0.23421100  0.67887500  0.84378300  1
  O  O23  1  0.23421100  0.32112500  0.15621700  1
  O  O24  1  0.65459400  0.16357800  0.50839800  1
  O  O25  1  0.65459400  0.83642200  0.49160200  1
  O  O26  1  0.34540600  0.66357800  0.99160200  1
  O  O27  1  0.34540600  0.33642200  0.00839800  1
  O  O28  1  0.57309100  0.01447100  0.62984200  1
  O  O29  1  0.57309100  0.98552900  0.37015800  1
  O  O30  1  0.42690900  0.51447100  0.87015800  1
  O  O31  1  0.42690900  0.48552900  0.12984200  1
  O  O32  1  0.51722600  0.25283300  0.63733600  1
  O  O33  1  0.51722600  0.74716700  0.36266400  1
  O  O34  1  0.48277400  0.75283300  0.86266400  1
  O  O35  1  0.48277400  0.24716700  0.13733600  1
  O  O36  1  0.66745600  0.18307600  0.99489100  1
  O  O37  1  0.66745600  0.81692400  0.00510900  1
  O  O38  1  0.33254400  0.68307600  0.50510900  1
  O  O39  1  0.33254400  0.31692400  0.49489100  1
  O  O40  1  0.76882800  0.17537700  0.84459600  1
  O  O41  1  0.76882800  0.82462300  0.15540400  1
  O  O42  1  0.23117200  0.67537700  0.65540400  1
  O  O43  1  0.23117200  0.32462300  0.34459600  1
  O  O44  1  0.57676500  0.01591800  0.88679100  1
  O  O45  1  0.57676500  0.98408200  0.11320900  1
  O  O46  1  0.42323500  0.51591800  0.61320900  1
  O  O47  1  0.42323500  0.48408200  0.38679100  1
  O  O48  1  0.51982400  0.25172300  0.86576800  1
  O  O49  1  0.51982400  0.74827700  0.13423200  1
  O  O50  1  0.48017600  0.75172300  0.63423200  1
  O  O51  1  0.48017600  0.24827700  0.36576800  1
loop_
_geom_bond_atom_site_label_1
_geom_bond_atom_site_label_2
_geom_bond_distance
_geom_bond_site_symmetry_2
Al0 O4 1.745309 1_555
Al0 O35 1.747373 1_555
Al0 O36 1.756259 1_554
Al0 O45 1.762399 1_545
Al1 O5 1.745309 1_555
Al1 O34 1.747373 1_555
Al1 O37 1.756259 1_556
Al1 O44 1.762399 1_565
Al2 O6 1.745309 1_555
Al2 O33 1.747373 1_555
Al2 O38 1.756259 1_555
Al2 O47 1.762399 1_555
Al3 O7 1.745309 1_555
Al3 O32 1.747373 1_555
Al3 O39 1.756259 1_555
Al3 O46 1.762399 1_555
Al4 O51 1.751443 1_555
Al4 O24 1.752157 1_555
Al4 O8 1.756857 1_555
Al4 O29 1.763732 1_545
Al5 O50 1.751443 1_555
Al5 O25 1.752157 1_555
Al5 O9 1.756857 1_555
Al5 O28 1.763732 1_565
Al6 O49 1.751443 1_555
Al6 O26 1.752157 1_554
Al6 O10 1.756857 1_555
Al6 O31 1.763732 1_555
Al7 O48 1.751443 1_555
Al7 O27 1.752157 1_556
Al7 O11 1.756857 1_555
Al7 O30 1.763732 1_555
Al8 O19 1.735376 1_655
Al8 O20 1.748154 1_555
Al8 O13 1.761767 1_545
Al8 O40 1.762977 1_555
Al9 O18 1.735376 1_655
Al9 O21 1.748154 1_555
Al9 O12 1.761767 1_565
Al9 O41 1.762977 1_555
Al10 O17 1.735376 1_455
Al10 O22 1.748154 1_555
Al10 O15 1.761767 1_555
Al10 O42 1.762977 1_555
Al11 O16 1.735376 1_455
Al11 O23 1.748154 1_555
Al11 O14 1.761767 1_555
Al11 O43 1.762977 1_555
C0 C5 1.335538 1_555
C0 O0 1.382566 1_555
C1 C4 1.335538 1_555
C1 O0 1.382566 1_555
C2 C7 1.335538 1_555
C2 O1 1.382566 1_566
C3 C6 1.335538 1_555
C3 O1 1.382566 1_555
C4 N0 1.310835 1_655
C5 N0 1.310835 1_655
C6 N1 1.310835 1_455
C7 N1 1.310835 1_466
C8 N2 1.259750 1_555
C9 N2 1.259750 1_556
C10 N3 1.259750 1_565
C11 N3 1.259750 1_555
C12 O2 1.359123 1_656
C13 O2 1.359123 1_655
C14 O3 1.359123 1_455
C15 O3 1.359123 1_465
O4 P0 1.534912 1_555
O5 P1 1.534912 1_555
O6 P2 1.534912 1_555
O7 P3 1.534912 1_555
O8 P0 1.544236 1_555
O9 P1 1.544236 1_555
O10 P2 1.544236 1_555
O11 P3 1.544236 1_555
O12 P0 1.543173 1_555
O13 P1 1.543173 1_555
O14 P2 1.543173 1_555
O15 P3 1.543173 1_555
O16 P0 1.526444 1_555
O17 P1 1.526444 1_555
O18 P2 1.526444 1_555
O19 P3 1.526444 1_555
O20 P4 1.532951 1_555
O21 P5 1.532951 1_555
O22 P6 1.532951 1_555
O23 P7 1.532951 1_555
O24 P4 1.540092 1_555
O25 P5 1.540092 1_555
O26 P6 1.540092 1_555
O27 P7 1.540092 1_555
O28 P4 1.548281 1_555
O29 P5 1.548281 1_555
O30 P6 1.548281 1_555
O31 P7 1.548281 1_555
O32 P4 1.533755 1_555
O33 P5 1.533755 1_555
O34 P6 1.533755 1_555
O35 P7 1.533755 1_555
O36 P8 1.541246 1_555
O37 P9 1.541246 1_555
O38 P10 1.541246 1_555
O39 P11 1.541246 1_555
O40 P8 1.537585 1_555
O41 P9 1.537585 1_555
O42 P10 1.537585 1_555
O43 P11 1.537585 1_555
O44 P8 1.541642 1_555
O45 P9 1.541642 1_555
O46 P10 1.541642 1_555
O47 P11 1.541642 1_555
O48 P8 1.538083 1_555
O49 P9 1.538083 1_555
O50 P10 1.538083 1_555
O51 P11 1.538083 1_555
