# generated using pymatgen
data_CuH5C6SO
_symmetry_space_group_name_H-M   'P 1'
_cell_length_a   4.06236500
_cell_length_b   5.37708500
_cell_length_c   28.56718600
_cell_angle_alpha   90.00000000
_cell_angle_beta   90.00000000
_cell_angle_gamma   90.00000000
_symmetry_Int_Tables_number   1
_chemical_formula_structural   CuH5C6SO
_chemical_formula_sum   'Cu4 H20 C24 S4 O4'
_cell_volume   624.01252393
_cell_formula_units_Z   4
loop_
 _symmetry_equiv_pos_site_id
 _symmetry_equiv_pos_as_xyz
  1  'x, y, z'
loop_
 _atom_site_type_symbol
 _atom_site_label
 _atom_site_symmetry_multiplicity
 _atom_site_fract_x
 _atom_site_fract_y
 _atom_site_fract_z
 _atom_site_occupancy
  Cu  Cu0  1  0.52034600  0.24916000  0.98589400  1
  Cu  Cu1  1  0.47965400  0.25084000  0.48589400  1
  Cu  Cu2  1  0.97965400  0.74916000  0.01410600  1
  Cu  Cu3  1  0.02034600  0.75084000  0.51410600  1
  H  H0  1  0.69914500  0.48038600  0.84413800  1
  H  H1  1  0.30085500  0.01961400  0.34413800  1
  H  H2  1  0.80085500  0.98038600  0.15586200  1
  H  H3  1  0.19914500  0.51961400  0.65586200  1
  H  H4  1  0.69283100  0.65223200  0.92572700  1
  H  H5  1  0.30716900  0.84776800  0.42572700  1
  H  H6  1  0.80716900  0.15223200  0.07427300  1
  H  H7  1  0.19283100  0.34776800  0.57427300  1
  H  H8  1  0.27072700  0.27578800  0.87840800  1
  H  H9  1  0.72927300  0.22421200  0.37840800  1
  H  H10  1  0.22927300  0.77578800  0.12159200  1
  H  H11  1  0.77072700  0.72421200  0.62159200  1
  H  H12  1  0.27261400  0.10151600  0.79687800  1
  H  H13  1  0.72738600  0.39848400  0.29687800  1
  H  H14  1  0.22738600  0.60151600  0.20312200  1
  H  H15  1  0.77261400  0.89848400  0.70312200  1
  H  H16  1  0.19197600  0.59162800  0.76465800  1
  H  H17  1  0.80802400  0.90837200  0.26465800  1
  H  H18  1  0.30802400  0.09162800  0.23534200  1
  H  H19  1  0.69197600  0.40837200  0.73534200  1
  C  C0  1  0.98857400  0.77813700  0.81656600  1
  C  C1  1  0.01142600  0.72186300  0.31656600  1
  C  C2  1  0.51142600  0.27813700  0.18343400  1
  C  C3  1  0.48857400  0.22186300  0.68343400  1
  C  C4  1  0.82291700  0.65469600  0.85242400  1
  C  C5  1  0.17708300  0.84530400  0.35242400  1
  C  C6  1  0.67708300  0.15469600  0.14757600  1
  C  C7  1  0.32291700  0.34530400  0.64757600  1
  C  C8  1  0.82654300  0.74920700  0.89797000  1
  C  C9  1  0.17345700  0.75079300  0.39797000  1
  C  C10  1  0.67345700  0.24920700  0.10203000  1
  C  C11  1  0.32654300  0.25079300  0.60203000  1
  C  C12  1  0.99738300  0.96971900  0.90774500  1
  C  C13  1  0.00261700  0.53028100  0.40774500  1
  C  C14  1  0.50261700  0.46971900  0.09225500  1
  C  C15  1  0.49738300  0.03028100  0.59225500  1
  C  C16  1  0.15152700  0.09811900  0.87108900  1
  C  C17  1  0.84847300  0.40188100  0.37108900  1
  C  C18  1  0.34847300  0.59811900  0.12891100  1
  C  C19  1  0.65152700  0.90188100  0.62891100  1
  C  C20  1  0.14816400  0.00383100  0.82537300  1
  C  C21  1  0.85183600  0.49616900  0.32537300  1
  C  C22  1  0.35183600  0.50383100  0.17462700  1
  C  C23  1  0.64816400  0.99616900  0.67462700  1
  S  S0  1  0.01530100  0.09210600  0.96606700  1
  S  S1  1  0.98469900  0.40789400  0.46606700  1
  S  S2  1  0.48469900  0.59210600  0.03393300  1
  S  S3  1  0.51530100  0.90789400  0.53393300  1
  O  O0  1  0.98164800  0.67421700  0.77143200  1
  O  O1  1  0.01835200  0.82578300  0.27143200  1
  O  O2  1  0.51835200  0.17421700  0.22856800  1
  O  O3  1  0.48164800  0.32578300  0.72856800  1
loop_
_geom_bond_atom_site_label_1
_geom_bond_atom_site_label_2
_geom_bond_distance
_geom_bond_site_symmetry_2
Cu0 S0 2.253185 1_655
Cu0 S0 2.289838 1_555
Cu0 S2 2.303216 1_556
Cu1 S1 2.253185 1_455
Cu1 S1 2.289838 1_555
Cu1 S3 2.303216 1_545
Cu2 S2 2.253185 1_555
Cu2 S2 2.289838 1_655
Cu2 S0 2.303216 1_664
Cu3 S3 2.253185 1_555
Cu3 S3 2.289838 1_455
Cu3 S1 2.303216 1_455
H16 O0 0.982197 1_455
H17 O1 0.982197 1_655
H18 O2 0.982197 1_555
H19 O3 0.982197 1_555
C0 O0 1.405511 1_555
C1 O1 1.405511 1_555
C2 O2 1.405511 1_555
C3 O3 1.405511 1_555
C4 H0 1.089651 1_555
C5 H1 1.089651 1_565
C6 H2 1.089651 1_545
C7 H3 1.089651 1_555
C8 H4 1.093484 1_555
C9 H5 1.093484 1_555
C10 H6 1.093484 1_555
C10 C14 1.401979 1_555
C11 H7 1.093484 1_555
C11 C15 1.401979 1_555
C12 C16 1.401903 1_665
C12 C8 1.401979 1_555
C12 S0 1.792833 1_665
C13 C17 1.401903 1_455
C13 C9 1.401979 1_555
C13 S1 1.792833 1_455
C14 C18 1.401903 1_555
C14 S2 1.792833 1_555
C15 C19 1.401903 1_545
C15 S3 1.792833 1_545
C16 H8 1.091272 1_555
C17 H9 1.091272 1_555
C18 H10 1.091272 1_555
C19 H11 1.091272 1_555
C20 H12 1.092759 1_555
C21 H13 1.092759 1_555
C22 H14 1.092759 1_555
C23 H15 1.092759 1_555
