# generated using pymatgen
data_Tl2Se3
_symmetry_space_group_name_H-M   'P 1'
_cell_length_a   7.13865310
_cell_length_b   7.13865310
_cell_length_c   7.59991692
_cell_angle_alpha   70.81770264
_cell_angle_beta   70.81770264
_cell_angle_gamma   53.02448822
_symmetry_Int_Tables_number   1
_chemical_formula_structural   Tl2Se3
_chemical_formula_sum   'Tl4 Se6'
_cell_volume   287.79361487
_cell_formula_units_Z   2
loop_
 _symmetry_equiv_pos_site_id
 _symmetry_equiv_pos_as_xyz
  1  'x, y, z'
loop_
 _atom_site_type_symbol
 _atom_site_label
 _atom_site_symmetry_multiplicity
 _atom_site_fract_x
 _atom_site_fract_y
 _atom_site_fract_z
 _atom_site_occupancy
  Tl  Tl0  1  0.79017137  0.43204897  0.52477253  1
  Tl  Tl1  1  0.56795103  0.20982863  0.97522747  1
  Tl  Tl2  1  0.20982863  0.56795103  0.47522747  1
  Tl  Tl3  1  0.43204897  0.79017137  0.02477253  1
  Se  Se0  1  0.15342986  0.84657014  0.75000000  1
  Se  Se1  1  0.84657014  0.15342986  0.25000000  1
  Se  Se2  1  0.98054825  0.64615341  0.06051329  1
  Se  Se3  1  0.35384659  0.01945175  0.43948671  1
  Se  Se4  1  0.01945175  0.35384659  0.93948671  1
  Se  Se5  1  0.64615341  0.98054825  0.56051329  1
loop_
_geom_bond_atom_site_label_1
_geom_bond_atom_site_label_2
_geom_bond_distance
_geom_bond_site_symmetry_2
Se0 Se3 2.670290 1_565
Se0 Se2 2.670290 1_456
Se0 Tl3 3.113279 1_556
Se0 Tl2 3.113279 1_555
Se1 Se4 2.670290 1_654
Se1 Se5 2.670290 1_545
Se1 Tl1 3.113279 1_554
Se1 Tl0 3.113279 1_555
Se2 Se4 2.381944 1_654
Se2 Tl1 3.251227 1_564
Se3 Se5 2.381944 1_545
Se3 Tl0 3.251227 1_455
Se4 Tl3 3.251227 1_546
Se5 Tl2 3.251227 1_655
