# generated using pymatgen
data_La3(Si3Pd10)2
_symmetry_space_group_name_H-M   'P 1'
_cell_length_a   8.74683393
_cell_length_b   8.74682853
_cell_length_c   8.74683465
_cell_angle_alpha   60.00005153
_cell_angle_beta   60.00005739
_cell_angle_gamma   60.00007656
_symmetry_Int_Tables_number   1
_chemical_formula_structural   La3(Si3Pd10)2
_chemical_formula_sum   'La3 Si6 Pd20'
_cell_volume   473.19268420
_cell_formula_units_Z   1
loop_
 _symmetry_equiv_pos_site_id
 _symmetry_equiv_pos_as_xyz
  1  'x, y, z'
loop_
 _atom_site_type_symbol
 _atom_site_label
 _atom_site_symmetry_multiplicity
 _atom_site_fract_x
 _atom_site_fract_y
 _atom_site_fract_z
 _atom_site_occupancy
  La  La0  1  0.74999999  0.74999974  0.75000035  1
  La  La1  1  0.24999994  0.25000001  0.24999993  1
  La  La2  1  -0.00000006  0.00000008  -0.00000020  1
  Si  Si0  1  0.73250110  0.73250108  0.26749884  1
  Si  Si1  1  0.26749867  0.26749908  0.73250114  1
  Si  Si2  1  0.73250091  0.26749870  0.73250123  1
  Si  Si3  1  0.26749892  0.73250114  0.26749892  1
  Si  Si4  1  0.26749858  0.73250096  0.73250124  1
  Si  Si5  1  0.73250127  0.26749918  0.26749884  1
  Pd  Pd0  1  0.61414022  0.61414090  0.61414043  1
  Pd  Pd1  1  0.38585948  0.38585961  0.38585924  1
  Pd  Pd2  1  0.15757844  0.61414033  0.61414037  1
  Pd  Pd3  1  0.61413968  0.15757842  0.61414038  1
  Pd  Pd4  1  0.84242127  0.38585994  0.38585976  1
  Pd  Pd5  1  0.38585959  0.84242158  0.38585916  1
  Pd  Pd6  1  0.61414055  0.61414064  0.15757839  1
  Pd  Pd7  1  0.38585988  0.38585942  0.84242127  1
  Pd  Pd8  1  0.00000078  0.00000072  0.65249716  1
  Pd  Pd9  1  0.99999951  0.99999881  0.34750215  1
  Pd  Pd10  1  0.34750252  0.65249850  -0.00000067  1
  Pd  Pd11  1  0.65249788  0.34750155  0.00000053  1
  Pd  Pd12  1  -0.00000007  0.65249776  0.00000099  1
  Pd  Pd13  1  0.65249791  0.00000070  0.34750201  1
  Pd  Pd14  1  0.00000040  0.34750156  -0.00000019  1
  Pd  Pd15  1  0.34750193  -0.00000052  0.65249839  1
  Pd  Pd16  1  0.65249731  0.00000027  0.00000138  1
  Pd  Pd17  1  0.34750266  0.99999912  0.99999888  1
  Pd  Pd18  1  0.99999909  0.65249853  0.34750210  1
  Pd  Pd19  1  0.00000066  0.34750118  0.65249697  1
loop_
_geom_bond_atom_site_label_1
_geom_bond_atom_site_label_2
_geom_bond_distance
_geom_bond_site_symmetry_2
La0 Pd0 2.910826 1_555
La0 Pd6 2.910827 1_556
La0 Pd3 2.910830 1_565
La0 Pd2 2.910830 1_655
La0 Pd17 3.367872 1_555
La0 Pd10 3.367873 1_556
La0 Pd9 3.367876 1_555
La0 Pd18 3.367880 1_555
La0 Pd11 3.367880 1_556
La0 Pd14 3.367882 1_656
La0 Pd15 3.367882 1_565
La0 Pd12 3.367884 1_656
La0 Pd13 3.367884 1_565
La0 Pd8 3.367886 1_665
La0 Pd16 3.367887 1_566
La0 Pd19 3.367889 1_655
La1 Pd1 2.910826 1_555
La1 Pd5 2.910828 1_545
La1 Pd7 2.910831 1_554
La1 Pd4 2.910832 1_455
La1 Pd19 3.367871 1_555
La1 Pd8 3.367872 1_555
La1 Pd16 3.367873 1_555
La1 Pd12 3.367877 1_555
La1 Pd11 3.367878 1_555
La1 Pd14 3.367878 1_555
La1 Pd13 3.367882 1_555
La1 Pd18 3.367884 1_455
La1 Pd15 3.367884 1_555
La1 Pd10 3.367884 1_555
La1 Pd9 3.367889 1_445
La1 Pd17 3.367890 1_544
La2 Pd14 3.039538 1_555
La2 Pd12 3.039538 1_545
La2 Pd9 3.039538 1_445
La2 Pd16 3.039540 1_455
La2 Pd17 3.039540 1_544
La2 Pd8 3.039542 1_554
La2 Pd15 3.039542 1_554
La2 Pd11 3.039543 1_455
La2 Pd18 3.039543 1_445
La2 Pd19 3.039544 1_554
La2 Pd10 3.039546 1_545
La2 Pd13 3.039546 1_455
Pd0 Si0 2.476000 1_555
Pd0 Si4 2.476000 1_555
Pd0 Si2 2.476003 1_555
Pd1 Si3 2.475998 1_555
Pd1 Si5 2.476002 1_555
Pd1 Si1 2.476002 1_555
Pd2 Si1 2.475996 1_555
Pd2 Si4 2.475997 1_555
Pd2 Si3 2.475999 1_555
Pd3 Si1 2.475996 1_555
Pd3 Si5 2.475999 1_555
Pd3 Si2 2.476002 1_555
Pd4 Si0 2.475995 1_555
Pd4 Si5 2.475997 1_555
Pd4 Si2 2.475999 1_555
Pd5 Si3 2.475995 1_555
Pd5 Si0 2.476000 1_555
Pd5 Si4 2.476003 1_555
Pd6 Si0 2.475995 1_555
Pd6 Si5 2.475997 1_555
Pd6 Si3 2.476000 1_555
Pd7 Si2 2.475996 1_555
Pd7 Si1 2.475997 1_555
Pd7 Si4 2.475998 1_555
Pd8 Si4 2.442172 1_545
Pd8 Si2 2.442173 1_455
Pd9 Si3 2.442168 1_655
Pd9 Si5 2.442174 1_565
Pd10 Si4 2.442171 1_554
Pd10 Si3 2.442173 1_555
Pd11 Si5 2.442170 1_555
Pd11 Si2 2.442174 1_554
Pd12 Si0 2.442168 1_455
Pd12 Si4 2.442174 1_554
Pd13 Si5 2.442167 1_555
Pd13 Si0 2.442176 1_545
Pd14 Si1 2.442169 1_554
Pd14 Si5 2.442173 1_455
Pd15 Si4 2.442169 1_545
Pd15 Si1 2.442174 1_555
Pd16 Si0 2.442167 1_545
Pd16 Si2 2.442174 1_554
Pd17 Si1 2.442172 1_565
Pd17 Si3 2.442172 1_556
Pd18 Si0 2.442167 1_555
Pd18 Si3 2.442176 1_655
Pd19 Si2 2.442171 1_455
Pd19 Si1 2.442173 1_555
