# generated using pymatgen
data_NbAlRu2
_symmetry_space_group_name_H-M   'P 1'
_cell_length_a   4.36539519
_cell_length_b   4.36539585
_cell_length_c   4.36539496
_cell_angle_alpha   59.99999919
_cell_angle_beta   59.99999417
_cell_angle_gamma   59.99999668
_symmetry_Int_Tables_number   1
_chemical_formula_structural   NbAlRu2
_chemical_formula_sum   'Nb1 Al1 Ru2'
_cell_volume   58.82415663
_cell_formula_units_Z   1
loop_
 _symmetry_equiv_pos_site_id
 _symmetry_equiv_pos_as_xyz
  1  'x, y, z'
loop_
 _atom_site_type_symbol
 _atom_site_label
 _atom_site_symmetry_multiplicity
 _atom_site_fract_x
 _atom_site_fract_y
 _atom_site_fract_z
 _atom_site_occupancy
  Nb  Nb0  1  0.50000000  0.50000000  0.50000000  1
  Al  Al0  1  0.00000000  0.00000000  -0.00000000  1
  Ru  Ru0  1  0.25000000  0.25000000  0.25000000  1
  Ru  Ru1  1  0.75000000  0.75000000  0.75000000  1
loop_
_geom_bond_atom_site_label_1
_geom_bond_atom_site_label_2
_geom_bond_distance
_geom_bond_site_symmetry_2
Nb0 Ru0 2.673247 1_556
Nb0 Ru1 2.673247 1_554
Nb0 Ru0 2.673248 1_655
Nb0 Ru1 2.673248 1_455
Nb0 Ru1 2.673248 1_555
Nb0 Ru0 2.673248 1_555
Nb0 Ru1 2.673248 1_545
Nb0 Ru0 2.673248 1_565
Al0 Ru1 2.673247 1_445
Al0 Ru0 2.673247 1_554
Al0 Ru0 2.673248 1_455
Al0 Ru1 2.673248 1_544
Al0 Ru0 2.673248 1_555
Al0 Ru1 2.673248 1_444
Al0 Ru0 2.673248 1_545
Al0 Ru1 2.673248 1_454
