# generated using pymatgen
data_Ir(N3O4)3
_symmetry_space_group_name_H-M   'P 1'
_cell_length_a   6.69269780
_cell_length_b   6.69269780
_cell_length_c   6.69269780
_cell_angle_alpha   60.00000000
_cell_angle_beta   60.00000000
_cell_angle_gamma   60.00000000
_symmetry_Int_Tables_number   1
_chemical_formula_structural   Ir(N3O4)3
_chemical_formula_sum   'Ir1 N9 O12'
_cell_volume   211.97695476
_cell_formula_units_Z   1
loop_
 _symmetry_equiv_pos_site_id
 _symmetry_equiv_pos_as_xyz
  1  'x, y, z'
loop_
 _atom_site_type_symbol
 _atom_site_label
 _atom_site_symmetry_multiplicity
 _atom_site_fract_x
 _atom_site_fract_y
 _atom_site_fract_z
 _atom_site_occupancy
  Ir  Ir0  1  0.00000000  0.00000000  0.00000000  1
  N  N0  1  0.71229000  0.71229000  0.28771000  1
  N  N1  1  0.28771000  0.71229000  0.28771000  1
  N  N2  1  0.71229000  0.28771000  0.28771000  1
  N  N3  1  0.28771000  0.28771000  0.71229000  1
  N  N4  1  0.71229000  0.28771000  0.71229000  1
  N  N5  1  0.28771000  0.71229000  0.71229000  1
  N  N6  1  0.50000000  0.50000000  0.50000000  1
  N  N7  1  0.75000000  0.75000000  0.75000000  1
  N  N8  1  0.25000000  0.25000000  0.25000000  1
  O  O0  1  0.00000000  0.66296600  0.33703400  1
  O  O1  1  0.00000000  0.00000000  0.33703400  1
  O  O2  1  0.66296600  0.00000000  0.33703400  1
  O  O3  1  0.00000000  0.33703400  0.66296600  1
  O  O4  1  0.66296600  0.33703400  0.00000000  1
  O  O5  1  0.00000000  0.33703400  0.00000000  1
  O  O6  1  0.33703400  0.00000000  0.00000000  1
  O  O7  1  0.33703400  0.66296600  0.00000000  1
  O  O8  1  0.33703400  0.00000000  0.66296600  1
  O  O9  1  0.66296600  0.00000000  0.00000000  1
  O  O10  1  0.00000000  0.00000000  0.66296600  1
  O  O11  1  0.00000000  0.66296600  0.00000000  1
loop_
_geom_bond_atom_site_label_1
_geom_bond_atom_site_label_2
_geom_bond_distance
_geom_bond_site_symmetry_2
Ir0 O9 2.255667 1_455
Ir0 O11 2.255667 1_545
Ir0 O10 2.255667 1_554
Ir0 O7 2.255667 1_545
Ir0 O3 2.255667 1_554
Ir0 O4 2.255667 1_455
Ir0 O0 2.255667 1_545
Ir0 O2 2.255667 1_455
Ir0 O8 2.255667 1_554
Ir0 O5 2.255667 1_555
Ir0 O6 2.255667 1_555
Ir0 O1 2.255667 1_555
N0 O11 1.953648 1_655
N0 O9 1.953648 1_565
N0 O2 1.953648 1_565
N0 O0 1.953648 1_655
N0 N6 2.009304 1_555
N1 O0 1.953648 1_555
N1 O7 1.953648 1_555
N1 O6 1.953648 1_565
N1 O1 1.953648 1_565
N1 N6 2.009304 1_555
N2 O2 1.953648 1_555
N2 O4 1.953648 1_555
N2 O5 1.953648 1_655
N2 O1 1.953648 1_655
N2 N6 2.009304 1_555
N3 O3 1.953648 1_555
N3 O8 1.953648 1_555
N3 O6 1.953648 1_556
N3 O5 1.953648 1_556
N3 N6 2.009304 1_555
N4 O10 1.953648 1_655
N4 O9 1.953648 1_556
N4 O3 1.953648 1_655
N4 O4 1.953648 1_556
N4 N6 2.009304 1_555
N5 O11 1.953648 1_556
N5 O10 1.953648 1_565
N5 O8 1.953648 1_565
N5 O7 1.953648 1_556
N5 N6 2.009304 1_555
