# generated using pymatgen
data_CaMg14Ga
_symmetry_space_group_name_H-M   'P 1'
_cell_length_a   6.44335518
_cell_length_b   6.34142785
_cell_length_c   10.50230810
_cell_angle_alpha   90.00000000
_cell_angle_beta   90.00000000
_cell_angle_gamma   119.47808298
_symmetry_Int_Tables_number   1
_chemical_formula_structural   CaMg14Ga
_chemical_formula_sum   'Ca1 Mg14 Ga1'
_cell_volume   373.57224862
_cell_formula_units_Z   1
loop_
 _symmetry_equiv_pos_site_id
 _symmetry_equiv_pos_as_xyz
  1  'x, y, z'
loop_
 _atom_site_type_symbol
 _atom_site_label
 _atom_site_symmetry_multiplicity
 _atom_site_fract_x
 _atom_site_fract_y
 _atom_site_fract_z
 _atom_site_occupancy
  Ca  Ca0  1  0.15701710  0.32850805  0.12500000  1
  Mg  Mg0  1  0.16815670  0.33407785  0.62500000  1
  Mg  Mg1  1  0.16195538  0.83097719  0.62500000  1
  Mg  Mg2  1  0.65575241  0.32208665  0.12500000  1
  Mg  Mg3  1  0.66609603  0.33736834  0.62500000  1
  Mg  Mg4  1  0.65575241  0.83366476  0.12500000  1
  Mg  Mg5  1  0.66609603  0.82872669  0.62500000  1
  Mg  Mg6  1  0.33535341  0.16334616  0.38157532  1
  Mg  Mg7  1  0.33535341  0.16334616  0.86842468  1
  Mg  Mg8  1  0.33535341  0.67200825  0.38157532  1
  Mg  Mg9  1  0.33535341  0.67200825  0.86842468  1
  Mg  Mg10  1  0.82962143  0.16481121  0.38601158  1
  Mg  Mg11  1  0.82962143  0.16481121  0.86398842  1
  Mg  Mg12  1  0.84016646  0.67008373  0.36556893  1
  Mg  Mg13  1  0.84016646  0.67008373  0.88443107  1
  Ga  Ga0  1  0.18818457  0.84409178  0.12500000  1
loop_
_geom_bond_atom_site_label_1
_geom_bond_atom_site_label_2
_geom_bond_distance
_geom_bond_site_symmetry_2
Ca0 Ga0 3.175530 1_555
Ca0 Ga0 3.175530 1_545
Ca0 Mg4 3.209984 1_445
Ca0 Mg2 3.209984 1_455
Ca0 Mg4 3.233761 1_555
Ca0 Mg2 3.233761 1_555
Ca0 Mg7 3.295888 1_554
Ca0 Mg6 3.295888 1_555
Ca0 Mg9 3.295894 1_554
Ca0 Mg8 3.295894 1_555
Ca0 Mg10 3.299516 1_455
Ca0 Mg11 3.299516 1_454
Mg0 Mg10 3.147324 1_455
Mg0 Mg11 3.147324 1_455
Mg0 Mg6 3.164889 1_555
Mg0 Mg7 3.164889 1_555
Mg0 Mg8 3.164896 1_555
Mg0 Mg9 3.164896 1_555
Mg0 Mg1 3.170905 1_545
Mg0 Mg1 3.170905 1_555
Mg0 Mg5 3.198183 1_555
Mg0 Mg3 3.198183 1_555
Mg0 Mg5 3.245274 1_445
Mg0 Mg3 3.245274 1_455
Mg1 Mg8 3.147827 1_555
Mg1 Mg9 3.147827 1_555
Mg1 Mg6 3.147833 1_565
Mg1 Mg7 3.147833 1_565
Mg1 Mg3 3.187999 1_455
Mg1 Mg5 3.187999 1_455
Mg1 Mg3 3.255404 1_565
Mg1 Mg5 3.255404 1_555
Mg1 Mg12 3.268265 1_455
Mg1 Mg13 3.268265 1_455
Mg2 Mg4 3.097292 1_545
Mg2 Mg7 3.238985 1_554
Mg2 Mg6 3.238985 1_555
Mg2 Mg4 3.244136 1_555
Mg3 Mg5 3.115914 1_555
Mg3 Mg6 3.159211 1_555
Mg3 Mg7 3.159211 1_555
Mg3 Mg5 3.225514 1_545
Mg4 Mg9 3.238985 1_554
Mg4 Mg8 3.238985 1_555
Mg5 Mg8 3.159211 1_555
Mg5 Mg9 3.159211 1_555
Mg6 Mg8 3.115784 1_545
Mg6 Mg8 3.225644 1_555
Mg7 Mg9 3.115784 1_545
Mg7 Mg9 3.225644 1_555
Mg10 Mg3 3.121228 1_555
Mg10 Mg5 3.121234 1_545
Mg10 Mg12 3.178525 1_545
Mg10 Mg12 3.178525 1_555
Mg10 Mg8 3.180524 1_545
Mg10 Mg6 3.180524 1_555
Mg10 Mg8 3.263525 1_655
Mg10 Mg6 3.263525 1_655
Mg10 Mg2 3.296020 1_555
Mg10 Mg4 3.296026 1_545
Mg11 Mg3 3.121228 1_555
Mg11 Mg5 3.121234 1_545
Mg11 Mg13 3.178525 1_545
Mg11 Mg13 3.178525 1_555
Mg11 Mg9 3.180524 1_545
Mg11 Mg7 3.180524 1_555
Mg11 Mg9 3.263525 1_655
Mg11 Mg7 3.263525 1_655
Mg11 Mg2 3.296020 1_556
Mg11 Mg4 3.296026 1_546
Mg12 Mg4 3.175603 1_555
Mg12 Mg2 3.175610 1_555
Mg12 Mg6 3.189111 1_665
Mg12 Mg8 3.189111 1_655
Mg12 Mg6 3.263045 1_555
Mg12 Mg8 3.263046 1_555
Mg12 Mg5 3.286966 1_555
Mg12 Mg3 3.286972 1_555
Mg13 Mg4 3.175603 1_556
Mg13 Mg2 3.175610 1_556
Mg13 Mg7 3.189111 1_665
Mg13 Mg9 3.189111 1_655
Mg13 Mg7 3.263045 1_555
Mg13 Mg9 3.263046 1_555
Mg13 Mg5 3.286966 1_555
Mg13 Mg3 3.286972 1_555
Ga0 Mg2 3.045788 1_565
Ga0 Mg4 3.045788 1_555
Ga0 Mg13 3.192818 1_454
Ga0 Mg12 3.192818 1_455
Ga0 Mg9 3.220172 1_554
Ga0 Mg8 3.220172 1_555
Ga0 Mg7 3.220178 1_564
Ga0 Mg6 3.220178 1_565
Ga0 Mg2 3.398599 1_455
Ga0 Mg4 3.398599 1_455
