# generated using pymatgen
data_V2CuS4
_symmetry_space_group_name_H-M   'P 1'
_cell_length_a   6.94402600
_cell_length_b   6.96446237
_cell_length_c   6.96446237
_cell_angle_alpha   60.54848320
_cell_angle_beta   60.09702109
_cell_angle_gamma   60.09702109
_symmetry_Int_Tables_number   1
_chemical_formula_structural   V2CuS4
_chemical_formula_sum   'V4 Cu2 S8'
_cell_volume   239.48599209
_cell_formula_units_Z   2
loop_
 _symmetry_equiv_pos_site_id
 _symmetry_equiv_pos_as_xyz
  1  'x, y, z'
loop_
 _atom_site_type_symbol
 _atom_site_label
 _atom_site_symmetry_multiplicity
 _atom_site_fract_x
 _atom_site_fract_y
 _atom_site_fract_z
 _atom_site_occupancy
  V  V0  1  0.01624800  0.25269400  0.25269400  1
  V  V1  1  0.47836500  0.25269400  0.25269400  1
  V  V2  1  0.50626900  0.23061600  0.75684600  1
  V  V3  1  0.50626900  0.75684600  0.23061600  1
  Cu  Cu0  1  0.12572900  0.87427100  0.87427100  1
  Cu  Cu1  1  0.87412800  0.62587200  0.62587200  1
  S  S0  1  0.25390800  0.00591600  0.00591600  1
  S  S1  1  0.73426000  0.00591600  0.00591600  1
  S  S2  1  0.73997000  0.49345100  0.49345100  1
  S  S3  1  0.27312800  0.49345100  0.49345100  1
  S  S4  1  0.74548900  0.02269300  0.48632800  1
  S  S5  1  0.74548900  0.48632800  0.02269300  1
  S  S6  1  0.25637400  0.00076000  0.48649200  1
  S  S7  1  0.25637400  0.48649200  0.00076000  1
loop_
_geom_bond_atom_site_label_1
_geom_bond_atom_site_label_2
_geom_bond_distance
_geom_bond_site_symmetry_2
Cu0 S7 2.215199 1_556
Cu0 S6 2.215199 1_565
Cu0 S1 2.219765 1_466
Cu0 S0 2.219765 1_566
Cu1 S2 2.262430 1_555
Cu1 S3 2.262430 1_655
Cu1 S4 2.267841 1_565
Cu1 S5 2.267841 1_556
S0 V3 2.358571 1_545
S0 V2 2.358571 1_554
S0 V0 2.424851 1_555
S1 V3 2.358571 1_545
S1 V2 2.358571 1_554
S1 V1 2.424851 1_555
S2 V0 2.377710 1_655
S2 V2 2.457841 1_555
S2 V3 2.457841 1_555
S3 V1 2.377710 1_555
S3 V2 2.457841 1_555
S3 V3 2.457841 1_555
S4 V2 2.360045 1_555
S4 V1 2.477475 1_555
S4 V0 2.477486 1_655
S5 V3 2.360045 1_555
S5 V1 2.477475 1_555
S5 V0 2.477486 1_655
S6 V0 2.343240 1_555
S6 V1 2.343244 1_555
S6 V3 2.455001 1_545
S7 V0 2.343240 1_555
S7 V1 2.343244 1_555
S7 V2 2.455001 1_554
