# generated using pymatgen
data_Th4FeSn8
_symmetry_space_group_name_H-M   'P 1'
_cell_length_a   4.49877000
_cell_length_b   4.52441300
_cell_length_c   17.19645300
_cell_angle_alpha   90.00000000
_cell_angle_beta   90.00000000
_cell_angle_gamma   90.00000000
_symmetry_Int_Tables_number   1
_chemical_formula_structural   Th4FeSn8
_chemical_formula_sum   'Th4 Fe1 Sn8'
_cell_volume   350.02165104
_cell_formula_units_Z   1
loop_
 _symmetry_equiv_pos_site_id
 _symmetry_equiv_pos_as_xyz
  1  'x, y, z'
loop_
 _atom_site_type_symbol
 _atom_site_label
 _atom_site_symmetry_multiplicity
 _atom_site_fract_x
 _atom_site_fract_y
 _atom_site_fract_z
 _atom_site_occupancy
  Th  Th0  1  0.25000000  0.00000000  0.39832900  1
  Th  Th1  1  0.25000000  0.50000000  0.89480700  1
  Th  Th2  1  0.75000000  0.50000000  0.10625900  1
  Th  Th3  1  0.75000000  0.00000000  0.60225000  1
  Fe  Fe0  1  0.25000000  0.00000000  0.19333500  1
  Sn  Sn0  1  0.25000000  0.50000000  0.25958200  1
  Sn  Sn1  1  0.25000000  0.00000000  0.74812000  1
  Sn  Sn2  1  0.75000000  0.00000000  0.26027700  1
  Sn  Sn3  1  0.75000000  0.50000000  0.74947200  1
  Sn  Sn4  1  0.25000000  0.00000000  0.04925900  1
  Sn  Sn5  1  0.25000000  0.50000000  0.56151200  1
  Sn  Sn6  1  0.75000000  0.50000000  0.43758100  1
  Sn  Sn7  1  0.75000000  0.00000000  0.93621700  1
loop_
_geom_bond_atom_site_label_1
_geom_bond_atom_site_label_2
_geom_bond_distance
_geom_bond_site_symmetry_2
Fe0 Sn4 2.477596 1_555
Fe0 Sn2 2.526839 1_455
Fe0 Sn2 2.526839 1_555
Fe0 Sn0 2.532861 1_545
Fe0 Sn0 2.532861 1_555
Fe0 Th2 3.524133 1_555
Fe0 Th2 3.524133 1_545
Fe0 Th2 3.524133 1_445
Fe0 Th2 3.524133 1_455
Sn0 Sn2 3.190212 1_455
Sn0 Sn2 3.190212 1_565
Sn0 Sn2 3.190212 1_555
Sn0 Sn2 3.190212 1_465
Sn0 Th0 3.287912 1_565
Sn0 Th0 3.287912 1_555
Sn0 Th2 3.465755 1_455
Sn0 Th2 3.465755 1_555
Sn1 Sn3 3.190275 1_545
Sn1 Sn3 3.190275 1_455
Sn1 Sn3 3.190275 1_555
Sn1 Sn3 3.190275 1_445
Sn1 Th3 3.369278 1_555
Sn1 Th3 3.369278 1_455
Sn1 Th1 3.388298 1_555
Sn1 Th1 3.388298 1_545
Sn2 Th0 3.270418 1_555
Sn2 Th0 3.270418 1_655
Sn2 Th2 3.483169 1_555
Sn2 Th2 3.483169 1_545
Sn3 Th1 3.362435 1_655
Sn3 Th1 3.362435 1_555
Sn3 Th3 3.395153 1_555
Sn3 Th3 3.395153 1_565
Sn4 Sn7 2.972972 1_554
Sn4 Sn7 2.972972 1_454
Sn4 Th2 3.337379 1_445
Sn4 Th2 3.337379 1_555
Sn4 Th2 3.337379 1_545
Sn4 Th2 3.337379 1_455
Sn4 Th1 3.488847 1_544
Sn4 Th1 3.488847 1_554
Sn5 Sn6 3.098650 1_455
Sn5 Sn6 3.098650 1_555
Sn5 Th3 3.266203 1_565
Sn5 Th3 3.266203 1_555
Sn5 Th3 3.266203 1_465
Sn5 Th3 3.266203 1_455
Sn5 Th0 3.604464 1_565
Sn5 Th0 3.604464 1_555
Sn6 Th0 3.260817 1_665
Sn6 Th0 3.260817 1_565
Sn6 Th0 3.260817 1_555
Sn6 Th0 3.260817 1_655
Sn6 Th3 3.624394 1_555
Sn6 Th3 3.624394 1_565
Sn7 Th1 3.268701 1_645
Sn7 Th1 3.268701 1_555
Sn7 Th1 3.268701 1_545
Sn7 Th1 3.268701 1_655
Sn7 Th2 3.697033 1_546
Sn7 Th2 3.697033 1_556
