# generated using pymatgen
data_PrGdTiVO6
_symmetry_space_group_name_H-M   'P 1'
_cell_length_a   11.08586513
_cell_length_b   11.11328452
_cell_length_c   11.11867391
_cell_angle_alpha   90.00000000
_cell_angle_beta   90.00000000
_cell_angle_gamma   90.00000000
_symmetry_Int_Tables_number   1
_chemical_formula_structural   PrGdTiVO6
_chemical_formula_sum   'Pr4 Gd4 Ti4 V4 O24'
_cell_volume   1369.82477676
_cell_formula_units_Z   4
loop_
 _symmetry_equiv_pos_site_id
 _symmetry_equiv_pos_as_xyz
  1  'x, y, z'
loop_
 _atom_site_type_symbol
 _atom_site_label
 _atom_site_symmetry_multiplicity
 _atom_site_fract_x
 _atom_site_fract_y
 _atom_site_fract_z
 _atom_site_occupancy
  Pr  Pr0  1  0.50000000  0.00000000  0.50000000  1
  Pr  Pr1  1  0.50000000  0.50000000  0.00000000  1
  Pr  Pr2  1  -0.00000000  0.50000000  0.00000000  1
  Pr  Pr3  1  -0.00000000  0.00000000  0.50000000  1
  Gd  Gd0  1  -0.00000000  0.50000000  0.50000000  1
  Gd  Gd1  1  0.50000000  0.00000000  -0.00000000  1
  Gd  Gd2  1  -0.00000000  0.00000000  0.00000000  1
  Gd  Gd3  1  0.50000000  0.50000000  0.50000000  1
  Ti  Ti0  1  0.75000000  0.75000000  0.75000000  1
  Ti  Ti1  1  0.25000000  0.25000000  0.75000000  1
  Ti  Ti2  1  0.25000000  0.75000000  0.25000000  1
  Ti  Ti3  1  0.75000000  0.25000000  0.25000000  1
  V  V0  1  0.25000000  0.25000000  0.25000000  1
  V  V1  1  0.75000000  0.75000000  0.25000000  1
  V  V2  1  0.75000000  0.25000000  0.75000000  1
  V  V3  1  0.25000000  0.75000000  0.75000000  1
  O  O0  1  0.98379731  0.19644752  0.28743621  1
  O  O1  1  0.01620269  0.80355248  0.28743621  1
  O  O2  1  0.01620269  0.19644752  0.71256379  1
  O  O3  1  0.98379731  0.80355248  0.71256379  1
  O  O4  1  0.29528867  0.98321257  0.19362358  1
  O  O5  1  0.29528867  0.01678743  0.80637642  1
  O  O6  1  0.70471133  0.01678743  0.19362358  1
  O  O7  1  0.70471133  0.98321257  0.80637642  1
  O  O8  1  0.19936571  0.29084093  0.98350364  1
  O  O9  1  0.80063429  0.29084093  0.01649636  1
  O  O10  1  0.19936571  0.70915907  0.01649636  1
  O  O11  1  0.80063429  0.70915907  0.98350364  1
  O  O12  1  0.51620269  0.30355248  0.21256379  1
  O  O13  1  0.48379731  0.69644752  0.21256379  1
  O  O14  1  0.48379731  0.30355248  0.78743621  1
  O  O15  1  0.51620269  0.69644752  0.78743621  1
  O  O16  1  0.20471133  0.51678743  0.30637642  1
  O  O17  1  0.20471133  0.48321257  0.69362358  1
  O  O18  1  0.79528867  0.48321257  0.30637642  1
  O  O19  1  0.79528867  0.51678743  0.69362358  1
  O  O20  1  0.30063429  0.20915907  0.51649636  1
  O  O21  1  0.69936571  0.20915907  0.48350364  1
  O  O22  1  0.30063429  0.79084093  0.48350364  1
  O  O23  1  0.69936571  0.79084093  0.51649636  1
loop_
_geom_bond_atom_site_label_1
_geom_bond_atom_site_label_2
_geom_bond_distance
_geom_bond_site_symmetry_2
Gd0 O18 3.133640 1_455
Gd0 O19 3.133640 1_455
Gd0 O16 3.133640 1_555
Gd0 O17 3.133640 1_555
Gd1 O6 3.133640 1_555
Gd1 O7 3.133640 1_544
Gd1 O4 3.133640 1_545
Gd1 O5 3.133640 1_554
O0 Ti3 2.691675 1_555
O0 Pr3 3.222470 1_655
O1 Ti2 2.691675 1_555
O1 Pr3 3.222470 1_565
O2 Ti1 2.691675 1_555
O2 Pr3 3.222470 1_555
O3 Ti0 2.691675 1_555
O3 Pr3 3.222470 1_665
O4 Ti2 2.713336 1_555
O5 Ti1 2.713336 1_555
O6 Ti3 2.713336 1_555
O7 Ti0 2.713336 1_555
O8 Ti1 2.694737 1_555
O8 Pr2 3.212695 1_556
O9 Ti3 2.694737 1_555
O9 Pr2 3.212695 1_655
O10 Ti2 2.694737 1_555
O10 Pr2 3.212695 1_555
O11 Ti0 2.694737 1_555
O11 Pr2 3.212695 1_656
O12 Ti3 2.691675 1_555
O12 Pr1 3.222470 1_555
O13 Ti2 2.691675 1_555
O13 Pr1 3.222470 1_555
O14 Ti1 2.691675 1_555
O14 Pr1 3.222470 1_556
O15 Ti0 2.691675 1_555
O15 Pr1 3.222470 1_556
O16 Ti2 2.713336 1_555
O17 Ti1 2.713336 1_555
O18 Ti3 2.713336 1_555
O19 Ti0 2.713336 1_555
O20 Ti1 2.694737 1_555
O20 Pr0 3.212695 1_555
O21 Ti3 2.694737 1_555
O21 Pr0 3.212695 1_555
O22 Ti2 2.694737 1_555
O22 Pr0 3.212695 1_565
O23 Ti0 2.694737 1_555
O23 Pr0 3.212695 1_565
