# generated using pymatgen
data_Ca3Ga2(Ge2O7)2
_symmetry_space_group_name_H-M   'P 1'
_cell_length_a   8.05349351
_cell_length_b   8.05349351
_cell_length_c   4.98169759
_cell_angle_alpha   88.71731054
_cell_angle_beta   88.71731054
_cell_angle_gamma   61.02253073
_symmetry_Int_Tables_number   1
_chemical_formula_structural   Ca3Ga2(Ge2O7)2
_chemical_formula_sum   'Ca3 Ga2 Ge4 O14'
_cell_volume   282.56164861
_cell_formula_units_Z   1
loop_
 _symmetry_equiv_pos_site_id
 _symmetry_equiv_pos_as_xyz
  1  'x, y, z'
loop_
 _atom_site_type_symbol
 _atom_site_label
 _atom_site_symmetry_multiplicity
 _atom_site_fract_x
 _atom_site_fract_y
 _atom_site_fract_z
 _atom_site_occupancy
  Ca  Ca0  1  0.57714798  0.99463696  0.99938605  1
  Ca  Ca1  1  0.00536304  0.42285202  0.00061395  1
  Ca  Ca2  1  0.41014398  0.58985602  0.00000000  1
  Ga  Ga0  1  0.23726092  0.98956480  0.51791070  1
  Ga  Ga1  1  0.01043520  0.76273908  0.48208930  1
  Ge  Ge0  1  0.75459139  0.24540861  0.50000000  1
  Ge  Ge1  1  -0.00033224  0.00033224  0.00000000  1
  Ge  Ge2  1  0.67070615  0.66745104  0.53360869  1
  Ge  Ge3  1  0.33254896  0.32929385  0.46639131  1
  O  O0  1  0.77995588  0.08373451  0.75578600  1
  O  O1  1  0.07582463  0.14335523  0.78302820  1
  O  O2  1  0.13576353  0.79589073  0.76273338  1
  O  O3  1  0.91626549  0.22004412  0.24421400  1
  O  O4  1  0.20410927  0.86423647  0.23726662  1
  O  O5  1  0.85664477  0.92417537  0.21697180  1
  O  O6  1  0.66394012  0.66622039  0.18967171  1
  O  O7  1  0.33377961  0.33605988  0.81032829  1
  O  O8  1  0.54284858  0.31444750  0.31289249  1
  O  O9  1  0.32113943  0.13978711  0.31833889  1
  O  O10  1  0.15918047  0.53308155  0.29952003  1
  O  O11  1  0.68555350  0.45715142  0.68710751  1
  O  O12  1  0.46691845  0.84081953  0.70047997  1
  O  O13  1  0.86021289  0.67886057  0.68166111  1
loop_
_geom_bond_atom_site_label_1
_geom_bond_atom_site_label_2
_geom_bond_distance
_geom_bond_site_symmetry_2
Ca0 O5 2.325443 1_556
Ca0 O0 2.379728 1_565
Ca0 O9 2.396513 1_566
Ca0 O12 2.397333 1_555
Ca0 O6 2.551234 1_556
Ca0 O7 2.652167 1_565
Ca0 O13 2.927608 1_555
Ca0 O8 2.936087 1_566
Ca1 O1 2.325443 1_554
Ca1 O3 2.379728 1_455
Ca1 O13 2.396513 1_454
Ca1 O10 2.397333 1_555
Ca1 O7 2.551234 1_554
Ca1 O6 2.652167 1_455
Ca1 O9 2.927608 1_555
Ca1 O11 2.936080 1_454
Ca2 O2 2.347275 1_554
Ca2 O4 2.347275 1_555
Ca2 O8 2.472725 1_555
Ca2 O11 2.472730 1_554
Ca2 O6 2.603690 1_555
Ca2 O7 2.603690 1_554
Ca2 O12 2.692640 1_554
Ca2 O10 2.692640 1_555
Ga0 O4 1.840017 1_555
Ga0 O1 1.845208 1_565
Ga0 O12 1.887536 1_555
Ga0 O9 1.901672 1_565
Ga0 O2 2.386217 1_555
Ga1 O2 1.840017 1_555
Ga1 O5 1.845208 1_455
Ga1 O10 1.887536 1_555
Ga1 O13 1.901672 1_455
Ga1 O4 2.386217 1_555
Ge0 O0 1.743678 1_555
Ge0 O3 1.743678 1_555
Ge0 O8 1.793098 1_555
Ge0 O11 1.793099 1_555
Ge1 O5 1.862874 1_445
Ge1 O1 1.862874 1_554
Ge1 O2 1.894694 1_544
Ge1 O4 1.894694 1_545
Ge1 O0 1.992594 1_454
Ge1 O3 1.992594 1_455
Ge2 O6 1.715878 1_555
Ge2 O13 1.752426 1_555
Ge2 O12 1.761998 1_555
Ge2 O11 1.793702 1_555
Ge3 O7 1.715878 1_555
Ge3 O9 1.752426 1_555
Ge3 O10 1.761998 1_555
Ge3 O8 1.793705 1_555
