# generated using pymatgen
data_Fe5P3O17
_symmetry_space_group_name_H-M   'P 1'
_cell_length_a   7.35166612
_cell_length_b   7.35166612
_cell_length_c   16.75012300
_cell_angle_alpha   90.00000000
_cell_angle_beta   90.00000000
_cell_angle_gamma   138.40973446
_symmetry_Int_Tables_number   1
_chemical_formula_structural   Fe5P3O17
_chemical_formula_sum   'Fe10 P6 O34'
_cell_volume   600.93326460
_cell_formula_units_Z   2
loop_
 _symmetry_equiv_pos_site_id
 _symmetry_equiv_pos_as_xyz
  1  'x, y, z'
loop_
 _atom_site_type_symbol
 _atom_site_label
 _atom_site_symmetry_multiplicity
 _atom_site_fract_x
 _atom_site_fract_y
 _atom_site_fract_z
 _atom_site_occupancy
  Fe  Fe0  1  0.99759900  0.99759900  0.50000000  1
  Fe  Fe1  1  0.99759900  0.99759900  0.00000000  1
  Fe  Fe2  1  0.92880600  0.07312800  0.65664800  1
  Fe  Fe3  1  0.07312800  0.92880600  0.34335200  1
  Fe  Fe4  1  0.92880600  0.07312800  0.84335200  1
  Fe  Fe5  1  0.07312800  0.92880600  0.15664800  1
  Fe  Fe6  1  0.43404400  0.08868500  0.63937100  1
  Fe  Fe7  1  0.08868500  0.43404400  0.36062900  1
  Fe  Fe8  1  0.43404400  0.08868500  0.86062900  1
  Fe  Fe9  1  0.08868500  0.43404400  0.13937100  1
  P  P0  1  0.34234900  0.64655200  0.54407300  1
  P  P1  1  0.64655200  0.34234900  0.45592700  1
  P  P2  1  0.34234900  0.64655200  0.95592700  1
  P  P3  1  0.64655200  0.34234900  0.04407300  1
  P  P4  1  0.52360400  0.48882200  0.75000000  1
  P  P5  1  0.48882200  0.52360400  0.25000000  1
  O  O0  1  0.65300000  0.82603700  0.55789000  1
  O  O1  1  0.82603700  0.65300000  0.44211000  1
  O  O2  1  0.65300000  0.82603700  0.94211000  1
  O  O3  1  0.82603700  0.65300000  0.05789000  1
  O  O4  1  0.33991600  0.16051800  0.43662500  1
  O  O5  1  0.16051800  0.33991600  0.56337500  1
  O  O6  1  0.33991600  0.16051800  0.06337500  1
  O  O7  1  0.16051800  0.33991600  0.93662500  1
  O  O8  1  0.65951100  0.28890000  0.54243300  1
  O  O9  1  0.28890000  0.65951100  0.45756700  1
  O  O10  1  0.65951100  0.28890000  0.95756700  1
  O  O11  1  0.28890000  0.65951100  0.04243300  1
  O  O12  1  0.26792700  0.73662900  0.60468700  1
  O  O13  1  0.73662900  0.26792700  0.39531300  1
  O  O14  1  0.26792700  0.73662900  0.89531300  1
  O  O15  1  0.73662900  0.26792700  0.10468700  1
  O  O16  1  0.75873100  0.17804300  0.68890000  1
  O  O17  1  0.17804300  0.75873100  0.31110000  1
  O  O18  1  0.75873100  0.17804300  0.81110000  1
  O  O19  1  0.17804300  0.75873100  0.18890000  1
  O  O20  1  0.70443600  0.80086400  0.75000000  1
  O  O21  1  0.80086400  0.70443600  0.25000000  1
  O  O22  1  0.30798100  0.20810900  0.25000000  1
  O  O23  1  0.20810900  0.30798100  0.75000000  1
  O  O24  1  0.08794800  0.96772600  0.60879900  1
  O  O25  1  0.96772600  0.08794800  0.39120100  1
  O  O26  1  0.08794800  0.96772600  0.89120100  1
  O  O27  1  0.96772600  0.08794800  0.10879900  1
  O  O28  1  0.59059700  0.44145500  0.67246400  1
  O  O29  1  0.44145500  0.59059700  0.32753600  1
  O  O30  1  0.59059700  0.44145500  0.82753600  1
  O  O31  1  0.44145500  0.59059700  0.17246400  1
  O  O32  1  0.33895700  0.96181900  0.75000000  1
  O  O33  1  0.96181900  0.33895700  0.25000000  1
loop_
_geom_bond_atom_site_label_1
_geom_bond_atom_site_label_2
_geom_bond_distance
_geom_bond_site_symmetry_2
Fe0 O24 2.007173 1_655
Fe0 O25 2.007173 1_565
Fe0 O1 2.041934 1_555
Fe0 O0 2.041934 1_555
Fe0 O5 2.094275 1_665
Fe0 O4 2.094275 1_665
Fe1 O27 2.007173 1_565
Fe1 O26 2.007173 1_654
Fe1 O2 2.041934 1_554
Fe1 O3 2.041934 1_555
Fe1 O6 2.094275 1_665
Fe1 O7 2.094275 1_664
Fe2 O16 1.972975 1_555
Fe2 O24 1.991905 1_645
Fe2 O5 2.047408 1_655
Fe2 O20 2.057572 1_545
Fe2 O23 2.083083 1_655
Fe2 O0 2.153599 1_545
Fe3 O17 1.972975 1_555
Fe3 O25 1.991905 1_465
Fe3 O4 2.047408 1_565
Fe3 O21 2.057572 1_455
Fe3 O22 2.083083 1_565
Fe3 O1 2.153599 1_455
Fe4 O18 1.972975 1_555
Fe4 O26 1.991905 1_645
Fe4 O7 2.047408 1_655
Fe4 O20 2.057572 1_545
Fe4 O23 2.083083 1_655
Fe4 O2 2.153599 1_545
Fe5 O19 1.972975 1_555
Fe5 O27 1.991905 1_465
Fe5 O6 2.047408 1_565
Fe5 O21 2.057572 1_455
Fe5 O22 2.083083 1_565
Fe5 O3 2.153599 1_455
Fe6 O12 1.949284 1_545
Fe6 O32 1.953738 1_545
Fe6 O28 1.973077 1_555
Fe6 O8 1.975102 1_555
Fe6 O24 2.035299 1_545
Fe6 O16 2.114703 1_555
Fe7 O13 1.949284 1_455
Fe7 O33 1.953738 1_455
Fe7 O29 1.973077 1_555
Fe7 O9 1.975102 1_555
Fe7 O25 2.035299 1_455
Fe7 O17 2.114703 1_555
Fe8 O14 1.949284 1_545
Fe8 O32 1.953738 1_545
Fe8 O30 1.973077 1_555
Fe8 O10 1.975102 1_555
Fe8 O26 2.035299 1_545
Fe8 O18 2.114703 1_555
Fe9 O15 1.949284 1_455
Fe9 O33 1.953738 1_455
Fe9 O31 1.973077 1_555
Fe9 O11 1.975102 1_555
Fe9 O27 2.035299 1_455
Fe9 O19 2.114703 1_555
O0 P0 1.582012 1_555
O1 P1 1.582012 1_555
O2 P2 1.582012 1_555
O3 P3 1.582012 1_555
O4 P1 1.570252 1_555
O5 P0 1.570252 1_555
O6 P3 1.570252 1_555
O7 P2 1.570252 1_555
O8 P1 1.522838 1_555
O9 P0 1.522838 1_555
O10 P3 1.522838 1_556
O11 P2 1.522838 1_554
O12 P0 1.520083 1_555
O13 P1 1.520083 1_555
O14 P2 1.520083 1_555
O15 P3 1.520083 1_555
O20 P4 1.571012 1_555
O21 P5 1.571012 1_555
O22 P5 1.592061 1_555
O23 P4 1.592061 1_555
O28 P4 1.518910 1_555
O29 P5 1.518910 1_555
O30 P4 1.518910 1_555
O31 P5 1.518910 1_555
