# generated using pymatgen
data_Fe5OF11
_symmetry_space_group_name_H-M   'P 1'
_cell_length_a   5.21729145
_cell_length_b   5.54674792
_cell_length_c   9.18486913
_cell_angle_alpha   73.44645758
_cell_angle_beta   90.38084301
_cell_angle_gamma   116.82166127
_symmetry_Int_Tables_number   1
_chemical_formula_structural   Fe5OF11
_chemical_formula_sum   'Fe5 O1 F11'
_cell_volume   225.05279951
_cell_formula_units_Z   1
loop_
 _symmetry_equiv_pos_site_id
 _symmetry_equiv_pos_as_xyz
  1  'x, y, z'
loop_
 _atom_site_type_symbol
 _atom_site_label
 _atom_site_symmetry_multiplicity
 _atom_site_fract_x
 _atom_site_fract_y
 _atom_site_fract_z
 _atom_site_occupancy
  Fe  Fe0  1  0.81946000  0.58101700  0.39773500  1
  Fe  Fe1  1  0.53058800  0.06561300  0.13903500  1
  Fe  Fe2  1  0.50224700  0.98622500  0.49990700  1
  Fe  Fe3  1  0.03494600  0.09003200  0.66272300  1
  Fe  Fe4  1  0.26869900  0.56239100  0.91259800  1
  O  O0  1  0.91893900  0.26380000  0.49183000  1
  F  F0  1  0.95748600  0.30873800  0.08568500  1
  F  F1  1  0.03704200  0.31917800  0.79288800  1
  F  F2  1  0.45250700  0.30472300  0.59427200  1
  F  F3  1  0.53259000  0.28070900  0.27775200  1
  F  F4  1  0.46918000  0.32649600  0.96774500  1
  F  F5  1  0.58128700  0.79283800  0.72733800  1
  F  F6  1  0.59366100  0.81368400  0.33510400  1
  F  F7  1  0.52535000  0.81018300  0.02609400  1
  F  F8  1  0.12280800  0.83081700  0.20312900  1
  F  F9  1  0.06716100  0.82114500  0.54365600  1
  F  F10  1  0.09841100  0.81672400  0.84170000  1
loop_
_geom_bond_atom_site_label_1
_geom_bond_atom_site_label_2
_geom_bond_distance
_geom_bond_site_symmetry_2
Fe0 O0 2.015901 1_555
Fe2 O0 2.004681 1_565
Fe3 O0 1.846834 1_455
F0 Fe4 1.959973 1_654
F0 Fe1 1.986659 1_555
F1 Fe4 1.961066 1_555
F1 Fe3 1.974360 1_555
F2 Fe3 1.951877 1_555
F2 Fe0 2.257073 1_555
F2 Fe2 2.286648 1_545
F3 Fe1 1.975259 1_555
F3 Fe2 2.174487 1_545
F3 Fe0 2.236841 1_555
F4 Fe1 1.945820 1_556
F4 Fe4 1.978135 1_555
F5 Fe4 2.026150 1_555
F5 Fe3 2.147537 1_665
F5 Fe2 2.189792 1_555
F6 Fe1 2.068147 1_565
F6 Fe0 2.079473 1_555
F6 Fe2 2.163713 1_555
F7 Fe1 1.971380 1_565
F7 Fe4 1.976309 1_554
F8 Fe1 1.910059 1_565
F8 Fe0 2.065665 1_455
F9 Fe2 2.019756 1_555
F9 Fe3 2.146332 1_565
F9 Fe0 2.163632 1_455
F10 Fe4 1.950233 1_555
F10 Fe3 2.033680 1_565
