# generated using pymatgen
data_MgSc5
_symmetry_space_group_name_H-M   'P 1'
_cell_length_a   17.26188465
_cell_length_b   17.26188465
_cell_length_c   10.62889300
_cell_angle_alpha   90.00000000
_cell_angle_beta   90.00000000
_cell_angle_gamma   158.08213664
_symmetry_Int_Tables_number   1
_chemical_formula_structural   MgSc5
_chemical_formula_sum   'Mg8 Sc40'
_cell_volume   1182.21300643
_cell_formula_units_Z   8
loop_
 _symmetry_equiv_pos_site_id
 _symmetry_equiv_pos_as_xyz
  1  'x, y, z'
loop_
 _atom_site_type_symbol
 _atom_site_label
 _atom_site_symmetry_multiplicity
 _atom_site_fract_x
 _atom_site_fract_y
 _atom_site_fract_z
 _atom_site_occupancy
  Mg  Mg0_0  1  0.11157625  0.38842375  0.25000000  1
  Mg  Mg0_1  1  0.11157625  0.38842375  0.75000000  1
  Mg  Mg0_2  1  0.11157625  0.88842375  0.25000000  1
  Mg  Mg0_3  1  0.11157625  0.88842375  0.75000000  1
  Mg  Mg0_4  1  0.61157624  0.38842375  0.25000000  1
  Mg  Mg0_5  1  0.61157624  0.38842375  0.75000000  1
  Mg  Mg0_6  1  0.61157625  0.88842375  0.25000000  1
  Mg  Mg0_7  1  0.61157625  0.88842375  0.75000000  1
  Sc  Sc0_0  1  0.49938613  0.00061387  0.00000000  1
  Sc  Sc0_1  1  0.49938613  0.00061387  0.50000000  1
  Sc  Sc0_2  1  0.49938613  0.50061387  0.00000000  1
  Sc  Sc0_3  1  0.49938613  0.50061387  0.50000000  1
  Sc  Sc0_4  1  0.99938613  0.00061387  0.00000000  1
  Sc  Sc0_5  1  0.99938613  0.00061387  0.50000000  1
  Sc  Sc0_6  1  0.99938613  0.50061387  0.00000000  1
  Sc  Sc0_7  1  0.99938613  0.50061387  0.50000000  1
  Sc  Sc1_0  1  0.33408532  0.16591468  0.00000000  1
  Sc  Sc1_1  1  0.33408532  0.16591468  0.50000000  1
  Sc  Sc1_2  1  0.33408532  0.66591468  0.00000000  1
  Sc  Sc1_3  1  0.33408532  0.66591468  0.50000000  1
  Sc  Sc1_4  1  0.83408532  0.16591468  0.00000000  1
  Sc  Sc1_5  1  0.83408532  0.16591468  0.50000000  1
  Sc  Sc1_6  1  0.83408532  0.66591468  0.00000000  1
  Sc  Sc1_7  1  0.83408532  0.66591468  0.50000000  1
  Sc  Sc2_0  1  0.16701993  0.33298007  0.00000000  1
  Sc  Sc2_1  1  0.16701993  0.33298007  0.50000000  1
  Sc  Sc2_2  1  0.16701993  0.83298007  0.00000000  1
  Sc  Sc2_3  1  0.16701993  0.83298007  0.50000000  1
  Sc  Sc2_4  1  0.66701993  0.33298007  0.00000000  1
  Sc  Sc2_5  1  0.66701993  0.33298007  0.50000000  1
  Sc  Sc2_6  1  0.66701993  0.83298007  0.00000000  1
  Sc  Sc2_7  1  0.66701993  0.83298007  0.50000000  1
  Sc  Sc3_0  1  0.27710264  0.22289736  0.25000000  1
  Sc  Sc3_1  1  0.27710264  0.22289736  0.75000000  1
  Sc  Sc3_2  1  0.27710264  0.72289736  0.25000000  1
  Sc  Sc3_3  1  0.27710264  0.72289736  0.75000000  1
  Sc  Sc3_4  1  0.77710264  0.22289736  0.25000000  1
  Sc  Sc3_5  1  0.77710264  0.22289736  0.75000000  1
  Sc  Sc3_6  1  0.77710264  0.72289736  0.25000000  1
  Sc  Sc3_7  1  0.77710264  0.72289736  0.75000000  1
  Sc  Sc4_0  1  0.44416424  0.05583576  0.25000000  1
  Sc  Sc4_1  1  0.44416424  0.05583576  0.75000000  1
  Sc  Sc4_2  1  0.44416424  0.55583576  0.25000000  1
  Sc  Sc4_3  1  0.44416424  0.55583576  0.75000000  1
  Sc  Sc4_4  1  0.94416424  0.05583576  0.25000000  1
  Sc  Sc4_5  1  0.94416424  0.05583576  0.75000000  1
  Sc  Sc4_6  1  0.94416424  0.55583577  0.25000000  1
  Sc  Sc4_7  1  0.94416424  0.55583577  0.75000000  1
loop_
_geom_bond_atom_site_label_1
_geom_bond_atom_site_label_2
_geom_bond_distance
_geom_bond_site_symmetry_2
Mg0_0 Sc4_2 3.244688 1_555
Mg0_0 Sc4_4 3.244688 1_455
Mg0_0 Sc2_1 3.254581 1_555
Mg0_0 Sc2_0 3.254581 1_555
Mg0_0 Sc1_2 3.259024 1_555
Mg0_0 Sc1_5 3.259024 1_455
Mg0_0 Sc1_3 3.259024 1_555
Mg0_0 Sc1_4 3.259024 1_455
Mg0_0 Mg0_6 3.281576 1_445
Mg0_0 Mg0_6 3.281576 1_555
Mg0_0 Sc3_4 3.299984 1_455
Mg0_0 Sc3_2 3.299984 1_555
Mg0_1 Sc4_3 3.244688 1_555
Mg0_1 Sc4_5 3.244688 1_455
Mg0_1 Sc2_0 3.254581 1_556
Mg0_1 Sc2_1 3.254581 1_555
Mg0_1 Sc1_5 3.259024 1_455
Mg0_1 Sc1_2 3.259024 1_556
Mg0_1 Sc1_3 3.259024 1_555
Mg0_1 Sc1_4 3.259024 1_456
Mg0_1 Mg0_7 3.281576 1_445
Mg0_1 Mg0_7 3.281576 1_555
Mg0_1 Sc3_5 3.299984 1_455
Mg0_1 Sc3_3 3.299984 1_555
Mg0_2 Sc4_0 3.244688 1_565
Mg0_2 Sc4_6 3.244688 1_455
Mg0_2 Sc2_2 3.254581 1_555
Mg0_2 Sc2_3 3.254581 1_555
Mg0_2 Sc1_6 3.259024 1_455
Mg0_2 Sc1_7 3.259024 1_455
Mg0_2 Sc1_0 3.259024 1_565
Mg0_2 Sc1_1 3.259024 1_565
Mg0_2 Mg0_4 3.281576 1_565
Mg0_2 Mg0_4 3.281576 1_455
Mg0_2 Sc3_6 3.299984 1_455
Mg0_2 Sc3_0 3.299984 1_565
Mg0_3 Sc4_1 3.244688 1_565
Mg0_3 Sc4_7 3.244688 1_455
Mg0_3 Sc2_3 3.254581 1_555
Mg0_3 Sc2_2 3.254581 1_556
Mg0_3 Sc1_6 3.259024 1_456
Mg0_3 Sc1_7 3.259024 1_455
Mg0_3 Sc1_0 3.259024 1_566
Mg0_3 Sc1_1 3.259024 1_565
Mg0_3 Mg0_5 3.281576 1_565
Mg0_3 Mg0_5 3.281576 1_455
Mg0_3 Sc3_7 3.299984 1_455
Mg0_3 Sc3_1 3.299984 1_565
Mg0_4 Sc4_0 3.244688 1_555
Mg0_4 Sc4_6 3.244688 1_555
Mg0_4 Sc2_5 3.254581 1_555
Mg0_4 Sc2_4 3.254581 1_555
Mg0_4 Sc1_1 3.259024 1_555
Mg0_4 Sc1_0 3.259024 1_555
Mg0_4 Sc1_6 3.259024 1_555
Mg0_4 Sc1_7 3.259024 1_555
Mg0_4 Sc3_6 3.299984 1_555
Mg0_4 Sc3_0 3.299984 1_555
Mg0_5 Sc4_1 3.244688 1_555
Mg0_5 Sc4_7 3.244688 1_555
Mg0_5 Sc2_4 3.254581 1_556
Mg0_5 Sc2_5 3.254581 1_555
Mg0_5 Sc1_0 3.259024 1_556
Mg0_5 Sc1_1 3.259024 1_555
Mg0_5 Sc1_6 3.259024 1_556
Mg0_5 Sc1_7 3.259024 1_555
Mg0_5 Sc3_7 3.299984 1_555
Mg0_5 Sc3_1 3.299984 1_555
Mg0_6 Sc4_2 3.244688 1_555
Mg0_6 Sc4_4 3.244688 1_565
Mg0_6 Sc2_7 3.254581 1_555
Mg0_6 Sc2_6 3.254581 1_555
Mg0_6 Sc1_2 3.259024 1_555
Mg0_6 Sc1_3 3.259024 1_555
Mg0_6 Sc1_4 3.259024 1_565
Mg0_6 Sc1_5 3.259024 1_565
Mg0_6 Sc3_4 3.299984 1_565
Mg0_6 Sc3_2 3.299984 1_555
Mg0_7 Sc4_3 3.244688 1_555
Mg0_7 Sc4_5 3.244688 1_565
Mg0_7 Sc2_6 3.254581 1_556
Mg0_7 Sc2_7 3.254581 1_555
Mg0_7 Sc1_2 3.259024 1_556
Mg0_7 Sc1_3 3.259024 1_555
Mg0_7 Sc1_4 3.259024 1_566
Mg0_7 Sc1_5 3.259024 1_565
Mg0_7 Sc3_5 3.299984 1_565
Mg0_7 Sc3_3 3.299984 1_555
Sc0_0 Sc2_2 3.238205 1_545
Sc0_0 Sc2_4 3.238205 1_555
Sc0_0 Sc4_1 3.250246 1_554
Sc0_0 Sc4_0 3.250246 1_555
Sc0_0 Sc3_5 3.261219 1_554
Sc0_0 Sc3_2 3.261219 1_545
Sc0_0 Sc3_3 3.261219 1_544
Sc0_0 Sc3_4 3.261219 1_555
Sc0_0 Sc0_6 3.281576 1_445
Sc0_0 Sc0_6 3.281576 1_555
Sc0_0 Sc1_2 3.306620 1_545
Sc0_0 Sc1_4 3.306620 1_555
Sc0_1 Sc2_3 3.238205 1_545
Sc0_1 Sc2_5 3.238205 1_555
Sc0_1 Sc4_1 3.250246 1_555
Sc0_1 Sc4_0 3.250246 1_555
Sc0_1 Sc3_5 3.261219 1_555
Sc0_1 Sc3_2 3.261219 1_545
Sc0_1 Sc3_4 3.261219 1_555
Sc0_1 Sc3_3 3.261219 1_545
Sc0_1 Sc0_7 3.281576 1_445
Sc0_1 Sc0_7 3.281576 1_555
Sc0_1 Sc1_3 3.306620 1_545
Sc0_1 Sc1_5 3.306620 1_555
Sc0_2 Sc2_0 3.238205 1_555
Sc0_2 Sc2_6 3.238205 1_555
Sc0_2 Sc4_2 3.250246 1_555
Sc0_2 Sc4_3 3.250246 1_554
Sc0_2 Sc3_1 3.261219 1_554
Sc0_2 Sc3_0 3.261219 1_555
Sc0_2 Sc3_6 3.261219 1_555
Sc0_2 Sc3_7 3.261219 1_554
Sc0_2 Sc0_4 3.281576 1_565
Sc0_2 Sc0_4 3.281576 1_455
Sc0_2 Sc1_0 3.306620 1_555
Sc0_2 Sc1_6 3.306620 1_555
Sc0_3 Sc2_1 3.238205 1_555
Sc0_3 Sc2_7 3.238205 1_555
Sc0_3 Sc4_2 3.250246 1_555
Sc0_3 Sc4_3 3.250246 1_555
Sc0_3 Sc3_1 3.261219 1_555
Sc0_3 Sc3_0 3.261219 1_555
Sc0_3 Sc3_7 3.261219 1_555
Sc0_3 Sc3_6 3.261219 1_555
Sc0_3 Sc0_5 3.281576 1_455
Sc0_3 Sc0_5 3.281576 1_565
Sc0_3 Sc1_1 3.306620 1_555
Sc0_3 Sc1_7 3.306620 1_555
Sc0_4 Sc2_6 3.238205 1_545
Sc0_4 Sc2_0 3.238205 1_655
Sc0_4 Sc4_4 3.250246 1_555
Sc0_4 Sc4_5 3.250246 1_554
Sc0_4 Sc3_1 3.261219 1_654
Sc0_4 Sc3_0 3.261219 1_655
Sc0_4 Sc3_6 3.261219 1_545
Sc0_4 Sc3_7 3.261219 1_544
Sc0_4 Sc1_0 3.306620 1_655
Sc0_4 Sc1_6 3.306620 1_545
Sc0_5 Sc2_7 3.238205 1_545
Sc0_5 Sc2_1 3.238205 1_655
Sc0_5 Sc4_4 3.250246 1_555
Sc0_5 Sc4_5 3.250246 1_555
Sc0_5 Sc3_1 3.261219 1_655
Sc0_5 Sc3_0 3.261219 1_655
Sc0_5 Sc3_6 3.261219 1_545
Sc0_5 Sc3_7 3.261219 1_545
Sc0_5 Sc1_7 3.306620 1_545
Sc0_5 Sc1_1 3.306620 1_655
Sc0_6 Sc2_2 3.238205 1_655
Sc0_6 Sc2_4 3.238205 1_555
Sc0_6 Sc4_7 3.250246 1_554
Sc0_6 Sc4_6 3.250246 1_555
Sc0_6 Sc3_5 3.261219 1_554
Sc0_6 Sc3_4 3.261219 1_555
Sc0_6 Sc3_3 3.261219 1_654
Sc0_6 Sc3_2 3.261219 1_655
Sc0_6 Sc1_4 3.306620 1_555
Sc0_6 Sc1_2 3.306620 1_655
Sc0_7 Sc2_3 3.238205 1_655
Sc0_7 Sc2_5 3.238205 1_555
Sc0_7 Sc4_6 3.250246 1_555
Sc0_7 Sc4_7 3.250246 1_555
Sc0_7 Sc3_5 3.261219 1_555
Sc0_7 Sc3_4 3.261219 1_555
Sc0_7 Sc3_3 3.261219 1_655
Sc0_7 Sc3_2 3.261219 1_655
Sc0_7 Sc1_5 3.306620 1_555
Sc0_7 Sc1_3 3.306620 1_655
Sc1_0 Sc2_4 3.254829 1_555
Sc1_0 Sc2_2 3.254829 1_545
Sc1_0 Sc1_6 3.281576 1_445
Sc1_0 Sc1_6 3.281576 1_555
Sc1_0 Sc3_1 3.284976 1_554
Sc1_0 Sc3_0 3.284976 1_555
Sc1_1 Sc2_5 3.254829 1_555
Sc1_1 Sc2_3 3.254829 1_545
Sc1_1 Sc1_7 3.281576 1_445
Sc1_1 Sc1_7 3.281576 1_555
Sc1_1 Sc3_0 3.284976 1_555
Sc1_1 Sc3_1 3.284976 1_555
Sc1_2 Sc2_0 3.254829 1_555
Sc1_2 Sc2_6 3.254829 1_555
Sc1_2 Sc1_4 3.281576 1_455
Sc1_2 Sc1_4 3.281576 1_565
Sc1_2 Sc3_2 3.284976 1_555
Sc1_2 Sc3_3 3.284976 1_554
Sc1_3 Sc2_1 3.254829 1_555
Sc1_3 Sc2_7 3.254829 1_555
Sc1_3 Sc1_5 3.281576 1_565
Sc1_3 Sc1_5 3.281576 1_455
Sc1_3 Sc3_3 3.284976 1_555
Sc1_3 Sc3_2 3.284976 1_555
Sc1_4 Sc2_0 3.254829 1_655
Sc1_4 Sc2_6 3.254829 1_545
Sc1_4 Sc3_5 3.284976 1_554
Sc1_4 Sc3_4 3.284976 1_555
Sc1_5 Sc2_1 3.254829 1_655
Sc1_5 Sc2_7 3.254829 1_545
Sc1_5 Sc3_5 3.284976 1_555
Sc1_5 Sc3_4 3.284976 1_555
Sc1_6 Sc2_4 3.254829 1_555
Sc1_6 Sc2_2 3.254829 1_655
Sc1_6 Sc3_6 3.284976 1_555
Sc1_6 Sc3_7 3.284976 1_554
Sc1_7 Sc2_5 3.254829 1_555
Sc1_7 Sc2_3 3.254829 1_655
Sc1_7 Sc3_6 3.284976 1_555
Sc1_7 Sc3_7 3.284976 1_555
Sc2_0 Sc4_5 3.255685 1_454
Sc2_0 Sc4_2 3.255685 1_555
Sc2_0 Sc4_3 3.255685 1_554
Sc2_0 Sc4_4 3.255685 1_455
Sc2_0 Sc2_6 3.281576 1_445
Sc2_0 Sc2_6 3.281576 1_555
Sc2_1 Sc4_5 3.255685 1_455
Sc2_1 Sc4_2 3.255685 1_555
Sc2_1 Sc4_4 3.255685 1_455
Sc2_1 Sc4_3 3.255685 1_555
Sc2_1 Sc2_7 3.281576 1_445
Sc2_1 Sc2_7 3.281576 1_555
Sc2_2 Sc4_1 3.255685 1_564
Sc2_2 Sc4_0 3.255685 1_565
Sc2_2 Sc4_6 3.255685 1_455
Sc2_2 Sc4_7 3.255685 1_454
Sc2_2 Sc2_4 3.281576 1_565
Sc2_2 Sc2_4 3.281576 1_455
Sc2_3 Sc4_1 3.255685 1_565
Sc2_3 Sc4_7 3.255685 1_455
Sc2_3 Sc4_0 3.255685 1_565
Sc2_3 Sc4_6 3.255685 1_455
Sc2_3 Sc2_5 3.281576 1_565
Sc2_3 Sc2_5 3.281576 1_455
Sc2_4 Sc4_0 3.255685 1_555
Sc2_4 Sc4_1 3.255685 1_554
Sc2_4 Sc4_6 3.255685 1_555
Sc2_4 Sc4_7 3.255685 1_554
Sc2_5 Sc4_1 3.255685 1_555
Sc2_5 Sc4_0 3.255685 1_555
Sc2_5 Sc4_6 3.255685 1_555
Sc2_5 Sc4_7 3.255685 1_555
Sc2_6 Sc4_5 3.255685 1_564
Sc2_6 Sc4_4 3.255685 1_565
Sc2_6 Sc4_2 3.255685 1_555
Sc2_6 Sc4_3 3.255685 1_554
Sc2_7 Sc4_5 3.255685 1_565
Sc2_7 Sc4_4 3.255685 1_565
Sc2_7 Sc4_2 3.255685 1_555
Sc2_7 Sc4_3 3.255685 1_555
Sc3_0 Sc4_4 3.254940 1_455
Sc3_0 Sc4_2 3.254940 1_555
Sc3_0 Sc3_6 3.281576 1_445
Sc3_0 Sc3_6 3.281576 1_555
Sc3_1 Sc4_3 3.254940 1_555
Sc3_1 Sc4_5 3.254940 1_455
Sc3_1 Sc3_7 3.281576 1_445
Sc3_1 Sc3_7 3.281576 1_555
Sc3_2 Sc4_6 3.254940 1_455
Sc3_2 Sc4_0 3.254940 1_565
Sc3_2 Sc3_4 3.281576 1_455
Sc3_2 Sc3_4 3.281576 1_565
Sc3_3 Sc4_7 3.254940 1_455
Sc3_3 Sc4_1 3.254940 1_565
Sc3_3 Sc3_5 3.281576 1_455
Sc3_3 Sc3_5 3.281576 1_565
Sc3_4 Sc4_0 3.254940 1_555
Sc3_4 Sc4_6 3.254940 1_555
Sc3_5 Sc4_1 3.254940 1_555
Sc3_5 Sc4_7 3.254940 1_555
Sc3_6 Sc4_4 3.254940 1_565
Sc3_6 Sc4_2 3.254940 1_555
Sc3_7 Sc4_5 3.254940 1_565
Sc3_7 Sc4_3 3.254940 1_555
Sc4_0 Sc4_6 3.281576 1_445
Sc4_0 Sc4_6 3.281576 1_555
Sc4_1 Sc4_7 3.281576 1_445
Sc4_1 Sc4_7 3.281576 1_555
Sc4_2 Sc4_4 3.281576 1_565
Sc4_2 Sc4_4 3.281576 1_455
Sc4_3 Sc4_5 3.281576 1_565
Sc4_3 Sc4_5 3.281576 1_455
