# generated using pymatgen
data_Hf9Re4O3
_symmetry_space_group_name_H-M   'P 1'
_cell_length_a   8.40928391
_cell_length_b   8.40929102
_cell_length_c   8.49123603
_cell_angle_alpha   89.99987344
_cell_angle_beta   90.00014065
_cell_angle_gamma   119.99990978
_symmetry_Int_Tables_number   1
_chemical_formula_structural   Hf9Re4O3
_chemical_formula_sum   'Hf18 Re8 O6'
_cell_volume   520.02034714
_cell_formula_units_Z   2
loop_
 _symmetry_equiv_pos_site_id
 _symmetry_equiv_pos_as_xyz
  1  'x, y, z'
loop_
 _atom_site_type_symbol
 _atom_site_label
 _atom_site_symmetry_multiplicity
 _atom_site_fract_x
 _atom_site_fract_y
 _atom_site_fract_z
 _atom_site_occupancy
  Hf  Hf0  1  0.45201724  0.90403413  0.25000042  1
  Hf  Hf1  1  0.54797880  0.09595943  0.75000023  1
  Hf  Hf2  1  0.09596645  0.54798286  0.24999985  1
  Hf  Hf3  1  0.90404201  0.45202243  0.75000061  1
  Hf  Hf4  1  0.45201689  0.54798244  0.24999949  1
  Hf  Hf5  1  0.54797905  0.45202345  0.75000053  1
  Hf  Hf6  1  0.20191716  0.40383671  0.56136258  1
  Hf  Hf7  1  0.79808079  0.59616084  0.43868412  1
  Hf  Hf8  1  0.59615864  0.79807954  0.56136759  1
  Hf  Hf9  1  0.79807510  0.59615156  0.06132113  1
  Hf  Hf10  1  0.40383993  0.20192041  0.43868016  1
  Hf  Hf11  1  0.20192402  0.40384605  0.93863239  1
  Hf  Hf12  1  0.20192268  0.79807978  0.56137049  1
  Hf  Hf13  1  0.40384928  0.20192439  0.06132073  1
  Hf  Hf14  1  0.79807736  0.20192067  0.43867758  1
  Hf  Hf15  1  0.59615079  0.79807608  0.93863172  1
  Hf  Hf16  1  0.79807937  0.20192259  0.06131860  1
  Hf  Hf17  1  0.20192201  0.79807633  0.93863395  1
  Re  Re0  1  0.11016136  0.22032185  0.24999231  1
  Re  Re1  1  0.88984868  0.77969823  0.75000745  1
  Re  Re2  1  0.77967658  0.88983838  0.24999231  1
  Re  Re3  1  0.22030324  0.11015254  0.75000473  1
  Re  Re4  1  0.11016219  0.88983857  0.24999468  1
  Re  Re5  1  0.88984817  0.11015163  0.75000499  1
  Re  Re6  1  0.00000057  -0.00000120  -0.00003571  1
  Re  Re7  1  0.99999818  -0.00000248  0.50003458  1
  O  O0  1  0.49999869  -0.00000188  -0.00002081  1
  O  O1  1  0.00000277  0.50000121  -0.00002108  1
  O  O2  1  0.49999880  -0.00000222  0.50002164  1
  O  O3  1  0.49999883  0.50000155  -0.00002127  1
  O  O4  1  0.00000241  0.50000202  0.50002149  1
  O  O5  1  0.49999895  0.50000213  0.50002149  1
loop_
_geom_bond_atom_site_label_1
_geom_bond_atom_site_label_2
_geom_bond_distance
_geom_bond_site_symmetry_2
Hf0 O0 2.235063 1_565
Hf0 O2 2.235063 1_565
Hf0 Re2 2.816966 1_555
Hf0 Re4 2.816967 1_555
Hf1 O2 2.234715 1_555
Hf1 O0 2.234716 1_556
Hf1 Re3 2.817091 1_555
Hf1 Re5 2.817100 1_555
Hf2 O1 2.235059 1_555
Hf2 O4 2.235068 1_555
Hf2 Re4 2.816974 1_555
Hf2 Re0 2.816979 1_555
Hf3 O1 2.234709 1_656
Hf3 O4 2.234716 1_655
Hf3 Re1 2.817096 1_555
Hf3 Re5 2.817108 1_555
Hf4 O3 2.235058 1_555
Hf4 O5 2.235064 1_555
Hf4 Re2 2.816976 1_555
Hf4 Re0 2.816978 1_555
Hf5 O3 2.234705 1_556
Hf5 O5 2.234709 1_555
Hf5 Re1 2.817097 1_555
Hf5 Re3 2.817107 1_555
Hf6 O4 2.276274 1_555
Hf6 O5 2.276291 1_555
Hf6 Re0 2.962513 1_555
Hf6 Re7 2.986774 1_455
Hf6 Re3 3.011778 1_555
Hf6 Re5 3.011783 1_455
Hf7 O4 2.276281 1_655
Hf7 O5 2.276296 1_555
Hf7 Re1 2.962232 1_555
Hf7 Re7 2.986789 1_565
Hf7 Re4 3.012020 1_655
Hf7 Re2 3.012026 1_555
Hf8 O2 2.276278 1_565
Hf8 O5 2.276278 1_555
Hf8 Re2 2.962561 1_555
Hf8 Re7 2.986782 1_565
Hf8 Re5 3.011787 1_565
Hf8 Re1 3.011789 1_555
Hf9 O3 2.276274 1_555
Hf9 O1 2.276288 1_655
Hf9 Re1 2.962186 1_554
Hf9 Re6 2.986873 1_665
Hf9 Re2 3.011983 1_555
Hf9 Re4 3.011999 1_655
Hf10 O2 2.276298 1_555
Hf10 O5 2.276304 1_555
Hf10 Re3 2.962239 1_555
Hf10 Re7 2.986829 1_455
Hf10 Re0 3.012002 1_555
Hf10 Re4 3.012004 1_545
Hf11 O3 2.276262 1_556
Hf11 O1 2.276276 1_556
Hf11 Re0 2.962463 1_556
Hf11 Re6 2.986836 1_556
Hf11 Re3 3.011759 1_555
Hf11 Re5 3.011771 1_455
Hf12 O2 2.276276 1_565
Hf12 O4 2.276291 1_555
Hf12 Re4 2.962564 1_555
Hf12 Re7 2.986800 1_465
Hf12 Re3 3.011785 1_565
Hf12 Re1 3.011801 1_455
Hf13 O0 2.276271 1_555
Hf13 O3 2.276284 1_555
Hf13 Re3 2.962201 1_554
Hf13 Re6 2.986881 1_555
Hf13 Re0 3.011987 1_555
Hf13 Re4 3.011997 1_545
Hf14 O2 2.276289 1_555
Hf14 O4 2.276311 1_655
Hf14 Re5 2.962265 1_555
Hf14 Re7 2.986844 1_555
Hf14 Re2 3.012018 1_545
Hf14 Re0 3.012027 1_655
Hf15 O0 2.276266 1_566
Hf15 O3 2.276269 1_556
Hf15 Re2 2.962472 1_556
Hf15 Re6 2.986853 1_666
Hf15 Re1 3.011768 1_555
Hf15 Re5 3.011778 1_565
Hf16 O1 2.276283 1_655
Hf16 O0 2.276295 1_555
Hf16 Re5 2.962167 1_554
Hf16 Re6 2.986850 1_655
Hf16 Re0 3.011960 1_655
Hf16 Re2 3.011967 1_545
Hf17 O1 2.276265 1_556
Hf17 O0 2.276277 1_566
Hf17 Re4 2.962465 1_556
Hf17 Re6 2.986807 1_566
Hf17 Re1 3.011754 1_455
Hf17 Re3 3.011779 1_565
Re0 Re6 2.661181 1_555
Re0 Re7 2.661280 1_455
Re0 Re4 2.779134 1_545
Re0 Re2 2.779140 1_445
Re1 Re6 2.660600 1_666
Re1 Re7 2.660700 1_565
Re1 Re5 2.778881 1_565
Re1 Re3 2.778890 1_665
Re2 Re6 2.661184 1_665
Re2 Re7 2.661267 1_565
Re2 Re4 2.779147 1_655
Re3 Re6 2.660627 1_556
Re3 Re7 2.660705 1_455
Re3 Re5 2.778887 1_455
Re4 Re6 2.661185 1_565
Re4 Re7 2.661261 1_465
Re5 Re6 2.660630 1_656
Re5 Re7 2.660707 1_555
