# generated using pymatgen
data_Zn4P2H3O10
_symmetry_space_group_name_H-M   'P 1'
_cell_length_a   4.90782900
_cell_length_b   9.76747620
_cell_length_c   12.04022959
_cell_angle_alpha   119.77848551
_cell_angle_beta   90.00000000
_cell_angle_gamma   90.00000000
_symmetry_Int_Tables_number   1
_chemical_formula_structural   Zn4P2H3O10
_chemical_formula_sum   'Zn8 P4 H6 O20'
_cell_volume   500.95909258
_cell_formula_units_Z   2
loop_
 _symmetry_equiv_pos_site_id
 _symmetry_equiv_pos_as_xyz
  1  'x, y, z'
loop_
 _atom_site_type_symbol
 _atom_site_label
 _atom_site_symmetry_multiplicity
 _atom_site_fract_x
 _atom_site_fract_y
 _atom_site_fract_z
 _atom_site_occupancy
  Zn  Zn0  1  0.48851100  0.00000000  0.75000000  1
  Zn  Zn1  1  0.51148900  0.00000000  0.25000000  1
  Zn  Zn2  1  0.83504400  0.72034900  0.50982700  1
  Zn  Zn3  1  0.16495600  0.27965100  0.49017300  1
  Zn  Zn4  1  0.83504400  0.27965100  0.99017300  1
  Zn  Zn5  1  0.16495600  0.72034900  0.00982700  1
  Zn  Zn6  1  0.50000000  0.00000000  0.00000000  1
  Zn  Zn7  1  0.50000000  0.00000000  0.50000000  1
  P  P0  1  0.97979800  0.75697700  0.77335900  1
  P  P1  1  0.02020200  0.24302300  0.22664100  1
  P  P2  1  0.97979800  0.24302300  0.72664100  1
  P  P3  1  0.02020200  0.75697700  0.27335900  1
  H  H0  1  0.70401300  0.33986400  0.38016600  1
  H  H1  1  0.29598700  0.66013600  0.61983400  1
  H  H2  1  0.70401300  0.66013600  0.11983400  1
  H  H3  1  0.29598700  0.33986400  0.88016600  1
  H  H4  1  0.02381800  0.50000000  0.75000000  1
  H  H5  1  0.97618200  0.50000000  0.25000000  1
  O  O0  1  0.03271300  0.63979700  0.82787900  1
  O  O1  1  0.96728700  0.36020300  0.17212100  1
  O  O2  1  0.03271300  0.36020300  0.67212100  1
  O  O3  1  0.96728700  0.63979700  0.32787900  1
  O  O4  1  0.09487300  0.65346400  0.62271200  1
  O  O5  1  0.90512700  0.34653600  0.37728800  1
  O  O6  1  0.09487300  0.34653600  0.87728800  1
  O  O7  1  0.90512700  0.65346400  0.12271200  1
  O  O8  1  0.67989800  0.77339200  0.75637000  1
  O  O9  1  0.32010200  0.22660800  0.24363000  1
  O  O10  1  0.67989800  0.22660800  0.74363000  1
  O  O11  1  0.32010200  0.77339200  0.25637000  1
  O  O12  1  0.85251400  0.90501700  0.34566700  1
  O  O13  1  0.14748600  0.09498300  0.65433300  1
  O  O14  1  0.85251400  0.09498300  0.15433300  1
  O  O15  1  0.14748600  0.90501700  0.84566700  1
  O  O16  1  0.54468200  0.86584700  0.56928300  1
  O  O17  1  0.45531800  0.13415300  0.43071700  1
  O  O18  1  0.54468200  0.13415300  0.93071700  1
  O  O19  1  0.45531800  0.86584700  0.06928300  1
loop_
_geom_bond_atom_site_label_1
_geom_bond_atom_site_label_2
_geom_bond_distance
_geom_bond_site_symmetry_2
H0 O5 0.990921 1_555
H1 O4 0.990921 1_555
H2 O7 0.990921 1_555
H3 O6 0.990921 1_555
H4 O0 1.214025 1_555
H4 O2 1.214025 1_555
H5 O3 1.214025 1_555
H5 O1 1.214025 1_555
O0 P0 1.598322 1_455
O0 Zn5 2.031590 1_556
O1 P1 1.598322 1_655
O1 Zn4 2.031590 1_554
O2 P2 1.598322 1_455
O2 Zn3 2.031590 1_555
O3 P3 1.598322 1_655
O3 Zn2 2.031590 1_555
O4 P0 1.676178 1_455
O4 Zn2 2.186830 1_455
O5 P1 1.676178 1_655
O5 Zn3 2.186830 1_655
O6 P2 1.676178 1_455
O6 Zn4 2.186830 1_455
O7 P3 1.676178 1_655
O7 Zn5 2.186830 1_655
O8 P0 1.505487 1_555
O8 Zn0 2.440464 1_565
O9 P1 1.505487 1_555
O9 Zn1 2.440464 1_555
O10 P2 1.505487 1_555
O10 Zn0 2.440464 1_555
O11 P3 1.505487 1_555
O11 Zn1 2.440464 1_565
O12 P3 1.508532 1_655
O12 Zn7 2.365253 1_565
O12 Zn1 2.459712 1_565
O13 P2 1.508532 1_455
O13 Zn7 2.365253 1_555
O13 Zn0 2.459712 1_555
O14 P1 1.508532 1_655
O14 Zn6 2.365253 1_555
O14 Zn1 2.459712 1_555
O15 P0 1.508532 1_455
O15 Zn6 2.365253 1_566
O15 Zn0 2.459712 1_565
O16 Zn7 1.883259 1_565
O16 Zn2 1.884769 1_555
O16 Zn0 1.922341 1_565
O17 Zn7 1.883259 1_555
O17 Zn3 1.884769 1_555
O17 Zn1 1.922341 1_555
O18 Zn6 1.883259 1_556
O18 Zn4 1.884769 1_555
O18 Zn0 1.922341 1_555
O19 Zn6 1.883259 1_565
O19 Zn5 1.884769 1_555
O19 Zn1 1.922341 1_565
