# generated using pymatgen
data_Zr3HC2
_symmetry_space_group_name_H-M   'P 1'
_cell_length_a   3.35958032
_cell_length_b   3.35958032
_cell_length_c   8.02384600
_cell_angle_alpha   90.00000000
_cell_angle_beta   90.00000000
_cell_angle_gamma   120.00000638
_symmetry_Int_Tables_number   1
_chemical_formula_structural   Zr3HC2
_chemical_formula_sum   'Zr3 H1 C2'
_cell_volume   78.43018631
_cell_formula_units_Z   1
loop_
 _symmetry_equiv_pos_site_id
 _symmetry_equiv_pos_as_xyz
  1  'x, y, z'
loop_
 _atom_site_type_symbol
 _atom_site_label
 _atom_site_symmetry_multiplicity
 _atom_site_fract_x
 _atom_site_fract_y
 _atom_site_fract_z
 _atom_site_occupancy
  Zr  Zr0  1  0.00000000  0.00000000  0.50000000  1
  Zr  Zr1  1  0.33333300  0.66666700  0.17808500  1
  Zr  Zr2  1  0.66666700  0.33333300  0.82191500  1
  H  H0  1  0.00000000  0.00000000  0.00000000  1
  C  C0  1  0.33333300  0.66666700  0.67558300  1
  C  C1  1  0.66666700  0.33333300  0.32441700  1
loop_
_geom_bond_atom_site_label_1
_geom_bond_atom_site_label_2
_geom_bond_distance
_geom_bond_site_symmetry_2
H0 Zr1 2.409167 1_545
H0 Zr2 2.409167 1_454
H0 Zr1 2.409169 1_445
H0 Zr1 2.409169 1_555
H0 Zr2 2.409169 1_554
H0 Zr2 2.409169 1_444
C0 Zr2 2.267349 1_455
C0 Zr2 2.267349 1_565
C0 Zr2 2.267354 1_555
C0 Zr0 2.397314 1_565
C0 Zr0 2.397316 1_555
C0 Zr0 2.397316 1_665
C1 Zr1 2.267349 1_545
C1 Zr1 2.267349 1_655
C1 Zr1 2.267354 1_555
C1 Zr0 2.397314 1_655
C1 Zr0 2.397316 1_665
C1 Zr0 2.397316 1_555
