# generated using pymatgen
data_LiSm2RuO6
_symmetry_space_group_name_H-M   'P 1'
_cell_length_a   5.78652200
_cell_length_b   5.40296400
_cell_length_c   9.37644405
_cell_angle_alpha   55.33293889
_cell_angle_beta   90.00000000
_cell_angle_gamma   90.00000000
_symmetry_Int_Tables_number   1
_chemical_formula_structural   LiSm2RuO6
_chemical_formula_sum   'Li2 Sm4 Ru2 O12'
_cell_volume   241.10628850
_cell_formula_units_Z   2
loop_
 _symmetry_equiv_pos_site_id
 _symmetry_equiv_pos_as_xyz
  1  'x, y, z'
loop_
 _atom_site_type_symbol
 _atom_site_label
 _atom_site_symmetry_multiplicity
 _atom_site_fract_x
 _atom_site_fract_y
 _atom_site_fract_z
 _atom_site_occupancy
  Li  Li0  1  0.50000000  0.50000000  0.00000000  1
  Li  Li1  1  0.00000000  0.50000000  0.50000000  1
  Sm  Sm0  1  0.07469400  0.73079000  0.75147600  1
  Sm  Sm1  1  0.92530600  0.26921000  0.24852400  1
  Sm  Sm2  1  0.57469400  0.26921000  0.74852400  1
  Sm  Sm3  1  0.42530600  0.73079000  0.25147600  1
  Ru  Ru0  1  0.50000000  0.00000000  0.50000000  1
  Ru  Ru1  1  0.00000000  0.00000000  0.00000000  1
  O  O0  1  0.79107900  0.76476900  0.55680400  1
  O  O1  1  0.20892100  0.23523100  0.44319600  1
  O  O2  1  0.29107900  0.23523100  0.94319600  1
  O  O3  1  0.70892100  0.76476900  0.05680400  1
  O  O4  1  0.46485800  0.86168700  0.74427000  1
  O  O5  1  0.53514200  0.13831300  0.25573000  1
  O  O6  1  0.96485800  0.13831300  0.75573000  1
  O  O7  1  0.03514200  0.86168700  0.24427000  1
  O  O8  1  0.31731700  0.64932200  0.55136600  1
  O  O9  1  0.68268300  0.35067800  0.44863400  1
  O  O10  1  0.81731700  0.35067800  0.94863400  1
  O  O11  1  0.18268300  0.64932200  0.05136600  1
loop_
_geom_bond_atom_site_label_1
_geom_bond_atom_site_label_2
_geom_bond_distance
_geom_bond_site_symmetry_2
Li0 O4 2.068614 1_554
Li0 O5 2.068614 1_555
Li0 O3 2.158334 1_555
Li0 O2 2.158334 1_554
Li0 O10 2.167117 1_554
Li0 O11 2.167117 1_555
Li1 O6 2.068614 1_455
Li1 O7 2.068614 1_555
Li1 O0 2.158334 1_455
Li1 O1 2.158334 1_555
Li1 O8 2.167117 1_555
Li1 O9 2.167117 1_455
O0 Ru0 1.991453 1_565
O0 Sm0 2.382786 1_655
O0 Sm2 2.548085 1_555
O0 Sm1 2.724806 1_565
O1 Ru0 1.991453 1_555
O1 Sm1 2.382786 1_455
O1 Sm3 2.548085 1_555
O1 Sm0 2.724806 1_545
O2 Ru1 1.991453 1_556
O2 Sm2 2.382786 1_555
O2 Sm0 2.548085 1_555
O2 Sm3 2.724806 1_546
O3 Ru1 1.991453 1_665
O3 Sm3 2.382786 1_555
O3 Sm1 2.548085 1_555
O3 Sm2 2.724806 1_564
O4 Ru0 1.974468 1_565
O4 Sm2 2.313766 1_565
O4 Sm0 2.355325 1_555
O5 Ru0 1.974468 1_555
O5 Sm3 2.313766 1_545
O5 Sm1 2.355325 1_555
O6 Ru1 1.974468 1_656
O6 Sm0 2.313766 1_645
O6 Sm2 2.355325 1_555
O7 Ru1 1.974468 1_565
O7 Sm1 2.313766 1_465
O7 Sm3 2.355325 1_555
O8 Ru0 1.975144 1_565
O8 Sm2 2.352504 1_555
O8 Sm0 2.573895 1_555
O8 Sm3 2.661387 1_555
O9 Ru0 1.975144 1_555
O9 Sm3 2.352504 1_555
O9 Sm1 2.573895 1_555
O9 Sm2 2.661387 1_555
O10 Ru1 1.975144 1_656
O10 Sm0 2.352504 1_655
O10 Sm2 2.573895 1_555
O10 Sm1 2.661387 1_556
O11 Ru1 1.975144 1_565
O11 Sm1 2.352504 1_455
O11 Sm3 2.573895 1_555
O11 Sm0 2.661387 1_554
