# generated using pymatgen
data_Er2CuTe2(SO7)2
_symmetry_space_group_name_H-M   'P 1'
_cell_length_a   5.18927194
_cell_length_b   7.92849232
_cell_length_c   8.17641395
_cell_angle_alpha   62.25335880
_cell_angle_beta   74.14331809
_cell_angle_gamma   85.20073232
_symmetry_Int_Tables_number   1
_chemical_formula_structural   Er2CuTe2(SO7)2
_chemical_formula_sum   'Er2 Cu1 Te2 S2 O14'
_cell_volume   286.01803650
_cell_formula_units_Z   1
loop_
 _symmetry_equiv_pos_site_id
 _symmetry_equiv_pos_as_xyz
  1  'x, y, z'
loop_
 _atom_site_type_symbol
 _atom_site_label
 _atom_site_symmetry_multiplicity
 _atom_site_fract_x
 _atom_site_fract_y
 _atom_site_fract_z
 _atom_site_occupancy
  Er  Er0  1  0.92678600  0.74784000  0.98181000  1
  Er  Er1  1  0.07321400  0.25216000  0.01819000  1
  Cu  Cu0  1  0.00000000  0.00000000  0.50000000  1
  Te  Te0  1  0.48988300  0.72730900  0.65572600  1
  Te  Te1  1  0.51011700  0.27269100  0.34427400  1
  S  S0  1  0.25312400  0.74839300  0.24944000  1
  S  S1  1  0.74687600  0.25160700  0.75056000  1
  O  O0  1  0.13811600  0.58806700  0.23928400  1
  O  O1  1  0.86188400  0.41193300  0.76071600  1
  O  O2  1  0.14156800  0.74697400  0.43546500  1
  O  O3  1  0.85843200  0.25302600  0.56453500  1
  O  O4  1  0.54946300  0.73680500  0.21266300  1
  O  O5  1  0.45053700  0.26319500  0.78733700  1
  O  O6  1  0.17597900  0.92386800  0.09128600  1
  O  O7  1  0.82402100  0.07613200  0.90871400  1
  O  O8  1  0.24796700  0.55999600  0.89193500  1
  O  O9  1  0.75203300  0.44000400  0.10806500  1
  O  O10  1  0.73033700  0.81154300  0.74688400  1
  O  O11  1  0.26966300  0.18845700  0.25311600  1
  O  O12  1  0.24921100  0.92730900  0.65974100  1
  O  O13  1  0.75078900  0.07269100  0.34025900  1
loop_
_geom_bond_atom_site_label_1
_geom_bond_atom_site_label_2
_geom_bond_distance
_geom_bond_site_symmetry_2
Er0 O10 2.250460 1_555
Er0 O4 2.293385 1_556
Er0 O9 2.314671 1_556
Er0 O8 2.338881 1_655
Er0 O0 2.405260 1_656
Er0 O7 2.431025 1_565
Er0 O12 2.502082 1_655
Er0 O6 2.553228 1_656
Er1 O11 2.250460 1_555
Er1 O5 2.293385 1_554
Er1 O8 2.314671 1_554
Er1 O9 2.338881 1_455
Er1 O1 2.405260 1_454
Er1 O6 2.431025 1_545
Er1 O13 2.502082 1_455
Er1 O7 2.553228 1_454
Cu0 O13 1.951387 1_455
Cu0 O12 1.951387 1_545
Cu0 O10 2.064800 1_445
Cu0 O11 2.064800 1_555
Cu0 O2 2.317289 1_545
Cu0 O3 2.317289 1_455
O0 S0 1.493717 1_555
O1 S1 1.493717 1_555
O2 S0 1.467218 1_555
O3 S1 1.467218 1_555
O4 S0 1.487626 1_555
O5 S1 1.487626 1_555
O6 S0 1.510817 1_555
O7 S1 1.510817 1_555
O8 Te0 1.906285 1_555
O9 Te1 1.906285 1_555
O10 Te0 1.915641 1_555
O11 Te1 1.915641 1_555
O12 Te0 1.941645 1_555
O13 Te1 1.941645 1_555
