# generated using pymatgen
data_LiMn9CdO10
_symmetry_space_group_name_H-M   'P 1'
_cell_length_a   5.64835463
_cell_length_b   8.73371108
_cell_length_c   5.67530202
_cell_angle_alpha   71.11894365
_cell_angle_beta   109.44450308
_cell_angle_gamma   96.03188788
_symmetry_Int_Tables_number   1
_chemical_formula_structural   LiMn9CdO10
_chemical_formula_sum   'Li1 Mn9 Cd1 O10'
_cell_volume   249.79433876
_cell_formula_units_Z   1
loop_
 _symmetry_equiv_pos_site_id
 _symmetry_equiv_pos_as_xyz
  1  'x, y, z'
loop_
 _atom_site_type_symbol
 _atom_site_label
 _atom_site_symmetry_multiplicity
 _atom_site_fract_x
 _atom_site_fract_y
 _atom_site_fract_z
 _atom_site_occupancy
  Li  Li0  1  0.89493100  0.40172300  0.42612300  1
  Mn  Mn0  1  0.45730600  0.39884900  0.29702800  1
  Mn  Mn1  1  0.99965800  0.01028600  0.98160400  1
  Mn  Mn2  1  0.50693800  0.99877500  0.49767900  1
  Mn  Mn3  1  0.01400600  0.64414500  0.16008200  1
  Mn  Mn4  1  0.01365300  0.16219300  0.41080400  1
  Mn  Mn5  1  0.49364100  0.20294200  0.89758200  1
  Mn  Mn6  1  0.49140700  0.59294800  0.70156700  1
  Mn  Mn7  1  0.98676000  0.39399000  0.85919200  1
  Mn  Mn8  1  0.99289500  0.78664100  0.58776300  1
  Cd  Cd0  1  0.51390400  0.79795600  0.10009600  1
  O  O0  1  0.75059400  0.01428300  0.23416600  1
  O  O1  1  0.73723900  0.40588100  0.06815200  1
  O  O2  1  0.76314900  0.20681500  0.64182200  1
  O  O3  1  0.76263600  0.57207000  0.48657800  1
  O  O4  1  0.24702700  0.19545900  0.15312100  1
  O  O5  1  0.23988000  0.80370500  0.36462800  1
  O  O6  1  0.77094700  0.81122600  0.81648600  1
  O  O7  1  0.26125800  0.01015600  0.74708100  1
  O  O8  1  0.24881800  0.39985700  0.55024700  1
  O  O9  1  0.23430400  0.58853800  0.94676900  1
loop_
_geom_bond_atom_site_label_1
_geom_bond_atom_site_label_2
_geom_bond_distance
_geom_bond_site_symmetry_2
Li0 O8 1.885192 1_655
Li0 O3 1.903744 1_555
Li0 O1 1.917373 1_555
Li0 O2 1.985455 1_555
Li0 Mn4 2.298913 1_655
Li0 Mn7 2.316362 1_555
Li0 Mn0 2.332513 1_555
Li0 Mn3 2.350029 1_655
Mn0 O8 2.142242 1_555
Mn0 O9 2.218734 1_554
Mn0 O4 2.254518 1_555
Mn0 O1 2.342320 1_555
Mn0 O3 2.385383 1_555
Mn0 O2 2.420846 1_555
Mn1 O2 2.252529 1_555
Mn1 O4 2.270178 1_656
Mn1 O7 2.294686 1_655
Mn1 O6 2.312123 1_545
Mn1 O0 2.328108 1_556
Mn1 O5 2.415366 1_646
Mn2 O6 2.231435 1_555
Mn2 O5 2.298319 1_555
Mn2 O0 2.312802 1_565
Mn2 O7 2.316630 1_565
Mn2 O4 2.318301 1_565
Mn2 O2 2.384542 1_565
Mn3 O5 2.145828 1_555
Mn3 O6 2.147953 1_454
Mn3 O9 2.181800 1_554
Mn3 O1 2.553874 1_455
Mn3 O3 2.579631 1_455
Mn3 O8 2.606913 1_555
Mn4 O0 2.079542 1_455
Mn4 O7 2.081950 1_555
Mn4 O4 2.211039 1_555
Mn4 O2 2.356818 1_455
Mn4 O8 2.546167 1_555
Mn4 O1 2.597535 1_455
Mn5 O7 2.237693 1_555
Mn5 O0 2.256093 1_556
Mn5 O8 2.290534 1_555
Mn5 O4 2.304864 1_556
Mn5 O1 2.383871 1_556
Mn5 O2 2.419483 1_555
Mn6 O8 2.264337 1_555
Mn6 O1 2.297660 1_556
Mn6 O3 2.305686 1_555
Mn6 O9 2.312135 1_555
Mn6 O5 2.350737 1_555
Mn6 O6 2.457472 1_555
Mn7 O1 2.151000 1_556
Mn7 O9 2.161866 1_655
Mn7 O4 2.231877 1_656
Mn7 O3 2.235231 1_555
Mn7 O2 2.371364 1_555
Mn7 O8 2.630913 1_655
Mn8 O5 2.140662 1_655
Mn8 O6 2.150144 1_555
Mn8 O3 2.284771 1_555
Mn8 O9 2.317040 1_655
Mn8 O0 2.452355 1_565
Mn8 O7 2.556159 1_665
Cd0 O0 2.378691 1_565
Cd0 O7 2.394626 1_564
Cd0 O9 2.470751 1_554
Cd0 O6 2.472217 1_554
Cd0 O5 2.502850 1_555
Cd0 O3 2.531225 1_555
