# generated using pymatgen
data_YBPt3
_symmetry_space_group_name_H-M   'P 1'
_cell_length_a   4.34452800
_cell_length_b   4.34452800
_cell_length_c   4.34452800
_cell_angle_alpha   90.00000000
_cell_angle_beta   90.00000000
_cell_angle_gamma   90.00000000
_symmetry_Int_Tables_number   1
_chemical_formula_structural   YBPt3
_chemical_formula_sum   'Y1 B1 Pt3'
_cell_volume   82.00263383
_cell_formula_units_Z   1
loop_
 _symmetry_equiv_pos_site_id
 _symmetry_equiv_pos_as_xyz
  1  'x, y, z'
loop_
 _atom_site_type_symbol
 _atom_site_label
 _atom_site_symmetry_multiplicity
 _atom_site_fract_x
 _atom_site_fract_y
 _atom_site_fract_z
 _atom_site_occupancy
  Y  Y0  1  0.00000000  0.00000000  0.00000000  1
  B  B0  1  0.50000000  0.50000000  0.50000000  1
  Pt  Pt0  1  0.00000000  0.50000000  0.50000000  1
  Pt  Pt1  1  0.50000000  0.50000000  0.00000000  1
  Pt  Pt2  1  0.50000000  0.00000000  0.50000000  1
loop_
_geom_bond_atom_site_label_1
_geom_bond_atom_site_label_2
_geom_bond_distance
_geom_bond_site_symmetry_2
B0 Pt2 2.172264 1_565
B0 Pt0 2.172264 1_555
B0 Pt1 2.172264 1_556
B0 Pt0 2.172264 1_655
B0 Pt1 2.172264 1_555
B0 Pt2 2.172264 1_555
Pt0 Y0 3.072045 1_566
Pt0 Y0 3.072045 1_555
Pt0 Y0 3.072045 1_565
Pt0 Y0 3.072045 1_556
Pt1 Y0 3.072045 1_555
Pt1 Y0 3.072045 1_565
Pt1 Y0 3.072045 1_665
Pt1 Y0 3.072045 1_655
Pt2 Y0 3.072045 1_555
Pt2 Y0 3.072045 1_656
Pt2 Y0 3.072045 1_655
Pt2 Y0 3.072045 1_556
