# generated using pymatgen
data_Ba2V2O5
_symmetry_space_group_name_H-M   'P 1'
_cell_length_a   8.36476300
_cell_length_b   4.03475100
_cell_length_c   4.03476300
_cell_angle_alpha   89.99985799
_cell_angle_beta   90.00016740
_cell_angle_gamma   90.00003475
_symmetry_Int_Tables_number   1
_chemical_formula_structural   Ba2V2O5
_chemical_formula_sum   'Ba2 V2 O5'
_cell_volume   136.17218558
_cell_formula_units_Z   1
loop_
 _symmetry_equiv_pos_site_id
 _symmetry_equiv_pos_as_xyz
  1  'x, y, z'
loop_
 _atom_site_type_symbol
 _atom_site_label
 _atom_site_symmetry_multiplicity
 _atom_site_fract_x
 _atom_site_fract_y
 _atom_site_fract_z
 _atom_site_occupancy
  Ba  Ba0  1  0.99999900  0.99999900  0.00000000  1
  Ba  Ba1  1  0.50000400  0.99999900  0.00000000  1
  V  V0  1  0.26085000  0.50000800  0.49999400  1
  V  V1  1  0.73916300  0.49999900  0.50000400  1
  O  O0  1  0.22747400  0.50000000  0.00000600  1
  O  O1  1  0.77252900  0.50000100  0.00000000  1
  O  O2  1  0.49998100  0.50000000  0.49999900  1
  O  O3  1  0.22747300  0.00000000  0.50000100  1
  O  O4  1  0.77252900  0.99999800  0.50000200  1
loop_
_geom_bond_atom_site_label_1
_geom_bond_atom_site_label_2
_geom_bond_distance
_geom_bond_site_symmetry_2
Ba0 O1 2.773113 1_555
Ba0 O4 2.773115 1_554
Ba0 O1 2.773127 1_565
Ba0 O4 2.773134 1_555
Ba0 O3 2.773146 1_665
Ba0 O0 2.773147 1_655
Ba0 O3 2.773149 1_664
Ba0 O0 2.773151 1_665
Ba1 O2 2.852995 1_555
Ba1 O2 2.853006 1_564
Ba1 O2 2.853008 1_554
Ba1 O2 2.853008 1_565
Ba1 O1 3.044074 1_555
Ba1 O4 3.044081 1_554
Ba1 O1 3.044083 1_565
Ba1 O4 3.044083 1_555
Ba1 O0 3.044106 1_555
Ba1 O3 3.044113 1_564
Ba1 O0 3.044113 1_565
Ba1 O3 3.044127 1_565
O0 V0 2.036559 1_555
O0 V0 2.036656 1_554
O1 V1 2.036579 1_554
O1 V1 2.036613 1_555
O2 V0 2.000274 1_555
O2 V1 2.000701 1_555
O3 V0 2.036571 1_545
O3 V0 2.036635 1_555
O4 V1 2.036586 1_555
O4 V1 2.036594 1_565
