# generated using pymatgen
data_CsMg14Mn
_symmetry_space_group_name_H-M   'P 1'
_cell_length_a   6.41467353
_cell_length_b   6.41467301
_cell_length_c   10.73802664
_cell_angle_alpha   90.00000000
_cell_angle_beta   90.00000000
_cell_angle_gamma   120.00000274
_symmetry_Int_Tables_number   1
_chemical_formula_structural   CsMg14Mn
_chemical_formula_sum   'Cs1 Mg14 Mn1'
_cell_volume   382.65216769
_cell_formula_units_Z   1
loop_
 _symmetry_equiv_pos_site_id
 _symmetry_equiv_pos_as_xyz
  1  'x, y, z'
loop_
 _atom_site_type_symbol
 _atom_site_label
 _atom_site_symmetry_multiplicity
 _atom_site_fract_x
 _atom_site_fract_y
 _atom_site_fract_z
 _atom_site_occupancy
  Cs  Cs0  1  0.16666700  0.33333300  0.62500000  1
  Mg  Mg0  1  0.15549878  0.82774889  0.12500000  1
  Mg  Mg1  1  0.17338009  0.83668955  0.62500000  1
  Mg  Mg2  1  0.67225111  0.34450122  0.12500000  1
  Mg  Mg3  1  0.66331045  0.32661991  0.62500000  1
  Mg  Mg4  1  0.67225111  0.82774889  0.12500000  1
  Mg  Mg5  1  0.66331045  0.83668955  0.62500000  1
  Mg  Mg6  1  0.33021615  0.16978385  0.33872869  1
  Mg  Mg7  1  0.33021615  0.16978385  0.91127131  1
  Mg  Mg8  1  0.33021615  0.66043330  0.33872869  1
  Mg  Mg9  1  0.33021615  0.66043330  0.91127131  1
  Mg  Mg10  1  0.83956670  0.16978385  0.33872869  1
  Mg  Mg11  1  0.83956670  0.16978385  0.91127131  1
  Mg  Mg12  1  0.83333300  0.66666700  0.38580587  1
  Mg  Mg13  1  0.83333300  0.66666700  0.86419413  1
  Mn  Mn0  1  0.16666700  0.33333300  0.12500000  1
loop_
_geom_bond_atom_site_label_1
_geom_bond_atom_site_label_2
_geom_bond_distance
_geom_bond_site_symmetry_2
Cs0 Mg1 3.207553 1_545
Cs0 Mg5 3.207553 1_555
Cs0 Mg5 3.207553 1_445
Cs0 Mg1 3.207553 1_555
Cs0 Mg3 3.207554 1_555
Cs0 Mg3 3.207554 1_455
Cs0 Mg7 3.570901 1_555
Cs0 Mg6 3.570901 1_555
Cs0 Mg9 3.570906 1_555
Cs0 Mg8 3.570906 1_555
Cs0 Mg11 3.570906 1_455
Cs0 Mg10 3.570906 1_455
Mg0 Mg8 2.979602 1_555
Mg0 Mg9 2.979602 1_554
Mg0 Mg6 2.979608 1_565
Mg0 Mg7 2.979608 1_564
Mg0 Mg2 3.099876 1_455
Mg0 Mg4 3.099876 1_455
Mg0 Mn0 3.207937 1_565
Mg0 Mn0 3.207937 1_555
Mg0 Mg2 3.314797 1_565
Mg0 Mg4 3.314797 1_555
Mg0 Mg12 3.323570 1_455
Mg0 Mg13 3.323570 1_454
Mg1 Mg12 3.188350 1_455
Mg1 Mg13 3.188350 1_455
Mg2 Mg6 2.979609 1_555
Mg2 Mg7 2.979609 1_554
Mg2 Mg4 3.099876 1_555
Mg2 Mn0 3.207937 1_555
Mg2 Mn0 3.207937 1_655
Mg2 Mg4 3.314797 1_545
Mg4 Mg8 2.979609 1_555
Mg4 Mg9 2.979609 1_554
Mg4 Mn0 3.207937 1_665
Mg4 Mn0 3.207937 1_555
Mg6 Mn0 2.927296 1_555
Mg6 Mg8 3.147356 1_555
Mg6 Mg8 3.267317 1_545
Mg7 Mn0 2.927296 1_556
Mg7 Mg9 3.147356 1_555
Mg7 Mg9 3.267317 1_545
Mg8 Mn0 2.927302 1_555
Mg9 Mn0 2.927302 1_556
Mg10 Mn0 2.927303 1_655
Mg10 Mg2 2.979602 1_555
Mg10 Mg4 2.979609 1_545
Mg10 Mg8 3.147356 1_655
Mg10 Mg6 3.147356 1_655
Mg10 Mg12 3.247115 1_545
Mg10 Mg12 3.247115 1_555
Mg10 Mg8 3.267317 1_545
Mg10 Mg6 3.267317 1_555
Mg11 Mn0 2.927303 1_656
Mg11 Mg2 2.979602 1_556
Mg11 Mg4 2.979609 1_546
Mg11 Mg9 3.147356 1_655
Mg11 Mg7 3.147356 1_655
Mg11 Mg13 3.247115 1_545
Mg11 Mg13 3.247115 1_555
Mg11 Mg9 3.267317 1_545
Mg11 Mg7 3.267317 1_555
Mg12 Mg5 3.188344 1_555
Mg12 Mg3 3.188350 1_555
Mg12 Mg6 3.247115 1_665
Mg12 Mg6 3.247115 1_555
Mg12 Mg8 3.247115 1_555
Mg12 Mg8 3.247115 1_655
Mg12 Mg4 3.323564 1_555
Mg12 Mg2 3.323570 1_555
Mg13 Mg5 3.188344 1_555
Mg13 Mg3 3.188350 1_555
Mg13 Mg7 3.247115 1_665
Mg13 Mg7 3.247115 1_555
Mg13 Mg9 3.247115 1_555
Mg13 Mg9 3.247115 1_655
Mg13 Mg4 3.323564 1_556
Mg13 Mg2 3.323570 1_556
