# generated using pymatgen
data_CeFe5
_symmetry_space_group_name_H-M   'P 1'
_cell_length_a   5.07209025
_cell_length_b   5.07208130
_cell_length_c   4.04920399
_cell_angle_alpha   89.99999953
_cell_angle_beta   90.00000011
_cell_angle_gamma   119.99713342
_symmetry_Int_Tables_number   1
_chemical_formula_structural   CeFe5
_chemical_formula_sum   'Ce1 Fe5'
_cell_volume   90.21650765
_cell_formula_units_Z   1
loop_
 _symmetry_equiv_pos_site_id
 _symmetry_equiv_pos_as_xyz
  1  'x, y, z'
loop_
 _atom_site_type_symbol
 _atom_site_label
 _atom_site_symmetry_multiplicity
 _atom_site_fract_x
 _atom_site_fract_y
 _atom_site_fract_z
 _atom_site_occupancy
  Ce  Ce0  1  -0.00000001  -0.00000000  -0.00000000  1
  Fe  Fe0  1  -0.00000004  0.50000011  0.50000000  1
  Fe  Fe1  1  0.33333408  0.66666734  0.00000000  1
  Fe  Fe2  1  0.66666593  0.33333266  0.00000000  1
  Fe  Fe3  1  0.50000015  0.00000004  0.50000000  1
  Fe  Fe4  1  0.49999990  0.49999986  0.50000000  1
loop_
_geom_bond_atom_site_label_1
_geom_bond_atom_site_label_2
_geom_bond_distance
_geom_bond_site_symmetry_2
Ce0 Fe2 2.928328 1_455
Ce0 Fe1 2.928328 1_545
Ce0 Fe1 2.928454 1_445
Ce0 Fe2 2.928454 1_555
Ce0 Fe2 2.928455 1_445
Ce0 Fe1 2.928455 1_555
Ce0 Fe0 3.245075 1_545
Ce0 Fe0 3.245075 1_544
Ce0 Fe0 3.245076 1_554
Ce0 Fe0 3.245076 1_555
Ce0 Fe3 3.245079 1_454
Ce0 Fe3 3.245079 1_455
Ce0 Fe3 3.245080 1_555
Ce0 Fe3 3.245080 1_554
Ce0 Fe4 3.245163 1_554
Ce0 Fe4 3.245163 1_555
Ce0 Fe4 3.245164 1_445
Ce0 Fe4 3.245164 1_444
Fe0 Fe2 2.498597 1_456
Fe0 Fe2 2.498597 1_455
Fe0 Fe1 2.498597 1_555
Fe0 Fe1 2.498597 1_556
Fe0 Fe4 2.536045 1_455
Fe0 Fe4 2.536045 1_555
Fe0 Fe3 2.536152 1_455
Fe0 Fe3 2.536153 1_565
Fe1 Fe4 2.498557 1_555
Fe1 Fe4 2.498557 1_554
Fe1 Fe3 2.498592 1_564
Fe1 Fe3 2.498592 1_565
Fe2 Fe4 2.498557 1_554
Fe2 Fe4 2.498557 1_555
Fe2 Fe3 2.498592 1_555
Fe2 Fe3 2.498592 1_554
Fe3 Fe4 2.536040 1_555
Fe3 Fe4 2.536041 1_545
