# generated using pymatgen
data_Y(ClO4)3
_symmetry_space_group_name_H-M   'P 1'
_cell_length_a   9.44744666
_cell_length_b   9.44744666
_cell_length_c   5.68765800
_cell_angle_alpha   90.00000000
_cell_angle_beta   90.00000000
_cell_angle_gamma   120.00000463
_symmetry_Int_Tables_number   1
_chemical_formula_structural   Y(ClO4)3
_chemical_formula_sum   'Y2 Cl6 O24'
_cell_volume   439.63573191
_cell_formula_units_Z   2
loop_
 _symmetry_equiv_pos_site_id
 _symmetry_equiv_pos_as_xyz
  1  'x, y, z'
loop_
 _atom_site_type_symbol
 _atom_site_label
 _atom_site_symmetry_multiplicity
 _atom_site_fract_x
 _atom_site_fract_y
 _atom_site_fract_z
 _atom_site_occupancy
  Y  Y0  1  0.66666700  0.33333300  0.25000000  1
  Y  Y1  1  0.33333300  0.66666700  0.75000000  1
  Cl  Cl0  1  0.09072700  0.38813500  0.25000000  1
  Cl  Cl1  1  0.90927300  0.61186500  0.75000000  1
  Cl  Cl2  1  0.61186500  0.70259300  0.25000000  1
  Cl  Cl3  1  0.38813500  0.29740700  0.75000000  1
  Cl  Cl4  1  0.29740700  0.90927300  0.25000000  1
  Cl  Cl5  1  0.70259300  0.09072700  0.75000000  1
  O  O0  1  0.14467500  0.49579700  0.04218300  1
  O  O1  1  0.85532500  0.50420300  0.95781700  1
  O  O2  1  0.50420300  0.64887800  0.04218300  1
  O  O3  1  0.85532500  0.50420300  0.54218300  1
  O  O4  1  0.49579700  0.35112200  0.95781700  1
  O  O5  1  0.14467500  0.49579700  0.45781700  1
  O  O6  1  0.35112200  0.85532500  0.04218300  1
  O  O7  1  0.49579700  0.35112200  0.54218300  1
  O  O8  1  0.64887800  0.14467500  0.95781700  1
  O  O9  1  0.50420300  0.64887800  0.45781700  1
  O  O10  1  0.64887800  0.14467500  0.54218300  1
  O  O11  1  0.35112200  0.85532500  0.45781700  1
  O  O12  1  0.15287800  0.27896200  0.25000000  1
  O  O13  1  0.84712200  0.72103800  0.75000000  1
  O  O14  1  0.72103800  0.87391500  0.25000000  1
  O  O15  1  0.27896200  0.12608500  0.75000000  1
  O  O16  1  0.12608500  0.84712200  0.25000000  1
  O  O17  1  0.87391500  0.15287800  0.75000000  1
  O  O18  1  0.38478100  0.08734400  0.25000000  1
  O  O19  1  0.61521900  0.91265600  0.75000000  1
  O  O20  1  0.91265600  0.29743700  0.25000000  1
  O  O21  1  0.08734400  0.70256300  0.75000000  1
  O  O22  1  0.70256300  0.61521900  0.25000000  1
  O  O23  1  0.29743700  0.38478100  0.75000000  1
loop_
_geom_bond_atom_site_label_1
_geom_bond_atom_site_label_2
_geom_bond_distance
_geom_bond_site_symmetry_2
Cl0 O12 1.419216 1_555
Cl0 O20 1.457013 1_455
Cl0 O5 1.474118 1_555
Cl0 O0 1.474118 1_555
Cl1 O13 1.419216 1_555
Cl1 O21 1.457013 1_655
Cl1 O3 1.474118 1_555
Cl1 O1 1.474118 1_555
Cl2 O14 1.419201 1_555
Cl2 O22 1.457021 1_555
Cl2 O9 1.474118 1_555
Cl2 O2 1.474118 1_555
Cl3 O15 1.419201 1_555
Cl3 O23 1.457021 1_555
Cl3 O7 1.474118 1_555
Cl3 O4 1.474118 1_555
Cl4 O16 1.419198 1_555
Cl4 O18 1.457013 1_565
Cl4 O11 1.474123 1_555
Cl4 O6 1.474123 1_555
Cl5 O17 1.419198 1_555
Cl5 O19 1.457013 1_545
Cl5 O10 1.474123 1_555
Cl5 O8 1.474123 1_555
O0 Y1 2.380576 1_554
O1 Y0 2.380576 1_556
O2 Y1 2.380580 1_554
O3 Y0 2.380576 1_555
O4 Y0 2.380580 1_556
O5 Y1 2.380576 1_555
O6 Y1 2.380573 1_554
O7 Y0 2.380580 1_555
O8 Y0 2.380573 1_556
O9 Y1 2.380580 1_555
O10 Y0 2.380573 1_555
O11 Y1 2.380573 1_555
O18 Y0 2.510772 1_555
O19 Y1 2.510772 1_555
O20 Y0 2.510767 1_555
O21 Y1 2.510767 1_555
O22 Y0 2.510776 1_555
O23 Y1 2.510776 1_555
