# generated using pymatgen
data_K8Tl10Zn
_symmetry_space_group_name_H-M   'P 1'
_cell_length_a   10.33603839
_cell_length_b   10.33603839
_cell_length_c   13.84997028
_cell_angle_alpha   90.00000000
_cell_angle_beta   90.00000000
_cell_angle_gamma   90.00000000
_symmetry_Int_Tables_number   1
_chemical_formula_structural   K8Tl10Zn
_chemical_formula_sum   'K16 Tl20 Zn2'
_cell_volume   1479.64342586
_cell_formula_units_Z   2
loop_
 _symmetry_equiv_pos_site_id
 _symmetry_equiv_pos_as_xyz
  1  'x, y, z'
loop_
 _atom_site_type_symbol
 _atom_site_label
 _atom_site_symmetry_multiplicity
 _atom_site_fract_x
 _atom_site_fract_y
 _atom_site_fract_z
 _atom_site_occupancy
  K  K0  1  0.70348962  0.07393811  0.14539596  1
  K  K1  1  0.29651038  0.92606189  0.14539596  1
  K  K2  1  0.29651038  0.07393811  0.85460404  1
  K  K3  1  0.70348962  0.92606189  0.85460404  1
  K  K4  1  0.79651038  0.42606189  0.35460404  1
  K  K5  1  0.20348962  0.57393811  0.35460404  1
  K  K6  1  0.20348962  0.42606189  0.64539596  1
  K  K7  1  0.79651038  0.57393811  0.64539596  1
  K  K8  1  0.07393811  0.70348962  0.85460404  1
  K  K9  1  0.92606189  0.29651038  0.85460404  1
  K  K10  1  0.07393811  0.29651038  0.14539596  1
  K  K11  1  0.92606189  0.70348962  0.14539596  1
  K  K12  1  0.42606189  0.79651038  0.64539596  1
  K  K13  1  0.57393811  0.20348962  0.64539596  1
  K  K14  1  0.42606189  0.20348962  0.35460404  1
  K  K15  1  0.57393811  0.79651038  0.35460404  1
  Tl  Tl0  1  0.76069637  0.09486116  0.41087651  1
  Tl  Tl1  1  0.23930363  0.90513884  0.41087651  1
  Tl  Tl2  1  0.23930363  0.09486116  0.58912349  1
  Tl  Tl3  1  0.76069637  0.90513884  0.58912349  1
  Tl  Tl4  1  0.73930363  0.40513884  0.08912349  1
  Tl  Tl5  1  0.26069637  0.59486116  0.08912349  1
  Tl  Tl6  1  0.26069637  0.40513884  0.91087651  1
  Tl  Tl7  1  0.73930363  0.59486116  0.91087651  1
  Tl  Tl8  1  0.09486116  0.76069637  0.58912349  1
  Tl  Tl9  1  0.90513884  0.23930363  0.58912349  1
  Tl  Tl10  1  0.09486116  0.23930363  0.41087651  1
  Tl  Tl11  1  0.90513884  0.76069637  0.41087651  1
  Tl  Tl12  1  0.40513884  0.73930363  0.91087651  1
  Tl  Tl13  1  0.59486116  0.26069637  0.91087651  1
  Tl  Tl14  1  0.40513884  0.26069637  0.08912349  1
  Tl  Tl15  1  0.59486116  0.73930363  0.08912349  1
  Tl  Tl16  1  0.50000000  0.50000000  0.20914191  1
  Tl  Tl17  1  0.50000000  0.50000000  0.79085809  1
  Tl  Tl18  1  0.00000000  -0.00000000  0.29085809  1
  Tl  Tl19  1  0.00000000  -0.00000000  0.70914191  1
  Zn  Zn0  1  0.50000000  0.50000000  0.00000000  1
  Zn  Zn1  1  0.00000000  -0.00000000  0.50000000  1
loop_
_geom_bond_atom_site_label_1
_geom_bond_atom_site_label_2
_geom_bond_distance
_geom_bond_site_symmetry_2
K0 Tl4 3.530362 1_555
K0 Tl15 3.719050 1_545
K0 Tl14 3.720651 1_555
K0 Tl0 3.730412 1_555
K0 Tl18 3.746397 1_655
K0 Tl13 3.941692 1_554
K0 K15 4.290837 1_545
K0 K14 4.290837 1_555
K0 K3 4.307737 1_544
K0 K11 4.466921 1_545
K0 K10 4.466921 1_655
K0 K1 4.475630 1_545
K1 Tl5 3.530362 1_555
K1 Tl14 3.719050 1_565
K1 Tl15 3.720651 1_555
K1 Tl1 3.730412 1_555
K1 Tl18 3.746397 1_565
K1 Tl12 3.941692 1_554
K1 K14 4.290837 1_565
K1 K15 4.290837 1_555
K1 K2 4.307737 1_564
K1 K10 4.466921 1_565
K1 K11 4.466921 1_455
K2 Tl6 3.530362 1_555
K2 Tl12 3.719050 1_545
K2 Tl13 3.720651 1_555
K2 Tl2 3.730412 1_555
K2 Tl19 3.746397 1_555
K2 Tl14 3.941692 1_556
K2 K8 4.466921 1_545
K2 K9 4.466921 1_455
K2 K3 4.475630 1_545
K3 Tl7 3.530362 1_555
K3 Tl13 3.719050 1_565
K3 Tl12 3.720651 1_555
K3 Tl3 3.730412 1_555
K3 Tl19 3.746397 1_665
K3 Tl15 3.941692 1_556
K3 K9 4.466921 1_565
K3 K8 4.466921 1_655
K4 Tl0 3.530362 1_555
K4 Tl11 3.719050 1_555
K4 Tl10 3.720651 1_655
K4 Tl4 3.730412 1_555
K4 Tl16 3.746397 1_555
K4 Tl9 3.941692 1_555
K4 K7 4.307737 1_555
K4 K5 4.475630 1_655
K5 Tl1 3.530362 1_555
K5 Tl10 3.719050 1_555
K5 Tl11 3.720651 1_455
K5 Tl5 3.730412 1_555
K5 Tl16 3.746397 1_555
K5 Tl8 3.941692 1_555
K5 K6 4.307737 1_555
K6 Tl2 3.530362 1_555
K6 Tl8 3.719050 1_555
K6 Tl9 3.720651 1_455
K6 Tl6 3.730412 1_555
K6 Tl17 3.746397 1_555
K6 Tl10 3.941692 1_555
K6 K9 4.290837 1_455
K6 K8 4.290837 1_555
K6 K7 4.475630 1_455
K7 Tl3 3.530362 1_555
K7 Tl9 3.719050 1_555
K7 Tl8 3.720651 1_655
K7 Tl7 3.730412 1_555
K7 Tl17 3.746397 1_555
K7 Tl11 3.941692 1_555
K7 K9 4.290837 1_555
K7 K8 4.290837 1_655
K8 Tl12 3.530362 1_555
K8 Tl7 3.719050 1_455
K8 Tl6 3.720651 1_555
K8 Tl8 3.730412 1_555
K8 Tl19 3.746397 1_565
K8 Tl5 3.941692 1_556
K8 K9 4.475630 1_455
K9 Tl13 3.530362 1_555
K9 Tl6 3.719050 1_655
K9 Tl7 3.720651 1_555
K9 Tl9 3.730412 1_555
K9 Tl19 3.746397 1_655
K9 Tl4 3.941692 1_556
K10 Tl14 3.530362 1_555
K10 Tl4 3.719050 1_455
K10 Tl5 3.720651 1_555
K10 Tl10 3.730412 1_555
K10 Tl18 3.746397 1_555
K10 Tl6 3.941692 1_554
K10 K5 4.290837 1_555
K10 K4 4.290837 1_455
K10 K9 4.307737 1_454
K10 K11 4.475630 1_455
K11 Tl15 3.530362 1_555
K11 Tl5 3.719050 1_655
K11 Tl4 3.720651 1_555
K11 Tl11 3.730412 1_555
K11 Tl18 3.746397 1_665
K11 Tl7 3.941692 1_554
K11 K5 4.290837 1_655
K11 K4 4.290837 1_555
K11 K8 4.307737 1_654
K12 Tl8 3.530362 1_555
K12 Tl3 3.719050 1_555
K12 Tl2 3.720651 1_565
K12 Tl12 3.730412 1_555
K12 Tl17 3.746397 1_555
K12 Tl1 3.941692 1_555
K12 K2 4.290837 1_565
K12 K3 4.290837 1_555
K12 K15 4.307737 1_555
K12 K7 4.466921 1_555
K12 K6 4.466921 1_555
K12 K13 4.475630 1_565
K13 Tl9 3.530362 1_555
K13 Tl2 3.719050 1_555
K13 Tl3 3.720651 1_545
K13 Tl13 3.730412 1_555
K13 Tl17 3.746397 1_555
K13 Tl0 3.941692 1_555
K13 K3 4.290837 1_545
K13 K2 4.290837 1_555
K13 K14 4.307737 1_555
K13 K7 4.466921 1_555
K13 K6 4.466921 1_555
K14 Tl10 3.530362 1_555
K14 Tl0 3.719050 1_555
K14 Tl1 3.720651 1_545
K14 Tl14 3.730412 1_555
K14 Tl16 3.746397 1_555
K14 Tl2 3.941692 1_555
K14 K5 4.466921 1_555
K14 K4 4.466921 1_555
K14 K15 4.475630 1_545
K15 Tl11 3.530362 1_555
K15 Tl1 3.719050 1_555
K15 Tl0 3.720651 1_565
K15 Tl15 3.730412 1_555
K15 Tl16 3.746397 1_555
K15 Tl3 3.941692 1_555
K15 K4 4.466921 1_555
K15 K5 4.466921 1_555
Tl0 Zn1 2.933080 1_655
Tl0 Tl18 3.137260 1_655
Tl0 Tl3 3.152775 1_545
Tl0 Tl9 3.248451 1_555
Tl1 Zn1 2.933080 1_565
Tl1 Tl18 3.137260 1_565
Tl1 Tl2 3.152775 1_565
Tl1 Tl8 3.248451 1_555
Tl2 Zn1 2.933080 1_555
Tl3 Zn1 2.933080 1_665
Tl4 Zn0 2.933080 1_555
Tl4 Tl7 3.152775 1_554
Tl5 Zn0 2.933080 1_555
Tl5 Tl6 3.152775 1_554
Tl6 Zn0 2.933080 1_556
Tl7 Zn0 2.933080 1_556
Tl8 Zn1 2.933080 1_565
Tl9 Zn1 2.933080 1_655
Tl10 Zn1 2.933080 1_555
Tl10 Tl18 3.137260 1_555
Tl10 Tl9 3.152775 1_455
Tl10 Tl2 3.248451 1_555
Tl11 Zn1 2.933080 1_665
Tl11 Tl18 3.137260 1_665
Tl11 Tl8 3.152775 1_655
Tl11 Tl3 3.248451 1_555
Tl12 Zn0 2.933080 1_556
Tl12 Tl17 3.137260 1_555
Tl12 Tl15 3.152775 1_556
Tl12 Tl5 3.248451 1_556
Tl13 Zn0 2.933080 1_556
Tl13 Tl17 3.137260 1_555
Tl13 Tl14 3.152775 1_556
Tl13 Tl4 3.248451 1_556
Tl14 Zn0 2.933080 1_555
Tl14 Tl16 3.137260 1_555
Tl14 Tl6 3.248451 1_554
Tl15 Zn0 2.933080 1_555
Tl15 Tl16 3.137260 1_555
Tl15 Tl7 3.248451 1_554
Tl16 Zn0 2.896609 1_555
Tl16 Tl5 3.137260 1_555
Tl16 Tl4 3.137260 1_555
Tl17 Zn0 2.896609 1_556
Tl17 Tl6 3.137260 1_555
Tl17 Tl7 3.137260 1_555
Tl18 Zn1 2.896609 1_555
Tl19 Zn1 2.896609 1_555
Tl19 Tl9 3.137260 1_455
Tl19 Tl8 3.137260 1_545
Tl19 Tl2 3.137260 1_555
Tl19 Tl3 3.137260 1_445
