# generated using pymatgen
data_CaMg30BiO32
_symmetry_space_group_name_H-M   'P 1'
_cell_length_a   8.67294300
_cell_length_b   8.67294300
_cell_length_c   8.67245000
_cell_angle_alpha   90.00000000
_cell_angle_beta   90.00000000
_cell_angle_gamma   90.00000000
_symmetry_Int_Tables_number   1
_chemical_formula_structural   CaMg30BiO32
_chemical_formula_sum   'Ca1 Mg30 Bi1 O32'
_cell_volume   652.34117109
_cell_formula_units_Z   1
loop_
 _symmetry_equiv_pos_site_id
 _symmetry_equiv_pos_as_xyz
  1  'x, y, z'
loop_
 _atom_site_type_symbol
 _atom_site_label
 _atom_site_symmetry_multiplicity
 _atom_site_fract_x
 _atom_site_fract_y
 _atom_site_fract_z
 _atom_site_occupancy
  Ca  Ca0  1  0.00000000  0.00000000  0.00000000  1
  Mg  Mg0  1  0.50000000  0.00000000  0.00000000  1
  Mg  Mg1  1  0.00000000  0.50000000  0.00000000  1
  Mg  Mg2  1  0.00000000  0.00000000  0.50000000  1
  Mg  Mg3  1  0.50000000  0.00000000  0.50000000  1
  Mg  Mg4  1  0.00000000  0.50000000  0.50000000  1
  Mg  Mg5  1  0.50000000  0.50000000  0.50000000  1
  Mg  Mg6  1  0.24606000  0.24606000  0.00000000  1
  Mg  Mg7  1  0.75394000  0.24606000  0.00000000  1
  Mg  Mg8  1  0.24606000  0.75394000  0.00000000  1
  Mg  Mg9  1  0.75394000  0.75394000  0.00000000  1
  Mg  Mg10  1  0.24931800  0.24931800  0.50000000  1
  Mg  Mg11  1  0.75068200  0.24931800  0.50000000  1
  Mg  Mg12  1  0.24931800  0.75068200  0.50000000  1
  Mg  Mg13  1  0.75068200  0.75068200  0.50000000  1
  Mg  Mg14  1  0.25215400  0.00000000  0.25424200  1
  Mg  Mg15  1  0.74784600  0.00000000  0.25424200  1
  Mg  Mg16  1  0.24311300  0.50000000  0.25756800  1
  Mg  Mg17  1  0.75688700  0.50000000  0.25756800  1
  Mg  Mg18  1  0.25215400  0.00000000  0.74575800  1
  Mg  Mg19  1  0.74784600  0.00000000  0.74575800  1
  Mg  Mg20  1  0.24311300  0.50000000  0.74243200  1
  Mg  Mg21  1  0.75688700  0.50000000  0.74243200  1
  Mg  Mg22  1  0.00000000  0.25215400  0.25424200  1
  Mg  Mg23  1  0.50000000  0.24311300  0.25756800  1
  Mg  Mg24  1  0.00000000  0.74784600  0.25424200  1
  Mg  Mg25  1  0.50000000  0.75688700  0.25756800  1
  Mg  Mg26  1  0.00000000  0.25215400  0.74575800  1
  Mg  Mg27  1  0.50000000  0.24311300  0.74243200  1
  Mg  Mg28  1  0.00000000  0.74784600  0.74575800  1
  Mg  Mg29  1  0.50000000  0.75688700  0.74243200  1
  Bi  Bi0  1  0.50000000  0.50000000  0.00000000  1
  O  O0  1  0.00000000  0.00000000  0.26259600  1
  O  O1  1  0.50000000  0.00000000  0.25508000  1
  O  O2  1  0.00000000  0.50000000  0.25508000  1
  O  O3  1  0.50000000  0.50000000  0.26921300  1
  O  O4  1  0.00000000  0.00000000  0.73740400  1
  O  O5  1  0.50000000  0.00000000  0.74492000  1
  O  O6  1  0.00000000  0.50000000  0.74492000  1
  O  O7  1  0.50000000  0.50000000  0.73078700  1
  O  O8  1  0.25068700  0.25068700  0.24930900  1
  O  O9  1  0.74931300  0.25068700  0.24930900  1
  O  O10  1  0.25068700  0.74931300  0.24930900  1
  O  O11  1  0.74931300  0.74931300  0.24930900  1
  O  O12  1  0.25068700  0.25068700  0.75069100  1
  O  O13  1  0.74931300  0.25068700  0.75069100  1
  O  O14  1  0.25068700  0.74931300  0.75069100  1
  O  O15  1  0.74931300  0.74931300  0.75069100  1
  O  O16  1  0.26011800  0.00000000  0.00000000  1
  O  O17  1  0.73988200  0.00000000  0.00000000  1
  O  O18  1  0.23258000  0.50000000  0.00000000  1
  O  O19  1  0.76742000  0.50000000  0.00000000  1
  O  O20  1  0.25180000  0.00000000  0.50000000  1
  O  O21  1  0.74820000  0.00000000  0.50000000  1
  O  O22  1  0.24751800  0.50000000  0.50000000  1
  O  O23  1  0.75248200  0.50000000  0.50000000  1
  O  O24  1  0.00000000  0.26011800  0.00000000  1
  O  O25  1  0.50000000  0.23258000  0.00000000  1
  O  O26  1  0.00000000  0.73988200  0.00000000  1
  O  O27  1  0.50000000  0.76742000  0.00000000  1
  O  O28  1  0.00000000  0.25180000  0.50000000  1
  O  O29  1  0.50000000  0.24751800  0.50000000  1
  O  O30  1  0.00000000  0.74820000  0.50000000  1
  O  O31  1  0.50000000  0.75248200  0.50000000  1
loop_
_geom_bond_atom_site_label_1
_geom_bond_atom_site_label_2
_geom_bond_distance
_geom_bond_site_symmetry_2
Ca0 O16 2.255989 1_555
Ca0 O24 2.255989 1_555
Ca0 O17 2.255989 1_455
Ca0 O26 2.255989 1_545
Ca0 O0 2.277351 1_555
Ca0 O4 2.277351 1_554
Mg0 O27 2.017153 1_545
Mg0 O25 2.017153 1_555
Mg0 O17 2.080483 1_555
Mg0 O16 2.080483 1_555
Mg0 O5 2.212169 1_554
Mg0 O1 2.212169 1_555
Mg1 O19 2.017153 1_455
Mg1 O18 2.017153 1_555
Mg1 O26 2.080483 1_555
Mg1 O24 2.080483 1_555
Mg1 O6 2.212169 1_554
Mg1 O2 2.212169 1_555
Mg2 O4 2.058874 1_555
Mg2 O0 2.058874 1_555
Mg2 O21 2.183847 1_455
Mg2 O30 2.183847 1_545
Mg2 O20 2.183847 1_555
Mg2 O28 2.183847 1_555
Mg3 O1 2.124056 1_555
Mg3 O5 2.124056 1_555
Mg3 O29 2.146710 1_555
Mg3 O31 2.146710 1_545
Mg3 O20 2.152624 1_555
Mg3 O21 2.152624 1_555
Mg4 O2 2.124056 1_555
Mg4 O6 2.124056 1_555
Mg4 O22 2.146710 1_555
Mg4 O23 2.146710 1_455
Mg4 O28 2.152624 1_555
Mg4 O30 2.152624 1_555
Mg5 O7 2.001489 1_555
Mg5 O3 2.001489 1_555
Mg5 O22 2.189762 1_555
Mg5 O23 2.189762 1_555
Mg5 O29 2.189762 1_555
Mg5 O31 2.189762 1_555
Mg6 O24 2.137544 1_555
Mg6 O16 2.137544 1_555
Mg6 O8 2.162865 1_555
Mg6 O12 2.162865 1_554
Mg6 O25 2.205508 1_555
Mg6 O18 2.205508 1_555
Mg7 O24 2.137544 1_655
Mg7 O17 2.137544 1_555
Mg7 O9 2.162865 1_555
Mg7 O13 2.162865 1_554
Mg7 O19 2.205508 1_555
Mg7 O25 2.205508 1_555
Mg8 O16 2.137544 1_565
Mg8 O26 2.137544 1_555
Mg8 O10 2.162865 1_555
Mg8 O14 2.162865 1_554
Mg8 O27 2.205508 1_555
Mg8 O18 2.205508 1_555
Mg9 O17 2.137544 1_565
Mg9 O26 2.137544 1_655
Mg9 O11 2.162865 1_555
Mg9 O15 2.162865 1_554
Mg9 O27 2.205508 1_555
Mg9 O19 2.205508 1_555
Mg10 O20 2.162428 1_555
Mg10 O28 2.162428 1_555
Mg10 O12 2.174170 1_555
Mg10 O8 2.174170 1_555
Mg10 O22 2.174207 1_555
Mg10 O29 2.174207 1_555
Mg11 O21 2.162428 1_555
Mg11 O28 2.162428 1_655
Mg11 O13 2.174170 1_555
Mg11 O9 2.174170 1_555
Mg11 O29 2.174207 1_555
Mg11 O23 2.174207 1_555
Mg12 O30 2.162428 1_555
Mg12 O20 2.162428 1_565
Mg12 O14 2.174170 1_555
Mg12 O10 2.174170 1_555
Mg12 O22 2.174207 1_555
Mg12 O31 2.174207 1_555
Mg13 O21 2.162428 1_565
Mg13 O30 2.162428 1_655
Mg13 O15 2.174170 1_555
Mg13 O11 2.174170 1_555
Mg13 O31 2.174207 1_555
Mg13 O23 2.174207 1_555
Mg14 O20 2.131326 1_555
Mg14 O1 2.149567 1_555
Mg14 O8 2.174652 1_555
Mg14 O10 2.174652 1_545
Mg14 O0 2.188117 1_555
Mg14 O16 2.205983 1_555
Mg15 O21 2.131326 1_555
Mg15 O1 2.149567 1_555
Mg15 O9 2.174652 1_555
Mg15 O11 2.174652 1_545
Mg15 O0 2.188117 1_655
Mg15 O17 2.205983 1_555
Mg16 O22 2.102826 1_555
Mg16 O2 2.108616 1_555
Mg16 O10 2.164460 1_555
Mg16 O8 2.164460 1_555
Mg16 O3 2.230254 1_555
Mg16 O18 2.235613 1_555
Mg17 O23 2.102826 1_555
Mg17 O2 2.108616 1_655
Mg17 O11 2.164460 1_555
Mg17 O9 2.164460 1_555
Mg17 O3 2.230254 1_555
Mg17 O19 2.235613 1_555
Mg18 O20 2.131326 1_555
Mg18 O5 2.149567 1_555
Mg18 O14 2.174652 1_545
Mg18 O12 2.174652 1_555
Mg18 O4 2.188117 1_555
Mg18 O16 2.205983 1_556
Mg19 O21 2.131326 1_555
Mg19 O5 2.149567 1_555
Mg19 O13 2.174652 1_555
Mg19 O15 2.174652 1_545
Mg19 O4 2.188117 1_655
Mg19 O17 2.205983 1_556
Mg20 O22 2.102826 1_555
Mg20 O6 2.108616 1_555
Mg20 O12 2.164460 1_555
Mg20 O14 2.164460 1_555
Mg20 O7 2.230254 1_555
Mg20 O18 2.235613 1_556
Mg21 O23 2.102826 1_555
Mg21 O6 2.108616 1_655
Mg21 O15 2.164460 1_555
Mg21 O13 2.164460 1_555
Mg21 O7 2.230254 1_555
Mg21 O19 2.235613 1_556
Mg22 O28 2.131326 1_555
Mg22 O2 2.149567 1_555
Mg22 O8 2.174652 1_555
Mg22 O9 2.174652 1_455
Mg22 O0 2.188117 1_555
Mg22 O24 2.205983 1_555
Mg23 O29 2.102826 1_555
Mg23 O1 2.108616 1_555
Mg23 O8 2.164460 1_555
Mg23 O9 2.164460 1_555
Mg23 O3 2.230254 1_555
Mg23 O25 2.235613 1_555
Mg24 O30 2.131326 1_555
Mg24 O2 2.149567 1_555
Mg24 O10 2.174652 1_555
Mg24 O11 2.174652 1_455
Mg24 O0 2.188117 1_565
Mg24 O26 2.205983 1_555
Mg25 O31 2.102826 1_555
Mg25 O1 2.108616 1_565
Mg25 O10 2.164460 1_555
Mg25 O11 2.164460 1_555
Mg25 O3 2.230254 1_555
Mg25 O27 2.235613 1_555
Mg26 O28 2.131326 1_555
Mg26 O6 2.149567 1_555
Mg26 O13 2.174652 1_455
Mg26 O12 2.174652 1_555
Mg26 O4 2.188117 1_555
Mg26 O24 2.205983 1_556
Mg27 O29 2.102826 1_555
Mg27 O5 2.108616 1_555
Mg27 O13 2.164460 1_555
Mg27 O12 2.164460 1_555
Mg27 O7 2.230254 1_555
Mg27 O25 2.235613 1_556
Mg28 O30 2.131326 1_555
Mg28 O6 2.149567 1_555
Mg28 O14 2.174652 1_555
Mg28 O15 2.174652 1_455
Mg28 O4 2.188117 1_565
Mg28 O26 2.205983 1_556
Mg29 O31 2.102826 1_555
Mg29 O5 2.108616 1_565
Mg29 O15 2.164460 1_555
Mg29 O14 2.164460 1_555
Mg29 O7 2.230254 1_555
Mg29 O27 2.235613 1_556
Bi0 O25 2.319318 1_555
Bi0 O18 2.319318 1_555
Bi0 O19 2.319318 1_555
Bi0 O27 2.319318 1_555
Bi0 O3 2.334736 1_555
Bi0 O7 2.334736 1_554
