# generated using pymatgen
data_YMg6Sb
_symmetry_space_group_name_H-M   'P 1'
_cell_length_a   5.08861600
_cell_length_b   6.76422800
_cell_length_c   11.27827000
_cell_angle_alpha   90.00000000
_cell_angle_beta   90.00000000
_cell_angle_gamma   90.00000000
_symmetry_Int_Tables_number   1
_chemical_formula_structural   YMg6Sb
_chemical_formula_sum   'Y2 Mg12 Sb2'
_cell_volume   388.20435602
_cell_formula_units_Z   2
loop_
 _symmetry_equiv_pos_site_id
 _symmetry_equiv_pos_as_xyz
  1  'x, y, z'
loop_
 _atom_site_type_symbol
 _atom_site_label
 _atom_site_symmetry_multiplicity
 _atom_site_fract_x
 _atom_site_fract_y
 _atom_site_fract_z
 _atom_site_occupancy
  Y  Y0  1  0.00000000  0.50000000  0.32952800  1
  Y  Y1  1  0.00000000  0.00000000  0.82952800  1
  Mg  Mg0  1  0.00000000  0.24299500  0.08056200  1
  Mg  Mg1  1  0.00000000  0.75700500  0.08056200  1
  Mg  Mg2  1  0.00000000  0.50000000  0.83537200  1
  Mg  Mg3  1  0.50000000  0.26303300  0.92040300  1
  Mg  Mg4  1  0.50000000  0.73696700  0.92040300  1
  Mg  Mg5  1  0.50000000  0.50000000  0.66806300  1
  Mg  Mg6  1  0.00000000  0.74299500  0.58056200  1
  Mg  Mg7  1  0.00000000  0.25700500  0.58056200  1
  Mg  Mg8  1  0.00000000  0.00000000  0.33537200  1
  Mg  Mg9  1  0.50000000  0.76303300  0.42040300  1
  Mg  Mg10  1  0.50000000  0.23696700  0.42040300  1
  Mg  Mg11  1  0.50000000  0.00000000  0.16806300  1
  Sb  Sb0  1  0.50000000  0.50000000  0.16510700  1
  Sb  Sb1  1  0.50000000  0.00000000  0.66510700  1
loop_
_geom_bond_atom_site_label_1
_geom_bond_atom_site_label_2
_geom_bond_distance
_geom_bond_site_symmetry_2
Mg0 Mg3 3.123244 1_454
Mg0 Mg3 3.123244 1_554
Mg0 Mg11 3.185759 1_455
Mg0 Mg11 3.185759 1_555
Mg0 Sb0 3.225660 1_455
Mg0 Sb0 3.225660 1_555
Mg0 Mg2 3.266369 1_554
Mg0 Y1 3.273763 1_554
Mg0 Y0 3.302501 1_555
Mg0 Mg8 3.310662 1_555
Mg1 Mg4 3.123244 1_554
Mg1 Mg4 3.123244 1_454
Mg1 Mg11 3.185759 1_465
Mg1 Mg11 3.185759 1_565
Mg1 Sb0 3.225660 1_455
Mg1 Sb0 3.225660 1_555
Mg1 Mg2 3.266369 1_554
Mg1 Y1 3.273763 1_564
Mg1 Y0 3.302501 1_555
Mg1 Mg8 3.310662 1_565
Mg2 Mg3 3.156339 1_455
Mg2 Mg3 3.156339 1_555
Mg2 Mg4 3.156339 1_455
Mg2 Mg4 3.156339 1_555
Mg2 Mg5 3.167666 1_455
Mg2 Mg5 3.167666 1_555
Mg2 Mg7 3.310662 1_555
Mg2 Mg6 3.310662 1_555
Mg2 Y1 3.382756 1_555
Mg2 Y1 3.382756 1_565
Mg3 Sb0 3.191550 1_556
Mg3 Mg4 3.205798 1_555
Mg3 Mg5 3.266308 1_555
Mg3 Y1 3.269489 1_555
Mg3 Y1 3.269489 1_655
Mg3 Sb1 3.384665 1_555
Mg4 Sb0 3.191550 1_556
Mg4 Mg5 3.266308 1_555
Mg4 Y1 3.269489 1_665
Mg4 Y1 3.269489 1_565
Mg4 Sb1 3.384665 1_565
Mg5 Mg6 3.185759 1_555
Mg5 Mg6 3.185759 1_655
Mg5 Mg7 3.185759 1_555
Mg5 Mg7 3.185759 1_655
Mg5 Mg9 3.311713 1_555
Mg5 Sb1 3.382278 1_555
Mg5 Sb1 3.382278 1_565
Mg6 Mg9 3.123244 1_555
Mg6 Mg9 3.123244 1_455
Mg6 Sb1 3.225660 1_565
Mg6 Sb1 3.225660 1_465
Mg6 Mg8 3.266369 1_565
Mg6 Y0 3.273763 1_555
Mg6 Y1 3.302501 1_565
Mg7 Sb1 3.225660 1_555
Mg7 Sb1 3.225660 1_455
Mg7 Mg8 3.266369 1_555
Mg7 Y0 3.273763 1_555
Mg7 Y1 3.302501 1_555
Mg8 Mg9 3.156339 1_545
Mg8 Mg9 3.156339 1_445
Mg8 Y0 3.382756 1_555
Mg8 Y0 3.382756 1_545
Mg9 Sb1 3.191550 1_565
Mg9 Y0 3.269489 1_655
Mg9 Y0 3.269489 1_555
Mg9 Sb0 3.384665 1_555
Mg10 Mg7 3.123244 1_655
Mg10 Mg7 3.123244 1_555
Mg10 Mg8 3.156339 1_555
Mg10 Mg8 3.156339 1_655
Mg10 Sb1 3.191550 1_555
Mg10 Mg9 3.205798 1_545
Mg10 Mg11 3.266308 1_555
Mg10 Y0 3.269489 1_655
Mg10 Y0 3.269489 1_555
Mg10 Mg5 3.311713 1_555
Mg10 Sb0 3.384665 1_555
Mg11 Mg8 3.167666 1_555
Mg11 Mg8 3.167666 1_655
Mg11 Mg9 3.266308 1_545
Mg11 Mg3 3.311713 1_554
Mg11 Mg4 3.311713 1_544
Mg11 Sb0 3.382278 1_545
Mg11 Sb0 3.382278 1_555
Sb0 Y0 3.148372 1_655
Sb0 Y0 3.148372 1_555
Sb1 Y1 3.148372 1_555
Sb1 Y1 3.148372 1_655
