# generated using pymatgen
data_Li3MnFeCo(PO4)3
_symmetry_space_group_name_H-M   'P 1'
_cell_length_a   6.08241000
_cell_length_b   10.43479100
_cell_length_c   14.30836787
_cell_angle_alpha   89.97067611
_cell_angle_beta   90.00000000
_cell_angle_gamma   90.00000000
_symmetry_Int_Tables_number   1
_chemical_formula_structural   Li3MnFeCo(PO4)3
_chemical_formula_sum   'Li12 Mn4 Fe4 Co4 P12 O48'
_cell_volume   908.13306186
_cell_formula_units_Z   4
loop_
 _symmetry_equiv_pos_site_id
 _symmetry_equiv_pos_as_xyz
  1  'x, y, z'
loop_
 _atom_site_type_symbol
 _atom_site_label
 _atom_site_symmetry_multiplicity
 _atom_site_fract_x
 _atom_site_fract_y
 _atom_site_fract_z
 _atom_site_occupancy
  Li  Li0  1  0.75023400  0.00254700  0.66631600  1
  Li  Li1  1  0.25002200  0.00169600  0.99973200  1
  Li  Li2  1  0.74997800  0.00169600  0.99973200  1
  Li  Li3  1  0.25036100  0.00192100  0.33340400  1
  Li  Li4  1  0.74963900  0.00192100  0.33340400  1
  Li  Li5  1  0.24976600  0.00254700  0.66631600  1
  Li  Li6  1  0.24919700  0.49713900  0.50058000  1
  Li  Li7  1  0.75080300  0.49713900  0.50058000  1
  Li  Li8  1  0.24986600  0.49827400  0.16689300  1
  Li  Li9  1  0.75013400  0.49827400  0.16689300  1
  Li  Li10  1  0.25013700  0.49749900  0.83262700  1
  Li  Li11  1  0.74986300  0.49749900  0.83262700  1
  Mn  Mn0  1  0.50000000  0.78160500  0.15994500  1
  Mn  Mn1  1  0.50000000  0.78106000  0.49462200  1
  Mn  Mn2  1  0.50000000  0.78078300  0.82637600  1
  Mn  Mn3  1  0.00000000  0.71926900  0.32677300  1
  Fe  Fe0  1  0.00000000  0.72045500  0.66158000  1
  Fe  Fe1  1  0.00000000  0.71815000  0.99248500  1
  Fe  Fe2  1  0.50000000  0.28046000  0.00872800  1
  Fe  Fe3  1  0.50000000  0.27977000  0.34195700  1
  Co  Co0  1  0.50000000  0.27916000  0.67502400  1
  Co  Co1  1  0.00000000  0.21976800  0.83796600  1
  Co  Co2  1  0.00000000  0.21938800  0.50652000  1
  Co  Co3  1  0.00000000  0.21852600  0.17226600  1
  P  P0  1  0.00000000  0.90839300  0.80564700  1
  P  P1  1  0.00000000  0.90861600  0.13753500  1
  P  P2  1  0.00000000  0.90954600  0.47270900  1
  P  P3  1  0.50000000  0.59074000  0.30539700  1
  P  P4  1  0.50000000  0.58846000  0.64026700  1
  P  P5  1  0.50000000  0.59175300  0.97326300  1
  P  P6  1  0.00000000  0.40276800  0.36077400  1
  P  P7  1  0.00000000  0.40386100  0.02705300  1
  P  P8  1  0.00000000  0.40303300  0.69354800  1
  P  P9  1  0.50000000  0.09961000  0.86000900  1
  P  P10  1  0.50000000  0.09697700  0.19429300  1
  P  P11  1  0.50000000  0.09840300  0.52853100  1
  O  O0  1  0.50000000  0.95945300  0.23699300  1
  O  O1  1  0.50000000  0.96059300  0.57103700  1
  O  O2  1  0.50000000  0.96066000  0.90008500  1
  O  O3  1  0.00000000  0.90439800  0.58004200  1
  O  O4  1  0.00000000  0.90338900  0.91284700  1
  O  O5  1  0.00000000  0.90489900  0.24499800  1
  O  O6  1  0.20204800  0.83830500  0.09227100  1
  O  O7  1  0.79795200  0.83830500  0.09227100  1
  O  O8  1  0.20247900  0.83951000  0.42748900  1
  O  O9  1  0.79752100  0.83951000  0.42748900  1
  O  O10  1  0.20087100  0.83733900  0.75953800  1
  O  O11  1  0.79912900  0.83733900  0.75953800  1
  O  O12  1  0.70330900  0.65894600  0.59523600  1
  O  O13  1  0.29669100  0.65894600  0.59523600  1
  O  O14  1  0.70237100  0.66156900  0.26081700  1
  O  O15  1  0.29762900  0.66156900  0.26081700  1
  O  O16  1  0.70331600  0.66372200  0.92960800  1
  O  O17  1  0.29668400  0.66372200  0.92960800  1
  O  O18  1  0.50000000  0.59404200  0.41296700  1
  O  O19  1  0.50000000  0.59373700  0.08053800  1
  O  O20  1  0.50000000  0.59405200  0.74755300  1
  O  O21  1  0.00000000  0.54033800  0.40282500  1
  O  O22  1  0.00000000  0.54195300  0.06850200  1
  O  O23  1  0.00000000  0.54112400  0.73491800  1
  O  O24  1  0.50000000  0.45315000  0.26405800  1
  O  O25  1  0.50000000  0.45497200  0.93071300  1
  O  O26  1  0.50000000  0.44902100  0.60055000  1
  O  O27  1  0.00000000  0.40055900  0.25339900  1
  O  O28  1  0.00000000  0.40061100  0.91977300  1
  O  O29  1  0.00000000  0.40039300  0.58607500  1
  O  O30  1  0.20238400  0.33315100  0.07253900  1
  O  O31  1  0.20253600  0.33192300  0.40573200  1
  O  O32  1  0.20323400  0.33235800  0.73888600  1
  O  O33  1  0.79676600  0.33235800  0.73888600  1
  O  O34  1  0.79761600  0.33315100  0.07253900  1
  O  O35  1  0.79746400  0.33192300  0.40573200  1
  O  O36  1  0.70494100  0.16805600  0.90484700  1
  O  O37  1  0.29505900  0.16805600  0.90484700  1
  O  O38  1  0.70463900  0.16753500  0.23804900  1
  O  O39  1  0.70416200  0.16938500  0.57240100  1
  O  O40  1  0.29536100  0.16753500  0.23804900  1
  O  O41  1  0.29583800  0.16938500  0.57240100  1
  O  O42  1  0.50000000  0.10385200  0.75192200  1
  O  O43  1  0.50000000  0.09745700  0.42097000  1
  O  O44  1  0.50000000  0.09677500  0.08679100  1
  O  O45  1  0.00000000  0.04677900  0.76544300  1
  O  O46  1  0.00000000  0.04743800  0.09749200  1
  O  O47  1  0.00000000  0.04805500  0.43230800  1
loop_
_geom_bond_atom_site_label_1
_geom_bond_atom_site_label_2
_geom_bond_distance
_geom_bond_site_symmetry_2
Li0 O1 2.089827 1_545
Li0 O45 2.129157 1_655
Li0 O11 2.199348 1_545
Li0 O3 2.209515 1_645
Li0 O39 2.216451 1_555
Li0 O42 2.221638 1_555
Li1 O46 2.120789 1_556
Li1 O2 2.128068 1_545
Li1 O6 2.177817 1_546
Li1 O44 2.202070 1_556
Li1 O4 2.216244 1_545
Li1 O37 2.220202 1_555
Li2 O46 2.120789 1_656
Li2 O2 2.128068 1_545
Li2 O7 2.177817 1_546
Li2 O44 2.202070 1_556
Li2 O4 2.216244 1_645
Li2 O36 2.220202 1_555
Li3 O0 2.098937 1_545
Li3 O47 2.134015 1_555
Li3 O8 2.183309 1_545
Li3 O43 2.206914 1_555
Li3 O40 2.218223 1_555
Li3 O5 2.223797 1_545
Li4 O0 2.098937 1_545
Li4 O47 2.134015 1_655
Li4 O9 2.183309 1_545
Li4 O43 2.206914 1_555
Li4 O38 2.218223 1_555
Li4 O5 2.223797 1_645
Li5 O1 2.089827 1_545
Li5 O45 2.129157 1_555
Li5 O10 2.199348 1_545
Li5 O3 2.209515 1_545
Li5 O41 2.216451 1_555
Li5 O42 2.221638 1_555
Li6 O21 2.111008 1_555
Li6 O26 2.150476 1_555
Li6 O13 2.184236 1_555
Li6 O29 2.193565 1_555
Li6 O31 2.212888 1_555
Li6 O18 2.218056 1_555
Li7 O21 2.111008 1_655
Li7 O26 2.150476 1_555
Li7 O12 2.184236 1_555
Li7 O29 2.193565 1_655
Li7 O35 2.212888 1_555
Li7 O18 2.218056 1_555
Li8 O24 2.113908 1_555
Li8 O22 2.121032 1_555
Li8 O15 2.190034 1_555
Li8 O19 2.198282 1_555
Li8 O30 2.208448 1_555
Li8 O27 2.209110 1_555
Li9 O24 2.113908 1_555
Li9 O22 2.121032 1_655
Li9 O14 2.190034 1_555
Li9 O19 2.198282 1_555
Li9 O34 2.208448 1_555
Li9 O27 2.209110 1_655
Li10 O25 2.115575 1_555
Li10 O23 2.115632 1_555
Li10 O20 2.192092 1_555
Li10 O32 2.202781 1_555
Li10 O28 2.211428 1_555
Li10 O17 2.239791 1_555
Li11 O25 2.115575 1_555
Li11 O23 2.115632 1_655
Li11 O20 2.192092 1_555
Li11 O33 2.202781 1_555
Li11 O28 2.211428 1_655
Li11 O16 2.239791 1_555
Mn0 O6 2.138081 1_555
Mn0 O7 2.138081 1_555
Mn0 O0 2.159043 1_555
Mn0 O19 2.266323 1_555
Mn0 O14 2.272732 1_555
Mn0 O15 2.272732 1_555
Mn1 O9 2.137497 1_555
Mn1 O8 2.137497 1_555
Mn1 O1 2.169597 1_555
Mn1 O18 2.275017 1_555
Mn1 O13 2.285499 1_555
Mn1 O12 2.285499 1_555
Mn2 O11 2.138364 1_555
Mn2 O10 2.138364 1_555
Mn2 O2 2.153456 1_555
Mn2 O20 2.251865 1_555
Mn2 O17 2.280638 1_555
Mn2 O16 2.280638 1_555
Mn3 O15 2.128590 1_555
Mn3 O14 2.128590 1_455
Mn3 O21 2.160589 1_555
Mn3 O5 2.262464 1_555
Mn3 O8 2.273665 1_555
Mn3 O9 2.273665 1_455
Fe0 O13 2.137817 1_555
Fe0 O12 2.137817 1_455
Fe0 O23 2.144951 1_555
Fe0 O10 2.224096 1_555
Fe0 O11 2.224096 1_455
Fe0 O3 2.245654 1_555
Fe1 O16 2.094970 1_455
Fe1 O17 2.094970 1_555
Fe1 O22 2.135737 1_556
Fe1 O4 2.243302 1_555
Fe1 O6 2.263329 1_556
Fe1 O7 2.263329 1_456
Fe2 O30 2.100797 1_555
Fe2 O34 2.100797 1_555
Fe2 O25 2.135416 1_554
Fe2 O44 2.217925 1_555
Fe2 O37 2.267299 1_554
Fe2 O36 2.267299 1_554
Fe3 O35 2.098312 1_555
Fe3 O31 2.098312 1_555
Fe3 O24 2.124484 1_555
Fe3 O43 2.212477 1_555
Fe3 O40 2.265631 1_555
Fe3 O38 2.265631 1_555
Co0 O26 2.067656 1_555
Co0 O32 2.098056 1_555
Co0 O33 2.098056 1_555
Co0 O42 2.134224 1_555
Co0 O39 2.238751 1_555
Co0 O41 2.238751 1_555
Co1 O45 2.082573 1_555
Co1 O36 2.104104 1_455
Co1 O37 2.104104 1_555
Co1 O32 2.217306 1_555
Co1 O33 2.217306 1_455
Co1 O28 2.221121 1_555
Co2 O47 2.079853 1_555
Co2 O41 2.097188 1_555
Co2 O39 2.097188 1_455
Co2 O29 2.205744 1_555
Co2 O31 2.230354 1_555
Co2 O35 2.230354 1_455
Co3 O46 2.081780 1_555
Co3 O40 2.096659 1_555
Co3 O38 2.096659 1_455
Co3 O27 2.226637 1_555
Co3 O30 2.231665 1_555
Co3 O34 2.231665 1_455
O0 P10 1.559393 1_565
O1 P11 1.561057 1_565
O2 P9 1.558914 1_565
O3 P2 1.536672 1_555
O4 P0 1.534719 1_555
O5 P1 1.538089 1_555
O6 P1 1.571152 1_555
O7 P1 1.571152 1_655
O8 P2 1.571607 1_555
O9 P2 1.571607 1_655
O10 P0 1.574241 1_555
O11 P0 1.574241 1_655
O12 P4 1.576336 1_555
O13 P4 1.576336 1_555
O14 P3 1.570911 1_555
O15 P3 1.570911 1_555
O16 P5 1.575742 1_555
O17 P5 1.575742 1_555
O18 P3 1.539554 1_555
O19 P5 1.535080 1_554
O20 P4 1.536226 1_555
O21 P6 1.556793 1_555
O22 P7 1.558516 1_555
O23 P8 1.558076 1_555
O24 P3 1.553072 1_555
O25 P5 1.551994 1_555
O26 P4 1.562328 1_555
O27 P6 1.536546 1_555
O28 P7 1.535394 1_556
O29 P8 1.538024 1_555
O30 P7 1.575697 1_555
O31 P6 1.573978 1_555
O32 P8 1.578698 1_555
O33 P8 1.578698 1_655
O34 P7 1.575697 1_655
O35 P6 1.573978 1_655
O36 P9 1.573539 1_555
O37 P9 1.573539 1_555
O38 P10 1.576006 1_555
O39 P11 1.576440 1_555
O40 P10 1.576006 1_555
O41 P11 1.576440 1_555
O42 P9 1.547159 1_555
O43 P11 1.539059 1_555
O44 P10 1.538181 1_555
O45 P0 1.554119 1_545
O46 P1 1.557499 1_545
O47 P2 1.556355 1_545
