# generated using pymatgen
data_Sr7CaTi7MnO24
_symmetry_space_group_name_H-M   'P 1'
_cell_length_a   7.84161978
_cell_length_b   7.84161978
_cell_length_c   7.84161921
_cell_angle_alpha   89.99061158
_cell_angle_beta   89.99061158
_cell_angle_gamma   89.99060719
_symmetry_Int_Tables_number   1
_chemical_formula_structural   Sr7CaTi7MnO24
_chemical_formula_sum   'Sr7 Ca1 Ti7 Mn1 O24'
_cell_volume   482.18899295
_cell_formula_units_Z   1
loop_
 _symmetry_equiv_pos_site_id
 _symmetry_equiv_pos_as_xyz
  1  'x, y, z'
loop_
 _atom_site_type_symbol
 _atom_site_label
 _atom_site_symmetry_multiplicity
 _atom_site_fract_x
 _atom_site_fract_y
 _atom_site_fract_z
 _atom_site_occupancy
  Sr  Sr0  1  0.24882000  0.24882000  0.75123700  1
  Sr  Sr1  1  0.75116500  0.24884200  0.75116500  1
  Sr  Sr2  1  0.75123700  0.24882000  0.24882000  1
  Sr  Sr3  1  0.24884200  0.75116500  0.75116500  1
  Sr  Sr4  1  0.75113700  0.75113700  0.75113700  1
  Sr  Sr5  1  0.24882000  0.75123700  0.24882000  1
  Sr  Sr6  1  0.75116500  0.75116500  0.24884200  1
  Ca  Ca0  1  0.24886800  0.24886800  0.24886800  1
  Ti  Ti0  1  0.49919200  0.00058600  0.00058600  1
  Ti  Ti1  1  0.00058600  0.00058600  0.49919200  1
  Ti  Ti2  1  0.49942100  0.00054100  0.49942100  1
  Ti  Ti3  1  0.00058600  0.49919200  0.00058600  1
  Ti  Ti4  1  0.49942100  0.49942100  0.00054100  1
  Ti  Ti5  1  0.00054100  0.49942100  0.49942100  1
  Ti  Ti6  1  0.49946200  0.49946200  0.49946200  1
  Mn  Mn0  1  0.00050000  0.00050000  0.00050000  1
  O  O0  1  0.00181200  0.24735600  0.00181200  1
  O  O1  1  0.49839700  0.24914100  0.00163000  1
  O  O2  1  0.00163000  0.24914100  0.49839700  1
  O  O3  1  0.49835200  0.24973900  0.49835200  1
  O  O4  1  0.00020200  0.75251200  0.00020200  1
  O  O5  1  0.49976300  0.75088800  0.00025200  1
  O  O6  1  0.00025200  0.75088800  0.49976300  1
  O  O7  1  0.49974800  0.75025900  0.49974800  1
  O  O8  1  0.00020200  0.00020200  0.75251200  1
  O  O9  1  0.49976300  0.00025200  0.75088800  1
  O  O10  1  0.00181200  0.00181200  0.24735600  1
  O  O11  1  0.49839700  0.00163000  0.24914100  1
  O  O12  1  0.00025200  0.49976300  0.75088800  1
  O  O13  1  0.49974800  0.49974800  0.75025900  1
  O  O14  1  0.00163000  0.49839700  0.24914100  1
  O  O15  1  0.49835200  0.49835200  0.24973900  1
  O  O16  1  0.24735600  0.00181200  0.00181200  1
  O  O17  1  0.75251200  0.00020200  0.00020200  1
  O  O18  1  0.24914100  0.00163000  0.49839700  1
  O  O19  1  0.75088800  0.00025200  0.49976300  1
  O  O20  1  0.24914100  0.49839700  0.00163000  1
  O  O21  1  0.75088800  0.49976300  0.00025200  1
  O  O22  1  0.24973900  0.49835200  0.49835200  1
  O  O23  1  0.75025900  0.49974800  0.49974800  1
loop_
_geom_bond_atom_site_label_1
_geom_bond_atom_site_label_2
_geom_bond_distance
_geom_bond_site_symmetry_2
Ca0 O16 2.740036 1_555
Ca0 O0 2.740036 1_555
Ca0 O10 2.740036 1_555
Ca0 O14 2.754309 1_555
Ca0 O11 2.754309 1_555
Ca0 O18 2.754309 1_555
Ca0 O2 2.754309 1_555
Ca0 O20 2.754309 1_555
Ca0 O1 2.754309 1_555
Ca0 O22 2.766946 1_555
Ca0 O3 2.766946 1_555
Ca0 O15 2.766946 1_555
Mn0 O10 1.935809 1_555
Mn0 O0 1.935809 1_555
Mn0 O16 1.935809 1_555
Mn0 O8 1.944631 1_554
Mn0 O4 1.944631 1_545
Mn0 O17 1.944631 1_455
O0 Ti3 1.974846 1_555
O0 Sr0 2.758898 1_554
O0 Sr2 2.758898 1_455
O0 Sr1 2.779856 1_454
O1 Ti0 1.949101 1_555
O1 Ti4 1.962636 1_555
O1 Sr0 2.772497 1_554
O1 Sr2 2.773002 1_555
O1 Sr1 2.790159 1_554
O2 Ti1 1.949101 1_555
O2 Ti5 1.962636 1_555
O2 Sr2 2.772497 1_455
O2 Sr0 2.773002 1_555
O2 Sr1 2.790159 1_455
O3 Ti2 1.954149 1_555
O3 Ti6 1.958274 1_555
O3 Sr0 2.785676 1_555
O3 Sr2 2.785676 1_555
O3 Sr1 2.803863 1_555
O4 Ti3 1.986443 1_555
O4 Sr5 2.757347 1_555
O4 Sr3 2.759345 1_554
O4 Sr6 2.759345 1_455
O4 Sr4 2.762312 1_454
O5 Ti0 1.958043 1_565
O5 Ti4 1.971912 1_555
O5 Sr5 2.769525 1_555
O5 Sr6 2.772659 1_555
O5 Sr3 2.772722 1_554
O5 Sr4 2.774944 1_554
O6 Ti1 1.958043 1_565
O6 Ti5 1.971912 1_555
O6 Sr5 2.769525 1_555
O6 Sr3 2.772659 1_555
O6 Sr6 2.772722 1_455
O6 Sr4 2.774944 1_455
O7 Ti2 1.962619 1_565
O7 Ti6 1.966658 1_555
O7 Sr5 2.782959 1_555
O7 Sr3 2.785094 1_555
O7 Sr6 2.785094 1_555
O7 Sr4 2.788073 1_555
O8 Ti1 1.986443 1_555
O8 Sr0 2.757347 1_555
O8 Sr1 2.759345 1_455
O8 Sr3 2.759345 1_545
O8 Sr4 2.762312 1_445
O9 Ti0 1.958043 1_556
O9 Ti2 1.971912 1_555
O9 Sr0 2.769525 1_555
O9 Sr1 2.772659 1_555
O9 Sr3 2.772722 1_545
O9 Sr4 2.774944 1_545
O10 Ti1 1.974846 1_555
O10 Sr5 2.758898 1_545
O10 Sr2 2.758898 1_455
O10 Sr6 2.779856 1_445
O11 Ti0 1.949101 1_555
O11 Ti2 1.962635 1_555
O11 Sr5 2.772498 1_545
O11 Sr2 2.773002 1_555
O11 Sr6 2.790159 1_545
O12 Ti3 1.958043 1_556
O12 Ti5 1.971912 1_555
O12 Sr0 2.769525 1_555
O12 Sr3 2.772659 1_555
O12 Sr1 2.772722 1_455
O12 Sr4 2.774944 1_455
O13 Ti4 1.962619 1_556
O13 Ti6 1.966658 1_555
O13 Sr0 2.782959 1_555
O13 Sr3 2.785094 1_555
O13 Sr1 2.785094 1_555
O13 Sr4 2.788073 1_555
O14 Ti3 1.949101 1_555
O14 Ti5 1.962635 1_555
O14 Sr2 2.772498 1_455
O14 Sr5 2.773002 1_555
O14 Sr6 2.790159 1_455
O15 Ti4 1.954149 1_555
O15 Ti6 1.958274 1_555
O15 Sr5 2.785676 1_555
O15 Sr2 2.785676 1_555
O15 Sr6 2.803864 1_555
O16 Ti0 1.974846 1_555
O16 Sr0 2.758898 1_554
O16 Sr5 2.758898 1_545
O16 Sr3 2.779856 1_544
O17 Ti0 1.986443 1_555
O17 Sr2 2.757347 1_555
O17 Sr1 2.759345 1_554
O17 Sr6 2.759345 1_545
O17 Sr4 2.762312 1_544
O18 Ti1 1.949101 1_555
O18 Ti2 1.962636 1_555
O18 Sr5 2.772497 1_545
O18 Sr0 2.773002 1_555
O18 Sr3 2.790159 1_545
O19 Ti1 1.958043 1_655
O19 Ti2 1.971912 1_555
O19 Sr2 2.769525 1_555
O19 Sr1 2.772659 1_555
O19 Sr6 2.772722 1_545
O19 Sr4 2.774944 1_545
O20 Ti3 1.949101 1_555
O20 Ti4 1.962636 1_555
O20 Sr0 2.772497 1_554
O20 Sr5 2.773002 1_555
O20 Sr3 2.790159 1_554
O21 Ti3 1.958043 1_655
O21 Ti4 1.971912 1_555
O21 Sr2 2.769525 1_555
O21 Sr6 2.772659 1_555
O21 Sr1 2.772722 1_554
O21 Sr4 2.774944 1_554
O22 Ti5 1.954149 1_555
O22 Ti6 1.958274 1_555
O22 Sr0 2.785676 1_555
O22 Sr5 2.785676 1_555
O22 Sr3 2.803863 1_555
O23 Ti5 1.962619 1_655
O23 Ti6 1.966658 1_555
O23 Sr2 2.782959 1_555
O23 Sr1 2.785094 1_555
O23 Sr6 2.785094 1_555
O23 Sr4 2.788073 1_555
