# generated using pymatgen
data_Mg5Si6
_symmetry_space_group_name_H-M   'P 1'
_cell_length_a   5.01584800
_cell_length_b   8.37107889
_cell_length_c   11.01392140
_cell_angle_alpha   69.74056388
_cell_angle_beta   82.03568687
_cell_angle_gamma   82.96626330
_symmetry_Int_Tables_number   1
_chemical_formula_structural   Mg5Si6
_chemical_formula_sum   'Mg10 Si12'
_cell_volume   428.27595350
_cell_formula_units_Z   2
loop_
 _symmetry_equiv_pos_site_id
 _symmetry_equiv_pos_as_xyz
  1  'x, y, z'
loop_
 _atom_site_type_symbol
 _atom_site_label
 _atom_site_symmetry_multiplicity
 _atom_site_fract_x
 _atom_site_fract_y
 _atom_site_fract_z
 _atom_site_occupancy
  Mg  Mg0  1  0.73368500  0.07153600  0.02084400  1
  Mg  Mg1  1  0.95694800  0.18479100  0.42339900  1
  Mg  Mg2  1  0.67916500  0.93967600  0.34991100  1
  Mg  Mg3  1  0.06147400  0.89658300  0.68621500  1
  Mg  Mg4  1  0.53862000  0.88128000  0.85739300  1
  Mg  Mg5  1  0.17181100  0.17478200  0.16148000  1
  Mg  Mg6  1  0.73035700  0.49757200  0.50898000  1
  Mg  Mg7  1  0.24830800  0.26442200  0.66495400  1
  Mg  Mg8  1  0.38678000  0.47628800  0.90156900  1
  Mg  Mg9  1  0.63992600  0.65811500  0.18478500  1
  Si  Si0  1  0.89512300  0.47373400  0.01710600  1
  Si  Si1  1  0.02607700  0.76679100  0.95053400  1
  Si  Si2  1  0.56144400  0.01340700  0.58829000  1
  Si  Si3  1  0.18525300  0.86080400  0.40772800  1
  Si  Si4  1  0.21585600  0.88913400  0.08850700  1
  Si  Si5  1  0.88680600  0.49746300  0.79123200  1
  Si  Si6  1  0.59569900  0.71209600  0.65439400  1
  Si  Si7  1  0.34541300  0.40597200  0.37634100  1
  Si  Si8  1  0.62342500  0.29671600  0.20601200  1
  Si  Si9  1  0.21461100  0.61292100  0.60228700  1
  Si  Si10  1  0.72214500  0.24856500  0.76756700  1
  Si  Si11  1  0.08107400  0.68098400  0.29410200  1
loop_
_geom_bond_atom_site_label_1
_geom_bond_atom_site_label_2
_geom_bond_distance
_geom_bond_site_symmetry_2
Mg0 Si10 2.672447 1_554
Mg0 Si4 2.746441 1_645
Mg0 Si4 3.046290 1_545
Mg0 Si1 3.065211 1_644
Mg0 Si8 3.180067 1_555
Mg1 Si2 2.680697 1_555
Mg1 Si7 2.726252 1_655
Mg1 Si3 2.864530 1_645
Mg1 Si8 2.929427 1_555
Mg2 Si3 2.578978 1_555
Mg2 Si3 2.651700 1_655
Mg2 Si8 2.856683 1_565
Mg2 Si2 2.868131 1_565
Mg2 Si11 2.939486 1_655
Mg2 Si6 3.229967 1_555
Mg3 Si1 2.720389 1_555
Mg3 Si2 2.743938 1_565
Mg3 Si2 2.797946 1_465
Mg3 Si9 2.821287 1_555
Mg3 Si6 2.964657 1_555
Mg3 Si6 3.074302 1_455
Mg3 Si3 3.153737 1_555
Mg4 Si1 2.718316 1_655
Mg4 Si2 2.772674 1_565
Mg4 Si1 2.787796 1_555
Mg4 Si4 2.837704 1_556
Mg4 Si6 3.000474 1_555
Mg4 Si10 3.100543 1_565
Mg5 Si4 2.750436 1_545
Mg5 Si8 2.763067 1_555
Mg5 Si0 2.778917 1_455
Mg5 Si8 2.851946 1_455
Mg5 Si3 3.055976 1_545
Mg6 Si6 2.764263 1_555
Mg6 Si9 2.831842 1_555
Mg6 Si11 2.836239 1_655
Mg6 Si10 2.887078 1_555
Mg6 Si7 2.893132 1_555
Mg6 Si9 3.137134 1_655
Mg7 Si10 2.723123 1_455
Mg7 Si10 2.739848 1_555
Mg7 Si9 2.744588 1_555
Mg7 Si2 2.765531 1_555
Mg7 Si7 2.974823 1_555
Mg7 Si5 3.056421 1_455
Mg8 Si0 2.612613 1_456
Mg8 Si5 2.629384 1_555
Mg8 Si5 2.895469 1_455
Mg8 Si6 2.898337 1_555
Mg8 Si0 2.998003 1_556
Mg8 Si1 3.006371 1_555
Mg8 Si10 3.019422 1_555
Mg9 Si11 2.717371 1_655
Mg9 Si4 2.754303 1_555
Mg9 Si7 2.811488 1_555
Mg9 Si0 2.875168 1_555
Mg9 Si11 2.904600 1_555
Mg9 Si1 2.942257 1_654
Mg9 Si8 2.963119 1_555
Si0 Si5 2.432003 1_554
Si0 Si8 2.440407 1_555
Si0 Si1 2.450049 1_654
Si1 Si4 2.445744 1_556
Si2 Si6 2.361849 1_545
Si3 Si9 2.419202 1_555
Si5 Si6 2.392409 1_555
Si5 Si9 2.452823 1_655
Si6 Si9 2.386411 1_555
Si7 Si8 2.539944 1_555
Si10 Si5 2.438939 1_555
Si11 Si4 2.398428 1_555
Si11 Si3 2.404912 1_555
Si11 Si7 2.453450 1_555
