# generated using pymatgen
data_Er4CoB13
_symmetry_space_group_name_H-M   'P 1'
_cell_length_a   7.27596500
_cell_length_b   7.27596500
_cell_length_c   6.84494800
_cell_angle_alpha   90.00000000
_cell_angle_beta   90.00000000
_cell_angle_gamma   90.00000000
_symmetry_Int_Tables_number   1
_chemical_formula_structural   Er4CoB13
_chemical_formula_sum   'Er8 Co2 B26'
_cell_volume   362.36926557
_cell_formula_units_Z   2
loop_
 _symmetry_equiv_pos_site_id
 _symmetry_equiv_pos_as_xyz
  1  'x, y, z'
loop_
 _atom_site_type_symbol
 _atom_site_label
 _atom_site_symmetry_multiplicity
 _atom_site_fract_x
 _atom_site_fract_y
 _atom_site_fract_z
 _atom_site_occupancy
  Er  Er0  1  0.68490300  0.18157900  0.50000000  1
  Er  Er1  1  0.31509700  0.81842100  0.50000000  1
  Er  Er2  1  0.18490300  0.31842100  0.00000000  1
  Er  Er3  1  0.81509700  0.68157900  0.00000000  1
  Er  Er4  1  0.81842100  0.68490300  0.50000000  1
  Er  Er5  1  0.18157900  0.31509700  0.50000000  1
  Er  Er6  1  0.68157900  0.18490300  0.00000000  1
  Er  Er7  1  0.31842100  0.81509700  0.00000000  1
  Co  Co0  1  0.50000000  0.50000000  0.50000000  1
  Co  Co1  1  0.00000000  0.00000000  0.00000000  1
  B  B0  1  0.50000000  0.50000000  0.00000000  1
  B  B1  1  0.00000000  0.00000000  0.50000000  1
  B  B2  1  0.90936000  0.40936000  0.25000000  1
  B  B3  1  0.09064000  0.59064000  0.25000000  1
  B  B4  1  0.40936000  0.09064000  0.75000000  1
  B  B5  1  0.59064000  0.90936000  0.75000000  1
  B  B6  1  0.59064000  0.90936000  0.25000000  1
  B  B7  1  0.40936000  0.09064000  0.25000000  1
  B  B8  1  0.90936000  0.40936000  0.75000000  1
  B  B9  1  0.09064000  0.59064000  0.75000000  1
  B  B10  1  0.53911700  0.67031600  0.24593200  1
  B  B11  1  0.46088300  0.32968400  0.24593200  1
  B  B12  1  0.03911700  0.82968400  0.74593200  1
  B  B13  1  0.96088300  0.17031600  0.74593200  1
  B  B14  1  0.32968400  0.53911700  0.24593200  1
  B  B15  1  0.67031600  0.46088300  0.24593200  1
  B  B16  1  0.17031600  0.03911700  0.74593200  1
  B  B17  1  0.82968400  0.96088300  0.74593200  1
  B  B18  1  0.46088300  0.32968400  0.75406800  1
  B  B19  1  0.53911700  0.67031600  0.75406800  1
  B  B20  1  0.96088300  0.17031600  0.25406800  1
  B  B21  1  0.03911700  0.82968400  0.25406800  1
  B  B22  1  0.67031600  0.46088300  0.75406800  1
  B  B23  1  0.32968400  0.53911700  0.75406800  1
  B  B24  1  0.82968400  0.96088300  0.25406800  1
  B  B25  1  0.17031600  0.03911700  0.25406800  1
loop_
_geom_bond_atom_site_label_1
_geom_bond_atom_site_label_2
_geom_bond_distance
_geom_bond_site_symmetry_2
Co0 Er4 2.679107 1_555
Co0 Er0 2.679107 1_555
Co0 Er1 2.679107 1_555
Co0 Er5 2.679107 1_555
Co1 Er2 2.679107 1_555
Co1 Er7 2.679107 1_545
Co1 Er6 2.679107 1_455
Co1 Er3 2.679107 1_445
B0 B14 2.109612 1_555
B0 B11 2.109612 1_555
B0 B10 2.109612 1_555
B0 B15 2.109612 1_555
B0 B18 2.109612 1_554
B0 B22 2.109612 1_554
B0 B19 2.109612 1_554
B0 B23 2.109612 1_554
B0 Er3 2.646062 1_555
B0 Er7 2.646062 1_555
B0 Er6 2.646062 1_555
B0 Er2 2.646062 1_555
B1 B16 2.109612 1_555
B1 B12 2.109612 1_545
B1 B13 2.109612 1_455
B1 B17 2.109612 1_445
B1 B25 2.109612 1_555
B1 B21 2.109612 1_545
B1 B20 2.109612 1_455
B1 B24 2.109612 1_445
B1 Er5 2.646062 1_555
B1 Er1 2.646062 1_545
B1 Er4 2.646062 1_445
B1 Er0 2.646062 1_455
B2 B20 1.779435 1_555
B2 B3 1.865329 1_655
B2 Er3 2.705869 1_555
B2 Er5 2.705869 1_655
B2 Er2 2.717632 1_655
B2 Er4 2.717632 1_555
B2 Er0 2.888289 1_555
B2 Er6 2.888289 1_555
B3 Er2 2.705869 1_555
B3 Er4 2.705869 1_455
B3 Er3 2.717632 1_455
B3 Er5 2.717632 1_555
B3 Er1 2.888289 1_555
B3 Er7 2.888289 1_555
B4 B5 1.865329 1_545
B4 Er6 2.705869 1_556
B4 Er1 2.705869 1_545
B4 Er0 2.717632 1_555
B4 Er7 2.717632 1_546
B4 Er5 2.888289 1_555
B4 Er2 2.888289 1_556
B5 Er0 2.705869 1_565
B5 Er7 2.705869 1_556
B5 Er6 2.717632 1_566
B5 Er1 2.717632 1_555
B5 Er4 2.888289 1_555
B5 Er3 2.888289 1_556
B6 B7 1.865329 1_565
B6 Er0 2.705869 1_565
B6 Er7 2.705869 1_555
B6 Er6 2.717632 1_565
B6 Er1 2.717632 1_555
B6 Er4 2.888289 1_555
B6 Er3 2.888289 1_555
B7 Er6 2.705869 1_555
B7 Er1 2.705869 1_545
B7 Er0 2.717632 1_555
B7 Er7 2.717632 1_545
B7 Er5 2.888289 1_555
B7 Er2 2.888289 1_555
B8 B9 1.865329 1_655
B8 Er3 2.705869 1_556
B8 Er5 2.705869 1_655
B8 Er2 2.717632 1_656
B8 Er4 2.717632 1_555
B8 Er0 2.888289 1_555
B8 Er6 2.888289 1_556
B9 Er2 2.705869 1_556
B9 Er4 2.705869 1_455
B9 Er3 2.717632 1_456
B9 Er5 2.717632 1_555
B9 Er1 2.888289 1_555
B9 Er7 2.888289 1_556
B10 B6 1.779435 1_555
B10 B14 1.798140 1_555
B10 B15 1.798140 1_555
B10 Co0 2.154312 1_555
B10 Er7 2.553825 1_555
B10 Er1 2.615802 1_555
B10 Er3 2.621578 1_555
B10 Er4 2.676851 1_555
B11 B7 1.779435 1_555
B11 B14 1.798140 1_555
B11 B15 1.798140 1_555
B11 Co0 2.154312 1_555
B11 Er6 2.553825 1_555
B11 Er0 2.615802 1_555
B11 Er2 2.621578 1_555
B11 Er5 2.676851 1_555
B12 B9 1.779435 1_555
B12 B17 1.798140 1_455
B12 B16 1.798140 1_565
B12 Co1 2.154312 1_566
B12 Er4 2.553825 1_455
B12 Er3 2.615802 1_456
B12 Er1 2.621578 1_555
B12 Er7 2.676851 1_556
B13 B8 1.779435 1_555
B13 B17 1.798140 1_545
B13 B16 1.798140 1_655
B13 Co1 2.154312 1_656
B13 Er5 2.553825 1_655
B13 Er2 2.615802 1_656
B13 Er0 2.621578 1_555
B13 Er6 2.676851 1_556
B14 B3 1.779435 1_555
B14 Co0 2.154312 1_555
B14 Er2 2.553825 1_555
B14 Er5 2.615802 1_555
B14 Er7 2.621578 1_555
B14 Er1 2.676851 1_555
B15 B2 1.779435 1_555
B15 Co0 2.154312 1_555
B15 Er3 2.553825 1_555
B15 Er4 2.615802 1_555
B15 Er6 2.621578 1_555
B15 Er0 2.676851 1_555
B16 B4 1.779435 1_555
B16 Co1 2.154312 1_556
B16 Er1 2.553825 1_545
B16 Er7 2.615802 1_546
B16 Er5 2.621578 1_555
B16 Er2 2.676851 1_556
B17 B5 1.779435 1_555
B17 Co1 2.154312 1_666
B17 Er0 2.553825 1_565
B17 Er6 2.615802 1_566
B17 Er4 2.621578 1_555
B17 Er3 2.676851 1_556
B18 B4 1.779435 1_555
B18 B23 1.798140 1_555
B18 B22 1.798140 1_555
B18 Co0 2.154312 1_555
B18 Er6 2.553825 1_556
B18 Er0 2.615802 1_555
B18 Er2 2.621578 1_556
B18 Er5 2.676851 1_555
B19 B5 1.779435 1_555
B19 B23 1.798140 1_555
B19 B22 1.798140 1_555
B19 Co0 2.154312 1_555
B19 Er7 2.553825 1_556
B19 Er1 2.615802 1_555
B19 Er3 2.621578 1_556
B19 Er4 2.676851 1_555
B20 B24 1.798140 1_545
B20 B25 1.798140 1_655
B20 Co1 2.154312 1_655
B20 Er5 2.553825 1_655
B20 Er2 2.615802 1_655
B20 Er0 2.621578 1_555
B20 Er6 2.676851 1_555
B21 B3 1.779435 1_555
B21 B24 1.798140 1_455
B21 B25 1.798140 1_565
B21 Co1 2.154312 1_565
B21 Er4 2.553825 1_455
B21 Er3 2.615802 1_455
B21 Er1 2.621578 1_555
B21 Er7 2.676851 1_555
B22 B8 1.779435 1_555
B22 Co0 2.154312 1_555
B22 Er3 2.553825 1_556
B22 Er4 2.615802 1_555
B22 Er6 2.621578 1_556
B22 Er0 2.676851 1_555
B23 B9 1.779435 1_555
B23 Co0 2.154312 1_555
B23 Er2 2.553825 1_556
B23 Er5 2.615802 1_555
B23 Er7 2.621578 1_556
B23 Er1 2.676851 1_555
B24 B6 1.779435 1_555
B24 Co1 2.154312 1_665
B24 Er0 2.553825 1_565
B24 Er6 2.615802 1_565
B24 Er4 2.621578 1_555
B24 Er3 2.676851 1_555
B25 B7 1.779435 1_555
B25 Co1 2.154312 1_555
B25 Er1 2.553825 1_545
B25 Er7 2.615802 1_545
B25 Er5 2.621578 1_555
B25 Er2 2.676851 1_555
