# generated using pymatgen
data_Na3SmV2O8
_symmetry_space_group_name_H-M   'P 1'
_cell_length_a   5.98794929
_cell_length_b   5.98794929
_cell_length_c   7.33404000
_cell_angle_alpha   90.00000000
_cell_angle_beta   90.00000000
_cell_angle_gamma   119.99999219
_symmetry_Int_Tables_number   1
_chemical_formula_structural   Na3SmV2O8
_chemical_formula_sum   'Na3 Sm1 V2 O8'
_cell_volume   227.73520284
_cell_formula_units_Z   1
loop_
 _symmetry_equiv_pos_site_id
 _symmetry_equiv_pos_as_xyz
  1  'x, y, z'
loop_
 _atom_site_type_symbol
 _atom_site_label
 _atom_site_symmetry_multiplicity
 _atom_site_fract_x
 _atom_site_fract_y
 _atom_site_fract_z
 _atom_site_occupancy
  Na  Na0  1  0.33333300  0.66666700  0.69629900  1
  Na  Na1  1  0.66666700  0.33333300  0.30370100  1
  Na  Na2  1  0.00000000  0.00000000  0.00000000  1
  Sm  Sm0  1  0.00000000  0.00000000  0.50000000  1
  V  V0  1  0.33333300  0.66666700  0.22185500  1
  V  V1  1  0.66666700  0.33333300  0.77814500  1
  O  O0  1  0.33333300  0.66666700  0.99307000  1
  O  O1  1  0.66666700  0.33333300  0.00693000  1
  O  O2  1  0.17432400  0.82567600  0.30670200  1
  O  O3  1  0.82567600  0.17432400  0.69329800  1
  O  O4  1  0.17432400  0.34864900  0.30670200  1
  O  O5  1  0.82567600  0.65135100  0.69329800  1
  O  O6  1  0.65135100  0.82567600  0.30670200  1
  O  O7  1  0.34864900  0.17432400  0.69329800  1
loop_
_geom_bond_atom_site_label_1
_geom_bond_atom_site_label_2
_geom_bond_distance
_geom_bond_site_symmetry_2
Na0 O0 2.176530 1_555
Na1 O1 2.176530 1_555
Na2 O2 2.885908 1_545
Na2 O3 2.885908 1_454
Na2 O5 2.885912 1_444
Na2 O7 2.885912 1_554
Na2 O6 2.885912 1_445
Na2 O4 2.885912 1_555
O0 V0 1.677918 1_556
O1 V1 1.677918 1_554
O2 V0 1.762646 1_555
O2 Sm0 2.297514 1_565
O3 V1 1.762646 1_555
O3 Sm0 2.297514 1_655
O4 V0 1.762646 1_555
O4 Sm0 2.297519 1_555
O5 V1 1.762646 1_555
O5 Sm0 2.297519 1_665
O6 V0 1.762646 1_555
O6 Sm0 2.297519 1_665
O7 V1 1.762646 1_555
O7 Sm0 2.297519 1_555
