# generated using pymatgen
data_WSeS
_symmetry_space_group_name_H-M   'P 1'
_cell_length_a   3.25342501
_cell_length_b   3.25342501
_cell_length_c   36.93006000
_cell_angle_alpha   90.00000000
_cell_angle_beta   90.00000000
_cell_angle_gamma   120.00002055
_symmetry_Int_Tables_number   1
_chemical_formula_structural   WSeS
_chemical_formula_sum   'W4 Se4 S4'
_cell_volume   338.52609919
_cell_formula_units_Z   4
loop_
 _symmetry_equiv_pos_site_id
 _symmetry_equiv_pos_as_xyz
  1  'x, y, z'
loop_
 _atom_site_type_symbol
 _atom_site_label
 _atom_site_symmetry_multiplicity
 _atom_site_fract_x
 _atom_site_fract_y
 _atom_site_fract_z
 _atom_site_occupancy
  W  W0  1  0.00000000  0.00000000  0.09391800  1
  W  W1  1  0.00000000  0.00000000  0.46964500  1
  W  W2  1  0.33333300  0.66666700  0.28177500  1
  W  W3  1  0.33333300  0.66666700  0.65756500  1
  Se  Se0  1  0.00000000  0.00000000  0.70382900  1
  Se  Se1  1  0.33333300  0.66666700  0.42339400  1
  Se  Se2  1  0.33333300  0.66666700  0.51591900  1
  Se  Se3  1  0.00000000  0.00000000  0.61129000  1
  S  S0  1  0.00000000  0.00000000  0.32379500  1
  S  S1  1  0.33333300  0.66666700  0.05190900  1
  S  S2  1  0.33333300  0.66666700  0.13592400  1
  S  S3  1  0.00000000  0.00000000  0.23978600  1
loop_
_geom_bond_atom_site_label_1
_geom_bond_atom_site_label_2
_geom_bond_distance
_geom_bond_site_symmetry_2
Se0 W3 2.539160 1_545
Se0 W3 2.539162 1_445
Se0 W3 2.539162 1_555
Se1 W1 2.538837 1_565
Se1 W1 2.538839 1_665
Se1 W1 2.538839 1_555
Se2 W1 2.539409 1_565
Se2 W1 2.539410 1_665
Se2 W1 2.539410 1_555
Se3 W3 2.539434 1_545
Se3 W3 2.539435 1_445
Se3 W3 2.539435 1_555
S0 W2 2.436460 1_545
S0 W2 2.436462 1_555
S0 W2 2.436462 1_445
S1 W0 2.436202 1_565
S1 W0 2.436203 1_555
S1 W0 2.436203 1_665
S2 W0 2.436131 1_565
S2 W0 2.436133 1_665
S2 W0 2.436133 1_555
S3 W2 2.435731 1_545
S3 W2 2.435733 1_555
S3 W2 2.435733 1_445
