# generated using pymatgen
data_Mo2H9C2NO7
_symmetry_space_group_name_H-M   'P 1'
_cell_length_a   11.23978171
_cell_length_b   11.23978171
_cell_length_c   10.81687697
_cell_angle_alpha   76.13006232
_cell_angle_beta   76.13006232
_cell_angle_gamma   111.82241787
_symmetry_Int_Tables_number   1
_chemical_formula_structural   Mo2H9C2NO7
_chemical_formula_sum   'Mo8 H36 C8 N4 O28'
_cell_volume   1146.71154475
_cell_formula_units_Z   4
loop_
 _symmetry_equiv_pos_site_id
 _symmetry_equiv_pos_as_xyz
  1  'x, y, z'
loop_
 _atom_site_type_symbol
 _atom_site_label
 _atom_site_symmetry_multiplicity
 _atom_site_fract_x
 _atom_site_fract_y
 _atom_site_fract_z
 _atom_site_occupancy
  Mo  Mo0  1  0.77538000  0.52089200  0.36856200  1
  Mo  Mo1  1  0.52089200  0.77538000  0.36856200  1
  Mo  Mo2  1  0.22462000  0.47910800  0.63143800  1
  Mo  Mo3  1  0.47910800  0.22462000  0.63143800  1
  Mo  Mo4  1  0.59572600  0.59572600  0.59251100  1
  Mo  Mo5  1  0.40427400  0.40427400  0.40748900  1
  Mo  Mo6  1  0.67624200  0.67624200  0.14667400  1
  Mo  Mo7  1  0.32375800  0.32375800  0.85332600  1
  H  H0  1  0.02752200  0.06785200  0.19802300  1
  H  H1  1  0.06785200  0.02752200  0.19802300  1
  H  H2  1  0.97247800  0.93214800  0.80197700  1
  H  H3  1  0.93214800  0.97247800  0.80197700  1
  H  H4  1  0.00592000  0.52619500  0.51675400  1
  H  H5  1  0.52619500  0.00592000  0.51675400  1
  H  H6  1  0.99408000  0.47380500  0.48324600  1
  H  H7  1  0.47380500  0.99408000  0.48324600  1
  H  H8  1  0.21706100  0.21706100  0.10607000  1
  H  H9  1  0.78293900  0.78293900  0.89393000  1
  H  H10  1  0.86908100  0.86908100  0.16492400  1
  H  H11  1  0.13091900  0.13091900  0.83507600  1
  H  H12  1  0.84971100  0.33970900  0.12113000  1
  H  H13  1  0.33970900  0.84971100  0.12113000  1
  H  H14  1  0.15028900  0.66029100  0.87887000  1
  H  H15  1  0.66029100  0.15028900  0.87887000  1
  H  H16  1  0.80724500  0.16327500  0.14690200  1
  H  H17  1  0.16327500  0.80724500  0.14690200  1
  H  H18  1  0.19275500  0.83672500  0.85309800  1
  H  H19  1  0.83672500  0.19275500  0.85309800  1
  H  H20  1  0.94424800  0.29786100  0.99279600  1
  H  H21  1  0.29786100  0.94424800  0.99279600  1
  H  H22  1  0.05575200  0.70213900  0.00720400  1
  H  H23  1  0.70213900  0.05575200  0.00720400  1
  H  H24  1  0.71195300  0.38769100  0.84644400  1
  H  H25  1  0.38769100  0.71195300  0.84644400  1
  H  H26  1  0.28804700  0.61230900  0.15355600  1
  H  H27  1  0.61230900  0.28804700  0.15355600  1
  H  H28  1  0.78947100  0.46808300  0.95084500  1
  H  H29  1  0.46808300  0.78947100  0.95084500  1
  H  H30  1  0.21052900  0.53191700  0.04915500  1
  H  H31  1  0.53191700  0.21052900  0.04915500  1
  H  H32  1  0.88921200  0.43183500  0.82093300  1
  H  H33  1  0.43183500  0.88921200  0.82093300  1
  H  H34  1  0.11078800  0.56816500  0.17906700  1
  H  H35  1  0.56816500  0.11078800  0.17906700  1
  C  C0  1  0.84385800  0.26538600  0.07029400  1
  C  C1  1  0.26538600  0.84385800  0.07029400  1
  C  C2  1  0.15614200  0.73461400  0.92970600  1
  C  C3  1  0.73461400  0.15614200  0.92970600  1
  C  C4  1  0.78715400  0.39696500  0.89655000  1
  C  C5  1  0.39696500  0.78715400  0.89655000  1
  C  C6  1  0.21284600  0.60303500  0.10345000  1
  C  C7  1  0.60303500  0.21284600  0.10345000  1
  N  N0  1  0.74233500  0.25766500  0.00000000  1
  N  N1  1  0.25766500  0.74233500  0.00000000  1
  N  N2  1  0.15338200  0.84661800  0.50000000  1
  N  N3  1  0.84661800  0.15338200  0.50000000  1
  O  O0  1  0.61713500  0.61713500  0.38300700  1
  O  O1  1  0.38286500  0.38286500  0.61699300  1
  O  O2  1  0.67120700  0.46709400  0.56558200  1
  O  O3  1  0.46709400  0.67120700  0.56558200  1
  O  O4  1  0.32879300  0.53290600  0.43441800  1
  O  O5  1  0.53290600  0.32879300  0.43441800  1
  O  O6  1  0.75710200  0.55712900  0.18998000  1
  O  O7  1  0.55712900  0.75710200  0.18998000  1
  O  O8  1  0.24289800  0.44287100  0.81002000  1
  O  O9  1  0.44287100  0.24289800  0.81002000  1
  O  O10  1  0.91900500  0.67231700  0.33310900  1
  O  O11  1  0.67231700  0.91900500  0.33310900  1
  O  O12  1  0.08099500  0.32768300  0.66689100  1
  O  O13  1  0.32768300  0.08099500  0.66689100  1
  O  O14  1  0.83472800  0.40034000  0.36255100  1
  O  O15  1  0.40034000  0.83472800  0.36255100  1
  O  O16  1  0.16527200  0.59966000  0.63744900  1
  O  O17  1  0.59966000  0.16527200  0.63744900  1
  O  O18  1  0.73802400  0.73802400  0.57170200  1
  O  O19  1  0.26197600  0.26197600  0.42829800  1
  O  O20  1  0.51063200  0.51063200  0.77644100  1
  O  O21  1  0.48936800  0.48936800  0.22355900  1
  O  O22  1  0.84496800  0.84496800  0.09013800  1
  O  O23  1  0.15503200  0.15503200  0.90986200  1
  O  O24  1  0.69986900  0.69986900  0.95910900  1
  O  O25  1  0.30013100  0.30013100  0.04089100  1
  O  O26  1  0.00135700  0.00135700  0.44272800  1
  O  O27  1  0.99864300  0.99864300  0.55727200  1
loop_
_geom_bond_atom_site_label_1
_geom_bond_atom_site_label_2
_geom_bond_distance
_geom_bond_site_symmetry_2
Mo0 O14 1.725857 1_555
Mo0 O10 1.731300 1_555
Mo0 O6 1.953158 1_555
Mo0 O2 1.984392 1_555
Mo0 O0 2.395079 1_555
Mo0 O5 2.560052 1_555
Mo1 O15 1.725857 1_555
Mo1 O11 1.731300 1_555
Mo1 O7 1.953158 1_555
Mo1 O3 1.984392 1_555
Mo1 O0 2.395079 1_555
Mo1 O4 2.560052 1_555
Mo2 O16 1.725857 1_555
Mo2 O12 1.731300 1_555
Mo2 O8 1.953158 1_555
Mo2 O4 1.984392 1_555
Mo2 O1 2.395079 1_555
Mo2 O3 2.560052 1_555
Mo3 O17 1.725857 1_555
Mo3 O13 1.731300 1_555
Mo3 O9 1.953158 1_555
Mo3 O5 1.984392 1_555
Mo3 O1 2.395079 1_555
Mo3 O2 2.560052 1_555
Mo4 O18 1.708737 1_555
Mo4 O20 1.811940 1_555
Mo4 O2 1.972384 1_555
Mo4 O3 1.972384 1_555
Mo4 O0 2.164587 1_555
Mo4 O1 2.579760 1_555
Mo5 O19 1.708737 1_555
Mo5 O21 1.811940 1_555
Mo5 O4 1.972384 1_555
Mo5 O5 1.972384 1_555
Mo5 O1 2.164587 1_555
Mo5 O0 2.579760 1_555
Mo6 O6 1.909423 1_555
Mo6 O7 1.909423 1_555
Mo6 O24 1.920491 1_554
Mo6 O22 1.944494 1_555
Mo6 O21 2.135468 1_555
Mo6 O0 2.336921 1_555
Mo7 O9 1.909423 1_555
Mo7 O8 1.909423 1_555
Mo7 O25 1.920491 1_556
Mo7 O23 1.944494 1_555
Mo7 O20 2.135468 1_555
Mo7 O1 2.336921 1_555
H0 H1 0.750820 1_555
H2 H3 0.750820 1_555
H4 H6 0.750346 1_455
H5 H7 0.750346 1_545
H8 O25 0.980449 1_555
H9 O24 0.980449 1_555
H10 O22 0.978228 1_555
H11 O23 0.978228 1_555
C0 H12 1.096027 1_555
C0 H16 1.096652 1_555
C0 H20 1.096702 1_554
C0 N0 1.503921 1_555
C1 H13 1.096027 1_555
C1 H17 1.096652 1_555
C1 H21 1.096702 1_554
C1 N1 1.503921 1_555
C2 H14 1.096027 1_555
C2 H18 1.096652 1_555
C2 H22 1.096702 1_556
C2 N1 1.503921 1_556
C3 H15 1.096027 1_555
C3 H19 1.096652 1_555
C3 H23 1.096702 1_556
C3 N0 1.503921 1_556
C4 H24 1.095570 1_555
C4 H32 1.095768 1_555
C4 H28 1.096128 1_555
C4 N0 1.503570 1_556
C5 H25 1.095570 1_555
C5 H33 1.095768 1_555
C5 H29 1.096128 1_555
C5 N1 1.503570 1_556
C6 H26 1.095570 1_555
C6 H34 1.095768 1_555
C6 H30 1.096128 1_555
C6 N1 1.503570 1_555
C7 H27 1.095570 1_555
C7 H35 1.095768 1_555
C7 H31 1.096128 1_555
C7 N0 1.503570 1_555
O26 O27 1.224773 1_445
