# generated using pymatgen
data_ZnWO4
_symmetry_space_group_name_H-M   'P 1'
_cell_length_a   5.72971105
_cell_length_b   4.67671929
_cell_length_c   4.93645441
_cell_angle_alpha   89.41388785
_cell_angle_beta   90.00000000
_cell_angle_gamma   90.00000000
_symmetry_Int_Tables_number   1
_chemical_formula_structural   ZnWO4
_chemical_formula_sum   'Zn2 W2 O8'
_cell_volume   132.27154637
_cell_formula_units_Z   2
loop_
 _symmetry_equiv_pos_site_id
 _symmetry_equiv_pos_as_xyz
  1  'x, y, z'
loop_
 _atom_site_type_symbol
 _atom_site_label
 _atom_site_symmetry_multiplicity
 _atom_site_fract_x
 _atom_site_fract_y
 _atom_site_fract_z
 _atom_site_occupancy
  Zn  Zn0  1  0.67635722  0.50000000  0.25000000  1
  Zn  Zn1  1  0.32364278  0.50000000  0.75000000  1
  W  W0  1  0.18112668  -0.00000000  0.25000000  1
  W  W1  1  0.81887332  -0.00000000  0.75000000  1
  O  O0  1  0.10643271  0.78268742  0.93508328  1
  O  O1  1  0.10643271  0.21731258  0.56491672  1
  O  O2  1  0.89356729  0.21731258  0.06491672  1
  O  O3  1  0.89356729  0.78268742  0.43508328  1
  O  O4  1  0.37610991  0.74307269  0.40266425  1
  O  O5  1  0.37610991  0.25692731  0.09733575  1
  O  O6  1  0.62389009  0.25692731  0.59733575  1
  O  O7  1  0.62389009  0.74307269  0.90266425  1
loop_
_geom_bond_atom_site_label_1
_geom_bond_atom_site_label_2
_geom_bond_distance
_geom_bond_site_symmetry_2
O0 W0 1.914436 1_566
O0 Zn1 2.038676 1_555
O0 W1 2.136199 1_465
O1 W0 1.914436 1_555
O1 Zn1 2.038676 1_555
O1 W1 2.136199 1_455
O2 W1 1.914436 1_554
O2 Zn0 2.038676 1_555
O2 W0 2.136199 1_655
O3 W1 1.914436 1_565
O3 Zn0 2.038676 1_555
O3 W0 2.136199 1_665
O4 W0 1.800371 1_565
O4 Zn1 2.069456 1_555
O4 Zn0 2.199382 1_555
O5 W0 1.800371 1_555
O5 Zn1 2.069456 1_554
O5 Zn0 2.199382 1_555
O6 W1 1.800371 1_555
O6 Zn0 2.069456 1_555
O6 Zn1 2.199382 1_555
O7 W1 1.800371 1_565
O7 Zn0 2.069456 1_556
O7 Zn1 2.199382 1_555
