# generated using pymatgen
data_Cs4Ni3F10
_symmetry_space_group_name_H-M   'P 1'
_cell_length_a   7.82652202
_cell_length_b   7.82652202
_cell_length_c   13.69341342
_cell_angle_alpha   90.00000000
_cell_angle_beta   90.00000000
_cell_angle_gamma   133.84780777
_symmetry_Int_Tables_number   1
_chemical_formula_structural   Cs4Ni3F10
_chemical_formula_sum   'Cs8 Ni6 F20'
_cell_volume   604.91519397
_cell_formula_units_Z   2
loop_
 _symmetry_equiv_pos_site_id
 _symmetry_equiv_pos_as_xyz
  1  'x, y, z'
loop_
 _atom_site_type_symbol
 _atom_site_label
 _atom_site_symmetry_multiplicity
 _atom_site_fract_x
 _atom_site_fract_y
 _atom_site_fract_z
 _atom_site_occupancy
  Cs  Cs0  1  0.25426150  0.74573850  0.61327589  1
  Cs  Cs1  1  0.74573850  0.25426150  0.38672411  1
  Cs  Cs2  1  0.24573850  0.75426150  0.11327589  1
  Cs  Cs3  1  0.75426150  0.24573850  0.88672411  1
  Cs  Cs4  1  0.95345328  0.04654672  0.63919115  1
  Cs  Cs5  1  0.04654672  0.95345328  0.36080885  1
  Cs  Cs6  1  0.54654672  0.45345328  0.13919115  1
  Cs  Cs7  1  0.45345328  0.54654672  0.86080885  1
  Ni  Ni0  1  0.61663244  0.38336756  0.65388721  1
  Ni  Ni1  1  0.38336756  0.61663244  0.34611279  1
  Ni  Ni2  1  0.88336756  0.11663244  0.15388721  1
  Ni  Ni3  1  0.11663244  0.88336756  0.84611279  1
  Ni  Ni4  1  0.50000000  0.50000000  0.50000000  1
  Ni  Ni5  1  0.00000000  -0.00000000  0.00000000  1
  F  F0  1  0.61400881  0.81209260  0.46106625  1
  F  F1  1  0.81209260  0.61400881  0.53893375  1
  F  F2  1  0.88599119  0.68790740  0.96106625  1
  F  F3  1  0.68790740  0.88599119  0.03893375  1
  F  F4  1  0.38599119  0.18790740  0.53893375  1
  F  F5  1  0.18790740  0.38599119  0.46106625  1
  F  F6  1  0.11400881  0.31209260  0.03893375  1
  F  F7  1  0.31209260  0.11400881  0.96106625  1
  F  F8  1  0.47292484  0.52707516  0.64337701  1
  F  F9  1  0.52707516  0.47292484  0.35662299  1
  F  F10  1  0.02707516  0.97292484  0.14337701  1
  F  F11  1  0.97292484  0.02707516  0.85662299  1
  F  F12  1  0.75104318  0.24895682  0.65041746  1
  F  F13  1  0.24895682  0.75104318  0.34958254  1
  F  F14  1  0.36092777  0.13907223  0.75000000  1
  F  F15  1  0.13907223  0.36092777  0.25000000  1
  F  F16  1  0.63907223  0.86092777  0.25000000  1
  F  F17  1  0.86092777  0.63907223  0.75000000  1
  F  F18  1  0.25104318  0.74895682  0.84958254  1
  F  F19  1  0.74895682  0.25104318  0.15041746  1
loop_
_geom_bond_atom_site_label_1
_geom_bond_atom_site_label_2
_geom_bond_distance
_geom_bond_site_symmetry_2
Cs0 F4 3.021929 1_565
Cs0 F1 3.021929 1_455
Cs0 F12 3.109852 1_455
Cs0 F12 3.109852 1_565
Cs0 F8 3.175739 1_555
Cs0 F14 3.180920 1_565
Cs0 F17 3.180920 1_455
Cs0 F18 3.236177 1_555
Cs0 F5 3.242756 1_555
Cs0 F0 3.242756 1_555
Cs0 F13 3.611670 1_555
Cs1 F5 3.021929 1_655
Cs1 F0 3.021929 1_545
Cs1 F13 3.109852 1_545
Cs1 F13 3.109852 1_655
Cs1 F9 3.175739 1_555
Cs1 F16 3.180920 1_545
Cs1 F15 3.180920 1_655
Cs1 F19 3.236177 1_555
Cs1 F4 3.242756 1_555
Cs1 F1 3.242756 1_555
Cs1 F12 3.611670 1_555
Cs2 F6 3.021929 1_555
Cs2 F3 3.021929 1_555
Cs2 F19 3.109852 1_455
Cs2 F19 3.109852 1_565
Cs2 F10 3.175739 1_555
Cs2 F15 3.180920 1_555
Cs2 F16 3.180920 1_555
Cs2 F13 3.236177 1_555
Cs2 F2 3.242756 1_454
Cs2 F7 3.242756 1_564
Cs2 F18 3.611670 1_554
Cs3 F7 3.021929 1_555
Cs3 F2 3.021929 1_555
Cs3 F18 3.109852 1_545
Cs3 F18 3.109852 1_655
Cs3 F11 3.175739 1_555
Cs3 F14 3.180920 1_555
Cs3 F17 3.180920 1_555
Cs3 F12 3.236177 1_555
Cs3 F3 3.242756 1_546
Cs3 F6 3.242756 1_656
Cs3 F19 3.611670 1_556
Cs4 F12 2.918871 1_555
Cs4 F11 2.990559 1_555
Cs4 F1 3.062632 1_545
Cs4 F4 3.062632 1_655
Cs4 F8 3.080953 1_655
Cs4 F8 3.080953 1_545
Cs4 F5 3.101655 1_655
Cs4 F0 3.101655 1_545
Cs4 F14 3.130097 1_655
Cs4 F17 3.130097 1_545
Cs5 F13 2.918871 1_555
Cs5 F10 2.990559 1_555
Cs5 F0 3.062632 1_455
Cs5 F5 3.062632 1_565
Cs5 F9 3.080953 1_565
Cs5 F9 3.080953 1_455
Cs5 F4 3.101655 1_565
Cs5 F1 3.101655 1_455
Cs5 F15 3.130097 1_565
Cs5 F16 3.130097 1_455
Cs6 F19 2.918871 1_555
Cs6 F9 2.990559 1_555
Cs6 F6 3.062632 1_555
Cs6 F3 3.062632 1_555
Cs6 F10 3.080953 1_655
Cs6 F10 3.080953 1_545
Cs6 F2 3.101655 1_554
Cs6 F7 3.101655 1_554
Cs6 F15 3.130097 1_555
Cs6 F16 3.130097 1_555
Cs7 F18 2.918871 1_555
Cs7 F8 2.990559 1_555
Cs7 F7 3.062632 1_555
Cs7 F2 3.062632 1_555
Cs7 F11 3.080953 1_565
Cs7 F11 3.080953 1_455
Cs7 F6 3.101655 1_556
Cs7 F3 3.101655 1_556
Cs7 F17 3.130097 1_555
Cs7 F14 3.130097 1_555
F0 Ni4 2.006743 1_555
F0 Ni1 2.061685 1_555
F1 Ni4 2.006743 1_555
F1 Ni0 2.061685 1_555
F2 Ni5 2.006743 1_666
F2 Ni3 2.061685 1_655
F3 Ni5 2.006743 1_665
F3 Ni2 2.061685 1_565
F4 Ni4 2.006743 1_555
F4 Ni0 2.061685 1_555
F5 Ni4 2.006743 1_555
F5 Ni1 2.061685 1_555
F6 Ni5 2.006743 1_555
F6 Ni2 2.061685 1_455
F7 Ni5 2.006743 1_556
F7 Ni3 2.061685 1_545
F8 Ni4 2.001661 1_555
F8 Ni0 2.074469 1_555
F9 Ni4 2.001661 1_555
F9 Ni1 2.074469 1_555
F10 Ni5 2.001661 1_565
F10 Ni2 2.074469 1_465
F11 Ni5 2.001661 1_656
F11 Ni3 2.074469 1_645
F12 Ni0 1.936174 1_555
F13 Ni1 1.936174 1_555
F14 Ni0 2.022743 1_555
F14 Ni3 2.022743 1_545
F15 Ni2 2.022743 1_455
F15 Ni1 2.022743 1_555
F16 Ni1 2.022743 1_555
F16 Ni2 2.022743 1_565
F17 Ni0 2.022743 1_555
F17 Ni3 2.022743 1_655
F18 Ni3 1.936174 1_555
F19 Ni2 1.936174 1_555
