# generated using pymatgen
data_Sr2CaTi6N2O11
_symmetry_space_group_name_H-M   'P 1'
_cell_length_a   3.63737501
_cell_length_b   8.49451558
_cell_length_c   10.08501231
_cell_angle_alpha   81.05862790
_cell_angle_beta   90.00162852
_cell_angle_gamma   77.63474560
_symmetry_Int_Tables_number   1
_chemical_formula_structural   Sr2CaTi6N2O11
_chemical_formula_sum   'Sr2 Ca1 Ti6 N2 O11'
_cell_volume   300.49755764
_cell_formula_units_Z   1
loop_
 _symmetry_equiv_pos_site_id
 _symmetry_equiv_pos_as_xyz
  1  'x, y, z'
loop_
 _atom_site_type_symbol
 _atom_site_label
 _atom_site_symmetry_multiplicity
 _atom_site_fract_x
 _atom_site_fract_y
 _atom_site_fract_z
 _atom_site_occupancy
  Sr  Sr0  1  0.52212400  0.95215000  0.81115400  1
  Sr  Sr1  1  0.45162100  0.09321900  0.29310600  1
  Ca  Ca0  1  0.72501900  0.54694500  0.95997200  1
  Ti  Ti0  1  0.10825300  0.78009400  0.12443300  1
  Ti  Ti1  1  0.17417200  0.64819700  0.39559600  1
  Ti  Ti2  1  0.20530700  0.58613900  0.69586100  1
  Ti  Ti3  1  0.77761400  0.44129800  0.26758100  1
  Ti  Ti4  1  0.83781900  0.32107500  0.58530900  1
  Ti  Ti5  1  0.89339700  0.20946200  0.97115900  1
  N  N0  1  0.22778800  0.54091400  0.21165500  1
  N  N1  1  0.85778600  0.28080500  0.13476200  1
  O  O0  1  0.06320500  0.87008800  0.28579100  1
  O  O1  1  0.11953800  0.75770400  0.56964800  1
  O  O2  1  0.15617300  0.68448800  0.85285100  1
  O  O3  1  0.61766800  0.76126100  0.06825200  1
  O  O4  1  0.70729800  0.58196600  0.42262900  1
  O  O5  1  0.74932100  0.49812700  0.72821600  1
  O  O6  1  0.29536200  0.40597700  0.57136000  1
  O  O7  1  0.36098200  0.27428500  0.91008200  1
  O  O8  1  0.87257200  0.25159100  0.41194500  1
  O  O9  1  0.93091600  0.13462300  0.69660000  1
  O  O10  1  0.00339300  0.98960400  0.98673300  1
loop_
_geom_bond_atom_site_label_1
_geom_bond_atom_site_label_2
_geom_bond_distance
_geom_bond_site_symmetry_2
Ca0 O3 2.229965 1_556
Ca0 O2 2.320369 1_655
Ca0 O2 2.320670 1_555
Ca0 O5 2.434783 1_555
Ca0 N1 2.597121 1_556
N0 Ti0 2.038819 1_555
N0 Ti3 2.039736 1_455
N0 Ti3 2.039762 1_555
N0 Ti1 2.181544 1_555
N1 Ti5 1.839443 1_554
N1 Ti3 2.033535 1_555
N1 Sr1 2.736643 1_555
N1 Sr1 2.736697 1_655
O0 Ti0 1.895362 1_555
O0 Ti1 1.991789 1_555
O0 Sr1 2.604661 1_465
O0 Sr1 2.604674 1_565
O1 Ti2 1.752150 1_555
O1 Ti1 2.101028 1_555
O2 Ti2 1.893085 1_555
O2 Sr0 2.849072 1_555
O2 Sr0 2.849948 1_455
O3 Ti0 1.918652 1_655
O3 Ti0 1.918659 1_555
O3 Sr0 2.815062 1_554
O4 Ti1 1.906895 1_655
O4 Ti1 1.906909 1_555
O4 Ti3 2.094799 1_555
O4 Ti4 2.499498 1_555
O5 Ti2 1.967619 1_555
O5 Ti2 1.967640 1_655
O5 Ti4 2.215653 1_555
O6 Ti4 1.947334 1_555
O6 Ti4 1.947357 1_455
O6 Ti2 2.099652 1_555
O6 Ti1 2.459194 1_555
O7 Ti5 1.967434 1_555
O7 Ti5 1.967486 1_455
O7 Sr0 2.998076 1_545
O8 Ti4 1.926140 1_555
O8 Ti3 1.966750 1_555
O8 Sr1 2.640103 1_655
O8 Sr1 2.640820 1_555
O9 Ti4 1.760845 1_555
O9 Sr0 2.525330 1_645
O9 Sr0 2.525619 1_545
O10 Ti5 1.805941 1_465
O10 Ti0 2.045059 1_556
O10 Sr0 2.591250 1_455
O10 Sr0 2.591323 1_555
