# generated using pymatgen
data_Rb2PbCl5
_symmetry_space_group_name_H-M   'P 1'
_cell_length_a   9.02067823
_cell_length_b   9.88267583
_cell_length_c   12.43344574
_cell_angle_alpha   90.70568358
_cell_angle_beta   90.17176030
_cell_angle_gamma   89.76910286
_symmetry_Int_Tables_number   1
_chemical_formula_structural   Rb2PbCl5
_chemical_formula_sum   'Rb8 Pb4 Cl20'
_cell_volume   1108.32438802
_cell_formula_units_Z   4
loop_
 _symmetry_equiv_pos_site_id
 _symmetry_equiv_pos_as_xyz
  1  'x, y, z'
loop_
 _atom_site_type_symbol
 _atom_site_label
 _atom_site_symmetry_multiplicity
 _atom_site_fract_x
 _atom_site_fract_y
 _atom_site_fract_z
 _atom_site_occupancy
  Rb  Rb0  1  0.93686100  0.02757700  0.67044700  1
  Rb  Rb1  1  0.06313900  0.97242300  0.32955300  1
  Rb  Rb2  1  0.43734300  0.97258100  0.83007900  1
  Rb  Rb3  1  0.56265700  0.02741900  0.16992100  1
  Rb  Rb4  1  0.92281300  0.75767200  0.99702600  1
  Rb  Rb5  1  0.07718700  0.24232800  0.00297400  1
  Rb  Rb6  1  0.42270900  0.24304500  0.50291100  1
  Rb  Rb7  1  0.57729100  0.75695500  0.49708900  1
  Pb  Pb0  1  0.08461200  0.52057100  0.67809700  1
  Pb  Pb1  1  0.91538900  0.47942900  0.32190300  1
  Pb  Pb2  1  0.58454800  0.47951700  0.82194000  1
  Pb  Pb3  1  0.41545200  0.52048300  0.17806000  1
  Cl  Cl0  1  0.87648100  0.46409000  0.86452900  1
  Cl  Cl1  1  0.12351900  0.53591000  0.13547100  1
  Cl  Cl2  1  0.37638600  0.53592400  0.63549600  1
  Cl  Cl3  1  0.62361400  0.46407600  0.36450400  1
  Cl  Cl4  1  0.13440500  0.74338900  0.79068300  1
  Cl  Cl5  1  0.86559500  0.25661100  0.20931700  1
  Cl  Cl6  1  0.63431500  0.25683100  0.70913000  1
  Cl  Cl7  1  0.36568500  0.74316900  0.29087000  1
  Cl  Cl8  1  0.67523500  0.73091300  0.75236400  1
  Cl  Cl9  1  0.32476500  0.26908700  0.24763600  1
  Cl  Cl10  1  0.17537200  0.26896400  0.74761900  1
  Cl  Cl11  1  0.82462800  0.73103600  0.25238100  1
  Cl  Cl12  1  0.53745400  0.67121300  0.01244800  1
  Cl  Cl13  1  0.46254600  0.32878700  0.98755200  1
  Cl  Cl14  1  0.03749300  0.32869300  0.48757400  1
  Cl  Cl15  1  0.96250700  0.67130700  0.51242600  1
  Cl  Cl16  1  0.28604000  0.96269000  0.57406300  1
  Cl  Cl17  1  0.71396000  0.03731000  0.42593700  1
  Cl  Cl18  1  0.78583600  0.03687900  0.92608100  1
  Cl  Cl19  1  0.21416400  0.96312100  0.07391900  1
loop_
_geom_bond_atom_site_label_1
_geom_bond_atom_site_label_2
_geom_bond_distance
_geom_bond_site_symmetry_2
Cl0 Pb2 2.688682 1_555
Cl0 Pb0 3.045654 1_655
Cl0 Rb5 3.329616 1_656
Cl0 Rb4 3.345815 1_555
Cl1 Pb3 2.688682 1_555
Cl1 Pb1 3.045648 1_455
Cl1 Rb4 3.329616 1_454
Cl1 Rb5 3.345815 1_555
Cl2 Pb0 2.691571 1_555
Cl2 Pb2 3.034439 1_555
Cl2 Rb6 3.338666 1_555
Cl2 Rb7 3.340741 1_555
Cl3 Pb1 2.691580 1_555
Cl3 Pb3 3.034439 1_555
Cl3 Rb7 3.338666 1_555
Cl3 Rb6 3.340741 1_555
Cl4 Pb0 2.634108 1_555
Cl4 Rb4 3.203656 1_455
Cl4 Rb2 3.585040 1_555
Cl4 Rb0 3.653125 1_465
Cl5 Pb1 2.634110 1_555
Cl5 Rb5 3.203656 1_655
Cl5 Rb3 3.585040 1_555
Cl5 Rb1 3.653125 1_645
Cl6 Pb2 2.632846 1_555
Cl6 Rb6 3.193822 1_555
Cl6 Rb0 3.569877 1_555
Cl6 Rb2 3.670174 1_545
Cl7 Pb3 2.632846 1_555
Cl7 Rb7 3.193822 1_555
Cl7 Rb1 3.569877 1_555
Cl7 Rb3 3.670174 1_565
Cl8 Pb2 2.768338 1_555
Cl8 Rb7 3.304885 1_555
Cl8 Rb2 3.340230 1_555
Cl8 Rb4 3.775657 1_555
Cl8 Rb0 3.917468 1_565
Cl9 Pb3 2.768338 1_555
Cl9 Rb6 3.304885 1_555
Cl9 Rb3 3.340230 1_555
Cl9 Rb5 3.775657 1_555
Cl9 Rb1 3.917468 1_545
Cl10 Pb0 2.762735 1_555
Cl10 Rb5 3.312602 1_556
Cl10 Rb0 3.348613 1_455
Cl10 Rb6 3.783877 1_555
Cl10 Rb2 3.901115 1_545
Cl11 Pb1 2.762738 1_555
Cl11 Rb4 3.312602 1_554
Cl11 Rb1 3.348613 1_655
Cl11 Rb7 3.783877 1_555
Cl11 Rb3 3.901115 1_565
Cl12 Pb3 2.787922 1_555
Cl12 Pb2 3.044520 1_554
Cl12 Rb4 3.589259 1_554
Cl13 Pb2 2.787922 1_555
Cl13 Pb3 3.044520 1_556
Cl13 Rb5 3.589259 1_556
Cl14 Pb1 2.779233 1_455
Cl14 Pb0 3.045947 1_555
Cl14 Rb6 3.578282 1_555
Cl15 Pb0 2.779236 1_655
Cl15 Pb1 3.045946 1_555
Cl15 Rb7 3.578282 1_555
Cl16 Rb6 3.173883 1_565
Cl16 Rb0 3.428731 1_465
Cl16 Rb7 3.446244 1_555
Cl16 Rb2 3.460096 1_555
Cl16 Rb1 3.641902 1_555
Cl17 Rb7 3.173883 1_545
Cl17 Rb1 3.428731 1_645
Cl17 Rb6 3.446244 1_555
Cl17 Rb3 3.460096 1_555
Cl17 Rb0 3.641902 1_555
Cl18 Rb4 3.153506 1_545
Cl18 Rb2 3.418473 1_545
Cl18 Rb5 3.453110 1_656
Cl18 Rb0 3.461863 1_555
Cl18 Rb3 3.646718 1_556
Cl19 Rb5 3.153506 1_565
Cl19 Rb3 3.418473 1_565
Cl19 Rb4 3.453110 1_454
Cl19 Rb1 3.461863 1_555
Cl19 Rb2 3.646718 1_554
