# generated using pymatgen
data_Na3ScCl6
_symmetry_space_group_name_H-M   'P 1'
_cell_length_a   7.13071060
_cell_length_b   6.64925160
_cell_length_c   11.83470106
_cell_angle_alpha   56.43458582
_cell_angle_beta   90.00000000
_cell_angle_gamma   90.00000000
_symmetry_Int_Tables_number   1
_chemical_formula_structural   Na3ScCl6
_chemical_formula_sum   'Na6 Sc2 Cl12'
_cell_volume   467.56378868
_cell_formula_units_Z   2
loop_
 _symmetry_equiv_pos_site_id
 _symmetry_equiv_pos_as_xyz
  1  'x, y, z'
loop_
 _atom_site_type_symbol
 _atom_site_label
 _atom_site_symmetry_multiplicity
 _atom_site_fract_x
 _atom_site_fract_y
 _atom_site_fract_z
 _atom_site_occupancy
  Na  Na0  1  0.91806664  0.71207546  0.75722093  1
  Na  Na1  1  0.58193336  0.71207546  0.25722093  1
  Na  Na2  1  0.08193336  0.28792454  0.24277907  1
  Na  Na3  1  0.41806664  0.28792454  0.74277907  1
  Na  Na4  1  -0.00000000  0.50000000  0.50000000  1
  Na  Na5  1  0.50000000  0.50000000  0.00000000  1
  Sc  Sc0  1  0.50000000  -0.00000000  0.50000000  1
  Sc  Sc1  1  -0.00000000  -0.00000000  0.00000000  1
  Cl  Cl0  1  0.55586734  0.90227975  0.73450747  1
  Cl  Cl1  1  0.94413266  0.90227975  0.23450747  1
  Cl  Cl2  1  0.44413266  0.09772025  0.26549253  1
  Cl  Cl3  1  0.05586734  0.09772025  0.76549253  1
  Cl  Cl4  1  0.79645785  0.24105928  0.42450496  1
  Cl  Cl5  1  0.70354215  0.24105928  0.92450496  1
  Cl  Cl6  1  0.20354215  0.75894072  0.57549504  1
  Cl  Cl7  1  0.29645785  0.75894072  0.07549504  1
  Cl  Cl8  1  0.67767992  0.63106034  0.56273924  1
  Cl  Cl9  1  0.82232008  0.63106034  0.06273924  1
  Cl  Cl10  1  0.32232008  0.36893966  0.43726076  1
  Cl  Cl11  1  0.17767992  0.36893966  0.93726076  1
loop_
_geom_bond_atom_site_label_1
_geom_bond_atom_site_label_2
_geom_bond_distance
_geom_bond_site_symmetry_2
Cl0 Sc0 2.507841 1_565
Cl0 Na3 2.797868 1_565
Cl0 Na5 2.809344 1_556
Cl0 Na0 2.822477 1_555
Cl1 Sc1 2.507841 1_665
Cl1 Na2 2.797868 1_665
Cl1 Na4 2.809344 1_655
Cl1 Na1 2.822477 1_555
Cl2 Sc0 2.507841 1_555
Cl2 Na1 2.797868 1_545
Cl2 Na5 2.809344 1_555
Cl2 Na2 2.822477 1_555
Cl3 Sc1 2.507841 1_556
Cl3 Na0 2.797868 1_445
Cl3 Na4 2.809344 1_555
Cl3 Na3 2.822477 1_555
Cl4 Sc0 2.500534 1_555
Cl4 Na4 2.751426 1_655
Cl4 Na2 2.850484 1_655
Cl4 Na1 3.035130 1_555
Cl5 Sc1 2.500534 1_656
Cl5 Na5 2.751426 1_556
Cl5 Na3 2.850484 1_555
Cl5 Na0 3.035130 1_555
Cl6 Sc0 2.500534 1_565
Cl6 Na4 2.751426 1_555
Cl6 Na0 2.850484 1_455
Cl6 Na3 3.035130 1_555
Cl7 Sc1 2.500534 1_565
Cl7 Na5 2.751426 1_555
Cl7 Na1 2.850484 1_555
Cl7 Na2 3.035130 1_555
Cl8 Sc0 2.482027 1_565
Cl8 Na4 2.703469 1_655
Cl8 Na3 2.792313 1_555
Cl8 Na0 3.145942 1_555
Cl9 Sc1 2.482027 1_665
Cl9 Na5 2.703469 1_555
Cl9 Na2 2.792313 1_655
Cl9 Na1 3.145942 1_555
Cl10 Sc0 2.482027 1_555
Cl10 Na4 2.703469 1_555
Cl10 Na1 2.792313 1_555
Cl10 Na2 3.145942 1_555
Cl11 Sc1 2.482027 1_556
Cl11 Na5 2.703469 1_556
Cl11 Na0 2.792313 1_455
Cl11 Na3 3.145942 1_555
