# generated using pymatgen
data_Rb7EuFe6(P4O17)2
_symmetry_space_group_name_H-M   'P 1'
_cell_length_a   9.43150200
_cell_length_b   10.04325882
_cell_length_c   10.14322826
_cell_angle_alpha   91.95611308
_cell_angle_beta   94.08771727
_cell_angle_gamma   116.31759900
_symmetry_Int_Tables_number   1
_chemical_formula_structural   Rb7EuFe6(P4O17)2
_chemical_formula_sum   'Rb7 Eu1 Fe6 P8 O34'
_cell_volume   856.69487608
_cell_formula_units_Z   1
loop_
 _symmetry_equiv_pos_site_id
 _symmetry_equiv_pos_as_xyz
  1  'x, y, z'
loop_
 _atom_site_type_symbol
 _atom_site_label
 _atom_site_symmetry_multiplicity
 _atom_site_fract_x
 _atom_site_fract_y
 _atom_site_fract_z
 _atom_site_occupancy
  Rb  Rb0  1  0.07267500  0.20906900  0.34232700  1
  Rb  Rb1  1  0.92732500  0.79093100  0.65767300  1
  Rb  Rb2  1  0.62550900  0.97537300  0.37461000  1
  Rb  Rb3  1  0.37449100  0.02462700  0.62539000  1
  Rb  Rb4  1  0.67660000  0.43916000  0.90434900  1
  Rb  Rb5  1  0.32340000  0.56084000  0.09565100  1
  Rb  Rb6  1  0.50000000  0.00000000  0.00000000  1
  Eu  Eu0  1  0.50000000  0.50000000  0.50000000  1
  Fe  Fe0  1  0.15610600  0.10791600  0.96605100  1
  Fe  Fe1  1  0.84389400  0.89208400  0.03394900  1
  Fe  Fe2  1  0.83467900  0.09451900  0.75421100  1
  Fe  Fe3  1  0.16532100  0.90548100  0.24578900  1
  Fe  Fe4  1  0.84354900  0.42335300  0.27723800  1
  Fe  Fe5  1  0.15645100  0.57664700  0.72276200  1
  P  P0  1  0.78770000  0.33254900  0.57275000  1
  P  P1  1  0.21230000  0.66745100  0.42725000  1
  P  P2  1  0.19373900  0.26481400  0.69147800  1
  P  P3  1  0.80626100  0.73518600  0.30852200  1
  P  P4  1  0.91075600  0.23161100  0.03834900  1
  P  P5  1  0.08924400  0.76838900  0.96165100  1
  P  P6  1  0.55854100  0.75621100  0.78332000  1
  P  P7  1  0.44145900  0.24378900  0.21668000  1
  O  O0  1  0.37396800  0.21945900  0.06815800  1
  O  O1  1  0.62603200  0.78054100  0.93184200  1
  O  O2  1  0.83646200  0.31067000  0.43227400  1
  O  O3  1  0.16353800  0.68933000  0.56772600  1
  O  O4  1  0.01564900  0.15716300  0.64382300  1
  O  O5  1  0.98435100  0.84283700  0.35617700  1
  O  O6  1  0.17974100  0.91496800  0.89269900  1
  O  O7  1  0.82025900  0.08503200  0.10730100  1
  O  O8  1  0.25833700  0.19689800  0.80117400  1
  O  O9  1  0.74166300  0.80310200  0.19882600  1
  O  O10  1  0.93265300  0.00588300  0.87652100  1
  O  O11  1  0.06734700  0.99411700  0.12347900  1
  O  O12  1  0.20994500  0.41646400  0.74789400  1
  O  O13  1  0.79005500  0.58353600  0.25210600  1
  O  O14  1  0.08714100  0.26769500  0.02772100  1
  O  O15  1  0.91285900  0.73230500  0.97227900  1
  O  O16  1  0.61689500  0.27294800  0.21728500  1
  O  O17  1  0.38310500  0.72705200  0.78271500  1
  O  O18  1  0.29037300  0.28558000  0.57140400  1
  O  O19  1  0.70962700  0.71442000  0.42859600  1
  O  O20  1  0.71737400  0.17567700  0.62896300  1
  O  O21  1  0.28262600  0.82432300  0.37103700  1
  O  O22  1  0.65938200  0.38763100  0.56102200  1
  O  O23  1  0.34061800  0.61236900  0.43897800  1
  O  O24  1  0.81833300  0.21957700  0.90003500  1
  O  O25  1  0.18166700  0.78042300  0.09996500  1
  O  O26  1  0.91104800  0.36509200  0.11923100  1
  O  O27  1  0.08895200  0.63490800  0.88076900  1
  O  O28  1  0.58045800  0.62978900  0.71216100  1
  O  O29  1  0.41954200  0.37021100  0.28783900  1
  O  O30  1  0.64605800  0.90351200  0.71152300  1
  O  O31  1  0.35394200  0.09648800  0.28847700  1
  O  O32  1  0.92993500  0.44410800  0.66540300  1
  O  O33  1  0.07006500  0.55589200  0.33459700  1
loop_
_geom_bond_atom_site_label_1
_geom_bond_atom_site_label_2
_geom_bond_distance
_geom_bond_site_symmetry_2
Eu0 O23 2.309903 1_555
Eu0 O22 2.309903 1_555
Eu0 O28 2.367417 1_555
Eu0 O29 2.367417 1_555
Eu0 O18 2.367773 1_555
Eu0 O19 2.367773 1_555
Fe0 O11 2.005918 1_546
Fe0 O10 2.016186 1_455
Fe0 O8 2.023133 1_555
Fe0 O0 2.031267 1_556
Fe0 O14 2.074709 1_556
Fe0 O6 2.160249 1_545
Fe1 O10 2.005918 1_564
Fe1 O11 2.016186 1_655
Fe1 O9 2.023133 1_555
Fe1 O1 2.031267 1_554
Fe1 O15 2.074709 1_554
Fe1 O7 2.160249 1_565
Fe2 O10 1.956212 1_555
Fe2 O30 1.959524 1_545
Fe2 O24 1.966334 1_555
Fe2 O4 1.982713 1_655
Fe2 O20 2.042618 1_555
Fe3 O11 1.956212 1_555
Fe3 O31 1.959524 1_565
Fe3 O25 1.966334 1_555
Fe3 O5 1.982713 1_455
Fe3 O21 2.042618 1_555
Fe4 O13 1.907092 1_555
Fe4 O26 1.930815 1_555
Fe4 O2 1.956423 1_555
Fe4 O33 1.980627 1_655
Fe4 O16 2.027322 1_555
Fe5 O12 1.907092 1_555
Fe5 O27 1.930815 1_555
Fe5 O3 1.956423 1_555
Fe5 O32 1.980627 1_455
Fe5 O17 2.027322 1_555
O0 P7 1.560337 1_555
O0 Rb6 3.014147 1_555
O0 Rb4 3.334422 1_554
O1 P6 1.560337 1_555
O1 Rb6 3.014147 1_566
O1 Rb5 3.334422 1_556
O2 P0 1.565800 1_555
O2 Rb0 3.013112 1_655
O2 Rb2 3.065837 1_545
O3 P1 1.565800 1_555
O3 Rb1 3.013112 1_455
O3 Rb3 3.065837 1_565
O4 P2 1.569129 1_555
O4 Rb0 3.163540 1_555
O4 Rb1 3.402598 1_445
O5 P3 1.569129 1_555
O5 Rb1 3.163540 1_555
O5 Rb0 3.402598 1_665
O6 P5 1.557592 1_555
O6 Rb6 2.866716 1_566
O6 Rb1 3.043189 1_455
O6 Rb3 3.325424 1_565
O7 P4 1.557592 1_555
O7 Rb6 2.866716 1_555
O7 Rb0 3.043189 1_655
O7 Rb2 3.325424 1_545
O8 P2 1.548593 1_555
O8 Rb3 3.020143 1_555
O9 P3 1.548593 1_555
O9 Rb2 3.020143 1_555
O10 Rb1 3.025128 1_545
O11 Rb0 3.025128 1_565
O12 P2 1.546657 1_555
O13 P3 1.546657 1_555
O14 P4 1.550517 1_455
O14 Rb5 2.816647 1_555
O14 Rb0 3.266138 1_555
O15 P5 1.550517 1_655
O15 Rb4 2.816647 1_555
O15 Rb1 3.266138 1_555
O16 P7 1.546725 1_555
O16 Rb6 3.185742 1_555
O16 Rb2 3.465167 1_545
O17 P6 1.546725 1_555
O17 Rb6 3.185742 1_566
O17 Rb3 3.465167 1_565
O18 P2 1.537718 1_555
O18 Rb0 2.829167 1_555
O18 Rb3 3.110894 1_555
O19 P3 1.537718 1_555
O19 Rb1 2.829167 1_555
O19 Rb2 3.110894 1_555
O20 P0 1.560742 1_555
O20 Rb3 2.896602 1_555
O20 Rb2 3.038970 1_545
O21 P1 1.560742 1_555
O21 Rb2 2.896602 1_555
O21 Rb3 3.038970 1_565
O22 P0 1.537028 1_555
O22 Rb3 3.558658 1_555
O23 P1 1.537028 1_555
O23 Rb2 3.558658 1_555
O24 P4 1.569514 1_556
O24 Rb4 3.044341 1_555
O24 Rb6 3.101832 1_556
O25 P5 1.569514 1_554
O25 Rb5 3.044341 1_555
O25 Rb6 3.101832 1_565
O26 P4 1.546467 1_555
O26 Rb0 3.430490 1_655
O27 P5 1.546467 1_555
O27 Rb1 3.430490 1_455
O28 P6 1.538582 1_555
O28 Rb1 3.041616 1_555
O28 Rb4 3.135277 1_555
O29 P7 1.538582 1_555
O29 Rb0 3.041616 1_555
O29 Rb5 3.135277 1_555
O30 P6 1.573766 1_555
O30 Rb3 3.364389 1_565
O30 Rb1 3.382007 1_555
O30 Rb2 3.526321 1_555
O31 P7 1.573766 1_555
O31 Rb2 3.364389 1_545
O31 Rb0 3.382007 1_555
O31 Rb3 3.526321 1_555
O32 P0 1.534212 1_555
O32 Rb1 3.497723 1_555
O33 P1 1.534212 1_555
O33 Rb0 3.497723 1_555
