# generated using pymatgen
data_Sr2(ZnAu2)3
_symmetry_space_group_name_H-M   'P 1'
_cell_length_a   8.90474052
_cell_length_b   8.90474052
_cell_length_c   8.90474021
_cell_angle_alpha   57.50251969
_cell_angle_beta   57.50251969
_cell_angle_gamma   57.50252199
_symmetry_Int_Tables_number   1
_chemical_formula_structural   Sr2(ZnAu2)3
_chemical_formula_sum   'Sr4 Zn6 Au12'
_cell_volume   470.60638904
_cell_formula_units_Z   2
loop_
 _symmetry_equiv_pos_site_id
 _symmetry_equiv_pos_as_xyz
  1  'x, y, z'
loop_
 _atom_site_type_symbol
 _atom_site_label
 _atom_site_symmetry_multiplicity
 _atom_site_fract_x
 _atom_site_fract_y
 _atom_site_fract_z
 _atom_site_occupancy
  Sr  Sr0  1  0.90759400  0.90759400  0.90759400  1
  Sr  Sr1  1  0.40759400  0.40759400  0.40759400  1
  Sr  Sr2  1  0.09240600  0.09240600  0.09240600  1
  Sr  Sr3  1  0.59240600  0.59240600  0.59240600  1
  Zn  Zn0  1  0.55730000  0.75000000  0.94270000  1
  Zn  Zn1  1  0.94270000  0.55730000  0.75000000  1
  Zn  Zn2  1  0.75000000  0.94270000  0.55730000  1
  Zn  Zn3  1  0.44270000  0.25000000  0.05730000  1
  Zn  Zn4  1  0.05730000  0.44270000  0.25000000  1
  Zn  Zn5  1  0.25000000  0.05730000  0.44270000  1
  Au  Au0  1  0.47928500  0.86335300  0.20705700  1
  Au  Au1  1  0.20705700  0.47928500  0.86335300  1
  Au  Au2  1  0.86335300  0.20705700  0.47928500  1
  Au  Au3  1  0.70705700  0.36335300  0.97928500  1
  Au  Au4  1  0.97928500  0.70705700  0.36335300  1
  Au  Au5  1  0.36335300  0.97928500  0.70705700  1
  Au  Au6  1  0.52071500  0.13664700  0.79294300  1
  Au  Au7  1  0.79294300  0.52071500  0.13664700  1
  Au  Au8  1  0.13664700  0.79294300  0.52071500  1
  Au  Au9  1  0.29294300  0.63664700  0.02071500  1
  Au  Au10  1  0.02071500  0.29294300  0.63664700  1
  Au  Au11  1  0.63664700  0.02071500  0.29294300  1
loop_
_geom_bond_atom_site_label_1
_geom_bond_atom_site_label_2
_geom_bond_distance
_geom_bond_site_symmetry_2
Au0 Zn5 2.656297 1_565
Au0 Zn0 2.661842 1_554
Au0 Zn3 2.840189 1_565
Au0 Au8 2.918960 1_555
Au0 Au7 2.918960 1_555
Au0 Au11 2.987472 1_565
Au0 Au6 3.084927 1_564
Au0 Sr3 3.288948 1_555
Au0 Sr2 3.326001 1_565
Au0 Sr0 3.371918 1_554
Au0 Sr1 3.720048 1_555
Au1 Zn3 2.656297 1_556
Au1 Zn1 2.661842 1_455
Au1 Zn4 2.840189 1_556
Au1 Au8 2.918960 1_555
Au1 Au6 2.918960 1_555
Au1 Au9 2.987472 1_556
Au1 Au7 3.084927 1_456
Au1 Sr3 3.288948 1_555
Au1 Sr2 3.326001 1_556
Au1 Sr0 3.371918 1_455
Au1 Sr1 3.720048 1_555
Au2 Zn4 2.656297 1_655
Au2 Zn2 2.661842 1_545
Au2 Zn5 2.840189 1_655
Au2 Au6 2.918960 1_555
Au2 Au7 2.918960 1_555
Au2 Au8 3.084927 1_645
Au2 Sr3 3.288948 1_555
Au2 Sr2 3.326001 1_655
Au2 Sr0 3.371918 1_545
Au2 Sr1 3.720048 1_555
Au3 Zn1 2.656297 1_555
Au3 Zn3 2.661842 1_556
Au3 Zn0 2.840189 1_555
Au3 Au7 2.987472 1_556
Au3 Au9 3.084927 1_556
Au3 Sr2 3.288948 1_656
Au3 Sr3 3.326001 1_555
Au3 Sr1 3.371918 1_556
Au3 Sr0 3.720048 1_545
Au4 Zn2 2.656297 1_555
Au4 Zn4 2.661842 1_655
Au4 Zn1 2.840189 1_555
Au4 Au9 2.918960 1_655
Au4 Au8 2.987472 1_655
Au4 Sr2 3.288948 1_665
Au4 Sr3 3.326001 1_555
Au4 Sr1 3.371918 1_655
Au4 Sr0 3.720048 1_554
Au5 Zn0 2.656297 1_555
Au5 Zn5 2.661842 1_565
Au5 Zn2 2.840189 1_555
Au5 Au9 2.918960 1_556
Au5 Au6 2.987472 1_565
Au5 Sr2 3.288948 1_566
Au5 Sr3 3.326001 1_555
Au5 Sr1 3.371918 1_565
Au5 Sr0 3.720048 1_455
Au6 Zn2 2.656297 1_545
Au6 Zn3 2.661842 1_556
Au6 Zn0 2.840189 1_545
Au6 Sr1 3.288948 1_555
Au6 Sr0 3.326001 1_545
Au6 Sr2 3.371918 1_556
Au6 Sr3 3.720048 1_555
Au7 Zn0 2.656297 1_554
Au7 Zn4 2.661842 1_655
Au7 Zn1 2.840189 1_554
Au7 Sr1 3.288948 1_555
Au7 Sr0 3.326001 1_554
Au7 Sr2 3.371918 1_655
Au7 Sr3 3.720048 1_555
Au8 Zn1 2.656297 1_455
Au8 Zn5 2.661842 1_565
Au8 Zn2 2.840189 1_455
Au8 Sr1 3.288948 1_555
Au8 Sr0 3.326001 1_455
Au8 Sr2 3.371918 1_565
Au8 Sr3 3.720048 1_555
Au9 Zn4 2.656297 1_555
Au9 Zn0 2.661842 1_554
Au9 Zn3 2.840189 1_555
Au9 Sr0 3.288948 1_454
Au9 Sr1 3.326001 1_555
Au9 Sr3 3.371918 1_554
Au9 Sr2 3.720048 1_565
Au10 Zn5 2.656297 1_555
Au10 Zn1 2.661842 1_455
Au10 Zn4 2.840189 1_555
Au10 Au3 2.918960 1_455
Au10 Au5 2.918960 1_545
Au10 Au2 2.987472 1_455
Au10 Au4 3.084927 1_455
Au10 Sr0 3.288948 1_445
Au10 Sr1 3.326001 1_555
Au10 Sr3 3.371918 1_455
Au10 Sr2 3.720048 1_556
Au11 Zn3 2.656297 1_555
Au11 Zn2 2.661842 1_545
Au11 Zn5 2.840189 1_555
Au11 Au3 2.918960 1_554
Au11 Au4 2.918960 1_545
Au11 Au5 3.084927 1_545
Au11 Sr0 3.288948 1_544
Au11 Sr1 3.326001 1_555
Au11 Sr3 3.371918 1_545
Au11 Sr2 3.720048 1_655
