# generated using pymatgen
data_Na3As(SO2)4
_symmetry_space_group_name_H-M   'P 1'
_cell_length_a   9.63330832
_cell_length_b   11.03184700
_cell_length_c   11.87078111
_cell_angle_alpha   90.00000000
_cell_angle_beta   98.93906340
_cell_angle_gamma   90.00000000
_symmetry_Int_Tables_number   1
_chemical_formula_structural   Na3As(SO2)4
_chemical_formula_sum   'Na12 As4 S16 O32'
_cell_volume   1246.22316241
_cell_formula_units_Z   4
loop_
 _symmetry_equiv_pos_site_id
 _symmetry_equiv_pos_as_xyz
  1  'x, y, z'
loop_
 _atom_site_type_symbol
 _atom_site_label
 _atom_site_symmetry_multiplicity
 _atom_site_fract_x
 _atom_site_fract_y
 _atom_site_fract_z
 _atom_site_occupancy
  Na  Na0  1  0.00000000  0.50000000  0.50000000  1
  Na  Na1  1  0.00000000  0.00000000  0.00000000  1
  Na  Na2  1  0.50000000  0.00000000  0.50000000  1
  Na  Na3  1  0.50000000  0.50000000  0.00000000  1
  Na  Na4  1  0.30912100  0.91787500  0.91840800  1
  Na  Na5  1  0.69087900  0.41787500  0.58159200  1
  Na  Na6  1  0.69087900  0.08212500  0.08159200  1
  Na  Na7  1  0.30912100  0.58212500  0.41840800  1
  Na  Na8  1  0.88541500  0.37095900  0.94053600  1
  Na  Na9  1  0.11458500  0.87095900  0.55946400  1
  Na  Na10  1  0.11458500  0.62904100  0.05946400  1
  Na  Na11  1  0.88541500  0.12904100  0.44053600  1
  As  As0  1  0.70574200  0.79431900  0.73515700  1
  As  As1  1  0.29425800  0.29431900  0.76484300  1
  As  As2  1  0.29425800  0.20568100  0.26484300  1
  As  As3  1  0.70574200  0.70568100  0.23515700  1
  S  S0  1  0.77266600  0.07805400  0.78090400  1
  S  S1  1  0.22733400  0.57805400  0.71909600  1
  S  S2  1  0.22733400  0.92194600  0.21909600  1
  S  S3  1  0.77266600  0.42194600  0.28090400  1
  S  S4  1  0.65244600  0.69258200  0.53719300  1
  S  S5  1  0.34755400  0.19258200  0.96280700  1
  S  S6  1  0.34755400  0.30741800  0.46280700  1
  S  S7  1  0.65244600  0.80741800  0.03719300  1
  S  S8  1  0.55659600  0.70235700  0.82684500  1
  S  S9  1  0.44340400  0.20235700  0.67315500  1
  S  S10  1  0.44340400  0.29764300  0.17315500  1
  S  S11  1  0.55659600  0.79764300  0.32684500  1
  S  S12  1  0.91449100  0.60854400  0.80748000  1
  S  S13  1  0.08550900  0.10854400  0.69252000  1
  S  S14  1  0.08550900  0.39145600  0.19252000  1
  S  S15  1  0.91449100  0.89145600  0.30748000  1
  O  O0  1  0.21834000  0.38013300  0.47146200  1
  O  O1  1  0.78166000  0.88013300  0.02853800  1
  O  O2  1  0.78166000  0.61986700  0.52853800  1
  O  O3  1  0.21834000  0.11986700  0.97146200  1
  O  O4  1  0.15274300  0.67296500  0.52083400  1
  O  O5  1  0.84725700  0.17296500  0.97916600  1
  O  O6  1  0.84725700  0.32703500  0.47916600  1
  O  O7  1  0.15274300  0.82703500  0.02083400  1
  O  O8  1  0.83720500  0.12911200  0.68069400  1
  O  O9  1  0.16279500  0.62911200  0.81930600  1
  O  O10  1  0.16279500  0.87088800  0.31930600  1
  O  O11  1  0.83720500  0.37088800  0.18069400  1
  O  O12  1  0.41251600  0.06607900  0.65101500  1
  O  O13  1  0.58748400  0.56607900  0.84898500  1
  O  O14  1  0.58748400  0.93392100  0.34898500  1
  O  O15  1  0.41251600  0.43392100  0.15101500  1
  O  O16  1  0.47078000  0.11245100  0.95535900  1
  O  O17  1  0.52922000  0.61245100  0.54464100  1
  O  O18  1  0.52922000  0.88754900  0.04464100  1
  O  O19  1  0.47078000  0.38754900  0.45535900  1
  O  O20  1  0.11180200  0.98824600  0.74977400  1
  O  O21  1  0.88819800  0.48824600  0.75022600  1
  O  O22  1  0.88819800  0.01175400  0.25022600  1
  O  O23  1  0.11180200  0.51175400  0.24977400  1
  O  O24  1  0.74966100  0.19034000  0.86640400  1
  O  O25  1  0.25033900  0.69034000  0.63359600  1
  O  O26  1  0.25033900  0.80966000  0.13359600  1
  O  O27  1  0.74966100  0.30966000  0.36640400  1
  O  O28  1  0.90699800  0.59722000  0.93171000  1
  O  O29  1  0.09300200  0.09722000  0.56829000  1
  O  O30  1  0.09300200  0.40278000  0.06829000  1
  O  O31  1  0.90699800  0.90278000  0.43171000  1
loop_
_geom_bond_atom_site_label_1
_geom_bond_atom_site_label_2
_geom_bond_distance
_geom_bond_site_symmetry_2
Na0 O6 2.398768 1_455
Na0 O4 2.398768 1_555
Na0 O2 2.551244 1_455
Na0 O0 2.551244 1_555
Na1 O5 2.398768 1_454
Na1 O7 2.398768 1_545
Na1 O1 2.551244 1_445
Na1 O3 2.551244 1_554
Na2 O12 2.219190 1_555
Na2 O14 2.219190 1_545
Na3 O13 2.219190 1_554
Na3 O15 2.219190 1_555
Na4 O7 2.306772 1_556
Na4 O18 2.421900 1_556
Na4 O3 2.509603 1_565
Na4 O16 2.648195 1_565
Na4 O20 2.653415 1_555
Na5 O6 2.306772 1_555
Na5 O19 2.421900 1_555
Na5 O2 2.509603 1_555
Na5 O17 2.648195 1_555
Na5 O21 2.653415 1_555
Na6 O5 2.306772 1_554
Na6 O16 2.421900 1_554
Na6 O1 2.509603 1_545
Na6 O18 2.648195 1_545
Na6 O22 2.653415 1_555
Na7 O4 2.306772 1_555
Na7 O17 2.421900 1_555
Na7 O0 2.509603 1_555
Na7 O19 2.648195 1_555
Na7 O23 2.653415 1_555
Na8 O5 2.273476 1_555
Na8 O30 2.340867 1_656
Na8 O24 2.469272 1_555
Na8 O28 2.508261 1_555
Na8 O21 2.607174 1_555
Na8 O11 2.958812 1_556
Na9 O4 2.273476 1_555
Na9 O31 2.340867 1_455
Na9 O25 2.469272 1_555
Na9 O29 2.508261 1_565
Na9 O20 2.607174 1_555
Na9 O10 2.958812 1_555
Na10 O7 2.273476 1_555
Na10 O28 2.340867 1_454
Na10 O26 2.469272 1_555
Na10 O30 2.508261 1_555
Na10 O23 2.607174 1_555
Na10 O9 2.958812 1_554
Na11 O6 2.273476 1_555
Na11 O29 2.340867 1_655
Na11 O27 2.469272 1_555
Na11 O31 2.508261 1_545
Na11 O22 2.607174 1_555
Na11 O8 2.958812 1_555
As0 S8 2.182693 1_555
As0 S4 2.582780 1_555
As0 S12 2.905968 1_555
As1 S9 2.182693 1_555
As1 S5 2.582780 1_555
As1 S13 2.905968 1_555
As2 S10 2.182693 1_555
As2 S6 2.582780 1_555
As2 S14 2.905968 1_555
As3 S11 2.182693 1_555
As3 S7 2.582780 1_555
As3 S15 2.905968 1_555
O0 S6 1.497737 1_555
O1 S7 1.497737 1_555
O2 S4 1.497737 1_555
O3 S5 1.497737 1_555
O8 S0 1.532555 1_555
O9 S1 1.532555 1_555
O10 S2 1.532555 1_555
O11 S3 1.532555 1_555
O12 S9 1.547099 1_555
O13 S8 1.547099 1_555
O14 S11 1.547099 1_555
O15 S10 1.547099 1_555
O16 S5 1.493660 1_555
O17 S4 1.493660 1_555
O18 S7 1.493660 1_555
O19 S6 1.493660 1_555
O20 S13 1.494590 1_565
O21 S12 1.494590 1_555
O22 S15 1.494590 1_545
O23 S14 1.494590 1_555
O24 O5 1.523596 1_555
O24 S0 1.638161 1_555
O25 O4 1.523596 1_555
O25 S1 1.638161 1_555
O26 O7 1.523596 1_555
O26 S2 1.638161 1_555
O27 O6 1.523596 1_555
O27 S3 1.638161 1_555
O28 S12 1.492869 1_555
O29 S13 1.492869 1_555
O30 S14 1.492869 1_555
O31 S15 1.492869 1_555
