# generated using pymatgen
data_Ni(O2F)2
_symmetry_space_group_name_H-M   'P 1'
_cell_length_a   5.37236500
_cell_length_b   6.32970300
_cell_length_c   11.43245300
_cell_angle_alpha   90.00000000
_cell_angle_beta   90.00000000
_cell_angle_gamma   90.00000000
_symmetry_Int_Tables_number   1
_chemical_formula_structural   Ni(O2F)2
_chemical_formula_sum   'Ni4 O16 F8'
_cell_volume   388.76599305
_cell_formula_units_Z   4
loop_
 _symmetry_equiv_pos_site_id
 _symmetry_equiv_pos_as_xyz
  1  'x, y, z'
loop_
 _atom_site_type_symbol
 _atom_site_label
 _atom_site_symmetry_multiplicity
 _atom_site_fract_x
 _atom_site_fract_y
 _atom_site_fract_z
 _atom_site_occupancy
  Ni  Ni0  1  0.30139900  0.20247300  0.12464100  1
  Ni  Ni1  1  0.69860100  0.70247300  0.87535900  1
  Ni  Ni2  1  0.69860100  0.20247300  0.62464100  1
  Ni  Ni3  1  0.30139900  0.70247300  0.37535900  1
  O  O0  1  0.07331700  0.92007600  0.15012200  1
  O  O1  1  0.92668300  0.42007600  0.84987800  1
  O  O2  1  0.92668300  0.92007600  0.65012200  1
  O  O3  1  0.07331700  0.42007600  0.34987800  1
  O  O4  1  0.59199000  0.45940900  0.10879100  1
  O  O5  1  0.40801000  0.95940900  0.89120900  1
  O  O6  1  0.40801000  0.45940900  0.60879100  1
  O  O7  1  0.59199000  0.95940900  0.39120900  1
  O  O8  1  0.61066500  0.13338100  0.43935400  1
  O  O9  1  0.38933500  0.63338100  0.56064600  1
  O  O10  1  0.38933500  0.13338100  0.93935400  1
  O  O11  1  0.61066500  0.63338100  0.06064600  1
  O  O12  1  0.18519300  0.26115600  0.31518000  1
  O  O13  1  0.81480700  0.76115600  0.68482000  1
  O  O14  1  0.81480700  0.26115600  0.81518000  1
  O  O15  1  0.18519300  0.76115600  0.18482000  1
  F  F0  1  0.56116700  0.03176700  0.16572800  1
  F  F1  1  0.43883300  0.53176700  0.83427200  1
  F  F2  1  0.43883300  0.03176700  0.66572800  1
  F  F3  1  0.56116700  0.53176700  0.33427200  1
  F  F4  1  0.04715600  0.37873800  0.08813200  1
  F  F5  1  0.95284400  0.87873800  0.91186800  1
  F  F6  1  0.95284400  0.37873800  0.58813200  1
  F  F7  1  0.04715600  0.87873800  0.41186800  1
loop_
_geom_bond_atom_site_label_1
_geom_bond_atom_site_label_2
_geom_bond_distance
_geom_bond_site_symmetry_2
Ni0 O0 2.186650 1_545
Ni0 O10 2.213950 1_554
Ni0 O4 2.261637 1_555
Ni0 O12 2.296266 1_555
Ni1 O1 2.186650 1_555
Ni1 O11 2.213950 1_556
Ni1 O5 2.261637 1_555
Ni1 O13 2.296266 1_555
Ni2 O2 2.186650 1_545
Ni2 O8 2.213950 1_555
Ni2 O6 2.261637 1_555
Ni2 O14 2.296266 1_555
Ni3 O3 2.186650 1_555
Ni3 O9 2.213950 1_555
Ni3 O7 2.261637 1_555
Ni3 O15 2.296266 1_555
O0 O15 1.237123 1_555
O1 O14 1.237123 1_555
O6 O9 1.235170 1_555
O7 O8 1.235170 1_565
O10 O5 1.235170 1_545
O11 O4 1.235170 1_555
O12 O3 1.237123 1_555
O13 O2 1.237123 1_555
F0 Ni0 1.826410 1_555
F1 Ni1 1.826410 1_555
F2 Ni2 1.826410 1_555
F3 Ni3 1.826410 1_555
F4 Ni0 1.812362 1_555
F5 Ni1 1.812362 1_555
F6 Ni2 1.812362 1_555
F7 Ni3 1.812362 1_555
