# generated using pymatgen
data_Li4MnCo3O8
_symmetry_space_group_name_H-M   'P 1'
_cell_length_a   2.93728100
_cell_length_b   5.18595846
_cell_length_c   9.84283783
_cell_angle_alpha   80.36199582
_cell_angle_beta   86.44864761
_cell_angle_gamma   88.63415193
_symmetry_Int_Tables_number   1
_chemical_formula_structural   Li4MnCo3O8
_chemical_formula_sum   'Li4 Mn1 Co3 O8'
_cell_volume   147.51825047
_cell_formula_units_Z   1
loop_
 _symmetry_equiv_pos_site_id
 _symmetry_equiv_pos_as_xyz
  1  'x, y, z'
loop_
 _atom_site_type_symbol
 _atom_site_label
 _atom_site_symmetry_multiplicity
 _atom_site_fract_x
 _atom_site_fract_y
 _atom_site_fract_z
 _atom_site_occupancy
  Li  Li0  1  0.00000000  0.00000000  0.00000000  1
  Li  Li1  1  0.50101800  0.75002400  0.25085800  1
  Li  Li2  1  0.00000000  0.50000000  0.50000000  1
  Li  Li3  1  0.49898200  0.24997600  0.74914200  1
  Mn  Mn0  1  0.50000000  0.00000000  0.50000000  1
  Co  Co0  1  0.00063800  0.75309000  0.75138900  1
  Co  Co1  1  0.50000000  0.50000000  0.00000000  1
  Co  Co2  1  0.99936200  0.24691000  0.24861100  1
  O  O0  1  0.50857300  0.86060200  0.86951100  1
  O  O1  1  0.01014800  0.60901700  0.11909700  1
  O  O2  1  0.51009300  0.35542400  0.37027700  1
  O  O3  1  0.03299100  0.11494800  0.62360500  1
  O  O4  1  0.49142700  0.13939800  0.13048900  1
  O  O5  1  0.96700900  0.88505200  0.37639500  1
  O  O6  1  0.48990700  0.64457600  0.62972300  1
  O  O7  1  0.98985200  0.39098300  0.88090300  1
loop_
_geom_bond_atom_site_label_1
_geom_bond_atom_site_label_2
_geom_bond_distance
_geom_bond_site_symmetry_2
Li0 O4 2.103680 1_455
Li0 O0 2.103680 1_544
Li0 O7 2.166073 1_454
Li0 O1 2.166073 1_545
Li0 O4 2.201395 1_555
Li0 O0 2.201395 1_444
Li1 O5 2.106079 1_555
Li1 O5 2.115352 1_455
Li1 O1 2.116184 1_655
Li1 O4 2.163863 1_565
Li1 O2 2.183083 1_555
Li1 O1 2.212469 1_555
Li2 O6 2.113608 1_455
Li2 O2 2.113608 1_555
Li2 O5 2.160770 1_455
Li2 O3 2.160770 1_555
Li2 O6 2.205175 1_555
Li2 O2 2.205175 1_455
Li3 O3 2.106079 1_555
Li3 O3 2.115352 1_655
Li3 O7 2.116184 1_455
Li3 O0 2.163863 1_545
Li3 O6 2.183083 1_555
Li3 O7 2.212469 1_555
Mn0 O3 1.927252 1_555
Mn0 O5 1.927252 1_545
Mn0 O6 2.058762 1_545
Mn0 O2 2.058762 1_555
Mn0 O3 2.193116 1_655
Mn0 O5 2.193116 1_445
Co0 O0 1.929270 1_455
Co0 O6 1.946791 1_555
Co0 O3 2.077475 1_565
Co0 O7 2.085362 1_455
Co0 O0 2.088098 1_555
Co0 O6 2.118899 1_455
Co1 O1 1.933449 1_555
Co1 O7 1.933449 1_554
Co1 O4 2.083603 1_555
Co1 O0 2.083603 1_554
Co1 O1 2.102158 1_655
Co1 O7 2.102158 1_454
Co2 O4 1.929270 1_655
Co2 O2 1.946791 1_555
Co2 O5 2.077475 1_545
Co2 O1 2.085362 1_655
Co2 O4 2.088098 1_555
Co2 O2 2.118899 1_655
