# generated using pymatgen
data_Ca7CN6
_symmetry_space_group_name_H-M   'P 1'
_cell_length_a   10.59999588
_cell_length_b   6.17271205
_cell_length_c   12.59382076
_cell_angle_alpha   90.00000000
_cell_angle_beta   90.00000000
_cell_angle_gamma   90.00000000
_symmetry_Int_Tables_number   1
_chemical_formula_structural   Ca7CN6
_chemical_formula_sum   'Ca28 C4 N24'
_cell_volume   824.02278882
_cell_formula_units_Z   4
loop_
 _symmetry_equiv_pos_site_id
 _symmetry_equiv_pos_as_xyz
  1  'x, y, z'
loop_
 _atom_site_type_symbol
 _atom_site_label
 _atom_site_symmetry_multiplicity
 _atom_site_fract_x
 _atom_site_fract_y
 _atom_site_fract_z
 _atom_site_occupancy
  Ca  Ca0  1  0.04339724  0.74221617  0.98558764  1
  Ca  Ca1  1  0.45660276  0.75778383  0.48558764  1
  Ca  Ca2  1  0.54339724  0.75778383  0.01441236  1
  Ca  Ca3  1  0.95660276  0.74221617  0.51441236  1
  Ca  Ca4  1  0.95660276  0.25778383  0.01441236  1
  Ca  Ca5  1  0.54339724  0.24221617  0.51441236  1
  Ca  Ca6  1  0.45660276  0.24221617  0.98558764  1
  Ca  Ca7  1  0.04339724  0.25778383  0.48558764  1
  Ca  Ca8  1  0.21407126  0.86191872  0.62376836  1
  Ca  Ca9  1  0.28592874  0.63808128  0.12376836  1
  Ca  Ca10  1  0.71407126  0.63808128  0.37623164  1
  Ca  Ca11  1  0.78592874  0.86191872  0.87623164  1
  Ca  Ca12  1  0.78592874  0.13808128  0.37623164  1
  Ca  Ca13  1  0.71407126  0.36191872  0.87623164  1
  Ca  Ca14  1  0.28592874  0.36191872  0.62376836  1
  Ca  Ca15  1  0.21407126  0.13808128  0.12376836  1
  Ca  Ca16  1  0.29563549  0.62583800  0.86713008  1
  Ca  Ca17  1  0.20436451  0.87416200  0.36713008  1
  Ca  Ca18  1  0.79563549  0.87416200  0.13286992  1
  Ca  Ca19  1  0.70436451  0.62583800  0.63286992  1
  Ca  Ca20  1  0.70436451  0.37416200  0.13286992  1
  Ca  Ca21  1  0.79563549  0.12583800  0.63286992  1
  Ca  Ca22  1  0.20436451  0.12583800  0.86713008  1
  Ca  Ca23  1  0.29563549  0.37416200  0.36713008  1
  Ca  Ca24  1  0.00000000  0.46145703  0.75000000  1
  Ca  Ca25  1  0.50000000  0.03854297  0.25000000  1
  Ca  Ca26  1  0.00000000  0.53854297  0.25000000  1
  Ca  Ca27  1  0.50000000  0.96145703  0.75000000  1
  C  C0  1  0.00000000  0.93958566  0.75000000  1
  C  C1  1  0.50000000  0.56041434  0.25000000  1
  C  C2  1  0.00000000  0.06041434  0.25000000  1
  C  C3  1  0.50000000  0.43958566  0.75000000  1
  N  N0  1  0.11228142  0.79011465  0.78921528  1
  N  N1  1  0.38771858  0.70988535  0.28921528  1
  N  N2  1  0.61228142  0.70988535  0.21078472  1
  N  N3  1  0.88771858  0.79011465  0.71078472  1
  N  N4  1  0.88771858  0.20988535  0.21078472  1
  N  N5  1  0.61228142  0.29011465  0.71078472  1
  N  N6  1  0.38771858  0.29011465  0.78921528  1
  N  N7  1  0.11228142  0.20988535  0.28921528  1
  N  N8  1  0.16695379  0.58844756  0.49919346  1
  N  N9  1  0.33304621  0.91155244  0.99919346  1
  N  N10  1  0.66695379  0.91155244  0.50080654  1
  N  N11  1  0.83304621  0.58844756  0.00080654  1
  N  N12  1  0.83304621  0.41155244  0.50080654  1
  N  N13  1  0.66695379  0.08844756  0.00080654  1
  N  N14  1  0.33304621  0.08844756  0.49919346  1
  N  N15  1  0.16695379  0.41155244  0.99919346  1
  N  N16  1  0.46407946  0.58322286  0.65572544  1
  N  N17  1  0.03592054  0.91677714  0.15572544  1
  N  N18  1  0.96407946  0.91677714  0.34427456  1
  N  N19  1  0.53592054  0.58322286  0.84427456  1
  N  N20  1  0.53592054  0.41677714  0.34427456  1
  N  N21  1  0.96407946  0.08322286  0.84427456  1
  N  N22  1  0.03592054  0.08322286  0.65572544  1
  N  N23  1  0.46407946  0.41677714  0.15572544  1
loop_
_geom_bond_atom_site_label_1
_geom_bond_atom_site_label_2
_geom_bond_distance
_geom_bond_site_symmetry_2
Ca0 N17 2.399670 1_556
Ca0 N11 2.430907 1_456
Ca0 N15 2.431199 1_555
Ca0 N0 2.595512 1_555
Ca0 N21 2.881819 1_465
Ca1 N16 2.399670 1_555
Ca1 N10 2.430907 1_555
Ca1 N14 2.431199 1_565
Ca1 N1 2.595512 1_555
Ca1 N20 2.881819 1_555
Ca2 N19 2.399670 1_554
Ca2 N9 2.430907 1_554
Ca2 N13 2.431199 1_565
Ca2 N2 2.595512 1_555
Ca2 N23 2.881819 1_555
Ca3 N18 2.399670 1_555
Ca3 N8 2.430907 1_655
Ca3 N12 2.431199 1_555
Ca3 N3 2.595512 1_555
Ca3 N22 2.881819 1_665
Ca4 N21 2.399670 1_554
Ca4 N15 2.430907 1_654
Ca4 N11 2.431199 1_555
Ca4 N4 2.595512 1_555
Ca4 N17 2.881819 1_645
Ca5 N20 2.399670 1_555
Ca5 N14 2.430907 1_555
Ca5 N10 2.431199 1_545
Ca5 N5 2.595512 1_555
Ca5 N16 2.881819 1_555
Ca6 N23 2.399670 1_556
Ca6 N13 2.430907 1_556
Ca6 N9 2.431199 1_545
Ca6 N6 2.595512 1_555
Ca6 N19 2.881819 1_555
Ca7 N22 2.399670 1_555
Ca7 N12 2.430907 1_455
Ca7 N8 2.431199 1_555
Ca7 N7 2.595512 1_555
Ca7 N18 2.881819 1_445
Ca8 N8 2.358040 1_555
Ca8 N22 2.365185 1_565
Ca8 N0 2.387898 1_555
Ca8 N14 2.450930 1_565
Ca9 N9 2.358040 1_554
Ca9 N23 2.365185 1_555
Ca9 N1 2.387898 1_555
Ca9 N15 2.450930 1_554
Ca10 N10 2.358040 1_555
Ca10 N20 2.365185 1_555
Ca10 N2 2.387898 1_555
Ca10 N12 2.450930 1_555
Ca11 N11 2.358040 1_556
Ca11 N21 2.365185 1_565
Ca11 N3 2.387898 1_555
Ca11 N13 2.450930 1_566
Ca12 N12 2.358040 1_555
Ca12 N18 2.365185 1_545
Ca12 N4 2.387898 1_555
Ca12 N10 2.450930 1_545
Ca13 N13 2.358040 1_556
Ca13 N19 2.365185 1_555
Ca13 N5 2.387898 1_555
Ca13 N11 2.450930 1_556
Ca14 N14 2.358040 1_555
Ca14 N16 2.365185 1_555
Ca14 N6 2.387898 1_555
Ca14 N8 2.450930 1_555
Ca15 N15 2.358040 1_554
Ca15 N17 2.365185 1_545
Ca15 N7 2.387898 1_555
Ca15 N9 2.450930 1_544
Ca16 N0 2.401770 1_555
Ca16 N9 2.456386 1_555
Ca16 N6 2.492007 1_555
Ca16 N15 2.525141 1_555
Ca16 N19 2.576696 1_555
Ca17 N1 2.401770 1_555
Ca17 N8 2.456386 1_555
Ca17 N7 2.492007 1_565
Ca17 N14 2.525141 1_565
Ca17 N18 2.576696 1_455
Ca18 N2 2.401770 1_555
Ca18 N11 2.456386 1_555
Ca18 N4 2.492007 1_565
Ca18 N13 2.525141 1_565
Ca18 N17 2.576696 1_655
Ca19 N3 2.401770 1_555
Ca19 N10 2.456386 1_555
Ca19 N5 2.492007 1_555
Ca19 N12 2.525141 1_555
Ca19 N16 2.576696 1_555
Ca20 N4 2.401770 1_555
Ca20 N13 2.456386 1_555
Ca20 N2 2.492007 1_555
Ca20 N11 2.525141 1_555
Ca20 N23 2.576696 1_555
Ca21 N5 2.401770 1_555
Ca21 N12 2.456386 1_555
Ca21 N3 2.492007 1_545
Ca21 N10 2.525141 1_545
Ca21 N22 2.576696 1_655
Ca22 N6 2.401770 1_555
Ca22 N15 2.456386 1_555
Ca22 N0 2.492007 1_545
Ca22 N9 2.525141 1_545
Ca22 N21 2.576696 1_455
Ca23 N7 2.401770 1_555
Ca23 N14 2.456386 1_555
Ca23 N1 2.492007 1_555
Ca23 N8 2.525141 1_555
Ca23 N20 2.576696 1_555
Ca24 N3 2.403352 1_455
Ca24 N0 2.403352 1_555
Ca24 N21 2.646804 1_455
Ca24 N22 2.646804 1_555
Ca25 N2 2.403352 1_545
Ca25 N1 2.403352 1_545
Ca25 N23 2.646804 1_555
Ca25 N20 2.646804 1_555
Ca26 N4 2.403352 1_455
Ca26 N7 2.403352 1_555
Ca26 N17 2.646804 1_555
Ca26 N18 2.646804 1_455
Ca27 N5 2.403352 1_565
Ca27 N6 2.403352 1_565
Ca27 N19 2.646804 1_555
Ca27 N16 2.646804 1_555
C0 N22 1.529940 1_565
C0 N21 1.529940 1_465
C0 N3 1.584837 1_455
C0 N0 1.584837 1_555
C1 N23 1.529940 1_555
C1 N20 1.529940 1_555
C1 N2 1.584837 1_555
C1 N1 1.584837 1_555
C2 N18 1.529940 1_445
C2 N17 1.529940 1_545
C2 N4 1.584837 1_455
C2 N7 1.584837 1_555
C3 N19 1.529940 1_555
C3 N16 1.529940 1_555
C3 N5 1.584837 1_555
C3 N6 1.584837 1_555
