# generated using pymatgen
data_Na3Ru
_symmetry_space_group_name_H-M   'P 1'
_cell_length_a   5.56783607
_cell_length_b   5.56783607
_cell_length_c   5.56783607
_cell_angle_alpha   132.57069622
_cell_angle_beta   132.57069622
_cell_angle_gamma   69.32915403
_symmetry_Int_Tables_number   1
_chemical_formula_structural   Na3Ru
_chemical_formula_sum   'Na3 Ru1'
_cell_volume   91.85400714
_cell_formula_units_Z   1
loop_
 _symmetry_equiv_pos_site_id
 _symmetry_equiv_pos_as_xyz
  1  'x, y, z'
loop_
 _atom_site_type_symbol
 _atom_site_label
 _atom_site_symmetry_multiplicity
 _atom_site_fract_x
 _atom_site_fract_y
 _atom_site_fract_z
 _atom_site_occupancy
  Na  Na0  1  0.75000000  0.25000000  0.50000000  1
  Na  Na1  1  0.25000000  0.75000000  0.50000000  1
  Na  Na2  1  0.50000000  0.50000000  0.00000000  1
  Ru  Ru0  1  0.00000000  0.00000000  0.00000000  1
loop_
_geom_bond_atom_site_label_1
_geom_bond_atom_site_label_2
_geom_bond_distance
_geom_bond_site_symmetry_2
Na0 Ru0 3.202717 1_555
Na0 Ru0 3.202717 1_655
Na0 Ru0 3.202717 1_666
Na0 Ru0 3.202717 1_656
Na1 Ru0 3.202717 1_555
Na1 Ru0 3.202717 1_566
Na1 Ru0 3.202717 1_666
Na1 Ru0 3.202717 1_565
Na2 Ru0 3.166824 1_554
Na2 Ru0 3.166824 1_565
Na2 Ru0 3.166824 1_655
Na2 Ru0 3.166824 1_666
