# generated using pymatgen
data_NaSi2O7
_symmetry_space_group_name_H-M   'P 1'
_cell_length_a   7.59786934
_cell_length_b   9.63803303
_cell_length_c   18.31565686
_cell_angle_alpha   90.00000000
_cell_angle_beta   90.00000000
_cell_angle_gamma   89.67128176
_symmetry_Int_Tables_number   1
_chemical_formula_structural   NaSi2O7
_chemical_formula_sum   'Na8 Si16 O56'
_cell_volume   1341.20629156
_cell_formula_units_Z   8
loop_
 _symmetry_equiv_pos_site_id
 _symmetry_equiv_pos_as_xyz
  1  'x, y, z'
loop_
 _atom_site_type_symbol
 _atom_site_label
 _atom_site_symmetry_multiplicity
 _atom_site_fract_x
 _atom_site_fract_y
 _atom_site_fract_z
 _atom_site_occupancy
  Na  Na0  1  0.50000000  0.50000000  -0.00000000  1
  Na  Na1  1  0.50000000  -0.00000000  0.50000000  1
  Na  Na2  1  -0.00000000  0.50000000  -0.00000000  1
  Na  Na3  1  -0.00000000  -0.00000000  0.50000000  1
  Na  Na4  1  0.35820839  0.40156643  0.52874030  1
  Na  Na5  1  0.64179161  0.09843357  0.02874030  1
  Na  Na6  1  0.64179161  0.59843357  0.47125970  1
  Na  Na7  1  0.35820839  0.90156643  0.97125970  1
  Si  Si0  1  0.73182651  0.29558502  0.70465380  1
  Si  Si1  1  0.26817349  0.20441498  0.20465380  1
  Si  Si2  1  0.26817349  0.70441498  0.29534620  1
  Si  Si3  1  0.73182651  0.79558502  0.79534620  1
  Si  Si4  1  0.31608443  0.30758155  0.70779625  1
  Si  Si5  1  0.68391557  0.19241845  0.20779625  1
  Si  Si6  1  0.68391557  0.69241845  0.29220375  1
  Si  Si7  1  0.31608443  0.80758155  0.79220375  1
  Si  Si8  1  0.21883997  0.10746221  0.83918972  1
  Si  Si9  1  0.78116003  0.39253779  0.33918972  1
  Si  Si10  1  0.78116003  0.89253779  0.16081028  1
  Si  Si11  1  0.21883997  0.60746221  0.66081028  1
  Si  Si12  1  0.80811388  0.10243792  0.83963251  1
  Si  Si13  1  0.19188612  0.39756208  0.33963251  1
  Si  Si14  1  0.19188612  0.89756208  0.16036749  1
  Si  Si15  1  0.80811388  0.60243792  0.66036749  1
  O  O0  1  0.78621733  0.45859876  0.70698397  1
  O  O1  1  0.21378267  0.04140124  0.20698397  1
  O  O2  1  0.21378267  0.54140124  0.29301603  1
  O  O3  1  0.78621733  0.95859876  0.79301603  1
  O  O4  1  0.76535740  0.23367468  0.78613089  1
  O  O5  1  0.23464260  0.26632532  0.28613089  1
  O  O6  1  0.23464260  0.76632532  0.21386911  1
  O  O7  1  0.76535740  0.73367468  0.71386911  1
  O  O8  1  0.51969796  0.28695678  0.68823692  1
  O  O9  1  0.48030204  0.21304322  0.18823692  1
  O  O10  1  0.48030204  0.71304322  0.31176308  1
  O  O11  1  0.51969796  0.78695678  0.81176308  1
  O  O12  1  0.24804129  0.46530283  0.70936526  1
  O  O13  1  0.75195871  0.03469717  0.20936526  1
  O  O14  1  0.75195871  0.53469717  0.29063474  1
  O  O15  1  0.24804129  0.96530283  0.79063474  1
  O  O16  1  0.24954778  0.23266952  0.78030266  1
  O  O17  1  0.75045222  0.26733048  0.28030266  1
  O  O18  1  0.75045222  0.76733048  0.21969734  1
  O  O19  1  0.24954778  0.73266952  0.71969734  1
  O  O20  1  0.01452195  0.11501394  0.86626621  1
  O  O21  1  0.98547805  0.38498606  0.36626621  1
  O  O22  1  0.98547805  0.88498606  0.13373379  1
  O  O23  1  0.01452195  0.61501394  0.63373379  1
  O  O24  1  0.84912853  0.20259168  0.64670479  1
  O  O25  1  0.15087147  0.29740832  0.14670479  1
  O  O26  1  0.15087147  0.79740832  0.35329521  1
  O  O27  1  0.84912853  0.70259168  0.85329521  1
  O  O28  1  0.22080094  0.24777328  0.62590423  1
  O  O29  1  0.77919906  0.25222672  0.12590423  1
  O  O30  1  0.77919906  0.75222672  0.37409577  1
  O  O31  1  0.22080094  0.74777328  0.87409577  1
  O  O32  1  0.34861821  0.10834791  0.90955331  1
  O  O33  1  0.65138179  0.39165209  0.40955331  1
  O  O34  1  0.65138179  0.89165209  0.09044669  1
  O  O35  1  0.34861821  0.60834791  0.59044669  1
  O  O36  1  0.68577477  0.10768281  0.91211872  1
  O  O37  1  0.31422523  0.39231719  0.41211872  1
  O  O38  1  0.31422523  0.89231719  0.08788128  1
  O  O39  1  0.68577477  0.60768281  0.58788128  1
  O  O40  1  0.25015289  0.61201483  0.88837299  1
  O  O41  1  0.74984711  0.88798517  0.38837299  1
  O  O42  1  0.74984711  0.38798517  0.11162701  1
  O  O43  1  0.25015289  0.11201483  0.61162701  1
  O  O44  1  0.74955496  0.56344950  0.93654526  1
  O  O45  1  0.25044504  0.93655050  0.43654526  1
  O  O46  1  0.25044504  0.43655050  0.06345474  1
  O  O47  1  0.74955496  0.06344950  0.56345474  1
  O  O48  1  0.86888573  0.25292846  0.53106797  1
  O  O49  1  0.13111427  0.24707154  0.03106797  1
  O  O50  1  0.13111427  0.74707154  0.46893203  1
  O  O51  1  0.86888573  0.75292846  0.96893203  1
  O  O52  1  0.60702751  0.23998913  0.53269482  1
  O  O53  1  0.39297249  0.26001087  0.03269482  1
  O  O54  1  0.39297249  0.76001087  0.46730518  1
  O  O55  1  0.60702751  0.73998913  0.96730518  1
loop_
_geom_bond_atom_site_label_1
_geom_bond_atom_site_label_2
_geom_bond_distance
_geom_bond_site_symmetry_2
Na0 O44 2.309363 1_554
Na0 O46 2.309363 1_555
Na0 O53 2.528145 1_555
Na0 O55 2.528145 1_554
Na0 O40 2.987584 1_554
Na0 O42 2.987584 1_555
Na1 O47 2.309363 1_555
Na1 O45 2.309363 1_545
Na1 O52 2.528145 1_555
Na1 O54 2.528145 1_545
Na1 O43 2.987584 1_555
Na1 O41 2.987584 1_545
Na2 O44 2.309154 1_454
Na2 O46 2.309154 1_555
Na2 O51 2.689027 1_454
Na2 O49 2.689027 1_555
Na2 O42 2.996923 1_455
Na2 O40 2.996923 1_554
Na3 O47 2.309154 1_455
Na3 O45 2.309154 1_545
Na3 O48 2.689027 1_455
Na3 O50 2.689027 1_545
Na3 O43 2.996923 1_555
Na3 O41 2.996923 1_445
Na4 O37 2.163900 1_555
Na4 O35 2.291920 1_555
Na4 O52 2.443477 1_555
Na4 O28 2.543984 1_555
Na5 O36 2.163900 1_554
Na5 O34 2.291920 1_545
Na5 O53 2.443477 1_555
Na5 O29 2.543984 1_555
Na6 O39 2.163900 1_555
Na6 O33 2.291920 1_555
Na6 O54 2.443477 1_555
Na6 O30 2.543984 1_555
Na7 O38 2.163900 1_556
Na7 O32 2.291920 1_565
Na7 O55 2.443477 1_555
Na7 O31 2.543984 1_555
O0 Si0 1.627423 1_555
O0 Si15 1.637443 1_555
O1 Si1 1.627423 1_555
O1 Si14 1.637443 1_545
O2 Si2 1.627423 1_555
O2 Si13 1.637443 1_555
O3 Si3 1.627423 1_555
O3 Si12 1.637443 1_565
O4 Si0 1.626709 1_555
O4 Si12 1.631238 1_555
O5 Si1 1.626709 1_555
O5 Si13 1.631238 1_555
O6 Si2 1.626709 1_555
O6 Si14 1.631238 1_555
O7 Si3 1.626709 1_555
O7 Si15 1.631238 1_555
O8 Si4 1.599257 1_555
O8 Si0 1.642109 1_555
O9 Si5 1.599257 1_555
O9 Si1 1.642109 1_555
O10 Si6 1.599257 1_555
O10 Si2 1.642109 1_555
O11 Si7 1.599257 1_555
O11 Si3 1.642109 1_555
O12 Si4 1.603076 1_555
O12 Si11 1.647391 1_555
O13 Si5 1.603076 1_555
O13 Si10 1.647391 1_545
O14 Si6 1.603076 1_555
O14 Si9 1.647391 1_555
O15 Si7 1.603076 1_555
O15 Si8 1.647391 1_565
O16 Si4 1.595192 1_555
O16 Si8 1.636215 1_555
O17 Si5 1.595192 1_555
O17 Si9 1.636215 1_555
O18 Si6 1.595192 1_555
O18 Si10 1.636215 1_555
O19 Si7 1.595192 1_555
O19 Si11 1.636215 1_555
O20 Si8 1.630899 1_555
O20 Si12 1.647507 1_455
O21 Si9 1.630899 1_555
O21 Si13 1.647507 1_655
O22 Si10 1.630899 1_555
O22 Si14 1.647507 1_655
O23 Si11 1.630899 1_555
O23 Si15 1.647507 1_455
O24 Si0 1.647717 1_555
O25 Si1 1.647717 1_555
O26 Si2 1.647717 1_555
O27 Si3 1.647717 1_555
O28 O43 1.351589 1_555
O28 Si4 1.763771 1_555
O29 O42 1.351589 1_555
O29 Si5 1.763771 1_555
O30 O41 1.351589 1_555
O30 Si6 1.763771 1_555
O31 O40 1.351589 1_555
O31 Si7 1.763771 1_555
O32 Si8 1.622754 1_555
O33 Si9 1.622754 1_555
O34 Si10 1.622754 1_555
O35 Si11 1.622754 1_555
O36 Si12 1.621304 1_555
O37 Si13 1.621304 1_555
O38 Si14 1.621304 1_555
O39 Si15 1.621304 1_555
