# generated using pymatgen
data_Ho2MgAg2(WO4)4
_symmetry_space_group_name_H-M   'P 1'
_cell_length_a   7.30008636
_cell_length_b   7.35978045
_cell_length_c   7.82017953
_cell_angle_alpha   96.54850543
_cell_angle_beta   114.14549966
_cell_angle_gamma   113.53119301
_symmetry_Int_Tables_number   1
_chemical_formula_structural   Ho2MgAg2(WO4)4
_chemical_formula_sum   'Ho2 Mg1 Ag2 W4 O16'
_cell_volume   331.63471991
_cell_formula_units_Z   1
loop_
 _symmetry_equiv_pos_site_id
 _symmetry_equiv_pos_as_xyz
  1  'x, y, z'
loop_
 _atom_site_type_symbol
 _atom_site_label
 _atom_site_symmetry_multiplicity
 _atom_site_fract_x
 _atom_site_fract_y
 _atom_site_fract_z
 _atom_site_occupancy
  Ho  Ho0  1  0.01346500  0.71938700  0.31478000  1
  Ho  Ho1  1  0.99733400  0.27373100  0.72126800  1
  Mg  Mg0  1  0.57338700  0.62147100  0.91033900  1
  Ag  Ag0  1  0.52763600  0.70290800  0.55557400  1
  Ag  Ag1  1  0.47681100  0.29432100  0.32921400  1
  W  W0  1  0.98352000  0.22889200  0.22587100  1
  W  W1  1  0.02494300  0.75955200  0.79081700  1
  W  W2  1  0.50540900  0.86355300  0.17307200  1
  W  W3  1  0.50451700  0.14491900  0.85073800  1
  O  O0  1  0.76853600  0.36040500  0.11827300  1
  O  O1  1  0.24204500  0.63299300  0.90202300  1
  O  O2  1  0.20256000  0.87593500  0.64520200  1
  O  O3  1  0.80235500  0.12354000  0.37900200  1
  O  O4  1  0.66527100  0.70006100  0.20083500  1
  O  O5  1  0.35151900  0.31687400  0.79387200  1
  O  O6  1  0.34254000  0.82219200  0.30482200  1
  O  O7  1  0.64581600  0.17276500  0.70384600  1
  O  O8  1  0.89469100  0.69081100  0.95444700  1
  O  O9  1  0.08124400  0.28949200  0.04753800  1
  O  O10  1  0.11231900  0.06197600  0.30780400  1
  O  O11  1  0.89062800  0.92691500  0.70446500  1
  O  O12  1  0.66268000  0.96807800  0.99610700  1
  O  O13  1  0.33457800  0.01652600  0.01656900  1
  O  O14  1  0.84659300  0.51035700  0.58000000  1
  O  O15  1  0.16997200  0.48484800  0.43780900  1
loop_
_geom_bond_atom_site_label_1
_geom_bond_atom_site_label_2
_geom_bond_distance
_geom_bond_site_symmetry_2
Ho0 O2 2.245594 1_555
Ho0 O6 2.250466 1_555
Ho0 O4 2.259343 1_455
Ho0 O10 2.343457 1_565
Ho0 O0 2.364905 1_455
Ho0 O15 2.502974 1_555
Ho0 O8 2.541017 1_454
Ho1 O5 2.282704 1_655
Ho1 O7 2.307368 1_555
Ho1 O3 2.316024 1_555
Ho1 O11 2.321931 1_545
Ho1 O1 2.343197 1_655
Ho1 O9 2.344332 1_656
Ho1 O14 2.537472 1_555
Mg0 O5 1.976495 1_555
Mg0 O4 2.022154 1_556
Mg0 O8 2.055032 1_555
Mg0 O12 2.303567 1_555
Mg0 O1 2.428680 1_555
Ag0 O15 2.142596 1_555
Ag0 O11 2.155262 1_555
Ag0 O6 2.369367 1_555
Ag1 O14 2.278526 1_555
Ag1 O10 2.443191 1_555
Ag1 O13 2.514707 1_555
O0 W3 2.027465 1_554
O0 W0 2.103861 1_555
O1 W2 2.075878 1_556
O1 W1 2.090839 1_555
O2 W3 2.062209 1_565
O2 W1 2.062817 1_555
O3 W2 2.020622 1_545
O3 W0 2.114931 1_555
O4 W2 1.957154 1_555
O5 W3 1.974217 1_555
O6 W2 1.830994 1_555
O7 W3 1.811028 1_555
O8 W1 1.885854 1_655
O9 W0 1.831527 1_455
O10 W0 1.847349 1_455
O11 W1 1.883361 1_655
O12 W0 2.139923 1_566
O12 W2 2.159287 1_556
O12 W3 2.186997 1_565
O13 W1 2.088802 1_544
O13 W2 2.123054 1_545
O13 W3 2.184795 1_554
O14 W1 1.850500 1_655
O15 W0 1.882320 1_455
