# generated using pymatgen
data_Mn5Fe5Si6
_symmetry_space_group_name_H-M   'P 1'
_cell_length_a   6.80543169
_cell_length_b   6.80543169
_cell_length_c   4.64199700
_cell_angle_alpha   90.00000000
_cell_angle_beta   90.00000000
_cell_angle_gamma   120.77766320
_symmetry_Int_Tables_number   1
_chemical_formula_structural   Mn5Fe5Si6
_chemical_formula_sum   'Mn5 Fe5 Si6'
_cell_volume   184.70982061
_cell_formula_units_Z   1
loop_
 _symmetry_equiv_pos_site_id
 _symmetry_equiv_pos_as_xyz
  1  'x, y, z'
loop_
 _atom_site_type_symbol
 _atom_site_label
 _atom_site_symmetry_multiplicity
 _atom_site_fract_x
 _atom_site_fract_y
 _atom_site_fract_z
 _atom_site_occupancy
  Mn  Mn0  1  0.23253600  0.23253600  0.00000000  1
  Mn  Mn1  1  0.66183600  0.33337100  0.25008700  1
  Mn  Mn2  1  0.33337100  0.66183600  0.25008700  1
  Mn  Mn3  1  0.33337100  0.66183600  0.74991300  1
  Mn  Mn4  1  0.66183600  0.33337100  0.74991300  1
  Fe  Fe0  1  0.24872100  0.99938600  0.50000000  1
  Fe  Fe1  1  0.99938600  0.24872100  0.50000000  1
  Fe  Fe2  1  0.76114800  0.76114800  0.50000000  1
  Fe  Fe3  1  0.75649500  0.00459300  0.00000000  1
  Fe  Fe4  1  0.00459300  0.75649500  0.00000000  1
  Si  Si0  1  0.60913600  0.00021400  0.50000000  1
  Si  Si1  1  0.00021400  0.60913600  0.50000000  1
  Si  Si2  1  0.39134200  0.39134200  0.50000000  1
  Si  Si3  1  0.39707900  0.99404600  0.00000000  1
  Si  Si4  1  0.99404600  0.39707900  0.00000000  1
  Si  Si5  1  0.61482900  0.61482900  0.00000000  1
loop_
_geom_bond_atom_site_label_1
_geom_bond_atom_site_label_2
_geom_bond_distance
_geom_bond_site_symmetry_2
Mn0 Si4 2.397528 1_455
Mn0 Si3 2.397528 1_545
Mn0 Si2 2.554935 1_555
Mn0 Si2 2.554935 1_554
Mn0 Si5 2.571028 1_555
Mn1 Si2 2.373470 1_555
Mn1 Si4 2.375684 1_555
Mn1 Si3 2.380876 1_545
Mn1 Si5 2.397094 1_555
Mn1 Si1 2.397472 1_655
Mn1 Si0 2.404746 1_555
Mn2 Si2 2.373470 1_555
Mn2 Si3 2.375684 1_555
Mn2 Si4 2.380876 1_455
Mn2 Si5 2.397094 1_555
Mn2 Si0 2.397472 1_565
Mn2 Si1 2.404746 1_555
Mn3 Si2 2.373470 1_555
Mn3 Si3 2.375684 1_556
Mn3 Si4 2.380876 1_456
Mn3 Si5 2.397094 1_556
Mn3 Si0 2.397472 1_565
Mn3 Si1 2.404746 1_555
Mn4 Si2 2.373470 1_555
Mn4 Si4 2.375684 1_556
Mn4 Si3 2.380876 1_546
Mn4 Si5 2.397094 1_556
Mn4 Si1 2.397472 1_655
Mn4 Si0 2.404746 1_555
Fe0 Si1 2.305827 1_555
Fe0 Si2 2.325428 1_565
Fe0 Si0 2.449901 1_565
Fe0 Si3 2.538755 1_556
Fe0 Si3 2.538755 1_555
Fe0 Mn1 2.806477 1_565
Fe0 Mn4 2.806477 1_565
Fe0 Fe4 2.840607 1_556
Fe0 Fe4 2.840607 1_555
Fe0 Mn0 2.845277 1_565
Fe0 Mn0 2.845277 1_566
Fe0 Fe2 2.851845 1_455
Fe0 Mn2 2.882540 1_555
Fe0 Mn3 2.882540 1_555
Fe0 Fe1 2.950447 1_465
Fe1 Si0 2.305827 1_555
Fe1 Si2 2.325428 1_655
Fe1 Si1 2.449901 1_655
Fe1 Si4 2.538755 1_556
Fe1 Si4 2.538755 1_555
Fe1 Mn3 2.806477 1_655
Fe1 Mn2 2.806477 1_655
Fe1 Fe3 2.840607 1_556
Fe1 Fe3 2.840607 1_555
Fe1 Mn0 2.845277 1_655
Fe1 Mn0 2.845277 1_656
Fe1 Fe2 2.851845 1_545
Fe1 Mn4 2.882540 1_555
Fe1 Mn1 2.882540 1_555
Fe2 Si1 2.332308 1_655
Fe2 Si0 2.332308 1_565
Fe2 Si2 2.487050 1_555
Fe2 Si5 2.520984 1_555
Fe2 Si5 2.520984 1_556
Fe3 Si4 2.308407 1_555
Fe3 Si5 2.312605 1_545
Fe3 Si3 2.410041 1_545
Fe3 Si0 2.522504 1_554
Fe3 Si0 2.522504 1_555
Fe3 Mn0 2.785426 1_655
Fe4 Si3 2.308407 1_555
Fe4 Si5 2.312605 1_455
Fe4 Si4 2.410041 1_455
Fe4 Si1 2.522504 1_554
Fe4 Si1 2.522504 1_555
Fe4 Mn0 2.785426 1_565
