# generated using pymatgen
data_Pr(MnSn)6
_symmetry_space_group_name_H-M   'P 1'
_cell_length_a   15.25962563
_cell_length_b   15.25962563
_cell_length_c   15.25962563
_cell_angle_alpha   159.18285619
_cell_angle_beta   145.06622065
_cell_angle_gamma   41.01534915
_symmetry_Int_Tables_number   1
_chemical_formula_structural   Pr(MnSn)6
_chemical_formula_sum   'Pr3 Mn18 Sn18'
_cell_volume   721.90434246
_cell_formula_units_Z   3
loop_
 _symmetry_equiv_pos_site_id
 _symmetry_equiv_pos_as_xyz
  1  'x, y, z'
loop_
 _atom_site_type_symbol
 _atom_site_label
 _atom_site_symmetry_multiplicity
 _atom_site_fract_x
 _atom_site_fract_y
 _atom_site_fract_z
 _atom_site_occupancy
  Pr  Pr0  1  0.16912600  0.66912600  0.50000000  1
  Pr  Pr1  1  0.83087400  0.33087400  0.50000000  1
  Pr  Pr2  1  0.00000000  0.00000000  0.00000000  1
  Mn  Mn0  1  0.75122400  0.50000000  0.25122400  1
  Mn  Mn1  1  0.24877600  0.50000000  0.74877600  1
  Mn  Mn2  1  0.00000000  0.50000000  0.00000000  1
  Mn  Mn3  1  0.50000000  0.50000000  0.50000000  1
  Mn  Mn4  1  0.50000000  0.00000000  0.00000000  1
  Mn  Mn5  1  0.00000000  0.00000000  0.50000000  1
  Mn  Mn6  1  0.08356100  0.83355200  0.25000900  1
  Mn  Mn7  1  0.41645700  0.16644800  0.25000900  1
  Mn  Mn8  1  0.58354300  0.83355200  0.74999100  1
  Mn  Mn9  1  0.91643900  0.16644800  0.74999100  1
  Mn  Mn10  1  0.83456700  0.33338000  0.00109000  1
  Mn  Mn11  1  0.66771100  0.66662000  0.50118700  1
  Mn  Mn12  1  0.33228900  0.83347600  0.99891000  1
  Mn  Mn13  1  0.16543300  0.16652400  0.49881300  1
  Mn  Mn14  1  0.16543300  0.66662000  0.99891000  1
  Mn  Mn15  1  0.33228900  0.33338000  0.49881300  1
  Mn  Mn16  1  0.66771100  0.16652400  0.00109000  1
  Mn  Mn17  1  0.83456700  0.83347600  0.50118700  1
  Sn  Sn0  1  0.05628200  0.55628200  0.50000000  1
  Sn  Sn1  1  0.94371800  0.44371800  0.50000000  1
  Sn  Sn2  1  0.55542900  0.55542900  0.00000000  1
  Sn  Sn3  1  0.44457100  0.44457100  0.00000000  1
  Sn  Sn4  1  0.11219100  0.11219100  0.00000000  1
  Sn  Sn5  1  0.88780900  0.88780900  0.00000000  1
  Sn  Sn6  1  0.60997700  0.10997700  0.50000000  1
  Sn  Sn7  1  0.39002300  0.89002300  0.50000000  1
  Sn  Sn8  1  0.22447500  0.22447500  0.00000000  1
  Sn  Sn9  1  0.77552500  0.77552500  0.00000000  1
  Sn  Sn10  1  0.71901900  0.21901900  0.50000000  1
  Sn  Sn11  1  0.28098100  0.78098100  0.50000000  1
  Sn  Sn12  1  0.66464800  0.00000000  0.66464800  1
  Sn  Sn13  1  0.33535200  0.00000000  0.33535200  1
  Sn  Sn14  1  0.83044300  0.66612500  0.16431800  1
  Sn  Sn15  1  0.49819300  0.33387500  0.16431800  1
  Sn  Sn16  1  0.50180700  0.66612500  0.83568200  1
  Sn  Sn17  1  0.16955700  0.33387500  0.83568200  1
loop_
_geom_bond_atom_site_label_1
_geom_bond_atom_site_label_2
_geom_bond_distance
_geom_bond_site_symmetry_2
Pr0 Sn16 3.076209 1_555
Pr0 Sn14 3.076209 1_455
Pr0 Sn8 3.178635 1_555
Pr0 Sn8 3.178635 1_566
Pr0 Sn11 3.197387 1_555
Pr0 Sn4 3.201442 1_555
Pr0 Sn4 3.201442 1_566
Pr0 Sn0 3.225657 1_555
Pr1 Sn17 3.076209 1_655
Pr1 Sn15 3.076209 1_555
Pr1 Sn9 3.178635 1_545
Pr1 Sn9 3.178635 1_556
Pr1 Sn10 3.197387 1_555
Pr1 Sn5 3.201442 1_556
Pr1 Sn5 3.201442 1_545
Pr1 Sn1 3.225657 1_555
Pr2 Sn13 3.071990 1_555
Pr2 Sn12 3.071990 1_454
Pr2 Sn0 3.191993 1_555
Pr2 Sn0 3.191993 1_544
Pr2 Sn1 3.191993 1_444
Pr2 Sn1 3.191993 1_455
Pr2 Sn4 3.206991 1_555
Pr2 Sn5 3.206991 1_445
Mn0 Mn16 2.754642 1_555
Mn0 Mn11 2.754653 1_555
Mn0 Mn17 2.754653 1_555
Mn0 Mn10 2.754667 1_555
Mn0 Sn0 2.789580 1_655
Mn0 Sn1 2.789580 1_555
Mn0 Sn2 2.794031 1_555
Mn0 Sn3 2.794031 1_555
Mn0 Sn12 2.868706 1_554
Mn0 Sn12 2.868706 1_565
Mn1 Mn12 2.754642 1_555
Mn1 Mn13 2.754653 1_555
Mn1 Mn15 2.754653 1_555
Mn1 Mn14 2.754667 1_555
Mn1 Sn0 2.789580 1_555
Mn1 Sn1 2.789580 1_455
Mn1 Sn2 2.794031 1_556
Mn1 Sn3 2.794031 1_556
Mn1 Sn13 2.868706 1_566
Mn1 Sn13 2.868706 1_555
Mn2 Mn5 2.756900 1_565
Mn2 Mn5 2.756900 1_554
Mn2 Mn6 2.757590 1_555
Mn2 Mn9 2.757590 1_454
Mn2 Sn9 2.770768 1_455
Mn2 Sn8 2.770768 1_555
Mn2 Sn11 2.815860 1_555
Mn2 Sn10 2.815860 1_454
Mn2 Sn17 2.874812 1_554
Mn2 Sn14 2.874812 1_455
Mn3 Mn4 2.756900 1_566
Mn3 Mn4 2.756900 1_555
Mn3 Mn8 2.757590 1_555
Mn3 Mn7 2.757590 1_555
Mn3 Sn9 2.770768 1_556
Mn3 Sn8 2.770768 1_555
Mn3 Sn11 2.815860 1_555
Mn3 Sn10 2.815860 1_555
Mn3 Sn16 2.874812 1_555
Mn3 Sn15 2.874812 1_555
Mn4 Mn8 2.757590 1_544
Mn4 Mn7 2.757590 1_555
Mn4 Sn9 2.770768 1_545
Mn4 Sn8 2.770768 1_555
Mn4 Sn11 2.815860 1_544
Mn4 Sn10 2.815860 1_555
Mn4 Sn16 2.874812 1_544
Mn4 Sn15 2.874812 1_555
Mn5 Mn6 2.757590 1_545
Mn5 Mn9 2.757590 1_455
Mn5 Sn9 2.770768 1_445
Mn5 Sn8 2.770768 1_556
Mn5 Sn11 2.815860 1_545
Mn5 Sn10 2.815860 1_455
Mn5 Sn17 2.874812 1_555
Mn5 Sn14 2.874812 1_445
Mn6 Sn11 2.739076 1_555
Mn6 Sn5 2.765947 1_455
Mn6 Sn7 2.801789 1_555
Mn6 Sn9 2.827783 1_455
Mn6 Sn17 2.866445 1_554
Mn6 Sn17 2.866445 1_565
Mn7 Sn10 2.739076 1_555
Mn7 Sn4 2.765947 1_555
Mn7 Sn6 2.801789 1_555
Mn7 Sn8 2.827783 1_555
Mn7 Sn16 2.866445 1_555
Mn7 Sn16 2.866445 1_544
Mn8 Sn11 2.739076 1_555
Mn8 Sn5 2.765947 1_556
Mn8 Sn7 2.801789 1_555
Mn8 Sn9 2.827783 1_556
Mn8 Sn15 2.866445 1_566
Mn8 Sn15 2.866445 1_555
Mn9 Sn10 2.739076 1_555
Mn9 Sn4 2.765947 1_656
Mn9 Sn6 2.801789 1_555
Mn9 Sn8 2.827783 1_656
Mn9 Sn14 2.866445 1_545
Mn9 Sn14 2.866445 1_556
Mn10 Mn9 2.744303 1_554
Mn10 Mn17 2.756368 1_544
Mn10 Mn17 2.757432 1_555
Mn10 Sn0 2.774891 1_655
Mn10 Sn6 2.787086 1_554
Mn10 Sn4 2.787897 1_655
Mn10 Sn2 2.798927 1_555
Mn10 Sn14 2.849800 1_555
Mn10 Sn12 2.866086 1_554
Mn11 Mn8 2.744317 1_555
Mn11 Mn16 2.756368 1_566
Mn11 Mn16 2.757432 1_555
Mn11 Sn1 2.774882 1_555
Mn11 Sn7 2.787095 1_555
Mn11 Sn5 2.787899 1_556
Mn11 Sn3 2.798926 1_555
Mn11 Sn15 2.849812 1_555
Mn11 Sn12 2.866077 1_565
Mn12 Mn7 2.744328 1_566
Mn12 Mn15 2.756368 1_566
Mn12 Mn15 2.757432 1_555
Mn12 Sn0 2.774883 1_555
Mn12 Sn6 2.787093 1_566
Mn12 Sn4 2.787906 1_566
Mn12 Sn2 2.798919 1_556
Mn12 Sn16 2.849824 1_555
Mn12 Sn13 2.866062 1_566
Mn13 Mn6 2.744317 1_545
Mn13 Mn14 2.756368 1_544
Mn13 Mn14 2.757432 1_555
Mn13 Sn1 2.774882 1_455
Mn13 Sn7 2.787095 1_545
Mn13 Sn5 2.787899 1_445
Mn13 Sn3 2.798926 1_556
Mn13 Sn17 2.849812 1_555
Mn13 Sn13 2.866077 1_555
Mn14 Mn6 2.744303 1_556
Mn14 Sn1 2.774891 1_455
Mn14 Sn7 2.787086 1_556
Mn14 Sn5 2.787897 1_456
Mn14 Sn3 2.798927 1_556
Mn14 Sn17 2.849800 1_555
Mn14 Sn13 2.866086 1_566
Mn15 Mn7 2.744317 1_555
Mn15 Sn0 2.774882 1_555
Mn15 Sn6 2.787095 1_555
Mn15 Sn4 2.787899 1_555
Mn15 Sn2 2.798926 1_556
Mn15 Sn16 2.849812 1_555
Mn15 Sn13 2.866077 1_555
Mn16 Mn8 2.744328 1_544
Mn16 Sn1 2.774883 1_555
Mn16 Sn7 2.787093 1_544
Mn16 Sn5 2.787906 1_545
Mn16 Sn3 2.798919 1_555
Mn16 Sn15 2.849824 1_555
Mn16 Sn12 2.866062 1_554
Mn17 Mn9 2.744317 1_565
Mn17 Sn0 2.774882 1_655
Mn17 Sn6 2.787095 1_565
Mn17 Sn4 2.787899 1_666
Mn17 Sn2 2.798926 1_555
Mn17 Sn14 2.849812 1_555
Mn17 Sn12 2.866077 1_565
Sn0 Sn4 3.186633 1_555
Sn0 Sn4 3.186633 1_566
Sn0 Sn1 3.217653 1_455
Sn1 Sn5 3.186633 1_556
Sn1 Sn5 3.186633 1_545
Sn2 Sn6 3.167300 1_565
Sn2 Sn6 3.167300 1_554
Sn2 Sn3 3.168887 1_555
Sn3 Sn7 3.167300 1_555
Sn3 Sn7 3.167300 1_544
Sn4 Sn8 3.209650 1_555
Sn5 Sn9 3.209650 1_555
Sn10 Sn6 3.116977 1_555
Sn10 Sn9 3.195225 1_545
Sn10 Sn9 3.195225 1_556
Sn11 Sn7 3.116977 1_555
Sn11 Sn8 3.195225 1_555
Sn11 Sn8 3.195225 1_566
Sn12 Sn13 3.016514 1_555
Sn14 Sn16 3.010468 1_554
Sn15 Sn17 3.010468 1_554
