# generated using pymatgen
data_Er2CdGe2
_symmetry_space_group_name_H-M   'P 1'
_cell_length_a   7.23069281
_cell_length_b   7.23069067
_cell_length_c   4.12633810
_cell_angle_alpha   90.00000000
_cell_angle_beta   90.00000000
_cell_angle_gamma   90.00000000
_symmetry_Int_Tables_number   1
_chemical_formula_structural   Er2CdGe2
_chemical_formula_sum   'Er4 Cd2 Ge4'
_cell_volume   215.73693479
_cell_formula_units_Z   2
loop_
 _symmetry_equiv_pos_site_id
 _symmetry_equiv_pos_as_xyz
  1  'x, y, z'
loop_
 _atom_site_type_symbol
 _atom_site_label
 _atom_site_symmetry_multiplicity
 _atom_site_fract_x
 _atom_site_fract_y
 _atom_site_fract_z
 _atom_site_occupancy
  Er  Er0  1  0.67837744  0.17837719  0.50000000  1
  Er  Er1  1  0.32162313  0.82162285  0.50000000  1
  Er  Er2  1  0.17837744  0.32162281  0.50000000  1
  Er  Er3  1  0.82162313  0.67837715  0.50000000  1
  Cd  Cd0  1  0.49999961  0.50000274  0.00000000  1
  Cd  Cd1  1  -0.00000039  0.99999726  0.00000000  1
  Ge  Ge0  1  0.12175949  0.62175972  -0.00000000  1
  Ge  Ge1  1  0.87824034  0.37824077  -0.00000000  1
  Ge  Ge2  1  0.62175949  0.87824028  0.00000000  1
  Ge  Ge3  1  0.37824034  0.12175923  0.00000000  1
loop_
_geom_bond_atom_site_label_1
_geom_bond_atom_site_label_2
_geom_bond_distance
_geom_bond_site_symmetry_2
Er0 Ge1 2.904063 1_555
Er0 Ge1 2.904063 1_556
Er0 Ge2 3.022254 1_546
Er0 Ge2 3.022254 1_545
Er0 Ge3 3.022256 1_555
Er0 Ge3 3.022256 1_556
Er1 Ge0 2.904064 1_555
Er1 Ge0 2.904064 1_556
Er1 Ge3 3.022251 1_566
Er1 Ge3 3.022251 1_565
Er1 Ge2 3.022251 1_555
Er1 Ge2 3.022251 1_556
Er2 Ge3 2.904063 1_556
Er2 Ge3 2.904063 1_555
Er2 Ge0 3.022254 1_555
Er2 Ge0 3.022254 1_556
Er2 Ge1 3.022256 1_456
Er2 Ge1 3.022256 1_455
Er3 Ge2 2.904064 1_555
Er3 Ge2 2.904064 1_556
Er3 Ge1 3.022251 1_555
Er3 Ge1 3.022251 1_556
Er3 Ge0 3.022251 1_656
Er3 Ge0 3.022251 1_655
Cd0 Ge2 2.873134 1_555
Cd0 Ge0 2.873146 1_555
Cd0 Ge1 2.873161 1_555
Cd0 Ge3 2.873174 1_555
Cd0 Er1 3.365758 1_555
Cd0 Er1 3.365758 1_554
Cd0 Er3 3.365770 1_554
Cd0 Er3 3.365770 1_555
Cd0 Er2 3.365778 1_554
Cd0 Er2 3.365778 1_555
Cd0 Er0 3.365789 1_555
Cd0 Er0 3.365789 1_554
Cd1 Ge0 2.873134 1_555
Cd1 Ge2 2.873146 1_455
Cd1 Ge3 2.873161 1_565
Cd1 Ge1 2.873174 1_465
Cd1 Er3 3.365758 1_455
Cd1 Er3 3.365758 1_454
Cd1 Er1 3.365770 1_555
Cd1 Er1 3.365770 1_554
Cd1 Er0 3.365778 1_465
Cd1 Er0 3.365778 1_464
Cd1 Er2 3.365789 1_565
Cd1 Er2 3.365789 1_564
Ge0 Ge1 2.490163 1_455
Ge2 Ge3 2.490163 1_565
