# generated using pymatgen
data_La2Fe4Sb5
_symmetry_space_group_name_H-M   'P 1'
_cell_length_a   13.30157131
_cell_length_b   13.30157131
_cell_length_c   4.32593304
_cell_angle_alpha   80.77585555
_cell_angle_beta   80.77585555
_cell_angle_gamma   19.50997808
_symmetry_Int_Tables_number   1
_chemical_formula_structural   La2Fe4Sb5
_chemical_formula_sum   'La2 Fe4 Sb5'
_cell_volume   252.21595616
_cell_formula_units_Z   1
loop_
 _symmetry_equiv_pos_site_id
 _symmetry_equiv_pos_as_xyz
  1  'x, y, z'
loop_
 _atom_site_type_symbol
 _atom_site_label
 _atom_site_symmetry_multiplicity
 _atom_site_fract_x
 _atom_site_fract_y
 _atom_site_fract_z
 _atom_site_occupancy
  La  La0  1  0.34913300  0.34913300  0.64514100  1
  La  La1  1  0.64806600  0.64806600  0.34989800  1
  Fe  Fe0  1  0.99947300  0.99947300  0.00010800  1
  Fe  Fe1  1  0.95270700  0.95270700  0.54755400  1
  Fe  Fe2  1  0.44891600  0.44891600  0.02350200  1
  Fe  Fe3  1  0.05068900  0.05068900  0.44807900  1
  Sb  Sb0  1  0.74910000  0.74910000  0.74971100  1
  Sb  Sb1  1  0.24763000  0.24763000  0.24762100  1
  Sb  Sb2  1  0.10464800  0.10464800  0.89432100  1
  Sb  Sb3  1  0.89254500  0.89254500  0.10166100  1
  Sb  Sb4  1  0.50748300  0.50748300  0.46321400  1
loop_
_geom_bond_atom_site_label_1
_geom_bond_atom_site_label_2
_geom_bond_distance
_geom_bond_site_symmetry_2
La0 Sb3 3.317566 1_546
La0 Sb3 3.317566 1_456
La0 Sb3 3.321430 1_545
La0 Sb3 3.321430 1_455
La0 Sb1 3.395314 1_555
La0 Sb1 3.408630 1_556
La0 Sb0 3.431726 1_455
La0 Sb0 3.431726 1_545
La1 Sb2 3.314981 1_654
La1 Sb2 3.314981 1_564
La1 Sb2 3.324127 1_565
La1 Sb2 3.324127 1_655
La1 Sb0 3.390980 1_555
La1 Sb0 3.394234 1_554
La1 Sb1 3.422536 1_565
La1 Sb1 3.422536 1_655
La1 Sb4 3.638436 1_555
Fe0 Fe1 2.473241 1_554
Fe0 Fe1 2.483398 1_555
Fe0 Fe3 2.530820 1_665
Fe0 Fe3 2.542192 1_664
Fe0 Fe2 2.608265 1_565
Fe0 Fe2 2.608265 1_655
Fe0 Sb2 2.720826 1_664
Fe0 Sb3 2.766210 1_555
Fe0 Sb4 3.045301 1_655
Fe0 Sb4 3.045301 1_565
Fe0 Sb4 3.218567 1_564
Fe0 Sb4 3.218567 1_654
Fe1 Fe3 2.534763 1_665
Fe1 Sb3 2.646482 1_556
Fe1 Sb4 2.665444 1_655
Fe1 Sb4 2.665444 1_565
Fe1 Sb3 2.682995 1_555
Fe1 La0 3.501278 1_565
Fe1 La0 3.501278 1_655
Fe2 Sb4 2.631778 1_555
Fe2 Sb4 2.649876 1_554
Fe2 Sb3 2.686178 1_545
Fe2 Sb3 2.686178 1_455
Fe2 La0 3.303972 1_554
Fe2 La0 3.433272 1_555
Fe3 Sb4 2.518492 1_455
Fe3 Sb4 2.518492 1_545
Fe3 Sb2 2.572222 1_555
Fe3 Sb2 2.576340 1_554
Fe3 La1 3.380130 1_455
Fe3 La1 3.380130 1_545
Sb0 Sb1 3.113405 1_566
Sb0 Sb1 3.113405 1_656
Sb0 Sb1 3.134605 1_565
Sb0 Sb1 3.134605 1_655
