# generated using pymatgen
data_K2Mg5(Si2O5)6
_symmetry_space_group_name_H-M   'P 1'
_cell_length_a   10.34651229
_cell_length_b   10.34653356
_cell_length_c   14.36809166
_cell_angle_alpha   90.00000000
_cell_angle_beta   90.00000000
_cell_angle_gamma   60.00006800
_symmetry_Int_Tables_number   1
_chemical_formula_structural   K2Mg5(Si2O5)6
_chemical_formula_sum   'K4 Mg10 Si24 O60'
_cell_volume   1332.04491111
_cell_formula_units_Z   2
loop_
 _symmetry_equiv_pos_site_id
 _symmetry_equiv_pos_as_xyz
  1  'x, y, z'
loop_
 _atom_site_type_symbol
 _atom_site_label
 _atom_site_symmetry_multiplicity
 _atom_site_fract_x
 _atom_site_fract_y
 _atom_site_fract_z
 _atom_site_occupancy
  K  K0  1  0.00000229  -0.00000000  0.25000000  1
  K  K1  1  0.00000229  -0.00000000  0.75000000  1
  K  K2  1  0.33335646  0.33332136  0.50000000  1
  K  K3  1  0.66667782  0.66667864  -0.00000000  1
  Mg  Mg0  1  0.33334932  0.33332770  0.24599183  1
  Mg  Mg1  1  0.33334932  0.33332770  0.75400817  1
  Mg  Mg2  1  0.66667702  0.66667230  0.74599183  1
  Mg  Mg3  1  0.66667702  0.66667230  0.25400817  1
  Mg  Mg4  1  0.49965762  0.00000000  0.25000000  1
  Mg  Mg5  1  0.00001271  0.50034113  0.25000063  1
  Mg  Mg6  1  0.50035385  0.49965887  0.24999937  1
  Mg  Mg7  1  0.49965762  0.00000000  0.75000000  1
  Mg  Mg8  1  0.00001271  0.50034113  0.74999937  1
  Mg  Mg9  1  0.50035385  0.49965887  0.75000063  1
  Si  Si0  1  0.35038703  0.88689924  0.38835238  1
  Si  Si1  1  0.88690161  0.76271261  0.38835264  1
  Si  Si2  1  0.76271510  0.35038761  0.38835241  1
  Si  Si3  1  0.35038703  0.88689924  0.61164762  1
  Si  Si4  1  0.88690161  0.76271261  0.61164736  1
  Si  Si5  1  0.76271510  0.35038761  0.61164759  1
  Si  Si6  1  0.23728627  0.11310076  0.88835238  1
  Si  Si7  1  0.64961422  0.23728739  0.88835264  1
  Si  Si8  1  0.11310271  0.64961239  0.88835241  1
  Si  Si9  1  0.23728627  0.11310076  0.11164762  1
  Si  Si10  1  0.64961422  0.23728739  0.11164736  1
  Si  Si11  1  0.11310271  0.64961239  0.11164759  1
  Si  Si12  1  0.65349099  0.11124145  0.61238627  1
  Si  Si13  1  0.11124582  0.23526966  0.61238602  1
  Si  Si14  1  0.23527350  0.65348211  0.61238682  1
  Si  Si15  1  0.65349099  0.11124145  0.38761373  1
  Si  Si16  1  0.11124582  0.23526966  0.38761398  1
  Si  Si17  1  0.23527350  0.65348211  0.38761318  1
  Si  Si18  1  0.76473243  0.88875855  0.11238627  1
  Si  Si19  1  0.34651548  0.76473034  0.11238602  1
  Si  Si20  1  0.88875561  0.34651789  0.11238682  1
  Si  Si21  1  0.76473243  0.88875855  0.88761373  1
  Si  Si22  1  0.34651548  0.76473034  0.88761398  1
  Si  Si23  1  0.88875561  0.34651789  0.88761318  1
  O  O0  1  0.49562703  0.84610875  0.32765187  1
  O  O1  1  0.84611209  0.65826617  0.32765001  1
  O  O2  1  0.65827219  0.49562787  0.32765221  1
  O  O3  1  0.49562703  0.84610875  0.67234813  1
  O  O4  1  0.84611209  0.65826617  0.67234999  1
  O  O5  1  0.65827219  0.49562787  0.67234779  1
  O  O6  1  0.34173578  0.15389125  0.82765187  1
  O  O7  1  0.50437825  0.34173383  0.82765001  1
  O  O8  1  0.15390006  0.50437213  0.82765221  1
  O  O9  1  0.34173578  0.15389125  0.17234813  1
  O  O10  1  0.50437825  0.34173383  0.17234999  1
  O  O11  1  0.15390006  0.50437213  0.17234779  1
  O  O12  1  0.50318571  0.15540339  0.66948489  1
  O  O13  1  0.15541165  0.34140872  0.66948525  1
  O  O14  1  0.34141754  0.50318077  0.66948587  1
  O  O15  1  0.50318571  0.15540339  0.33051511  1
  O  O16  1  0.15541165  0.34140872  0.33051475  1
  O  O17  1  0.34141754  0.50318077  0.33051413  1
  O  O18  1  0.65858909  0.84459661  0.16948489  1
  O  O19  1  0.49682037  0.65859128  0.16948525  1
  O  O20  1  0.84459832  0.49681923  0.16948587  1
  O  O21  1  0.65858909  0.84459661  0.83051511  1
  O  O22  1  0.49682037  0.65859128  0.83051475  1
  O  O23  1  0.84459832  0.49681923  0.83051413  1
  O  O24  1  0.27606159  0.78333618  0.36156346  1
  O  O25  1  0.78333756  0.94060043  0.36156269  1
  O  O26  1  0.94060419  0.27605973  0.36156364  1
  O  O27  1  0.27606159  0.78333618  0.63843654  1
  O  O28  1  0.78333756  0.94060043  0.63843731  1
  O  O29  1  0.94060419  0.27605973  0.63843636  1
  O  O30  1  0.05939777  0.21666382  0.86156346  1
  O  O31  1  0.72393799  0.05939957  0.86156269  1
  O  O32  1  0.21666393  0.72394027  0.86156364  1
  O  O33  1  0.05939777  0.21666382  0.13843654  1
  O  O34  1  0.72393799  0.05939957  0.13843731  1
  O  O35  1  0.21666393  0.72394027  0.13843636  1
  O  O36  1  0.72435795  0.21755589  0.63791434  1
  O  O37  1  0.21755568  0.05808572  0.63791398  1
  O  O38  1  0.05808942  0.72435657  0.63791427  1
  O  O39  1  0.72435795  0.21755589  0.36208566  1
  O  O40  1  0.21755568  0.05808572  0.36208602  1
  O  O41  1  0.05808942  0.72435657  0.36208573  1
  O  O42  1  0.94191384  0.78244411  0.13791434  1
  O  O43  1  0.27564140  0.94191428  0.13791398  1
  O  O44  1  0.78244600  0.27564343  0.13791427  1
  O  O45  1  0.94191384  0.78244411  0.86208566  1
  O  O46  1  0.27564140  0.94191428  0.86208602  1
  O  O47  1  0.78244600  0.27564343  0.86208573  1
  O  O48  1  0.37982911  0.87658788  0.50000000  1
  O  O49  1  0.87658759  0.74358335  0.50000000  1
  O  O50  1  0.74358203  0.37982721  0.50000000  1
  O  O51  1  0.25641699  0.12341212  -0.00000000  1
  O  O52  1  0.62017094  0.25641665  -0.00000000  1
  O  O53  1  0.12340924  0.62017279  -0.00000000  1
  O  O54  1  0.61919056  0.12490605  0.50000000  1
  O  O55  1  0.12491499  0.25590382  0.50000000  1
  O  O56  1  0.25590430  0.61918237  0.50000000  1
  O  O57  1  0.74409661  0.87509395  -0.00000000  1
  O  O58  1  0.38081880  0.74409618  -0.00000000  1
  O  O59  1  0.87508667  0.38081763  -0.00000000  1
loop_
_geom_bond_atom_site_label_1
_geom_bond_atom_site_label_2
_geom_bond_distance
_geom_bond_site_symmetry_2
K0 O26 3.057783 1_455
K0 O35 3.057783 1_545
K0 O24 3.057783 1_545
K0 O33 3.057783 1_555
K0 O34 3.057806 1_455
K0 O25 3.057806 1_445
K0 O43 3.061728 1_545
K0 O40 3.061728 1_555
K0 O44 3.061764 1_455
K0 O41 3.061764 1_545
K0 O39 3.061765 1_455
K0 O42 3.061765 1_445
K1 O29 3.057783 1_455
K1 O32 3.057783 1_545
K1 O27 3.057783 1_545
K1 O30 3.057783 1_555
K1 O31 3.057806 1_455
K1 O28 3.057806 1_445
K1 O46 3.061728 1_545
K1 O37 3.061728 1_555
K1 O47 3.061764 1_455
K1 O38 3.061764 1_545
K1 O36 3.061765 1_455
K1 O45 3.061765 1_445
K2 O54 2.649314 1_555
K2 O56 2.649498 1_555
K2 O55 2.649563 1_555
K2 O15 3.028480 1_555
K2 O12 3.028480 1_555
K2 O17 3.028585 1_555
K2 O14 3.028585 1_555
K2 O13 3.028651 1_555
K2 O16 3.028651 1_555
K3 O57 2.649314 1_555
K3 O59 2.649498 1_555
K3 O58 2.649563 1_555
K3 O18 3.028480 1_555
K3 O21 3.028480 1_554
K3 O20 3.028585 1_555
K3 O23 3.028585 1_554
K3 O19 3.028651 1_555
K3 O22 3.028651 1_554
Mg0 O10 2.100559 1_555
Mg0 O9 2.100670 1_555
Mg0 O11 2.100710 1_555
Mg0 O15 2.171802 1_555
Mg0 O17 2.171847 1_555
Mg0 O16 2.171938 1_555
Mg1 O7 2.100559 1_555
Mg1 O6 2.100670 1_555
Mg1 O8 2.100710 1_555
Mg1 O12 2.171802 1_555
Mg1 O14 2.171847 1_555
Mg1 O13 2.171938 1_555
Mg2 O4 2.100559 1_555
Mg2 O3 2.100670 1_555
Mg2 O5 2.100710 1_555
Mg2 O21 2.171802 1_555
Mg2 O23 2.171847 1_555
Mg2 O22 2.171938 1_555
Mg3 O1 2.100559 1_555
Mg3 O0 2.100670 1_555
Mg3 O2 2.100710 1_555
Mg3 O18 2.171802 1_555
Mg3 O20 2.171847 1_555
Mg3 O19 2.171938 1_555
Mg4 O9 1.961677 1_555
Mg4 O0 1.961677 1_545
Mg4 O18 1.995901 1_545
Mg4 O15 1.995901 1_555
Mg5 O11 1.961651 1_555
Mg5 O1 1.961710 1_455
Mg5 O16 1.995879 1_555
Mg5 O20 1.995962 1_455
Mg6 O2 1.961651 1_555
Mg6 O10 1.961710 1_555
Mg6 O19 1.995879 1_555
Mg6 O17 1.995962 1_555
Mg7 O6 1.961677 1_555
Mg7 O3 1.961677 1_545
Mg7 O21 1.995901 1_545
Mg7 O12 1.995901 1_555
Mg8 O8 1.961651 1_555
Mg8 O4 1.961710 1_455
Mg8 O13 1.995879 1_555
Mg8 O23 1.995962 1_455
Mg9 O5 1.961651 1_555
Mg9 O7 1.961710 1_555
Mg9 O22 1.995879 1_555
Mg9 O14 1.995962 1_555
O0 Si0 1.600857 1_555
O1 Si1 1.600844 1_555
O2 Si2 1.600845 1_555
O3 Si3 1.600857 1_555
O4 Si4 1.600844 1_555
O5 Si5 1.600845 1_555
O6 Si6 1.600857 1_555
O7 Si7 1.600844 1_555
O8 Si8 1.600845 1_555
O9 Si9 1.600857 1_555
O10 Si10 1.600844 1_555
O11 Si11 1.600845 1_555
O12 Si12 1.609255 1_555
O13 Si13 1.609250 1_555
O14 Si14 1.609237 1_555
O15 Si15 1.609255 1_555
O16 Si16 1.609250 1_555
O17 Si17 1.609237 1_555
O18 Si18 1.609255 1_555
O19 Si19 1.609250 1_555
O20 Si20 1.609237 1_555
O21 Si21 1.609255 1_555
O22 Si22 1.609250 1_555
O23 Si23 1.609237 1_555
O24 Si17 1.640206 1_555
O24 Si0 1.646720 1_555
O25 Si15 1.640182 1_565
O25 Si1 1.646721 1_555
O26 Si16 1.640195 1_655
O26 Si2 1.646721 1_555
O27 Si14 1.640206 1_555
O27 Si3 1.646720 1_555
O28 Si12 1.640182 1_565
O28 Si4 1.646721 1_555
O29 Si13 1.640195 1_655
O29 Si5 1.646721 1_555
O30 Si23 1.640206 1_455
O30 Si6 1.646720 1_555
O31 Si21 1.640182 1_545
O31 Si7 1.646721 1_555
O32 Si22 1.640195 1_555
O32 Si8 1.646722 1_555
O33 Si20 1.640206 1_455
O33 Si9 1.646720 1_555
O34 Si18 1.640182 1_545
O34 Si10 1.646721 1_555
O35 Si19 1.640195 1_555
O35 Si11 1.646722 1_555
O36 Si12 1.639713 1_555
O36 Si5 1.653539 1_555
O37 Si13 1.639731 1_555
O37 Si3 1.653522 1_545
O38 Si14 1.639727 1_555
O38 Si4 1.653530 1_455
O39 Si15 1.639713 1_555
O39 Si2 1.653539 1_555
O40 Si16 1.639731 1_555
O40 Si0 1.653522 1_545
O41 Si17 1.639727 1_555
O41 Si1 1.653530 1_455
O42 Si18 1.639714 1_555
O42 Si11 1.653539 1_655
O43 Si19 1.639731 1_555
O43 Si9 1.653522 1_565
O44 Si20 1.639727 1_555
O44 Si10 1.653530 1_555
O45 Si21 1.639714 1_555
O45 Si8 1.653539 1_655
O46 Si22 1.639731 1_555
O46 Si6 1.653522 1_565
O47 Si23 1.639727 1_555
O47 Si7 1.653530 1_555
O48 Si3 1.626351 1_555
O48 Si0 1.626351 1_555
O49 Si1 1.626349 1_555
O49 Si4 1.626349 1_555
O50 Si2 1.626348 1_555
O50 Si5 1.626348 1_555
O51 Si6 1.626351 1_554
O51 Si9 1.626351 1_555
O52 Si7 1.626349 1_554
O52 Si10 1.626349 1_555
O53 Si11 1.626348 1_555
O53 Si8 1.626348 1_554
O54 Si12 1.644160 1_555
O54 Si15 1.644160 1_555
O55 Si13 1.644161 1_555
O55 Si16 1.644161 1_555
O56 Si14 1.644166 1_555
O56 Si17 1.644166 1_555
O57 Si18 1.644160 1_555
O57 Si21 1.644160 1_554
O58 Si22 1.644161 1_554
O58 Si19 1.644161 1_555
O59 Si23 1.644166 1_554
O59 Si20 1.644166 1_555
