# generated using pymatgen
data_CaFe8(O7F)2
_symmetry_space_group_name_H-M   'P 1'
_cell_length_a   4.61825701
_cell_length_b   4.62686831
_cell_length_c   13.71683148
_cell_angle_alpha   88.09507895
_cell_angle_beta   83.53041317
_cell_angle_gamma   89.10081138
_symmetry_Int_Tables_number   1
_chemical_formula_structural   CaFe8(O7F)2
_chemical_formula_sum   'Ca1 Fe8 O14 F2'
_cell_volume   291.05362940
_cell_formula_units_Z   1
loop_
 _symmetry_equiv_pos_site_id
 _symmetry_equiv_pos_as_xyz
  1  'x, y, z'
loop_
 _atom_site_type_symbol
 _atom_site_label
 _atom_site_symmetry_multiplicity
 _atom_site_fract_x
 _atom_site_fract_y
 _atom_site_fract_z
 _atom_site_occupancy
  Ca  Ca0  1  0.19294300  0.82322800  0.75826400  1
  Fe  Fe0  1  0.10120500  0.98364900  0.03920500  1
  Fe  Fe1  1  0.02703800  0.96604500  0.25696500  1
  Fe  Fe2  1  0.97928600  0.96526600  0.48294400  1
  Fe  Fe3  1  0.71737700  0.31474100  0.72869400  1
  Fe  Fe4  1  0.55908700  0.47287200  0.13999000  1
  Fe  Fe5  1  0.38334000  0.42429500  0.57639300  1
  Fe  Fe6  1  0.58267700  0.57199600  0.92655400  1
  Fe  Fe7  1  0.49740300  0.45465200  0.35400200  1
  O  O0  1  0.25378900  0.77825800  0.14782800  1
  O  O1  1  0.15003100  0.76083600  0.58969700  1
  O  O2  1  0.26281300  0.83102800  0.92017800  1
  O  O3  1  0.19094500  0.76190600  0.36468700  1
  O  O4  1  0.38535000  0.30338500  0.02640400  1
  O  O5  1  0.33634200  0.26424700  0.24813400  1
  O  O6  1  0.28156400  0.25806600  0.46410600  1
  O  O7  1  0.28516500  0.31866500  0.71825600  1
  O  O8  1  0.78370100  0.69667200  0.03038000  1
  O  O9  1  0.72399100  0.65908600  0.25162900  1
  O  O10  1  0.69774700  0.69185300  0.77994900  1
  O  O11  1  0.86771700  0.16953300  0.14311200  1
  O  O12  1  0.80628600  0.15486900  0.36552100  1
  O  O13  1  0.75487200  0.20479700  0.59646900  1
  F  F0  1  0.66306700  0.66450900  0.47780800  1
  F  F1  1  0.79403900  0.19999800  0.86283200  1
loop_
_geom_bond_atom_site_label_1
_geom_bond_atom_site_label_2
_geom_bond_distance
_geom_bond_site_symmetry_2
Ca0 O2 2.281495 1_555
Ca0 O10 2.359319 1_455
Ca0 O1 2.370303 1_555
Ca0 O7 2.373107 1_565
Ca0 O7 2.435972 1_555
Ca0 O10 2.448012 1_555
Ca0 F1 2.821370 1_465
Fe0 O2 1.872651 1_554
Fe0 O11 1.907854 1_465
Fe0 O0 1.934194 1_555
Fe0 O4 1.983213 1_565
Fe0 O8 2.009874 1_455
Fe1 O12 1.932960 1_465
Fe1 O3 1.945576 1_555
Fe1 O0 1.948649 1_555
Fe1 O5 1.992629 1_565
Fe1 O11 2.001547 1_465
Fe1 O9 2.018319 1_455
Fe2 O1 1.950744 1_655
Fe2 O6 1.950824 1_665
Fe2 O12 2.043589 1_565
Fe2 O3 2.046303 1_655
Fe2 O13 2.107673 1_565
Fe3 O13 1.888410 1_555
Fe3 O10 1.899797 1_555
Fe3 O7 2.016978 1_555
Fe3 O7 2.610255 1_655
Fe4 O5 1.944872 1_555
Fe4 O0 1.977227 1_555
Fe4 O11 1.987516 1_555
Fe4 O8 1.996886 1_555
Fe4 O9 2.009582 1_555
Fe4 O4 2.017158 1_555
Fe5 O6 1.854184 1_555
Fe5 O1 1.881713 1_555
Fe5 O7 1.993968 1_555
Fe5 O13 2.021020 1_555
Fe6 O8 1.895331 1_556
Fe6 O2 1.895470 1_555
Fe6 O4 1.972837 1_556
Fe6 O10 2.080427 1_555
Fe7 O9 1.890301 1_555
Fe7 O6 1.923475 1_555
Fe7 O5 1.946082 1_555
Fe7 O3 1.987343 1_555
Fe7 O12 1.989451 1_555
F0 Fe2 2.041472 1_555
F0 Fe5 2.069852 1_555
F0 Fe7 2.199513 1_555
F1 Fe3 1.966868 1_555
F1 Fe6 2.129390 1_555
