# generated using pymatgen
data_Cd15As9Cl2O37
_symmetry_space_group_name_H-M   'P 1'
_cell_length_a   12.20604140
_cell_length_b   12.20604140
_cell_length_c   12.20604142
_cell_angle_alpha   93.61782943
_cell_angle_beta   93.61782943
_cell_angle_gamma   93.61782674
_symmetry_Int_Tables_number   1
_chemical_formula_structural   Cd15As9Cl2O37
_chemical_formula_sum   'Cd30 As18 Cl4 O74'
_cell_volume   1807.19310207
_cell_formula_units_Z   2
loop_
 _symmetry_equiv_pos_site_id
 _symmetry_equiv_pos_as_xyz
  1  'x, y, z'
loop_
 _atom_site_type_symbol
 _atom_site_label
 _atom_site_symmetry_multiplicity
 _atom_site_fract_x
 _atom_site_fract_y
 _atom_site_fract_z
 _atom_site_occupancy
  Cd  Cd0  1  0.16744100  0.50117500  0.83205600  1
  Cd  Cd1  1  0.83205600  0.16744100  0.50117500  1
  Cd  Cd2  1  0.50117500  0.83205600  0.16744100  1
  Cd  Cd3  1  0.33541800  0.00023700  0.66499500  1
  Cd  Cd4  1  0.00023700  0.66499500  0.33541800  1
  Cd  Cd5  1  0.66499500  0.33541800  0.00023700  1
  Cd  Cd6  1  0.49882500  0.16794400  0.83255900  1
  Cd  Cd7  1  0.16794400  0.83255900  0.49882500  1
  Cd  Cd8  1  0.83255900  0.49882500  0.16794400  1
  Cd  Cd9  1  0.33500500  0.66458200  0.99976300  1
  Cd  Cd10  1  0.99976300  0.33500500  0.66458200  1
  Cd  Cd11  1  0.66458200  0.99976300  0.33500500  1
  Cd  Cd12  1  0.40900600  0.68749200  0.65097700  1
  Cd  Cd13  1  0.09740900  0.34240900  0.31147600  1
  Cd  Cd14  1  0.74356700  0.02193700  0.98608300  1
  Cd  Cd15  1  0.02193700  0.98608300  0.74356700  1
  Cd  Cd16  1  0.68749200  0.65097700  0.40900600  1
  Cd  Cd17  1  0.34240900  0.31147600  0.09740900  1
  Cd  Cd18  1  0.31147600  0.09740900  0.34240900  1
  Cd  Cd19  1  0.98608300  0.74356700  0.02193700  1
  Cd  Cd20  1  0.65097700  0.40900600  0.68749200  1
  Cd  Cd21  1  0.59099400  0.31250800  0.34902300  1
  Cd  Cd22  1  0.25643300  0.97806300  0.01391700  1
  Cd  Cd23  1  0.90259100  0.65759100  0.68852400  1
  Cd  Cd24  1  0.97806300  0.01391700  0.25643300  1
  Cd  Cd25  1  0.65759100  0.68852400  0.90259100  1
  Cd  Cd26  1  0.31250800  0.34902300  0.59099400  1
  Cd  Cd27  1  0.68852400  0.90259100  0.65759100  1
  Cd  Cd28  1  0.34902300  0.59099400  0.31250800  1
  Cd  Cd29  1  0.01391700  0.25643300  0.97806300  1
  As  As0  1  0.77413700  0.17616900  0.79670100  1
  As  As1  1  0.44108700  0.84704800  0.46468800  1
  As  As2  1  0.10778000  0.51107500  0.13090900  1
  As  As3  1  0.51107500  0.13090900  0.10778000  1
  As  As4  1  0.17616900  0.79670100  0.77413700  1
  As  As5  1  0.84704800  0.46468800  0.44108700  1
  As  As6  1  0.46468800  0.44108700  0.84704800  1
  As  As7  1  0.13090900  0.10778000  0.51107500  1
  As  As8  1  0.79670100  0.77413700  0.17616900  1
  As  As9  1  0.89222000  0.48892500  0.86909100  1
  As  As10  1  0.55891300  0.15295200  0.53531200  1
  As  As11  1  0.22586300  0.82383100  0.20329900  1
  As  As12  1  0.15295200  0.53531200  0.55891300  1
  As  As13  1  0.82383100  0.20329900  0.22586300  1
  As  As14  1  0.48892500  0.86909100  0.89222000  1
  As  As15  1  0.20329900  0.22586300  0.82383100  1
  As  As16  1  0.86909100  0.89222000  0.48892500  1
  As  As17  1  0.53531200  0.55891300  0.15295200  1
  Cl  Cl0  1  0.90814600  0.90814600  0.90814600  1
  Cl  Cl1  1  0.59198900  0.59198900  0.59198900  1
  Cl  Cl2  1  0.40801100  0.40801100  0.40801100  1
  Cl  Cl3  1  0.09185400  0.09185400  0.09185400  1
  O  O0  1  0.18572200  0.53965700  0.02387900  1
  O  O1  1  0.85381700  0.20607600  0.69118200  1
  O  O2  1  0.52059000  0.87154200  0.35748400  1
  O  O3  1  0.20607600  0.69118200  0.85381700  1
  O  O4  1  0.87154200  0.35748400  0.52059000  1
  O  O5  1  0.53965700  0.02387900  0.18572200  1
  O  O6  1  0.35748400  0.52059000  0.87154200  1
  O  O7  1  0.02387900  0.18572200  0.53965700  1
  O  O8  1  0.69118200  0.85381700  0.20607600  1
  O  O9  1  0.47941000  0.12845800  0.64251600  1
  O  O10  1  0.14618300  0.79392400  0.30881800  1
  O  O11  1  0.81427800  0.46034300  0.97612100  1
  O  O12  1  0.46034300  0.97612100  0.81427800  1
  O  O13  1  0.12845800  0.64251600  0.47941000  1
  O  O14  1  0.79392400  0.30881800  0.14618300  1
  O  O15  1  0.30881800  0.14618300  0.79392400  1
  O  O16  1  0.97612100  0.81427800  0.46034300  1
  O  O17  1  0.64251600  0.47941000  0.12845800  1
  O  O18  1  0.70672700  0.04672100  0.78848900  1
  O  O19  1  0.37417000  0.71662900  0.45645200  1
  O  O20  1  0.04232400  0.38065100  0.12328300  1
  O  O21  1  0.38065100  0.12328300  0.04232400  1
  O  O22  1  0.04672100  0.78848900  0.70672700  1
  O  O23  1  0.71662900  0.45645200  0.37417000  1
  O  O24  1  0.45645200  0.37417000  0.71662900  1
  O  O25  1  0.12328300  0.04232400  0.38065100  1
  O  O26  1  0.78848900  0.70672700  0.04672100  1
  O  O27  1  0.82172900  0.48347600  0.74114300  1
  O  O28  1  0.48879000  0.14748000  0.40682400  1
  O  O29  1  0.15674500  0.81564000  0.07445600  1
  O  O30  1  0.14748000  0.40682400  0.48879000  1
  O  O31  1  0.81564000  0.07445600  0.15674500  1
  O  O32  1  0.48347600  0.74114300  0.82172900  1
  O  O33  1  0.07445600  0.15674500  0.81564000  1
  O  O34  1  0.74114300  0.82172900  0.48347600  1
  O  O35  1  0.40682400  0.48879000  0.14748000  1
  O  O36  1  0.95767600  0.61934900  0.87671700  1
  O  O37  1  0.62583000  0.28337100  0.54354800  1
  O  O38  1  0.29327300  0.95327900  0.21151100  1
  O  O39  1  0.28337100  0.54354800  0.62583000  1
  O  O40  1  0.95327900  0.21151100  0.29327300  1
  O  O41  1  0.61934900  0.87671700  0.95767600  1
  O  O42  1  0.21151100  0.29327300  0.95327900  1
  O  O43  1  0.87671700  0.95767600  0.61934900  1
  O  O44  1  0.54354800  0.62583000  0.28337100  1
  O  O45  1  0.84325500  0.18436000  0.92554400  1
  O  O46  1  0.51121000  0.85252000  0.59317600  1
  O  O47  1  0.17827100  0.51652400  0.25885700  1
  O  O48  1  0.51652400  0.25885700  0.17827100  1
  O  O49  1  0.18436000  0.92554400  0.84325500  1
  O  O50  1  0.85252000  0.59317600  0.51121000  1
  O  O51  1  0.59317600  0.51121000  0.85252000  1
  O  O52  1  0.25885700  0.17827100  0.51652400  1
  O  O53  1  0.92554400  0.84325500  0.18436000  1
  O  O54  1  0.67074900  0.26845800  0.81026400  1
  O  O55  1  0.33704100  0.93819400  0.47550600  1
  O  O56  1  0.00374200  0.60212600  0.14375400  1
  O  O57  1  0.60212600  0.14375400  0.00374200  1
  O  O58  1  0.26845800  0.81026400  0.67074900  1
  O  O59  1  0.93819400  0.47550600  0.33704100  1
  O  O60  1  0.47550600  0.33704100  0.93819400  1
  O  O61  1  0.14375400  0.00374200  0.60212600  1
  O  O62  1  0.81026400  0.67074900  0.26845800  1
  O  O63  1  0.99625800  0.39787400  0.85624600  1
  O  O64  1  0.66295900  0.06180600  0.52449400  1
  O  O65  1  0.32925100  0.73154200  0.18973600  1
  O  O66  1  0.06180600  0.52449400  0.66295900  1
  O  O67  1  0.73154200  0.18973600  0.32925100  1
  O  O68  1  0.39787400  0.85624600  0.99625800  1
  O  O69  1  0.18973600  0.32925100  0.73154200  1
  O  O70  1  0.85624600  0.99625800  0.39787400  1
  O  O71  1  0.52449400  0.66295900  0.06180600  1
  O  O72  1  0.24999700  0.24999700  0.24999700  1
  O  O73  1  0.75000300  0.75000300  0.75000300  1
loop_
_geom_bond_atom_site_label_1
_geom_bond_atom_site_label_2
_geom_bond_distance
_geom_bond_site_symmetry_2
Cd0 O3 2.332424 1_555
Cd0 O6 2.333334 1_555
Cd0 O0 2.352576 1_556
Cd0 O69 2.402566 1_555
Cd0 O66 2.405877 1_555
Cd0 O63 2.415629 1_455
Cd1 O1 2.332424 1_555
Cd1 O4 2.333334 1_555
Cd1 O7 2.352576 1_655
Cd1 O67 2.402566 1_555
Cd1 O64 2.405877 1_555
Cd1 O70 2.415629 1_545
Cd2 O8 2.332424 1_555
Cd2 O2 2.333334 1_555
Cd2 O5 2.352576 1_565
Cd2 O65 2.402566 1_555
Cd2 O71 2.405877 1_555
Cd2 O68 2.415629 1_554
Cd3 O9 2.319849 1_555
Cd3 O12 2.346426 1_545
Cd3 O15 2.353536 1_555
Cd3 O55 2.389576 1_545
Cd3 O58 2.416294 1_545
Cd3 O61 2.419500 1_555
Cd4 O13 2.319849 1_555
Cd4 O16 2.346426 1_455
Cd4 O10 2.353536 1_555
Cd4 O59 2.389576 1_455
Cd4 O62 2.416294 1_455
Cd4 O56 2.419500 1_555
Cd5 O17 2.319849 1_555
Cd5 O11 2.346426 1_554
Cd5 O14 2.353536 1_555
Cd5 O60 2.389576 1_554
Cd5 O54 2.416294 1_554
Cd5 O57 2.419500 1_555
Cd6 O15 2.332424 1_555
Cd6 O9 2.333334 1_555
Cd6 O12 2.352576 1_545
Cd6 O54 2.402566 1_555
Cd6 O60 2.405877 1_555
Cd6 O57 2.415629 1_556
Cd7 O10 2.332424 1_555
Cd7 O13 2.333334 1_555
Cd7 O16 2.352576 1_455
Cd7 O58 2.402566 1_555
Cd7 O55 2.405877 1_555
Cd7 O61 2.415629 1_565
Cd8 O14 2.332424 1_555
Cd8 O17 2.333334 1_555
Cd8 O11 2.352576 1_554
Cd8 O62 2.402566 1_555
Cd8 O59 2.405877 1_555
Cd8 O56 2.415629 1_655
Cd9 O6 2.319849 1_555
Cd9 O0 2.346426 1_556
Cd9 O3 2.353536 1_555
Cd9 O71 2.389576 1_556
Cd9 O65 2.416294 1_556
Cd9 O68 2.419500 1_555
Cd10 O4 2.319849 1_555
Cd10 O7 2.346426 1_655
Cd10 O1 2.353536 1_555
Cd10 O66 2.389576 1_655
Cd10 O69 2.416294 1_655
Cd10 O63 2.419500 1_555
Cd11 O2 2.319849 1_555
Cd11 O5 2.346426 1_565
Cd11 O8 2.353536 1_555
Cd11 O64 2.389576 1_565
Cd11 O67 2.416294 1_565
Cd11 O70 2.419500 1_555
Cd12 O39 2.250636 1_555
Cd12 O32 2.261095 1_555
Cd12 O58 2.361787 1_555
Cd12 O19 2.437870 1_555
Cd12 O46 2.466757 1_555
Cd12 Cl1 2.700264 1_555
Cd13 O30 2.287704 1_555
Cd13 O40 2.290912 1_455
Cd13 O72 2.374670 1_555
Cd13 O47 2.427125 1_555
Cd13 O20 2.434462 1_555
Cd13 O59 2.631426 1_455
Cd14 O31 2.247938 1_556
Cd14 O41 2.253442 1_545
Cd14 O57 2.359746 1_556
Cd14 O45 2.439470 1_555
Cd14 O18 2.466388 1_555
Cd14 Cl0 2.701145 1_545
Cd15 O33 2.247938 1_565
Cd15 O43 2.253442 1_455
Cd15 O61 2.359746 1_565
Cd15 O49 2.439470 1_555
Cd15 O22 2.466388 1_555
Cd15 Cl0 2.701145 1_455
Cd16 O44 2.250636 1_555
Cd16 O34 2.261095 1_555
Cd16 O62 2.361787 1_555
Cd16 O23 2.437870 1_555
Cd16 O50 2.466757 1_555
Cd16 Cl1 2.700264 1_555
Cd17 O35 2.287704 1_555
Cd17 O42 2.290912 1_554
Cd17 O72 2.374670 1_555
Cd17 O48 2.427125 1_555
Cd17 O21 2.434462 1_555
Cd17 O60 2.631426 1_554
Cd18 O28 2.287704 1_555
Cd18 O38 2.290912 1_545
Cd18 O72 2.374670 1_555
Cd18 O52 2.427125 1_555
Cd18 O25 2.434462 1_555
Cd18 O55 2.631426 1_545
Cd19 O29 2.247938 1_655
Cd19 O36 2.253442 1_554
Cd19 O56 2.359746 1_655
Cd19 O53 2.439470 1_555
Cd19 O26 2.466388 1_555
Cd19 Cl0 2.701145 1_554
Cd20 O37 2.250636 1_555
Cd20 O27 2.261095 1_555
Cd20 O54 2.361787 1_555
Cd20 O24 2.437870 1_555
Cd20 O51 2.466757 1_555
Cd20 Cl1 2.700264 1_555
Cd21 O23 2.250636 1_555
Cd21 O48 2.261095 1_555
Cd21 O67 2.361787 1_555
Cd21 O37 2.437870 1_555
Cd21 O28 2.466757 1_555
Cd21 Cl2 2.700264 1_555
Cd22 O49 2.247938 1_554
Cd22 O21 2.253442 1_565
Cd22 O68 2.359746 1_554
Cd22 O29 2.439470 1_555
Cd22 O38 2.466388 1_555
Cd22 Cl3 2.701145 1_565
Cd23 O50 2.287704 1_555
Cd23 O22 2.290912 1_655
Cd23 O73 2.374670 1_555
Cd23 O27 2.427125 1_555
Cd23 O36 2.434462 1_555
Cd23 O66 2.631426 1_655
Cd24 O53 2.247938 1_545
Cd24 O25 2.253442 1_655
Cd24 O70 2.359746 1_545
Cd24 O31 2.439470 1_555
Cd24 O40 2.466388 1_555
Cd24 Cl3 2.701145 1_655
Cd25 O51 2.287704 1_555
Cd25 O26 2.290912 1_556
Cd25 O73 2.374670 1_555
Cd25 O32 2.427125 1_555
Cd25 O41 2.434462 1_555
Cd25 O71 2.631426 1_556
Cd26 O24 2.250636 1_555
Cd26 O52 2.261095 1_555
Cd26 O69 2.361787 1_555
Cd26 O39 2.437870 1_555
Cd26 O30 2.466757 1_555
Cd26 Cl2 2.700264 1_555
Cd27 O46 2.287704 1_555
Cd27 O18 2.290912 1_565
Cd27 O73 2.374670 1_555
Cd27 O34 2.427125 1_555
Cd27 O43 2.434462 1_555
Cd27 O64 2.631426 1_565
Cd28 O19 2.250636 1_555
Cd28 O47 2.261095 1_555
Cd28 O65 2.361787 1_555
Cd28 O44 2.437870 1_555
Cd28 O35 2.466757 1_555
Cd28 Cl2 2.700264 1_555
Cd29 O45 2.247938 1_455
Cd29 O20 2.253442 1_556
Cd29 O63 2.359746 1_455
Cd29 O33 2.439470 1_555
Cd29 O42 2.466388 1_555
Cd29 Cl3 2.701145 1_556
As0 O1 1.706062 1_555
As0 O18 1.728914 1_555
As0 O45 1.731211 1_555
As0 O54 1.752469 1_555
As1 O2 1.707740 1_555
As1 O46 1.734036 1_555
As1 O19 1.736878 1_555
As1 O55 1.746131 1_555
As2 O0 1.704701 1_555
As2 O20 1.729952 1_555
As2 O47 1.730275 1_555
As2 O56 1.747457 1_555
As3 O5 1.704701 1_555
As3 O21 1.729952 1_555
As3 O48 1.730275 1_555
As3 O57 1.747457 1_555
As4 O3 1.706062 1_555
As4 O22 1.728914 1_555
As4 O49 1.731211 1_555
As4 O58 1.752469 1_555
As5 O4 1.707740 1_555
As5 O50 1.734036 1_555
As5 O23 1.736878 1_555
As5 O59 1.746131 1_555
As6 O6 1.707740 1_555
As6 O51 1.734036 1_555
As6 O24 1.736878 1_555
As6 O60 1.746131 1_555
As7 O7 1.704701 1_555
As7 O25 1.729952 1_555
As7 O52 1.730275 1_555
As7 O61 1.747457 1_555
As8 O8 1.706062 1_555
As8 O26 1.728914 1_555
As8 O53 1.731211 1_555
As8 O62 1.752469 1_555
As9 O11 1.704701 1_555
As9 O36 1.729952 1_555
As9 O27 1.730275 1_555
As9 O63 1.747457 1_555
As10 O9 1.707740 1_555
As10 O28 1.734036 1_555
As10 O37 1.736878 1_555
As10 O64 1.746131 1_555
As11 O10 1.706062 1_555
As11 O38 1.728914 1_555
As11 O29 1.731211 1_555
As11 O65 1.752469 1_555
As12 O13 1.707740 1_555
As12 O30 1.734036 1_555
As12 O39 1.736878 1_555
As12 O66 1.746131 1_555
As13 O14 1.706062 1_555
As13 O40 1.728914 1_555
As13 O31 1.731211 1_555
As13 O67 1.752469 1_555
As14 O12 1.704701 1_555
As14 O41 1.729952 1_555
As14 O32 1.730275 1_555
As14 O68 1.747457 1_555
As15 O15 1.706062 1_555
As15 O42 1.728914 1_555
As15 O33 1.731211 1_555
As15 O69 1.752469 1_555
As16 O16 1.704701 1_555
As16 O43 1.729952 1_555
As16 O34 1.730275 1_555
As16 O70 1.747457 1_555
As17 O17 1.707740 1_555
As17 O35 1.734036 1_555
As17 O44 1.736878 1_555
As17 O71 1.746131 1_555
