# generated using pymatgen
data_SrIn2(PO4)4
_symmetry_space_group_name_H-M   'P 1'
_cell_length_a   6.83976008
_cell_length_b   6.83976008
_cell_length_c   14.10349400
_cell_angle_alpha   90.00000000
_cell_angle_beta   90.00000000
_cell_angle_gamma   91.44821260
_symmetry_Int_Tables_number   1
_chemical_formula_structural   SrIn2(PO4)4
_chemical_formula_sum   'Sr2 In4 P8 O32'
_cell_volume   659.58338676
_cell_formula_units_Z   2
loop_
 _symmetry_equiv_pos_site_id
 _symmetry_equiv_pos_as_xyz
  1  'x, y, z'
loop_
 _atom_site_type_symbol
 _atom_site_label
 _atom_site_symmetry_multiplicity
 _atom_site_fract_x
 _atom_site_fract_y
 _atom_site_fract_z
 _atom_site_occupancy
  Sr  Sr0  1  0.22560400  0.22560400  0.00000000  1
  Sr  Sr1  1  0.77439600  0.77439600  0.50000000  1
  In  In0  1  0.85025900  0.14974100  0.75000000  1
  In  In1  1  0.14974100  0.85025900  0.25000000  1
  In  In2  1  0.64203300  0.64203300  0.00000000  1
  In  In3  1  0.35796700  0.35796700  0.50000000  1
  P  P0  1  0.74479000  0.14969100  0.99205500  1
  P  P1  1  0.14969100  0.74479000  0.00794500  1
  P  P2  1  0.25521000  0.85030900  0.49205500  1
  P  P3  1  0.85030900  0.25521000  0.50794500  1
  P  P4  1  0.35250200  0.24707100  0.73819100  1
  P  P5  1  0.24707100  0.35250200  0.26180900  1
  P  P6  1  0.64749800  0.75292900  0.23819100  1
  P  P7  1  0.75292900  0.64749800  0.76180900  1
  O  O0  1  0.17084400  0.88195900  0.92165600  1
  O  O1  1  0.88195900  0.17084400  0.07834400  1
  O  O2  1  0.82915600  0.11804100  0.42165600  1
  O  O3  1  0.11804100  0.82915600  0.57834400  1
  O  O4  1  0.83076700  0.12056100  0.59688300  1
  O  O5  1  0.12056100  0.83076700  0.40311700  1
  O  O6  1  0.16923300  0.87943900  0.09688300  1
  O  O7  1  0.87943900  0.16923300  0.90311700  1
  O  O8  1  0.62039400  0.95824000  0.99420300  1
  O  O9  1  0.95824000  0.62039400  0.00579700  1
  O  O10  1  0.37960600  0.04176000  0.49420300  1
  O  O11  1  0.04176000  0.37960600  0.50579700  1
  O  O12  1  0.59925900  0.32038200  0.99279800  1
  O  O13  1  0.32038200  0.59925900  0.00720200  1
  O  O14  1  0.40074100  0.67961800  0.49279800  1
  O  O15  1  0.67961800  0.40074100  0.50720200  1
  O  O16  1  0.53531700  0.12657800  0.75488600  1
  O  O17  1  0.12657800  0.53531700  0.24511400  1
  O  O18  1  0.46468300  0.87342200  0.25488600  1
  O  O19  1  0.87342200  0.46468300  0.74511400  1
  O  O20  1  0.64103400  0.70169900  0.66985300  1
  O  O21  1  0.70169900  0.64103400  0.33014700  1
  O  O22  1  0.35896600  0.29830100  0.16985300  1
  O  O23  1  0.29830100  0.35896600  0.83014700  1
  O  O24  1  0.61859200  0.62332100  0.84831500  1
  O  O25  1  0.62332100  0.61859200  0.15168500  1
  O  O26  1  0.38140800  0.37667900  0.34831500  1
  O  O27  1  0.37667900  0.38140800  0.65168500  1
  O  O28  1  0.16495800  0.11686600  0.73056800  1
  O  O29  1  0.11686600  0.16495800  0.26943200  1
  O  O30  1  0.83504200  0.88313400  0.23056800  1
  O  O31  1  0.88313400  0.83504200  0.76943200  1
loop_
_geom_bond_atom_site_label_1
_geom_bond_atom_site_label_2
_geom_bond_distance
_geom_bond_site_symmetry_2
In0 O19 2.157050 1_555
In0 O16 2.157050 1_555
In0 O7 2.172473 1_555
In0 O4 2.172473 1_555
In0 O31 2.187062 1_545
In0 O28 2.187062 1_655
In1 O18 2.157050 1_555
In1 O17 2.157050 1_555
In1 O5 2.172473 1_555
In1 O6 2.172473 1_555
In1 O30 2.187062 1_455
In1 O29 2.187062 1_565
In2 O25 2.148861 1_555
In2 O24 2.148861 1_554
In2 O9 2.173106 1_555
In2 O8 2.173106 1_554
In2 O12 2.214372 1_554
In2 O13 2.214372 1_555
In3 O27 2.148861 1_555
In3 O26 2.148861 1_555
In3 O11 2.173106 1_555
In3 O10 2.173106 1_555
In3 O15 2.214372 1_555
In3 O14 2.214372 1_555
O0 P1 1.541210 1_556
O0 Sr0 2.615579 1_566
O1 P0 1.541210 1_554
O1 Sr0 2.615579 1_655
O2 P3 1.541210 1_555
O2 Sr1 2.615579 1_545
O3 P2 1.541210 1_555
O3 Sr1 2.615579 1_455
O4 P3 1.559867 1_555
O4 Sr1 2.752357 1_545
O5 P2 1.559867 1_555
O5 Sr1 2.752357 1_455
O6 P1 1.559867 1_555
O6 Sr0 2.752357 1_565
O7 P0 1.559867 1_555
O7 Sr0 2.752357 1_656
O8 P0 1.543782 1_565
O9 P1 1.543782 1_655
O10 P2 1.543782 1_545
O11 P3 1.543782 1_455
O12 P0 1.553283 1_555
O12 Sr0 2.622684 1_556
O13 P1 1.553283 1_555
O13 Sr0 2.622684 1_555
O14 P2 1.553283 1_555
O14 Sr1 2.622684 1_555
O15 P3 1.553283 1_555
O15 Sr1 2.622684 1_555
O16 P4 1.533059 1_555
O17 P5 1.533059 1_555
O18 P6 1.533059 1_555
O19 P7 1.533059 1_555
O20 P7 1.555463 1_555
O20 Sr1 2.606698 1_555
O21 P6 1.555463 1_555
O21 Sr1 2.606698 1_555
O22 P5 1.555463 1_555
O22 Sr0 2.606698 1_555
O23 P4 1.555463 1_555
O23 Sr0 2.606698 1_556
O24 P7 1.533757 1_555
O25 P6 1.533757 1_555
O26 P5 1.533757 1_555
O27 P4 1.533757 1_555
O28 P4 1.546737 1_555
O29 P5 1.546737 1_555
O30 P6 1.546737 1_555
O31 P7 1.546737 1_555
