# generated using pymatgen
data_Li5Mn2CoO8
_symmetry_space_group_name_H-M   'P 1'
_cell_length_a   4.98010600
_cell_length_b   5.12676801
_cell_length_c   5.85154230
_cell_angle_alpha   107.79764418
_cell_angle_beta   89.25598631
_cell_angle_gamma   99.96188447
_symmetry_Int_Tables_number   1
_chemical_formula_structural   Li5Mn2CoO8
_chemical_formula_sum   'Li5 Mn2 Co1 O8'
_cell_volume   139.97914469
_cell_formula_units_Z   1
loop_
 _symmetry_equiv_pos_site_id
 _symmetry_equiv_pos_as_xyz
  1  'x, y, z'
loop_
 _atom_site_type_symbol
 _atom_site_label
 _atom_site_symmetry_multiplicity
 _atom_site_fract_x
 _atom_site_fract_y
 _atom_site_fract_z
 _atom_site_occupancy
  Li  Li0  1  0.24153200  0.50563400  0.38730600  1
  Li  Li1  1  0.75737200  0.49557300  0.62125000  1
  Li  Li2  1  0.24489800  0.49349200  0.86367800  1
  Li  Li3  1  0.75866700  0.50059800  0.12736500  1
  Li  Li4  1  0.99966800  0.00243100  0.50231000  1
  Mn  Mn0  1  0.99904300  0.99661900  0.99989300  1
  Mn  Mn1  1  0.49991800  0.00253600  0.25773000  1
  Co  Co0  1  0.49255800  0.00285500  0.74295700  1
  O  O0  1  0.39129400  0.24340300  0.54469400  1
  O  O1  1  0.86282100  0.21285600  0.82321700  1
  O  O2  1  0.36749900  0.21554600  0.05389900  1
  O  O3  1  0.86280200  0.22823200  0.29321600  1
  O  O4  1  0.14049600  0.77916600  0.17794400  1
  O  O5  1  0.60023500  0.78142900  0.43794700  1
  O  O6  1  0.13736300  0.77129500  0.70713900  1
  O  O7  1  0.64383500  0.76833600  0.95945500  1
loop_
_geom_bond_atom_site_label_1
_geom_bond_atom_site_label_2
_geom_bond_distance
_geom_bond_site_symmetry_2
Li0 O5 2.040071 1_555
Li0 O6 2.070681 1_555
Li0 O0 2.081703 1_555
Li0 O3 2.122117 1_455
Li0 O2 2.220099 1_555
Li0 O4 2.242975 1_555
Li1 O0 2.011834 1_555
Li1 O3 2.110270 1_555
Li1 O6 2.120565 1_655
Li1 O7 2.178179 1_555
Li1 O1 2.258302 1_555
Li1 O5 2.300033 1_555
Li2 O6 2.056313 1_555
Li2 O4 2.095050 1_556
Li2 O0 2.117672 1_555
Li2 O1 2.145446 1_455
Li2 O7 2.196432 1_555
Li2 O2 2.220485 1_556
Li3 O1 2.061184 1_554
Li3 O3 2.062192 1_555
Li3 O7 2.070545 1_554
Li3 O4 2.135354 1_655
Li3 O5 2.180494 1_555
Li3 O2 2.183605 1_555
Li4 O1 2.034002 1_555
Li4 O4 2.078384 1_645
Li4 O5 2.088392 1_545
Li4 O0 2.093605 1_655
Li4 O3 2.112395 1_555
Li4 O6 2.117001 1_645
Mn0 O7 1.918401 1_555
Mn0 O1 1.933147 1_565
Mn0 O6 1.943833 1_655
Mn0 O2 1.952518 1_666
Mn0 O3 1.954209 1_566
Mn0 O4 1.955869 1_656
Mn1 O0 1.891329 1_555
Mn1 O5 1.893940 1_545
Mn1 O4 1.928470 1_545
Mn1 O3 1.946106 1_555
Mn1 O7 1.996451 1_544
Mn1 O2 2.028769 1_555
Co0 O5 1.925841 1_545
Co0 O6 1.926984 1_545
Co0 O1 1.950990 1_555
Co0 O2 1.969806 1_556
Co0 O0 2.055753 1_555
Co0 O7 2.210739 1_545
