# generated using pymatgen
data_HfCrAgS4
_symmetry_space_group_name_H-M   'P 1'
_cell_length_a   11.34383000
_cell_length_b   3.59847400
_cell_length_c   13.09653100
_cell_angle_alpha   90.00000000
_cell_angle_beta   90.00000000
_cell_angle_gamma   90.00000000
_symmetry_Int_Tables_number   1
_chemical_formula_structural   HfCrAgS4
_chemical_formula_sum   'Hf4 Cr4 Ag4 S16'
_cell_volume   534.60664660
_cell_formula_units_Z   4
loop_
 _symmetry_equiv_pos_site_id
 _symmetry_equiv_pos_as_xyz
  1  'x, y, z'
loop_
 _atom_site_type_symbol
 _atom_site_label
 _atom_site_symmetry_multiplicity
 _atom_site_fract_x
 _atom_site_fract_y
 _atom_site_fract_z
 _atom_site_occupancy
  Hf  Hf0  1  0.93733500  0.75000000  0.89886400  1
  Hf  Hf1  1  0.56266500  0.25000000  0.39886400  1
  Hf  Hf2  1  0.08845300  0.25000000  0.58868800  1
  Hf  Hf3  1  0.41154700  0.75000000  0.08868800  1
  Cr  Cr0  1  0.05057900  0.25000000  0.11883600  1
  Cr  Cr1  1  0.44942100  0.75000000  0.61883600  1
  Cr  Cr2  1  0.92498700  0.75000000  0.40154200  1
  Cr  Cr3  1  0.57501300  0.25000000  0.90154200  1
  Ag  Ag0  1  0.24139500  0.25000000  0.31591400  1
  Ag  Ag1  1  0.75597500  0.75000000  0.67033600  1
  Ag  Ag2  1  0.25860500  0.75000000  0.81591400  1
  Ag  Ag3  1  0.74402500  0.25000000  0.17033600  1
  S  S0  1  0.03562700  0.75000000  0.71656700  1
  S  S1  1  0.96791200  0.25000000  0.28941700  1
  S  S2  1  0.46437300  0.25000000  0.21656700  1
  S  S3  1  0.53208800  0.75000000  0.78941700  1
  S  S4  1  0.08780500  0.25000000  0.93705600  1
  S  S5  1  0.90928000  0.75000000  0.08551900  1
  S  S6  1  0.41219500  0.75000000  0.43705600  1
  S  S7  1  0.59072000  0.25000000  0.58551900  1
  S  S8  1  0.12596000  0.75000000  0.45846700  1
  S  S9  1  0.88097000  0.25000000  0.52245900  1
  S  S10  1  0.37404000  0.25000000  0.95846700  1
  S  S11  1  0.61903000  0.75000000  0.02245900  1
  S  S12  1  0.19205700  0.75000000  0.15084900  1
  S  S13  1  0.78981600  0.25000000  0.84548700  1
  S  S14  1  0.30794300  0.25000000  0.65084900  1
  S  S15  1  0.71018400  0.75000000  0.34548700  1
loop_
_geom_bond_atom_site_label_1
_geom_bond_atom_site_label_2
_geom_bond_distance
_geom_bond_site_symmetry_2
Hf0 S5 2.465162 1_556
Hf0 S4 2.530013 1_655
Hf0 S4 2.530013 1_665
Hf0 S13 2.554662 1_565
Hf0 S13 2.554662 1_555
Hf0 S0 2.634995 1_655
Hf1 S7 2.465162 1_555
Hf1 S6 2.530013 1_555
Hf1 S6 2.530013 1_545
Hf1 S15 2.554662 1_545
Hf1 S15 2.554662 1_555
Hf1 S2 2.634995 1_555
Hf2 S9 2.508388 1_455
Hf2 S8 2.515317 1_545
Hf2 S8 2.515317 1_555
Hf2 S0 2.530062 1_555
Hf2 S0 2.530062 1_545
Hf2 S14 2.619568 1_555
Hf3 S11 2.508388 1_555
Hf3 S10 2.515317 1_554
Hf3 S10 2.515317 1_564
Hf3 S2 2.530062 1_555
Hf3 S2 2.530062 1_565
Hf3 S12 2.619568 1_555
Cr0 S4 2.417850 1_554
Cr0 S1 2.422857 1_455
Cr0 S12 2.447191 1_545
Cr0 S12 2.447191 1_555
Cr0 S5 2.448845 1_455
Cr0 S5 2.448845 1_445
Cr1 S6 2.417850 1_555
Cr1 S3 2.422857 1_555
Cr1 S14 2.447191 1_555
Cr1 S14 2.447191 1_565
Cr1 S7 2.448845 1_555
Cr1 S7 2.448845 1_565
Cr2 S1 2.372910 1_555
Cr2 S1 2.372910 1_565
Cr2 S8 2.398605 1_655
Cr2 S9 2.448335 1_565
Cr2 S9 2.448335 1_555
Cr2 S15 2.544876 1_555
Cr3 S3 2.372910 1_555
Cr3 S3 2.372910 1_545
Cr3 S10 2.398605 1_555
Cr3 S11 2.448335 1_546
Cr3 S11 2.448335 1_556
Cr3 S13 2.544876 1_555
Ag0 S2 2.844442 1_555
Ag0 S12 2.867714 1_555
Ag0 S12 2.867714 1_545
Ag0 S8 2.904734 1_555
Ag0 S8 2.904734 1_545
Ag0 S6 3.083565 1_555
Ag0 S6 3.083565 1_545
Ag0 S1 3.121693 1_455
Ag1 S7 2.825839 1_555
Ag1 S7 2.825839 1_565
Ag1 S13 2.940487 1_565
Ag1 S13 2.940487 1_555
Ag1 S3 2.980344 1_555
Ag1 S9 2.999745 1_555
Ag1 S9 2.999745 1_565
Ag2 S0 2.844442 1_555
Ag2 S14 2.867714 1_555
Ag2 S14 2.867714 1_565
Ag2 S10 2.904734 1_565
Ag2 S10 2.904734 1_555
Ag2 S4 3.083565 1_555
Ag2 S4 3.083565 1_565
Ag2 S3 3.121693 1_555
Ag3 S5 2.825839 1_545
Ag3 S5 2.825839 1_555
Ag3 S15 2.940487 1_555
Ag3 S15 2.940487 1_545
Ag3 S1 2.980344 1_555
Ag3 S11 2.999745 1_545
Ag3 S11 2.999745 1_555
