# generated using pymatgen
data_CoSn(OF)6
_symmetry_space_group_name_H-M   'P 1'
_cell_length_a   7.08020483
_cell_length_b   8.48018639
_cell_length_c   8.46061236
_cell_angle_alpha   98.25305964
_cell_angle_beta   113.33619677
_cell_angle_gamma   113.49724492
_symmetry_Int_Tables_number   1
_chemical_formula_structural   CoSn(OF)6
_chemical_formula_sum   'Co2 Sn2 O12 F12'
_cell_volume   399.39937826
_cell_formula_units_Z   2
loop_
 _symmetry_equiv_pos_site_id
 _symmetry_equiv_pos_as_xyz
  1  'x, y, z'
loop_
 _atom_site_type_symbol
 _atom_site_label
 _atom_site_symmetry_multiplicity
 _atom_site_fract_x
 _atom_site_fract_y
 _atom_site_fract_z
 _atom_site_occupancy
  Co  Co0  1  0.00000000  0.50000000  0.50000000  1
  Co  Co1  1  0.00000000  0.00000000  0.00000000  1
  Sn  Sn0  1  0.49918800  0.24774300  0.74859100  1
  Sn  Sn1  1  0.50081200  0.75225700  0.25140900  1
  O  O0  1  0.73149500  0.48765800  0.48106000  1
  O  O1  1  0.26850500  0.51234200  0.51894000  1
  O  O2  1  0.29609800  0.04957600  0.05625600  1
  O  O3  1  0.70390200  0.95042400  0.94374400  1
  O  O4  1  0.03722000  0.66995900  0.39150900  1
  O  O5  1  0.96278000  0.33004100  0.60849100  1
  O  O6  1  0.93922100  0.93659700  0.76317700  1
  O  O7  1  0.06077900  0.06340300  0.23682300  1
  O  O8  1  0.06571500  0.23460000  0.03579800  1
  O  O9  1  0.93428500  0.76540000  0.96420200  1
  O  O10  1  0.88837000  0.31914400  0.29261100  1
  O  O11  1  0.11163000  0.68085600  0.70738900  1
  F  F0  1  0.84500200  0.33534000  0.82816900  1
  F  F1  1  0.15499800  0.66466000  0.17183100  1
  F  F2  1  0.15403500  0.15973000  0.66863500  1
  F  F3  1  0.84596500  0.84027000  0.33136500  1
  F  F4  1  0.54783000  0.50363800  0.78351200  1
  F  F5  1  0.45217000  0.49636200  0.21648800  1
  F  F6  1  0.43967400  0.21889500  0.48856400  1
  F  F7  1  0.56032600  0.78110500  0.51143600  1
  F  F8  1  0.57721800  0.28846600  0.01178800  1
  F  F9  1  0.42278200  0.71153400  0.98821200  1
  F  F10  1  0.42926500  0.98613200  0.70238600  1
  F  F11  1  0.57073500  0.01386800  0.29761400  1
loop_
_geom_bond_atom_site_label_1
_geom_bond_atom_site_label_2
_geom_bond_distance
_geom_bond_site_symmetry_2
Co0 O10 1.793812 1_455
Co0 O11 1.793812 1_555
Co0 O0 1.801632 1_455
Co0 O1 1.801632 1_555
Co0 O4 1.804955 1_555
Co0 O5 1.804955 1_455
Co1 O8 1.800940 1_555
Co1 O9 1.800940 1_444
Co1 O2 1.802093 1_555
Co1 O3 1.802093 1_444
Co1 O6 1.819907 1_444
Co1 O7 1.819907 1_555
F0 Sn0 2.024852 1_555
F1 Sn1 2.024852 1_555
F2 Sn0 2.019291 1_555
F3 Sn1 2.019291 1_555
F4 Sn0 2.013539 1_555
F5 Sn1 2.013539 1_555
F6 Sn0 2.026378 1_555
F7 Sn1 2.026378 1_555
F8 Sn0 2.008876 1_554
F9 Sn1 2.008876 1_556
F10 Sn0 2.010368 1_565
F11 Sn1 2.010368 1_545
