# generated using pymatgen
data_Li7Mn2(CoO4)3
_symmetry_space_group_name_H-M   'P 1'
_cell_length_a   2.90743000
_cell_length_b   8.35749026
_cell_length_c   9.84903890
_cell_angle_alpha   114.84806429
_cell_angle_beta   91.86213369
_cell_angle_gamma   89.89791976
_symmetry_Int_Tables_number   1
_chemical_formula_structural   Li7Mn2(CoO4)3
_chemical_formula_sum   'Li7 Mn2 Co3 O12'
_cell_volume   217.03174024
_cell_formula_units_Z   1
loop_
 _symmetry_equiv_pos_site_id
 _symmetry_equiv_pos_as_xyz
  1  'x, y, z'
loop_
 _atom_site_type_symbol
 _atom_site_label
 _atom_site_symmetry_multiplicity
 _atom_site_fract_x
 _atom_site_fract_y
 _atom_site_fract_z
 _atom_site_occupancy
  Li  Li0  1  0.00661800  0.85563900  0.66989100  1
  Li  Li1  1  0.53159100  0.32747000  0.14995200  1
  Li  Li2  1  0.48214600  0.00722500  0.50594000  1
  Li  Li3  1  0.01078300  0.47926900  0.98588600  1
  Li  Li4  1  0.97085300  0.16823800  0.34308900  1
  Li  Li5  1  0.49308100  0.66240100  0.83825800  1
  Li  Li6  1  0.49518100  0.17243000  0.83875300  1
  Mn  Mn0  1  0.01709200  0.00911000  0.99747700  1
  Mn  Mn1  1  0.48357800  0.49889900  0.50291400  1
  Co  Co0  1  0.98861900  0.66878000  0.33290900  1
  Co  Co1  1  0.99363200  0.31394300  0.67613600  1
  Co  Co2  1  0.51290700  0.83027700  0.16358100  1
  O  O0  1  0.50594900  0.92378900  0.85330100  1
  O  O1  1  0.97354300  0.42996200  0.35539700  1
  O  O2  1  0.99420400  0.09155000  0.65926400  1
  O  O3  1  0.51235300  0.59170700  0.18003600  1
  O  O4  1  0.48394800  0.27316300  0.50570100  1
  O  O5  1  0.02905100  0.76827000  0.01170200  1
  O  O6  1  0.47421700  0.73107300  0.49061100  1
  O  O7  1  0.01535000  0.23006500  0.00169900  1
  O  O8  1  0.99601500  0.90599800  0.31849200  1
  O  O9  1  0.50418800  0.41680600  0.82404400  1
  O  O10  1  0.52983600  0.07071400  0.14767200  1
  O  O11  1  0.99526400  0.57322200  0.64729400  1
loop_
_geom_bond_atom_site_label_1
_geom_bond_atom_site_label_2
_geom_bond_distance
_geom_bond_site_symmetry_2
Li0 O2 2.018041 1_465
Li0 O6 2.157768 1_555
Li0 O0 2.159396 1_555
Li0 O6 2.209273 1_455
Li0 O0 2.238241 1_455
Li0 O11 2.275949 1_455
Li1 O7 1.975696 1_655
Li1 O7 1.977495 1_555
Li1 O3 2.102019 1_555
Li1 O10 2.136510 1_555
Li1 O1 2.203950 1_555
Li1 O1 2.492435 1_455
Li2 O2 1.989150 1_555
Li2 O2 2.007709 1_455
Li2 O8 2.154953 1_445
Li2 O4 2.223580 1_555
Li2 O6 2.248783 1_545
Li2 O8 2.284376 1_545
Li3 O9 2.033113 1_455
Li3 O9 2.077939 1_555
Li3 O7 2.152796 1_556
Li3 O3 2.231501 1_556
Li3 O3 2.303179 1_456
Li3 O5 2.320497 1_556
Li4 O4 2.056331 1_655
Li4 O4 2.073800 1_555
Li4 O8 2.102810 1_545
Li4 O10 2.130193 1_555
Li4 O1 2.139261 1_555
Li4 O10 2.426960 1_655
Li5 O9 1.998049 1_555
Li5 O5 2.096765 1_556
Li5 O0 2.126856 1_555
Li5 O5 2.165856 1_656
Li5 O11 2.199237 1_455
Li5 O11 2.284997 1_555
Li6 O7 2.060889 1_556
Li6 O7 2.071231 1_656
Li6 O9 2.107617 1_555
Li6 O2 2.129663 1_455
Li6 O0 2.142281 1_545
Li6 O2 2.201357 1_555
Mn0 O7 1.829546 1_556
Mn0 O0 1.936243 1_445
Mn0 O0 1.954884 1_545
Mn0 O10 1.973590 1_556
Mn0 O10 1.988412 1_456
Mn0 O5 2.075743 1_546
Mn1 O4 1.898282 1_555
Mn1 O11 1.935104 1_555
Mn1 O1 1.949705 1_455
Mn1 O11 1.951746 1_455
Mn1 O1 1.974906 1_555
Mn1 O6 1.994429 1_555
Co0 O3 1.911000 1_555
Co0 O6 1.964007 1_655
Co0 O8 2.046474 1_555
Co0 O3 2.081105 1_655
Co0 O6 2.094969 1_555
Co0 O1 2.099318 1_555
Co1 O2 1.795166 1_555
Co1 O9 1.968793 1_655
Co1 O9 1.990988 1_555
Co1 O4 2.118771 1_555
Co1 O4 2.153861 1_655
Co1 O11 2.300807 1_555
Co2 O5 1.923416 1_555
Co2 O8 1.937436 1_555
Co2 O5 2.061490 1_655
Co2 O3 2.067194 1_555
Co2 O8 2.078695 1_455
Co2 O10 2.080945 1_565
