# generated using pymatgen
data_PmNdZn2
_symmetry_space_group_name_H-M   'P 1'
_cell_length_a   5.16378291
_cell_length_b   5.16378291
_cell_length_c   5.16378291
_cell_angle_alpha   60.00000000
_cell_angle_beta   60.00000000
_cell_angle_gamma   60.00000000
_symmetry_Int_Tables_number   1
_chemical_formula_structural   PmNdZn2
_chemical_formula_sum   'Pm1 Nd1 Zn2'
_cell_volume   97.36187499
_cell_formula_units_Z   1
loop_
 _symmetry_equiv_pos_site_id
 _symmetry_equiv_pos_as_xyz
  1  'x, y, z'
loop_
 _atom_site_type_symbol
 _atom_site_label
 _atom_site_symmetry_multiplicity
 _atom_site_fract_x
 _atom_site_fract_y
 _atom_site_fract_z
 _atom_site_occupancy
  Pm  Pm0  1  0.00000000  -0.00000000  -0.00000000  1
  Nd  Nd0  1  0.50000000  0.50000000  0.50000000  1
  Zn  Zn0  1  0.25000000  0.25000000  0.25000000  1
  Zn  Zn1  1  0.75000000  0.75000000  0.75000000  1
loop_
_geom_bond_atom_site_label_1
_geom_bond_atom_site_label_2
_geom_bond_distance
_geom_bond_site_symmetry_2
Pm0 Zn0 3.162158 1_455
Pm0 Zn1 3.162158 1_444
Pm0 Zn0 3.162158 1_545
Pm0 Zn0 3.162158 1_555
Pm0 Zn0 3.162158 1_554
Pm0 Zn1 3.162158 1_445
Pm0 Zn1 3.162158 1_454
Pm0 Zn1 3.162158 1_544
Nd0 Zn1 3.162158 1_554
Nd0 Zn0 3.162158 1_555
Nd0 Zn0 3.162158 1_556
Nd0 Zn1 3.162158 1_555
Nd0 Zn1 3.162158 1_455
Nd0 Zn1 3.162158 1_545
Nd0 Zn0 3.162158 1_565
Nd0 Zn0 3.162158 1_655
