# generated using pymatgen
data_SiAg5O4
_symmetry_space_group_name_H-M   'P 1'
_cell_length_a   6.39625600
_cell_length_b   9.23085200
_cell_length_c   10.04700500
_cell_angle_alpha   90.00000000
_cell_angle_beta   90.00000000
_cell_angle_gamma   90.00000000
_symmetry_Int_Tables_number   1
_chemical_formula_structural   SiAg5O4
_chemical_formula_sum   'Si4 Ag20 O16'
_cell_volume   593.20423606
_cell_formula_units_Z   4
loop_
 _symmetry_equiv_pos_site_id
 _symmetry_equiv_pos_as_xyz
  1  'x, y, z'
loop_
 _atom_site_type_symbol
 _atom_site_label
 _atom_site_symmetry_multiplicity
 _atom_site_fract_x
 _atom_site_fract_y
 _atom_site_fract_z
 _atom_site_occupancy
  Si  Si0  1  0.50000000  0.23906500  0.11658900  1
  Si  Si1  1  0.50000000  0.76093500  0.88341100  1
  Si  Si2  1  0.00000000  0.26093500  0.61658900  1
  Si  Si3  1  0.00000000  0.73906500  0.38341100  1
  Ag  Ag0  1  0.25514300  0.39220900  0.37667600  1
  Ag  Ag1  1  0.25514300  0.60779100  0.62332400  1
  Ag  Ag2  1  0.24485700  0.10779100  0.87667600  1
  Ag  Ag3  1  0.24485700  0.89220900  0.12332400  1
  Ag  Ag4  1  0.74485700  0.60779100  0.62332400  1
  Ag  Ag5  1  0.74485700  0.39220900  0.37667600  1
  Ag  Ag6  1  0.75514300  0.89220900  0.12332400  1
  Ag  Ag7  1  0.75514300  0.10779100  0.87667600  1
  Ag  Ag8  1  0.27882400  0.06644900  0.37718400  1
  Ag  Ag9  1  0.27882400  0.93355100  0.62281600  1
  Ag  Ag10  1  0.22117600  0.43355100  0.87718400  1
  Ag  Ag11  1  0.22117600  0.56644900  0.12281600  1
  Ag  Ag12  1  0.72117600  0.93355100  0.62281600  1
  Ag  Ag13  1  0.72117600  0.06644900  0.37718400  1
  Ag  Ag14  1  0.77882400  0.56644900  0.12281600  1
  Ag  Ag15  1  0.77882400  0.43355100  0.87718400  1
  Ag  Ag16  1  0.50000000  0.79823900  0.40387500  1
  Ag  Ag17  1  0.50000000  0.20176100  0.59612500  1
  Ag  Ag18  1  0.00000000  0.70176100  0.90387500  1
  Ag  Ag19  1  0.00000000  0.29823900  0.09612500  1
  O  O0  1  0.00000000  0.22859600  0.45263500  1
  O  O1  1  0.00000000  0.77140400  0.54736500  1
  O  O2  1  0.50000000  0.27140400  0.95263500  1
  O  O3  1  0.50000000  0.72859600  0.04736500  1
  O  O4  1  0.00000000  0.89368200  0.29808600  1
  O  O5  1  0.00000000  0.10631800  0.70191400  1
  O  O6  1  0.50000000  0.60631800  0.79808600  1
  O  O7  1  0.50000000  0.39368200  0.20191400  1
  O  O8  1  0.28320600  0.14661100  0.15122300  1
  O  O9  1  0.28320600  0.85338900  0.84877700  1
  O  O10  1  0.21679400  0.35338900  0.65122300  1
  O  O11  1  0.21679400  0.64661100  0.34877700  1
  O  O12  1  0.71679400  0.85338900  0.84877700  1
  O  O13  1  0.71679400  0.14661100  0.15122300  1
  O  O14  1  0.78320600  0.64661100  0.34877700  1
  O  O15  1  0.78320600  0.35338900  0.65122300  1
loop_
_geom_bond_atom_site_label_1
_geom_bond_atom_site_label_2
_geom_bond_distance
_geom_bond_site_symmetry_2
Ag0 O0 2.350888 1_555
Ag0 O7 2.352875 1_555
Ag0 O11 2.377703 1_555
Ag1 O1 2.350888 1_555
Ag1 O6 2.352875 1_555
Ag1 O10 2.377703 1_555
Ag2 O2 2.350888 1_555
Ag2 O5 2.352875 1_555
Ag2 O9 2.377703 1_545
Ag3 O3 2.350888 1_555
Ag3 O4 2.352875 1_555
Ag3 O8 2.377703 1_565
Ag4 O1 2.350888 1_655
Ag4 O6 2.352875 1_555
Ag4 O15 2.377703 1_555
Ag5 O0 2.350888 1_655
Ag5 O7 2.352875 1_555
Ag5 O14 2.377703 1_555
Ag6 O3 2.350888 1_555
Ag6 O4 2.352875 1_655
Ag6 O13 2.377703 1_565
Ag7 O2 2.350888 1_555
Ag7 O5 2.352875 1_655
Ag7 O12 2.377703 1_545
Ag8 O8 2.387945 1_555
Ag8 O0 2.448581 1_555
Ag8 O4 2.521014 1_545
Ag9 O9 2.387945 1_555
Ag9 O1 2.448581 1_555
Ag9 O5 2.521014 1_565
Ag10 O10 2.387945 1_555
Ag10 O2 2.448581 1_555
Ag10 O6 2.521014 1_555
Ag11 O11 2.387945 1_555
Ag11 O3 2.448581 1_555
Ag11 O7 2.521014 1_555
Ag12 O12 2.387945 1_555
Ag12 O1 2.448581 1_655
Ag12 O5 2.521014 1_665
Ag13 O13 2.387945 1_555
Ag13 O0 2.448581 1_655
Ag13 O4 2.521014 1_645
Ag14 O14 2.387945 1_555
Ag14 O3 2.448581 1_555
Ag14 O7 2.521014 1_555
Ag15 O15 2.387945 1_555
Ag15 O2 2.448581 1_555
Ag15 O6 2.521014 1_555
Ag16 O14 2.355176 1_555
Ag16 O11 2.355176 1_555
Ag17 O10 2.355176 1_555
Ag17 O15 2.355176 1_555
Ag18 O9 2.355176 1_555
Ag18 O12 2.355176 1_455
Ag19 O8 2.355176 1_555
Ag19 O13 2.355176 1_455
O0 Si2 1.674077 1_555
O1 Si3 1.674077 1_555
O2 Si0 1.674077 1_556
O3 Si1 1.674077 1_554
O4 Si3 1.664911 1_555
O5 Si2 1.664911 1_555
O6 Si1 1.664911 1_555
O7 Si0 1.664911 1_555
O8 Si0 1.665015 1_555
O9 Si1 1.665015 1_555
O10 Si2 1.665015 1_555
O11 Si3 1.665015 1_555
O12 Si1 1.665015 1_555
O13 Si0 1.665015 1_555
O14 Si3 1.665015 1_655
O15 Si2 1.665015 1_655
