# generated using pymatgen
data_CoRe3H22(N3O7)2
_symmetry_space_group_name_H-M   'P 1'
_cell_length_a   8.32434464
_cell_length_b   8.32434464
_cell_length_c   15.44555684
_cell_angle_alpha   97.55560612
_cell_angle_beta   97.55560612
_cell_angle_gamma   103.01180888
_symmetry_Int_Tables_number   1
_chemical_formula_structural   CoRe3H22(N3O7)2
_chemical_formula_sum   'Co2 Re6 H44 N12 O28'
_cell_volume   1019.28033177
_cell_formula_units_Z   2
loop_
 _symmetry_equiv_pos_site_id
 _symmetry_equiv_pos_as_xyz
  1  'x, y, z'
loop_
 _atom_site_type_symbol
 _atom_site_label
 _atom_site_symmetry_multiplicity
 _atom_site_fract_x
 _atom_site_fract_y
 _atom_site_fract_z
 _atom_site_occupancy
  Co  Co0  1  0.00000000  0.50000000  0.00000000  1
  Co  Co1  1  0.50000000  0.00000000  0.50000000  1
  Re  Re0  1  0.13685900  0.43260300  0.63966700  1
  Re  Re1  1  0.56739700  0.86314100  0.86033300  1
  Re  Re2  1  0.86314100  0.56739700  0.36033300  1
  Re  Re3  1  0.43260300  0.13685900  0.13966700  1
  Re  Re4  1  0.04249700  0.95750300  0.75000000  1
  Re  Re5  1  0.95750300  0.04249700  0.25000000  1
  H  H0  1  0.59145900  0.55956500  0.68209300  1
  H  H1  1  0.44043500  0.40854100  0.81790700  1
  H  H2  1  0.40854100  0.44043500  0.31790700  1
  H  H3  1  0.55956500  0.59145900  0.18209300  1
  H  H4  1  0.73271500  0.48763100  0.64477500  1
  H  H5  1  0.51236900  0.26728500  0.85522500  1
  H  H6  1  0.26728500  0.51236900  0.35522500  1
  H  H7  1  0.48763100  0.73271500  0.14477500  1
  H  H8  1  0.20026000  0.34518900  0.93952600  1
  H  H9  1  0.65481100  0.79974000  0.56047400  1
  H  H10  1  0.79974000  0.65481100  0.06047400  1
  H  H11  1  0.34518900  0.20026000  0.43952600  1
  H  H12  1  0.77620400  0.42218300  0.86023800  1
  H  H13  1  0.57781700  0.22379600  0.63976200  1
  H  H14  1  0.22379600  0.57781700  0.13976200  1
  H  H15  1  0.42218300  0.77620400  0.36023800  1
  H  H16  1  0.09599300  0.81538000  0.04489200  1
  H  H17  1  0.18462000  0.90400700  0.45510800  1
  H  H18  1  0.90400700  0.18462000  0.95510800  1
  H  H19  1  0.81538000  0.09599300  0.54489200  1
  H  H20  1  0.93124300  0.33113000  0.84536700  1
  H  H21  1  0.66887000  0.06875700  0.65463300  1
  H  H22  1  0.06875700  0.66887000  0.15463300  1
  H  H23  1  0.33113000  0.93124300  0.34536700  1
  H  H24  1  0.25652500  0.54173200  0.92451200  1
  H  H25  1  0.45826800  0.74347500  0.57548800  1
  H  H26  1  0.74347500  0.45826800  0.07548800  1
  H  H27  1  0.54173200  0.25652500  0.42451200  1
  H  H28  1  0.16568200  0.76268900  0.95248600  1
  H  H29  1  0.23731100  0.83431800  0.54751400  1
  H  H30  1  0.83431800  0.23731100  0.04751400  1
  H  H31  1  0.76268900  0.16568200  0.45248600  1
  H  H32  1  0.30728300  0.49228500  0.02277000  1
  H  H33  1  0.50771500  0.69271700  0.47723000  1
  H  H34  1  0.69271700  0.50771500  0.97723000  1
  H  H35  1  0.49228500  0.30728300  0.52277000  1
  H  H36  1  0.95287400  0.53089300  0.83685800  1
  H  H37  1  0.46910700  0.04712600  0.66314200  1
  H  H38  1  0.04712600  0.46910700  0.16314200  1
  H  H39  1  0.53089300  0.95287400  0.33685800  1
  H  H40  1  0.96640500  0.76877800  0.94986400  1
  H  H41  1  0.23122200  0.03359500  0.55013600  1
  H  H42  1  0.03359500  0.23122200  0.05013600  1
  H  H43  1  0.76877800  0.96640500  0.44986400  1
  N  N0  1  0.06498100  0.73679300  0.98504700  1
  N  N1  1  0.26320700  0.93501900  0.51495300  1
  N  N2  1  0.93501900  0.26320700  0.01495300  1
  N  N3  1  0.73679300  0.06498100  0.48504700  1
  N  N4  1  0.90458100  0.43993700  0.87199700  1
  N  N5  1  0.56006300  0.09541900  0.62800300  1
  N  N6  1  0.09541900  0.56006300  0.12800300  1
  N  N7  1  0.43993700  0.90458100  0.37199700  1
  N  N8  1  0.21378200  0.46660200  0.96852300  1
  N  N9  1  0.53339800  0.78621800  0.53147700  1
  N  N10  1  0.78621800  0.53339800  0.03147700  1
  N  N11  1  0.46660200  0.21378200  0.46852300  1
  O  O0  1  0.99614200  0.75622800  0.77757600  1
  O  O1  1  0.24377200  0.00385800  0.72242400  1
  O  O2  1  0.00385800  0.24377200  0.22242400  1
  O  O3  1  0.75622800  0.99614200  0.27757600  1
  O  O4  1  0.61100200  0.46995900  0.63961200  1
  O  O5  1  0.53004100  0.38899800  0.86038800  1
  O  O6  1  0.38899800  0.53004100  0.36038800  1
  O  O7  1  0.46995900  0.61100200  0.13961200  1
  O  O8  1  0.91846100  0.38746600  0.63401600  1
  O  O9  1  0.61253400  0.08153900  0.86598400  1
  O  O10  1  0.08153900  0.61253400  0.36598400  1
  O  O11  1  0.38746600  0.91846100  0.13401600  1
  O  O12  1  0.18679700  0.27090400  0.57191400  1
  O  O13  1  0.72909600  0.81320300  0.92808600  1
  O  O14  1  0.81320300  0.72909600  0.42808600  1
  O  O15  1  0.27090400  0.18679700  0.07191400  1
  O  O16  1  0.20817400  0.62218400  0.60229200  1
  O  O17  1  0.37781600  0.79182600  0.89770800  1
  O  O18  1  0.79182600  0.37781600  0.39770800  1
  O  O19  1  0.62218400  0.20817400  0.10229200  1
  O  O20  1  0.23193000  0.44262200  0.74923400  1
  O  O21  1  0.55737800  0.76807000  0.75076600  1
  O  O22  1  0.76807000  0.55737800  0.25076600  1
  O  O23  1  0.44262200  0.23193000  0.24923400  1
  O  O24  1  0.89543000  0.96730800  0.65916500  1
  O  O25  1  0.03269200  0.10457000  0.84083500  1
  O  O26  1  0.10457000  0.03269200  0.34083500  1
  O  O27  1  0.96730800  0.89543000  0.15916500  1
loop_
_geom_bond_atom_site_label_1
_geom_bond_atom_site_label_2
_geom_bond_distance
_geom_bond_site_symmetry_2
Co0 N10 1.973676 1_455
Co0 N8 1.973676 1_554
Co0 N0 1.975804 1_554
Co0 N2 1.975804 1_455
Co0 N6 1.984432 1_555
Co0 N4 1.984432 1_454
Co1 N9 1.973676 1_545
Co1 N11 1.973676 1_555
Co1 N3 1.975804 1_555
Co1 N1 1.975804 1_545
Co1 N5 1.984432 1_555
Co1 N7 1.984432 1_545
H0 O4 0.983554 1_555
H1 O5 0.983554 1_555
H2 O6 0.983554 1_555
H3 O7 0.983554 1_555
H4 O4 0.981370 1_555
H5 O5 0.981370 1_555
H6 O6 0.981370 1_555
H7 O7 0.981370 1_555
H8 N8 1.025289 1_555
H9 N9 1.025289 1_555
H10 N10 1.025289 1_555
H11 N11 1.025289 1_555
H12 N4 1.033262 1_555
H13 N5 1.033262 1_555
H14 N6 1.033262 1_555
H15 N7 1.033262 1_555
H16 N0 1.025274 1_554
H17 N1 1.025274 1_555
H18 N2 1.025274 1_556
H19 N3 1.025274 1_555
H20 N4 1.027314 1_555
H21 N5 1.027314 1_555
H22 N6 1.027314 1_555
H23 N7 1.027314 1_555
H24 N8 1.027147 1_555
H25 N9 1.027147 1_555
H26 N10 1.027147 1_555
H27 N11 1.027147 1_555
H28 N0 1.029613 1_555
H29 N1 1.029613 1_555
H30 N2 1.029613 1_555
H31 N3 1.029613 1_555
H32 N8 1.029567 1_554
H33 N9 1.029567 1_555
H34 N10 1.029567 1_556
H35 N11 1.029567 1_555
H36 N4 1.028511 1_555
H37 N5 1.028511 1_555
H38 N6 1.028511 1_555
H39 N7 1.028511 1_555
H40 N0 1.028940 1_655
H41 N1 1.028940 1_545
H42 N2 1.028940 1_455
H43 N3 1.028940 1_565
O0 Re4 1.754227 1_655
O1 Re4 1.754227 1_545
O2 Re5 1.754227 1_455
O3 Re5 1.754227 1_565
O8 Re0 1.759556 1_655
O9 Re1 1.759556 1_545
O10 Re2 1.759556 1_455
O11 Re3 1.759556 1_565
O12 Re0 1.753765 1_555
O13 Re1 1.753765 1_555
O14 Re2 1.753765 1_555
O15 Re3 1.753765 1_555
O16 Re0 1.756137 1_555
O17 Re1 1.756137 1_555
O18 Re2 1.756137 1_555
O19 Re3 1.756137 1_555
O20 Re0 1.754476 1_555
O21 Re1 1.754476 1_555
O22 Re2 1.754476 1_555
O23 Re3 1.754476 1_555
O24 Re4 1.759897 1_655
O25 Re4 1.759897 1_545
O26 Re5 1.759897 1_455
O27 Re5 1.759897 1_565
