# generated using pymatgen
data_ZnFe2(AsO7)2
_symmetry_space_group_name_H-M   'P 1'
_cell_length_a   9.80839000
_cell_length_b   5.59351500
_cell_length_c   10.00638062
_cell_angle_alpha   89.08368706
_cell_angle_beta   90.00000000
_cell_angle_gamma   90.00000000
_symmetry_Int_Tables_number   1
_chemical_formula_structural   ZnFe2(AsO7)2
_chemical_formula_sum   'Zn2 Fe4 As4 O28'
_cell_volume   548.91362399
_cell_formula_units_Z   2
loop_
 _symmetry_equiv_pos_site_id
 _symmetry_equiv_pos_as_xyz
  1  'x, y, z'
loop_
 _atom_site_type_symbol
 _atom_site_label
 _atom_site_symmetry_multiplicity
 _atom_site_fract_x
 _atom_site_fract_y
 _atom_site_fract_z
 _atom_site_occupancy
  Zn  Zn0  1  0.00000000  0.00000000  0.00000000  1
  Zn  Zn1  1  0.50000000  0.50000000  0.00000000  1
  Fe  Fe0  1  0.14284400  0.65683200  0.45208900  1
  Fe  Fe1  1  0.64284400  0.84316800  0.54791100  1
  Fe  Fe2  1  0.85715600  0.34316800  0.54791100  1
  Fe  Fe3  1  0.35715600  0.15683200  0.45208900  1
  As  As0  1  0.42733000  0.64593600  0.29726600  1
  As  As1  1  0.92733000  0.85406400  0.70273400  1
  As  As2  1  0.57267000  0.35406400  0.70273400  1
  As  As3  1  0.07267000  0.14593600  0.29726600  1
  O  O0  1  0.48911100  0.87963800  0.39310300  1
  O  O1  1  0.98911100  0.62036200  0.60689700  1
  O  O2  1  0.51088900  0.12036200  0.60689700  1
  O  O3  1  0.01088900  0.37963800  0.39310300  1
  O  O4  1  0.48331200  0.37437400  0.35877500  1
  O  O5  1  0.98331200  0.12562600  0.64122500  1
  O  O6  1  0.51668800  0.62562600  0.64122500  1
  O  O7  1  0.01668800  0.87437400  0.35877500  1
  O  O8  1  0.50473800  0.69432800  0.14271800  1
  O  O9  1  0.00473800  0.80567200  0.85728200  1
  O  O10  1  0.49526200  0.30567200  0.85728200  1
  O  O11  1  0.99526200  0.19432800  0.14271800  1
  O  O12  1  0.25429500  0.66634200  0.28033400  1
  O  O13  1  0.75429500  0.83365800  0.71966600  1
  O  O14  1  0.74570500  0.33365800  0.71966600  1
  O  O15  1  0.24570500  0.16634200  0.28033400  1
  O  O16  1  0.23970400  0.92230900  0.52777000  1
  O  O17  1  0.73970400  0.57769100  0.47223000  1
  O  O18  1  0.76029600  0.07769100  0.47223000  1
  O  O19  1  0.26029600  0.42230900  0.52777000  1
  O  O20  1  0.82743800  0.66353000  0.10035200  1
  O  O21  1  0.32743800  0.83647000  0.89964800  1
  O  O22  1  0.17256200  0.33647000  0.89964800  1
  O  O23  1  0.67256200  0.16353000  0.10035200  1
  O  O24  1  0.26351300  0.88499300  0.00209200  1
  O  O25  1  0.76351300  0.61500700  0.99790800  1
  O  O26  1  0.73648700  0.11500700  0.99790800  1
  O  O27  1  0.23648700  0.38499300  0.00209200  1
loop_
_geom_bond_atom_site_label_1
_geom_bond_atom_site_label_2
_geom_bond_distance
_geom_bond_site_symmetry_2
Fe0 O19 1.894650 1_555
Fe0 O16 1.927981 1_555
Fe0 O7 1.961456 1_555
Fe0 O12 2.036820 1_555
Fe0 O3 2.111111 1_555
Fe0 O1 2.169055 1_455
Fe1 O18 1.894650 1_565
Fe1 O17 1.927981 1_555
Fe1 O6 1.961456 1_555
Fe1 O13 2.036820 1_555
Fe1 O2 2.111111 1_565
Fe1 O0 2.169055 1_555
Fe2 O17 1.894650 1_555
Fe2 O18 1.927981 1_555
Fe2 O5 1.961456 1_555
Fe2 O14 2.036820 1_555
Fe2 O1 2.111111 1_555
Fe2 O3 2.169055 1_655
Fe3 O16 1.894650 1_545
Fe3 O19 1.927981 1_555
Fe3 O4 1.961456 1_555
Fe3 O15 2.036820 1_555
Fe3 O0 2.111111 1_545
Fe3 O2 2.169055 1_555
As0 O12 1.709265 1_555
As0 O4 1.719808 1_555
As0 O8 1.740085 1_555
As0 O0 1.742342 1_555
As1 O13 1.709265 1_555
As1 O5 1.719808 1_565
As1 O9 1.740085 1_655
As1 O1 1.742342 1_555
As2 O14 1.709265 1_555
As2 O6 1.719808 1_555
As2 O10 1.740085 1_555
As2 O2 1.742342 1_555
As3 O15 1.709265 1_555
As3 O7 1.719808 1_545
As3 O11 1.740085 1_455
As3 O3 1.742342 1_555
O8 Zn1 1.809080 1_555
O9 Zn0 1.809080 1_566
O10 Zn1 1.809080 1_556
O11 Zn0 1.809080 1_655
O20 O25 1.235521 1_554
O21 O24 1.235521 1_556
O22 O27 1.235521 1_556
O23 O26 1.235521 1_554
