# generated using pymatgen
data_U2AsS2
_symmetry_space_group_name_H-M   'P 1'
_cell_length_a   5.28999200
_cell_length_b   5.28999200
_cell_length_c   31.23804400
_cell_angle_alpha   90.00000000
_cell_angle_beta   90.00000000
_cell_angle_gamma   90.00000000
_symmetry_Int_Tables_number   1
_chemical_formula_structural   U2AsS2
_chemical_formula_sum   'U16 As8 S16'
_cell_volume   874.16590311
_cell_formula_units_Z   8
loop_
 _symmetry_equiv_pos_site_id
 _symmetry_equiv_pos_as_xyz
  1  'x, y, z'
loop_
 _atom_site_type_symbol
 _atom_site_label
 _atom_site_symmetry_multiplicity
 _atom_site_fract_x
 _atom_site_fract_y
 _atom_site_fract_z
 _atom_site_occupancy
  U  U0_0  1  0.25000000  0.25000000  0.09592350  1
  U  U0_1  1  0.25000000  0.25000000  0.59592350  1
  U  U0_2  1  0.25000000  0.75000000  0.09592350  1
  U  U0_3  1  0.25000000  0.75000000  0.59592350  1
  U  U0_4  1  0.75000000  0.25000000  0.09592350  1
  U  U0_5  1  0.75000000  0.25000000  0.59592350  1
  U  U0_6  1  0.75000000  0.75000000  0.09592350  1
  U  U0_7  1  0.75000000  0.75000000  0.59592350  1
  U  U1_0  1  0.25000000  0.25000000  0.40407650  1
  U  U1_1  1  0.25000000  0.25000000  0.90407650  1
  U  U1_2  1  0.25000000  0.75000000  0.40407650  1
  U  U1_3  1  0.25000000  0.75000000  0.90407650  1
  U  U1_4  1  0.75000000  0.25000000  0.40407650  1
  U  U1_5  1  0.75000000  0.25000000  0.90407650  1
  U  U1_6  1  0.75000000  0.75000000  0.40407650  1
  U  U1_7  1  0.75000000  0.75000000  0.90407650  1
  As  As0_0  1  0.25000000  0.25000000  0.00000000  1
  As  As0_1  1  0.25000000  0.25000000  0.50000000  1
  As  As0_2  1  0.25000000  0.75000000  0.00000000  1
  As  As0_3  1  0.25000000  0.75000000  0.50000000  1
  As  As0_4  1  0.75000000  0.25000000  0.00000000  1
  As  As0_5  1  0.75000000  0.25000000  0.50000000  1
  As  As0_6  1  0.75000000  0.75000000  0.00000000  1
  As  As0_7  1  0.75000000  0.75000000  0.50000000  1
  S  S0_0  1  0.25000000  0.25000000  0.31838100  1
  S  S0_1  1  0.25000000  0.25000000  0.81838100  1
  S  S0_2  1  0.25000000  0.75000000  0.31838100  1
  S  S0_3  1  0.25000000  0.75000000  0.81838100  1
  S  S0_4  1  0.75000000  0.25000000  0.31838100  1
  S  S0_5  1  0.75000000  0.25000000  0.81838100  1
  S  S0_6  1  0.75000000  0.75000000  0.31838100  1
  S  S0_7  1  0.75000000  0.75000000  0.81838100  1
  S  S1_0  1  0.25000000  0.25000000  0.18161900  1
  S  S1_1  1  0.25000000  0.25000000  0.68161900  1
  S  S1_2  1  0.25000000  0.75000000  0.18161900  1
  S  S1_3  1  0.25000000  0.75000000  0.68161900  1
  S  S1_4  1  0.75000000  0.25000000  0.18161900  1
  S  S1_5  1  0.75000000  0.25000000  0.68161900  1
  S  S1_6  1  0.75000000  0.75000000  0.18161900  1
  S  S1_7  1  0.75000000  0.75000000  0.68161900  1
loop_
_geom_bond_atom_site_label_1
_geom_bond_atom_site_label_2
_geom_bond_distance
_geom_bond_site_symmetry_2
U0_0 U0_2 2.644996 1_545
U0_0 U0_4 2.644996 1_555
U0_0 U0_2 2.644996 1_555
U0_0 U0_4 2.644996 1_455
U0_1 U0_5 2.644996 1_455
U0_1 U0_3 2.644996 1_545
U0_1 U0_5 2.644996 1_555
U0_1 U0_3 2.644996 1_555
U0_2 U0_6 2.644996 1_455
U0_2 U0_6 2.644996 1_555
U0_3 U0_7 2.644996 1_455
U0_3 U0_7 2.644996 1_555
U0_4 U0_6 2.644996 1_545
U0_4 U0_6 2.644996 1_555
U0_5 U0_7 2.644996 1_545
U0_5 U0_7 2.644996 1_555
U1_0 U1_4 2.644996 1_455
U1_0 U1_4 2.644996 1_555
U1_0 U1_2 2.644996 1_555
U1_0 U1_2 2.644996 1_545
U1_1 U1_5 2.644996 1_555
U1_1 U1_3 2.644996 1_545
U1_1 U1_3 2.644996 1_555
U1_1 U1_5 2.644996 1_455
U1_2 U1_6 2.644996 1_455
U1_2 U1_6 2.644996 1_555
U1_3 U1_7 2.644996 1_455
U1_3 U1_7 2.644996 1_555
U1_4 U1_6 2.644996 1_545
U1_4 U1_6 2.644996 1_555
U1_5 U1_7 2.644996 1_555
U1_5 U1_7 2.644996 1_545
As0_0 As0_2 2.644996 1_555
As0_0 As0_4 2.644996 1_555
As0_0 As0_2 2.644996 1_545
As0_0 As0_4 2.644996 1_455
As0_0 U0_0 2.996463 1_555
As0_0 U1_1 2.996463 1_554
As0_1 As0_5 2.644996 1_555
As0_1 As0_3 2.644996 1_545
As0_1 As0_3 2.644996 1_555
As0_1 As0_5 2.644996 1_455
As0_1 U0_1 2.996463 1_555
As0_1 U1_0 2.996463 1_555
As0_2 As0_6 2.644996 1_455
As0_2 As0_6 2.644996 1_555
As0_2 U0_2 2.996463 1_555
As0_2 U1_3 2.996463 1_554
As0_3 As0_7 2.644996 1_555
As0_3 As0_7 2.644996 1_455
As0_3 U0_3 2.996463 1_555
As0_3 U1_2 2.996463 1_555
As0_4 As0_6 2.644996 1_555
As0_4 As0_6 2.644996 1_545
As0_4 U0_4 2.996463 1_555
As0_4 U1_5 2.996463 1_554
As0_5 As0_7 2.644996 1_555
As0_5 As0_7 2.644996 1_545
As0_5 U0_5 2.996463 1_555
As0_5 U1_4 2.996463 1_555
As0_6 U0_6 2.996463 1_555
As0_6 U1_7 2.996463 1_554
As0_7 U0_7 2.996463 1_555
As0_7 U1_6 2.996463 1_555
S0_0 U1_0 2.676960 1_555
S0_1 U1_1 2.676960 1_555
S0_2 U1_2 2.676960 1_555
S0_3 U1_3 2.676960 1_555
S0_4 U1_4 2.676960 1_555
S0_5 U1_5 2.676960 1_555
S0_6 U1_6 2.676960 1_555
S0_7 U1_7 2.676960 1_555
S1_0 U0_0 2.676960 1_555
S1_1 U0_1 2.676960 1_555
S1_2 U0_2 2.676960 1_555
S1_3 U0_3 2.676960 1_555
S1_4 U0_4 2.676960 1_555
S1_5 U0_5 2.676960 1_555
S1_6 U0_6 2.676960 1_555
S1_7 U0_7 2.676960 1_555
