# generated using pymatgen
data_Tb3AlNi8
_symmetry_space_group_name_H-M   'P 1'
_cell_length_a   5.07706675
_cell_length_b   5.07706675
_cell_length_c   16.03532400
_cell_angle_alpha   90.00000000
_cell_angle_beta   90.00000000
_cell_angle_gamma   120.00000979
_symmetry_Int_Tables_number   1
_chemical_formula_structural   Tb3AlNi8
_chemical_formula_sum   'Tb6 Al2 Ni16'
_cell_volume   357.95965021
_cell_formula_units_Z   2
loop_
 _symmetry_equiv_pos_site_id
 _symmetry_equiv_pos_as_xyz
  1  'x, y, z'
loop_
 _atom_site_type_symbol
 _atom_site_label
 _atom_site_symmetry_multiplicity
 _atom_site_fract_x
 _atom_site_fract_y
 _atom_site_fract_z
 _atom_site_occupancy
  Tb  Tb0  1  0.33333300  0.66666700  0.95518000  1
  Tb  Tb1  1  0.66666700  0.33333300  0.04482000  1
  Tb  Tb2  1  0.66666700  0.33333300  0.45518000  1
  Tb  Tb3  1  0.33333300  0.66666700  0.54482000  1
  Tb  Tb4  1  0.33333300  0.66666700  0.75000000  1
  Tb  Tb5  1  0.66666700  0.33333300  0.25000000  1
  Al  Al0  1  0.00000000  0.00000000  0.50000000  1
  Al  Al1  1  0.00000000  0.00000000  0.00000000  1
  Ni  Ni0  1  0.16887000  0.83113000  0.37410100  1
  Ni  Ni1  1  0.16887000  0.33774100  0.37410100  1
  Ni  Ni2  1  0.66225900  0.83113000  0.37410100  1
  Ni  Ni3  1  0.83113000  0.16887000  0.62589900  1
  Ni  Ni4  1  0.83113000  0.66225900  0.62589900  1
  Ni  Ni5  1  0.33774100  0.16887000  0.62589900  1
  Ni  Ni6  1  0.83113000  0.16887000  0.87410100  1
  Ni  Ni7  1  0.83113000  0.66225900  0.87410100  1
  Ni  Ni8  1  0.33774100  0.16887000  0.87410100  1
  Ni  Ni9  1  0.16887000  0.83113000  0.12589900  1
  Ni  Ni10  1  0.16887000  0.33774100  0.12589900  1
  Ni  Ni11  1  0.66225900  0.83113000  0.12589900  1
  Ni  Ni12  1  0.33333300  0.66666700  0.25000000  1
  Ni  Ni13  1  0.66666700  0.33333300  0.75000000  1
  Ni  Ni14  1  0.00000000  0.00000000  0.25000000  1
  Ni  Ni15  1  0.00000000  0.00000000  0.75000000  1
loop_
_geom_bond_atom_site_label_1
_geom_bond_atom_site_label_2
_geom_bond_distance
_geom_bond_site_symmetry_2
Tb0 Tb1 3.264708 1_456
Tb0 Tb1 3.264708 1_566
Tb0 Tb1 3.264717 1_556
Tb0 Tb4 3.290128 1_555
Tb1 Tb5 3.290128 1_555
Tb2 Tb3 3.264708 1_545
Tb2 Tb3 3.264708 1_655
Tb2 Tb3 3.264717 1_555
Tb2 Tb5 3.290128 1_555
Tb3 Tb4 3.290128 1_555
Al0 Ni3 2.506172 1_455
Al0 Ni0 2.506172 1_545
Al0 Ni5 2.506175 1_555
Al0 Ni4 2.506175 1_445
Al0 Ni1 2.506175 1_555
Al0 Ni2 2.506175 1_445
Al0 Tb2 3.018066 1_455
Al0 Tb3 3.018066 1_545
Al0 Tb2 3.018069 1_445
Al0 Tb2 3.018069 1_555
Al0 Tb3 3.018069 1_445
Al0 Tb3 3.018069 1_555
Al1 Ni9 2.506172 1_545
Al1 Ni6 2.506172 1_454
Al1 Ni10 2.506175 1_555
Al1 Ni11 2.506175 1_445
Al1 Ni8 2.506175 1_554
Al1 Ni7 2.506175 1_444
Al1 Tb1 3.018066 1_455
Al1 Tb0 3.018066 1_544
Al1 Tb0 3.018069 1_554
Al1 Tb1 3.018069 1_555
Al1 Tb0 3.018069 1_444
Al1 Tb1 3.018069 1_445
Ni0 Ni12 2.460025 1_555
Ni0 Ni14 2.483006 1_565
Ni0 Ni2 2.504969 1_555
Ni0 Ni1 2.504969 1_555
Ni0 Ni1 2.572098 1_565
Ni0 Ni2 2.572098 1_455
Ni0 Tb2 2.852167 1_565
Ni0 Tb2 2.852167 1_455
Ni0 Tb3 3.096081 1_555
Ni0 Tb5 3.225620 1_455
Ni0 Tb5 3.225620 1_565
Ni1 Ni12 2.460025 1_555
Ni1 Ni14 2.483009 1_555
Ni1 Ni2 2.504969 1_555
Ni1 Ni2 2.572097 1_445
Ni1 Tb2 2.852163 1_455
Ni1 Tb2 2.852172 1_555
Ni1 Tb3 3.096081 1_555
Ni1 Tb5 3.225616 1_455
Ni1 Tb5 3.225624 1_555
Ni2 Tb2 2.852163 1_565
Ni2 Tb2 2.852172 1_555
Ni2 Tb3 3.096081 1_555
Ni2 Tb5 3.225616 1_565
Ni2 Tb5 3.225624 1_555
Ni3 Ni4 2.504969 1_555
Ni3 Ni5 2.504969 1_555
Ni3 Ni5 2.572098 1_655
Ni3 Ni4 2.572098 1_545
Ni3 Tb3 2.852167 1_545
Ni3 Tb3 2.852167 1_655
Ni3 Tb2 3.096081 1_555
Ni3 Tb4 3.225620 1_545
Ni3 Tb4 3.225620 1_655
Ni4 Ni5 2.504969 1_555
Ni4 Ni5 2.572097 1_665
Ni4 Tb3 2.852163 1_655
Ni4 Tb3 2.852172 1_555
Ni4 Tb2 3.096081 1_555
Ni4 Tb4 3.225616 1_655
Ni4 Tb4 3.225624 1_555
Ni5 Tb3 2.852163 1_545
Ni5 Tb3 2.852172 1_555
Ni5 Tb2 3.096081 1_555
Ni5 Tb4 3.225616 1_545
Ni5 Tb4 3.225624 1_555
Ni6 Ni7 2.504969 1_555
Ni6 Ni8 2.504969 1_555
Ni6 Ni8 2.572098 1_655
Ni6 Ni7 2.572098 1_545
Ni6 Tb0 2.852167 1_655
Ni6 Tb0 2.852167 1_545
Ni6 Tb1 3.096081 1_556
Ni6 Tb4 3.225620 1_545
Ni6 Tb4 3.225620 1_655
Ni7 Ni8 2.504969 1_555
Ni7 Ni8 2.572097 1_665
Ni7 Tb0 2.852163 1_655
Ni7 Tb0 2.852172 1_555
Ni7 Tb1 3.096081 1_556
Ni7 Tb4 3.225616 1_655
Ni7 Tb4 3.225624 1_555
Ni8 Tb0 2.852163 1_545
Ni8 Tb0 2.852172 1_555
Ni8 Tb1 3.096081 1_556
Ni8 Tb4 3.225616 1_545
Ni8 Tb4 3.225624 1_555
Ni9 Tb1 2.852167 1_565
Ni9 Tb1 2.852167 1_455
Ni9 Tb0 3.096081 1_554
Ni9 Tb5 3.225620 1_455
Ni9 Tb5 3.225620 1_565
Ni10 Ni12 2.460025 1_555
Ni10 Ni14 2.483009 1_555
Ni10 Ni11 2.504969 1_555
Ni10 Ni9 2.504969 1_555
Ni10 Ni11 2.572097 1_445
Ni10 Ni9 2.572098 1_545
Ni10 Tb1 2.852163 1_455
Ni10 Tb1 2.852172 1_555
Ni10 Tb0 3.096081 1_554
Ni10 Tb5 3.225616 1_455
Ni10 Tb5 3.225624 1_555
Ni11 Ni12 2.460025 1_555
Ni11 Ni14 2.483009 1_665
Ni11 Ni9 2.504969 1_555
Ni11 Ni9 2.572098 1_655
Ni11 Tb1 2.852163 1_565
Ni11 Tb1 2.852172 1_555
Ni11 Tb0 3.096081 1_554
Ni11 Tb5 3.225616 1_565
Ni11 Tb5 3.225624 1_555
Ni12 Ni2 2.460025 1_555
Ni12 Ni9 2.460025 1_555
Ni12 Tb5 2.931243 1_455
Ni12 Tb5 2.931243 1_565
Ni12 Ni14 2.931243 1_565
Ni12 Ni14 2.931247 1_665
Ni12 Ni14 2.931247 1_555
Ni12 Tb5 2.931252 1_555
Ni13 Ni7 2.460025 1_555
Ni13 Ni8 2.460025 1_555
Ni13 Ni4 2.460025 1_555
Ni13 Ni5 2.460025 1_555
Ni13 Ni6 2.460025 1_555
Ni13 Ni3 2.460025 1_555
Ni13 Tb4 2.931243 1_545
Ni13 Tb4 2.931243 1_655
Ni13 Ni15 2.931243 1_655
Ni13 Ni15 2.931247 1_665
Ni13 Ni15 2.931247 1_555
Ni13 Tb4 2.931252 1_555
Ni14 Ni9 2.483006 1_545
Ni14 Ni2 2.483009 1_445
Ni14 Tb5 2.931243 1_455
Ni14 Tb5 2.931247 1_445
Ni14 Tb5 2.931247 1_555
Ni15 Ni6 2.483006 1_455
Ni15 Ni3 2.483006 1_455
Ni15 Ni8 2.483009 1_555
Ni15 Ni7 2.483009 1_445
Ni15 Ni5 2.483009 1_555
Ni15 Ni4 2.483009 1_445
Ni15 Tb4 2.931243 1_545
Ni15 Tb4 2.931247 1_555
Ni15 Tb4 2.931247 1_445
