# generated using pymatgen
data_HfSb
_symmetry_space_group_name_H-M   'P 1'
_cell_length_a   3.78314332
_cell_length_b   5.53378129
_cell_length_c   13.95262132
_cell_angle_alpha   90.00000000
_cell_angle_beta   90.00000000
_cell_angle_gamma   109.98795733
_symmetry_Int_Tables_number   1
_chemical_formula_structural   HfSb
_chemical_formula_sum   'Hf6 Sb6'
_cell_volume   274.50459726
_cell_formula_units_Z   6
loop_
 _symmetry_equiv_pos_site_id
 _symmetry_equiv_pos_as_xyz
  1  'x, y, z'
loop_
 _atom_site_type_symbol
 _atom_site_label
 _atom_site_symmetry_multiplicity
 _atom_site_fract_x
 _atom_site_fract_y
 _atom_site_fract_z
 _atom_site_occupancy
  Hf  Hf0  1  0.61519811  0.23039522  0.25000000  1
  Hf  Hf1  1  0.38480189  0.76960478  0.75000000  1
  Hf  Hf2  1  0.07125831  0.14251562  0.60809578  1
  Hf  Hf3  1  0.92874169  0.85748438  0.39190422  1
  Hf  Hf4  1  0.92874169  0.85748438  0.10809578  1
  Hf  Hf5  1  0.07125831  0.14251562  0.89190422  1
  Sb  Sb0  1  0.32736564  0.65472928  0.25000000  1
  Sb  Sb1  1  0.67263436  0.34527072  0.75000000  1
  Sb  Sb2  1  0.35834806  0.71669312  0.54921587  1
  Sb  Sb3  1  0.64165194  0.28330688  0.45078413  1
  Sb  Sb4  1  0.64165194  0.28330688  0.04921587  1
  Sb  Sb5  1  0.35834806  0.71669312  0.95078413  1
loop_
_geom_bond_atom_site_label_1
_geom_bond_atom_site_label_2
_geom_bond_distance
_geom_bond_site_symmetry_2
Hf0 Sb4 2.814946 1_555
Hf0 Sb3 2.814946 1_555
Hf0 Sb0 2.906491 1_555
Hf0 Sb0 2.906493 1_655
Hf0 Sb0 2.993723 1_545
Hf1 Sb2 2.814946 1_555
Hf1 Sb5 2.814946 1_555
Hf1 Sb1 2.906491 1_555
Hf1 Sb1 2.906493 1_455
Hf1 Sb1 2.993723 1_565
Hf2 Sb1 2.934274 1_555
Hf2 Sb1 2.934282 1_455
Hf2 Sb3 2.988600 1_555
Hf2 Sb3 2.988609 1_455
Hf2 Sb2 3.026023 1_445
Hf2 Sb2 3.026027 1_545
Hf2 Sb2 3.096934 1_555
Hf3 Sb0 2.934274 1_555
Hf3 Sb0 2.934282 1_655
Hf3 Sb2 2.988600 1_555
Hf3 Sb2 2.988609 1_655
Hf3 Sb3 3.026023 1_665
Hf3 Sb3 3.026027 1_565
Hf3 Sb3 3.096934 1_555
Hf4 Sb0 2.934274 1_555
Hf4 Sb0 2.934282 1_655
Hf4 Sb5 2.988600 1_554
Hf4 Sb5 2.988609 1_654
Hf4 Sb4 3.026023 1_665
Hf4 Sb4 3.026027 1_565
Hf4 Sb4 3.096934 1_555
Hf5 Sb1 2.934274 1_555
Hf5 Sb1 2.934282 1_455
Hf5 Sb4 2.988600 1_556
Hf5 Sb4 2.988609 1_456
Hf5 Sb5 3.026023 1_445
Hf5 Sb5 3.026027 1_545
Hf5 Sb5 3.096934 1_555
