# generated using pymatgen
data_NaYb3GeS7
_symmetry_space_group_name_H-M   'P 1'
_cell_length_a   9.89723617
_cell_length_b   9.89723617
_cell_length_c   6.02314200
_cell_angle_alpha   90.00000000
_cell_angle_beta   90.00000000
_cell_angle_gamma   120.00000114
_symmetry_Int_Tables_number   1
_chemical_formula_structural   NaYb3GeS7
_chemical_formula_sum   'Na2 Yb6 Ge2 S14'
_cell_volume   510.95375612
_cell_formula_units_Z   2
loop_
 _symmetry_equiv_pos_site_id
 _symmetry_equiv_pos_as_xyz
  1  'x, y, z'
loop_
 _atom_site_type_symbol
 _atom_site_label
 _atom_site_symmetry_multiplicity
 _atom_site_fract_x
 _atom_site_fract_y
 _atom_site_fract_z
 _atom_site_occupancy
  Na  Na0  1  0.00000000  0.00000000  0.47066500  1
  Na  Na1  1  0.00000000  0.00000000  0.97066500  1
  Yb  Yb0  1  0.77482200  0.14403800  0.75918000  1
  Yb  Yb1  1  0.36921600  0.22517800  0.75918000  1
  Yb  Yb2  1  0.85596200  0.63078400  0.75918000  1
  Yb  Yb3  1  0.22517800  0.85596200  0.25918000  1
  Yb  Yb4  1  0.63078400  0.77482200  0.25918000  1
  Yb  Yb5  1  0.14403800  0.36921600  0.25918000  1
  Ge  Ge0  1  0.66666700  0.33333300  0.31283900  1
  Ge  Ge1  1  0.33333300  0.66666700  0.81283900  1
  S  S0  1  0.66666700  0.33333300  0.94696800  1
  S  S1  1  0.33333300  0.66666700  0.44696800  1
  S  S2  1  0.73419300  0.83684200  0.72360600  1
  S  S3  1  0.10264800  0.26580700  0.72360600  1
  S  S4  1  0.16315800  0.89735200  0.72360600  1
  S  S5  1  0.26580700  0.16315800  0.22360600  1
  S  S6  1  0.89735200  0.73419300  0.22360600  1
  S  S7  1  0.83684200  0.10264800  0.22360600  1
  S  S8  1  0.56855000  0.47176200  0.46175000  1
  S  S9  1  0.90321100  0.43145000  0.46175000  1
  S  S10  1  0.52823800  0.09678900  0.46175000  1
  S  S11  1  0.43145000  0.52823800  0.96175000  1
  S  S12  1  0.09678900  0.56855000  0.96175000  1
  S  S13  1  0.47176200  0.90321100  0.96175000  1
loop_
_geom_bond_atom_site_label_1
_geom_bond_atom_site_label_2
_geom_bond_distance
_geom_bond_site_symmetry_2
Na0 S7 2.737633 1_455
Na0 S5 2.737640 1_555
Na0 S6 2.737641 1_445
Na0 S4 2.757051 1_545
Na0 S2 2.757057 1_445
Na0 S3 2.757058 1_555
Na1 S4 2.737633 1_545
Na1 S2 2.737640 1_445
Na1 S3 2.737641 1_555
Na1 S7 2.757051 1_456
Na1 S5 2.757057 1_556
Na1 S6 2.757058 1_446
Ge0 S0 2.203693 1_554
Ge0 S9 2.225964 1_555
Ge0 S10 2.225966 1_555
Ge0 S8 2.225981 1_555
Ge1 S1 2.203693 1_555
Ge1 S12 2.225964 1_555
Ge1 S13 2.225966 1_555
Ge1 S11 2.225981 1_555
S0 Yb0 2.817909 1_555
S0 Yb2 2.817916 1_555
S0 Yb1 2.817917 1_555
S1 Yb3 2.817909 1_555
S1 Yb5 2.817916 1_555
S1 Yb4 2.817917 1_555
S2 Yb2 2.848750 1_555
S2 Yb0 2.868623 1_565
S2 Yb4 2.936144 1_555
S2 Yb4 3.346948 1_556
S3 Yb0 2.848741 1_455
S3 Yb1 2.868633 1_555
S3 Yb5 2.936143 1_555
S3 Yb5 3.346948 1_556
S4 Yb1 2.848742 1_565
S4 Yb2 2.868627 1_455
S4 Yb3 2.936146 1_555
S4 Yb3 3.346951 1_556
S5 Yb5 2.848750 1_555
S5 Yb3 2.868623 1_545
S5 Yb1 2.936144 1_554
S5 Yb1 3.346948 1_555
S6 Yb3 2.848741 1_655
S6 Yb4 2.868633 1_555
S6 Yb2 2.936143 1_554
S6 Yb2 3.346948 1_555
S7 Yb4 2.848742 1_545
S7 Yb5 2.868627 1_655
S7 Yb0 2.936146 1_554
S7 Yb0 3.346951 1_555
S8 Yb1 2.871025 1_555
S8 Yb4 3.002880 1_555
S8 Yb2 3.049765 1_555
S9 Yb2 2.871020 1_555
S9 Yb5 3.002889 1_655
S9 Yb0 3.049765 1_555
S10 Yb0 2.871028 1_555
S10 Yb3 3.002883 1_545
S10 Yb1 3.049758 1_555
S11 Yb4 2.871025 1_556
S11 Yb1 3.002880 1_555
S11 Yb5 3.049765 1_556
S12 Yb5 2.871020 1_556
S12 Yb2 3.002889 1_455
S12 Yb3 3.049765 1_556
S13 Yb3 2.871028 1_556
S13 Yb0 3.002883 1_565
S13 Yb4 3.049758 1_556
