# generated using pymatgen
data_Na2AgMoF6
_symmetry_space_group_name_H-M   'P 1'
_cell_length_a   6.26733600
_cell_length_b   6.26733584
_cell_length_c   6.26733564
_cell_angle_alpha   59.99999840
_cell_angle_beta   59.99999811
_cell_angle_gamma   59.99999913
_symmetry_Int_Tables_number   1
_chemical_formula_structural   Na2AgMoF6
_chemical_formula_sum   'Na2 Ag1 Mo1 F6'
_cell_volume   174.07399117
_cell_formula_units_Z   1
loop_
 _symmetry_equiv_pos_site_id
 _symmetry_equiv_pos_as_xyz
  1  'x, y, z'
loop_
 _atom_site_type_symbol
 _atom_site_label
 _atom_site_symmetry_multiplicity
 _atom_site_fract_x
 _atom_site_fract_y
 _atom_site_fract_z
 _atom_site_occupancy
  Na  Na0  1  0.25000000  0.25000000  0.25000000  1
  Na  Na1  1  0.75000000  0.75000000  0.75000000  1
  Ag  Ag0  1  0.50000000  0.50000000  0.50000000  1
  Mo  Mo0  1  0.00000000  0.00000000  0.00000000  1
  F  F0  1  0.23276100  0.76723900  0.23276100  1
  F  F1  1  0.76723900  0.76723900  0.23276100  1
  F  F2  1  0.76723900  0.23276100  0.76723900  1
  F  F3  1  0.76723900  0.23276100  0.23276100  1
  F  F4  1  0.23276100  0.76723900  0.76723900  1
  F  F5  1  0.23276100  0.23276100  0.76723900  1
loop_
_geom_bond_atom_site_label_1
_geom_bond_atom_site_label_2
_geom_bond_distance
_geom_bond_site_symmetry_2
Ag0 F3 2.368633 1_555
Ag0 F4 2.368633 1_555
Ag0 F1 2.368633 1_555
Ag0 F5 2.368633 1_555
Ag0 F2 2.368633 1_555
Ag0 F0 2.368633 1_555
F0 Mo0 2.063043 1_565
F1 Mo0 2.063043 1_665
F2 Mo0 2.063043 1_656
F3 Mo0 2.063042 1_655
F4 Mo0 2.063042 1_566
F5 Mo0 2.063043 1_556
