# generated using pymatgen
data_Nb3Al2N
_symmetry_space_group_name_H-M   'P 1'
_cell_length_a   20.36243815
_cell_length_b   20.36243815
_cell_length_c   20.36243815
_cell_angle_alpha   90.00000000
_cell_angle_beta   90.00000000
_cell_angle_gamma   90.00000000
_symmetry_Int_Tables_number   1
_chemical_formula_structural   Nb3Al2N
_chemical_formula_sum   'Nb12 Al8 N4'
_cell_volume   8442.85507514
_cell_formula_units_Z   4
loop_
 _symmetry_equiv_pos_site_id
 _symmetry_equiv_pos_as_xyz
  1  'x, y, z'
loop_
 _atom_site_type_symbol
 _atom_site_label
 _atom_site_symmetry_multiplicity
 _atom_site_fract_x
 _atom_site_fract_y
 _atom_site_fract_z
 _atom_site_occupancy
  Nb  Nb0  1  0.55971151  0.37500000  0.80971151  1
  Nb  Nb1  1  0.37500000  0.80971151  0.55971151  1
  Nb  Nb2  1  0.30971151  0.94028849  0.62500000  1
  Nb  Nb3  1  0.19028849  0.05971151  0.12500000  1
  Nb  Nb4  1  0.05971151  0.12500000  0.19028849  1
  Nb  Nb5  1  0.94028849  0.62500000  0.30971151  1
  Nb  Nb6  1  0.87500000  0.69028849  0.44028849  1
  Nb  Nb7  1  0.80971151  0.55971151  0.37500000  1
  Nb  Nb8  1  0.69028849  0.44028849  0.87500000  1
  Nb  Nb9  1  0.12500000  0.19028849  0.05971151  1
  Nb  Nb10  1  0.62500000  0.30971151  0.94028849  1
  Nb  Nb11  1  0.44028849  0.87500000  0.69028849  1
  Al  Al0  1  0.56732475  0.43267525  0.93267525  1
  Al  Al1  1  0.06732475  0.06732475  0.06732475  1
  Al  Al2  1  0.43267525  0.93267525  0.56732475  1
  Al  Al3  1  0.68267525  0.31732475  0.81732475  1
  Al  Al4  1  0.81732475  0.68267525  0.31732475  1
  Al  Al5  1  0.18267525  0.18267525  0.18267525  1
  Al  Al6  1  0.93267525  0.56732475  0.43267525  1
  Al  Al7  1  0.31732475  0.81732475  0.68267525  1
  N  N0  1  0.87500000  0.62500000  0.37500000  1
  N  N1  1  0.62500000  0.37500000  0.87500000  1
  N  N2  1  0.12500000  0.12500000  0.12500000  1
  N  N3  1  0.37500000  0.87500000  0.62500000  1
loop_
_geom_bond_atom_site_label_1
_geom_bond_atom_site_label_2
_geom_bond_distance
_geom_bond_site_symmetry_2
Al0 N1 2.034136 1_555
Al1 N2 2.034136 1_555
Al2 N3 2.034136 1_555
Al3 N1 2.034136 1_555
Al4 N0 2.034136 1_555
Al5 N2 2.034136 1_555
Al6 N0 2.034136 1_555
Al7 N3 2.034136 1_555
N0 Nb5 1.880102 1_555
N0 Nb6 1.880102 1_555
N0 Nb7 1.880102 1_555
N1 Nb10 1.880102 1_555
N1 Nb8 1.880102 1_555
N1 Nb0 1.880102 1_555
N2 Nb4 1.880102 1_555
N2 Nb9 1.880102 1_555
N2 Nb3 1.880102 1_555
N3 Nb2 1.880102 1_555
N3 Nb1 1.880102 1_555
N3 Nb11 1.880102 1_555
