# generated using pymatgen
data_InP2H6NO8
_symmetry_space_group_name_H-M   'P 1'
_cell_length_a   8.44937100
_cell_length_b   9.98771978
_cell_length_c   9.59682219
_cell_angle_alpha   116.44644210
_cell_angle_beta   90.00000000
_cell_angle_gamma   90.00000000
_symmetry_Int_Tables_number   1
_chemical_formula_structural   InP2H6NO8
_chemical_formula_sum   'In4 P8 H24 N4 O32'
_cell_volume   725.12274617
_cell_formula_units_Z   4
loop_
 _symmetry_equiv_pos_site_id
 _symmetry_equiv_pos_as_xyz
  1  'x, y, z'
loop_
 _atom_site_type_symbol
 _atom_site_label
 _atom_site_symmetry_multiplicity
 _atom_site_fract_x
 _atom_site_fract_y
 _atom_site_fract_z
 _atom_site_occupancy
  In  In0  1  0.61637200  0.75428900  0.99359200  1
  In  In1  1  0.11637200  0.24571100  0.50640800  1
  In  In2  1  0.38362800  0.24571100  0.00640800  1
  In  In3  1  0.88362800  0.75428900  0.49359200  1
  P  P0  1  0.93249300  0.58097800  0.73156300  1
  P  P1  1  0.43249300  0.41902200  0.76843700  1
  P  P2  1  0.06750700  0.41902200  0.26843700  1
  P  P3  1  0.56750700  0.58097800  0.23156300  1
  P  P4  1  0.81643400  0.98659600  0.32715800  1
  P  P5  1  0.31643400  0.01340400  0.17284200  1
  P  P6  1  0.18356600  0.01340400  0.67284200  1
  P  P7  1  0.68356600  0.98659600  0.82715800  1
  H  H0  1  0.67350400  0.99096600  0.51955900  1
  H  H1  1  0.17350400  0.00903400  0.98044100  1
  H  H2  1  0.32649600  0.00903400  0.48044100  1
  H  H3  1  0.82649600  0.99096600  0.01955900  1
  H  H4  1  0.10225600  0.76545900  0.82005400  1
  H  H5  1  0.60225600  0.23454100  0.67994600  1
  H  H6  1  0.89774400  0.23454100  0.17994600  1
  H  H7  1  0.39774400  0.76545900  0.32005400  1
  H  H8  1  0.97153100  0.33683100  0.97976100  1
  H  H9  1  0.47153100  0.66316900  0.52023900  1
  H  H10  1  0.02846900  0.66316900  0.02023900  1
  H  H11  1  0.52846900  0.33683100  0.47976100  1
  H  H12  1  0.81281500  0.44759600  0.98973600  1
  H  H13  1  0.31281500  0.55240400  0.51026400  1
  H  H14  1  0.18718500  0.55240400  0.01026400  1
  H  H15  1  0.68718500  0.44759600  0.48973600  1
  H  H16  1  0.90367300  0.34759900  0.81831100  1
  H  H17  1  0.40367300  0.65240100  0.68168900  1
  H  H18  1  0.09632700  0.65240100  0.18168900  1
  H  H19  1  0.59632700  0.34759900  0.31831100  1
  H  H20  1  0.79169000  0.26340300  0.90580700  1
  H  H21  1  0.29169000  0.73659700  0.59419300  1
  H  H22  1  0.20831000  0.73659700  0.09419300  1
  H  H23  1  0.70831000  0.26340300  0.40580700  1
  N  N0  1  0.87116000  0.34799000  0.92344200  1
  N  N1  1  0.37116000  0.65201000  0.57655800  1
  N  N2  1  0.12884000  0.65201000  0.07655800  1
  N  N3  1  0.62884000  0.34799000  0.42344200  1
  O  O0  1  0.90161700  0.13759700  0.37698100  1
  O  O1  1  0.40161700  0.86240300  0.12301900  1
  O  O2  1  0.09838300  0.86240300  0.62301900  1
  O  O3  1  0.59838300  0.13759700  0.87698100  1
  O  O4  1  0.91235000  0.86678900  0.34828800  1
  O  O5  1  0.41235000  0.13321100  0.15171200  1
  O  O6  1  0.08765000  0.13321100  0.65171200  1
  O  O7  1  0.58765000  0.86678900  0.84828800  1
  O  O8  1  0.10598000  0.65648700  0.76825000  1
  O  O9  1  0.60598000  0.34351300  0.73175000  1
  O  O10  1  0.89402000  0.34351300  0.23175000  1
  O  O11  1  0.39402000  0.65648700  0.26825000  1
  O  O12  1  0.84352600  0.64713800  0.88769200  1
  O  O13  1  0.34352600  0.35286200  0.61230800  1
  O  O14  1  0.15647400  0.35286200  0.11230800  1
  O  O15  1  0.65647400  0.64713800  0.38769200  1
  O  O16  1  0.96615400  0.41416100  0.67821800  1
  O  O17  1  0.46615400  0.58583900  0.82178200  1
  O  O18  1  0.03384600  0.58583900  0.32178200  1
  O  O19  1  0.53384600  0.41416100  0.17821800  1
  O  O20  1  0.84917300  0.61090400  0.60633500  1
  O  O21  1  0.34917300  0.38909600  0.89366500  1
  O  O22  1  0.15082700  0.38909600  0.39366500  1
  O  O23  1  0.65082700  0.61090400  0.10633500  1
  O  O24  1  0.76057500  0.93631200  0.15739800  1
  O  O25  1  0.26057500  0.06368800  0.34260200  1
  O  O26  1  0.23942500  0.06368800  0.84260200  1
  O  O27  1  0.73942500  0.93631200  0.65739800  1
  O  O28  1  0.65858500  0.01914400  0.43219700  1
  O  O29  1  0.15858500  0.98085600  0.06780300  1
  O  O30  1  0.34141500  0.98085600  0.56780300  1
  O  O31  1  0.84141500  0.01914400  0.93219700  1
loop_
_geom_bond_atom_site_label_1
_geom_bond_atom_site_label_2
_geom_bond_distance
_geom_bond_site_symmetry_2
In0 O7 2.159060 1_555
In0 O23 2.164823 1_556
In0 O17 2.165480 1_555
In0 O24 2.171472 1_556
In0 O1 2.192417 1_556
In0 O12 2.212046 1_555
In1 O6 2.159060 1_555
In1 O22 2.164823 1_555
In1 O16 2.165480 1_455
In1 O25 2.171472 1_555
In1 O0 2.192417 1_455
In1 O13 2.212046 1_555
In2 O5 2.159060 1_555
In2 O21 2.164823 1_554
In2 O19 2.165480 1_555
In2 O26 2.171472 1_554
In2 O3 2.192417 1_554
In2 O14 2.212046 1_555
In3 O4 2.159060 1_555
In3 O20 2.164823 1_555
In3 O18 2.165480 1_655
In3 O27 2.171472 1_555
In3 O2 2.192417 1_655
In3 O15 2.212046 1_555
H0 O28 1.004079 1_565
H0 O27 1.732406 1_555
H1 O29 1.004079 1_546
H1 O26 1.732406 1_555
H2 O30 1.004079 1_545
H2 O25 1.732406 1_555
H3 O31 1.004079 1_564
H3 O24 1.732406 1_555
H4 O8 0.975071 1_555
H5 O9 0.975071 1_555
H6 O10 0.975071 1_555
H7 O11 0.975071 1_555
H8 N0 1.037991 1_555
H9 N1 1.037991 1_555
H10 N2 1.037991 1_555
H11 N3 1.037991 1_555
H12 N0 1.036210 1_555
H13 N1 1.036210 1_555
H14 N2 1.036210 1_555
H15 N3 1.036210 1_555
H16 N0 1.043983 1_555
H17 N1 1.043983 1_555
H18 N2 1.043983 1_555
H19 N3 1.043983 1_555
H20 N0 1.032425 1_555
H21 N1 1.032425 1_555
H22 N2 1.032425 1_555
H23 N3 1.032425 1_555
O0 P4 1.542359 1_545
O1 P5 1.542359 1_565
O2 P6 1.542359 1_565
O3 P7 1.542359 1_545
O4 P4 1.531632 1_555
O5 P5 1.531632 1_555
O6 P6 1.531632 1_555
O7 P7 1.531632 1_555
O8 P0 1.613985 1_455
O9 P1 1.613985 1_555
O10 P2 1.613985 1_655
O11 P3 1.613985 1_555
O12 P0 1.537808 1_555
O13 P1 1.537808 1_555
O14 P2 1.537808 1_555
O15 P3 1.537808 1_555
O16 P0 1.535965 1_555
O17 P1 1.535965 1_555
O18 P2 1.535965 1_555
O19 P3 1.535965 1_555
O20 P0 1.532713 1_555
O21 P1 1.532713 1_555
O22 P2 1.532713 1_555
O23 P3 1.532713 1_555
O24 P4 1.549306 1_555
O25 P5 1.549306 1_555
O26 P6 1.549306 1_555
O27 P7 1.549306 1_555
O28 P4 1.615166 1_545
O29 P5 1.615166 1_565
O30 P6 1.615166 1_565
O31 P7 1.615166 1_545
