# generated using pymatgen
data_YInCo2
_symmetry_space_group_name_H-M   'P 1'
_cell_length_a   4.00304100
_cell_length_b   4.98909500
_cell_length_c   7.12130500
_cell_angle_alpha   90.00000000
_cell_angle_beta   90.00000000
_cell_angle_gamma   90.00000000
_symmetry_Int_Tables_number   1
_chemical_formula_structural   YInCo2
_chemical_formula_sum   'Y2 In2 Co4'
_cell_volume   142.22351196
_cell_formula_units_Z   2
loop_
 _symmetry_equiv_pos_site_id
 _symmetry_equiv_pos_as_xyz
  1  'x, y, z'
loop_
 _atom_site_type_symbol
 _atom_site_label
 _atom_site_symmetry_multiplicity
 _atom_site_fract_x
 _atom_site_fract_y
 _atom_site_fract_z
 _atom_site_occupancy
  Y  Y0  1  0.50000000  0.75000000  0.71919900  1
  Y  Y1  1  0.50000000  0.25000000  0.28080100  1
  In  In0  1  0.00000000  0.75000000  0.34856900  1
  In  In1  1  0.00000000  0.25000000  0.65143100  1
  Co  Co0  1  0.00000000  0.00000000  0.00000000  1
  Co  Co1  1  0.00000000  0.50000000  0.00000000  1
  Co  Co2  1  0.50000000  0.75000000  0.09189200  1
  Co  Co3  1  0.50000000  0.25000000  0.90810800  1
loop_
_geom_bond_atom_site_label_1
_geom_bond_atom_site_label_2
_geom_bond_distance
_geom_bond_site_symmetry_2
In0 Y1 3.234463 1_565
In0 Y1 3.234463 1_555
In0 Y1 3.234463 1_465
In0 Y1 3.234463 1_455
In0 In1 3.297641 1_555
In0 In1 3.297641 1_565
In0 Y0 3.312454 1_455
In0 Y0 3.312454 1_555
In1 Y0 3.234463 1_455
In1 Y0 3.234463 1_555
In1 Y0 3.234463 1_445
In1 Y0 3.234463 1_545
In1 Y1 3.312454 1_455
In1 Y1 3.312454 1_555
Co0 Co3 2.447448 1_554
Co0 Co3 2.447448 1_454
Co0 Co2 2.447448 1_445
Co0 Co2 2.447448 1_545
Co0 Co1 2.494547 1_555
Co0 Co1 2.494547 1_545
Co0 In1 2.778010 1_554
Co0 In0 2.778010 1_545
Co0 Y0 3.091998 1_544
Co0 Y0 3.091998 1_444
Co0 Y1 3.091998 1_555
Co0 Y1 3.091998 1_455
Co1 Co3 2.447448 1_554
Co1 Co2 2.447448 1_555
Co1 Co3 2.447448 1_454
Co1 Co2 2.447448 1_455
Co1 In1 2.778010 1_554
Co1 In0 2.778010 1_555
Co1 Y0 3.091998 1_454
Co1 Y0 3.091998 1_554
Co1 Y1 3.091998 1_555
Co1 Y1 3.091998 1_455
Co2 Y0 2.654061 1_554
Co2 In0 2.710574 1_555
Co2 In0 2.710574 1_655
Co2 Y1 2.834174 1_565
Co2 Y1 2.834174 1_555
Co3 Y1 2.654061 1_556
Co3 In1 2.710574 1_555
Co3 In1 2.710574 1_655
Co3 Y0 2.834174 1_555
Co3 Y0 2.834174 1_545
