# generated using pymatgen
data_Li9Mn2Co5O16
_symmetry_space_group_name_H-M   'P 1'
_cell_length_a   3.01843500
_cell_length_b   8.05459141
_cell_length_c   12.01729084
_cell_angle_alpha   90.64852652
_cell_angle_beta   95.08547426
_cell_angle_gamma   90.90709992
_symmetry_Int_Tables_number   1
_chemical_formula_structural   Li9Mn2Co5O16
_chemical_formula_sum   'Li9 Mn2 Co5 O16'
_cell_volume   290.95719857
_cell_formula_units_Z   1
loop_
 _symmetry_equiv_pos_site_id
 _symmetry_equiv_pos_as_xyz
  1  'x, y, z'
loop_
 _atom_site_type_symbol
 _atom_site_label
 _atom_site_symmetry_multiplicity
 _atom_site_fract_x
 _atom_site_fract_y
 _atom_site_fract_z
 _atom_site_occupancy
  Li  Li0  1  0.00083800  0.99597700  0.25411500  1
  Li  Li1  1  0.50394100  0.75163000  0.62387200  1
  Li  Li2  1  0.99936900  0.49831100  0.00136600  1
  Li  Li3  1  0.50015100  0.25033200  0.37567000  1
  Li  Li4  1  0.00106900  0.00226100  0.74784000  1
  Li  Li5  1  0.49588100  0.74634200  0.12665700  1
  Li  Li6  1  0.99889900  0.50350400  0.49678000  1
  Li  Li7  1  0.49968800  0.25191400  0.87350400  1
  Li  Li8  1  0.50032100  0.75008500  0.37528100  1
  Mn  Mn0  1  0.00066300  0.00271100  0.00247100  1
  Mn  Mn1  1  0.49942600  0.74735500  0.87297800  1
  Co  Co0  1  0.99761000  0.49724800  0.74801600  1
  Co  Co1  1  0.49933100  0.25397000  0.12741000  1
  Co  Co2  1  0.00452600  0.99154100  0.49415500  1
  Co  Co3  1  0.99691100  0.50904800  0.25578900  1
  Co  Co4  1  0.50059700  0.24751500  0.62360500  1
  O  O0  1  0.47839900  0.01357100  0.12477200  1
  O  O1  1  0.99739900  0.77540300  0.50321700  1
  O  O2  1  0.47450200  0.50505200  0.86739700  1
  O  O3  1  0.97834300  0.27158500  0.24278100  1
  O  O4  1  0.47358500  0.01315800  0.61735300  1
  O  O5  1  0.97300200  0.75853300  0.99628200  1
  O  O6  1  0.47976100  0.49816300  0.36559900  1
  O  O7  1  0.97315400  0.26147300  0.74201600  1
  O  O8  1  0.52190200  0.00228400  0.38478600  1
  O  O9  1  0.02221000  0.73661000  0.75199100  1
  O  O10  1  0.52328400  0.48830000  0.13382200  1
  O  O11  1  0.02399700  0.22896300  0.50727000  1
  O  O12  1  0.52672700  0.99211500  0.87837500  1
  O  O13  1  0.00452900  0.72504700  0.24724800  1
  O  O14  1  0.52452200  0.48552000  0.62959300  1
  O  O15  1  0.02546500  0.24447800  0.00798500  1
loop_
_geom_bond_atom_site_label_1
_geom_bond_atom_site_label_2
_geom_bond_distance
_geom_bond_site_symmetry_2
Li0 O8 2.121312 1_565
Li0 O0 2.121409 1_465
Li0 O13 2.183099 1_555
Li0 O0 2.215788 1_565
Li0 O3 2.227361 1_465
Li0 O8 2.227397 1_465
Li1 O1 2.024666 1_455
Li1 O9 2.101327 1_655
Li1 O4 2.111979 1_565
Li1 O14 2.146992 1_555
Li1 O1 2.176616 1_555
Li1 O9 2.212467 1_555
Li2 O15 2.049456 1_655
Li2 O5 2.100125 1_554
Li2 O10 2.145164 1_655
Li2 O2 2.158084 1_554
Li2 O10 2.238309 1_555
Li2 O2 2.249561 1_654
Li3 O6 2.002798 1_555
Li3 O8 2.003959 1_555
Li3 O11 2.145304 1_655
Li3 O3 2.151551 1_455
Li3 O11 2.235539 1_555
Li3 O3 2.251665 1_555
Li4 O7 2.092590 1_455
Li4 O12 2.133234 1_545
Li4 O4 2.136957 1_455
Li4 O9 2.142684 1_545
Li4 O4 2.212805 1_555
Li4 O12 2.216927 1_445
Li5 O13 2.026391 1_655
Li5 O10 2.083826 1_555
Li5 O5 2.127281 1_454
Li5 O0 2.154228 1_565
Li5 O13 2.169739 1_555
Li5 O5 2.222035 1_554
Li6 O6 2.121520 1_555
Li6 O14 2.156182 1_655
Li6 O1 2.190616 1_555
Li6 O11 2.218438 1_655
Li6 O6 2.236026 1_655
Li6 O14 2.241084 1_555
Li7 O2 2.043448 1_555
Li7 O12 2.096733 1_545
Li7 O7 2.142441 1_455
Li7 O15 2.164373 1_656
Li7 O7 2.223680 1_555
Li7 O15 2.252528 1_556
Li8 O6 2.030798 1_555
Li8 O8 2.032966 1_565
Li8 O13 2.054937 1_555
Li8 O1 2.056885 1_555
Li8 O1 2.264117 1_455
Li8 O13 2.267610 1_655
Mn0 O15 1.947740 1_555
Mn0 O0 1.965839 1_555
Mn0 O5 1.967489 1_444
Mn0 O12 1.973006 1_444
Mn0 O0 2.250567 1_455
Mn0 O12 2.274614 1_544
Mn1 O2 1.952075 1_555
Mn1 O9 1.954027 1_555
Mn1 O5 1.965839 1_555
Mn1 O12 1.971952 1_555
Mn1 O9 2.240466 1_655
Mn1 O5 2.268822 1_455
Co0 O7 1.899642 1_555
Co0 O14 1.925034 1_555
Co0 O9 1.928105 1_655
Co0 O2 1.939892 1_655
Co0 O2 2.226648 1_555
Co0 O14 2.228612 1_655
Co1 O10 1.888112 1_555
Co1 O3 1.914827 1_555
Co1 O15 1.934304 1_555
Co1 O0 1.936155 1_555
Co1 O3 2.191912 1_455
Co1 O15 2.234509 1_655
Co2 O1 1.745448 1_455
Co2 O8 1.877292 1_465
Co2 O11 1.916587 1_565
Co2 O4 1.959980 1_565
Co2 O8 2.129765 1_565
Co2 O4 2.283465 1_465
Co3 O13 1.743876 1_655
Co3 O6 1.881208 1_655
Co3 O3 1.916809 1_555
Co3 O10 1.958429 1_555
Co3 O6 2.132891 1_555
Co3 O10 2.261927 1_655
Co4 O4 1.888477 1_555
Co4 O14 1.917546 1_555
Co4 O11 1.917880 1_555
Co4 O7 1.924459 1_555
Co4 O11 2.206140 1_655
Co4 O7 2.230653 1_455
