# generated using pymatgen
data_Rb2NaCr(CN)6
_symmetry_space_group_name_H-M   'P 1'
_cell_length_a   7.93138500
_cell_length_b   7.44117000
_cell_length_c   13.08186341
_cell_angle_alpha   55.95298531
_cell_angle_beta   90.00000000
_cell_angle_gamma   90.00000000
_symmetry_Int_Tables_number   1
_chemical_formula_structural   Rb2NaCr(CN)6
_chemical_formula_sum   'Rb4 Na2 Cr2 C12 N12'
_cell_volume   639.72525766
_cell_formula_units_Z   2
loop_
 _symmetry_equiv_pos_site_id
 _symmetry_equiv_pos_as_xyz
  1  'x, y, z'
loop_
 _atom_site_type_symbol
 _atom_site_label
 _atom_site_symmetry_multiplicity
 _atom_site_fract_x
 _atom_site_fract_y
 _atom_site_fract_z
 _atom_site_occupancy
  Rb  Rb0  1  0.57220100  0.72480500  0.25163000  1
  Rb  Rb1  1  0.07220100  0.27519500  0.24837000  1
  Rb  Rb2  1  0.42779900  0.27519500  0.74837000  1
  Rb  Rb3  1  0.92779900  0.72480500  0.75163000  1
  Na  Na0  1  0.00000000  0.50000000  0.50000000  1
  Na  Na1  1  0.50000000  0.50000000  0.00000000  1
  Cr  Cr0  1  0.00000000  0.00000000  0.00000000  1
  Cr  Cr1  1  0.50000000  0.00000000  0.50000000  1
  C  C0  1  0.14061900  0.25864200  0.96483600  1
  C  C1  1  0.35938100  0.25864200  0.46483600  1
  C  C2  1  0.85938100  0.74135800  0.03516400  1
  C  C3  1  0.64061900  0.74135800  0.53516400  1
  C  C4  1  0.28549200  0.81861300  0.54367400  1
  C  C5  1  0.78549200  0.18138700  0.95632600  1
  C  C6  1  0.71450800  0.18138700  0.45632600  1
  C  C7  1  0.21450800  0.81861300  0.04367400  1
  C  C8  1  0.02247300  0.10218800  0.81982900  1
  C  C9  1  0.52247300  0.89781200  0.68017100  1
  C  C10  1  0.97752700  0.89781200  0.18017100  1
  C  C11  1  0.47752700  0.10218800  0.31982900  1
  N  N0  1  0.03722700  0.16384800  0.71556500  1
  N  N1  1  0.53722700  0.83615200  0.78443500  1
  N  N2  1  0.96277300  0.83615200  0.28443500  1
  N  N3  1  0.46277300  0.16384800  0.21556500  1
  N  N4  1  0.16379800  0.71081800  0.56999400  1
  N  N5  1  0.33620200  0.71081800  0.06999400  1
  N  N6  1  0.83620200  0.28918200  0.43000600  1
  N  N7  1  0.66379800  0.28918200  0.93000600  1
  N  N8  1  0.22264900  0.40755400  0.94368100  1
  N  N9  1  0.72264900  0.59244600  0.55631900  1
  N  N10  1  0.77735100  0.59244600  0.05631900  1
  N  N11  1  0.27735100  0.40755400  0.44368100  1
loop_
_geom_bond_atom_site_label_1
_geom_bond_atom_site_label_2
_geom_bond_distance
_geom_bond_site_symmetry_2
C0 N8 1.176582 1_555
C0 Cr0 2.041627 1_556
C1 N11 1.176582 1_555
C1 Cr1 2.041627 1_555
C2 N10 1.176582 1_555
C2 Cr0 2.041627 1_665
C3 N9 1.176582 1_555
C3 Cr1 2.041627 1_565
C4 N4 1.176568 1_555
C4 Cr1 2.044330 1_565
C5 N7 1.176568 1_555
C5 Cr0 2.044330 1_656
C6 N6 1.176568 1_555
C6 Cr1 2.044330 1_555
C7 N5 1.176568 1_555
C7 Cr0 2.044330 1_565
C8 N0 1.176376 1_555
C8 Cr0 2.039226 1_556
C9 N1 1.176376 1_555
C9 Cr1 2.039226 1_565
C10 N2 1.176376 1_555
C10 Cr0 2.039226 1_665
C11 N3 1.176376 1_555
C11 Cr1 2.039226 1_555
N0 Na0 2.529400 1_555
N0 Rb3 3.150109 1_445
N0 Rb2 3.296216 1_555
N1 Na1 2.529400 1_556
N1 Rb2 3.150109 1_565
N1 Rb3 3.296216 1_555
N2 Na0 2.529400 1_655
N2 Rb1 3.150109 1_665
N2 Rb0 3.296216 1_555
N3 Na1 2.529400 1_555
N3 Rb0 3.150109 1_545
N3 Rb1 3.296216 1_555
N4 Na0 2.568178 1_555
N4 Rb3 3.072037 1_455
N4 Rb2 3.444894 1_555
N5 Na1 2.568178 1_555
N5 Rb0 3.072037 1_555
N5 Rb1 3.444894 1_555
N6 Na0 2.568178 1_655
N6 Rb1 3.072037 1_655
N6 Rb0 3.444894 1_555
N7 Na1 2.568178 1_556
N7 Rb2 3.072037 1_555
N7 Rb3 3.444894 1_555
N8 Na1 2.534277 1_556
N8 Rb3 3.273030 1_455
N9 Na0 2.534277 1_655
N9 Rb2 3.273030 1_555
N10 Na1 2.534277 1_555
N10 Rb1 3.273030 1_655
N11 Na0 2.534277 1_555
N11 Rb0 3.273030 1_555
