# generated using pymatgen
data_Sr2Ca6Co7CuO24
_symmetry_space_group_name_H-M   'P 1'
_cell_length_a   7.61566666
_cell_length_b   7.61566666
_cell_length_c   7.63632900
_cell_angle_alpha   90.00000000
_cell_angle_beta   90.00000000
_cell_angle_gamma   90.01392738
_symmetry_Int_Tables_number   1
_chemical_formula_structural   Sr2Ca6Co7CuO24
_chemical_formula_sum   'Sr2 Ca6 Co7 Cu1 O24'
_cell_volume   442.89468816
_cell_formula_units_Z   1
loop_
 _symmetry_equiv_pos_site_id
 _symmetry_equiv_pos_as_xyz
  1  'x, y, z'
loop_
 _atom_site_type_symbol
 _atom_site_label
 _atom_site_symmetry_multiplicity
 _atom_site_fract_x
 _atom_site_fract_y
 _atom_site_fract_z
 _atom_site_occupancy
  Sr  Sr0  1  0.24929200  0.24929200  0.75118900  1
  Sr  Sr1  1  0.24929200  0.24929200  0.24881100  1
  Ca  Ca0  1  0.75080200  0.24908600  0.75232000  1
  Ca  Ca1  1  0.75117600  0.75117600  0.75220600  1
  Ca  Ca2  1  0.24908600  0.75080200  0.75232000  1
  Ca  Ca3  1  0.75080200  0.24908600  0.24768000  1
  Ca  Ca4  1  0.75117600  0.75117600  0.24779400  1
  Ca  Ca5  1  0.24908600  0.75080200  0.24768000  1
  Co  Co0  1  0.50155000  0.99875900  0.00000000  1
  Co  Co1  1  0.99875900  0.50155000  0.00000000  1
  Co  Co2  1  0.50123400  0.50123400  0.00000000  1
  Co  Co3  1  0.99859700  0.99859700  0.50000000  1
  Co  Co4  1  0.50120900  0.99868200  0.50000000  1
  Co  Co5  1  0.99868200  0.50120900  0.50000000  1
  Co  Co6  1  0.50155400  0.50155400  0.50000000  1
  Cu  Cu0  1  0.99956100  0.99956100  0.00000000  1
  O  O0  1  0.99615000  0.99615000  0.74608200  1
  O  O1  1  0.50373400  0.99637000  0.74768700  1
  O  O2  1  0.99637000  0.50373400  0.74768700  1
  O  O3  1  0.50305900  0.50305900  0.75435000  1
  O  O4  1  0.99615000  0.99615000  0.25391800  1
  O  O5  1  0.50373400  0.99637000  0.25231300  1
  O  O6  1  0.99637000  0.50373400  0.25231300  1
  O  O7  1  0.50305900  0.50305900  0.24565000  1
  O  O8  1  0.99331600  0.25435300  0.00000000  1
  O  O9  1  0.50584300  0.25139200  0.00000000  1
  O  O10  1  0.99884900  0.74657700  0.00000000  1
  O  O11  1  0.50182200  0.74866700  0.00000000  1
  O  O12  1  0.99369000  0.25254300  0.50000000  1
  O  O13  1  0.50424200  0.24989500  0.50000000  1
  O  O14  1  0.99894900  0.74747700  0.50000000  1
  O  O15  1  0.50209900  0.74980200  0.50000000  1
  O  O16  1  0.74657700  0.99884900  0.00000000  1
  O  O17  1  0.25435300  0.99331600  0.00000000  1
  O  O18  1  0.74866700  0.50182200  0.00000000  1
  O  O19  1  0.25139200  0.50584300  0.00000000  1
  O  O20  1  0.74747700  0.99894900  0.50000000  1
  O  O21  1  0.25254300  0.99369000  0.50000000  1
  O  O22  1  0.74980200  0.50209900  0.50000000  1
  O  O23  1  0.24989500  0.50424200  0.50000000  1
loop_
_geom_bond_atom_site_label_1
_geom_bond_atom_site_label_2
_geom_bond_distance
_geom_bond_site_symmetry_2
Ca0 O8 2.643842 1_556
Ca0 O9 2.656648 1_556
Ca0 O12 2.671107 1_555
Ca0 O0 2.684364 1_545
Ca0 O16 2.685153 1_546
Ca0 O13 2.690432 1_555
Ca0 O1 2.691459 1_545
Ca0 O2 2.694057 1_555
Ca0 O18 2.698559 1_556
Ca0 O3 2.702367 1_555
Ca0 O20 2.709620 1_545
Ca0 O22 2.724962 1_555
Ca1 O0 2.638508 1_555
Ca1 O2 2.653463 1_555
Ca1 O1 2.653463 1_555
Ca1 O3 2.671990 1_555
Ca1 O10 2.671994 1_556
Ca1 O16 2.671994 1_556
Ca1 O11 2.680876 1_556
Ca1 O18 2.680876 1_556
Ca1 O14 2.696409 1_555
Ca1 O20 2.696409 1_555
Ca1 O15 2.703235 1_555
Ca1 O22 2.703235 1_555
Ca2 O17 2.643842 1_556
Ca2 O19 2.656648 1_556
Ca2 O21 2.671107 1_555
Ca2 O0 2.684364 1_455
Ca2 O10 2.685153 1_456
Ca2 O23 2.690432 1_555
Ca2 O2 2.691459 1_455
Ca2 O1 2.694057 1_555
Ca2 O11 2.698559 1_556
Ca2 O3 2.702367 1_555
Ca2 O14 2.709620 1_455
Ca2 O15 2.724962 1_555
Ca3 O8 2.643842 1_555
Ca3 O9 2.656648 1_555
Ca3 O12 2.671107 1_555
Ca3 O4 2.684364 1_545
Ca3 O16 2.685153 1_545
Ca3 O13 2.690432 1_555
Ca3 O5 2.691459 1_545
Ca3 O6 2.694057 1_555
Ca3 O18 2.698559 1_555
Ca3 O7 2.702367 1_555
Ca3 O20 2.709620 1_545
Ca3 O22 2.724962 1_555
Ca4 O4 2.638508 1_555
Ca4 O6 2.653463 1_555
Ca4 O5 2.653463 1_555
Ca4 O7 2.671990 1_555
Ca4 O16 2.671994 1_555
Ca4 O10 2.671994 1_555
Ca4 O18 2.680876 1_555
Ca4 O11 2.680876 1_555
Ca4 O14 2.696409 1_555
Ca4 O20 2.696409 1_555
Ca4 O15 2.703235 1_555
Ca4 O22 2.703235 1_555
Ca5 O17 2.643842 1_555
Ca5 O19 2.656648 1_555
Ca5 O21 2.671107 1_555
Ca5 O4 2.684364 1_455
Ca5 O10 2.685153 1_455
Ca5 O23 2.690432 1_555
Ca5 O6 2.691459 1_455
Ca5 O5 2.694057 1_555
Ca5 O11 2.698559 1_555
Ca5 O7 2.702367 1_555
Ca5 O14 2.709620 1_455
Ca5 O15 2.724962 1_555
Co0 O16 1.866044 1_555
Co0 O17 1.883016 1_555
Co0 O11 1.904619 1_555
Co0 O9 1.924239 1_565
Co0 O5 1.926903 1_555
Co0 O1 1.926903 1_554
Co1 O10 1.866044 1_555
Co1 O8 1.883016 1_555
Co1 O18 1.904619 1_555
Co1 O19 1.924239 1_655
Co1 O6 1.926903 1_555
Co1 O2 1.926903 1_554
Co2 O3 1.875967 1_554
Co2 O7 1.875967 1_555
Co2 O11 1.884371 1_555
Co2 O18 1.884371 1_555
Co2 O19 1.903046 1_555
Co2 O9 1.903046 1_555
Co3 O0 1.879348 1_555
Co3 O4 1.879348 1_555
Co3 O14 1.912449 1_555
Co3 O20 1.912449 1_555
Co3 O21 1.934338 1_655
Co3 O12 1.934338 1_565
Co4 O20 1.875496 1_555
Co4 O1 1.891599 1_555
Co4 O5 1.891599 1_555
Co4 O21 1.894130 1_555
Co4 O15 1.895401 1_555
Co4 O13 1.913288 1_565
Co5 O14 1.875496 1_555
Co5 O6 1.891599 1_555
Co5 O2 1.891599 1_555
Co5 O12 1.894130 1_555
Co5 O22 1.895401 1_555
Co5 O23 1.913288 1_655
Co6 O15 1.890578 1_555
Co6 O22 1.890578 1_555
Co6 O23 1.916665 1_555
Co6 O13 1.916665 1_555
Co6 O7 1.942368 1_555
Co6 O3 1.942368 1_555
Cu0 O16 1.926648 1_555
Cu0 O10 1.926648 1_555
Cu0 O4 1.939349 1_555
Cu0 O0 1.939349 1_554
Cu0 O17 1.941005 1_655
Cu0 O8 1.941005 1_565
O0 Sr0 2.726332 1_665
O1 Sr0 2.732676 1_565
O2 Sr0 2.732676 1_655
O3 Sr0 2.732890 1_555
O4 Sr1 2.726332 1_665
O5 Sr1 2.732676 1_565
O6 Sr1 2.732676 1_655
O7 Sr1 2.732890 1_555
O8 Sr1 2.722462 1_655
O8 Sr0 2.722462 1_654
O9 Sr1 2.725365 1_555
O9 Sr0 2.725365 1_554
O12 Sr0 2.732975 1_655
O12 Sr1 2.732975 1_655
O13 Sr0 2.729327 1_555
O13 Sr1 2.729327 1_555
O17 Sr1 2.722462 1_565
O17 Sr0 2.722462 1_564
O19 Sr1 2.725365 1_555
O19 Sr0 2.725365 1_554
O21 Sr0 2.732975 1_565
O21 Sr1 2.732975 1_565
O23 Sr0 2.729327 1_555
O23 Sr1 2.729327 1_555
