# generated using pymatgen
data_YbSiIr
_symmetry_space_group_name_H-M   'P 1'
_cell_length_a   4.29490900
_cell_length_b   6.91845900
_cell_length_c   7.19020800
_cell_angle_alpha   90.00000000
_cell_angle_beta   90.00000000
_cell_angle_gamma   90.00000000
_symmetry_Int_Tables_number   1
_chemical_formula_structural   YbSiIr
_chemical_formula_sum   'Yb4 Si4 Ir4'
_cell_volume   213.65093217
_cell_formula_units_Z   4
loop_
 _symmetry_equiv_pos_site_id
 _symmetry_equiv_pos_as_xyz
  1  'x, y, z'
loop_
 _atom_site_type_symbol
 _atom_site_label
 _atom_site_symmetry_multiplicity
 _atom_site_fract_x
 _atom_site_fract_y
 _atom_site_fract_z
 _atom_site_occupancy
  Yb  Yb0  1  0.25000000  0.82735600  0.50690200  1
  Yb  Yb1  1  0.75000000  0.32735600  0.99309800  1
  Yb  Yb2  1  0.25000000  0.67264400  0.00690200  1
  Yb  Yb3  1  0.75000000  0.17264400  0.49309800  1
  Si  Si0  1  0.75000000  0.61156200  0.31047900  1
  Si  Si1  1  0.75000000  0.88843800  0.81047900  1
  Si  Si2  1  0.25000000  0.38843800  0.68952100  1
  Si  Si3  1  0.25000000  0.11156200  0.18952100  1
  Ir  Ir0  1  0.75000000  0.92658300  0.14813600  1
  Ir  Ir1  1  0.75000000  0.57341700  0.64813600  1
  Ir  Ir2  1  0.25000000  0.42658300  0.35186400  1
  Ir  Ir3  1  0.25000000  0.07341700  0.85186400  1
loop_
_geom_bond_atom_site_label_1
_geom_bond_atom_site_label_2
_geom_bond_distance
_geom_bond_site_symmetry_2
Si0 Yb0 2.972398 1_555
Si0 Yb0 2.972398 1_655
Si0 Yb1 3.012290 1_554
Si0 Yb2 3.091065 1_655
Si0 Yb2 3.091065 1_555
Si0 Yb3 3.308369 1_555
Si1 Yb2 2.972398 1_556
Si1 Yb2 2.972398 1_656
Si1 Yb3 3.012290 1_565
Si1 Yb0 3.091065 1_555
Si1 Yb0 3.091065 1_655
Si1 Yb1 3.308369 1_565
Si2 Yb3 2.972398 1_555
Si2 Yb3 2.972398 1_455
Si2 Yb2 3.012290 1_556
Si2 Yb1 3.091065 1_455
Si2 Yb1 3.091065 1_555
Si2 Yb0 3.308369 1_555
Si3 Yb1 2.972398 1_554
Si3 Yb1 2.972398 1_454
Si3 Yb0 3.012290 1_545
Si3 Yb3 3.091065 1_555
Si3 Yb3 3.091065 1_455
Si3 Yb2 3.308369 1_545
Ir0 Si1 2.442125 1_554
Ir0 Si0 2.472365 1_555
Ir0 Si3 2.517522 1_665
Ir0 Si3 2.517522 1_565
Ir0 Yb2 2.954553 1_555
Ir0 Yb2 2.954553 1_655
Ir0 Yb1 2.988431 1_564
Ir0 Yb3 3.008350 1_565
Ir1 Si0 2.442125 1_555
Ir1 Si1 2.472365 1_555
Ir1 Si2 2.517522 1_555
Ir1 Si2 2.517522 1_655
Ir1 Yb0 2.954553 1_555
Ir1 Yb0 2.954553 1_655
Ir1 Yb3 2.988431 1_555
Ir1 Yb1 3.008350 1_555
Ir2 Si2 2.442125 1_555
Ir2 Si3 2.472365 1_555
Ir2 Si0 2.517522 1_555
Ir2 Si0 2.517522 1_455
Ir2 Yb3 2.954553 1_455
Ir2 Yb3 2.954553 1_555
Ir2 Yb0 2.988431 1_555
Ir2 Yb2 3.008350 1_555
Ir3 Si3 2.442125 1_556
Ir3 Si2 2.472365 1_555
Ir3 Si1 2.517522 1_445
Ir3 Si1 2.517522 1_545
Ir3 Yb1 2.954553 1_555
Ir3 Yb1 2.954553 1_455
Ir3 Yb2 2.988431 1_546
Ir3 Yb0 3.008350 1_545
