# generated using pymatgen
data_PrCd2Cu9
_symmetry_space_group_name_H-M   'P 1'
_cell_length_a   8.48493400
_cell_length_b   8.48493400
_cell_length_c   4.99774400
_cell_angle_alpha   90.00000000
_cell_angle_beta   90.00000000
_cell_angle_gamma   90.00000000
_symmetry_Int_Tables_number   1
_chemical_formula_structural   PrCd2Cu9
_chemical_formula_sum   'Pr2 Cd4 Cu18'
_cell_volume   359.80810622
_cell_formula_units_Z   2
loop_
 _symmetry_equiv_pos_site_id
 _symmetry_equiv_pos_as_xyz
  1  'x, y, z'
loop_
 _atom_site_type_symbol
 _atom_site_label
 _atom_site_symmetry_multiplicity
 _atom_site_fract_x
 _atom_site_fract_y
 _atom_site_fract_z
 _atom_site_occupancy
  Pr  Pr0  1  0.50000000  0.50000000  0.00000000  1
  Pr  Pr1  1  0.00000000  0.00000000  0.00000000  1
  Cd  Cd0  1  0.12002300  0.62002300  0.00000000  1
  Cd  Cd1  1  0.87997700  0.37997700  0.00000000  1
  Cd  Cd2  1  0.37997700  0.12002300  0.00000000  1
  Cd  Cd3  1  0.62002300  0.87997700  0.00000000  1
  Cu  Cu0  1  0.32148100  0.82148100  0.75209300  1
  Cu  Cu1  1  0.67851900  0.17851900  0.75209300  1
  Cu  Cu2  1  0.17851900  0.32148100  0.75209300  1
  Cu  Cu3  1  0.82148100  0.67851900  0.75209300  1
  Cu  Cu4  1  0.67851900  0.17851900  0.24790700  1
  Cu  Cu5  1  0.32148100  0.82148100  0.24790700  1
  Cu  Cu6  1  0.82148100  0.67851900  0.24790700  1
  Cu  Cu7  1  0.17851900  0.32148100  0.24790700  1
  Cu  Cu8  1  0.56372000  0.70863400  0.50000000  1
  Cu  Cu9  1  0.43628000  0.29136600  0.50000000  1
  Cu  Cu10  1  0.93628000  0.20863400  0.50000000  1
  Cu  Cu11  1  0.06372000  0.79136600  0.50000000  1
  Cu  Cu12  1  0.70863400  0.43628000  0.50000000  1
  Cu  Cu13  1  0.29136600  0.56372000  0.50000000  1
  Cu  Cu14  1  0.20863400  0.06372000  0.50000000  1
  Cu  Cu15  1  0.79136600  0.93628000  0.50000000  1
  Cu  Cu16  1  0.00000000  0.50000000  0.50000000  1
  Cu  Cu17  1  0.50000000  0.00000000  0.50000000  1
loop_
_geom_bond_atom_site_label_1
_geom_bond_atom_site_label_2
_geom_bond_distance
_geom_bond_site_symmetry_2
Cd0 Cu5 2.716407 1_555
Cd0 Cu0 2.716407 1_554
Cd0 Cu6 2.863224 1_455
Cd0 Cu3 2.863224 1_454
Cd0 Cu2 2.863224 1_554
Cd0 Cu7 2.863224 1_555
Cd0 Cd1 2.880434 1_455
Cd0 Cu16 2.884196 1_555
Cd0 Cu16 2.884196 1_554
Cd0 Cu13 2.930225 1_555
Cd0 Cu13 2.930225 1_554
Cd0 Cu11 2.930225 1_555
Cd0 Cu11 2.930225 1_554
Cd0 Pr0 3.381095 1_555
Cd0 Pr1 3.381095 1_565
Cd1 Cu4 2.716407 1_555
Cd1 Cu1 2.716407 1_554
Cd1 Cu3 2.863224 1_554
Cd1 Cu6 2.863224 1_555
Cd1 Cu7 2.863224 1_655
Cd1 Cu2 2.863224 1_654
Cd1 Cu16 2.884196 1_655
Cd1 Cu16 2.884196 1_654
Cd1 Cu10 2.930225 1_555
Cd1 Cu12 2.930225 1_555
Cd1 Cu12 2.930225 1_554
Cd1 Cu10 2.930225 1_554
Cd1 Pr1 3.381095 1_655
Cd1 Pr0 3.381095 1_555
Cd2 Cu7 2.716407 1_555
Cd2 Cu2 2.716407 1_554
Cd2 Cu1 2.863224 1_554
Cd2 Cu0 2.863224 1_544
Cd2 Cu4 2.863224 1_555
Cd2 Cu5 2.863224 1_545
Cd2 Cd3 2.880434 1_545
Cd2 Cu17 2.884196 1_555
Cd2 Cu17 2.884196 1_554
Cd2 Cu9 2.930225 1_555
Cd2 Cu9 2.930225 1_554
Cd2 Cu14 2.930225 1_555
Cd2 Cu14 2.930225 1_554
Cd2 Pr1 3.381095 1_555
Cd2 Pr0 3.381095 1_555
Cd3 Cu6 2.716407 1_555
Cd3 Cu3 2.716407 1_554
Cd3 Cu0 2.863224 1_554
Cd3 Cu5 2.863224 1_555
Cd3 Cu4 2.863224 1_565
Cd3 Cu1 2.863224 1_564
Cd3 Cu17 2.884196 1_565
Cd3 Cu17 2.884196 1_564
Cd3 Cu15 2.930225 1_554
Cd3 Cu8 2.930225 1_555
Cd3 Cu8 2.930225 1_554
Cd3 Cu15 2.930225 1_555
Cd3 Pr1 3.381095 1_665
Cd3 Pr0 3.381095 1_555
Cu0 Cu5 2.477951 1_556
Cu0 Cu17 2.485177 1_565
Cu0 Cu5 2.519793 1_555
Cu0 Cu11 2.536922 1_555
Cu0 Cu13 2.536922 1_555
Cu0 Cu14 2.593981 1_565
Cu0 Cu8 2.593981 1_555
Cu0 Pr0 3.357088 1_556
Cu0 Pr1 3.357088 1_566
Cu1 Cu4 2.477951 1_556
Cu1 Cu17 2.485177 1_555
Cu1 Cu4 2.519793 1_555
Cu1 Cu12 2.536922 1_555
Cu1 Cu10 2.536922 1_555
Cu1 Cu9 2.593981 1_555
Cu1 Cu15 2.593981 1_545
Cu1 Pr0 3.357088 1_556
Cu1 Pr1 3.357088 1_656
Cu2 Cu7 2.477951 1_556
Cu2 Cu7 2.519793 1_555
Cu2 Cu9 2.536922 1_555
Cu2 Pr1 3.357088 1_556
Cu2 Pr0 3.357088 1_556
Cu3 Cu6 2.477951 1_556
Cu3 Cu6 2.519793 1_555
Cu3 Cu8 2.536922 1_555
Cu3 Pr0 3.357088 1_556
Cu3 Pr1 3.357088 1_666
Cu4 Cu9 2.593981 1_555
Cu4 Pr0 3.357088 1_555
Cu4 Pr1 3.357088 1_655
Cu5 Cu8 2.593981 1_555
Cu5 Pr0 3.357088 1_555
Cu5 Pr1 3.357088 1_565
Cu6 Cu8 2.536922 1_555
Cu6 Pr1 3.357088 1_665
Cu6 Pr0 3.357088 1_555
Cu7 Cu9 2.536922 1_555
Cu7 Pr1 3.357088 1_555
Cu7 Pr0 3.357088 1_555
Cu8 Pr0 3.109734 1_555
Cu8 Pr0 3.109734 1_556
Cu9 Pr0 3.109734 1_555
Cu9 Pr0 3.109734 1_556
Cu10 Cu16 2.530650 1_655
Cu10 Cu4 2.536922 1_555
Cu10 Cu2 2.593981 1_655
Cu10 Cu7 2.593981 1_655
Cu10 Cu14 2.617664 1_655
Cu10 Cu15 2.617664 1_545
Cu10 Cu12 2.731640 1_555
Cu10 Pr1 3.109734 1_655
Cu10 Pr1 3.109734 1_656
Cu11 Cu16 2.530650 1_555
Cu11 Cu5 2.536922 1_555
Cu11 Cu6 2.593981 1_455
Cu11 Cu3 2.593981 1_455
Cu11 Cu15 2.617664 1_455
Cu11 Cu14 2.617664 1_565
Cu11 Cu13 2.731640 1_555
Cu11 Pr1 3.109734 1_566
Cu11 Pr1 3.109734 1_565
Cu12 Cu16 2.530650 1_655
Cu12 Cu4 2.536922 1_555
Cu12 Cu3 2.593981 1_555
Cu12 Cu6 2.593981 1_555
Cu12 Cu9 2.617664 1_555
Cu12 Cu8 2.617664 1_555
Cu12 Pr0 3.109734 1_555
Cu12 Pr0 3.109734 1_556
Cu13 Cu16 2.530650 1_555
Cu13 Cu5 2.536922 1_555
Cu13 Cu2 2.593981 1_555
Cu13 Cu7 2.593981 1_555
Cu13 Cu9 2.617664 1_555
Cu13 Cu8 2.617664 1_555
Cu13 Pr0 3.109734 1_555
Cu13 Pr0 3.109734 1_556
Cu14 Cu17 2.530650 1_555
Cu14 Cu7 2.536922 1_555
Cu14 Cu2 2.536922 1_555
Cu14 Cu5 2.593981 1_545
Cu14 Cu9 2.731640 1_555
Cu14 Pr1 3.109734 1_556
Cu14 Pr1 3.109734 1_555
Cu15 Cu17 2.530650 1_565
Cu15 Cu3 2.536922 1_555
Cu15 Cu6 2.536922 1_555
Cu15 Cu4 2.593981 1_565
Cu15 Cu8 2.731640 1_555
Cu15 Pr1 3.109734 1_666
Cu15 Pr1 3.109734 1_665
Cu16 Cu6 2.485177 1_455
Cu16 Cu7 2.485177 1_555
Cu16 Cu3 2.485177 1_455
Cu16 Cu2 2.485177 1_555
Cu17 Cu4 2.485177 1_555
Cu17 Cu5 2.485177 1_545
Cu17 Cu8 2.530650 1_545
Cu17 Cu9 2.530650 1_555
