# generated using pymatgen
data_K2SO4
_symmetry_space_group_name_H-M   'P 1'
_cell_length_a   5.82360977
_cell_length_b   5.82360977
_cell_length_c   8.02972818
_cell_angle_alpha   89.90271908
_cell_angle_beta   89.90271908
_cell_angle_gamma   117.63682980
_symmetry_Int_Tables_number   1
_chemical_formula_structural   K2SO4
_chemical_formula_sum   'K4 S2 O8'
_cell_volume   241.25175508
_cell_formula_units_Z   2
loop_
 _symmetry_equiv_pos_site_id
 _symmetry_equiv_pos_as_xyz
  1  'x, y, z'
loop_
 _atom_site_type_symbol
 _atom_site_label
 _atom_site_symmetry_multiplicity
 _atom_site_fract_x
 _atom_site_fract_y
 _atom_site_fract_z
 _atom_site_occupancy
  K  K0  1  0.30804500  0.69195500  0.25000000  1
  K  K1  1  0.69195500  0.30804500  0.75000000  1
  K  K2  1  0.00000000  0.00000000  0.50000000  1
  K  K3  1  0.00000000  0.00000000  0.00000000  1
  S  S0  1  0.64928300  0.35071700  0.25000000  1
  S  S1  1  0.35071700  0.64928300  0.75000000  1
  O  O0  1  0.72259200  0.25145100  0.09901700  1
  O  O1  1  0.27740800  0.74854900  0.90098300  1
  O  O2  1  0.25145100  0.72259200  0.59901700  1
  O  O3  1  0.74854900  0.27740800  0.40098300  1
  O  O4  1  0.35902500  0.23727100  0.25900000  1
  O  O5  1  0.64097500  0.76272900  0.74100000  1
  O  O6  1  0.23727100  0.35902500  0.75900000  1
  O  O7  1  0.76272900  0.64097500  0.24100000  1
loop_
_geom_bond_atom_site_label_1
_geom_bond_atom_site_label_2
_geom_bond_distance
_geom_bond_site_symmetry_2
K0 O7 2.798837 1_555
K0 O4 2.798837 1_555
K0 O1 2.836837 1_554
K0 O2 2.836837 1_555
K0 O7 3.050352 1_455
K0 O4 3.050352 1_565
K1 O6 2.798837 1_555
K1 O5 2.798837 1_555
K1 O0 2.836837 1_556
K1 O3 2.836837 1_555
K1 O5 3.050352 1_545
K1 O6 3.050352 1_655
K2 O4 2.706034 1_555
K2 O5 2.706034 1_445
K2 O3 2.753304 1_455
K2 O2 2.753304 1_545
K2 O6 2.819619 1_555
K2 O7 2.819619 1_445
K3 O7 2.706034 1_445
K3 O6 2.706034 1_554
K3 O1 2.753304 1_544
K3 O0 2.753304 1_455
K3 O4 2.819619 1_555
K3 O5 2.819619 1_444
O0 S0 1.488567 1_555
O1 S1 1.488567 1_555
O2 S1 1.488567 1_555
O3 S0 1.488567 1_555
O4 S0 1.504113 1_555
O5 S1 1.504113 1_555
O6 S1 1.504113 1_555
O7 S0 1.504113 1_555
