# generated using pymatgen
data_SrVSi2O7
_symmetry_space_group_name_H-M   'P 1'
_cell_length_a   7.89161455
_cell_length_b   7.89161455
_cell_length_c   7.11380100
_cell_angle_alpha   90.00000000
_cell_angle_beta   90.00000000
_cell_angle_gamma   140.11998404
_symmetry_Int_Tables_number   1
_chemical_formula_structural   SrVSi2O7
_chemical_formula_sum   'Sr2 V2 Si4 O14'
_cell_volume   284.06306849
_cell_formula_units_Z   2
loop_
 _symmetry_equiv_pos_site_id
 _symmetry_equiv_pos_as_xyz
  1  'x, y, z'
loop_
 _atom_site_type_symbol
 _atom_site_label
 _atom_site_symmetry_multiplicity
 _atom_site_fract_x
 _atom_site_fract_y
 _atom_site_fract_z
 _atom_site_occupancy
  Sr  Sr0  1  0.20416300  0.79583700  0.75000000  1
  Sr  Sr1  1  0.79583700  0.20416300  0.25000000  1
  V  V0  1  0.89209800  0.10790200  0.75000000  1
  V  V1  1  0.10790200  0.89209800  0.25000000  1
  Si  Si0  1  0.39217000  0.60782900  0.47598600  1
  Si  Si1  1  0.60783000  0.39217000  0.52401400  1
  Si  Si2  1  0.60783000  0.39217000  0.97598600  1
  Si  Si3  1  0.39217000  0.60782900  0.02401400  1
  O  O0  1  0.63729300  0.36270700  0.75000000  1
  O  O1  1  0.36270700  0.63729300  0.25000000  1
  O  O2  1  0.50000000  0.50000000  0.50000000  1
  O  O3  1  0.50000000  0.50000000  0.00000000  1
  O  O4  1  0.59829400  0.90460700  0.56072900  1
  O  O5  1  0.90460700  0.59829400  0.43927100  1
  O  O6  1  0.40170600  0.09539300  0.06072900  1
  O  O7  1  0.09539300  0.40170600  0.93927100  1
  O  O8  1  0.99696500  0.00303500  0.25000000  1
  O  O9  1  0.00303500  0.99696500  0.75000000  1
  O  O10  1  0.90460700  0.59829400  0.06072900  1
  O  O11  1  0.59829400  0.90460700  0.93927100  1
  O  O12  1  0.09539300  0.40170600  0.56072900  1
  O  O13  1  0.40170600  0.09539300  0.43927100  1
loop_
_geom_bond_atom_site_label_1
_geom_bond_atom_site_label_2
_geom_bond_distance
_geom_bond_site_symmetry_2
O0 Si2 1.665994 1_555
O0 Si1 1.665994 1_555
O0 Sr0 2.868379 1_655
O0 Sr0 2.868379 1_545
O1 Si0 1.665996 1_555
O1 Si3 1.665996 1_555
O1 Sr1 2.868379 1_565
O1 Sr1 2.868379 1_455
O2 Si0 1.608964 1_555
O2 Si1 1.608971 1_555
O3 Si3 1.608964 1_555
O3 Si2 1.608971 1_554
O4 Si0 1.627142 1_555
O4 V0 2.013351 1_565
O4 Sr1 2.692347 1_565
O4 Sr0 2.850661 1_555
O5 Si1 1.627137 1_555
O5 V1 2.013351 1_655
O5 Sr0 2.692347 1_655
O5 Sr1 2.850661 1_555
O6 Si2 1.627137 1_554
O6 V1 2.013351 1_545
O6 Sr0 2.692347 1_544
O6 Sr1 2.850661 1_555
O7 Si3 1.627137 1_556
O7 V0 2.013351 1_455
O7 Sr1 2.692347 1_456
O7 Sr0 2.850661 1_555
O8 V1 1.645975 1_645
O8 Sr1 2.984142 1_555
O9 V0 1.645975 1_465
O9 Sr0 2.984142 1_555
O10 Si2 1.627137 1_554
O10 V1 2.013351 1_655
O10 Sr0 2.692347 1_654
O10 Sr1 2.850661 1_555
O11 Si3 1.627142 1_556
O11 V0 2.013351 1_565
O11 Sr1 2.692347 1_566
O11 Sr0 2.850661 1_555
O12 Si0 1.627137 1_555
O12 V0 2.013351 1_455
O12 Sr1 2.692347 1_455
O12 Sr0 2.850661 1_555
O13 Si1 1.627137 1_555
O13 V1 2.013351 1_545
O13 Sr0 2.692347 1_545
O13 Sr1 2.850661 1_555
