# generated using pymatgen
data_CaSnF4
_symmetry_space_group_name_H-M   'P 1'
_cell_length_a   4.00454800
_cell_length_b   4.00454800
_cell_length_c   5.78046700
_cell_angle_alpha   90.00000000
_cell_angle_beta   90.00000000
_cell_angle_gamma   90.00000000
_symmetry_Int_Tables_number   1
_chemical_formula_structural   CaSnF4
_chemical_formula_sum   'Ca1 Sn1 F4'
_cell_volume   92.69790808
_cell_formula_units_Z   1
loop_
 _symmetry_equiv_pos_site_id
 _symmetry_equiv_pos_as_xyz
  1  'x, y, z'
loop_
 _atom_site_type_symbol
 _atom_site_label
 _atom_site_symmetry_multiplicity
 _atom_site_fract_x
 _atom_site_fract_y
 _atom_site_fract_z
 _atom_site_occupancy
  Ca  Ca0  1  0.00000000  0.00000000  0.50000000  1
  Sn  Sn0  1  0.50000000  0.50000000  0.00000000  1
  F  F0  1  0.50000000  0.00000000  0.26573800  1
  F  F1  1  0.50000000  0.00000000  0.73426200  1
  F  F2  1  0.00000000  0.50000000  0.73426200  1
  F  F3  1  0.00000000  0.50000000  0.26573800  1
loop_
_geom_bond_atom_site_label_1
_geom_bond_atom_site_label_2
_geom_bond_distance
_geom_bond_site_symmetry_2
Ca0 F2 2.417190 1_545
Ca0 F1 2.417190 1_455
Ca0 F3 2.417190 1_545
Ca0 F0 2.417190 1_455
Ca0 F1 2.417190 1_555
Ca0 F2 2.417190 1_555
Ca0 F3 2.417190 1_555
Ca0 F0 2.417190 1_555
F0 Sn0 2.523623 1_545
F0 Sn0 2.523623 1_555
F1 Sn0 2.523623 1_556
F1 Sn0 2.523623 1_546
F2 Sn0 2.523623 1_556
F2 Sn0 2.523623 1_456
F3 Sn0 2.523623 1_555
F3 Sn0 2.523623 1_455
