# generated using pymatgen
data_Nd4(ErS2)11
_symmetry_space_group_name_H-M   'P 1'
_cell_length_a   19.63976311
_cell_length_b   19.63976311
_cell_length_c   11.34314518
_cell_angle_alpha   88.67318175
_cell_angle_beta   88.67318175
_cell_angle_gamma   11.50477464
_symmetry_Int_Tables_number   1
_chemical_formula_structural   Nd4(ErS2)11
_chemical_formula_sum   'Nd4 Er11 S22'
_cell_volume   872.41173201
_cell_formula_units_Z   1
loop_
 _symmetry_equiv_pos_site_id
 _symmetry_equiv_pos_as_xyz
  1  'x, y, z'
loop_
 _atom_site_type_symbol
 _atom_site_label
 _atom_site_symmetry_multiplicity
 _atom_site_fract_x
 _atom_site_fract_y
 _atom_site_fract_z
 _atom_site_occupancy
  Nd  Nd0  1  0.10423200  0.10423200  0.98769700  1
  Nd  Nd1  1  0.89576800  0.89576800  0.01230300  1
  Nd  Nd2  1  0.36717000  0.36717000  0.65290800  1
  Nd  Nd3  1  0.63283000  0.63283000  0.34709200  1
  Er  Er0  1  0.79812100  0.79812100  0.94222900  1
  Er  Er1  1  0.20187900  0.20187900  0.05777100  1
  Er  Er2  1  0.46171400  0.46171400  0.72835300  1
  Er  Er3  1  0.53828600  0.53828600  0.27164700  1
  Er  Er4  1  0.65765000  0.65765000  0.69766400  1
  Er  Er5  1  0.34235000  0.34235000  0.30233600  1
  Er  Er6  1  0.26421400  0.26421400  0.64796500  1
  Er  Er7  1  0.73578600  0.73578600  0.35203500  1
  Er  Er8  1  0.06934000  0.06934000  0.64038300  1
  Er  Er9  1  0.93066000  0.93066000  0.35961700  1
  Er  Er10  1  0.00000000  0.00000000  0.00000000  1
  S  S0  1  0.08766400  0.08766400  0.24758800  1
  S  S1  1  0.91233600  0.91233600  0.75241200  1
  S  S2  1  0.18840800  0.18840800  0.30783500  1
  S  S3  1  0.81159200  0.81159200  0.69216500  1
  S  S4  1  0.27998400  0.27998400  0.40996600  1
  S  S5  1  0.72001600  0.72001600  0.59003400  1
  S  S6  1  0.44584900  0.44584900  0.50452000  1
  S  S7  1  0.55415100  0.55415100  0.49548000  1
  S  S8  1  0.13430400  0.13430400  0.54531000  1
  S  S9  1  0.86569600  0.86569600  0.45469000  1
  S  S10  1  0.59293200  0.59293200  0.78870200  1
  S  S11  1  0.40706800  0.40706800  0.21129800  1
  S  S12  1  0.45276400  0.45276400  0.96843900  1
  S  S13  1  0.54723600  0.54723600  0.03156100  1
  S  S14  1  0.35110900  0.35110900  0.90803300  1
  S  S15  1  0.64889100  0.64889100  0.09196700  1
  S  S16  1  0.16821100  0.16821100  0.84874600  1
  S  S17  1  0.83178900  0.83178900  0.15125400  1
  S  S18  1  0.00781000  0.00781000  0.76120800  1
  S  S19  1  0.99219000  0.99219000  0.23879200  1
  S  S20  1  0.25513600  0.25513600  0.88057700  1
  S  S21  1  0.74486400  0.74486400  0.11942300  1
loop_
_geom_bond_atom_site_label_1
_geom_bond_atom_site_label_2
_geom_bond_distance
_geom_bond_site_symmetry_2
Nd0 S15 2.901062 1_456
Nd0 S15 2.901062 1_546
Nd0 S16 2.924523 1_555
Nd0 S0 3.003500 1_556
Nd0 S13 3.005440 1_546
Nd0 S13 3.005440 1_456
Nd0 S10 3.035036 1_545
Nd0 S10 3.035036 1_455
Nd1 S14 2.901062 1_564
Nd1 S14 2.901062 1_654
Nd1 S17 2.924523 1_555
Nd1 S1 3.003500 1_554
Nd1 S12 3.005440 1_564
Nd1 S12 3.005440 1_654
Nd1 S11 3.035036 1_565
Nd1 S11 3.035036 1_655
Nd2 S1 2.890918 1_455
Nd2 S1 2.890918 1_545
Nd2 S14 2.946900 1_555
Nd2 S3 2.957389 1_545
Nd2 S3 2.957389 1_455
Nd2 S9 2.989925 1_455
Nd2 S9 2.989925 1_545
Nd2 S6 3.470922 1_555
Nd3 S0 2.890918 1_565
Nd3 S0 2.890918 1_655
Nd3 S15 2.946900 1_555
Nd3 S2 2.957389 1_655
Nd3 S2 2.957389 1_565
Nd3 S8 2.989925 1_565
Nd3 S8 2.989925 1_655
Nd3 S7 3.470922 1_555
Er0 S20 2.690879 1_655
Er0 S20 2.690879 1_565
Er0 S17 2.738283 1_556
Er0 S21 2.859590 1_556
Er0 S3 2.872884 1_555
Er0 S14 2.876886 1_565
Er0 S14 2.876886 1_655
Er1 S21 2.690879 1_545
Er1 S21 2.690879 1_455
Er1 S16 2.738283 1_554
Er1 S20 2.859590 1_554
Er1 S2 2.872884 1_555
Er1 S15 2.876886 1_545
Er1 S15 2.876886 1_455
Er2 S6 2.627562 1_555
Er2 S18 2.700095 1_565
Er2 S18 2.700095 1_655
Er2 S12 2.737615 1_555
Er2 S1 2.765671 1_455
Er2 S1 2.765671 1_545
Er3 S7 2.627562 1_555
Er3 S19 2.700095 1_455
Er3 S19 2.700095 1_545
Er3 S13 2.737615 1_555
Er3 S0 2.765671 1_655
Er3 S0 2.765671 1_565
Er4 S16 2.648609 1_655
Er4 S16 2.648609 1_565
Er4 S5 2.700515 1_555
Er4 S10 2.709636 1_555
Er4 S8 2.787002 1_565
Er4 S8 2.787002 1_655
Er5 S17 2.648609 1_455
Er5 S17 2.648609 1_545
Er5 S4 2.700515 1_555
Er5 S11 2.709636 1_555
Er5 S9 2.787002 1_545
Er5 S9 2.787002 1_455
Er6 S20 2.654102 1_555
Er6 S5 2.709843 1_455
Er6 S5 2.709843 1_545
Er6 S4 2.755096 1_555
Er6 S3 2.756444 1_455
Er6 S3 2.756444 1_545
Er7 S21 2.654102 1_555
Er7 S4 2.709843 1_565
Er7 S4 2.709843 1_655
Er7 S5 2.755096 1_555
Er7 S2 2.756444 1_565
Er7 S2 2.756444 1_655
Er8 S7 2.640894 1_545
Er8 S7 2.640894 1_455
Er8 S8 2.735252 1_555
Er8 S18 2.739990 1_555
Er8 S10 2.761834 1_545
Er8 S10 2.761834 1_455
Er9 S6 2.640894 1_565
Er9 S6 2.640894 1_655
Er9 S9 2.735252 1_555
Er9 S19 2.739990 1_555
Er9 S11 2.761834 1_565
Er9 S11 2.761834 1_655
Er10 S19 2.718728 1_445
Er10 S18 2.718728 1_554
Er10 S13 2.727968 1_455
Er10 S13 2.727968 1_545
Er10 S12 2.727968 1_454
Er10 S12 2.727968 1_544
