# generated using pymatgen
data_Na2FeO3
_symmetry_space_group_name_H-M   'P 1'
_cell_length_a   5.37108988
_cell_length_b   5.75567935
_cell_length_c   9.31296401
_cell_angle_alpha   90.00259570
_cell_angle_beta   89.99826530
_cell_angle_gamma   70.85717682
_symmetry_Int_Tables_number   1
_chemical_formula_structural   Na2FeO3
_chemical_formula_sum   'Na8 Fe4 O12'
_cell_volume   271.98360599
_cell_formula_units_Z   4
loop_
 _symmetry_equiv_pos_site_id
 _symmetry_equiv_pos_as_xyz
  1  'x, y, z'
loop_
 _atom_site_type_symbol
 _atom_site_label
 _atom_site_symmetry_multiplicity
 _atom_site_fract_x
 _atom_site_fract_y
 _atom_site_fract_z
 _atom_site_occupancy
  Na  Na0  1  0.00000200  0.49997900  0.50110300  1
  Na  Na1  1  0.50000900  0.50000700  0.99932900  1
  Na  Na2  1  0.99998700  0.00002400  0.00043600  1
  Na  Na3  1  0.49999900  0.99998000  0.49929900  1
  Na  Na4  1  0.00002600  0.50002000  0.15571600  1
  Na  Na5  1  0.50002900  0.49999300  0.66098700  1
  Na  Na6  1  0.00001600  0.50000000  0.83808600  1
  Na  Na7  1  0.49998700  0.50000400  0.34389000  1
  Fe  Fe0  1  0.49999400  0.00001900  0.16750000  1
  Fe  Fe1  1  0.99999600  0.00000900  0.33325200  1
  Fe  Fe2  1  0.00000500  0.99996200  0.66761300  1
  Fe  Fe3  1  0.49998300  0.00000200  0.83315200  1
  O  O0  1  0.19071100  0.79551600  0.50835900  1
  O  O1  1  0.69063700  0.79561000  0.99160800  1
  O  O2  1  0.80928600  0.20444000  0.50833800  1
  O  O3  1  0.30935400  0.20442200  0.99162300  1
  O  O4  1  0.23049600  0.20523900  0.31253500  1
  O  O5  1  0.75673400  0.20239300  0.80845400  1
  O  O6  1  0.25550500  0.19973800  0.69131400  1
  O  O7  1  0.73000200  0.20412400  0.18755000  1
  O  O8  1  0.74452400  0.80023300  0.69129800  1
  O  O9  1  0.26994300  0.79594500  0.18756600  1
  O  O10  1  0.76948000  0.79476600  0.31251400  1
  O  O11  1  0.24329600  0.79757600  0.80847600  1
loop_
_geom_bond_atom_site_label_1
_geom_bond_atom_site_label_2
_geom_bond_distance
_geom_bond_site_symmetry_2
Na0 O0 2.256097 1_555
Na0 O2 2.256130 1_455
Na0 O4 2.473197 1_555
Na0 O10 2.473681 1_455
Na0 O8 2.539925 1_455
Na0 O6 2.540200 1_555
Na1 O1 2.256271 1_555
Na1 O3 2.256272 1_555
Na1 O7 2.473770 1_556
Na1 O9 2.473987 1_556
Na1 O11 2.538768 1_555
Na1 O5 2.538893 1_555
Na2 O11 2.294007 1_644
Na2 O5 2.294044 1_554
Na2 O7 2.324190 1_555
Na2 O9 2.324340 1_645
Na2 O1 2.331062 1_544
Na2 O3 2.331069 1_654
Na3 O6 2.292075 1_565
Na3 O8 2.292150 1_555
Na3 O10 2.322596 1_555
Na3 O4 2.322728 1_565
Na3 O2 2.331030 1_565
Na3 O0 2.331059 1_555
Na4 O10 2.272796 1_455
Na4 O4 2.273060 1_555
Na4 O3 2.477114 1_554
Na4 O1 2.477481 1_454
Na4 O9 2.590418 1_555
Na4 O7 2.590714 1_455
Na5 O11 2.274304 1_555
Na5 O5 2.274324 1_555
Na5 O2 2.412529 1_555
Na5 O0 2.412631 1_555
Na5 O8 2.505750 1_555
Na5 O6 2.505967 1_555
Na6 O6 2.276503 1_555
Na6 O8 2.276648 1_455
Na6 O1 2.417784 1_455
Na6 O3 2.417829 1_555
Na6 O11 2.486924 1_555
Na6 O5 2.487100 1_455
Na7 O7 2.272923 1_555
Na7 O9 2.273221 1_555
Na7 O0 2.478920 1_555
Na7 O2 2.479151 1_555
Na7 O4 2.582505 1_555
Na7 O10 2.582528 1_555
Fe0 O7 1.973057 1_555
Fe0 O9 1.973121 1_545
Fe0 O4 2.047740 1_555
Fe0 O10 2.047772 1_545
Fe0 O1 2.079806 1_544
Fe0 O3 2.079810 1_554
Fe1 O4 1.981012 1_655
Fe1 O10 1.981159 1_545
Fe1 O9 2.050714 1_645
Fe1 O7 2.051172 1_555
Fe1 O2 2.074061 1_555
Fe1 O0 2.074501 1_645
Fe2 O5 1.945899 1_465
Fe2 O11 1.946115 1_555
Fe2 O0 1.960301 1_555
Fe2 O2 1.960678 1_465
Fe2 O8 2.070682 1_455
Fe2 O6 2.070991 1_565
Fe3 O6 1.949599 1_555
Fe3 O8 1.949808 1_545
Fe3 O1 1.954587 1_545
Fe3 O3 1.954591 1_555
Fe3 O11 2.089148 1_545
Fe3 O5 2.089307 1_555
