# generated using pymatgen
data_MgFe2(PO5)2
_symmetry_space_group_name_H-M   'P 1'
_cell_length_a   9.94008112
_cell_length_b   8.95618678
_cell_length_c   6.61941958
_cell_angle_alpha   77.71687710
_cell_angle_beta   61.68964240
_cell_angle_gamma   40.59348049
_symmetry_Int_Tables_number   1
_chemical_formula_structural   MgFe2(PO5)2
_chemical_formula_sum   'Mg2 Fe4 P4 O20'
_cell_volume   326.22130375
_cell_formula_units_Z   2
loop_
 _symmetry_equiv_pos_site_id
 _symmetry_equiv_pos_as_xyz
  1  'x, y, z'
loop_
 _atom_site_type_symbol
 _atom_site_label
 _atom_site_symmetry_multiplicity
 _atom_site_fract_x
 _atom_site_fract_y
 _atom_site_fract_z
 _atom_site_occupancy
  Mg  Mg0  1  0.25000000  0.25000000  0.25000000  1
  Mg  Mg1  1  0.00000000  0.00000000  0.00000000  1
  Fe  Fe0  1  0.62500000  0.62500000  0.12500000  1
  Fe  Fe1  1  0.62500000  0.12500000  0.62500000  1
  Fe  Fe2  1  0.62500000  0.62500000  0.62500000  1
  Fe  Fe3  1  0.12500000  0.62500000  0.62500000  1
  P  P0  1  0.79242400  0.79242400  0.20757600  1
  P  P1  1  0.45757600  0.45757600  0.04242400  1
  P  P2  1  0.20757600  0.20757600  0.79242400  1
  P  P3  1  0.04242400  0.04242400  0.45757600  1
  O  O0  1  0.96306000  0.33792200  0.00639600  1
  O  O1  1  0.42122400  0.42122400  0.57877600  1
  O  O2  1  0.91110200  0.06326100  0.36653900  1
  O  O3  1  0.24360400  0.55737900  0.28694000  1
  O  O4  1  0.33792200  0.96306000  0.69262100  1
  O  O5  1  0.33889800  0.18673900  0.88346100  1
  O  O6  1  0.82877600  0.82877600  0.67122400  1
  O  O7  1  0.57877600  0.57877600  0.42122400  1
  O  O8  1  0.67122400  0.67122400  0.82877600  1
  O  O9  1  0.28694000  0.91207800  0.24360400  1
  O  O10  1  0.69262100  0.00639600  0.33792200  1
  O  O11  1  0.55737900  0.24360400  0.91207800  1
  O  O12  1  0.00639600  0.69262100  0.96306000  1
  O  O13  1  0.06326100  0.91110200  0.65909800  1
  O  O14  1  0.59090200  0.88346100  0.18673900  1
  O  O15  1  0.36653900  0.65909800  0.91110200  1
  O  O16  1  0.88346100  0.59090200  0.33889800  1
  O  O17  1  0.65909800  0.36653900  0.06326100  1
  O  O18  1  0.91207800  0.28694000  0.55737900  1
  O  O19  1  0.18673900  0.33889800  0.59090200  1
loop_
_geom_bond_atom_site_label_1
_geom_bond_atom_site_label_2
_geom_bond_distance
_geom_bond_site_symmetry_2
Mg0 O19 2.186244 1_555
Mg0 O14 2.186244 1_545
Mg0 O16 2.186244 1_455
Mg0 O5 2.186244 1_554
Mg1 O17 2.186244 1_455
Mg1 O2 2.186244 1_455
Mg1 O15 2.186244 1_544
Mg1 O13 2.186244 1_544
Fe0 O8 1.821072 1_554
Fe0 O7 1.821072 1_555
Fe0 O9 1.937590 1_555
Fe0 O0 1.937590 1_555
Fe0 O14 2.172535 1_555
Fe0 O17 2.172535 1_555
Fe1 O6 1.821072 1_545
Fe1 O1 1.821072 1_555
Fe1 O11 1.937596 1_555
Fe1 O10 1.937596 1_555
Fe1 O5 2.172535 1_555
Fe1 O2 2.172535 1_555
Fe2 O8 1.821072 1_555
Fe2 O7 1.821072 1_555
Fe2 O18 1.937591 1_555
Fe2 O4 1.937591 1_555
Fe2 O16 2.172535 1_555
Fe2 O15 2.172535 1_555
Fe3 O1 1.821072 1_555
Fe3 O6 1.821072 1_455
Fe3 O12 1.937589 1_555
Fe3 O3 1.937589 1_555
Fe3 O13 2.172535 1_555
Fe3 O19 2.172535 1_555
O0 P2 1.550979 1_654
O2 P3 1.558912 1_655
O3 P1 1.550977 1_555
O4 P2 1.550981 1_565
O5 P2 1.558912 1_555
O9 P3 1.550979 1_565
O10 P0 1.550973 1_545
O11 P1 1.550973 1_556
O12 P0 1.550977 1_456
O13 P3 1.558912 1_565
O14 P0 1.558912 1_555
O15 P1 1.558912 1_556
O16 P0 1.558912 1_555
O17 P1 1.558912 1_555
O18 P3 1.550981 1_655
O19 P2 1.558912 1_555
