# generated using pymatgen
data_CeSiPt2
_symmetry_space_group_name_H-M   'P 1'
_cell_length_a   4.08764861
_cell_length_b   4.13777345
_cell_length_c   9.45303850
_cell_angle_alpha   90.05192484
_cell_angle_beta   102.49078339
_cell_angle_gamma   89.79060308
_symmetry_Int_Tables_number   1
_chemical_formula_structural   CeSiPt2
_chemical_formula_sum   'Ce2 Si2 Pt4'
_cell_volume   156.10103467
_cell_formula_units_Z   2
loop_
 _symmetry_equiv_pos_site_id
 _symmetry_equiv_pos_as_xyz
  1  'x, y, z'
loop_
 _atom_site_type_symbol
 _atom_site_label
 _atom_site_symmetry_multiplicity
 _atom_site_fract_x
 _atom_site_fract_y
 _atom_site_fract_z
 _atom_site_occupancy
  Ce  Ce0  1  0.60113085  0.25000598  0.20204499  1
  Ce  Ce1  1  0.39884679  0.74999782  0.79791107  1
  Si  Si0  1  0.82151678  0.25002002  0.64303068  1
  Si  Si1  1  0.17850342  0.74996401  0.35700893  1
  Pt  Pt0  1  0.94942329  0.24992209  0.89912043  1
  Pt  Pt1  1  0.05047525  0.75008195  0.10066016  1
  Pt  Pt2  1  0.25114478  0.25003547  0.50242371  1
  Pt  Pt3  1  0.74895983  0.74997266  0.49780003  1
loop_
_geom_bond_atom_site_label_1
_geom_bond_atom_site_label_2
_geom_bond_distance
_geom_bond_site_symmetry_2
Ce0 Pt1 3.049804 1_645
Ce0 Pt1 3.050083 1_555
Ce0 Pt1 3.059624 1_545
Ce0 Pt1 3.060498 1_655
Ce0 Si1 3.235931 1_645
Ce0 Si1 3.236193 1_555
Ce0 Si1 3.245028 1_655
Ce0 Si1 3.246169 1_545
Ce0 Pt3 3.424784 1_555
Ce0 Pt3 3.425344 1_545
Ce0 Pt2 3.443687 1_655
Ce0 Pt2 3.444788 1_555
Ce0 Pt0 3.462711 1_554
Ce0 Pt0 3.463645 1_454
Ce1 Pt0 3.049285 1_465
Ce1 Pt0 3.049610 1_555
Ce1 Pt0 3.059153 1_565
Ce1 Pt0 3.059978 1_455
Ce1 Si0 3.235536 1_465
Ce1 Si0 3.235906 1_555
Ce1 Si0 3.244739 1_455
Ce1 Si0 3.245779 1_565
Ce1 Pt2 3.422805 1_555
Ce1 Pt2 3.423386 1_565
Ce1 Pt3 3.441715 1_455
Ce1 Pt3 3.442783 1_555
Ce1 Pt1 3.461383 1_556
Ce1 Pt1 3.462358 1_656
Pt0 Si0 2.363527 1_555
Pt0 Pt1 2.781782 1_646
Pt0 Pt1 2.782443 1_656
Pt1 Si1 2.365918 1_555
Pt2 Si0 2.420849 1_455
Pt2 Si0 2.421155 1_555
Pt2 Si1 2.465948 1_555
Pt2 Si1 2.466175 1_545
Pt3 Si1 2.421787 1_655
Pt3 Si1 2.422040 1_555
Pt3 Si0 2.465107 1_555
Pt3 Si0 2.465167 1_565
