# generated using pymatgen
data_AlVRe2
_symmetry_space_group_name_H-M   'P 1'
_cell_length_a   10.17297961
_cell_length_b   10.17297961
_cell_length_c   10.17297961
_cell_angle_alpha   125.74724201
_cell_angle_beta   118.00633182
_cell_angle_gamma   86.91716091
_symmetry_Int_Tables_number   1
_chemical_formula_structural   AlVRe2
_chemical_formula_sum   'Al1 V1 Re2'
_cell_volume   717.77039479
_cell_formula_units_Z   1
loop_
 _symmetry_equiv_pos_site_id
 _symmetry_equiv_pos_as_xyz
  1  'x, y, z'
loop_
 _atom_site_type_symbol
 _atom_site_label
 _atom_site_symmetry_multiplicity
 _atom_site_fract_x
 _atom_site_fract_y
 _atom_site_fract_z
 _atom_site_occupancy
  Al  Al0  1  0.00000000  0.00000000  0.00000000  1
  V  V0  1  0.00000000  0.50000000  0.50000000  1
  Re  Re0  1  0.00000000  0.26879600  0.26879600  1
  Re  Re1  1  0.00000000  0.73120400  0.73120400  1
loop_
_geom_bond_atom_site_label_1
_geom_bond_atom_site_label_2
_geom_bond_distance
_geom_bond_site_symmetry_2
Al0 Re0 2.493576 1_555
Al0 Re1 2.493576 1_544
Re0 V0 2.144842 1_555
Re1 V0 2.144842 1_555
