# generated using pymatgen
data_LiTi2(PO4)3
_symmetry_space_group_name_H-M   'P 1'
_cell_length_a   8.61194411
_cell_length_b   8.61194411
_cell_length_c   8.61194390
_cell_angle_alpha   60.08291598
_cell_angle_beta   60.08291598
_cell_angle_gamma   60.08290840
_symmetry_Int_Tables_number   1
_chemical_formula_structural   LiTi2(PO4)3
_chemical_formula_sum   'Li2 Ti4 P6 O24'
_cell_volume   452.48461485
_cell_formula_units_Z   2
loop_
 _symmetry_equiv_pos_site_id
 _symmetry_equiv_pos_as_xyz
  1  'x, y, z'
loop_
 _atom_site_type_symbol
 _atom_site_label
 _atom_site_symmetry_multiplicity
 _atom_site_fract_x
 _atom_site_fract_y
 _atom_site_fract_z
 _atom_site_occupancy
  Li  Li0  1  0.00000000  0.00000000  0.00000000  1
  Li  Li1  1  0.50000000  0.50000000  0.50000000  1
  Ti  Ti0  1  0.14145500  0.14145500  0.14145500  1
  Ti  Ti1  1  0.64145500  0.64145500  0.64145500  1
  Ti  Ti2  1  0.85854500  0.85854500  0.85854500  1
  Ti  Ti3  1  0.35854500  0.35854500  0.35854500  1
  P  P0  1  0.54053400  0.25000000  0.95946600  1
  P  P1  1  0.75000000  0.04053400  0.45946600  1
  P  P2  1  0.45946600  0.75000000  0.04053400  1
  P  P3  1  0.04053400  0.45946600  0.75000000  1
  P  P4  1  0.25000000  0.95946600  0.54053400  1
  P  P5  1  0.95946600  0.54053400  0.25000000  1
  O  O0  1  0.00199600  0.37587900  0.19293500  1
  O  O1  1  0.41583700  0.76888300  0.55655000  1
  O  O2  1  0.55655000  0.41583700  0.76888300  1
  O  O3  1  0.76888300  0.55655000  0.41583700  1
  O  O4  1  0.08416300  0.94345000  0.73111700  1
  O  O5  1  0.73111700  0.08416300  0.94345000  1
  O  O6  1  0.94345000  0.73111700  0.08416300  1
  O  O7  1  0.58416300  0.23111700  0.44345000  1
  O  O8  1  0.44345000  0.58416300  0.23111700  1
  O  O9  1  0.23111700  0.44345000  0.58416300  1
  O  O10  1  0.99800400  0.62412100  0.80706500  1
  O  O11  1  0.37587900  0.19293500  0.00199600  1
  O  O12  1  0.19293500  0.00199600  0.37587900  1
  O  O13  1  0.12412100  0.49800400  0.30706500  1
  O  O14  1  0.49800400  0.30706500  0.12412100  1
  O  O15  1  0.30706500  0.12412100  0.49800400  1
  O  O16  1  0.62412100  0.80706500  0.99800400  1
  O  O17  1  0.26888300  0.91583700  0.05655000  1
  O  O18  1  0.80706500  0.99800400  0.62412100  1
  O  O19  1  0.87587900  0.50199600  0.69293500  1
  O  O20  1  0.50199600  0.69293500  0.87587900  1
  O  O21  1  0.69293500  0.87587900  0.50199600  1
  O  O22  1  0.05655000  0.26888300  0.91583700  1
  O  O23  1  0.91583700  0.05655000  0.26888300  1
loop_
_geom_bond_atom_site_label_1
_geom_bond_atom_site_label_2
_geom_bond_distance
_geom_bond_site_symmetry_2
Li0 O5 2.285426 1_454
Li0 O17 2.285426 1_545
Li0 O4 2.285426 1_544
Li0 O23 2.285426 1_455
Li0 O6 2.285427 1_445
Li0 O22 2.285427 1_554
Li1 O7 2.285426 1_555
Li1 O1 2.285426 1_555
Li1 O2 2.285426 1_555
Li1 O8 2.285426 1_555
Li1 O3 2.285427 1_555
Li1 O9 2.285427 1_555
O0 P5 1.543986 1_455
O0 Ti0 1.912542 1_555
O1 P4 1.544362 1_555
O1 Ti1 2.001016 1_555
O2 P0 1.544362 1_555
O2 Ti1 2.001016 1_555
O3 P5 1.544362 1_555
O3 Ti1 2.001016 1_555
O4 P4 1.544362 1_555
O4 Ti2 2.001016 1_455
O5 P0 1.544362 1_555
O5 Ti2 2.001016 1_545
O6 P5 1.544362 1_555
O6 Ti2 2.001016 1_554
O7 P1 1.544362 1_555
O7 Ti3 2.001016 1_555
O8 P2 1.544362 1_555
O8 Ti3 2.001016 1_555
O9 P3 1.544362 1_555
O9 Ti3 2.001016 1_555
O10 P3 1.543986 1_655
O10 Ti2 1.912542 1_555
O11 P0 1.543986 1_554
O11 Ti0 1.912542 1_555
O12 P4 1.543986 1_545
O12 Ti0 1.912542 1_555
O13 P5 1.543986 1_455
O13 Ti3 1.912542 1_555
O14 P0 1.543986 1_554
O14 Ti3 1.912542 1_555
O15 P4 1.543986 1_545
O15 Ti3 1.912542 1_555
O16 P2 1.543986 1_556
O16 Ti2 1.912542 1_555
O17 P2 1.544362 1_555
O17 Ti0 2.001016 1_565
O18 P1 1.543986 1_565
O18 Ti2 1.912542 1_555
O19 P3 1.543986 1_655
O19 Ti1 1.912542 1_555
O20 P2 1.543986 1_556
O20 Ti1 1.912542 1_555
O21 P1 1.543986 1_565
O21 Ti1 1.912542 1_555
O22 P3 1.544362 1_555
O22 Ti0 2.001016 1_556
O23 P1 1.544362 1_555
O23 Ti0 2.001016 1_655
