# generated using pymatgen
data_LaAlNi4
_symmetry_space_group_name_H-M   'P 1'
_cell_length_a   5.16607955
_cell_length_b   5.16607955
_cell_length_c   3.87137300
_cell_angle_alpha   90.00000000
_cell_angle_beta   90.00000000
_cell_angle_gamma   119.99999426
_symmetry_Int_Tables_number   1
_chemical_formula_structural   LaAlNi4
_chemical_formula_sum   'La1 Al1 Ni4'
_cell_volume   89.47832644
_cell_formula_units_Z   1
loop_
 _symmetry_equiv_pos_site_id
 _symmetry_equiv_pos_as_xyz
  1  'x, y, z'
loop_
 _atom_site_type_symbol
 _atom_site_label
 _atom_site_symmetry_multiplicity
 _atom_site_fract_x
 _atom_site_fract_y
 _atom_site_fract_z
 _atom_site_occupancy
  La  La0  1  0.33333300  0.66666700  0.00000000  1
  Al  Al0  1  0.66666700  0.33333300  0.00000000  1
  Ni  Ni0  1  0.00000000  0.00000000  0.00000000  1
  Ni  Ni1  1  0.32962300  0.16481200  0.50000000  1
  Ni  Ni2  1  0.83518800  0.16481200  0.50000000  1
  Ni  Ni3  1  0.83518800  0.67037700  0.50000000  1
loop_
_geom_bond_atom_site_label_1
_geom_bond_atom_site_label_2
_geom_bond_distance
_geom_bond_site_symmetry_2
La0 Ni0 2.982634 1_565
La0 Ni0 2.982639 1_555
La0 Ni0 2.982639 1_665
La0 Ni1 3.227887 1_564
La0 Ni1 3.227887 1_565
La0 Ni3 3.227887 1_454
La0 Ni3 3.227887 1_455
La0 Ni3 3.227887 1_555
La0 Ni3 3.227887 1_554
La0 Ni1 3.227887 1_554
La0 Ni1 3.227887 1_555
La0 Ni2 3.227887 1_564
La0 Ni2 3.227887 1_565
La0 Ni2 3.227887 1_454
La0 Ni2 3.227887 1_455
Al0 Ni2 2.453707 1_554
Al0 Ni2 2.453707 1_555
Al0 Ni3 2.453713 1_555
Al0 Ni1 2.453713 1_555
Al0 Ni3 2.453713 1_554
Al0 Ni1 2.453713 1_554
Al0 Ni0 2.982634 1_655
Al0 La0 2.982635 1_545
Al0 La0 2.982635 1_655
Al0 Ni0 2.982639 1_555
Al0 Ni0 2.982639 1_665
Al0 La0 2.982643 1_555
Ni0 Ni1 2.433450 1_555
Ni0 Ni1 2.433450 1_554
Ni0 Ni3 2.433450 1_444
Ni0 Ni3 2.433450 1_445
Ni0 Ni2 2.433452 1_455
Ni0 Ni2 2.433452 1_454
Ni1 Ni2 2.554291 1_455
Ni1 Ni3 2.554291 1_445
Ni1 Ni2 2.611789 1_555
Ni1 Ni3 2.611789 1_555
Ni2 Ni3 2.554291 1_545
Ni2 Ni3 2.611789 1_555
