# generated using pymatgen
data_Cs2ZnGe3Se8
_symmetry_space_group_name_H-M   'P 1'
_cell_length_a   7.80076757
_cell_length_b   13.77594666
_cell_length_c   18.02940071
_cell_angle_alpha   90.00000000
_cell_angle_beta   90.00000000
_cell_angle_gamma   90.00000000
_symmetry_Int_Tables_number   1
_chemical_formula_structural   Cs2ZnGe3Se8
_chemical_formula_sum   'Cs8 Zn4 Ge12 Se32'
_cell_volume   1937.49273039
_cell_formula_units_Z   4
loop_
 _symmetry_equiv_pos_site_id
 _symmetry_equiv_pos_as_xyz
  1  'x, y, z'
loop_
 _atom_site_type_symbol
 _atom_site_label
 _atom_site_symmetry_multiplicity
 _atom_site_fract_x
 _atom_site_fract_y
 _atom_site_fract_z
 _atom_site_occupancy
  Cs  Cs0  1  0.75195502  0.62666024  0.05315570  1
  Cs  Cs1  1  0.74804498  0.37333976  0.55315570  1
  Cs  Cs2  1  0.25195502  0.87333976  0.94684430  1
  Cs  Cs3  1  0.24804498  0.12666024  0.44684430  1
  Cs  Cs4  1  0.25432981  0.80936112  0.34711400  1
  Cs  Cs5  1  0.24567019  0.19063888  0.84711400  1
  Cs  Cs6  1  0.75432981  0.69063888  0.65288600  1
  Cs  Cs7  1  0.74567019  0.30936112  0.15288600  1
  Zn  Zn0  1  0.99268709  0.49745797  0.34822770  1
  Zn  Zn1  1  0.50731291  0.50254203  0.84822770  1
  Zn  Zn2  1  0.49268709  0.00254203  0.65177230  1
  Zn  Zn3  1  0.00731291  0.99745797  0.15177230  1
  Ge  Ge0  1  0.76470411  0.04480249  0.32154913  1
  Ge  Ge1  1  0.73529589  0.95519751  0.82154913  1
  Ge  Ge2  1  0.26470411  0.45519751  0.67845087  1
  Ge  Ge3  1  0.23529589  0.54480249  0.17845087  1
  Ge  Ge4  1  0.73680776  0.94552855  0.48289100  1
  Ge  Ge5  1  0.76319224  0.05447145  0.98289100  1
  Ge  Ge6  1  0.23680776  0.55447145  0.51710900  1
  Ge  Ge7  1  0.26319224  0.44552855  0.01710900  1
  Ge  Ge8  1  0.51564068  0.98062873  0.15254689  1
  Ge  Ge9  1  0.98435932  0.01937127  0.65254689  1
  Ge  Ge10  1  0.01564068  0.51937127  0.84745311  1
  Ge  Ge11  1  0.48435932  0.48062873  0.34745311  1
  Se  Se0  1  0.99068075  0.60380169  0.23636758  1
  Se  Se1  1  0.50931925  0.39619831  0.73636758  1
  Se  Se2  1  0.49068075  0.89619831  0.76363242  1
  Se  Se3  1  0.00931925  0.10380169  0.26363242  1
  Se  Se4  1  0.98712576  0.60683722  0.45910039  1
  Se  Se5  1  0.51287424  0.39316278  0.95910039  1
  Se  Se6  1  0.48712576  0.89316278  0.54089961  1
  Se  Se7  1  0.01287424  0.10683722  0.04089961  1
  Se  Se8  1  0.76101200  0.88205887  0.15450539  1
  Se  Se9  1  0.73898800  0.11794113  0.65450539  1
  Se  Se10  1  0.26101200  0.61794113  0.84549461  1
  Se  Se11  1  0.23898800  0.38205887  0.34549461  1
  Se  Se12  1  0.76447193  0.61433253  0.84986739  1
  Se  Se13  1  0.73552807  0.38566747  0.34986739  1
  Se  Se14  1  0.26447193  0.88566747  0.15013261  1
  Se  Se15  1  0.23552807  0.11433253  0.65013261  1
  Se  Se16  1  0.76425731  0.87626686  0.36034043  1
  Se  Se17  1  0.73574269  0.12373314  0.86034043  1
  Se  Se18  1  0.26425731  0.62373314  0.63965957  1
  Se  Se19  1  0.23574269  0.37626686  0.13965957  1
  Se  Se20  1  0.74011268  0.11437732  0.44474234  1
  Se  Se21  1  0.75988732  0.88562268  0.94474234  1
  Se  Se22  1  0.24011268  0.38562268  0.55525766  1
  Se  Se23  1  0.25988732  0.61437732  0.05525766  1
  Se  Se24  1  0.49668027  0.58805749  0.24002880  1
  Se  Se25  1  0.00331973  0.41194251  0.74002880  1
  Se  Se26  1  -0.00331973  0.91194251  0.75997120  1
  Se  Se27  1  0.50331973  0.08805749  0.25997120  1
  Se  Se28  1  0.49485782  0.59455925  0.45142583  1
  Se  Se29  1  0.00514218  0.40544075  0.95142583  1
  Se  Se30  1  0.99485782  0.90544075  0.54857417  1
  Se  Se31  1  0.50514218  0.09455925  0.04857417  1
loop_
_geom_bond_atom_site_label_1
_geom_bond_atom_site_label_2
_geom_bond_distance
_geom_bond_site_symmetry_2
Cs0 Se12 3.670398 1_554
Cs0 Se0 3.805029 1_555
Cs0 Se23 3.842420 1_555
Cs0 Se24 3.949659 1_555
Cs0 Se8 3.965194 1_555
Cs0 Se23 3.966054 1_655
Cs0 Se21 4.068307 1_554
Cs0 Se29 4.068436 1_654
Cs0 Se5 4.086650 1_554
Cs1 Se13 3.670398 1_555
Cs1 Se1 3.805029 1_555
Cs1 Se22 3.842420 1_655
Cs1 Se25 3.949659 1_655
Cs1 Se9 3.965194 1_555
Cs1 Se22 3.966054 1_555
Cs1 Se20 4.068307 1_555
Cs1 Se28 4.068436 1_555
Cs1 Se4 4.086650 1_555
Cs2 Se14 3.670398 1_556
Cs2 Se2 3.805029 1_555
Cs2 Se21 3.842420 1_455
Cs2 Se26 3.949659 1_555
Cs2 Se10 3.965194 1_555
Cs2 Se21 3.966054 1_555
Cs2 Se23 4.068307 1_556
Cs2 Se31 4.068436 1_566
Cs2 Se7 4.086650 1_566
Cs3 Se15 3.670398 1_555
Cs3 Se3 3.805029 1_555
Cs3 Se20 3.842420 1_555
Cs3 Se27 3.949659 1_555
Cs3 Se11 3.965194 1_555
Cs3 Se20 3.966054 1_455
Cs3 Se22 4.068307 1_555
Cs3 Se30 4.068436 1_445
Cs3 Se6 4.086650 1_545
Cs4 Se14 3.704606 1_555
Cs4 Se16 3.939703 1_455
Cs4 Se28 3.976649 1_555
Cs4 Se4 4.025560 1_455
Cs4 Se0 4.029343 1_455
Cs4 Se24 4.073815 1_555
Cs4 Se16 4.090168 1_555
Cs4 Se6 4.103348 1_555
Cs5 Se15 3.704606 1_555
Cs5 Se17 3.939703 1_555
Cs5 Se29 3.976649 1_555
Cs5 Se5 4.025560 1_555
Cs5 Se1 4.029343 1_555
Cs5 Se25 4.073815 1_555
Cs5 Se17 4.090168 1_455
Cs5 Se7 4.103348 1_556
Cs6 Se12 3.704606 1_555
Cs6 Se18 3.939703 1_555
Cs6 Se30 3.976649 1_555
Cs6 Se6 4.025560 1_555
Cs6 Se2 4.029343 1_555
Cs6 Se26 4.073815 1_655
Cs6 Se18 4.090168 1_655
Cs6 Se4 4.103348 1_555
Cs7 Se13 3.704606 1_555
Cs7 Se19 3.939703 1_655
Cs7 Se31 3.976649 1_555
Cs7 Se7 4.025560 1_655
Cs7 Se3 4.029343 1_655
Cs7 Se27 4.073815 1_555
Cs7 Se19 4.090168 1_555
Cs7 Se5 4.103348 1_554
Ge0 Se3 2.322096 1_655
Ge0 Se27 2.396906 1_555
Ge0 Se16 2.424792 1_545
Ge0 Se20 2.426670 1_555
Ge1 Se2 2.322096 1_555
Ge1 Se26 2.396906 1_655
Ge1 Se17 2.424792 1_565
Ge1 Se21 2.426670 1_555
Ge2 Se1 2.322096 1_555
Ge2 Se25 2.396906 1_555
Ge2 Se18 2.424792 1_555
Ge2 Se22 2.426670 1_555
Ge3 Se0 2.322096 1_455
Ge3 Se24 2.396906 1_555
Ge3 Se19 2.424792 1_555
Ge3 Se23 2.426670 1_555
Ge4 Se6 2.325469 1_555
Ge4 Se30 2.399895 1_555
Ge4 Se16 2.416235 1_555
Ge4 Se20 2.425747 1_565
Ge5 Se7 2.325469 1_656
Ge5 Se31 2.399895 1_556
Ge5 Se17 2.416235 1_555
Ge5 Se21 2.425747 1_545
Ge6 Se4 2.325469 1_455
Ge6 Se28 2.399895 1_555
Ge6 Se18 2.416235 1_555
Ge6 Se22 2.425747 1_555
Ge7 Se5 2.325469 1_554
Ge7 Se29 2.399895 1_554
Ge7 Se19 2.416235 1_555
Ge7 Se23 2.425747 1_555
Ge8 Se8 2.347092 1_555
Ge8 Se14 2.356295 1_555
Ge8 Se27 2.439389 1_565
Ge8 Se31 2.446229 1_565
Ge9 Se9 2.347092 1_555
Ge9 Se15 2.356295 1_655
Ge9 Se26 2.439389 1_645
Ge9 Se30 2.446229 1_545
Ge10 Se10 2.347092 1_555
Ge10 Se12 2.356295 1_455
Ge10 Se25 2.439389 1_555
Ge10 Se29 2.446229 1_555
Ge11 Se11 2.347092 1_555
Ge11 Se13 2.356295 1_555
Ge11 Se24 2.439389 1_555
Ge11 Se28 2.446229 1_555
Se0 Zn0 2.492748 1_555
Se1 Zn1 2.492748 1_555
Se2 Zn2 2.492748 1_565
Se3 Zn3 2.492748 1_545
Se4 Zn0 2.503639 1_555
Se5 Zn1 2.503639 1_555
Se6 Zn2 2.503639 1_565
Se7 Zn3 2.503639 1_545
Se8 Zn3 2.494235 1_655
Se9 Zn2 2.494235 1_555
Se10 Zn1 2.494235 1_555
Se11 Zn0 2.494235 1_455
Se12 Zn1 2.529174 1_555
Se13 Zn0 2.529174 1_555
Se14 Zn3 2.529174 1_555
Se15 Zn2 2.529174 1_555
