# generated using pymatgen
data_AlAg(WO4)2
_symmetry_space_group_name_H-M   'P 1'
_cell_length_a   5.86724600
_cell_length_b   5.14836100
_cell_length_c   10.44513212
_cell_angle_alpha   63.13715989
_cell_angle_beta   90.00000000
_cell_angle_gamma   90.00000000
_symmetry_Int_Tables_number   1
_chemical_formula_structural   AlAg(WO4)2
_chemical_formula_sum   'Al2 Ag2 W4 O16'
_cell_volume   281.46621635
_cell_formula_units_Z   2
loop_
 _symmetry_equiv_pos_site_id
 _symmetry_equiv_pos_as_xyz
  1  'x, y, z'
loop_
 _atom_site_type_symbol
 _atom_site_label
 _atom_site_symmetry_multiplicity
 _atom_site_fract_x
 _atom_site_fract_y
 _atom_site_fract_z
 _atom_site_occupancy
  Al  Al0  1  0.66164900  0.50000000  0.75000000  1
  Al  Al1  1  0.33835100  0.50000000  0.25000000  1
  Ag  Ag0  1  0.34666900  0.00000000  0.75000000  1
  Ag  Ag1  1  0.65333100  0.00000000  0.25000000  1
  W  W0  1  0.16745000  0.74167500  0.50062100  1
  W  W1  1  0.16745000  0.25832500  0.99937900  1
  W  W2  1  0.83255000  0.25832500  0.49937900  1
  W  W3  1  0.83255000  0.74167500  0.00062100  1
  O  O0  1  0.40670900  0.27448700  0.88113100  1
  O  O1  1  0.40670900  0.72551300  0.61886900  1
  O  O2  1  0.59329100  0.72551300  0.11886900  1
  O  O3  1  0.59329100  0.27448700  0.38113100  1
  O  O4  1  0.89915200  0.65944300  0.38963700  1
  O  O5  1  0.89915200  0.34055700  0.11036300  1
  O  O6  1  0.10084800  0.34055700  0.61036300  1
  O  O7  1  0.10084800  0.65944300  0.88963700  1
  O  O8  1  0.66767700  0.70258500  0.85798100  1
  O  O9  1  0.66767700  0.29741500  0.64201900  1
  O  O10  1  0.33232300  0.29741500  0.14201900  1
  O  O11  1  0.33232300  0.70258500  0.35798100  1
  O  O12  1  0.88506500  0.17970300  0.89440800  1
  O  O13  1  0.11493500  0.82029700  0.10559200  1
  O  O14  1  0.88506500  0.82029700  0.60559200  1
  O  O15  1  0.11493500  0.17970300  0.39440800  1
loop_
_geom_bond_atom_site_label_1
_geom_bond_atom_site_label_2
_geom_bond_distance
_geom_bond_site_symmetry_2
Al0 O8 1.850472 1_555
Al0 O9 1.850472 1_555
Al0 O0 2.006064 1_555
Al0 O1 2.006064 1_555
Al0 O14 2.113022 1_555
Al0 O12 2.113022 1_555
Al1 O10 1.850472 1_555
Al1 O11 1.850472 1_555
Al1 O3 2.006064 1_555
Al1 O2 2.006064 1_555
Al1 O15 2.113022 1_555
Al1 O13 2.113022 1_555
Ag0 O6 2.229481 1_555
Ag0 O7 2.229481 1_545
Ag0 O9 2.367125 1_555
Ag0 O8 2.367125 1_545
Ag0 O1 2.397152 1_545
Ag0 O0 2.397152 1_555
Ag1 O4 2.229481 1_545
Ag1 O5 2.229481 1_555
Ag1 O10 2.367125 1_555
Ag1 O11 2.367125 1_545
Ag1 O3 2.397152 1_555
Ag1 O2 2.397152 1_545
O0 W1 1.846670 1_555
O1 W0 1.846670 1_555
O2 W3 1.846670 1_555
O3 W2 1.846670 1_555
O4 W2 1.895268 1_555
O4 W0 2.108225 1_655
O5 W3 1.895268 1_555
O5 W1 2.108225 1_654
O6 W0 1.895268 1_555
O6 W2 2.108225 1_455
O7 W1 1.895268 1_555
O7 W3 2.108225 1_456
O8 W3 1.861994 1_556
O9 W2 1.861994 1_555
O10 W1 1.861994 1_554
O11 W0 1.861994 1_555
O12 W3 2.037243 1_546
O12 W1 2.124182 1_655
O13 W1 2.037243 1_564
O13 W3 2.124182 1_455
O14 W2 2.037243 1_565
O14 W0 2.124182 1_655
O15 W0 2.037243 1_545
O15 W2 2.124182 1_455
