# generated using pymatgen
data_Li2Ti3NbO8
_symmetry_space_group_name_H-M   'P 1'
_cell_length_a   6.04898257
_cell_length_b   6.04898257
_cell_length_c   6.04898220
_cell_angle_alpha   60.07893126
_cell_angle_beta   60.07893126
_cell_angle_gamma   60.07893294
_symmetry_Int_Tables_number   1
_chemical_formula_structural   Li2Ti3NbO8
_chemical_formula_sum   'Li2 Ti3 Nb1 O8'
_cell_volume   156.78629552
_cell_formula_units_Z   1
loop_
 _symmetry_equiv_pos_site_id
 _symmetry_equiv_pos_as_xyz
  1  'x, y, z'
loop_
 _atom_site_type_symbol
 _atom_site_label
 _atom_site_symmetry_multiplicity
 _atom_site_fract_x
 _atom_site_fract_y
 _atom_site_fract_z
 _atom_site_occupancy
  Li  Li0  1  0.12540300  0.12540300  0.12540300  1
  Li  Li1  1  0.87459700  0.87459700  0.87459700  1
  Ti  Ti0  1  0.50000000  0.00000000  0.50000000  1
  Ti  Ti1  1  0.00000000  0.50000000  0.50000000  1
  Ti  Ti2  1  0.50000000  0.50000000  0.00000000  1
  Nb  Nb0  1  0.50000000  0.50000000  0.50000000  1
  O  O0  1  0.26378200  0.26378200  0.26378200  1
  O  O1  1  0.25647300  0.25647300  0.71746300  1
  O  O2  1  0.71746300  0.25647300  0.25647300  1
  O  O3  1  0.25647300  0.71746300  0.25647300  1
  O  O4  1  0.74352700  0.28253700  0.74352700  1
  O  O5  1  0.28253700  0.74352700  0.74352700  1
  O  O6  1  0.74352700  0.74352700  0.28253700  1
  O  O7  1  0.73621800  0.73621800  0.73621800  1
loop_
_geom_bond_atom_site_label_1
_geom_bond_atom_site_label_2
_geom_bond_distance
_geom_bond_site_symmetry_2
Li0 O1 2.017405 1_554
Li0 O3 2.017405 1_545
Li0 O2 2.017405 1_455
Li0 O0 2.049127 1_555
Li1 O6 2.017405 1_556
Li1 O4 2.017405 1_565
Li1 O5 2.017405 1_655
Li1 O7 2.049127 1_555
Nb0 O4 2.090196 1_555
Nb0 O5 2.090196 1_555
Nb0 O2 2.090196 1_555
Nb0 O3 2.090196 1_555
Nb0 O6 2.090196 1_555
Nb0 O1 2.090196 1_555
O0 Ti2 2.029088 1_555
O0 Ti0 2.029088 1_555
O0 Ti1 2.029088 1_555
O1 Ti1 2.032256 1_555
O1 Ti0 2.032256 1_555
O2 Ti2 2.032256 1_555
O2 Ti0 2.032256 1_555
O3 Ti2 2.032256 1_555
O3 Ti1 2.032256 1_555
O4 Ti2 2.032256 1_556
O4 Ti1 2.032256 1_655
O5 Ti2 2.032256 1_556
O5 Ti0 2.032256 1_565
O6 Ti0 2.032256 1_565
O6 Ti1 2.032256 1_655
O7 Ti2 2.029088 1_556
O7 Ti0 2.029088 1_565
O7 Ti1 2.029088 1_655
