# generated using pymatgen
data_Sm2Mn2Ga2Fe13C
_symmetry_space_group_name_H-M   'P 1'
_cell_length_a   6.47061684
_cell_length_b   6.47061684
_cell_length_c   6.48394759
_cell_angle_alpha   83.06919390
_cell_angle_beta   83.06919390
_cell_angle_gamma   82.99644281
_symmetry_Int_Tables_number   1
_chemical_formula_structural   Sm2Mn2Ga2Fe13C
_chemical_formula_sum   'Sm2 Mn2 Ga2 Fe13 C1'
_cell_volume   265.92989486
_cell_formula_units_Z   1
loop_
 _symmetry_equiv_pos_site_id
 _symmetry_equiv_pos_as_xyz
  1  'x, y, z'
loop_
 _atom_site_type_symbol
 _atom_site_label
 _atom_site_symmetry_multiplicity
 _atom_site_fract_x
 _atom_site_fract_y
 _atom_site_fract_z
 _atom_site_occupancy
  Sm  Sm0  1  0.65697100  0.65697100  0.64470700  1
  Sm  Sm1  1  0.34302900  0.34302900  0.35529300  1
  Mn  Mn0  1  0.00000000  0.50000000  0.00000000  1
  Mn  Mn1  1  0.50000000  0.00000000  0.00000000  1
  Ga  Ga0  1  0.89637600  0.89637600  0.89759700  1
  Ga  Ga1  1  0.10362400  0.10362400  0.10240300  1
  Fe  Fe0  1  0.34416600  0.34416600  0.84980400  1
  Fe  Fe1  1  0.34099100  0.84521200  0.34289000  1
  Fe  Fe2  1  0.84521200  0.34099100  0.34289000  1
  Fe  Fe3  1  0.65583400  0.65583400  0.15019600  1
  Fe  Fe4  1  0.65900900  0.15478800  0.65711000  1
  Fe  Fe5  1  0.15478800  0.65900900  0.65711000  1
  Fe  Fe6  1  0.28612600  0.71387400  0.00000000  1
  Fe  Fe7  1  0.70767100  0.00045900  0.29059800  1
  Fe  Fe8  1  0.99954100  0.29232900  0.70940200  1
  Fe  Fe9  1  0.29232900  0.99954100  0.70940200  1
  Fe  Fe10  1  0.00045900  0.70767100  0.29059800  1
  Fe  Fe11  1  0.71387400  0.28612600  0.00000000  1
  Fe  Fe12  1  0.00000000  0.00000000  0.50000000  1
  C  C0  1  0.50000000  0.50000000  0.00000000  1
loop_
_geom_bond_atom_site_label_1
_geom_bond_atom_site_label_2
_geom_bond_distance
_geom_bond_site_symmetry_2
Ga0 Ga1 2.580359 1_666
Ga0 Mn1 2.597250 1_566
Ga0 Mn0 2.597250 1_656
Ga0 Sm0 3.049486 1_555
Ga1 Mn0 2.597250 1_555
Ga1 Mn1 2.597250 1_555
Ga1 Sm1 3.049486 1_555
Fe0 Mn0 2.467898 1_556
Fe0 Mn1 2.467898 1_556
Fe0 Fe4 2.521776 1_555
Fe0 Fe5 2.521776 1_555
Fe0 Fe9 2.580678 1_545
Fe0 Fe8 2.580678 1_455
Fe0 Ga1 2.624486 1_556
Fe1 Fe12 2.464561 1_565
Fe1 Mn1 2.483255 1_565
Fe1 Fe5 2.494675 1_555
Fe1 Fe3 2.521776 1_555
Fe1 Fe10 2.548248 1_555
Fe1 Fe6 2.551723 1_555
Fe1 Ga1 2.628459 1_565
Fe1 Fe7 2.656764 1_565
Fe1 Fe9 2.656936 1_555
Fe1 Sm0 3.045771 1_555
Fe1 Sm1 3.233542 1_565
Fe1 Sm1 3.239167 1_555
Fe2 Mn0 2.483255 1_655
Fe2 Fe4 2.494675 1_555
Fe2 Fe3 2.521776 1_555
Fe2 Fe7 2.548248 1_555
Fe2 Ga1 2.628459 1_655
Fe2 Fe8 2.656936 1_555
Fe2 Sm0 3.045771 1_555
Fe2 Sm1 3.233542 1_655
Fe2 Sm1 3.239167 1_555
Fe3 Mn0 2.467898 1_655
Fe3 Mn1 2.467898 1_565
Fe3 Fe7 2.580678 1_565
Fe3 Ga0 2.624486 1_554
Fe4 Mn1 2.483255 1_556
Fe4 Fe8 2.548248 1_555
Fe4 Ga0 2.628459 1_545
Fe4 Fe9 2.656764 1_545
Fe4 Fe7 2.656936 1_555
Fe4 Sm1 3.045771 1_555
Fe4 Sm0 3.233542 1_545
Fe4 Sm0 3.239167 1_555
Fe5 Mn0 2.483255 1_556
Fe5 Fe9 2.548248 1_555
Fe5 Fe6 2.551723 1_556
Fe5 Ga0 2.628459 1_455
Fe5 Fe8 2.656764 1_455
Fe5 Sm1 3.045771 1_555
Fe5 Sm0 3.233542 1_455
Fe5 Sm0 3.239167 1_555
Fe6 Mn1 2.442890 1_565
Fe6 Mn0 2.442890 1_555
Fe6 Fe9 2.475464 1_554
Fe6 Ga1 2.772025 1_565
Fe6 Ga0 2.772025 1_454
Fe7 Mn1 2.443231 1_555
Fe7 Ga0 2.810791 1_544
Fe7 Ga1 2.822186 1_655
Fe7 Sm0 3.013909 1_545
Fe7 Sm1 3.060494 1_555
Fe8 Mn0 2.443231 1_656
Fe8 Fe9 2.510604 1_645
Fe8 Ga1 2.810791 1_656
Fe8 Ga0 2.822186 1_545
Fe8 Sm1 3.013909 1_655
Fe8 Sm0 3.060494 1_555
Fe9 Mn1 2.443231 1_566
Fe9 Ga1 2.810791 1_566
Fe9 Ga0 2.822186 1_455
Fe9 Sm1 3.013909 1_565
Fe9 Sm0 3.060494 1_555
Fe10 Mn0 2.443231 1_555
Fe10 Fe12 2.457425 1_565
Fe10 Fe6 2.475464 1_555
Fe10 Fe7 2.510604 1_465
Fe10 Fe3 2.580678 1_455
Fe10 Fe2 2.656764 1_455
Fe10 Fe5 2.656936 1_555
Fe10 Ga0 2.810791 1_454
Fe10 Ga1 2.822186 1_565
Fe10 Sm0 3.013909 1_455
Fe10 Sm1 3.060494 1_555
Fe11 Mn1 2.442890 1_555
Fe11 Mn0 2.442890 1_655
Fe11 Fe8 2.475464 1_554
Fe11 Fe7 2.475464 1_555
Fe11 Fe2 2.551723 1_555
Fe11 Fe4 2.551723 1_554
Fe11 Ga1 2.772025 1_655
Fe11 Ga0 2.772025 1_544
Fe12 Fe7 2.457425 1_455
Fe12 Fe9 2.457425 1_545
Fe12 Fe8 2.457425 1_455
Fe12 Fe5 2.464561 1_545
Fe12 Fe4 2.464561 1_455
Fe12 Fe2 2.464561 1_455
Fe12 Ga0 2.611614 1_445
Fe12 Ga1 2.611614 1_555
Fe12 Sm1 3.306037 1_555
Fe12 Sm0 3.306037 1_445
C0 Fe6 1.833931 1_555
C0 Fe11 1.833931 1_555
C0 Fe0 1.924539 1_554
C0 Fe3 1.924539 1_555
C0 Sm0 2.548037 1_554
C0 Sm1 2.548037 1_555
