# generated using pymatgen
data_Zn(BiO2)4
_symmetry_space_group_name_H-M   'P 1'
_cell_length_a   3.45660000
_cell_length_b   7.84561477
_cell_length_c   9.13732040
_cell_angle_alpha   100.17748606
_cell_angle_beta   98.05583935
_cell_angle_gamma   100.04331937
_symmetry_Int_Tables_number   1
_chemical_formula_structural   Zn(BiO2)4
_chemical_formula_sum   'Zn1 Bi4 O8'
_cell_volume   236.39432368
_cell_formula_units_Z   1
loop_
 _symmetry_equiv_pos_site_id
 _symmetry_equiv_pos_as_xyz
  1  'x, y, z'
loop_
 _atom_site_type_symbol
 _atom_site_label
 _atom_site_symmetry_multiplicity
 _atom_site_fract_x
 _atom_site_fract_y
 _atom_site_fract_z
 _atom_site_occupancy
  Zn  Zn0  1  0.41766300  0.20286000  0.79660100  1
  Bi  Bi0  1  0.23307100  0.58750600  0.85657000  1
  Bi  Bi1  1  0.34505900  0.23104600  0.44265100  1
  Bi  Bi2  1  0.69095400  0.83790400  0.55821300  1
  Bi  Bi3  1  0.84237200  0.47168100  0.18444400  1
  O  O0  1  0.44165700  0.54637600  0.34214100  1
  O  O1  1  0.24014800  0.77879000  0.72423800  1
  O  O2  1  0.77879300  0.21888100  0.28723800  1
  O  O3  1  0.61358800  0.44643300  0.72303300  1
  O  O4  1  0.83587700  0.68686200  0.00239100  1
  O  O5  1  0.84013600  0.10831700  0.70127400  1
  O  O6  1  0.25075000  0.36488100  0.97015900  1
  O  O7  1  0.19806100  0.94910900  0.43493900  1
loop_
_geom_bond_atom_site_label_1
_geom_bond_atom_site_label_2
_geom_bond_distance
_geom_bond_site_symmetry_2
Bi0 O1 2.086063 1_555
Bi0 O4 2.187892 1_456
Bi0 O6 2.189014 1_555
Bi0 O3 2.219040 1_555
Bi0 O4 2.238953 1_556
Bi0 O3 2.294089 1_455
Bi1 O7 2.167677 1_545
Bi1 O2 2.207291 1_555
Bi1 O2 2.228186 1_455
Bi1 O3 2.745386 1_555
Bi1 O0 2.770590 1_555
Bi2 O5 2.219256 1_565
Bi2 O7 2.293592 1_555
Bi2 O7 2.338757 1_655
Bi2 O1 2.367222 1_555
Bi2 O1 2.422548 1_655
Bi2 O0 2.666787 1_555
Bi3 O0 2.209598 1_555
Bi3 O0 2.269880 1_655
Bi3 O2 2.329902 1_555
Bi3 O6 2.533408 1_554
Bi3 O4 2.571570 1_555
Bi3 O6 2.671300 1_654
O3 Zn0 2.166226 1_555
O5 Zn0 1.986809 1_555
O5 Zn0 2.015412 1_655
O6 Zn0 2.064820 1_555
