# generated using pymatgen
data_GaNi3C
_symmetry_space_group_name_H-M   'P 1'
_cell_length_a   3.77559100
_cell_length_b   3.77559100
_cell_length_c   3.77559100
_cell_angle_alpha   90.00000000
_cell_angle_beta   90.00000000
_cell_angle_gamma   90.00000000
_symmetry_Int_Tables_number   1
_chemical_formula_structural   GaNi3C
_chemical_formula_sum   'Ga1 Ni3 C1'
_cell_volume   53.82137969
_cell_formula_units_Z   1
loop_
 _symmetry_equiv_pos_site_id
 _symmetry_equiv_pos_as_xyz
  1  'x, y, z'
loop_
 _atom_site_type_symbol
 _atom_site_label
 _atom_site_symmetry_multiplicity
 _atom_site_fract_x
 _atom_site_fract_y
 _atom_site_fract_z
 _atom_site_occupancy
  Ga  Ga0  1  0.50000000  0.50000000  0.50000000  1
  Ni  Ni0  1  0.50000000  0.00000000  0.00000000  1
  Ni  Ni1  1  0.00000000  0.50000000  0.00000000  1
  Ni  Ni2  1  0.00000000  0.00000000  0.50000000  1
  C  C0  1  0.00000000  0.00000000  0.00000000  1
loop_
_geom_bond_atom_site_label_1
_geom_bond_atom_site_label_2
_geom_bond_distance
_geom_bond_site_symmetry_2
Ga0 Ni2 2.669746 1_555
Ga0 Ni2 2.669746 1_565
Ga0 Ni0 2.669746 1_556
Ga0 Ni1 2.669746 1_656
Ga0 Ni1 2.669746 1_655
Ga0 Ni0 2.669746 1_566
Ga0 Ni1 2.669746 1_556
Ga0 Ni2 2.669746 1_655
Ga0 Ni0 2.669746 1_555
Ga0 Ni2 2.669746 1_665
Ga0 Ni1 2.669746 1_555
Ga0 Ni0 2.669746 1_565
C0 Ni2 1.887795 1_555
C0 Ni1 1.887795 1_545
C0 Ni2 1.887795 1_554
C0 Ni1 1.887795 1_555
C0 Ni0 1.887795 1_555
C0 Ni0 1.887795 1_455
