# generated using pymatgen
data_HgH8C2S2(NCl)4
_symmetry_space_group_name_H-M   'P 1'
_cell_length_a   15.11668400
_cell_length_b   8.78188100
_cell_length_c   11.96424288
_cell_angle_alpha   59.31585203
_cell_angle_beta   90.00000000
_cell_angle_gamma   90.00000000
_symmetry_Int_Tables_number   1
_chemical_formula_structural   HgH8C2S2(NCl)4
_chemical_formula_sum   'Hg4 H32 C8 S8 N16 Cl16'
_cell_volume   1365.91749466
_cell_formula_units_Z   4
loop_
 _symmetry_equiv_pos_site_id
 _symmetry_equiv_pos_as_xyz
  1  'x, y, z'
loop_
 _atom_site_type_symbol
 _atom_site_label
 _atom_site_symmetry_multiplicity
 _atom_site_fract_x
 _atom_site_fract_y
 _atom_site_fract_z
 _atom_site_occupancy
  Hg  Hg0  1  0.97997000  0.28503500  0.82281400  1
  Hg  Hg1  1  0.52003000  0.28503500  0.32281400  1
  Hg  Hg2  1  0.02003000  0.71496500  0.17718600  1
  Hg  Hg3  1  0.47997000  0.71496500  0.67718600  1
  H  H0  1  0.90104800  0.75319600  0.90257400  1
  H  H1  1  0.59895200  0.75319600  0.40257400  1
  H  H2  1  0.09895200  0.24680400  0.09742600  1
  H  H3  1  0.40104800  0.24680400  0.59742600  1
  H  H4  1  0.83504800  0.89963000  0.92570600  1
  H  H5  1  0.66495200  0.89963000  0.42570600  1
  H  H6  1  0.16495200  0.10037000  0.07429400  1
  H  H7  1  0.33504800  0.10037000  0.57429400  1
  H  H8  1  0.86246100  0.44861500  0.00486600  1
  H  H9  1  0.63753900  0.44861500  0.50486600  1
  H  H10  1  0.13753900  0.55138500  0.99513400  1
  H  H11  1  0.36246100  0.55138500  0.49513400  1
  H  H12  1  0.76674100  0.37672600  0.10371500  1
  H  H13  1  0.73325900  0.37672600  0.60371500  1
  H  H14  1  0.23325900  0.62327400  0.89628500  1
  H  H15  1  0.26674100  0.62327400  0.39628500  1
  H  H16  1  0.58217900  0.27534200  0.87936400  1
  H  H17  1  0.91782100  0.27534200  0.37936400  1
  H  H18  1  0.41782100  0.72465800  0.12063600  1
  H  H19  1  0.08217900  0.72465800  0.62063600  1
  H  H20  1  0.64297600  0.20713200  0.02393900  1
  H  H21  1  0.85702400  0.20713200  0.52393900  1
  H  H22  1  0.35702400  0.79286800  0.97606100  1
  H  H23  1  0.14297600  0.79286800  0.47606100  1
  H  H24  1  0.56242400  0.07688800  0.80772300  1
  H  H25  1  0.93757600  0.07688800  0.30772300  1
  H  H26  1  0.43757600  0.92311200  0.19227700  1
  H  H27  1  0.06242400  0.92311200  0.69227700  1
  H  H28  1  0.61687700  0.87107000  0.88218200  1
  H  H29  1  0.88312300  0.87107000  0.38218200  1
  H  H30  1  0.38312300  0.12893000  0.11781800  1
  H  H31  1  0.11687700  0.12893000  0.61781800  1
  C  C0  1  0.79538400  0.63909100  0.02098800  1
  C  C1  1  0.70461600  0.63909100  0.52098800  1
  C  C2  1  0.20461600  0.36090900  0.97901200  1
  C  C3  1  0.29538400  0.36090900  0.47901200  1
  C  C4  1  0.64090700  0.03344600  0.95781200  1
  C  C5  1  0.85909300  0.03344600  0.45781200  1
  C  C6  1  0.35909300  0.96655400  0.04218800  1
  C  C7  1  0.14090700  0.96655400  0.54218800  1
  S  S0  1  0.69990200  0.65599500  0.10200100  1
  S  S1  1  0.80009800  0.65599500  0.60200100  1
  S  S2  1  0.30009800  0.34400500  0.89799900  1
  S  S3  1  0.19990200  0.34400500  0.39799900  1
  S  S4  1  0.71726100  0.89799000  0.08190200  1
  S  S5  1  0.78273900  0.89799000  0.58190200  1
  S  S6  1  0.28273900  0.10201000  0.91809800  1
  S  S7  1  0.21726100  0.10201000  0.41809800  1
  N  N0  1  0.84832800  0.77320100  0.94779600  1
  N  N1  1  0.65167200  0.77320100  0.44779600  1
  N  N2  1  0.15167200  0.22679900  0.05220400  1
  N  N3  1  0.34832800  0.22679900  0.55220400  1
  N  N4  1  0.80910900  0.47787400  0.04308600  1
  N  N5  1  0.69089100  0.47787400  0.54308600  1
  N  N6  1  0.19089100  0.52212600  0.95691400  1
  N  N7  1  0.30910900  0.52212600  0.45691400  1
  N  N8  1  0.62455500  0.18611800  0.95001900  1
  N  N9  1  0.87544500  0.18611800  0.45001900  1
  N  N10  1  0.37544500  0.81388200  0.04998100  1
  N  N11  1  0.12455500  0.81388200  0.54998100  1
  N  N12  1  0.60487700  0.98906800  0.87771100  1
  N  N13  1  0.89512300  0.98906800  0.37771100  1
  N  N14  1  0.39512300  0.01093200  0.12228900  1
  N  N15  1  0.10487700  0.01093200  0.62228900  1
  Cl  Cl0  1  0.84106800  0.20866900  0.71411600  1
  Cl  Cl1  1  0.65893200  0.20866900  0.21411600  1
  Cl  Cl2  1  0.15893200  0.79133100  0.28588400  1
  Cl  Cl3  1  0.34106800  0.79133100  0.78588400  1
  Cl  Cl4  1  0.92253500  0.13788300  0.04416500  1
  Cl  Cl5  1  0.57746500  0.13788300  0.54416500  1
  Cl  Cl6  1  0.07746500  0.86211700  0.95583500  1
  Cl  Cl7  1  0.42253500  0.86211700  0.45583500  1
  Cl  Cl8  1  0.10333300  0.34841600  0.67459900  1
  Cl  Cl9  1  0.39666700  0.34841600  0.17459900  1
  Cl  Cl10  1  0.89666700  0.65158400  0.32540100  1
  Cl  Cl11  1  0.60333300  0.65158400  0.82540100  1
  Cl  Cl12  1  0.97492600  0.63081200  0.78268000  1
  Cl  Cl13  1  0.52507400  0.63081200  0.28268000  1
  Cl  Cl14  1  0.02507400  0.36918800  0.21732000  1
  Cl  Cl15  1  0.47492600  0.36918800  0.71732000  1
loop_
_geom_bond_atom_site_label_1
_geom_bond_atom_site_label_2
_geom_bond_distance
_geom_bond_site_symmetry_2
H0 N0 1.027491 1_555
H1 N1 1.027491 1_555
H2 N2 1.027491 1_555
H3 N3 1.027491 1_555
H4 N0 1.021468 1_555
H5 N1 1.021468 1_555
H6 N2 1.021468 1_555
H7 N3 1.021468 1_555
H8 N4 1.022492 1_555
H9 N5 1.022492 1_555
H10 N6 1.022492 1_555
H11 N7 1.022492 1_555
H12 N4 1.033334 1_555
H13 N5 1.033334 1_555
H14 N6 1.033334 1_555
H15 N7 1.033334 1_555
H16 N8 1.030960 1_555
H17 N9 1.030960 1_555
H18 N10 1.030960 1_555
H19 N11 1.030960 1_555
H20 N8 1.029723 1_554
H21 N9 1.029723 1_555
H22 N10 1.029723 1_556
H23 N11 1.029723 1_555
H24 N12 1.024057 1_545
H25 N13 1.024057 1_545
H26 N14 1.024057 1_565
H27 N15 1.024057 1_565
H28 N12 1.026156 1_555
H29 N13 1.026156 1_555
H30 N14 1.026156 1_555
H31 N15 1.026156 1_555
C0 N4 1.317336 1_555
C0 N0 1.319791 1_554
C0 S0 1.786525 1_555
C1 N5 1.317336 1_555
C1 N1 1.319791 1_555
C1 S1 1.786525 1_555
C2 N6 1.317336 1_555
C2 N2 1.319791 1_556
C2 S2 1.786525 1_555
C3 N7 1.317336 1_555
C3 N3 1.319791 1_555
C3 S3 1.786525 1_555
C4 N8 1.319020 1_555
C4 N12 1.322176 1_545
C4 S4 1.774533 1_546
C5 N9 1.319020 1_555
C5 N13 1.322176 1_545
C5 S5 1.774533 1_545
C6 N10 1.319020 1_555
C6 N14 1.322176 1_565
C6 S6 1.774533 1_564
C7 N11 1.319020 1_555
C7 N15 1.322176 1_565
C7 S7 1.774533 1_565
S0 S4 2.030140 1_555
S1 S5 2.030140 1_555
S2 S6 2.030140 1_555
S3 S7 2.030140 1_555
Cl0 Hg0 2.727647 1_555
Cl1 Hg1 2.727647 1_555
Cl2 Hg2 2.727647 1_555
Cl3 Hg3 2.727647 1_555
Cl4 Hg0 2.438116 1_554
Cl5 Hg1 2.438116 1_555
Cl6 Hg2 2.438116 1_556
Cl7 Hg3 2.438116 1_555
Cl8 Hg0 2.434050 1_455
Cl9 Hg1 2.434050 1_555
Cl10 Hg2 2.434050 1_655
Cl11 Hg3 2.434050 1_555
Cl12 Hg0 2.822946 1_555
Cl13 Hg1 2.822946 1_555
Cl14 Hg2 2.822946 1_555
Cl15 Hg3 2.822946 1_555
