# generated using pymatgen
data_Rb2UF7
_symmetry_space_group_name_H-M   'P 1'
_cell_length_a   13.80904400
_cell_length_b   6.56489400
_cell_length_c   9.73033609
_cell_angle_alpha   88.89849564
_cell_angle_beta   90.00000000
_cell_angle_gamma   90.00000000
_symmetry_Int_Tables_number   1
_chemical_formula_structural   Rb2UF7
_chemical_formula_sum   'Rb8 U4 F28'
_cell_volume   881.93973781
_cell_formula_units_Z   4
loop_
 _symmetry_equiv_pos_site_id
 _symmetry_equiv_pos_as_xyz
  1  'x, y, z'
loop_
 _atom_site_type_symbol
 _atom_site_label
 _atom_site_symmetry_multiplicity
 _atom_site_fract_x
 _atom_site_fract_y
 _atom_site_fract_z
 _atom_site_occupancy
  Rb  Rb0  1  0.21648700  0.27971900  0.55939800  1
  Rb  Rb1  1  0.78351300  0.72028100  0.44060200  1
  Rb  Rb2  1  0.71648700  0.72028100  0.94060200  1
  Rb  Rb3  1  0.28351300  0.27971900  0.05939800  1
  Rb  Rb4  1  0.04990700  0.70539900  0.86181400  1
  Rb  Rb5  1  0.95009300  0.29460100  0.13818600  1
  Rb  Rb6  1  0.54990700  0.29460100  0.63818600  1
  Rb  Rb7  1  0.45009300  0.70539900  0.36181400  1
  U  U0  1  0.36829300  0.80181100  0.81488500  1
  U  U1  1  0.63170700  0.19818900  0.18511500  1
  U  U2  1  0.86829300  0.19818900  0.68511500  1
  U  U3  1  0.13170700  0.80181100  0.31488500  1
  F  F0  1  0.74135800  0.02013700  0.69255300  1
  F  F1  1  0.25864200  0.97986300  0.30744700  1
  F  F2  1  0.24135800  0.97986300  0.80744700  1
  F  F3  1  0.75864200  0.02013700  0.19255300  1
  F  F4  1  0.15902500  0.73458000  0.52262100  1
  F  F5  1  0.84097500  0.26542000  0.47737900  1
  F  F6  1  0.65902500  0.26542000  0.97737900  1
  F  F7  1  0.34097500  0.73458000  0.02262100  1
  F  F8  1  0.28391200  0.54445400  0.77715400  1
  F  F9  1  0.71608800  0.45554600  0.22284600  1
  F  F10  1  0.78391200  0.45554600  0.72284600  1
  F  F11  1  0.21608800  0.54445400  0.27715400  1
  F  F12  1  0.38869700  0.40082800  0.51603700  1
  F  F13  1  0.61130300  0.59917200  0.48396300  1
  F  F14  1  0.88869700  0.59917200  0.98396300  1
  F  F15  1  0.11130300  0.40082800  0.01603700  1
  F  F16  1  0.94017000  0.93203300  0.62749600  1
  F  F17  1  0.05983000  0.06796700  0.37250400  1
  F  F18  1  0.44017000  0.06796700  0.87250400  1
  F  F19  1  0.55983000  0.93203300  0.12749600  1
  F  F20  1  0.99728300  0.36470800  0.67360900  1
  F  F21  1  0.00271700  0.63529200  0.32639100  1
  F  F22  1  0.49728300  0.63529200  0.82639100  1
  F  F23  1  0.50271700  0.36470800  0.17360900  1
  F  F24  1  0.39273300  0.89890200  0.61269000  1
  F  F25  1  0.60726700  0.10109800  0.38731000  1
  F  F26  1  0.89273300  0.10109800  0.88731000  1
  F  F27  1  0.10726700  0.89890200  0.11269000  1
loop_
_geom_bond_atom_site_label_1
_geom_bond_atom_site_label_2
_geom_bond_distance
_geom_bond_site_symmetry_2
F0 U2 2.107316 1_555
F0 Rb2 3.104163 1_545
F0 Rb1 3.226403 1_545
F0 Rb6 3.237163 1_555
F1 U3 2.107316 1_555
F1 Rb3 3.104163 1_565
F1 Rb0 3.226403 1_565
F1 Rb7 3.237163 1_555
F2 U0 2.107316 1_555
F2 Rb0 3.104163 1_565
F2 Rb3 3.226403 1_566
F2 Rb4 3.237163 1_555
F3 U1 2.107316 1_555
F3 Rb1 3.104163 1_545
F3 Rb2 3.226403 1_544
F3 Rb5 3.237163 1_555
F4 U3 2.094905 1_555
F4 Rb0 3.103786 1_555
F5 U2 2.094905 1_555
F5 Rb1 3.103786 1_555
F6 U1 2.094905 1_556
F6 Rb2 3.103786 1_555
F7 U0 2.094905 1_554
F7 Rb3 3.103786 1_555
F8 U0 2.090660 1_555
F8 Rb0 2.918639 1_555
F8 Rb3 3.221698 1_556
F9 U1 2.090660 1_555
F9 Rb1 2.918639 1_555
F9 Rb2 3.221698 1_554
F10 U2 2.090660 1_555
F10 Rb2 2.918639 1_555
F10 Rb1 3.221698 1_555
F11 U3 2.090660 1_555
F11 Rb3 2.918639 1_555
F11 Rb0 3.221698 1_555
F12 Rb0 2.540157 1_555
F12 Rb6 2.612064 1_555
F12 Rb7 2.617875 1_555
F13 Rb1 2.540157 1_555
F13 Rb7 2.612064 1_555
F13 Rb6 2.617875 1_555
F14 Rb2 2.540157 1_555
F14 Rb4 2.612064 1_655
F14 Rb5 2.617875 1_556
F15 Rb3 2.540157 1_555
F15 Rb5 2.612064 1_455
F15 Rb4 2.617875 1_554
F16 U2 2.095272 1_565
F16 Rb4 3.094819 1_655
F16 Rb1 3.164892 1_555
F17 U3 2.095272 1_545
F17 Rb5 3.094819 1_455
F17 Rb0 3.164892 1_555
F18 U0 2.095272 1_545
F18 Rb6 3.094819 1_555
F18 Rb3 3.164892 1_556
F19 U1 2.095272 1_565
F19 Rb7 3.094819 1_555
F19 Rb2 3.164892 1_554
F20 U2 2.091804 1_555
F20 Rb4 3.006923 1_655
F20 Rb0 3.276106 1_655
F21 U3 2.091804 1_555
F21 Rb5 3.006923 1_455
F21 Rb1 3.276106 1_455
F22 U0 2.091804 1_555
F22 Rb6 3.006923 1_555
F22 Rb2 3.276106 1_555
F23 U1 2.091804 1_555
F23 Rb7 3.006923 1_555
F23 Rb3 3.276106 1_555
F24 U0 2.083919 1_555
F24 Rb7 2.884331 1_555
F25 U1 2.083919 1_555
F25 Rb6 2.884331 1_555
F26 U2 2.083919 1_555
F26 Rb5 2.884331 1_556
F27 U3 2.083919 1_555
F27 Rb4 2.884331 1_554
