# generated using pymatgen
data_Ce2MgNi2
_symmetry_space_group_name_H-M   'P 1'
_cell_length_a   7.08137760
_cell_length_b   15.15052362
_cell_length_c   15.15052362
_cell_angle_alpha   89.99893112
_cell_angle_beta   90.00000000
_cell_angle_gamma   90.00000000
_symmetry_Int_Tables_number   1
_chemical_formula_structural   Ce2MgNi2
_chemical_formula_sum   'Ce32 Mg16 Ni32'
_cell_volume   1625.44784291
_cell_formula_units_Z   16
loop_
 _symmetry_equiv_pos_site_id
 _symmetry_equiv_pos_as_xyz
  1  'x, y, z'
loop_
 _atom_site_type_symbol
 _atom_site_label
 _atom_site_symmetry_multiplicity
 _atom_site_fract_x
 _atom_site_fract_y
 _atom_site_fract_z
 _atom_site_occupancy
  Ce  Ce0_0  1  0.25000000  0.41589069  0.16589069  1
  Ce  Ce0_1  1  0.25000000  0.41589069  0.66589069  1
  Ce  Ce0_2  1  0.25000000  0.91589069  0.16589069  1
  Ce  Ce0_3  1  0.25000000  0.91589069  0.66589069  1
  Ce  Ce0_4  1  0.75000000  0.41589069  0.16589069  1
  Ce  Ce0_5  1  0.75000000  0.41589069  0.66589069  1
  Ce  Ce0_6  1  0.75000000  0.91589069  0.16589069  1
  Ce  Ce0_7  1  0.75000000  0.91589069  0.66589069  1
  Ce  Ce1_0  1  0.25000000  0.33409078  0.41590922  1
  Ce  Ce1_1  1  0.25000000  0.33409078  0.91590922  1
  Ce  Ce1_2  1  0.25000000  0.83409078  0.41590922  1
  Ce  Ce1_3  1  0.25000000  0.83409078  0.91590922  1
  Ce  Ce1_4  1  0.75000000  0.33409078  0.41590922  1
  Ce  Ce1_5  1  0.75000000  0.33409078  0.91590922  1
  Ce  Ce1_6  1  0.75000000  0.83409078  0.41590922  1
  Ce  Ce1_7  1  0.75000000  0.83409078  0.91590922  1
  Ce  Ce2_0  1  0.25000000  0.16590922  0.08409078  1
  Ce  Ce2_1  1  0.25000000  0.16590922  0.58409078  1
  Ce  Ce2_2  1  0.25000000  0.66590922  0.08409078  1
  Ce  Ce2_3  1  0.25000000  0.66590922  0.58409078  1
  Ce  Ce2_4  1  0.75000000  0.16590922  0.08409078  1
  Ce  Ce2_5  1  0.75000000  0.16590922  0.58409078  1
  Ce  Ce2_6  1  0.75000000  0.66590922  0.08409078  1
  Ce  Ce2_7  1  0.75000000  0.66590922  0.58409078  1
  Ce  Ce3_0  1  0.25000000  0.08410931  0.33410931  1
  Ce  Ce3_1  1  0.25000000  0.08410931  0.83410931  1
  Ce  Ce3_2  1  0.25000000  0.58410931  0.33410931  1
  Ce  Ce3_3  1  0.25000000  0.58410931  0.83410931  1
  Ce  Ce3_4  1  0.75000000  0.08410931  0.33410931  1
  Ce  Ce3_5  1  0.75000000  0.08410931  0.83410931  1
  Ce  Ce3_6  1  0.75000000  0.58410931  0.33410931  1
  Ce  Ce3_7  1  0.75000000  0.58410931  0.83410931  1
  Mg  Mg0_0  1  0.00000000  0.25000000  0.25000000  1
  Mg  Mg0_1  1  0.00000000  0.25000000  0.75000000  1
  Mg  Mg0_2  1  0.00000000  0.75000000  0.25000000  1
  Mg  Mg0_3  1  0.00000000  0.75000000  0.75000000  1
  Mg  Mg0_4  1  0.50000000  0.25000000  0.25000000  1
  Mg  Mg0_5  1  0.50000000  0.25000000  0.75000000  1
  Mg  Mg0_6  1  0.50000000  0.75000000  0.25000000  1
  Mg  Mg0_7  1  0.50000000  0.75000000  0.75000000  1
  Mg  Mg1_0  1  0.00000000  0.00000000  0.00000000  1
  Mg  Mg1_1  1  0.00000000  0.00000000  0.50000000  1
  Mg  Mg1_2  1  0.00000000  0.50000000  0.00000000  1
  Mg  Mg1_3  1  0.00000000  0.50000000  0.50000000  1
  Mg  Mg1_4  1  0.50000000  0.00000000  0.00000000  1
  Mg  Mg1_5  1  0.50000000  0.00000000  0.50000000  1
  Mg  Mg1_6  1  0.50000000  0.50000000  0.00000000  1
  Mg  Mg1_7  1  0.50000000  0.50000000  0.50000000  1
  Ni  Ni0_0  1  0.00000000  0.31410759  0.06410759  1
  Ni  Ni0_1  1  0.00000000  0.31410759  0.56410759  1
  Ni  Ni0_2  1  0.00000000  0.81410759  0.06410759  1
  Ni  Ni0_3  1  0.00000000  0.81410759  0.56410759  1
  Ni  Ni0_4  1  0.50000000  0.31410759  0.06410759  1
  Ni  Ni0_5  1  0.50000000  0.31410759  0.56410759  1
  Ni  Ni0_6  1  0.50000000  0.81410759  0.06410759  1
  Ni  Ni0_7  1  0.50000000  0.81410759  0.56410759  1
  Ni  Ni1_0  1  0.00000000  0.43590068  0.31409932  1
  Ni  Ni1_1  1  0.00000000  0.43590068  0.81409933  1
  Ni  Ni1_2  1  0.00000000  0.93590068  0.31409932  1
  Ni  Ni1_3  1  0.00000000  0.93590068  0.81409933  1
  Ni  Ni1_4  1  0.50000000  0.43590068  0.31409932  1
  Ni  Ni1_5  1  0.50000000  0.43590068  0.81409933  1
  Ni  Ni1_6  1  0.50000000  0.93590068  0.31409932  1
  Ni  Ni1_7  1  0.50000000  0.93590068  0.81409933  1
  Ni  Ni2_0  1  0.00000000  0.18589242  0.43589242  1
  Ni  Ni2_1  1  0.00000000  0.18589242  0.93589242  1
  Ni  Ni2_2  1  0.00000000  0.68589242  0.43589242  1
  Ni  Ni2_3  1  0.00000000  0.68589242  0.93589242  1
  Ni  Ni2_4  1  0.50000000  0.18589242  0.43589242  1
  Ni  Ni2_5  1  0.50000000  0.18589242  0.93589242  1
  Ni  Ni2_6  1  0.50000000  0.68589242  0.43589242  1
  Ni  Ni2_7  1  0.50000000  0.68589242  0.93589242  1
  Ni  Ni3_0  1  0.00000000  0.06409933  0.18590068  1
  Ni  Ni3_1  1  0.00000000  0.06409933  0.68590068  1
  Ni  Ni3_2  1  0.00000000  0.56409932  0.18590068  1
  Ni  Ni3_3  1  0.00000000  0.56409933  0.68590068  1
  Ni  Ni3_4  1  0.50000000  0.06409933  0.18590068  1
  Ni  Ni3_5  1  0.50000000  0.06409933  0.68590068  1
  Ni  Ni3_6  1  0.50000000  0.56409932  0.18590068  1
  Ni  Ni3_7  1  0.50000000  0.56409933  0.68590068  1
loop_
_geom_bond_atom_site_label_1
_geom_bond_atom_site_label_2
_geom_bond_distance
_geom_bond_site_symmetry_2
Ce0_0 Ni0_4 2.808941 1_555
Ce0_0 Ni0_0 2.808941 1_555
Ce0_0 Ni3_2 2.875421 1_555
Ce0_0 Ni3_6 2.875421 1_555
Ce0_0 Ni1_0 2.875421 1_555
Ce0_0 Ni1_4 2.875421 1_555
Ce0_0 Mg0_4 3.327863 1_555
Ce0_0 Mg0_0 3.327863 1_555
Ce0_0 Mg1_2 3.327863 1_555
Ce0_0 Mg1_6 3.327863 1_555
Ce0_1 Ni0_1 2.808941 1_555
Ce0_1 Ni0_5 2.808941 1_555
Ce0_1 Ni1_1 2.875421 1_555
Ce0_1 Ni1_5 2.875421 1_555
Ce0_1 Ni3_7 2.875421 1_555
Ce0_1 Ni3_3 2.875421 1_555
Ce0_1 Mg0_1 3.327863 1_555
Ce0_1 Mg1_3 3.327863 1_555
Ce0_1 Mg0_5 3.327863 1_555
Ce0_1 Mg1_7 3.327863 1_555
Ce0_2 Ni0_2 2.808941 1_555
Ce0_2 Ni0_6 2.808941 1_555
Ce0_2 Ni3_0 2.875421 1_565
Ce0_2 Ni3_4 2.875421 1_565
Ce0_2 Ni1_2 2.875421 1_555
Ce0_2 Ni1_6 2.875421 1_555
Ce0_2 Mg1_4 3.327863 1_565
Ce0_2 Mg1_0 3.327863 1_565
Ce0_2 Mg0_2 3.327863 1_555
Ce0_2 Mg0_6 3.327863 1_555
Ce0_3 Ni0_7 2.808941 1_555
Ce0_3 Ni0_3 2.808941 1_555
Ce0_3 Ni3_5 2.875421 1_565
Ce0_3 Ni1_3 2.875421 1_555
Ce0_3 Ni1_7 2.875421 1_555
Ce0_3 Ni3_1 2.875421 1_565
Ce0_3 Mg0_7 3.327863 1_555
Ce0_3 Mg0_3 3.327863 1_555
Ce0_3 Mg1_1 3.327863 1_565
Ce0_3 Mg1_5 3.327863 1_565
Ce0_4 Ni0_0 2.808941 1_655
Ce0_4 Ni0_4 2.808941 1_555
Ce0_4 Ni3_6 2.875421 1_555
Ce0_4 Ni3_2 2.875421 1_655
Ce0_4 Ni1_0 2.875421 1_655
Ce0_4 Ni1_4 2.875421 1_555
Ce0_4 Mg0_0 3.327863 1_655
Ce0_4 Mg0_4 3.327863 1_555
Ce0_4 Mg1_2 3.327863 1_655
Ce0_4 Mg1_6 3.327863 1_555
Ce0_5 Ni0_1 2.808941 1_655
Ce0_5 Ni0_5 2.808941 1_555
Ce0_5 Ni1_5 2.875421 1_555
Ce0_5 Ni1_1 2.875421 1_655
Ce0_5 Ni3_7 2.875421 1_555
Ce0_5 Ni3_3 2.875421 1_655
Ce0_5 Mg1_3 3.327863 1_655
Ce0_5 Mg0_5 3.327863 1_555
Ce0_5 Mg0_1 3.327863 1_655
Ce0_5 Mg1_7 3.327863 1_555
Ce0_6 Ni0_2 2.808941 1_655
Ce0_6 Ni0_6 2.808941 1_555
Ce0_6 Ni3_0 2.875421 1_665
Ce0_6 Ni3_4 2.875421 1_565
Ce0_6 Ni1_2 2.875421 1_655
Ce0_6 Ni1_6 2.875421 1_555
Ce0_6 Mg1_0 3.327863 1_665
Ce0_6 Mg1_4 3.327863 1_565
Ce0_6 Mg0_2 3.327863 1_655
Ce0_6 Mg0_6 3.327863 1_555
Ce0_7 Ni0_3 2.808941 1_655
Ce0_7 Ni0_7 2.808941 1_555
Ce0_7 Ni3_5 2.875421 1_565
Ce0_7 Ni3_1 2.875421 1_665
Ce0_7 Ni1_7 2.875421 1_555
Ce0_7 Ni1_3 2.875421 1_655
Ce0_7 Mg0_7 3.327863 1_555
Ce0_7 Mg0_3 3.327863 1_655
Ce0_7 Mg1_1 3.327863 1_665
Ce0_7 Mg1_5 3.327863 1_565
Ce1_0 Ni1_0 2.809355 1_555
Ce1_0 Ni1_4 2.809355 1_555
Ce1_0 Ni2_0 2.875248 1_555
Ce1_0 Ni2_4 2.875248 1_555
Ce1_0 Ni0_1 2.875248 1_555
Ce1_0 Ni0_5 2.875248 1_555
Ce1_0 Mg1_3 3.328003 1_555
Ce1_0 Mg1_7 3.328003 1_555
Ce1_0 Mg0_0 3.328003 1_555
Ce1_0 Mg0_4 3.328003 1_555
Ce1_1 Ni1_1 2.809355 1_555
Ce1_1 Ni1_5 2.809355 1_555
Ce1_1 Ni0_4 2.875248 1_556
Ce1_1 Ni0_0 2.875248 1_556
Ce1_1 Ni2_5 2.875248 1_555
Ce1_1 Ni2_1 2.875248 1_555
Ce1_1 Mg1_2 3.328003 1_556
Ce1_1 Mg1_6 3.328003 1_556
Ce1_1 Mg0_1 3.328003 1_555
Ce1_1 Mg0_5 3.328003 1_555
Ce1_2 Ni1_6 2.809355 1_555
Ce1_2 Ni1_2 2.809355 1_555
Ce1_2 Ni0_3 2.875248 1_555
Ce1_2 Ni0_7 2.875248 1_555
Ce1_2 Ni2_2 2.875248 1_555
Ce1_2 Ni2_6 2.875248 1_555
Ce1_2 Mg1_1 3.328003 1_565
Ce1_2 Mg1_5 3.328003 1_565
Ce1_2 Mg0_6 3.328003 1_555
Ce1_2 Mg0_2 3.328003 1_555
Ce1_3 Ni1_3 2.809355 1_555
Ce1_3 Ni1_7 2.809355 1_555
Ce1_3 Ni0_2 2.875248 1_556
Ce1_3 Ni0_6 2.875248 1_556
Ce1_3 Ni2_7 2.875248 1_555
Ce1_3 Ni2_3 2.875248 1_555
Ce1_3 Mg1_4 3.328003 1_566
Ce1_3 Mg1_0 3.328003 1_566
Ce1_3 Mg0_3 3.328003 1_555
Ce1_3 Mg0_7 3.328003 1_555
Ce1_4 Ni1_0 2.809355 1_655
Ce1_4 Ni1_4 2.809355 1_555
Ce1_4 Ni2_0 2.875248 1_655
Ce1_4 Ni2_4 2.875248 1_555
Ce1_4 Ni0_1 2.875248 1_655
Ce1_4 Ni0_5 2.875248 1_555
Ce1_4 Mg1_3 3.328003 1_655
Ce1_4 Mg1_7 3.328003 1_555
Ce1_4 Mg0_4 3.328003 1_555
Ce1_4 Mg0_0 3.328003 1_655
Ce1_5 Ni1_5 2.809355 1_555
Ce1_5 Ni1_1 2.809355 1_655
Ce1_5 Ni0_0 2.875248 1_656
Ce1_5 Ni0_4 2.875248 1_556
Ce1_5 Ni2_5 2.875248 1_555
Ce1_5 Ni2_1 2.875248 1_655
Ce1_5 Mg1_2 3.328003 1_656
Ce1_5 Mg1_6 3.328003 1_556
Ce1_5 Mg0_1 3.328003 1_655
Ce1_5 Mg0_5 3.328003 1_555
Ce1_6 Ni1_6 2.809355 1_555
Ce1_6 Ni1_2 2.809355 1_655
Ce1_6 Ni0_3 2.875248 1_655
Ce1_6 Ni0_7 2.875248 1_555
Ce1_6 Ni2_6 2.875248 1_555
Ce1_6 Ni2_2 2.875248 1_655
Ce1_6 Mg1_1 3.328003 1_665
Ce1_6 Mg1_5 3.328003 1_565
Ce1_6 Mg0_2 3.328003 1_655
Ce1_6 Mg0_6 3.328003 1_555
Ce1_7 Ni1_7 2.809355 1_555
Ce1_7 Ni1_3 2.809355 1_655
Ce1_7 Ni0_2 2.875248 1_656
Ce1_7 Ni0_6 2.875248 1_556
Ce1_7 Ni2_7 2.875248 1_555
Ce1_7 Ni2_3 2.875248 1_655
Ce1_7 Mg1_4 3.328003 1_566
Ce1_7 Mg1_0 3.328003 1_666
Ce1_7 Mg0_7 3.328003 1_555
Ce1_7 Mg0_3 3.328003 1_655
Ce2_0 Ni3_0 2.809355 1_555
Ce2_0 Ni3_4 2.809355 1_555
Ce2_0 Ni2_1 2.875248 1_554
Ce2_0 Ni2_5 2.875248 1_554
Ce2_0 Ni0_4 2.875248 1_555
Ce2_0 Ni0_0 2.875248 1_555
Ce2_0 Mg1_0 3.328003 1_555
Ce2_0 Mg0_0 3.328003 1_555
Ce2_0 Mg1_4 3.328003 1_555
Ce2_0 Mg0_4 3.328003 1_555
Ce2_1 Ni3_1 2.809355 1_555
Ce2_1 Ni3_5 2.809355 1_555
Ce2_1 Ni2_4 2.875248 1_555
Ce2_1 Ni2_0 2.875248 1_555
Ce2_1 Ni0_1 2.875248 1_555
Ce2_1 Ni0_5 2.875248 1_555
Ce2_1 Mg0_1 3.328003 1_555
Ce2_1 Mg0_5 3.328003 1_555
Ce2_1 Mg1_1 3.328003 1_555
Ce2_1 Mg1_5 3.328003 1_555
Ce2_2 Ni3_2 2.809355 1_555
Ce2_2 Ni3_6 2.809355 1_555
Ce2_2 Ni2_3 2.875248 1_554
Ce2_2 Ni2_7 2.875248 1_554
Ce2_2 Ni0_2 2.875248 1_555
Ce2_2 Ni0_6 2.875248 1_555
Ce2_2 Mg1_2 3.328003 1_555
Ce2_2 Mg1_6 3.328003 1_555
Ce2_2 Mg0_6 3.328003 1_555
Ce2_2 Mg0_2 3.328003 1_555
Ce2_3 Ni3_7 2.809355 1_555
Ce2_3 Ni3_3 2.809355 1_555
Ce2_3 Ni2_2 2.875248 1_555
Ce2_3 Ni2_6 2.875248 1_555
Ce2_3 Ni0_3 2.875248 1_555
Ce2_3 Ni0_7 2.875248 1_555
Ce2_3 Mg1_7 3.328003 1_555
Ce2_3 Mg1_3 3.328003 1_555
Ce2_3 Mg0_7 3.328003 1_555
Ce2_3 Mg0_3 3.328003 1_555
Ce2_4 Ni3_0 2.809355 1_655
Ce2_4 Ni3_4 2.809355 1_555
Ce2_4 Ni2_1 2.875248 1_654
Ce2_4 Ni2_5 2.875248 1_554
Ce2_4 Ni0_0 2.875248 1_655
Ce2_4 Ni0_4 2.875248 1_555
Ce2_4 Mg1_0 3.328003 1_655
Ce2_4 Mg1_4 3.328003 1_555
Ce2_4 Mg0_4 3.328003 1_555
Ce2_4 Mg0_0 3.328003 1_655
Ce2_5 Ni3_5 2.809355 1_555
Ce2_5 Ni3_1 2.809355 1_655
Ce2_5 Ni2_0 2.875248 1_655
Ce2_5 Ni2_4 2.875248 1_555
Ce2_5 Ni0_1 2.875248 1_655
Ce2_5 Ni0_5 2.875248 1_555
Ce2_5 Mg0_1 3.328003 1_655
Ce2_5 Mg0_5 3.328003 1_555
Ce2_5 Mg1_5 3.328003 1_555
Ce2_5 Mg1_1 3.328003 1_655
Ce2_6 Ni3_2 2.809355 1_655
Ce2_6 Ni3_6 2.809355 1_555
Ce2_6 Ni2_7 2.875248 1_554
Ce2_6 Ni2_3 2.875248 1_654
Ce2_6 Ni0_2 2.875248 1_655
Ce2_6 Ni0_6 2.875248 1_555
Ce2_6 Mg1_2 3.328003 1_655
Ce2_6 Mg1_6 3.328003 1_555
Ce2_6 Mg0_2 3.328003 1_655
Ce2_6 Mg0_6 3.328003 1_555
Ce2_7 Ni3_7 2.809355 1_555
Ce2_7 Ni3_3 2.809355 1_655
Ce2_7 Ni2_2 2.875248 1_655
Ce2_7 Ni2_6 2.875248 1_555
Ce2_7 Ni0_3 2.875248 1_655
Ce2_7 Ni0_7 2.875248 1_555
Ce2_7 Mg1_3 3.328003 1_655
Ce2_7 Mg1_7 3.328003 1_555
Ce2_7 Mg0_7 3.328003 1_555
Ce2_7 Mg0_3 3.328003 1_655
Ce3_0 Ni2_0 2.808941 1_555
Ce3_0 Ni2_4 2.808941 1_555
Ce3_0 Ni1_2 2.875421 1_545
Ce3_0 Ni1_6 2.875421 1_545
Ce3_0 Ni3_4 2.875421 1_555
Ce3_0 Ni3_0 2.875421 1_555
Ce3_0 Mg1_1 3.327863 1_555
Ce3_0 Mg1_5 3.327863 1_555
Ce3_0 Mg0_4 3.327863 1_555
Ce3_0 Mg0_0 3.327863 1_555
Ce3_1 Ni2_5 2.808941 1_555
Ce3_1 Ni2_1 2.808941 1_555
Ce3_1 Ni1_7 2.875421 1_545
Ce3_1 Ni1_3 2.875421 1_545
Ce3_1 Ni3_1 2.875421 1_555
Ce3_1 Ni3_5 2.875421 1_555
Ce3_1 Mg1_0 3.327863 1_556
Ce3_1 Mg1_4 3.327863 1_556
Ce3_1 Mg0_5 3.327863 1_555
Ce3_1 Mg0_1 3.327863 1_555
Ce3_2 Ni2_6 2.808941 1_555
Ce3_2 Ni2_2 2.808941 1_555
Ce3_2 Ni3_6 2.875421 1_555
Ce3_2 Ni3_2 2.875421 1_555
Ce3_2 Ni1_0 2.875421 1_555
Ce3_2 Ni1_4 2.875421 1_555
Ce3_2 Mg0_2 3.327863 1_555
Ce3_2 Mg1_3 3.327863 1_555
Ce3_2 Mg1_7 3.327863 1_555
Ce3_2 Mg0_6 3.327863 1_555
Ce3_3 Ni2_7 2.808941 1_555
Ce3_3 Ni2_3 2.808941 1_555
Ce3_3 Ni1_1 2.875421 1_555
Ce3_3 Ni1_5 2.875421 1_555
Ce3_3 Ni3_3 2.875421 1_555
Ce3_3 Ni3_7 2.875421 1_555
Ce3_3 Mg1_2 3.327863 1_556
Ce3_3 Mg1_6 3.327863 1_556
Ce3_3 Mg0_7 3.327863 1_555
Ce3_3 Mg0_3 3.327863 1_555
Ce3_4 Ni2_0 2.808941 1_655
Ce3_4 Ni2_4 2.808941 1_555
Ce3_4 Ni1_6 2.875421 1_545
Ce3_4 Ni1_2 2.875421 1_645
Ce3_4 Ni3_4 2.875421 1_555
Ce3_4 Ni3_0 2.875421 1_655
Ce3_4 Mg1_1 3.327863 1_655
Ce3_4 Mg1_5 3.327863 1_555
Ce3_4 Mg0_0 3.327863 1_655
Ce3_4 Mg0_4 3.327863 1_555
Ce3_5 Ni2_5 2.808941 1_555
Ce3_5 Ni2_1 2.808941 1_655
Ce3_5 Ni1_7 2.875421 1_545
Ce3_5 Ni1_3 2.875421 1_645
Ce3_5 Ni3_1 2.875421 1_655
Ce3_5 Ni3_5 2.875421 1_555
Ce3_5 Mg1_0 3.327863 1_656
Ce3_5 Mg1_4 3.327863 1_556
Ce3_5 Mg0_5 3.327863 1_555
Ce3_5 Mg0_1 3.327863 1_655
Ce3_6 Ni2_6 2.808941 1_555
Ce3_6 Ni2_2 2.808941 1_655
Ce3_6 Ni3_6 2.875421 1_555
Ce3_6 Ni3_2 2.875421 1_655
Ce3_6 Ni1_4 2.875421 1_555
Ce3_6 Ni1_0 2.875421 1_655
Ce3_6 Mg1_7 3.327863 1_555
Ce3_6 Mg0_2 3.327863 1_655
Ce3_6 Mg0_6 3.327863 1_555
Ce3_6 Mg1_3 3.327863 1_655
Ce3_7 Ni2_7 2.808941 1_555
Ce3_7 Ni2_3 2.808941 1_655
Ce3_7 Ni1_1 2.875421 1_655
Ce3_7 Ni1_5 2.875421 1_555
Ce3_7 Ni3_7 2.875421 1_555
Ce3_7 Ni3_3 2.875421 1_655
Ce3_7 Mg1_2 3.327863 1_656
Ce3_7 Mg1_6 3.327863 1_556
Ce3_7 Mg0_7 3.327863 1_555
Ce3_7 Mg0_3 3.327863 1_655
Mg0_0 Ni0_0 2.979123 1_555
Mg0_0 Ni2_0 2.979123 1_555
Mg0_0 Ni1_0 2.979235 1_555
Mg0_0 Ni3_0 2.979235 1_555
Mg0_0 Mg0_4 3.540689 1_555
Mg0_0 Mg0_4 3.540689 1_455
Mg0_1 Ni2_1 2.979123 1_555
Mg0_1 Ni0_1 2.979123 1_555
Mg0_1 Ni1_1 2.979235 1_555
Mg0_1 Ni3_1 2.979235 1_555
Mg0_1 Mg0_5 3.540689 1_455
Mg0_1 Mg0_5 3.540689 1_555
Mg0_2 Ni0_2 2.979123 1_555
Mg0_2 Ni2_2 2.979123 1_555
Mg0_2 Ni1_2 2.979235 1_555
Mg0_2 Ni3_2 2.979235 1_555
Mg0_2 Mg0_6 3.540689 1_455
Mg0_2 Mg0_6 3.540689 1_555
Mg0_3 Ni0_3 2.979123 1_555
Mg0_3 Ni2_3 2.979123 1_555
Mg0_3 Ni3_3 2.979235 1_555
Mg0_3 Ni1_3 2.979235 1_555
Mg0_3 Mg0_7 3.540689 1_555
Mg0_3 Mg0_7 3.540689 1_455
Mg0_4 Ni0_4 2.979123 1_555
Mg0_4 Ni2_4 2.979123 1_555
Mg0_4 Ni1_4 2.979235 1_555
Mg0_4 Ni3_4 2.979235 1_555
Mg0_5 Ni2_5 2.979123 1_555
Mg0_5 Ni0_5 2.979123 1_555
Mg0_5 Ni1_5 2.979235 1_555
Mg0_5 Ni3_5 2.979235 1_555
Mg0_6 Ni0_6 2.979123 1_555
Mg0_6 Ni2_6 2.979123 1_555
Mg0_6 Ni1_6 2.979235 1_555
Mg0_6 Ni3_6 2.979235 1_555
Mg0_7 Ni0_7 2.979123 1_555
Mg0_7 Ni2_7 2.979123 1_555
Mg0_7 Ni3_7 2.979235 1_555
Mg0_7 Ni1_7 2.979235 1_555
Mg1_0 Ni0_2 2.979123 1_545
Mg1_0 Ni2_1 2.979123 1_554
Mg1_0 Ni1_3 2.979235 1_544
Mg1_0 Ni3_0 2.979235 1_555
Mg1_0 Mg1_4 3.540689 1_555
Mg1_0 Mg1_4 3.540689 1_455
Mg1_1 Ni0_3 2.979123 1_545
Mg1_1 Ni2_0 2.979123 1_555
Mg1_1 Ni1_2 2.979235 1_545
Mg1_1 Ni3_1 2.979235 1_555
Mg1_1 Mg1_5 3.540689 1_455
Mg1_1 Mg1_5 3.540689 1_555
Mg1_2 Ni0_0 2.979123 1_555
Mg1_2 Ni2_3 2.979123 1_554
Mg1_2 Ni1_1 2.979235 1_554
Mg1_2 Ni3_2 2.979235 1_555
Mg1_2 Mg1_6 3.540689 1_455
Mg1_2 Mg1_6 3.540689 1_555
Mg1_3 Ni2_2 2.979123 1_555
Mg1_3 Ni0_1 2.979123 1_555
Mg1_3 Ni3_3 2.979235 1_555
Mg1_3 Ni1_0 2.979235 1_555
Mg1_3 Mg1_7 3.540689 1_455
Mg1_3 Mg1_7 3.540689 1_555
Mg1_4 Ni0_6 2.979123 1_545
Mg1_4 Ni2_5 2.979123 1_554
Mg1_4 Ni1_7 2.979235 1_544
Mg1_4 Ni3_4 2.979235 1_555
Mg1_5 Ni0_7 2.979123 1_545
Mg1_5 Ni2_4 2.979123 1_555
Mg1_5 Ni1_6 2.979235 1_545
Mg1_5 Ni3_5 2.979235 1_555
Mg1_6 Ni0_4 2.979123 1_555
Mg1_6 Ni2_7 2.979123 1_554
Mg1_6 Ni1_5 2.979235 1_554
Mg1_6 Ni3_6 2.979235 1_555
Mg1_7 Ni2_6 2.979123 1_555
Mg1_7 Ni0_5 2.979123 1_555
Mg1_7 Ni3_7 2.979235 1_555
Mg1_7 Ni1_4 2.979235 1_555
Ni0_0 Ni2_1 2.747174 1_554
Ni0_1 Ni2_0 2.747174 1_555
Ni0_2 Ni2_3 2.747174 1_554
Ni0_3 Ni2_2 2.747174 1_555
Ni0_4 Ni2_5 2.747174 1_554
Ni0_5 Ni2_4 2.747174 1_555
Ni0_6 Ni2_7 2.747174 1_554
Ni0_7 Ni2_6 2.747174 1_555
Ni1_0 Ni3_2 2.746768 1_555
Ni1_1 Ni3_3 2.746768 1_555
Ni1_2 Ni3_0 2.746768 1_565
Ni1_3 Ni3_1 2.746768 1_565
Ni1_4 Ni3_6 2.746768 1_555
Ni1_5 Ni3_7 2.746768 1_555
Ni1_6 Ni3_4 2.746768 1_565
Ni1_7 Ni3_5 2.746768 1_565
