# generated using pymatgen
data_SrDy(CoO3)4
_symmetry_space_group_name_H-M   'P 1'
_cell_length_a   5.30562278
_cell_length_b   5.30562278
_cell_length_c   7.46821291
_cell_angle_alpha   90.00000000
_cell_angle_beta   90.00000000
_cell_angle_gamma   90.00000000
_symmetry_Int_Tables_number   1
_chemical_formula_structural   SrDy(CoO3)4
_chemical_formula_sum   'Sr1 Dy1 Co4 O12'
_cell_volume   210.22745321
_cell_formula_units_Z   1
loop_
 _symmetry_equiv_pos_site_id
 _symmetry_equiv_pos_as_xyz
  1  'x, y, z'
loop_
 _atom_site_type_symbol
 _atom_site_label
 _atom_site_symmetry_multiplicity
 _atom_site_fract_x
 _atom_site_fract_y
 _atom_site_fract_z
 _atom_site_occupancy
  Sr  Sr0  1  0.00000000  -0.00000000  0.50000000  1
  Dy  Dy0  1  0.50000000  0.50000000  0.00000000  1
  Co  Co0  1  0.00000000  0.50000000  0.74726103  1
  Co  Co1  1  0.00000000  0.50000000  0.25273897  1
  Co  Co2  1  0.50000000  -0.00000000  0.25273897  1
  Co  Co3  1  0.50000000  0.00000000  0.74726103  1
  O  O0  1  0.26043240  0.26043240  0.23630912  1
  O  O1  1  0.26043240  0.26043240  0.76369088  1
  O  O2  1  0.73956760  0.73956760  0.23630912  1
  O  O3  1  0.73956760  0.73956760  0.76369088  1
  O  O4  1  0.73956760  0.26043240  0.76369088  1
  O  O5  1  0.73956760  0.26043240  0.23630912  1
  O  O6  1  0.26043240  0.73956760  0.76369088  1
  O  O7  1  0.26043240  0.73956760  0.23630912  1
  O  O8  1  0.00000000  0.50000000  0.50000000  1
  O  O9  1  0.00000000  0.50000000  0.00000000  1
  O  O10  1  0.50000000  0.00000000  0.50000000  1
  O  O11  1  0.50000000  -0.00000000  0.00000000  1
loop_
_geom_bond_atom_site_label_1
_geom_bond_atom_site_label_2
_geom_bond_distance
_geom_bond_site_symmetry_2
Dy0 O2 2.519069 1_555
Dy0 O5 2.519069 1_555
Dy0 O7 2.519069 1_555
Dy0 O0 2.519069 1_555
Dy0 O4 2.519069 1_554
Dy0 O3 2.519069 1_554
Dy0 O6 2.519069 1_554
Dy0 O1 2.519069 1_554
Dy0 O11 2.652811 1_555
Dy0 O11 2.652811 1_565
Dy0 O9 2.652811 1_555
Dy0 O9 2.652811 1_655
Co0 O8 1.846598 1_555
Co0 O3 1.881459 1_455
Co0 O6 1.881459 1_555
Co0 O4 1.881459 1_455
Co0 O1 1.881459 1_555
Co0 O9 1.887508 1_556
Co1 O8 1.846598 1_555
Co1 O0 1.881459 1_555
Co1 O5 1.881459 1_455
Co1 O7 1.881459 1_555
Co1 O2 1.881459 1_455
Co1 O9 1.887508 1_555
Co2 O10 1.846598 1_555
Co2 O7 1.881459 1_545
Co2 O2 1.881459 1_545
Co2 O0 1.881459 1_555
Co2 O5 1.881459 1_555
Co2 O11 1.887508 1_555
Co3 O10 1.846598 1_555
Co3 O1 1.881459 1_555
Co3 O4 1.881459 1_555
Co3 O6 1.881459 1_545
Co3 O3 1.881459 1_545
Co3 O11 1.887508 1_556
O0 Sr0 2.774282 1_555
O1 Sr0 2.774282 1_555
O2 Sr0 2.774282 1_665
O3 Sr0 2.774282 1_665
O4 Sr0 2.774282 1_655
O5 Sr0 2.774282 1_655
O6 Sr0 2.774282 1_565
O7 Sr0 2.774282 1_565
O8 Sr0 2.652811 1_555
O8 Sr0 2.652811 1_565
O10 Sr0 2.652811 1_555
O10 Sr0 2.652811 1_655
