# generated using pymatgen
data_La(ErSe2)2
_symmetry_space_group_name_H-M   'P 1'
_cell_length_a   7.60664417
_cell_length_b   7.60664417
_cell_length_c   7.60664417
_cell_angle_alpha   109.25616895
_cell_angle_beta   109.25616895
_cell_angle_gamma   109.90218547
_symmetry_Int_Tables_number   1
_chemical_formula_structural   La(ErSe2)2
_chemical_formula_sum   'La2 Er4 Se8'
_cell_volume   338.79654052
_cell_formula_units_Z   2
loop_
 _symmetry_equiv_pos_site_id
 _symmetry_equiv_pos_as_xyz
  1  'x, y, z'
loop_
 _atom_site_type_symbol
 _atom_site_label
 _atom_site_symmetry_multiplicity
 _atom_site_fract_x
 _atom_site_fract_y
 _atom_site_fract_z
 _atom_site_occupancy
  La  La0  1  0.50000000  0.50000000  0.00000000  1
  La  La1  1  0.75000000  0.25000000  0.50000000  1
  Er  Er0  1  0.00632300  0.87500000  0.63132300  1
  Er  Er1  1  0.24367700  0.37500000  0.36867700  1
  Er  Er2  1  0.12500000  0.75632300  0.13132300  1
  Er  Er3  1  0.62500000  0.99367700  0.86867700  1
  Se  Se0  1  0.01813600  0.26563000  0.90229200  1
  Se  Se1  1  0.36333800  0.11584400  0.09770800  1
  Se  Se2  1  0.23186400  0.63415600  0.74749400  1
  Se  Se3  1  0.88666200  0.48437000  0.25250600  1
  Se  Se4  1  0.36584400  0.11333800  0.59770800  1
  Se  Se5  1  0.51563000  0.76813600  0.40229200  1
  Se  Se6  1  0.73437000  0.63666200  0.75250600  1
  Se  Se7  1  0.88415600  0.98186400  0.24749400  1
loop_
_geom_bond_atom_site_label_1
_geom_bond_atom_site_label_2
_geom_bond_distance
_geom_bond_site_symmetry_2
La0 Se3 3.002753 1_555
La0 Se4 3.002753 1_554
La0 Se5 3.002753 1_555
La0 Se2 3.002753 1_554
La0 Se6 3.169524 1_554
La0 Se1 3.169524 1_555
La0 Se7 3.169524 1_555
La0 Se0 3.169524 1_554
La1 Se1 3.002753 1_555
La1 Se0 3.002753 1_655
La1 Se6 3.002753 1_555
La1 Se7 3.002753 1_545
La1 Se5 3.169524 1_545
La1 Se3 3.169524 1_555
La1 Se4 3.169524 1_555
La1 Se2 3.169524 1_655
Er0 Se4 2.867486 1_565
Er0 Se6 2.867486 1_455
Er0 Se3 2.956690 1_455
Er0 Se0 2.956690 1_565
Er0 Se1 3.047652 1_566
Er0 Se2 3.047652 1_555
Er0 Se7 3.215403 1_455
Er0 Se5 3.215403 1_455
Er1 Se7 2.867486 1_445
Er1 Se5 2.867486 1_555
Er1 Se1 2.956690 1_555
Er1 Se2 2.956690 1_555
Er1 Se0 3.047652 1_554
Er1 Se3 3.047652 1_455
Er1 Se6 3.215403 1_555
Er1 Se4 3.215403 1_555
Er2 Se3 2.867486 1_455
Er2 Se1 2.867486 1_565
Er2 Se6 2.956690 1_454
Er2 Se5 2.956690 1_555
Er2 Se7 3.047652 1_455
Er2 Se4 3.047652 1_565
Er2 Se2 3.215403 1_554
Er2 Se0 3.215403 1_554
Er3 Se2 2.867486 1_555
Er3 Se0 2.867486 1_665
Er3 Se4 2.956690 1_565
Er3 Se7 2.956690 1_556
Er3 Se6 3.047652 1_555
Er3 Se5 3.047652 1_555
Er3 Se3 3.215403 1_566
Er3 Se1 3.215403 1_566
