# generated using pymatgen
data_Li7V3P8O29
_symmetry_space_group_name_H-M   'P 1'
_cell_length_a   9.82199989
_cell_length_b   9.82199989
_cell_length_c   13.98862509
_cell_angle_alpha   88.79863430
_cell_angle_beta   88.79863430
_cell_angle_gamma   60.52920249
_symmetry_Int_Tables_number   1
_chemical_formula_structural   Li7V3P8O29
_chemical_formula_sum   'Li14 V6 P16 O58'
_cell_volume   1174.54273359
_cell_formula_units_Z   2
loop_
 _symmetry_equiv_pos_site_id
 _symmetry_equiv_pos_as_xyz
  1  'x, y, z'
loop_
 _atom_site_type_symbol
 _atom_site_label
 _atom_site_symmetry_multiplicity
 _atom_site_fract_x
 _atom_site_fract_y
 _atom_site_fract_z
 _atom_site_occupancy
  Li  Li0  1  0.90952800  0.32216300  0.93294200  1
  Li  Li1  1  0.67028000  0.67311000  0.11252100  1
  Li  Li2  1  0.67311000  0.67028000  0.61252100  1
  Li  Li3  1  0.76482400  0.32209100  0.43563400  1
  Li  Li4  1  0.32216300  0.90952800  0.43294200  1
  Li  Li5  1  0.67790900  0.23517600  0.06436600  1
  Li  Li6  1  0.32209100  0.76482400  0.93563400  1
  Li  Li7  1  0.67783700  0.09047200  0.56705800  1
  Li  Li8  1  0.23517600  0.67790900  0.56436600  1
  Li  Li9  1  0.32972000  0.32689000  0.88747900  1
  Li  Li10  1  0.32689000  0.32972000  0.38747900  1
  Li  Li11  1  0.09047200  0.67783700  0.06705800  1
  Li  Li12  1  0.00000000  0.00000000  0.50000000  1
  Li  Li13  1  0.00000000  0.00000000  0.00000000  1
  V  V0  1  0.56459600  0.43540400  0.25000000  1
  V  V1  1  0.43540400  0.56459600  0.75000000  1
  V  V2  1  0.56507300  0.99415100  0.75458500  1
  V  V3  1  0.43492700  0.00584900  0.24541500  1
  V  V4  1  0.99415100  0.56507300  0.25458500  1
  V  V5  1  0.00584900  0.43492700  0.74541500  1
  P  P0  1  0.91601800  0.78310400  0.66540700  1
  P  P1  1  0.78310400  0.91601800  0.16540700  1
  P  P2  1  0.91274200  0.31701000  0.14924000  1
  P  P3  1  0.66108100  0.67077900  0.37379300  1
  P  P4  1  0.67077900  0.66108100  0.87379300  1
  P  P5  1  0.77684700  0.32005500  0.65724300  1
  P  P6  1  0.67994500  0.22315300  0.84275700  1
  P  P7  1  0.31701000  0.91274200  0.64924000  1
  P  P8  1  0.68299000  0.08725800  0.35076000  1
  P  P9  1  0.32005500  0.77684700  0.15724300  1
  P  P10  1  0.22315300  0.67994500  0.34275700  1
  P  P11  1  0.32922100  0.33891900  0.12620700  1
  P  P12  1  0.33891900  0.32922100  0.62620700  1
  P  P13  1  0.08725800  0.68299000  0.85076000  1
  P  P14  1  0.21689600  0.08398200  0.83459300  1
  P  P15  1  0.08398200  0.21689600  0.33459300  1
  O  O0  1  0.01081900  0.76123600  0.94389100  1
  O  O1  1  0.92129500  0.74703600  0.16227600  1
  O  O2  1  0.76123600  0.01081900  0.44389100  1
  O  O3  1  0.74703600  0.92129500  0.66227600  1
  O  O4  1  0.90546100  0.62939500  0.66868100  1
  O  O5  1  0.81154900  0.66197600  0.32442600  1
  O  O6  1  0.89710300  0.48040500  0.16611100  1
  O  O7  1  0.98611200  0.20282200  0.41460100  1
  O  O8  1  0.92122000  0.34042300  0.66051900  1
  O  O9  1  0.66197600  0.81154900  0.82442600  1
  O  O10  1  0.62939500  0.90546100  0.16868100  1
  O  O11  1  0.81921500  0.51684500  0.82945000  1
  O  O12  1  0.66141900  0.68654200  0.48004600  1
  O  O13  1  0.68654200  0.66141900  0.98004600  1
  O  O14  1  0.66089500  0.52014700  0.34492800  1
  O  O15  1  0.48040500  0.89710300  0.66611100  1
  O  O16  1  0.51684500  0.81921500  0.32945000  1
  O  O17  1  0.74845300  0.33464300  0.15917800  1
  O  O18  1  0.78459700  0.21540300  0.75000000  1
  O  O19  1  0.76875000  0.22649900  0.92922600  1
  O  O20  1  0.77350100  0.23125000  0.57077400  1
  O  O21  1  0.63059400  0.48354900  0.66633700  1
  O  O22  1  0.52014700  0.66089500  0.84492800  1
  O  O23  1  0.66535700  0.25154700  0.34082200  1
  O  O24  1  0.48354900  0.63059400  0.16633700  1
  O  O25  1  0.34042300  0.92122000  0.16051900  1
  O  O26  1  0.79642700  0.98197600  0.26610400  1
  O  O27  1  0.79717800  0.01388800  0.08539900  1
  O  O28  1  0.20282200  0.98611200  0.91460100  1
  O  O29  1  0.65957700  0.07878000  0.83948100  1
  O  O30  1  0.51645100  0.36940600  0.83366300  1
  O  O31  1  0.33464300  0.74845300  0.65917800  1
  O  O32  1  0.47985300  0.33910500  0.15507200  1
  O  O33  1  0.36940600  0.51645100  0.33366300  1
  O  O34  1  0.22649900  0.76875000  0.42922600  1
  O  O35  1  0.23125000  0.77350100  0.07077400  1
  O  O36  1  0.21540300  0.78459700  0.25000000  1
  O  O37  1  0.25154700  0.66535700  0.84082200  1
  O  O38  1  0.48315500  0.18078500  0.67055000  1
  O  O39  1  0.51959500  0.10289700  0.33388900  1
  O  O40  1  0.33910500  0.47985300  0.65507200  1
  O  O41  1  0.33858100  0.31345800  0.51995400  1
  O  O42  1  0.31345800  0.33858100  0.01995400  1
  O  O43  1  0.18078500  0.48315500  0.17055000  1
  O  O44  1  0.37060500  0.09453900  0.83131900  1
  O  O45  1  0.33802400  0.18845100  0.17557400  1
  O  O46  1  0.07878000  0.65957700  0.33948100  1
  O  O47  1  0.98197600  0.79642700  0.76610400  1
  O  O48  1  0.01388800  0.79717800  0.58539900  1
  O  O49  1  0.10289700  0.51959500  0.83388900  1
  O  O50  1  0.18845100  0.33802400  0.67557400  1
  O  O51  1  0.09453900  0.37060500  0.33131900  1
  O  O52  1  0.25296400  0.07870500  0.33772400  1
  O  O53  1  0.23876400  0.98918100  0.55610900  1
  O  O54  1  0.20357300  0.01802400  0.73389600  1
  O  O55  1  0.07870500  0.25296400  0.83772400  1
  O  O56  1  0.98918100  0.23876400  0.05610900  1
  O  O57  1  0.01802400  0.20357300  0.23389600  1
loop_
_geom_bond_atom_site_label_1
_geom_bond_atom_site_label_2
_geom_bond_distance
_geom_bond_site_symmetry_2
Li0 O56 1.902195 1_556
Li0 O55 1.957316 1_655
Li0 O19 2.020132 1_555
Li0 O11 2.192691 1_555
Li1 O13 1.857768 1_554
Li1 O24 2.188026 1_555
Li1 O6 2.229173 1_555
Li1 O10 2.268666 1_555
Li2 O12 1.857768 1_555
Li2 O21 2.188026 1_555
Li2 O15 2.229173 1_555
Li2 O4 2.268666 1_555
Li3 O7 1.914489 1_555
Li3 O23 1.988096 1_555
Li3 O20 2.058704 1_555
Li3 O14 2.105499 1_555
Li4 O53 1.902195 1_555
Li4 O52 1.957316 1_565
Li4 O34 2.020132 1_555
Li4 O16 2.192691 1_555
Li5 O27 1.914489 1_555
Li5 O17 1.988096 1_555
Li5 O19 2.058704 1_554
Li5 O32 2.105499 1_555
Li6 O28 1.914489 1_555
Li6 O37 1.988096 1_555
Li6 O35 2.058704 1_556
Li6 O22 2.105499 1_555
Li7 O2 1.902195 1_555
Li7 O3 1.957316 1_545
Li7 O20 2.020132 1_555
Li7 O38 2.192691 1_555
Li8 O48 1.914489 1_555
Li8 O31 1.988096 1_555
Li8 O34 2.058704 1_555
Li8 O40 2.105499 1_555
Li9 O42 1.857768 1_556
Li9 O30 2.188026 1_555
Li9 O49 2.229173 1_555
Li9 O44 2.268666 1_555
Li10 O41 1.857768 1_555
Li10 O33 2.188026 1_555
Li10 O39 2.229173 1_555
Li10 O51 2.268666 1_555
Li11 O0 1.902195 1_554
Li11 O1 1.957316 1_455
Li11 O35 2.020132 1_555
Li11 O43 2.192691 1_555
Li12 O48 2.248089 1_545
Li12 O7 2.248089 1_455
Li12 O2 2.440390 1_455
Li12 O53 2.440390 1_545
Li12 O34 2.473522 1_545
Li12 O20 2.473522 1_455
Li13 O28 2.248089 1_544
Li13 O27 2.248089 1_455
Li13 O0 2.440390 1_544
Li13 O56 2.440390 1_455
Li13 O35 2.473522 1_545
Li13 O19 2.473522 1_454
O0 P13 1.511543 1_555
O1 P1 1.543651 1_555
O1 V4 2.014261 1_555
O2 P8 1.511543 1_555
O3 P0 1.543651 1_555
O3 V2 2.014261 1_555
O4 P0 1.563032 1_555
O4 V5 1.969272 1_655
O5 P3 1.581937 1_555
O5 V4 1.833832 1_555
O6 P2 1.557782 1_555
O6 V4 2.001126 1_555
O7 P15 1.508287 1_655
O8 P5 1.528129 1_555
O8 V5 1.951837 1_655
O9 P4 1.581937 1_555
O9 V2 1.833832 1_555
O10 P1 1.563032 1_555
O10 V3 1.969272 1_565
O11 P4 1.576061 1_555
O11 V5 1.971705 1_655
O12 P3 1.497842 1_555
O13 P4 1.497842 1_555
O14 P3 1.542636 1_555
O14 V0 2.055344 1_555
O15 P7 1.557782 1_555
O15 V2 2.001126 1_555
O16 P3 1.576061 1_555
O16 V3 1.971705 1_565
O17 P2 1.539413 1_555
O17 V0 2.013112 1_555
O18 P6 1.617776 1_555
O18 P5 1.617776 1_555
O19 P6 1.516275 1_555
O20 P5 1.516275 1_555
O21 P5 1.545815 1_555
O21 V1 2.030312 1_555
O22 P4 1.542636 1_555
O22 V1 2.055344 1_555
O23 P8 1.539413 1_555
O23 V0 2.013112 1_555
O24 P9 1.545815 1_555
O24 V0 2.030312 1_555
O25 P9 1.528129 1_555
O25 V3 1.951837 1_565
O26 P1 1.597003 1_555
O26 P8 1.604820 1_565
O27 P1 1.508287 1_545
O28 P14 1.508287 1_565
O29 P6 1.528129 1_555
O29 V2 1.951837 1_545
O30 P6 1.545815 1_555
O30 V1 2.030312 1_555
O31 P7 1.539413 1_555
O31 V1 2.013112 1_555
O32 P11 1.542636 1_555
O32 V0 2.055344 1_555
O33 P10 1.545815 1_555
O33 V0 2.030312 1_555
O34 P10 1.516275 1_555
O35 P9 1.516275 1_555
O36 P10 1.617776 1_555
O36 P9 1.617776 1_555
O37 P13 1.539413 1_555
O37 V1 2.013112 1_555
O38 P12 1.576061 1_555
O38 V2 1.971705 1_545
O39 P8 1.557782 1_555
O39 V3 2.001126 1_555
O40 P12 1.542636 1_555
O40 V1 2.055344 1_555
O41 P12 1.497842 1_555
O42 P11 1.497842 1_555
O43 P11 1.576061 1_555
O43 V4 1.971705 1_455
O44 P14 1.563032 1_555
O44 V2 1.969272 1_545
O45 P11 1.581937 1_555
O45 V3 1.833832 1_555
O46 P10 1.528129 1_555
O46 V4 1.951837 1_455
O47 P0 1.597003 1_555
O47 P13 1.604820 1_655
O48 P0 1.508287 1_455
O49 P13 1.557782 1_555
O49 V5 2.001126 1_555
O50 P12 1.581937 1_555
O50 V5 1.833832 1_555
O51 P15 1.563032 1_555
O51 V4 1.969272 1_455
O52 P15 1.543651 1_555
O52 V3 2.014261 1_555
O53 P7 1.511543 1_555
O54 P14 1.597003 1_555
O54 P7 1.604820 1_545
O55 P14 1.543651 1_555
O55 V5 2.014261 1_555
O56 P2 1.511543 1_555
O57 P15 1.597003 1_555
O57 P2 1.604820 1_455
