# generated using pymatgen
data_NaFe9Si6B3H2O31
_symmetry_space_group_name_H-M   'P 1'
_cell_length_a   9.82542184
_cell_length_b   9.80374943
_cell_length_c   9.80648529
_cell_angle_alpha   113.71517993
_cell_angle_beta   113.45407907
_cell_angle_gamma   113.48861553
_symmetry_Int_Tables_number   1
_chemical_formula_structural   NaFe9Si6B3H2O31
_chemical_formula_sum   'Na1 Fe9 Si6 B3 H2 O31'
_cell_volume   592.45719541
_cell_formula_units_Z   1
loop_
 _symmetry_equiv_pos_site_id
 _symmetry_equiv_pos_as_xyz
  1  'x, y, z'
loop_
 _atom_site_type_symbol
 _atom_site_label
 _atom_site_symmetry_multiplicity
 _atom_site_fract_x
 _atom_site_fract_y
 _atom_site_fract_z
 _atom_site_occupancy
  Na  Na0  1  0.23908300  0.23683800  0.24729000  1
  Fe  Fe0  1  0.35279900  0.56646700  0.90516800  1
  Fe  Fe1  1  0.35135700  0.91438800  0.57971000  1
  Fe  Fe2  1  0.58563600  0.76374500  0.58696500  1
  Fe  Fe3  1  0.57720500  0.57730500  0.76782500  1
  Fe  Fe4  1  0.57846200  0.91271800  0.34932800  1
  Fe  Fe5  1  0.56743300  0.35459100  0.90786300  1
  Fe  Fe6  1  0.76348500  0.57873800  0.58137100  1
  Fe  Fe7  1  0.91464900  0.35484000  0.58103100  1
  Fe  Fe8  1  0.90982500  0.57687600  0.34901000  1
  Si  Si0  1  0.18690700  0.99603600  0.81099200  1
  Si  Si1  1  0.19157000  0.81175000  0.99962400  1
  Si  Si2  1  0.81336700  0.00023700  0.18784800  1
  Si  Si3  1  0.81072100  0.18974300  0.99780800  1
  Si  Si4  1  0.99678200  0.18638800  0.81136400  1
  Si  Si5  1  0.00059000  0.81453700  0.18798700  1
  B  B0  1  0.23773500  0.56674500  0.56601600  1
  B  B1  1  0.56320800  0.56659600  0.24059900  1
  B  B2  1  0.56538300  0.23836700  0.56749200  1
  H  H0  1  0.26156500  0.64179500  0.26066600  1
  H  H1  1  0.64594700  0.25597800  0.25549500  1
  O  O0  1  0.26705400  0.99148800  0.99224700  1
  O  O1  1  0.07740900  0.79602000  0.35621200  1
  O  O2  1  0.07600300  0.35435400  0.79401700  1
  O  O3  1  0.17464300  0.50538800  0.64872200  1
  O  O4  1  0.17439900  0.64846000  0.50118500  1
  O  O5  1  0.15759700  0.15744900  0.88444800  1
  O  O6  1  0.16586600  0.88767400  0.16407500  1
  O  O7  1  0.60015200  0.78231800  0.97795100  1
  O  O8  1  0.60005700  0.97787600  0.77621600  1
  O  O9  1  0.40056400  0.39989600  0.78506700  1
  O  O10  1  0.38728400  0.77401300  0.38755300  1
  O  O11  1  0.36642000  0.55129600  0.55135500  1
  O  O12  1  0.36092400  0.79642900  0.07933600  1
  O  O13  1  0.35743800  0.07676200  0.79681300  1
  O  O14  1  0.78229100  0.60177200  0.97809800  1
  O  O15  1  0.77460900  0.97603500  0.60100400  1
  O  O16  1  0.76093500  0.77312100  0.77810900  1
  O  O17  1  0.50687600  0.17359400  0.65126900  1
  O  O18  1  0.50520900  0.65097700  0.17594900  1
  O  O19  1  0.54614100  0.36481800  0.55311400  1
  O  O20  1  0.54014000  0.55010300  0.36414000  1
  O  O21  1  0.64583300  0.50192200  0.17809700  1
  O  O22  1  0.64777500  0.17550500  0.50222700  1
  O  O23  1  0.97968400  0.77610100  0.59890400  1
  O  O24  1  0.98386200  0.59921800  0.78170500  1
  O  O25  1  0.77856900  0.38115100  0.38144400  1
  O  O26  1  0.99116900  0.26778800  0.99224400  1
  O  O27  1  0.99132400  0.99223600  0.25932200  1
  O  O28  1  0.79709700  0.07727200  0.35825300  1
  O  O29  1  0.79222700  0.35750100  0.07514800  1
  O  O30  1  0.88484100  0.16488500  0.16242300  1
loop_
_geom_bond_atom_site_label_1
_geom_bond_atom_site_label_2
_geom_bond_distance
_geom_bond_site_symmetry_2
Na0 O19 2.534558 1_555
Na0 O11 2.553818 1_555
Na0 O20 2.593147 1_555
Na0 O27 2.737391 1_445
Na0 O6 2.867736 1_545
Na0 O0 2.889914 1_544
Na0 O30 2.927357 1_455
Na0 O26 2.937846 1_454
Na0 O5 2.985882 1_554
Fe0 O9 1.943703 1_555
Fe0 O18 2.013971 1_556
Fe0 O3 2.048415 1_555
Fe0 O7 2.049075 1_555
Fe0 O2 2.053696 1_555
Fe0 O12 2.157988 1_556
Fe1 O17 1.975273 1_565
Fe1 O4 2.029516 1_555
Fe1 O8 2.036268 1_555
Fe1 O1 2.040473 1_555
Fe1 O13 2.041353 1_565
Fe1 O10 2.097665 1_555
Fe2 O16 1.911500 1_555
Fe2 O20 2.038673 1_555
Fe2 O15 2.069697 1_555
Fe2 O8 2.071488 1_555
Fe2 O11 2.083124 1_555
Fe2 O10 2.216616 1_555
Fe3 O16 1.972617 1_555
Fe3 O9 2.032184 1_555
Fe3 O7 2.067392 1_555
Fe3 O14 2.068634 1_555
Fe3 O19 2.078348 1_555
Fe3 O11 2.122390 1_555
Fe4 O12 2.000773 1_555
Fe4 O22 2.007640 1_565
Fe4 O18 2.009391 1_555
Fe4 O28 2.049186 1_565
Fe4 O15 2.053914 1_555
Fe4 O10 2.110084 1_555
Fe5 O9 1.942833 1_555
Fe5 O21 2.027698 1_556
Fe5 O13 2.051241 1_555
Fe5 O17 2.051682 1_555
Fe5 O14 2.055588 1_555
Fe5 O29 2.144337 1_556
Fe6 O23 2.109762 1_555
Fe6 O16 2.115088 1_555
Fe6 O19 2.127651 1_555
Fe6 O24 2.130333 1_555
Fe6 O20 2.176955 1_555
Fe6 O25 2.241300 1_555
Fe7 O24 1.979539 1_555
Fe7 O3 2.000336 1_655
Fe7 O22 2.045271 1_555
Fe7 O28 2.053238 1_555
Fe7 O2 2.062527 1_655
Fe7 O25 2.069521 1_555
Fe8 O23 2.008383 1_555
Fe8 O29 2.018914 1_555
Fe8 O4 2.022978 1_655
Fe8 O21 2.026426 1_555
Fe8 O25 2.071505 1_555
Fe8 O1 2.073028 1_655
B0 O3 1.378168 1_555
B0 O11 1.386405 1_555
B0 O4 1.387583 1_555
B1 O20 1.375571 1_555
B1 O18 1.386035 1_555
B1 O21 1.389446 1_555
B2 O19 1.377925 1_555
B2 O17 1.383210 1_555
B2 O22 1.391990 1_555
H0 O10 0.978315 1_555
H1 O25 0.976934 1_555
O0 Si0 1.661038 1_555
O0 Si1 1.662468 1_555
O1 Si5 1.638012 1_555
O2 Si4 1.629547 1_455
O5 Si4 1.646279 1_455
O5 Si0 1.648474 1_545
O6 Si5 1.648145 1_555
O6 Si1 1.651386 1_554
O7 Si2 1.628595 1_566
O8 Si3 1.637842 1_565
O12 Si1 1.631161 1_554
O13 Si0 1.634026 1_545
O14 Si5 1.629061 1_656
O15 Si4 1.636604 1_565
O23 Si0 1.625640 1_655
O24 Si1 1.621797 1_655
O26 Si4 1.661495 1_555
O26 Si3 1.661650 1_555
O27 Si5 1.652108 1_655
O27 Si2 1.653081 1_565
O28 Si2 1.637724 1_555
O29 Si3 1.630250 1_554
O30 Si3 1.648572 1_554
O30 Si2 1.649358 1_555
