# generated using pymatgen
data_Y3AlO6
_symmetry_space_group_name_H-M   'P 1'
_cell_length_a   6.45871299
_cell_length_b   6.45871299
_cell_length_c   6.45871290
_cell_angle_alpha   92.33703191
_cell_angle_beta   92.33703191
_cell_angle_gamma   92.33703204
_symmetry_Int_Tables_number   1
_chemical_formula_structural   Y3AlO6
_chemical_formula_sum   'Y6 Al2 O12'
_cell_volume   268.73387739
_cell_formula_units_Z   2
loop_
 _symmetry_equiv_pos_site_id
 _symmetry_equiv_pos_as_xyz
  1  'x, y, z'
loop_
 _atom_site_type_symbol
 _atom_site_label
 _atom_site_symmetry_multiplicity
 _atom_site_fract_x
 _atom_site_fract_y
 _atom_site_fract_z
 _atom_site_occupancy
  Y  Y0  1  0.56461800  0.07081500  0.25513500  1
  Y  Y1  1  0.74486500  0.43538200  0.92918500  1
  Y  Y2  1  0.92918500  0.74486500  0.43538200  1
  Y  Y3  1  0.07081500  0.25513500  0.56461800  1
  Y  Y4  1  0.25513500  0.56461800  0.07081500  1
  Y  Y5  1  0.43538200  0.92918500  0.74486500  1
  Al  Al0  1  0.00000000  0.00000000  0.00000000  1
  Al  Al1  1  0.50000000  0.50000000  0.50000000  1
  O  O0  1  0.92867600  0.06810000  0.29245600  1
  O  O1  1  0.70754400  0.07132400  0.93190000  1
  O  O2  1  0.79028000  0.45597400  0.58223700  1
  O  O3  1  0.93190000  0.70754400  0.07132400  1
  O  O4  1  0.41776300  0.20972000  0.54402600  1
  O  O5  1  0.54402600  0.41776300  0.20972000  1
  O  O6  1  0.45597400  0.58223700  0.79028000  1
  O  O7  1  0.58223700  0.79028000  0.45597400  1
  O  O8  1  0.06810000  0.29245600  0.92867600  1
  O  O9  1  0.20972000  0.54402600  0.41776300  1
  O  O10  1  0.29245600  0.92867600  0.06810000  1
  O  O11  1  0.07132400  0.93190000  0.70754400  1
loop_
_geom_bond_atom_site_label_1
_geom_bond_atom_site_label_2
_geom_bond_distance
_geom_bond_site_symmetry_2
Al0 O0 1.998325 1_455
Al0 O11 1.998325 1_544
Al0 O8 1.998325 1_554
Al0 O3 1.998325 1_445
Al0 O10 1.998325 1_545
Al0 O1 1.998325 1_454
Al1 O5 1.962794 1_555
Al1 O6 1.962794 1_555
Al1 O4 1.962794 1_555
Al1 O7 1.962794 1_555
Al1 O9 1.962794 1_555
Al1 O2 1.962794 1_555
O0 Y3 2.235342 1_655
O0 Y2 2.316907 1_545
O0 Y0 2.354723 1_555
O1 Y5 2.235342 1_545
O1 Y0 2.316907 1_556
O1 Y1 2.354723 1_555
O2 Y3 2.274862 1_655
O2 Y1 2.280309 1_555
O2 Y2 2.294161 1_555
O3 Y1 2.235342 1_554
O3 Y4 2.316907 1_655
O3 Y2 2.354723 1_555
O4 Y5 2.274862 1_545
O4 Y3 2.280309 1_555
O4 Y0 2.294161 1_555
O5 Y1 2.274862 1_554
O5 Y0 2.280309 1_555
O5 Y4 2.294161 1_555
O6 Y4 2.274862 1_556
O6 Y5 2.280309 1_555
O6 Y1 2.294161 1_555
O7 Y0 2.274862 1_565
O7 Y2 2.280309 1_555
O7 Y5 2.294161 1_555
O8 Y4 2.235342 1_556
O8 Y1 2.316907 1_455
O8 Y3 2.354723 1_555
O9 Y2 2.274862 1_455
O9 Y4 2.280309 1_555
O9 Y3 2.294161 1_555
O10 Y0 2.235342 1_565
O10 Y5 2.316907 1_554
O10 Y4 2.354723 1_555
O11 Y2 2.235342 1_455
O11 Y3 2.316907 1_565
O11 Y5 2.354723 1_555
