# generated using pymatgen
data_SiNi3Mo2
_symmetry_space_group_name_H-M   'P 1'
_cell_length_a   4.71777546
_cell_length_b   4.71777546
_cell_length_c   7.57047000
_cell_angle_alpha   90.00000000
_cell_angle_beta   90.00000000
_cell_angle_gamma   119.20596084
_symmetry_Int_Tables_number   1
_chemical_formula_structural   SiNi3Mo2
_chemical_formula_sum   'Si2 Ni6 Mo4'
_cell_volume   147.07796053
_cell_formula_units_Z   2
loop_
 _symmetry_equiv_pos_site_id
 _symmetry_equiv_pos_as_xyz
  1  'x, y, z'
loop_
 _atom_site_type_symbol
 _atom_site_label
 _atom_site_symmetry_multiplicity
 _atom_site_fract_x
 _atom_site_fract_y
 _atom_site_fract_z
 _atom_site_occupancy
  Si  Si0  1  0.17091100  0.33585600  0.00000000  1
  Si  Si1  1  0.66414400  0.82908900  0.00000000  1
  Ni  Ni0  1  0.18180500  0.81819500  0.00000000  1
  Ni  Ni1  1  0.83089000  0.66119200  0.50000000  1
  Ni  Ni2  1  0.33880800  0.16911000  0.50000000  1
  Ni  Ni3  1  0.83039400  0.16960600  0.50000000  1
  Ni  Ni4  1  0.99333700  0.00666300  0.24100700  1
  Ni  Ni5  1  0.99333700  0.00666300  0.75899300  1
  Mo  Mo0  1  0.33507300  0.66492700  0.68289700  1
  Mo  Mo1  1  0.66305300  0.33694700  0.81091500  1
  Mo  Mo2  1  0.66305300  0.33694700  0.18908500  1
  Mo  Mo3  1  0.33507300  0.66492700  0.31710300  1
loop_
_geom_bond_atom_site_label_1
_geom_bond_atom_site_label_2
_geom_bond_distance
_geom_bond_site_symmetry_2
Si0 Si1 2.354834 1_555
Si0 Si1 2.419450 1_445
Ni0 Si1 2.250936 1_555
Ni0 Si0 2.250936 1_555
Ni0 Ni5 2.383619 1_464
Ni0 Ni4 2.383619 1_465
Ni0 Si0 2.467695 1_565
Ni0 Si1 2.467695 1_455
Ni1 Ni3 2.318051 1_555
Ni1 Ni2 2.349339 1_555
Ni1 Ni3 2.399726 1_565
Ni1 Ni4 2.422626 1_565
Ni1 Ni5 2.422626 1_565
Ni1 Ni2 2.424945 1_665
Ni2 Ni3 2.318051 1_555
Ni2 Ni3 2.399726 1_455
Ni2 Ni5 2.422626 1_455
Ni2 Ni4 2.422626 1_455
Ni3 Ni5 2.367051 1_555
Ni3 Ni4 2.367051 1_555
Ni4 Si1 2.274429 1_545
Ni4 Si0 2.274429 1_655
Ni5 Si0 2.274429 1_656
Ni5 Si1 2.274429 1_546
Mo0 Ni0 2.705351 1_556
Mo0 Ni2 2.725681 1_555
Mo0 Ni1 2.725681 1_555
Mo0 Ni1 2.744888 1_455
Mo0 Ni2 2.744888 1_565
Mo0 Si1 2.756738 1_556
Mo0 Si0 2.756738 1_556
Mo0 Ni3 2.759902 1_565
Mo0 Ni3 2.759902 1_455
Mo0 Mo3 2.769233 1_555
Mo0 Ni5 2.772969 1_565
Mo0 Ni5 2.772969 1_455
Mo0 Mo1 2.839773 1_555
Mo0 Ni5 2.840268 1_465
Mo0 Mo1 2.932181 1_565
Mo0 Mo1 2.932181 1_455
Mo1 Ni2 2.706508 1_555
Mo1 Ni1 2.706508 1_555
Mo1 Ni5 2.716617 1_555
Mo1 Ni3 2.719384 1_555
Mo1 Si0 2.725486 1_556
Mo1 Si1 2.725486 1_556
Mo1 Ni5 2.785818 1_455
Mo1 Ni5 2.785818 1_565
Mo1 Ni0 2.787619 1_546
Mo1 Ni0 2.787619 1_656
Mo1 Si0 2.793165 1_656
Mo1 Si1 2.793165 1_546
Mo1 Mo2 2.862925 1_556
Mo2 Ni1 2.706508 1_555
Mo2 Ni2 2.706508 1_555
Mo2 Ni4 2.716617 1_555
Mo2 Ni3 2.719384 1_555
Mo2 Si0 2.725486 1_555
Mo2 Si1 2.725486 1_555
Mo2 Ni4 2.785818 1_455
Mo2 Ni4 2.785818 1_565
Mo2 Ni0 2.787619 1_545
Mo2 Ni0 2.787619 1_655
Mo2 Si0 2.793165 1_655
Mo2 Si1 2.793165 1_545
Mo2 Mo3 2.839773 1_555
Mo2 Mo3 2.932181 1_545
Mo2 Mo3 2.932181 1_655
Mo3 Ni0 2.705351 1_555
Mo3 Ni2 2.725681 1_555
Mo3 Ni1 2.725681 1_555
Mo3 Ni1 2.744888 1_455
Mo3 Ni2 2.744888 1_565
Mo3 Si1 2.756738 1_555
Mo3 Si0 2.756738 1_555
Mo3 Ni3 2.759902 1_565
Mo3 Ni3 2.759902 1_455
Mo3 Ni4 2.772969 1_565
Mo3 Ni4 2.772969 1_455
Mo3 Ni4 2.840268 1_465
