# generated using pymatgen
data_Nd5Si3
_symmetry_space_group_name_H-M   'P 1'
_cell_length_a   6.70994431
_cell_length_b   8.78471767
_cell_length_c   8.78474282
_cell_angle_alpha   119.99986335
_cell_angle_beta   89.99996136
_cell_angle_gamma   90.00001410
_symmetry_Int_Tables_number   1
_chemical_formula_structural   Nd5Si3
_chemical_formula_sum   'Nd10 Si6'
_cell_volume   448.44274834
_cell_formula_units_Z   2
loop_
 _symmetry_equiv_pos_site_id
 _symmetry_equiv_pos_as_xyz
  1  'x, y, z'
loop_
 _atom_site_type_symbol
 _atom_site_label
 _atom_site_symmetry_multiplicity
 _atom_site_fract_x
 _atom_site_fract_y
 _atom_site_fract_z
 _atom_site_occupancy
  Nd  Nd0  1  0.49999990  0.33332384  0.66666730  1
  Nd  Nd1  1  0.49999674  0.66665604  0.33333413  1
  Nd  Nd2  1  0.00000253  0.66667799  0.33333106  1
  Nd  Nd3  1  0.99999950  0.33334371  0.66666681  1
  Nd  Nd4  1  0.74999479  0.24693952  -0.00001629  1
  Nd  Nd5  1  0.74999873  0.75303715  0.75305520  1
  Nd  Nd6  1  0.74999903  0.00001985  0.24696486  1
  Nd  Nd7  1  0.24999844  0.75304276  -0.00001800  1
  Nd  Nd8  1  0.25000333  0.24694520  0.24696000  1
  Nd  Nd9  1  0.25000508  0.00001457  0.75305355  1
  Si  Si0  1  0.74999465  0.60742437  -0.00001079  1
  Si  Si1  1  0.75000258  0.39256726  0.39257723  1
  Si  Si2  1  0.75000014  0.00001142  0.60743595  1
  Si  Si3  1  0.24999692  0.39256340  -0.00001450  1
  Si  Si4  1  0.25000185  0.60742085  0.60743474  1
  Si  Si5  1  0.25000379  0.00001406  0.39257676  1
loop_
_geom_bond_atom_site_label_1
_geom_bond_atom_site_label_2
_geom_bond_distance
_geom_bond_site_symmetry_2
Nd0 Si2 3.183499 1_555
Nd0 Si5 3.183503 1_555
Nd0 Si3 3.183536 1_556
Nd0 Si0 3.183584 1_556
Nd0 Si4 3.183614 1_555
Nd0 Si1 3.183635 1_555
Nd1 Si1 3.183631 1_555
Nd1 Si4 3.183645 1_555
Nd1 Si3 3.183709 1_555
Nd1 Si0 3.183735 1_555
Nd1 Si2 3.183775 1_565
Nd1 Si5 3.183780 1_565
Nd2 Si5 3.183639 1_565
Nd2 Si2 3.183674 1_465
Nd2 Si0 3.183693 1_455
Nd2 Si3 3.183731 1_555
Nd2 Si1 3.183786 1_455
Nd2 Si4 3.183790 1_555
Nd3 Si4 3.183480 1_655
Nd3 Si1 3.183518 1_555
Nd3 Si0 3.183569 1_556
Nd3 Si3 3.183574 1_656
Nd3 Si5 3.183624 1_655
Nd3 Si2 3.183643 1_555
Nd4 Si2 3.019403 1_554
Nd4 Si1 3.019766 1_555
Nd4 Si0 3.166733 1_555
Nd4 Si3 3.590577 1_555
Nd4 Si3 3.590603 1_655
Nd5 Si0 3.019395 1_556
Nd5 Si2 3.019766 1_565
Nd5 Si1 3.166673 1_555
Nd5 Si4 3.590558 1_555
Nd5 Si4 3.590596 1_655
Nd6 Si1 3.019399 1_555
Nd6 Si0 3.019786 1_545
Nd6 Si2 3.166683 1_555
Nd6 Si5 3.590535 1_555
Nd6 Si5 3.590596 1_655
Nd7 Si4 3.019395 1_554
Nd7 Si5 3.019782 1_565
Nd7 Si3 3.166725 1_555
Nd7 Si0 3.590563 1_555
Nd7 Si0 3.590610 1_455
Nd8 Si5 3.019396 1_555
Nd8 Si3 3.019763 1_555
Nd8 Si4 3.166684 1_555
Nd8 Si1 3.590577 1_555
Nd8 Si1 3.590585 1_455
Nd9 Si3 3.019408 1_556
Nd9 Si4 3.019769 1_545
Nd9 Si5 3.166694 1_555
Nd9 Si2 3.590538 1_555
Nd9 Si2 3.590601 1_455
