# generated using pymatgen
data_CaGaCu3Se4
_symmetry_space_group_name_H-M   'P 1'
_cell_length_a   5.99476700
_cell_length_b   5.99446100
_cell_length_c   5.99436500
_cell_angle_alpha   89.99998088
_cell_angle_beta   90.00013381
_cell_angle_gamma   90.00011469
_symmetry_Int_Tables_number   1
_chemical_formula_structural   CaGaCu3Se4
_chemical_formula_sum   'Ca1 Ga1 Cu3 Se4'
_cell_volume   215.40988595
_cell_formula_units_Z   1
loop_
 _symmetry_equiv_pos_site_id
 _symmetry_equiv_pos_as_xyz
  1  'x, y, z'
loop_
 _atom_site_type_symbol
 _atom_site_label
 _atom_site_symmetry_multiplicity
 _atom_site_fract_x
 _atom_site_fract_y
 _atom_site_fract_z
 _atom_site_occupancy
  Ca  Ca0  1  0.50000100  0.50000100  0.50000000  1
  Ga  Ga0  1  0.00000000  0.00000100  0.00000100  1
  Cu  Cu0  1  0.99999800  0.49999300  0.99999800  1
  Cu  Cu1  1  0.99999600  0.00000200  0.49999600  1
  Cu  Cu2  1  0.50000300  0.99999700  0.99999900  1
  Se  Se0  1  0.23178100  0.23178500  0.23178400  1
  Se  Se1  1  0.76822000  0.76821700  0.23178400  1
  Se  Se2  1  0.23178100  0.76821700  0.76821900  1
  Se  Se3  1  0.76821900  0.23178500  0.76821900  1
loop_
_geom_bond_atom_site_label_1
_geom_bond_atom_site_label_2
_geom_bond_distance
_geom_bond_site_symmetry_2
Ca0 Se0 2.784852 1_555
Ca0 Se1 2.784852 1_555
Ca0 Se3 2.784858 1_555
Ca0 Se2 2.784870 1_555
Ga0 Se3 2.406557 1_454
Ga0 Se1 2.406557 1_445
Ga0 Se0 2.406557 1_555
Ga0 Se2 2.406561 1_544
Cu0 Se3 2.538864 1_555
Cu0 Se0 2.538903 1_656
Cu0 Se2 2.538941 1_655
Cu0 Se1 2.538951 1_556
Cu1 Se1 2.538885 1_545
Cu1 Se0 2.538911 1_655
Cu1 Se3 2.538930 1_555
Cu1 Se2 2.538958 1_645
Cu2 Se2 2.538936 1_555
Cu2 Se1 2.538937 1_556
Cu2 Se3 2.538943 1_565
Cu2 Se0 2.538987 1_566
