# generated using pymatgen
data_MgZnH20PtC4(NO3)4
_symmetry_space_group_name_H-M   'P 1'
_cell_length_a   7.47207032
_cell_length_b   8.64833022
_cell_length_c   9.46868841
_cell_angle_alpha   117.17311110
_cell_angle_beta   113.23899935
_cell_angle_gamma   90.00000000
_symmetry_Int_Tables_number   1
_chemical_formula_structural   MgZnH20PtC4(NO3)4
_chemical_formula_sum   'Mg1 Zn1 H20 Pt1 C4 N4 O12'
_cell_volume   487.87600760
_cell_formula_units_Z   1
loop_
 _symmetry_equiv_pos_site_id
 _symmetry_equiv_pos_as_xyz
  1  'x, y, z'
loop_
 _atom_site_type_symbol
 _atom_site_label
 _atom_site_symmetry_multiplicity
 _atom_site_fract_x
 _atom_site_fract_y
 _atom_site_fract_z
 _atom_site_occupancy
  Mg  Mg0  1  0.50000000  0.50000000  -0.00000000  1
  Zn  Zn0  1  0.00000000  0.50000000  -0.00000000  1
  H  H0  1  0.48292554  0.85705270  0.18745840  1
  H  H1  1  0.70453286  0.33040570  0.18745840  1
  H  H2  1  0.29546714  0.14294730  0.81254160  1
  H  H3  1  0.51707446  0.66959430  0.81254160  1
  H  H4  1  0.66013584  0.04510516  0.32150158  1
  H  H5  1  0.66136574  0.27639742  0.32150158  1
  H  H6  1  0.33863426  0.95489484  0.67849842  1
  H  H7  1  0.33986416  0.72360258  0.67849842  1
  H  H8  1  0.70301211  0.85655669  0.18776415  1
  H  H9  1  0.48475305  0.33120746  0.18776415  1
  H  H10  1  0.51524695  0.14344331  0.81223585  1
  H  H11  1  0.29698789  0.66879254  0.81223585  1
  H  H12  1  0.94756338  0.79176920  0.89547117  1
  H  H13  1  0.94790778  0.10370197  0.89547117  1
  H  H14  1  0.05209222  0.20823080  0.10452883  1
  H  H15  1  0.05243662  0.89629803  0.10452883  1
  H  H16  1  0.92099248  0.81568897  0.63205553  1
  H  H17  1  0.71106405  0.81636656  0.63205553  1
  H  H18  1  0.28893595  0.18431103  0.36794447  1
  H  H19  1  0.07900752  0.18363344  0.36794447  1
  Pt  Pt0  1  0.50000000  0.00000000  -0.00000000  1
  C  C0  1  0.92377266  0.31804377  0.63713640  1
  C  C1  1  0.71336375  0.31909263  0.63713640  1
  C  C2  1  0.28663625  0.68195623  0.36286360  1
  C  C3  1  0.07622734  0.68090737  0.36286360  1
  N  N0  1  0.59789816  0.93272917  0.19701955  1
  N  N1  1  0.59912039  0.26429138  0.19701955  1
  N  N2  1  0.40087961  0.06727083  0.80298045  1
  N  N3  1  0.40210184  0.73570862  0.80298045  1
  O  O0  1  0.07533491  0.39333736  0.78946450  1
  O  O1  1  0.71412959  0.39612614  0.78946450  1
  O  O2  1  0.28587041  0.60666264  0.21053550  1
  O  O3  1  0.92466509  0.60387386  0.21053550  1
  O  O4  1  0.92745144  0.24401575  0.48952689  1
  O  O5  1  0.56207545  0.24551214  0.48952689  1
  O  O6  1  0.43792455  0.75598425  0.51047311  1
  O  O7  1  0.07254856  0.75448786  0.51047311  1
  O  O8  1  0.00000000  0.77487025  -0.00000000  1
  O  O9  1  0.00000000  0.22512975  -0.00000000  1
  O  O10  1  0.85606889  0.85606889  0.71213779  1
  O  O11  1  0.14393111  0.14393111  0.28786221  1
loop_
_geom_bond_atom_site_label_1
_geom_bond_atom_site_label_2
_geom_bond_distance
_geom_bond_site_symmetry_2
H0 N0 1.029110 1_555
H1 N1 1.029110 1_555
H2 N2 1.029116 1_555
H3 N3 1.029104 1_555
H4 N0 1.035012 1_545
H5 N1 1.035012 1_555
H6 N2 1.035012 1_565
H7 N3 1.035012 1_555
H8 N0 1.029622 1_555
H9 N1 1.029605 1_555
H10 N2 1.029610 1_555
H11 N3 1.029617 1_555
H12 O8 0.990241 1_656
H13 O9 0.990241 1_656
H14 O9 0.990241 1_555
H15 O8 0.990241 1_555
H16 O10 0.990298 1_555
H17 O10 0.990292 1_555
H18 O11 0.990292 1_555
H19 O11 0.990298 1_555
C0 O4 1.255844 1_555
C0 O0 1.280651 1_655
C1 O5 1.255843 1_555
C1 O1 1.280651 1_555
C2 O6 1.255843 1_555
C2 O2 1.280651 1_555
C3 O7 1.255844 1_555
C3 O3 1.280651 1_455
N0 Pt0 2.065945 1_565
N1 Pt0 2.065951 1_555
N2 Pt0 2.065945 1_556
N3 Pt0 2.065951 1_566
O0 Zn0 2.085127 1_556
O1 Zn0 2.085126 1_656
O2 Zn0 2.085126 1_555
O3 Zn0 2.085127 1_655
O8 Zn0 2.377169 1_555
O9 Zn0 2.377169 1_555
