# generated using pymatgen
data_Ba3ZrF10
_symmetry_space_group_name_H-M   'P 1'
_cell_length_a   8.65453370
_cell_length_b   8.65453370
_cell_length_c   6.11155844
_cell_angle_alpha   90.00000000
_cell_angle_beta   90.00000000
_cell_angle_gamma   100.79735688
_symmetry_Int_Tables_number   1
_chemical_formula_structural   Ba3ZrF10
_chemical_formula_sum   'Ba6 Zr2 F20'
_cell_volume   449.65729569
_cell_formula_units_Z   2
loop_
 _symmetry_equiv_pos_site_id
 _symmetry_equiv_pos_as_xyz
  1  'x, y, z'
loop_
 _atom_site_type_symbol
 _atom_site_label
 _atom_site_symmetry_multiplicity
 _atom_site_fract_x
 _atom_site_fract_y
 _atom_site_fract_z
 _atom_site_occupancy
  Ba  Ba0  1  0.82549179  0.60166525  0.75000000  1
  Ba  Ba1  1  0.17450821  0.39833475  0.25000000  1
  Ba  Ba2  1  0.39833475  0.17450821  0.75000000  1
  Ba  Ba3  1  0.60166525  0.82549179  0.25000000  1
  Ba  Ba4  1  0.88792436  0.11207564  0.75000000  1
  Ba  Ba5  1  0.11207564  0.88792436  0.25000000  1
  Zr  Zr0  1  0.32106613  0.67893387  0.75000000  1
  Zr  Zr1  1  0.67893387  0.32106613  0.25000000  1
  F  F0  1  0.13852802  0.13852802  0.50000000  1
  F  F1  1  0.86147198  0.86147198  0.50000000  1
  F  F2  1  0.86147198  0.86147198  0.00000000  1
  F  F3  1  0.13852802  0.13852802  0.00000000  1
  F  F4  1  0.11518078  0.65111106  0.54054763  1
  F  F5  1  0.88481922  0.34888894  0.45945237  1
  F  F6  1  0.88481922  0.34888894  0.04054763  1
  F  F7  1  0.34888894  0.88481922  0.95945237  1
  F  F8  1  0.11518078  0.65111106  0.95945237  1
  F  F9  1  0.65111106  0.11518078  0.04054763  1
  F  F10  1  0.65111106  0.11518078  0.45945237  1
  F  F11  1  0.34888894  0.88481922  0.54054763  1
  F  F12  1  0.24324225  0.43258543  0.75000000  1
  F  F13  1  0.75675775  0.56741457  0.25000000  1
  F  F14  1  0.56741457  0.75675775  0.75000000  1
  F  F15  1  0.43258543  0.24324225  0.25000000  1
  F  F16  1  0.60198595  0.39801405  0.54057629  1
  F  F17  1  0.39801405  0.60198595  0.45942371  1
  F  F18  1  0.39801405  0.60198595  0.04057629  1
  F  F19  1  0.60198595  0.39801405  0.95942371  1
loop_
_geom_bond_atom_site_label_1
_geom_bond_atom_site_label_2
_geom_bond_distance
_geom_bond_site_symmetry_2
Ba0 F16 2.684937 1_555
Ba0 F19 2.684937 1_555
Ba0 F2 2.687910 1_556
Ba0 F1 2.687910 1_555
Ba0 F4 2.775864 1_655
Ba0 F8 2.775864 1_655
Ba0 F14 2.813111 1_555
Ba0 F5 2.936572 1_555
Ba0 F6 2.936572 1_556
Ba0 F13 3.116640 1_556
Ba0 F13 3.116640 1_555
Ba1 F17 2.684937 1_555
Ba1 F18 2.684937 1_555
Ba1 F3 2.687910 1_555
Ba1 F0 2.687910 1_555
Ba1 F6 2.775864 1_455
Ba1 F5 2.775864 1_455
Ba1 F15 2.813111 1_555
Ba1 F8 2.936572 1_554
Ba1 F4 2.936572 1_555
Ba1 F12 3.116640 1_555
Ba1 F12 3.116640 1_554
Ba2 F19 2.684937 1_555
Ba2 F16 2.684937 1_555
Ba2 F3 2.687910 1_556
Ba2 F0 2.687910 1_555
Ba2 F7 2.775864 1_545
Ba2 F11 2.775864 1_545
Ba2 F12 2.813111 1_555
Ba2 F10 2.936572 1_555
Ba2 F9 2.936572 1_556
Ba2 F15 3.116640 1_555
Ba2 F15 3.116640 1_556
Ba3 F18 2.684937 1_555
Ba3 F17 2.684937 1_555
Ba3 F2 2.687910 1_555
Ba3 F1 2.687910 1_555
Ba3 F10 2.775864 1_565
Ba3 F9 2.775864 1_565
Ba3 F13 2.813111 1_555
Ba3 F7 2.936572 1_554
Ba3 F11 2.936572 1_555
Ba3 F14 3.116640 1_554
Ba3 F14 3.116640 1_555
Ba4 F2 2.627693 1_546
Ba4 F1 2.627693 1_545
Ba4 F0 2.627693 1_655
Ba4 F3 2.627693 1_656
Ba4 F10 2.715686 1_555
Ba4 F6 2.715686 1_556
Ba4 F5 2.715686 1_555
Ba4 F9 2.715686 1_556
Ba5 F1 2.627693 1_455
Ba5 F2 2.627693 1_455
Ba5 F3 2.627693 1_565
Ba5 F0 2.627693 1_565
Ba5 F7 2.715686 1_554
Ba5 F8 2.715686 1_554
Ba5 F11 2.715686 1_555
Ba5 F4 2.715686 1_555
F4 Zr0 2.170436 1_555
F5 Zr1 2.170436 1_555
F6 Zr1 2.170436 1_555
F7 Zr0 2.170436 1_555
F8 Zr0 2.170436 1_555
F9 Zr1 2.170436 1_555
F10 Zr1 2.170436 1_555
F11 Zr0 2.170436 1_555
F12 Zr0 2.112149 1_555
F13 Zr1 2.112149 1_555
F14 Zr0 2.112149 1_555
F15 Zr1 2.112149 1_555
F16 Zr1 2.051064 1_555
F17 Zr0 2.051064 1_555
F18 Zr0 2.051064 1_554
F19 Zr1 2.051064 1_556
