# generated using pymatgen
data_AlV2O4
_symmetry_space_group_name_H-M   'P 1'
_cell_length_a   6.01230649
_cell_length_b   8.32410117
_cell_length_c   5.95522327
_cell_angle_alpha   90.17725229
_cell_angle_beta   89.16587994
_cell_angle_gamma   90.13028289
_symmetry_Int_Tables_number   1
_chemical_formula_structural   AlV2O4
_chemical_formula_sum   'Al4 V8 O16'
_cell_volume   298.00759245
_cell_formula_units_Z   4
loop_
 _symmetry_equiv_pos_site_id
 _symmetry_equiv_pos_as_xyz
  1  'x, y, z'
loop_
 _atom_site_type_symbol
 _atom_site_label
 _atom_site_symmetry_multiplicity
 _atom_site_fract_x
 _atom_site_fract_y
 _atom_site_fract_z
 _atom_site_occupancy
  Al  Al0  1  0.25190300  0.62954500  0.99745700  1
  Al  Al1  1  0.74990600  0.12722500  0.50264000  1
  Al  Al2  1  0.74806300  0.37046000  0.00236900  1
  Al  Al3  1  0.25014300  0.87278700  0.49745300  1
  V  V0  1  0.50011800  0.49973100  0.49992700  1
  V  V1  1  0.99993200  0.00006200  0.99986100  1
  V  V2  1  0.24848500  0.24722800  0.75613500  1
  V  V3  1  0.75134500  0.75283500  0.24397900  1
  V  V4  1  0.50023300  0.99990200  0.00034700  1
  V  V5  1  0.99992500  0.50008200  0.49994400  1
  V  V6  1  0.24776000  0.25642500  0.25884200  1
  V  V7  1  0.75224000  0.74362100  0.74114800  1
  O  O0  1  0.50117000  0.24560700  0.00499000  1
  O  O1  1  0.00368700  0.75018300  0.49233000  1
  O  O2  1  0.49885500  0.75434500  0.99492700  1
  O  O3  1  0.99624300  0.24994600  0.50768500  1
  O  O4  1  0.00431200  0.75142200  0.99196000  1
  O  O5  1  0.50570600  0.25415400  0.50357000  1
  O  O6  1  0.74528000  0.49613000  0.25206600  1
  O  O7  1  0.25283400  0.99274900  0.75497300  1
  O  O8  1  0.74644200  0.49058600  0.74903100  1
  O  O9  1  0.25093900  0.99933600  0.24993800  1
  O  O10  1  0.25470200  0.50386600  0.74775900  1
  O  O11  1  0.74730100  0.00726200  0.24517000  1
  O  O12  1  0.99562800  0.24859300  0.00802500  1
  O  O13  1  0.49426000  0.74578100  0.49648000  1
  O  O14  1  0.25349800  0.50945500  0.25083800  1
  O  O15  1  0.74909200  0.00067800  0.75015700  1
loop_
_geom_bond_atom_site_label_1
_geom_bond_atom_site_label_2
_geom_bond_distance
_geom_bond_site_symmetry_2
Al0 O4 1.804083 1_555
Al0 O2 1.810069 1_555
Al0 O14 1.812753 1_556
Al0 O10 1.815396 1_555
Al1 O3 1.797831 1_555
Al1 O5 1.810740 1_555
Al1 O15 1.814321 1_555
Al1 O11 1.827444 1_555
Al2 O12 1.803938 1_555
Al2 O0 1.810030 1_555
Al2 O8 1.812708 1_554
Al2 O6 1.815348 1_555
Al3 O1 1.797881 1_555
Al3 O13 1.810707 1_555
Al3 O9 1.814322 1_555
Al3 O7 1.827699 1_555
O0 V4 2.045371 1_545
O0 V6 2.132486 1_555
O0 V2 2.137818 1_554
O1 V5 2.082564 1_455
O1 V7 2.102139 1_455
O1 V3 2.134324 1_455
O2 V4 2.044196 1_556
O2 V7 2.132044 1_555
O2 V3 2.137790 1_556
O3 V5 2.082870 1_555
O3 V6 2.102523 1_655
O3 V2 2.134313 1_655
O4 V1 2.070312 1_465
O4 V3 2.121161 1_456
O4 V7 2.144035 1_455
O5 V0 2.044748 1_555
O5 V2 2.142341 1_555
O5 V6 2.143746 1_555
O6 V0 2.070966 1_555
O6 V3 2.137746 1_555
O6 V5 2.142289 1_555
O7 V1 2.092327 1_465
O7 V4 2.100865 1_556
O7 V2 2.118518 1_565
O8 V7 2.107155 1_555
O8 V5 2.112728 1_555
O8 V0 2.113041 1_555
O9 V4 2.095463 1_555
O9 V1 2.135639 1_464
O9 V6 2.140650 1_565
O10 V0 2.071982 1_555
O10 V2 2.137246 1_555
O10 V5 2.142586 1_455
O11 V1 2.092855 1_554
O11 V4 2.097163 1_545
O11 V3 2.118060 1_545
O12 V1 2.069430 1_554
O12 V2 2.120156 1_654
O12 V6 2.144321 1_655
O13 V0 2.048699 1_555
O13 V3 2.141526 1_555
O13 V7 2.143638 1_555
O14 V6 2.107127 1_555
O14 V5 2.113152 1_455
O14 V0 2.114441 1_555
O15 V4 2.096122 1_546
O15 V1 2.133342 1_555
O15 V7 2.140395 1_545
