# generated using pymatgen
data_BaSr4(FeO3)5
_symmetry_space_group_name_H-M   'P 1'
_cell_length_a   5.57210498
_cell_length_b   7.88474152
_cell_length_c   14.74834056
_cell_angle_alpha   74.45643772
_cell_angle_beta   79.13635231
_cell_angle_gamma   89.97939956
_symmetry_Int_Tables_number   1
_chemical_formula_structural   BaSr4(FeO3)5
_chemical_formula_sum   'Ba2 Sr8 Fe10 O30'
_cell_volume   612.21521013
_cell_formula_units_Z   2
loop_
 _symmetry_equiv_pos_site_id
 _symmetry_equiv_pos_as_xyz
  1  'x, y, z'
loop_
 _atom_site_type_symbol
 _atom_site_label
 _atom_site_symmetry_multiplicity
 _atom_site_fract_x
 _atom_site_fract_y
 _atom_site_fract_z
 _atom_site_occupancy
  Ba  Ba0  1  0.49997800  0.25018800  0.00003300  1
  Ba  Ba1  1  0.50001600  0.74980700  0.99998900  1
  Sr  Sr0  1  0.89939200  0.14959900  0.20124700  1
  Sr  Sr1  1  0.89952300  0.64919100  0.20118000  1
  Sr  Sr2  1  0.10059100  0.85039200  0.79877300  1
  Sr  Sr3  1  0.10047600  0.35080900  0.79883800  1
  Sr  Sr4  1  0.29988700  0.04987100  0.40048900  1
  Sr  Sr5  1  0.29964200  0.54966800  0.40047000  1
  Sr  Sr6  1  0.70011600  0.95014400  0.59948700  1
  Sr  Sr7  1  0.70034700  0.45032800  0.59951300  1
  Fe  Fe0  1  0.00000800  0.49998500  0.99998400  1
  Fe  Fe1  1  0.00000000  0.00000300  0.99998000  1
  Fe  Fe2  1  0.60148800  0.10156000  0.79693500  1
  Fe  Fe3  1  0.60067900  0.60069600  0.79845600  1
  Fe  Fe4  1  0.39932600  0.39931300  0.20154100  1
  Fe  Fe5  1  0.39851700  0.89842700  0.20308100  1
  Fe  Fe6  1  0.79960300  0.29969200  0.40071500  1
  Fe  Fe7  1  0.79956500  0.79958600  0.40084200  1
  Fe  Fe8  1  0.20042500  0.20040400  0.59915400  1
  Fe  Fe9  1  0.20040700  0.70030400  0.59927700  1
  O  O0  1  0.99990000  0.24320800  0.99992800  1
  O  O1  1  0.00009900  0.75680100  0.00007200  1
  O  O2  1  0.99941700  0.25016500  0.50015800  1
  O  O3  1  0.00059200  0.74983900  0.49983500  1
  O  O4  1  0.50024400  0.24981800  0.50014000  1
  O  O5  1  0.49975800  0.75018600  0.49985300  1
  O  O6  1  0.60330000  0.85774800  0.79252200  1
  O  O7  1  0.60396100  0.34989600  0.79255200  1
  O  O8  1  0.39670500  0.14225000  0.20747900  1
  O  O9  1  0.39604000  0.65010900  0.20745200  1
  O  O10  1  0.79916500  0.04952200  0.40091700  1
  O  O11  1  0.79945700  0.54954000  0.40089500  1
  O  O12  1  0.20082900  0.95048000  0.59908700  1
  O  O13  1  0.20053700  0.45045700  0.59910400  1
  O  O14  1  0.80646800  0.05301900  0.89445800  1
  O  O15  1  0.80537700  0.55325300  0.89340200  1
  O  O16  1  0.19462100  0.44674900  0.10659600  1
  O  O17  1  0.19352700  0.94697700  0.10555000  1
  O  O18  1  0.29979300  0.05291600  0.89453300  1
  O  O19  1  0.30066000  0.55345000  0.89366400  1
  O  O20  1  0.69934800  0.44655500  0.10633800  1
  O  O21  1  0.70021700  0.94708400  0.10547600  1
  O  O22  1  0.40067100  0.15122200  0.69735300  1
  O  O23  1  0.40177100  0.65195100  0.69622000  1
  O  O24  1  0.59824300  0.34805300  0.30378000  1
  O  O25  1  0.59932200  0.84877100  0.30265200  1
  O  O26  1  0.90191900  0.15139300  0.69735500  1
  O  O27  1  0.90181000  0.65209400  0.69601500  1
  O  O28  1  0.09818600  0.34791100  0.30398400  1
  O  O29  1  0.09807700  0.84861300  0.30264700  1
loop_
_geom_bond_atom_site_label_1
_geom_bond_atom_site_label_2
_geom_bond_distance
_geom_bond_site_symmetry_2
Ba0 O0 2.785859 1_554
Ba0 O0 2.787351 1_454
Ba0 O21 2.834633 1_545
Ba0 O18 2.834987 1_554
Ba0 O20 2.836931 1_555
Ba0 O14 2.837414 1_554
Ba0 O19 2.838400 1_554
Ba0 O15 2.838883 1_554
Ba0 O17 2.839107 1_545
Ba0 O16 2.839468 1_555
Ba0 O8 2.890867 1_555
Ba0 O7 2.891381 1_554
Ba1 O1 2.785892 1_556
Ba1 O1 2.787318 1_656
Ba1 O18 2.834693 1_565
Ba1 O21 2.834911 1_556
Ba1 O19 2.837065 1_555
Ba1 O17 2.837296 1_556
Ba1 O20 2.838266 1_556
Ba1 O16 2.838757 1_556
Ba1 O14 2.839159 1_565
Ba1 O15 2.839648 1_555
Ba1 O9 2.891130 1_556
Ba1 O6 2.891159 1_555
Fe0 O19 2.024606 1_555
Fe0 O0 2.024842 1_455
Fe0 O20 2.024919 1_456
Fe0 O1 2.025276 1_556
Fe0 O15 2.027777 1_455
Fe0 O16 2.028072 1_556
Fe1 O1 1.917222 1_546
Fe1 O0 1.917403 1_455
Fe1 O14 2.010786 1_455
Fe1 O17 2.011348 1_546
Fe1 O18 2.014105 1_555
Fe1 O21 2.014472 1_446
Fe2 O6 1.940807 1_545
Fe2 O7 1.941709 1_555
Fe2 O18 1.958951 1_555
Fe2 O14 1.960522 1_555
Fe2 O22 1.968086 1_555
Fe2 O26 1.969300 1_555
Fe3 O15 1.929438 1_555
Fe3 O19 1.934015 1_555
Fe3 O23 1.992050 1_555
Fe3 O27 1.994762 1_555
Fe3 O7 2.002512 1_555
Fe3 O6 2.005049 1_555
Fe4 O16 1.929455 1_555
Fe4 O20 1.933990 1_555
Fe4 O24 1.992120 1_555
Fe4 O28 1.994813 1_555
Fe4 O9 2.002512 1_555
Fe4 O8 2.005122 1_555
Fe5 O8 1.940828 1_565
Fe5 O9 1.941610 1_555
Fe5 O21 1.959025 1_555
Fe5 O17 1.960656 1_555
Fe5 O25 1.967909 1_555
Fe5 O29 1.969225 1_555
Fe6 O24 1.939147 1_555
Fe6 O28 1.939817 1_655
Fe6 O2 1.962486 1_555
Fe6 O4 1.963846 1_555
Fe6 O11 1.970700 1_555
Fe6 O10 1.971731 1_555
Fe7 O25 1.949417 1_555
Fe7 O29 1.950864 1_655
Fe7 O3 1.961975 1_655
Fe7 O5 1.962372 1_555
Fe7 O10 1.970978 1_565
Fe7 O11 1.971339 1_555
Fe8 O22 1.949535 1_555
Fe8 O26 1.950887 1_455
Fe8 O2 1.961935 1_455
Fe8 O4 1.962443 1_555
Fe8 O12 1.970851 1_545
Fe8 O13 1.971406 1_555
Fe9 O23 1.939257 1_555
Fe9 O27 1.939927 1_455
Fe9 O3 1.962478 1_555
Fe9 O5 1.963807 1_555
Fe9 O13 1.970664 1_555
Fe9 O12 1.971826 1_555
O0 Sr3 2.802646 1_655
O0 Sr0 2.805905 1_556
O1 Sr1 2.802896 1_455
O1 Sr2 2.805627 1_554
O2 Sr7 2.780670 1_555
O2 Sr6 2.783529 1_545
O2 Sr5 2.784204 1_655
O2 Sr4 2.787926 1_655
O3 Sr5 2.780742 1_555
O3 Sr4 2.783620 1_565
O3 Sr7 2.784277 1_455
O3 Sr6 2.787862 1_455
O4 Sr6 2.779925 1_545
O4 Sr7 2.783822 1_555
O4 Sr4 2.784480 1_555
O4 Sr5 2.784730 1_555
O5 Sr4 2.780078 1_565
O5 Sr5 2.784015 1_555
O5 Sr6 2.784354 1_555
O5 Sr7 2.784683 1_555
O6 Sr6 2.690102 1_555
O6 Sr2 2.785354 1_555
O6 Sr2 2.789871 1_655
O7 Sr7 2.690097 1_555
O7 Sr3 2.785671 1_655
O7 Sr3 2.789555 1_555
O8 Sr4 2.689755 1_555
O8 Sr0 2.785276 1_555
O8 Sr0 2.789933 1_455
O9 Sr5 2.689806 1_555
O9 Sr1 2.785637 1_455
O9 Sr1 2.789577 1_555
O10 Sr6 2.767012 1_545
O10 Sr0 2.782343 1_555
O10 Sr4 2.783225 1_555
O10 Sr4 2.788893 1_655
O11 Sr7 2.767682 1_555
O11 Sr1 2.782971 1_555
O11 Sr5 2.785909 1_655
O11 Sr5 2.786209 1_555
O12 Sr4 2.767402 1_565
O12 Sr2 2.782566 1_555
O12 Sr6 2.783196 1_555
O12 Sr6 2.788920 1_455
O13 Sr5 2.767905 1_555
O13 Sr3 2.783235 1_555
O13 Sr7 2.785981 1_455
O13 Sr7 2.786136 1_555
O14 Sr3 2.746448 1_655
O14 Sr2 2.750382 1_645
O15 Sr3 2.742913 1_655
O15 Sr2 2.743662 1_655
O16 Sr1 2.743062 1_455
O16 Sr0 2.743820 1_455
O17 Sr1 2.746440 1_455
O17 Sr0 2.750485 1_465
O18 Sr3 2.748562 1_555
O18 Sr2 2.752711 1_545
O19 Sr2 2.741025 1_555
O19 Sr3 2.745880 1_555
O20 Sr0 2.741129 1_555
O20 Sr1 2.746001 1_555
O21 Sr1 2.748579 1_555
O21 Sr0 2.752706 1_565
O22 Sr6 2.774472 1_545
O22 Sr7 2.775455 1_555
O22 Sr2 2.796073 1_545
O22 Sr3 2.798473 1_555
O23 Sr6 2.763705 1_555
O23 Sr7 2.765550 1_555
O23 Sr2 2.803888 1_555
O23 Sr3 2.804659 1_555
O24 Sr4 2.763613 1_555
O24 Sr5 2.765436 1_555
O24 Sr0 2.803704 1_555
O24 Sr1 2.804543 1_555
O25 Sr4 2.774328 1_565
O25 Sr5 2.775392 1_555
O25 Sr0 2.795991 1_565
O25 Sr1 2.798340 1_555
O26 Sr7 2.772284 1_555
O26 Sr6 2.776024 1_545
O26 Sr2 2.795553 1_645
O26 Sr3 2.796992 1_655
O27 Sr6 2.760553 1_555
O27 Sr7 2.762911 1_555
O27 Sr3 2.805092 1_655
O27 Sr2 2.805738 1_655
O28 Sr4 2.760393 1_555
O28 Sr5 2.762665 1_555
O28 Sr1 2.804948 1_455
O28 Sr0 2.805615 1_455
O29 Sr5 2.772217 1_555
O29 Sr4 2.775807 1_565
O29 Sr0 2.795404 1_465
O29 Sr1 2.796838 1_455
