# generated using pymatgen
data_Hf4USi4
_symmetry_space_group_name_H-M   'P 1'
_cell_length_a   7.16844700
_cell_length_b   7.16844700
_cell_length_c   13.07887200
_cell_angle_alpha   90.00000000
_cell_angle_beta   90.00000000
_cell_angle_gamma   90.00000000
_symmetry_Int_Tables_number   1
_chemical_formula_structural   Hf4USi4
_chemical_formula_sum   'Hf16 U4 Si16'
_cell_volume   672.07918756
_cell_formula_units_Z   4
loop_
 _symmetry_equiv_pos_site_id
 _symmetry_equiv_pos_as_xyz
  1  'x, y, z'
loop_
 _atom_site_type_symbol
 _atom_site_label
 _atom_site_symmetry_multiplicity
 _atom_site_fract_x
 _atom_site_fract_y
 _atom_site_fract_z
 _atom_site_occupancy
  Hf  Hf0  1  0.64770600  0.00217600  0.37322800  1
  Hf  Hf1  1  0.35229400  0.99782400  0.87322800  1
  Hf  Hf2  1  0.00217600  0.35229400  0.12322800  1
  Hf  Hf3  1  0.99782400  0.64770600  0.62322800  1
  Hf  Hf4  1  0.50401600  0.85173600  0.12599100  1
  Hf  Hf5  1  0.49598400  0.14826400  0.62599100  1
  Hf  Hf6  1  0.85173600  0.49598400  0.87599100  1
  Hf  Hf7  1  0.14826400  0.50401600  0.37599100  1
  Hf  Hf8  1  0.67605700  0.82524300  0.75156400  1
  Hf  Hf9  1  0.32394300  0.17475700  0.25156400  1
  Hf  Hf10  1  0.82524300  0.32394300  0.50156400  1
  Hf  Hf11  1  0.17475700  0.67605700  0.00156400  1
  Hf  Hf12  1  0.65098400  0.50005900  0.28549800  1
  Hf  Hf13  1  0.34901600  0.49994100  0.78549800  1
  Hf  Hf14  1  0.50005900  0.34901600  0.03549800  1
  Hf  Hf15  1  0.49994100  0.65098400  0.53549800  1
  U  U0  1  0.99633400  0.84852800  0.21528400  1
  U  U1  1  0.00366600  0.15147200  0.71528400  1
  U  U2  1  0.84852800  0.00366600  0.96528400  1
  U  U3  1  0.15147200  0.99633400  0.46528400  1
  Si  Si0  1  0.85012100  0.70000700  0.42952100  1
  Si  Si1  1  0.14987900  0.29999300  0.92952100  1
  Si  Si2  1  0.70000700  0.14987900  0.17952100  1
  Si  Si3  1  0.29999300  0.85012100  0.67952100  1
  Si  Si4  1  0.79134500  0.63630400  0.06956200  1
  Si  Si5  1  0.20865500  0.36369600  0.56956200  1
  Si  Si6  1  0.63630400  0.20865500  0.81956200  1
  Si  Si7  1  0.36369600  0.79134500  0.31956200  1
  Si  Si8  1  0.79096800  0.94807700  0.56361600  1
  Si  Si9  1  0.20903200  0.05192300  0.06361600  1
  Si  Si10  1  0.94807700  0.20903200  0.31361600  1
  Si  Si11  1  0.05192300  0.79096800  0.81361600  1
  Si  Si12  1  0.54632300  0.69691200  0.93573700  1
  Si  Si13  1  0.45367700  0.30308800  0.43573700  1
  Si  Si14  1  0.69691200  0.45367700  0.68573700  1
  Si  Si15  1  0.30308800  0.54632300  0.18573700  1
loop_
_geom_bond_atom_site_label_1
_geom_bond_atom_site_label_2
_geom_bond_distance
_geom_bond_site_symmetry_2
Hf0 Si7 2.630913 1_545
Hf0 Si13 2.693679 1_555
Hf0 Si0 2.709129 1_545
Hf0 Si8 2.721296 1_545
Hf0 Si10 2.728170 1_555
Hf0 Si2 2.771297 1_555
Hf1 Si6 2.630913 1_565
Hf1 Si12 2.693679 1_555
Hf1 Si1 2.709129 1_565
Hf1 Si9 2.721296 1_566
Hf1 Si11 2.728170 1_555
Hf1 Si3 2.771297 1_555
Hf2 Si4 2.630913 1_455
Hf2 Si15 2.693679 1_555
Hf2 Si2 2.709129 1_455
Hf2 Si10 2.721296 1_455
Hf2 Si9 2.728170 1_555
Hf2 Si1 2.771297 1_554
Hf3 Si5 2.630913 1_655
Hf3 Si14 2.693679 1_555
Hf3 Si3 2.709129 1_655
Hf3 Si11 2.721296 1_655
Hf3 Si8 2.728170 1_555
Hf3 Si0 2.771297 1_555
Hf4 Si2 2.651747 1_565
Hf4 Si4 2.678052 1_555
Hf4 Si9 2.682586 1_565
Hf4 Si15 2.734663 1_555
Hf4 Si12 2.741425 1_554
Hf4 Si7 2.758379 1_555
Hf5 Si3 2.651747 1_545
Hf5 Si5 2.678052 1_555
Hf5 Si8 2.682586 1_545
Hf5 Si14 2.734663 1_555
Hf5 Si13 2.741425 1_555
Hf5 Si6 2.758379 1_555
Hf6 Si1 2.651747 1_655
Hf6 Si6 2.678052 1_555
Hf6 Si11 2.682586 1_655
Hf6 Si12 2.734663 1_555
Hf6 Si14 2.741425 1_555
Hf6 Si4 2.758379 1_556
Hf7 Si0 2.651747 1_455
Hf7 Si7 2.678052 1_555
Hf7 Si10 2.682586 1_455
Hf7 Si13 2.734663 1_555
Hf7 Si15 2.741425 1_555
Hf7 Si5 2.758379 1_555
Hf8 Si8 2.737948 1_555
Hf8 Si12 2.741051 1_555
Hf8 Si14 2.803226 1_555
Hf8 Si11 2.824655 1_655
Hf8 Si3 2.861282 1_555
Hf8 Si6 2.902793 1_565
Hf9 Si9 2.737948 1_555
Hf9 Si13 2.741051 1_555
Hf9 Si15 2.803226 1_555
Hf9 Si10 2.824655 1_455
Hf9 Si2 2.861282 1_555
Hf9 Si7 2.902793 1_545
Hf10 Si10 2.737948 1_555
Hf10 Si14 2.741051 1_555
Hf10 Si13 2.803226 1_555
Hf10 Si8 2.824655 1_545
Hf10 Si0 2.861282 1_555
Hf10 Si5 2.902793 1_655
Hf11 Si11 2.737948 1_554
Hf11 Si15 2.741051 1_555
Hf11 Si12 2.803226 1_554
Hf11 Si9 2.824655 1_565
Hf11 Si1 2.861282 1_554
Hf11 Si4 2.902793 1_455
Hf12 Si0 2.764115 1_555
Hf12 Si13 2.802716 1_555
Hf12 Si15 2.834042 1_555
Hf12 Si2 2.888944 1_555
Hf12 Si7 2.966426 1_555
Hf12 Si10 3.003851 1_555
Hf12 Si4 3.153150 1_555
Hf13 Si1 2.764115 1_555
Hf13 Si12 2.802716 1_555
Hf13 Si14 2.834042 1_555
Hf13 Si3 2.888944 1_555
Hf13 Si6 2.966426 1_555
Hf13 Si11 3.003851 1_555
Hf13 Si5 3.153150 1_555
Hf14 Si2 2.764115 1_555
Hf14 Si15 2.802716 1_555
Hf14 Si12 2.834042 1_554
Hf14 Si1 2.888944 1_554
Hf14 Si4 2.966426 1_555
Hf14 Si9 3.003851 1_555
Hf14 Si6 3.153150 1_554
Hf15 Si3 2.764115 1_555
Hf15 Si14 2.802716 1_555
Hf15 Si13 2.834042 1_555
Hf15 Si0 2.888944 1_555
Hf15 Si5 2.966426 1_555
Hf15 Si8 3.003851 1_555
Hf15 Si7 3.153150 1_555
Si0 Si8 2.533363 1_555
Si0 U3 3.065546 1_655
Si0 U0 3.175398 1_555
Si1 Si9 2.533363 1_556
Si1 U2 3.065546 1_455
Si1 U1 3.175398 1_555
Si2 U0 3.065546 1_545
Si2 U2 3.175398 1_554
Si3 U1 3.065546 1_565
Si3 U3 3.175398 1_555
Si4 U0 2.847116 1_555
Si4 U2 2.993820 1_564
Si5 U1 2.847116 1_555
Si5 U3 2.993820 1_545
Si6 U2 2.847116 1_555
Si6 U1 2.993820 1_655
Si7 U3 2.847116 1_555
Si7 U0 2.993820 1_455
Si8 U1 2.895764 1_665
Si8 U3 2.907235 1_655
Si9 U0 2.895764 1_445
Si9 U2 2.907235 1_454
Si10 Si2 2.533363 1_555
Si10 U3 2.895764 1_645
Si10 U0 2.907235 1_545
Si11 Si3 2.533363 1_555
Si11 U2 2.895764 1_465
Si11 U1 2.907235 1_565
Si12 Si4 2.517395 1_556
Si12 U2 3.110908 1_565
Si13 Si5 2.517395 1_555
Si13 U3 3.110908 1_545
Si14 Si6 2.517395 1_555
Si14 U1 3.110908 1_655
Si15 Si7 2.517395 1_555
Si15 U0 3.110908 1_455
