# generated using pymatgen
data_ZrGaAu
_symmetry_space_group_name_H-M   'P 1'
_cell_length_a   4.34231999
_cell_length_b   4.34232098
_cell_length_c   6.80671703
_cell_angle_alpha   90.00000000
_cell_angle_beta   90.00000000
_cell_angle_gamma   120.00000018
_symmetry_Int_Tables_number   1
_chemical_formula_structural   ZrGaAu
_chemical_formula_sum   'Zr2 Ga2 Au2'
_cell_volume   111.15066715
_cell_formula_units_Z   2
loop_
 _symmetry_equiv_pos_site_id
 _symmetry_equiv_pos_as_xyz
  1  'x, y, z'
loop_
 _atom_site_type_symbol
 _atom_site_label
 _atom_site_symmetry_multiplicity
 _atom_site_fract_x
 _atom_site_fract_y
 _atom_site_fract_z
 _atom_site_occupancy
  Zr  Zr0  1  -0.00000000  0.00000000  0.50000000  1
  Zr  Zr1  1  -0.00000000  0.00000000  0.00000000  1
  Ga  Ga0  1  0.66666700  0.33333300  0.21150231  1
  Ga  Ga1  1  0.66666700  0.33333300  0.78849769  1
  Au  Au0  1  0.33333300  0.66666700  0.71137224  1
  Au  Au1  1  0.33333300  0.66666700  0.28862776  1
loop_
_geom_bond_atom_site_label_1
_geom_bond_atom_site_label_2
_geom_bond_distance
_geom_bond_site_symmetry_2
Zr0 Zr1 3.403359 1_555
Zr0 Zr1 3.403359 1_556
Ga0 Ga1 2.879273 1_554
Ga0 Zr1 2.890984 1_655
Ga0 Zr1 2.890987 1_555
Ga0 Zr1 2.890988 1_665
Ga0 Zr0 3.184563 1_655
Ga0 Zr0 3.184566 1_555
Ga0 Zr0 3.184566 1_665
Ga1 Zr1 2.890984 1_656
Ga1 Zr1 2.890987 1_556
Ga1 Zr1 2.890988 1_666
Ga1 Zr0 3.184563 1_655
Ga1 Zr0 3.184566 1_555
Ga1 Zr0 3.184566 1_665
Au0 Ga1 2.561412 1_455
Au0 Ga1 2.561412 1_565
Au0 Ga1 2.561419 1_555
Au0 Au1 2.877502 1_555
Au0 Zr0 2.890543 1_565
Au0 Zr0 2.890546 1_665
Au0 Zr0 2.890547 1_555
Au0 Zr1 3.185109 1_566
Au0 Zr1 3.185112 1_666
Au0 Zr1 3.185112 1_556
Au1 Ga0 2.561412 1_455
Au1 Ga0 2.561412 1_565
Au1 Ga0 2.561419 1_555
Au1 Zr0 2.890543 1_565
Au1 Zr0 2.890546 1_665
Au1 Zr0 2.890547 1_555
Au1 Zr1 3.185109 1_565
Au1 Zr1 3.185112 1_665
Au1 Zr1 3.185112 1_555
