# generated using pymatgen
data_SmEr(TiFe11)2
_symmetry_space_group_name_H-M   'P 1'
_cell_length_a   6.45743956
_cell_length_b   6.45743956
_cell_length_c   12.02359737
_cell_angle_alpha   89.95452239
_cell_angle_beta   89.95452239
_cell_angle_gamma   42.73627539
_symmetry_Int_Tables_number   1
_chemical_formula_structural   SmEr(TiFe11)2
_chemical_formula_sum   'Sm1 Er1 Ti2 Fe22'
_cell_volume   340.23948371
_cell_formula_units_Z   1
loop_
 _symmetry_equiv_pos_site_id
 _symmetry_equiv_pos_as_xyz
  1  'x, y, z'
loop_
 _atom_site_type_symbol
 _atom_site_label
 _atom_site_symmetry_multiplicity
 _atom_site_fract_x
 _atom_site_fract_y
 _atom_site_fract_z
 _atom_site_occupancy
  Sm  Sm0  1  0.49732700  0.49732700  0.49792700  1
  Er  Er0  1  0.99712100  0.99712100  0.99673800  1
  Ti  Ti0  1  0.68388100  0.68388100  0.68539000  1
  Ti  Ti1  1  0.18424200  0.18424200  0.18270700  1
  Fe  Fe0  1  0.60990200  0.60990200  0.89077300  1
  Fe  Fe1  1  0.11243200  0.11243200  0.38853300  1
  Fe  Fe2  1  0.88868300  0.88868300  0.61377600  1
  Fe  Fe3  1  0.39055500  0.39055500  0.10891800  1
  Fe  Fe4  1  0.11368500  0.11368500  0.61501600  1
  Fe  Fe5  1  0.61211500  0.61211500  0.11095100  1
  Fe  Fe6  1  0.38490400  0.38490400  0.88511300  1
  Fe  Fe7  1  0.88361600  0.88361600  0.38312900  1
  Fe  Fe8  1  0.74976100  0.24799300  0.75158300  1
  Fe  Fe9  1  0.24895800  0.74897100  0.24851000  1
  Fe  Fe10  1  0.24799300  0.74976100  0.75158300  1
  Fe  Fe11  1  0.74897100  0.24895800  0.24851000  1
  Fe  Fe12  1  0.49983000  0.00093700  0.49981000  1
  Fe  Fe13  1  0.99941800  0.50038400  0.99803300  1
  Fe  Fe14  1  0.00093700  0.49983000  0.49981000  1
  Fe  Fe15  1  0.50038400  0.99941800  0.99803300  1
  Fe  Fe16  1  0.32124500  0.32124500  0.67965900  1
  Fe  Fe17  1  0.82160900  0.82160900  0.17634700  1
  Fe  Fe18  1  0.17761500  0.17761500  0.82202600  1
  Fe  Fe19  1  0.67859600  0.67859600  0.32091600  1
  Fe  Fe20  1  0.82340600  0.82340600  0.82365800  1
  Fe  Fe21  1  0.32281400  0.32281400  0.32255100  1
loop_
_geom_bond_atom_site_label_1
_geom_bond_atom_site_label_2
_geom_bond_distance
_geom_bond_site_symmetry_2
Sm0 Ti0 3.181705 1_555
Er0 Fe20 2.950131 1_555
Er0 Fe3 2.999137 1_566
Er0 Fe3 2.999137 1_656
Er0 Fe0 2.999337 1_565
Er0 Fe0 2.999337 1_655
Er0 Fe17 3.018570 1_556
Er0 Fe18 3.019516 1_665
Er0 Fe6 3.026837 1_565
Er0 Fe6 3.026837 1_655
Er0 Fe5 3.055758 1_566
Er0 Fe5 3.055758 1_656
Er0 Fe10 3.172243 1_655
Er0 Fe8 3.172243 1_565
Er0 Ti1 3.173830 1_666
Er0 Fe13 3.196796 1_555
Er0 Fe15 3.196796 1_555
Er0 Fe11 3.247838 1_566
Er0 Fe9 3.247838 1_656
Er0 Fe13 3.260750 1_565
Er0 Fe15 3.260750 1_655
Fe0 Fe15 2.425000 1_555
Fe0 Fe13 2.425000 1_555
Fe0 Fe10 2.445696 1_555
Fe0 Fe8 2.445696 1_555
Fe0 Fe18 2.623189 1_565
Fe0 Fe18 2.623189 1_655
Fe0 Ti0 2.624130 1_555
Fe0 Fe5 2.647488 1_556
Fe0 Fe20 2.690989 1_555
Fe0 Fe6 2.706985 1_555
Fe1 Fe14 2.434033 1_555
Fe1 Fe12 2.434033 1_555
Fe1 Fe11 2.466698 1_455
Fe1 Fe9 2.466698 1_545
Fe1 Fe19 2.613215 1_545
Fe1 Fe19 2.613215 1_455
Fe1 Ti1 2.620450 1_555
Fe1 Fe21 2.651095 1_555
Fe1 Fe4 2.723195 1_555
Fe1 Fe7 2.752813 1_445
Fe1 Sm0 3.029724 1_545
Fe1 Sm0 3.029724 1_455
Fe2 Fe8 2.424833 1_565
Fe2 Ti0 2.608644 1_555
Fe2 Fe20 2.642202 1_555
Fe2 Fe4 2.706174 1_665
Fe2 Fe7 2.773928 1_555
Fe2 Sm0 3.029902 1_565
Fe2 Sm0 3.029902 1_655
Fe3 Fe9 2.429979 1_555
Fe3 Ti1 2.634476 1_555
Fe3 Fe5 2.664855 1_555
Fe3 Fe6 2.691857 1_554
Fe4 Fe8 2.444011 1_455
Fe4 Ti0 2.639269 1_545
Fe4 Ti0 2.639269 1_455
Fe4 Sm0 3.078895 1_545
Fe4 Sm0 3.078895 1_455
Fe5 Fe9 2.442891 1_555
Fe5 Ti1 2.652159 1_565
Fe5 Ti1 2.652159 1_655
Fe6 Fe8 2.417987 1_555
Fe7 Fe9 2.434040 1_655
Fe7 Sm0 3.051976 1_565
Fe7 Sm0 3.051976 1_655
Fe8 Ti0 2.641032 1_555
Fe8 Sm0 3.270448 1_555
Fe9 Ti1 2.640529 1_565
Fe9 Sm0 3.221435 1_555
Fe10 Fe8 2.344506 1_465
Fe10 Fe8 2.361146 1_555
Fe10 Fe6 2.417987 1_555
Fe10 Fe2 2.424833 1_455
Fe10 Fe4 2.444011 1_565
Fe10 Fe20 2.564346 1_455
Fe10 Fe16 2.590163 1_555
Fe10 Fe18 2.591497 1_565
Fe10 Ti0 2.641032 1_555
Fe10 Sm0 3.270448 1_555
Fe11 Fe9 2.352765 1_645
Fe11 Fe9 2.352887 1_555
Fe11 Fe3 2.429979 1_555
Fe11 Fe7 2.434040 1_545
Fe11 Fe5 2.442891 1_555
Fe11 Fe21 2.581028 1_555
Fe11 Fe17 2.586475 1_545
Fe11 Fe19 2.610107 1_555
Fe11 Ti1 2.640529 1_655
Fe11 Sm0 3.221435 1_555
Fe12 Fe14 2.347617 1_555
Fe12 Fe14 2.358035 1_645
Fe12 Fe7 2.433544 1_545
Fe12 Fe4 2.448615 1_555
Fe12 Fe2 2.457304 1_545
Fe12 Fe21 2.583781 1_555
Fe12 Fe19 2.601016 1_545
Fe12 Fe16 2.604501 1_555
Fe12 Ti0 2.646818 1_545
Fe12 Sm0 3.193618 1_555
Fe12 Sm0 3.264018 1_545
Fe13 Fe15 2.348280 1_555
Fe13 Fe15 2.357372 1_645
Fe13 Fe6 2.421835 1_655
Fe13 Fe5 2.442184 1_556
Fe13 Fe3 2.456089 1_656
Fe13 Fe20 2.559841 1_555
Fe13 Fe18 2.574245 1_655
Fe13 Fe17 2.592719 1_556
Fe13 Ti1 2.634444 1_656
Fe14 Fe7 2.433544 1_455
Fe14 Fe4 2.448615 1_555
Fe14 Fe2 2.457304 1_455
Fe14 Fe21 2.583781 1_555
Fe14 Fe19 2.601016 1_455
Fe14 Fe16 2.604501 1_555
Fe14 Ti0 2.646818 1_455
Fe14 Sm0 3.193618 1_555
Fe14 Sm0 3.264018 1_455
Fe15 Fe6 2.421835 1_565
Fe15 Fe5 2.442184 1_556
Fe15 Fe3 2.456089 1_566
Fe15 Fe20 2.559841 1_555
Fe15 Fe18 2.574245 1_565
Fe15 Fe17 2.592719 1_556
Fe15 Ti1 2.634444 1_566
Fe16 Fe18 2.430881 1_555
Fe16 Fe6 2.586848 1_555
Fe16 Fe8 2.590163 1_555
Fe16 Fe2 2.611523 1_455
Fe16 Fe2 2.611523 1_545
Fe16 Fe4 2.615175 1_555
Fe16 Ti0 2.875716 1_455
Fe16 Ti0 2.875716 1_545
Fe16 Fe20 2.921342 1_545
Fe16 Fe20 2.921342 1_455
Fe16 Sm0 3.041634 1_555
Fe17 Fe19 2.444358 1_555
Fe17 Fe9 2.586475 1_655
Fe17 Fe7 2.596311 1_555
Fe17 Fe3 2.622889 1_565
Fe17 Fe3 2.622889 1_655
Fe17 Fe5 2.640083 1_555
Fe17 Ti1 2.875924 1_565
Fe17 Ti1 2.875924 1_655
Fe17 Fe21 2.937048 1_655
Fe17 Fe21 2.937048 1_565
Fe18 Fe8 2.591497 1_455
Fe18 Fe4 2.605687 1_555
Fe18 Fe6 2.606542 1_555
Fe18 Ti0 2.870581 1_545
Fe18 Ti0 2.870581 1_455
Fe18 Fe20 2.934415 1_545
Fe18 Fe20 2.934415 1_455
Fe19 Fe7 2.577368 1_555
Fe19 Fe9 2.610107 1_555
Fe19 Fe5 2.648780 1_555
Fe19 Ti1 2.881265 1_655
Fe19 Ti1 2.881265 1_565
Fe19 Fe21 2.923150 1_565
Fe19 Fe21 2.923150 1_655
Fe19 Sm0 3.045455 1_555
Fe20 Ti0 2.363164 1_555
Fe20 Fe8 2.564346 1_565
Fe20 Fe6 2.574836 1_655
Fe20 Fe6 2.574836 1_565
Fe21 Ti1 2.368458 1_555
Fe21 Fe7 2.569430 1_455
Fe21 Fe7 2.569430 1_545
Fe21 Fe9 2.581028 1_555
Fe21 Fe3 2.694088 1_555
Fe21 Sm0 2.976452 1_555
