# generated using pymatgen
data_Ru(IN3)2
_symmetry_space_group_name_H-M   'P 1'
_cell_length_a   5.48041838
_cell_length_b   5.48041838
_cell_length_c   5.48041838
_cell_angle_alpha   60.00000000
_cell_angle_beta   60.00000000
_cell_angle_gamma   60.00000000
_symmetry_Int_Tables_number   1
_chemical_formula_structural   Ru(IN3)2
_chemical_formula_sum   'Ru1 I2 N6'
_cell_volume   116.39280769
_cell_formula_units_Z   1
loop_
 _symmetry_equiv_pos_site_id
 _symmetry_equiv_pos_as_xyz
  1  'x, y, z'
loop_
 _atom_site_type_symbol
 _atom_site_label
 _atom_site_symmetry_multiplicity
 _atom_site_fract_x
 _atom_site_fract_y
 _atom_site_fract_z
 _atom_site_occupancy
  Ru  Ru0  1  0.00000000  0.00000000  0.00000000  1
  I  I0  1  0.25000000  0.25000000  0.25000000  1
  I  I1  1  0.75000000  0.75000000  0.75000000  1
  N  N0  1  0.74769200  0.25230800  0.25230800  1
  N  N1  1  0.74769200  0.25230800  0.74769200  1
  N  N2  1  0.74769200  0.74769200  0.25230800  1
  N  N3  1  0.25230800  0.74769200  0.74769200  1
  N  N4  1  0.25230800  0.74769200  0.25230800  1
  N  N5  1  0.25230800  0.25230800  0.74769200  1
loop_
_geom_bond_atom_site_label_1
_geom_bond_atom_site_label_2
_geom_bond_distance
_geom_bond_site_symmetry_2
I0 N0 2.740268 1_555
I0 N4 2.740268 1_555
I0 N5 2.740268 1_555
I0 N1 2.740268 1_554
I0 N2 2.740268 1_545
I0 N1 2.740268 1_455
I0 N2 2.740268 1_455
I0 N3 2.740268 1_545
I0 N3 2.740268 1_554
I0 N5 2.740268 1_554
I0 N0 2.740268 1_455
I0 N4 2.740268 1_545
I1 N1 2.740268 1_565
I1 N3 2.740268 1_655
I1 N2 2.740268 1_556
I1 N4 2.740268 1_655
I1 N5 2.740268 1_565
I1 N4 2.740268 1_556
I1 N0 2.740268 1_556
I1 N5 2.740268 1_655
I1 N0 2.740268 1_565
I1 N1 2.740268 1_555
I1 N2 2.740268 1_555
I1 N3 2.740268 1_555
N0 Ru0 1.955509 1_655
N1 Ru0 1.955509 1_656
N2 Ru0 1.955509 1_665
N3 Ru0 1.955509 1_566
N4 Ru0 1.955509 1_565
N5 Ru0 1.955509 1_556
