# generated using pymatgen
data_Eu3Au
_symmetry_space_group_name_H-M   'P 1'
_cell_length_a   6.94824586
_cell_length_b   7.83014683
_cell_length_c   10.22115722
_cell_angle_alpha   89.98504607
_cell_angle_beta   90.00413592
_cell_angle_gamma   90.00500631
_symmetry_Int_Tables_number   1
_chemical_formula_structural   Eu3Au
_chemical_formula_sum   'Eu12 Au4'
_cell_volume   556.09006271
_cell_formula_units_Z   4
loop_
 _symmetry_equiv_pos_site_id
 _symmetry_equiv_pos_as_xyz
  1  'x, y, z'
loop_
 _atom_site_type_symbol
 _atom_site_label
 _atom_site_symmetry_multiplicity
 _atom_site_fract_x
 _atom_site_fract_y
 _atom_site_fract_z
 _atom_site_occupancy
  Eu  Eu0  1  0.33333574  0.67564693  0.06015639  1
  Eu  Eu1  1  0.16647461  0.17579734  0.44009931  1
  Eu  Eu2  1  0.66646576  0.32420291  0.55990061  1
  Eu  Eu3  1  0.83330589  0.82429805  0.93985130  1
  Eu  Eu4  1  0.66666426  0.32435307  0.93984361  1
  Eu  Eu5  1  0.83352539  0.82420266  0.55990069  1
  Eu  Eu6  1  0.33353424  0.67579709  0.44009939  1
  Eu  Eu7  1  0.16669411  0.17570195  0.06014870  1
  Eu  Eu8  1  0.86008128  0.52640103  0.25018067  1
  Eu  Eu9  1  0.63998592  0.02637025  0.25018059  1
  Eu  Eu10  1  0.13991872  0.47359897  0.74981933  1
  Eu  Eu11  1  0.36001408  0.97362975  0.74981941  1
  Au  Au0  1  0.05982086  0.87902582  0.25045857  1
  Au  Au1  1  0.44025221  0.37898947  0.25048096  1
  Au  Au2  1  0.94017914  0.12097418  0.74954143  1
  Au  Au3  1  0.55974779  0.62101053  0.74951904  1
loop_
_geom_bond_atom_site_label_1
_geom_bond_atom_site_label_2
_geom_bond_distance
_geom_bond_site_symmetry_2
Au0 Eu8 3.090168 1_455
Au0 Eu1 3.115779 1_565
Au0 Eu7 3.119157 1_565
Au0 Eu9 3.137077 1_465
Au0 Eu6 3.147189 1_555
Au0 Eu0 3.151800 1_555
Au0 Eu5 3.558108 1_455
Au0 Eu3 3.569278 1_454
Au1 Eu9 3.090327 1_555
Au1 Eu6 3.116118 1_555
Au1 Eu0 3.119243 1_555
Au1 Eu8 3.137045 1_555
Au1 Eu1 3.147174 1_555
Au1 Eu7 3.151473 1_555
Au1 Eu2 3.557449 1_555
Au1 Eu4 3.569386 1_554
Au2 Eu10 3.090168 1_655
Au2 Eu5 3.115779 1_545
Au2 Eu3 3.119157 1_545
Au2 Eu11 3.137077 1_645
Au2 Eu2 3.147189 1_555
Au2 Eu4 3.151800 1_555
Au2 Eu1 3.558108 1_655
Au2 Eu7 3.569278 1_656
Au3 Eu11 3.090327 1_555
Au3 Eu2 3.116118 1_555
Au3 Eu4 3.119243 1_555
Au3 Eu10 3.137045 1_555
Au3 Eu5 3.147174 1_555
Au3 Eu3 3.151473 1_555
Au3 Eu6 3.557449 1_555
Au3 Eu0 3.569386 1_556
