# generated using pymatgen
data_Hg3Ge
_symmetry_space_group_name_H-M   'P 1'
_cell_length_a   6.47045800
_cell_length_b   6.47045800
_cell_length_c   5.24724400
_cell_angle_alpha   90.00000000
_cell_angle_beta   90.00000000
_cell_angle_gamma   119.99999998
_symmetry_Int_Tables_number   1
_chemical_formula_structural   Hg3Ge
_chemical_formula_sum   'Hg6 Ge2'
_cell_volume   190.25318511
_cell_formula_units_Z   2
loop_
 _symmetry_equiv_pos_site_id
 _symmetry_equiv_pos_as_xyz
  1  'x, y, z'
loop_
 _atom_site_type_symbol
 _atom_site_label
 _atom_site_symmetry_multiplicity
 _atom_site_fract_x
 _atom_site_fract_y
 _atom_site_fract_z
 _atom_site_occupancy
  Hg  Hg0  1  0.16863400  0.33726800  0.25000000  1
  Hg  Hg1  1  0.66273200  0.83136600  0.25000000  1
  Hg  Hg2  1  0.16863400  0.83136600  0.25000000  1
  Hg  Hg3  1  0.83136600  0.66273200  0.75000000  1
  Hg  Hg4  1  0.33726800  0.16863400  0.75000000  1
  Hg  Hg5  1  0.83136600  0.16863400  0.75000000  1
  Ge  Ge0  1  0.33333300  0.66666700  0.75000000  1
  Ge  Ge1  1  0.66666700  0.33333300  0.25000000  1
loop_
_geom_bond_atom_site_label_1
_geom_bond_atom_site_label_2
_geom_bond_distance
_geom_bond_site_symmetry_2
Hg0 Hg2 3.197040 1_555
Hg0 Hg1 3.197040 1_555
Hg0 Hg4 3.233442 1_555
Hg0 Hg4 3.233442 1_554
Hg0 Hg5 3.233442 1_454
Hg0 Hg5 3.233442 1_455
Hg0 Hg2 3.273418 1_545
Hg0 Hg1 3.273418 1_445
Hg1 Hg2 3.197040 1_555
Hg1 Hg3 3.233442 1_554
Hg1 Hg3 3.233442 1_555
Hg1 Hg5 3.233442 1_565
Hg1 Hg5 3.233442 1_564
Hg1 Hg2 3.273418 1_655
Hg2 Hg3 3.233442 1_454
Hg2 Hg4 3.233442 1_565
Hg2 Hg3 3.233442 1_455
Hg2 Hg4 3.233442 1_564
Hg3 Hg5 3.197040 1_555
Hg3 Hg4 3.197040 1_555
Hg3 Hg5 3.273418 1_565
Hg3 Hg4 3.273418 1_665
Hg4 Hg5 3.197040 1_555
Hg4 Hg5 3.273418 1_455
Ge0 Hg2 3.207865 1_556
Ge0 Hg2 3.207865 1_555
Ge0 Hg1 3.207869 1_555
Ge0 Hg1 3.207869 1_556
Ge0 Hg0 3.207869 1_555
Ge0 Hg0 3.207869 1_556
Ge0 Hg4 3.235301 1_565
Ge0 Hg3 3.235301 1_455
Ge0 Hg5 3.235304 1_565
Ge0 Hg5 3.235304 1_455
Ge0 Hg3 3.235307 1_555
Ge0 Hg4 3.235307 1_555
Ge1 Hg5 3.207865 1_555
Ge1 Hg5 3.207865 1_554
Ge1 Hg4 3.207869 1_555
Ge1 Hg3 3.207869 1_554
Ge1 Hg3 3.207869 1_555
Ge1 Hg4 3.207869 1_554
Ge1 Hg0 3.235301 1_655
Ge1 Hg1 3.235301 1_545
Ge1 Hg2 3.235304 1_655
Ge1 Hg2 3.235304 1_545
Ge1 Hg1 3.235307 1_555
Ge1 Hg0 3.235307 1_555
