# generated using pymatgen
data_RbAlF4
_symmetry_space_group_name_H-M   'P 1'
_cell_length_a   10.31202646
_cell_length_b   10.31202743
_cell_length_c   10.31202608
_cell_angle_alpha   105.64128583
_cell_angle_beta   111.41946390
_cell_angle_gamma   111.41946843
_symmetry_Int_Tables_number   1
_chemical_formula_structural   RbAlF4
_chemical_formula_sum   'Rb10 Al10 F40'
_cell_volume   841.32735727
_cell_formula_units_Z   10
loop_
 _symmetry_equiv_pos_site_id
 _symmetry_equiv_pos_as_xyz
  1  'x, y, z'
loop_
 _atom_site_type_symbol
 _atom_site_label
 _atom_site_symmetry_multiplicity
 _atom_site_fract_x
 _atom_site_fract_y
 _atom_site_fract_z
 _atom_site_occupancy
  Rb  Rb0  1  0.49982840  0.02741769  0.84654336  1
  Rb  Rb1  1  0.50017160  0.34671496  0.52759029  1
  Rb  Rb2  1  0.18087532  0.15345664  0.65328504  1
  Rb  Rb3  1  0.81912468  0.47240971  0.97258231  1
  Rb  Rb4  1  0.81912468  0.84671496  0.34654336  1
  Rb  Rb5  1  0.50017160  0.65345664  0.47258231  1
  Rb  Rb6  1  0.49982840  0.97240971  0.15328504  1
  Rb  Rb7  1  0.18087532  0.52741769  0.02759029  1
  Rb  Rb8  1  -0.00000000  0.75000000  0.75000000  1
  Rb  Rb9  1  -0.00000000  0.25000000  0.25000000  1
  Al  Al0  1  0.28436518  0.57678414  0.70758298  1
  Al  Al1  1  0.71563482  0.42321780  0.29241896  1
  Al  Al2  1  0.86920116  0.29241702  0.57678220  1
  Al  Al3  1  0.13079884  0.70758104  0.42321586  1
  Al  Al4  1  0.13079884  0.92321780  0.20758298  1
  Al  Al5  1  0.71563482  0.79241702  0.92321586  1
  Al  Al6  1  0.28436518  0.20758104  0.07678220  1
  Al  Al7  1  0.86920116  0.07678414  0.79241896  1
  Al  Al8  1  0.50000000  0.50000000  -0.00000000  1
  Al  Al9  1  0.50000000  0.00000000  0.50000000  1
  F  F0  1  0.50000000  0.14026807  0.64026807  1
  F  F1  1  0.50000000  0.35973193  0.85973193  1
  F  F2  1  0.50000000  0.85973193  0.35973193  1
  F  F3  1  0.50000000  0.64026807  0.14026807  1
  F  F4  1  0.06112621  0.78056310  0.28056310  1
  F  F5  1  0.50000000  0.71943690  0.78056310  1
  F  F6  1  0.50000000  0.28056310  0.21943690  1
  F  F7  1  0.93887379  0.21943690  0.71943690  1
  F  F8  1  0.87077743  0.14997901  0.43861841  1
  F  F9  1  0.12922257  0.56784198  0.27920058  1
  F  F10  1  0.71135860  0.56138159  0.43215802  1
  F  F11  1  0.28864140  0.72079942  0.85002099  1
  F  F12  1  0.28864140  0.06784198  0.93861841  1
  F  F13  1  0.12922257  0.06138159  0.35002099  1
  F  F14  1  0.71135388  0.93204980  0.06148541  1
  F  F15  1  0.87077743  0.22079942  0.93215802  1
  F  F16  1  0.12943461  0.85013153  0.56148541  1
  F  F17  1  0.87056539  0.43204980  0.72069692  1
  F  F18  1  0.28864612  0.43851459  0.56795020  1
  F  F19  1  0.71135388  0.27930308  0.14986847  1
  F  F20  1  0.34542512  0.00139902  0.34411065  1
  F  F21  1  0.65728837  0.65588935  0.00131548  1
  F  F22  1  0.34271163  0.34402711  0.99860098  1
  F  F23  1  0.65457488  0.99868452  0.65597289  1
  F  F24  1  0.65457488  0.15588935  0.49860098  1
  F  F25  1  0.34542512  0.84402711  0.50131548  1
  F  F26  1  0.34271163  0.49868452  0.84411065  1
  F  F27  1  0.65728837  0.50139902  0.15597289  1
  F  F28  1  0.20850942  0.06644350  0.14218164  1
  F  F29  1  0.92426286  0.85781836  0.06632978  1
  F  F30  1  0.07573714  0.14206592  0.93355650  1
  F  F31  1  0.79149058  0.93367022  0.85793308  1
  F  F32  1  0.79149058  0.35781836  0.43355650  1
  F  F33  1  0.20850942  0.64206692  0.56632978  1
  F  F34  1  0.07573714  0.43367022  0.64218164  1
  F  F35  1  0.92426286  0.56644350  0.35793408  1
  F  F36  1  0.28864612  0.35013153  0.22069692  1
  F  F37  1  0.12943461  0.77930308  0.06795020  1
  F  F38  1  0.87056539  0.93851459  0.64986847  1
  F  F39  1  0.71135860  0.64997901  0.77920058  1
loop_
_geom_bond_atom_site_label_1
_geom_bond_atom_site_label_2
_geom_bond_distance
_geom_bond_site_symmetry_2
Al0 F11 1.758837 1_555
Al0 F18 1.758864 1_555
Al0 F33 1.807748 1_555
Al0 F26 1.827394 1_555
Al0 F34 1.829161 1_555
Al0 F5 1.861857 1_555
Al1 F10 1.758849 1_555
Al1 F19 1.758870 1_555
Al1 F32 1.807756 1_555
Al1 F27 1.827394 1_555
Al1 F35 1.829156 1_555
Al1 F6 1.861857 1_555
Al2 F8 1.758842 1_555
Al2 F17 1.758864 1_555
Al2 F34 1.807742 1_655
Al2 F24 1.827386 1_555
Al2 F32 1.829148 1_555
Al2 F7 1.861857 1_555
Al3 F9 1.758843 1_555
Al3 F16 1.758870 1_555
Al3 F35 1.807748 1_455
Al3 F25 1.827386 1_555
Al3 F33 1.829156 1_555
Al3 F4 1.861857 1_555
Al4 F13 1.758842 1_565
Al4 F37 1.758864 1_555
Al4 F29 1.807742 1_455
Al4 F20 1.827386 1_565
Al4 F28 1.829148 1_565
Al4 F4 1.861857 1_555
Al5 F39 1.758837 1_555
Al5 F14 1.758864 1_556
Al5 F31 1.807748 1_555
Al5 F21 1.827394 1_556
Al5 F29 1.829161 1_556
Al5 F5 1.861857 1_555
Al6 F12 1.758849 1_554
Al6 F36 1.758870 1_555
Al6 F28 1.807756 1_555
Al6 F22 1.827394 1_554
Al6 F30 1.829156 1_554
Al6 F6 1.861857 1_555
Al7 F15 1.758843 1_555
Al7 F38 1.758870 1_545
Al7 F30 1.807748 1_655
Al7 F23 1.827386 1_545
Al7 F31 1.829156 1_545
Al7 F7 1.861857 1_555
Al8 F3 1.748212 1_555
Al8 F1 1.748212 1_554
Al8 F27 1.811879 1_555
Al8 F26 1.811879 1_554
Al8 F21 1.811879 1_555
Al8 F22 1.811879 1_554
Al9 F0 1.748212 1_555
Al9 F2 1.748212 1_545
Al9 F23 1.811884 1_545
Al9 F20 1.811884 1_555
Al9 F25 1.811884 1_545
Al9 F24 1.811884 1_555
F0 Rb1 2.686048 1_555
F0 Rb0 2.686055 1_555
F1 Rb3 2.686047 1_555
F1 Rb2 2.686048 1_555
F2 Rb6 2.686048 1_555
F2 Rb5 2.686055 1_555
F3 Rb7 2.686047 1_555
F3 Rb4 2.686048 1_555
F8 Rb4 2.788889 1_545
F8 Rb9 2.931493 1_655
F9 Rb7 2.788878 1_555
F9 Rb9 2.931507 1_555
F10 Rb5 2.788876 1_555
F10 Rb8 2.931506 1_655
F11 Rb6 2.788885 1_556
F11 Rb8 2.931506 1_555
F12 Rb0 2.788876 1_555
F12 Rb8 2.931507 1_545
F13 Rb2 2.788889 1_555
F13 Rb9 2.931493 1_555
F14 Rb6 2.790338 1_555
F14 Rb9 2.932168 1_665
F15 Rb3 2.788879 1_555
F15 Rb9 2.931506 1_656
F16 Rb2 2.790335 1_565
F16 Rb8 2.932162 1_555
F17 Rb3 2.790344 1_555
F17 Rb8 2.932172 1_655
F18 Rb1 2.790338 1_555
F18 Rb9 2.932168 1_555
F19 Rb0 2.790338 1_554
F19 Rb9 2.932162 1_655
F36 Rb5 2.790338 1_555
F36 Rb9 2.932162 1_555
F37 Rb7 2.790344 1_555
F37 Rb8 2.932172 1_554
F38 Rb4 2.790334 1_555
F38 Rb8 2.932163 1_655
F39 Rb1 2.788885 1_555
F39 Rb8 2.931506 1_655
