# generated using pymatgen
data_Li2CoNi3O8
_symmetry_space_group_name_H-M   'P 1'
_cell_length_a   8.07811930
_cell_length_b   8.14561361
_cell_length_c   8.03755617
_cell_angle_alpha   90.29988479
_cell_angle_beta   89.29205615
_cell_angle_gamma   90.14250518
_symmetry_Int_Tables_number   1
_chemical_formula_structural   Li2CoNi3O8
_chemical_formula_sum   'Li8 Co4 Ni12 O32'
_cell_volume   528.83198358
_cell_formula_units_Z   4
loop_
 _symmetry_equiv_pos_site_id
 _symmetry_equiv_pos_as_xyz
  1  'x, y, z'
loop_
 _atom_site_type_symbol
 _atom_site_label
 _atom_site_symmetry_multiplicity
 _atom_site_fract_x
 _atom_site_fract_y
 _atom_site_fract_z
 _atom_site_occupancy
  Li  Li0  1  0.99754000  0.00378400  0.99761500  1
  Li  Li1  1  0.25297900  0.24507000  0.25353800  1
  Li  Li2  1  0.24667900  0.74492000  0.74677600  1
  Li  Li3  1  0.49488600  0.00387700  0.49433800  1
  Li  Li4  1  0.50303800  0.50206900  0.00133700  1
  Li  Li5  1  0.75230500  0.24741900  0.75656000  1
  Li  Li6  1  0.75007000  0.74702300  0.24772300  1
  Li  Li7  1  0.00269000  0.50648900  0.50076000  1
  Co  Co0  1  0.12166000  0.87471200  0.37143500  1
  Co  Co1  1  0.37357500  0.12373700  0.87324000  1
  Co  Co2  1  0.62564600  0.62587500  0.62477400  1
  Co  Co3  1  0.88036200  0.37399900  0.13107500  1
  Ni  Ni0  1  0.12397800  0.12577500  0.62610600  1
  Ni  Ni1  1  0.12918000  0.37467400  0.87814100  1
  Ni  Ni2  1  0.12663700  0.62348400  0.12413800  1
  Ni  Ni3  1  0.37927500  0.37388000  0.62887000  1
  Ni  Ni4  1  0.37554300  0.62495500  0.37289000  1
  Ni  Ni5  1  0.36986800  0.87434500  0.11874700  1
  Ni  Ni6  1  0.63015500  0.37434100  0.38013900  1
  Ni  Ni7  1  0.62395100  0.12478200  0.12547900  1
  Ni  Ni8  1  0.61907700  0.87570100  0.87028300  1
  Ni  Ni9  1  0.87550300  0.12675300  0.37815000  1
  Ni  Ni10  1  0.86954300  0.87731200  0.62152400  1
  Ni  Ni11  1  0.87603400  0.62466900  0.87614500  1
  O  O0  1  0.10750200  0.11109200  0.39248700  1
  O  O1  1  0.10076100  0.87795500  0.60943500  1
  O  O2  1  0.12275600  0.60371600  0.89287400  1
  O  O3  1  0.13821500  0.14282900  0.85951800  1
  O  O4  1  0.11821900  0.38998100  0.11340000  1
  O  O5  1  0.14722500  0.37491700  0.64428700  1
  O  O6  1  0.13145300  0.64378000  0.35559300  1
  O  O7  1  0.13641700  0.85702100  0.13138100  1
  O  O8  1  0.36622200  0.14494000  0.63686100  1
  O  O9  1  0.36416400  0.35915600  0.86313200  1
  O  O10  1  0.35874200  0.64262500  0.12998000  1
  O  O11  1  0.39461300  0.60552400  0.61800600  1
  O  O12  1  0.35599700  0.87316300  0.35135400  1
  O  O13  1  0.39816000  0.37603500  0.39554500  1
  O  O14  1  0.37660800  0.10291900  0.10868000  1
  O  O15  1  0.38593000  0.88822200  0.88256600  1
  O  O16  1  0.61448300  0.38849100  0.61660600  1
  O  O17  1  0.62172100  0.60380300  0.39367900  1
  O  O18  1  0.60256000  0.87649900  0.10321500  1
  O  O19  1  0.64635700  0.37260300  0.14767800  1
  O  O20  1  0.60837700  0.10667800  0.88772000  1
  O  O21  1  0.64268400  0.14285000  0.36370200  1
  O  O22  1  0.63367200  0.86247400  0.63442700  1
  O  O23  1  0.62720500  0.64559700  0.85391500  1
  O  O24  1  0.86356500  0.35878400  0.37046000  1
  O  O25  1  0.87174500  0.14309300  0.14603400  1
  O  O26  1  0.85158900  0.87317900  0.85452100  1
  O  O27  1  0.88353700  0.89445700  0.38725700  1
  O  O28  1  0.85428300  0.64764500  0.62532100  1
  O  O29  1  0.88053700  0.10785000  0.61194200  1
  O  O30  1  0.89762400  0.37667100  0.89451500  1
  O  O31  1  0.89690300  0.60595200  0.12426500  1
loop_
_geom_bond_atom_site_label_1
_geom_bond_atom_site_label_2
_geom_bond_distance
_geom_bond_site_symmetry_2
Li0 O25 1.924836 1_556
Li0 O3 1.944681 1_655
Li0 O26 1.964461 1_545
Li0 O7 1.973227 1_646
Li1 O14 1.912235 1_555
Li1 O0 1.947632 1_555
Li1 O13 1.957129 1_555
Li1 O4 1.974259 1_555
Li2 O2 1.919205 1_555
Li2 O11 1.937131 1_555
Li2 O15 1.956933 1_555
Li2 O1 1.957889 1_555
Li3 O8 1.917179 1_555
Li3 O12 1.930376 1_545
Li3 O21 1.945294 1_555
Li3 O22 1.975504 1_545
Li4 O10 1.924348 1_555
Li4 O23 1.938104 1_554
Li4 O9 1.964280 1_554
Li4 O19 1.971987 1_555
Li5 O29 1.918047 1_555
Li5 O30 1.931268 1_555
Li5 O20 1.937308 1_555
Li5 O16 1.968812 1_555
Li6 O31 1.917756 1_555
Li6 O17 1.946912 1_555
Li6 O27 1.967695 1_555
Li6 O18 1.983574 1_555
Li7 O6 1.916208 1_555
Li7 O28 1.930483 1_455
Li7 O24 1.953622 1_455
Li7 O5 1.973600 1_555
Co0 O6 1.886512 1_555
Co0 O12 1.897950 1_555
Co0 O1 1.918344 1_555
Co0 O27 1.933262 1_455
Co0 O0 1.935540 1_565
Co0 O7 1.936294 1_555
Co1 O14 1.901293 1_556
Co1 O20 1.907219 1_555
Co1 O8 1.910311 1_555
Co1 O3 1.912588 1_555
Co1 O9 1.921510 1_555
Co1 O15 1.923158 1_545
Co2 O23 1.848084 1_555
Co2 O28 1.855068 1_555
Co2 O17 1.865835 1_555
Co2 O11 1.874683 1_555
Co2 O22 1.929360 1_555
Co2 O16 1.936324 1_555
Co3 O25 1.886395 1_555
Co3 O19 1.893389 1_555
Co3 O31 1.894816 1_555
Co3 O30 1.904986 1_554
Co3 O4 1.929055 1_655
Co3 O24 1.931781 1_555
Ni0 O3 1.885380 1_555
Ni0 O0 1.887225 1_555
Ni0 O8 1.965636 1_555
Ni0 O29 1.976236 1_455
Ni0 O1 2.030755 1_545
Ni0 O5 2.042259 1_555
Ni1 O2 1.869632 1_555
Ni1 O30 1.873643 1_455
Ni1 O5 1.883473 1_555
Ni1 O3 1.895177 1_555
Ni1 O4 1.895354 1_556
Ni1 O9 1.905040 1_555
Ni2 O31 1.860939 1_455
Ni2 O2 1.865562 1_554
Ni2 O6 1.867678 1_555
Ni2 O10 1.882200 1_555
Ni2 O7 1.904361 1_555
Ni2 O4 1.904614 1_555
Ni3 O8 1.868968 1_555
Ni3 O5 1.877128 1_555
Ni3 O13 1.879848 1_555
Ni3 O9 1.889758 1_555
Ni3 O11 1.893039 1_555
Ni3 O16 1.904835 1_555
Ni4 O10 1.964841 1_555
Ni4 O6 1.984765 1_555
Ni4 O11 1.985219 1_555
Ni4 O17 2.005635 1_555
Ni4 O12 2.036792 1_555
Ni4 O13 2.045545 1_555
Ni5 O14 1.864686 1_565
Ni5 O12 1.871638 1_555
Ni5 O18 1.882359 1_555
Ni5 O10 1.891991 1_555
Ni5 O7 1.892282 1_555
Ni5 O15 1.905075 1_554
Ni6 O19 1.871365 1_555
Ni6 O17 1.873065 1_555
Ni6 O13 1.876723 1_555
Ni6 O24 1.890697 1_555
Ni6 O21 1.892441 1_555
Ni6 O16 1.906172 1_555
Ni7 O20 1.921562 1_554
Ni7 O21 1.927396 1_555
Ni7 O14 2.011681 1_555
Ni7 O25 2.015642 1_555
Ni7 O19 2.033414 1_555
Ni7 O18 2.036490 1_545
Ni8 O18 1.875286 1_556
Ni8 O23 1.879516 1_555
Ni8 O26 1.881121 1_555
Ni8 O15 1.887739 1_555
Ni8 O20 1.888045 1_565
Ni8 O22 1.900424 1_555
Ni9 O25 1.871707 1_555
Ni9 O0 1.883757 1_655
Ni9 O29 1.887164 1_555
Ni9 O21 1.890673 1_555
Ni9 O24 1.894104 1_555
Ni9 O27 1.895295 1_545
Ni10 O1 1.869129 1_655
Ni10 O28 1.874913 1_555
Ni10 O26 1.877018 1_555
Ni10 O29 1.881686 1_565
Ni10 O27 1.890804 1_555
Ni10 O22 1.910495 1_555
Ni11 O2 2.006991 1_655
Ni11 O31 2.010082 1_556
Ni11 O23 2.027872 1_555
Ni11 O30 2.034334 1_555
Ni11 O28 2.035453 1_555
Ni11 O26 2.042884 1_555
