# generated using pymatgen
data_Sm9In(SiS7)3
_symmetry_space_group_name_H-M   'P 1'
_cell_length_a   11.63305664
_cell_length_b   11.63299962
_cell_length_c   11.63316715
_cell_angle_alpha   98.03175308
_cell_angle_beta   81.97049095
_cell_angle_gamma   81.96814100
_symmetry_Int_Tables_number   1
_chemical_formula_structural   Sm9In(SiS7)3
_chemical_formula_sum   'Sm18 In2 Si6 S42'
_cell_volume   1523.06725704
_cell_formula_units_Z   2
loop_
 _symmetry_equiv_pos_site_id
 _symmetry_equiv_pos_as_xyz
  1  'x, y, z'
loop_
 _atom_site_type_symbol
 _atom_site_label
 _atom_site_symmetry_multiplicity
 _atom_site_fract_x
 _atom_site_fract_y
 _atom_site_fract_z
 _atom_site_occupancy
  Sm  Sm0  1  0.64899358  0.22453599  0.98840715  1
  Sm  Sm1  1  0.31973323  0.56094100  0.33636821  1
  Sm  Sm2  1  0.97143382  0.89916208  0.66389676  1
  Sm  Sm3  1  0.33611611  0.02859518  0.89915449  1
  Sm  Sm4  1  0.01163461  0.35103017  0.22452939  1
  Sm  Sm5  1  0.66361836  0.68019808  0.56090695  1
  Sm  Sm6  1  0.43907118  0.33635311  0.68019147  1
  Sm  Sm7  1  0.10086286  0.66391514  0.02856592  1
  Sm  Sm8  1  0.77544997  0.98842106  0.35105919  1
  Sm  Sm9  1  0.12874818  0.99153119  0.21484614  1
  Sm  Sm10  1  0.80067702  0.32752763  0.56382314  1
  Sm  Sm11  1  0.47511065  0.65167653  0.88801042  1
  Sm  Sm12  1  0.43617880  0.19931607  0.32753463  1
  Sm  Sm13  1  0.11198427  0.52490612  0.65168180  1
  Sm  Sm14  1  0.78512219  0.87122369  0.99156476  1
  Sm  Sm15  1  0.34831102  0.88800561  0.52493441  1
  Sm  Sm16  1  0.00843125  0.21487390  0.87124542  1
  Sm  Sm17  1  0.67243673  0.56380803  0.19932716  1
  In  In0  1  0.22863683  0.77136290  0.77138607  1
  In  In1  1  0.72862860  0.27137976  0.27141368  1
  Si  Si0  1  0.44399900  0.88754520  0.22139408  1
  Si  Si1  1  0.11243333  0.22137461  0.55601914  1
  Si  Si2  1  0.77862886  0.55600725  0.88759714  1
  Si  Si3  1  0.94504591  0.72122120  0.38885127  1
  Si  Si4  1  0.61112884  0.05495172  0.72121305  1
  Si  Si5  1  0.27883341  0.38888811  0.05489041  1
  S  S0  1  0.73249381  0.92932934  0.59792597  1
  S  S1  1  0.40208587  0.26755915  0.92930260  1
  S  S2  1  0.07063412  0.59795639  0.26750562  1
  S  S3  1  0.57022507  0.76765695  0.09728601  1
  S  S4  1  0.23229610  0.09731147  0.42977031  1
  S  S5  1  0.90272693  0.42976597  0.76770188  1
  S  S6  1  0.66999986  0.07715952  0.16340847  1
  S  S7  1  0.33646242  0.40433470  0.49512335  1
  S  S8  1  0.01159278  0.73575914  0.82536575  1
  S  S9  1  0.50480926  0.66350370  0.40434148  1
  S  S10  1  0.17463710  0.98840799  0.73575136  1
  S  S11  1  0.83660685  0.33002449  0.07714760  1
  S  S12  1  0.26424009  0.82539491  0.98845636  1
  S  S13  1  0.92283632  0.16336187  0.32996732  1
  S  S14  1  0.59568067  0.49512676  0.66355684  1
  S  S15  1  0.78876811  0.46369276  0.37431545  1
  S  S16  1  0.44949465  0.80390795  0.71667499  1
  S  S17  1  0.12158788  0.13747918  0.04700483  1
  S  S18  1  0.95300761  0.87838990  0.13747508  1
  S  S19  1  0.62568324  0.21121982  0.46372994  1
  S  S20  1  0.28334725  0.55052924  0.80387106  1
  S  S21  1  0.19606363  0.71670024  0.55052192  1
  S  S22  1  0.86253537  0.04696506  0.87842596  1
  S  S23  1  0.53635104  0.37423343  0.21119033  1
  S  S24  1  0.29322234  0.81593445  0.28931362  1
  S  S25  1  0.96354335  0.14864128  0.62766811  1
  S  S26  1  0.63154748  0.48088691  0.96108063  1
  S  S27  1  0.37234650  0.03644222  0.14865005  1
  S  S28  1  0.03890577  0.36847240  0.48090235  1
  S  S29  1  0.71068938  0.70675685  0.81592477  1
  S  S30  1  0.51907792  0.96105526  0.36849343  1
  S  S31  1  0.18404180  0.28932589  0.70679297  1
  S  S32  1  0.85134852  0.62767649  0.03646937  1
  S  S33  1  0.99642523  0.89242728  0.41599993  1
  S  S34  1  0.66122395  0.22661628  0.74491794  1
  S  S35  1  0.33080970  0.55889992  0.08490120  1
  S  S36  1  0.91508042  0.66922166  0.55885911  1
  S  S37  1  0.58398376  0.00357760  0.89241314  1
  S  S38  1  0.25511347  0.33880710  0.22658808  1
  S  S39  1  0.77335431  0.74491610  0.33876833  1
  S  S40  1  0.44112665  0.08491693  0.66921280  1
  S  S41  1  0.10761079  0.41603813  0.00354549  1
loop_
_geom_bond_atom_site_label_1
_geom_bond_atom_site_label_2
_geom_bond_distance
_geom_bond_site_symmetry_2
In0 S8 2.619712 1_555
In0 S10 2.619831 1_555
In0 S12 2.620061 1_555
In0 S20 2.651227 1_555
In0 S16 2.651754 1_555
In0 S21 2.651841 1_555
In1 S23 2.617200 1_555
In1 S15 2.617320 1_555
In1 S19 2.617722 1_555
In1 S13 2.650068 1_555
In1 S6 2.650525 1_555
In1 S11 2.650997 1_555
S0 Si4 2.111383 1_565
S0 Sm2 2.972699 1_555
S0 Sm8 3.035864 1_555
S0 Sm5 3.102128 1_555
S1 Si5 2.110786 1_556
S1 Sm3 2.972966 1_555
S1 Sm0 3.036358 1_555
S1 Sm6 3.101557 1_555
S2 Si3 2.110950 1_455
S2 Sm7 2.972718 1_555
S2 Sm4 3.036070 1_555
S2 Sm1 3.101699 1_555
S3 Si0 2.111517 1_555
S3 Sm17 2.973101 1_555
S3 Sm11 3.037010 1_554
S3 Sm14 3.100073 1_554
S4 Si1 2.111254 1_555
S4 Sm12 2.973332 1_555
S4 Sm15 3.037746 1_545
S4 Sm9 3.100377 1_545
S5 Si2 2.111585 1_555
S5 Sm10 2.973545 1_555
S5 Sm13 3.037243 1_655
S5 Sm16 3.099744 1_655
S6 Sm0 2.853207 1_554
S6 Sm8 2.891325 1_545
S6 Sm14 2.923396 1_544
S6 Sm12 3.126389 1_555
S7 Sm6 2.759572 1_555
S7 Sm1 2.776532 1_555
S7 Sm12 2.851384 1_555
S7 Sm13 3.006247 1_555
S8 Sm2 2.890447 1_455
S8 Sm7 2.891387 1_556
S8 Sm13 2.935670 1_555
S8 Sm14 3.118925 1_455
S9 Sm1 2.759350 1_555
S9 Sm5 2.776598 1_555
S9 Sm17 2.851579 1_555
S9 Sm15 3.006177 1_555
S10 Sm3 2.890561 1_565
S10 Sm2 2.891332 1_455
S10 Sm15 2.935394 1_555
S10 Sm16 3.118989 1_565
S11 Sm4 2.853459 1_655
S11 Sm0 2.891166 1_554
S11 Sm16 2.923146 1_654
S11 Sm17 3.126315 1_555
S12 Sm7 2.890247 1_556
S12 Sm3 2.891701 1_565
S12 Sm11 2.936134 1_555
S12 Sm9 3.118056 1_556
S13 Sm8 2.852815 1_545
S13 Sm4 2.891751 1_655
S13 Sm9 2.923135 1_645
S13 Sm10 3.126878 1_555
S14 Sm5 2.759705 1_555
S14 Sm6 2.776645 1_555
S14 Sm10 2.851309 1_555
S14 Sm11 3.005990 1_555
S15 Sm17 2.885032 1_555
S15 Sm10 2.896250 1_555
S15 Sm4 2.936979 1_655
S15 Sm5 3.120805 1_555
S16 Sm11 2.863997 1_555
S16 Sm15 2.887806 1_555
S16 Sm5 2.927093 1_555
S16 Sm3 3.127578 1_565
S17 Sm9 2.762995 1_545
S17 Sm16 2.767504 1_554
S17 Sm3 2.845963 1_554
S17 Sm4 3.002146 1_555
S18 Sm14 2.763055 1_554
S18 Sm9 2.767121 1_655
S18 Sm7 2.845562 1_655
S18 Sm8 3.002842 1_555
S19 Sm10 2.884829 1_555
S19 Sm12 2.896395 1_555
S19 Sm8 2.936287 1_545
S19 Sm6 3.120591 1_555
S20 Sm13 2.863881 1_555
S20 Sm11 2.888023 1_555
S20 Sm6 2.927159 1_555
S20 Sm7 3.127734 1_556
S21 Sm15 2.863812 1_555
S21 Sm13 2.888172 1_555
S21 Sm1 2.927153 1_555
S21 Sm2 3.127013 1_455
S22 Sm16 2.763192 1_655
S22 Sm14 2.767332 1_545
S22 Sm2 2.845774 1_545
S22 Sm0 3.002422 1_555
S23 Sm12 2.884762 1_555
S23 Sm17 2.896256 1_555
S23 Sm0 2.935783 1_554
S23 Sm1 3.122432 1_555
S24 Si0 2.144723 1_555
S24 Sm9 2.906781 1_555
S24 Sm15 2.936915 1_555
S24 Sm1 3.072325 1_555
S25 Si1 2.147999 1_655
S25 Sm10 2.862693 1_555
S25 Sm16 2.968363 1_655
S25 Sm2 2.981095 1_545
S26 Si2 2.154050 1_555
S26 Sm11 2.806323 1_555
S26 Sm17 2.930484 1_556
S26 Sm0 3.024757 1_555
S27 Si0 2.148104 1_545
S27 Sm12 2.862677 1_555
S27 Sm9 2.968646 1_545
S27 Sm3 2.981357 1_554
S28 Si1 2.154309 1_555
S28 Sm13 2.806282 1_555
S28 Sm10 2.930543 1_455
S28 Sm4 3.024882 1_555
S29 Si2 2.144891 1_555
S29 Sm14 2.906872 1_555
S29 Sm11 2.936487 1_555
S29 Sm5 3.072681 1_555
S30 Si0 2.154004 1_555
S30 Sm15 2.806145 1_555
S30 Sm12 2.930831 1_565
S30 Sm8 3.025146 1_555
S31 Si1 2.144755 1_555
S31 Sm16 2.906735 1_555
S31 Sm13 2.936532 1_555
S31 Sm6 3.072646 1_555
S32 Si2 2.147779 1_554
S32 Sm17 2.863045 1_555
S32 Sm14 2.968065 1_554
S32 Sm7 2.981536 1_655
S33 Si3 2.152495 1_555
S33 Sm2 2.846644 1_555
S33 Sm8 2.898605 1_555
S33 Sm9 3.068874 1_655
S34 Si4 2.149366 1_555
S34 Sm0 2.819876 1_555
S34 Sm10 2.952370 1_555
S34 Sm6 2.960676 1_555
S35 Si5 2.144565 1_555
S35 Sm1 2.906771 1_555
S35 Sm7 2.979551 1_555
S35 Sm11 3.058086 1_554
S36 Si3 2.144641 1_555
S36 Sm5 2.906784 1_555
S36 Sm2 2.979660 1_555
S36 Sm13 3.058471 1_655
S37 Si4 2.152441 1_555
S37 Sm3 2.846248 1_555
S37 Sm0 2.898796 1_555
S37 Sm14 3.069115 1_545
S38 Si5 2.149707 1_555
S38 Sm4 2.819691 1_555
S38 Sm12 2.952502 1_555
S38 Sm1 2.960131 1_555
S39 Si3 2.149593 1_555
S39 Sm8 2.819979 1_555
S39 Sm17 2.952369 1_555
S39 Sm5 2.960580 1_555
S40 Si4 2.144534 1_555
S40 Sm6 2.906453 1_555
S40 Sm3 2.979506 1_555
S40 Sm15 3.058287 1_545
S41 Si5 2.152499 1_555
S41 Sm7 2.846328 1_555
S41 Sm4 2.899059 1_555
S41 Sm16 3.069249 1_554
