# generated using pymatgen
data_KMg6Sb
_symmetry_space_group_name_H-M   'P 1'
_cell_length_a   6.81724814
_cell_length_b   6.81724814
_cell_length_c   5.26892500
_cell_angle_alpha   90.00000000
_cell_angle_beta   90.00000000
_cell_angle_gamma   121.87878046
_symmetry_Int_Tables_number   1
_chemical_formula_structural   KMg6Sb
_chemical_formula_sum   'K1 Mg6 Sb1'
_cell_volume   207.93782698
_cell_formula_units_Z   1
loop_
 _symmetry_equiv_pos_site_id
 _symmetry_equiv_pos_as_xyz
  1  'x, y, z'
loop_
 _atom_site_type_symbol
 _atom_site_label
 _atom_site_symmetry_multiplicity
 _atom_site_fract_x
 _atom_site_fract_y
 _atom_site_fract_z
 _atom_site_occupancy
  K  K0  1  0.83268900  0.16731100  0.50000000  1
  Mg  Mg0  1  0.33518800  0.16856100  0.50000000  1
  Mg  Mg1  1  0.83143900  0.66481200  0.50000000  1
  Mg  Mg2  1  0.17520800  0.33561800  0.00000000  1
  Mg  Mg3  1  0.66438200  0.82479200  0.00000000  1
  Mg  Mg4  1  0.66110300  0.33889700  0.00000000  1
  Mg  Mg5  1  0.16453100  0.83546900  0.00000000  1
  Sb  Sb0  1  0.33546400  0.66453600  0.50000000  1
loop_
_geom_bond_atom_site_label_1
_geom_bond_atom_site_label_2
_geom_bond_distance
_geom_bond_site_symmetry_2
K0 Mg2 3.298393 1_656
K0 Mg2 3.298393 1_655
K0 Mg3 3.298393 1_545
K0 Mg3 3.298393 1_546
K0 Sb0 3.311538 1_655
K0 Sb0 3.311538 1_545
K0 Mg4 3.335006 1_556
K0 Mg4 3.335006 1_555
K0 Mg0 3.396096 1_555
K0 Mg1 3.396096 1_555
K0 Mg0 3.421168 1_655
K0 Mg1 3.421168 1_545
Mg0 Mg4 3.240408 1_556
Mg0 Mg4 3.240408 1_555
Mg0 Mg5 3.264947 1_545
Mg0 Mg5 3.264947 1_546
Mg0 Mg2 3.277013 1_556
Mg0 Mg2 3.277013 1_555
Mg0 Mg1 3.286544 1_555
Mg0 Mg1 3.336202 1_445
Mg0 Sb0 3.380191 1_555
Mg0 Sb0 3.437058 1_545
Mg1 Mg4 3.240408 1_555
Mg1 Mg4 3.240408 1_556
Mg1 Mg5 3.264947 1_655
Mg1 Mg5 3.264947 1_656
Mg1 Mg3 3.277013 1_555
Mg1 Mg3 3.277013 1_556
Mg1 Sb0 3.380191 1_555
Mg1 Sb0 3.437058 1_655
Mg2 Sb0 3.251831 1_554
Mg2 Sb0 3.251831 1_555
Mg3 Sb0 3.251831 1_554
Mg3 Sb0 3.251831 1_555
Mg5 Sb0 3.330239 1_554
Mg5 Sb0 3.330239 1_555
