# generated using pymatgen
data_Sr6Ca2Fe5Co3O20
_symmetry_space_group_name_H-M   'P 1'
_cell_length_a   10.88392614
_cell_length_b   11.34572783
_cell_length_c   17.62793522
_cell_angle_alpha   108.63102814
_cell_angle_beta   108.00931752
_cell_angle_gamma   90.16026102
_symmetry_Int_Tables_number   1
_chemical_formula_structural   Sr6Ca2Fe5Co3O20
_chemical_formula_sum   'Sr24 Ca8 Fe20 Co12 O80'
_cell_volume   1949.16975732
_cell_formula_units_Z   4
loop_
 _symmetry_equiv_pos_site_id
 _symmetry_equiv_pos_as_xyz
  1  'x, y, z'
loop_
 _atom_site_type_symbol
 _atom_site_label
 _atom_site_symmetry_multiplicity
 _atom_site_fract_x
 _atom_site_fract_y
 _atom_site_fract_z
 _atom_site_occupancy
  Sr  Sr0  1  0.30889600  0.06191600  0.60880200  1
  Sr  Sr1  1  0.31084700  0.56407100  0.61039500  1
  Sr  Sr2  1  0.80506400  0.06225800  0.61013100  1
  Sr  Sr3  1  0.80578800  0.56719300  0.61169400  1
  Sr  Sr4  1  0.20025400  0.43439400  0.38840100  1
  Sr  Sr5  1  0.19673800  0.43727300  0.89254100  1
  Sr  Sr6  1  0.19850100  0.93499800  0.38806200  1
  Sr  Sr7  1  0.69278400  0.43715800  0.38769200  1
  Sr  Sr8  1  0.70031200  0.43948200  0.89317500  1
  Sr  Sr9  1  0.69492500  0.93392700  0.38985800  1
  Sr  Sr10  1  0.69967000  0.93673100  0.89391800  1
  Sr  Sr11  1  0.05202600  0.29274500  0.10875700  1
  Sr  Sr12  1  0.05544100  0.29482600  0.61055100  1
  Sr  Sr13  1  0.05594100  0.79912300  0.61119600  1
  Sr  Sr14  1  0.55713700  0.29495100  0.60907600  1
  Sr  Sr15  1  0.55714400  0.79668000  0.10920300  1
  Sr  Sr16  1  0.56129200  0.79725800  0.60957900  1
  Sr  Sr17  1  0.44572200  0.20202900  0.38623600  1
  Sr  Sr18  1  0.45059000  0.20490300  0.89239200  1
  Sr  Sr19  1  0.45018900  0.70317100  0.38807500  1
  Sr  Sr20  1  0.45007200  0.70719900  0.89378300  1
  Sr  Sr21  1  0.94296900  0.20037400  0.38661100  1
  Sr  Sr22  1  0.94551500  0.20596000  0.89329700  1
  Sr  Sr23  1  0.94444300  0.70251500  0.38708000  1
  Ca  Ca0  1  0.30185500  0.06320700  0.10399000  1
  Ca  Ca1  1  0.29937300  0.56784400  0.10537400  1
  Ca  Ca2  1  0.80223800  0.06581700  0.10382300  1
  Ca  Ca3  1  0.80688700  0.57039000  0.10488900  1
  Ca  Ca4  1  0.19924200  0.93237300  0.89713300  1
  Ca  Ca5  1  0.05400700  0.78769900  0.10410500  1
  Ca  Ca6  1  0.55722400  0.28469500  0.10599100  1
  Ca  Ca7  1  0.95163800  0.71345900  0.89774300  1
  Fe  Fe0  1  0.00337200  0.99842100  0.49911000  1
  Fe  Fe1  1  0.00344200  0.50054600  0.49990700  1
  Fe  Fe2  1  0.25766700  0.25057800  0.00423900  1
  Fe  Fe3  1  0.25521600  0.24833300  0.49968500  1
  Fe  Fe4  1  0.10468100  0.08544000  0.24524000  1
  Fe  Fe5  1  0.11035000  0.09051900  0.75423000  1
  Fe  Fe6  1  0.10580600  0.59176700  0.24673200  1
  Fe  Fe7  1  0.10724800  0.59622400  0.75206800  1
  Fe  Fe8  1  0.60504300  0.09148400  0.24716900  1
  Fe  Fe9  1  0.60780100  0.09000600  0.74922700  1
  Fe  Fe10  1  0.60309100  0.58478300  0.24350300  1
  Fe  Fe11  1  0.61204200  0.59258700  0.75253500  1
  Fe  Fe12  1  0.35593900  0.40729400  0.24403100  1
  Fe  Fe13  1  0.35835300  0.40952200  0.75078400  1
  Fe  Fe14  1  0.35310300  0.90729900  0.24664200  1
  Fe  Fe15  1  0.35673200  0.90892500  0.75218800  1
  Fe  Fe16  1  0.85296200  0.40779600  0.24628500  1
  Fe  Fe17  1  0.85964900  0.41338700  0.75239600  1
  Fe  Fe18  1  0.85803800  0.90862100  0.24673600  1
  Fe  Fe19  1  0.86281600  0.90749000  0.75320100  1
  Co  Co0  1  0.00758800  0.99952600  0.00339300  1
  Co  Co1  1  0.00665600  0.50380400  0.00336700  1
  Co  Co2  1  0.50682100  0.00181100  0.00287400  1
  Co  Co3  1  0.50383700  0.99973800  0.49887000  1
  Co  Co4  1  0.51064600  0.50366300  0.00875800  1
  Co  Co5  1  0.50650500  0.50124900  0.50075600  1
  Co  Co6  1  0.25613200  0.75257300  0.00325100  1
  Co  Co7  1  0.25554000  0.75269300  0.50006900  1
  Co  Co8  1  0.75679300  0.25348900  0.00518200  1
  Co  Co9  1  0.75274800  0.24768900  0.49929800  1
  Co  Co10  1  0.75967600  0.75307200  0.00366500  1
  Co  Co11  1  0.75397300  0.75006500  0.49955100  1
  O  O0  1  0.12397600  0.12199800  0.49153400  1
  O  O1  1  0.12740000  0.11673500  0.99004300  1
  O  O2  1  0.13263800  0.62688700  0.49176300  1
  O  O3  1  0.12530600  0.62511800  0.99170000  1
  O  O4  1  0.62569500  0.12824900  0.49244300  1
  O  O5  1  0.62493800  0.12645200  0.99568800  1
  O  O6  1  0.62537000  0.62160300  0.49020100  1
  O  O7  1  0.62935200  0.62315300  0.99358200  1
  O  O8  1  0.13686700  0.38176000  0.01333400  1
  O  O9  1  0.12963600  0.37784500  0.50693900  1
  O  O10  1  0.13531700  0.88007700  0.01272700  1
  O  O11  1  0.13146400  0.87996300  0.50819700  1
  O  O12  1  0.63075400  0.38683200  0.01406200  1
  O  O13  1  0.62428100  0.38626100  0.50734800  1
  O  O14  1  0.63875400  0.88502600  0.01424700  1
  O  O15  1  0.62972200  0.88253400  0.50820800  1
  O  O16  1  0.37610900  0.11639100  0.49090800  1
  O  O17  1  0.37524100  0.11753900  0.99251200  1
  O  O18  1  0.38285600  0.61181200  0.49172000  1
  O  O19  1  0.38118600  0.61225000  0.99534200  1
  O  O20  1  0.87449000  0.11661400  0.49132400  1
  O  O21  1  0.87568700  0.11643100  0.99334200  1
  O  O22  1  0.87705400  0.61829900  0.49178400  1
  O  O23  1  0.88027000  0.62427500  0.99214000  1
  O  O24  1  0.38841400  0.38201800  0.01739000  1
  O  O25  1  0.38079500  0.37815600  0.50708000  1
  O  O26  1  0.38150100  0.88539500  0.01151700  1
  O  O27  1  0.38042500  0.87362100  0.50577300  1
  O  O28  1  0.88190500  0.38896700  0.01402400  1
  O  O29  1  0.87415900  0.37473300  0.50689700  1
  O  O30  1  0.89048000  0.88186100  0.01551600  1
  O  O31  1  0.88187200  0.87943100  0.50662100  1
  O  O32  1  0.09452700  0.09929800  0.14177400  1
  O  O33  1  0.08396000  0.09191200  0.64240500  1
  O  O34  1  0.09058700  0.60704200  0.14217500  1
  O  O35  1  0.07750400  0.59098500  0.63754500  1
  O  O36  1  0.58947000  0.10572900  0.14285100  1
  O  O37  1  0.57535800  0.08752900  0.63503300  1
  O  O38  1  0.59204100  0.59931700  0.13900100  1
  O  O39  1  0.58363400  0.59760500  0.64216100  1
  O  O40  1  0.43936900  0.40359900  0.35409600  1
  O  O41  1  0.44105200  0.40142500  0.85790600  1
  O  O42  1  0.43820900  0.91482600  0.36198500  1
  O  O43  1  0.44566600  0.90260000  0.85882700  1
  O  O44  1  0.93945900  0.41134900  0.36026700  1
  O  O45  1  0.94242700  0.40022500  0.85823500  1
  O  O46  1  0.94224500  0.90861900  0.35873800  1
  O  O47  1  0.94718100  0.89393900  0.85930200  1
  O  O48  1  0.33473200  0.28315600  0.13824000  1
  O  O49  1  0.33021000  0.29574800  0.63861100  1
  O  O50  1  0.33794300  0.78369300  0.14395500  1
  O  O51  1  0.33085200  0.79674900  0.64028300  1
  O  O52  1  0.83451100  0.28398700  0.14327200  1
  O  O53  1  0.83149900  0.29829800  0.64105200  1
  O  O54  1  0.83960400  0.78585000  0.14279100  1
  O  O55  1  0.83437300  0.79623500  0.64270300  1
  O  O56  1  0.18874900  0.19759700  0.35849200  1
  O  O57  1  0.19419900  0.20790700  0.86269400  1
  O  O58  1  0.18973200  0.70223900  0.35874500  1
  O  O59  1  0.19466600  0.71309700  0.85825200  1
  O  O60  1  0.68561300  0.20405600  0.35936800  1
  O  O61  1  0.68945900  0.20610200  0.85666700  1
  O  O62  1  0.68633800  0.69902900  0.35310500  1
  O  O63  1  0.69951400  0.70521200  0.86081400  1
  O  O64  1  0.42360500  0.05888500  0.24002700  1
  O  O65  1  0.43168400  0.06229300  0.75006500  1
  O  O66  1  0.42292200  0.56195900  0.23976500  1
  O  O67  1  0.43489400  0.56413500  0.75191100  1
  O  O68  1  0.92408000  0.06248900  0.24035300  1
  O  O69  1  0.93307600  0.06366700  0.75222600  1
  O  O70  1  0.92427200  0.55985700  0.24018700  1
  O  O71  1  0.93329800  0.57317200  0.75858900  1
  O  O72  1  0.18117900  0.43772300  0.24740800  1
  O  O73  1  0.18188100  0.44125200  0.75096900  1
  O  O74  1  0.17297300  0.92695400  0.24163200  1
  O  O75  1  0.18205500  0.93622200  0.75881100  1
  O  O76  1  0.67233900  0.42704600  0.24122800  1
  O  O77  1  0.68164900  0.43607400  0.75003400  1
  O  O78  1  0.68283000  0.93919900  0.24938400  1
  O  O79  1  0.68567300  0.93881900  0.75166200  1
loop_
_geom_bond_atom_site_label_1
_geom_bond_atom_site_label_2
_geom_bond_distance
_geom_bond_site_symmetry_2
Ca0 O48 2.370387 1_555
Ca0 O64 2.370565 1_555
Ca0 O10 2.496140 1_545
Ca0 O26 2.502189 1_545
Ca0 O1 2.536995 1_554
Ca0 O32 2.542351 1_555
Ca0 O17 2.573224 1_554
Ca0 O36 2.992608 1_555
Ca1 O50 2.321574 1_555
Ca1 O66 2.357277 1_555
Ca1 O8 2.496824 1_555
Ca1 O19 2.549269 1_554
Ca1 O34 2.552516 1_555
Ca1 O3 2.553099 1_554
Ca1 O24 2.577070 1_555
Ca2 O52 2.340582 1_555
Ca2 O68 2.374289 1_555
Ca2 O14 2.457567 1_545
Ca2 O5 2.530112 1_554
Ca2 O21 2.537027 1_554
Ca2 O30 2.561532 1_545
Ca2 O36 2.614007 1_555
Ca3 O54 2.313756 1_555
Ca3 O70 2.373542 1_555
Ca3 O28 2.486097 1_555
Ca3 O7 2.520826 1_554
Ca3 O12 2.554394 1_555
Ca3 O38 2.585523 1_555
Ca3 O23 2.591756 1_554
Ca3 O34 2.950000 1_655
Ca4 O59 2.355912 1_555
Ca4 O75 2.401750 1_555
Ca4 O1 2.506238 1_565
Ca4 O26 2.550322 1_556
Ca4 O10 2.575872 1_556
Ca4 O17 2.576605 1_565
Ca4 O47 2.614846 1_455
Ca4 O43 2.956809 1_555
Ca5 O34 2.351241 1_555
Ca5 O74 2.377036 1_555
Ca5 O30 2.470990 1_455
Ca5 O23 2.498693 1_454
Ca5 O10 2.536013 1_555
Ca5 O3 2.560157 1_554
Ca5 O54 2.627512 1_455
Ca5 O50 2.953737 1_555
Ca6 O36 2.318247 1_555
Ca6 O76 2.354384 1_555
Ca6 O5 2.492041 1_554
Ca6 O24 2.524527 1_555
Ca6 O12 2.570217 1_555
Ca6 O17 2.574191 1_554
Ca6 O48 2.654222 1_555
Ca6 O52 2.883958 1_555
Ca7 O47 2.349753 1_555
Ca7 O71 2.406495 1_555
Ca7 O23 2.503371 1_555
Ca7 O3 2.540885 1_655
Ca7 O10 2.589142 1_656
Ca7 O30 2.594405 1_556
Ca7 O63 2.611067 1_555
Ca7 O59 2.935646 1_655
Fe0 O11 1.945652 1_555
Fe0 O20 1.947778 1_465
Fe0 O31 1.949700 1_455
Fe0 O0 1.981014 1_565
Fe0 O46 2.229592 1_455
Fe0 O33 2.277705 1_565
Fe1 O22 1.925712 1_455
Fe1 O9 1.963554 1_555
Fe1 O29 2.059387 1_455
Fe1 O2 2.073078 1_555
Fe1 O35 2.187411 1_555
Fe1 O44 2.216487 1_455
Fe2 O24 1.966204 1_555
Fe2 O1 1.975998 1_554
Fe2 O17 1.983343 1_554
Fe2 O8 1.989566 1_555
Fe2 O48 2.152958 1_555
Fe2 O57 2.257839 1_554
Fe3 O25 1.952060 1_555
Fe3 O0 1.961011 1_555
Fe3 O16 1.996271 1_555
Fe3 O9 2.010700 1_555
Fe3 O49 2.207457 1_555
Fe3 O56 2.240179 1_555
Fe4 O32 1.849920 1_555
Fe4 O56 1.919077 1_555
Fe4 O74 1.937384 1_545
Fe4 O68 1.953739 1_455
Fe5 O57 1.884036 1_555
Fe5 O33 1.907454 1_555
Fe5 O75 1.933711 1_545
Fe5 O69 1.940227 1_455
Fe6 O34 1.862808 1_555
Fe6 O58 1.897694 1_555
Fe6 O72 1.934685 1_555
Fe6 O70 1.968892 1_455
Fe7 O59 1.863611 1_555
Fe7 O35 1.924320 1_555
Fe7 O73 1.935892 1_555
Fe7 O71 1.953730 1_455
Fe8 O36 1.853042 1_555
Fe8 O60 1.902452 1_555
Fe8 O78 1.932457 1_545
Fe8 O64 1.965895 1_555
Fe9 O61 1.862946 1_555
Fe9 O79 1.922294 1_545
Fe9 O37 1.924042 1_555
Fe9 O65 1.946915 1_555
Fe10 O38 1.868796 1_555
Fe10 O62 1.882758 1_555
Fe10 O76 1.937227 1_555
Fe10 O66 1.955267 1_555
Fe11 O63 1.869120 1_555
Fe11 O39 1.892973 1_555
Fe11 O77 1.925450 1_555
Fe11 O67 1.950102 1_555
Fe12 O40 1.885082 1_555
Fe12 O48 1.889054 1_555
Fe12 O66 1.930671 1_555
Fe12 O72 1.949661 1_555
Fe13 O41 1.856003 1_555
Fe13 O49 1.913767 1_555
Fe13 O67 1.931560 1_555
Fe13 O73 1.955945 1_555
Fe14 O50 1.860818 1_555
Fe14 O42 1.929632 1_555
Fe14 O64 1.932974 1_565
Fe14 O74 1.951702 1_555
Fe15 O43 1.853990 1_555
Fe15 O51 1.908081 1_555
Fe15 O65 1.935789 1_565
Fe15 O75 1.959959 1_555
Fe16 O52 1.858532 1_555
Fe16 O44 1.924436 1_555
Fe16 O70 1.937264 1_555
Fe16 O76 1.956231 1_555
Fe17 O45 1.858579 1_555
Fe17 O53 1.907800 1_555
Fe17 O71 1.937084 1_555
Fe17 O77 1.944487 1_555
Fe18 O54 1.865015 1_555
Fe18 O46 1.902425 1_555
Fe18 O68 1.935317 1_565
Fe18 O78 1.951255 1_555
Fe19 O47 1.867494 1_555
Fe19 O55 1.880759 1_555
Fe19 O69 1.935162 1_565
Fe19 O79 1.954984 1_555
Co0 O30 1.947734 1_455
Co0 O10 1.951397 1_555
Co0 O21 1.963449 1_464
Co0 O1 1.975931 1_564
Co0 O32 2.220289 1_565
Co0 O47 2.310382 1_454
Co1 O23 1.953107 1_454
Co1 O28 1.969937 1_455
Co1 O3 1.984836 1_554
Co1 O8 1.992269 1_555
Co1 O34 2.230328 1_555
Co1 O45 2.320243 1_454
Co2 O17 1.952005 1_554
Co2 O14 1.964729 1_545
Co2 O5 1.968131 1_554
Co2 O26 1.968557 1_545
Co2 O36 2.247351 1_555
Co2 O43 2.298329 1_544
Co3 O15 1.919167 1_555
Co3 O16 1.926740 1_565
Co3 O27 2.016934 1_555
Co3 O4 2.021248 1_565
Co3 O37 2.161508 1_565
Co3 O42 2.169321 1_555
Co4 O12 1.867613 1_555
Co4 O19 1.883866 1_554
Co4 O24 1.986687 1_555
Co4 O7 2.003591 1_554
Co4 O38 2.092544 1_555
Co4 O41 2.401950 1_554
Co5 O13 1.836528 1_555
Co5 O18 1.847874 1_555
Co5 O6 1.968305 1_555
Co5 O25 2.004491 1_555
Co5 O39 2.252354 1_555
Co5 O40 2.332910 1_555
Co6 O3 1.944515 1_554
Co6 O10 1.960041 1_555
Co6 O26 1.969594 1_555
Co6 O19 2.096255 1_554
Co6 O50 2.267722 1_555
Co6 O59 2.321845 1_554
Co7 O27 1.885996 1_555
Co7 O2 1.892828 1_555
Co7 O11 1.981820 1_555
Co7 O18 2.117754 1_555
Co7 O51 2.233047 1_555
Co7 O58 2.242810 1_555
Co8 O5 1.962329 1_554
Co8 O28 1.986249 1_555
Co8 O21 2.026590 1_554
Co8 O12 2.046509 1_555
Co8 O52 2.224351 1_555
Co8 O61 2.364784 1_554
Co9 O4 1.882760 1_555
Co9 O29 1.896916 1_555
Co9 O20 1.994914 1_555
Co9 O13 2.106993 1_555
Co9 O60 2.228617 1_555
Co9 O53 2.250471 1_555
Co10 O30 1.953200 1_555
Co10 O7 1.970105 1_554
Co10 O23 1.971126 1_554
Co10 O14 1.998168 1_555
Co10 O54 2.237420 1_555
Co10 O63 2.273661 1_554
Co11 O6 1.950148 1_555
Co11 O31 1.967746 1_555
Co11 O22 2.010494 1_555
Co11 O15 2.025690 1_555
Co11 O55 2.279356 1_555
Co11 O62 2.325719 1_555
O0 Sr21 2.626860 1_455
O0 Sr6 2.634029 1_545
O0 Sr0 2.669110 1_555
O0 Sr12 2.674021 1_555
O1 Sr22 2.622770 1_455
O1 Sr11 2.727771 1_556
O2 Sr4 2.631878 1_555
O2 Sr23 2.649794 1_455
O2 Sr1 2.663684 1_555
O2 Sr13 2.723079 1_555
O3 Sr5 2.582888 1_555
O4 Sr17 2.604939 1_555
O4 Sr14 2.614010 1_555
O4 Sr9 2.646345 1_545
O4 Sr2 2.678067 1_555
O5 Sr18 2.572393 1_555
O5 Sr10 2.637816 1_545
O6 Sr7 2.568110 1_555
O6 Sr19 2.585478 1_555
O6 Sr3 2.659862 1_555
O6 Sr16 2.668752 1_555
O7 Sr8 2.563087 1_555
O7 Sr20 2.602180 1_555
O7 Sr15 2.661409 1_556
O8 Sr11 2.596698 1_555
O8 Sr5 2.658562 1_554
O8 Sr22 2.710789 1_454
O9 Sr12 2.623407 1_555
O9 Sr1 2.640193 1_555
O9 Sr4 2.686199 1_555
O9 Sr21 2.695311 1_455
O11 Sr0 2.580108 1_565
O11 Sr13 2.606949 1_555
O11 Sr6 2.684180 1_555
O11 Sr23 2.701552 1_455
O12 Sr18 2.693310 1_554
O12 Sr8 2.698050 1_554
O13 Sr14 2.610782 1_555
O13 Sr3 2.611099 1_555
O13 Sr7 2.662093 1_555
O13 Sr17 2.695256 1_555
O14 Sr15 2.565529 1_555
O14 Sr10 2.635428 1_554
O14 Sr20 2.709260 1_554
O15 Sr2 2.558366 1_565
O15 Sr16 2.570533 1_555
O15 Sr9 2.624226 1_555
O15 Sr19 2.666378 1_555
O16 Sr6 2.585696 1_545
O16 Sr17 2.632208 1_555
O16 Sr0 2.644698 1_555
O16 Sr14 2.658740 1_555
O17 Sr18 2.603488 1_555
O18 Sr4 2.591494 1_555
O18 Sr19 2.642590 1_555
O18 Sr1 2.649443 1_555
O18 Sr16 2.684065 1_555
O19 Sr5 2.585498 1_555
O19 Sr20 2.642999 1_555
O19 Sr15 2.644239 1_556
O20 Sr9 2.600381 1_545
O20 Sr21 2.614079 1_555
O20 Sr12 2.662193 1_655
O20 Sr2 2.671830 1_555
O21 Sr10 2.552940 1_545
O21 Sr22 2.586254 1_555
O21 Sr11 2.605397 1_656
O22 Sr23 2.611048 1_555
O22 Sr7 2.627721 1_555
O22 Sr13 2.667369 1_655
O22 Sr3 2.683329 1_555
O23 Sr8 2.608195 1_555
O24 Sr18 2.729787 1_554
O24 Sr5 2.763820 1_554
O25 Sr1 2.599529 1_555
O25 Sr14 2.601618 1_555
O25 Sr4 2.638757 1_555
O25 Sr17 2.692445 1_555
O26 Sr15 2.591453 1_555
O26 Sr20 2.690175 1_554
O27 Sr16 2.601808 1_555
O27 Sr0 2.621657 1_565
O27 Sr19 2.653259 1_555
O27 Sr6 2.664880 1_555
O28 Sr11 2.583241 1_655
O28 Sr8 2.637426 1_554
O28 Sr22 2.723115 1_554
O29 Sr12 2.625411 1_655
O29 Sr3 2.648825 1_555
O29 Sr7 2.684764 1_555
O29 Sr21 2.698229 1_555
O30 Sr10 2.720741 1_554
O31 Sr13 2.596365 1_655
O31 Sr2 2.620220 1_565
O31 Sr9 2.643759 1_555
O31 Sr23 2.669415 1_555
O32 Sr11 2.454641 1_555
O33 Sr12 2.536537 1_555
O33 Sr0 2.689403 1_555
O33 Sr2 2.907776 1_455
O33 Sr13 3.186472 1_545
O35 Sr13 2.546354 1_555
O35 Sr1 2.726695 1_555
O35 Sr3 2.847805 1_455
O37 Sr14 2.534068 1_555
O37 Sr2 2.669761 1_555
O37 Sr0 2.790942 1_555
O38 Sr15 2.463177 1_555
O39 Sr16 2.503635 1_555
O39 Sr3 2.634960 1_555
O39 Sr1 2.846537 1_555
O40 Sr17 2.522002 1_555
O40 Sr7 2.634978 1_555
O40 Sr4 2.846764 1_555
O41 Sr18 2.485996 1_555
O41 Sr8 2.696704 1_555
O41 Sr5 2.908649 1_555
O42 Sr19 2.581760 1_555
O42 Sr9 2.678608 1_555
O42 Sr6 2.783537 1_555
O42 Sr17 3.145517 1_565
O43 Sr20 2.480349 1_555
O43 Sr10 2.637977 1_555
O44 Sr21 2.578088 1_555
O44 Sr4 2.722828 1_655
O44 Sr7 2.871254 1_555
O44 Sr23 3.181961 1_555
O45 Sr22 2.469633 1_555
O45 Sr5 2.645700 1_655
O45 Sr8 2.890796 1_555
O46 Sr23 2.541199 1_555
O46 Sr6 2.672208 1_655
O46 Sr9 2.906203 1_555
O46 Sr21 3.187002 1_565
O47 Sr10 2.949508 1_555
O48 Sr11 2.966268 1_555
O49 Sr0 2.529577 1_555
O49 Sr14 2.676489 1_555
O49 Sr12 2.875777 1_555
O50 Sr15 2.654868 1_555
O51 Sr1 2.516194 1_555
O51 Sr16 2.724853 1_555
O51 Sr13 2.876974 1_555
O52 Sr11 2.629201 1_655
O53 Sr2 2.553007 1_555
O53 Sr12 2.651178 1_655
O53 Sr14 2.860257 1_555
O54 Sr15 2.956331 1_555
O55 Sr3 2.476141 1_555
O55 Sr13 2.639015 1_655
O55 Sr16 2.847176 1_555
O56 Sr4 2.562011 1_555
O56 Sr17 2.683639 1_555
O56 Sr21 2.865831 1_455
O56 Sr6 3.181119 1_545
O57 Sr5 2.483032 1_555
O57 Sr18 2.677863 1_555
O57 Sr22 2.920217 1_455
O58 Sr6 2.519166 1_555
O58 Sr19 2.719107 1_555
O58 Sr23 2.863640 1_455
O59 Sr20 2.659962 1_555
O60 Sr7 2.526048 1_555
O60 Sr21 2.694423 1_555
O60 Sr17 2.795214 1_555
O61 Sr8 2.510331 1_555
O61 Sr22 2.659265 1_555
O61 Sr18 2.858947 1_555
O62 Sr9 2.527668 1_555
O62 Sr23 2.682489 1_555
O62 Sr19 2.819604 1_555
O63 Sr10 2.502062 1_555
O63 Sr20 2.945610 1_555
O64 Sr17 2.505599 1_555
O65 Sr0 2.433592 1_555
O65 Sr18 2.457675 1_555
O66 Sr19 2.516208 1_555
O67 Sr1 2.441771 1_555
O67 Sr20 2.462888 1_555
O68 Sr21 2.496040 1_555
O69 Sr2 2.456016 1_555
O69 Sr22 2.456463 1_555
O70 Sr23 2.518258 1_555
O71 Sr3 2.510182 1_555
O72 Sr11 2.439109 1_555
O72 Sr4 2.441880 1_555
O73 Sr12 2.456461 1_555
O73 Sr5 2.465524 1_555
O74 Sr6 2.480784 1_555
O75 Sr13 2.503613 1_555
O76 Sr7 2.486768 1_555
O77 Sr14 2.436806 1_555
O77 Sr8 2.455685 1_555
O78 Sr15 2.436521 1_555
O78 Sr9 2.458845 1_555
O79 Sr16 2.450790 1_555
O79 Sr10 2.472647 1_555
