# generated using pymatgen
data_Li3(CoO2)4
_symmetry_space_group_name_H-M   'P 1'
_cell_length_a   5.76897534
_cell_length_b   5.76897534
_cell_length_c   5.69387017
_cell_angle_alpha   62.02485191
_cell_angle_beta   62.02485191
_cell_angle_gamma   92.90703970
_symmetry_Int_Tables_number   1
_chemical_formula_structural   Li3(CoO2)4
_chemical_formula_sum   'Li3 Co4 O8'
_cell_volume   138.60858036
_cell_formula_units_Z   1
loop_
 _symmetry_equiv_pos_site_id
 _symmetry_equiv_pos_as_xyz
  1  'x, y, z'
loop_
 _atom_site_type_symbol
 _atom_site_label
 _atom_site_symmetry_multiplicity
 _atom_site_fract_x
 _atom_site_fract_y
 _atom_site_fract_z
 _atom_site_occupancy
  Li  Li0  1  0.00000000  0.50000000  0.50000000  1
  Li  Li1  1  0.50000000  0.00000000  0.50000000  1
  Li  Li2  1  0.50000000  0.50000000  0.50000000  1
  Co  Co0  1  0.00000000  0.00000000  0.50000000  1
  Co  Co1  1  0.00000000  0.50000000  0.00000000  1
  Co  Co2  1  0.00000000  0.00000000  0.00000000  1
  Co  Co3  1  0.50000000  0.00000000  0.00000000  1
  O  O0  1  0.21125900  0.21125900  0.55170900  1
  O  O1  1  0.22291800  0.77708200  0.00000000  1
  O  O2  1  0.22501500  0.22501500  0.03248000  1
  O  O3  1  0.22492300  0.77507700  0.50000000  1
  O  O4  1  0.77507700  0.22492300  0.50000000  1
  O  O5  1  0.77498500  0.77498500  0.96752000  1
  O  O6  1  0.77708200  0.22291800  0.00000000  1
  O  O7  1  0.78874100  0.78874100  0.44829100  1
loop_
_geom_bond_atom_site_label_1
_geom_bond_atom_site_label_2
_geom_bond_distance
_geom_bond_site_symmetry_2
Li0 O3 1.998282 1_555
Li0 O4 1.998282 1_455
Li0 O6 2.097909 1_456
Li0 O1 2.097909 1_555
Li0 O0 2.104559 1_555
Li0 O7 2.104559 1_455
Li1 O3 1.998282 1_545
Li1 O4 1.998282 1_555
Li1 O1 2.097909 1_546
Li1 O6 2.097909 1_555
Li1 O0 2.104559 1_555
Li1 O7 2.104559 1_545
Li2 O0 2.105800 1_555
Li2 O7 2.105800 1_555
Li2 O5 2.223845 1_554
Li2 O2 2.223845 1_556
Li2 O3 2.300438 1_555
Li2 O4 2.300438 1_555
Co0 O3 1.881006 1_545
Co0 O4 1.881006 1_455
Co0 O7 1.892091 1_445
Co0 O0 1.892091 1_555
Co0 O2 1.949776 1_555
Co0 O5 1.949776 1_445
Co1 O6 2.000111 1_455
Co1 O1 2.000111 1_555
Co1 O3 2.096165 1_554
Co1 O4 2.096165 1_455
Co1 O5 2.096365 1_454
Co1 O2 2.096365 1_555
Co2 O6 1.864238 1_455
Co2 O1 1.864238 1_545
Co2 O7 1.870362 1_445
Co2 O0 1.870362 1_554
Co2 O5 1.919347 1_444
Co2 O2 1.919347 1_555
Co3 O1 2.000111 1_545
Co3 O6 2.000111 1_555
Co3 O4 2.096165 1_554
Co3 O3 2.096165 1_545
Co3 O5 2.096365 1_544
Co3 O2 2.096365 1_555
