# generated using pymatgen
data_BaC2(NO)2
_symmetry_space_group_name_H-M   'P 1'
_cell_length_a   14.18724125
_cell_length_b   14.18724125
_cell_length_c   14.18724149
_cell_angle_alpha   29.32625382
_cell_angle_beta   29.32625382
_cell_angle_gamma   29.32625388
_symmetry_Int_Tables_number   1
_chemical_formula_structural   BaC2(NO)2
_chemical_formula_sum   'Ba6 C12 N12 O12'
_cell_volume   606.17377596
_cell_formula_units_Z   6
loop_
 _symmetry_equiv_pos_site_id
 _symmetry_equiv_pos_as_xyz
  1  'x, y, z'
loop_
 _atom_site_type_symbol
 _atom_site_label
 _atom_site_symmetry_multiplicity
 _atom_site_fract_x
 _atom_site_fract_y
 _atom_site_fract_z
 _atom_site_occupancy
  Ba  Ba0  1  0.14881200  0.14881200  0.14881200  1
  Ba  Ba1  1  0.64881200  0.64881200  0.64881200  1
  Ba  Ba2  1  0.85118800  0.85118800  0.85118800  1
  Ba  Ba3  1  0.35118800  0.35118800  0.35118800  1
  Ba  Ba4  1  0.25000000  0.25000000  0.25000000  1
  Ba  Ba5  1  0.75000000  0.75000000  0.75000000  1
  C  C0  1  0.49666900  0.26089100  0.62601400  1
  C  C1  1  0.62601400  0.49666900  0.26089100  1
  C  C2  1  0.26089100  0.62601400  0.49666900  1
  C  C3  1  0.12601400  0.76089100  0.99666900  1
  C  C4  1  0.99666900  0.12601400  0.76089100  1
  C  C5  1  0.76089100  0.99666900  0.12601400  1
  C  C6  1  0.50333100  0.73910900  0.37398600  1
  C  C7  1  0.37398600  0.50333100  0.73910900  1
  C  C8  1  0.73910900  0.37398600  0.50333100  1
  C  C9  1  0.87398600  0.23910900  0.00333100  1
  C  C10  1  0.00333100  0.87398600  0.23910900  1
  C  C11  1  0.23910900  0.00333100  0.87398600  1
  N  N0  1  0.28819000  0.42396400  0.66938900  1
  N  N1  1  0.66938900  0.28819000  0.42396400  1
  N  N2  1  0.42396400  0.66938900  0.28819000  1
  N  N3  1  0.16938900  0.92396400  0.78819000  1
  N  N4  1  0.78819000  0.16938900  0.92396400  1
  N  N5  1  0.92396400  0.78819000  0.16938900  1
  N  N6  1  0.71181000  0.57603600  0.33061100  1
  N  N7  1  0.33061100  0.71181000  0.57603600  1
  N  N8  1  0.57603600  0.33061100  0.71181000  1
  N  N9  1  0.83061100  0.07603600  0.21181000  1
  N  N10  1  0.21181000  0.83061100  0.07603600  1
  N  N11  1  0.07603600  0.21181000  0.83061100  1
  O  O0  1  0.06778200  0.79206700  0.52995900  1
  O  O1  1  0.52995900  0.06778200  0.79206700  1
  O  O2  1  0.79206700  0.52995900  0.06778200  1
  O  O3  1  0.02995900  0.29206700  0.56778200  1
  O  O4  1  0.56778200  0.02995900  0.29206700  1
  O  O5  1  0.29206700  0.56778200  0.02995900  1
  O  O6  1  0.93221800  0.20793300  0.47004100  1
  O  O7  1  0.47004100  0.93221800  0.20793300  1
  O  O8  1  0.20793300  0.47004100  0.93221800  1
  O  O9  1  0.97004100  0.70793300  0.43221800  1
  O  O10  1  0.43221800  0.97004100  0.70793300  1
  O  O11  1  0.70793300  0.43221800  0.97004100  1
loop_
_geom_bond_atom_site_label_1
_geom_bond_atom_site_label_2
_geom_bond_distance
_geom_bond_site_symmetry_2
Ba0 O0 2.786072 1_545
Ba0 O2 2.786072 1_455
Ba0 O1 2.786072 1_554
Ba0 O8 2.944103 1_554
Ba0 O7 2.944103 1_545
Ba0 O6 2.944103 1_455
Ba0 N1 3.020231 1_455
Ba0 N2 3.020231 1_545
Ba0 N0 3.020231 1_554
Ba1 O5 2.786072 1_556
Ba1 O3 2.786072 1_655
Ba1 O4 2.786072 1_565
Ba1 O9 2.944103 1_555
Ba1 O10 2.944103 1_555
Ba1 O11 2.944103 1_555
Ba1 N4 3.020231 1_555
Ba1 N3 3.020231 1_555
Ba1 N5 3.020231 1_555
Ba2 O6 2.786072 1_565
Ba2 O8 2.786072 1_655
Ba2 O7 2.786072 1_556
Ba2 O2 2.944103 1_556
Ba2 O1 2.944103 1_565
Ba2 O0 2.944103 1_655
Ba2 N7 3.020231 1_655
Ba2 N8 3.020231 1_565
Ba2 N6 3.020231 1_556
Ba3 O11 2.786072 1_554
Ba3 O9 2.786072 1_455
Ba3 O10 2.786072 1_545
Ba3 O3 2.944103 1_555
Ba3 O4 2.944103 1_555
Ba3 O5 2.944103 1_555
Ba3 N10 3.020231 1_555
Ba3 N9 3.020231 1_555
Ba3 N11 3.020231 1_555
Ba4 O5 2.707308 1_555
Ba4 O6 2.707308 1_455
Ba4 O4 2.707308 1_555
Ba4 O7 2.707308 1_545
Ba4 O3 2.707308 1_555
Ba4 O8 2.707308 1_554
Ba5 O0 2.707308 1_655
Ba5 O11 2.707308 1_555
Ba5 O1 2.707308 1_565
Ba5 O10 2.707308 1_555
Ba5 O2 2.707308 1_556
Ba5 O9 2.707308 1_555
C0 O1 1.307125 1_555
C0 N1 1.357392 1_555
C0 N0 1.362476 1_555
C1 O2 1.307125 1_555
C1 N2 1.357392 1_555
C1 N1 1.362476 1_555
C2 O0 1.307125 1_555
C2 N0 1.357392 1_555
C2 N2 1.362476 1_555
C3 O5 1.307125 1_556
C3 N5 1.357392 1_456
C3 N3 1.362476 1_555
C4 O3 1.307125 1_655
C4 N3 1.357392 1_645
C4 N4 1.362476 1_555
C5 O4 1.307125 1_565
C5 N4 1.357392 1_564
C5 N5 1.362476 1_555
C6 O7 1.307125 1_555
C6 N7 1.357392 1_555
C6 N6 1.362476 1_555
C7 O8 1.307125 1_555
C7 N8 1.357392 1_555
C7 N7 1.362476 1_555
C8 O6 1.307125 1_555
C8 N6 1.357392 1_555
C8 N8 1.362476 1_555
C9 O11 1.307125 1_554
C9 N11 1.357392 1_654
C9 N9 1.362476 1_555
C10 O9 1.307125 1_455
C10 N9 1.357392 1_465
C10 N10 1.362476 1_555
C11 O10 1.307125 1_545
C11 N10 1.357392 1_546
C11 N11 1.362476 1_555
