# generated using pymatgen
data_V3Zn(P2O7)2
_symmetry_space_group_name_H-M   'P 1'
_cell_length_a   7.78320800
_cell_length_b   7.44267100
_cell_length_c   9.53749779
_cell_angle_alpha   68.45800371
_cell_angle_beta   90.00000000
_cell_angle_gamma   90.00000000
_symmetry_Int_Tables_number   1
_chemical_formula_structural   V3Zn(P2O7)2
_chemical_formula_sum   'V6 Zn2 P8 O28'
_cell_volume   513.89487174
_cell_formula_units_Z   2
loop_
 _symmetry_equiv_pos_site_id
 _symmetry_equiv_pos_as_xyz
  1  'x, y, z'
loop_
 _atom_site_type_symbol
 _atom_site_label
 _atom_site_symmetry_multiplicity
 _atom_site_fract_x
 _atom_site_fract_y
 _atom_site_fract_z
 _atom_site_occupancy
  V  V0  1  0.12899500  0.81064600  0.52368700  1
  V  V1  1  0.62899500  0.18935400  0.97631300  1
  V  V2  1  0.87100500  0.18935400  0.47631300  1
  V  V3  1  0.37100500  0.81064600  0.02368700  1
  V  V4  1  0.00000000  0.00000000  0.00000000  1
  V  V5  1  0.50000000  0.00000000  0.50000000  1
  Zn  Zn0  1  0.00000000  0.50000000  0.00000000  1
  Zn  Zn1  1  0.50000000  0.50000000  0.50000000  1
  P  P0  1  0.93279900  0.40781200  0.70902400  1
  P  P1  1  0.43279900  0.59218800  0.79097600  1
  P  P2  1  0.06720100  0.59218800  0.29097600  1
  P  P3  1  0.56720100  0.40781200  0.20902400  1
  P  P4  1  0.20895500  0.13728700  0.68551000  1
  P  P5  1  0.70895500  0.86271300  0.81449000  1
  P  P6  1  0.79104500  0.86271300  0.31449000  1
  P  P7  1  0.29104500  0.13728700  0.18551000  1
  O  O0  1  0.37963300  0.19973300  0.59869800  1
  O  O1  1  0.87963300  0.80026700  0.90130200  1
  O  O2  1  0.62036700  0.80026700  0.40130200  1
  O  O3  1  0.12036700  0.19973300  0.09869800  1
  O  O4  1  0.38453600  0.71860900  0.62380600  1
  O  O5  1  0.88453600  0.28139100  0.87619400  1
  O  O6  1  0.61546400  0.28139100  0.37619400  1
  O  O7  1  0.11546400  0.71860900  0.12380600  1
  O  O8  1  0.80474600  0.38117700  0.59674300  1
  O  O9  1  0.30474600  0.61882300  0.90325700  1
  O  O10  1  0.19525400  0.61882300  0.40325700  1
  O  O11  1  0.69525400  0.38117700  0.09674300  1
  O  O12  1  0.11835800  0.33357500  0.67690800  1
  O  O13  1  0.61835800  0.66642500  0.82309200  1
  O  O14  1  0.88164200  0.66642500  0.32309200  1
  O  O15  1  0.38164200  0.33357500  0.17690800  1
  O  O16  1  0.52599800  0.61023200  0.20177600  1
  O  O17  1  0.02599800  0.38976800  0.29822400  1
  O  O18  1  0.47400200  0.38976800  0.79822400  1
  O  O19  1  0.97400200  0.61023200  0.70177600  1
  O  O20  1  0.78030700  0.98159600  0.14513600  1
  O  O21  1  0.28030700  0.01840400  0.35486400  1
  O  O22  1  0.21969300  0.01840400  0.85486400  1
  O  O23  1  0.71969300  0.98159600  0.64513600  1
  O  O24  1  0.41124800  0.04021300  0.10717500  1
  O  O25  1  0.91124800  0.95978700  0.39282500  1
  O  O26  1  0.58875200  0.95978700  0.89282500  1
  O  O27  1  0.08875200  0.04021300  0.60717500  1
loop_
_geom_bond_atom_site_label_1
_geom_bond_atom_site_label_2
_geom_bond_distance
_geom_bond_site_symmetry_2
O0 P4 1.543908 1_555
O0 V5 2.236342 1_555
O0 Zn1 2.283241 1_555
O1 P5 1.543908 1_555
O1 V4 2.236342 1_666
O1 Zn0 2.283241 1_656
O2 P6 1.543908 1_555
O2 V5 2.236342 1_565
O2 Zn1 2.283241 1_555
O3 P7 1.543908 1_555
O3 V4 2.236342 1_555
O3 Zn0 2.283241 1_555
O4 P1 1.570605 1_555
O4 V5 2.184481 1_565
O4 V0 2.203752 1_555
O4 Zn1 2.502004 1_555
O5 P0 1.570605 1_555
O5 V4 2.184481 1_656
O5 V1 2.203752 1_555
O5 Zn0 2.502004 1_656
O6 P3 1.570605 1_555
O6 V5 2.184481 1_555
O6 V2 2.203752 1_555
O6 Zn1 2.502004 1_555
O7 P2 1.570605 1_555
O7 V4 2.184481 1_565
O7 V3 2.203752 1_555
O7 Zn0 2.502004 1_555
O8 P0 1.528173 1_555
O8 V2 2.197210 1_555
O8 Zn1 2.580722 1_555
O9 P1 1.528173 1_555
O9 V3 2.197210 1_556
O9 Zn0 2.580722 1_556
O10 P2 1.528173 1_555
O10 V0 2.197210 1_555
O10 Zn1 2.580722 1_555
O11 P3 1.528173 1_555
O11 V1 2.197210 1_554
O11 Zn0 2.580722 1_655
O12 P4 1.596928 1_555
O12 P0 1.615311 1_455
O13 P5 1.596928 1_555
O13 P1 1.615311 1_555
O14 P6 1.596928 1_555
O14 P2 1.615311 1_655
O15 P7 1.596928 1_555
O15 P3 1.615311 1_555
O16 P3 1.516846 1_555
O16 V3 2.169012 1_555
O17 P2 1.516846 1_555
O17 V2 2.169012 1_455
O18 P1 1.516846 1_555
O18 V1 2.169012 1_555
O19 P0 1.516846 1_555
O19 V0 2.169012 1_655
O20 P6 1.532730 1_555
O20 V1 2.131227 1_564
O20 V4 2.172427 1_665
O21 P7 1.532730 1_555
O21 V0 2.131227 1_545
O21 V5 2.172427 1_555
O22 P4 1.532730 1_555
O22 V3 2.131227 1_546
O22 V4 2.172427 1_556
O23 P5 1.532730 1_555
O23 V2 2.131227 1_565
O23 V5 2.172427 1_565
O24 P7 1.533578 1_555
O24 V1 2.155161 1_554
O24 V3 2.156510 1_545
O25 P6 1.533578 1_555
O25 V0 2.155161 1_655
O25 V2 2.156510 1_565
O26 P5 1.533578 1_555
O26 V3 2.155161 1_556
O26 V1 2.156510 1_565
O27 P4 1.533578 1_555
O27 V2 2.155161 1_455
O27 V0 2.156510 1_545
