# generated using pymatgen
data_VZn2SbO6
_symmetry_space_group_name_H-M   'P 1'
_cell_length_a   7.43651616
_cell_length_b   7.55592936
_cell_length_c   7.76190900
_cell_angle_alpha   89.99859016
_cell_angle_beta   90.00002901
_cell_angle_gamma   89.77277738
_symmetry_Int_Tables_number   1
_chemical_formula_structural   VZn2SbO6
_chemical_formula_sum   'V4 Zn8 Sb4 O24'
_cell_volume   436.13661336
_cell_formula_units_Z   4
loop_
 _symmetry_equiv_pos_site_id
 _symmetry_equiv_pos_as_xyz
  1  'x, y, z'
loop_
 _atom_site_type_symbol
 _atom_site_label
 _atom_site_symmetry_multiplicity
 _atom_site_fract_x
 _atom_site_fract_y
 _atom_site_fract_z
 _atom_site_occupancy
  V  V0  1  0.74998400  0.24999000  0.50002900  1
  V  V1  1  0.24999300  0.74999900  0.00000300  1
  V  V2  1  0.25003100  0.75000000  0.49998000  1
  V  V3  1  0.75000800  0.25000100  0.00004400  1
  Zn  Zn0  1  0.53265100  0.01848000  0.75014900  1
  Zn  Zn1  1  0.03261000  0.51853900  0.74983500  1
  Zn  Zn2  1  0.46739000  0.98146900  0.25015500  1
  Zn  Zn3  1  0.96734700  0.48152600  0.24985500  1
  Zn  Zn4  1  0.02134400  0.99223300  0.74985700  1
  Zn  Zn5  1  0.52131600  0.49228500  0.75011500  1
  Zn  Zn6  1  0.97868500  0.00771100  0.24988400  1
  Zn  Zn7  1  0.47865800  0.50776200  0.25013700  1
  Sb  Sb0  1  0.24999700  0.25000200  0.49999700  1
  Sb  Sb1  1  0.75000500  0.74999900  0.49999700  1
  Sb  Sb2  1  0.24999900  0.25000100  0.99999700  1
  Sb  Sb3  1  0.74999800  0.75000100  0.99999700  1
  O  O0  1  0.72579100  0.85560100  0.25013300  1
  O  O1  1  0.22582600  0.35558700  0.24984200  1
  O  O2  1  0.27417300  0.14441600  0.75015200  1
  O  O3  1  0.77420200  0.64440100  0.74986100  1
  O  O4  1  0.65590500  0.26392200  0.75001500  1
  O  O5  1  0.15596900  0.76394100  0.74998900  1
  O  O6  1  0.34403500  0.73605800  0.25000500  1
  O  O7  1  0.84409600  0.23607600  0.25000100  1
  O  O8  1  0.49865700  0.17522500  0.43350400  1
  O  O9  1  0.99890500  0.67554400  0.43362000  1
  O  O10  1  0.50135900  0.82478100  0.93351200  1
  O  O11  1  0.00104500  0.32443900  0.93361000  1
  O  O12  1  0.49895100  0.17555800  0.06639200  1
  O  O13  1  0.99863500  0.67521700  0.06648700  1
  O  O14  1  0.50110600  0.82446200  0.56637200  1
  O  O15  1  0.00133600  0.32477500  0.56649000  1
  O  O16  1  0.17427900  0.00913100  0.06769300  1
  O  O17  1  0.67405200  0.50934300  0.06791700  1
  O  O18  1  0.82573700  0.99086400  0.56770800  1
  O  O19  1  0.32593600  0.49065100  0.56788500  1
  O  O20  1  0.17406800  0.00934900  0.43210600  1
  O  O21  1  0.67425800  0.50913400  0.43228800  1
  O  O22  1  0.82594400  0.99065800  0.93208300  1
  O  O23  1  0.32571900  0.49086900  0.93230500  1
loop_
_geom_bond_atom_site_label_1
_geom_bond_atom_site_label_2
_geom_bond_distance
_geom_bond_site_symmetry_2
O0 Sb1 2.104577 1_555
O0 Sb3 2.106549 1_554
O0 Zn2 2.140691 1_555
O0 Zn6 2.207931 1_565
O1 Sb2 2.104406 1_554
O1 Sb0 2.106583 1_555
O1 Zn3 2.141447 1_455
O1 Zn7 2.207795 1_555
O2 Sb2 2.104403 1_555
O2 Sb0 2.106589 1_555
O2 Zn0 2.141431 1_555
O2 Zn4 2.207808 1_545
O3 Sb1 2.104555 1_555
O3 Sb3 2.106547 1_555
O3 Zn1 2.140718 1_655
O3 Zn5 2.207904 1_555
O4 Zn5 1.991327 1_555
O4 V0 2.065189 1_555
O4 V3 2.065554 1_556
O4 Zn0 2.071939 1_555
O5 Zn4 1.990997 1_555
O5 V1 2.065253 1_556
O5 V2 2.065318 1_555
O5 Zn1 2.072016 1_555
O6 Zn7 1.991015 1_555
O6 V2 2.064924 1_555
O6 V1 2.065211 1_555
O6 Zn2 2.072064 1_555
O7 Zn6 1.991340 1_555
O7 V3 2.064992 1_555
O7 V0 2.065572 1_555
O7 Zn3 2.071983 1_555
O8 Sb0 1.999186 1_555
O8 V0 2.021707 1_555
O8 Zn2 2.055603 1_545
O9 Sb1 1.999926 1_555
O9 V2 2.019337 1_655
O9 Zn3 2.059501 1_555
O10 Sb3 1.999024 1_555
O10 V1 2.021938 1_556
O10 Zn0 2.055343 1_565
O11 Sb2 2.000274 1_555
O11 V3 2.018826 1_456
O11 Zn1 2.059953 1_555
O12 Sb2 2.000287 1_554
O12 V3 2.018804 1_555
O12 Zn2 2.059826 1_545
O13 Sb3 1.999029 1_554
O13 V1 2.021869 1_655
O13 Zn3 2.055324 1_555
O14 Sb1 1.999932 1_555
O14 V2 2.019062 1_555
O14 Zn0 2.059555 1_565
O15 Sb0 1.999184 1_555
O15 V0 2.021795 1_455
O15 Zn1 2.055631 1_555
O16 Sb2 1.978293 1_554
O16 Zn6 2.028729 1_455
O16 V1 2.101922 1_545
O17 Sb3 1.977765 1_554
O17 Zn7 2.027830 1_555
O17 V3 2.104230 1_555
O18 Sb1 1.978338 1_555
O18 Zn4 2.028567 1_655
O18 V0 2.101911 1_565
O19 Sb0 1.977645 1_555
O19 Zn5 2.027812 1_555
O19 V2 2.104216 1_555
O20 Sb0 1.977658 1_555
O20 Zn6 2.027785 1_455
O20 V2 2.104270 1_545
O21 Sb1 1.978366 1_555
O21 Zn7 2.028541 1_555
O21 V0 2.102105 1_555
O22 Sb3 1.977746 1_555
O22 Zn4 2.027894 1_655
O22 V3 2.104369 1_566
O23 Sb2 1.978270 1_555
O23 Zn5 2.028739 1_555
O23 V1 2.101947 1_556
