# generated using pymatgen
data_Na2CeH2C5O11
_symmetry_space_group_name_H-M   'P 1'
_cell_length_a   11.72302200
_cell_length_b   7.89970200
_cell_length_c   13.05544738
_cell_angle_alpha   64.61922783
_cell_angle_beta   90.00000000
_cell_angle_gamma   90.00000000
_symmetry_Int_Tables_number   1
_chemical_formula_structural   Na2CeH2C5O11
_chemical_formula_sum   'Na8 Ce4 H8 C20 O44'
_cell_volume   1092.34594383
_cell_formula_units_Z   4
loop_
 _symmetry_equiv_pos_site_id
 _symmetry_equiv_pos_as_xyz
  1  'x, y, z'
loop_
 _atom_site_type_symbol
 _atom_site_label
 _atom_site_symmetry_multiplicity
 _atom_site_fract_x
 _atom_site_fract_y
 _atom_site_fract_z
 _atom_site_occupancy
  Na  Na0  1  0.79489200  0.78474000  0.57446200  1
  Na  Na1  1  0.70510800  0.78474000  0.07446200  1
  Na  Na2  1  0.20510800  0.21526000  0.42553800  1
  Na  Na3  1  0.29489200  0.21526000  0.92553800  1
  Na  Na4  1  0.18828000  0.21960600  0.16603500  1
  Na  Na5  1  0.31172000  0.21960600  0.66603500  1
  Na  Na6  1  0.81172000  0.78039400  0.83396500  1
  Na  Na7  1  0.68828000  0.78039400  0.33396500  1
  Ce  Ce0  1  0.81464000  0.29804500  0.82627300  1
  Ce  Ce1  1  0.68536000  0.29804500  0.32627300  1
  Ce  Ce2  1  0.18536000  0.70195500  0.17372700  1
  Ce  Ce3  1  0.31464000  0.70195500  0.67372700  1
  H  H0  1  0.93047700  0.79809100  0.36649600  1
  H  H1  1  0.56952300  0.79809100  0.86649600  1
  H  H2  1  0.06952300  0.20190900  0.63350400  1
  H  H3  1  0.43047700  0.20190900  0.13350400  1
  H  H4  1  0.90954700  0.99384900  0.36524000  1
  H  H5  1  0.59045300  0.99384900  0.86524000  1
  H  H6  1  0.09045300  0.00615100  0.63476000  1
  H  H7  1  0.40954700  0.00615100  0.13476000  1
  C  C0  1  0.02673400  0.08193200  0.00990700  1
  C  C1  1  0.47326600  0.08193200  0.50990700  1
  C  C2  1  0.97326600  0.91806800  0.99009300  1
  C  C3  1  0.52673400  0.91806800  0.49009300  1
  C  C4  1  0.07859600  0.41360600  0.73884400  1
  C  C5  1  0.42140400  0.41360600  0.23884400  1
  C  C6  1  0.92140400  0.58639400  0.26115600  1
  C  C7  1  0.57859600  0.58639400  0.76115600  1
  C  C8  1  0.03204900  0.60441200  0.72711100  1
  C  C9  1  0.46795100  0.60441200  0.22711100  1
  C  C10  1  0.96795100  0.39558800  0.27288900  1
  C  C11  1  0.53204900  0.39558800  0.77288900  1
  C  C12  1  0.75678300  0.38872800  0.55235800  1
  C  C13  1  0.74321700  0.38872800  0.05235800  1
  C  C14  1  0.24321700  0.61127200  0.44764200  1
  C  C15  1  0.25678300  0.61127200  0.94764200  1
  C  C16  1  0.77840300  0.17631300  0.60258800  1
  C  C17  1  0.72159700  0.17631300  0.10258800  1
  C  C18  1  0.22159700  0.82368700  0.39741200  1
  C  C19  1  0.27840300  0.82368700  0.89741200  1
  O  O0  1  0.97777700  0.23842600  0.96633800  1
  O  O1  1  0.52222300  0.23842600  0.46633800  1
  O  O2  1  0.02222300  0.76157400  0.03366200  1
  O  O3  1  0.47777700  0.76157400  0.53366200  1
  O  O4  1  0.11792300  0.04451900  0.06923700  1
  O  O5  1  0.38207700  0.04451900  0.56923700  1
  O  O6  1  0.88207700  0.95548100  0.93076300  1
  O  O7  1  0.61792300  0.95548100  0.43076300  1
  O  O8  1  0.00569200  0.29616600  0.73587700  1
  O  O9  1  0.49430800  0.29616600  0.23587700  1
  O  O10  1  0.99430800  0.70383400  0.26412300  1
  O  O11  1  0.50569200  0.70383400  0.76412300  1
  O  O12  1  0.18544300  0.38919800  0.74785600  1
  O  O13  1  0.31455700  0.38919800  0.24785600  1
  O  O14  1  0.81455700  0.61080200  0.25214400  1
  O  O15  1  0.68544300  0.61080200  0.75214400  1
  O  O16  1  0.92601600  0.61294200  0.74580200  1
  O  O17  1  0.57398400  0.61294200  0.24580200  1
  O  O18  1  0.07398400  0.38705800  0.25419800  1
  O  O19  1  0.42601600  0.38705800  0.75419800  1
  O  O20  1  0.10222700  0.73965000  0.69736800  1
  O  O21  1  0.39777300  0.73965000  0.19736800  1
  O  O22  1  0.89777300  0.26035000  0.30263200  1
  O  O23  1  0.60222700  0.26035000  0.80263200  1
  O  O24  1  0.78153000  0.47083000  0.61400700  1
  O  O25  1  0.71847000  0.47083000  0.11400700  1
  O  O26  1  0.21847000  0.52917000  0.38599300  1
  O  O27  1  0.28153000  0.52917000  0.88599300  1
  O  O28  1  0.71723000  0.46653700  0.45270100  1
  O  O29  1  0.78277000  0.46653700  0.95270100  1
  O  O30  1  0.28277000  0.53346300  0.54729900  1
  O  O31  1  0.21723000  0.53346300  0.04729900  1
  O  O32  1  0.79753800  0.09478000  0.70840400  1
  O  O33  1  0.70246200  0.09478000  0.20840400  1
  O  O34  1  0.20246200  0.90522000  0.29159600  1
  O  O35  1  0.29753800  0.90522000  0.79159600  1
  O  O36  1  0.77613300  0.10162400  0.53396000  1
  O  O37  1  0.72386700  0.10162400  0.03396000  1
  O  O38  1  0.22386700  0.89837600  0.46604000  1
  O  O39  1  0.27613300  0.89837600  0.96604000  1
  O  O40  1  0.88691200  0.86116600  0.40450800  1
  O  O41  1  0.61308800  0.86116600  0.90450800  1
  O  O42  1  0.11308800  0.13883400  0.59549200  1
  O  O43  1  0.38691200  0.13883400  0.09549200  1
loop_
_geom_bond_atom_site_label_1
_geom_bond_atom_site_label_2
_geom_bond_distance
_geom_bond_site_symmetry_2
Na0 O40 2.302826 1_555
Na0 O24 2.311480 1_555
Na0 O36 2.336597 1_565
Na0 O15 2.486551 1_555
Na0 O16 2.570223 1_555
Na0 O7 2.733792 1_555
Na1 O41 2.302826 1_554
Na1 O25 2.311480 1_555
Na1 O37 2.336597 1_565
Na1 O14 2.486551 1_555
Na1 O17 2.570223 1_555
Na1 O6 2.733792 1_554
Na2 O42 2.302826 1_555
Na2 O26 2.311480 1_555
Na2 O38 2.336597 1_545
Na2 O13 2.486551 1_555
Na2 O18 2.570223 1_555
Na2 O5 2.733792 1_555
Na3 O43 2.302826 1_556
Na3 O27 2.311480 1_555
Na3 O39 2.336597 1_545
Na3 O12 2.486551 1_555
Na3 O19 2.570223 1_555
Na3 O4 2.733792 1_556
Na4 O31 2.317465 1_555
Na4 O34 2.322234 1_545
Na4 O4 2.385126 1_555
Na4 O18 2.485003 1_555
Na4 O13 2.520755 1_555
Na4 O43 2.679799 1_555
Na5 O30 2.317465 1_555
Na5 O35 2.322234 1_545
Na5 O5 2.385126 1_555
Na5 O19 2.485003 1_555
Na5 O12 2.520755 1_555
Na5 O42 2.679799 1_555
Na6 O29 2.317465 1_555
Na6 O32 2.322234 1_565
Na6 O6 2.385126 1_555
Na6 O16 2.485003 1_555
Na6 O15 2.520755 1_555
Na6 O41 2.679799 1_555
Na7 O28 2.317465 1_555
Na7 O33 2.322234 1_565
Na7 O7 2.385126 1_555
Na7 O17 2.485003 1_555
Na7 O14 2.520755 1_555
Na7 O40 2.679799 1_555
Ce0 O8 2.534621 1_655
Ce0 O24 2.539838 1_555
Ce0 O23 2.542328 1_555
Ce0 O0 2.546534 1_555
Ce0 O29 2.553238 1_555
Ce0 O6 2.577692 1_545
Ce0 O16 2.599270 1_555
Ce0 O32 2.665490 1_555
Ce0 O15 2.699084 1_555
Ce0 O37 2.699122 1_556
Ce1 O9 2.534621 1_555
Ce1 O25 2.539838 1_555
Ce1 O22 2.542328 1_555
Ce1 O1 2.546534 1_555
Ce1 O28 2.553238 1_555
Ce1 O7 2.577692 1_545
Ce1 O17 2.599270 1_555
Ce1 O33 2.665490 1_555
Ce1 O14 2.699084 1_555
Ce1 O36 2.699122 1_555
Ce2 O10 2.534621 1_455
Ce2 O26 2.539838 1_555
Ce2 O21 2.542328 1_555
Ce2 O2 2.546534 1_555
Ce2 O31 2.553238 1_555
Ce2 O4 2.577692 1_565
Ce2 O18 2.599270 1_555
Ce2 O34 2.665490 1_555
Ce2 O13 2.699084 1_555
Ce2 O39 2.699122 1_554
Ce3 O11 2.534621 1_555
Ce3 O27 2.539838 1_555
Ce3 O20 2.542328 1_555
Ce3 O3 2.546534 1_555
Ce3 O30 2.553238 1_555
Ce3 O5 2.577692 1_565
Ce3 O19 2.599270 1_555
Ce3 O35 2.665490 1_555
Ce3 O12 2.699084 1_555
Ce3 O38 2.699122 1_555
H0 O40 0.983546 1_555
H1 O41 0.983546 1_555
H2 O42 0.983546 1_555
H3 O43 0.983546 1_555
H4 O40 0.985502 1_555
H5 O41 0.985502 1_555
H6 O42 0.985502 1_555
H7 O43 0.985502 1_555
C0 O0 1.256359 1_454
C0 O4 1.278224 1_555
C1 O1 1.256359 1_555
C1 O5 1.278224 1_555
C2 O2 1.256359 1_656
C2 O6 1.278224 1_555
C3 O3 1.256359 1_555
C3 O7 1.278224 1_555
C4 O12 1.265110 1_555
C4 O8 1.274145 1_555
C5 O13 1.265110 1_555
C5 O9 1.274145 1_555
C6 O14 1.265110 1_555
C6 O10 1.274145 1_555
C7 O15 1.265110 1_555
C7 O11 1.274145 1_555
C8 O20 1.270171 1_555
C8 O16 1.274087 1_455
C9 O21 1.270171 1_555
C9 O17 1.274087 1_555
C10 O22 1.270171 1_555
C10 O18 1.274087 1_655
C11 O23 1.270171 1_555
C11 O19 1.274087 1_555
C12 O28 1.264918 1_555
C12 O24 1.264957 1_555
C13 O29 1.264918 1_554
C13 O25 1.264957 1_555
C14 O30 1.264918 1_555
C14 O26 1.264957 1_555
C15 O31 1.264918 1_556
C15 O27 1.264957 1_555
C16 O36 1.266798 1_555
C16 O32 1.269195 1_555
C17 O37 1.266798 1_555
C17 O33 1.269195 1_555
C18 O38 1.266798 1_555
C18 O34 1.269195 1_555
C19 O39 1.266798 1_555
C19 O35 1.269195 1_555
