# generated using pymatgen
data_Mn5B2P
_symmetry_space_group_name_H-M   'P 1'
_cell_length_a   6.49367350
_cell_length_b   6.49367350
_cell_length_c   6.49337255
_cell_angle_alpha   129.51265617
_cell_angle_beta   129.51265617
_cell_angle_gamma   74.20130705
_symmetry_Int_Tables_number   1
_chemical_formula_structural   Mn5B2P
_chemical_formula_sum   'Mn10 B4 P2'
_cell_volume   158.87605147
_cell_formula_units_Z   2
loop_
 _symmetry_equiv_pos_site_id
 _symmetry_equiv_pos_as_xyz
  1  'x, y, z'
loop_
 _atom_site_type_symbol
 _atom_site_label
 _atom_site_symmetry_multiplicity
 _atom_site_fract_x
 _atom_site_fract_y
 _atom_site_fract_z
 _atom_site_occupancy
  Mn  Mn0  1  0.19094946  0.69094946  0.15959079  1
  Mn  Mn1  1  0.46875862  0.96875862  0.15968191  1
  Mn  Mn2  1  0.00000536  0.00000691  -0.00000070  1
  Mn  Mn3  1  0.50000691  0.50000536  -0.00000070  1
  Mn  Mn4  1  0.53124262  0.03124262  0.84032375  1
  Mn  Mn5  1  0.03127211  0.19099921  0.50000557  1
  Mn  Mn6  1  0.69099921  0.53127211  0.50000557  1
  Mn  Mn7  1  0.96872783  0.80898940  0.49998996  1
  Mn  Mn8  1  0.30898940  0.46872783  0.49998996  1
  Mn  Mn9  1  0.80905044  0.30905044  0.84040412  1
  B  B0  1  0.88177098  0.38177098  0.26350793  1
  B  B1  1  0.38175036  0.11824919  0.50000035  1
  B  B2  1  0.61824919  0.88175036  0.50000035  1
  B  B3  1  0.11822674  0.61822674  0.73649091  1
  P  P0  1  0.75004300  0.74995879  0.00000512  1
  P  P1  1  0.24995879  0.25004300  0.00000512  1
loop_
_geom_bond_atom_site_label_1
_geom_bond_atom_site_label_2
_geom_bond_distance
_geom_bond_site_symmetry_2
Mn0 P1 2.355957 1_555
Mn0 P0 2.355957 1_455
Mn1 P0 2.356334 1_555
Mn1 P1 2.356334 1_565
Mn2 P1 2.589518 1_555
Mn2 P0 2.589687 1_445
Mn3 P0 2.589518 1_555
Mn3 P1 2.589687 1_555
Mn4 P1 2.356348 1_556
Mn4 P0 2.356348 1_546
Mn5 P0 2.355690 1_445
Mn5 P1 2.355870 1_556
Mn6 P1 2.355690 1_555
Mn6 P0 2.355870 1_556
Mn7 P1 2.355751 1_666
Mn7 P0 2.355835 1_555
Mn8 P0 2.355751 1_556
Mn8 P1 2.355835 1_555
Mn9 P1 2.355944 1_656
Mn9 P0 2.355944 1_556
B0 B3 1.852025 1_655
B0 Mn8 2.168385 1_655
B0 Mn7 2.168385 1_555
B0 Mn6 2.168926 1_555
B0 Mn5 2.168926 1_655
B0 Mn9 2.194004 1_554
B0 Mn4 2.194547 1_554
B0 Mn3 2.213707 1_555
B0 Mn2 2.213707 1_655
B1 B2 1.852777 1_545
B1 Mn0 2.168552 1_545
B1 Mn9 2.168561 1_555
B1 Mn1 2.169162 1_545
B1 Mn4 2.169180 1_555
B1 Mn5 2.194878 1_555
B1 Mn8 2.194893 1_555
B1 Mn3 2.213223 1_556
B1 Mn2 2.213236 1_555
B2 Mn0 2.168552 1_555
B2 Mn9 2.168561 1_565
B2 Mn1 2.169162 1_555
B2 Mn4 2.169180 1_565
B2 Mn6 2.194878 1_555
B2 Mn7 2.194893 1_555
B2 Mn2 2.213223 1_666
B2 Mn3 2.213236 1_555
B3 Mn6 2.168430 1_455
B3 Mn5 2.168430 1_555
B3 Mn8 2.168892 1_555
B3 Mn7 2.168892 1_455
B3 Mn0 2.193964 1_556
B3 Mn1 2.194568 1_556
B3 Mn3 2.213717 1_556
B3 Mn2 2.213717 1_566
