# generated using pymatgen
data_SmNiSb2
_symmetry_space_group_name_H-M   'P 1'
_cell_length_a   4.37069834
_cell_length_b   4.37069834
_cell_length_c   9.62710047
_cell_angle_alpha   90.00000000
_cell_angle_beta   90.00000000
_cell_angle_gamma   90.00000000
_symmetry_Int_Tables_number   1
_chemical_formula_structural   SmNiSb2
_chemical_formula_sum   'Sm2 Ni2 Sb4'
_cell_volume   183.90653859
_cell_formula_units_Z   2
loop_
 _symmetry_equiv_pos_site_id
 _symmetry_equiv_pos_as_xyz
  1  'x, y, z'
loop_
 _atom_site_type_symbol
 _atom_site_label
 _atom_site_symmetry_multiplicity
 _atom_site_fract_x
 _atom_site_fract_y
 _atom_site_fract_z
 _atom_site_occupancy
  Sm  Sm0  1  -0.00000000  0.50000000  0.74087218  1
  Sm  Sm1  1  0.50000000  -0.00000000  0.25912782  1
  Ni  Ni0  1  0.50000000  0.50000000  0.50000000  1
  Ni  Ni1  1  -0.00000000  0.00000000  0.50000000  1
  Sb  Sb0  1  0.50000000  0.50000000  -0.00000000  1
  Sb  Sb1  1  -0.00000000  -0.00000000  0.00000000  1
  Sb  Sb2  1  -0.00000000  0.50000000  0.36737279  1
  Sb  Sb3  1  0.50000000  -0.00000000  0.63262721  1
loop_
_geom_bond_atom_site_label_1
_geom_bond_atom_site_label_2
_geom_bond_distance
_geom_bond_site_symmetry_2
Ni0 Sb2 2.531009 1_655
Ni0 Sb3 2.531009 1_555
Ni0 Sb3 2.531009 1_565
Ni0 Sb2 2.531009 1_555
Ni0 Sm1 3.186385 1_555
Ni0 Sm0 3.186385 1_555
Ni0 Sm0 3.186385 1_655
Ni0 Sm1 3.186385 1_565
Ni1 Sb3 2.531009 1_555
Ni1 Sb2 2.531009 1_545
Ni1 Sb2 2.531009 1_555
Ni1 Sb3 2.531009 1_455
Ni1 Sm1 3.186385 1_555
Ni1 Sm1 3.186385 1_455
Ni1 Sm0 3.186385 1_555
Ni1 Sm0 3.186385 1_545
Sb0 Sb1 3.090550 1_565
Sb0 Sb1 3.090550 1_655
Sb0 Sb1 3.090550 1_555
Sb0 Sb1 3.090550 1_665
Sb0 Sm0 3.316478 1_554
Sb0 Sm1 3.316478 1_555
Sb0 Sm0 3.316478 1_654
Sb0 Sm1 3.316478 1_565
Sb1 Sm0 3.316478 1_554
Sb1 Sm1 3.316478 1_555
Sb1 Sm1 3.316478 1_455
Sb1 Sm0 3.316478 1_544
Sb2 Sm1 3.261509 1_465
Sb2 Sm1 3.261509 1_555
Sb2 Sm1 3.261509 1_565
Sb2 Sm1 3.261509 1_455
Sb3 Sm0 3.261509 1_645
Sb3 Sm0 3.261509 1_555
Sb3 Sm0 3.261509 1_545
Sb3 Sm0 3.261509 1_655
