# generated using pymatgen
data_Pr4MnS7
_symmetry_space_group_name_H-M   'P 1'
_cell_length_a   9.87243121
_cell_length_b   9.87243121
_cell_length_c   7.10047900
_cell_angle_alpha   90.00000000
_cell_angle_beta   90.00000000
_cell_angle_gamma   119.99999472
_symmetry_Int_Tables_number   1
_chemical_formula_structural   Pr4MnS7
_chemical_formula_sum   'Pr8 Mn2 S14'
_cell_volume   599.33071444
_cell_formula_units_Z   2
loop_
 _symmetry_equiv_pos_site_id
 _symmetry_equiv_pos_as_xyz
  1  'x, y, z'
loop_
 _atom_site_type_symbol
 _atom_site_label
 _atom_site_symmetry_multiplicity
 _atom_site_fract_x
 _atom_site_fract_y
 _atom_site_fract_z
 _atom_site_occupancy
  Pr  Pr0  1  0.80202400  0.17992300  0.22438000  1
  Pr  Pr1  1  0.37789900  0.19797600  0.22438000  1
  Pr  Pr2  1  0.82007700  0.62210100  0.22438000  1
  Pr  Pr3  1  0.19797600  0.82007700  0.72438000  1
  Pr  Pr4  1  0.62210100  0.80202400  0.72438000  1
  Pr  Pr5  1  0.17992300  0.37789900  0.72438000  1
  Pr  Pr6  1  0.66666700  0.33333300  0.67751300  1
  Pr  Pr7  1  0.33333300  0.66666700  0.17751300  1
  Mn  Mn0  1  0.00000000  0.00000000  0.97875500  1
  Mn  Mn1  1  0.00000000  0.00000000  0.47875500  1
  S  S0  1  0.87224500  0.12006900  0.82896200  1
  S  S1  1  0.24782500  0.12775500  0.82896200  1
  S  S2  1  0.87993100  0.75217500  0.82896200  1
  S  S3  1  0.12775500  0.87993100  0.32896200  1
  S  S4  1  0.75217500  0.87224500  0.32896200  1
  S  S5  1  0.12006900  0.24782500  0.32896200  1
  S  S6  1  0.92720700  0.45639600  0.45972900  1
  S  S7  1  0.52918900  0.07279300  0.45972900  1
  S  S8  1  0.54360400  0.47081100  0.45972900  1
  S  S9  1  0.07279300  0.54360400  0.95972900  1
  S  S10  1  0.47081100  0.92720700  0.95972900  1
  S  S11  1  0.45639600  0.52918900  0.95972900  1
  S  S12  1  0.66666700  0.33333300  0.05757600  1
  S  S13  1  0.33333300  0.66666700  0.55757600  1
loop_
_geom_bond_atom_site_label_1
_geom_bond_atom_site_label_2
_geom_bond_distance
_geom_bond_site_symmetry_2
Pr0 S12 2.739735 1_555
Pr0 S7 2.884013 1_555
Pr0 S6 2.897692 1_555
Pr0 S4 2.919820 1_545
Pr0 S5 2.958851 1_655
Pr0 S0 3.020323 1_554
Pr1 S12 2.739743 1_555
Pr1 S8 2.884013 1_555
Pr1 S7 2.897692 1_555
Pr1 S5 2.919829 1_555
Pr1 S3 2.958854 1_545
Pr1 S1 3.020320 1_554
Pr2 S12 2.739743 1_555
Pr2 S6 2.884013 1_555
Pr2 S8 2.897692 1_555
Pr2 S3 2.919823 1_655
Pr2 S4 2.958860 1_555
Pr2 S2 3.020320 1_554
Pr3 S13 2.739735 1_555
Pr3 S10 2.884013 1_555
Pr3 S9 2.897692 1_555
Pr3 S1 2.919820 1_565
Pr3 S2 2.958851 1_455
Pr3 S3 3.020323 1_555
Pr4 S13 2.739743 1_555
Pr4 S11 2.884013 1_555
Pr4 S10 2.897692 1_555
Pr4 S2 2.919829 1_555
Pr4 S0 2.958854 1_565
Pr4 S4 3.020320 1_555
Pr5 S13 2.739743 1_555
Pr5 S9 2.884013 1_555
Pr5 S11 2.897692 1_555
Pr5 S0 2.919823 1_455
Pr5 S1 2.958860 1_555
Pr5 S5 3.020320 1_555
Pr6 S12 2.698629 1_556
Pr6 S6 2.712627 1_555
Pr6 S7 2.712627 1_555
Pr6 S8 2.712634 1_555
Pr7 S13 2.698629 1_555
Pr7 S9 2.712627 1_554
Pr7 S10 2.712627 1_554
Pr7 S11 2.712634 1_554
Mn0 S0 2.371112 1_455
Mn0 S1 2.371119 1_555
Mn0 S2 2.371119 1_445
Mn1 S3 2.371112 1_545
Mn1 S4 2.371119 1_445
Mn1 S5 2.371119 1_555
