# generated using pymatgen
data_Mg16Al12Zn
_symmetry_space_group_name_H-M   'P 1'
_cell_length_a   9.10382013
_cell_length_b   9.10382013
_cell_length_c   9.10382013
_cell_angle_alpha   109.47122063
_cell_angle_beta   109.47122063
_cell_angle_gamma   109.47122063
_symmetry_Int_Tables_number   1
_chemical_formula_structural   Mg16Al12Zn
_chemical_formula_sum   'Mg16 Al12 Zn1'
_cell_volume   580.83009951
_cell_formula_units_Z   1
loop_
 _symmetry_equiv_pos_site_id
 _symmetry_equiv_pos_as_xyz
  1  'x, y, z'
loop_
 _atom_site_type_symbol
 _atom_site_label
 _atom_site_symmetry_multiplicity
 _atom_site_fract_x
 _atom_site_fract_y
 _atom_site_fract_z
 _atom_site_occupancy
  Mg  Mg0  1  0.00000000  0.33085800  0.00000000  1
  Mg  Mg1  1  0.33085800  0.00000000  0.00000000  1
  Mg  Mg2  1  0.31312600  0.59867100  0.00000000  1
  Mg  Mg3  1  0.59867100  0.31312600  0.00000000  1
  Mg  Mg4  1  0.40132900  0.40132900  0.71445500  1
  Mg  Mg5  1  0.68687400  0.28554500  0.68687400  1
  Mg  Mg6  1  0.28554500  0.68687400  0.68687400  1
  Mg  Mg7  1  0.66914200  0.66914200  0.66914200  1
  Mg  Mg8  1  0.31312600  0.00000000  0.59867100  1
  Mg  Mg9  1  0.00000000  0.31312600  0.59867100  1
  Mg  Mg10  1  0.40132900  0.71445500  0.40132900  1
  Mg  Mg11  1  0.71445500  0.40132900  0.40132900  1
  Mg  Mg12  1  0.00000000  0.00000000  0.33085800  1
  Mg  Mg13  1  0.00000000  0.59867100  0.31312600  1
  Mg  Mg14  1  0.59867100  0.00000000  0.31312600  1
  Mg  Mg15  1  0.68687400  0.68687400  0.28554500  1
  Al  Al0  1  0.81427900  0.63161400  0.00000000  1
  Al  Al1  1  0.63161400  0.81427900  0.00000000  1
  Al  Al2  1  0.18572100  0.18572100  0.81733500  1
  Al  Al3  1  0.63161400  0.00000000  0.81427900  1
  Al  Al4  1  0.00000000  0.63161400  0.81427900  1
  Al  Al5  1  0.00000000  0.81427900  0.63161400  1
  Al  Al6  1  0.81427900  0.00000000  0.63161400  1
  Al  Al7  1  0.18266500  0.36838600  0.36838600  1
  Al  Al8  1  0.36838600  0.18266500  0.36838600  1
  Al  Al9  1  0.18572100  0.81733500  0.18572100  1
  Al  Al10  1  0.81733500  0.18572100  0.18572100  1
  Al  Al11  1  0.36838600  0.36838600  0.18266500  1
  Zn  Zn0  1  0.00000000  0.00000000  0.00000000  1
loop_
_geom_bond_atom_site_label_1
_geom_bond_atom_site_label_2
_geom_bond_distance
_geom_bond_site_symmetry_2
Mg0 Zn0 3.012072 1_555
Mg0 Mg2 3.071990 1_555
Mg0 Mg13 3.071990 1_555
Mg0 Mg5 3.071990 1_454
Mg1 Zn0 3.012072 1_555
Mg1 Mg14 3.071990 1_555
Mg1 Mg3 3.071990 1_555
Mg1 Mg6 3.071990 1_544
Mg2 Mg4 3.141644 1_554
Mg2 Mg9 3.165003 1_554
Mg2 Mg6 3.165003 1_554
Mg3 Mg4 3.141644 1_554
Mg3 Mg5 3.165003 1_554
Mg3 Mg8 3.165003 1_554
Mg4 Mg7 3.071990 1_555
Mg4 Mg8 3.165003 1_555
Mg4 Mg5 3.165003 1_555
Mg4 Mg6 3.165003 1_555
Mg4 Mg9 3.165003 1_555
Mg5 Mg8 3.141644 1_555
Mg5 Mg9 3.165003 1_655
Mg6 Mg9 3.141644 1_555
Mg6 Mg8 3.165003 1_565
Mg7 Zn0 3.012072 1_666
Mg10 Mg7 3.071990 1_555
Mg10 Mg14 3.141644 1_565
Mg10 Mg8 3.141644 1_565
Mg10 Mg2 3.165003 1_555
Mg10 Mg6 3.165003 1_555
Mg10 Mg15 3.165003 1_555
Mg10 Mg13 3.165003 1_555
Mg11 Mg7 3.071990 1_555
Mg11 Mg9 3.141644 1_655
Mg11 Mg13 3.141644 1_655
Mg11 Mg14 3.165003 1_555
Mg11 Mg5 3.165003 1_555
Mg11 Mg15 3.165003 1_555
Mg11 Mg3 3.165003 1_555
Mg12 Zn0 3.012072 1_555
Mg12 Mg9 3.071990 1_555
Mg12 Mg8 3.071990 1_555
Mg12 Mg15 3.071990 1_445
Mg13 Mg6 3.141644 1_555
Mg13 Mg3 3.165003 1_455
Mg13 Mg8 3.165003 1_565
Mg13 Mg15 3.165003 1_455
Mg14 Mg5 3.141644 1_555
Mg14 Mg9 3.165003 1_655
Mg14 Mg15 3.165003 1_545
Mg14 Mg2 3.165003 1_545
Mg15 Mg3 3.141644 1_555
Mg15 Mg2 3.141644 1_555
Al0 Al1 2.715585 1_555
Al0 Al4 2.761017 1_654
Al0 Al9 2.761017 1_655
Al0 Mg3 2.909555 1_555
Al0 Mg5 2.961356 1_554
Al0 Mg13 2.961356 1_655
Al0 Mg7 3.044486 1_554
Al0 Mg12 3.044486 1_665
Al0 Mg15 3.143772 1_555
Al0 Mg4 3.143772 1_554
Al1 Al10 2.761017 1_565
Al1 Al3 2.761017 1_564
Al1 Mg2 2.909555 1_555
Al1 Mg6 2.961356 1_554
Al1 Mg14 2.961356 1_565
Al1 Mg7 3.044486 1_554
Al1 Mg12 3.044486 1_665
Al1 Mg4 3.143772 1_554
Al1 Mg15 3.143772 1_555
Al2 Al6 2.761017 1_455
Al2 Al5 2.761017 1_545
Al2 Mg4 2.909555 1_555
Al2 Mg9 2.961356 1_555
Al2 Mg8 2.961356 1_555
Al2 Mg1 3.044486 1_556
Al2 Mg0 3.044486 1_556
Al2 Mg3 3.143772 1_556
Al2 Mg2 3.143772 1_556
Al3 Al6 2.715585 1_555
Al3 Mg8 2.909555 1_555
Al3 Mg3 2.961356 1_556
Al3 Mg6 2.961356 1_545
Al3 Mg0 3.044486 1_656
Al3 Mg7 3.044486 1_545
Al3 Mg5 3.143772 1_555
Al3 Mg10 3.143772 1_545
Al4 Al5 2.715585 1_555
Al4 Al9 2.761017 1_556
Al4 Mg9 2.909555 1_555
Al4 Mg2 2.961356 1_556
Al4 Mg5 2.961356 1_455
Al4 Mg7 3.044486 1_455
Al4 Mg1 3.044486 1_566
Al4 Mg6 3.143772 1_555
Al4 Mg11 3.143772 1_455
Al5 Al6 2.761017 1_465
Al5 Mg13 2.909555 1_555
Al5 Mg8 2.961356 1_565
Al5 Mg15 2.961356 1_455
Al5 Mg1 3.044486 1_566
Al5 Mg7 3.044486 1_455
Al5 Mg11 3.143772 1_455
Al5 Mg6 3.143772 1_555
Al6 Mg14 2.909555 1_555
Al6 Mg9 2.961356 1_655
Al6 Mg15 2.961356 1_545
Al6 Mg0 3.044486 1_656
Al6 Mg7 3.044486 1_545
Al6 Mg10 3.143772 1_545
Al6 Mg5 3.143772 1_555
Al7 Al8 2.761017 1_555
Al7 Mg6 2.909555 1_555
Al7 Mg10 2.961356 1_555
Al7 Mg4 2.961356 1_555
Al7 Mg12 3.044486 1_555
Al7 Mg0 3.044486 1_555
Al7 Mg9 3.143772 1_555
Al7 Mg13 3.143772 1_555
Al8 Al9 2.715585 1_545
Al8 Mg5 2.909555 1_555
Al8 Mg11 2.961356 1_555
Al8 Mg4 2.961356 1_555
Al8 Mg12 3.044486 1_555
Al8 Mg1 3.044486 1_555
Al8 Mg8 3.143772 1_555
Al8 Mg14 3.143772 1_555
Al9 Mg10 2.909555 1_555
Al9 Mg2 2.961356 1_555
Al9 Mg13 2.961356 1_555
Al9 Mg12 3.044486 1_565
Al9 Mg1 3.044486 1_565
Al9 Mg14 3.143772 1_565
Al9 Mg8 3.143772 1_565
Al10 Al7 2.715585 1_655
Al10 Al3 2.761017 1_554
Al10 Mg11 2.909555 1_555
Al10 Mg14 2.961356 1_555
Al10 Mg3 2.961356 1_555
Al10 Mg12 3.044486 1_655
Al10 Mg0 3.044486 1_655
Al10 Mg9 3.143772 1_655
Al10 Mg13 3.143772 1_655
Al11 Al2 2.715585 1_554
Al11 Al7 2.761017 1_555
Al11 Al8 2.761017 1_555
Al11 Mg15 2.909555 1_555
Al11 Mg10 2.961356 1_555
Al11 Mg11 2.961356 1_555
Al11 Mg0 3.044486 1_555
Al11 Mg1 3.044486 1_555
Al11 Mg2 3.143772 1_555
Al11 Mg3 3.143772 1_555
