# generated using pymatgen
data_Dy4Mo4O11
_symmetry_space_group_name_H-M   'P 1'
_cell_length_a   10.86679500
_cell_length_b   16.12480800
_cell_length_c   5.75625800
_cell_angle_alpha   90.00000000
_cell_angle_beta   90.00000000
_cell_angle_gamma   90.00000000
_symmetry_Int_Tables_number   1
_chemical_formula_structural   Dy4Mo4O11
_chemical_formula_sum   'Dy16 Mo16 O44'
_cell_volume   1008.64020991
_cell_formula_units_Z   4
loop_
 _symmetry_equiv_pos_site_id
 _symmetry_equiv_pos_as_xyz
  1  'x, y, z'
loop_
 _atom_site_type_symbol
 _atom_site_label
 _atom_site_symmetry_multiplicity
 _atom_site_fract_x
 _atom_site_fract_y
 _atom_site_fract_z
 _atom_site_occupancy
  Dy  Dy0  1  0.61637400  0.57629800  0.00000000  1
  Dy  Dy1  1  0.38362600  0.42370200  0.00000000  1
  Dy  Dy2  1  0.11637400  0.92370200  0.00000000  1
  Dy  Dy3  1  0.88362600  0.07629800  0.00000000  1
  Dy  Dy4  1  0.40615500  0.73729800  0.00000000  1
  Dy  Dy5  1  0.59384500  0.26270200  0.00000000  1
  Dy  Dy6  1  0.90615500  0.76270200  0.00000000  1
  Dy  Dy7  1  0.09384500  0.23729800  0.00000000  1
  Dy  Dy8  1  0.42455200  0.59882500  0.50000000  1
  Dy  Dy9  1  0.57544800  0.40117500  0.50000000  1
  Dy  Dy10  1  0.92455200  0.90117500  0.50000000  1
  Dy  Dy11  1  0.07544800  0.09882500  0.50000000  1
  Dy  Dy12  1  0.18524800  0.77805900  0.50000000  1
  Dy  Dy13  1  0.81475200  0.22194100  0.50000000  1
  Dy  Dy14  1  0.68524800  0.72194100  0.50000000  1
  Dy  Dy15  1  0.31475200  0.27805900  0.50000000  1
  Mo  Mo0  1  0.91707200  0.55999000  0.00000000  1
  Mo  Mo1  1  0.08292800  0.44001000  0.00000000  1
  Mo  Mo2  1  0.41707200  0.94001000  0.00000000  1
  Mo  Mo3  1  0.58292800  0.05999000  0.00000000  1
  Mo  Mo4  1  0.90257100  0.57177700  0.50000000  1
  Mo  Mo5  1  0.09742900  0.42822300  0.50000000  1
  Mo  Mo6  1  0.40257100  0.92822300  0.50000000  1
  Mo  Mo7  1  0.59742900  0.07177700  0.50000000  1
  Mo  Mo8  1  0.85866100  0.41076900  0.27437100  1
  Mo  Mo9  1  0.14133900  0.58923100  0.27437100  1
  Mo  Mo10  1  0.35866100  0.08923100  0.72562900  1
  Mo  Mo11  1  0.64133900  0.91076900  0.72562900  1
  Mo  Mo12  1  0.14133900  0.58923100  0.72562900  1
  Mo  Mo13  1  0.85866100  0.41076900  0.72562900  1
  Mo  Mo14  1  0.64133900  0.91076900  0.27437100  1
  Mo  Mo15  1  0.35866100  0.08923100  0.27437100  1
  O  O0  1  0.00000000  0.00000000  0.24544700  1
  O  O1  1  0.50000000  0.50000000  0.75455300  1
  O  O2  1  0.00000000  0.00000000  0.75455300  1
  O  O3  1  0.50000000  0.50000000  0.24544700  1
  O  O4  1  0.23149000  0.52344400  0.00000000  1
  O  O5  1  0.76851000  0.47655600  0.00000000  1
  O  O6  1  0.73149000  0.97655600  0.00000000  1
  O  O7  1  0.26851000  0.02344400  0.00000000  1
  O  O8  1  0.04841700  0.65404500  0.00000000  1
  O  O9  1  0.95158300  0.34595500  0.00000000  1
  O  O10  1  0.54841700  0.84595500  0.00000000  1
  O  O11  1  0.45158300  0.15404500  0.00000000  1
  O  O12  1  0.24682700  0.51233500  0.50000000  1
  O  O13  1  0.75317300  0.48766500  0.50000000  1
  O  O14  1  0.74682700  0.98766500  0.50000000  1
  O  O15  1  0.25317300  0.01233500  0.50000000  1
  O  O16  1  0.03918600  0.66651400  0.50000000  1
  O  O17  1  0.96081400  0.33348600  0.50000000  1
  O  O18  1  0.31116300  0.86156600  0.76313500  1
  O  O19  1  0.46081400  0.16651400  0.50000000  1
  O  O20  1  0.95842400  0.17164200  0.24747800  1
  O  O21  1  0.04157600  0.82835800  0.24747800  1
  O  O22  1  0.45842400  0.32835800  0.75252200  1
  O  O23  1  0.54157600  0.67164200  0.75252200  1
  O  O24  1  0.04157600  0.82835800  0.75252200  1
  O  O25  1  0.95842400  0.17164200  0.75252200  1
  O  O26  1  0.54157600  0.67164200  0.24747800  1
  O  O27  1  0.45842400  0.32835800  0.24747800  1
  O  O28  1  0.68883700  0.13843400  0.23686500  1
  O  O29  1  0.31116300  0.86156600  0.23686500  1
  O  O30  1  0.18883700  0.36156600  0.76313500  1
  O  O31  1  0.81116300  0.63843400  0.76313500  1
  O  O32  1  0.22021100  0.17722300  0.26444900  1
  O  O33  1  0.77978900  0.82277700  0.26444900  1
  O  O34  1  0.72021100  0.32277700  0.73555100  1
  O  O35  1  0.27978900  0.67722300  0.73555100  1
  O  O36  1  0.77978900  0.82277700  0.73555100  1
  O  O37  1  0.22021100  0.17722300  0.73555100  1
  O  O38  1  0.27978900  0.67722300  0.26444900  1
  O  O39  1  0.72021100  0.32277700  0.26444900  1
  O  O40  1  0.18883700  0.36156600  0.23686500  1
  O  O41  1  0.81116300  0.63843400  0.23686500  1
  O  O42  1  0.68883700  0.13843400  0.76313500  1
  O  O43  1  0.53918600  0.83348600  0.50000000  1
loop_
_geom_bond_atom_site_label_1
_geom_bond_atom_site_label_2
_geom_bond_distance
_geom_bond_site_symmetry_2
Dy0 O26 2.248024 1_555
Dy0 O23 2.248024 1_554
Dy0 O3 2.260315 1_555
Dy0 O1 2.260315 1_554
Dy0 O5 2.306484 1_555
Dy0 O31 2.709877 1_554
Dy0 O41 2.709877 1_555
Dy1 O27 2.248024 1_555
Dy1 O22 2.248024 1_554
Dy1 O3 2.260315 1_555
Dy1 O1 2.260315 1_554
Dy1 O4 2.306484 1_555
Dy1 O30 2.709877 1_554
Dy1 O40 2.709877 1_555
Dy2 O21 2.248024 1_555
Dy2 O24 2.248024 1_554
Dy2 O0 2.260315 1_565
Dy2 O2 2.260315 1_564
Dy2 O7 2.306484 1_565
Dy2 O29 2.709877 1_555
Dy2 O18 2.709877 1_554
Dy3 O20 2.248024 1_555
Dy3 O25 2.248024 1_554
Dy3 O0 2.260315 1_655
Dy3 O2 2.260315 1_654
Dy3 O6 2.306484 1_545
Dy3 O28 2.709877 1_555
Dy3 O42 2.709877 1_554
Dy4 O35 2.267430 1_554
Dy4 O38 2.267430 1_555
Dy4 O26 2.305590 1_555
Dy4 O23 2.305590 1_554
Dy4 O10 2.336593 1_555
Dy4 O29 2.634345 1_555
Dy4 O18 2.634345 1_554
Dy5 O39 2.267430 1_555
Dy5 O34 2.267430 1_554
Dy5 O27 2.305590 1_555
Dy5 O22 2.305590 1_554
Dy5 O11 2.336593 1_555
Dy5 O28 2.634345 1_555
Dy5 O42 2.634345 1_554
Dy6 O33 2.267430 1_555
Dy6 O36 2.267430 1_554
Dy6 O21 2.305590 1_655
Dy6 O24 2.305590 1_654
Dy6 O8 2.336593 1_655
Dy6 O31 2.634345 1_554
Dy6 O41 2.634345 1_555
Dy7 O32 2.267430 1_555
Dy7 O37 2.267430 1_554
Dy7 O20 2.305590 1_455
Dy7 O25 2.305590 1_454
Dy7 O9 2.336593 1_455
Dy7 O40 2.634345 1_555
Dy7 O30 2.634345 1_554
Dy8 O23 2.260246 1_555
Dy8 O26 2.260246 1_555
Dy8 O1 2.314860 1_555
Dy8 O3 2.314860 1_555
Dy8 O12 2.382211 1_555
Dy8 O35 2.431296 1_555
Dy8 O38 2.431296 1_555
Dy9 O22 2.260246 1_555
Dy9 O27 2.260246 1_555
Dy9 O1 2.314860 1_555
Dy9 O3 2.314860 1_555
Dy9 O13 2.382211 1_555
Dy9 O34 2.431296 1_555
Dy9 O39 2.431296 1_555
Dy10 O24 2.260246 1_655
Dy10 O21 2.260246 1_655
Dy10 O2 2.314860 1_665
Dy10 O0 2.314860 1_665
Dy10 O14 2.382211 1_555
Dy10 O36 2.431296 1_555
Dy10 O33 2.431296 1_555
Dy11 O25 2.260246 1_455
Dy11 O20 2.260246 1_455
Dy11 O2 2.314860 1_555
Dy11 O0 2.314860 1_555
Dy11 O15 2.382211 1_555
Dy11 O37 2.431296 1_555
Dy11 O32 2.431296 1_555
Dy12 O24 2.282156 1_555
Dy12 O21 2.282156 1_555
Dy12 O35 2.353223 1_555
Dy12 O38 2.353223 1_555
Dy12 O16 2.398833 1_555
Dy12 O18 2.445325 1_555
Dy12 O29 2.445325 1_555
Dy13 O25 2.282156 1_555
Dy13 O20 2.282156 1_555
Dy13 O34 2.353223 1_555
Dy13 O39 2.353223 1_555
Dy13 O17 2.398833 1_555
Dy13 O42 2.445325 1_555
Dy13 O28 2.445325 1_555
Dy14 O23 2.282156 1_555
Dy14 O26 2.282156 1_555
Dy14 O33 2.353223 1_555
Dy14 O36 2.353223 1_555
Dy14 O43 2.398833 1_555
Dy14 O41 2.445325 1_555
Dy14 O31 2.445325 1_555
Dy15 O22 2.282156 1_555
Dy15 O27 2.282156 1_555
Dy15 O37 2.353223 1_555
Dy15 O32 2.353223 1_555
Dy15 O19 2.398833 1_555
Dy15 O30 2.445325 1_555
Dy15 O40 2.445325 1_555
Mo0 O8 2.082622 1_655
Mo0 O5 2.101488 1_555
Mo0 O31 2.187126 1_554
Mo0 O41 2.187126 1_555
Mo1 O9 2.082622 1_455
Mo1 O4 2.101488 1_555
Mo1 O40 2.187126 1_555
Mo1 O30 2.187126 1_554
Mo2 O10 2.082622 1_555
Mo2 O7 2.101488 1_565
Mo2 O18 2.187126 1_554
Mo2 O29 2.187126 1_555
Mo3 O11 2.082622 1_555
Mo3 O6 2.101488 1_545
Mo3 O42 2.187126 1_554
Mo3 O28 2.187126 1_555
Mo4 O31 2.106221 1_555
Mo4 O41 2.106221 1_555
Mo4 O13 2.115467 1_555
Mo4 O16 2.130153 1_655
Mo5 O40 2.106221 1_555
Mo5 O30 2.106221 1_555
Mo5 O12 2.115467 1_555
Mo5 O17 2.130153 1_455
Mo6 O18 2.106221 1_555
Mo6 O29 2.106221 1_555
Mo6 O15 2.115467 1_565
Mo6 O43 2.130153 1_555
Mo7 O28 2.106221 1_555
Mo7 O42 2.106221 1_555
Mo7 O14 2.115467 1_545
Mo7 O19 2.130153 1_555
Mo8 O39 2.068805 1_555
Mo8 O17 2.114720 1_555
Mo8 O13 2.130329 1_555
Mo8 O5 2.139946 1_555
Mo8 O9 2.146214 1_555
Mo9 O38 2.068805 1_555
Mo9 O16 2.114720 1_555
Mo9 O12 2.130329 1_555
Mo9 O4 2.139946 1_555
Mo9 O8 2.146214 1_555
Mo10 O37 2.068805 1_555
Mo10 O19 2.114720 1_555
Mo10 O15 2.130329 1_555
Mo10 O7 2.139946 1_556
Mo10 O11 2.146214 1_556
Mo11 O36 2.068805 1_555
Mo11 O43 2.114720 1_555
Mo11 O14 2.130329 1_555
Mo11 O6 2.139946 1_556
Mo11 O10 2.146214 1_556
Mo12 O35 2.068805 1_555
Mo12 O16 2.114720 1_555
Mo12 O12 2.130329 1_555
Mo12 O4 2.139946 1_556
Mo12 O8 2.146214 1_556
Mo13 O34 2.068805 1_555
Mo13 O17 2.114720 1_555
Mo13 O13 2.130329 1_555
Mo13 O5 2.139946 1_556
Mo13 O9 2.146214 1_556
Mo14 O33 2.068805 1_555
Mo14 O43 2.114720 1_555
Mo14 O14 2.130329 1_555
Mo14 O6 2.139946 1_555
Mo14 O10 2.146214 1_555
Mo15 O32 2.068805 1_555
Mo15 O19 2.114720 1_555
Mo15 O15 2.130329 1_555
Mo15 O7 2.139946 1_555
Mo15 O11 2.146214 1_555
