# generated using pymatgen
data_Pr9Ga5Se21
_symmetry_space_group_name_H-M   'P 1'
_cell_length_a   12.34003252
_cell_length_b   12.34003252
_cell_length_c   12.34003254
_cell_angle_alpha   96.15945099
_cell_angle_beta   96.15945099
_cell_angle_gamma   96.15945166
_symmetry_Int_Tables_number   1
_chemical_formula_structural   Pr9Ga5Se21
_chemical_formula_sum   'Pr18 Ga10 Se42'
_cell_volume   1843.99756697
_cell_formula_units_Z   2
loop_
 _symmetry_equiv_pos_site_id
 _symmetry_equiv_pos_as_xyz
  1  'x, y, z'
loop_
 _atom_site_type_symbol
 _atom_site_label
 _atom_site_symmetry_multiplicity
 _atom_site_fract_x
 _atom_site_fract_y
 _atom_site_fract_z
 _atom_site_occupancy
  Pr  Pr0  1  0.11534300  0.88173400  0.74466100  1
  Pr  Pr1  1  0.45505600  0.22154300  0.08127800  1
  Pr  Pr2  1  0.78166600  0.55198500  0.40960500  1
  Pr  Pr3  1  0.40960500  0.78166600  0.55198500  1
  Pr  Pr4  1  0.74466100  0.11534300  0.88173400  1
  Pr  Pr5  1  0.08127800  0.45505600  0.22154300  1
  Pr  Pr6  1  0.22154300  0.08127800  0.45505600  1
  Pr  Pr7  1  0.55198500  0.40960500  0.78166600  1
  Pr  Pr8  1  0.88173400  0.74466100  0.11534300  1
  Pr  Pr9  1  0.21275400  0.44468900  0.58333100  1
  Pr  Pr10  1  0.55027900  0.78288900  0.92439100  1
  Pr  Pr11  1  0.88036400  0.11215800  0.25198500  1
  Pr  Pr12  1  0.92439100  0.55027900  0.78288900  1
  Pr  Pr13  1  0.25198500  0.88036400  0.11215800  1
  Pr  Pr14  1  0.58333100  0.21275400  0.44468900  1
  Pr  Pr15  1  0.11215800  0.25198500  0.88036400  1
  Pr  Pr16  1  0.44468900  0.58333100  0.21275400  1
  Pr  Pr17  1  0.78288900  0.92439100  0.55027900  1
  Ga  Ga0  1  0.72199400  0.38878200  0.05466100  1
  Ga  Ga1  1  0.05466100  0.72199400  0.38878200  1
  Ga  Ga2  1  0.38878200  0.05466100  0.72199400  1
  Ga  Ga3  1  0.88799500  0.22286500  0.55470100  1
  Ga  Ga4  1  0.22286500  0.55470100  0.88799500  1
  Ga  Ga5  1  0.55470100  0.88799500  0.22286500  1
  Ga  Ga6  1  0.85303100  0.85303100  0.85303100  1
  Ga  Ga7  1  0.15401800  0.15401800  0.15401800  1
  Ga  Ga8  1  0.65376500  0.65376500  0.65376500  1
  Ga  Ga9  1  0.35301500  0.35301500  0.35301500  1
  Se  Se0  1  0.55163100  0.39476100  0.30335900  1
  Se  Se1  1  0.88555900  0.74243000  0.65335800  1
  Se  Se2  1  0.22977600  0.08071300  0.98518200  1
  Se  Se3  1  0.98518200  0.22977600  0.08071300  1
  Se  Se4  1  0.30335900  0.55163100  0.39476100  1
  Se  Se5  1  0.65335800  0.88555900  0.74243000  1
  Se  Se6  1  0.74243000  0.65335800  0.88555900  1
  Se  Se7  1  0.08071300  0.98518200  0.22977600  1
  Se  Se8  1  0.39476100  0.30335900  0.55163100  1
  Se  Se9  1  0.13538000  0.27919700  0.36717700  1
  Se  Se10  1  0.46713300  0.61596100  0.71208900  1
  Se  Se11  1  0.78144000  0.93847100  0.02974800  1
  Se  Se12  1  0.71208900  0.46713300  0.61596100  1
  Se  Se13  1  0.02974800  0.78144000  0.93847100  1
  Se  Se14  1  0.36717700  0.13538000  0.27919700  1
  Se  Se15  1  0.93847100  0.02974800  0.78144000  1
  Se  Se16  1  0.27919700  0.36717700  0.13538000  1
  Se  Se17  1  0.61596100  0.71208900  0.46713300  1
  Se  Se18  1  0.54080100  0.44857800  0.02134600  1
  Se  Se19  1  0.87413900  0.78157900  0.35862000  1
  Se  Se20  1  0.20501000  0.11009800  0.69589900  1
  Se  Se21  1  0.69589900  0.20501000  0.11009800  1
  Se  Se22  1  0.02134600  0.54080100  0.44857800  1
  Se  Se23  1  0.35862000  0.87413900  0.78157900  1
  Se  Se24  1  0.78157900  0.35862000  0.87413900  1
  Se  Se25  1  0.11009800  0.69589900  0.20501000  1
  Se  Se26  1  0.44857800  0.02134600  0.54080100  1
  Se  Se27  1  0.96825300  0.06417400  0.47941900  1
  Se  Se28  1  0.30171900  0.39413800  0.81441800  1
  Se  Se29  1  0.63436300  0.72563700  0.15459500  1
  Se  Se30  1  0.81441800  0.30171900  0.39413800  1
  Se  Se31  1  0.15459500  0.63436300  0.72563700  1
  Se  Se32  1  0.47941900  0.96825300  0.06417400  1
  Se  Se33  1  0.72563700  0.15459500  0.63436300  1
  Se  Se34  1  0.06417400  0.47941900  0.96825300  1
  Se  Se35  1  0.39413800  0.81441800  0.30171900  1
  Se  Se36  1  0.84641500  0.51544500  0.18131600  1
  Se  Se37  1  0.18131600  0.84641500  0.51544500  1
  Se  Se38  1  0.51544500  0.18131600  0.84641500  1
  Se  Se39  1  0.68085800  0.01589800  0.34656400  1
  Se  Se40  1  0.01589800  0.34656400  0.68085800  1
  Se  Se41  1  0.34656400  0.68085800  0.01589800  1
loop_
_geom_bond_atom_site_label_1
_geom_bond_atom_site_label_2
_geom_bond_distance
_geom_bond_site_symmetry_2
Pr0 Se23 3.000777 1_555
Pr0 Se37 3.026396 1_555
Pr0 Se15 3.032491 1_465
Pr0 Se13 3.043679 1_555
Pr0 Se20 3.060272 1_565
Pr0 Se31 3.129824 1_555
Pr0 Se1 3.180810 1_455
Pr0 Se2 3.691203 1_565
Pr1 Se21 2.986607 1_555
Pr1 Se14 3.024836 1_555
Pr1 Se16 3.045501 1_555
Pr1 Se38 3.071730 1_554
Pr1 Se18 3.080911 1_555
Pr1 Se2 3.157234 1_554
Pr1 Se32 3.158805 1_545
Pr1 Se0 3.315864 1_555
Pr2 Se22 2.965583 1_655
Pr2 Se36 3.010895 1_555
Pr2 Se12 3.027591 1_555
Pr2 Se17 3.076684 1_555
Pr2 Se19 3.093186 1_555
Pr2 Se30 3.145667 1_555
Pr2 Se0 3.318832 1_555
Pr2 Se1 3.636368 1_555
Pr3 Se26 2.965583 1_565
Pr3 Se37 3.010895 1_555
Pr3 Se17 3.027591 1_555
Pr3 Se10 3.076684 1_555
Pr3 Se23 3.093186 1_555
Pr3 Se35 3.145667 1_555
Pr3 Se4 3.318832 1_555
Pr3 Se5 3.636368 1_555
Pr4 Se24 3.000777 1_555
Pr4 Se38 3.026396 1_555
Pr4 Se11 3.032491 1_546
Pr4 Se15 3.043679 1_555
Pr4 Se21 3.060272 1_556
Pr4 Se33 3.129824 1_555
Pr4 Se5 3.180810 1_545
Pr4 Se3 3.691203 1_556
Pr5 Se25 2.986607 1_555
Pr5 Se16 3.024836 1_555
Pr5 Se9 3.045501 1_555
Pr5 Se36 3.071730 1_455
Pr5 Se22 3.080911 1_555
Pr5 Se3 3.157234 1_455
Pr5 Se34 3.158805 1_554
Pr5 Se4 3.315864 1_555
Pr6 Se20 2.986607 1_555
Pr6 Se9 3.024836 1_555
Pr6 Se14 3.045501 1_555
Pr6 Se37 3.071730 1_545
Pr6 Se26 3.080911 1_555
Pr6 Se7 3.157234 1_545
Pr6 Se27 3.158805 1_455
Pr6 Se8 3.315864 1_555
Pr7 Se18 2.965583 1_556
Pr7 Se38 3.010895 1_555
Pr7 Se10 3.027591 1_555
Pr7 Se12 3.076684 1_555
Pr7 Se24 3.093186 1_555
Pr7 Se28 3.145667 1_555
Pr7 Se8 3.318832 1_555
Pr7 Se6 3.636368 1_555
Pr8 Se19 3.000777 1_555
Pr8 Se36 3.026396 1_555
Pr8 Se13 3.032491 1_654
Pr8 Se11 3.043679 1_555
Pr8 Se25 3.060272 1_655
Pr8 Se29 3.129824 1_555
Pr8 Se6 3.180810 1_554
Pr8 Se7 3.691203 1_655
Pr9 Se31 2.970868 1_555
Pr9 Se8 3.020215 1_555
Pr9 Se40 3.020679 1_555
Pr9 Se4 3.050736 1_555
Pr9 Se28 3.095640 1_555
Pr9 Se22 3.151544 1_555
Pr9 Se9 3.172224 1_555
Pr9 Se10 3.691943 1_555
Pr10 Se32 2.979656 1_556
Pr10 Se5 3.023663 1_555
Pr10 Se6 3.049539 1_555
Pr10 Se41 3.068357 1_556
Pr10 Se29 3.098536 1_556
Pr10 Se10 3.157675 1_555
Pr10 Se23 3.173352 1_555
Pr10 Se11 3.317606 1_556
Pr11 Se30 3.007563 1_555
Pr11 Se3 3.014724 1_555
Pr11 Se39 3.020046 1_555
Pr11 Se27 3.040524 1_555
Pr11 Se7 3.086603 1_645
Pr11 Se21 3.113673 1_555
Pr11 Se11 3.326193 1_545
Pr11 Se9 3.632048 1_655
Pr12 Se34 2.979656 1_655
Pr12 Se6 3.023663 1_555
Pr12 Se1 3.049539 1_555
Pr12 Se40 3.068357 1_655
Pr12 Se31 3.098536 1_655
Pr12 Se12 3.157675 1_555
Pr12 Se24 3.173352 1_555
Pr12 Se13 3.317606 1_655
Pr13 Se35 3.007563 1_555
Pr13 Se7 3.014724 1_555
Pr13 Se41 3.020046 1_555
Pr13 Se32 3.040524 1_555
Pr13 Se2 3.086603 1_564
Pr13 Se25 3.113673 1_555
Pr13 Se13 3.326193 1_554
Pr13 Se14 3.632048 1_565
Pr14 Se33 2.970868 1_555
Pr14 Se0 3.020215 1_555
Pr14 Se39 3.020679 1_555
Pr14 Se8 3.050736 1_555
Pr14 Se30 3.095640 1_555
Pr14 Se26 3.151544 1_555
Pr14 Se14 3.172224 1_555
Pr14 Se12 3.691943 1_555
Pr15 Se28 3.007563 1_555
Pr15 Se2 3.014724 1_555
Pr15 Se40 3.020046 1_555
Pr15 Se34 3.040524 1_555
Pr15 Se3 3.086603 1_456
Pr15 Se20 3.113673 1_555
Pr15 Se15 3.326193 1_455
Pr15 Se16 3.632048 1_556
Pr16 Se29 2.970868 1_555
Pr16 Se4 3.020215 1_555
Pr16 Se41 3.020679 1_555
Pr16 Se0 3.050736 1_555
Pr16 Se35 3.095640 1_555
Pr16 Se18 3.151544 1_555
Pr16 Se16 3.172224 1_555
Pr16 Se17 3.691943 1_555
Pr17 Se27 2.979656 1_565
Pr17 Se1 3.023663 1_555
Pr17 Se5 3.049539 1_555
Pr17 Se39 3.068357 1_565
Pr17 Se33 3.098536 1_565
Pr17 Se17 3.157675 1_555
Pr17 Se19 3.173352 1_555
Pr17 Se15 3.317606 1_565
Ga0 Se36 2.385156 1_555
Ga0 Se24 2.423608 1_554
Ga0 Se18 2.436133 1_555
Ga0 Se21 2.436771 1_555
Ga1 Se37 2.385156 1_555
Ga1 Se19 2.423608 1_455
Ga1 Se22 2.436133 1_555
Ga1 Se25 2.436771 1_555
Ga2 Se38 2.385156 1_555
Ga2 Se23 2.423608 1_545
Ga2 Se26 2.436133 1_555
Ga2 Se20 2.436771 1_555
Ga3 Se40 2.385480 1_655
Ga3 Se27 2.429375 1_555
Ga3 Se30 2.431921 1_555
Ga3 Se33 2.434802 1_555
Ga4 Se41 2.385480 1_556
Ga4 Se34 2.429375 1_555
Ga4 Se28 2.431921 1_555
Ga4 Se31 2.434802 1_555
Ga5 Se39 2.385480 1_565
Ga5 Se32 2.429375 1_555
Ga5 Se35 2.431921 1_555
Ga5 Se29 2.434802 1_555
Ga6 Se15 2.601423 1_565
Ga6 Se11 2.601423 1_556
Ga6 Se13 2.601423 1_655
Ga6 Se6 2.775457 1_555
Ga6 Se1 2.775457 1_555
Ga6 Se5 2.775457 1_555
Ga7 Se7 2.495589 1_545
Ga7 Se2 2.495589 1_554
Ga7 Se3 2.495589 1_455
Ga7 Se16 2.948239 1_555
Ga7 Se14 2.948239 1_555
Ga7 Se9 2.948239 1_555
Ga8 Se10 2.497365 1_555
Ga8 Se17 2.497365 1_555
Ga8 Se12 2.497365 1_555
Ga8 Se1 2.951508 1_555
Ga8 Se5 2.951508 1_555
Ga8 Se6 2.951508 1_555
Ga9 Se0 2.601340 1_555
Ga9 Se8 2.601340 1_555
Ga9 Se4 2.601340 1_555
Ga9 Se9 2.771784 1_555
Ga9 Se14 2.771784 1_555
Ga9 Se16 2.771784 1_555
