# generated using pymatgen
data_Mg5Bi
_symmetry_space_group_name_H-M   'P 1'
_cell_length_a   6.26088026
_cell_length_b   6.26088026
_cell_length_c   6.26087962
_cell_angle_alpha   53.36280372
_cell_angle_beta   53.36280372
_cell_angle_gamma   53.36280932
_symmetry_Int_Tables_number   1
_chemical_formula_structural   Mg5Bi
_chemical_formula_sum   'Mg5 Bi1'
_cell_volume   146.57265007
_cell_formula_units_Z   1
loop_
 _symmetry_equiv_pos_site_id
 _symmetry_equiv_pos_as_xyz
  1  'x, y, z'
loop_
 _atom_site_type_symbol
 _atom_site_label
 _atom_site_symmetry_multiplicity
 _atom_site_fract_x
 _atom_site_fract_y
 _atom_site_fract_z
 _atom_site_occupancy
  Mg  Mg0  1  0.00000000  0.66821300  0.33178700  1
  Mg  Mg1  1  0.16702500  0.16702500  0.16702500  1
  Mg  Mg2  1  0.33178700  0.00000000  0.66821300  1
  Mg  Mg3  1  0.66821300  0.33178700  0.00000000  1
  Mg  Mg4  1  0.83297500  0.83297500  0.83297500  1
  Bi  Bi0  1  0.50000000  0.50000000  0.50000000  1
loop_
_geom_bond_atom_site_label_1
_geom_bond_atom_site_label_2
_geom_bond_distance
_geom_bond_site_symmetry_2
Mg0 Mg2 3.231169 1_564
Mg0 Mg3 3.231170 1_465
Mg0 Mg3 3.253784 1_456
Mg0 Mg2 3.253785 1_465
Mg0 Mg2 3.253785 1_555
Mg0 Mg3 3.253785 1_555
Mg0 Mg4 3.265488 1_455
Mg0 Mg1 3.265489 1_555
Mg0 Mg4 3.267438 1_454
Mg0 Mg1 3.267438 1_565
Mg1 Mg4 3.246249 1_445
Mg1 Mg4 3.246249 1_544
Mg1 Mg4 3.246249 1_454
Mg1 Mg2 3.265488 1_555
Mg1 Mg3 3.265489 1_555
Mg1 Mg2 3.267438 1_554
Mg1 Mg3 3.267438 1_455
Mg2 Mg3 3.231170 1_456
Mg2 Mg3 3.253784 1_555
Mg2 Mg3 3.253785 1_546
Mg2 Mg4 3.265489 1_545
Mg2 Mg4 3.267438 1_445
Mg3 Mg4 3.265489 1_554
Mg3 Mg4 3.267438 1_544
Bi0 Mg4 3.246234 1_554
Bi0 Mg1 3.246234 1_556
Bi0 Mg4 3.246234 1_455
Bi0 Mg4 3.246234 1_545
Bi0 Mg1 3.246234 1_655
Bi0 Mg1 3.246234 1_565
Bi0 Mg3 3.270197 1_556
Bi0 Mg3 3.270197 1_555
Bi0 Mg0 3.270198 1_655
Bi0 Mg2 3.270198 1_555
Bi0 Mg2 3.270198 1_565
Bi0 Mg0 3.270198 1_555
