# generated using pymatgen
data_Cs4PbI6
_symmetry_space_group_name_H-M   'P 1'
_cell_length_a   10.51985858
_cell_length_b   10.51985858
_cell_length_c   10.51985901
_cell_angle_alpha   89.06940100
_cell_angle_beta   89.06940100
_cell_angle_gamma   89.06939724
_symmetry_Int_Tables_number   1
_chemical_formula_structural   Cs4PbI6
_chemical_formula_sum   'Cs8 Pb2 I12'
_cell_volume   1163.74996014
_cell_formula_units_Z   2
loop_
 _symmetry_equiv_pos_site_id
 _symmetry_equiv_pos_as_xyz
  1  'x, y, z'
loop_
 _atom_site_type_symbol
 _atom_site_label
 _atom_site_symmetry_multiplicity
 _atom_site_fract_x
 _atom_site_fract_y
 _atom_site_fract_z
 _atom_site_occupancy
  Cs  Cs0  1  0.25000000  0.25000000  0.25000000  1
  Cs  Cs1  1  0.75000000  0.75000000  0.75000000  1
  Cs  Cs2  1  0.25000000  0.62787754  0.87212246  1
  Cs  Cs3  1  0.87212246  0.25000000  0.62787754  1
  Cs  Cs4  1  0.62787754  0.87212246  0.25000000  1
  Cs  Cs5  1  0.75000000  0.37212246  0.12787754  1
  Cs  Cs6  1  0.12787754  0.75000000  0.37212246  1
  Cs  Cs7  1  0.37212246  0.12787754  0.75000000  1
  Pb  Pb0  1  -0.00000000  0.00000000  0.00000000  1
  Pb  Pb1  1  0.50000000  0.50000000  0.50000000  1
  I  I0  1  0.56148794  0.20498959  0.42779739  1
  I  I1  1  0.42779739  0.56148794  0.20498959  1
  I  I2  1  0.20498959  0.42779739  0.56148794  1
  I  I3  1  0.93851206  0.07220261  0.29501041  1
  I  I4  1  0.29501041  0.93851206  0.07220261  1
  I  I5  1  0.07220261  0.29501041  0.93851206  1
  I  I6  1  0.43851206  0.79501041  0.57220261  1
  I  I7  1  0.57220261  0.43851206  0.79501041  1
  I  I8  1  0.79501041  0.57220261  0.43851206  1
  I  I9  1  0.06148794  0.92779739  0.70498959  1
  I  I10  1  0.92779739  0.70498959  0.06148794  1
  I  I11  1  0.70498959  0.06148794  0.92779739  1
loop_
_geom_bond_atom_site_label_1
_geom_bond_atom_site_label_2
_geom_bond_distance
_geom_bond_site_symmetry_2
Cs0 I4 3.818378 1_545
Cs0 I0 3.818378 1_555
Cs0 I2 3.818378 1_555
Cs0 I5 3.818378 1_554
Cs0 I3 3.818378 1_455
Cs0 I1 3.818378 1_555
Cs1 I11 3.818378 1_565
Cs1 I6 3.818378 1_555
Cs1 I10 3.818378 1_556
Cs1 I8 3.818378 1_555
Cs1 I7 3.818378 1_555
Cs1 I9 3.818378 1_655
Cs2 I4 3.954646 1_556
Cs2 I2 3.954646 1_555
Cs2 I7 3.982367 1_555
Cs2 I10 3.982367 1_456
Cs2 I1 4.042162 1_556
Cs2 I5 4.042162 1_555
Cs2 I9 4.087622 1_555
Cs2 I6 4.087622 1_555
Cs3 I0 3.954646 1_555
Cs3 I5 3.954646 1_655
Cs3 I9 3.982367 1_645
Cs3 I8 3.982367 1_555
Cs3 I3 4.042162 1_555
Cs3 I2 4.042162 1_655
Cs3 I7 4.087622 1_555
Cs3 I11 4.087622 1_555
Cs4 I3 3.954646 1_565
Cs4 I1 3.954646 1_555
Cs4 I11 3.982367 1_564
Cs4 I6 3.982367 1_555
Cs4 I4 4.042161 1_555
Cs4 I0 4.042161 1_565
Cs4 I8 4.087622 1_555
Cs4 I10 4.087622 1_555
Cs5 I11 3.954646 1_554
Cs5 I8 3.954646 1_555
Cs5 I1 3.982367 1_555
Cs5 I5 3.982367 1_654
Cs5 I7 4.042162 1_554
Cs5 I10 4.042162 1_555
Cs5 I3 4.087622 1_555
Cs5 I0 4.087622 1_555
Cs6 I6 3.954646 1_555
Cs6 I10 3.954646 1_455
Cs6 I3 3.982367 1_465
Cs6 I2 3.982367 1_555
Cs6 I9 4.042162 1_555
Cs6 I8 4.042162 1_455
Cs6 I1 4.087622 1_555
Cs6 I4 4.087622 1_555
Cs7 I9 3.954646 1_545
Cs7 I7 3.954646 1_555
Cs7 I4 3.982367 1_546
Cs7 I0 3.982367 1_555
Cs7 I6 4.042161 1_545
Cs7 I11 4.042161 1_555
Cs7 I5 4.087622 1_555
Cs7 I2 4.087622 1_555
I0 Pb1 3.259180 1_555
I1 Pb1 3.259181 1_555
I2 Pb1 3.259180 1_555
I3 Pb0 3.259181 1_655
I4 Pb0 3.259180 1_565
I5 Pb0 3.259180 1_556
I6 Pb1 3.259180 1_555
I7 Pb1 3.259181 1_555
I8 Pb1 3.259180 1_555
I9 Pb0 3.259181 1_566
I10 Pb0 3.259180 1_665
I11 Pb0 3.259180 1_656
