# generated using pymatgen
data_KNbF6
_symmetry_space_group_name_H-M   'P 1'
_cell_length_a   5.35312700
_cell_length_b   5.35312700
_cell_length_c   10.06038400
_cell_angle_alpha   90.00000000
_cell_angle_beta   90.00000000
_cell_angle_gamma   90.00000000
_symmetry_Int_Tables_number   1
_chemical_formula_structural   KNbF6
_chemical_formula_sum   'K2 Nb2 F12'
_cell_volume   288.29004879
_cell_formula_units_Z   2
loop_
 _symmetry_equiv_pos_site_id
 _symmetry_equiv_pos_as_xyz
  1  'x, y, z'
loop_
 _atom_site_type_symbol
 _atom_site_label
 _atom_site_symmetry_multiplicity
 _atom_site_fract_x
 _atom_site_fract_y
 _atom_site_fract_z
 _atom_site_occupancy
  K  K0  1  0.50000000  0.50000000  0.50000000  1
  K  K1  1  0.50000000  0.50000000  0.00000000  1
  Nb  Nb0  1  0.00000000  0.00000000  0.25000000  1
  Nb  Nb1  1  0.00000000  0.00000000  0.75000000  1
  F  F0  1  0.74234900  0.25765100  0.25000000  1
  F  F1  1  0.25765100  0.74234900  0.25000000  1
  F  F2  1  0.74234900  0.74234900  0.75000000  1
  F  F3  1  0.25765100  0.25765100  0.75000000  1
  F  F4  1  0.17138000  0.19168500  0.38583900  1
  F  F5  1  0.82862000  0.80831500  0.38583900  1
  F  F6  1  0.17138000  0.80831500  0.88583900  1
  F  F7  1  0.82862000  0.19168500  0.88583900  1
  F  F8  1  0.19168500  0.82862000  0.61416100  1
  F  F9  1  0.80831500  0.17138000  0.61416100  1
  F  F10  1  0.80831500  0.82862000  0.11416100  1
  F  F11  1  0.19168500  0.17138000  0.11416100  1
loop_
_geom_bond_atom_site_label_1
_geom_bond_atom_site_label_2
_geom_bond_distance
_geom_bond_site_symmetry_2
F0 Nb0 1.950538 1_655
F0 K0 3.113168 1_555
F0 K1 3.113168 1_555
F1 Nb0 1.950538 1_565
F1 K0 3.113168 1_555
F1 K1 3.113168 1_555
F2 Nb1 1.950538 1_665
F2 K1 3.113168 1_556
F2 K0 3.113168 1_555
F3 Nb1 1.950538 1_555
F3 K0 3.113168 1_555
F3 K1 3.113168 1_556
F4 Nb0 1.939624 1_555
F4 K0 2.671635 1_555
F5 Nb0 1.939624 1_665
F5 K0 2.671635 1_555
F6 Nb1 1.939624 1_565
F6 K1 2.671635 1_556
F7 Nb1 1.939624 1_655
F7 K1 2.671635 1_556
F8 Nb1 1.939624 1_565
F8 K0 2.671635 1_555
F9 Nb1 1.939624 1_655
F9 K0 2.671635 1_555
F10 Nb0 1.939624 1_665
F10 K1 2.671635 1_555
F11 Nb0 1.939624 1_555
F11 K1 2.671635 1_555
