# generated using pymatgen
data_LiHfMg6
_symmetry_space_group_name_H-M   'P 1'
_cell_length_a   5.03532100
_cell_length_b   6.45180500
_cell_length_c   10.95033300
_cell_angle_alpha   90.00000000
_cell_angle_beta   90.00000000
_cell_angle_gamma   90.00000000
_symmetry_Int_Tables_number   1
_chemical_formula_structural   LiHfMg6
_chemical_formula_sum   'Li2 Hf2 Mg12'
_cell_volume   355.74247393
_cell_formula_units_Z   2
loop_
 _symmetry_equiv_pos_site_id
 _symmetry_equiv_pos_as_xyz
  1  'x, y, z'
loop_
 _atom_site_type_symbol
 _atom_site_label
 _atom_site_symmetry_multiplicity
 _atom_site_fract_x
 _atom_site_fract_y
 _atom_site_fract_z
 _atom_site_occupancy
  Li  Li0  1  0.50000000  0.00000000  0.83578900  1
  Li  Li1  1  0.50000000  0.50000000  0.33578900  1
  Hf  Hf0  1  0.50000000  0.00000000  0.33495700  1
  Hf  Hf1  1  0.50000000  0.50000000  0.83495700  1
  Mg  Mg0  1  0.50000000  0.25537900  0.58159200  1
  Mg  Mg1  1  0.50000000  0.74462100  0.58159200  1
  Mg  Mg2  1  0.00000000  0.24916600  0.41446900  1
  Mg  Mg3  1  0.00000000  0.75083400  0.41446900  1
  Mg  Mg4  1  0.00000000  0.00000000  0.66793700  1
  Mg  Mg5  1  0.00000000  0.00000000  0.16919900  1
  Mg  Mg6  1  0.50000000  0.75537900  0.08159200  1
  Mg  Mg7  1  0.50000000  0.24462100  0.08159200  1
  Mg  Mg8  1  0.00000000  0.74916600  0.91446900  1
  Mg  Mg9  1  0.00000000  0.25083400  0.91446900  1
  Mg  Mg10  1  0.00000000  0.50000000  0.16793700  1
  Mg  Mg11  1  0.00000000  0.50000000  0.66919900  1
loop_
_geom_bond_atom_site_label_1
_geom_bond_atom_site_label_2
_geom_bond_distance
_geom_bond_site_symmetry_2
Li0 Mg9 3.114469 1_655
Li0 Mg8 3.114469 1_545
Li0 Mg8 3.114469 1_645
Li0 Mg9 3.114469 1_555
Li0 Mg4 3.117208 1_655
Li0 Mg4 3.117208 1_555
Li0 Mg7 3.120209 1_556
Li0 Mg6 3.120209 1_546
Li0 Mg0 3.234637 1_555
Li0 Mg1 3.234637 1_545
Li1 Mg3 3.114469 1_655
Li1 Mg2 3.114469 1_555
Li1 Mg3 3.114469 1_555
Li1 Mg2 3.114469 1_655
Li1 Mg10 3.117208 1_655
Li1 Mg10 3.117208 1_555
Li1 Mg1 3.120209 1_555
Li1 Mg0 3.120209 1_555
Li1 Mg6 3.234637 1_555
Li1 Mg7 3.234637 1_555
Hf0 Mg5 3.103743 1_655
Hf0 Mg5 3.103743 1_555
Hf0 Mg3 3.111428 1_545
Hf0 Mg2 3.111428 1_655
Hf0 Mg2 3.111428 1_555
Hf0 Mg3 3.111428 1_645
Hf0 Mg0 3.163659 1_555
Hf0 Mg1 3.163659 1_545
Hf0 Mg7 3.191917 1_555
Hf0 Mg6 3.191917 1_545
Hf0 Li1 3.225915 1_555
Hf0 Li1 3.225915 1_545
Hf1 Mg11 3.103743 1_555
Hf1 Mg11 3.103743 1_655
Hf1 Mg8 3.111428 1_555
Hf1 Mg9 3.111428 1_655
Hf1 Mg9 3.111428 1_555
Hf1 Mg8 3.111428 1_655
Hf1 Mg6 3.163659 1_556
Hf1 Mg7 3.163659 1_556
Hf1 Mg1 3.191917 1_555
Hf1 Mg0 3.191917 1_555
Hf1 Li0 3.225915 1_565
Hf1 Li0 3.225915 1_555
Mg0 Mg2 3.112766 1_555
Mg0 Mg2 3.112766 1_655
Mg0 Mg11 3.122464 1_555
Mg0 Mg11 3.122464 1_655
Mg0 Mg4 3.153944 1_655
Mg0 Mg4 3.153944 1_555
Mg0 Mg1 3.156494 1_555
Mg0 Mg1 3.295311 1_545
Mg1 Mg3 3.112766 1_555
Mg1 Mg3 3.112766 1_655
Mg1 Mg11 3.122464 1_555
Mg1 Mg11 3.122464 1_655
Mg1 Mg4 3.153944 1_665
Mg1 Mg4 3.153944 1_565
Mg2 Mg5 3.130134 1_555
Mg2 Mg4 3.207493 1_555
Mg2 Mg3 3.215141 1_545
Mg2 Mg3 3.236664 1_555
Mg3 Mg5 3.130134 1_565
Mg3 Mg4 3.207493 1_565
Mg4 Mg8 3.147520 1_545
Mg4 Mg9 3.147520 1_555
Mg5 Mg7 3.122464 1_555
Mg5 Mg7 3.122464 1_455
Mg5 Mg6 3.122464 1_445
Mg5 Mg6 3.122464 1_545
Mg5 Mg9 3.224846 1_554
Mg5 Mg8 3.224846 1_544
Mg6 Mg8 3.112766 1_654
Mg6 Mg8 3.112766 1_554
Mg6 Mg7 3.156494 1_565
Mg6 Mg7 3.295311 1_555
Mg7 Mg9 3.112766 1_654
Mg7 Mg9 3.112766 1_554
Mg8 Mg9 3.215141 1_555
Mg8 Mg9 3.236664 1_565
Mg10 Mg2 3.147520 1_555
Mg10 Mg3 3.147520 1_555
Mg10 Mg6 3.153944 1_455
Mg10 Mg6 3.153944 1_555
Mg10 Mg7 3.153944 1_455
Mg10 Mg7 3.153944 1_555
Mg10 Mg8 3.207493 1_554
Mg10 Mg9 3.207493 1_554
Mg10 Mg5 3.225932 1_555
Mg10 Mg5 3.225932 1_565
Mg11 Mg8 3.130134 1_555
Mg11 Mg9 3.130134 1_555
Mg11 Mg2 3.224846 1_555
Mg11 Mg3 3.224846 1_555
Mg11 Mg4 3.225932 1_565
Mg11 Mg4 3.225932 1_555
