# generated using pymatgen
data_MnInRh2
_symmetry_space_group_name_H-M   'P 1'
_cell_length_a   3.16094000
_cell_length_b   3.16094000
_cell_length_c   6.28798600
_cell_angle_alpha   90.00000000
_cell_angle_beta   90.00000000
_cell_angle_gamma   90.00000000
_symmetry_Int_Tables_number   1
_chemical_formula_structural   MnInRh2
_chemical_formula_sum   'Mn1 In1 Rh2'
_cell_volume   62.82667422
_cell_formula_units_Z   1
loop_
 _symmetry_equiv_pos_site_id
 _symmetry_equiv_pos_as_xyz
  1  'x, y, z'
loop_
 _atom_site_type_symbol
 _atom_site_label
 _atom_site_symmetry_multiplicity
 _atom_site_fract_x
 _atom_site_fract_y
 _atom_site_fract_z
 _atom_site_occupancy
  Mn  Mn0  1  0.00000000  0.00000000  0.50000000  1
  In  In0  1  0.00000000  0.00000000  0.00000000  1
  Rh  Rh0  1  0.50000000  0.50000000  0.26682200  1
  Rh  Rh1  1  0.50000000  0.50000000  0.73317800  1
loop_
_geom_bond_atom_site_label_1
_geom_bond_atom_site_label_2
_geom_bond_distance
_geom_bond_site_symmetry_2
Mn0 Rh0 2.673120 1_445
Mn0 Rh1 2.673120 1_555
Mn0 Rh1 2.673120 1_445
Mn0 Rh0 2.673120 1_545
Mn0 Rh1 2.673120 1_545
Mn0 Rh0 2.673120 1_455
Mn0 Rh0 2.673120 1_555
Mn0 Rh1 2.673120 1_455
In0 Rh0 2.794762 1_445
In0 Rh1 2.794762 1_554
In0 Rh1 2.794762 1_544
In0 Rh1 2.794762 1_444
In0 Rh0 2.794762 1_455
In0 Rh1 2.794762 1_454
In0 Rh0 2.794762 1_545
In0 Rh0 2.794762 1_555
