# generated using pymatgen
data_NaHfMg14O15
_symmetry_space_group_name_H-M   'P 1'
_cell_length_a   8.64835913
_cell_length_b   8.70186728
_cell_length_c   4.32469620
_cell_angle_alpha   90.00000000
_cell_angle_beta   90.00000000
_cell_angle_gamma   90.00000000
_symmetry_Int_Tables_number   1
_chemical_formula_structural   NaHfMg14O15
_chemical_formula_sum   'Na1 Hf1 Mg14 O15'
_cell_volume   325.46311415
_cell_formula_units_Z   1
loop_
 _symmetry_equiv_pos_site_id
 _symmetry_equiv_pos_as_xyz
  1  'x, y, z'
loop_
 _atom_site_type_symbol
 _atom_site_label
 _atom_site_symmetry_multiplicity
 _atom_site_fract_x
 _atom_site_fract_y
 _atom_site_fract_z
 _atom_site_occupancy
  Na  Na0  1  0.00274188  -0.00000000  -0.00000000  1
  Hf  Hf0  1  0.99932655  0.50000000  -0.00000000  1
  Mg  Mg0  1  0.49893436  -0.00000000  -0.00000000  1
  Mg  Mg1  1  0.50112553  0.50000000  -0.00000000  1
  Mg  Mg2  1  0.00053969  0.23467174  0.50000000  1
  Mg  Mg3  1  0.00053969  0.76532826  0.50000000  1
  Mg  Mg4  1  0.50023278  0.24741352  0.50000000  1
  Mg  Mg5  1  0.50023278  0.75258648  0.50000000  1
  Mg  Mg6  1  0.24990397  -0.00000000  0.50000000  1
  Mg  Mg7  1  0.25761543  0.50000000  0.50000000  1
  Mg  Mg8  1  0.75198714  -0.00000000  0.50000000  1
  Mg  Mg9  1  0.74256690  0.50000000  0.50000000  1
  Mg  Mg10  1  0.25702902  0.24611862  -0.00000000  1
  Mg  Mg11  1  0.25702902  0.75388138  0.00000000  1
  Mg  Mg12  1  0.74472058  0.24127360  0.00000000  1
  Mg  Mg13  1  0.74472058  0.75872640  0.00000000  1
  O  O0  1  0.25475080  0.50000000  -0.00000000  1
  O  O1  1  0.73584529  -0.00000000  -0.00000000  1
  O  O2  1  0.74567814  0.50000000  -0.00000000  1
  O  O3  1  0.24871617  0.25406281  0.50000000  1
  O  O4  1  0.24871617  0.74593719  0.50000000  1
  O  O5  1  0.75193417  0.25084850  0.50000000  1
  O  O6  1  0.75193417  0.74915150  0.50000000  1
  O  O7  1  0.00057654  -0.00000000  0.50000000  1
  O  O8  1  0.99959685  0.50000000  0.50000000  1
  O  O9  1  0.50159014  -0.00000000  0.50000000  1
  O  O10  1  0.50032817  0.50000000  0.50000000  1
  O  O11  1  0.99917299  0.26342024  -0.00000000  1
  O  O12  1  0.99917299  0.73657976  -0.00000000  1
  O  O13  1  0.50137075  0.25442637  -0.00000000  1
  O  O14  1  0.50137075  0.74557363  -0.00000000  1
loop_
_geom_bond_atom_site_label_1
_geom_bond_atom_site_label_2
_geom_bond_distance
_geom_bond_site_symmetry_2
Na0 O7 2.162429 1_555
Na0 O7 2.162429 1_554
Na0 O12 2.292456 1_445
Na0 O11 2.292456 1_455
Na0 O1 2.308218 1_455
Hf0 O11 2.058686 1_555
Hf0 O12 2.058686 1_555
Hf0 O8 2.162349 1_554
Hf0 O8 2.162349 1_555
Hf0 O2 2.193643 1_555
Hf0 O0 2.209001 1_655
Mg0 O1 2.048891 1_555
Mg0 O9 2.162470 1_554
Mg0 O9 2.162470 1_555
Mg0 O14 2.214085 1_545
Mg0 O13 2.214085 1_555
Mg1 O2 2.114979 1_555
Mg1 O0 2.130737 1_555
Mg1 O14 2.136950 1_555
Mg1 O13 2.136950 1_555
Mg1 O10 2.162359 1_555
Mg1 O10 2.162359 1_554
Mg2 O7 2.042082 1_555
Mg2 O3 2.152942 1_555
Mg2 O5 2.154633 1_455
Mg2 O11 2.176803 1_455
Mg2 O11 2.176803 1_456
Mg2 O8 2.308866 1_455
Mg3 O7 2.042082 1_565
Mg3 O4 2.152942 1_555
Mg3 O6 2.154633 1_455
Mg3 O12 2.176803 1_455
Mg3 O12 2.176803 1_456
Mg3 O8 2.308866 1_455
Mg4 O9 2.152992 1_555
Mg4 O13 2.163231 1_555
Mg4 O13 2.163231 1_556
Mg4 O3 2.175975 1_555
Mg4 O5 2.177009 1_555
Mg4 O10 2.197974 1_555
Mg5 O9 2.152992 1_565
Mg5 O14 2.163231 1_555
Mg5 O14 2.163231 1_556
Mg5 O4 2.175975 1_555
Mg5 O6 2.177009 1_555
Mg5 O10 2.197974 1_555
Mg6 O7 2.156273 1_555
Mg6 O9 2.176672 1_555
Mg6 O4 2.210845 1_545
Mg6 O3 2.210845 1_555
Mg7 O10 2.099067 1_555
Mg7 O3 2.141496 1_555
Mg7 O4 2.141496 1_555
Mg7 O0 2.162490 1_555
Mg7 O0 2.162490 1_556
Mg7 O8 2.231437 1_455
Mg8 O7 2.149890 1_655
Mg8 O9 2.165523 1_555
Mg8 O1 2.166850 1_556
Mg8 O1 2.166850 1_555
Mg8 O5 2.182850 1_555
Mg8 O6 2.182850 1_545
Mg9 O10 2.094968 1_555
Mg9 O2 2.162516 1_555
Mg9 O2 2.162516 1_556
Mg9 O6 2.169596 1_555
Mg9 O5 2.169596 1_555
Mg9 O8 2.222887 1_555
Mg10 O13 2.114391 1_555
Mg10 O3 2.164647 1_555
Mg10 O3 2.164647 1_554
Mg10 O0 2.209330 1_555
Mg10 O11 2.235108 1_455
Mg11 O14 2.114391 1_555
Mg11 O4 2.164647 1_554
Mg11 O4 2.164647 1_555
Mg11 O0 2.209330 1_555
Mg11 O12 2.235108 1_455
Mg12 O1 2.100933 1_555
Mg12 O13 2.107687 1_555
Mg12 O5 2.164852 1_554
Mg12 O5 2.164852 1_555
Mg12 O11 2.209018 1_555
Mg12 O2 2.251418 1_555
Mg13 O1 2.100933 1_565
Mg13 O14 2.107687 1_555
Mg13 O6 2.164852 1_554
Mg13 O6 2.164852 1_555
Mg13 O12 2.209018 1_555
Mg13 O2 2.251418 1_555
