# generated using pymatgen
data_InPO6
_symmetry_space_group_name_H-M   'P 1'
_cell_length_a   9.14665500
_cell_length_b   5.36244800
_cell_length_c   10.54728947
_cell_angle_alpha   66.77842220
_cell_angle_beta   90.00000000
_cell_angle_gamma   90.00000000
_symmetry_Int_Tables_number   1
_chemical_formula_structural   InPO6
_chemical_formula_sum   'In4 P4 O24'
_cell_volume   475.41796066
_cell_formula_units_Z   4
loop_
 _symmetry_equiv_pos_site_id
 _symmetry_equiv_pos_as_xyz
  1  'x, y, z'
loop_
 _atom_site_type_symbol
 _atom_site_label
 _atom_site_symmetry_multiplicity
 _atom_site_fract_x
 _atom_site_fract_y
 _atom_site_fract_z
 _atom_site_occupancy
  In  In0  1  0.81628700  0.88960600  0.67674900  1
  In  In1  1  0.18371300  0.11039400  0.32325100  1
  In  In2  1  0.31628700  0.11039400  0.82325100  1
  In  In3  1  0.68371300  0.88960600  0.17674900  1
  P  P0  1  0.14172900  0.72959500  0.64614300  1
  P  P1  1  0.85827100  0.27040500  0.35385700  1
  P  P2  1  0.64172900  0.27040500  0.85385700  1
  P  P3  1  0.35827100  0.72959500  0.14614300  1
  O  O0  1  0.20458700  0.47776600  0.75943600  1
  O  O1  1  0.79541300  0.52223400  0.24056400  1
  O  O2  1  0.70458700  0.52223400  0.74056400  1
  O  O3  1  0.29541300  0.47776600  0.25943600  1
  O  O4  1  0.98597000  0.70216600  0.60422300  1
  O  O5  1  0.01403000  0.29783400  0.39577700  1
  O  O6  1  0.48597000  0.29783400  0.89577700  1
  O  O7  1  0.51403000  0.70216600  0.10422300  1
  O  O8  1  0.13556900  0.96965000  0.71314700  1
  O  O9  1  0.86443100  0.03035000  0.28685300  1
  O  O10  1  0.63556900  0.03035000  0.78685300  1
  O  O11  1  0.36443100  0.96965000  0.21314700  1
  O  O12  1  0.24821500  0.86240400  0.52544600  1
  O  O13  1  0.75178500  0.13759600  0.47455400  1
  O  O14  1  0.74821500  0.13759600  0.97455400  1
  O  O15  1  0.25178500  0.86240400  0.02544600  1
  O  O16  1  0.49288200  0.98186200  0.73193300  1
  O  O17  1  0.50711800  0.01813800  0.26806700  1
  O  O18  1  0.99288200  0.01813800  0.76806700  1
  O  O19  1  0.00711800  0.98186200  0.23193300  1
  O  O20  1  0.43877700  0.49114000  0.52584500  1
  O  O21  1  0.56122300  0.50886000  0.47415500  1
  O  O22  1  0.93877700  0.50886000  0.97415500  1
  O  O23  1  0.06122300  0.49114000  0.02584500  1
loop_
_geom_bond_atom_site_label_1
_geom_bond_atom_site_label_2
_geom_bond_distance
_geom_bond_site_symmetry_2
In0 O2 2.081391 1_555
In0 O13 2.104314 1_565
In0 O18 2.129618 1_565
In0 O4 2.147226 1_555
In0 O10 2.311210 1_565
In1 O3 2.081391 1_555
In1 O12 2.104314 1_545
In1 O19 2.129618 1_545
In1 O5 2.147226 1_555
In1 O11 2.311210 1_545
In2 O0 2.081391 1_555
In2 O15 2.104314 1_546
In2 O16 2.129618 1_545
In2 O6 2.147226 1_555
In2 O8 2.311210 1_545
In3 O1 2.081391 1_555
In3 O14 2.104314 1_564
In3 O17 2.129618 1_565
In3 O7 2.147226 1_555
In3 O9 2.311210 1_565
O0 P0 1.519724 1_555
O1 P1 1.519724 1_555
O2 P2 1.519724 1_555
O3 P3 1.519724 1_555
O4 P0 1.515950 1_655
O5 P1 1.515950 1_455
O6 P2 1.515950 1_555
O7 P3 1.515950 1_555
O8 P0 1.696204 1_555
O9 P1 1.696204 1_555
O10 O16 1.491719 1_545
O10 P2 1.696204 1_555
O11 O17 1.491719 1_565
O11 P3 1.696204 1_555
O12 P0 1.536721 1_555
O13 P1 1.536721 1_555
O14 P2 1.536721 1_555
O15 P3 1.536721 1_555
O18 O8 1.491719 1_645
O19 O9 1.491719 1_465
O20 O21 1.232779 1_555
O22 O23 1.232779 1_656
