# generated using pymatgen
data_Zn3Fe2O7
_symmetry_space_group_name_H-M   'P 1'
_cell_length_a   9.42436042
_cell_length_b   9.42436042
_cell_length_c   5.22334700
_cell_angle_alpha   90.00000000
_cell_angle_beta   90.00000000
_cell_angle_gamma   147.29934041
_symmetry_Int_Tables_number   1
_chemical_formula_structural   Zn3Fe2O7
_chemical_formula_sum   'Zn6 Fe4 O14'
_cell_volume   250.63829834
_cell_formula_units_Z   2
loop_
 _symmetry_equiv_pos_site_id
 _symmetry_equiv_pos_as_xyz
  1  'x, y, z'
loop_
 _atom_site_type_symbol
 _atom_site_label
 _atom_site_symmetry_multiplicity
 _atom_site_fract_x
 _atom_site_fract_y
 _atom_site_fract_z
 _atom_site_occupancy
  Zn  Zn0  1  0.74234900  0.74234900  0.27689800  1
  Zn  Zn1  1  0.25765100  0.25765100  0.77689800  1
  Zn  Zn2  1  0.97276300  0.57951300  0.20088600  1
  Zn  Zn3  1  0.02723700  0.42048700  0.70088600  1
  Zn  Zn4  1  0.57951300  0.97276300  0.20088600  1
  Zn  Zn5  1  0.42048700  0.02723700  0.70088600  1
  Fe  Fe0  1  0.14883900  0.35540200  0.24601600  1
  Fe  Fe1  1  0.85116100  0.64459800  0.74601600  1
  Fe  Fe2  1  0.64459800  0.85116100  0.74601600  1
  Fe  Fe3  1  0.35540200  0.14883900  0.24601600  1
  O  O0  1  0.34680800  0.93620400  0.31669400  1
  O  O1  1  0.65319200  0.06379600  0.81669400  1
  O  O2  1  0.06379600  0.65319200  0.81669400  1
  O  O3  1  0.93620400  0.34680800  0.31669400  1
  O  O4  1  0.55863500  0.29179000  0.94262000  1
  O  O5  1  0.44136500  0.70821000  0.44262000  1
  O  O6  1  0.70821000  0.44136500  0.44262000  1
  O  O7  1  0.29179000  0.55863500  0.94262000  1
  O  O8  1  0.99420200  0.83709800  0.06365300  1
  O  O9  1  0.00579800  0.16290200  0.56365300  1
  O  O10  1  0.36426400  0.36426400  0.16336100  1
  O  O11  1  0.63573600  0.63573600  0.66336100  1
  O  O12  1  0.83709800  0.99420200  0.06365300  1
  O  O13  1  0.16290200  0.00579800  0.56365300  1
loop_
_geom_bond_atom_site_label_1
_geom_bond_atom_site_label_2
_geom_bond_distance
_geom_bond_site_symmetry_2
Fe0 O7 1.911054 1_554
Fe0 O9 1.935258 1_555
Fe0 O3 1.971167 1_455
Fe0 O10 2.007456 1_555
Fe0 O5 2.069557 1_555
Fe0 O12 2.072402 1_445
Fe1 O6 1.911054 1_555
Fe1 O8 1.935258 1_556
Fe1 O2 1.971167 1_655
Fe1 O11 2.007456 1_555
Fe1 O4 2.069557 1_555
Fe1 O13 2.072402 1_665
Fe2 O5 1.911054 1_555
Fe2 O12 1.935258 1_556
Fe2 O1 1.971167 1_565
Fe2 O11 2.007456 1_555
Fe2 O7 2.069557 1_555
Fe2 O9 2.072402 1_665
Fe3 O4 1.911054 1_554
Fe3 O13 1.935258 1_555
Fe3 O0 1.971167 1_545
Fe3 O10 2.007456 1_555
Fe3 O6 2.069557 1_555
Fe3 O8 2.072402 1_445
O0 Zn4 2.005636 1_555
O0 Zn2 2.036913 1_455
O0 Zn5 2.059783 1_565
O1 Zn5 2.005636 1_555
O1 Zn3 2.036913 1_655
O1 Zn4 2.059783 1_546
O2 Zn3 2.005636 1_555
O2 Zn5 2.036913 1_565
O2 Zn2 2.059783 1_456
O3 Zn2 2.005636 1_555
O3 Zn4 2.036913 1_545
O3 Zn3 2.059783 1_655
O4 Zn5 2.010586 1_555
O4 Zn2 2.567829 1_556
O5 Zn4 2.010586 1_555
O5 Zn3 2.567829 1_555
O6 Zn2 2.010586 1_555
O6 Zn5 2.567829 1_555
O7 Zn3 2.010586 1_555
O7 Zn4 2.567829 1_556
O8 Zn0 2.026008 1_555
O8 Zn2 2.371132 1_555
O9 Zn1 2.026008 1_555
O9 Zn3 2.371132 1_555
O10 Zn0 2.091976 1_555
O10 Zn1 2.096398 1_554
O11 Zn1 2.091976 1_555
O11 Zn0 2.096398 1_555
O12 Zn0 2.026008 1_555
O12 Zn4 2.371132 1_555
O13 Zn1 2.026008 1_555
O13 Zn5 2.371132 1_555
