# generated using pymatgen
data_SmMnGe2
_symmetry_space_group_name_H-M   'P 1'
_cell_length_a   8.36539040
_cell_length_b   8.36539040
_cell_length_c   4.47233900
_cell_angle_alpha   90.00000000
_cell_angle_beta   90.00000000
_cell_angle_gamma   149.42231129
_symmetry_Int_Tables_number   1
_chemical_formula_structural   SmMnGe2
_chemical_formula_sum   'Sm2 Mn2 Ge4'
_cell_volume   159.21140419
_cell_formula_units_Z   2
loop_
 _symmetry_equiv_pos_site_id
 _symmetry_equiv_pos_as_xyz
  1  'x, y, z'
loop_
 _atom_site_type_symbol
 _atom_site_label
 _atom_site_symmetry_multiplicity
 _atom_site_fract_x
 _atom_site_fract_y
 _atom_site_fract_z
 _atom_site_occupancy
  Sm  Sm0  1  0.89551300  0.10448700  0.25000000  1
  Sm  Sm1  1  0.10448700  0.89551300  0.75000000  1
  Mn  Mn0  1  0.69193000  0.30807000  0.25000000  1
  Mn  Mn1  1  0.30807000  0.69193000  0.75000000  1
  Ge  Ge0  1  0.54469900  0.45530100  0.25000000  1
  Ge  Ge1  1  0.45530100  0.54469900  0.75000000  1
  Ge  Ge2  1  0.25342800  0.74657200  0.25000000  1
  Ge  Ge3  1  0.74657200  0.25342800  0.75000000  1
loop_
_geom_bond_atom_site_label_1
_geom_bond_atom_site_label_2
_geom_bond_distance
_geom_bond_site_symmetry_2
Mn0 Sm0 3.285556 1_555
Mn0 Sm1 3.443495 1_655
Mn0 Sm1 3.443495 1_654
Mn0 Sm1 3.443495 1_544
Mn0 Sm1 3.443495 1_545
Mn1 Sm1 3.285556 1_555
Mn1 Sm0 3.443495 1_565
Mn1 Sm0 3.443495 1_566
Mn1 Sm0 3.443495 1_455
Mn1 Sm0 3.443495 1_456
Ge0 Mn0 2.376111 1_555
Ge0 Sm0 3.265352 1_565
Ge0 Sm0 3.265352 1_455
Ge0 Sm1 3.285904 1_545
Ge0 Sm1 3.285904 1_655
Ge0 Sm1 3.285904 1_654
Ge0 Sm1 3.285904 1_544
Ge1 Mn1 2.376111 1_555
Ge1 Sm1 3.265352 1_545
Ge1 Sm1 3.265352 1_655
Ge1 Sm0 3.285904 1_565
Ge1 Sm0 3.285904 1_566
Ge1 Sm0 3.285904 1_456
Ge1 Sm0 3.285904 1_455
Ge2 Mn1 2.403770 1_554
Ge2 Mn1 2.403770 1_555
Ge2 Mn0 2.418829 1_455
Ge2 Mn0 2.418829 1_565
Ge2 Sm0 3.181794 1_565
Ge2 Sm0 3.181794 1_455
Ge2 Sm1 3.283027 1_554
Ge2 Sm1 3.283027 1_555
Ge3 Mn0 2.403770 1_555
Ge3 Mn0 2.403770 1_556
Ge3 Mn1 2.418829 1_545
Ge3 Mn1 2.418829 1_655
Ge3 Sm1 3.181794 1_655
Ge3 Sm1 3.181794 1_545
Ge3 Sm0 3.283027 1_556
Ge3 Sm0 3.283027 1_555
