# generated using pymatgen
data_CaMg14Bi
_symmetry_space_group_name_H-M   'P 1'
_cell_length_a   6.53168507
_cell_length_b   6.53168452
_cell_length_c   10.60055327
_cell_angle_alpha   90.00000000
_cell_angle_beta   90.00000000
_cell_angle_gamma   120.00000285
_symmetry_Int_Tables_number   1
_chemical_formula_structural   CaMg14Bi
_chemical_formula_sum   'Ca1 Mg14 Bi1'
_cell_volume   391.66033300
_cell_formula_units_Z   1
loop_
 _symmetry_equiv_pos_site_id
 _symmetry_equiv_pos_as_xyz
  1  'x, y, z'
loop_
 _atom_site_type_symbol
 _atom_site_label
 _atom_site_symmetry_multiplicity
 _atom_site_fract_x
 _atom_site_fract_y
 _atom_site_fract_z
 _atom_site_occupancy
  Ca  Ca0  1  0.16666700  0.33333300  0.12500000  1
  Mg  Mg0  1  0.17072802  0.83536351  0.12500000  1
  Mg  Mg1  1  0.16252737  0.83126319  0.62500000  1
  Mg  Mg2  1  0.66463649  0.32927198  0.12500000  1
  Mg  Mg3  1  0.66873681  0.33747263  0.62500000  1
  Mg  Mg4  1  0.66463649  0.83536351  0.12500000  1
  Mg  Mg5  1  0.66873681  0.83126319  0.62500000  1
  Mg  Mg6  1  0.33620174  0.16379826  0.37604585  1
  Mg  Mg7  1  0.33620174  0.16379826  0.87395415  1
  Mg  Mg8  1  0.33620174  0.67240448  0.37604585  1
  Mg  Mg9  1  0.33620174  0.67240448  0.87395415  1
  Mg  Mg10  1  0.82759552  0.16379826  0.37604585  1
  Mg  Mg11  1  0.82759552  0.16379826  0.87395415  1
  Mg  Mg12  1  0.83333300  0.66666700  0.37084549  1
  Mg  Mg13  1  0.83333300  0.66666700  0.87915451  1
  Bi  Bi0  1  0.16666700  0.33333300  0.62500000  1
loop_
_geom_bond_atom_site_label_1
_geom_bond_atom_site_label_2
_geom_bond_distance
_geom_bond_site_symmetry_2
Ca0 Mg4 3.265923 1_555
Ca0 Mg0 3.265923 1_555
Ca0 Mg4 3.265923 1_445
Ca0 Mg0 3.265923 1_545
Ca0 Mg2 3.265923 1_455
Ca0 Mg2 3.265923 1_555
Ca0 Mg7 3.280362 1_554
Ca0 Mg6 3.280362 1_555
Ca0 Mg8 3.280368 1_555
Ca0 Mg9 3.280368 1_554
Ca0 Mg11 3.280368 1_454
Ca0 Mg10 3.280368 1_455
Mg0 Mg2 3.226054 1_565
Mg0 Mg4 3.226055 1_555
Mg0 Mg12 3.230195 1_455
Mg0 Mg13 3.230195 1_454
Mg0 Mg9 3.245560 1_554
Mg0 Mg8 3.245560 1_555
Mg0 Mg6 3.245566 1_565
Mg0 Mg7 3.245566 1_564
Mg0 Mg2 3.305630 1_455
Mg0 Mg4 3.305630 1_455
Mg1 Mg3 3.225284 1_455
Mg1 Mg5 3.225284 1_455
Mg1 Mg8 3.241161 1_555
Mg1 Mg9 3.241161 1_555
Mg1 Mg7 3.241168 1_565
Mg1 Mg6 3.241168 1_565
Mg1 Mg13 3.275072 1_455
Mg1 Mg12 3.275072 1_455
Mg1 Mg3 3.306400 1_565
Mg1 Mg5 3.306401 1_555
Mg2 Mg4 3.226054 1_545
Mg2 Mg7 3.245566 1_554
Mg2 Mg6 3.245566 1_555
Mg2 Mg4 3.305630 1_555
Mg3 Mg5 3.225284 1_555
Mg3 Mg6 3.241168 1_555
Mg3 Mg7 3.241168 1_555
Mg3 Mg5 3.306400 1_545
Mg4 Mg9 3.245566 1_554
Mg4 Mg8 3.245566 1_555
Mg5 Mg8 3.241168 1_555
Mg5 Mg9 3.241168 1_555
Mg6 Mg8 3.209629 1_545
Mg6 Mg8 3.322055 1_555
Mg7 Mg9 3.209629 1_545
Mg7 Mg9 3.322055 1_555
Mg10 Mg8 3.209629 1_545
Mg10 Mg6 3.209629 1_555
Mg10 Mg3 3.241161 1_555
Mg10 Mg5 3.241168 1_545
Mg10 Mg2 3.245560 1_555
Mg10 Mg4 3.245566 1_545
Mg10 Mg12 3.266469 1_555
Mg10 Mg12 3.266469 1_545
Mg10 Mg8 3.322055 1_655
Mg10 Mg6 3.322056 1_655
Mg11 Mg9 3.209629 1_545
Mg11 Mg7 3.209629 1_555
Mg11 Mg3 3.241161 1_555
Mg11 Mg5 3.241168 1_545
Mg11 Mg2 3.245560 1_556
Mg11 Mg4 3.245566 1_546
Mg11 Mg13 3.266469 1_555
Mg11 Mg13 3.266469 1_545
Mg11 Mg9 3.322055 1_655
Mg11 Mg7 3.322056 1_655
Mg12 Mg4 3.230188 1_555
Mg12 Mg2 3.230195 1_555
Mg12 Mg6 3.266469 1_555
Mg12 Mg6 3.266469 1_665
Mg12 Mg8 3.266469 1_655
Mg12 Mg8 3.266469 1_555
Mg12 Mg5 3.275066 1_555
Mg12 Mg3 3.275072 1_555
Mg13 Mg4 3.230188 1_556
Mg13 Mg2 3.230195 1_556
Mg13 Mg7 3.266469 1_555
Mg13 Mg7 3.266469 1_665
Mg13 Mg9 3.266469 1_655
Mg13 Mg9 3.266469 1_555
Mg13 Mg5 3.275066 1_555
Mg13 Mg3 3.275072 1_555
Bi0 Mg6 3.262399 1_555
Bi0 Mg7 3.262399 1_555
Bi0 Mg9 3.262406 1_555
Bi0 Mg8 3.262406 1_555
Bi0 Mg11 3.262406 1_455
Bi0 Mg10 3.262406 1_455
Bi0 Mg1 3.265926 1_545
Bi0 Mg5 3.265926 1_445
Bi0 Mg5 3.265926 1_555
Bi0 Mg1 3.265926 1_555
Bi0 Mg3 3.265926 1_555
Bi0 Mg3 3.265927 1_455
