# generated using pymatgen
data_MnSe2O9
_symmetry_space_group_name_H-M   'P 1'
_cell_length_a   4.99612500
_cell_length_b   8.60482389
_cell_length_c   15.91746298
_cell_angle_alpha   100.39662895
_cell_angle_beta   90.00000000
_cell_angle_gamma   90.00000000
_symmetry_Int_Tables_number   1
_chemical_formula_structural   MnSe2O9
_chemical_formula_sum   'Mn4 Se8 O36'
_cell_volume   673.06923895
_cell_formula_units_Z   4
loop_
 _symmetry_equiv_pos_site_id
 _symmetry_equiv_pos_as_xyz
  1  'x, y, z'
loop_
 _atom_site_type_symbol
 _atom_site_label
 _atom_site_symmetry_multiplicity
 _atom_site_fract_x
 _atom_site_fract_y
 _atom_site_fract_z
 _atom_site_occupancy
  Mn  Mn0  1  0.25474100  0.74749700  0.98926600  1
  Mn  Mn1  1  0.24525900  0.24749700  0.48926600  1
  Mn  Mn2  1  0.74525900  0.25250300  0.01073400  1
  Mn  Mn3  1  0.75474100  0.75250300  0.51073400  1
  Se  Se0  1  0.76053500  0.63595600  0.10691300  1
  Se  Se1  1  0.73946500  0.13595600  0.60691300  1
  Se  Se2  1  0.23946500  0.36404400  0.89308700  1
  Se  Se3  1  0.26053500  0.86404400  0.39308700  1
  Se  Se4  1  0.24190300  0.11173200  0.11762700  1
  Se  Se5  1  0.25809700  0.61173200  0.61762700  1
  Se  Se6  1  0.75809700  0.88826800  0.88237300  1
  Se  Se7  1  0.74190300  0.38826800  0.38237300  1
  O  O0  1  0.58135000  0.76123500  0.05668100  1
  O  O1  1  0.91865000  0.26123500  0.55668100  1
  O  O2  1  0.41865000  0.23876500  0.94331900  1
  O  O3  1  0.08135000  0.73876500  0.44331900  1
  O  O4  1  0.07839800  0.62682800  0.06563100  1
  O  O5  1  0.42160200  0.12682800  0.56563100  1
  O  O6  1  0.92160200  0.37317200  0.93436900  1
  O  O7  1  0.57839800  0.87317200  0.43436900  1
  O  O8  1  0.62670100  0.45126900  0.08315000  1
  O  O9  1  0.87329900  0.95126900  0.58315000  1
  O  O10  1  0.37329900  0.54873100  0.91685000  1
  O  O11  1  0.12670100  0.04873100  0.41685000  1
  O  O12  1  0.76224100  0.69829100  0.20939900  1
  O  O13  1  0.73775900  0.19829100  0.70939900  1
  O  O14  1  0.23775900  0.30170900  0.79060100  1
  O  O15  1  0.26224100  0.80170900  0.29060100  1
  O  O16  1  0.56731800  0.13370400  0.08842600  1
  O  O17  1  0.93268200  0.63370400  0.58842600  1
  O  O18  1  0.43268200  0.86629600  0.91157400  1
  O  O19  1  0.06731800  0.36629600  0.41157400  1
  O  O20  1  0.05691300  0.25853300  0.08648300  1
  O  O21  1  0.44308700  0.75853300  0.58648300  1
  O  O22  1  0.94308700  0.74146700  0.91351700  1
  O  O23  1  0.55691300  0.24146700  0.41351700  1
  O  O24  1  0.11896900  0.93661700  0.06524300  1
  O  O25  1  0.38103100  0.43661700  0.56524300  1
  O  O26  1  0.88103100  0.06338300  0.93475700  1
  O  O27  1  0.61896900  0.56338300  0.43475700  1
  O  O28  1  0.22933600  0.12127800  0.22055900  1
  O  O29  1  0.27066400  0.62127800  0.72055900  1
  O  O30  1  0.77066400  0.87872200  0.77944100  1
  O  O31  1  0.72933600  0.37872200  0.27944100  1
  O  O32  1  0.79112400  0.99530700  0.25068200  1
  O  O33  1  0.70887600  0.49530700  0.75068200  1
  O  O34  1  0.20887600  0.00469300  0.74931800  1
  O  O35  1  0.29112400  0.50469300  0.24931800  1
loop_
_geom_bond_atom_site_label_1
_geom_bond_atom_site_label_2
_geom_bond_distance
_geom_bond_site_symmetry_2
Mn0 O0 1.944836 1_556
Mn0 O4 1.946130 1_556
Mn0 O18 1.954719 1_555
Mn0 O22 1.964267 1_455
Mn0 O24 1.964848 1_556
Mn0 O10 1.973134 1_555
Mn1 O1 1.944836 1_455
Mn1 O5 1.946130 1_555
Mn1 O19 1.954719 1_555
Mn1 O23 1.964267 1_555
Mn1 O25 1.964848 1_555
Mn1 O11 1.973134 1_555
Mn2 O2 1.944836 1_554
Mn2 O6 1.946130 1_554
Mn2 O16 1.954719 1_555
Mn2 O20 1.964267 1_655
Mn2 O26 1.964848 1_554
Mn2 O8 1.973134 1_555
Mn3 O3 1.944836 1_655
Mn3 O7 1.946130 1_555
Mn3 O17 1.954719 1_555
Mn3 O21 1.964267 1_555
Mn3 O27 1.964848 1_555
Mn3 O9 1.973134 1_555
O0 Se0 1.707023 1_555
O1 Se1 1.707023 1_555
O2 Se2 1.707023 1_555
O3 Se3 1.707023 1_555
O4 Se0 1.715032 1_455
O5 Se1 1.715032 1_555
O6 Se2 1.715032 1_655
O7 Se3 1.715032 1_555
O8 Se0 1.702576 1_555
O9 Se1 1.702576 1_565
O10 Se2 1.702576 1_555
O11 Se3 1.702576 1_545
O12 Se0 1.622702 1_555
O13 Se1 1.622702 1_555
O14 Se2 1.622702 1_555
O15 Se3 1.622702 1_555
O16 Se4 1.710783 1_555
O17 Se5 1.710783 1_655
O18 Se6 1.710783 1_555
O19 Se7 1.710783 1_455
O20 Se4 1.709280 1_555
O21 Se5 1.709280 1_555
O22 Se6 1.709280 1_555
O23 Se7 1.709280 1_555
O24 Se4 1.699872 1_565
O25 Se5 1.699872 1_555
O26 Se6 1.699872 1_545
O27 Se7 1.699872 1_555
O28 Se4 1.626814 1_555
O29 Se5 1.626814 1_555
O30 Se6 1.626814 1_555
O31 Se7 1.626814 1_555
