# generated using pymatgen
data_Ba(BO2)2
_symmetry_space_group_name_H-M   'P 1'
_cell_length_a   9.16026772
_cell_length_b   7.71523312
_cell_length_c   13.60837504
_cell_angle_alpha   88.19462352
_cell_angle_beta   109.66787660
_cell_angle_gamma   95.37105498
_symmetry_Int_Tables_number   1
_chemical_formula_structural   Ba(BO2)2
_chemical_formula_sum   'Ba6 B12 O24'
_cell_volume   901.66728343
_cell_formula_units_Z   6
loop_
 _symmetry_equiv_pos_site_id
 _symmetry_equiv_pos_as_xyz
  1  'x, y, z'
loop_
 _atom_site_type_symbol
 _atom_site_label
 _atom_site_symmetry_multiplicity
 _atom_site_fract_x
 _atom_site_fract_y
 _atom_site_fract_z
 _atom_site_occupancy
  Ba  Ba0  1  0.87775900  0.66772900  0.38965200  1
  Ba  Ba1  1  0.48810700  0.16772900  0.61034800  1
  Ba  Ba2  1  0.04695700  0.23973300  0.35444300  1
  Ba  Ba3  1  0.08178600  0.48332500  0.65519500  1
  Ba  Ba4  1  0.42659000  0.98332500  0.34480500  1
  Ba  Ba5  1  0.69251400  0.73973300  0.64555700  1
  B  B0  1  0.08072500  0.80331100  0.21272100  1
  B  B1  1  0.86800500  0.30331100  0.78727900  1
  B  B2  1  0.89879100  0.07590200  0.83252400  1
  B  B3  1  0.99516100  0.79838300  0.93128400  1
  B  B4  1  0.06387700  0.29838300  0.06871600  1
  B  B5  1  0.06626700  0.57590200  0.16747600  1
  B  B6  1  0.51792700  0.61177200  0.19159800  1
  B  B7  1  0.32632800  0.11177200  0.80840200  1
  B  B8  1  0.39172600  0.82741200  0.79552100  1
  B  B9  1  0.47493400  0.56384500  0.90956500  1
  B  B10  1  0.56536900  0.06384500  0.09043500  1
  B  B11  1  0.59620500  0.32741200  0.20447900  1
  O  O0  1  0.77691400  0.17295400  0.82884200  1
  O  O1  1  0.94807200  0.67295400  0.17115800  1
  O  O2  1  0.09611900  0.96393400  0.23885800  1
  O  O3  1  0.07582300  0.19368700  0.00641100  1
  O  O4  1  0.06941200  0.69368700  0.99358900  1
  O  O5  1  0.85726100  0.46393400  0.76114200  1
  O  O6  1  0.05052800  0.40021200  0.14020900  1
  O  O7  1  0.91031900  0.90021200  0.85979100  1
  O  O8  1  0.20158900  0.67900200  0.21881300  1
  O  O9  1  0.29347500  0.13179600  0.44332000  1
  O  O10  1  0.85015500  0.63179600  0.55668000  1
  O  O11  1  0.98277600  0.17900200  0.78118700  1
  O  O12  1  0.56360900  0.76087600  0.22615400  1
  O  O13  1  0.33745500  0.26087600  0.77384600  1
  O  O14  1  0.56429100  0.47546600  0.97511200  1
  O  O15  1  0.47673800  0.44855800  0.16411100  1
  O  O16  1  0.31262700  0.94855800  0.83588900  1
  O  O17  1  0.58917800  0.97546600  0.02488800  1
  O  O18  1  0.37694400  0.65760100  0.83984000  1
  O  O19  1  0.53710300  0.15760100  0.16016000  1
  O  O20  1  0.61296700  0.98275600  0.52410300  1
  O  O21  1  0.72774700  0.36382600  0.27842000  1
  O  O22  1  0.44932700  0.86382600  0.72158000  1
  O  O23  1  0.08886300  0.48275600  0.47589700  1
loop_
_geom_bond_atom_site_label_1
_geom_bond_atom_site_label_2
_geom_bond_distance
_geom_bond_site_symmetry_2
Ba0 O10 2.375139 1_555
Ba0 O23 2.457020 1_655
Ba0 O21 2.810227 1_555
Ba0 O12 3.118413 1_555
Ba0 O1 3.245608 1_555
Ba1 O9 2.375139 1_555
Ba1 O20 2.457027 1_545
Ba1 O22 2.810227 1_545
Ba1 O13 3.118413 1_555
Ba1 O0 3.245608 1_555
Ba2 O9 2.388676 1_555
Ba2 O23 2.455212 1_555
Ba2 O2 2.841083 1_545
Ba2 O21 2.993725 1_455
Ba2 O6 3.140483 1_555
Ba3 O10 2.460683 1_455
Ba3 O23 2.462682 1_555
Ba3 O5 2.873321 1_455
Ba3 O13 3.011636 1_555
Ba3 O11 3.109568 1_455
Ba3 O18 3.223508 1_555
Ba4 O9 2.460677 1_565
Ba4 O20 2.462688 1_555
Ba4 O2 2.873313 1_555
Ba4 O12 3.011642 1_555
Ba4 O8 3.109564 1_555
Ba4 O19 3.223508 1_565
Ba5 O10 2.388676 1_555
Ba5 O20 2.455210 1_555
Ba5 O5 2.841082 1_555
Ba5 O22 2.993725 1_555
Ba5 O7 3.140483 1_555
B0 O2 1.281958 1_555
B0 O1 1.467100 1_455
B0 O8 1.511443 1_555
B1 O5 1.281959 1_555
B1 O0 1.467106 1_555
B1 O11 1.511436 1_555
B2 O11 1.387390 1_555
B2 O0 1.387829 1_555
B2 O7 1.398184 1_545
B3 O4 1.226980 1_655
B3 O7 1.313370 1_555
B4 O3 1.226980 1_555
B4 O6 1.313370 1_555
B5 O8 1.387390 1_555
B5 O1 1.387829 1_455
B5 O6 1.398184 1_555
B6 O12 1.237379 1_555
B6 O15 1.309074 1_555
B7 O13 1.237380 1_555
B7 O16 1.309073 1_545
B8 O22 1.296774 1_555
B8 O18 1.438921 1_555
B8 O16 1.458579 1_555
B9 O14 1.226896 1_555
B9 O18 1.316910 1_555
B10 O17 1.226892 1_545
B10 O19 1.316915 1_555
B11 O21 1.296774 1_555
B11 O19 1.438923 1_555
B11 O15 1.458579 1_555
