# generated using pymatgen
data_U2CN
_symmetry_space_group_name_H-M   'P 1'
_cell_length_a   6.00021625
_cell_length_b   6.00021625
_cell_length_c   6.00021556
_cell_angle_alpha   34.07378191
_cell_angle_beta   34.07378191
_cell_angle_gamma   34.07376870
_symmetry_Int_Tables_number   1
_chemical_formula_structural   U2CN
_chemical_formula_sum   'U2 C1 N1'
_cell_volume   60.44970786
_cell_formula_units_Z   1
loop_
 _symmetry_equiv_pos_site_id
 _symmetry_equiv_pos_as_xyz
  1  'x, y, z'
loop_
 _atom_site_type_symbol
 _atom_site_label
 _atom_site_symmetry_multiplicity
 _atom_site_fract_x
 _atom_site_fract_y
 _atom_site_fract_z
 _atom_site_occupancy
  U  U0  1  0.24840065  0.24840065  0.24840065  1
  U  U1  1  0.75159935  0.75159935  0.75159935  1
  C  C0  1  -0.00000000  -0.00000000  0.00000000  1
  N  N0  1  0.50000000  0.50000000  0.50000000  1
loop_
_geom_bond_atom_site_label_1
_geom_bond_atom_site_label_2
_geom_bond_distance
_geom_bond_site_symmetry_2
C0 U0 2.488078 1_554
C0 U1 2.488078 1_445
C0 U0 2.488078 1_455
C0 U1 2.488078 1_454
C0 U1 2.488078 1_544
C0 U0 2.488078 1_545
N0 U0 2.457145 1_556
N0 U1 2.457145 1_554
N0 U1 2.457145 1_455
N0 U1 2.457145 1_545
N0 U0 2.457145 1_655
N0 U0 2.457145 1_565
