# generated using pymatgen
data_Sn2H10C8N2O13
_symmetry_space_group_name_H-M   'P 1'
_cell_length_a   10.21969400
_cell_length_b   6.16262200
_cell_length_c   14.81965639
_cell_angle_alpha   90.00000000
_cell_angle_beta   109.77035710
_cell_angle_gamma   90.00000000
_symmetry_Int_Tables_number   1
_chemical_formula_structural   Sn2H10C8N2O13
_chemical_formula_sum   'Sn4 H20 C16 N4 O26'
_cell_volume   878.32850160
_cell_formula_units_Z   2
loop_
 _symmetry_equiv_pos_site_id
 _symmetry_equiv_pos_as_xyz
  1  'x, y, z'
loop_
 _atom_site_type_symbol
 _atom_site_label
 _atom_site_symmetry_multiplicity
 _atom_site_fract_x
 _atom_site_fract_y
 _atom_site_fract_z
 _atom_site_occupancy
  Sn  Sn0  1  0.11759800  0.79243600  0.08807200  1
  Sn  Sn1  1  0.88240200  0.79243600  0.41192800  1
  Sn  Sn2  1  0.88240200  0.20756400  0.91192800  1
  Sn  Sn3  1  0.11759800  0.20756400  0.58807200  1
  H  H0  1  0.65524400  0.93439600  0.18455600  1
  H  H1  1  0.34475600  0.93439600  0.31544400  1
  H  H2  1  0.34475600  0.06560400  0.81544400  1
  H  H3  1  0.65524400  0.06560400  0.68455600  1
  H  H4  1  0.48333200  0.87858200  0.14088300  1
  H  H5  1  0.51666800  0.87858200  0.35911700  1
  H  H6  1  0.51666800  0.12141800  0.85911700  1
  H  H7  1  0.48333200  0.12141800  0.64088300  1
  H  H8  1  0.53548500  0.14304800  0.14738100  1
  H  H9  1  0.46451500  0.14304800  0.35261900  1
  H  H10  1  0.46451500  0.85695200  0.85261900  1
  H  H11  1  0.53548500  0.85695200  0.64738100  1
  H  H12  1  0.65426100  0.06634900  0.03222800  1
  H  H13  1  0.34573900  0.06634900  0.46777200  1
  H  H14  1  0.34573900  0.93365100  0.96777200  1
  H  H15  1  0.65426100  0.93365100  0.53222800  1
  H  H16  1  0.59195600  0.79520100  0.02513800  1
  H  H17  1  0.40804400  0.79520100  0.47486200  1
  H  H18  1  0.40804400  0.20479900  0.97486200  1
  H  H19  1  0.59195600  0.20479900  0.52513800  1
  C  C0  1  0.25266900  0.33800700  0.12938700  1
  C  C1  1  0.74733100  0.33800700  0.37061300  1
  C  C2  1  0.74733100  0.66199300  0.87061300  1
  C  C3  1  0.25266900  0.66199300  0.62938700  1
  C  C4  1  0.37721900  0.49209700  0.13409200  1
  C  C5  1  0.62278100  0.49209700  0.36590800  1
  C  C6  1  0.62278100  0.50790300  0.86590800  1
  C  C7  1  0.37721900  0.50790300  0.63409200  1
  C  C8  1  0.07519800  0.77249900  0.28565600  1
  C  C9  1  0.92480200  0.77249900  0.21434400  1
  C  C10  1  0.92480200  0.22750100  0.71434400  1
  C  C11  1  0.07519800  0.22750100  0.78565600  1
  C  C12  1  0.56869200  0.96440800  0.03672700  1
  C  C13  1  0.43130800  0.96440800  0.46327300  1
  C  C14  1  0.43130800  0.03559200  0.96327300  1
  C  C15  1  0.56869200  0.03559200  0.53672700  1
  N  N0  1  0.56129300  0.98287900  0.13475800  1
  N  N1  1  0.43870700  0.98287900  0.36524200  1
  N  N2  1  0.43870700  0.01712100  0.86524200  1
  N  N3  1  0.56129300  0.01712100  0.63475800  1
  O  O0  1  0.34998900  0.69737900  0.13275800  1
  O  O1  1  0.65001100  0.69737900  0.36724200  1
  O  O2  1  0.65001100  0.30262100  0.86724200  1
  O  O3  1  0.34998900  0.30262100  0.63275800  1
  O  O4  1  0.13223200  0.42643700  0.10948200  1
  O  O5  1  0.86776800  0.42643700  0.39051800  1
  O  O6  1  0.86776800  0.57356300  0.89051800  1
  O  O7  1  0.13223200  0.57356300  0.60948200  1
  O  O8  1  0.27886800  0.14017200  0.14393400  1
  O  O9  1  0.72113200  0.14017200  0.35606600  1
  O  O10  1  0.72113200  0.85982800  0.85606600  1
  O  O11  1  0.27886800  0.85982800  0.64393400  1
  O  O12  1  0.49112400  0.41579700  0.13704800  1
  O  O13  1  0.50887600  0.41579700  0.36295200  1
  O  O14  1  0.50887600  0.58420300  0.86295200  1
  O  O15  1  0.49112400  0.58420300  0.63704800  1
  O  O16  1  0.17264400  0.79281100  0.24991500  1
  O  O17  1  0.82735600  0.79281100  0.25008500  1
  O  O18  1  0.82735600  0.20718900  0.75008500  1
  O  O19  1  0.17264400  0.20718900  0.74991500  1
  O  O20  1  0.90662600  0.75699300  0.12640000  1
  O  O21  1  0.09337400  0.75699300  0.37360000  1
  O  O22  1  0.09337400  0.24300700  0.87360000  1
  O  O23  1  0.90662600  0.24300700  0.62640000  1
  O  O24  1  0.00000000  0.23383600  0.25000000  1
  O  O25  1  0.00000000  0.76616400  0.75000000  1
loop_
_geom_bond_atom_site_label_1
_geom_bond_atom_site_label_2
_geom_bond_distance
_geom_bond_site_symmetry_2
H0 N0 1.037512 1_555
H1 N1 1.037512 1_555
H2 N2 1.037512 1_555
H3 N3 1.037512 1_555
H4 N0 1.051225 1_555
H4 O0 1.734214 1_555
H5 N1 1.051225 1_555
H5 O1 1.734214 1_555
H6 N2 1.051225 1_555
H6 O2 1.734214 1_555
H7 N3 1.051225 1_555
H7 O3 1.734214 1_555
H8 N0 1.054621 1_545
H9 N1 1.054621 1_545
H10 N2 1.054621 1_565
H11 N3 1.054621 1_565
C0 O8 1.251208 1_555
C0 O4 1.285814 1_555
C1 O9 1.251208 1_555
C1 O5 1.285814 1_555
C2 O10 1.251208 1_555
C2 O6 1.285814 1_555
C3 O11 1.251208 1_555
C3 O7 1.285814 1_555
C4 O12 1.242411 1_555
C4 O0 1.294035 1_555
C5 O13 1.242411 1_555
C5 O1 1.294035 1_555
C6 O14 1.242411 1_555
C6 O2 1.294035 1_555
C7 O15 1.242411 1_555
C7 O3 1.294035 1_555
C8 O21 1.256364 1_555
C8 O16 1.282503 1_555
C9 O20 1.256364 1_555
C9 O17 1.282503 1_555
C10 O23 1.256364 1_555
C10 O18 1.282503 1_555
C11 O22 1.256364 1_555
C11 O19 1.282503 1_555
C12 H16 1.095897 1_555
C12 H12 1.096944 1_565
C12 N0 1.484445 1_555
C13 H17 1.095897 1_555
C13 H13 1.096944 1_565
C13 N1 1.484445 1_555
C14 H18 1.095897 1_555
C14 H14 1.096944 1_545
C14 N2 1.484445 1_555
C15 H19 1.095897 1_555
C15 H15 1.096944 1_545
C15 N3 1.484445 1_555
O0 Sn0 2.314775 1_555
O1 Sn1 2.314775 1_555
O2 Sn2 2.314775 1_555
O3 Sn3 2.314775 1_555
O4 Sn0 2.275583 1_555
O5 Sn1 2.275583 1_555
O6 Sn2 2.275583 1_555
O7 Sn3 2.275583 1_555
O8 Sn0 2.659126 1_545
O9 Sn1 2.659126 1_545
O10 Sn2 2.659126 1_565
O11 Sn3 2.659126 1_565
O16 Sn0 2.270747 1_555
O17 Sn1 2.270747 1_555
O18 Sn2 2.270747 1_555
O19 Sn3 2.270747 1_555
O20 Sn0 2.418153 1_655
O21 Sn1 2.418153 1_455
O22 Sn2 2.418153 1_455
O23 Sn3 2.418153 1_655
