# generated using pymatgen
data_Li7Mn2(CoO4)3
_symmetry_space_group_name_H-M   'P 1'
_cell_length_a   2.90158300
_cell_length_b   5.07633228
_cell_length_c   15.40803296
_cell_angle_alpha   97.15364715
_cell_angle_beta   94.19666832
_cell_angle_gamma   104.73605202
_symmetry_Int_Tables_number   1
_chemical_formula_structural   Li7Mn2(CoO4)3
_chemical_formula_sum   'Li7 Mn2 Co3 O12'
_cell_volume   216.47352952
_cell_formula_units_Z   1
loop_
 _symmetry_equiv_pos_site_id
 _symmetry_equiv_pos_as_xyz
  1  'x, y, z'
loop_
 _atom_site_type_symbol
 _atom_site_label
 _atom_site_symmetry_multiplicity
 _atom_site_fract_x
 _atom_site_fract_y
 _atom_site_fract_z
 _atom_site_occupancy
  Li  Li0  1  0.00724900  0.25657700  0.75043500  1
  Li  Li1  1  0.66524300  0.41550700  0.91673700  1
  Li  Li2  1  0.33475700  0.58449300  0.08326300  1
  Li  Li3  1  0.99275100  0.74342300  0.24956500  1
  Li  Li4  1  0.69310400  0.92274800  0.42677500  1
  Li  Li5  1  0.30689600  0.07725200  0.57322500  1
  Li  Li6  1  0.00000000  0.50000000  0.50000000  1
  Mn  Mn0  1  0.66189100  0.67182000  0.66055700  1
  Mn  Mn1  1  0.33810900  0.32818000  0.33944300  1
  Co  Co0  1  0.32062400  0.82957600  0.83324700  1
  Co  Co1  1  0.00000000  0.00000000  0.00000000  1
  Co  Co2  1  0.67937600  0.17042400  0.16675300  1
  O  O0  1  0.29628100  0.92687400  0.70731100  1
  O  O1  1  0.00088500  0.10547300  0.87383000  1
  O  O2  1  0.67445300  0.27326900  0.04044100  1
  O  O3  1  0.34636500  0.43620800  0.21023500  1
  O  O4  1  0.96450800  0.58482100  0.36863300  1
  O  O5  1  0.67401800  0.79318900  0.55345900  1
  O  O6  1  0.65363500  0.56379200  0.78976500  1
  O  O7  1  0.32554700  0.72673100  0.95955900  1
  O  O8  1  0.99911500  0.89452700  0.12617000  1
  O  O9  1  0.70371900  0.07312600  0.29268900  1
  O  O10  1  0.32598200  0.20681100  0.44654100  1
  O  O11  1  0.03549200  0.41517900  0.63136700  1
loop_
_geom_bond_atom_site_label_1
_geom_bond_atom_site_label_2
_geom_bond_distance
_geom_bond_site_symmetry_2
Li0 O11 2.092132 1_555
Li0 O6 2.104106 1_555
Li0 O0 2.112984 1_545
Li0 O6 2.126447 1_455
Li0 O1 2.136519 1_555
Li0 O0 2.294408 1_445
Li1 O1 2.115974 1_655
Li1 O2 2.121360 1_556
Li1 O7 2.128529 1_555
Li1 O7 2.148857 1_655
Li1 O1 2.154279 1_555
Li1 O6 2.182946 1_555
Li2 O8 2.115974 1_455
Li2 O7 2.121360 1_554
Li2 O2 2.128529 1_555
Li2 O2 2.148857 1_455
Li2 O8 2.154279 1_555
Li2 O3 2.182946 1_555
Li3 O4 2.092132 1_555
Li3 O3 2.104106 1_555
Li3 O9 2.112984 1_565
Li3 O3 2.126447 1_655
Li3 O8 2.136519 1_555
Li3 O9 2.294408 1_665
Li4 O10 2.001480 1_665
Li4 O10 2.006586 1_565
Li4 O5 2.136061 1_555
Li4 O4 2.184757 1_555
Li4 O9 2.289584 1_565
Li4 O4 2.389498 1_455
Li5 O5 2.001480 1_445
Li5 O5 2.006586 1_545
Li5 O10 2.136061 1_555
Li5 O11 2.184757 1_555
Li5 O0 2.289584 1_545
Li5 O11 2.389498 1_655
Li6 O10 2.076804 1_555
Li6 O5 2.076804 1_455
Li6 O11 2.121822 1_555
Li6 O4 2.121822 1_455
Li6 O5 2.167147 1_555
Li6 O10 2.167147 1_455
Mn0 O5 1.831550 1_555
Mn0 O11 1.928363 1_655
Mn0 O11 1.932055 1_555
Mn0 O0 1.974591 1_555
Mn0 O0 1.986147 1_655
Mn0 O6 2.130014 1_555
Mn1 O10 1.831550 1_555
Mn1 O4 1.928363 1_455
Mn1 O4 1.932055 1_555
Mn1 O9 1.974591 1_555
Mn1 O9 1.986147 1_455
Mn1 O3 2.130014 1_555
Co0 O6 1.932802 1_555
Co0 O1 1.934183 1_565
Co0 O0 2.061695 1_555
Co0 O6 2.066740 1_455
Co0 O7 2.076855 1_555
Co0 O1 2.107943 1_665
Co1 O7 1.934519 1_544
Co1 O2 1.934519 1_455
Co1 O1 2.079713 1_554
Co1 O8 2.079713 1_445
Co1 O2 2.089868 1_555
Co1 O7 2.089868 1_444
Co2 O3 1.932802 1_555
Co2 O8 1.934183 1_545
Co2 O9 2.061695 1_555
Co2 O3 2.066740 1_655
Co2 O2 2.076855 1_555
Co2 O8 2.107943 1_445
