# generated using pymatgen
data_Sr3LaMn2O8
_symmetry_space_group_name_H-M   'P 1'
_cell_length_a   5.55811669
_cell_length_b   8.78517853
_cell_length_c   8.78474315
_cell_angle_alpha   78.08967170
_cell_angle_beta   71.56061351
_cell_angle_gamma   71.55924664
_symmetry_Int_Tables_number   1
_chemical_formula_structural   Sr3LaMn2O8
_chemical_formula_sum   'Sr6 La2 Mn4 O16'
_cell_volume   383.32879185
_cell_formula_units_Z   2
loop_
 _symmetry_equiv_pos_site_id
 _symmetry_equiv_pos_as_xyz
  1  'x, y, z'
loop_
 _atom_site_type_symbol
 _atom_site_label
 _atom_site_symmetry_multiplicity
 _atom_site_fract_x
 _atom_site_fract_y
 _atom_site_fract_z
 _atom_site_occupancy
  Sr  Sr0  1  0.35865400  0.14407600  0.14409400  1
  Sr  Sr1  1  0.35448800  0.64359800  0.64358100  1
  Sr  Sr2  1  0.63925500  0.35891900  0.35893100  1
  Sr  Sr3  1  0.64512500  0.85841200  0.85840300  1
  Sr  Sr4  1  0.14286600  0.60582500  0.10615500  1
  Sr  Sr5  1  0.14283600  0.10621600  0.60583200  1
  La  La0  1  0.86010000  0.38946500  0.88996100  1
  La  La1  1  0.86004600  0.88999300  0.38949100  1
  Mn  Mn0  1  0.49977300  0.74908300  0.24774200  1
  Mn  Mn1  1  0.49989100  0.24746600  0.74909300  1
  Mn  Mn2  1  0.00691300  0.99869100  0.99875300  1
  Mn  Mn3  1  0.99702400  0.49863100  0.49844600  1
  O  O0  1  0.15511300  0.34149600  0.34144800  1
  O  O1  1  0.16120800  0.84250100  0.84250200  1
  O  O2  1  0.66779000  0.58236800  0.08053200  1
  O  O3  1  0.66774900  0.08054500  0.58238400  1
  O  O4  1  0.33774800  0.40824000  0.91040400  1
  O  O5  1  0.33777300  0.91037500  0.40823600  1
  O  O6  1  0.84811600  0.16065400  0.16073200  1
  O  O7  1  0.83367400  0.66088000  0.66074900  1
  O  O8  1  0.74273100  0.37369000  0.63180100  1
  O  O9  1  0.76794500  0.88198300  0.12576800  1
  O  O10  1  0.24812600  0.12679900  0.87707900  1
  O  O11  1  0.23309300  0.62768200  0.37775400  1
  O  O12  1  0.76794600  0.12578500  0.88202000  1
  O  O13  1  0.74278300  0.63177100  0.37364900  1
  O  O14  1  0.23305700  0.37782700  0.62767500  1
  O  O15  1  0.24818100  0.87702500  0.12678000  1
loop_
_geom_bond_atom_site_label_1
_geom_bond_atom_site_label_2
_geom_bond_distance
_geom_bond_site_symmetry_2
La0 O2 2.389602 1_556
La0 O12 2.544253 1_555
La0 O14 2.560886 1_655
La0 O8 2.590526 1_555
La0 O10 2.606509 1_655
La0 O4 2.774600 1_655
La0 O6 2.777409 1_556
La0 O7 2.783039 1_555
La0 O4 2.804996 1_555
La1 O3 2.389420 1_565
La1 O9 2.544524 1_555
La1 O11 2.561293 1_655
La1 O13 2.591034 1_555
La1 O15 2.607024 1_655
La1 O5 2.774736 1_655
La1 O6 2.776510 1_565
La1 O7 2.781573 1_555
La1 O5 2.804760 1_555
Mn0 O13 1.924512 1_555
Mn0 O15 1.949520 1_555
Mn0 O5 2.005179 1_555
Mn0 O11 2.016274 1_555
Mn0 O9 2.075391 1_555
Mn0 O2 2.080817 1_555
Mn1 O8 1.925777 1_555
Mn1 O10 1.948657 1_555
Mn1 O4 2.007039 1_555
Mn1 O14 2.017622 1_555
Mn1 O12 2.074565 1_555
Mn1 O3 2.078977 1_555
Mn2 O9 1.874087 1_456
Mn2 O12 1.874352 1_465
Mn2 O15 1.938232 1_556
Mn2 O10 1.938582 1_565
Mn2 O1 1.946961 1_555
Mn2 O6 2.018675 1_466
Mn3 O11 1.922497 1_655
Mn3 O14 1.923590 1_655
Mn3 O0 1.957484 1_655
Mn3 O13 1.992968 1_555
Mn3 O8 1.994524 1_555
Mn3 O7 2.022409 1_555
O0 Sr0 2.460218 1_555
O0 Sr4 2.770807 1_555
O0 Sr5 2.771050 1_555
O0 Sr2 2.778729 1_455
O0 Sr2 2.796387 1_555
O1 Sr1 2.479181 1_555
O1 Sr4 2.773992 1_556
O1 Sr5 2.774339 1_565
O1 Sr3 2.785130 1_555
O1 Sr3 2.787109 1_455
O2 Sr3 2.777350 1_554
O2 Sr4 2.793727 1_655
O2 Sr4 2.797997 1_555
O2 Sr2 2.798196 1_555
O3 Sr3 2.777185 1_545
O3 Sr5 2.793924 1_655
O3 Sr5 2.797856 1_555
O3 Sr2 2.798086 1_555
O4 Sr4 2.451059 1_556
O4 Sr0 2.761796 1_556
O4 Sr1 2.785923 1_555
O5 Sr5 2.451686 1_565
O5 Sr0 2.761706 1_565
O5 Sr1 2.785599 1_555
O6 Sr2 2.471219 1_555
O6 Sr0 2.753121 1_655
O6 Sr0 2.820392 1_555
O7 Sr3 2.463057 1_555
O7 Sr1 2.767440 1_555
O7 Sr1 2.807236 1_655
O8 Sr1 2.648146 1_555
O8 Sr5 2.667104 1_655
O8 Sr2 2.672342 1_555
O9 Sr4 2.646707 1_655
O9 Sr0 2.666496 1_565
O9 Sr3 2.707380 1_554
O10 Sr0 2.649542 1_556
O10 Sr3 2.663528 1_545
O10 Sr5 2.679556 1_555
O11 Sr4 2.643475 1_555
O11 Sr1 2.668199 1_555
O11 Sr2 2.692845 1_555
O12 Sr5 2.646760 1_655
O12 Sr0 2.666380 1_556
O12 Sr3 2.707707 1_545
O13 Sr1 2.648384 1_555
O13 Sr4 2.667116 1_655
O13 Sr2 2.672321 1_555
O14 Sr5 2.643645 1_555
O14 Sr1 2.667928 1_555
O14 Sr2 2.692800 1_555
O15 Sr0 2.649911 1_565
O15 Sr3 2.663287 1_554
O15 Sr4 2.679468 1_555
