# generated using pymatgen
data_Mg3Fe2O5
_symmetry_space_group_name_H-M   'P 1'
_cell_length_a   5.22169875
_cell_length_b   7.73878214
_cell_length_c   5.27625327
_cell_angle_alpha   101.76842592
_cell_angle_beta   79.06163139
_cell_angle_gamma   70.63846779
_symmetry_Int_Tables_number   1
_chemical_formula_structural   Mg3Fe2O5
_chemical_formula_sum   'Mg6 Fe4 O10'
_cell_volume   189.12492977
_cell_formula_units_Z   2
loop_
 _symmetry_equiv_pos_site_id
 _symmetry_equiv_pos_as_xyz
  1  'x, y, z'
loop_
 _atom_site_type_symbol
 _atom_site_label
 _atom_site_symmetry_multiplicity
 _atom_site_fract_x
 _atom_site_fract_y
 _atom_site_fract_z
 _atom_site_occupancy
  Mg  Mg0  1  0.79985238  0.39974916  0.99968390  1
  Mg  Mg1  1  0.79991641  0.89977177  0.49961739  1
  Mg  Mg2  1  0.99692091  0.99854106  0.99949701  1
  Mg  Mg3  1  0.99691205  0.49852198  0.49977604  1
  Mg  Mg4  1  0.60284181  0.30047748  0.49947562  1
  Mg  Mg5  1  0.60286280  0.80040800  -0.00043376  1
  Fe  Fe0  1  0.21658111  0.56989723  0.99461736  1
  Fe  Fe1  1  0.38227302  0.22872600  0.00460087  1
  Fe  Fe2  1  0.21650074  0.07012509  0.49456852  1
  Fe  Fe3  1  0.38210447  0.72900103  0.50456608  1
  O  O0  1  0.79931130  0.14945858  0.74951867  1
  O  O1  1  0.79922964  0.64957630  0.24978616  1
  O  O2  1  0.19244483  0.34363397  0.72853082  1
  O  O3  1  0.19209708  0.84401569  0.22869911  1
  O  O4  1  0.40633032  0.45499979  0.27046478  1
  O  O5  1  0.40654717  0.95494809  0.77036236  1
  O  O6  1  0.99305694  0.25114390  0.24375913  1
  O  O7  1  0.99328690  0.75108661  0.74403226  1
  O  O8  1  0.60522466  0.04791224  0.25512353  1
  O  O9  1  0.60558544  0.54769304  0.75541416  1
loop_
_geom_bond_atom_site_label_1
_geom_bond_atom_site_label_2
_geom_bond_distance
_geom_bond_site_symmetry_2
Mg0 O6 2.080066 1_556
Mg0 O9 2.080603 1_555
Mg0 O1 2.105408 1_556
Mg0 O0 2.110959 1_555
Mg0 O2 2.116873 1_655
Mg0 O4 2.121452 1_556
Mg1 O7 2.082227 1_555
Mg1 O8 2.083299 1_565
Mg1 O0 2.104123 1_565
Mg1 O1 2.109927 1_555
Mg1 O3 2.115361 1_655
Mg1 O5 2.120897 1_555
Mg2 O3 2.044682 1_656
Mg2 O8 2.091212 1_566
Mg2 O6 2.102159 1_566
Mg2 O7 2.113122 1_555
Mg2 O0 2.124660 1_565
Mg2 O5 2.127043 1_655
Mg3 O2 2.045076 1_655
Mg3 O9 2.090127 1_555
Mg3 O7 2.102426 1_555
Mg3 O6 2.114486 1_555
Mg3 O1 2.125416 1_555
Mg3 O4 2.126607 1_655
Mg4 O4 2.046773 1_555
Mg4 O6 2.085349 1_555
Mg4 O8 2.105347 1_555
Mg4 O9 2.110824 1_555
Mg4 O0 2.122846 1_555
Mg4 O2 2.131286 1_555
Mg5 O5 2.047238 1_554
Mg5 O7 2.085832 1_554
Mg5 O9 2.105090 1_554
Mg5 O8 2.110793 1_565
Mg5 O1 2.122644 1_555
Mg5 O3 2.132038 1_555
Fe0 O2 2.064859 1_555
Fe0 O4 2.093239 1_556
Fe0 O9 2.110836 1_555
Fe0 O1 2.144524 1_456
Fe0 O3 2.175628 1_556
Fe0 O7 2.308883 1_455
Fe1 O4 2.064115 1_555
Fe1 O2 2.094488 1_554
Fe1 O6 2.111056 1_455
Fe1 O0 2.143607 1_554
Fe1 O5 2.174120 1_544
Fe1 O8 2.306266 1_555
Fe2 O3 2.064054 1_545
Fe2 O5 2.094601 1_545
Fe2 O8 2.110118 1_555
Fe2 O0 2.143887 1_455
Fe2 O2 2.172275 1_555
Fe2 O6 2.309408 1_455
Fe3 O5 2.063034 1_555
Fe3 O3 2.094327 1_555
Fe3 O7 2.110919 1_455
Fe3 O1 2.143154 1_555
Fe3 O4 2.175406 1_555
Fe3 O9 2.310895 1_555
