# generated using pymatgen
data_VCo5AsO10
_symmetry_space_group_name_H-M   'P 1'
_cell_length_a   10.15027461
_cell_length_b   10.15027461
_cell_length_c   14.73171458
_cell_angle_alpha   62.41697560
_cell_angle_beta   62.41697560
_cell_angle_gamma   35.32270687
_symmetry_Int_Tables_number   1
_chemical_formula_structural   VCo5AsO10
_chemical_formula_sum   'V4 Co20 As4 O40'
_cell_volume   766.97455592
_cell_formula_units_Z   4
loop_
 _symmetry_equiv_pos_site_id
 _symmetry_equiv_pos_as_xyz
  1  'x, y, z'
loop_
 _atom_site_type_symbol
 _atom_site_label
 _atom_site_symmetry_multiplicity
 _atom_site_fract_x
 _atom_site_fract_y
 _atom_site_fract_z
 _atom_site_occupancy
  V  V0  1  0.40014700  0.40014700  0.52669900  1
  V  V1  1  0.59985300  0.59985300  0.47330100  1
  V  V2  1  0.50875400  0.50875400  0.12565600  1
  V  V3  1  0.49124600  0.49124600  0.87434400  1
  Co  Co0  1  0.11207300  0.11207300  0.46379500  1
  Co  Co1  1  0.88792700  0.88792700  0.53620500  1
  Co  Co2  1  0.70549200  0.70549200  0.20597500  1
  Co  Co3  1  0.29450800  0.29450800  0.79402500  1
  Co  Co4  1  0.30856800  0.30856800  0.29849900  1
  Co  Co5  1  0.69143200  0.69143200  0.70150100  1
  Co  Co6  1  0.29393400  0.79086200  0.30857100  1
  Co  Co7  1  0.79086200  0.29393400  0.30857100  1
  Co  Co8  1  0.70606600  0.20913800  0.69142900  1
  Co  Co9  1  0.20913800  0.70606600  0.69142900  1
  Co  Co10  1  0.09339300  0.09339300  0.10286500  1
  Co  Co11  1  0.90660700  0.90660700  0.89713500  1
  Co  Co12  1  0.00000000  0.50000000  0.50000000  1
  Co  Co13  1  0.50000000  0.00000000  0.50000000  1
  Co  Co14  1  0.50000000  0.00000000  0.00000000  1
  Co  Co15  1  0.00000000  0.50000000  0.00000000  1
  Co  Co16  1  0.60725600  0.11080700  0.09805500  1
  Co  Co17  1  0.11080700  0.60725600  0.09805500  1
  Co  Co18  1  0.39274400  0.88919300  0.90194500  1
  Co  Co19  1  0.88919300  0.39274400  0.90194500  1
  As  As0  1  0.20116900  0.20116900  0.20227200  1
  As  As1  1  0.79883100  0.79883100  0.79772800  1
  As  As2  1  0.89357400  0.89357400  0.27668500  1
  As  As3  1  0.10642600  0.10642600  0.72331500  1
  O  O0  1  0.10651000  0.10651000  0.33160600  1
  O  O1  1  0.89349000  0.89349000  0.66839400  1
  O  O2  1  0.60158000  0.60158000  0.34868800  1
  O  O3  1  0.39842000  0.39842000  0.65131200  1
  O  O4  1  0.32414500  0.78847200  0.05503700  1
  O  O5  1  0.78847200  0.32414500  0.05503700  1
  O  O6  1  0.67585500  0.21152800  0.94496300  1
  O  O7  1  0.21152800  0.67585500  0.94496300  1
  O  O8  1  0.99286500  0.99286500  0.25485900  1
  O  O9  1  0.00713500  0.00713500  0.74514100  1
  O  O10  1  0.21167600  0.68378000  0.45644100  1
  O  O11  1  0.68378000  0.21167600  0.45644100  1
  O  O12  1  0.78832400  0.31622000  0.54355900  1
  O  O13  1  0.31622000  0.78832400  0.54355900  1
  O  O14  1  0.21526400  0.21526400  0.44737600  1
  O  O15  1  0.78473600  0.78473600  0.55262400  1
  O  O16  1  0.46438700  0.03881400  0.23578200  1
  O  O17  1  0.03881400  0.46438700  0.23578200  1
  O  O18  1  0.53561300  0.96118600  0.76421800  1
  O  O19  1  0.96118600  0.53561300  0.76421800  1
  O  O20  1  0.08302400  0.61649300  0.34392100  1
  O  O21  1  0.61649300  0.08302400  0.34392100  1
  O  O22  1  0.91697600  0.38350700  0.65607900  1
  O  O23  1  0.38350700  0.91697600  0.65607900  1
  O  O24  1  0.80452900  0.80452900  0.05147800  1
  O  O25  1  0.19547100  0.19547100  0.94852200  1
  O  O26  1  0.40952700  0.40952700  0.14536300  1
  O  O27  1  0.59047300  0.59047300  0.85463700  1
  O  O28  1  0.89778000  0.89778000  0.15627600  1
  O  O29  1  0.10222000  0.10222000  0.84372400  1
  O  O30  1  0.51107700  0.51107700  0.24280200  1
  O  O31  1  0.48892300  0.48892300  0.75719800  1
  O  O32  1  0.28881300  0.28881300  0.06242700  1
  O  O33  1  0.71118700  0.71118700  0.93757300  1
  O  O34  1  0.69337300  0.69337300  0.45592200  1
  O  O35  1  0.30662700  0.30662700  0.54407800  1
  O  O36  1  0.37174700  0.93738800  0.15885200  1
  O  O37  1  0.93738800  0.37174700  0.15885200  1
  O  O38  1  0.62825300  0.06261200  0.84114800  1
  O  O39  1  0.06261200  0.62825300  0.84114800  1
loop_
_geom_bond_atom_site_label_1
_geom_bond_atom_site_label_2
_geom_bond_distance
_geom_bond_site_symmetry_2
Co0 O14 1.890416 1_555
Co0 O0 2.001872 1_555
Co0 O13 2.010122 1_545
Co0 O12 2.010122 1_455
Co1 O15 1.890416 1_555
Co1 O1 2.001872 1_555
Co1 O10 2.010122 1_655
Co1 O11 2.010122 1_565
Co2 O2 2.086460 1_555
Co2 O17 2.120876 1_655
Co2 O16 2.120876 1_565
Co2 O24 2.147711 1_555
Co2 O37 2.269595 1_555
Co2 O36 2.269595 1_555
Co3 O3 2.086460 1_555
Co3 O19 2.120876 1_455
Co3 O18 2.120876 1_545
Co3 O25 2.147711 1_555
Co3 O39 2.269595 1_555
Co3 O38 2.269595 1_555
Co4 O14 2.054403 1_555
Co4 O21 2.073551 1_555
Co4 O20 2.073551 1_555
Co4 O26 2.149755 1_555
Co4 O17 2.185179 1_555
Co4 O16 2.185179 1_555
Co5 O15 2.054403 1_555
Co5 O22 2.073551 1_555
Co5 O23 2.073551 1_555
Co5 O27 2.149755 1_555
Co5 O18 2.185179 1_555
Co5 O19 2.185179 1_555
Co6 O30 2.053803 1_555
Co6 O10 2.056143 1_555
Co6 O0 2.112396 1_565
Co6 O2 2.158508 1_555
Co6 O8 2.163572 1_455
Co6 O36 2.228531 1_555
Co7 O30 2.053803 1_555
Co7 O11 2.056143 1_555
Co7 O0 2.112396 1_655
Co7 O2 2.158508 1_555
Co7 O8 2.163572 1_545
Co7 O37 2.228531 1_555
Co8 O31 2.053803 1_555
Co8 O12 2.056143 1_555
Co8 O1 2.112396 1_545
Co8 O3 2.158508 1_555
Co8 O9 2.163572 1_655
Co8 O38 2.228531 1_555
Co9 O31 2.053803 1_555
Co9 O13 2.056143 1_555
Co9 O1 2.112396 1_455
Co9 O3 2.158508 1_555
Co9 O9 2.163572 1_565
Co9 O39 2.228531 1_555
Co10 O5 2.055104 1_455
Co10 O4 2.055104 1_545
Co10 O8 2.136212 1_445
Co10 O25 2.169198 1_554
Co10 O37 2.195065 1_455
Co10 O36 2.195065 1_545
Co11 O7 2.055104 1_655
Co11 O6 2.055104 1_565
Co11 O9 2.136212 1_665
Co11 O24 2.169198 1_556
Co11 O39 2.195065 1_655
Co11 O38 2.195065 1_565
Co12 O14 1.982311 1_555
Co12 O15 1.982311 1_455
Co12 O35 2.164161 1_555
Co12 O34 2.164161 1_455
Co12 O22 2.170024 1_455
Co12 O20 2.170024 1_555
Co13 O15 1.982311 1_545
Co13 O14 1.982311 1_555
Co13 O35 2.164161 1_555
Co13 O34 2.164161 1_545
Co13 O23 2.170024 1_545
Co13 O21 2.170024 1_555
Co14 O33 2.109816 1_544
Co14 O32 2.109816 1_555
Co14 O36 2.174057 1_545
Co14 O38 2.174057 1_554
Co14 O25 2.199076 1_554
Co14 O24 2.199076 1_545
Co15 O32 2.109816 1_555
Co15 O33 2.109816 1_454
Co15 O39 2.174057 1_554
Co15 O37 2.174057 1_455
Co15 O25 2.199076 1_554
Co15 O24 2.199076 1_455
Co16 O6 2.046596 1_554
Co16 O28 2.080112 1_545
Co16 O16 2.094049 1_555
Co16 O26 2.106810 1_555
Co16 O24 2.165641 1_545
Co16 O32 2.269483 1_555
Co17 O7 2.046596 1_554
Co17 O28 2.080112 1_455
Co17 O17 2.094049 1_555
Co17 O26 2.106810 1_555
Co17 O24 2.165641 1_455
Co17 O32 2.269483 1_555
Co18 O4 2.046596 1_556
Co18 O29 2.080112 1_565
Co18 O18 2.094049 1_555
Co18 O27 2.106810 1_555
Co18 O25 2.165641 1_565
Co18 O33 2.269483 1_555
Co19 O5 2.046596 1_556
Co19 O29 2.080112 1_655
Co19 O19 2.094049 1_555
Co19 O27 2.106810 1_555
Co19 O25 2.165641 1_655
Co19 O33 2.269483 1_555
As0 O17 1.838734 1_555
As0 O16 1.838734 1_555
As0 O36 1.889800 1_545
As0 O37 1.889800 1_455
As0 O0 1.895354 1_555
As0 O32 1.929771 1_555
As1 O19 1.838734 1_555
As1 O18 1.838734 1_555
As1 O39 1.889800 1_655
As1 O38 1.889800 1_565
As1 O1 1.895354 1_555
As1 O33 1.929771 1_555
As2 O20 1.716857 1_655
As2 O21 1.716857 1_565
As2 O28 1.735752 1_555
As2 O8 1.786650 1_555
As3 O23 1.716857 1_545
As3 O22 1.716857 1_455
As3 O29 1.735752 1_555
As3 O9 1.786650 1_555
O2 V1 1.819764 1_555
O3 V0 1.819764 1_555
O4 V2 1.744422 1_555
O5 V2 1.744422 1_555
O6 V3 1.744422 1_555
O7 V3 1.744422 1_555
O10 V0 1.762446 1_555
O11 V0 1.762446 1_555
O12 V1 1.762446 1_555
O13 V1 1.762446 1_555
O26 V2 1.796352 1_555
O27 V3 1.796352 1_555
O30 V2 1.748038 1_555
O31 V3 1.748038 1_555
O34 V1 1.699409 1_555
O35 V0 1.699409 1_555
