# generated using pymatgen
data_Zr2Se3
_symmetry_space_group_name_H-M   'P 1'
_cell_length_a   6.53347299
_cell_length_b   6.53347276
_cell_length_c   6.66426338
_cell_angle_alpha   80.55756175
_cell_angle_beta   99.44245897
_cell_angle_gamma   59.97726396
_symmetry_Int_Tables_number   1
_chemical_formula_structural   Zr2Se3
_chemical_formula_sum   'Zr4 Se6'
_cell_volume   232.65850463
_cell_formula_units_Z   2
loop_
 _symmetry_equiv_pos_site_id
 _symmetry_equiv_pos_as_xyz
  1  'x, y, z'
loop_
 _atom_site_type_symbol
 _atom_site_label
 _atom_site_symmetry_multiplicity
 _atom_site_fract_x
 _atom_site_fract_y
 _atom_site_fract_z
 _atom_site_occupancy
  Zr  Zr0  1  0.82636521  0.82636521  0.50000000  1
  Zr  Zr1  1  0.50000000  0.50000000  0.50000000  1
  Zr  Zr2  1  0.17363479  0.17363479  0.50000000  1
  Zr  Zr3  1  0.00000000  -0.00000000  0.00000000  1
  Se  Se0  1  0.74485174  0.25514826  0.24832079  1
  Se  Se1  1  0.41870933  0.92130168  0.23611935  1
  Se  Se2  1  0.07869832  0.58129067  0.23611935  1
  Se  Se3  1  0.92130168  0.41870933  0.76388065  1
  Se  Se4  1  0.58129067  0.07869832  0.76388065  1
  Se  Se5  1  0.25514826  0.74485174  0.75167921  1
loop_
_geom_bond_atom_site_label_1
_geom_bond_atom_site_label_2
_geom_bond_distance
_geom_bond_site_symmetry_2
Se0 Zr1 2.670456 1_555
Se0 Zr3 2.706645 1_655
Se0 Zr2 2.759911 1_655
Se0 Zr0 2.759911 1_545
Se1 Zr0 2.650127 1_555
Se1 Zr3 2.671829 1_565
Se1 Zr1 2.755652 1_555
Se1 Zr2 2.758244 1_565
Se2 Zr2 2.650127 1_555
Se2 Zr3 2.671830 1_565
Se2 Zr1 2.755651 1_555
Se2 Zr0 2.758244 1_455
Se3 Zr0 2.650127 1_555
Se3 Zr3 2.671830 1_656
Se3 Zr1 2.755651 1_555
Se3 Zr2 2.758244 1_655
Se4 Zr2 2.650127 1_555
Se4 Zr3 2.671829 1_656
Se4 Zr1 2.755652 1_555
Se4 Zr0 2.758244 1_545
Se5 Zr1 2.670456 1_555
Se5 Zr3 2.706645 1_566
Se5 Zr0 2.759911 1_455
Se5 Zr2 2.759911 1_565
