# generated using pymatgen
data_UCoNiGe2
_symmetry_space_group_name_H-M   'P 1'
_cell_length_a   4.12801900
_cell_length_b   4.12801900
_cell_length_c   9.30811600
_cell_angle_alpha   90.00000000
_cell_angle_beta   90.00000000
_cell_angle_gamma   90.00000000
_symmetry_Int_Tables_number   1
_chemical_formula_structural   UCoNiGe2
_chemical_formula_sum   'U2 Co2 Ni2 Ge4'
_cell_volume   158.61533107
_cell_formula_units_Z   2
loop_
 _symmetry_equiv_pos_site_id
 _symmetry_equiv_pos_as_xyz
  1  'x, y, z'
loop_
 _atom_site_type_symbol
 _atom_site_label
 _atom_site_symmetry_multiplicity
 _atom_site_fract_x
 _atom_site_fract_y
 _atom_site_fract_z
 _atom_site_occupancy
  U  U0  1  0.00000000  0.50000000  0.23643100  1
  U  U1  1  0.50000000  0.00000000  0.76356900  1
  Co  Co0  1  0.50000000  0.50000000  0.00000000  1
  Co  Co1  1  0.00000000  0.00000000  0.00000000  1
  Ni  Ni0  1  0.00000000  0.50000000  0.62306600  1
  Ni  Ni1  1  0.50000000  0.00000000  0.37693400  1
  Ge  Ge0  1  0.00000000  0.50000000  0.86847200  1
  Ge  Ge1  1  0.50000000  0.00000000  0.13152800  1
  Ge  Ge2  1  0.50000000  0.50000000  0.50000000  1
  Ge  Ge3  1  0.00000000  0.00000000  0.50000000  1
loop_
_geom_bond_atom_site_label_1
_geom_bond_atom_site_label_2
_geom_bond_distance
_geom_bond_site_symmetry_2
Co0 Ge1 2.399790 1_565
Co0 Ge0 2.399790 1_654
Co0 Ge0 2.399790 1_554
Co0 Ge1 2.399790 1_555
Co0 U1 3.017173 1_564
Co0 U1 3.017173 1_554
Co0 U0 3.017173 1_655
Co0 U0 3.017173 1_555
Co1 Ge0 2.399790 1_544
Co1 Ge1 2.399790 1_455
Co1 Ge0 2.399790 1_554
Co1 Ge1 2.399790 1_555
Co1 U1 3.017173 1_454
Co1 U1 3.017173 1_554
Co1 U0 3.017173 1_555
Co1 U0 3.017173 1_545
Ni0 U1 3.198540 1_455
Ni0 U1 3.198540 1_565
Ni0 U1 3.198540 1_465
Ni0 U1 3.198540 1_555
Ni1 U0 3.198540 1_645
Ni1 U0 3.198540 1_545
Ni1 U0 3.198540 1_555
Ni1 U0 3.198540 1_655
Ge0 Ni0 2.284268 1_555
Ge0 U1 3.077941 1_465
Ge0 U1 3.077941 1_555
Ge0 U1 3.077941 1_455
Ge0 U1 3.077941 1_565
Ge1 Ni1 2.284268 1_555
Ge1 U0 3.077941 1_655
Ge1 U0 3.077941 1_645
Ge1 U0 3.077941 1_545
Ge1 U0 3.077941 1_555
Ge2 Ni0 2.360579 1_655
Ge2 Ni0 2.360579 1_555
Ge2 Ni1 2.360579 1_565
Ge2 Ni1 2.360579 1_555
Ge2 U1 3.206083 1_565
Ge2 U0 3.206083 1_655
Ge2 U0 3.206083 1_555
Ge2 U1 3.206083 1_555
Ge3 Ni1 2.360579 1_455
Ge3 Ni0 2.360579 1_555
Ge3 Ni0 2.360579 1_545
Ge3 Ni1 2.360579 1_555
Ge3 U0 3.206083 1_545
Ge3 U1 3.206083 1_455
Ge3 U0 3.206083 1_555
Ge3 U1 3.206083 1_555
