# generated using pymatgen
data_Mg2BiSbO6
_symmetry_space_group_name_H-M   'P 1'
_cell_length_a   8.07731200
_cell_length_b   5.59110000
_cell_length_c   5.60655572
_cell_angle_alpha   87.70610724
_cell_angle_beta   90.00000000
_cell_angle_gamma   90.00000000
_symmetry_Int_Tables_number   1
_chemical_formula_structural   Mg2BiSbO6
_chemical_formula_sum   'Mg4 Bi2 Sb2 O12'
_cell_volume   252.99509835
_cell_formula_units_Z   2
loop_
 _symmetry_equiv_pos_site_id
 _symmetry_equiv_pos_as_xyz
  1  'x, y, z'
loop_
 _atom_site_type_symbol
 _atom_site_label
 _atom_site_symmetry_multiplicity
 _atom_site_fract_x
 _atom_site_fract_y
 _atom_site_fract_z
 _atom_site_occupancy
  Mg  Mg0  1  0.75000000  0.53051700  0.48850700  1
  Mg  Mg1  1  0.25000000  0.46948300  0.51149300  1
  Mg  Mg2  1  0.75000000  0.02122000  0.02518700  1
  Mg  Mg3  1  0.25000000  0.97878000  0.97481300  1
  Bi  Bi0  1  0.50000000  0.00000000  0.50000000  1
  Bi  Bi1  1  0.00000000  0.00000000  0.50000000  1
  Sb  Sb0  1  0.50000000  0.50000000  0.00000000  1
  Sb  Sb1  1  0.00000000  0.50000000  0.00000000  1
  O  O0  1  0.42741400  0.63895200  0.30679500  1
  O  O1  1  0.07041300  0.18338900  0.12789300  1
  O  O2  1  0.92741400  0.36104800  0.69320500  1
  O  O3  1  0.57041300  0.81661100  0.87210700  1
  O  O4  1  0.42958700  0.18338900  0.12789300  1
  O  O5  1  0.92958700  0.81661100  0.87210700  1
  O  O6  1  0.25000000  0.60340100  0.85957100  1
  O  O7  1  0.07258600  0.63895200  0.30679500  1
  O  O8  1  0.75000000  0.87377800  0.35755500  1
  O  O9  1  0.57258600  0.36104800  0.69320500  1
  O  O10  1  0.75000000  0.39659900  0.14042900  1
  O  O11  1  0.25000000  0.12622200  0.64244500  1
loop_
_geom_bond_atom_site_label_1
_geom_bond_atom_site_label_2
_geom_bond_distance
_geom_bond_site_symmetry_2
Mg0 O8 2.027213 1_555
Mg0 O2 2.044851 1_555
Mg0 O9 2.044851 1_555
Mg0 O10 2.118023 1_555
Mg1 O11 2.027213 1_555
Mg1 O7 2.044851 1_555
Mg1 O0 2.044851 1_555
Mg1 O6 2.118023 1_555
Mg2 O8 2.007240 1_545
Mg2 O5 2.056231 1_544
Mg2 O3 2.056231 1_544
Mg2 O10 2.220562 1_555
Mg3 O11 2.007240 1_565
Mg3 O1 2.056231 1_566
Mg3 O4 2.056231 1_566
Mg3 O6 2.220562 1_555
Bi0 O8 2.293174 1_545
Bi0 O11 2.293174 1_555
Bi0 O4 2.357109 1_555
Bi0 O3 2.357109 1_545
Bi0 O9 2.401481 1_555
Bi0 O0 2.401481 1_545
Bi1 O8 2.293174 1_445
Bi1 O11 2.293174 1_555
Bi1 O5 2.357109 1_445
Bi1 O1 2.357109 1_555
Bi1 O2 2.401481 1_455
Bi1 O7 2.401481 1_545
O0 Sb0 2.003223 1_555
O1 Sb1 1.967138 1_555
O2 Sb1 2.003223 1_656
O3 Sb0 1.967138 1_556
O4 Sb0 1.967138 1_555
O5 Sb1 1.967138 1_656
O6 Sb1 2.235029 1_556
O6 Sb0 2.235029 1_556
O7 Sb1 2.003223 1_555
O9 Sb0 2.003223 1_556
O10 Sb1 2.235029 1_655
O10 Sb0 2.235029 1_555
