# generated using pymatgen
data_DyCu(MoO4)2
_symmetry_space_group_name_H-M   'P 1'
_cell_length_a   9.88393000
_cell_length_b   10.28195900
_cell_length_c   14.71668400
_cell_angle_alpha   90.00000000
_cell_angle_beta   90.00000000
_cell_angle_gamma   90.00000000
_symmetry_Int_Tables_number   1
_chemical_formula_structural   DyCu(MoO4)2
_chemical_formula_sum   'Dy8 Cu8 Mo16 O64'
_cell_volume   1495.60012728
_cell_formula_units_Z   8
loop_
 _symmetry_equiv_pos_site_id
 _symmetry_equiv_pos_as_xyz
  1  'x, y, z'
loop_
 _atom_site_type_symbol
 _atom_site_label
 _atom_site_symmetry_multiplicity
 _atom_site_fract_x
 _atom_site_fract_y
 _atom_site_fract_z
 _atom_site_occupancy
  Dy  Dy0  1  0.77854200  0.03451300  0.89617200  1
  Dy  Dy1  1  0.77854200  0.53451300  0.60382800  1
  Dy  Dy2  1  0.27854200  0.46548700  0.89617200  1
  Dy  Dy3  1  0.72145800  0.03451300  0.39617200  1
  Dy  Dy4  1  0.22145800  0.96548700  0.10382800  1
  Dy  Dy5  1  0.22145800  0.46548700  0.39617200  1
  Dy  Dy6  1  0.72145800  0.53451300  0.10382800  1
  Dy  Dy7  1  0.27854200  0.96548700  0.60382800  1
  Cu  Cu0  1  0.18812700  0.31676800  0.19758700  1
  Cu  Cu1  1  0.68812700  0.68323200  0.30241300  1
  Cu  Cu2  1  0.31187300  0.81676800  0.80241300  1
  Cu  Cu3  1  0.81187300  0.18323200  0.69758700  1
  Cu  Cu4  1  0.81187300  0.68323200  0.80241300  1
  Cu  Cu5  1  0.31187300  0.31676800  0.69758700  1
  Cu  Cu6  1  0.68812700  0.18323200  0.19758700  1
  Cu  Cu7  1  0.18812700  0.81676800  0.30241300  1
  Mo  Mo0  1  0.66731200  0.89704700  0.65302900  1
  Mo  Mo1  1  0.00063300  0.78113800  0.44310000  1
  Mo  Mo2  1  0.50063300  0.21886200  0.05690000  1
  Mo  Mo3  1  0.49936700  0.28113800  0.55690000  1
  Mo  Mo4  1  0.99936700  0.71886200  0.94310000  1
  Mo  Mo5  1  0.99936700  0.21886200  0.55690000  1
  Mo  Mo6  1  0.49936700  0.78113800  0.94310000  1
  Mo  Mo7  1  0.50063300  0.71886200  0.44310000  1
  Mo  Mo8  1  0.00063300  0.28113800  0.05690000  1
  Mo  Mo9  1  0.16731200  0.10295300  0.84697100  1
  Mo  Mo10  1  0.83268800  0.39704700  0.34697100  1
  Mo  Mo11  1  0.33268800  0.60295300  0.15302900  1
  Mo  Mo12  1  0.66731200  0.39704700  0.84697100  1
  Mo  Mo13  1  0.83268800  0.89704700  0.15302900  1
  Mo  Mo14  1  0.16731200  0.60295300  0.65302900  1
  Mo  Mo15  1  0.33268800  0.10295300  0.34697100  1
  O  O0  1  0.10722700  0.32853900  0.49715000  1
  O  O1  1  0.60722700  0.67146100  0.00285000  1
  O  O2  1  0.39277300  0.82853900  0.50285000  1
  O  O3  1  0.89277300  0.17146100  0.99715000  1
  O  O4  1  0.89277300  0.67146100  0.50285000  1
  O  O5  1  0.39277300  0.32853900  0.99715000  1
  O  O6  1  0.60722700  0.17146100  0.49715000  1
  O  O7  1  0.10722700  0.82853900  0.00285000  1
  O  O8  1  0.24371900  0.98908100  0.27154700  1
  O  O9  1  0.74371900  0.01091900  0.22845300  1
  O  O10  1  0.25628100  0.48908100  0.72845300  1
  O  O11  1  0.75628100  0.51091900  0.77154700  1
  O  O12  1  0.75628100  0.01091900  0.72845300  1
  O  O13  1  0.25628100  0.98908100  0.77154700  1
  O  O14  1  0.74371900  0.51091900  0.27154700  1
  O  O15  1  0.24371900  0.48908100  0.22845300  1
  O  O16  1  0.22395100  0.76668200  0.67950000  1
  O  O17  1  0.72395100  0.23331800  0.82050000  1
  O  O18  1  0.27604900  0.26668200  0.32050000  1
  O  O19  1  0.77604900  0.73331800  0.17950000  1
  O  O20  1  0.77604900  0.23331800  0.32050000  1
  O  O21  1  0.27604900  0.76668200  0.17950000  1
  O  O22  1  0.72395100  0.73331800  0.67950000  1
  O  O23  1  0.89154900  0.32098300  0.63272300  1
  O  O24  1  0.22395100  0.26668200  0.82050000  1
  O  O25  1  0.29446100  0.57271800  0.03694600  1
  O  O26  1  0.70553900  0.92728200  0.53694600  1
  O  O27  1  0.20553900  0.07271800  0.96305400  1
  O  O28  1  0.20553900  0.57271800  0.53694600  1
  O  O29  1  0.70553900  0.42728200  0.96305400  1
  O  O30  1  0.29446100  0.07271800  0.46305400  1
  O  O31  1  0.79446100  0.92728200  0.03694600  1
  O  O32  1  0.90052900  0.62872600  0.02236500  1
  O  O33  1  0.40052900  0.37127400  0.47763500  1
  O  O34  1  0.59947100  0.12872600  0.97763500  1
  O  O35  1  0.09947100  0.87127400  0.52236500  1
  O  O36  1  0.09947100  0.37127400  0.97763500  1
  O  O37  1  0.59947100  0.62872600  0.52236500  1
  O  O38  1  0.40052900  0.87127400  0.02236500  1
  O  O39  1  0.90052900  0.12872600  0.47763500  1
  O  O40  1  0.89594500  0.38824700  0.12330700  1
  O  O41  1  0.39594500  0.61175300  0.37669300  1
  O  O42  1  0.60405500  0.88824700  0.87669300  1
  O  O43  1  0.10405500  0.11175300  0.62330700  1
  O  O44  1  0.10405500  0.61175300  0.87669300  1
  O  O45  1  0.60405500  0.38824700  0.62330700  1
  O  O46  1  0.39594500  0.11175300  0.12330700  1
  O  O47  1  0.89594500  0.88824700  0.37669300  1
  O  O48  1  0.98921800  0.08820600  0.83135400  1
  O  O49  1  0.48921800  0.91179400  0.66864600  1
  O  O50  1  0.51078200  0.58820600  0.16864600  1
  O  O51  1  0.01078200  0.41179400  0.33135400  1
  O  O52  1  0.01078200  0.91179400  0.16864600  1
  O  O53  1  0.51078200  0.08820600  0.33135400  1
  O  O54  1  0.48921800  0.41179400  0.83135400  1
  O  O55  1  0.98921800  0.58820600  0.66864600  1
  O  O56  1  0.89154900  0.82098300  0.86727700  1
  O  O57  1  0.39154900  0.17901700  0.63272300  1
  O  O58  1  0.60845100  0.32098300  0.13272300  1
  O  O59  1  0.10845100  0.67901700  0.36727700  1
  O  O60  1  0.10845100  0.17901700  0.13272300  1
  O  O61  1  0.60845100  0.82098300  0.36727700  1
  O  O62  1  0.39154900  0.67901700  0.86727700  1
  O  O63  1  0.79446100  0.42728200  0.46305400  1
loop_
_geom_bond_atom_site_label_1
_geom_bond_atom_site_label_2
_geom_bond_distance
_geom_bond_site_symmetry_2
Dy0 O42 2.306122 1_545
Dy0 O3 2.337918 1_555
Dy0 O34 2.346973 1_555
Dy0 O31 2.352108 1_546
Dy0 O48 2.355996 1_555
Dy0 O17 2.389498 1_555
Dy0 O12 2.489901 1_555
Dy0 O56 2.499732 1_545
Dy1 O45 2.306122 1_555
Dy1 O4 2.337918 1_555
Dy1 O37 2.346973 1_555
Dy1 O63 2.352108 1_555
Dy1 O55 2.355996 1_555
Dy1 O22 2.389498 1_555
Dy1 O11 2.489901 1_555
Dy1 O23 2.499732 1_555
Dy2 O44 2.306122 1_555
Dy2 O5 2.337918 1_555
Dy2 O36 2.346973 1_555
Dy2 O25 2.352108 1_556
Dy2 O54 2.355996 1_555
Dy2 O24 2.389498 1_555
Dy2 O10 2.489901 1_555
Dy2 O62 2.499732 1_555
Dy3 O47 2.306122 1_545
Dy3 O6 2.337918 1_555
Dy3 O39 2.346973 1_555
Dy3 O26 2.352108 1_545
Dy3 O53 2.355996 1_555
Dy3 O20 2.389498 1_555
Dy3 O9 2.489901 1_555
Dy3 O61 2.499732 1_545
Dy4 O46 2.306122 1_565
Dy4 O7 2.337918 1_555
Dy4 O38 2.346973 1_555
Dy4 O27 2.352108 1_564
Dy4 O52 2.355996 1_555
Dy4 O21 2.389498 1_555
Dy4 O8 2.489901 1_555
Dy4 O60 2.499732 1_565
Dy5 O41 2.306122 1_555
Dy5 O0 2.337918 1_555
Dy5 O33 2.346973 1_555
Dy5 O28 2.352108 1_555
Dy5 O51 2.355996 1_555
Dy5 O18 2.389498 1_555
Dy5 O15 2.489901 1_555
Dy5 O59 2.499732 1_555
Dy6 O40 2.306122 1_555
Dy6 O1 2.337918 1_555
Dy6 O32 2.346973 1_555
Dy6 O29 2.352108 1_554
Dy6 O50 2.355996 1_555
Dy6 O19 2.389498 1_555
Dy6 O14 2.489901 1_555
Dy6 O58 2.499732 1_555
Dy7 O43 2.306122 1_565
Dy7 O2 2.337918 1_555
Dy7 O35 2.346973 1_555
Dy7 O30 2.352108 1_565
Dy7 O49 2.355996 1_555
Dy7 O16 2.389498 1_555
Dy7 O13 2.489901 1_555
Dy7 O57 2.499732 1_565
Cu0 O60 1.880811 1_555
Cu0 O15 1.909772 1_555
Cu0 O18 2.071813 1_555
Cu1 O61 1.880811 1_555
Cu1 O14 1.909772 1_555
Cu1 O19 2.071813 1_555
Cu2 O62 1.880811 1_555
Cu2 O13 1.909772 1_555
Cu2 O16 2.071813 1_555
Cu3 O23 1.880811 1_555
Cu3 O12 1.909772 1_555
Cu3 O17 2.071813 1_555
Cu4 O56 1.880811 1_555
Cu4 O11 1.909772 1_555
Cu4 O22 2.071813 1_555
Cu5 O57 1.880811 1_555
Cu5 O10 1.909772 1_555
Cu5 O24 2.071813 1_555
Cu6 O58 1.880811 1_555
Cu6 O9 1.909772 1_555
Cu6 O20 2.071813 1_555
Cu7 O59 1.880811 1_555
Cu7 O8 1.909772 1_555
Cu7 O21 2.071813 1_555
Mo0 O26 1.777044 1_555
Mo0 O49 1.781673 1_555
Mo0 O22 1.816363 1_555
Mo0 O12 1.837443 1_565
Mo1 O35 1.781579 1_555
Mo1 O4 1.783656 1_455
Mo1 O47 1.799612 1_455
Mo1 O59 1.866361 1_555
Mo2 O34 1.781579 1_554
Mo2 O5 1.783656 1_554
Mo2 O46 1.799612 1_555
Mo2 O58 1.866361 1_555
Mo3 O33 1.781579 1_555
Mo3 O6 1.783656 1_555
Mo3 O45 1.799612 1_555
Mo3 O57 1.866361 1_555
Mo4 O32 1.781579 1_556
Mo4 O7 1.783656 1_656
Mo4 O44 1.799612 1_655
Mo4 O56 1.866361 1_555
Mo5 O39 1.781579 1_555
Mo5 O0 1.783656 1_655
Mo5 O43 1.799612 1_655
Mo5 O23 1.866361 1_555
Mo6 O38 1.781579 1_556
Mo6 O1 1.783656 1_556
Mo6 O42 1.799612 1_555
Mo6 O62 1.866361 1_555
Mo7 O37 1.781579 1_555
Mo7 O2 1.783656 1_555
Mo7 O41 1.799612 1_555
Mo7 O61 1.866361 1_555
Mo8 O36 1.781579 1_554
Mo8 O3 1.783656 1_454
Mo8 O40 1.799612 1_455
Mo8 O60 1.866361 1_555
Mo9 O27 1.777044 1_555
Mo9 O48 1.781673 1_455
Mo9 O24 1.816363 1_555
Mo9 O13 1.837443 1_545
Mo10 O63 1.777044 1_555
Mo10 O51 1.781673 1_655
Mo10 O20 1.816363 1_555
Mo10 O14 1.837443 1_555
Mo11 O25 1.777044 1_555
Mo11 O50 1.781673 1_555
Mo11 O21 1.816363 1_555
Mo11 O15 1.837443 1_555
Mo12 O29 1.777044 1_555
Mo12 O54 1.781673 1_555
Mo12 O17 1.816363 1_555
Mo12 O11 1.837443 1_555
Mo13 O31 1.777044 1_555
Mo13 O52 1.781673 1_655
Mo13 O19 1.816363 1_555
Mo13 O9 1.837443 1_565
Mo14 O28 1.777044 1_555
Mo14 O55 1.781673 1_455
Mo14 O16 1.816363 1_555
Mo14 O10 1.837443 1_555
Mo15 O30 1.777044 1_555
Mo15 O53 1.781673 1_555
Mo15 O18 1.816363 1_555
Mo15 O8 1.837443 1_545
