# generated using pymatgen
data_Ti2Zn(CuO4)2
_symmetry_space_group_name_H-M   'P 1'
_cell_length_a   8.39809300
_cell_length_b   6.45439300
_cell_length_c   12.01013798
_cell_angle_alpha   88.49792293
_cell_angle_beta   90.00000000
_cell_angle_gamma   90.00000000
_symmetry_Int_Tables_number   1
_chemical_formula_structural   Ti2Zn(CuO4)2
_chemical_formula_sum   'Ti8 Zn4 Cu8 O32'
_cell_volume   650.78093588
_cell_formula_units_Z   4
loop_
 _symmetry_equiv_pos_site_id
 _symmetry_equiv_pos_as_xyz
  1  'x, y, z'
loop_
 _atom_site_type_symbol
 _atom_site_label
 _atom_site_symmetry_multiplicity
 _atom_site_fract_x
 _atom_site_fract_y
 _atom_site_fract_z
 _atom_site_occupancy
  Ti  Ti0  1  0.54296700  0.90053300  0.84147500  1
  Ti  Ti1  1  0.95703300  0.90053300  0.34147500  1
  Ti  Ti2  1  0.91035500  0.39111200  0.13639500  1
  Ti  Ti3  1  0.04296700  0.09946700  0.65852500  1
  Ti  Ti4  1  0.08964500  0.60888800  0.86360500  1
  Ti  Ti5  1  0.41035500  0.60888800  0.36360500  1
  Ti  Ti6  1  0.58964500  0.39111200  0.63639500  1
  Ti  Ti7  1  0.45703300  0.09946700  0.15852500  1
  Zn  Zn0  1  0.84105800  0.88980800  0.05052900  1
  Zn  Zn1  1  0.15894200  0.11019200  0.94947100  1
  Zn  Zn2  1  0.34105800  0.11019200  0.44947100  1
  Zn  Zn3  1  0.65894200  0.88980800  0.55052900  1
  Cu  Cu0  1  0.81626200  0.23724800  0.87563600  1
  Cu  Cu1  1  0.94046200  0.62450700  0.62808900  1
  Cu  Cu2  1  0.05953800  0.37549300  0.37191100  1
  Cu  Cu3  1  0.18373800  0.76275200  0.12436400  1
  Cu  Cu4  1  0.68373800  0.23724800  0.37563600  1
  Cu  Cu5  1  0.55953800  0.62450700  0.12808900  1
  Cu  Cu6  1  0.31626200  0.76275200  0.62436400  1
  Cu  Cu7  1  0.44046200  0.37549300  0.87191100  1
  O  O0  1  0.75679600  0.97120600  0.39836400  1
  O  O1  1  0.98489200  0.34896800  0.60256000  1
  O  O2  1  0.42200400  0.80390200  0.47650100  1
  O  O3  1  0.92200400  0.19609800  0.02349900  1
  O  O4  1  0.74320400  0.97120600  0.89836400  1
  O  O5  1  0.24320400  0.02879400  0.60163600  1
  O  O6  1  0.89210300  0.90449400  0.61435600  1
  O  O7  1  0.10324100  0.50041700  0.14146800  1
  O  O8  1  0.39675900  0.50041700  0.64146800  1
  O  O9  1  0.12619700  0.69165800  0.70975600  1
  O  O10  1  0.62619700  0.30834200  0.79024400  1
  O  O11  1  0.89675900  0.49958300  0.85853200  1
  O  O12  1  0.10789700  0.09550600  0.38564400  1
  O  O13  1  0.46629600  0.11926900  0.30707500  1
  O  O14  1  0.73094200  0.58344500  0.58586800  1
  O  O15  1  0.76905800  0.58344500  0.08586800  1
  O  O16  1  0.96629600  0.88073100  0.19292500  1
  O  O17  1  0.60324100  0.49958300  0.35853200  1
  O  O18  1  0.53370400  0.88073100  0.69292500  1
  O  O19  1  0.57799600  0.19609800  0.52349900  1
  O  O20  1  0.51510800  0.34896800  0.10256000  1
  O  O21  1  0.87380300  0.30834200  0.29024400  1
  O  O22  1  0.25679600  0.02879400  0.10163600  1
  O  O23  1  0.60789700  0.90449400  0.11435600  1
  O  O24  1  0.07799600  0.80390200  0.97650100  1
  O  O25  1  0.23094200  0.41655500  0.91413200  1
  O  O26  1  0.01510800  0.65103200  0.39744000  1
  O  O27  1  0.48489200  0.65103200  0.89744000  1
  O  O28  1  0.39210300  0.09550600  0.88564400  1
  O  O29  1  0.26905800  0.41655500  0.41413200  1
  O  O30  1  0.37380300  0.69165800  0.20975600  1
  O  O31  1  0.03370400  0.11926900  0.80707500  1
loop_
_geom_bond_atom_site_label_1
_geom_bond_atom_site_label_2
_geom_bond_distance
_geom_bond_site_symmetry_2
Cu0 O11 1.829737 1_555
Cu0 O4 1.837103 1_545
Cu0 O10 1.945632 1_555
Cu0 O3 1.997017 1_556
Cu0 O31 2.150673 1_655
Cu1 O1 1.850583 1_555
Cu1 O14 1.852160 1_555
Cu1 O6 1.855341 1_555
Cu1 O9 1.898739 1_655
Cu2 O26 1.850583 1_555
Cu2 O29 1.852160 1_555
Cu2 O12 1.855341 1_555
Cu2 O21 1.898739 1_455
Cu3 O7 1.829737 1_555
Cu3 O22 1.837103 1_565
Cu3 O30 1.945632 1_555
Cu3 O24 1.997017 1_554
Cu3 O16 2.150673 1_455
Cu4 O17 1.829737 1_555
Cu4 O0 1.837103 1_545
Cu4 O21 1.945632 1_555
Cu4 O19 1.997017 1_555
Cu4 O13 2.150673 1_555
Cu5 O20 1.850583 1_555
Cu5 O15 1.852160 1_555
Cu5 O23 1.855341 1_555
Cu5 O30 1.898739 1_555
Cu6 O8 1.829737 1_555
Cu6 O5 1.837103 1_565
Cu6 O9 1.945632 1_555
Cu6 O2 1.997017 1_555
Cu6 O18 2.150673 1_555
Cu7 O27 1.850583 1_555
Cu7 O25 1.852160 1_555
Cu7 O28 1.855341 1_555
Cu7 O10 1.898739 1_555
O0 Ti1 1.875912 1_555
O0 Zn3 2.059334 1_555
O1 Ti3 1.796168 1_655
O2 Ti5 1.876651 1_555
O2 Zn2 2.107618 1_565
O2 Zn3 2.254589 1_555
O3 Ti2 1.876651 1_555
O3 Zn0 2.107618 1_545
O3 Zn1 2.254589 1_654
O4 Ti0 1.875912 1_555
O4 Zn0 2.059334 1_556
O5 Ti3 1.875912 1_555
O5 Zn2 2.059334 1_555
O6 Ti3 1.872236 1_665
O6 Zn3 2.105852 1_555
O7 Ti2 1.768526 1_455
O8 Ti6 1.768526 1_555
O9 Ti4 1.934438 1_555
O10 Ti6 1.934438 1_555
O11 Ti4 1.768526 1_655
O12 Ti1 1.872236 1_445
O12 Zn2 2.105852 1_555
O13 Ti7 1.793704 1_555
O13 Zn2 2.007274 1_555
O14 Ti6 1.810495 1_555
O14 Zn3 2.100432 1_555
O15 Ti2 1.810495 1_555
O15 Zn0 2.100432 1_555
O16 Ti1 1.793704 1_555
O16 Zn0 2.007274 1_555
O17 Ti5 1.768526 1_555
O18 Ti0 1.793704 1_555
O18 Zn3 2.007274 1_555
O19 Ti6 1.876651 1_555
O19 Zn3 2.107618 1_545
O19 Zn2 2.254589 1_555
O20 Ti7 1.796168 1_555
O21 Ti2 1.934438 1_555
O22 Ti7 1.875912 1_555
O22 Zn1 2.059334 1_554
O23 Ti7 1.872236 1_565
O23 Zn0 2.105852 1_555
O24 Ti4 1.876651 1_555
O24 Zn1 2.107618 1_565
O24 Zn0 2.254589 1_456
O25 Ti4 1.810495 1_555
O25 Zn1 2.100432 1_555
O26 Ti1 1.796168 1_455
O27 Ti0 1.796168 1_555
O28 Ti0 1.872236 1_545
O28 Zn1 2.105852 1_555
O29 Ti5 1.810495 1_555
O29 Zn2 2.100432 1_555
O30 Ti5 1.934438 1_555
O31 Ti3 1.793704 1_555
O31 Zn1 2.007274 1_555
