# generated using pymatgen
data_Cs3SbF6
_symmetry_space_group_name_H-M   'P 1'
_cell_length_a   9.58932707
_cell_length_b   7.66270807
_cell_length_c   7.63692519
_cell_angle_alpha   77.17697986
_cell_angle_beta   110.67089396
_cell_angle_gamma   128.72164735
_symmetry_Int_Tables_number   1
_chemical_formula_structural   Cs3SbF6
_chemical_formula_sum   'Cs3 Sb1 F6'
_cell_volume   409.63043449
_cell_formula_units_Z   1
loop_
 _symmetry_equiv_pos_site_id
 _symmetry_equiv_pos_as_xyz
  1  'x, y, z'
loop_
 _atom_site_type_symbol
 _atom_site_label
 _atom_site_symmetry_multiplicity
 _atom_site_fract_x
 _atom_site_fract_y
 _atom_site_fract_z
 _atom_site_occupancy
  Cs  Cs0  1  0.00000000  0.00000000  0.50000000  1
  Cs  Cs1  1  0.50000000  0.50000000  0.00000000  1
  Cs  Cs2  1  0.00000000  0.50000000  0.00000000  1
  Sb  Sb0  1  0.00000000  0.00000000  0.00000000  1
  F  F0  1  0.05581000  0.26760700  0.78487800  1
  F  F1  1  0.94419000  0.73239300  0.21512200  1
  F  F2  1  0.78907000  0.72211500  0.79355200  1
  F  F3  1  0.21093000  0.27788500  0.20644800  1
  F  F4  1  0.79362300  0.00214100  0.06697100  1
  F  F5  1  0.20637700  0.99785900  0.93302900  1
loop_
_geom_bond_atom_site_label_1
_geom_bond_atom_site_label_2
_geom_bond_distance
_geom_bond_site_symmetry_2
Cs0 F1 3.001637 1_445
Cs0 F0 3.001637 1_555
Cs0 F2 3.056999 1_445
Cs0 F3 3.056999 1_555
Cs0 F5 3.201426 1_545
Cs0 F4 3.201426 1_455
Cs1 F2 3.009713 1_554
Cs1 F3 3.009713 1_555
Cs1 F4 3.049179 1_565
Cs1 F5 3.049179 1_544
Cs1 F0 3.298780 1_554
Cs1 F1 3.298780 1_555
Cs2 F4 3.022417 1_455
Cs2 F5 3.022417 1_554
Cs2 F0 3.044370 1_554
Cs2 F1 3.044370 1_455
Cs2 F2 3.215305 1_454
Cs2 F3 3.215305 1_555
F0 Sb0 2.223234 1_556
F1 Sb0 2.223234 1_665
F2 Sb0 2.227443 1_666
F3 Sb0 2.227443 1_555
F4 Sb0 2.222003 1_655
F5 Sb0 2.222003 1_566
