# generated using pymatgen
data_Mn2Cu3Ge
_symmetry_space_group_name_H-M   'P 1'
_cell_length_a   4.89714614
_cell_length_b   4.89714614
_cell_length_c   7.77119400
_cell_angle_alpha   90.00000000
_cell_angle_beta   90.00000000
_cell_angle_gamma   120.00000185
_symmetry_Int_Tables_number   1
_chemical_formula_structural   Mn2Cu3Ge
_chemical_formula_sum   'Mn4 Cu6 Ge2'
_cell_volume   161.40036131
_cell_formula_units_Z   2
loop_
 _symmetry_equiv_pos_site_id
 _symmetry_equiv_pos_as_xyz
  1  'x, y, z'
loop_
 _atom_site_type_symbol
 _atom_site_label
 _atom_site_symmetry_multiplicity
 _atom_site_fract_x
 _atom_site_fract_y
 _atom_site_fract_z
 _atom_site_occupancy
  Mn  Mn0  1  0.33333300  0.66666700  0.44026400  1
  Mn  Mn1  1  0.66666700  0.33333300  0.55973600  1
  Mn  Mn2  1  0.66666700  0.33333300  0.94026400  1
  Mn  Mn3  1  0.33333300  0.66666700  0.05973600  1
  Cu  Cu0  1  0.82792900  0.17207100  0.25000000  1
  Cu  Cu1  1  0.82792900  0.65585800  0.25000000  1
  Cu  Cu2  1  0.34414200  0.17207100  0.25000000  1
  Cu  Cu3  1  0.17207100  0.82792900  0.75000000  1
  Cu  Cu4  1  0.17207100  0.34414200  0.75000000  1
  Cu  Cu5  1  0.65585800  0.82792900  0.75000000  1
  Ge  Ge0  1  0.00000000  0.00000000  0.50000000  1
  Ge  Ge1  1  0.00000000  0.00000000  0.00000000  1
loop_
_geom_bond_atom_site_label_1
_geom_bond_atom_site_label_2
_geom_bond_distance
_geom_bond_site_symmetry_2
Mn0 Mn3 2.957157 1_555
Mn0 Mn1 2.975903 1_455
Mn0 Mn1 2.975903 1_565
Mn0 Mn1 2.975911 1_555
Mn1 Mn2 2.957157 1_555
Mn2 Mn3 2.975903 1_656
Mn2 Mn3 2.975903 1_546
Mn2 Mn3 2.975911 1_556
Cu0 Cu2 2.369176 1_555
Cu0 Cu1 2.369176 1_555
Cu0 Ge1 2.429954 1_655
Cu0 Ge0 2.429954 1_655
Cu0 Cu2 2.527970 1_655
Cu0 Cu1 2.527970 1_545
Cu0 Mn2 2.768525 1_554
Cu0 Mn1 2.768525 1_555
Cu0 Mn0 2.860735 1_545
Cu0 Mn3 2.860735 1_655
Cu0 Mn0 2.860735 1_655
Cu0 Mn3 2.860735 1_545
Cu1 Cu2 2.369176 1_555
Cu1 Ge0 2.429954 1_665
Cu1 Ge1 2.429954 1_665
Cu1 Cu2 2.527970 1_665
Cu1 Mn2 2.768527 1_554
Cu1 Mn1 2.768527 1_555
Cu1 Mn0 2.860733 1_655
Cu1 Mn3 2.860733 1_655
Cu1 Mn0 2.860737 1_555
Cu1 Mn3 2.860737 1_555
Cu2 Ge0 2.429954 1_555
Cu2 Ge1 2.429954 1_555
Cu2 Mn2 2.768527 1_554
Cu2 Mn1 2.768527 1_555
Cu2 Mn3 2.860733 1_545
Cu2 Mn0 2.860733 1_545
Cu2 Mn3 2.860737 1_555
Cu2 Mn0 2.860737 1_555
Cu3 Cu4 2.369176 1_555
Cu3 Cu5 2.369176 1_555
Cu3 Ge0 2.429954 1_565
Cu3 Ge1 2.429954 1_566
Cu3 Cu4 2.527970 1_565
Cu3 Cu5 2.527970 1_455
Cu3 Mn3 2.768525 1_556
Cu3 Mn0 2.768525 1_555
Cu3 Mn2 2.860735 1_455
Cu3 Mn1 2.860735 1_455
Cu3 Mn2 2.860735 1_565
Cu3 Mn1 2.860735 1_565
Cu4 Cu5 2.369176 1_555
Cu4 Ge0 2.429954 1_555
Cu4 Ge1 2.429954 1_556
Cu4 Cu5 2.527970 1_445
Cu4 Mn3 2.768527 1_556
Cu4 Mn0 2.768527 1_555
Cu4 Mn1 2.860733 1_455
Cu4 Mn2 2.860733 1_455
Cu4 Mn1 2.860737 1_555
Cu4 Mn2 2.860737 1_555
Cu5 Ge1 2.429954 1_666
Cu5 Ge0 2.429954 1_665
Cu5 Mn3 2.768527 1_556
Cu5 Mn0 2.768527 1_555
Cu5 Mn1 2.860733 1_565
Cu5 Mn2 2.860733 1_565
Cu5 Mn1 2.860737 1_555
Cu5 Mn2 2.860737 1_555
Ge0 Mn1 2.865222 1_455
Ge0 Mn0 2.865222 1_545
Ge0 Mn1 2.865226 1_445
Ge0 Mn0 2.865226 1_555
Ge0 Mn0 2.865226 1_445
Ge0 Mn1 2.865226 1_555
Ge1 Mn2 2.865222 1_454
Ge1 Mn3 2.865222 1_545
Ge1 Mn2 2.865226 1_444
Ge1 Mn3 2.865226 1_555
Ge1 Mn3 2.865226 1_445
Ge1 Mn2 2.865226 1_554
