# generated using pymatgen
data_Ti4Mn(PO4)6
_symmetry_space_group_name_H-M   'P 1'
_cell_length_a   8.55023282
_cell_length_b   8.55023283
_cell_length_c   8.55023343
_cell_angle_alpha   60.11915693
_cell_angle_beta   60.11915696
_cell_angle_gamma   60.11915220
_symmetry_Int_Tables_number   1
_chemical_formula_structural   Ti4Mn(PO4)6
_chemical_formula_sum   'Ti4 Mn1 P6 O24'
_cell_volume   443.18970110
_cell_formula_units_Z   1
loop_
 _symmetry_equiv_pos_site_id
 _symmetry_equiv_pos_as_xyz
  1  'x, y, z'
loop_
 _atom_site_type_symbol
 _atom_site_label
 _atom_site_symmetry_multiplicity
 _atom_site_fract_x
 _atom_site_fract_y
 _atom_site_fract_z
 _atom_site_occupancy
  Ti  Ti0  1  0.85371784  0.85371784  0.85371784  1
  Ti  Ti1  1  0.14628216  0.14628216  0.14628216  1
  Ti  Ti2  1  0.63360917  0.63360917  0.63360917  1
  Ti  Ti3  1  0.36639083  0.36639083  0.36639083  1
  Mn  Mn0  1  -0.00000000  0.00000000  0.00000000  1
  P  P0  1  0.03078752  0.75340652  0.45624091  1
  P  P1  1  0.45624091  0.03078752  0.75340652  1
  P  P2  1  0.75340652  0.45624091  0.03078752  1
  P  P3  1  0.96921248  0.24659348  0.54375909  1
  P  P4  1  0.54375909  0.96921248  0.24659348  1
  P  P5  1  0.24659348  0.54375909  0.96921248  1
  O  O0  1  0.49263238  0.86355595  0.70830149  1
  O  O1  1  0.70830149  0.49263238  0.86355595  1
  O  O2  1  0.86355595  0.70830149  0.49263238  1
  O  O3  1  0.50736762  0.13644405  0.29169851  1
  O  O4  1  0.29169851  0.50736762  0.13644405  1
  O  O5  1  0.13644405  0.29169851  0.50736762  1
  O  O6  1  0.98950295  0.81671204  0.61677514  1
  O  O7  1  0.61677514  0.98950295  0.81671204  1
  O  O8  1  0.81671204  0.61677514  0.98950295  1
  O  O9  1  0.01049705  0.18328796  0.38322486  1
  O  O10  1  0.38322486  0.01049705  0.18328796  1
  O  O11  1  0.18328796  0.38322486  0.01049705  1
  O  O12  1  0.55220659  0.78385326  0.41494240  1
  O  O13  1  0.41494240  0.55220659  0.78385326  1
  O  O14  1  0.78385326  0.41494240  0.55220659  1
  O  O15  1  0.44779341  0.21614674  0.58505760  1
  O  O16  1  0.58505760  0.44779341  0.21614674  1
  O  O17  1  0.21614674  0.58505760  0.44779341  1
  O  O18  1  0.94158952  0.08291829  0.73741886  1
  O  O19  1  0.73741886  0.94158952  0.08291829  1
  O  O20  1  0.08291829  0.73741886  0.94158952  1
  O  O21  1  0.05841048  0.91708171  0.26258114  1
  O  O22  1  0.26258114  0.05841048  0.91708171  1
  O  O23  1  0.91708171  0.26258114  0.05841048  1
loop_
_geom_bond_atom_site_label_1
_geom_bond_atom_site_label_2
_geom_bond_distance
_geom_bond_site_symmetry_2
Mn0 O20 2.229598 1_544
Mn0 O23 2.229598 1_455
Mn0 O22 2.229598 1_554
Mn0 O19 2.229598 1_445
Mn0 O18 2.229598 1_454
Mn0 O21 2.229598 1_545
O0 P1 1.508858 1_565
O0 Ti2 1.961902 1_555
O1 P2 1.508858 1_556
O1 Ti2 1.961902 1_555
O2 P0 1.508858 1_655
O2 Ti2 1.961902 1_555
O3 P4 1.508858 1_545
O3 Ti3 1.961902 1_555
O4 P5 1.508858 1_554
O4 Ti3 1.961902 1_555
O5 P3 1.508858 1_455
O5 Ti3 1.961902 1_555
O6 P0 1.539078 1_655
O6 Ti0 1.865861 1_555
O7 P1 1.539077 1_565
O7 Ti0 1.865861 1_555
O8 P2 1.539077 1_556
O8 Ti0 1.865861 1_555
O9 P3 1.539078 1_455
O9 Ti1 1.865861 1_555
O10 P4 1.539077 1_545
O10 Ti1 1.865861 1_555
O11 P5 1.539077 1_554
O11 Ti1 1.865861 1_555
O12 P4 1.518359 1_555
O12 Ti2 1.908629 1_555
O13 P5 1.518359 1_555
O13 Ti2 1.908629 1_555
O14 P3 1.518359 1_555
O14 Ti2 1.908629 1_555
O15 P1 1.518359 1_555
O15 Ti3 1.908629 1_555
O16 P2 1.518359 1_555
O16 Ti3 1.908629 1_555
O17 P0 1.518359 1_555
O17 Ti3 1.908629 1_555
O18 P3 1.544930 1_555
O18 Ti0 2.043221 1_545
O19 P4 1.544930 1_555
O19 Ti0 2.043222 1_554
O20 P5 1.544930 1_555
O20 Ti0 2.043221 1_455
O21 P0 1.544930 1_555
O21 Ti1 2.043221 1_565
O22 P1 1.544930 1_555
O22 Ti1 2.043222 1_556
O23 P2 1.544930 1_555
O23 Ti1 2.043221 1_655
