# generated using pymatgen
data_Cr(Mo3Se4)2
_symmetry_space_group_name_H-M   'P 1'
_cell_length_a   6.74133746
_cell_length_b   6.74133746
_cell_length_c   6.74133712
_cell_angle_alpha   91.66542199
_cell_angle_beta   91.66542199
_cell_angle_gamma   91.66542822
_symmetry_Int_Tables_number   1
_chemical_formula_structural   Cr(Mo3Se4)2
_chemical_formula_sum   'Cr1 Mo6 Se8'
_cell_volume   305.96838016
_cell_formula_units_Z   1
loop_
 _symmetry_equiv_pos_site_id
 _symmetry_equiv_pos_as_xyz
  1  'x, y, z'
loop_
 _atom_site_type_symbol
 _atom_site_label
 _atom_site_symmetry_multiplicity
 _atom_site_fract_x
 _atom_site_fract_y
 _atom_site_fract_z
 _atom_site_occupancy
  Cr  Cr0  1  0.00000000  0.00000000  0.00000000  1
  Mo  Mo0  1  0.55035500  0.41985400  0.22884700  1
  Mo  Mo1  1  0.44964500  0.58014600  0.77115300  1
  Mo  Mo2  1  0.22884700  0.55035500  0.41985400  1
  Mo  Mo3  1  0.77115300  0.44964500  0.58014600  1
  Mo  Mo4  1  0.41985400  0.22884700  0.55035500  1
  Mo  Mo5  1  0.58014600  0.77115300  0.44964500  1
  Se  Se0  1  0.36548400  0.74721900  0.12781600  1
  Se  Se1  1  0.63451600  0.25278100  0.87218400  1
  Se  Se2  1  0.22193500  0.22193500  0.22193500  1
  Se  Se3  1  0.77806500  0.77806500  0.77806500  1
  Se  Se4  1  0.74721900  0.12781600  0.36548400  1
  Se  Se5  1  0.25278100  0.87218400  0.63451600  1
  Se  Se6  1  0.12781600  0.36548400  0.74721900  1
  Se  Se7  1  0.87218400  0.63451600  0.25278100  1
loop_
_geom_bond_atom_site_label_1
_geom_bond_atom_site_label_2
_geom_bond_distance
_geom_bond_site_symmetry_2
Cr0 Se2 2.514947 1_555
Cr0 Se3 2.514947 1_444
Cr0 Se7 3.150063 1_445
Cr0 Se6 3.150063 1_554
Cr0 Se4 3.150063 1_455
Cr0 Se5 3.150063 1_544
Cr0 Se1 3.150063 1_454
Cr0 Se0 3.150063 1_545
Mo0 Se2 2.550059 1_555
Mo0 Se7 2.571134 1_555
Mo0 Se4 2.582988 1_555
Mo0 Se0 2.661821 1_555
Mo0 Se1 2.707496 1_554
Mo1 Se3 2.550059 1_555
Mo1 Se6 2.571134 1_555
Mo1 Se5 2.582988 1_555
Mo1 Se1 2.661821 1_555
Mo1 Se0 2.707496 1_556
Mo2 Se2 2.550059 1_555
Mo2 Se5 2.571134 1_555
Mo2 Se0 2.582988 1_555
Mo2 Se6 2.661821 1_555
Mo2 Se7 2.707496 1_455
Mo3 Se3 2.550059 1_555
Mo3 Se4 2.571134 1_555
Mo3 Se1 2.582988 1_555
Mo3 Se7 2.661821 1_555
Mo3 Se6 2.707496 1_655
Mo4 Se2 2.550059 1_555
Mo4 Se1 2.571134 1_555
Mo4 Se6 2.582988 1_555
Mo4 Se4 2.661821 1_555
Mo4 Se5 2.707496 1_545
Mo5 Se3 2.550059 1_555
Mo5 Se0 2.571134 1_555
Mo5 Se7 2.582988 1_555
Mo5 Se5 2.661821 1_555
Mo5 Se4 2.707496 1_565
