# generated using pymatgen
data_AlNiO3
_symmetry_space_group_name_H-M   'P 1'
_cell_length_a   3.65952400
_cell_length_b   3.65952400
_cell_length_c   3.65952400
_cell_angle_alpha   90.00000000
_cell_angle_beta   90.00000000
_cell_angle_gamma   90.00000000
_symmetry_Int_Tables_number   1
_chemical_formula_structural   AlNiO3
_chemical_formula_sum   'Al1 Ni1 O3'
_cell_volume   49.00876957
_cell_formula_units_Z   1
loop_
 _symmetry_equiv_pos_site_id
 _symmetry_equiv_pos_as_xyz
  1  'x, y, z'
loop_
 _atom_site_type_symbol
 _atom_site_label
 _atom_site_symmetry_multiplicity
 _atom_site_fract_x
 _atom_site_fract_y
 _atom_site_fract_z
 _atom_site_occupancy
  Al  Al0  1  0.00000000  0.00000000  0.00000000  1
  Ni  Ni0  1  0.50000000  0.50000000  0.50000000  1
  O  O0  1  0.50000000  0.50000000  0.00000000  1
  O  O1  1  0.50000000  0.00000000  0.50000000  1
  O  O2  1  0.00000000  0.50000000  0.50000000  1
loop_
_geom_bond_atom_site_label_1
_geom_bond_atom_site_label_2
_geom_bond_distance
_geom_bond_site_symmetry_2
Al0 O2 2.587674 1_544
Al0 O2 2.587674 1_545
Al0 O1 2.587674 1_455
Al0 O1 2.587674 1_454
Al0 O1 2.587674 1_555
Al0 O0 2.587674 1_555
Al0 O0 2.587674 1_445
Al0 O1 2.587674 1_554
Al0 O0 2.587674 1_545
Al0 O2 2.587674 1_555
Al0 O2 2.587674 1_554
Al0 O0 2.587674 1_455
Ni0 O1 1.829762 1_565
Ni0 O2 1.829762 1_655
Ni0 O0 1.829762 1_556
Ni0 O1 1.829762 1_555
Ni0 O0 1.829762 1_555
Ni0 O2 1.829762 1_555
