# generated using pymatgen
data_PrAlAu
_symmetry_space_group_name_H-M   'P 1'
_cell_length_a   4.59223085
_cell_length_b   7.56534912
_cell_length_c   7.79004899
_cell_angle_alpha   90.00000000
_cell_angle_beta   90.00000000
_cell_angle_gamma   90.00000000
_symmetry_Int_Tables_number   1
_chemical_formula_structural   PrAlAu
_chemical_formula_sum   'Pr4 Al4 Au4'
_cell_volume   270.64055474
_cell_formula_units_Z   4
loop_
 _symmetry_equiv_pos_site_id
 _symmetry_equiv_pos_as_xyz
  1  'x, y, z'
loop_
 _atom_site_type_symbol
 _atom_site_label
 _atom_site_symmetry_multiplicity
 _atom_site_fract_x
 _atom_site_fract_y
 _atom_site_fract_z
 _atom_site_occupancy
  Pr  Pr0  1  0.75000000  0.48971205  0.19404316  1
  Pr  Pr1  1  0.75000000  0.98971205  0.30595684  1
  Pr  Pr2  1  0.25000000  0.51028795  0.80595684  1
  Pr  Pr3  1  0.25000000  0.01028795  0.69404316  1
  Al  Al0  1  0.75000000  0.32737335  0.58060736  1
  Al  Al1  1  0.75000000  0.82737335  0.91939264  1
  Al  Al2  1  0.25000000  0.67262665  0.41939264  1
  Al  Al3  1  0.25000000  0.17262665  0.08060736  1
  Au  Au0  1  0.75000000  0.19953149  0.90814709  1
  Au  Au1  1  0.75000000  0.69953149  0.59185291  1
  Au  Au2  1  0.25000000  0.80046851  0.09185291  1
  Au  Au3  1  0.25000000  0.30046851  0.40814709  1
loop_
_geom_bond_atom_site_label_1
_geom_bond_atom_site_label_2
_geom_bond_distance
_geom_bond_site_symmetry_2
Al0 Au3 2.668051 1_555
Al0 Au3 2.668051 1_655
Al0 Au0 2.728704 1_555
Al0 Au1 2.816869 1_555
Al0 Pr2 3.204498 1_655
Al0 Pr2 3.204498 1_555
Al0 Pr0 3.252169 1_555
Al0 Pr1 3.332152 1_545
Al0 Pr3 3.436213 1_555
Al0 Pr3 3.436213 1_655
Al1 Au2 2.668051 1_656
Al1 Au2 2.668051 1_556
Al1 Au1 2.728704 1_555
Al1 Au0 2.816869 1_565
Al1 Pr3 3.204498 1_565
Al1 Pr3 3.204498 1_665
Al1 Pr1 3.252169 1_556
Al1 Pr0 3.332152 1_556
Al1 Pr2 3.436213 1_655
Al1 Pr2 3.436213 1_555
Al2 Au1 2.668051 1_555
Al2 Au1 2.668051 1_455
Al2 Au2 2.728704 1_555
Al2 Au3 2.816869 1_555
Al2 Pr0 3.204498 1_555
Al2 Pr0 3.204498 1_455
Al2 Pr2 3.252169 1_555
Al2 Pr3 3.332152 1_565
Al2 Pr1 3.436213 1_455
Al2 Pr1 3.436213 1_555
Al3 Au0 2.668051 1_454
Al3 Au0 2.668051 1_554
Al3 Au3 2.728704 1_555
Al3 Au2 2.816869 1_545
Al3 Pr1 3.204498 1_545
Al3 Pr1 3.204498 1_445
Al3 Pr3 3.252169 1_554
Al3 Pr2 3.332152 1_554
Al3 Pr0 3.436213 1_555
Al3 Pr0 3.436213 1_455
Au0 Pr0 3.127234 1_556
Au0 Pr3 3.178634 1_555
Au0 Pr3 3.178634 1_655
Au0 Pr2 3.381269 1_555
Au0 Pr2 3.381269 1_655
Au0 Pr1 3.481844 1_546
Au1 Pr1 3.127234 1_555
Au1 Pr2 3.178634 1_655
Au1 Pr2 3.178634 1_555
Au1 Pr3 3.381269 1_565
Au1 Pr3 3.381269 1_665
Au1 Pr0 3.481844 1_555
Au2 Pr2 3.127234 1_554
Au2 Pr1 3.178634 1_555
Au2 Pr1 3.178634 1_455
Au2 Pr0 3.381269 1_455
Au2 Pr0 3.381269 1_555
Au2 Pr3 3.481844 1_564
Au3 Pr3 3.127234 1_555
Au3 Pr0 3.178634 1_455
Au3 Pr0 3.178634 1_555
Au3 Pr1 3.381269 1_445
Au3 Pr1 3.381269 1_545
Au3 Pr2 3.481844 1_555
