# generated using pymatgen
data_Ba3Ce
_symmetry_space_group_name_H-M   'P 1'
_cell_length_a   8.68763199
_cell_length_b   8.68763199
_cell_length_c   6.93801600
_cell_angle_alpha   90.00000000
_cell_angle_beta   90.00000000
_cell_angle_gamma   119.99999993
_symmetry_Int_Tables_number   1
_chemical_formula_structural   Ba3Ce
_chemical_formula_sum   'Ba6 Ce2'
_cell_volume   453.49109222
_cell_formula_units_Z   2
loop_
 _symmetry_equiv_pos_site_id
 _symmetry_equiv_pos_as_xyz
  1  'x, y, z'
loop_
 _atom_site_type_symbol
 _atom_site_label
 _atom_site_symmetry_multiplicity
 _atom_site_fract_x
 _atom_site_fract_y
 _atom_site_fract_z
 _atom_site_occupancy
  Ba  Ba0  1  0.17159200  0.34318400  0.25000000  1
  Ba  Ba1  1  0.65681600  0.82840800  0.25000000  1
  Ba  Ba2  1  0.17159200  0.82840800  0.25000000  1
  Ba  Ba3  1  0.82840800  0.65681600  0.75000000  1
  Ba  Ba4  1  0.34318400  0.17159200  0.75000000  1
  Ba  Ba5  1  0.82840800  0.17159200  0.75000000  1
  Ce  Ce0  1  0.33333300  0.66666700  0.75000000  1
  Ce  Ce1  1  0.66666700  0.33333300  0.25000000  1
loop_
_geom_bond_atom_site_label_1
_geom_bond_atom_site_label_2
_geom_bond_distance
_geom_bond_site_symmetry_2
Ba0 Ba2 4.215448 1_555
Ba0 Ba1 4.215448 1_555
Ba0 Ce0 4.237613 1_555
Ba0 Ce0 4.237613 1_554
Ba0 Ba4 4.324445 1_554
Ba0 Ba4 4.324445 1_555
Ba0 Ba5 4.324445 1_455
Ba0 Ba5 4.324445 1_454
Ba0 Ce1 4.344444 1_455
Ba0 Ce1 4.344453 1_555
Ba0 Ba2 4.472184 1_545
Ba0 Ba1 4.472184 1_445
Ba1 Ba2 4.215448 1_555
Ba1 Ce0 4.237613 1_555
Ba1 Ce0 4.237613 1_554
Ba1 Ba3 4.324445 1_554
Ba1 Ba3 4.324445 1_555
Ba1 Ba5 4.324445 1_565
Ba1 Ba5 4.324445 1_564
Ba1 Ce1 4.344444 1_565
Ba1 Ce1 4.344453 1_555
Ba1 Ba2 4.472184 1_655
Ba2 Ce0 4.237608 1_555
Ba2 Ce0 4.237608 1_554
Ba2 Ba3 4.324445 1_454
Ba2 Ba3 4.324445 1_455
Ba2 Ba4 4.324445 1_565
Ba2 Ba4 4.324445 1_564
Ba2 Ce1 4.344448 1_455
Ba2 Ce1 4.344448 1_565
Ba3 Ba5 4.215448 1_555
Ba3 Ba4 4.215448 1_555
Ba3 Ce1 4.237613 1_555
Ba3 Ce1 4.237613 1_556
Ba3 Ce0 4.344444 1_655
Ba3 Ce0 4.344453 1_555
Ba3 Ba5 4.472184 1_565
Ba3 Ba4 4.472184 1_665
Ba4 Ba5 4.215448 1_555
Ba4 Ce1 4.237613 1_555
Ba4 Ce1 4.237613 1_556
Ba4 Ce0 4.344444 1_545
Ba4 Ce0 4.344453 1_555
Ba4 Ba5 4.472184 1_455
Ba5 Ce1 4.237608 1_555
Ba5 Ce1 4.237608 1_556
Ba5 Ce0 4.344448 1_655
Ba5 Ce0 4.344448 1_545
