# generated using pymatgen
data_CeCo9Ge4
_symmetry_space_group_name_H-M   'P 1'
_cell_length_a   7.86909900
_cell_length_b   7.86909900
_cell_length_c   8.10609601
_cell_angle_alpha   119.03746993
_cell_angle_beta   119.03746993
_cell_angle_gamma   90.00000000
_symmetry_Int_Tables_number   1
_chemical_formula_structural   CeCo9Ge4
_chemical_formula_sum   'Ce2 Co18 Ge8'
_cell_volume   365.01560442
_cell_formula_units_Z   2
loop_
 _symmetry_equiv_pos_site_id
 _symmetry_equiv_pos_as_xyz
  1  'x, y, z'
loop_
 _atom_site_type_symbol
 _atom_site_label
 _atom_site_symmetry_multiplicity
 _atom_site_fract_x
 _atom_site_fract_y
 _atom_site_fract_z
 _atom_site_occupancy
  Ce  Ce0  1  0.75000000  0.75000000  0.50000000  1
  Ce  Ce1  1  0.25000000  0.25000000  0.50000000  1
  Co  Co0  1  0.00000000  0.50000000  0.00000000  1
  Co  Co1  1  0.50000000  0.00000000  0.00000000  1
  Co  Co2  1  0.30067300  0.56595700  0.00000000  1
  Co  Co3  1  0.69932700  0.43404300  0.00000000  1
  Co  Co4  1  0.19932700  0.06595700  0.00000000  1
  Co  Co5  1  0.80067300  0.93404300  0.00000000  1
  Co  Co6  1  0.43404300  0.30067300  0.00000000  1
  Co  Co7  1  0.56595700  0.69932700  0.00000000  1
  Co  Co8  1  0.93404300  0.19932700  0.00000000  1
  Co  Co9  1  0.06595700  0.80067300  0.00000000  1
  Co  Co10  1  0.55477600  0.30111800  0.35589400  1
  Co  Co11  1  0.80111800  0.05477600  0.35589400  1
  Co  Co12  1  0.30111800  0.80111800  0.35589400  1
  Co  Co13  1  0.05477600  0.55477600  0.35589400  1
  Co  Co14  1  0.44522400  0.69888200  0.64410600  1
  Co  Co15  1  0.19888200  0.94522400  0.64410600  1
  Co  Co16  1  0.69888200  0.19888200  0.64410600  1
  Co  Co17  1  0.94522400  0.44522400  0.64410600  1
  Ge  Ge0  1  0.95155000  0.79931500  0.25086400  1
  Ge  Ge1  1  0.29931500  0.45155000  0.25086400  1
  Ge  Ge2  1  0.79931500  0.29931500  0.25086400  1
  Ge  Ge3  1  0.45155000  0.95155000  0.25086400  1
  Ge  Ge4  1  0.04845000  0.20068500  0.74913600  1
  Ge  Ge5  1  0.70068500  0.54845000  0.74913600  1
  Ge  Ge6  1  0.20068500  0.70068500  0.74913600  1
  Ge  Ge7  1  0.54845000  0.04845000  0.74913600  1
loop_
_geom_bond_atom_site_label_1
_geom_bond_atom_site_label_2
_geom_bond_distance
_geom_bond_site_symmetry_2
Ce0 Co11 3.233272 1_565
Ce0 Co14 3.233272 1_555
Ce0 Co13 3.233273 1_655
Ce0 Co17 3.233273 1_555
Ce0 Co16 3.233273 1_565
Ce0 Co12 3.233273 1_555
Ce0 Co15 3.233273 1_655
Ce0 Co10 3.233273 1_555
Ce0 Ge1 3.258003 1_555
Ce0 Ge4 3.258003 1_665
Ce0 Ge2 3.258006 1_555
Ce0 Ge6 3.258006 1_655
Ce0 Ge3 3.258009 1_555
Ce0 Ge7 3.258009 1_565
Ce0 Ge5 3.258012 1_555
Ce0 Ge0 3.258012 1_555
Ce0 Co5 3.378833 1_556
Ce0 Co7 3.378833 1_555
Ce0 Co9 3.378833 1_656
Ce0 Co3 3.378833 1_555
Ce0 Co2 3.378833 1_555
Ce0 Co8 3.378833 1_566
Ce0 Co6 3.378833 1_555
Ce0 Co4 3.378833 1_666
Ce1 Co10 3.233272 1_555
Ce1 Co15 3.233272 1_545
Ce1 Co13 3.233273 1_555
Ce1 Co17 3.233273 1_455
Ce1 Co12 3.233273 1_545
Ce1 Co16 3.233273 1_555
Ce1 Co11 3.233273 1_455
Ce1 Co14 3.233273 1_555
Ce1 Ge5 3.258003 1_555
Ce1 Ge0 3.258003 1_445
Ce1 Ge2 3.258006 1_455
Ce1 Ge6 3.258006 1_555
Ce1 Ge3 3.258009 1_545
Ce1 Ge7 3.258009 1_555
Ce1 Ge4 3.258012 1_555
Ce1 Ge1 3.258012 1_555
Ce1 Co4 3.378833 1_555
Ce1 Co6 3.378833 1_556
Ce1 Co8 3.378833 1_455
Ce1 Co2 3.378833 1_556
Ce1 Co3 3.378833 1_556
Ce1 Co9 3.378833 1_545
Ce1 Co5 3.378833 1_445
Ce1 Co7 3.378833 1_556
Co0 Co3 2.422284 1_455
Co0 Co8 2.422284 1_455
Co0 Co9 2.422284 1_555
Co0 Co2 2.422284 1_555
Co0 Ge0 2.435413 1_455
Co0 Ge1 2.435413 1_555
Co0 Ge5 2.435413 1_454
Co0 Ge4 2.435413 1_554
Co0 Co13 2.505993 1_555
Co0 Co17 2.505993 1_454
Co0 Co12 2.505993 1_555
Co0 Co16 2.505993 1_454
Co1 Co4 2.422284 1_555
Co1 Co7 2.422284 1_545
Co1 Co5 2.422284 1_545
Co1 Co6 2.422284 1_555
Co1 Ge3 2.435408 1_545
Co1 Ge7 2.435408 1_554
Co1 Ge2 2.435417 1_555
Co1 Ge6 2.435417 1_544
Co1 Co10 2.505993 1_555
Co1 Co11 2.505993 1_555
Co1 Co14 2.505993 1_544
Co1 Co15 2.505993 1_544
Co2 Co6 2.336515 1_555
Co2 Co7 2.336515 1_555
Co2 Ge6 2.533371 1_554
Co2 Ge3 2.533378 1_555
Co2 Ge1 2.596953 1_555
Co2 Ge4 2.596962 1_554
Co2 Co9 2.612057 1_555
Co3 Co6 2.336515 1_555
Co3 Co7 2.336515 1_555
Co3 Ge2 2.533371 1_555
Co3 Ge7 2.533378 1_554
Co3 Ge5 2.596953 1_554
Co3 Ge0 2.596962 1_555
Co3 Co8 2.612057 1_555
Co4 Co9 2.336515 1_545
Co4 Co8 2.336515 1_455
Co4 Ge4 2.533372 1_554
Co4 Ge1 2.533378 1_555
Co4 Ge3 2.596957 1_545
Co4 Ge6 2.596959 1_544
Co4 Co6 2.612057 1_555
Co5 Co8 2.336515 1_565
Co5 Co9 2.336515 1_655
Co5 Ge0 2.533372 1_555
Co5 Ge5 2.533378 1_554
Co5 Ge7 2.596957 1_564
Co5 Ge2 2.596959 1_565
Co5 Co7 2.612057 1_555
Co6 Ge1 2.533372 1_555
Co6 Ge4 2.533378 1_554
Co6 Ge7 2.596957 1_554
Co6 Ge2 2.596959 1_555
Co7 Ge5 2.533372 1_554
Co7 Ge0 2.533378 1_555
Co7 Ge3 2.596957 1_555
Co7 Ge6 2.596959 1_554
Co8 Ge2 2.533371 1_555
Co8 Ge7 2.533378 1_554
Co8 Ge4 2.596953 1_654
Co8 Ge1 2.596962 1_655
Co9 Ge6 2.533371 1_554
Co9 Ge3 2.533378 1_555
Co9 Ge0 2.596953 1_455
Co9 Ge5 2.596962 1_454
Co10 Ge1 2.341830 1_555
Co10 Ge5 2.385751 1_555
Co10 Ge3 2.450845 1_545
Co10 Ge2 2.450854 1_555
Co10 Co6 2.560239 1_555
Co10 Co4 2.560240 1_555
Co11 Ge0 2.341830 1_545
Co11 Ge4 2.385751 1_655
Co11 Ge3 2.450845 1_545
Co11 Ge2 2.450854 1_555
Co11 Co5 2.560239 1_545
Co11 Co7 2.560240 1_545
Co12 Ge3 2.341835 1_555
Co12 Ge7 2.385750 1_565
Co12 Ge0 2.450846 1_455
Co12 Ge1 2.450846 1_555
Co12 Co9 2.560240 1_555
Co12 Co2 2.560240 1_555
Co13 Ge2 2.341824 1_455
Co13 Ge6 2.385752 1_555
Co13 Ge0 2.450852 1_455
Co13 Ge1 2.450852 1_555
Co13 Co3 2.560240 1_455
Co13 Co8 2.560240 1_455
Co14 Ge5 2.341830 1_555
Co14 Ge1 2.385751 1_555
Co14 Ge7 2.450845 1_565
Co14 Ge6 2.450854 1_555
Co14 Co7 2.560239 1_556
Co14 Co5 2.560240 1_556
Co15 Ge4 2.341830 1_565
Co15 Ge0 2.385751 1_455
Co15 Ge7 2.450845 1_565
Co15 Ge6 2.450854 1_555
Co15 Co4 2.560239 1_566
Co15 Co6 2.560240 1_566
Co16 Ge7 2.341835 1_555
Co16 Ge3 2.385750 1_545
Co16 Ge5 2.450846 1_555
Co16 Ge4 2.450846 1_655
Co16 Co8 2.560240 1_556
Co16 Co3 2.560240 1_556
Co17 Ge6 2.341824 1_655
Co17 Ge2 2.385752 1_555
Co17 Ge5 2.450852 1_555
Co17 Ge4 2.450852 1_655
Co17 Co9 2.560240 1_656
Co17 Co2 2.560240 1_656
