# generated using pymatgen
data_Pr2Si5Pt3
_symmetry_space_group_name_H-M   'P 1'
_cell_length_a   8.30438094
_cell_length_b   8.30438094
_cell_length_c   8.30438094
_cell_angle_alpha   136.60902836
_cell_angle_beta   105.49342727
_cell_angle_gamma   90.35461959
_symmetry_Int_Tables_number   1
_chemical_formula_structural   Pr2Si5Pt3
_chemical_formula_sum   'Pr4 Si10 Pt6'
_cell_volume   361.35671286
_cell_formula_units_Z   2
loop_
 _symmetry_equiv_pos_site_id
 _symmetry_equiv_pos_as_xyz
  1  'x, y, z'
loop_
 _atom_site_type_symbol
 _atom_site_label
 _atom_site_symmetry_multiplicity
 _atom_site_fract_x
 _atom_site_fract_y
 _atom_site_fract_z
 _atom_site_occupancy
  Pr  Pr0  1  0.86118200  0.62771700  0.23346500  1
  Pr  Pr1  1  0.13881800  0.37228300  0.76653500  1
  Pr  Pr2  1  0.39425200  0.12771700  0.26653500  1
  Pr  Pr3  1  0.60574800  0.87228300  0.73346500  1
  Si  Si0  1  0.50000000  0.75000000  0.25000000  1
  Si  Si1  1  0.50000000  0.25000000  0.75000000  1
  Si  Si2  1  0.22905800  0.97905800  0.75000000  1
  Si  Si3  1  0.77094200  0.52094200  0.75000000  1
  Si  Si4  1  0.77094200  0.02094200  0.25000000  1
  Si  Si5  1  0.22905800  0.47905800  0.25000000  1
  Si  Si6  1  0.03476100  0.88552400  0.14923700  1
  Si  Si7  1  0.96523900  0.11447600  0.85076300  1
  Si  Si8  1  0.73628700  0.38552400  0.35076300  1
  Si  Si9  1  0.26371300  0.61447600  0.64923700  1
  Pt  Pt0  1  0.00000000  0.75000000  0.75000000  1
  Pt  Pt1  1  0.00000000  0.25000000  0.25000000  1
  Pt  Pt2  1  0.25398800  0.86356400  0.39042500  1
  Pt  Pt3  1  0.74601200  0.13643600  0.60957500  1
  Pt  Pt4  1  0.47313900  0.36356400  0.10957500  1
  Pt  Pt5  1  0.52686100  0.63643600  0.89042500  1
loop_
_geom_bond_atom_site_label_1
_geom_bond_atom_site_label_2
_geom_bond_distance
_geom_bond_site_symmetry_2
Pr0 Si8 3.071001 1_555
Pr0 Si6 3.134887 1_655
Pr0 Si1 3.178286 1_554
Pr0 Si0 3.178286 1_555
Pr0 Pt2 3.180362 1_655
Pr0 Si4 3.267637 1_565
Pr0 Si3 3.267637 1_554
Pr0 Si7 3.292286 1_554
Pr0 Si7 3.292286 1_565
Pr0 Si5 3.308286 1_655
Pr0 Si2 3.308286 1_655
Pr0 Pt3 3.314546 1_565
Pr0 Pt3 3.314552 1_554
Pr0 Pt4 3.334053 1_555
Pr0 Pt1 3.431165 1_655
Pr0 Pt0 3.431165 1_655
Pr0 Pt5 3.450415 1_554
Pr1 Si9 3.071001 1_555
Pr1 Si7 3.134887 1_455
Pr1 Si1 3.178286 1_555
Pr1 Si0 3.178286 1_556
Pr1 Pt3 3.180362 1_455
Pr1 Si2 3.267637 1_545
Pr1 Si5 3.267637 1_556
Pr1 Si6 3.292286 1_545
Pr1 Si6 3.292286 1_556
Pr1 Si4 3.308286 1_455
Pr1 Si3 3.308286 1_455
Pr1 Pt2 3.314546 1_545
Pr1 Pt2 3.314552 1_556
Pr1 Pt5 3.334053 1_555
Pr1 Pt0 3.431165 1_555
Pr1 Pt1 3.431165 1_555
Pr1 Pt4 3.450415 1_556
Pr2 Si6 3.071001 1_545
Pr2 Si8 3.134887 1_555
Pr2 Si0 3.178286 1_545
Pr2 Si1 3.178286 1_555
Pr2 Pt4 3.180370 1_555
Pr2 Si4 3.267637 1_555
Pr2 Si3 3.267637 1_555
Pr2 Si9 3.292286 1_555
Pr2 Si9 3.292286 1_544
Pr2 Si2 3.308286 1_544
Pr2 Si5 3.308286 1_555
Pr2 Pt5 3.314550 1_555
Pr2 Pt5 3.314550 1_544
Pr2 Pt2 3.334057 1_545
Pr2 Pt1 3.431165 1_555
Pr2 Pt0 3.431165 1_544
Pr2 Pt3 3.450420 1_555
Pr3 Si7 3.071001 1_565
Pr3 Si9 3.134887 1_555
Pr3 Si1 3.178286 1_565
Pr3 Si0 3.178286 1_555
Pr3 Pt5 3.180370 1_555
Pr3 Si2 3.267637 1_555
Pr3 Si5 3.267637 1_555
Pr3 Si8 3.292286 1_566
Pr3 Si8 3.292286 1_555
Pr3 Si4 3.308286 1_566
Pr3 Si3 3.308286 1_555
Pr3 Pt4 3.314550 1_566
Pr3 Pt4 3.314550 1_555
Pr3 Pt3 3.334057 1_565
Pr3 Pt1 3.431165 1_666
Pr3 Pt0 3.431165 1_655
Pr3 Pt2 3.450420 1_555
Si2 Si9 2.531199 1_555
Si2 Si7 2.531199 1_465
Si3 Si8 2.531199 1_555
Si3 Si6 2.531199 1_656
Si4 Si8 2.531199 1_555
Si4 Si6 2.531199 1_645
Si5 Si9 2.531199 1_555
Si5 Si7 2.531199 1_454
Pt0 Si8 2.530541 1_455
Pt0 Si7 2.530541 1_465
Pt0 Si9 2.530541 1_555
Pt0 Si6 2.530541 1_556
Pt0 Si3 2.681758 1_455
Pt0 Si2 2.681758 1_555
Pt1 Si7 2.530541 1_454
Pt1 Si8 2.530541 1_455
Pt1 Si9 2.530541 1_555
Pt1 Si6 2.530541 1_545
Pt1 Si5 2.681758 1_555
Pt1 Si4 2.681758 1_455
Pt2 Si6 2.438478 1_555
Pt2 Si2 2.459596 1_555
Pt2 Si5 2.459600 1_555
Pt2 Si1 2.474131 1_565
Pt2 Si0 2.474135 1_555
Pt3 Si7 2.438478 1_555
Pt3 Si4 2.459596 1_555
Pt3 Si3 2.459600 1_555
Pt3 Si0 2.474131 1_545
Pt3 Si1 2.474135 1_555
Pt4 Si8 2.438482 1_555
Pt4 Si5 2.459599 1_555
Pt4 Si2 2.459599 1_544
Pt4 Si0 2.474127 1_555
Pt4 Si1 2.474127 1_554
Pt5 Si9 2.438482 1_555
Pt5 Si3 2.459599 1_555
Pt5 Si4 2.459599 1_566
Pt5 Si0 2.474127 1_556
Pt5 Si1 2.474127 1_555
