# generated using pymatgen
data_Li4Fe2(PO4)3
_symmetry_space_group_name_H-M   'P 1'
_cell_length_a   8.44370200
_cell_length_b   8.45947793
_cell_length_c   8.96542861
_cell_angle_alpha   62.07400907
_cell_angle_beta   61.94724240
_cell_angle_gamma   60.80408127
_symmetry_Int_Tables_number   1
_chemical_formula_structural   Li4Fe2(PO4)3
_chemical_formula_sum   'Li8 Fe4 P6 O24'
_cell_volume   469.03196132
_cell_formula_units_Z   2
loop_
 _symmetry_equiv_pos_site_id
 _symmetry_equiv_pos_as_xyz
  1  'x, y, z'
loop_
 _atom_site_type_symbol
 _atom_site_label
 _atom_site_symmetry_multiplicity
 _atom_site_fract_x
 _atom_site_fract_y
 _atom_site_fract_z
 _atom_site_occupancy
  Li  Li0  1  0.12715900  0.76384200  0.67658400  1
  Li  Li1  1  0.41583600  0.13635300  0.67878300  1
  Li  Li2  1  0.84455300  0.20055700  0.96124000  1
  Li  Li3  1  0.24126100  0.56114700  0.35554700  1
  Li  Li4  1  0.75873900  0.43885300  0.64445300  1
  Li  Li5  1  0.15544700  0.79944300  0.03876000  1
  Li  Li6  1  0.58416400  0.86364700  0.32121700  1
  Li  Li7  1  0.87284100  0.23615800  0.32341600  1
  Fe  Fe0  1  0.14254100  0.13977500  0.56872800  1
  Fe  Fe1  1  0.85745900  0.86022500  0.43127200  1
  Fe  Fe2  1  0.34446900  0.34094800  0.96632800  1
  Fe  Fe3  1  0.65553100  0.65905200  0.03367200  1
  P  P0  1  0.04438400  0.45136600  0.75892900  1
  P  P1  1  0.45477900  0.74063300  0.75055600  1
  P  P2  1  0.74034600  0.05180100  0.75436000  1
  P  P3  1  0.25965400  0.94819900  0.24564000  1
  P  P4  1  0.54522100  0.25936700  0.24944400  1
  P  P5  1  0.95561600  0.54863400  0.24107100  1
  O  O0  1  0.16825000  0.49084800  0.81316500  1
  O  O1  1  0.13336200  0.24349900  0.75575300  1
  O  O2  1  0.03516700  0.59882800  0.57428000  1
  O  O3  1  0.47222000  0.78571700  0.89059900  1
  O  O4  1  0.24295900  0.85937900  0.75330500  1
  O  O5  1  0.49419900  0.52547600  0.79790200  1
  O  O6  1  0.52297600  0.16845500  0.81064900  1
  O  O7  1  0.79677300  0.84245600  0.87508800  1
  O  O8  1  0.20556500  0.94670100  0.43680600  1
  O  O9  1  0.83641500  0.47259100  0.88960300  1
  O  O10  1  0.14497100  0.84816500  0.24424200  1
  O  O11  1  0.40220400  0.20514900  0.43380900  1
  O  O12  1  0.59779600  0.79485100  0.56619100  1
  O  O13  1  0.85502900  0.15183500  0.75575800  1
  O  O14  1  0.16358500  0.52740900  0.11039700  1
  O  O15  1  0.79443500  0.05329900  0.56319400  1
  O  O16  1  0.20322700  0.15754400  0.12491200  1
  O  O17  1  0.47702400  0.83154500  0.18935100  1
  O  O18  1  0.50580100  0.47452400  0.20209800  1
  O  O19  1  0.75704100  0.14062100  0.24669500  1
  O  O20  1  0.52778000  0.21428300  0.10940100  1
  O  O21  1  0.96483300  0.40117200  0.42572000  1
  O  O22  1  0.86663800  0.75650100  0.24424700  1
  O  O23  1  0.83175000  0.50915200  0.18683500  1
loop_
_geom_bond_atom_site_label_1
_geom_bond_atom_site_label_2
_geom_bond_distance
_geom_bond_site_symmetry_2
Li0 O0 1.980458 1_555
Li0 O8 1.999545 1_555
Li0 O4 2.001644 1_555
Li0 O7 2.453730 1_455
Li0 O2 2.514042 1_555
Li1 O6 1.958619 1_555
Li1 O1 1.978697 1_555
Li1 O11 2.037365 1_555
Li1 O3 2.613013 1_545
Li2 O13 2.023338 1_555
Li2 O9 2.053263 1_555
Li2 O19 2.173509 1_556
Li2 O20 2.330634 1_556
Li2 O1 2.341921 1_655
Li3 O2 1.951952 1_555
Li3 O18 1.968774 1_555
Li3 O10 2.029750 1_555
Li3 O11 2.516640 1_555
Li4 O21 1.951952 1_555
Li4 O5 1.968774 1_555
Li4 O13 2.029750 1_555
Li4 O12 2.516640 1_555
Li5 O10 2.023338 1_555
Li5 O14 2.053263 1_555
Li5 O4 2.173509 1_554
Li5 O3 2.330634 1_554
Li5 O22 2.341921 1_455
Li6 O17 1.958619 1_555
Li6 O22 1.978697 1_555
Li6 O12 2.037365 1_555
Li6 O20 2.613013 1_565
Li7 O23 1.980458 1_555
Li7 O15 1.999545 1_555
Li7 O19 2.001644 1_555
Li7 O16 2.453730 1_655
Li7 O21 2.514042 1_555
Fe0 O11 2.153604 1_555
Fe0 O21 2.168414 1_455
Fe0 O8 2.172373 1_545
Fe0 O4 2.182825 1_545
Fe0 O1 2.185624 1_555
Fe0 O13 2.192135 1_455
Fe1 O12 2.153604 1_555
Fe1 O2 2.168414 1_655
Fe1 O15 2.172373 1_565
Fe1 O19 2.182825 1_565
Fe1 O22 2.185624 1_555
Fe1 O10 2.192135 1_655
Fe2 O16 1.998767 1_556
Fe2 O6 2.032828 1_555
Fe2 O20 2.037457 1_556
Fe2 O0 2.039016 1_555
Fe2 O14 2.047342 1_556
Fe2 O5 2.058448 1_555
Fe3 O7 1.998767 1_554
Fe3 O17 2.032828 1_555
Fe3 O3 2.037457 1_554
Fe3 O23 2.039016 1_555
Fe3 O9 2.047342 1_554
Fe3 O18 2.058448 1_555
O0 P0 1.553425 1_555
O1 P0 1.547674 1_555
O2 P0 1.547545 1_555
O3 P1 1.555880 1_555
O4 P1 1.561253 1_555
O5 P1 1.556271 1_555
O6 P2 1.557391 1_555
O7 P2 1.549599 1_565
O8 P3 1.547650 1_555
O9 P0 1.562953 1_655
O10 P3 1.573142 1_555
O11 P4 1.534144 1_555
O12 P1 1.534144 1_555
O13 P2 1.573142 1_555
O14 P5 1.562953 1_455
O15 P2 1.547650 1_555
O16 P3 1.549599 1_545
O17 P3 1.557391 1_555
O18 P4 1.556271 1_555
O19 P4 1.561253 1_555
O20 P4 1.555880 1_555
O21 P5 1.547545 1_555
O22 P5 1.547674 1_555
O23 P5 1.553425 1_555
