# generated using pymatgen
data_Co2Re5P12
_symmetry_space_group_name_H-M   'P 1'
_cell_length_a   3.06008700
_cell_length_b   11.92649400
_cell_length_c   14.91046400
_cell_angle_alpha   90.00000000
_cell_angle_beta   90.00000000
_cell_angle_gamma   90.00000000
_symmetry_Int_Tables_number   1
_chemical_formula_structural   Co2Re5P12
_chemical_formula_sum   'Co4 Re10 P24'
_cell_volume   544.17392304
_cell_formula_units_Z   2
loop_
 _symmetry_equiv_pos_site_id
 _symmetry_equiv_pos_as_xyz
  1  'x, y, z'
loop_
 _atom_site_type_symbol
 _atom_site_label
 _atom_site_symmetry_multiplicity
 _atom_site_fract_x
 _atom_site_fract_y
 _atom_site_fract_z
 _atom_site_occupancy
  Co  Co0  1  0.50000000  0.13095100  0.34545600  1
  Co  Co1  1  0.50000000  0.86904900  0.65454400  1
  Co  Co2  1  0.00000000  0.36904900  0.84545600  1
  Co  Co3  1  0.00000000  0.63095100  0.15454400  1
  Re  Re0  1  0.50000000  0.31775500  0.10081900  1
  Re  Re1  1  0.50000000  0.68224500  0.89918100  1
  Re  Re2  1  0.00000000  0.18224500  0.60081900  1
  Re  Re3  1  0.00000000  0.81775500  0.39918100  1
  Re  Re4  1  0.50000000  0.92284700  0.25788800  1
  Re  Re5  1  0.50000000  0.07715300  0.74211200  1
  Re  Re6  1  0.00000000  0.57715300  0.75788800  1
  Re  Re7  1  0.00000000  0.42284700  0.24211200  1
  Re  Re8  1  0.50000000  0.50000000  0.50000000  1
  Re  Re9  1  0.00000000  0.00000000  0.00000000  1
  P  P0  1  0.50000000  0.57717200  0.26190000  1
  P  P1  1  0.50000000  0.42282800  0.73810000  1
  P  P2  1  0.00000000  0.92282800  0.76190000  1
  P  P3  1  0.00000000  0.07717200  0.23810000  1
  P  P4  1  0.50000000  0.65422700  0.40047900  1
  P  P5  1  0.50000000  0.34577300  0.59952100  1
  P  P6  1  0.00000000  0.84577300  0.90047900  1
  P  P7  1  0.00000000  0.15422700  0.09952100  1
  P  P8  1  0.50000000  0.89976600  0.09545100  1
  P  P9  1  0.50000000  0.10023400  0.90454900  1
  P  P10  1  0.00000000  0.60023400  0.59545100  1
  P  P11  1  0.00000000  0.39976600  0.40454900  1
  P  P12  1  0.50000000  0.72551800  0.74217900  1
  P  P13  1  0.50000000  0.27448200  0.25782100  1
  P  P14  1  0.00000000  0.77448200  0.24217900  1
  P  P15  1  0.00000000  0.22551800  0.75782100  1
  P  P16  1  0.50000000  0.97204500  0.42628500  1
  P  P17  1  0.50000000  0.02795500  0.57371500  1
  P  P18  1  0.00000000  0.52795500  0.92628500  1
  P  P19  1  0.00000000  0.47204500  0.07371500  1
  P  P20  1  0.50000000  0.71161100  0.06285200  1
  P  P21  1  0.50000000  0.28838900  0.93714800  1
  P  P22  1  0.00000000  0.78838900  0.56285200  1
  P  P23  1  0.00000000  0.21161100  0.43714800  1
loop_
_geom_bond_atom_site_label_1
_geom_bond_atom_site_label_2
_geom_bond_distance
_geom_bond_site_symmetry_2
Co0 P13 2.153542 1_555
Co0 P16 2.245941 1_545
Co0 P23 2.266189 1_655
Co0 P23 2.266189 1_555
Co0 P3 2.305374 1_655
Co0 P3 2.305374 1_555
Co1 P12 2.153542 1_555
Co1 P17 2.245941 1_565
Co1 P22 2.266189 1_555
Co1 P22 2.266189 1_655
Co1 P2 2.305374 1_555
Co1 P2 2.305374 1_655
Co2 P15 2.153542 1_555
Co2 P18 2.245941 1_555
Co2 P21 2.266189 1_455
Co2 P21 2.266189 1_555
Co2 P1 2.305374 1_455
Co2 P1 2.305374 1_555
Co3 P14 2.153542 1_555
Co3 P19 2.245941 1_555
Co3 P20 2.266189 1_555
Co3 P20 2.266189 1_455
Co3 P0 2.305374 1_455
Co3 P0 2.305374 1_555
P0 P4 2.261428 1_555
P0 Re7 2.411583 1_555
P0 Re7 2.411583 1_655
P1 P5 2.261428 1_555
P1 Re6 2.411583 1_655
P1 Re6 2.411583 1_555
P2 P6 2.261428 1_555
P2 Re5 2.411583 1_465
P2 Re5 2.411583 1_565
P3 P7 2.261428 1_555
P3 Re4 2.411583 1_545
P3 Re4 2.411583 1_445
P4 Re8 2.363328 1_555
P4 Re3 2.478939 1_555
P4 Re3 2.478939 1_655
P5 Re8 2.363328 1_555
P5 Re2 2.478939 1_555
P5 Re2 2.478939 1_655
P6 Re9 2.363328 1_566
P6 Re1 2.478939 1_455
P6 Re1 2.478939 1_555
P7 Re9 2.363328 1_555
P7 Re0 2.478939 1_455
P7 Re0 2.478939 1_555
P8 Re9 2.407418 1_565
P8 Re9 2.407418 1_665
P8 Re4 2.437604 1_555
P9 Re9 2.407418 1_556
P9 Re9 2.407418 1_656
P9 Re5 2.437604 1_555
P10 P22 2.296068 1_555
P10 Re8 2.407418 1_555
P10 Re8 2.407418 1_455
P10 Re6 2.437604 1_555
P11 P23 2.296068 1_555
P11 Re8 2.407418 1_555
P11 Re8 2.407418 1_455
P11 Re7 2.437604 1_555
P12 Re6 2.350943 1_555
P12 Re6 2.350943 1_655
P12 Re1 2.397187 1_555
P13 Re7 2.350943 1_555
P13 Re7 2.350943 1_655
P13 Re0 2.397187 1_555
P14 Re4 2.350943 1_555
P14 Re4 2.350943 1_455
P14 Re3 2.397187 1_555
P15 Re5 2.350943 1_455
P15 Re5 2.350943 1_555
P15 Re2 2.397187 1_555
P16 P17 2.297159 1_565
P16 Re3 2.427029 1_555
P16 Re3 2.427029 1_655
P16 Re4 2.578525 1_555
P17 Re2 2.427029 1_655
P17 Re2 2.427029 1_555
P17 Re5 2.578525 1_555
P18 P19 2.297159 1_556
P18 Re1 2.427029 1_455
P18 Re1 2.427029 1_555
P18 Re6 2.578525 1_555
P19 Re0 2.427029 1_455
P19 Re0 2.427029 1_555
P19 Re7 2.578525 1_555
P20 P8 2.296068 1_555
P20 Re1 2.465414 1_554
P21 P9 2.296068 1_555
P21 Re0 2.465414 1_556
P22 Re3 2.465414 1_555
P23 Re2 2.465414 1_555
