# generated using pymatgen
data_Li20Si3P3S23Cl
_symmetry_space_group_name_H-M   'P 1'
_cell_length_a   8.85096400
_cell_length_b   8.77029000
_cell_length_c   12.77184453
_cell_angle_alpha   89.89237838
_cell_angle_beta   90.00000000
_cell_angle_gamma   90.00000000
_symmetry_Int_Tables_number   1
_chemical_formula_structural   Li20Si3P3S23Cl
_chemical_formula_sum   'Li20 Si3 P3 S23 Cl1'
_cell_volume   991.41933763
_cell_formula_units_Z   1
loop_
 _symmetry_equiv_pos_site_id
 _symmetry_equiv_pos_as_xyz
  1  'x, y, z'
loop_
 _atom_site_type_symbol
 _atom_site_label
 _atom_site_symmetry_multiplicity
 _atom_site_fract_x
 _atom_site_fract_y
 _atom_site_fract_z
 _atom_site_occupancy
  Li  Li0  1  0.23832700  0.77432600  0.29328100  1
  Li  Li1  1  0.76578600  0.22273500  0.28642200  1
  Li  Li2  1  0.73175900  0.72791600  0.79297100  1
  Li  Li3  1  0.26824400  0.27332500  0.79582700  1
  Li  Li4  1  0.76167300  0.77432600  0.29328100  1
  Li  Li5  1  0.23421400  0.22273500  0.28642200  1
  Li  Li6  1  0.26824100  0.72791600  0.79297100  1
  Li  Li7  1  0.73175600  0.27332500  0.79582700  1
  Li  Li8  1  0.50000000  0.00142800  0.94933400  1
  Li  Li9  1  0.50000000  0.00036200  0.43166400  1
  Li  Li10  1  0.00000000  0.50373500  0.55432000  1
  Li  Li11  1  0.00000000  0.49172700  0.03746300  1
  Li  Li12  1  0.75175000  0.75096300  0.02048200  1
  Li  Li13  1  0.23536500  0.24952100  0.03196400  1
  Li  Li14  1  0.24445600  0.73445500  0.53623700  1
  Li  Li15  1  0.75430900  0.26778700  0.53507300  1
  Li  Li16  1  0.75554400  0.73445500  0.53623700  1
  Li  Li17  1  0.24569100  0.26778700  0.53507300  1
  Li  Li18  1  0.24825000  0.75096300  0.02048200  1
  Li  Li19  1  0.76463500  0.24952100  0.03196400  1
  Si  Si0  1  0.00000000  0.49954400  0.80164100  1
  Si  Si1  1  0.00000000  0.48565200  0.31675300  1
  Si  Si2  1  0.50000000  0.99903500  0.19005000  1
  P  P0  1  0.50000000  0.00041600  0.68683900  1
  P  P1  1  0.00000000  0.00032400  0.50279900  1
  P  P2  1  0.50000000  0.50091100  0.00445200  1
  S  S0  1  0.80692800  0.99907400  0.41177100  1
  S  S1  1  0.19307200  0.99907400  0.41177100  1
  S  S2  1  0.50000000  0.69567300  0.91175200  1
  S  S3  1  0.50000000  0.30687500  0.91307900  1
  S  S4  1  0.30848000  0.50153000  0.09477500  1
  S  S5  1  0.69152000  0.50153000  0.09477500  1
  S  S6  1  0.00000000  0.81147500  0.59739100  1
  S  S7  1  0.00000000  0.19103200  0.59458700  1
  S  S8  1  0.70292500  0.99778000  0.09593100  1
  S  S9  1  0.29707500  0.99778000  0.09593100  1
  S  S10  1  0.50000000  0.80432900  0.59682100  1
  S  S11  1  0.50000000  0.19576400  0.59596000  1
  S  S12  1  0.20184100  0.50409400  0.40284400  1
  S  S13  1  0.79815900  0.50409400  0.40284400  1
  S  S14  1  0.00000000  0.69951100  0.90126900  1
  S  S15  1  0.00000000  0.29619700  0.89807900  1
  S  S16  1  0.30888000  0.00066000  0.77757800  1
  S  S17  1  0.69112000  0.00066000  0.77757800  1
  S  S18  1  0.50000000  0.19810200  0.28493400  1
  S  S19  1  0.50000000  0.80078800  0.28640300  1
  S  S20  1  0.80297100  0.50036700  0.70372200  1
  S  S21  1  0.19702900  0.50036700  0.70372200  1
  S  S22  1  0.00000000  0.30978300  0.20584700  1
  Cl  Cl0  1  0.00000000  0.69827500  0.21522500  1
loop_
_geom_bond_atom_site_label_1
_geom_bond_atom_site_label_2
_geom_bond_distance
_geom_bond_site_symmetry_2
Li0 S19 2.329298 1_555
Li0 S1 2.519343 1_555
Li0 S12 2.768915 1_555
Li1 S18 2.362441 1_555
Li1 S22 2.436457 1_655
Li1 S0 2.555694 1_545
Li1 S13 2.897564 1_555
Li2 S20 2.384918 1_555
Li2 S17 2.426549 1_565
Li2 S2 2.566631 1_555
Li2 S14 2.758749 1_655
Li3 S21 2.395262 1_555
Li3 S16 2.429884 1_555
Li3 S3 2.557049 1_555
Li3 S15 2.717284 1_555
Li4 S19 2.329298 1_555
Li4 S0 2.519343 1_555
Li4 S13 2.768915 1_555
Li5 S18 2.362441 1_555
Li5 S22 2.436457 1_555
Li5 S1 2.555694 1_545
Li5 S12 2.897564 1_555
Li6 S21 2.384918 1_555
Li6 S16 2.426549 1_565
Li6 S2 2.566631 1_555
Li6 S14 2.758749 1_555
Li7 S20 2.395262 1_555
Li7 S17 2.429884 1_555
Li7 S3 2.557049 1_555
Li7 S15 2.717284 1_655
Li8 S9 2.594662 1_546
Li8 S8 2.594662 1_546
Li8 S3 2.717726 1_555
Li8 S2 2.725067 1_545
Li8 S16 2.770137 1_555
Li8 S17 2.770137 1_555
Li9 S18 2.550940 1_555
Li9 S19 2.552995 1_545
Li9 S11 2.711736 1_555
Li9 S10 2.718759 1_545
Li9 S0 2.728489 1_545
Li9 S1 2.728489 1_545
Li10 S21 2.585117 1_555
Li10 S20 2.585117 1_455
Li10 S12 2.633308 1_555
Li10 S13 2.633308 1_455
Li10 S6 2.755470 1_555
Li10 S7 2.789350 1_555
Li11 S15 2.474121 1_554
Li11 S14 2.516872 1_554
Li11 S22 2.675508 1_555
Li11 S5 2.828110 1_455
Li11 S4 2.828110 1_555
Li12 S8 2.410165 1_555
Li12 S5 2.441785 1_555
Li12 S2 2.670415 1_554
Li12 S14 2.711520 1_654
Li13 S9 2.415278 1_545
Li13 S4 2.440070 1_555
Li13 S15 2.725556 1_554
Li13 S3 2.835821 1_554
Li14 S6 2.397869 1_555
Li14 S10 2.468163 1_555
Li14 S12 2.671975 1_555
Li14 S1 2.847112 1_555
Li14 S21 2.991708 1_555
Li15 S7 2.399558 1_655
Li15 S11 2.463399 1_555
Li15 S13 2.699025 1_555
Li15 S0 2.874859 1_545
Li15 S20 3.000385 1_555
Li16 S6 2.397869 1_655
Li16 S10 2.468163 1_555
Li16 S13 2.671975 1_555
Li16 S0 2.847112 1_555
Li16 S20 2.991708 1_555
Li17 S7 2.399558 1_555
Li17 S11 2.463399 1_555
Li17 S12 2.699025 1_555
Li17 S1 2.874859 1_545
Li17 S21 3.000385 1_555
Li18 S9 2.410165 1_555
Li18 S4 2.441785 1_555
Li18 S2 2.670415 1_554
Li18 S14 2.711520 1_554
Li19 S8 2.415278 1_545
Li19 S5 2.440070 1_555
Li19 S15 2.725556 1_654
Li19 S3 2.835821 1_554
P0 S16 2.050505 1_555
P0 S17 2.050505 1_555
P0 S11 2.067605 1_555
P0 S10 2.070443 1_545
P1 S7 2.044292 1_555
P1 S6 2.048224 1_545
P1 S1 2.066892 1_545
P1 S0 2.066892 1_445
P2 S4 2.050442 1_555
P2 S5 2.050442 1_555
P2 S3 2.065264 1_554
P2 S2 2.076490 1_554
S8 Si2 2.161264 1_555
S9 Si2 2.161264 1_555
S12 Si1 2.104128 1_555
S13 Si1 2.104128 1_655
S14 Si0 2.168680 1_555
S15 Si0 2.165495 1_555
S18 Si2 2.127109 1_545
S19 Si2 2.128232 1_555
S20 Si0 2.145975 1_655
S21 Si0 2.145975 1_555
S22 Si1 2.096109 1_555
Cl0 Si1 2.269294 1_555
Cl0 Li0 2.427115 1_555
Cl0 Li4 2.427115 1_455
Cl0 Li11 2.907132 1_555
