# generated using pymatgen
data_MgSi2
_symmetry_space_group_name_H-M   'P 1'
_cell_length_a   5.56075600
_cell_length_b   15.46837800
_cell_length_c   18.34940600
_cell_angle_alpha   90.00000000
_cell_angle_beta   90.00000000
_cell_angle_gamma   90.00000000
_symmetry_Int_Tables_number   1
_chemical_formula_structural   MgSi2
_chemical_formula_sum   'Mg32 Si64'
_cell_volume   1578.34022702
_cell_formula_units_Z   32
loop_
 _symmetry_equiv_pos_site_id
 _symmetry_equiv_pos_as_xyz
  1  'x, y, z'
loop_
 _atom_site_type_symbol
 _atom_site_label
 _atom_site_symmetry_multiplicity
 _atom_site_fract_x
 _atom_site_fract_y
 _atom_site_fract_z
 _atom_site_occupancy
  Mg  Mg0_0  1  0.00000000  0.03937850  0.00000000  1
  Mg  Mg0_1  1  0.00000000  0.03937850  0.50000000  1
  Mg  Mg0_2  1  0.00000000  0.53937850  0.00000000  1
  Mg  Mg0_3  1  0.00000000  0.53937850  0.50000000  1
  Mg  Mg0_4  1  0.50000000  0.03937850  0.00000000  1
  Mg  Mg0_5  1  0.50000000  0.03937850  0.50000000  1
  Mg  Mg0_6  1  0.50000000  0.53937850  0.00000000  1
  Mg  Mg0_7  1  0.50000000  0.53937850  0.50000000  1
  Mg  Mg1_0  1  0.00000000  0.39626600  0.25000000  1
  Mg  Mg1_1  1  0.00000000  0.39626600  0.75000000  1
  Mg  Mg1_2  1  0.00000000  0.89626600  0.25000000  1
  Mg  Mg1_3  1  0.00000000  0.89626600  0.75000000  1
  Mg  Mg1_4  1  0.50000000  0.39626600  0.25000000  1
  Mg  Mg1_5  1  0.50000000  0.39626600  0.75000000  1
  Mg  Mg1_6  1  0.50000000  0.89626600  0.25000000  1
  Mg  Mg1_7  1  0.50000000  0.89626600  0.75000000  1
  Mg  Mg2_0  1  0.00000000  0.28241500  0.11763750  1
  Mg  Mg2_1  1  0.00000000  0.28241500  0.61763750  1
  Mg  Mg2_2  1  0.00000000  0.78241500  0.11763750  1
  Mg  Mg2_3  1  0.00000000  0.78241500  0.61763750  1
  Mg  Mg2_4  1  0.50000000  0.28241500  0.11763750  1
  Mg  Mg2_5  1  0.50000000  0.28241500  0.61763750  1
  Mg  Mg2_6  1  0.50000000  0.78241500  0.11763750  1
  Mg  Mg2_7  1  0.50000000  0.78241500  0.61763750  1
  Mg  Mg3_0  1  0.00000000  0.28241500  0.38236250  1
  Mg  Mg3_1  1  0.00000000  0.28241500  0.88236250  1
  Mg  Mg3_2  1  0.00000000  0.78241500  0.38236250  1
  Mg  Mg3_3  1  0.00000000  0.78241500  0.88236250  1
  Mg  Mg3_4  1  0.50000000  0.28241500  0.38236250  1
  Mg  Mg3_5  1  0.50000000  0.28241500  0.88236250  1
  Mg  Mg3_6  1  0.50000000  0.78241500  0.38236250  1
  Mg  Mg3_7  1  0.50000000  0.78241500  0.88236250  1
  Si  Si0_0  1  0.25000000  0.37238150  0.00000000  1
  Si  Si0_1  1  0.25000000  0.37238150  0.50000000  1
  Si  Si0_2  1  0.25000000  0.87238150  0.00000000  1
  Si  Si0_3  1  0.25000000  0.87238150  0.50000000  1
  Si  Si0_4  1  0.75000000  0.37238150  0.00000000  1
  Si  Si0_5  1  0.75000000  0.37238150  0.50000000  1
  Si  Si0_6  1  0.75000000  0.87238150  0.00000000  1
  Si  Si0_7  1  0.75000000  0.87238150  0.50000000  1
  Si  Si1_0  1  0.25000000  0.22581600  0.25000000  1
  Si  Si1_1  1  0.25000000  0.22581600  0.75000000  1
  Si  Si1_2  1  0.25000000  0.72581600  0.25000000  1
  Si  Si1_3  1  0.25000000  0.72581600  0.75000000  1
  Si  Si1_4  1  0.75000000  0.22581600  0.25000000  1
  Si  Si1_5  1  0.75000000  0.22581600  0.75000000  1
  Si  Si1_6  1  0.75000000  0.72581600  0.25000000  1
  Si  Si1_7  1  0.75000000  0.72581600  0.75000000  1
  Si  Si2_0  1  0.25000000  0.11939650  0.12500700  1
  Si  Si2_1  1  0.25000000  0.11939650  0.62500700  1
  Si  Si2_2  1  0.25000000  0.61939650  0.12500700  1
  Si  Si2_3  1  0.25000000  0.61939650  0.62500700  1
  Si  Si2_4  1  0.75000000  0.11939650  0.12500700  1
  Si  Si2_5  1  0.75000000  0.11939650  0.62500700  1
  Si  Si2_6  1  0.75000000  0.61939650  0.12500700  1
  Si  Si2_7  1  0.75000000  0.61939650  0.62500700  1
  Si  Si3_0  1  0.25000000  0.11939650  0.37499300  1
  Si  Si3_1  1  0.25000000  0.11939650  0.87499300  1
  Si  Si3_2  1  0.25000000  0.61939650  0.37499300  1
  Si  Si3_3  1  0.25000000  0.61939650  0.87499300  1
  Si  Si3_4  1  0.75000000  0.11939650  0.37499300  1
  Si  Si3_5  1  0.75000000  0.11939650  0.87499300  1
  Si  Si3_6  1  0.75000000  0.61939650  0.37499300  1
  Si  Si3_7  1  0.75000000  0.61939650  0.87499300  1
  Si  Si4_0  1  0.25000000  0.45145500  0.11972400  1
  Si  Si4_1  1  0.25000000  0.45145500  0.61972400  1
  Si  Si4_2  1  0.25000000  0.95145500  0.11972400  1
  Si  Si4_3  1  0.25000000  0.95145500  0.61972400  1
  Si  Si4_4  1  0.75000000  0.45145500  0.11972400  1
  Si  Si4_5  1  0.75000000  0.45145500  0.61972400  1
  Si  Si4_6  1  0.75000000  0.95145500  0.11972400  1
  Si  Si4_7  1  0.75000000  0.95145500  0.61972400  1
  Si  Si5_0  1  0.25000000  0.45145500  0.38027600  1
  Si  Si5_1  1  0.25000000  0.45145500  0.88027600  1
  Si  Si5_2  1  0.25000000  0.95145500  0.38027600  1
  Si  Si5_3  1  0.25000000  0.95145500  0.88027600  1
  Si  Si5_4  1  0.75000000  0.45145500  0.38027600  1
  Si  Si5_5  1  0.75000000  0.45145500  0.88027600  1
  Si  Si5_6  1  0.75000000  0.95145500  0.38027600  1
  Si  Si5_7  1  0.75000000  0.95145500  0.88027600  1
  Si  Si6_0  1  0.25000000  0.20262250  0.00000000  1
  Si  Si6_1  1  0.25000000  0.20262250  0.50000000  1
  Si  Si6_2  1  0.25000000  0.70262250  0.00000000  1
  Si  Si6_3  1  0.25000000  0.70262250  0.50000000  1
  Si  Si6_4  1  0.75000000  0.20262250  0.00000000  1
  Si  Si6_5  1  0.75000000  0.20262250  0.50000000  1
  Si  Si6_6  1  0.75000000  0.70262250  0.00000000  1
  Si  Si6_7  1  0.75000000  0.70262250  0.50000000  1
  Si  Si7_0  1  0.25000000  0.05582900  0.25000000  1
  Si  Si7_1  1  0.25000000  0.05582900  0.75000000  1
  Si  Si7_2  1  0.25000000  0.55582900  0.25000000  1
  Si  Si7_3  1  0.25000000  0.55582900  0.75000000  1
  Si  Si7_4  1  0.75000000  0.05582900  0.25000000  1
  Si  Si7_5  1  0.75000000  0.05582900  0.75000000  1
  Si  Si7_6  1  0.75000000  0.55582900  0.25000000  1
  Si  Si7_7  1  0.75000000  0.55582900  0.75000000  1
loop_
_geom_bond_atom_site_label_1
_geom_bond_atom_site_label_2
_geom_bond_distance
_geom_bond_site_symmetry_2
Mg0_0 Mg0_4 2.780378 1_555
Mg0_0 Mg0_4 2.780378 1_455
Mg0_0 Si6_4 2.882509 1_455
Mg0_0 Si6_0 2.882509 1_555
Mg0_0 Si0_6 2.933497 1_445
Mg0_0 Si0_2 2.933497 1_545
Mg0_0 Si5_3 2.934030 1_544
Mg0_0 Si5_7 2.934030 1_444
Mg0_0 Si4_6 2.934030 1_445
Mg0_0 Si4_2 2.934030 1_545
Mg0_0 Si2_4 2.954012 1_455
Mg0_0 Si2_0 2.954012 1_555
Mg0_0 Si3_5 2.954012 1_454
Mg0_0 Si3_1 2.954012 1_554
Mg0_1 Mg0_5 2.780378 1_555
Mg0_1 Mg0_5 2.780378 1_455
Mg0_1 Si6_5 2.882509 1_455
Mg0_1 Si6_1 2.882509 1_555
Mg0_1 Si0_7 2.933497 1_445
Mg0_1 Si0_3 2.933497 1_545
Mg0_1 Si5_2 2.934030 1_545
Mg0_1 Si5_6 2.934030 1_445
Mg0_1 Si4_3 2.934030 1_545
Mg0_1 Si4_7 2.934030 1_445
Mg0_1 Si3_4 2.954012 1_455
Mg0_1 Si2_5 2.954012 1_455
Mg0_1 Si2_1 2.954012 1_555
Mg0_1 Si3_0 2.954012 1_555
Mg0_2 Mg0_6 2.780378 1_455
Mg0_2 Mg0_6 2.780378 1_555
Mg0_2 Si6_2 2.882509 1_555
Mg0_2 Si6_6 2.882509 1_455
Mg0_2 Si0_0 2.933497 1_555
Mg0_2 Si0_4 2.933497 1_455
Mg0_2 Si5_1 2.934030 1_554
Mg0_2 Si5_5 2.934030 1_454
Mg0_2 Si4_4 2.934030 1_455
Mg0_2 Si4_0 2.934030 1_555
Mg0_2 Si2_6 2.954012 1_455
Mg0_2 Si2_2 2.954012 1_555
Mg0_2 Si3_7 2.954012 1_454
Mg0_2 Si3_3 2.954012 1_554
Mg0_3 Mg0_7 2.780378 1_555
Mg0_3 Mg0_7 2.780378 1_455
Mg0_3 Si6_3 2.882509 1_555
Mg0_3 Si6_7 2.882509 1_455
Mg0_3 Si0_5 2.933497 1_455
Mg0_3 Si0_1 2.933497 1_555
Mg0_3 Si5_4 2.934030 1_455
Mg0_3 Si5_0 2.934030 1_555
Mg0_3 Si4_1 2.934030 1_555
Mg0_3 Si4_5 2.934030 1_455
Mg0_3 Si3_6 2.954012 1_455
Mg0_3 Si2_7 2.954012 1_455
Mg0_3 Si2_3 2.954012 1_555
Mg0_3 Si3_2 2.954012 1_555
Mg0_4 Si6_0 2.882509 1_555
Mg0_4 Si6_4 2.882509 1_555
Mg0_4 Si0_2 2.933497 1_545
Mg0_4 Si0_6 2.933497 1_545
Mg0_4 Si5_3 2.934030 1_544
Mg0_4 Si5_7 2.934030 1_544
Mg0_4 Si4_2 2.934030 1_545
Mg0_4 Si4_6 2.934030 1_545
Mg0_4 Si2_0 2.954012 1_555
Mg0_4 Si2_4 2.954012 1_555
Mg0_4 Si3_1 2.954012 1_554
Mg0_4 Si3_5 2.954012 1_554
Mg0_5 Si6_1 2.882509 1_555
Mg0_5 Si6_5 2.882509 1_555
Mg0_5 Si0_3 2.933497 1_545
Mg0_5 Si0_7 2.933497 1_545
Mg0_5 Si5_2 2.934030 1_545
Mg0_5 Si5_6 2.934030 1_545
Mg0_5 Si4_3 2.934030 1_545
Mg0_5 Si4_7 2.934030 1_545
Mg0_5 Si2_1 2.954012 1_555
Mg0_5 Si3_0 2.954012 1_555
Mg0_5 Si2_5 2.954012 1_555
Mg0_5 Si3_4 2.954012 1_555
Mg0_6 Si6_2 2.882509 1_555
Mg0_6 Si6_6 2.882509 1_555
Mg0_6 Si0_0 2.933497 1_555
Mg0_6 Si0_4 2.933497 1_555
Mg0_6 Si5_1 2.934030 1_554
Mg0_6 Si5_5 2.934030 1_554
Mg0_6 Si4_0 2.934030 1_555
Mg0_6 Si4_4 2.934030 1_555
Mg0_6 Si2_2 2.954012 1_555
Mg0_6 Si2_6 2.954012 1_555
Mg0_6 Si3_3 2.954012 1_554
Mg0_6 Si3_7 2.954012 1_554
Mg0_7 Si6_3 2.882509 1_555
Mg0_7 Si6_7 2.882509 1_555
Mg0_7 Si0_1 2.933497 1_555
Mg0_7 Si0_5 2.933497 1_555
Mg0_7 Si5_0 2.934030 1_555
Mg0_7 Si5_4 2.934030 1_555
Mg0_7 Si4_1 2.934030 1_555
Mg0_7 Si4_5 2.934030 1_555
Mg0_7 Si3_6 2.954012 1_555
Mg0_7 Si3_2 2.954012 1_555
Mg0_7 Si2_3 2.954012 1_555
Mg0_7 Si2_7 2.954012 1_555
Mg1_0 Mg1_4 2.780378 1_455
Mg1_0 Mg1_4 2.780378 1_555
Mg1_0 Si7_2 2.832762 1_555
Mg1_0 Si7_6 2.832762 1_455
Mg1_0 Si4_4 2.894103 1_455
Mg1_0 Si5_4 2.894103 1_455
Mg1_0 Si4_0 2.894103 1_555
Mg1_0 Si5_0 2.894103 1_555
Mg1_0 Si1_4 2.980639 1_455
Mg1_0 Si1_0 2.980639 1_555
Mg1_0 Mg2_0 3.000063 1_555
Mg1_0 Mg3_0 3.000063 1_555
Mg1_1 Mg1_5 2.780378 1_555
Mg1_1 Mg1_5 2.780378 1_455
Mg1_1 Si7_7 2.832762 1_455
Mg1_1 Si7_3 2.832762 1_555
Mg1_1 Si4_1 2.894103 1_555
Mg1_1 Si4_5 2.894103 1_455
Mg1_1 Si5_5 2.894103 1_455
Mg1_1 Si5_1 2.894103 1_555
Mg1_1 Si1_5 2.980639 1_455
Mg1_1 Si1_1 2.980639 1_555
Mg1_1 Mg2_1 3.000063 1_555
Mg1_1 Mg3_1 3.000063 1_555
Mg1_2 Mg1_6 2.780378 1_455
Mg1_2 Mg1_6 2.780378 1_555
Mg1_2 Si7_4 2.832762 1_465
Mg1_2 Si7_0 2.832762 1_565
Mg1_2 Si5_6 2.894103 1_455
Mg1_2 Si4_6 2.894103 1_455
Mg1_2 Si5_2 2.894103 1_555
Mg1_2 Si4_2 2.894103 1_555
Mg1_2 Si1_6 2.980639 1_455
Mg1_2 Si1_2 2.980639 1_555
Mg1_2 Mg3_2 3.000063 1_555
Mg1_2 Mg2_2 3.000063 1_555
Mg1_3 Mg1_7 2.780378 1_455
Mg1_3 Mg1_7 2.780378 1_555
Mg1_3 Si7_5 2.832762 1_465
Mg1_3 Si7_1 2.832762 1_565
Mg1_3 Si4_7 2.894103 1_455
Mg1_3 Si4_3 2.894103 1_555
Mg1_3 Si5_7 2.894103 1_455
Mg1_3 Si5_3 2.894103 1_555
Mg1_3 Si1_7 2.980639 1_455
Mg1_3 Si1_3 2.980639 1_555
Mg1_3 Mg2_3 3.000063 1_555
Mg1_3 Mg3_3 3.000063 1_555
Mg1_4 Si7_2 2.832762 1_555
Mg1_4 Si7_6 2.832762 1_555
Mg1_4 Si4_0 2.894103 1_555
Mg1_4 Si5_0 2.894103 1_555
Mg1_4 Si4_4 2.894103 1_555
Mg1_4 Si5_4 2.894103 1_555
Mg1_4 Si1_0 2.980639 1_555
Mg1_4 Si1_4 2.980639 1_555
Mg1_4 Mg2_4 3.000063 1_555
Mg1_4 Mg3_4 3.000063 1_555
Mg1_5 Si7_3 2.832762 1_555
Mg1_5 Si7_7 2.832762 1_555
Mg1_5 Si4_1 2.894103 1_555
Mg1_5 Si4_5 2.894103 1_555
Mg1_5 Si5_1 2.894103 1_555
Mg1_5 Si5_5 2.894103 1_555
Mg1_5 Si1_1 2.980639 1_555
Mg1_5 Si1_5 2.980639 1_555
Mg1_5 Mg2_5 3.000063 1_555
Mg1_5 Mg3_5 3.000063 1_555
Mg1_6 Si7_0 2.832762 1_565
Mg1_6 Si7_4 2.832762 1_565
Mg1_6 Si5_2 2.894103 1_555
Mg1_6 Si4_2 2.894103 1_555
Mg1_6 Si5_6 2.894103 1_555
Mg1_6 Si4_6 2.894103 1_555
Mg1_6 Si1_2 2.980639 1_555
Mg1_6 Si1_6 2.980639 1_555
Mg1_6 Mg2_6 3.000063 1_555
Mg1_6 Mg3_6 3.000063 1_555
Mg1_7 Si7_1 2.832762 1_565
Mg1_7 Si7_5 2.832762 1_565
Mg1_7 Si4_3 2.894103 1_555
Mg1_7 Si4_7 2.894103 1_555
Mg1_7 Si5_3 2.894103 1_555
Mg1_7 Si5_7 2.894103 1_555
Mg1_7 Si1_3 2.980639 1_555
Mg1_7 Si1_7 2.980639 1_555
Mg1_7 Mg2_7 3.000063 1_555
Mg1_7 Mg3_7 3.000063 1_555
Mg2_0 Mg2_4 2.780378 1_455
Mg2_0 Mg2_4 2.780378 1_555
Mg2_0 Si6_4 2.848769 1_455
Mg2_0 Si6_0 2.848769 1_555
Mg2_0 Si2_4 2.882627 1_455
Mg2_0 Si2_0 2.882627 1_555
Mg2_0 Si0_4 2.920400 1_455
Mg2_0 Si0_0 2.920400 1_555
Mg2_0 Si1_4 2.932244 1_455
Mg2_0 Si1_0 2.932244 1_555
Mg2_0 Si4_4 2.961611 1_455
Mg2_0 Si4_0 2.961611 1_555
Mg2_1 Mg2_5 2.780378 1_455
Mg2_1 Mg2_5 2.780378 1_555
Mg2_1 Si6_5 2.848769 1_455
Mg2_1 Si6_1 2.848769 1_555
Mg2_1 Si2_1 2.882627 1_555
Mg2_1 Si2_5 2.882627 1_455
Mg2_1 Si0_1 2.920400 1_555
Mg2_1 Si0_5 2.920400 1_455
Mg2_1 Si1_5 2.932244 1_455
Mg2_1 Si1_1 2.932244 1_555
Mg2_1 Si4_5 2.961611 1_455
Mg2_1 Si4_1 2.961611 1_555
Mg2_2 Mg2_6 2.780378 1_455
Mg2_2 Mg2_6 2.780378 1_555
Mg2_2 Si6_6 2.848769 1_455
Mg2_2 Si6_2 2.848769 1_555
Mg2_2 Si2_6 2.882627 1_455
Mg2_2 Si2_2 2.882627 1_555
Mg2_2 Si0_6 2.920400 1_455
Mg2_2 Si0_2 2.920400 1_555
Mg2_2 Si1_6 2.932244 1_455
Mg2_2 Si1_2 2.932244 1_555
Mg2_2 Si4_6 2.961611 1_455
Mg2_2 Si4_2 2.961611 1_555
Mg2_3 Mg2_7 2.780378 1_555
Mg2_3 Mg2_7 2.780378 1_455
Mg2_3 Si6_7 2.848769 1_455
Mg2_3 Si6_3 2.848769 1_555
Mg2_3 Si2_7 2.882627 1_455
Mg2_3 Si2_3 2.882627 1_555
Mg2_3 Si0_7 2.920400 1_455
Mg2_3 Si0_3 2.920400 1_555
Mg2_3 Si1_7 2.932244 1_455
Mg2_3 Si1_3 2.932244 1_555
Mg2_3 Si4_3 2.961611 1_555
Mg2_3 Si4_7 2.961611 1_455
Mg2_4 Si6_0 2.848769 1_555
Mg2_4 Si6_4 2.848769 1_555
Mg2_4 Si2_4 2.882627 1_555
Mg2_4 Si2_0 2.882627 1_555
Mg2_4 Si0_0 2.920400 1_555
Mg2_4 Si0_4 2.920400 1_555
Mg2_4 Si1_0 2.932244 1_555
Mg2_4 Si1_4 2.932244 1_555
Mg2_4 Si4_0 2.961611 1_555
Mg2_4 Si4_4 2.961611 1_555
Mg2_5 Si6_1 2.848769 1_555
Mg2_5 Si6_5 2.848769 1_555
Mg2_5 Si2_1 2.882627 1_555
Mg2_5 Si2_5 2.882627 1_555
Mg2_5 Si0_1 2.920400 1_555
Mg2_5 Si0_5 2.920400 1_555
Mg2_5 Si1_1 2.932244 1_555
Mg2_5 Si1_5 2.932244 1_555
Mg2_5 Si4_5 2.961611 1_555
Mg2_5 Si4_1 2.961611 1_555
Mg2_6 Si6_2 2.848769 1_555
Mg2_6 Si6_6 2.848769 1_555
Mg2_6 Si2_2 2.882627 1_555
Mg2_6 Si2_6 2.882627 1_555
Mg2_6 Si0_2 2.920400 1_555
Mg2_6 Si0_6 2.920400 1_555
Mg2_6 Si1_2 2.932244 1_555
Mg2_6 Si1_6 2.932244 1_555
Mg2_6 Si4_2 2.961611 1_555
Mg2_6 Si4_6 2.961611 1_555
Mg2_7 Si6_3 2.848769 1_555
Mg2_7 Si6_7 2.848769 1_555
Mg2_7 Si2_3 2.882627 1_555
Mg2_7 Si2_7 2.882627 1_555
Mg2_7 Si0_7 2.920400 1_555
Mg2_7 Si0_3 2.920400 1_555
Mg2_7 Si1_7 2.932244 1_555
Mg2_7 Si1_3 2.932244 1_555
Mg2_7 Si4_3 2.961611 1_555
Mg2_7 Si4_7 2.961611 1_555
Mg3_0 Mg3_4 2.780378 1_555
Mg3_0 Mg3_4 2.780378 1_455
Mg3_0 Si6_5 2.848769 1_455
Mg3_0 Si6_1 2.848769 1_555
Mg3_0 Si3_4 2.882627 1_455
Mg3_0 Si3_0 2.882627 1_555
Mg3_0 Si0_5 2.920400 1_455
Mg3_0 Si0_1 2.920400 1_555
Mg3_0 Si1_4 2.932244 1_455
Mg3_0 Si1_0 2.932244 1_555
Mg3_0 Si5_4 2.961611 1_455
Mg3_0 Si5_0 2.961611 1_555
Mg3_1 Mg3_5 2.780378 1_455
Mg3_1 Mg3_5 2.780378 1_555
Mg3_1 Si6_4 2.848769 1_456
Mg3_1 Si6_0 2.848769 1_556
Mg3_1 Si3_5 2.882627 1_455
Mg3_1 Si3_1 2.882627 1_555
Mg3_1 Si0_4 2.920400 1_456
Mg3_1 Si0_0 2.920400 1_556
Mg3_1 Si1_5 2.932244 1_455
Mg3_1 Si1_1 2.932244 1_555
Mg3_1 Si5_5 2.961611 1_455
Mg3_1 Si5_1 2.961611 1_555
Mg3_2 Mg3_6 2.780378 1_455
Mg3_2 Mg3_6 2.780378 1_555
Mg3_2 Si6_7 2.848769 1_455
Mg3_2 Si6_3 2.848769 1_555
Mg3_2 Si3_6 2.882627 1_455
Mg3_2 Si3_2 2.882627 1_555
Mg3_2 Si0_7 2.920400 1_455
Mg3_2 Si0_3 2.920400 1_555
Mg3_2 Si1_6 2.932244 1_455
Mg3_2 Si1_2 2.932244 1_555
Mg3_2 Si5_2 2.961611 1_555
Mg3_2 Si5_6 2.961611 1_455
Mg3_3 Mg3_7 2.780378 1_555
Mg3_3 Mg3_7 2.780378 1_455
Mg3_3 Si6_6 2.848769 1_456
Mg3_3 Si6_2 2.848769 1_556
Mg3_3 Si3_7 2.882627 1_455
Mg3_3 Si3_3 2.882627 1_555
Mg3_3 Si0_6 2.920400 1_456
Mg3_3 Si0_2 2.920400 1_556
Mg3_3 Si1_7 2.932244 1_455
Mg3_3 Si1_3 2.932244 1_555
Mg3_3 Si5_7 2.961611 1_455
Mg3_3 Si5_3 2.961611 1_555
Mg3_4 Si6_1 2.848769 1_555
Mg3_4 Si6_5 2.848769 1_555
Mg3_4 Si3_4 2.882627 1_555
Mg3_4 Si3_0 2.882627 1_555
Mg3_4 Si0_1 2.920400 1_555
Mg3_4 Si0_5 2.920400 1_555
Mg3_4 Si1_0 2.932244 1_555
Mg3_4 Si1_4 2.932244 1_555
Mg3_4 Si5_4 2.961611 1_555
Mg3_4 Si5_0 2.961611 1_555
Mg3_5 Si6_4 2.848769 1_556
Mg3_5 Si6_0 2.848769 1_556
Mg3_5 Si3_1 2.882627 1_555
Mg3_5 Si3_5 2.882627 1_555
Mg3_5 Si0_0 2.920400 1_556
Mg3_5 Si0_4 2.920400 1_556
Mg3_5 Si1_1 2.932244 1_555
Mg3_5 Si1_5 2.932244 1_555
Mg3_5 Si5_1 2.961611 1_555
Mg3_5 Si5_5 2.961611 1_555
Mg3_6 Si6_3 2.848769 1_555
Mg3_6 Si6_7 2.848769 1_555
Mg3_6 Si3_2 2.882627 1_555
Mg3_6 Si3_6 2.882627 1_555
Mg3_6 Si0_3 2.920400 1_555
Mg3_6 Si0_7 2.920400 1_555
Mg3_6 Si1_2 2.932244 1_555
Mg3_6 Si1_6 2.932244 1_555
Mg3_6 Si5_2 2.961611 1_555
Mg3_6 Si5_6 2.961611 1_555
Mg3_7 Si6_2 2.848769 1_556
Mg3_7 Si6_6 2.848769 1_556
Mg3_7 Si3_3 2.882627 1_555
Mg3_7 Si3_7 2.882627 1_555
Mg3_7 Si0_2 2.920400 1_556
Mg3_7 Si0_6 2.920400 1_556
Mg3_7 Si1_3 2.932244 1_555
Mg3_7 Si1_7 2.932244 1_555
Mg3_7 Si5_3 2.961611 1_555
Mg3_7 Si5_7 2.961611 1_555
Si0_0 Si5_1 2.514415 1_554
Si0_0 Si4_0 2.514415 1_555
Si0_0 Si6_0 2.625896 1_555
Si0_0 Si0_4 2.780378 1_455
Si0_0 Si0_4 2.780378 1_555
Si0_1 Si5_0 2.514415 1_555
Si0_1 Si4_1 2.514415 1_555
Si0_1 Si6_1 2.625896 1_555
Si0_1 Si0_5 2.780378 1_455
Si0_1 Si0_5 2.780378 1_555
Si0_2 Si5_3 2.514415 1_554
Si0_2 Si4_2 2.514415 1_555
Si0_2 Si6_2 2.625896 1_555
Si0_2 Si0_6 2.780378 1_455
Si0_2 Si0_6 2.780378 1_555
Si0_3 Si5_2 2.514415 1_555
Si0_3 Si4_3 2.514415 1_555
Si0_3 Si6_3 2.625896 1_555
Si0_3 Si0_7 2.780378 1_455
Si0_3 Si0_7 2.780378 1_555
Si0_4 Si5_5 2.514415 1_554
Si0_4 Si4_4 2.514415 1_555
Si0_4 Si6_4 2.625896 1_555
Si0_5 Si5_4 2.514415 1_555
Si0_5 Si4_5 2.514415 1_555
Si0_5 Si6_5 2.625896 1_555
Si0_6 Si5_7 2.514415 1_554
Si0_6 Si4_6 2.514415 1_555
Si0_6 Si6_6 2.625896 1_555
Si0_7 Si5_6 2.514415 1_555
Si0_7 Si4_7 2.514415 1_555
Si0_7 Si6_7 2.625896 1_555
Si1_0 Si7_0 2.629423 1_555
Si1_0 Si1_4 2.780378 1_455
Si1_0 Si1_4 2.780378 1_555
Si1_0 Si2_0 2.823141 1_555
Si1_0 Si3_0 2.823141 1_555
Si1_1 Si7_1 2.629423 1_555
Si1_1 Si1_5 2.780378 1_455
Si1_1 Si1_5 2.780378 1_555
Si1_1 Si2_1 2.823141 1_555
Si1_1 Si3_1 2.823141 1_555
Si1_2 Si7_2 2.629423 1_555
Si1_2 Si1_6 2.780378 1_455
Si1_2 Si1_6 2.780378 1_555
Si1_2 Si2_2 2.823141 1_555
Si1_2 Si3_2 2.823141 1_555
Si1_3 Si7_3 2.629423 1_555
Si1_3 Si1_7 2.780378 1_455
Si1_3 Si1_7 2.780378 1_555
Si1_3 Si2_3 2.823141 1_555
Si1_3 Si3_3 2.823141 1_555
Si1_4 Si7_4 2.629423 1_555
Si1_4 Si2_4 2.823141 1_555
Si1_4 Si3_4 2.823141 1_555
Si1_5 Si7_5 2.629423 1_555
Si1_5 Si2_5 2.823141 1_555
Si1_5 Si3_5 2.823141 1_555
Si1_6 Si7_6 2.629423 1_555
Si1_6 Si2_6 2.823141 1_555
Si1_6 Si3_6 2.823141 1_555
Si1_7 Si7_7 2.629423 1_555
Si1_7 Si2_7 2.823141 1_555
Si1_7 Si3_7 2.823141 1_555
Si2_0 Si7_0 2.495438 1_555
Si2_0 Si4_2 2.599591 1_545
Si2_0 Si6_0 2.630373 1_555
Si2_0 Si2_4 2.780378 1_455
Si2_0 Si2_4 2.780378 1_555
Si2_1 Si7_1 2.495438 1_555
Si2_1 Si4_3 2.599591 1_545
Si2_1 Si6_1 2.630373 1_555
Si2_1 Si2_5 2.780378 1_455
Si2_1 Si2_5 2.780378 1_555
Si2_2 Si7_2 2.495438 1_555
Si2_2 Si4_0 2.599591 1_555
Si2_2 Si6_2 2.630373 1_555
Si2_2 Si2_6 2.780378 1_455
Si2_2 Si2_6 2.780378 1_555
Si2_3 Si7_3 2.495438 1_555
Si2_3 Si4_1 2.599591 1_555
Si2_3 Si6_3 2.630373 1_555
Si2_3 Si2_7 2.780378 1_455
Si2_3 Si2_7 2.780378 1_555
Si2_4 Si7_4 2.495438 1_555
Si2_4 Si4_6 2.599591 1_545
Si2_4 Si6_4 2.630373 1_555
Si2_5 Si7_5 2.495438 1_555
Si2_5 Si4_7 2.599591 1_545
Si2_5 Si6_5 2.630373 1_555
Si2_6 Si7_6 2.495438 1_555
Si2_6 Si4_4 2.599591 1_555
Si2_6 Si6_6 2.630373 1_555
Si2_7 Si7_7 2.495438 1_555
Si2_7 Si4_5 2.599591 1_555
Si2_7 Si6_7 2.630373 1_555
Si3_0 Si7_0 2.495438 1_555
Si3_0 Si5_2 2.599591 1_545
Si3_0 Si6_1 2.630373 1_555
Si3_0 Si3_4 2.780378 1_455
Si3_0 Si3_4 2.780378 1_555
Si3_1 Si7_1 2.495438 1_555
Si3_1 Si5_3 2.599591 1_545
Si3_1 Si6_0 2.630373 1_556
Si3_1 Si3_5 2.780378 1_455
Si3_1 Si3_5 2.780378 1_555
Si3_2 Si7_2 2.495438 1_555
Si3_2 Si5_0 2.599591 1_555
Si3_2 Si6_3 2.630373 1_555
Si3_2 Si3_6 2.780378 1_455
Si3_2 Si3_6 2.780378 1_555
Si3_3 Si7_3 2.495438 1_555
Si3_3 Si5_1 2.599591 1_555
Si3_3 Si6_2 2.630373 1_556
Si3_3 Si3_7 2.780378 1_455
Si3_3 Si3_7 2.780378 1_555
Si3_4 Si7_4 2.495438 1_555
Si3_4 Si5_6 2.599591 1_545
Si3_4 Si6_5 2.630373 1_555
Si3_5 Si7_5 2.495438 1_555
Si3_5 Si5_7 2.599591 1_545
Si3_5 Si6_4 2.630373 1_556
Si3_6 Si7_6 2.495438 1_555
Si3_6 Si5_4 2.599591 1_555
Si3_6 Si6_7 2.630373 1_555
Si3_7 Si7_7 2.495438 1_555
Si3_7 Si5_5 2.599591 1_555
Si3_7 Si6_6 2.630373 1_556
Si4_0 Si4_4 2.780378 1_455
Si4_0 Si4_4 2.780378 1_555
Si4_0 Si7_2 2.884619 1_555
Si4_1 Si4_5 2.780378 1_455
Si4_1 Si4_5 2.780378 1_555
Si4_1 Si7_3 2.884619 1_555
Si4_2 Si4_6 2.780378 1_455
Si4_2 Si4_6 2.780378 1_555
Si4_2 Si7_0 2.884619 1_565
Si4_3 Si4_7 2.780378 1_455
Si4_3 Si4_7 2.780378 1_555
Si4_3 Si7_1 2.884619 1_565
Si4_4 Si7_6 2.884619 1_555
Si4_5 Si7_7 2.884619 1_555
Si4_6 Si7_4 2.884619 1_565
Si4_7 Si7_5 2.884619 1_565
Si5_0 Si5_4 2.780378 1_455
Si5_0 Si5_4 2.780378 1_555
Si5_0 Si7_2 2.884619 1_555
Si5_1 Si5_5 2.780378 1_455
Si5_1 Si5_5 2.780378 1_555
Si5_1 Si7_3 2.884619 1_555
Si5_2 Si5_6 2.780378 1_455
Si5_2 Si5_6 2.780378 1_555
Si5_2 Si7_0 2.884619 1_565
Si5_3 Si5_7 2.780378 1_455
Si5_3 Si5_7 2.780378 1_555
Si5_3 Si7_1 2.884619 1_565
Si5_4 Si7_6 2.884619 1_555
Si5_5 Si7_7 2.884619 1_555
Si5_6 Si7_4 2.884619 1_565
Si5_7 Si7_5 2.884619 1_565
Si6_0 Si6_4 2.780378 1_455
Si6_0 Si6_4 2.780378 1_555
Si6_1 Si6_5 2.780378 1_455
Si6_1 Si6_5 2.780378 1_555
Si6_2 Si6_6 2.780378 1_455
Si6_2 Si6_6 2.780378 1_555
Si6_3 Si6_7 2.780378 1_455
Si6_3 Si6_7 2.780378 1_555
Si7_0 Si7_4 2.780378 1_455
Si7_0 Si7_4 2.780378 1_555
Si7_1 Si7_5 2.780378 1_455
Si7_1 Si7_5 2.780378 1_555
Si7_2 Si7_6 2.780378 1_455
Si7_2 Si7_6 2.780378 1_555
Si7_3 Si7_7 2.780378 1_455
Si7_3 Si7_7 2.780378 1_555
