# generated using pymatgen
data_Li2TlIn
_symmetry_space_group_name_H-M   'P 1'
_cell_length_a   11.75481111
_cell_length_b   11.75481111
_cell_length_c   11.75481111
_cell_angle_alpha   120.71635870
_cell_angle_beta   119.32380480
_cell_angle_gamma   89.96945411
_symmetry_Int_Tables_number   1
_chemical_formula_structural   Li2TlIn
_chemical_formula_sum   'Li2 Tl1 In1'
_cell_volume   1147.94167380
_cell_formula_units_Z   1
loop_
 _symmetry_equiv_pos_site_id
 _symmetry_equiv_pos_as_xyz
  1  'x, y, z'
loop_
 _atom_site_type_symbol
 _atom_site_label
 _atom_site_symmetry_multiplicity
 _atom_site_fract_x
 _atom_site_fract_y
 _atom_site_fract_z
 _atom_site_occupancy
  Li  Li0  1  0.00000000  0.24955600  0.24955600  1
  Li  Li1  1  0.00000000  0.75044400  0.75044400  1
  Tl  Tl0  1  0.00000000  0.50000000  0.50000000  1
  In  In0  1  0.00000000  0.00000000  0.00000000  1
loop_
_geom_bond_atom_site_label_1
_geom_bond_atom_site_label_2
_geom_bond_distance
_geom_bond_site_symmetry_2
Li0 Tl0 2.911989 1_555
Li1 Tl0 2.911989 1_555
In0 Li1 2.901663 1_544
In0 Li0 2.901663 1_555
