# generated using pymatgen
data_ZrPOs
_symmetry_space_group_name_H-M   'P 1'
_cell_length_a   3.91633717
_cell_length_b   6.45844502
_cell_length_c   7.29936143
_cell_angle_alpha   90.00000000
_cell_angle_beta   90.00000000
_cell_angle_gamma   90.00000000
_symmetry_Int_Tables_number   1
_chemical_formula_structural   ZrPOs
_chemical_formula_sum   'Zr4 P4 Os4'
_cell_volume   184.62602090
_cell_formula_units_Z   4
loop_
 _symmetry_equiv_pos_site_id
 _symmetry_equiv_pos_as_xyz
  1  'x, y, z'
loop_
 _atom_site_type_symbol
 _atom_site_label
 _atom_site_symmetry_multiplicity
 _atom_site_fract_x
 _atom_site_fract_y
 _atom_site_fract_z
 _atom_site_occupancy
  Zr  Zr0  1  0.75000000  0.48019977  0.67877629  1
  Zr  Zr1  1  0.75000000  0.98019977  0.82122371  1
  Zr  Zr2  1  0.25000000  0.51980023  0.32122371  1
  Zr  Zr3  1  0.25000000  0.01980023  0.17877629  1
  P  P0  1  0.75000000  0.72188008  0.12251901  1
  P  P1  1  0.75000000  0.22188008  0.37748099  1
  P  P2  1  0.25000000  0.27811992  0.87748099  1
  P  P3  1  0.25000000  0.77811992  0.62251901  1
  Os  Os0  1  0.75000000  0.34696270  0.06100625  1
  Os  Os1  1  0.75000000  0.84696270  0.43899375  1
  Os  Os2  1  0.25000000  0.65303730  0.93899375  1
  Os  Os3  1  0.25000000  0.15303730  0.56100625  1
loop_
_geom_bond_atom_site_label_1
_geom_bond_atom_site_label_2
_geom_bond_distance
_geom_bond_site_symmetry_2
P0 Zr1 2.760458 1_554
P0 Zr2 2.764322 1_555
P0 Zr2 2.764322 1_655
P0 Zr3 2.775827 1_665
P0 Zr3 2.775827 1_565
P1 Zr0 2.760458 1_555
P1 Zr3 2.764322 1_555
P1 Zr3 2.764322 1_655
P1 Zr2 2.775827 1_655
P1 Zr2 2.775827 1_555
P2 Zr3 2.760458 1_556
P2 Zr0 2.764322 1_555
P2 Zr0 2.764322 1_455
P2 Zr1 2.775827 1_445
P2 Zr1 2.775827 1_545
P3 Zr2 2.760458 1_555
P3 Zr1 2.764322 1_555
P3 Zr1 2.764322 1_455
P3 Zr0 2.775827 1_555
P3 Zr0 2.775827 1_455
Os0 P2 2.413852 1_554
Os0 P2 2.413852 1_654
Os0 P1 2.447243 1_555
Os0 P0 2.462661 1_555
Os0 Zr0 2.919719 1_554
Os0 Zr1 2.945205 1_544
Os0 Zr2 2.947586 1_555
Os0 Zr2 2.947586 1_655
Os0 Zr3 3.006330 1_555
Os0 Zr3 3.006330 1_655
Os1 P3 2.413852 1_555
Os1 P3 2.413852 1_655
Os1 P0 2.447243 1_555
Os1 P1 2.462661 1_565
Os1 Zr1 2.919719 1_555
Os1 Zr0 2.945205 1_555
Os1 Zr3 2.947586 1_665
Os1 Zr3 2.947586 1_565
Os1 Zr2 3.006330 1_555
Os1 Zr2 3.006330 1_655
Os2 P0 2.413852 1_556
Os2 P0 2.413852 1_456
Os2 P3 2.447243 1_555
Os2 P2 2.462661 1_555
Os2 Zr2 2.919719 1_556
Os2 Zr3 2.945205 1_566
Os2 Zr0 2.947586 1_455
Os2 Zr0 2.947586 1_555
Os2 Zr1 3.006330 1_555
Os2 Zr1 3.006330 1_455
Os3 P1 2.413852 1_555
Os3 P1 2.413852 1_455
Os3 P2 2.447243 1_555
Os3 P3 2.462661 1_545
Os3 Zr3 2.919719 1_555
Os3 Zr2 2.945205 1_555
Os3 Zr1 2.947586 1_445
Os3 Zr1 2.947586 1_545
Os3 Zr0 3.006330 1_555
Os3 Zr0 3.006330 1_455
