# generated using pymatgen
data_SbXeF7
_symmetry_space_group_name_H-M   'P 1'
_cell_length_a   11.10087452
_cell_length_b   5.27713518
_cell_length_c   10.86567634
_cell_angle_alpha   84.89447147
_cell_angle_beta   90.00000000
_cell_angle_gamma   90.00000000
_symmetry_Int_Tables_number   1
_chemical_formula_structural   SbXeF7
_chemical_formula_sum   'Sb4 Xe4 F28'
_cell_volume   633.99477576
_cell_formula_units_Z   4
loop_
 _symmetry_equiv_pos_site_id
 _symmetry_equiv_pos_as_xyz
  1  'x, y, z'
loop_
 _atom_site_type_symbol
 _atom_site_label
 _atom_site_symmetry_multiplicity
 _atom_site_fract_x
 _atom_site_fract_y
 _atom_site_fract_z
 _atom_site_occupancy
  Sb  Sb0  1  0.49083052  0.90262491  0.76913115  1
  Sb  Sb1  1  0.99083052  0.09737509  0.73086885  1
  Sb  Sb2  1  0.50916948  0.09737509  0.23086885  1
  Sb  Sb3  1  0.00916948  0.90262491  0.26913115  1
  Xe  Xe0  1  0.73353658  0.53233513  0.97621659  1
  Xe  Xe1  1  0.23353658  0.46766487  0.52378341  1
  Xe  Xe2  1  0.26646342  0.46766487  0.02378341  1
  Xe  Xe3  1  0.76646342  0.53233513  0.47621659  1
  F  F0  1  0.88665191  0.36667033  0.02560366  1
  F  F1  1  0.38665191  0.63332967  0.47439634  1
  F  F2  1  0.11334809  0.63332967  0.97439634  1
  F  F3  1  0.61334809  0.36667033  0.52560366  1
  F  F4  1  0.42706351  0.07843050  0.62635890  1
  F  F5  1  0.92706351  0.92156950  0.87364110  1
  F  F6  1  0.57293649  0.92156950  0.37364110  1
  F  F7  1  0.07293649  0.07843050  0.12635890  1
  F  F8  1  0.36768732  0.00894930  0.87251827  1
  F  F9  1  0.86768732  0.99105070  0.62748173  1
  F  F10  1  0.63231268  0.99105070  0.12748173  1
  F  F11  1  0.13231268  0.00894930  0.37251827  1
  F  F12  1  0.55233096  0.70906548  0.92397831  1
  F  F13  1  0.05233096  0.29093452  0.57602169  1
  F  F14  1  0.44766904  0.29093452  0.07602169  1
  F  F15  1  0.94766904  0.70906548  0.42397831  1
  F  F16  1  0.62367642  0.76672640  0.68993195  1
  F  F17  1  0.12367642  0.23327360  0.81006805  1
  F  F18  1  0.37632358  0.23327360  0.31006805  1
  F  F19  1  0.87632358  0.76672640  0.18993195  1
  F  F20  1  0.39941025  0.60849433  0.74715832  1
  F  F21  1  0.89941025  0.39150567  0.75284168  1
  F  F22  1  0.60058975  0.39150567  0.25284168  1
  F  F23  1  0.10058975  0.60849433  0.24715832  1
  F  F24  1  0.58847555  0.17365744  0.81092384  1
  F  F25  1  0.08847555  0.82634256  0.68907616  1
  F  F26  1  0.41152445  0.82634256  0.18907616  1
  F  F27  1  0.91152445  0.17365744  0.31092384  1
loop_
_geom_bond_atom_site_label_1
_geom_bond_atom_site_label_2
_geom_bond_distance
_geom_bond_site_symmetry_2
F0 Xe0 1.964124 1_554
F1 Xe1 1.964124 1_555
F2 Xe2 1.964124 1_556
F3 Xe3 1.964124 1_555
F4 Sb0 1.874094 1_545
F5 Sb1 1.874094 1_565
F6 Sb2 1.874094 1_565
F7 Sb3 1.874094 1_545
F8 Sb0 1.886173 1_545
F9 Sb1 1.886173 1_565
F10 Sb2 1.886173 1_565
F11 Sb3 1.886173 1_545
F12 Sb0 2.008587 1_555
F12 Xe0 2.268050 1_555
F13 Sb1 2.008587 1_455
F13 Xe1 2.268050 1_555
F14 Sb2 2.008587 1_555
F14 Xe2 2.268050 1_555
F15 Sb3 2.008587 1_655
F15 Xe3 2.268050 1_555
F16 Sb0 1.881345 1_555
F17 Sb1 1.881345 1_455
F18 Sb2 1.881345 1_555
F19 Sb3 1.881345 1_655
F20 Sb0 1.887350 1_555
F21 Sb1 1.887350 1_555
F22 Sb2 1.887350 1_555
F23 Sb3 1.887350 1_555
F24 Sb0 1.882136 1_545
F25 Sb1 1.882136 1_465
F26 Sb2 1.882136 1_565
F27 Sb3 1.882136 1_645
