# generated using pymatgen
data_CsAlFe3(SiO4)3
_symmetry_space_group_name_H-M   'P 1'
_cell_length_a   5.40154600
_cell_length_b   5.40281294
_cell_length_c   10.89781887
_cell_angle_alpha   94.61044540
_cell_angle_beta   95.09608897
_cell_angle_gamma   119.90797616
_symmetry_Int_Tables_number   1
_chemical_formula_structural   CsAlFe3(SiO4)3
_chemical_formula_sum   'Cs1 Al1 Fe3 Si3 O12'
_cell_volume   271.71571951
_cell_formula_units_Z   1
loop_
 _symmetry_equiv_pos_site_id
 _symmetry_equiv_pos_as_xyz
  1  'x, y, z'
loop_
 _atom_site_type_symbol
 _atom_site_label
 _atom_site_symmetry_multiplicity
 _atom_site_fract_x
 _atom_site_fract_y
 _atom_site_fract_z
 _atom_site_occupancy
  Cs  Cs0  1  0.50818200  0.50860000  0.02014400  1
  Al  Al0  1  0.91799700  0.25660800  0.23786500  1
  Fe  Fe0  1  0.00359100  0.00383300  0.49735200  1
  Fe  Fe1  1  0.65310500  0.34310000  0.49519300  1
  Fe  Fe2  1  0.34181300  0.64873600  0.49749200  1
  Si  Si0  1  0.25589500  0.91574600  0.23257000  1
  Si  Si1  1  0.07981100  0.74318900  0.76119800  1
  Si  Si2  1  0.74053200  0.07959300  0.76088000  1
  O  O0  1  0.96158800  0.32584400  0.40370400  1
  O  O1  1  0.32137300  0.95982800  0.39030700  1
  O  O2  1  0.04067600  0.68576100  0.60964500  1
  O  O3  1  0.67767900  0.03578600  0.60910900  1
  O  O4  1  0.06217100  0.05099000  0.18658600  1
  O  O5  1  0.93016800  0.93084400  0.81009500  1
  O  O6  1  0.63724000  0.63924700  0.40991600  1
  O  O7  1  0.37031500  0.36399900  0.59156200  1
  O  O8  1  0.08607100  0.57712200  0.17571800  1
  O  O9  1  0.55522300  0.07417600  0.17529800  1
  O  O10  1  0.92635200  0.42981100  0.81682800  1
  O  O11  1  0.43021800  0.92718800  0.81853600  1
loop_
_geom_bond_atom_site_label_1
_geom_bond_atom_site_label_2
_geom_bond_distance
_geom_bond_site_symmetry_2
Cs0 O9 3.096584 1_555
Cs0 O8 3.104468 1_555
Cs0 O4 3.204460 1_665
Cs0 O8 3.249883 1_655
Cs0 O9 3.252631 1_565
Cs0 O4 3.280889 1_555
Cs0 O11 3.421013 1_554
Cs0 O10 3.448024 1_554
Cs0 O5 3.495817 1_554
Cs0 O10 3.499258 1_454
Cs0 O11 3.504138 1_544
Cs0 O5 3.548874 1_444
Al0 O4 1.730069 1_655
Al0 O9 1.733427 1_555
Al0 O8 1.735406 1_655
Al0 O0 1.785925 1_555
Fe0 O6 2.044530 1_445
Fe0 O7 2.058680 1_555
Fe0 O0 2.181220 1_455
Fe0 O1 2.254310 1_545
Fe0 O2 2.264660 1_545
Fe0 O3 2.293986 1_455
Fe1 O6 1.947491 1_555
Fe1 O7 1.971518 1_555
Fe1 O0 2.052896 1_555
Fe1 O1 2.088240 1_545
Fe1 O2 2.160037 1_655
Fe1 O3 2.199420 1_555
Fe2 O6 1.950441 1_555
Fe2 O7 1.975587 1_555
Fe2 O0 2.018322 1_455
Fe2 O3 2.135338 1_565
Fe2 O1 2.163184 1_555
Fe2 O2 2.195006 1_555
O1 Si0 1.696736 1_555
O2 Si1 1.630618 1_555
O3 Si2 1.632203 1_555
O4 Si0 1.614995 1_545
O5 Si1 1.664970 1_655
O5 Si2 1.665952 1_565
O8 Si0 1.617316 1_555
O9 Si0 1.619085 1_545
O10 Si2 1.664746 1_555
O10 Si1 1.666145 1_655
O11 Si1 1.665786 1_555
O11 Si2 1.666222 1_565
