# generated using pymatgen
data_Fe2Ni9N8
_symmetry_space_group_name_H-M   'P 1'
_cell_length_a   10.02935992
_cell_length_b   3.39807997
_cell_length_c   7.25922683
_cell_angle_alpha   90.00000409
_cell_angle_beta   63.78868559
_cell_angle_gamma   80.24668260
_symmetry_Int_Tables_number   1
_chemical_formula_structural   Fe2Ni9N8
_chemical_formula_sum   'Fe2 Ni9 N8'
_cell_volume   217.96607126
_cell_formula_units_Z   1
loop_
 _symmetry_equiv_pos_site_id
 _symmetry_equiv_pos_as_xyz
  1  'x, y, z'
loop_
 _atom_site_type_symbol
 _atom_site_label
 _atom_site_symmetry_multiplicity
 _atom_site_fract_x
 _atom_site_fract_y
 _atom_site_fract_z
 _atom_site_occupancy
  Fe  Fe0  1  0.36956100  0.81522000  0.83145900  1
  Fe  Fe1  1  0.63043900  0.18478000  0.16854100  1
  Ni  Ni0  1  0.00000000  0.50000000  0.50000000  1
  Ni  Ni1  1  0.04948900  0.97525500  0.79476200  1
  Ni  Ni2  1  0.95051100  0.02474500  0.20523800  1
  Ni  Ni3  1  0.71603200  0.64198400  0.41865400  1
  Ni  Ni4  1  0.28396800  0.35801600  0.58134600  1
  Ni  Ni5  1  0.79813800  0.60093200  0.88656400  1
  Ni  Ni6  1  0.20186200  0.39906800  0.11343600  1
  Ni  Ni7  1  0.61394100  0.19302900  0.73388300  1
  Ni  Ni8  1  0.38605900  0.80697100  0.26611700  1
  N  N0  1  0.28633600  0.85683200  0.10433400  1
  N  N1  1  0.71366400  0.14316800  0.89566600  1
  N  N2  1  0.25874400  0.87062900  0.69577100  1
  N  N3  1  0.74125600  0.12937100  0.30422900  1
  N  N4  1  0.56516700  0.71741700  0.68694400  1
  N  N5  1  0.43483300  0.28258300  0.31305600  1
  N  N6  1  0.01008500  0.49495800  0.74012800  1
  N  N7  1  0.98991500  0.50504200  0.25987200  1
loop_
_geom_bond_atom_site_label_1
_geom_bond_atom_site_label_2
_geom_bond_distance
_geom_bond_site_symmetry_2
Fe0 N4 1.738027 1_555
Fe0 N2 1.771179 1_555
Fe0 N0 1.771994 1_556
Fe1 N5 1.738027 1_555
Fe1 N3 1.771179 1_555
Fe1 N1 1.771994 1_554
N0 Ni8 1.840781 1_555
N0 Ni6 1.881176 1_565
N0 Ni6 1.881182 1_555
N1 Ni7 1.840781 1_555
N1 Ni5 1.881176 1_545
N1 Ni5 1.881182 1_555
N2 Ni4 1.858284 1_565
N2 Ni4 1.858290 1_555
N2 Ni1 1.860719 1_555
N3 Ni3 1.858284 1_545
N3 Ni3 1.858290 1_555
N3 Ni2 1.860719 1_555
N4 Ni7 1.839155 1_565
N4 Ni7 1.839162 1_555
N4 Ni3 1.847601 1_555
N5 Ni8 1.839155 1_545
N5 Ni8 1.839162 1_555
N5 Ni4 1.847601 1_555
N6 Ni0 1.790038 1_555
N6 Ni1 1.825971 1_555
N6 Ni1 1.825977 1_545
N6 Ni5 1.876913 1_455
N6 Ni4 2.420841 1_555
N7 Ni0 1.790038 1_655
N7 Ni2 1.825971 1_555
N7 Ni2 1.825977 1_565
N7 Ni6 1.876913 1_655
N7 Ni3 2.420841 1_555
