# generated using pymatgen
data_NaCdP2NO10
_symmetry_space_group_name_H-M   'P 1'
_cell_length_a   9.84531245
_cell_length_b   9.84531245
_cell_length_c   6.00440593
_cell_angle_alpha   82.43737103
_cell_angle_beta   82.43737103
_cell_angle_gamma   121.06302756
_symmetry_Int_Tables_number   1
_chemical_formula_structural   NaCdP2NO10
_chemical_formula_sum   'Na2 Cd2 P4 N2 O20'
_cell_volume   480.37601411
_cell_formula_units_Z   2
loop_
 _symmetry_equiv_pos_site_id
 _symmetry_equiv_pos_as_xyz
  1  'x, y, z'
loop_
 _atom_site_type_symbol
 _atom_site_label
 _atom_site_symmetry_multiplicity
 _atom_site_fract_x
 _atom_site_fract_y
 _atom_site_fract_z
 _atom_site_occupancy
  Na  Na0  1  0.46775100  0.60441000  0.73078000  1
  Na  Na1  1  0.60441000  0.46775100  0.23078000  1
  Cd  Cd0  1  0.23850700  0.79177400  0.50106000  1
  Cd  Cd1  1  0.79177400  0.23850700  0.00106000  1
  P  P0  1  0.41433700  0.98158700  0.92892300  1
  P  P1  1  0.98158700  0.41433700  0.42892300  1
  P  P2  1  0.81545500  0.56551900  0.63573500  1
  P  P3  1  0.56551900  0.81545500  0.13573500  1
  N  N0  1  0.06146800  0.98815200  0.02603300  1
  N  N1  1  0.98815200  0.06146800  0.52603300  1
  O  O0  1  0.84090100  0.45570600  0.47086800  1
  O  O1  1  0.45570600  0.84090100  0.97086800  1
  O  O2  1  0.97666500  0.32572600  0.66701000  1
  O  O3  1  0.32572600  0.97666500  0.16701000  1
  O  O4  1  0.30450800  0.93679900  0.76181200  1
  O  O5  1  0.93679900  0.30450800  0.26181200  1
  O  O6  1  0.14733800  0.57462700  0.32915200  1
  O  O7  1  0.57462700  0.14733800  0.82915200  1
  O  O8  1  0.78379300  0.48305300  0.89024400  1
  O  O9  1  0.48305300  0.78379300  0.39024400  1
  O  O10  1  0.97512900  0.73298200  0.57883900  1
  O  O11  1  0.73298200  0.97512900  0.07883900  1
  O  O12  1  0.56848800  0.67316400  0.07207800  1
  O  O13  1  0.67316400  0.56848800  0.57207800  1
  O  O14  1  0.13183200  0.12711600  0.50959900  1
  O  O15  1  0.12711600  0.13183200  0.00959900  1
  O  O16  1  0.25567300  0.29314700  0.43409500  1
  O  O17  1  0.29314700  0.25567300  0.93409500  1
  O  O18  1  0.19072400  0.55206900  0.71627000  1
  O  O19  1  0.55206900  0.19072400  0.21627000  1
loop_
_geom_bond_atom_site_label_1
_geom_bond_atom_site_label_2
_geom_bond_distance
_geom_bond_site_symmetry_2
Na0 O13 2.332934 1_555
Na0 O12 2.418419 1_556
Na0 O9 2.452842 1_555
Na0 O18 2.517124 1_555
Na0 O17 2.913301 1_555
Na0 O1 2.938838 1_555
Na1 O12 2.332934 1_555
Na1 O13 2.418419 1_555
Na1 O8 2.452842 1_554
Na1 O19 2.517124 1_555
Na1 O16 2.913301 1_555
Na1 O0 2.938838 1_555
Cd0 O4 2.193389 1_555
Cd0 O3 2.246453 1_555
Cd0 O6 2.299153 1_555
Cd0 O10 2.310453 1_455
Cd0 O18 2.313471 1_555
Cd0 O9 2.456199 1_555
Cd1 O5 2.193389 1_555
Cd1 O2 2.246453 1_554
Cd1 O7 2.299153 1_554
Cd1 O11 2.310453 1_545
Cd1 O19 2.313471 1_555
Cd1 O8 2.456199 1_554
N0 O15 1.196440 1_565
N1 O14 1.196440 1_655
O0 P1 1.632531 1_555
O0 P2 1.645458 1_555
O1 P0 1.632531 1_555
O1 P3 1.645458 1_556
O2 P1 1.554661 1_555
O3 P0 1.554661 1_554
O4 P0 1.510124 1_555
O5 P1 1.510124 1_555
O6 P1 1.532500 1_455
O7 P0 1.532500 1_545
O8 P2 1.542247 1_555
O9 P3 1.542247 1_555
O10 P2 1.530357 1_555
O11 P3 1.530357 1_555
O12 P3 1.513184 1_555
O13 P2 1.513184 1_555
O14 O16 1.402438 1_555
O15 O17 1.402438 1_554
