# generated using pymatgen
data_Nd2MnRhO6
_symmetry_space_group_name_H-M   'P 1'
_cell_length_a   5.85898100
_cell_length_b   5.55976500
_cell_length_c   9.33088236
_cell_angle_alpha   54.94422689
_cell_angle_beta   90.00000000
_cell_angle_gamma   90.00000000
_symmetry_Int_Tables_number   1
_chemical_formula_structural   Nd2MnRhO6
_chemical_formula_sum   'Nd4 Mn2 Rh2 O12'
_cell_volume   248.81091994
_cell_formula_units_Z   2
loop_
 _symmetry_equiv_pos_site_id
 _symmetry_equiv_pos_as_xyz
  1  'x, y, z'
loop_
 _atom_site_type_symbol
 _atom_site_label
 _atom_site_symmetry_multiplicity
 _atom_site_fract_x
 _atom_site_fract_y
 _atom_site_fract_z
 _atom_site_occupancy
  Nd  Nd0  1  0.56800100  0.73004500  0.75040300  1
  Nd  Nd1  1  0.06800100  0.26995500  0.74959700  1
  Nd  Nd2  1  0.43199900  0.26995500  0.24959700  1
  Nd  Nd3  1  0.93199900  0.73004500  0.25040300  1
  Mn  Mn0  1  0.50000000  0.00000000  0.00000000  1
  Mn  Mn1  1  0.00000000  0.00000000  0.50000000  1
  Rh  Rh0  1  0.50000000  0.50000000  0.50000000  1
  Rh  Rh1  1  0.00000000  0.50000000  0.00000000  1
  O  O0  1  0.96670400  0.85917500  0.74385400  1
  O  O1  1  0.46670400  0.14082500  0.75614600  1
  O  O2  1  0.03329600  0.14082500  0.25614600  1
  O  O3  1  0.53329600  0.85917500  0.24385400  1
  O  O4  1  0.80037400  0.24759900  0.94760800  1
  O  O5  1  0.30037400  0.75240100  0.55239200  1
  O  O6  1  0.19979800  0.35678600  0.45031400  1
  O  O7  1  0.69979800  0.64321400  0.04968600  1
  O  O8  1  0.19962600  0.75240100  0.05239200  1
  O  O9  1  0.69962600  0.24759900  0.44760800  1
  O  O10  1  0.80020200  0.64321400  0.54968600  1
  O  O11  1  0.30020200  0.35678600  0.95031400  1
loop_
_geom_bond_atom_site_label_1
_geom_bond_atom_site_label_2
_geom_bond_distance
_geom_bond_site_symmetry_2
Nd0 O5 2.371502 1_555
Nd0 O1 2.389901 1_565
Nd0 O11 2.408553 1_555
Nd0 O0 2.434261 1_555
Nd0 O10 2.574913 1_555
Nd0 O4 2.600842 1_555
Nd0 O7 2.660665 1_556
Nd0 O9 2.741901 1_565
Nd1 O4 2.371502 1_455
Nd1 O0 2.389901 1_445
Nd1 O10 2.408553 1_455
Nd1 O1 2.434261 1_555
Nd1 O11 2.574913 1_555
Nd1 O5 2.600842 1_555
Nd1 O6 2.660665 1_555
Nd1 O8 2.741901 1_546
Nd2 O9 2.371502 1_555
Nd2 O3 2.389901 1_545
Nd2 O7 2.408553 1_555
Nd2 O2 2.434261 1_555
Nd2 O6 2.574913 1_555
Nd2 O8 2.600842 1_555
Nd2 O11 2.660665 1_554
Nd2 O5 2.741901 1_545
Nd3 O8 2.371502 1_655
Nd3 O2 2.389901 1_665
Nd3 O6 2.408553 1_655
Nd3 O3 2.434261 1_555
Nd3 O7 2.574913 1_555
Nd3 O9 2.600842 1_555
Nd3 O10 2.660665 1_555
Nd3 O4 2.741901 1_564
Mn0 O3 1.944708 1_545
Mn0 O1 1.944708 1_554
Mn0 O8 2.111427 1_545
Mn0 O4 2.111427 1_554
Mn0 O11 2.112743 1_554
Mn0 O7 2.112743 1_545
Mn1 O2 1.944708 1_555
Mn1 O0 1.944708 1_445
Mn1 O5 2.111427 1_545
Mn1 O9 2.111427 1_455
Mn1 O6 2.112743 1_555
Mn1 O10 2.112743 1_445
O0 Rh1 2.062879 1_656
O1 Rh0 2.062879 1_555
O2 Rh1 2.062879 1_555
O3 Rh0 2.062879 1_555
O4 Rh1 2.089078 1_656
O5 Rh0 2.089078 1_555
O6 Rh0 2.089650 1_555
O7 Rh1 2.089650 1_655
O8 Rh1 2.089078 1_555
O9 Rh0 2.089078 1_555
O10 Rh0 2.089650 1_555
O11 Rh1 2.089650 1_556
