# generated using pymatgen
data_Ho3Pd2
_symmetry_space_group_name_H-M   'P 1'
_cell_length_a   3.97016573
_cell_length_b   7.67277964
_cell_length_c   7.67277964
_cell_angle_alpha   90.00000000
_cell_angle_beta   90.00000000
_cell_angle_gamma   90.00000000
_symmetry_Int_Tables_number   1
_chemical_formula_structural   Ho3Pd2
_chemical_formula_sum   'Ho6 Pd4'
_cell_volume   233.72979998
_cell_formula_units_Z   2
loop_
 _symmetry_equiv_pos_site_id
 _symmetry_equiv_pos_as_xyz
  1  'x, y, z'
loop_
 _atom_site_type_symbol
 _atom_site_label
 _atom_site_symmetry_multiplicity
 _atom_site_fract_x
 _atom_site_fract_y
 _atom_site_fract_z
 _atom_site_occupancy
  Ho  Ho0  1  0.50000000  0.66418133  0.83581867  1
  Ho  Ho1  1  0.50000000  0.83581867  0.33581867  1
  Ho  Ho2  1  0.50000000  0.33581867  0.16418133  1
  Ho  Ho3  1  0.50000000  0.16418133  0.66418133  1
  Ho  Ho4  1  0.00000000  0.50000000  0.50000000  1
  Ho  Ho5  1  -0.00000000  0.00000000  -0.00000000  1
  Pd  Pd0  1  0.00000000  0.63399089  0.13399089  1
  Pd  Pd1  1  -0.00000000  0.86600911  0.63399089  1
  Pd  Pd2  1  0.00000000  0.13399089  0.36600911  1
  Pd  Pd3  1  -0.00000000  0.36600911  0.86600911  1
loop_
_geom_bond_atom_site_label_1
_geom_bond_atom_site_label_2
_geom_bond_distance
_geom_bond_site_symmetry_2
Ho0 Pd1 2.955800 1_555
Ho0 Pd1 2.955800 1_655
Ho0 Pd3 3.037810 1_555
Ho0 Pd0 3.037810 1_556
Ho0 Pd3 3.037810 1_655
Ho0 Pd0 3.037810 1_656
Ho1 Pd0 2.955800 1_555
Ho1 Pd0 2.955800 1_655
Ho1 Pd1 3.037810 1_655
Ho1 Pd2 3.037810 1_565
Ho1 Pd2 3.037810 1_665
Ho1 Pd1 3.037810 1_555
Ho2 Pd2 2.955800 1_555
Ho2 Pd2 2.955800 1_655
Ho2 Pd0 3.037810 1_555
Ho2 Pd3 3.037810 1_554
Ho2 Pd0 3.037810 1_655
Ho2 Pd3 3.037810 1_654
Ho3 Pd3 2.955800 1_655
Ho3 Pd3 2.955800 1_555
Ho3 Pd1 3.037810 1_545
Ho3 Pd2 3.037810 1_555
Ho3 Pd1 3.037810 1_645
Ho3 Pd2 3.037810 1_655
Ho4 Pd3 2.990576 1_555
Ho4 Pd2 2.990576 1_555
Ho4 Pd1 2.990576 1_555
Ho4 Pd0 2.990576 1_555
Ho5 Pd3 2.990576 1_554
Ho5 Pd1 2.990576 1_544
Ho5 Pd0 2.990576 1_545
Ho5 Pd2 2.990576 1_555
Pd0 Pd3 2.907857 1_554
Pd1 Pd2 2.907857 1_565
