# generated using pymatgen
data_SrAgSF
_symmetry_space_group_name_H-M   'P 1'
_cell_length_a   4.10862600
_cell_length_b   4.10862600
_cell_length_c   9.13010300
_cell_angle_alpha   90.00000000
_cell_angle_beta   90.00000000
_cell_angle_gamma   90.00000000
_symmetry_Int_Tables_number   1
_chemical_formula_structural   SrAgSF
_chemical_formula_sum   'Sr2 Ag2 S2 F2'
_cell_volume   154.12351218
_cell_formula_units_Z   2
loop_
 _symmetry_equiv_pos_site_id
 _symmetry_equiv_pos_as_xyz
  1  'x, y, z'
loop_
 _atom_site_type_symbol
 _atom_site_label
 _atom_site_symmetry_multiplicity
 _atom_site_fract_x
 _atom_site_fract_y
 _atom_site_fract_z
 _atom_site_occupancy
  Sr  Sr0  1  0.00000000  0.50000000  0.84394500  1
  Sr  Sr1  1  0.50000000  0.00000000  0.15605500  1
  Ag  Ag0  1  0.50000000  0.50000000  0.50000000  1
  Ag  Ag1  1  0.00000000  0.00000000  0.50000000  1
  S  S0  1  0.00000000  0.50000000  0.30829300  1
  S  S1  1  0.50000000  0.00000000  0.69170700  1
  F  F0  1  0.50000000  0.50000000  0.00000000  1
  F  F1  1  0.00000000  0.00000000  0.00000000  1
loop_
_geom_bond_atom_site_label_1
_geom_bond_atom_site_label_2
_geom_bond_distance
_geom_bond_site_symmetry_2
Ag0 S1 2.698846 1_565
Ag0 S1 2.698846 1_555
Ag0 S0 2.698846 1_555
Ag0 S0 2.698846 1_655
Ag1 S1 2.698846 1_555
Ag1 S1 2.698846 1_455
Ag1 S0 2.698846 1_555
Ag1 S0 2.698846 1_545
S0 Sr1 3.220615 1_455
S0 Sr1 3.220615 1_465
S0 Sr1 3.220615 1_555
S0 Sr1 3.220615 1_565
S1 Sr0 3.220615 1_645
S1 Sr0 3.220615 1_555
S1 Sr0 3.220615 1_655
S1 Sr0 3.220615 1_545
F0 Sr0 2.500050 1_654
F0 Sr1 2.500050 1_565
F0 Sr0 2.500050 1_554
F0 Sr1 2.500050 1_555
F1 Sr0 2.500050 1_544
F1 Sr1 2.500050 1_455
F1 Sr0 2.500050 1_554
F1 Sr1 2.500050 1_555
