# generated using pymatgen
data_RbNa2B6BrO10
_symmetry_space_group_name_H-M   'P 1'
_cell_length_a   8.47115400
_cell_length_b   9.70586400
_cell_length_c   12.90317400
_cell_angle_alpha   90.00000000
_cell_angle_beta   90.00000000
_cell_angle_gamma   90.00000000
_symmetry_Int_Tables_number   1
_chemical_formula_structural   RbNa2B6BrO10
_chemical_formula_sum   'Rb4 Na8 B24 Br4 O40'
_cell_volume   1060.89727141
_cell_formula_units_Z   4
loop_
 _symmetry_equiv_pos_site_id
 _symmetry_equiv_pos_as_xyz
  1  'x, y, z'
loop_
 _atom_site_type_symbol
 _atom_site_label
 _atom_site_symmetry_multiplicity
 _atom_site_fract_x
 _atom_site_fract_y
 _atom_site_fract_z
 _atom_site_occupancy
  Rb  Rb0  1  0.00000000  0.50000000  0.50000000  1
  Rb  Rb1  1  0.50000000  0.00000000  0.00000000  1
  Rb  Rb2  1  0.00000000  0.00000000  0.50000000  1
  Rb  Rb3  1  0.50000000  0.50000000  0.00000000  1
  Na  Na0  1  0.73325400  0.75000000  0.20487000  1
  Na  Na1  1  0.76674600  0.75000000  0.70487000  1
  Na  Na2  1  0.26674600  0.25000000  0.79513000  1
  Na  Na3  1  0.23325400  0.25000000  0.29513000  1
  Na  Na4  1  0.50000000  0.50000000  0.50000000  1
  Na  Na5  1  0.00000000  0.00000000  0.00000000  1
  Na  Na6  1  0.50000000  0.00000000  0.50000000  1
  Na  Na7  1  0.00000000  0.50000000  0.00000000  1
  B  B0  1  0.61124900  0.25000000  0.32864200  1
  B  B1  1  0.88875100  0.25000000  0.82864200  1
  B  B2  1  0.38875100  0.75000000  0.67135800  1
  B  B3  1  0.11124900  0.75000000  0.17135800  1
  B  B4  1  0.53733100  0.48707100  0.26590800  1
  B  B5  1  0.96266900  0.01292900  0.76590800  1
  B  B6  1  0.46266900  0.98707100  0.73409200  1
  B  B7  1  0.03733100  0.51292900  0.23409200  1
  B  B8  1  0.46266900  0.51292900  0.73409200  1
  B  B9  1  0.03733100  0.98707100  0.23409200  1
  B  B10  1  0.53733100  0.01292900  0.26590800  1
  B  B11  1  0.96266900  0.48707100  0.76590800  1
  B  B12  1  0.78455300  0.38508000  0.19038400  1
  B  B13  1  0.71544700  0.11492000  0.69038400  1
  B  B14  1  0.21544700  0.88508000  0.80961600  1
  B  B15  1  0.28455300  0.61492000  0.30961600  1
  B  B16  1  0.21544700  0.61492000  0.80961600  1
  B  B17  1  0.28455300  0.88508000  0.30961600  1
  B  B18  1  0.78455300  0.11492000  0.19038400  1
  B  B19  1  0.71544700  0.38508000  0.69038400  1
  B  B20  1  0.69872300  0.25000000  0.52357700  1
  B  B21  1  0.80127700  0.25000000  0.02357700  1
  B  B22  1  0.30127700  0.75000000  0.47642300  1
  B  B23  1  0.19872300  0.75000000  0.97642300  1
  Br  Br0  1  0.73744500  0.75000000  0.44681200  1
  Br  Br1  1  0.76255500  0.75000000  0.94681200  1
  Br  Br2  1  0.26255500  0.25000000  0.55318800  1
  Br  Br3  1  0.23744500  0.25000000  0.05318800  1
  O  O0  1  0.67348100  0.49824900  0.20816000  1
  O  O1  1  0.82651900  0.00175100  0.70816000  1
  O  O2  1  0.32651900  0.99824900  0.79184000  1
  O  O3  1  0.17348100  0.50175100  0.29184000  1
  O  O4  1  0.32651900  0.50175100  0.79184000  1
  O  O5  1  0.17348100  0.99824900  0.29184000  1
  O  O6  1  0.67348100  0.00175100  0.20816000  1
  O  O7  1  0.82651900  0.49824900  0.70816000  1
  O  O8  1  0.00703100  0.62722500  0.17312500  1
  O  O9  1  0.49296900  0.87277500  0.67312500  1
  O  O10  1  0.99296900  0.12722500  0.82687500  1
  O  O11  1  0.50703100  0.37277500  0.32687500  1
  O  O12  1  0.99296900  0.37277500  0.82687500  1
  O  O13  1  0.50703100  0.12722500  0.32687500  1
  O  O14  1  0.00703100  0.87277500  0.17312500  1
  O  O15  1  0.49296900  0.62722500  0.67312500  1
  O  O16  1  0.71118000  0.25000000  0.22972100  1
  O  O17  1  0.78882000  0.25000000  0.72972100  1
  O  O18  1  0.28882000  0.75000000  0.77027900  1
  O  O19  1  0.21118000  0.75000000  0.27027900  1
  O  O20  1  0.71380500  0.25000000  0.41804200  1
  O  O21  1  0.78619500  0.25000000  0.91804200  1
  O  O22  1  0.28619500  0.75000000  0.58195800  1
  O  O23  1  0.21380500  0.75000000  0.08195800  1
  O  O24  1  0.80214500  0.37330800  0.07645700  1
  O  O25  1  0.69785500  0.12669200  0.57645700  1
  O  O26  1  0.19785500  0.87330800  0.92354300  1
  O  O27  1  0.30214500  0.62669200  0.42354300  1
  O  O28  1  0.19785500  0.62669200  0.92354300  1
  O  O29  1  0.30214500  0.87330800  0.42354300  1
  O  O30  1  0.80214500  0.12669200  0.07645700  1
  O  O31  1  0.69785500  0.37330800  0.57645700  1
  O  O32  1  0.43468400  0.59479300  0.25799700  1
  O  O33  1  0.06531600  0.90520700  0.75799700  1
  O  O34  1  0.56531600  0.09479300  0.74200300  1
  O  O35  1  0.93468400  0.40520700  0.24200300  1
  O  O36  1  0.56531600  0.40520700  0.74200300  1
  O  O37  1  0.93468400  0.09479300  0.24200300  1
  O  O38  1  0.43468400  0.90520700  0.25799700  1
  O  O39  1  0.06531600  0.59479300  0.75799700  1
loop_
_geom_bond_atom_site_label_1
_geom_bond_atom_site_label_2
_geom_bond_distance
_geom_bond_site_symmetry_2
Na0 O0 2.495734 1_555
Na0 O6 2.495734 1_565
Na0 O14 2.639413 1_655
Na0 O8 2.639413 1_655
Na0 O38 3.022620 1_555
Na0 O32 3.022620 1_555
Na1 O7 2.495734 1_555
Na1 O1 2.495734 1_565
Na1 O9 2.639413 1_555
Na1 O15 2.639413 1_555
Na1 O39 3.022620 1_655
Na1 O33 3.022620 1_655
Na2 O4 2.495734 1_555
Na2 O2 2.495734 1_545
Na2 O12 2.639413 1_455
Na2 O10 2.639413 1_455
Na2 O36 3.022620 1_555
Na2 O34 3.022620 1_555
Na3 O3 2.495734 1_555
Na3 O5 2.495734 1_545
Na3 O11 2.639413 1_555
Na3 O13 2.639413 1_555
Na3 O35 3.022620 1_455
Na3 O37 3.022620 1_455
Na4 O27 2.300975 1_555
Na4 O31 2.300975 1_555
Na4 O15 2.553133 1_555
Na4 O11 2.553133 1_555
Na5 O30 2.300975 1_455
Na5 O26 2.300975 1_544
Na5 O14 2.553133 1_545
Na5 O10 2.553133 1_454
Na6 O29 2.300975 1_545
Na6 O25 2.300975 1_555
Na6 O9 2.553133 1_545
Na6 O13 2.553133 1_555
Na7 O24 2.300975 1_455
Na7 O28 2.300975 1_554
Na7 O8 2.553133 1_555
Na7 O12 2.553133 1_454
B0 O20 1.444098 1_555
B0 O11 1.483219 1_555
B0 O13 1.483219 1_555
B0 O16 1.531600 1_555
B1 O21 1.444098 1_555
B1 O12 1.483219 1_555
B1 O10 1.483219 1_555
B1 O17 1.531600 1_555
B2 O22 1.444098 1_555
B2 O9 1.483219 1_555
B2 O15 1.483219 1_555
B2 O18 1.531600 1_555
B3 O23 1.444098 1_555
B3 O14 1.483219 1_555
B3 O8 1.483219 1_555
B3 O19 1.531600 1_555
B4 O32 1.363694 1_555
B4 O0 1.377390 1_555
B4 O11 1.383968 1_555
B5 O33 1.363694 1_645
B5 O1 1.377390 1_555
B5 O10 1.383968 1_555
B6 O34 1.363694 1_565
B6 O2 1.377390 1_555
B6 O9 1.383968 1_555
B7 O35 1.363694 1_455
B7 O3 1.377390 1_555
B7 O8 1.383968 1_555
B8 O36 1.363694 1_555
B8 O4 1.377390 1_555
B8 O15 1.383968 1_555
B9 O37 1.363694 1_465
B9 O5 1.377390 1_555
B9 O14 1.383968 1_555
B10 O38 1.363694 1_545
B10 O6 1.377390 1_555
B10 O13 1.383968 1_555
B11 O39 1.363694 1_655
B11 O7 1.377390 1_555
B11 O12 1.383968 1_555
B12 O35 1.448867 1_555
B12 O0 1.464379 1_555
B12 O24 1.481965 1_555
B12 O16 1.537159 1_555
B13 O34 1.448867 1_555
B13 O1 1.464379 1_555
B13 O25 1.481965 1_555
B13 O17 1.537159 1_555
B14 O33 1.448867 1_555
B14 O2 1.464379 1_555
B14 O26 1.481965 1_555
B14 O18 1.537159 1_555
B15 O32 1.448867 1_555
B15 O3 1.464379 1_555
B15 O27 1.481965 1_555
B15 O19 1.537159 1_555
B16 O39 1.448867 1_555
B16 O4 1.464379 1_555
B16 O28 1.481965 1_555
B16 O18 1.537159 1_555
B17 O38 1.448867 1_555
B17 O5 1.464379 1_555
B17 O29 1.481965 1_555
B17 O19 1.537159 1_555
B18 O37 1.448867 1_555
B18 O6 1.464379 1_555
B18 O30 1.481965 1_555
B18 O16 1.537159 1_555
B19 O36 1.448867 1_555
B19 O7 1.464379 1_555
B19 O31 1.481965 1_555
B19 O17 1.537159 1_555
B20 O20 1.367717 1_555
B20 O31 1.377668 1_555
B20 O25 1.377668 1_555
B21 O21 1.367717 1_554
B21 O24 1.377668 1_555
B21 O30 1.377668 1_555
B22 O22 1.367717 1_555
B22 O27 1.377668 1_555
B22 O29 1.377668 1_555
B23 O23 1.367717 1_556
B23 O26 1.377668 1_555
B23 O28 1.377668 1_555
Br0 Na0 3.122022 1_555
Br0 Na4 3.225616 1_555
Br0 Na6 3.225616 1_565
Br0 Na1 3.339006 1_555
Br0 Rb2 3.362373 1_665
Br0 Rb0 3.362373 1_655
Br1 Na1 3.122022 1_555
Br1 Na5 3.225616 1_666
Br1 Na7 3.225616 1_656
Br1 Na0 3.339006 1_556
Br1 Rb1 3.362373 1_566
Br1 Rb3 3.362373 1_556
Br2 Na2 3.122022 1_555
Br2 Na4 3.225616 1_555
Br2 Na6 3.225616 1_555
Br2 Na3 3.339006 1_555
Br2 Rb0 3.362373 1_555
Br2 Rb2 3.362373 1_555
Br3 Na3 3.122022 1_555
Br3 Na5 3.225616 1_555
Br3 Na7 3.225616 1_555
Br3 Na2 3.339006 1_554
Br3 Rb1 3.362373 1_555
Br3 Rb3 3.362373 1_555
O0 Rb3 3.061725 1_555
O1 Rb2 3.061725 1_655
O2 Rb1 3.061725 1_566
O3 Rb0 3.061725 1_555
O4 Rb3 3.061725 1_556
O5 Rb2 3.061725 1_565
O6 Rb1 3.061725 1_555
O7 Rb0 3.061725 1_655
O24 Rb3 3.006066 1_555
O25 Rb2 3.006066 1_655
O26 Rb1 3.006066 1_566
O27 Rb0 3.006066 1_555
O28 Rb3 3.006066 1_556
O29 Rb2 3.006066 1_565
O30 Rb1 3.006066 1_555
O31 Rb0 3.006066 1_655
