# generated using pymatgen
data_CsLi5Mn(P2O7)2
_symmetry_space_group_name_H-M   'P 1'
_cell_length_a   5.17244525
_cell_length_b   12.73003845
_cell_length_c   19.99365749
_cell_angle_alpha   90.00000000
_cell_angle_beta   90.00000000
_cell_angle_gamma   90.00000000
_symmetry_Int_Tables_number   1
_chemical_formula_structural   CsLi5Mn(P2O7)2
_chemical_formula_sum   'Cs4 Li20 Mn4 P16 O56'
_cell_volume   1316.49091298
_cell_formula_units_Z   4
loop_
 _symmetry_equiv_pos_site_id
 _symmetry_equiv_pos_as_xyz
  1  'x, y, z'
loop_
 _atom_site_type_symbol
 _atom_site_label
 _atom_site_symmetry_multiplicity
 _atom_site_fract_x
 _atom_site_fract_y
 _atom_site_fract_z
 _atom_site_occupancy
  Cs  Cs0  1  0.00000000  0.75000000  0.19326878  1
  Cs  Cs1  1  0.50000000  0.25000000  0.30673122  1
  Cs  Cs2  1  0.00000000  0.25000000  0.80673122  1
  Cs  Cs3  1  0.50000000  0.75000000  0.69326878  1
  Li  Li0  1  0.03365721  0.50114629  0.30022456  1
  Li  Li1  1  0.46634279  0.00114629  0.19977544  1
  Li  Li2  1  0.53365721  0.49885371  0.19977544  1
  Li  Li3  1  0.96634279  0.99885371  0.30022456  1
  Li  Li4  1  0.96634279  0.49885371  0.69977544  1
  Li  Li5  1  0.53365721  0.99885371  0.80022456  1
  Li  Li6  1  0.46634279  0.50114629  0.80022456  1
  Li  Li7  1  0.03365721  0.00114629  0.69977544  1
  Li  Li8  1  0.02254247  0.60060507  0.40916737  1
  Li  Li9  1  0.47745753  0.10060507  0.09083263  1
  Li  Li10  1  0.52254247  0.39939493  0.09083263  1
  Li  Li11  1  0.97745753  0.89939493  0.40916737  1
  Li  Li12  1  0.97745753  0.39939493  0.59083263  1
  Li  Li13  1  0.52254247  0.89939493  0.90916737  1
  Li  Li14  1  0.47745753  0.60060507  0.90916737  1
  Li  Li15  1  0.02254247  0.10060507  0.59083263  1
  Li  Li16  1  0.00000000  -0.00000000  -0.00000000  1
  Li  Li17  1  0.50000000  0.50000000  0.50000000  1
  Li  Li18  1  0.50000000  -0.00000000  0.50000000  1
  Li  Li19  1  0.00000000  0.50000000  -0.00000000  1
  Mn  Mn0  1  0.00000000  0.75000000  0.97449195  1
  Mn  Mn1  1  0.50000000  0.25000000  0.52550805  1
  Mn  Mn2  1  0.00000000  0.25000000  0.02550805  1
  Mn  Mn3  1  0.50000000  0.75000000  0.47449195  1
  P  P0  1  0.51738835  0.86460663  0.05495052  1
  P  P1  1  0.98261165  0.36460663  0.44504948  1
  P  P2  1  0.01738835  0.13539337  0.44504948  1
  P  P3  1  0.48261165  0.63539337  0.05495052  1
  P  P4  1  0.48261165  0.13539337  0.94504948  1
  P  P5  1  0.01738835  0.63539337  0.55495052  1
  P  P6  1  0.98261165  0.86460663  0.55495052  1
  P  P7  1  0.51738835  0.36460663  0.94504948  1
  P  P8  1  0.51896601  0.63486087  0.32500816  1
  P  P9  1  0.98103399  0.13486087  0.17499184  1
  P  P10  1  0.01896601  0.36513913  0.17499184  1
  P  P11  1  0.48103399  0.86513913  0.32500816  1
  P  P12  1  0.48103399  0.36513913  0.67499184  1
  P  P13  1  0.01896601  0.86513913  0.82500816  1
  P  P14  1  0.98103399  0.63486087  0.82500816  1
  P  P15  1  0.51896601  0.13486087  0.67499184  1
  O  O0  1  0.34126020  0.85779253  0.99250314  1
  O  O1  1  0.15873980  0.35779253  0.50749686  1
  O  O2  1  0.84126020  0.14220747  0.50749686  1
  O  O3  1  0.65873980  0.64220747  0.99250314  1
  O  O4  1  0.65873980  0.14220747  0.00749686  1
  O  O5  1  0.84126020  0.64220747  0.49250314  1
  O  O6  1  0.15873980  0.85779253  0.49250314  1
  O  O7  1  0.34126020  0.35779253  0.00749686  1
  O  O8  1  0.80361305  0.87666538  0.03486952  1
  O  O9  1  0.69638695  0.37666538  0.46513048  1
  O  O10  1  0.30361305  0.12333462  0.46513048  1
  O  O11  1  0.19638695  0.62333462  0.03486952  1
  O  O12  1  0.19638695  0.12333462  0.96513048  1
  O  O13  1  0.30361305  0.62333462  0.53486952  1
  O  O14  1  0.69638695  0.87666538  0.53486952  1
  O  O15  1  0.80361305  0.37666538  0.96513048  1
  O  O16  1  0.80829002  0.61362617  0.33031068  1
  O  O17  1  0.69170998  0.11362617  0.16968932  1
  O  O18  1  0.30829002  0.38637383  0.16968932  1
  O  O19  1  0.19170998  0.88637383  0.33031068  1
  O  O20  1  0.19170998  0.38637383  0.66968932  1
  O  O21  1  0.30829002  0.88637383  0.83031068  1
  O  O22  1  0.69170998  0.61362617  0.83031068  1
  O  O23  1  0.80829002  0.11362617  0.66968932  1
  O  O24  1  0.11699251  0.64528255  0.89328158  1
  O  O25  1  0.38300749  0.14528255  0.60671842  1
  O  O26  1  0.61699251  0.35471745  0.60671842  1
  O  O27  1  0.88300749  0.85471745  0.89328158  1
  O  O28  1  0.88300749  0.35471745  0.10671842  1
  O  O29  1  0.61699251  0.85471745  0.39328158  1
  O  O30  1  0.38300749  0.64528255  0.39328158  1
  O  O31  1  0.11699251  0.14528255  0.10671842  1
  O  O32  1  0.87523054  0.43824238  0.22283224  1
  O  O33  1  0.62476946  0.93824238  0.27716776  1
  O  O34  1  0.37523054  0.56175762  0.27716776  1
  O  O35  1  0.12476946  0.06175762  0.22283224  1
  O  O36  1  0.12476946  0.56175762  0.77716776  1
  O  O37  1  0.37523054  0.06175762  0.72283224  1
  O  O38  1  0.62476946  0.43824238  0.72283224  1
  O  O39  1  0.87523054  0.93824238  0.77716776  1
  O  O40  1  0.50000000  0.75000000  0.09297395  1
  O  O41  1  0.00000000  0.25000000  0.40702605  1
  O  O42  1  0.50000000  0.25000000  0.90702605  1
  O  O43  1  0.00000000  0.75000000  0.59297395  1
  O  O44  1  0.42491585  0.94301002  0.10666381  1
  O  O45  1  0.07508415  0.44301002  0.39333619  1
  O  O46  1  0.92491585  0.05698998  0.39333619  1
  O  O47  1  0.57508415  0.55698998  0.10666381  1
  O  O48  1  0.57508415  0.05698998  0.89333619  1
  O  O49  1  0.92491585  0.55698998  0.60666381  1
  O  O50  1  0.07508415  0.94301002  0.60666381  1
  O  O51  1  0.42491585  0.44301002  0.89333619  1
  O  O52  1  0.50000000  0.75000000  0.28778425  1
  O  O53  1  0.00000000  0.25000000  0.21221575  1
  O  O54  1  0.50000000  0.25000000  0.71221575  1
  O  O55  1  0.00000000  0.75000000  0.78778425  1
loop_
_geom_bond_atom_site_label_1
_geom_bond_atom_site_label_2
_geom_bond_distance
_geom_bond_site_symmetry_2
Cs0 O52 3.203053 1_455
Cs0 O52 3.203053 1_555
Cs0 O40 3.272555 1_455
Cs0 O40 3.272555 1_555
Cs0 O16 3.391838 1_455
Cs0 O19 3.391838 1_555
Cs0 O33 3.510438 1_455
Cs0 O34 3.510438 1_555
Cs0 O11 3.696164 1_555
Cs0 O8 3.696164 1_455
Cs0 O47 3.723681 1_455
Cs0 O44 3.723681 1_555
Cs1 O53 3.203053 1_655
Cs1 O53 3.203053 1_555
Cs1 O41 3.272555 1_555
Cs1 O41 3.272555 1_655
Cs1 O17 3.391838 1_555
Cs1 O18 3.391838 1_555
Cs1 O32 3.510438 1_555
Cs1 O35 3.510438 1_555
Cs1 O10 3.696164 1_555
Cs1 O9 3.696164 1_555
Cs1 O45 3.723681 1_555
Cs1 O46 3.723681 1_555
Cs2 O54 3.203053 1_455
Cs2 O54 3.203053 1_555
Cs2 O42 3.272555 1_555
Cs2 O42 3.272555 1_455
Cs2 O23 3.391838 1_455
Cs2 O20 3.391838 1_555
Cs2 O38 3.510438 1_455
Cs2 O37 3.510438 1_555
Cs2 O15 3.696164 1_455
Cs2 O12 3.696164 1_555
Cs2 O51 3.723681 1_555
Cs2 O48 3.723681 1_455
Cs3 O55 3.203053 1_555
Cs3 O55 3.203053 1_655
Cs3 O43 3.272555 1_655
Cs3 O43 3.272555 1_555
Cs3 O21 3.391838 1_555
Cs3 O22 3.391838 1_555
Cs3 O39 3.510438 1_555
Cs3 O36 3.510438 1_555
Cs3 O13 3.696164 1_555
Cs3 O14 3.696164 1_555
Cs3 O49 3.723681 1_555
Cs3 O50 3.723681 1_555
Li0 O32 1.925369 1_455
Li0 O16 1.941895 1_455
Li0 O34 1.982253 1_555
Li0 O45 2.014780 1_555
Li1 O33 1.925369 1_545
Li1 O17 1.941895 1_555
Li1 O35 1.982253 1_555
Li1 O44 2.014780 1_545
Li2 O34 1.925369 1_555
Li2 O18 1.941895 1_555
Li2 O32 1.982253 1_555
Li2 O47 2.014780 1_555
Li3 O35 1.925369 1_665
Li3 O19 1.941895 1_655
Li3 O33 1.982253 1_555
Li3 O46 2.014780 1_565
Li4 O36 1.925369 1_655
Li4 O20 1.941895 1_655
Li4 O38 1.982253 1_555
Li4 O49 2.014780 1_555
Li5 O37 1.925369 1_565
Li5 O21 1.941895 1_555
Li5 O39 1.982253 1_555
Li5 O48 2.014780 1_565
Li6 O38 1.925369 1_555
Li6 O22 1.941895 1_555
Li6 O36 1.982253 1_555
Li6 O51 2.014780 1_555
Li7 O39 1.925369 1_445
Li7 O23 1.941895 1_455
Li7 O37 1.982253 1_555
Li7 O50 2.014780 1_545
Li8 O16 1.934264 1_455
Li8 O30 1.975008 1_555
Li8 O5 1.983906 1_455
Li8 O45 2.049109 1_555
Li9 O17 1.934264 1_555
Li9 O31 1.975008 1_555
Li9 O4 1.983906 1_555
Li9 O44 2.049109 1_545
Li10 O18 1.934264 1_555
Li10 O28 1.975008 1_555
Li10 O7 1.983906 1_555
Li10 O47 2.049109 1_555
Li11 O19 1.934264 1_655
Li11 O29 1.975008 1_555
Li11 O6 1.983906 1_655
Li11 O46 2.049109 1_565
Li12 O20 1.934264 1_655
Li12 O26 1.975008 1_555
Li12 O1 1.983906 1_655
Li12 O49 2.049109 1_555
Li13 O21 1.934264 1_555
Li13 O27 1.975008 1_555
Li13 O0 1.983906 1_555
Li13 O48 2.049109 1_565
Li14 O22 1.934264 1_555
Li14 O24 1.975008 1_555
Li14 O3 1.983906 1_555
Li14 O51 2.049109 1_555
Li15 O23 1.934264 1_455
Li15 O25 1.975008 1_555
Li15 O2 1.983906 1_455
Li15 O50 2.049109 1_545
Li16 O8 1.995737 1_445
Li16 O12 1.995737 1_554
Li16 O0 2.532870 1_544
Li16 O4 2.532870 1_455
Li17 O9 1.995737 1_555
Li17 O13 1.995737 1_555
Li17 O5 2.532870 1_555
Li17 O1 2.532870 1_555
Li18 O14 1.995737 1_545
Li18 O10 1.995737 1_555
Li18 O2 2.532870 1_555
Li18 O6 2.532870 1_545
Li19 O15 1.995737 1_454
Li19 O11 1.995737 1_555
Li19 O7 2.532870 1_555
Li19 O3 2.532870 1_454
Mn0 O27 2.186232 1_455
Mn0 O24 2.186232 1_555
Mn0 O11 2.255907 1_556
Mn0 O8 2.255907 1_456
Mn0 O0 2.264591 1_555
Mn0 O3 2.264591 1_455
Mn1 O25 2.186232 1_555
Mn1 O26 2.186232 1_555
Mn1 O10 2.255907 1_555
Mn1 O9 2.255907 1_555
Mn1 O1 2.264591 1_555
Mn1 O2 2.264591 1_555
Mn2 O28 2.186232 1_455
Mn2 O31 2.186232 1_555
Mn2 O15 2.255907 1_454
Mn2 O12 2.255907 1_554
Mn2 O7 2.264591 1_555
Mn2 O4 2.264591 1_455
Mn3 O29 2.186232 1_555
Mn3 O30 2.186232 1_555
Mn3 O13 2.255907 1_555
Mn3 O14 2.255907 1_555
Mn3 O6 2.264591 1_555
Mn3 O5 2.264591 1_555
O0 P0 1.548015 1_556
O1 P1 1.548015 1_455
O2 P2 1.548015 1_655
O3 P3 1.548015 1_556
O4 P4 1.548015 1_554
O5 P5 1.548015 1_655
O6 P6 1.548015 1_455
O7 P7 1.548015 1_554
O8 P0 1.541618 1_555
O9 P1 1.541618 1_555
O10 P2 1.541618 1_555
O11 P3 1.541618 1_555
O12 P4 1.541618 1_555
O13 P5 1.541618 1_555
O14 P6 1.541618 1_555
O15 P7 1.541618 1_555
O16 P8 1.524422 1_555
O17 P9 1.524422 1_555
O18 P10 1.524422 1_555
O19 P11 1.524422 1_555
O20 P12 1.524422 1_555
O21 P13 1.524422 1_555
O22 P14 1.524422 1_555
O23 P15 1.524422 1_555
O24 P14 1.541255 1_455
O25 P15 1.541255 1_555
O26 P12 1.541255 1_555
O27 P13 1.541255 1_655
O28 P10 1.541255 1_655
O29 P11 1.541255 1_555
O30 P8 1.541255 1_555
O31 P9 1.541255 1_455
O32 P10 1.527635 1_655
O33 P11 1.527635 1_555
O34 P8 1.527635 1_555
O35 P9 1.527635 1_455
O36 P14 1.527635 1_455
O37 P15 1.527635 1_555
O38 P12 1.527635 1_555
O39 P13 1.527635 1_655
O40 P3 1.647592 1_555
O40 P0 1.647592 1_555
O41 P2 1.647592 1_555
O41 P1 1.647592 1_455
O42 P7 1.647592 1_555
O42 P4 1.647592 1_555
O43 P5 1.647592 1_555
O43 P6 1.647592 1_455
O44 P0 1.514585 1_555
O45 P1 1.514585 1_455
O46 P2 1.514585 1_655
O47 P3 1.514585 1_555
O48 P4 1.514585 1_555
O49 P5 1.514585 1_655
O50 P6 1.514585 1_455
O51 P7 1.514585 1_555
O52 P8 1.646776 1_555
O52 P11 1.646776 1_555
O53 P9 1.646776 1_455
O53 P10 1.646776 1_555
O54 P15 1.646776 1_555
O54 P12 1.646776 1_555
O55 P14 1.646776 1_455
O55 P13 1.646776 1_555
