# generated using pymatgen
data_Li7Mn2(CoO4)3
_symmetry_space_group_name_H-M   'P 1'
_cell_length_a   5.10861377
_cell_length_b   5.10861377
_cell_length_c   15.29246330
_cell_angle_alpha   80.38534159
_cell_angle_beta   80.38534159
_cell_angle_gamma   33.24699091
_symmetry_Int_Tables_number   1
_chemical_formula_structural   Li7Mn2(CoO4)3
_chemical_formula_sum   'Li7 Mn2 Co3 O12'
_cell_volume   215.45763019
_cell_formula_units_Z   1
loop_
 _symmetry_equiv_pos_site_id
 _symmetry_equiv_pos_as_xyz
  1  'x, y, z'
loop_
 _atom_site_type_symbol
 _atom_site_label
 _atom_site_symmetry_multiplicity
 _atom_site_fract_x
 _atom_site_fract_y
 _atom_site_fract_z
 _atom_site_occupancy
  Li  Li0  1  0.24909000  0.24909000  0.92338700  1
  Li  Li1  1  0.75091000  0.75091000  0.07661300  1
  Li  Li2  1  0.25379900  0.25379900  0.24765500  1
  Li  Li3  1  0.75010900  0.75010900  0.41643300  1
  Li  Li4  1  0.24989100  0.24989100  0.58356700  1
  Li  Li5  1  0.74620100  0.74620100  0.75234500  1
  Li  Li6  1  0.50000000  0.50000000  0.00000000  1
  Mn  Mn0  1  0.99491600  0.99491600  0.83949900  1
  Mn  Mn1  1  0.00508400  0.00508400  0.16050100  1
  Co  Co0  1  0.50064000  0.50064000  0.33265400  1
  Co  Co1  1  0.00000000  0.00000000  0.50000000  1
  Co  Co2  1  0.49936000  0.49936000  0.66734600  1
  O  O0  1  0.38818600  0.38818600  0.79382200  1
  O  O1  1  0.88165600  0.88165600  0.94661400  1
  O  O2  1  0.39168400  0.39168400  0.13153700  1
  O  O3  1  0.89088500  0.89088500  0.28815500  1
  O  O4  1  0.38541700  0.38541700  0.45831700  1
  O  O5  1  0.88324600  0.88324600  0.62624000  1
  O  O6  1  0.11834400  0.11834400  0.05338600  1
  O  O7  1  0.61181400  0.61181400  0.20617800  1
  O  O8  1  0.11675400  0.11675400  0.37376000  1
  O  O9  1  0.61458300  0.61458300  0.54168300  1
  O  O10  1  0.10911500  0.10911500  0.71184500  1
  O  O11  1  0.60831600  0.60831600  0.86846300  1
loop_
_geom_bond_atom_site_label_1
_geom_bond_atom_site_label_2
_geom_bond_distance
_geom_bond_site_symmetry_2
Li0 O1 2.026624 1_545
Li0 O1 2.026624 1_455
Li0 O6 2.168761 1_556
Li0 O0 2.199918 1_555
Li0 O11 2.268125 1_455
Li0 O11 2.268125 1_545
Li1 O6 2.026624 1_565
Li1 O6 2.026624 1_655
Li1 O1 2.168761 1_554
Li1 O7 2.199918 1_555
Li1 O2 2.268125 1_565
Li1 O2 2.268125 1_655
Li2 O2 2.034662 1_555
Li2 O3 2.147211 1_545
Li2 O3 2.147211 1_455
Li2 O8 2.148743 1_555
Li2 O7 2.185836 1_455
Li2 O7 2.185836 1_545
Li3 O9 2.131478 1_555
Li3 O8 2.136190 1_655
Li3 O8 2.136190 1_565
Li3 O4 2.144009 1_565
Li3 O4 2.144009 1_655
Li3 O3 2.192076 1_555
Li4 O4 2.131478 1_555
Li4 O5 2.136190 1_455
Li4 O5 2.136190 1_545
Li4 O9 2.144009 1_545
Li4 O9 2.144009 1_455
Li4 O10 2.192076 1_555
Li5 O11 2.034662 1_555
Li5 O10 2.147211 1_655
Li5 O10 2.147211 1_565
Li5 O5 2.148743 1_555
Li5 O0 2.185836 1_655
Li5 O0 2.185836 1_565
Li6 O2 2.104075 1_555
Li6 O11 2.104075 1_554
Li6 O6 2.115317 1_565
Li6 O6 2.115317 1_655
Li6 O1 2.115317 1_454
Li6 O1 2.115317 1_544
Mn0 O1 1.810950 1_555
Mn0 O11 1.932900 1_565
Mn0 O11 1.932900 1_655
Mn0 O0 1.992516 1_655
Mn0 O0 1.992516 1_565
Mn0 O10 2.073643 1_665
Mn1 O6 1.810950 1_555
Mn1 O2 1.932900 1_545
Mn1 O2 1.932900 1_455
Mn1 O7 1.992516 1_455
Mn1 O7 1.992516 1_545
Mn1 O3 2.073643 1_445
Co0 O3 2.002127 1_455
Co0 O3 2.002127 1_545
Co0 O8 2.018033 1_565
Co0 O8 2.018033 1_655
Co0 O7 2.047347 1_555
Co0 O4 2.051759 1_555
Co1 O4 2.012447 1_455
Co1 O9 2.012447 1_545
Co1 O9 2.012447 1_455
Co1 O4 2.012447 1_545
Co1 O8 2.064991 1_555
Co1 O5 2.064991 1_445
Co2 O10 2.002127 1_655
Co2 O10 2.002127 1_565
Co2 O5 2.018033 1_455
Co2 O5 2.018033 1_545
Co2 O0 2.047347 1_555
Co2 O9 2.051759 1_555
