# generated using pymatgen
data_P4H4PtIO10
_symmetry_space_group_name_H-M   'P 1'
_cell_length_a   10.62303970
_cell_length_b   10.62303970
_cell_length_c   10.62303970
_cell_angle_alpha   125.47934476
_cell_angle_beta   125.47934476
_cell_angle_gamma   80.74557129
_symmetry_Int_Tables_number   1
_chemical_formula_structural   P4H4PtIO10
_chemical_formula_sum   'P8 H8 Pt2 I2 O20'
_cell_volume   766.42446542
_cell_formula_units_Z   2
loop_
 _symmetry_equiv_pos_site_id
 _symmetry_equiv_pos_as_xyz
  1  'x, y, z'
loop_
 _atom_site_type_symbol
 _atom_site_label
 _atom_site_symmetry_multiplicity
 _atom_site_fract_x
 _atom_site_fract_y
 _atom_site_fract_z
 _atom_site_occupancy
  P  P0  1  0.34292700  0.07685400  0.23677900  1
  P  P1  1  0.84007500  0.10614800  0.76322100  1
  P  P2  1  0.07685400  0.84007500  0.73392800  1
  P  P3  1  0.10614800  0.34292700  0.26607200  1
  P  P4  1  0.65707300  0.92314600  0.76322100  1
  P  P5  1  0.15992500  0.89385200  0.23677900  1
  P  P6  1  0.92314600  0.15992500  0.26607200  1
  P  P7  1  0.89385200  0.65707300  0.73392800  1
  H  H0  1  0.37392100  0.91638300  0.01346400  1
  H  H1  1  0.90291800  0.36045600  0.98653600  1
  H  H2  1  0.91638300  0.90291800  0.54246200  1
  H  H3  1  0.36045600  0.37392100  0.45753800  1
  H  H4  1  0.62607900  0.08361700  0.98653600  1
  H  H5  1  0.09708200  0.63954400  0.01346400  1
  H  H6  1  0.08361700  0.09708200  0.45753800  1
  H  H7  1  0.63954400  0.62607900  0.54246200  1
  Pt  Pt0  1  0.08838200  0.08838200  0.00000000  1
  Pt  Pt1  1  0.91161800  0.91161800  0.00000000  1
  I  I0  1  0.25248900  0.25248900  0.00000000  1
  I  I1  1  0.74751100  0.74751100  0.00000000  1
  O  O0  1  0.30081400  0.93751600  0.23833000  1
  O  O1  1  0.69918600  0.06248400  0.76167000  1
  O  O2  1  0.93751600  0.69918600  0.63670100  1
  O  O3  1  0.06248400  0.30081400  0.36329900  1
  O  O4  1  0.44551900  0.00907400  0.16173800  1
  O  O5  1  0.84733600  0.28378100  0.83826200  1
  O  O6  1  0.00907400  0.84733600  0.56355500  1
  O  O7  1  0.28378100  0.44551900  0.43644500  1
  O  O8  1  0.55448100  0.99092600  0.83826200  1
  O  O9  1  0.15266400  0.71621900  0.16173800  1
  O  O10  1  0.99092600  0.15266400  0.43644500  1
  O  O11  1  0.71621900  0.55448100  0.56355500  1
  O  O12  1  0.43137300  0.23586700  0.43469600  1
  O  O13  1  0.80117100  0.99667700  0.56530400  1
  O  O14  1  0.23586700  0.80117100  0.80449400  1
  O  O15  1  0.99667700  0.43137300  0.19550600  1
  O  O16  1  0.56862700  0.76413300  0.56530400  1
  O  O17  1  0.19882900  0.00332300  0.43469600  1
  O  O18  1  0.76413300  0.19882900  0.19550600  1
  O  O19  1  0.00332300  0.56862700  0.80449400  1
loop_
_geom_bond_atom_site_label_1
_geom_bond_atom_site_label_2
_geom_bond_distance
_geom_bond_site_symmetry_2
P0 Pt0 2.451403 1_555
P1 Pt0 2.451403 1_656
P2 Pt0 2.451397 1_566
P3 Pt0 2.451398 1_555
P4 Pt1 2.451403 1_556
P5 Pt1 2.451403 1_455
P6 Pt1 2.451397 1_545
P7 Pt1 2.451398 1_556
H0 O4 1.038688 1_565
H0 O14 1.490282 1_554
H1 O5 1.038690 1_555
H1 O15 1.490278 1_556
H2 O6 1.038682 1_655
H2 O13 1.490287 1_555
H3 O7 1.038682 1_555
H3 O12 1.490287 1_555
H4 O8 1.038688 1_545
H4 O18 1.490282 1_556
H5 O9 1.038690 1_555
H5 O19 1.490278 1_554
H6 O10 1.038682 1_455
H6 O17 1.490287 1_555
H7 O11 1.038682 1_555
H7 O16 1.490287 1_555
Pt0 Pt1 2.861145 1_445
I0 Pt0 2.656276 1_555
I1 Pt1 2.656276 1_555
O0 P5 1.625187 1_555
O0 P0 1.625187 1_565
O1 P4 1.625187 1_545
O1 P1 1.625187 1_555
O2 P2 1.625178 1_655
O2 P7 1.625208 1_555
O3 P6 1.625178 1_455
O3 P3 1.625208 1_555
O4 P0 1.559319 1_555
O5 P1 1.559319 1_555
O6 P2 1.559328 1_555
O7 P3 1.559319 1_555
O8 P4 1.559319 1_555
O9 P5 1.559319 1_555
O10 P6 1.559328 1_555
O11 P7 1.559319 1_555
O12 P0 1.500440 1_555
O13 P1 1.500440 1_565
O14 P2 1.500439 1_555
O15 P3 1.500435 1_655
O16 P4 1.500440 1_555
O17 P5 1.500440 1_545
O18 P6 1.500439 1_555
O19 P7 1.500435 1_455
