# generated using pymatgen
data_Li3VO3F
_symmetry_space_group_name_H-M   'P 1'
_cell_length_a   7.20149900
_cell_length_b   7.21304779
_cell_length_c   7.22962866
_cell_angle_alpha   109.84133293
_cell_angle_beta   108.95361444
_cell_angle_gamma   109.44338396
_symmetry_Int_Tables_number   1
_chemical_formula_structural   Li3VO3F
_chemical_formula_sum   'Li12 V4 O12 F4'
_cell_volume   289.70258903
_cell_formula_units_Z   4
loop_
 _symmetry_equiv_pos_site_id
 _symmetry_equiv_pos_as_xyz
  1  'x, y, z'
loop_
 _atom_site_type_symbol
 _atom_site_label
 _atom_site_symmetry_multiplicity
 _atom_site_fract_x
 _atom_site_fract_y
 _atom_site_fract_z
 _atom_site_occupancy
  Li  Li0  1  0.48495600  0.98428200  0.25989500  1
  Li  Li1  1  0.50923300  0.51616400  0.74801700  1
  Li  Li2  1  0.48844600  0.75326100  0.00466200  1
  Li  Li3  1  0.26592200  0.75159800  0.73040500  1
  Li  Li4  1  0.00682500  0.73630500  0.50367400  1
  Li  Li5  1  0.75492000  0.25612900  0.74054500  1
  Li  Li6  1  0.00713200  0.48857400  0.27008700  1
  Li  Li7  1  0.24757500  0.50870300  0.49399200  1
  Li  Li8  1  0.74851400  0.00075600  0.50324500  1
  Li  Li9  1  0.76462400  0.50690400  0.99747100  1
  Li  Li10  1  0.25757500  0.26203200  0.25174700  1
  Li  Li11  1  0.51025400  0.24655800  0.49389700  1
  V  V0  1  0.72192000  0.74128200  0.25889200  1
  V  V1  1  0.98057300  0.25680600  0.00016400  1
  V  V2  1  0.24402100  0.97691900  0.99962700  1
  V  V3  1  0.97907500  0.00002300  0.74052700  1
  O  O0  1  0.52416700  0.75556200  0.48618900  1
  O  O1  1  0.24149800  0.76228700  0.23740400  1
  O  O2  1  0.21551000  0.22244300  0.77580100  1
  O  O3  1  0.75450500  0.99884000  0.00157000  1
  O  O4  1  0.00147400  0.99675600  0.22188100  1
  O  O5  1  0.00584200  0.48507800  0.76350400  1
  O  O6  1  0.53054300  0.51832500  0.24674900  1
  O  O7  1  0.47513200  0.00570500  0.76846300  1
  O  O8  1  0.77633700  0.24688900  0.23420000  1
  O  O9  1  0.77440800  0.76597900  0.75385300  1
  O  O10  1  0.00654900  0.23784500  0.51325300  1
  O  O11  1  0.99654000  0.76721500  0.99791400  1
  F  F0  1  0.25011200  0.49393100  0.99707600  1
  F  F1  1  0.48415900  0.24667500  0.00367600  1
  F  F2  1  0.74205500  0.50230200  0.50385700  1
  F  F3  1  0.24960000  0.00787400  0.49776200  1
loop_
_geom_bond_atom_site_label_1
_geom_bond_atom_site_label_2
_geom_bond_distance
_geom_bond_site_symmetry_2
Li0 O1 1.852949 1_555
Li0 V2 2.074587 1_554
Li1 O9 2.121479 1_555
Li2 V0 2.099924 1_555
Li2 O3 2.145824 1_555
Li3 O7 1.804166 1_565
Li3 V2 2.162725 1_555
Li3 O5 2.338219 1_555
Li4 V3 2.203349 1_465
Li5 O5 1.911134 1_655
Li5 V1 2.042263 1_556
Li5 O7 2.334945 1_555
Li6 O8 1.831035 1_455
Li6 V1 1.992376 1_455
Li6 O1 2.271488 1_555
Li7 O0 2.218388 1_555
Li7 O10 2.221088 1_555
Li8 O0 1.890406 1_545
Li8 V3 1.965051 1_555
Li8 V0 1.989349 1_545
Li8 O10 2.023824 1_655
Li9 O11 2.054168 1_555
Li10 O4 2.054461 1_545
Li10 V2 2.183435 1_544
Li10 V1 2.198959 1_455
Li10 O6 2.226035 1_555
O2 V3 1.777535 1_455
O3 V1 2.029702 1_565
O6 V0 1.686248 1_555
O9 V3 1.891490 1_565
O11 V2 1.908583 1_655
F0 Li2 2.044427 1_556
F0 V1 2.130146 1_456
F1 O7 1.939992 1_554
F1 O6 1.970938 1_555
F1 O2 1.999135 1_554
F1 V2 2.113237 1_544
F1 Li9 2.279649 1_554
F2 Li11 1.994077 1_555
F2 Li4 2.084497 1_655
F3 Li11 2.098465 1_555
F3 Li4 2.172775 1_545
