# generated using pymatgen
data_SrCa7Mn8O22
_symmetry_space_group_name_H-M   'P 1'
_cell_length_a   10.89923102
_cell_length_b   15.60789716
_cell_length_c   10.84352675
_cell_angle_alpha   90.06839730
_cell_angle_beta   90.81462149
_cell_angle_gamma   90.27755642
_symmetry_Int_Tables_number   1
_chemical_formula_structural   SrCa7Mn8O22
_chemical_formula_sum   'Sr4 Ca28 Mn32 O88'
_cell_volume   1844.42698972
_cell_formula_units_Z   4
loop_
 _symmetry_equiv_pos_site_id
 _symmetry_equiv_pos_as_xyz
  1  'x, y, z'
loop_
 _atom_site_type_symbol
 _atom_site_label
 _atom_site_symmetry_multiplicity
 _atom_site_fract_x
 _atom_site_fract_y
 _atom_site_fract_z
 _atom_site_occupancy
  Sr  Sr0  1  0.00417657  0.11713556  0.49953639  1
  Sr  Sr1  1  0.49807247  0.38757607  0.99984419  1
  Sr  Sr2  1  0.23996133  0.38815930  0.26076312  1
  Sr  Sr3  1  0.23076620  0.11634880  0.24259548  1
  Ca  Ca0  1  0.00138231  0.10865971  0.00141829  1
  Ca  Ca1  1  0.01833899  0.62716054  0.49495904  1
  Ca  Ca2  1  0.01848944  0.62726194  0.99599037  1
  Ca  Ca3  1  0.53700032  0.12652418  0.48533108  1
  Ca  Ca4  1  0.54160221  0.12591688  0.98256515  1
  Ca  Ca5  1  0.52263289  0.62550047  0.49813668  1
  Ca  Ca6  1  0.52216827  0.62513822  0.99887478  1
  Ca  Ca7  1  0.49524550  0.39234926  0.50282460  1
  Ca  Ca8  1  0.49224006  0.85717754  0.00125876  1
  Ca  Ca9  1  0.49382740  0.85692304  0.50155425  1
  Ca  Ca10  1  0.96654562  0.38763406  0.99929819  1
  Ca  Ca11  1  0.96291041  0.38635216  0.49812386  1
  Ca  Ca12  1  0.97111657  0.87230347  0.00909445  1
  Ca  Ca13  1  0.97144611  0.87304877  0.50861432  1
  Ca  Ca14  1  0.23100871  0.39531453  0.75640928  1
  Ca  Ca15  1  0.22385167  0.87141312  0.25284886  1
  Ca  Ca16  1  0.22358710  0.87092738  0.75118582  1
  Ca  Ca17  1  0.74230943  0.39281057  0.25322942  1
  Ca  Ca18  1  0.73712271  0.38910979  0.74962631  1
  Ca  Ca19  1  0.74281797  0.86104063  0.25196353  1
  Ca  Ca20  1  0.74170319  0.86173655  0.75006303  1
  Ca  Ca21  1  0.22614847  0.11121080  0.74354720  1
  Ca  Ca22  1  0.26895096  0.62955329  0.25776021  1
  Ca  Ca23  1  0.26943549  0.62928620  0.75827530  1
  Ca  Ca24  1  0.77876031  0.11895612  0.25013893  1
  Ca  Ca25  1  0.78286661  0.11926052  0.75481804  1
  Ca  Ca26  1  0.77143886  0.62586170  0.25404995  1
  Ca  Ca27  1  0.77120903  0.62504211  0.75670541  1
  Mn  Mn0  1  0.99119557  0.99163602  0.25384130  1
  Mn  Mn1  1  0.99242340  0.99123684  0.75515532  1
  Mn  Mn2  1  0.00218489  0.50381531  0.24791123  1
  Mn  Mn3  1  0.00067935  0.50302094  0.74793446  1
  Mn  Mn4  1  0.50997707  0.98296086  0.23239850  1
  Mn  Mn5  1  0.50925441  0.98364157  0.73494959  1
  Mn  Mn6  1  0.49991361  0.50672081  0.25237612  1
  Mn  Mn7  1  0.49689413  0.50584523  0.75059588  1
  Mn  Mn8  1  0.24182601  0.99441793  0.00785483  1
  Mn  Mn9  1  0.24431212  0.99443808  0.51280120  1
  Mn  Mn10  1  0.24960396  0.50691882  0.00379522  1
  Mn  Mn11  1  0.24913955  0.50678764  0.50582043  1
  Mn  Mn12  1  0.74518344  0.99692067  0.99536638  1
  Mn  Mn13  1  0.74300280  0.99812676  0.49632482  1
  Mn  Mn14  1  0.75033477  0.50481420  0.00160275  1
  Mn  Mn15  1  0.74823834  0.50497864  0.50276959  1
  Mn  Mn16  1  0.26163239  0.24023913  0.94887948  1
  Mn  Mn17  1  0.26808902  0.24014516  0.47059575  1
  Mn  Mn18  1  0.25051648  0.75211320  0.00471011  1
  Mn  Mn19  1  0.25094889  0.75201677  0.50524663  1
  Mn  Mn20  1  0.75597934  0.24968104  0.00495819  1
  Mn  Mn21  1  0.74928699  0.25104825  0.50630623  1
  Mn  Mn22  1  0.75103338  0.74730372  0.00084402  1
  Mn  Mn23  1  0.75123665  0.74698342  0.50152757  1
  Mn  Mn24  1  0.98551720  0.25546649  0.25916882  1
  Mn  Mn25  1  0.99229370  0.25534443  0.75978969  1
  Mn  Mn26  1  0.00213420  0.74858456  0.25135129  1
  Mn  Mn27  1  0.00178327  0.74823766  0.75092795  1
  Mn  Mn28  1  0.52556573  0.25781971  0.25876365  1
  Mn  Mn29  1  0.52216708  0.25571106  0.75310344  1
  Mn  Mn30  1  0.50022139  0.74690927  0.25371949  1
  Mn  Mn31  1  0.50026065  0.74635768  0.75380052  1
  O  O0  1  0.10833128  0.77637180  0.10602823  1
  O  O1  1  0.10795452  0.77602865  0.60559392  1
  O  O2  1  0.58372774  0.25133002  0.09709570  1
  O  O3  1  0.58024188  0.25825682  0.59087705  1
  O  O4  1  0.61092089  0.76558144  0.11227884  1
  O  O5  1  0.61083223  0.76474182  0.61239286  1
  O  O6  1  0.40191342  0.20747023  0.35499654  1
  O  O7  1  0.40636687  0.19900497  0.85100957  1
  O  O8  1  0.39801391  0.72929507  0.39958747  1
  O  O9  1  0.39812368  0.72918797  0.89976916  1
  O  O10  1  0.89530718  0.24247058  0.41546993  1
  O  O11  1  0.91172609  0.23759754  0.92355821  1
  O  O12  1  0.89313689  0.72853533  0.39272841  1
  O  O13  1  0.89329713  0.72835096  0.89257936  1
  O  O14  1  0.14300577  0.24258256  0.34304761  1
  O  O15  1  0.16672766  0.24920194  0.79659749  1
  O  O16  1  0.14847585  0.73517642  0.35463776  1
  O  O17  1  0.14775447  0.73430243  0.85465700  1
  O  O18  1  0.65446810  0.21698742  0.35328762  1
  O  O19  1  0.65755622  0.22170655  0.84978463  1
  O  O20  1  0.64484678  0.72605850  0.35820362  1
  O  O21  1  0.64430710  0.72562599  0.85818407  1
  O  O22  1  0.35789122  0.77448246  0.14905719  1
  O  O23  1  0.35799415  0.77361517  0.64949153  1
  O  O24  1  0.84335534  0.27598434  0.15490743  1
  O  O25  1  0.84801876  0.27492500  0.65330330  1
  O  O26  1  0.86023905  0.76789120  0.14145784  1
  O  O27  1  0.86059800  0.76864656  0.64131827  1
  O  O28  1  0.36046482  0.48891071  0.14239271  1
  O  O29  1  0.35428926  0.48838138  0.64709061  1
  O  O30  1  0.35253744  0.99222980  0.15879128  1
  O  O31  1  0.34948735  0.99247704  0.66897201  1
  O  O32  1  0.86034877  0.48342634  0.14020341  1
  O  O33  1  0.85752401  0.48158043  0.64180148  1
  O  O34  1  0.84442185  0.97746545  0.14526759  1
  O  O35  1  0.84597322  0.97904919  0.64699397  1
  O  O36  1  0.14053583  0.00986933  0.36849345  1
  O  O37  1  0.13967551  0.01132434  0.86518904  1
  O  O38  1  0.14594686  0.52018839  0.35636381  1
  O  O39  1  0.14659980  0.51913102  0.85396744  1
  O  O40  1  0.62549381  0.03030346  0.34289637  1
  O  O41  1  0.63048023  0.02875531  0.84233176  1
  O  O42  1  0.64296420  0.52276506  0.35895879  1
  O  O43  1  0.64166835  0.51859114  0.85801372  1
  O  O44  1  0.39435879  0.51680063  0.39696651  1
  O  O45  1  0.39273982  0.52012174  0.89434251  1
  O  O46  1  0.88049231  0.01499716  0.38965000  1
  O  O47  1  0.88593232  0.01464427  0.89392718  1
  O  O48  1  0.89258620  0.51710655  0.39339267  1
  O  O49  1  0.89390156  0.51855364  0.89312064  1
  O  O50  1  0.10689770  0.47997540  0.10438774  1
  O  O51  1  0.10601567  0.47651555  0.60504264  1
  O  O52  1  0.09699158  0.98204709  0.11751858  1
  O  O53  1  0.09843229  0.97987116  0.62009613  1
  O  O54  1  0.61509218  0.48934597  0.11652037  1
  O  O55  1  0.60829193  0.48773272  0.61167444  1
  O  O56  1  0.58817278  0.99101042  0.07763651  1
  O  O57  1  0.58499360  0.99136300  0.57865688  1
  O  O58  1  0.00580954  0.37918297  0.28151212  1
  O  O59  1  0.00849202  0.37865444  0.78587736  1
  O  O60  1  -0.00000900  0.87033250  0.29195880  1
  O  O61  1  0.00038414  0.87057089  0.79314670  1
  O  O62  1  0.50065258  0.37891245  0.27787356  1
  O  O63  1  0.49501516  0.37741420  0.76930408  1
  O  O64  1  0.51799620  0.86951702  0.29128222  1
  O  O65  1  0.51855351  0.86916851  0.79080575  1
  O  O66  1  0.48630167  0.62781731  0.21300006  1
  O  O67  1  0.48689211  0.62710821  0.71186569  1
  O  O68  1  0.99468636  0.13242896  0.21628582  1
  O  O69  1  0.00001370  0.13035261  0.72799608  1
  O  O70  1  0.99457762  0.62512410  0.21246911  1
  O  O71  1  0.99368495  0.62442261  0.71103103  1
  O  O72  1  0.23759827  0.12869004  0.01663238  1
  O  O73  1  0.25481277  0.12542497  0.53176031  1
  O  O74  1  0.23648087  0.63234405  0.04038933  1
  O  O75  1  0.23648459  0.63200220  0.54056148  1
  O  O76  1  0.75075744  0.12380080  0.03614639  1
  O  O77  1  0.74639381  0.12559505  0.54156770  1
  O  O78  1  0.74462978  0.62572607  0.03763360  1
  O  O79  1  0.74473274  0.62513962  0.54068465  1
  O  O80  1  0.28202625  0.35603272  0.49734846  1
  O  O81  1  0.26726820  0.35575427  0.98583335  1
  O  O82  1  0.28166240  0.88117159  0.46443993  1
  O  O83  1  0.27957901  0.88080472  0.96162323  1
  O  O84  1  0.74064870  0.37681476  0.46874649  1
  O  O85  1  0.74645569  0.37498114  0.96679575  1
  O  O86  1  0.74814531  0.87274549  0.46624200  1
  O  O87  1  0.74932848  0.87280312  0.96378298  1
loop_
_geom_bond_atom_site_label_1
_geom_bond_atom_site_label_2
_geom_bond_distance
_geom_bond_site_symmetry_2
Ca0 O47 2.243096 1_454
Ca0 O68 2.361044 1_455
Ca0 O11 2.391086 1_454
Ca0 O52 2.562149 1_545
Ca0 O72 2.594876 1_555
Ca0 O37 2.615754 1_554
Ca0 O76 2.773930 1_455
Ca1 O12 2.361485 1_455
Ca1 O71 2.362547 1_455
Ca1 O75 2.422405 1_555
Ca1 O48 2.443726 1_455
Ca1 O38 2.656414 1_555
Ca1 O16 2.685818 1_555
Ca1 O1 2.780290 1_555
Ca1 O51 2.804017 1_555
Ca2 O13 2.364371 1_455
Ca2 O70 2.365753 1_456
Ca2 O74 2.418413 1_556
Ca2 O49 2.428396 1_455
Ca2 O17 2.677602 1_555
Ca2 O39 2.692108 1_555
Ca2 O50 2.755072 1_556
Ca2 O0 2.781532 1_556
Ca3 O77 2.354019 1_555
Ca3 O40 2.371078 1_555
Ca3 O18 2.392134 1_555
Ca3 O6 2.392585 1_555
Ca3 O3 2.393545 1_555
Ca3 O57 2.397665 1_545
Ca4 O7 2.338641 1_555
Ca4 O76 2.344887 1_556
Ca4 O2 2.356690 1_556
Ca4 O41 2.366650 1_555
Ca4 O56 2.398885 1_546
Ca4 O19 2.438050 1_555
Ca5 O67 2.355666 1_555
Ca5 O8 2.365465 1_555
Ca5 O44 2.442434 1_555
Ca5 O79 2.457875 1_555
Ca5 O20 2.565728 1_555
Ca5 O42 2.576770 1_555
Ca5 O55 2.646526 1_555
Ca5 O5 2.668637 1_555
Ca6 O66 2.360381 1_556
Ca6 O9 2.367331 1_555
Ca6 O45 2.426749 1_555
Ca6 O78 2.454892 1_556
Ca6 O21 2.569566 1_555
Ca6 O43 2.620386 1_555
Ca6 O54 2.671265 1_556
Ca6 O4 2.681802 1_556
Ca7 O55 2.250395 1_555
Ca7 O80 2.389285 1_555
Ca7 O62 2.449580 1_555
Ca7 O3 2.479615 1_555
Ca7 O44 2.507957 1_555
Ca7 O29 2.671908 1_555
Ca7 O84 2.717271 1_555
Ca7 O63 2.899278 1_555
Ca7 O42 3.035849 1_555
Ca8 O4 2.268047 1_555
Ca8 O65 2.311743 1_554
Ca8 O83 2.381897 1_554
Ca8 O56 2.468312 1_555
Ca8 O9 2.489330 1_554
Ca8 O22 2.536126 1_555
Ca8 O87 2.846433 1_554
Ca9 O5 2.262554 1_555
Ca9 O64 2.307485 1_555
Ca9 O82 2.373803 1_555
Ca9 O57 2.457902 1_555
Ca9 O8 2.494576 1_555
Ca9 O23 2.551409 1_555
Ca9 O86 2.813297 1_555
Ca10 O59 2.369446 1_655
Ca10 O50 2.375077 1_656
Ca10 O85 2.426667 1_555
Ca10 O32 2.443604 1_556
Ca10 O49 2.474519 1_555
Ca10 O11 2.546217 1_555
Ca10 O24 2.781265 1_556
Ca11 O51 2.383430 1_655
Ca11 O58 2.404012 1_655
Ca11 O84 2.442643 1_555
Ca11 O33 2.453090 1_555
Ca11 O48 2.457236 1_555
Ca11 O10 2.519860 1_555
Ca11 O25 2.733122 1_555
Ca12 O0 2.358830 1_655
Ca12 O61 2.367893 1_654
Ca12 O87 2.459944 1_554
Ca12 O52 2.474867 1_655
Ca12 O26 2.492403 1_555
Ca12 O34 2.618274 1_555
Ca12 O13 2.703339 1_554
Ca12 O47 2.711251 1_564
Ca13 O1 2.365102 1_655
Ca13 O60 2.374557 1_655
Ca13 O53 2.466168 1_655
Ca13 O86 2.470351 1_555
Ca13 O27 2.494300 1_555
Ca13 O35 2.633118 1_555
Ca13 O12 2.709086 1_555
Ca13 O46 2.747191 1_565
Ca14 O29 2.313240 1_555
Ca14 O39 2.395854 1_555
Ca14 O15 2.424266 1_555
Ca14 O59 2.463277 1_555
Ca14 O51 2.472715 1_555
Ca14 O81 2.589302 1_555
Ca14 O63 2.893764 1_555
Ca14 O80 2.935971 1_555
Ca14 O45 3.003958 1_555
Ca15 O82 2.375202 1_555
Ca15 O22 2.398730 1_555
Ca15 O60 2.482405 1_555
Ca15 O0 2.497930 1_555
Ca15 O16 2.535566 1_555
Ca15 O30 2.565723 1_555
Ca15 O52 2.649232 1_555
Ca15 O36 2.666833 1_565
Ca16 O83 2.358355 1_555
Ca16 O23 2.394242 1_555
Ca16 O61 2.481257 1_555
Ca16 O1 2.488851 1_555
Ca16 O31 2.508076 1_555
Ca16 O17 2.550344 1_555
Ca16 O53 2.597257 1_555
Ca16 O37 2.685428 1_565
Ca17 O32 2.277922 1_555
Ca17 O84 2.350876 1_555
Ca17 O24 2.392203 1_555
Ca17 O54 2.521394 1_555
Ca17 O42 2.579134 1_555
Ca17 O62 2.659018 1_555
Ca17 O48 2.940696 1_555
Ca18 O33 2.280670 1_555
Ca18 O85 2.366240 1_555
Ca18 O25 2.404237 1_555
Ca18 O55 2.558412 1_555
Ca18 O43 2.568532 1_555
Ca18 O63 2.655839 1_555
Ca19 O26 2.290184 1_555
Ca19 O86 2.330366 1_555
Ca19 O34 2.426701 1_555
Ca19 O64 2.497274 1_555
Ca19 O4 2.548071 1_555
Ca19 O20 2.631519 1_555
Ca19 O60 2.833233 1_655
Ca20 O27 2.288744 1_555
Ca20 O87 2.323978 1_555
Ca20 O35 2.431885 1_555
Ca20 O65 2.481371 1_555
Ca20 O5 2.543249 1_555
Ca20 O21 2.652166 1_555
Ca20 O61 2.853952 1_655
Ca21 O37 2.254922 1_555
Ca21 O15 2.325973 1_555
Ca21 O73 2.332758 1_555
Ca21 O31 2.438612 1_545
Ca21 O69 2.487540 1_555
Ca21 O7 2.645525 1_555
Ca21 O53 2.800841 1_545
Ca21 O72 2.974219 1_556
Ca22 O16 2.366755 1_555
Ca22 O74 2.378988 1_555
Ca22 O38 2.424293 1_555
Ca22 O66 2.425189 1_555
Ca22 O8 2.584372 1_555
Ca22 O44 2.686041 1_555
Ca22 O28 2.725546 1_555
Ca22 O22 2.731945 1_555
Ca23 O17 2.365191 1_555
Ca23 O75 2.383352 1_555
Ca23 O39 2.417962 1_555
Ca23 O67 2.430326 1_555
Ca23 O9 2.581576 1_555
Ca23 O45 2.618761 1_555
Ca23 O29 2.681524 1_555
Ca23 O23 2.723103 1_555
Ca24 O76 2.337475 1_555
Ca24 O18 2.342304 1_555
Ca24 O68 2.395318 1_555
Ca24 O40 2.396972 1_555
Ca24 O46 2.475145 1_555
Ca24 O34 2.591274 1_545
Ca24 O24 2.752968 1_555
Ca24 O10 2.906424 1_555
Ca25 O77 2.343015 1_555
Ca25 O19 2.353661 1_555
Ca25 O41 2.383234 1_555
Ca25 O69 2.394103 1_655
Ca25 O47 2.485738 1_555
Ca25 O35 2.580805 1_545
Ca25 O25 2.762389 1_555
Ca25 O11 2.936934 1_555
Ca26 O78 2.360709 1_555
Ca26 O20 2.384516 1_555
Ca26 O42 2.423215 1_555
Ca26 O70 2.479857 1_555
Ca26 O12 2.550625 1_555
Ca26 O48 2.622769 1_555
Ca26 O26 2.713065 1_555
Ca26 O32 2.730133 1_555
Ca27 O79 2.356063 1_555
Ca27 O21 2.376698 1_555
Ca27 O43 2.446726 1_555
Ca27 O71 2.481831 1_555
Ca27 O13 2.541491 1_555
Ca27 O49 2.590357 1_555
Ca27 O33 2.738297 1_555
Ca27 O27 2.749295 1_555
Mn0 O52 1.893877 1_655
Mn0 O60 1.940899 1_655
Mn0 O46 1.952171 1_565
Mn0 O34 1.984063 1_555
Mn0 O36 2.052592 1_665
Mn0 O68 2.235616 1_565
Mn1 O53 1.886994 1_655
Mn1 O61 1.930449 1_655
Mn1 O47 1.948702 1_565
Mn1 O35 1.975574 1_555
Mn1 O37 2.009355 1_665
Mn1 O69 2.192856 1_665
Mn2 O70 1.934372 1_455
Mn2 O32 1.948888 1_455
Mn2 O38 1.961241 1_555
Mn2 O50 1.978965 1_555
Mn2 O58 1.979983 1_555
Mn2 O48 2.003440 1_455
Mn3 O71 1.938723 1_455
Mn3 O33 1.952921 1_455
Mn3 O39 1.964198 1_555
Mn3 O51 1.985874 1_555
Mn3 O49 1.986361 1_455
Mn3 O59 1.986683 1_555
Mn4 O40 1.874252 1_565
Mn4 O64 1.884950 1_555
Mn4 O30 1.888461 1_555
Mn4 O56 1.896979 1_555
Mn5 O31 1.878897 1_555
Mn5 O41 1.882196 1_565
Mn5 O65 1.889960 1_555
Mn5 O57 1.899343 1_555
Mn6 O28 1.937320 1_555
Mn6 O42 1.942585 1_555
Mn6 O66 1.944092 1_555
Mn6 O44 1.964432 1_555
Mn6 O54 1.968396 1_555
Mn6 O62 2.014255 1_555
Mn7 O29 1.922330 1_555
Mn7 O67 1.942426 1_555
Mn7 O45 1.954451 1_555
Mn7 O43 1.957117 1_555
Mn7 O55 1.969170 1_555
Mn7 O63 2.015053 1_555
Mn8 O83 1.891006 1_554
Mn8 O37 1.912396 1_564
Mn8 O52 1.998559 1_555
Mn8 O30 2.019982 1_555
Mn8 O72 2.098511 1_565
Mn9 O82 1.891257 1_555
Mn9 O36 1.933696 1_565
Mn9 O53 1.995766 1_555
Mn9 O31 2.031753 1_555
Mn9 O73 2.056968 1_565
Mn10 O28 1.936572 1_555
Mn10 O50 1.956751 1_555
Mn10 O39 1.971594 1_554
Mn10 O45 1.983690 1_554
Mn10 O74 2.003167 1_555
Mn10 O81 2.376122 1_554
Mn11 O29 1.922733 1_555
Mn11 O51 1.963683 1_555
Mn11 O38 1.971412 1_555
Mn11 O44 1.993496 1_555
Mn11 O75 1.995670 1_555
Mn11 O80 2.383687 1_555
Mn12 O47 1.919466 1_565
Mn12 O56 1.942925 1_556
Mn12 O34 1.964331 1_556
Mn12 O87 1.967697 1_555
Mn12 O76 2.029021 1_566
Mn12 O41 2.124275 1_565
Mn13 O46 1.923316 1_565
Mn13 O57 1.953526 1_555
Mn13 O86 1.984746 1_555
Mn13 O35 1.992418 1_555
Mn13 O77 2.048572 1_565
Mn13 O40 2.146651 1_565
Mn14 O78 1.928219 1_555
Mn14 O32 1.939536 1_555
Mn14 O43 1.955533 1_554
Mn14 O54 1.957901 1_555
Mn14 O49 1.981899 1_554
Mn14 O85 2.060950 1_554
Mn15 O79 1.920193 1_555
Mn15 O42 1.943870 1_555
Mn15 O33 1.944086 1_555
Mn15 O55 1.959993 1_555
Mn15 O48 1.992090 1_555
Mn15 O84 2.034747 1_555
Mn16 O81 1.847016 1_555
Mn16 O72 1.908855 1_556
Mn16 O15 1.941551 1_555
Mn16 O7 2.021077 1_555
Mn17 O80 1.836758 1_555
Mn17 O73 1.915702 1_555
Mn17 O14 1.928721 1_555
Mn17 O6 2.004118 1_555
Mn18 O74 1.915248 1_555
Mn18 O0 1.950662 1_555
Mn18 O22 1.970813 1_555
Mn18 O17 1.980730 1_554
Mn18 O9 2.016886 1_554
Mn18 O83 2.086480 1_554
Mn19 O75 1.918554 1_555
Mn19 O1 1.950994 1_555
Mn19 O23 1.965802 1_555
Mn19 O16 1.981889 1_555
Mn19 O8 2.016053 1_555
Mn19 O82 2.090754 1_555
Mn20 O24 1.915691 1_555
Mn20 O11 1.934308 1_554
Mn20 O76 1.994695 1_555
Mn20 O85 2.002335 1_554
Mn20 O19 2.028552 1_554
Mn20 O2 2.139454 1_555
Mn21 O10 1.888741 1_555
Mn21 O25 1.945128 1_555
Mn21 O77 1.995677 1_555
Mn21 O84 2.007617 1_555
Mn21 O18 2.011866 1_555
Mn21 O3 2.073187 1_555
Mn22 O78 1.940646 1_555
Mn22 O26 1.946368 1_555
Mn22 O21 1.950481 1_554
Mn22 O13 1.981247 1_554
Mn22 O4 1.982282 1_555
Mn22 O87 2.000173 1_554
Mn23 O27 1.943270 1_555
Mn23 O79 1.950218 1_555
Mn23 O20 1.952045 1_555
Mn23 O5 1.979768 1_555
Mn23 O12 1.980436 1_555
Mn23 O86 2.000626 1_555
Mn24 O24 1.933234 1_555
Mn24 O14 1.942544 1_655
Mn24 O58 1.956891 1_655
Mn24 O68 1.978645 1_555
Mn24 O10 1.981583 1_555
Mn25 O15 1.939928 1_655
Mn25 O59 1.951744 1_655
Mn25 O25 1.962978 1_555
Mn25 O69 1.983078 1_655
Mn25 O11 2.011107 1_555
Mn26 O16 1.948135 1_555
Mn26 O60 1.950393 1_555
Mn26 O26 1.963561 1_455
Mn26 O70 1.973132 1_455
Mn26 O12 1.977052 1_455
Mn26 O0 2.014857 1_555
Mn27 O17 1.948514 1_555
Mn27 O27 1.958499 1_455
Mn27 O61 1.963130 1_555
Mn27 O13 1.975594 1_455
Mn27 O71 1.981097 1_455
Mn27 O1 2.014799 1_555
Mn28 O18 1.843872 1_555
Mn28 O2 1.875393 1_555
Mn28 O6 1.885333 1_555
Mn28 O62 1.922087 1_555
Mn29 O19 1.877015 1_555
Mn29 O3 1.878369 1_555
Mn29 O7 1.879610 1_555
Mn29 O63 1.932041 1_555
Mn30 O66 1.914791 1_555
Mn30 O20 1.956873 1_555
Mn30 O22 1.958902 1_555
Mn30 O64 1.964126 1_555
Mn30 O8 1.966357 1_555
Mn30 O4 1.985757 1_555
Mn31 O67 1.919807 1_555
Mn31 O21 1.950903 1_555
Mn31 O23 1.955082 1_555
Mn31 O9 1.965856 1_555
Mn31 O65 1.966506 1_555
Mn31 O5 1.983971 1_555
O2 Sr1 2.549960 1_554
O6 Sr3 2.625519 1_555
O10 Sr0 2.462061 1_655
O14 Sr3 2.454797 1_555
O14 Sr2 2.661552 1_555
O14 Sr0 3.009130 1_555
O28 Sr2 2.424473 1_555
O28 Sr1 2.687623 1_554
O30 Sr3 2.528869 1_565
O36 Sr3 2.370782 1_555
O36 Sr0 2.666345 1_555
O38 Sr2 2.533111 1_555
O43 Sr1 3.006858 1_555
O44 Sr2 2.988984 1_555
O45 Sr1 2.626375 1_555
O46 Sr0 2.389019 1_655
O50 Sr2 2.643534 1_555
O52 Sr3 2.875179 1_565
O53 Sr0 2.710005 1_565
O54 Sr1 2.383305 1_554
O58 Sr2 2.568321 1_555
O62 Sr2 2.849119 1_555
O62 Sr1 3.017749 1_554
O63 Sr1 2.504444 1_555
O68 Sr3 2.598215 1_655
O69 Sr0 2.486713 1_555
O72 Sr3 2.460180 1_555
O73 Sr0 2.751468 1_555
O77 Sr0 2.856407 1_655
O80 Sr2 2.648558 1_555
O81 Sr1 2.564137 1_555
O81 Sr2 3.042216 1_556
O85 Sr1 2.743811 1_555
