# generated using pymatgen
data_Hf2Be17
_symmetry_space_group_name_H-M   'P 1'
_cell_length_a   5.64008537
_cell_length_b   5.64008537
_cell_length_c   5.64008535
_cell_angle_alpha   82.99649304
_cell_angle_beta   82.99649304
_cell_angle_gamma   82.99650893
_symmetry_Int_Tables_number   1
_chemical_formula_structural   Hf2Be17
_chemical_formula_sum   'Hf2 Be17'
_cell_volume   175.70006488
_cell_formula_units_Z   1
loop_
 _symmetry_equiv_pos_site_id
 _symmetry_equiv_pos_as_xyz
  1  'x, y, z'
loop_
 _atom_site_type_symbol
 _atom_site_label
 _atom_site_symmetry_multiplicity
 _atom_site_fract_x
 _atom_site_fract_y
 _atom_site_fract_z
 _atom_site_occupancy
  Hf  Hf0  1  0.83810811  0.83810811  0.83810811  1
  Hf  Hf1  1  0.16189189  0.16189189  0.16189189  1
  Be  Be0  1  0.59745204  0.59745204  0.59745204  1
  Be  Be1  1  0.40254796  0.40254796  0.40254796  1
  Be  Be2  1  0.50000000  0.50000000  -0.00000000  1
  Be  Be3  1  -0.00000000  0.50000000  0.50000000  1
  Be  Be4  1  0.50000000  -0.00000000  0.50000000  1
  Be  Be5  1  0.21184871  0.50000000  0.78815129  1
  Be  Be6  1  0.78815129  0.21184871  0.50000000  1
  Be  Be7  1  0.50000000  0.78815129  0.21184871  1
  Be  Be8  1  0.78815129  0.50000000  0.21184871  1
  Be  Be9  1  0.21184871  0.78815129  0.50000000  1
  Be  Be10  1  0.50000000  0.21184871  0.78815129  1
  Be  Be11  1  0.84464276  0.34018721  0.84464276  1
  Be  Be12  1  0.84464276  0.84464276  0.34018721  1
  Be  Be13  1  0.34018721  0.84464276  0.84464276  1
  Be  Be14  1  0.15535724  0.65981279  0.15535724  1
  Be  Be15  1  0.15535724  0.15535724  0.65981279  1
  Be  Be16  1  0.65981279  0.15535724  0.15535724  1
loop_
_geom_bond_atom_site_label_1
_geom_bond_atom_site_label_2
_geom_bond_distance
_geom_bond_site_symmetry_2
Be0 Be1 2.123504 1_555
Be0 Be2 2.285604 1_556
Be0 Be4 2.285604 1_565
Be0 Be3 2.285604 1_655
Be0 Be12 2.340985 1_555
Be0 Be11 2.340986 1_555
Be0 Be13 2.340986 1_555
Be0 Be5 2.401198 1_555
Be0 Be10 2.401198 1_555
Be0 Be7 2.401198 1_555
Be0 Be8 2.401198 1_555
Be0 Be9 2.401199 1_555
Be0 Be6 2.401199 1_555
Be0 Hf0 2.621977 1_555
Be1 Be2 2.285604 1_555
Be1 Be4 2.285604 1_555
Be1 Be3 2.285604 1_555
Be1 Be15 2.340985 1_555
Be1 Be16 2.340986 1_555
Be1 Be14 2.340986 1_555
Be1 Be7 2.401198 1_555
Be1 Be8 2.401198 1_555
Be1 Be5 2.401198 1_555
Be1 Be10 2.401198 1_555
Be1 Be9 2.401199 1_555
Be1 Be6 2.401199 1_555
Be1 Hf1 2.621977 1_555
Be2 Be7 2.131306 1_555
Be2 Be8 2.131306 1_555
Be2 Be5 2.131306 1_554
Be2 Hf1 2.853817 1_555
Be2 Hf0 2.853817 1_554
Be3 Be9 2.131306 1_555
Be3 Be6 2.131306 1_455
Be3 Be5 2.131306 1_555
Be3 Be8 2.131306 1_455
Be3 Hf1 2.853818 1_555
Be3 Hf0 2.853818 1_455
Be4 Be6 2.131306 1_555
Be4 Be9 2.131306 1_545
Be4 Be7 2.131306 1_545
Be4 Hf0 2.853818 1_545
Be4 Hf1 2.853818 1_555
Be5 Be9 2.153703 1_555
Be5 Hf1 2.676786 1_556
Be5 Hf0 2.676786 1_455
Be6 Be8 2.153703 1_555
Be6 Hf1 2.676786 1_655
Be6 Hf0 2.676786 1_545
Be7 Be9 2.153703 1_555
Be7 Be8 2.153703 1_555
Be7 Hf0 2.676786 1_554
Be7 Hf1 2.676786 1_565
Be8 Hf0 2.676786 1_554
Be8 Hf1 2.676786 1_655
Be9 Hf0 2.676786 1_455
Be9 Hf1 2.676786 1_565
Be10 Be4 2.131306 1_555
Be10 Be2 2.131306 1_556
Be10 Be6 2.153703 1_555
Be10 Be5 2.153703 1_555
Be10 Be11 2.225817 1_555
Be10 Be15 2.225817 1_555
Be10 Be13 2.329718 1_545
Be10 Be16 2.329718 1_556
Be10 Hf1 2.676786 1_556
Be10 Hf0 2.676786 1_545
Be11 Be16 2.149080 1_556
Be11 Be15 2.149080 1_655
Be11 Be3 2.169937 1_655
Be11 Be2 2.169937 1_556
Be11 Be6 2.225817 1_555
Be11 Be5 2.329718 1_655
Be11 Be8 2.329718 1_556
Be11 Hf1 2.705123 1_656
Be11 Hf0 2.799859 1_555
Be11 Hf0 2.841279 1_545
Be12 Be16 2.149080 1_565
Be12 Be14 2.149080 1_655
Be12 Be4 2.169937 1_565
Be12 Be3 2.169937 1_655
Be12 Be8 2.225817 1_555
Be12 Be7 2.225817 1_555
Be12 Be6 2.329718 1_565
Be12 Be9 2.329718 1_655
Be12 Hf1 2.705122 1_665
Be12 Hf0 2.799859 1_555
Be12 Hf0 2.841279 1_554
Be13 Be14 2.149080 1_556
Be13 Be15 2.149080 1_565
Be13 Be4 2.169937 1_565
Be13 Be2 2.169937 1_556
Be13 Be5 2.225817 1_555
Be13 Be9 2.225817 1_555
Be13 Be7 2.329718 1_556
Be13 Hf1 2.705123 1_566
Be13 Hf0 2.799859 1_555
Be13 Hf0 2.841279 1_455
Be14 Be3 2.169937 1_555
Be14 Be2 2.169937 1_555
Be14 Be7 2.225817 1_555
Be14 Be9 2.225817 1_555
Be14 Be8 2.329718 1_455
Be14 Be5 2.329718 1_554
Be14 Hf0 2.705123 1_454
Be14 Hf1 2.799859 1_555
Be14 Hf1 2.841279 1_565
Be15 Be3 2.169937 1_555
Be15 Be4 2.169937 1_555
Be15 Be5 2.225817 1_555
Be15 Be6 2.329718 1_455
Be15 Be9 2.329718 1_545
Be15 Hf0 2.705122 1_445
Be15 Hf1 2.799859 1_555
Be15 Hf1 2.841279 1_556
Be16 Be4 2.169937 1_555
Be16 Be2 2.169937 1_555
Be16 Be8 2.225817 1_555
Be16 Be6 2.225817 1_555
Be16 Be7 2.329718 1_545
Be16 Hf0 2.705123 1_544
Be16 Hf1 2.799859 1_555
Be16 Hf1 2.841279 1_655
