# generated using pymatgen
data_EuAl12O19
_symmetry_space_group_name_H-M   'P 1'
_cell_length_a   5.56439693
_cell_length_b   5.56439649
_cell_length_c   21.96755593
_cell_angle_alpha   89.99999112
_cell_angle_beta   89.99999944
_cell_angle_gamma   119.99996136
_symmetry_Int_Tables_number   1
_chemical_formula_structural   EuAl12O19
_chemical_formula_sum   'Eu2 Al24 O38'
_cell_volume   589.04532290
_cell_formula_units_Z   2
loop_
 _symmetry_equiv_pos_site_id
 _symmetry_equiv_pos_as_xyz
  1  'x, y, z'
loop_
 _atom_site_type_symbol
 _atom_site_label
 _atom_site_symmetry_multiplicity
 _atom_site_fract_x
 _atom_site_fract_y
 _atom_site_fract_z
 _atom_site_occupancy
  Eu  Eu0  1  0.66666930  0.33333461  0.99037147  1
  Eu  Eu1  1  0.33333370  0.66666886  0.49037081  1
  Al  Al0  1  0.66666661  0.33333421  0.55198169  1
  Al  Al1  1  0.33333384  0.66666697  0.05198197  1
  Al  Al2  1  0.66666594  0.33333440  0.27081755  1
  Al  Al3  1  0.33333325  0.66666568  0.77081779  1
  Al  Al4  1  0.00000012  -0.00000028  0.74265280  1
  Al  Al5  1  -0.00000069  0.00000134  0.24265219  1
  Al  Al6  1  0.00000068  0.00000012  0.00252223  1
  Al  Al7  1  -0.00000019  0.00000079  0.50252192  1
  Al  Al8  1  0.83241662  0.66483032  0.85124394  1
  Al  Al9  1  0.83241596  0.16758073  0.85124377  1
  Al  Al10  1  0.16758293  0.33516798  0.35124349  1
  Al  Al11  1  0.33516685  0.16758037  0.85124398  1
  Al  Al12  1  0.16758299  0.83241747  0.35124347  1
  Al  Al13  1  0.66483269  0.83241780  0.35124343  1
  Al  Al14  1  0.66666664  0.33333324  0.71425953  1
  Al  Al15  1  0.33333331  0.66666729  0.21425932  1
  Al  Al16  1  0.16914906  0.33829880  0.63436358  1
  Al  Al17  1  0.16914896  0.83085156  0.63436354  1
  Al  Al18  1  0.83085142  0.66170187  0.13436381  1
  Al  Al19  1  0.66170188  0.83085148  0.63436361  1
  Al  Al20  1  0.83085134  0.16914919  0.13436370  1
  Al  Al21  1  0.33829848  0.16914905  0.13436378  1
  Al  Al22  1  0.66666663  0.33333438  0.43341333  1
  Al  Al23  1  0.33333356  0.66666405  0.93341360  1
  O  O0  1  0.15532948  0.31065836  0.79359698  1
  O  O1  1  0.15532984  0.84466911  0.79359684  1
  O  O2  1  0.84466931  0.68933992  0.29359659  1
  O  O3  1  0.68934073  0.84466935  0.79359701  1
  O  O4  1  0.84466922  0.15533117  0.29359651  1
  O  O5  1  0.31066061  0.15533122  0.29359657  1
  O  O6  1  -0.00000025  0.00000041  0.59249575  1
  O  O7  1  0.00000016  -0.00000007  0.09249577  1
  O  O8  1  0.18127857  0.36255656  0.99344899  1
  O  O9  1  0.18127823  0.81872126  0.99344901  1
  O  O10  1  0.81872121  0.63744404  0.49344866  1
  O  O11  1  0.63744432  0.81872119  0.99344907  1
  O  O12  1  0.81872147  0.18127882  0.49344876  1
  O  O13  1  0.36255613  0.18127876  0.49344865  1
  O  O14  1  0.50199360  0.00398460  0.89072049  1
  O  O15  1  0.50199304  0.49800463  0.89072083  1
  O  O16  1  0.49800591  0.99601391  0.39072039  1
  O  O17  1  0.99601280  0.49800567  0.89072079  1
  O  O18  1  0.49800707  0.50199349  0.39072002  1
  O  O19  1  0.00398651  0.50199441  0.39072045  1
  O  O20  1  -0.00000055  -0.00000213  0.88930080  1
  O  O21  1  -0.00000004  0.00000047  0.38930013  1
  O  O22  1  0.84551494  0.69102977  0.69002047  1
  O  O23  1  0.84551476  0.15448519  0.69002056  1
  O  O24  1  0.15448507  0.30897089  0.19002031  1
  O  O25  1  0.30897009  0.15448516  0.69002052  1
  O  O26  1  0.15448541  0.84551500  0.19002026  1
  O  O27  1  0.69102953  0.84551529  0.19002031  1
  O  O28  1  0.66666659  0.33333215  0.79670688  1
  O  O29  1  0.33333322  0.66666729  0.29670626  1
  O  O30  1  0.66666662  0.33333356  0.18808975  1
  O  O31  1  0.33333349  0.66666669  0.68808987  1
  O  O32  1  0.49775799  0.99551660  0.59463550  1
  O  O33  1  0.49775795  0.50224221  0.59463556  1
  O  O34  1  0.50224234  0.00448375  0.09463565  1
  O  O35  1  0.00448397  0.50224245  0.59463547  1
  O  O36  1  0.50224219  0.49775847  0.09463571  1
  O  O37  1  0.99551655  0.49775810  0.09463558  1
loop_
_geom_bond_atom_site_label_1
_geom_bond_atom_site_label_2
_geom_bond_distance
_geom_bond_site_symmetry_2
Eu0 O17 2.703866 1_555
Eu0 O15 2.703873 1_555
Eu0 O14 2.703890 1_555
Eu0 O37 2.785191 1_556
Eu0 O34 2.785202 1_556
Eu0 O36 2.785203 1_556
Eu0 O9 2.786569 1_655
Eu0 O8 2.786571 1_655
Eu0 O11 2.786575 1_555
Eu0 O11 2.786586 1_545
Eu0 O8 2.786589 1_555
Eu0 O9 2.786594 1_545
Eu1 O16 2.703866 1_555
Eu1 O19 2.703871 1_555
Eu1 O18 2.703883 1_555
Eu1 O32 2.785203 1_555
Eu1 O35 2.785207 1_555
Eu1 O33 2.785212 1_555
Eu1 O13 2.786573 1_565
Eu1 O12 2.786576 1_565
Eu1 O10 2.786580 1_555
Eu1 O10 2.786581 1_455
Eu1 O13 2.786587 1_555
Eu1 O12 2.786588 1_455
Al0 O33 1.878312 1_555
Al0 O35 1.878314 1_655
Al0 O32 1.878315 1_545
Al0 O12 1.949609 1_555
Al0 O10 1.949610 1_555
Al0 O13 1.949613 1_555
Al1 O36 1.878311 1_555
Al1 O34 1.878311 1_565
Al1 O37 1.878312 1_455
Al1 O9 1.949608 1_554
Al1 O11 1.949610 1_554
Al1 O8 1.949611 1_554
Al2 O5 1.787047 1_555
Al2 O2 1.787048 1_555
Al2 O4 1.787052 1_555
Al2 O30 1.817328 1_555
Al3 O1 1.787054 1_555
Al3 O0 1.787058 1_555
Al3 O3 1.787059 1_555
Al3 O31 1.817330 1_555
Al4 O0 1.869103 1_555
Al4 O3 1.869106 1_445
Al4 O1 1.869107 1_545
Al4 O25 1.885106 1_555
Al4 O22 1.885106 1_445
Al4 O23 1.885108 1_455
Al5 O4 1.869109 1_455
Al5 O5 1.869116 1_555
Al5 O2 1.869116 1_445
Al5 O24 1.885099 1_555
Al5 O27 1.885100 1_445
Al5 O26 1.885110 1_545
Al6 O9 1.758458 1_544
Al6 O11 1.758459 1_444
Al6 O8 1.758460 1_554
Al6 O7 1.976499 1_555
Al7 O12 1.758458 1_455
Al7 O13 1.758459 1_555
Al7 O10 1.758461 1_445
Al7 O6 1.976505 1_555
Al8 O17 1.813133 1_555
Al8 O15 1.813145 1_555
Al8 O20 1.818683 1_665
Al8 O28 1.996796 1_555
Al8 O1 2.008871 1_655
Al8 O3 2.008874 1_555
Al9 O14 1.813138 1_555
Al9 O17 1.813153 1_555
Al9 O20 1.818679 1_655
Al9 O28 1.996803 1_555
Al9 O3 2.008859 1_545
Al9 O0 2.008866 1_655
Al10 O19 1.813142 1_555
Al10 O18 1.813144 1_555
Al10 O21 1.818681 1_555
Al10 O29 1.996802 1_555
Al10 O4 2.008870 1_455
Al10 O5 2.008871 1_555
Al11 O14 1.813136 1_555
Al11 O15 1.813148 1_555
Al11 O20 1.818682 1_555
Al11 O28 1.996802 1_555
Al11 O1 2.008864 1_545
Al11 O0 2.008876 1_555
Al12 O16 1.813143 1_555
Al12 O19 1.813144 1_555
Al12 O21 1.818674 1_565
Al12 O29 1.996806 1_555
Al12 O2 2.008869 1_455
Al12 O5 2.008869 1_565
Al13 O16 1.813143 1_555
Al13 O18 1.813145 1_555
Al13 O21 1.818680 1_665
Al13 O29 1.996802 1_555
Al13 O4 2.008868 1_565
Al13 O2 2.008870 1_555
Al14 O23 1.804074 1_555
Al14 O22 1.804077 1_555
Al14 O25 1.804077 1_555
Al14 O28 1.811167 1_555
Al15 O26 1.804072 1_555
Al15 O27 1.804076 1_555
Al15 O24 1.804077 1_555
Al15 O29 1.811158 1_555
Al16 O35 1.808105 1_555
Al16 O33 1.808106 1_555
Al16 O6 1.871780 1_555
Al16 O31 1.974049 1_555
Al16 O25 1.985470 1_555
Al16 O23 1.985470 1_455
Al17 O32 1.808107 1_555
Al17 O35 1.808107 1_555
Al17 O6 1.871777 1_565
Al17 O31 1.974054 1_555
Al17 O25 1.985467 1_565
Al17 O22 1.985468 1_455
Al18 O37 1.808107 1_555
Al18 O36 1.808108 1_555
Al18 O7 1.871780 1_665
Al18 O30 1.974045 1_555
Al18 O26 1.985462 1_655
Al18 O27 1.985466 1_555
Al19 O32 1.808106 1_555
Al19 O33 1.808108 1_555
Al19 O6 1.871778 1_665
Al19 O31 1.974050 1_555
Al19 O23 1.985467 1_565
Al19 O22 1.985469 1_555
Al20 O34 1.808107 1_555
Al20 O37 1.808107 1_555
Al20 O7 1.871779 1_655
Al20 O30 1.974049 1_555
Al20 O24 1.985462 1_655
Al20 O27 1.985463 1_545
Al21 O34 1.808107 1_555
Al21 O36 1.808108 1_555
Al21 O7 1.871782 1_555
Al21 O30 1.974045 1_555
Al21 O26 1.985462 1_545
Al21 O24 1.985467 1_555
Al22 O18 1.876665 1_555
Al22 O19 1.876666 1_655
Al22 O16 1.876669 1_545
Al22 O10 1.971531 1_555
Al22 O13 1.971534 1_555
Al22 O12 1.971535 1_555
Al23 O15 1.876660 1_555
Al23 O17 1.876669 1_455
Al23 O14 1.876671 1_565
Al23 O8 1.971524 1_555
Al23 O11 1.971537 1_555
Al23 O9 1.971542 1_555
