# generated using pymatgen
data_LiMg3P3O11
_symmetry_space_group_name_H-M   'P 1'
_cell_length_a   8.40362200
_cell_length_b   9.15723100
_cell_length_c   10.72919200
_cell_angle_alpha   90.00000000
_cell_angle_beta   90.00000000
_cell_angle_gamma   90.00000000
_symmetry_Int_Tables_number   1
_chemical_formula_structural   LiMg3P3O11
_chemical_formula_sum   'Li4 Mg12 P12 O44'
_cell_volume   825.65325291
_cell_formula_units_Z   4
loop_
 _symmetry_equiv_pos_site_id
 _symmetry_equiv_pos_as_xyz
  1  'x, y, z'
loop_
 _atom_site_type_symbol
 _atom_site_label
 _atom_site_symmetry_multiplicity
 _atom_site_fract_x
 _atom_site_fract_y
 _atom_site_fract_z
 _atom_site_occupancy
  Li  Li0  1  0.02526000  0.81275400  0.75000000  1
  Li  Li1  1  0.47474000  0.31275400  0.75000000  1
  Li  Li2  1  0.97474000  0.18724600  0.25000000  1
  Li  Li3  1  0.52526000  0.68724600  0.25000000  1
  Mg  Mg0  1  0.85955100  0.54558600  0.08997500  1
  Mg  Mg1  1  0.64044900  0.04558600  0.41002500  1
  Mg  Mg2  1  0.14044900  0.45441400  0.58997500  1
  Mg  Mg3  1  0.35955100  0.95441400  0.91002500  1
  Mg  Mg4  1  0.14044900  0.45441400  0.91002500  1
  Mg  Mg5  1  0.35955100  0.95441400  0.58997500  1
  Mg  Mg6  1  0.85955100  0.54558600  0.41002500  1
  Mg  Mg7  1  0.64044900  0.04558600  0.08997500  1
  Mg  Mg8  1  0.00000000  0.00000000  0.00000000  1
  Mg  Mg9  1  0.50000000  0.50000000  0.50000000  1
  Mg  Mg10  1  0.00000000  0.00000000  0.50000000  1
  Mg  Mg11  1  0.50000000  0.50000000  0.00000000  1
  P  P0  1  0.21406300  0.71084300  0.10906600  1
  P  P1  1  0.28593700  0.21084300  0.39093400  1
  P  P2  1  0.78593700  0.28915700  0.60906600  1
  P  P3  1  0.71406300  0.78915700  0.89093400  1
  P  P4  1  0.78593700  0.28915700  0.89093400  1
  P  P5  1  0.71406300  0.78915700  0.60906600  1
  P  P6  1  0.21406300  0.71084300  0.39093400  1
  P  P7  1  0.28593700  0.21084300  0.10906600  1
  P  P8  1  0.28952200  0.64684200  0.75000000  1
  P  P9  1  0.21047800  0.14684200  0.75000000  1
  P  P10  1  0.71047800  0.35315800  0.25000000  1
  P  P11  1  0.78952200  0.85315800  0.25000000  1
  O  O0  1  0.20079800  0.85012200  0.02997500  1
  O  O1  1  0.29920200  0.35012200  0.47002500  1
  O  O2  1  0.79920200  0.14987800  0.52997500  1
  O  O3  1  0.70079800  0.64987800  0.97002500  1
  O  O4  1  0.79920200  0.14987800  0.97002500  1
  O  O5  1  0.70079800  0.64987800  0.52997500  1
  O  O6  1  0.20079800  0.85012200  0.47002500  1
  O  O7  1  0.29920200  0.35012200  0.02997500  1
  O  O8  1  0.60759200  0.89161600  0.25000000  1
  O  O9  1  0.89240800  0.39161600  0.25000000  1
  O  O10  1  0.39240800  0.10838400  0.75000000  1
  O  O11  1  0.10759200  0.60838400  0.75000000  1
  O  O12  1  0.85534000  0.92738100  0.13248000  1
  O  O13  1  0.64466000  0.42738100  0.36752000  1
  O  O14  1  0.14466000  0.07261900  0.63248000  1
  O  O15  1  0.35534000  0.57261900  0.86752000  1
  O  O16  1  0.14466000  0.07261900  0.86752000  1
  O  O17  1  0.35534000  0.57261900  0.63248000  1
  O  O18  1  0.85534000  0.92738100  0.36752000  1
  O  O19  1  0.64466000  0.42738100  0.13248000  1
  O  O20  1  0.38210800  0.64950100  0.11512400  1
  O  O21  1  0.11789200  0.14950100  0.38487600  1
  O  O22  1  0.61789200  0.35049900  0.61512400  1
  O  O23  1  0.88210800  0.85049900  0.88487600  1
  O  O24  1  0.61789200  0.35049900  0.88487600  1
  O  O25  1  0.88210800  0.85049900  0.61512400  1
  O  O26  1  0.38210800  0.64950100  0.38487600  1
  O  O27  1  0.11789200  0.14950100  0.11512400  1
  O  O28  1  0.31130200  0.81503500  0.75000000  1
  O  O29  1  0.18869800  0.31503500  0.75000000  1
  O  O30  1  0.68869800  0.18496500  0.25000000  1
  O  O31  1  0.81130200  0.68496500  0.25000000  1
  O  O32  1  0.08978800  0.59840500  0.06361600  1
  O  O33  1  0.41021200  0.09840500  0.43638400  1
  O  O34  1  0.91021200  0.40159500  0.56361600  1
  O  O35  1  0.58978800  0.90159500  0.93638400  1
  O  O36  1  0.91021200  0.40159500  0.93638400  1
  O  O37  1  0.58978800  0.90159500  0.56361600  1
  O  O38  1  0.08978800  0.59840500  0.43638400  1
  O  O39  1  0.41021200  0.09840500  0.06361600  1
  O  O40  1  0.16353400  0.75915900  0.25000000  1
  O  O41  1  0.33646600  0.25915900  0.25000000  1
  O  O42  1  0.83646600  0.24084100  0.75000000  1
  O  O43  1  0.66353400  0.74084100  0.75000000  1
loop_
_geom_bond_atom_site_label_1
_geom_bond_atom_site_label_2
_geom_bond_distance
_geom_bond_site_symmetry_2
Li0 O25 1.913320 1_455
Li0 O23 1.913320 1_455
Li0 O11 1.995265 1_555
Li0 O28 2.403880 1_555
Li1 O24 1.913320 1_555
Li1 O22 1.913320 1_555
Li1 O10 1.995265 1_555
Li1 O29 2.403880 1_555
Li2 O27 1.913320 1_655
Li2 O21 1.913320 1_655
Li2 O9 1.995265 1_555
Li2 O30 2.403880 1_555
Li3 O26 1.913320 1_555
Li3 O20 1.913320 1_555
Li3 O8 1.995265 1_555
Li3 O31 2.403880 1_555
Mg0 O32 2.014316 1_655
Mg0 O3 2.085229 1_554
Mg0 O36 2.153009 1_554
Mg0 O19 2.154245 1_555
Mg0 O31 2.177450 1_555
Mg0 O9 2.238760 1_555
Mg1 O33 2.014316 1_555
Mg1 O2 2.085229 1_555
Mg1 O37 2.153009 1_545
Mg1 O18 2.154245 1_545
Mg1 O30 2.177450 1_555
Mg1 O8 2.238760 1_545
Mg2 O34 2.014316 1_455
Mg2 O1 2.085229 1_555
Mg2 O38 2.153009 1_555
Mg2 O17 2.154245 1_555
Mg2 O29 2.177450 1_555
Mg2 O11 2.238760 1_555
Mg3 O35 2.014316 1_555
Mg3 O0 2.085229 1_556
Mg3 O39 2.153009 1_566
Mg3 O16 2.154245 1_565
Mg3 O28 2.177450 1_555
Mg3 O10 2.238760 1_565
Mg4 O36 2.014316 1_455
Mg4 O7 2.085229 1_556
Mg4 O32 2.153009 1_556
Mg4 O15 2.154245 1_555
Mg4 O29 2.177450 1_555
Mg4 O11 2.238760 1_555
Mg5 O37 2.014316 1_555
Mg5 O6 2.085229 1_555
Mg5 O33 2.153009 1_565
Mg5 O14 2.154245 1_565
Mg5 O28 2.177450 1_555
Mg5 O10 2.238760 1_565
Mg6 O38 2.014316 1_655
Mg6 O5 2.085229 1_555
Mg6 O34 2.153009 1_555
Mg6 O13 2.154245 1_555
Mg6 O31 2.177450 1_555
Mg6 O9 2.238760 1_555
Mg7 O39 2.014316 1_555
Mg7 O4 2.085229 1_554
Mg7 O35 2.153009 1_544
Mg7 O12 2.154245 1_545
Mg7 O30 2.177450 1_555
Mg7 O8 2.238760 1_545
Mg8 O12 1.985056 1_445
Mg8 O16 1.985056 1_554
Mg8 O23 2.093183 1_444
Mg8 O27 2.093183 1_555
Mg8 O0 2.198754 1_545
Mg8 O4 2.198754 1_454
Mg9 O13 1.985056 1_555
Mg9 O17 1.985056 1_555
Mg9 O26 2.093183 1_555
Mg9 O22 2.093183 1_555
Mg9 O1 2.198754 1_555
Mg9 O5 2.198754 1_555
Mg10 O18 1.985056 1_445
Mg10 O14 1.985056 1_555
Mg10 O25 2.093183 1_445
Mg10 O21 2.093183 1_555
Mg10 O6 2.198754 1_545
Mg10 O2 2.198754 1_455
Mg11 O19 1.985056 1_555
Mg11 O15 1.985056 1_554
Mg11 O24 2.093183 1_554
Mg11 O20 2.093183 1_555
Mg11 O7 2.198754 1_555
Mg11 O3 2.198754 1_554
O0 P0 1.535965 1_555
O1 P1 1.535965 1_555
O2 P2 1.535965 1_555
O3 P3 1.535965 1_555
O4 P4 1.535965 1_555
O5 P5 1.535965 1_555
O6 P6 1.535965 1_555
O7 P7 1.535965 1_555
O8 P11 1.568907 1_555
O9 P10 1.568907 1_555
O10 P9 1.568907 1_555
O11 P8 1.568907 1_555
O12 P11 1.535496 1_555
O13 P10 1.535496 1_555
O14 P9 1.535496 1_555
O15 P8 1.535496 1_555
O16 P9 1.535496 1_555
O17 P8 1.535496 1_555
O18 P11 1.535496 1_555
O19 P10 1.535496 1_555
O20 P0 1.521193 1_555
O21 P1 1.521193 1_555
O22 P2 1.521193 1_555
O23 P3 1.521193 1_555
O24 P4 1.521193 1_555
O25 P5 1.521193 1_555
O26 P6 1.521193 1_555
O27 P7 1.521193 1_555
O28 P8 1.551019 1_555
O29 P9 1.551019 1_555
O30 P10 1.551019 1_555
O31 P11 1.551019 1_555
O32 P0 1.545510 1_555
O33 P1 1.545510 1_555
O34 P2 1.545510 1_555
O35 P3 1.545510 1_555
O36 P4 1.545510 1_555
O37 P5 1.545510 1_555
O38 P6 1.545510 1_555
O39 P7 1.545510 1_555
O40 P6 1.631727 1_555
O40 P0 1.631727 1_555
O41 P1 1.631727 1_555
O41 P7 1.631727 1_555
O42 P2 1.631727 1_555
O42 P4 1.631727 1_555
O43 P3 1.631727 1_555
O43 P5 1.631727 1_555
