# generated using pymatgen
data_MnH7C3NO7
_symmetry_space_group_name_H-M   'P 1'
_cell_length_a   7.89033300
_cell_length_b   7.98649300
_cell_length_c   13.57107100
_cell_angle_alpha   90.00000000
_cell_angle_beta   90.00000000
_cell_angle_gamma   90.00000000
_symmetry_Int_Tables_number   1
_chemical_formula_structural   MnH7C3NO7
_chemical_formula_sum   'Mn4 H28 C12 N4 O28'
_cell_volume   855.19582165
_cell_formula_units_Z   4
loop_
 _symmetry_equiv_pos_site_id
 _symmetry_equiv_pos_as_xyz
  1  'x, y, z'
loop_
 _atom_site_type_symbol
 _atom_site_label
 _atom_site_symmetry_multiplicity
 _atom_site_fract_x
 _atom_site_fract_y
 _atom_site_fract_z
 _atom_site_occupancy
  Mn  Mn0  1  0.44881100  0.99535600  0.41615800  1
  Mn  Mn1  1  0.05118900  0.00464400  0.91615800  1
  Mn  Mn2  1  0.94881100  0.50464400  0.58384200  1
  Mn  Mn3  1  0.55118900  0.49535600  0.08384200  1
  H  H0  1  0.46284900  0.66963200  0.28005000  1
  H  H1  1  0.03715100  0.33036800  0.78005000  1
  H  H2  1  0.96284900  0.83036800  0.71995000  1
  H  H3  1  0.53715100  0.16963200  0.21995000  1
  H  H4  1  0.63374500  0.28189400  0.53751800  1
  H  H5  1  0.86625500  0.71810600  0.03751800  1
  H  H6  1  0.13374500  0.21810600  0.46248200  1
  H  H7  1  0.36625500  0.78189400  0.96248200  1
  H  H8  1  0.77640700  0.79410400  0.47823100  1
  H  H9  1  0.72359300  0.20589600  0.97823100  1
  H  H10  1  0.27640700  0.70589600  0.52176900  1
  H  H11  1  0.22359300  0.29410400  0.02176900  1
  H  H12  1  0.80404900  0.96398600  0.28769700  1
  H  H13  1  0.69595100  0.03601400  0.78769700  1
  H  H14  1  0.30404900  0.53601400  0.71230300  1
  H  H15  1  0.19595100  0.46398600  0.21230300  1
  H  H16  1  0.91109900  0.76192400  0.22458700  1
  H  H17  1  0.58890100  0.23807600  0.72458700  1
  H  H18  1  0.41109900  0.73807600  0.77541300  1
  H  H19  1  0.08890100  0.26192400  0.27541300  1
  H  H20  1  0.09026200  0.82100500  0.28997400  1
  H  H21  1  0.40973800  0.17899500  0.78997400  1
  H  H22  1  0.59026200  0.67899500  0.71002600  1
  H  H23  1  0.90973800  0.32100500  0.21002600  1
  H  H24  1  0.06343100  0.87467300  0.16683000  1
  H  H25  1  0.43656900  0.12532700  0.66683000  1
  H  H26  1  0.56343100  0.62532700  0.83317000  1
  H  H27  1  0.93656900  0.37467300  0.33317000  1
  C  C0  1  0.58661900  0.72862700  0.26297900  1
  C  C1  1  0.91338100  0.27137300  0.76297900  1
  C  C2  1  0.08661900  0.77137300  0.73702100  1
  C  C3  1  0.41338100  0.22862700  0.23702100  1
  C  C4  1  0.70821200  0.27109300  0.46845800  1
  C  C5  1  0.79178800  0.72890700  0.96845800  1
  C  C6  1  0.20821200  0.22890700  0.53154200  1
  C  C7  1  0.29178800  0.77109300  0.03154200  1
  C  C8  1  0.68690000  0.77418200  0.54016300  1
  C  C9  1  0.81310000  0.22581800  0.04016300  1
  C  C10  1  0.18690000  0.72581800  0.45983700  1
  C  C11  1  0.31310000  0.27418200  0.95983700  1
  N  N0  1  0.00242800  0.85491500  0.23469300  1
  N  N1  1  0.49757200  0.14508500  0.73469300  1
  N  N2  1  0.50242800  0.64508500  0.76530700  1
  N  N3  1  0.99757200  0.35491500  0.26530700  1
  O  O0  1  0.62267400  0.86257600  0.30996400  1
  O  O1  1  0.87732600  0.13742400  0.80996400  1
  O  O2  1  0.12267400  0.63742400  0.69003600  1
  O  O3  1  0.37732600  0.36257600  0.19003600  1
  O  O4  1  0.68167900  0.66016300  0.19978500  1
  O  O5  1  0.81832100  0.33983700  0.69978500  1
  O  O6  1  0.18167900  0.83983700  0.80021500  1
  O  O7  1  0.31832100  0.16016300  0.30021500  1
  O  O8  1  0.65904200  0.16888000  0.40384600  1
  O  O9  1  0.84095800  0.83112000  0.90384600  1
  O  O10  1  0.15904200  0.33112000  0.59615400  1
  O  O11  1  0.34095800  0.66888000  0.09615400  1
  O  O12  1  0.83833700  0.36488800  0.45963000  1
  O  O13  1  0.66166300  0.63511200  0.95963000  1
  O  O14  1  0.33833700  0.13511200  0.54037000  1
  O  O15  1  0.16166300  0.86488800  0.04037000  1
  O  O16  1  0.54615000  0.84840300  0.53922200  1
  O  O17  1  0.95385000  0.15159700  0.03922200  1
  O  O18  1  0.04615000  0.65159700  0.46077800  1
  O  O19  1  0.45385000  0.34840300  0.96077800  1
  O  O20  1  0.73498100  0.67523100  0.60892400  1
  O  O21  1  0.76501900  0.32476900  0.10892400  1
  O  O22  1  0.23498100  0.82476900  0.39107600  1
  O  O23  1  0.26501900  0.17523100  0.89107600  1
  O  O24  1  0.91985700  0.00418300  0.26548000  1
  O  O25  1  0.58014300  0.99581700  0.76548000  1
  O  O26  1  0.41985700  0.49581700  0.73452000  1
  O  O27  1  0.08014300  0.50418300  0.23452000  1
loop_
_geom_bond_atom_site_label_1
_geom_bond_atom_site_label_2
_geom_bond_distance
_geom_bond_site_symmetry_2
Mn0 O8 2.167968 1_565
Mn0 O16 2.180958 1_555
Mn0 O22 2.195128 1_555
Mn0 O14 2.201632 1_565
Mn0 O0 2.254649 1_555
Mn0 O7 2.295292 1_565
Mn1 O9 2.167968 1_445
Mn1 O17 2.180958 1_456
Mn1 O23 2.195128 1_555
Mn1 O15 2.201632 1_546
Mn1 O1 2.254649 1_455
Mn1 O6 2.295292 1_545
Mn2 O10 2.167968 1_655
Mn2 O18 2.180958 1_655
Mn2 O20 2.195128 1_555
Mn2 O12 2.201632 1_555
Mn2 O2 2.254649 1_655
Mn2 O5 2.295292 1_555
Mn3 O11 2.167968 1_555
Mn3 O19 2.180958 1_554
Mn3 O21 2.195128 1_555
Mn3 O13 2.201632 1_554
Mn3 O3 2.254649 1_555
Mn3 O4 2.295292 1_555
H12 O24 1.014364 1_565
H12 O0 1.671929 1_555
H13 O25 1.014364 1_545
H13 O1 1.671929 1_555
H14 O26 1.014364 1_555
H14 O2 1.671929 1_555
H15 O27 1.014364 1_555
H15 O3 1.671929 1_555
H16 N0 1.043867 1_655
H17 N1 1.043867 1_555
H18 N2 1.043867 1_555
H19 N3 1.043867 1_455
H20 N0 1.056637 1_555
H21 N1 1.056637 1_555
H22 N2 1.056637 1_555
H23 N3 1.056637 1_555
H24 N0 1.051083 1_555
H25 N1 1.051083 1_555
H26 N2 1.051083 1_555
H27 N3 1.051083 1_555
C0 H0 1.108778 1_555
C0 O4 1.263746 1_555
C0 O0 1.277477 1_555
C1 H1 1.108778 1_655
C1 O5 1.263746 1_555
C1 O1 1.277477 1_555
C2 H2 1.108778 1_455
C2 O6 1.263746 1_555
C2 O2 1.277477 1_555
C3 H3 1.108778 1_555
C3 O7 1.263746 1_555
C3 O3 1.277477 1_555
C4 H4 1.109530 1_555
C4 O8 1.259276 1_555
C4 O12 1.276584 1_555
C5 H5 1.109530 1_556
C5 O9 1.259276 1_555
C5 O13 1.276584 1_555
C6 H6 1.109530 1_555
C6 O10 1.259276 1_555
C6 O14 1.276584 1_555
C7 H7 1.109530 1_554
C7 O11 1.259276 1_555
C7 O15 1.276584 1_555
C8 H8 1.109280 1_555
C8 O16 1.258923 1_555
C8 O20 1.280329 1_555
C9 H9 1.109280 1_554
C9 O17 1.258923 1_555
C9 O21 1.280329 1_555
C10 H10 1.109280 1_555
C10 O18 1.258923 1_555
C10 O22 1.280329 1_555
C11 H11 1.109280 1_556
C11 O19 1.258923 1_555
C11 O23 1.280329 1_555
N0 O24 1.421339 1_465
N1 O25 1.421339 1_545
N2 O26 1.421339 1_555
N3 O27 1.421339 1_655
