# generated using pymatgen
data_Nd6Mg23C
_symmetry_space_group_name_H-M   'P 1'
_cell_length_a   10.15629066
_cell_length_b   10.15629066
_cell_length_c   10.15629066
_cell_angle_alpha   60.00000000
_cell_angle_beta   60.00000000
_cell_angle_gamma   60.00000000
_symmetry_Int_Tables_number   1
_chemical_formula_structural   Nd6Mg23C
_chemical_formula_sum   'Nd6 Mg23 C1'
_cell_volume   740.78190721
_cell_formula_units_Z   1
loop_
 _symmetry_equiv_pos_site_id
 _symmetry_equiv_pos_as_xyz
  1  'x, y, z'
loop_
 _atom_site_type_symbol
 _atom_site_label
 _atom_site_symmetry_multiplicity
 _atom_site_fract_x
 _atom_site_fract_y
 _atom_site_fract_z
 _atom_site_occupancy
  Nd  Nd0  1  0.81648200  0.81648200  0.18351800  1
  Nd  Nd1  1  0.18351800  0.81648200  0.18351800  1
  Nd  Nd2  1  0.81648200  0.18351800  0.18351800  1
  Nd  Nd3  1  0.18351800  0.18351800  0.81648200  1
  Nd  Nd4  1  0.81648200  0.18351800  0.81648200  1
  Nd  Nd5  1  0.18351800  0.81648200  0.81648200  1
  Mg  Mg0  1  0.82868300  0.82868300  0.51395000  1
  Mg  Mg1  1  0.82868300  0.51395000  0.82868300  1
  Mg  Mg2  1  0.51395000  0.82868300  0.82868300  1
  Mg  Mg3  1  0.82868300  0.82868300  0.82868300  1
  Mg  Mg4  1  0.17131700  0.17131700  0.48605000  1
  Mg  Mg5  1  0.17131700  0.48605000  0.17131700  1
  Mg  Mg6  1  0.48605000  0.17131700  0.17131700  1
  Mg  Mg7  1  0.17131700  0.17131700  0.17131700  1
  Mg  Mg8  1  0.62020200  0.62020200  0.13939300  1
  Mg  Mg9  1  0.62020200  0.13939300  0.62020200  1
  Mg  Mg10  1  0.13939300  0.62020200  0.62020200  1
  Mg  Mg11  1  0.62020200  0.62020200  0.62020200  1
  Mg  Mg12  1  0.37979800  0.37979800  0.86060700  1
  Mg  Mg13  1  0.37979800  0.86060700  0.37979800  1
  Mg  Mg14  1  0.86060700  0.37979800  0.37979800  1
  Mg  Mg15  1  0.37979800  0.37979800  0.37979800  1
  Mg  Mg16  1  0.00000000  0.00000000  0.50000000  1
  Mg  Mg17  1  0.50000000  0.00000000  0.50000000  1
  Mg  Mg18  1  0.00000000  0.50000000  0.50000000  1
  Mg  Mg19  1  0.50000000  0.50000000  0.00000000  1
  Mg  Mg20  1  0.00000000  0.50000000  0.00000000  1
  Mg  Mg21  1  0.50000000  0.00000000  0.00000000  1
  Mg  Mg22  1  0.50000000  0.50000000  0.50000000  1
  C  C0  1  0.00000000  0.00000000  0.00000000  1
loop_
_geom_bond_atom_site_label_1
_geom_bond_atom_site_label_2
_geom_bond_distance
_geom_bond_site_symmetry_2
Mg0 Mg18 2.934147 1_655
Mg0 Mg17 2.934147 1_565
Mg0 Mg16 2.934156 1_665
Mg0 Mg9 3.169339 1_565
Mg0 Mg10 3.169339 1_655
Mg0 Mg11 3.169339 1_555
Mg0 Mg3 3.196520 1_555
Mg0 Mg1 3.196520 1_555
Mg0 Mg2 3.196520 1_555
Mg0 Nd0 3.484290 1_555
Mg0 Nd1 3.484296 1_655
Mg0 Nd2 3.484296 1_565
Mg1 Mg18 2.934147 1_655
Mg1 Mg19 2.934147 1_556
Mg1 Mg20 2.934156 1_656
Mg1 Mg10 3.169339 1_655
Mg1 Mg8 3.169339 1_556
Mg1 Mg11 3.169339 1_555
Mg1 Mg3 3.196520 1_555
Mg1 Mg2 3.196520 1_555
Mg1 Nd4 3.484290 1_555
Mg1 Nd3 3.484296 1_655
Mg1 Nd2 3.484296 1_556
Mg2 Mg21 2.934156 1_566
Mg2 Mg8 3.169339 1_556
Mg2 Mg9 3.169339 1_565
Mg2 Mg3 3.196520 1_555
Mg2 Nd5 3.484290 1_555
Mg2 Nd1 3.484296 1_556
Mg2 Nd3 3.484296 1_565
Mg3 Mg8 3.169339 1_556
Mg3 Mg9 3.169339 1_565
Mg3 Nd4 3.484300 1_565
Mg3 Nd0 3.484300 1_556
Mg3 Nd5 3.484300 1_655
Mg4 Mg5 3.196520 1_555
Mg4 Mg6 3.196520 1_555
Mg4 Mg7 3.196520 1_555
Mg4 Nd3 3.484290 1_555
Mg4 Nd5 3.484296 1_545
Mg4 Nd4 3.484296 1_455
Mg5 Mg6 3.196520 1_555
Mg5 Mg7 3.196520 1_555
Mg5 Nd1 3.484290 1_555
Mg5 Nd0 3.484296 1_455
Mg5 Nd5 3.484296 1_554
Mg6 Mg7 3.196520 1_555
Mg6 Nd2 3.484290 1_555
Mg6 Nd4 3.484296 1_554
Mg6 Nd0 3.484296 1_545
Mg7 Nd1 3.484300 1_545
Mg7 Nd3 3.484300 1_554
Mg7 Nd2 3.484300 1_455
Mg8 Nd2 3.729525 1_555
Mg8 Nd1 3.729525 1_555
Mg8 Nd0 3.729534 1_555
Mg9 Nd2 3.729525 1_555
Mg9 Nd3 3.729525 1_555
Mg9 Nd4 3.729534 1_555
Mg10 Mg22 2.990361 1_555
Mg10 Mg18 3.151505 1_555
Mg10 Mg16 3.151514 1_565
Mg10 Mg20 3.151514 1_556
Mg10 Mg3 3.169339 1_455
Mg10 Mg15 3.452962 1_555
Mg10 Mg13 3.452976 1_555
Mg10 Mg12 3.452976 1_555
Mg10 Nd3 3.729525 1_555
Mg10 Nd1 3.729525 1_555
Mg10 Nd5 3.729534 1_555
Mg11 Mg22 2.990353 1_555
Mg11 Mg19 3.151514 1_556
Mg11 Mg17 3.151514 1_565
Mg11 Mg18 3.151514 1_655
Mg11 Mg2 3.169339 1_555
Mg11 Mg14 3.452962 1_555
Mg11 Mg13 3.452962 1_555
Mg11 Mg12 3.452962 1_555
Mg11 Nd0 3.729527 1_555
Mg11 Nd4 3.729527 1_555
Mg11 Nd5 3.729527 1_555
Mg12 Mg22 2.990361 1_555
Mg12 Mg19 3.151505 1_556
Mg12 Mg20 3.151514 1_556
Mg12 Mg21 3.151514 1_556
Mg12 Mg7 3.169339 1_556
Mg12 Mg6 3.169339 1_556
Mg12 Mg5 3.169339 1_556
Mg12 Mg9 3.452976 1_555
Mg12 Nd4 3.729525 1_555
Mg12 Nd5 3.729525 1_555
Mg12 Nd3 3.729534 1_555
Mg13 Mg22 2.990361 1_555
Mg13 Mg17 3.151505 1_565
Mg13 Mg16 3.151514 1_565
Mg13 Mg21 3.151514 1_565
Mg13 Mg7 3.169339 1_565
Mg13 Mg6 3.169339 1_565
Mg13 Mg4 3.169339 1_565
Mg13 Mg8 3.452976 1_555
Mg13 Nd5 3.729525 1_555
Mg13 Nd0 3.729525 1_555
Mg13 Nd1 3.729534 1_555
Mg14 Mg22 2.990361 1_555
Mg14 Mg18 3.151505 1_655
Mg14 Mg16 3.151514 1_655
Mg14 Mg20 3.151514 1_655
Mg14 Mg7 3.169339 1_655
Mg14 Mg5 3.169339 1_655
Mg14 Mg4 3.169339 1_655
Mg14 Mg8 3.452976 1_555
Mg14 Mg9 3.452976 1_555
Mg14 Nd4 3.729525 1_555
Mg14 Nd0 3.729525 1_555
Mg14 Nd2 3.729534 1_555
Mg15 Mg22 2.990353 1_555
Mg15 Mg18 3.151514 1_555
Mg15 Mg19 3.151514 1_555
Mg15 Mg17 3.151514 1_555
Mg15 Mg5 3.169339 1_555
Mg15 Mg6 3.169339 1_555
Mg15 Mg4 3.169339 1_555
Mg15 Mg8 3.452962 1_555
Mg15 Mg9 3.452962 1_555
Mg15 Nd2 3.729527 1_555
Mg15 Nd3 3.729527 1_555
Mg15 Nd1 3.729527 1_555
Mg16 Mg3 2.934150 1_445
Mg16 Mg7 2.934150 1_555
Mg16 Mg4 2.934156 1_555
Mg16 Mg9 3.151514 1_455
Mg16 Nd5 3.715589 1_545
Mg16 Nd4 3.715589 1_455
Mg16 Nd2 3.715589 1_455
Mg16 Nd1 3.715589 1_545
Mg17 Mg4 2.934147 1_555
Mg17 Mg2 2.934147 1_545
Mg17 Mg6 2.934147 1_555
Mg17 Mg9 3.151505 1_555
Mg17 Nd2 3.715589 1_555
Mg17 Nd3 3.715589 1_555
Mg17 Nd0 3.715589 1_545
Mg17 Nd5 3.715589 1_545
Mg18 Mg4 2.934147 1_555
Mg18 Mg5 2.934147 1_555
Mg18 Nd3 3.715589 1_555
Mg18 Nd1 3.715589 1_555
Mg18 Nd0 3.715589 1_455
Mg18 Nd4 3.715589 1_455
Mg19 Mg2 2.934147 1_554
Mg19 Mg5 2.934147 1_555
Mg19 Mg6 2.934147 1_555
Mg19 Mg8 3.151505 1_555
Mg19 Nd2 3.715589 1_555
Mg19 Nd1 3.715589 1_555
Mg19 Nd5 3.715589 1_554
Mg19 Nd4 3.715589 1_554
Mg20 Mg7 2.934150 1_555
Mg20 Mg3 2.934150 1_454
Mg20 Mg5 2.934156 1_555
Mg20 Mg8 3.151514 1_455
Mg20 Nd5 3.715589 1_554
Mg20 Nd0 3.715589 1_455
Mg20 Nd3 3.715589 1_554
Mg20 Nd2 3.715589 1_455
Mg21 Mg7 2.934150 1_555
Mg21 Mg3 2.934150 1_544
Mg21 Mg6 2.934156 1_555
Mg21 Mg9 3.151514 1_554
Mg21 Mg8 3.151514 1_545
Mg21 Nd4 3.715589 1_554
Mg21 Nd0 3.715589 1_545
Mg21 Nd3 3.715589 1_554
Mg21 Nd1 3.715589 1_545
Mg22 Mg9 2.990361 1_555
Mg22 Mg8 2.990361 1_555
C0 Nd1 2.635899 1_545
C0 Nd3 2.635899 1_554
C0 Nd2 2.635899 1_455
C0 Nd4 2.635899 1_454
C0 Nd5 2.635899 1_544
C0 Nd0 2.635899 1_445
