# generated using pymatgen
data_Rb3Pd
_symmetry_space_group_name_H-M   'P 1'
_cell_length_a   10.37577935
_cell_length_b   10.37577935
_cell_length_c   10.37577935
_cell_angle_alpha   109.47122063
_cell_angle_beta   109.47122063
_cell_angle_gamma   109.47122063
_symmetry_Int_Tables_number   1
_chemical_formula_structural   Rb3Pd
_chemical_formula_sum   'Rb12 Pd4'
_cell_volume   859.88483873
_cell_formula_units_Z   4
loop_
 _symmetry_equiv_pos_site_id
 _symmetry_equiv_pos_as_xyz
  1  'x, y, z'
loop_
 _atom_site_type_symbol
 _atom_site_label
 _atom_site_symmetry_multiplicity
 _atom_site_fract_x
 _atom_site_fract_y
 _atom_site_fract_z
 _atom_site_occupancy
  Rb  Rb0  1  0.30091700  0.11625700  0.81534000  1
  Rb  Rb1  1  0.69908300  0.88374300  0.18466000  1
  Rb  Rb2  1  0.30091700  0.48557600  0.18466000  1
  Rb  Rb3  1  0.69908300  0.51442400  0.81534000  1
  Rb  Rb4  1  0.81534000  0.30091700  0.11625700  1
  Rb  Rb5  1  0.18466000  0.69908300  0.88374300  1
  Rb  Rb6  1  0.18466000  0.30091700  0.48557600  1
  Rb  Rb7  1  0.81534000  0.69908300  0.51442400  1
  Rb  Rb8  1  0.11625700  0.81534000  0.30091700  1
  Rb  Rb9  1  0.88374300  0.18466000  0.69908300  1
  Rb  Rb10  1  0.48557600  0.18466000  0.30091700  1
  Rb  Rb11  1  0.51442400  0.81534000  0.69908300  1
  Pd  Pd0  1  0.00000000  0.00000000  0.00000000  1
  Pd  Pd1  1  0.50000000  0.00000000  0.50000000  1
  Pd  Pd2  1  0.50000000  0.50000000  0.00000000  1
  Pd  Pd3  1  0.00000000  0.50000000  0.50000000  1
loop_
_geom_bond_atom_site_label_1
_geom_bond_atom_site_label_2
_geom_bond_distance
_geom_bond_site_symmetry_2
Pd0 Rb10 4.229958 1_555
Pd0 Rb2 4.229958 1_555
Pd0 Rb6 4.229958 1_555
Pd0 Rb11 4.229958 1_444
Pd0 Rb3 4.229958 1_444
Pd0 Rb7 4.229958 1_444
Pd0 Rb8 4.229966 1_545
Pd0 Rb0 4.229966 1_554
Pd0 Rb4 4.229966 1_455
Pd0 Rb1 4.229966 1_445
Pd0 Rb9 4.229966 1_454
Pd0 Rb5 4.229966 1_544
Pd1 Rb9 3.253285 1_555
Pd1 Rb8 3.253285 1_545
Pd1 Rb11 3.253285 1_545
Pd1 Rb10 3.253285 1_555
Pd2 Rb1 3.253285 1_555
Pd2 Rb0 3.253285 1_554
Pd2 Rb3 3.253285 1_554
Pd2 Rb2 3.253285 1_555
Pd3 Rb5 3.253285 1_555
Pd3 Rb4 3.253285 1_455
Pd3 Rb7 3.253285 1_455
Pd3 Rb6 3.253285 1_555
