# generated using pymatgen
data_LiVOF2
_symmetry_space_group_name_H-M   'P 1'
_cell_length_a   5.32961059
_cell_length_b   6.64933931
_cell_length_c   6.61157852
_cell_angle_alpha   95.34249454
_cell_angle_beta   83.86637069
_cell_angle_gamma   96.85444199
_symmetry_Int_Tables_number   1
_chemical_formula_structural   LiVOF2
_chemical_formula_sum   'Li4 V4 O4 F8'
_cell_volume   230.52972564
_cell_formula_units_Z   4
loop_
 _symmetry_equiv_pos_site_id
 _symmetry_equiv_pos_as_xyz
  1  'x, y, z'
loop_
 _atom_site_type_symbol
 _atom_site_label
 _atom_site_symmetry_multiplicity
 _atom_site_fract_x
 _atom_site_fract_y
 _atom_site_fract_z
 _atom_site_occupancy
  Li  Li0  1  0.67650400  0.21831300  0.60618200  1
  Li  Li1  1  0.17846700  0.39113200  0.78208900  1
  Li  Li2  1  0.82157300  0.60888200  0.21795400  1
  Li  Li3  1  0.32356500  0.78167100  0.39382200  1
  V  V0  1  0.75161900  0.74061700  0.74383400  1
  V  V1  1  0.24839100  0.25931800  0.25614800  1
  V  V2  1  0.74780700  0.08268500  0.07513400  1
  V  V3  1  0.25213200  0.91732700  0.92484600  1
  O  O0  1  0.61217900  0.01206500  0.80599400  1
  O  O1  1  0.10867800  0.19240700  0.98817700  1
  O  O2  1  0.89129600  0.80753300  0.01179400  1
  O  O3  1  0.38782200  0.98796000  0.19412400  1
  F  F0  1  0.86186900  0.46283200  0.71238300  1
  F  F1  1  0.35964000  0.28560400  0.53651700  1
  F  F2  1  0.64041300  0.71441300  0.46351700  1
  F  F3  1  0.13817900  0.53712600  0.28762900  1
  F  F4  1  0.88362500  0.14243600  0.36026100  1
  F  F5  1  0.39101300  0.63477800  0.85955600  1
  F  F6  1  0.60891500  0.36531700  0.14037100  1
  F  F7  1  0.11631400  0.85758700  0.63967000  1
loop_
_geom_bond_atom_site_label_1
_geom_bond_atom_site_label_2
_geom_bond_distance
_geom_bond_site_symmetry_2
Li0 O0 1.967717 1_555
Li1 O1 1.962313 1_555
Li2 O2 1.962299 1_555
Li3 O3 1.967370 1_555
O0 V2 1.986872 1_556
O0 V0 2.023810 1_545
O0 V3 2.044002 1_545
O1 V1 1.986810 1_556
O1 V2 2.017124 1_456
O1 V3 2.056270 1_545
O2 V0 1.986662 1_554
O2 V3 2.017079 1_654
O2 V2 2.056798 1_565
O3 V3 1.987856 1_554
O3 V1 2.023168 1_565
O3 V2 2.043983 1_565
F0 Li0 1.914359 1_555
F0 Li1 1.919880 1_655
F0 V0 1.990392 1_555
F1 Li0 1.910295 1_555
F1 Li1 1.917136 1_555
F1 V1 1.991991 1_555
F2 Li3 1.910207 1_555
F2 Li2 1.917066 1_555
F2 V0 1.991593 1_555
F3 Li3 1.914522 1_555
F3 Li2 1.919987 1_455
F3 V1 1.990455 1_555
F4 Li0 1.927008 1_555
F4 V1 2.076110 1_655
F4 V2 2.078233 1_555
F5 Li1 1.923959 1_555
F5 V0 2.058523 1_555
F5 V3 2.092031 1_555
F6 Li2 1.924058 1_555
F6 V1 2.058543 1_555
F6 V2 2.092536 1_555
F7 Li3 1.927064 1_555
F7 V0 2.076048 1_455
F7 V3 2.078529 1_555
