# generated using pymatgen
data_Cs3Li2Br5
_symmetry_space_group_name_H-M   'P 1'
_cell_length_a   13.46350356
_cell_length_b   13.46350356
_cell_length_c   4.46403237
_cell_angle_alpha   80.54181661
_cell_angle_beta   80.54181661
_cell_angle_gamma   147.00186062
_symmetry_Int_Tables_number   1
_chemical_formula_structural   Cs3Li2Br5
_chemical_formula_sum   'Cs3 Li2 Br5'
_cell_volume   359.42361584
_cell_formula_units_Z   1
loop_
 _symmetry_equiv_pos_site_id
 _symmetry_equiv_pos_as_xyz
  1  'x, y, z'
loop_
 _atom_site_type_symbol
 _atom_site_label
 _atom_site_symmetry_multiplicity
 _atom_site_fract_x
 _atom_site_fract_y
 _atom_site_fract_z
 _atom_site_occupancy
  Cs  Cs0  1  0.64634500  0.40092900  0.72473800  1
  Cs  Cs1  1  0.40092900  0.64634500  0.72473800  1
  Cs  Cs2  1  0.02983700  0.02983700  0.19505800  1
  Li  Li0  1  0.77153100  0.20354100  0.76545800  1
  Li  Li1  1  0.20354100  0.77153100  0.76545800  1
  Br  Br0  1  0.53123800  0.53123800  0.19735600  1
  Br  Br1  1  0.34734000  0.82310600  0.16920900  1
  Br  Br2  1  0.82310600  0.34734000  0.16920900  1
  Br  Br3  1  0.91400900  0.15182500  0.71085900  1
  Br  Br4  1  0.15182500  0.91400900  0.71085900  1
loop_
_geom_bond_atom_site_label_1
_geom_bond_atom_site_label_2
_geom_bond_distance
_geom_bond_site_symmetry_2
Br0 Cs2 3.806992 1_665
Br0 Cs1 3.825361 1_554
Br0 Cs0 3.825361 1_554
Br0 Cs2 3.840291 1_555
Br0 Cs2 3.843929 1_556
Br0 Cs2 3.849028 1_664
Br0 Cs1 3.927394 1_555
Br0 Cs0 3.927394 1_555
Br1 Li0 2.572149 1_564
Br1 Li1 2.599793 1_555
Br1 Li1 2.604240 1_554
Br1 Cs1 3.723242 1_555
Br1 Cs1 3.752651 1_554
Br2 Li1 2.572149 1_654
Br2 Li0 2.599793 1_555
Br2 Li0 2.604240 1_554
Br2 Cs0 3.723242 1_555
Br2 Cs0 3.752651 1_554
Br3 Li0 2.523170 1_555
Br3 Cs2 3.746802 1_656
Br3 Cs1 3.788585 1_654
Br3 Cs1 3.790122 1_655
Br3 Cs2 3.845771 1_655
Br3 Cs1 3.860327 1_545
Br3 Cs1 3.906861 1_546
Br4 Li1 2.523170 1_555
Br4 Cs2 3.746802 1_566
Br4 Cs0 3.788585 1_564
Br4 Cs0 3.790122 1_565
Br4 Cs2 3.845771 1_565
Br4 Cs0 3.860327 1_455
Br4 Cs0 3.906861 1_456
