# generated using pymatgen
data_Ca3W2O7
_symmetry_space_group_name_H-M   'P 1'
_cell_length_a   10.27357854
_cell_length_b   10.27357854
_cell_length_c   5.79283100
_cell_angle_alpha   90.00000000
_cell_angle_beta   90.00000000
_cell_angle_gamma   148.03026108
_symmetry_Int_Tables_number   1
_chemical_formula_structural   Ca3W2O7
_chemical_formula_sum   'Ca6 W4 O14'
_cell_volume   323.72539153
_cell_formula_units_Z   2
loop_
 _symmetry_equiv_pos_site_id
 _symmetry_equiv_pos_as_xyz
  1  'x, y, z'
loop_
 _atom_site_type_symbol
 _atom_site_label
 _atom_site_symmetry_multiplicity
 _atom_site_fract_x
 _atom_site_fract_y
 _atom_site_fract_z
 _atom_site_occupancy
  Ca  Ca0  1  0.24260900  0.24260900  0.30138000  1
  Ca  Ca1  1  0.75739100  0.75739100  0.80138000  1
  Ca  Ca2  1  0.04625900  0.42723300  0.19600500  1
  Ca  Ca3  1  0.95374100  0.57276700  0.69600500  1
  Ca  Ca4  1  0.42723300  0.04625900  0.19600500  1
  Ca  Ca5  1  0.57276700  0.95374100  0.69600500  1
  W  W0  1  0.84960000  0.64836500  0.25093300  1
  W  W1  1  0.15040000  0.35163500  0.75093300  1
  W  W2  1  0.35163500  0.15040000  0.75093300  1
  W  W3  1  0.64836500  0.84960000  0.25093300  1
  O  O0  1  0.63827400  0.03966500  0.28613800  1
  O  O1  1  0.36172600  0.96033500  0.78613800  1
  O  O2  1  0.96033500  0.36172600  0.78613800  1
  O  O3  1  0.03966500  0.63827400  0.28613800  1
  O  O4  1  0.43158000  0.67062000  0.94189100  1
  O  O5  1  0.56842000  0.32938000  0.44189100  1
  O  O6  1  0.32938000  0.56842000  0.44189100  1
  O  O7  1  0.67062000  0.43158000  0.94189100  1
  O  O8  1  0.96929100  0.12993000  0.06046800  1
  O  O9  1  0.03070900  0.87007000  0.56046800  1
  O  O10  1  0.64822700  0.64822700  0.20774900  1
  O  O11  1  0.35177300  0.35177300  0.70774900  1
  O  O12  1  0.12993000  0.96929100  0.06046800  1
  O  O13  1  0.87007000  0.03070900  0.56046800  1
loop_
_geom_bond_atom_site_label_1
_geom_bond_atom_site_label_2
_geom_bond_distance
_geom_bond_site_symmetry_2
Ca0 O10 2.358346 1_555
Ca0 O8 2.378495 1_455
Ca0 O12 2.378495 1_545
Ca0 O11 2.433718 1_555
Ca0 O9 2.739274 1_545
Ca0 O13 2.739274 1_455
Ca0 O6 2.756557 1_555
Ca0 O5 2.756557 1_555
Ca1 O11 2.358346 1_555
Ca1 O9 2.378495 1_655
Ca1 O13 2.378495 1_565
Ca1 O10 2.433718 1_556
Ca1 O8 2.739274 1_566
Ca1 O12 2.739274 1_656
Ca1 O7 2.756557 1_555
Ca1 O4 2.756557 1_555
Ca2 O3 2.286321 1_555
Ca2 O0 2.319307 1_455
Ca2 O6 2.331291 1_555
Ca2 O2 2.421046 1_454
Ca2 O8 2.544229 1_455
Ca2 O4 2.701069 1_554
Ca3 O2 2.286321 1_555
Ca3 O1 2.319307 1_655
Ca3 O7 2.331291 1_555
Ca3 O3 2.421046 1_655
Ca3 O9 2.544229 1_655
Ca3 O5 2.701069 1_555
Ca4 O0 2.286321 1_555
Ca4 O3 2.319307 1_545
Ca4 O5 2.331291 1_555
Ca4 O1 2.421046 1_544
Ca4 O12 2.544229 1_545
Ca4 O7 2.701069 1_554
Ca5 O1 2.286321 1_555
Ca5 O2 2.319307 1_565
Ca5 O4 2.331291 1_555
Ca5 O0 2.421046 1_565
Ca5 O13 2.544229 1_565
Ca5 O6 2.701069 1_555
O0 W3 2.051494 1_545
O1 W2 2.051494 1_565
O2 W1 2.051494 1_655
O3 W0 2.051494 1_455
O4 W1 2.060623 1_555
O4 W3 2.144301 1_556
O5 W0 2.060623 1_555
O5 W2 2.144301 1_555
O6 W3 2.060623 1_555
O6 W1 2.144301 1_555
O7 W2 2.060623 1_555
O7 W0 2.144301 1_556
O8 W3 2.066807 1_545
O8 W1 2.162097 1_654
O9 W2 2.066807 1_565
O9 W0 2.162097 1_455
O10 W0 2.082697 1_555
O10 W3 2.082697 1_555
O11 W1 2.082697 1_555
O11 W2 2.082697 1_555
O12 W0 2.066807 1_455
O12 W2 2.162097 1_564
O13 W1 2.066807 1_655
O13 W3 2.162097 1_545
