# generated using pymatgen
data_K16Na9(Tl6Cd)3
_symmetry_space_group_name_H-M   'P 1'
_cell_length_a   11.20017746
_cell_length_b   11.20048397
_cell_length_c   29.53507645
_cell_angle_alpha   90.00000000
_cell_angle_beta   90.00000000
_cell_angle_gamma   120.00090662
_symmetry_Int_Tables_number   1
_chemical_formula_structural   K16Na9(Tl6Cd)3
_chemical_formula_sum   'K32 Na18 Tl36 Cd6'
_cell_volume   3208.68035948
_cell_formula_units_Z   2
loop_
 _symmetry_equiv_pos_site_id
 _symmetry_equiv_pos_as_xyz
  1  'x, y, z'
loop_
 _atom_site_type_symbol
 _atom_site_label
 _atom_site_symmetry_multiplicity
 _atom_site_fract_x
 _atom_site_fract_y
 _atom_site_fract_z
 _atom_site_occupancy
  K  K0  1  0.13125862  0.86874521  0.94141282  1
  K  K1  1  0.13125862  0.26251241  0.94141282  1
  K  K2  1  0.73749220  0.86874560  0.94141395  1
  K  K3  1  0.86874138  0.13125479  0.05858718  1
  K  K4  1  0.86874138  0.73748759  0.05858718  1
  K  K5  1  0.26250780  0.13125440  0.05858605  1
  K  K6  1  0.86874138  0.13125479  0.44141282  1
  K  K7  1  0.86874138  0.73748759  0.44141282  1
  K  K8  1  0.26250780  0.13125440  0.44141395  1
  K  K9  1  0.13125862  0.86874521  0.55858718  1
  K  K10  1  0.13125862  0.26251241  0.55858718  1
  K  K11  1  0.73749220  0.86874560  0.55858605  1
  K  K12  1  0.45449678  0.54550349  0.25000000  1
  K  K13  1  0.45449678  0.90899329  0.25000000  1
  K  K14  1  0.09101269  0.54550634  0.25000000  1
  K  K15  1  0.54550322  0.45449651  0.75000000  1
  K  K16  1  0.54550322  0.09100671  0.75000000  1
  K  K17  1  0.90898731  0.45449366  0.75000000  1
  K  K18  1  0.46515317  0.53486933  0.87551762  1
  K  K19  1  0.46515317  0.93028484  0.87551762  1
  K  K20  1  0.06970843  0.53485472  0.87551834  1
  K  K21  1  0.53484683  0.46513067  0.12448238  1
  K  K22  1  0.53484683  0.06971516  0.12448238  1
  K  K23  1  0.93029157  0.46514528  0.12448166  1
  K  K24  1  0.53484683  0.46513067  0.37551762  1
  K  K25  1  0.53484683  0.06971516  0.37551762  1
  K  K26  1  0.93029157  0.46514528  0.37551834  1
  K  K27  1  0.46515317  0.53486933  0.62448238  1
  K  K28  1  0.46515317  0.93028484  0.62448238  1
  K  K29  1  0.06970843  0.53485472  0.62448166  1
  K  K30  1  0.33332999  0.66666550  0.75000000  1
  K  K31  1  0.66667001  0.33333450  0.25000000  1
  Na  Na0  1  0.16624917  0.83374887  0.15320218  1
  Na  Na1  1  0.16624917  0.33250029  0.15320218  1
  Na  Na2  1  0.66749813  0.83374906  0.15320164  1
  Na  Na3  1  0.83375083  0.16625113  0.84679782  1
  Na  Na4  1  0.83375083  0.66749971  0.84679782  1
  Na  Na5  1  0.33250187  0.16625094  0.84679836  1
  Na  Na6  1  0.83375083  0.16625113  0.65320218  1
  Na  Na7  1  0.83375083  0.66749971  0.65320218  1
  Na  Na8  1  0.33250187  0.16625094  0.65320164  1
  Na  Na9  1  0.16624917  0.83374887  0.34679782  1
  Na  Na10  1  0.16624917  0.33250029  0.34679782  1
  Na  Na11  1  0.66749813  0.83374906  0.34679836  1
  Na  Na12  1  0.50000000  0.50000000  -0.00000000  1
  Na  Na13  1  0.50000000  0.00000000  -0.00000000  1
  Na  Na14  1  0.00000000  0.50000000  -0.00000000  1
  Na  Na15  1  0.50000000  0.50000000  0.50000000  1
  Na  Na16  1  0.50000000  0.00000000  0.50000000  1
  Na  Na17  1  0.00000000  0.50000000  0.50000000  1
  Tl  Tl0  1  0.23404012  0.76596126  0.05485817  1
  Tl  Tl1  1  0.23404012  0.46807786  0.05485817  1
  Tl  Tl2  1  0.53192123  0.76596011  0.05485967  1
  Tl  Tl3  1  0.76595988  0.23403874  0.94514183  1
  Tl  Tl4  1  0.76595988  0.53192214  0.94514183  1
  Tl  Tl5  1  0.46807877  0.23403989  0.94514033  1
  Tl  Tl6  1  0.76595988  0.23403874  0.55485817  1
  Tl  Tl7  1  0.76595988  0.53192214  0.55485817  1
  Tl  Tl8  1  0.46807877  0.23403989  0.55485967  1
  Tl  Tl9  1  0.23404012  0.76596126  0.44514183  1
  Tl  Tl10  1  0.23404012  0.46807786  0.44514183  1
  Tl  Tl11  1  0.53192123  0.76596011  0.44514033  1
  Tl  Tl12  1  0.33333413  0.66666756  0.96984487  1
  Tl  Tl13  1  0.66666587  0.33333244  0.03015513  1
  Tl  Tl14  1  0.66666587  0.33333244  0.46984487  1
  Tl  Tl15  1  0.33333413  0.66666756  0.53015513  1
  Tl  Tl16  1  0.33331365  0.66665732  0.14033844  1
  Tl  Tl17  1  0.66668635  0.33334268  0.85966156  1
  Tl  Tl18  1  0.66668635  0.33334268  0.64033844  1
  Tl  Tl19  1  0.33331365  0.66665732  0.35966156  1
  Tl  Tl20  1  0.00000206  0.00000103  0.84260865  1
  Tl  Tl21  1  -0.00000206  -0.00000103  0.15739135  1
  Tl  Tl22  1  -0.00000206  -0.00000103  0.34260865  1
  Tl  Tl23  1  0.00000206  0.00000103  0.65739135  1
  Tl  Tl24  1  0.15812595  0.84187783  0.80270169  1
  Tl  Tl25  1  0.15812595  0.31624712  0.80270169  1
  Tl  Tl26  1  0.68372655  0.84186277  0.80270862  1
  Tl  Tl27  1  0.84187405  0.15812217  0.19729831  1
  Tl  Tl28  1  0.84187405  0.68375288  0.19729831  1
  Tl  Tl29  1  0.31627345  0.15813723  0.19729138  1
  Tl  Tl30  1  0.84187405  0.15812217  0.30270169  1
  Tl  Tl31  1  0.84187405  0.68375288  0.30270169  1
  Tl  Tl32  1  0.31627345  0.15813723  0.30270862  1
  Tl  Tl33  1  0.15812595  0.84187783  0.69729831  1
  Tl  Tl34  1  0.15812595  0.31624712  0.69729831  1
  Tl  Tl35  1  0.68372655  0.84186277  0.69729138  1
  Cd  Cd0  1  0.09857780  0.90146560  0.25000000  1
  Cd  Cd1  1  0.09857780  0.19711220  0.25000000  1
  Cd  Cd2  1  0.80291405  0.90145703  0.25000000  1
  Cd  Cd3  1  0.90142220  0.09853440  0.75000000  1
  Cd  Cd4  1  0.90142220  0.80288780  0.75000000  1
  Cd  Cd5  1  0.19708595  0.09854297  0.75000000  1
loop_
_geom_bond_atom_site_label_1
_geom_bond_atom_site_label_2
_geom_bond_distance
_geom_bond_site_symmetry_2
K0 Tl20 3.872929 1_565
K0 Tl0 3.899033 1_556
K0 Tl5 3.943140 1_565
K0 Tl4 3.943164 1_455
K0 K19 3.958577 1_555
K0 K20 3.958585 1_555
K0 Tl12 4.009142 1_555
K0 Na13 4.017510 1_566
K0 Na14 4.017641 1_556
K0 Na4 4.059790 1_455
K0 Na5 4.059803 1_565
K0 Tl24 4.129866 1_555
K0 K5 4.296531 1_566
K0 K4 4.296563 1_456
K0 K2 4.410256 1_455
K0 K1 4.410383 1_565
K1 Tl20 3.872923 1_555
K1 Tl1 3.899033 1_556
K1 Tl5 3.943128 1_555
K1 Tl3 3.943173 1_455
K1 K18 3.958583 1_555
K1 K20 3.958605 1_555
K1 Tl12 4.009161 1_555
K1 Na12 4.017512 1_556
K1 Na14 4.017651 1_556
K1 Na3 4.059791 1_455
K1 Na5 4.059797 1_555
K1 Tl25 4.129866 1_555
K1 K5 4.296520 1_556
K1 K3 4.296563 1_456
K1 K2 4.410256 1_445
K2 Tl20 3.872892 1_665
K2 Tl2 3.899042 1_556
K2 Tl4 3.943233 1_555
K2 Tl3 3.943255 1_565
K2 Tl12 4.009077 1_555
K2 Na12 4.017606 1_556
K2 Na13 4.017614 1_566
K2 Na4 4.059861 1_555
K2 Na3 4.059868 1_565
K2 Tl26 4.129733 1_555
K2 K4 4.296520 1_556
K2 K3 4.296531 1_566
K3 Tl21 3.872929 1_655
K3 Tl3 3.899033 1_554
K3 Tl2 3.943140 1_545
K3 Tl1 3.943164 1_655
K3 Tl13 4.009142 1_555
K3 Na13 4.017510 1_555
K3 Na14 4.017641 1_655
K3 Na1 4.059790 1_655
K3 Na2 4.059803 1_545
K3 Tl27 4.129866 1_555
K3 K5 4.410256 1_655
K3 K4 4.410383 1_545
K4 Tl21 3.872923 1_665
K4 Tl4 3.899033 1_554
K4 Tl2 3.943128 1_555
K4 Tl0 3.943173 1_655
K4 Tl13 4.009161 1_555
K4 Na12 4.017512 1_555
K4 Na14 4.017651 1_655
K4 Na0 4.059791 1_655
K4 Na2 4.059797 1_555
K4 Tl28 4.129866 1_555
K4 K5 4.410256 1_665
K5 Tl21 3.872892 1_555
K5 Tl5 3.899042 1_554
K5 Tl1 3.943233 1_555
K5 Tl0 3.943255 1_545
K5 Tl13 4.009077 1_555
K5 Na12 4.017606 1_555
K5 Na13 4.017614 1_555
K5 Na1 4.059861 1_555
K5 Na0 4.059868 1_545
K5 Tl29 4.129733 1_555
K6 Tl22 3.872929 1_655
K6 Tl6 3.899033 1_555
K6 Tl11 3.943140 1_545
K6 Tl10 3.943164 1_655
K6 Tl14 4.009142 1_555
K6 Na16 4.017510 1_555
K6 Na17 4.017641 1_655
K6 Na10 4.059790 1_655
K6 Na11 4.059803 1_545
K6 Tl30 4.129866 1_555
K6 K8 4.410256 1_655
K6 K7 4.410383 1_545
K7 Tl22 3.872923 1_665
K7 Tl7 3.899033 1_555
K7 Tl11 3.943128 1_555
K7 Tl9 3.943173 1_655
K7 Tl14 4.009161 1_555
K7 Na15 4.017512 1_555
K7 Na17 4.017651 1_655
K7 Na9 4.059791 1_655
K7 Na11 4.059797 1_555
K7 Tl31 4.129866 1_555
K7 K9 4.296563 1_655
K7 K8 4.410256 1_665
K8 Tl22 3.872892 1_555
K8 Tl8 3.899042 1_555
K8 Tl10 3.943233 1_555
K8 Tl9 3.943255 1_545
K8 Tl14 4.009077 1_555
K8 Na15 4.017606 1_555
K8 Na16 4.017614 1_555
K8 Na10 4.059861 1_555
K8 Na9 4.059868 1_545
K8 Tl32 4.129733 1_555
K8 K9 4.296531 1_545
K9 Tl23 3.872929 1_565
K9 Tl9 3.899033 1_555
K9 Tl8 3.943140 1_565
K9 Tl7 3.943164 1_455
K9 Tl15 4.009142 1_555
K9 Na16 4.017510 1_565
K9 Na17 4.017641 1_555
K9 Na7 4.059790 1_455
K9 Na8 4.059803 1_565
K9 Tl33 4.129866 1_555
K10 Tl23 3.872923 1_555
K10 Tl10 3.899033 1_555
K10 Tl8 3.943128 1_555
K10 Tl6 3.943173 1_455
K10 K27 3.958583 1_555
K10 K29 3.958605 1_555
K10 Tl15 4.009161 1_555
K10 Na15 4.017512 1_555
K10 Na17 4.017651 1_555
K10 Na6 4.059791 1_455
K10 Na8 4.059797 1_555
K10 Tl34 4.129866 1_555
K10 K8 4.296520 1_555
K10 K6 4.296563 1_455
K10 K11 4.410256 1_445
K10 K9 4.410383 1_545
K11 Tl23 3.872892 1_665
K11 Tl11 3.899042 1_555
K11 Tl7 3.943233 1_555
K11 Tl6 3.943255 1_565
K11 K27 3.958458 1_555
K11 K28 3.958471 1_555
K11 Tl15 4.009077 1_555
K11 Na15 4.017606 1_555
K11 Na16 4.017614 1_565
K11 Na7 4.059861 1_555
K11 Na6 4.059868 1_565
K11 Tl35 4.129733 1_555
K11 K7 4.296520 1_555
K11 K6 4.296531 1_565
K11 K9 4.410256 1_655
K12 Tl19 4.001957 1_555
K12 Tl16 4.001957 1_555
K12 K24 4.021636 1_555
K12 K21 4.021636 1_555
K12 K14 4.071102 1_555
K12 K13 4.071262 1_555
K12 Na10 4.072539 1_555
K12 Na1 4.072539 1_555
K12 Na2 4.072566 1_555
K12 Na11 4.072566 1_555
K12 Tl28 4.114166 1_555
K12 Tl31 4.114166 1_555
K12 Tl32 4.114290 1_555
K12 Tl29 4.114290 1_555
K12 K31 4.116041 1_555
K13 Tl19 4.001952 1_555
K13 Tl16 4.001952 1_555
K13 K25 4.021632 1_565
K13 K22 4.021632 1_565
K13 K14 4.071102 1_555
K13 Na0 4.072539 1_555
K13 Na9 4.072539 1_555
K13 Na2 4.072567 1_555
K13 Na11 4.072567 1_555
K13 Tl30 4.114167 1_565
K13 Tl27 4.114167 1_565
K13 Tl32 4.114300 1_565
K13 Tl29 4.114300 1_565
K13 K31 4.116031 1_565
K14 Tl19 4.001714 1_555
K14 Tl16 4.001714 1_555
K14 K23 4.021632 1_455
K14 K26 4.021632 1_455
K14 Na0 4.072582 1_555
K14 Na9 4.072582 1_555
K14 Na1 4.072582 1_555
K14 Na10 4.072582 1_555
K14 Tl30 4.114313 1_455
K14 Tl27 4.114313 1_455
K14 Tl31 4.114321 1_455
K14 Tl28 4.114321 1_455
K14 K31 4.115933 1_455
K15 Tl18 4.001957 1_555
K15 Tl17 4.001957 1_555
K15 K18 4.021636 1_555
K15 K27 4.021636 1_555
K15 K17 4.071102 1_555
K15 K16 4.071262 1_555
K15 Na7 4.072539 1_555
K15 Na4 4.072539 1_555
K15 Na5 4.072566 1_555
K15 Na8 4.072566 1_555
K15 Tl34 4.114166 1_555
K15 Tl25 4.114166 1_555
K15 Tl26 4.114290 1_555
K15 Tl35 4.114290 1_555
K15 K30 4.116041 1_555
K16 Tl18 4.001952 1_555
K16 Tl17 4.001952 1_555
K16 K19 4.021632 1_545
K16 K28 4.021632 1_545
K16 K17 4.071102 1_555
K16 Na6 4.072539 1_555
K16 Na3 4.072539 1_555
K16 Na5 4.072567 1_555
K16 Na8 4.072567 1_555
K16 Tl24 4.114167 1_545
K16 Tl33 4.114167 1_545
K16 Tl26 4.114300 1_545
K16 Tl35 4.114300 1_545
K16 K30 4.116031 1_545
K17 Tl18 4.001714 1_555
K17 Tl17 4.001714 1_555
K17 K29 4.021632 1_655
K17 K20 4.021632 1_655
K17 Na6 4.072582 1_555
K17 Na3 4.072582 1_555
K17 Na7 4.072582 1_555
K17 Na4 4.072582 1_555
K17 Tl24 4.114313 1_655
K17 Tl33 4.114313 1_655
K17 Tl25 4.114321 1_655
K17 Tl34 4.114321 1_655
K17 K30 4.115933 1_655
K18 Tl26 3.744675 1_555
K18 Tl25 3.745080 1_555
K18 Tl12 3.781539 1_555
K18 Tl17 3.937554 1_555
K18 K2 3.958458 1_555
K19 Tl26 3.744688 1_555
K19 Tl24 3.745076 1_555
K19 Tl12 3.781539 1_555
K19 Tl17 3.937535 1_565
K19 K2 3.958471 1_555
K20 Tl24 3.745108 1_555
K20 Tl25 3.745126 1_555
K20 Tl12 3.781531 1_555
K20 Tl17 3.937087 1_455
K21 Tl29 3.744675 1_555
K21 Tl28 3.745080 1_555
K21 Tl13 3.781539 1_555
K21 Tl16 3.937554 1_555
K21 K5 3.958458 1_555
K21 K4 3.958583 1_555
K22 Tl29 3.744688 1_555
K22 Tl27 3.745076 1_555
K22 Tl13 3.781539 1_555
K22 Tl16 3.937535 1_545
K22 K5 3.958471 1_555
K22 K3 3.958577 1_555
K23 Tl27 3.745108 1_555
K23 Tl28 3.745126 1_555
K23 Tl13 3.781531 1_555
K23 Tl16 3.937087 1_655
K23 K3 3.958585 1_555
K23 K4 3.958605 1_555
K24 Tl32 3.744675 1_555
K24 Tl31 3.745080 1_555
K24 Tl14 3.781539 1_555
K24 Tl19 3.937554 1_555
K24 K8 3.958458 1_555
K24 K7 3.958583 1_555
K25 Tl32 3.744688 1_555
K25 Tl30 3.745076 1_555
K25 Tl14 3.781539 1_555
K25 Tl19 3.937535 1_545
K25 K8 3.958471 1_555
K25 K6 3.958577 1_555
K26 Tl30 3.745108 1_555
K26 Tl31 3.745126 1_555
K26 Tl14 3.781531 1_555
K26 Tl19 3.937087 1_655
K26 K6 3.958585 1_555
K26 K7 3.958605 1_555
K27 Tl35 3.744675 1_555
K27 Tl34 3.745080 1_555
K27 Tl15 3.781539 1_555
K27 Tl18 3.937554 1_555
K28 Tl35 3.744688 1_555
K28 Tl33 3.745076 1_555
K28 Tl15 3.781539 1_555
K28 Tl18 3.937535 1_565
K28 K9 3.958577 1_555
K29 Tl33 3.745108 1_555
K29 Tl34 3.745126 1_555
K29 Tl15 3.781531 1_555
K29 Tl18 3.937087 1_455
K29 K9 3.958585 1_555
K30 Tl35 3.738257 1_555
K30 Tl26 3.738257 1_555
K30 Tl33 3.738431 1_555
K30 Tl24 3.738431 1_555
K30 Tl34 3.738449 1_555
K30 Tl25 3.738449 1_555
K31 Tl29 3.738257 1_555
K31 Tl32 3.738257 1_555
K31 Tl27 3.738431 1_555
K31 Tl30 3.738431 1_555
K31 Tl28 3.738449 1_555
K31 Tl31 3.738449 1_555
Na0 Tl0 3.188439 1_555
Na0 Tl21 3.227574 1_565
Na0 Tl16 3.263443 1_555
Na0 Tl28 3.407932 1_455
Na0 Tl29 3.408046 1_565
Na1 Tl1 3.188435 1_555
Na1 Tl21 3.227574 1_555
Na1 Tl16 3.263453 1_555
Na1 Tl27 3.407932 1_455
Na1 Tl29 3.408037 1_555
Na2 Tl2 3.188362 1_555
Na2 Tl21 3.227471 1_665
Na2 Tl16 3.263627 1_555
Na2 Tl28 3.407986 1_555
Na2 Tl27 3.407995 1_565
Na3 Tl3 3.188439 1_555
Na3 Tl20 3.227574 1_655
Na3 Tl17 3.263443 1_555
Na3 Tl25 3.407932 1_655
Na3 Tl26 3.408046 1_545
Na4 Tl4 3.188435 1_555
Na4 Tl20 3.227574 1_665
Na4 Tl17 3.263453 1_555
Na4 Tl24 3.407932 1_655
Na4 Tl26 3.408037 1_555
Na5 Tl5 3.188362 1_555
Na5 Tl20 3.227471 1_555
Na5 Tl17 3.263627 1_555
Na5 Tl25 3.407986 1_555
Na5 Tl24 3.407995 1_545
Na6 Tl6 3.188439 1_555
Na6 Tl23 3.227574 1_655
Na6 Tl18 3.263443 1_555
Na6 Tl34 3.407932 1_655
Na6 Tl35 3.408046 1_545
Na7 Tl7 3.188435 1_555
Na7 Tl23 3.227574 1_665
Na7 Tl18 3.263453 1_555
Na7 Tl33 3.407932 1_655
Na7 Tl35 3.408037 1_555
Na8 Tl8 3.188362 1_555
Na8 Tl23 3.227471 1_555
Na8 Tl18 3.263627 1_555
Na8 Tl34 3.407986 1_555
Na8 Tl33 3.407995 1_545
Na9 Tl9 3.188439 1_555
Na9 Tl22 3.227574 1_565
Na9 Tl19 3.263443 1_555
Na9 Tl31 3.407932 1_455
Na9 Tl32 3.408046 1_565
Na10 Tl10 3.188435 1_555
Na10 Tl22 3.227574 1_555
Na10 Tl19 3.263453 1_555
Na10 Tl30 3.407932 1_455
Na10 Tl32 3.408037 1_555
Na11 Tl11 3.188362 1_555
Na11 Tl22 3.227471 1_665
Na11 Tl19 3.263627 1_555
Na11 Tl31 3.407986 1_555
Na11 Tl30 3.407995 1_565
Na12 Tl4 3.249796 1_554
Na12 Tl1 3.249796 1_555
Na12 Tl2 3.249897 1_555
Na12 Tl5 3.249897 1_554
Na12 Tl13 3.353697 1_555
Na12 Tl12 3.353697 1_554
Na13 Tl3 3.249800 1_554
Na13 Tl0 3.249800 1_545
Na13 Tl5 3.249907 1_554
Na13 Tl2 3.249907 1_545
Na13 Tl12 3.353687 1_544
Na13 Tl13 3.353687 1_555
Na14 Tl3 3.249830 1_454
Na14 Tl0 3.249830 1_555
Na14 Tl4 3.249836 1_454
Na14 Tl1 3.249836 1_555
Na14 Tl12 3.353618 1_554
Na14 Tl13 3.353618 1_455
Na15 Tl10 3.249796 1_555
Na15 Tl7 3.249796 1_555
Na15 Tl11 3.249897 1_555
Na15 Tl8 3.249897 1_555
Na15 Tl14 3.353697 1_555
Na15 Tl15 3.353697 1_555
Na16 Tl9 3.249800 1_545
Na16 Tl6 3.249800 1_555
Na16 Tl8 3.249907 1_555
Na16 Tl11 3.249907 1_545
Na16 Tl14 3.353687 1_555
Na16 Tl15 3.353687 1_545
Na17 Tl9 3.249830 1_555
Na17 Tl6 3.249830 1_455
Na17 Tl10 3.249836 1_555
Na17 Tl7 3.249836 1_455
Na17 Tl14 3.353618 1_455
Na17 Tl15 3.353618 1_555
Tl0 Tl12 3.164646 1_554
Tl0 Tl16 3.175539 1_555
Tl1 Tl12 3.164658 1_554
Tl1 Tl16 3.175551 1_555
Tl10 Tl15 3.164658 1_555
Tl10 Tl19 3.175551 1_555
Tl11 Tl15 3.164645 1_555
Tl11 Tl19 3.175649 1_555
Tl12 Tl2 3.164645 1_556
Tl13 Tl5 3.164645 1_554
Tl13 Tl3 3.164646 1_554
Tl13 Tl4 3.164658 1_554
Tl14 Tl8 3.164645 1_555
Tl14 Tl6 3.164646 1_555
Tl14 Tl7 3.164658 1_555
Tl15 Tl9 3.164646 1_555
Tl16 Tl2 3.175649 1_555
Tl17 Tl3 3.175539 1_555
Tl17 Tl4 3.175551 1_555
Tl17 Tl5 3.175649 1_555
Tl18 Tl6 3.175539 1_555
Tl18 Tl7 3.175551 1_555
Tl18 Tl8 3.175649 1_555
Tl19 Tl9 3.175539 1_555
Tl20 Tl25 3.286177 1_555
Tl20 Tl24 3.286186 1_545
Tl20 Tl26 3.286292 1_445
Tl21 Tl28 3.286177 1_445
Tl21 Tl27 3.286186 1_455
Tl21 Tl29 3.286292 1_555
Tl22 Tl31 3.286177 1_445
Tl22 Tl30 3.286186 1_455
Tl22 Tl32 3.286292 1_555
Tl23 Tl34 3.286177 1_555
Tl23 Tl33 3.286186 1_545
Tl23 Tl35 3.286292 1_445
Tl24 Tl33 3.113097 1_555
Tl25 Tl34 3.113097 1_555
Tl26 Tl35 3.113506 1_555
Tl27 Tl30 3.113097 1_555
Tl28 Tl31 3.113097 1_555
Tl29 Tl32 3.113506 1_555
Cd0 Tl29 3.102170 1_565
Cd0 Tl32 3.102170 1_565
Cd0 Tl28 3.102301 1_455
Cd0 Tl31 3.102301 1_455
Cd0 Na0 3.146122 1_555
Cd0 Na9 3.146122 1_555
Cd0 Cd1 3.311385 1_565
Cd0 Cd2 3.311438 1_455
Cd0 Tl21 3.337205 1_565
Cd0 Tl22 3.337205 1_565
Cd0 K13 3.944874 1_555
Cd0 K14 3.945232 1_555
Cd1 Tl29 3.102164 1_555
Cd1 Tl32 3.102164 1_555
Cd1 Tl27 3.102304 1_455
Cd1 Tl30 3.102304 1_455
Cd1 Na1 3.146122 1_555
Cd1 Na10 3.146122 1_555
Cd1 Cd2 3.311438 1_445
Cd1 Tl21 3.337205 1_555
Cd1 Tl22 3.337205 1_555
Cd1 K12 3.944873 1_555
Cd1 K14 3.945232 1_555
Cd2 Tl28 3.102104 1_555
Cd2 Tl31 3.102104 1_555
Cd2 Tl27 3.102114 1_565
Cd2 Tl30 3.102114 1_565
Cd2 Na2 3.146234 1_555
Cd2 Na11 3.146234 1_555
Cd2 Tl21 3.337012 1_665
Cd2 Tl22 3.337012 1_665
Cd2 K12 3.945219 1_555
Cd2 K13 3.945219 1_555
Cd3 Tl26 3.102170 1_545
Cd3 Tl35 3.102170 1_545
Cd3 Tl25 3.102301 1_655
Cd3 Tl34 3.102301 1_655
Cd3 Na6 3.146122 1_555
Cd3 Na3 3.146122 1_555
Cd3 Cd4 3.311385 1_545
Cd3 Cd5 3.311438 1_655
Cd3 Tl23 3.337205 1_655
Cd3 Tl20 3.337205 1_655
Cd3 K16 3.944874 1_555
Cd3 K17 3.945232 1_555
Cd4 Tl26 3.102164 1_555
Cd4 Tl35 3.102164 1_555
Cd4 Tl24 3.102304 1_655
Cd4 Tl33 3.102304 1_655
Cd4 Na7 3.146122 1_555
Cd4 Na4 3.146122 1_555
Cd4 Cd5 3.311438 1_665
Cd4 Tl23 3.337205 1_665
Cd4 Tl20 3.337205 1_665
Cd4 K15 3.944873 1_555
Cd4 K17 3.945232 1_555
Cd5 Tl25 3.102104 1_555
Cd5 Tl34 3.102104 1_555
Cd5 Tl33 3.102114 1_545
Cd5 Tl24 3.102114 1_545
Cd5 Na5 3.146234 1_555
Cd5 Na8 3.146234 1_555
Cd5 Tl23 3.337012 1_555
Cd5 Tl20 3.337012 1_555
Cd5 K15 3.945219 1_555
Cd5 K16 3.945219 1_555
