# generated using pymatgen
data_Ca2Cr2(SiO4)3
_symmetry_space_group_name_H-M   'P 1'
_cell_length_a   10.39382507
_cell_length_b   10.39382507
_cell_length_c   10.39382507
_cell_angle_alpha   109.07252871
_cell_angle_beta   109.07252871
_cell_angle_gamma   110.27158130
_symmetry_Int_Tables_number   1
_chemical_formula_structural   Ca2Cr2(SiO4)3
_chemical_formula_sum   'Ca8 Cr8 Si12 O48'
_cell_volume   864.25251865
_cell_formula_units_Z   4
loop_
 _symmetry_equiv_pos_site_id
 _symmetry_equiv_pos_as_xyz
  1  'x, y, z'
loop_
 _atom_site_type_symbol
 _atom_site_label
 _atom_site_symmetry_multiplicity
 _atom_site_fract_x
 _atom_site_fract_y
 _atom_site_fract_z
 _atom_site_occupancy
  Ca  Ca0  1  0.49698100  0.12500000  0.87198100  1
  Ca  Ca1  1  0.25301900  0.62500000  0.12801900  1
  Ca  Ca2  1  0.99698100  0.12500000  0.37198100  1
  Ca  Ca3  1  0.37500000  0.00301900  0.12801900  1
  Ca  Ca4  1  0.37500000  0.50301900  0.62801900  1
  Ca  Ca5  1  0.75301900  0.62500000  0.62801900  1
  Ca  Ca6  1  0.87500000  0.74698100  0.37198100  1
  Ca  Ca7  1  0.87500000  0.24698100  0.87198100  1
  Cr  Cr0  1  0.12500000  0.37500000  0.75000000  1
  Cr  Cr1  1  0.62500000  0.37500000  0.75000000  1
  Cr  Cr2  1  0.62500000  0.87500000  0.25000000  1
  Cr  Cr3  1  0.12500000  0.87500000  0.25000000  1
  Cr  Cr4  1  0.62500000  0.37500000  0.25000000  1
  Cr  Cr5  1  0.62500000  0.87500000  0.75000000  1
  Cr  Cr6  1  0.12500000  0.37500000  0.25000000  1
  Cr  Cr7  1  0.12500000  0.87500000  0.75000000  1
  Si  Si0  1  0.87500000  0.99895500  0.62395500  1
  Si  Si1  1  0.37500000  0.75104500  0.87604500  1
  Si  Si2  1  0.50104500  0.62500000  0.37604500  1
  Si  Si3  1  0.00000000  0.00000000  0.00000000  1
  Si  Si4  1  0.24895500  0.12500000  0.62395500  1
  Si  Si5  1  0.75000000  0.25000000  0.50000000  1
  Si  Si6  1  0.37500000  0.25104500  0.37604500  1
  Si  Si7  1  0.25000000  0.75000000  0.50000000  1
  Si  Si8  1  0.50000000  0.50000000  0.00000000  1
  Si  Si9  1  0.00104500  0.62500000  0.87604500  1
  Si  Si10  1  0.74895500  0.12500000  0.12395500  1
  Si  Si11  1  0.87500000  0.49895500  0.12395500  1
  O  O0  1  0.01825500  0.45972900  0.13359100  1
  O  O1  1  0.71208200  0.26767500  0.64679000  1
  O  O2  1  0.43361500  0.18140500  0.66801800  1
  O  O3  1  0.73174500  0.36533600  0.94147400  1
  O  O4  1  0.01559700  0.18361500  0.75221000  1
  O  O5  1  0.12911600  0.98232500  0.94440700  1
  O  O6  1  0.43140500  0.26338600  0.24779000  1
  O  O7  1  0.51338600  0.76559700  0.33198200  1
  O  O8  1  0.31859500  0.06638500  0.33198200  1
  O  O9  1  0.51767500  0.37088400  0.05559300  1
  O  O10  1  0.13466400  0.76825500  0.05852600  1
  O  O11  1  0.04027100  0.48174500  0.86640900  1
  O  O12  1  0.23232500  0.78791800  0.35321000  1
  O  O13  1  0.61533600  0.17386200  0.13359100  1
  O  O14  1  0.31529100  0.46208200  0.94440700  1
  O  O15  1  0.70972900  0.07613800  0.94147400  1
  O  O16  1  0.43470900  0.87911600  0.64679000  1
  O  O17  1  0.42386200  0.79027100  0.05852600  1
  O  O18  1  0.32613800  0.88466400  0.86640900  1
  O  O19  1  0.93140500  0.68361500  0.16801800  1
  O  O20  1  0.03791800  0.18470900  0.05559300  1
  O  O21  1  0.31638500  0.48440300  0.24779000  1
  O  O22  1  0.23661400  0.06859500  0.75221000  1
  O  O23  1  0.73440300  0.98661400  0.66801800  1
  O  O24  1  0.23174500  0.29027100  0.36640900  1
  O  O25  1  0.53791800  0.48232500  0.85321000  1
  O  O26  1  0.81638500  0.56859500  0.83198200  1
  O  O27  1  0.51825500  0.38466400  0.55852600  1
  O  O28  1  0.23440300  0.56638500  0.74779000  1
  O  O29  1  0.12088400  0.76767500  0.55559300  1
  O  O30  1  0.81859500  0.48661400  0.25221000  1
  O  O31  1  0.73661400  0.98440300  0.16801800  1
  O  O32  1  0.51559700  0.76338600  0.83198200  1
  O  O33  1  0.01338600  0.68140500  0.74779000  1
  O  O34  1  0.93361500  0.26559700  0.25221000  1
  O  O35  1  0.21208200  0.56529100  0.44440700  1
  O  O36  1  0.62911600  0.68470900  0.14679000  1
  O  O37  1  0.92386200  0.86533600  0.63359100  1
  O  O38  1  0.82613800  0.95972900  0.44147400  1
  O  O39  1  0.81529100  0.87088400  0.85321000  1
  O  O40  1  0.54027100  0.67386200  0.55852600  1
  O  O41  1  0.93470900  0.28791800  0.55559300  1
  O  O42  1  0.63466400  0.57613800  0.36640900  1
  O  O43  1  0.01767500  0.96208200  0.14679000  1
  O  O44  1  0.20972900  0.26825500  0.63359100  1
  O  O45  1  0.11533600  0.98174500  0.44147400  1
  O  O46  1  0.73232500  0.37911600  0.44440700  1
  O  O47  1  0.62088400  0.06529100  0.35321000  1
loop_
_geom_bond_atom_site_label_1
_geom_bond_atom_site_label_2
_geom_bond_distance
_geom_bond_site_symmetry_2
Ca0 O22 2.332160 1_555
Ca0 O2 2.332169 1_555
Ca0 O15 2.375593 1_555
Ca0 O13 2.375593 1_556
Ca0 O18 2.482156 1_545
Ca0 O3 2.482156 1_555
Ca0 O9 2.526499 1_556
Ca0 O16 2.526504 1_545
Ca1 O7 2.332162 1_555
Ca1 O21 2.332169 1_555
Ca1 O10 2.375593 1_555
Ca1 O11 2.375593 1_554
Ca1 O0 2.482156 1_555
Ca1 O17 2.482156 1_555
Ca1 O14 2.526499 1_554
Ca1 O12 2.526506 1_555
Ca2 O31 2.332162 1_545
Ca2 O34 2.332169 1_555
Ca2 O44 2.375593 1_655
Ca2 O45 2.375593 1_645
Ca2 O24 2.482156 1_655
Ca2 O38 2.482156 1_545
Ca2 O41 2.526499 1_555
Ca2 O43 2.526506 1_645
Ca3 O6 2.332160 1_555
Ca3 O8 2.332169 1_555
Ca3 O17 2.375593 1_545
Ca3 O18 2.375593 1_544
Ca3 O13 2.482156 1_555
Ca3 O10 2.482156 1_545
Ca3 O5 2.526499 1_544
Ca3 O47 2.526504 1_555
Ca4 O32 2.332162 1_555
Ca4 O28 2.332169 1_555
Ca4 O24 2.375593 1_555
Ca4 O27 2.375593 1_555
Ca4 O40 2.482156 1_555
Ca4 O44 2.482156 1_555
Ca4 O35 2.526499 1_555
Ca4 O25 2.526506 1_555
Ca5 O33 2.332160 1_655
Ca5 O26 2.332169 1_555
Ca5 O42 2.375593 1_555
Ca5 O40 2.375593 1_555
Ca5 O27 2.482156 1_555
Ca5 O37 2.482156 1_555
Ca5 O46 2.526499 1_555
Ca5 O39 2.526504 1_555
Ca6 O30 2.332160 1_555
Ca6 O19 2.332169 1_555
Ca6 O38 2.375593 1_555
Ca6 O37 2.375593 1_555
Ca6 O45 2.482156 1_655
Ca6 O42 2.482156 1_555
Ca6 O29 2.526499 1_655
Ca6 O36 2.526504 1_555
Ca7 O23 2.332162 1_545
Ca7 O4 2.332169 1_655
Ca7 O3 2.375593 1_555
Ca7 O0 2.375593 1_656
Ca7 O15 2.482156 1_555
Ca7 O11 2.482156 1_655
Ca7 O20 2.526499 1_656
Ca7 O1 2.526506 1_555
Cr0 O28 1.931342 1_555
Cr0 O4 1.931342 1_555
Cr0 O14 1.940750 1_555
Cr0 O41 1.940750 1_455
Cr0 O11 1.991628 1_555
Cr0 O44 1.991628 1_555
Cr1 O26 1.931342 1_555
Cr1 O2 1.931342 1_555
Cr1 O1 1.940756 1_555
Cr1 O25 1.940756 1_555
Cr1 O3 1.991628 1_555
Cr1 O27 1.991628 1_555
Cr2 O31 1.931347 1_555
Cr2 O7 1.931347 1_555
Cr2 O47 1.940753 1_565
Cr2 O36 1.940753 1_555
Cr2 O38 1.991628 1_555
Cr2 O17 1.991628 1_555
Cr3 O8 1.931342 1_565
Cr3 O19 1.931342 1_455
Cr3 O12 1.940756 1_555
Cr3 O43 1.940756 1_555
Cr3 O45 1.991628 1_555
Cr3 O10 1.991628 1_555
Cr4 O30 1.931344 1_555
Cr4 O6 1.931344 1_555
Cr4 O46 1.940750 1_555
Cr4 O9 1.940750 1_555
Cr4 O42 1.991628 1_555
Cr4 O13 1.991628 1_555
Cr5 O23 1.931347 1_555
Cr5 O32 1.931347 1_555
Cr5 O39 1.940753 1_555
Cr5 O16 1.940753 1_555
Cr5 O15 1.991628 1_565
Cr5 O40 1.991628 1_555
Cr6 O21 1.931342 1_555
Cr6 O34 1.931342 1_455
Cr6 O35 1.940750 1_555
Cr6 O20 1.940750 1_555
Cr6 O24 1.991628 1_555
Cr6 O0 1.991628 1_555
Cr7 O22 1.931344 1_565
Cr7 O33 1.931344 1_555
Cr7 O29 1.940750 1_555
Cr7 O5 1.940750 1_555
Cr7 O18 1.991628 1_555
Cr7 O37 1.991628 1_455
O0 Si11 1.656251 1_455
O1 Si5 1.666381 1_555
O2 Si4 1.645480 1_555
O3 Si11 1.656251 1_556
O4 Si0 1.645480 1_445
O5 Si3 1.666391 1_566
O6 Si6 1.645477 1_555
O7 Si2 1.645481 1_555
O8 Si6 1.645480 1_555
O9 Si8 1.666391 1_555
O10 Si9 1.656251 1_554
O11 Si9 1.656251 1_555
O12 Si7 1.666381 1_555
O13 Si10 1.656251 1_555
O14 Si8 1.666391 1_556
O15 Si10 1.656251 1_556
O16 Si7 1.666388 1_555
O17 Si1 1.656251 1_554
O18 Si1 1.656251 1_555
O19 Si11 1.645480 1_555
O20 Si3 1.666391 1_555
O21 Si2 1.645480 1_555
O22 Si4 1.645477 1_555
O23 Si0 1.645481 1_555
O24 Si6 1.656251 1_555
O25 Si8 1.666381 1_556
O26 Si9 1.645480 1_655
O27 Si6 1.656251 1_555
O28 Si1 1.645480 1_555
O29 Si7 1.666391 1_555
O30 Si11 1.645477 1_555
O31 Si10 1.645481 1_565
O32 Si1 1.645481 1_555
O33 Si9 1.645477 1_555
O34 Si10 1.645480 1_555
O35 Si7 1.666391 1_555
O36 Si8 1.666388 1_555
O37 Si0 1.656251 1_555
O38 Si0 1.656251 1_555
O39 Si3 1.666388 1_666
O40 Si2 1.656251 1_555
O41 Si5 1.666391 1_555
O42 Si2 1.656251 1_555
O43 Si3 1.666381 1_565
O44 Si4 1.656251 1_555
O45 Si4 1.656251 1_565
O46 Si5 1.666391 1_555
O47 Si5 1.666388 1_555
