# generated using pymatgen
data_YbCd6
_symmetry_space_group_name_H-M   'P 1'
_cell_length_a   13.76089899
_cell_length_b   13.76089899
_cell_length_c   13.76089899
_cell_angle_alpha   109.98360588
_cell_angle_beta   109.59422051
_cell_angle_gamma   108.83792364
_symmetry_Int_Tables_number   1
_chemical_formula_structural   YbCd6
_chemical_formula_sum   'Yb12 Cd72'
_cell_volume   2005.73574219
_cell_formula_units_Z   12
loop_
 _symmetry_equiv_pos_site_id
 _symmetry_equiv_pos_as_xyz
  1  'x, y, z'
loop_
 _atom_site_type_symbol
 _atom_site_label
 _atom_site_symmetry_multiplicity
 _atom_site_fract_x
 _atom_site_fract_y
 _atom_site_fract_z
 _atom_site_occupancy
  Yb  Yb0  1  0.81177800  0.51732600  0.70554800  1
  Yb  Yb1  1  0.18822200  0.48267400  0.29445200  1
  Yb  Yb2  1  0.18822200  0.89377100  0.70554800  1
  Yb  Yb3  1  0.81177800  0.10622900  0.29445200  1
  Yb  Yb4  1  0.11303100  0.30358100  0.80945000  1
  Yb  Yb5  1  0.88696900  0.69641900  0.19055000  1
  Yb  Yb6  1  0.49413100  0.30358100  0.19055000  1
  Yb  Yb7  1  0.50586900  0.69641900  0.80945000  1
  Yb  Yb8  1  0.30000000  0.18920500  0.48920500  1
  Yb  Yb9  1  0.70000000  0.81079500  0.51079500  1
  Yb  Yb10  1  0.30000000  0.81079500  0.11079500  1
  Yb  Yb11  1  0.70000000  0.18920500  0.88920500  1
  Cd  Cd0  1  0.50000000  0.31399800  0.81399800  1
  Cd  Cd1  1  0.50000000  0.68600200  0.18600200  1
  Cd  Cd2  1  0.69047200  0.19047200  0.50000000  1
  Cd  Cd3  1  0.30952800  0.80952800  0.50000000  1
  Cd  Cd4  1  0.18498200  0.50000000  0.68498200  1
  Cd  Cd5  1  0.81501800  0.50000000  0.31501800  1
  Cd  Cd6  1  0.73744700  0.64067200  0.90322500  1
  Cd  Cd7  1  0.26255300  0.35932800  0.09677500  1
  Cd  Cd8  1  0.26255300  0.16577800  0.90322500  1
  Cd  Cd9  1  0.73744700  0.83422200  0.09677500  1
  Cd  Cd10  1  0.86069000  0.09312300  0.76756600  1
  Cd  Cd11  1  0.13931000  0.90687700  0.23243400  1
  Cd  Cd12  1  0.32555700  0.09312300  0.23243400  1
  Cd  Cd13  1  0.67444300  0.90687700  0.76756600  1
  Cd  Cd14  1  0.09783500  0.24086400  0.33869900  1
  Cd  Cd15  1  0.90216500  0.75913600  0.66130100  1
  Cd  Cd16  1  0.09783500  0.75913600  0.85697100  1
  Cd  Cd17  1  0.90216500  0.24086400  0.14302900  1
  Cd  Cd18  1  0.77758000  0.45208700  0.91929200  1
  Cd  Cd19  1  0.46720600  0.54791300  0.32549300  1
  Cd  Cd20  1  0.22242000  0.14171300  0.67450700  1
  Cd  Cd21  1  0.53279400  0.85828700  0.08070800  1
  Cd  Cd22  1  0.85792200  0.08330300  0.54105800  1
  Cd  Cd23  1  0.14207800  0.68313700  0.22538200  1
  Cd  Cd24  1  0.54224500  0.31686300  0.45894200  1
  Cd  Cd25  1  0.45775500  0.91669700  0.77461800  1
  Cd  Cd26  1  0.31605800  0.45990300  0.54239300  1
  Cd  Cd27  1  0.91751000  0.77366600  0.45760700  1
  Cd  Cd28  1  0.08249000  0.54009700  0.85615500  1
  Cd  Cd29  1  0.68394200  0.22633400  0.14384500  1
  Cd  Cd30  1  0.22242000  0.54791300  0.08070800  1
  Cd  Cd31  1  0.53279400  0.45208700  0.67450700  1
  Cd  Cd32  1  0.77758000  0.85828700  0.32549300  1
  Cd  Cd33  1  0.46720600  0.14171300  0.91929200  1
  Cd  Cd34  1  0.14207800  0.91669700  0.45894200  1
  Cd  Cd35  1  0.85792200  0.31686300  0.77461800  1
  Cd  Cd36  1  0.45775500  0.68313700  0.54105800  1
  Cd  Cd37  1  0.54224500  0.08330300  0.22538200  1
  Cd  Cd38  1  0.68394200  0.54009700  0.45760700  1
  Cd  Cd39  1  0.08249000  0.22633400  0.54239300  1
  Cd  Cd40  1  0.91751000  0.45990300  0.14384500  1
  Cd  Cd41  1  0.31605800  0.77366600  0.85615500  1
  Cd  Cd42  1  0.59474200  0.25000300  0.65526100  1
  Cd  Cd43  1  0.40525800  0.74999700  0.34473900  1
  Cd  Cd44  1  0.40525800  0.06051900  0.65526100  1
  Cd  Cd45  1  0.59474200  0.93948100  0.34473900  1
  Cd  Cd46  1  0.94096800  0.34505400  0.59591400  1
  Cd  Cd47  1  0.05903200  0.65494600  0.40408600  1
  Cd  Cd48  1  0.74914000  0.34505400  0.40408600  1
  Cd  Cd49  1  0.25086000  0.65494600  0.59591400  1
  Cd  Cd50  1  0.34219900  0.40300700  0.74520600  1
  Cd  Cd51  1  0.65780100  0.59699300  0.25479400  1
  Cd  Cd52  1  0.34219900  0.59699300  0.93919200  1
  Cd  Cd53  1  0.65780100  0.40300700  0.06080800  1
  Cd  Cd54  1  0.99737100  0.67346000  0.00113100  1
  Cd  Cd55  1  0.32767100  0.32654000  0.32391100  1
  Cd  Cd56  1  0.00262900  0.00376000  0.67608900  1
  Cd  Cd57  1  0.67232900  0.99624000  0.99886900  1
  Cd  Cd58  1  0.00262900  0.32654000  0.99886900  1
  Cd  Cd59  1  0.67232900  0.67346000  0.67608900  1
  Cd  Cd60  1  0.99737100  0.99624000  0.32391100  1
  Cd  Cd61  1  0.32767100  0.00376000  0.00113100  1
  Cd  Cd62  1  0.58812400  0.58812400  0.00000000  1
  Cd  Cd63  1  0.41187600  0.41187600  0.00000000  1
  Cd  Cd64  1  0.59782900  0.00000000  0.59782900  1
  Cd  Cd65  1  0.40217100  0.00000000  0.40217100  1
  Cd  Cd66  1  0.00000000  0.40295600  0.40295600  1
  Cd  Cd67  1  0.00000000  0.59704400  0.59704400  1
  Cd  Cd68  1  0.91256100  0.82106000  0.90849900  1
  Cd  Cd69  1  0.08743900  0.17894000  0.09150100  1
  Cd  Cd70  1  0.08743900  0.99593800  0.90849900  1
  Cd  Cd71  1  0.91256100  0.00406200  0.09150100  1
loop_
_geom_bond_atom_site_label_1
_geom_bond_atom_site_label_2
_geom_bond_distance
_geom_bond_site_symmetry_2
Cd0 Cd53 2.871081 1_556
Cd0 Cd50 2.871081 1_555
Cd0 Cd42 2.929742 1_555
Cd0 Cd44 2.929742 1_555
Cd0 Cd33 3.165332 1_555
Cd0 Cd20 3.165343 1_555
Cd0 Cd31 3.165343 1_555
Cd0 Cd18 3.165345 1_555
Cd0 Cd62 3.258259 1_556
Cd0 Cd63 3.258259 1_556
Cd0 Yb11 3.735106 1_555
Cd0 Yb8 3.735106 1_555
Cd1 Cd52 2.871081 1_554
Cd1 Cd51 2.871081 1_555
Cd1 Cd43 2.929742 1_555
Cd1 Cd45 2.929742 1_555
Cd1 Cd21 3.165332 1_555
Cd1 Cd19 3.165343 1_555
Cd1 Cd32 3.165343 1_555
Cd1 Cd30 3.165345 1_555
Cd1 Cd62 3.258259 1_555
Cd1 Cd63 3.258259 1_555
Cd1 Yb9 3.735106 1_555
Cd1 Yb10 3.735106 1_555
Cd2 Cd45 2.891289 1_545
Cd2 Cd42 2.891289 1_555
Cd2 Cd48 2.905752 1_555
Cd2 Cd46 2.905752 1_555
Cd2 Cd24 3.113591 1_555
Cd2 Cd37 3.113591 1_555
Cd2 Cd35 3.113593 1_555
Cd2 Cd22 3.113602 1_555
Cd2 Cd64 3.422353 1_555
Cd2 Cd65 3.422353 1_555
Cd2 Yb0 3.782357 1_555
Cd2 Yb3 3.782360 1_555
Cd3 Cd43 2.891289 1_555
Cd3 Cd44 2.891289 1_565
Cd3 Cd49 2.905752 1_555
Cd3 Cd47 2.905752 1_555
Cd3 Cd36 3.113591 1_555
Cd3 Cd34 3.113602 1_555
Cd3 Cd65 3.422353 1_565
Cd3 Cd64 3.422353 1_565
Cd3 Yb1 3.782357 1_555
Cd3 Yb2 3.782360 1_555
Cd4 Cd49 2.855436 1_555
Cd4 Cd46 2.855436 1_455
Cd4 Cd50 2.926946 1_555
Cd4 Cd52 2.926946 1_555
Cd4 Cd41 3.111987 1_555
Cd4 Cd66 3.310752 1_555
Cd4 Cd67 3.310752 1_555
Cd4 Yb7 3.713911 1_555
Cd4 Yb4 3.713911 1_555
Cd5 Cd51 2.926946 1_555
Cd5 Cd53 2.926946 1_555
Cd5 Cd66 3.310752 1_655
Cd5 Cd67 3.310752 1_655
Cd5 Yb6 3.713911 1_555
Cd5 Yb5 3.713911 1_555
Cd6 Cd68 2.805453 1_555
Cd6 Cd62 2.837715 1_556
Cd6 Cd9 3.055976 1_556
Cd6 Yb0 3.340411 1_555
Cd6 Yb7 3.450518 1_555
Cd6 Yb5 3.450518 1_556
Cd7 Cd8 3.055976 1_554
Cd7 Yb1 3.340411 1_555
Cd7 Yb6 3.450518 1_555
Cd7 Yb4 3.450518 1_554
Cd8 Yb2 3.340401 1_545
Cd8 Yb4 3.450518 1_555
Cd8 Yb6 3.450518 1_556
Cd9 Yb3 3.340401 1_565
Cd9 Yb7 3.450518 1_554
Cd9 Yb5 3.450518 1_555
Cd10 Cd13 2.982489 1_545
Cd10 Cd56 3.008980 1_655
Cd10 Cd58 3.008994 1_655
Cd10 Cd22 3.060109 1_555
Cd10 Cd35 3.060109 1_555
Cd10 Cd64 3.078310 1_555
Cd10 Yb4 3.435082 1_655
Cd10 Yb9 3.506753 1_545
Cd10 Yb11 3.506767 1_555
Cd11 Cd12 2.982489 1_565
Cd11 Cd60 3.008980 1_455
Cd11 Cd54 3.008994 1_455
Cd11 Cd34 3.060109 1_555
Cd11 Cd23 3.060109 1_555
Cd11 Cd65 3.078310 1_565
Cd11 Yb5 3.435082 1_455
Cd11 Yb8 3.506753 1_565
Cd11 Yb10 3.506767 1_555
Cd12 Cd55 3.008993 1_555
Cd12 Cd61 3.008993 1_555
Cd12 Cd37 3.060109 1_555
Cd12 Cd24 3.060109 1_555
Cd12 Cd65 3.078299 1_555
Cd12 Yb6 3.435091 1_555
Cd12 Yb8 3.506754 1_555
Cd12 Yb10 3.506754 1_545
Cd13 Cd59 3.008993 1_555
Cd13 Cd57 3.008993 1_555
Cd13 Cd36 3.060109 1_555
Cd13 Cd25 3.060109 1_555
Cd13 Cd64 3.078299 1_565
Cd13 Yb7 3.435091 1_555
Cd13 Yb9 3.506754 1_555
Cd13 Yb11 3.506754 1_565
Cd14 Cd26 2.948594 1_555
Cd14 Cd39 2.948599 1_555
Cd14 Cd66 2.993207 1_555
Cd14 Cd55 3.101941 1_555
Cd14 Cd60 3.101941 1_445
Cd14 Cd17 3.104420 1_455
Cd14 Cd69 3.151439 1_555
Cd14 Cd71 3.151439 1_455
Cd14 Yb8 3.309550 1_555
Cd14 Yb1 3.494309 1_555
Cd14 Yb3 3.494310 1_455
Cd15 Cd38 2.948594 1_555
Cd15 Cd27 2.948599 1_555
Cd15 Cd67 2.993207 1_655
Cd15 Cd56 3.101941 1_665
Cd15 Cd59 3.101941 1_555
Cd15 Cd16 3.104420 1_655
Cd15 Cd68 3.151439 1_555
Cd15 Cd70 3.151439 1_655
Cd15 Yb9 3.309550 1_555
Cd15 Yb0 3.494309 1_555
Cd15 Yb2 3.494310 1_655
Cd16 Cd41 2.948591 1_555
Cd16 Cd28 2.948594 1_555
Cd16 Cd67 2.993207 1_555
Cd16 Cd61 3.101941 1_566
Cd16 Cd54 3.101941 1_456
Cd16 Cd70 3.151439 1_555
Cd16 Cd68 3.151439 1_455
Cd16 Yb10 3.309550 1_556
Cd16 Yb0 3.494309 1_455
Cd16 Yb2 3.494317 1_555
Cd17 Cd29 2.948591 1_555
Cd17 Cd40 2.948594 1_555
Cd17 Cd66 2.993207 1_655
Cd17 Cd58 3.101941 1_654
Cd17 Cd57 3.101941 1_544
Cd17 Cd71 3.151439 1_555
Cd17 Cd69 3.151439 1_655
Cd17 Yb11 3.309550 1_554
Cd17 Yb1 3.494309 1_655
Cd17 Yb3 3.494317 1_555
Cd18 Cd6 2.885173 1_555
Cd18 Cd40 2.985978 1_556
Cd18 Cd35 2.986818 1_555
Cd18 Cd54 3.019354 1_556
Cd18 Cd53 3.049292 1_556
Cd18 Cd42 3.115904 1_555
Cd18 Yb11 3.253190 1_555
Cd18 Yb5 3.447994 1_556
Cd18 Yb0 3.484119 1_555
Cd19 Cd7 2.885178 1_555
Cd19 Cd38 2.985967 1_555
Cd19 Cd36 2.986815 1_555
Cd19 Cd55 3.019358 1_555
Cd19 Cd51 3.049279 1_555
Cd19 Cd43 3.115912 1_555
Cd19 Yb9 3.253185 1_555
Cd19 Yb6 3.447986 1_555
Cd19 Yb1 3.484133 1_555
Cd20 Cd8 2.885178 1_555
Cd20 Cd39 2.985956 1_555
Cd20 Cd34 2.986811 1_545
Cd20 Cd56 3.019358 1_555
Cd20 Cd50 3.049279 1_555
Cd20 Cd44 3.115912 1_555
Cd20 Yb8 3.253185 1_555
Cd20 Yb4 3.447986 1_555
Cd20 Yb2 3.484119 1_545
Cd21 Cd9 2.885180 1_555
Cd21 Cd41 2.985979 1_554
Cd21 Cd37 2.986811 1_565
Cd21 Cd57 3.019369 1_554
Cd21 Cd52 3.049279 1_554
Cd21 Cd45 3.115899 1_555
Cd21 Yb10 3.253178 1_555
Cd21 Yb7 3.447997 1_554
Cd21 Yb3 3.484126 1_565
Cd22 Cd32 2.986811 1_545
Cd22 Cd56 2.988666 1_655
Cd22 Cd39 3.071368 1_655
Cd22 Cd45 3.079904 1_545
Cd22 Cd46 3.123212 1_555
Cd22 Yb3 3.381503 1_555
Cd22 Yb4 3.454370 1_655
Cd22 Yb9 3.467152 1_545
Cd23 Cd30 2.986818 1_555
Cd23 Cd54 2.988670 1_455
Cd23 Cd40 3.071375 1_455
Cd23 Cd43 3.079907 1_555
Cd23 Cd3 3.113593 1_555
Cd23 Cd47 3.123203 1_555
Cd23 Yb1 3.381517 1_555
Cd23 Yb5 3.454362 1_455
Cd23 Yb10 3.467157 1_555
Cd24 Cd31 2.986815 1_555
Cd24 Cd55 2.988674 1_555
Cd24 Cd38 3.071383 1_555
Cd24 Cd42 3.079894 1_555
Cd24 Cd48 3.123211 1_555
Cd24 Yb0 3.381512 1_555
Cd24 Yb6 3.454375 1_555
Cd24 Yb8 3.467149 1_555
Cd25 Cd33 2.986811 1_565
Cd25 Cd57 2.988674 1_555
Cd25 Cd41 3.071375 1_555
Cd25 Cd44 3.079894 1_565
Cd25 Cd3 3.113591 1_555
Cd25 Cd49 3.123211 1_555
Cd25 Yb2 3.381517 1_555
Cd25 Yb7 3.454375 1_555
Cd25 Yb11 3.467149 1_565
Cd26 Cd31 2.985967 1_555
Cd26 Cd55 3.028691 1_555
Cd26 Cd49 3.032851 1_555
Cd26 Cd36 3.071383 1_555
Cd26 Cd50 3.087636 1_555
Cd26 Cd4 3.111977 1_555
Cd26 Yb7 3.288974 1_555
Cd26 Yb1 3.448892 1_555
Cd26 Yb8 3.457883 1_555
Cd27 Cd32 2.985956 1_555
Cd27 Cd56 3.028683 1_665
Cd27 Cd47 3.032860 1_655
Cd27 Cd34 3.071368 1_655
Cd27 Cd51 3.087638 1_555
Cd27 Cd5 3.111989 1_555
Cd27 Yb5 3.288972 1_555
Cd27 Yb2 3.448892 1_655
Cd27 Yb9 3.457878 1_555
Cd28 Cd30 2.985978 1_556
Cd28 Cd54 3.028691 1_456
Cd28 Cd46 3.032851 1_455
Cd28 Cd35 3.071375 1_455
Cd28 Cd52 3.087636 1_555
Cd28 Cd4 3.111977 1_555
Cd28 Yb4 3.288974 1_555
Cd28 Yb0 3.448892 1_455
Cd28 Yb10 3.457883 1_556
Cd29 Cd33 2.985979 1_554
Cd29 Cd57 3.028680 1_544
Cd29 Cd48 3.032852 1_555
Cd29 Cd37 3.071375 1_555
Cd29 Cd53 3.087649 1_555
Cd29 Cd5 3.111987 1_555
Cd29 Yb6 3.288981 1_555
Cd29 Yb3 3.448892 1_555
Cd29 Yb11 3.457885 1_554
Cd30 Cd7 2.885173 1_555
Cd30 Cd58 3.019354 1_554
Cd30 Cd52 3.049292 1_554
Cd30 Cd43 3.115904 1_555
Cd30 Yb10 3.253190 1_555
Cd30 Yb4 3.447994 1_554
Cd30 Yb1 3.484119 1_555
Cd31 Cd6 2.885178 1_555
Cd31 Cd59 3.019358 1_555
Cd31 Cd50 3.049279 1_555
Cd31 Cd42 3.115912 1_555
Cd31 Yb8 3.253185 1_555
Cd31 Yb7 3.447986 1_555
Cd31 Yb0 3.484133 1_555
Cd32 Cd9 2.885178 1_555
Cd32 Cd60 3.019358 1_555
Cd32 Cd51 3.049279 1_555
Cd32 Cd45 3.115912 1_555
Cd32 Yb9 3.253185 1_555
Cd32 Yb5 3.447986 1_555
Cd32 Yb3 3.484119 1_565
Cd33 Cd8 2.885180 1_555
Cd33 Cd61 3.019369 1_556
Cd33 Cd53 3.049279 1_556
Cd33 Cd44 3.115899 1_555
Cd33 Yb11 3.253178 1_555
Cd33 Yb6 3.447997 1_556
Cd33 Yb2 3.484126 1_545
Cd34 Cd60 2.988666 1_455
Cd34 Cd44 3.079904 1_565
Cd34 Cd47 3.123212 1_555
Cd34 Yb2 3.381503 1_555
Cd34 Yb5 3.454370 1_455
Cd34 Yb8 3.467152 1_565
Cd35 Cd58 2.988670 1_655
Cd35 Cd42 3.079907 1_555
Cd35 Cd46 3.123203 1_555
Cd35 Yb0 3.381517 1_555
Cd35 Yb4 3.454362 1_655
Cd35 Yb11 3.467157 1_555
Cd36 Cd59 2.988674 1_555
Cd36 Cd43 3.079894 1_555
Cd36 Cd49 3.123211 1_555
Cd36 Yb1 3.381512 1_555
Cd36 Yb7 3.454375 1_555
Cd36 Yb9 3.467149 1_555
Cd37 Cd61 2.988674 1_555
Cd37 Cd45 3.079894 1_545
Cd37 Cd48 3.123211 1_555
Cd37 Yb3 3.381517 1_555
Cd37 Yb6 3.454375 1_555
Cd37 Yb10 3.467149 1_545
Cd38 Cd59 3.028691 1_555
Cd38 Cd48 3.032851 1_555
Cd38 Cd51 3.087636 1_555
Cd38 Cd5 3.111977 1_555
Cd38 Yb6 3.288974 1_555
Cd38 Yb0 3.448892 1_555
Cd38 Yb9 3.457883 1_555
Cd39 Cd60 3.028683 1_445
Cd39 Cd46 3.032860 1_455
Cd39 Cd50 3.087638 1_555
Cd39 Cd4 3.111989 1_555
Cd39 Yb4 3.288972 1_555
Cd39 Yb3 3.448892 1_455
Cd39 Yb8 3.457878 1_555
Cd40 Cd58 3.028691 1_654
Cd40 Cd47 3.032851 1_655
Cd40 Cd53 3.087636 1_555
Cd40 Cd5 3.111977 1_555
Cd40 Yb5 3.288974 1_555
Cd40 Yb1 3.448892 1_655
Cd40 Yb11 3.457883 1_554
Cd41 Cd61 3.028680 1_566
Cd41 Cd49 3.032852 1_555
Cd41 Cd52 3.087649 1_555
Cd41 Yb7 3.288981 1_555
Cd41 Yb2 3.448892 1_555
Cd41 Yb10 3.457885 1_556
Cd42 Cd44 3.034333 1_555
Cd42 Cd65 3.274195 1_555
Cd42 Cd64 3.274195 1_555
Cd42 Yb11 3.557767 1_555
Cd42 Yb8 3.557767 1_555
Cd42 Yb0 3.565081 1_555
Cd43 Cd45 3.034333 1_555
Cd43 Cd65 3.274195 1_565
Cd43 Cd64 3.274195 1_565
Cd43 Yb9 3.557767 1_555
Cd43 Yb10 3.557767 1_555
Cd43 Yb1 3.565081 1_555
Cd44 Cd65 3.274195 1_555
Cd44 Cd64 3.274195 1_555
Cd44 Yb11 3.557767 1_555
Cd44 Yb8 3.557767 1_555
Cd44 Yb2 3.565075 1_545
Cd45 Cd65 3.274195 1_565
Cd45 Cd64 3.274195 1_565
Cd45 Yb9 3.557767 1_555
Cd45 Yb10 3.557767 1_555
Cd45 Yb3 3.565075 1_565
Cd46 Cd48 3.043464 1_555
Cd46 Cd67 3.289382 1_655
Cd46 Cd66 3.289382 1_655
Cd46 Yb4 3.452357 1_655
Cd46 Yb0 3.623856 1_555
Cd46 Yb3 3.623861 1_555
Cd47 Cd5 2.855436 1_455
Cd47 Cd49 3.043464 1_555
Cd47 Cd67 3.289382 1_555
Cd47 Cd66 3.289382 1_555
Cd47 Yb5 3.452357 1_455
Cd47 Yb1 3.623856 1_555
Cd47 Yb2 3.623861 1_555
Cd48 Cd5 2.855436 1_555
Cd48 Cd67 3.289382 1_655
Cd48 Cd66 3.289382 1_655
Cd48 Yb6 3.452357 1_555
Cd48 Yb0 3.623856 1_555
Cd48 Yb3 3.623867 1_555
Cd49 Cd66 3.289382 1_555
Cd49 Cd67 3.289382 1_555
Cd49 Yb7 3.452357 1_555
Cd49 Yb1 3.623856 1_555
Cd49 Yb2 3.623867 1_555
Cd50 Cd52 3.062860 1_555
Cd50 Cd63 3.256497 1_556
Cd50 Cd62 3.256497 1_556
Cd50 Yb8 3.441489 1_555
Cd50 Yb4 3.536765 1_555
Cd50 Yb7 3.536765 1_555
Cd51 Cd53 3.062860 1_555
Cd51 Cd63 3.256497 1_555
Cd51 Cd62 3.256497 1_555
Cd51 Yb9 3.441489 1_555
Cd51 Yb6 3.536765 1_555
Cd51 Yb5 3.536765 1_555
Cd52 Cd63 3.256497 1_556
Cd52 Cd62 3.256497 1_556
Cd52 Yb10 3.441489 1_556
Cd52 Yb4 3.536765 1_555
Cd52 Yb7 3.536765 1_555
Cd53 Cd63 3.256497 1_555
Cd53 Cd62 3.256497 1_555
Cd53 Yb11 3.441489 1_554
Cd53 Yb5 3.536765 1_555
Cd53 Yb6 3.536765 1_555
Cd54 Cd68 3.068374 1_554
Cd54 Cd6 3.181565 1_554
Cd54 Yb0 3.346493 1_554
Cd54 Yb5 3.406644 1_555
Cd54 Yb10 3.456103 1_655
Cd55 Cd69 3.068374 1_555
Cd55 Cd7 3.181565 1_555
Cd55 Yb1 3.346493 1_555
Cd55 Yb6 3.406644 1_555
Cd55 Yb8 3.456103 1_555
Cd56 Cd70 3.068374 1_545
Cd56 Cd8 3.181565 1_555
Cd56 Yb2 3.346483 1_545
Cd56 Yb4 3.406644 1_555
Cd56 Yb9 3.456103 1_445
Cd57 Cd71 3.068374 1_566
Cd57 Cd9 3.181565 1_556
Cd57 Yb3 3.346495 1_566
Cd57 Yb7 3.406644 1_555
Cd57 Yb11 3.456103 1_565
Cd58 Cd69 3.068374 1_556
Cd58 Cd7 3.181565 1_556
Cd58 Yb1 3.346493 1_556
Cd58 Yb4 3.406644 1_555
Cd58 Yb11 3.456103 1_455
Cd59 Cd68 3.068374 1_555
Cd59 Cd6 3.181565 1_555
Cd59 Yb0 3.346493 1_555
Cd59 Yb7 3.406644 1_555
Cd59 Yb9 3.456103 1_555
Cd60 Cd71 3.068374 1_565
Cd60 Cd9 3.181565 1_555
Cd60 Yb3 3.346483 1_565
Cd60 Yb5 3.406644 1_555
Cd60 Yb8 3.456103 1_665
Cd61 Cd70 3.068374 1_544
Cd61 Cd8 3.181565 1_554
Cd61 Yb2 3.346495 1_544
Cd61 Yb6 3.406644 1_555
Cd61 Yb10 3.456103 1_545
Cd62 Cd63 2.822376 1_555
Cd62 Cd9 2.837715 1_555
Cd62 Yb7 3.485271 1_554
Cd62 Yb5 3.485271 1_555
Cd63 Cd8 2.837715 1_554
Cd63 Cd7 2.837715 1_555
Cd63 Yb6 3.485271 1_555
Cd63 Yb4 3.485271 1_554
Cd64 Cd65 3.104229 1_555
Cd64 Yb9 3.398830 1_545
Cd64 Yb11 3.398830 1_555
Cd65 Yb10 3.398830 1_545
Cd65 Yb8 3.398830 1_555
Cd66 Cd67 3.064471 1_555
Cd66 Yb1 3.466976 1_555
Cd66 Yb3 3.466987 1_455
Cd67 Yb0 3.466976 1_455
Cd67 Yb2 3.466987 1_555
Cd68 Cd70 2.800438 1_655
Cd68 Cd71 2.889433 1_566
Cd68 Yb0 3.587887 1_555
Cd69 Cd71 2.800438 1_455
Cd69 Cd7 2.805453 1_555
Cd69 Cd70 2.889433 1_544
Cd69 Yb1 3.587887 1_555
Cd70 Cd8 2.805453 1_565
Cd70 Yb2 3.587883 1_555
Cd71 Cd9 2.805453 1_545
Cd71 Yb3 3.587883 1_555
