# generated using pymatgen
data_Er(MnSn)6
_symmetry_space_group_name_H-M   'P 1'
_cell_length_a   5.67078257
_cell_length_b   5.67080450
_cell_length_c   9.16236560
_cell_angle_alpha   90.00000000
_cell_angle_beta   90.00000000
_cell_angle_gamma   120.00013864
_symmetry_Int_Tables_number   1
_chemical_formula_structural   Er(MnSn)6
_chemical_formula_sum   'Er1 Mn6 Sn6'
_cell_volume   255.16747320
_cell_formula_units_Z   1
loop_
 _symmetry_equiv_pos_site_id
 _symmetry_equiv_pos_as_xyz
  1  'x, y, z'
loop_
 _atom_site_type_symbol
 _atom_site_label
 _atom_site_symmetry_multiplicity
 _atom_site_fract_x
 _atom_site_fract_y
 _atom_site_fract_z
 _atom_site_occupancy
  Er  Er0  1  0.00000000  0.00000000  0.00000000  1
  Mn  Mn0  1  0.50000000  0.50000000  0.75330658  1
  Mn  Mn1  1  0.50000000  0.00000000  0.75330658  1
  Mn  Mn2  1  0.00000000  0.50000000  0.75331096  1
  Mn  Mn3  1  0.50000000  0.50000000  0.24669342  1
  Mn  Mn4  1  0.50000000  0.00000000  0.24669342  1
  Mn  Mn5  1  0.00000000  0.50000000  0.24668904  1
  Sn  Sn0  1  0.66666962  0.33333531  0.00000000  1
  Sn  Sn1  1  0.33333038  0.66666469  0.00000000  1
  Sn  Sn2  1  0.66666595  0.33333347  0.50000000  1
  Sn  Sn3  1  0.33333405  0.66666653  0.50000000  1
  Sn  Sn4  1  0.00000000  0.00000000  0.66547728  1
  Sn  Sn5  1  0.00000000  0.00000000  0.33452272  1
loop_
_geom_bond_atom_site_label_1
_geom_bond_atom_site_label_2
_geom_bond_distance
_geom_bond_site_symmetry_2
Er0 Sn4 3.065019 1_554
Er0 Sn5 3.065019 1_555
Er0 Sn0 3.274026 1_445
Er0 Sn1 3.274026 1_555
Er0 Sn1 3.274032 1_545
Er0 Sn0 3.274032 1_455
Er0 Sn1 3.274038 1_445
Er0 Sn0 3.274038 1_555
Mn0 Sn0 2.790838 1_556
Mn0 Sn1 2.790838 1_556
Mn0 Mn2 2.835391 1_655
Mn0 Mn2 2.835391 1_555
Mn0 Mn1 2.835402 1_565
Mn0 Mn1 2.835402 1_555
Mn0 Sn3 2.840129 1_555
Mn0 Sn2 2.840129 1_555
Mn0 Sn4 2.947375 1_555
Mn0 Sn4 2.947375 1_665
Mn1 Sn0 2.790841 1_556
Mn1 Sn1 2.790841 1_546
Mn1 Mn2 2.835391 1_655
Mn1 Mn2 2.835391 1_545
Mn1 Sn2 2.840132 1_555
Mn1 Sn3 2.840132 1_545
Mn1 Sn4 2.947376 1_555
Mn1 Sn4 2.947376 1_655
Mn2 Sn1 2.790791 1_556
Mn2 Sn0 2.790791 1_456
Mn2 Sn3 2.840163 1_555
Mn2 Sn2 2.840163 1_455
Mn2 Sn4 2.947397 1_555
Mn2 Sn4 2.947397 1_565
Mn3 Sn0 2.790838 1_555
Mn3 Sn1 2.790838 1_555
Mn3 Mn5 2.835391 1_655
Mn3 Mn5 2.835391 1_555
Mn3 Mn4 2.835402 1_565
Mn3 Mn4 2.835402 1_555
Mn3 Sn2 2.840129 1_555
Mn3 Sn3 2.840129 1_555
Mn3 Sn5 2.947375 1_665
Mn3 Sn5 2.947375 1_555
Mn4 Sn0 2.790841 1_555
Mn4 Sn1 2.790841 1_545
Mn4 Mn5 2.835391 1_545
Mn4 Mn5 2.835391 1_655
Mn4 Sn3 2.840132 1_545
Mn4 Sn2 2.840132 1_555
Mn4 Sn5 2.947376 1_655
Mn4 Sn5 2.947376 1_555
Mn5 Sn0 2.790791 1_455
Mn5 Sn1 2.790791 1_555
Mn5 Sn2 2.840163 1_455
Mn5 Sn3 2.840163 1_555
Mn5 Sn5 2.947397 1_565
Mn5 Sn5 2.947397 1_555
Sn0 Sn1 3.273994 1_655
Sn0 Sn1 3.274046 1_555
Sn0 Sn1 3.274055 1_545
Sn2 Sn3 3.274028 1_555
Sn2 Sn3 3.274030 1_655
Sn2 Sn3 3.274037 1_545
Sn4 Sn5 3.032327 1_555
