# generated using pymatgen
data_La2MgRhO6
_symmetry_space_group_name_H-M   'P 1'
_cell_length_a   5.71300200
_cell_length_b   5.59247900
_cell_length_c   9.71906852
_cell_angle_alpha   54.77244490
_cell_angle_beta   90.00000000
_cell_angle_gamma   90.00000000
_symmetry_Int_Tables_number   1
_chemical_formula_structural   La2MgRhO6
_chemical_formula_sum   'La4 Mg2 Rh2 O12'
_cell_volume   253.65594360
_cell_formula_units_Z   2
loop_
 _symmetry_equiv_pos_site_id
 _symmetry_equiv_pos_as_xyz
  1  'x, y, z'
loop_
 _atom_site_type_symbol
 _atom_site_label
 _atom_site_symmetry_multiplicity
 _atom_site_fract_x
 _atom_site_fract_y
 _atom_site_fract_z
 _atom_site_occupancy
  La  La0  1  0.95182400  0.73881700  0.25056500  1
  La  La1  1  0.45182400  0.26118300  0.24943500  1
  La  La2  1  0.04817600  0.26118300  0.74943500  1
  La  La3  1  0.54817600  0.73881700  0.75056500  1
  Mg  Mg0  1  0.00000000  0.50000000  0.00000000  1
  Mg  Mg1  1  0.50000000  0.50000000  0.50000000  1
  Rh  Rh0  1  0.50000000  0.00000000  0.00000000  1
  Rh  Rh1  1  0.00000000  0.00000000  0.50000000  1
  O  O0  1  0.52374000  0.83963500  0.24732000  1
  O  O1  1  0.02374000  0.16036500  0.25268000  1
  O  O2  1  0.47626000  0.16036500  0.75268000  1
  O  O3  1  0.97626000  0.83963500  0.74732000  1
  O  O4  1  0.79515900  0.66213700  0.54676900  1
  O  O5  1  0.29515900  0.33786300  0.95323100  1
  O  O6  1  0.20484100  0.33786300  0.45323100  1
  O  O7  1  0.70484100  0.66213700  0.04676900  1
  O  O8  1  0.21029400  0.75148600  0.04689800  1
  O  O9  1  0.71029400  0.24851400  0.45310200  1
  O  O10  1  0.78970600  0.24851400  0.95310200  1
  O  O11  1  0.28970600  0.75148600  0.54689800  1
loop_
_geom_bond_atom_site_label_1
_geom_bond_atom_site_label_2
_geom_bond_distance
_geom_bond_site_symmetry_2
La0 O1 2.404772 1_665
La0 O6 2.429377 1_655
La0 O8 2.437606 1_655
La0 O0 2.505904 1_555
La0 O9 2.659061 1_555
La0 O7 2.660443 1_555
La0 O10 2.798952 1_564
La0 O4 2.801499 1_555
La1 O0 2.404772 1_545
La1 O7 2.429377 1_555
La1 O9 2.437606 1_555
La1 O1 2.505904 1_555
La1 O8 2.659061 1_555
La1 O6 2.660443 1_555
La1 O11 2.798952 1_545
La1 O5 2.801499 1_554
La2 O3 2.404772 1_445
La2 O4 2.429377 1_455
La2 O10 2.437606 1_455
La2 O2 2.505904 1_555
La2 O11 2.659061 1_555
La2 O5 2.660443 1_555
La2 O8 2.798952 1_546
La2 O6 2.801499 1_555
La3 O2 2.404772 1_565
La3 O5 2.429377 1_555
La3 O11 2.437606 1_555
La3 O3 2.505904 1_555
La3 O10 2.659061 1_555
La3 O4 2.660443 1_555
La3 O9 2.798952 1_565
La3 O7 2.801499 1_556
Mg0 O3 2.067813 1_454
Mg0 O1 2.067813 1_555
Mg0 O7 2.085119 1_455
Mg0 O5 2.085119 1_554
Mg0 O8 2.090155 1_555
Mg0 O10 2.090155 1_454
Mg1 O0 2.067813 1_555
Mg1 O2 2.067813 1_555
Mg1 O4 2.085119 1_555
Mg1 O6 2.085119 1_555
Mg1 O11 2.090155 1_555
Mg1 O9 2.090155 1_555
O0 Rh0 2.028202 1_565
O1 Rh1 2.028202 1_555
O2 Rh0 2.028202 1_556
O3 Rh1 2.028202 1_665
O4 Rh1 2.038495 1_665
O5 Rh0 2.038495 1_556
O6 Rh1 2.038495 1_555
O7 Rh0 2.038495 1_565
O8 Rh0 2.036624 1_565
O9 Rh1 2.036624 1_655
O10 Rh0 2.036624 1_556
O11 Rh1 2.036624 1_565
