# generated using pymatgen
data_TiCrAgS4
_symmetry_space_group_name_H-M   'P 1'
_cell_length_a   3.45857700
_cell_length_b   11.80731200
_cell_length_c   14.17585739
_cell_angle_alpha   80.25195379
_cell_angle_beta   90.00000000
_cell_angle_gamma   90.00000000
_symmetry_Int_Tables_number   1
_chemical_formula_structural   TiCrAgS4
_chemical_formula_sum   'Ti4 Cr4 Ag4 S16'
_cell_volume   570.53422349
_cell_formula_units_Z   4
loop_
 _symmetry_equiv_pos_site_id
 _symmetry_equiv_pos_as_xyz
  1  'x, y, z'
loop_
 _atom_site_type_symbol
 _atom_site_label
 _atom_site_symmetry_multiplicity
 _atom_site_fract_x
 _atom_site_fract_y
 _atom_site_fract_z
 _atom_site_occupancy
  Ti  Ti0  1  0.00000000  0.06552000  0.87263800  1
  Ti  Ti1  1  0.50000000  0.38877400  0.24833400  1
  Ti  Ti2  1  0.00000000  0.61202000  0.79076000  1
  Ti  Ti3  1  0.00000000  0.88532200  0.26341900  1
  Cr  Cr0  1  0.50000000  0.97299300  0.07364600  1
  Cr  Cr1  1  0.00000000  0.42746100  0.43331400  1
  Cr  Cr2  1  0.50000000  0.52750000  0.61543900  1
  Cr  Cr3  1  0.50000000  0.15289500  0.65433000  1
  Ag  Ag0  1  0.00000000  0.66514100  0.03904900  1
  Ag  Ag1  1  0.50000000  0.35333800  0.00864900  1
  Ag  Ag2  1  0.50000000  0.08650300  0.42112500  1
  Ag  Ag3  1  0.00000000  0.87171400  0.64442200  1
  S  S0  1  0.00000000  0.44735100  0.12742200  1
  S  S1  1  0.50000000  0.57378300  0.91233100  1
  S  S2  1  0.50000000  0.89212100  0.37700200  1
  S  S3  1  0.00000000  0.07278400  0.56736400  1
  S  S4  1  0.50000000  0.15356700  0.96272800  1
  S  S5  1  0.00000000  0.88951300  0.98996700  1
  S  S6  1  0.00000000  0.59274700  0.50806700  1
  S  S7  1  0.50000000  0.35312900  0.54363600  1
  S  S8  1  0.50000000  0.79124300  0.18097600  1
  S  S9  1  0.00000000  0.21829100  0.74293500  1
  S  S10  1  0.00000000  0.27107500  0.33797300  1
  S  S11  1  0.50000000  0.70707000  0.68168100  1
  S  S12  1  0.00000000  0.05561300  0.16097800  1
  S  S13  1  0.50000000  0.98751100  0.78154500  1
  S  S14  1  0.50000000  0.53206100  0.33169300  1
  S  S15  1  0.00000000  0.45295900  0.72858000  1
loop_
_geom_bond_atom_site_label_1
_geom_bond_atom_site_label_2
_geom_bond_distance
_geom_bond_site_symmetry_2
Cr0 S5 2.401052 1_654
Cr0 S5 2.401052 1_554
Cr0 S8 2.411329 1_555
Cr0 S4 2.425469 1_564
Cr0 S12 2.425634 1_565
Cr0 S12 2.425634 1_665
Cr1 S6 2.373169 1_555
Cr1 S7 2.396193 1_455
Cr1 S7 2.396193 1_555
Cr1 S14 2.447145 1_455
Cr1 S14 2.447145 1_555
Cr1 S10 2.466032 1_555
Cr2 S6 2.345979 1_655
Cr2 S6 2.345979 1_555
Cr2 S15 2.420630 1_555
Cr2 S15 2.420630 1_655
Cr2 S7 2.446341 1_555
Cr2 S11 2.459962 1_555
Cr3 S9 2.343661 1_555
Cr3 S9 2.343661 1_655
Cr3 S3 2.408294 1_555
Cr3 S3 2.408294 1_655
Cr3 S13 2.423402 1_545
Cr3 S7 2.606838 1_555
Ag0 S5 2.622658 1_554
Ag0 S0 2.662931 1_555
Ag0 S1 2.834961 1_554
Ag0 S1 2.834961 1_454
Ag1 S4 2.550973 1_554
Ag1 S1 2.726851 1_554
Ag1 S0 2.773158 1_555
Ag1 S0 2.773158 1_655
Ag2 S2 2.478905 1_545
Ag2 S3 2.683385 1_555
Ag2 S3 2.683385 1_655
Ag2 S10 2.873907 1_555
Ag2 S10 2.873907 1_655
Ag3 S3 2.439547 1_565
Ag3 S11 2.588602 1_555
Ag3 S11 2.588602 1_455
Ag3 S13 3.088414 1_455
Ag3 S13 3.088414 1_555
S0 Ti1 2.450563 1_555
S0 Ti1 2.450563 1_455
S1 Ti2 2.429158 1_655
S1 Ti2 2.429158 1_555
S2 Ti3 2.373435 1_655
S2 Ti3 2.373435 1_555
S4 Ti0 2.480280 1_555
S4 Ti0 2.480280 1_655
S5 Ti0 2.432010 1_565
S8 Ti3 2.455573 1_655
S8 Ti3 2.455573 1_555
S9 Ti0 2.347613 1_555
S10 Ti1 2.436891 1_455
S10 Ti1 2.436891 1_555
S11 Ti2 2.460349 1_555
S11 Ti2 2.460349 1_655
S12 Ti3 2.272205 1_545
S13 Ti0 2.430865 1_565
S13 Ti0 2.430865 1_665
S14 Ti1 2.221639 1_555
S15 Ti2 2.205617 1_555
