# generated using pymatgen
data_Li2BeH4
_symmetry_space_group_name_H-M   'P 1'
_cell_length_a   6.99734581
_cell_length_b   8.23705000
_cell_length_c   8.29081105
_cell_angle_alpha   90.00000000
_cell_angle_beta   93.64408268
_cell_angle_gamma   90.00000000
_symmetry_Int_Tables_number   1
_chemical_formula_structural   Li2BeH4
_chemical_formula_sum   'Li16 Be8 H32'
_cell_volume   476.89533923
_cell_formula_units_Z   8
loop_
 _symmetry_equiv_pos_site_id
 _symmetry_equiv_pos_as_xyz
  1  'x, y, z'
loop_
 _atom_site_type_symbol
 _atom_site_label
 _atom_site_symmetry_multiplicity
 _atom_site_fract_x
 _atom_site_fract_y
 _atom_site_fract_z
 _atom_site_occupancy
  Li  Li0  1  0.68607400  0.42355500  0.94200000  1
  Li  Li1  1  0.31392600  0.92355500  0.55800000  1
  Li  Li2  1  0.31392600  0.57644500  0.05800000  1
  Li  Li3  1  0.68607400  0.07644500  0.44200000  1
  Li  Li4  1  0.12020300  0.28552200  0.91913400  1
  Li  Li5  1  0.87979700  0.78552200  0.58086600  1
  Li  Li6  1  0.87979700  0.71447800  0.08086600  1
  Li  Li7  1  0.12020300  0.21447800  0.41913400  1
  Li  Li8  1  0.83769800  0.41518300  0.59148100  1
  Li  Li9  1  0.16230200  0.91518300  0.90851900  1
  Li  Li10  1  0.16230200  0.58481700  0.40851900  1
  Li  Li11  1  0.83769800  0.08481700  0.09148100  1
  Li  Li12  1  0.41561900  0.57070100  0.70830400  1
  Li  Li13  1  0.58438100  0.07070100  0.79169600  1
  Li  Li14  1  0.58438100  0.42929900  0.29169600  1
  Li  Li15  1  0.41561900  0.92929900  0.20830400  1
  Be  Be0  1  0.96434500  0.43127700  0.19778600  1
  Be  Be1  1  0.03565500  0.93127700  0.30221400  1
  Be  Be2  1  0.03565500  0.56872300  0.80221400  1
  Be  Be3  1  0.96434500  0.06872300  0.69778600  1
  Be  Be4  1  0.48342000  0.29408800  0.56446300  1
  Be  Be5  1  0.51658000  0.79408800  0.93553700  1
  Be  Be6  1  0.51658000  0.70591200  0.43553700  1
  Be  Be7  1  0.48342000  0.20591200  0.06446300  1
  H  H0  1  0.21827800  0.49940400  0.85064100  1
  H  H1  1  0.78172200  0.99940400  0.64935900  1
  H  H2  1  0.78172200  0.50059600  0.14935900  1
  H  H3  1  0.21827800  0.00059700  0.35064100  1
  H  H4  1  0.97270600  0.40689400  0.37073200  1
  H  H5  1  0.02729400  0.90689400  0.12926800  1
  H  H6  1  0.02729400  0.59310600  0.62926800  1
  H  H7  1  0.97270600  0.09310600  0.87073200  1
  H  H8  1  0.64686300  0.29777500  0.46816200  1
  H  H9  1  0.35313700  0.79777500  0.03183800  1
  H  H10  1  0.35313700  0.70222500  0.53183800  1
  H  H11  1  0.64686300  0.20222500  0.96816200  1
  H  H12  1  0.44602000  0.37516800  0.09132100  1
  H  H13  1  0.55398000  0.87516800  0.40867900  1
  H  H14  1  0.55398000  0.62483200  0.90867900  1
  H  H15  1  0.44602000  0.12483200  0.59132100  1
  H  H16  1  0.00177000  0.28373000  0.11676100  1
  H  H17  1  0.99823000  0.78373000  0.38323900  1
  H  H18  1  0.99823000  0.71627000  0.88323900  1
  H  H19  1  0.00177000  0.21627000  0.61676100  1
  H  H20  1  0.54477500  0.37115700  0.71355800  1
  H  H21  1  0.45522500  0.87115700  0.78644200  1
  H  H22  1  0.45522500  0.62884300  0.28644200  1
  H  H23  1  0.54477500  0.12884300  0.21355800  1
  H  H24  1  0.90095900  0.44266400  0.82624800  1
  H  H25  1  0.09904100  0.94266400  0.67375200  1
  H  H26  1  0.09904100  0.55733600  0.17375200  1
  H  H27  1  0.90095900  0.05733600  0.32624800  1
  H  H28  1  0.32698400  0.37330000  0.47842200  1
  H  H29  1  0.67301600  0.87330000  0.02157800  1
  H  H30  1  0.67301600  0.62670000  0.52157800  1
  H  H31  1  0.32698400  0.12670000  0.97842200  1
loop_
_geom_bond_atom_site_label_1
_geom_bond_atom_site_label_2
_geom_bond_distance
_geom_bond_site_symmetry_2
Be0 H16 1.421016 1_655
Be0 H26 1.424813 1_655
Be0 H2 1.433518 1_555
Be0 H4 1.445358 1_555
Be1 H17 1.421016 1_455
Be1 H27 1.424813 1_465
Be1 H3 1.433521 1_565
Be1 H5 1.445358 1_555
Be2 H18 1.421016 1_455
Be2 H24 1.424813 1_455
Be2 H0 1.433518 1_555
Be2 H6 1.445358 1_555
Be3 H19 1.421016 1_655
Be3 H25 1.424813 1_645
Be3 H1 1.433518 1_545
Be3 H7 1.445358 1_555
Be4 H28 1.426029 1_555
Be4 H20 1.431029 1_555
Be4 H8 1.436118 1_555
Be4 H15 1.438468 1_555
Be5 H29 1.426029 1_556
Be5 H21 1.431029 1_555
Be5 H9 1.436118 1_556
Be5 H14 1.438468 1_555
Be6 H30 1.426029 1_555
Be6 H22 1.431029 1_555
Be6 H10 1.436118 1_555
Be6 H13 1.438468 1_555
Be7 H31 1.426029 1_554
Be7 H23 1.431029 1_555
Be7 H11 1.436118 1_554
Be7 H12 1.438468 1_555
H0 Li2 1.913097 1_556
H0 Li12 1.962506 1_555
H0 Li4 1.986643 1_555
H1 Li3 1.913097 1_565
H1 Li13 1.962506 1_565
H1 Li5 1.986643 1_555
H2 Li0 1.913097 1_554
H2 Li14 1.962506 1_555
H2 Li6 1.986643 1_555
H3 Li1 1.913100 1_545
H3 Li15 1.962509 1_545
H3 Li7 1.986636 1_555
H4 Li7 1.919799 1_655
H4 Li10 1.988274 1_655
H4 Li8 2.113406 1_555
H5 Li6 1.919799 1_455
H5 Li11 1.988274 1_465
H5 Li9 2.113406 1_554
H6 Li5 1.919799 1_455
H6 Li8 1.988274 1_455
H6 Li10 2.113406 1_555
H7 Li4 1.919799 1_655
H7 Li9 1.988274 1_645
H7 Li11 2.113406 1_556
H8 Li14 1.850415 1_555
H8 Li3 1.858389 1_555
H8 Li8 1.894779 1_555
H9 Li15 1.850415 1_555
H9 Li2 1.858389 1_555
H9 Li9 1.894779 1_554
H10 Li12 1.850415 1_555
H10 Li1 1.858389 1_555
H10 Li10 1.894779 1_555
H11 Li13 1.850415 1_555
H11 Li0 1.858389 1_555
H11 Li11 1.894779 1_556
H12 Li2 1.909694 1_555
H12 Li14 1.921331 1_555
H12 Li0 2.185715 1_554
H13 Li3 1.909694 1_565
H13 Li15 1.921331 1_555
H13 Li1 2.185715 1_555
H14 Li0 1.909694 1_555
H14 Li12 1.921331 1_555
H14 Li2 2.185715 1_556
H15 Li1 1.909694 1_545
H15 Li13 1.921331 1_555
H15 Li3 2.185715 1_555
H16 Li4 1.882614 1_554
H16 Li11 2.003981 1_455
H17 Li5 1.882614 1_555
H17 Li10 2.003981 1_655
H18 Li6 1.882614 1_556
H18 Li9 2.003981 1_655
H19 Li7 1.882614 1_555
H19 Li8 2.003981 1_455
H20 Li12 1.874901 1_555
H20 Li0 2.124365 1_555
H21 Li13 1.874901 1_565
H21 Li1 2.124365 1_555
H22 Li14 1.874901 1_555
H22 Li2 2.124365 1_555
H23 Li15 1.874901 1_545
H23 Li3 2.124365 1_555
H24 Li0 1.841215 1_555
H24 Li8 1.981457 1_555
H24 Li4 2.114676 1_655
H25 Li1 1.841215 1_555
H25 Li9 1.981457 1_555
H25 Li5 2.114676 1_455
H26 Li2 1.841215 1_555
H26 Li10 1.981457 1_555
H26 Li6 2.114676 1_455
H27 Li3 1.841215 1_555
H27 Li11 1.981457 1_555
H27 Li7 2.114676 1_655
H28 Li7 1.989028 1_555
H28 Li10 2.148114 1_555
H29 Li6 1.989028 1_555
H29 Li11 2.148114 1_565
H30 Li5 1.989028 1_555
H30 Li8 2.148114 1_555
H31 Li4 1.989028 1_555
H31 Li9 2.148114 1_545
