# generated using pymatgen
data_Ba3Ag2
_symmetry_space_group_name_H-M   'P 1'
_cell_length_a   8.90581689
_cell_length_b   8.90581685
_cell_length_c   8.90581612
_cell_angle_alpha   72.72624623
_cell_angle_beta   72.72624842
_cell_angle_gamma   72.72625382
_symmetry_Int_Tables_number   1
_chemical_formula_structural   Ba3Ag2
_chemical_formula_sum   'Ba9 Ag6'
_cell_volume   626.96360781
_cell_formula_units_Z   3
loop_
 _symmetry_equiv_pos_site_id
 _symmetry_equiv_pos_as_xyz
  1  'x, y, z'
loop_
 _atom_site_type_symbol
 _atom_site_label
 _atom_site_symmetry_multiplicity
 _atom_site_fract_x
 _atom_site_fract_y
 _atom_site_fract_z
 _atom_site_occupancy
  Ba  Ba0  1  0.50000000  0.50000000  0.50000000  1
  Ba  Ba1  1  0.29384659  0.29384659  0.29384659  1
  Ba  Ba2  1  0.70615341  0.70615341  0.70615341  1
  Ba  Ba3  1  0.33530916  0.83099244  0.11474146  1
  Ba  Ba4  1  0.11474146  0.33530916  0.83099244  1
  Ba  Ba5  1  0.83099244  0.11474146  0.33530916  1
  Ba  Ba6  1  0.66469084  0.16900756  0.88525854  1
  Ba  Ba7  1  0.88525854  0.66469084  0.16900756  1
  Ba  Ba8  1  0.16900756  0.88525854  0.66469084  1
  Ag  Ag0  1  0.63166104  0.46397852  0.08853504  1
  Ag  Ag1  1  0.08853504  0.63166104  0.46397852  1
  Ag  Ag2  1  0.46397852  0.08853504  0.63166104  1
  Ag  Ag3  1  0.36833896  0.53602148  0.91146496  1
  Ag  Ag4  1  0.91146496  0.36833896  0.53602148  1
  Ag  Ag5  1  0.53602148  0.91146496  0.36833896  1
loop_
_geom_bond_atom_site_label_1
_geom_bond_atom_site_label_2
_geom_bond_distance
_geom_bond_site_symmetry_2
Ag0 Ag3 3.016573 1_554
Ag0 Ba2 3.440184 1_554
Ag0 Ba6 3.509117 1_554
Ag0 Ba1 3.533427 1_555
Ag0 Ba5 3.554369 1_555
Ag0 Ba3 3.559177 1_555
Ag0 Ba0 3.581741 1_555
Ag0 Ba7 3.595712 1_555
Ag0 Ba4 4.225623 1_654
Ag1 Ag4 3.016573 1_455
Ag1 Ba2 3.440184 1_455
Ag1 Ba7 3.509117 1_455
Ag1 Ba1 3.533427 1_555
Ag1 Ba3 3.554368 1_555
Ag1 Ba4 3.559177 1_555
Ag1 Ba0 3.581741 1_555
Ag1 Ba8 3.595712 1_555
Ag1 Ba5 4.225623 1_465
Ag2 Ag5 3.016573 1_545
Ag2 Ba2 3.440184 1_545
Ag2 Ba8 3.509117 1_545
Ag2 Ba1 3.533427 1_555
Ag2 Ba4 3.554369 1_555
Ag2 Ba5 3.559177 1_555
Ag2 Ba0 3.581741 1_555
Ag2 Ba6 3.595712 1_555
Ag2 Ba3 4.225623 1_546
Ag3 Ba1 3.440184 1_556
Ag3 Ba3 3.509117 1_556
Ag3 Ba2 3.533427 1_555
Ag3 Ba8 3.554369 1_555
Ag3 Ba6 3.559177 1_555
Ag3 Ba0 3.581741 1_555
Ag3 Ba4 3.595712 1_555
Ag3 Ba7 4.225623 1_456
Ag4 Ba1 3.440184 1_655
Ag4 Ba4 3.509117 1_655
Ag4 Ba2 3.533427 1_555
Ag4 Ba6 3.554368 1_555
Ag4 Ba7 3.559177 1_555
Ag4 Ba0 3.581741 1_555
Ag4 Ba5 3.595712 1_555
Ag4 Ba8 4.225623 1_645
Ag5 Ba1 3.440184 1_565
Ag5 Ba5 3.509117 1_565
Ag5 Ba2 3.533427 1_555
Ag5 Ba7 3.554369 1_555
Ag5 Ba8 3.559177 1_555
Ag5 Ba0 3.581741 1_555
Ag5 Ba3 3.595712 1_555
Ag5 Ba6 4.225623 1_564
