# generated using pymatgen
data_Bi2(Pb2S3)3
_symmetry_space_group_name_H-M   'P 1'
_cell_length_a   7.20924429
_cell_length_b   7.20924429
_cell_length_c   32.19815000
_cell_angle_alpha   90.00000000
_cell_angle_beta   90.00000000
_cell_angle_gamma   146.55559222
_symmetry_Int_Tables_number   1
_chemical_formula_structural   Bi2(Pb2S3)3
_chemical_formula_sum   'Bi4 Pb12 S18'
_cell_volume   922.27957366
_cell_formula_units_Z   2
loop_
 _symmetry_equiv_pos_site_id
 _symmetry_equiv_pos_as_xyz
  1  'x, y, z'
loop_
 _atom_site_type_symbol
 _atom_site_label
 _atom_site_symmetry_multiplicity
 _atom_site_fract_x
 _atom_site_fract_y
 _atom_site_fract_z
 _atom_site_occupancy
  Bi  Bi0  1  0.54303100  0.45696900  0.11622600  1
  Bi  Bi1  1  0.45696900  0.54303100  0.88377400  1
  Bi  Bi2  1  0.45696900  0.54303100  0.61622600  1
  Bi  Bi3  1  0.54303100  0.45696900  0.38377400  1
  Pb  Pb0  1  0.72934900  0.27065100  0.55740500  1
  Pb  Pb1  1  0.27065100  0.72934900  0.44259500  1
  Pb  Pb2  1  0.27065100  0.72934900  0.05740500  1
  Pb  Pb3  1  0.72934900  0.27065100  0.94259500  1
  Pb  Pb4  1  0.07355400  0.92644600  0.25000000  1
  Pb  Pb5  1  0.92644600  0.07355400  0.75000000  1
  Pb  Pb6  1  0.00000000  0.00000000  0.00000000  1
  Pb  Pb7  1  0.00000000  0.00000000  0.50000000  1
  Pb  Pb8  1  0.81654500  0.18345500  0.17461700  1
  Pb  Pb9  1  0.18345500  0.81654500  0.82538300  1
  Pb  Pb10  1  0.18345500  0.81654500  0.67461700  1
  Pb  Pb11  1  0.81654500  0.18345500  0.32538300  1
  S  S0  1  0.63755000  0.36245000  0.02912300  1
  S  S1  1  0.36245000  0.63755000  0.97087700  1
  S  S2  1  0.36245000  0.63755000  0.52912300  1
  S  S3  1  0.63755000  0.36245000  0.47087700  1
  S  S4  1  0.91565700  0.08434300  0.08514800  1
  S  S5  1  0.08434300  0.91565700  0.91485200  1
  S  S6  1  0.08434300  0.91565700  0.58514800  1
  S  S7  1  0.91565700  0.08434300  0.41485200  1
  S  S8  1  0.71448800  0.28551200  0.25000000  1
  S  S9  1  0.28551200  0.71448800  0.75000000  1
  S  S10  1  0.45865300  0.54134700  0.19104700  1
  S  S11  1  0.54134700  0.45865300  0.80895300  1
  S  S12  1  0.54134700  0.45865300  0.69104700  1
  S  S13  1  0.45865300  0.54134700  0.30895300  1
  S  S14  1  0.82781100  0.17218900  0.63792800  1
  S  S15  1  0.17218900  0.82781100  0.36207200  1
  S  S16  1  0.17218900  0.82781100  0.13792800  1
  S  S17  1  0.82781100  0.17218900  0.86207200  1
loop_
_geom_bond_atom_site_label_1
_geom_bond_atom_site_label_2
_geom_bond_distance
_geom_bond_site_symmetry_2
Bi0 S10 2.676067 1_555
Bi0 S16 2.823476 1_655
Bi0 S16 2.823476 1_545
Bi0 S4 2.897894 1_455
Bi0 S4 2.897894 1_565
Bi0 S0 3.093388 1_555
Bi1 S11 2.676067 1_555
Bi1 S17 2.823476 1_565
Bi1 S17 2.823476 1_455
Bi1 S5 2.897894 1_545
Bi1 S5 2.897894 1_655
Bi1 S1 3.093388 1_555
Bi2 S12 2.676067 1_555
Bi2 S14 2.823476 1_565
Bi2 S14 2.823476 1_455
Bi2 S6 2.897894 1_545
Bi2 S6 2.897894 1_655
Bi2 S2 3.093388 1_555
Bi3 S13 2.676067 1_555
Bi3 S15 2.823476 1_655
Bi3 S15 2.823476 1_545
Bi3 S7 2.897894 1_455
Bi3 S7 2.897894 1_565
Bi3 S3 3.093388 1_555
Pb0 S2 2.917219 1_655
Pb0 S2 2.917219 1_545
Pb0 S14 2.927569 1_555
Pb0 S6 3.018308 1_545
Pb0 S6 3.018308 1_655
Pb0 S3 3.060868 1_555
Pb1 S3 2.917219 1_455
Pb1 S3 2.917219 1_565
Pb1 S15 2.927569 1_555
Pb1 S7 3.018308 1_455
Pb1 S7 3.018308 1_565
Pb1 S2 3.060868 1_555
Pb2 S0 2.917219 1_455
Pb2 S0 2.917219 1_565
Pb2 S16 2.927569 1_555
Pb2 S4 3.018308 1_455
Pb2 S4 3.018308 1_565
Pb2 S1 3.060868 1_554
Pb3 S1 2.917219 1_655
Pb3 S1 2.917219 1_545
Pb3 S17 2.927569 1_555
Pb3 S5 3.018308 1_545
Pb3 S5 3.018308 1_655
Pb3 S0 3.060868 1_556
Pb4 S8 2.844332 1_455
Pb4 S8 2.844332 1_565
Pb4 S13 3.228519 1_455
Pb4 S13 3.228519 1_565
Pb4 S10 3.228519 1_565
Pb4 S10 3.228519 1_455
Pb5 S9 2.844332 1_545
Pb5 S9 2.844332 1_655
Pb5 S11 3.228519 1_545
Pb5 S11 3.228519 1_655
Pb5 S12 3.228519 1_545
Pb5 S12 3.228519 1_655
Pb6 S0 2.964764 1_555
Pb6 S0 2.964764 1_445
Pb6 S1 2.964764 1_554
Pb6 S1 2.964764 1_444
Pb6 S4 2.978737 1_455
Pb6 S5 2.978737 1_544
Pb7 S3 2.964764 1_555
Pb7 S2 2.964764 1_555
Pb7 S2 2.964764 1_445
Pb7 S3 2.964764 1_445
Pb7 S7 2.978737 1_455
Pb7 S6 2.978737 1_545
Pb8 S8 2.806659 1_555
Pb8 S10 2.904040 1_655
Pb8 S10 2.904040 1_545
Pb8 S16 3.109967 1_545
Pb8 S16 3.109967 1_655
Pb8 S4 3.189317 1_555
Pb9 S9 2.806659 1_555
Pb9 S11 2.904040 1_455
Pb9 S11 2.904040 1_565
Pb9 S17 3.109967 1_455
Pb9 S17 3.109967 1_565
Pb9 S5 3.189317 1_555
Pb10 S9 2.806659 1_555
Pb10 S12 2.904040 1_565
Pb10 S12 2.904040 1_455
Pb10 S14 3.109967 1_455
Pb10 S14 3.109967 1_565
Pb10 S6 3.189317 1_555
Pb11 S8 2.806659 1_555
Pb11 S13 2.904040 1_545
Pb11 S13 2.904040 1_655
Pb11 S15 3.109967 1_545
Pb11 S15 3.109967 1_655
Pb11 S7 3.189317 1_555
