# generated using pymatgen
data_SrCu2GeSe4
_symmetry_space_group_name_H-M   'P 1'
_cell_length_a   6.35397519
_cell_length_b   6.35397519
_cell_length_c   10.89029700
_cell_angle_alpha   90.00000000
_cell_angle_beta   90.00000000
_cell_angle_gamma   117.21154186
_symmetry_Int_Tables_number   1
_chemical_formula_structural   SrCu2GeSe4
_chemical_formula_sum   'Sr2 Cu4 Ge2 Se8'
_cell_volume   391.01273384
_cell_formula_units_Z   2
loop_
 _symmetry_equiv_pos_site_id
 _symmetry_equiv_pos_as_xyz
  1  'x, y, z'
loop_
 _atom_site_type_symbol
 _atom_site_label
 _atom_site_symmetry_multiplicity
 _atom_site_fract_x
 _atom_site_fract_y
 _atom_site_fract_z
 _atom_site_occupancy
  Sr  Sr0  1  0.01256800  0.01256800  0.50000000  1
  Sr  Sr1  1  0.01256800  0.01256800  0.00000000  1
  Cu  Cu0  1  0.63153300  0.19129100  0.62982200  1
  Cu  Cu1  1  0.19129100  0.63153300  0.37017800  1
  Cu  Cu2  1  0.19129100  0.63153300  0.12982200  1
  Cu  Cu3  1  0.63153300  0.19129100  0.87017800  1
  Ge  Ge0  1  0.26364100  0.55858000  0.75000000  1
  Ge  Ge1  1  0.55858000  0.26364100  0.25000000  1
  Se  Se0  1  0.30240700  0.19725500  0.75000000  1
  Se  Se1  1  0.19725500  0.30240700  0.25000000  1
  Se  Se2  1  0.01073600  0.52070100  0.57583300  1
  Se  Se3  1  0.52070100  0.01073600  0.42416700  1
  Se  Se4  1  0.01073600  0.52070100  0.92416700  1
  Se  Se5  1  0.52070100  0.01073600  0.07583300  1
  Se  Se6  1  0.87358900  0.66427400  0.25000000  1
  Se  Se7  1  0.66427400  0.87358900  0.75000000  1
loop_
_geom_bond_atom_site_label_1
_geom_bond_atom_site_label_2
_geom_bond_distance
_geom_bond_site_symmetry_2
Cu0 Se2 2.433070 1_655
Cu0 Se3 2.467634 1_555
Cu0 Se0 2.481968 1_555
Cu0 Se7 2.493045 1_545
Cu1 Se3 2.433070 1_565
Cu1 Se2 2.467634 1_555
Cu1 Se1 2.481968 1_555
Cu1 Se6 2.493045 1_455
Cu2 Se5 2.433070 1_565
Cu2 Se4 2.467634 1_554
Cu2 Se1 2.481968 1_555
Cu2 Se6 2.493045 1_455
Cu3 Se4 2.433070 1_655
Cu3 Se5 2.467634 1_556
Cu3 Se0 2.481968 1_555
Cu3 Se7 2.493045 1_545
Ge0 Se7 2.413825 1_555
Ge0 Se0 2.418427 1_555
Ge0 Se4 2.425715 1_555
Ge0 Se2 2.425715 1_555
Ge1 Se6 2.413825 1_555
Ge1 Se1 2.418427 1_555
Ge1 Se3 2.425715 1_555
Ge1 Se5 2.425715 1_555
Se0 Sr1 3.194467 1_556
Se0 Sr0 3.194467 1_555
Se1 Sr0 3.194467 1_555
Se1 Sr1 3.194467 1_555
Se2 Sr0 3.227452 1_565
Se2 Sr0 3.337784 1_555
Se3 Sr0 3.227452 1_655
Se3 Sr0 3.337784 1_555
Se4 Sr1 3.227452 1_566
Se4 Sr1 3.337784 1_556
Se5 Sr1 3.227452 1_655
Se5 Sr1 3.337784 1_555
Se6 Sr0 3.361923 1_665
Se6 Sr1 3.361923 1_665
Se7 Sr0 3.361923 1_665
Se7 Sr1 3.361923 1_666
