# generated using pymatgen
data_RbNa2NiF6
_symmetry_space_group_name_H-M   'P 1'
_cell_length_a   6.26956900
_cell_length_b   6.26956923
_cell_length_c   6.26956881
_cell_angle_alpha   59.99999204
_cell_angle_beta   59.99999373
_cell_angle_gamma   59.99999593
_symmetry_Int_Tables_number   1
_chemical_formula_structural   RbNa2NiF6
_chemical_formula_sum   'Rb1 Na2 Ni1 F6'
_cell_volume   174.26011809
_cell_formula_units_Z   1
loop_
 _symmetry_equiv_pos_site_id
 _symmetry_equiv_pos_as_xyz
  1  'x, y, z'
loop_
 _atom_site_type_symbol
 _atom_site_label
 _atom_site_symmetry_multiplicity
 _atom_site_fract_x
 _atom_site_fract_y
 _atom_site_fract_z
 _atom_site_occupancy
  Rb  Rb0  1  0.50000000  0.50000000  0.50000000  1
  Na  Na0  1  0.25000000  0.25000000  0.25000000  1
  Na  Na1  1  0.75000000  0.75000000  0.75000000  1
  Ni  Ni0  1  0.00000000  0.00000000  0.00000000  1
  F  F0  1  0.21283800  0.78716200  0.21283800  1
  F  F1  1  0.78716200  0.78716200  0.21283800  1
  F  F2  1  0.78716200  0.21283800  0.78716200  1
  F  F3  1  0.78716200  0.21283800  0.21283800  1
  F  F4  1  0.21283800  0.78716200  0.78716200  1
  F  F5  1  0.21283800  0.21283800  0.78716200  1
loop_
_geom_bond_atom_site_label_1
_geom_bond_atom_site_label_2
_geom_bond_distance
_geom_bond_site_symmetry_2
F0 Ni0 1.887130 1_565
F0 Rb0 2.546124 1_555
F1 Ni0 1.887130 1_665
F1 Rb0 2.546124 1_555
F2 Ni0 1.887130 1_656
F2 Rb0 2.546124 1_555
F3 Ni0 1.887130 1_655
F3 Rb0 2.546125 1_555
F4 Ni0 1.887130 1_566
F4 Rb0 2.546125 1_555
F5 Ni0 1.887130 1_556
F5 Rb0 2.546124 1_555
