# generated using pymatgen
data_Ce4In5S13
_symmetry_space_group_name_H-M   'P 1'
_cell_length_a   3.97492800
_cell_length_b   12.06321200
_cell_length_c   21.78278200
_cell_angle_alpha   90.00000000
_cell_angle_beta   90.00000000
_cell_angle_gamma   90.00000000
_symmetry_Int_Tables_number   1
_chemical_formula_structural   Ce4In5S13
_chemical_formula_sum   'Ce8 In10 S26'
_cell_volume   1044.49309147
_cell_formula_units_Z   2
loop_
 _symmetry_equiv_pos_site_id
 _symmetry_equiv_pos_as_xyz
  1  'x, y, z'
loop_
 _atom_site_type_symbol
 _atom_site_label
 _atom_site_symmetry_multiplicity
 _atom_site_fract_x
 _atom_site_fract_y
 _atom_site_fract_z
 _atom_site_occupancy
  Ce  Ce0  1  0.00000000  0.01629400  0.33354600  1
  Ce  Ce1  1  0.00000000  0.98370600  0.66645400  1
  Ce  Ce2  1  0.00000000  0.48370600  0.83354600  1
  Ce  Ce3  1  0.00000000  0.51629400  0.16645400  1
  Ce  Ce4  1  0.00000000  0.16636200  0.15867000  1
  Ce  Ce5  1  0.00000000  0.83363800  0.84133000  1
  Ce  Ce6  1  0.00000000  0.33363800  0.65867000  1
  Ce  Ce7  1  0.00000000  0.66636200  0.34133000  1
  In  In0  1  0.50000000  0.34612600  0.32990600  1
  In  In1  1  0.50000000  0.65387400  0.67009400  1
  In  In2  1  0.50000000  0.15387400  0.82990600  1
  In  In3  1  0.50000000  0.84612600  0.17009400  1
  In  In4  1  0.50000000  0.34465000  0.00782300  1
  In  In5  1  0.50000000  0.65535000  0.99217700  1
  In  In6  1  0.50000000  0.15535000  0.50782300  1
  In  In7  1  0.50000000  0.84465000  0.49217700  1
  In  In8  1  0.00000000  0.00000000  0.00000000  1
  In  In9  1  0.00000000  0.50000000  0.50000000  1
  S  S0  1  0.00000000  0.32898000  0.26055700  1
  S  S1  1  0.00000000  0.67102000  0.73944300  1
  S  S2  1  0.00000000  0.17102000  0.76055700  1
  S  S3  1  0.00000000  0.82898000  0.23944300  1
  S  S4  1  0.50000000  0.07814100  0.24162200  1
  S  S5  1  0.50000000  0.92185900  0.75837800  1
  S  S6  1  0.50000000  0.42185900  0.74162200  1
  S  S7  1  0.50000000  0.57814100  0.25837800  1
  S  S8  1  0.50000000  0.00345900  0.09286100  1
  S  S9  1  0.50000000  0.99654100  0.90713900  1
  S  S10  1  0.50000000  0.49654100  0.59286100  1
  S  S11  1  0.50000000  0.50345900  0.40713900  1
  S  S12  1  0.50000000  0.16257500  0.38737000  1
  S  S13  1  0.50000000  0.83742500  0.61263000  1
  S  S14  1  0.50000000  0.33742500  0.88737000  1
  S  S15  1  0.50000000  0.66257500  0.11263000  1
  S  S16  1  0.00000000  0.00000000  0.50000000  1
  S  S17  1  0.00000000  0.50000000  0.00000000  1
  S  S18  1  0.00000000  0.20256100  0.02201400  1
  S  S19  1  0.00000000  0.79743900  0.97798600  1
  S  S20  1  0.00000000  0.29743900  0.52201400  1
  S  S21  1  0.00000000  0.70256100  0.47798600  1
  S  S22  1  0.50000000  0.34480800  0.13296900  1
  S  S23  1  0.50000000  0.65519200  0.86703100  1
  S  S24  1  0.50000000  0.15519200  0.63296900  1
  S  S25  1  0.50000000  0.84480800  0.36703100  1
loop_
_geom_bond_atom_site_label_1
_geom_bond_atom_site_label_2
_geom_bond_distance
_geom_bond_site_symmetry_2
Ce0 S12 2.904910 1_555
Ce0 S12 2.904910 1_455
Ce0 S4 2.918233 1_455
Ce0 S4 2.918233 1_555
Ce0 S25 2.959972 1_545
Ce0 S25 2.959972 1_445
Ce0 S3 3.050838 1_545
Ce0 S16 3.631155 1_555
Ce1 S13 2.904910 1_555
Ce1 S13 2.904910 1_455
Ce1 S5 2.918233 1_455
Ce1 S5 2.918233 1_555
Ce1 S24 2.959972 1_465
Ce1 S24 2.959972 1_565
Ce1 S2 3.050838 1_565
Ce1 S16 3.631155 1_565
Ce2 S14 2.904910 1_455
Ce2 S14 2.904910 1_555
Ce2 S6 2.918233 1_455
Ce2 S6 2.918233 1_555
Ce2 S23 2.959972 1_455
Ce2 S23 2.959972 1_555
Ce2 S1 3.050838 1_555
Ce2 S17 3.631155 1_556
Ce3 S15 2.904910 1_455
Ce3 S15 2.904910 1_555
Ce3 S7 2.918233 1_455
Ce3 S7 2.918233 1_555
Ce3 S22 2.959972 1_455
Ce3 S22 2.959972 1_555
Ce3 S0 3.050838 1_555
Ce3 S17 3.631155 1_555
Ce4 S4 2.889217 1_455
Ce4 S4 2.889217 1_555
Ce4 S0 2.962078 1_555
Ce4 S22 2.982827 1_455
Ce4 S22 2.982827 1_555
Ce4 S18 3.008607 1_555
Ce4 S8 3.141129 1_455
Ce4 S8 3.141129 1_555
Ce5 S5 2.889217 1_555
Ce5 S5 2.889217 1_455
Ce5 S1 2.962078 1_555
Ce5 S23 2.982827 1_455
Ce5 S23 2.982827 1_555
Ce5 S19 3.008607 1_555
Ce5 S9 3.141129 1_455
Ce5 S9 3.141129 1_555
Ce6 S6 2.889217 1_455
Ce6 S6 2.889217 1_555
Ce6 S2 2.962078 1_555
Ce6 S24 2.982827 1_555
Ce6 S24 2.982827 1_455
Ce6 S20 3.008607 1_555
Ce6 S10 3.141129 1_455
Ce6 S10 3.141129 1_555
Ce7 S7 2.889217 1_555
Ce7 S7 2.889217 1_455
Ce7 S3 2.962078 1_555
Ce7 S25 2.982827 1_455
Ce7 S25 2.982827 1_555
Ce7 S21 3.008607 1_555
Ce7 S11 3.141129 1_555
Ce7 S11 3.141129 1_455
In0 S0 2.504945 1_555
In0 S0 2.504945 1_655
In0 S11 2.536234 1_555
In0 S12 2.543534 1_555
In1 S1 2.504945 1_555
In1 S1 2.504945 1_655
In1 S10 2.536234 1_555
In1 S13 2.543534 1_555
In2 S2 2.504945 1_655
In2 S2 2.504945 1_555
In2 S9 2.536234 1_545
In2 S14 2.543534 1_555
In3 S3 2.504945 1_655
In3 S3 2.504945 1_555
In3 S8 2.536234 1_565
In3 S15 2.543534 1_555
In4 S14 2.625249 1_554
In4 S18 2.642638 1_555
In4 S18 2.642638 1_655
In4 S22 2.726029 1_555
In4 S17 2.736970 1_555
In4 S17 2.736970 1_655
In5 S15 2.625249 1_556
In5 S19 2.642638 1_655
In5 S19 2.642638 1_555
In5 S23 2.726029 1_555
In5 S17 2.736970 1_556
In5 S17 2.736970 1_656
In6 S12 2.625249 1_555
In6 S20 2.642638 1_555
In6 S20 2.642638 1_655
In6 S24 2.726029 1_555
In6 S16 2.736970 1_555
In6 S16 2.736970 1_655
In7 S13 2.625249 1_555
In7 S21 2.642638 1_655
In7 S21 2.642638 1_555
In7 S25 2.726029 1_555
In7 S16 2.736970 1_665
In7 S16 2.736970 1_565
In8 S18 2.490144 1_555
In8 S19 2.490144 1_544
In8 S8 2.836081 1_555
In8 S8 2.836081 1_455
In8 S9 2.836081 1_444
In8 S9 2.836081 1_544
In9 S20 2.490144 1_555
In9 S21 2.490144 1_555
In9 S10 2.836081 1_555
In9 S10 2.836081 1_455
In9 S11 2.836081 1_555
In9 S11 2.836081 1_455
