# generated using pymatgen
data_GaAs(H2O3)2
_symmetry_space_group_name_H-M   'P 1'
_cell_length_a   8.97073900
_cell_length_b   10.26629700
_cell_length_c   10.54773900
_cell_angle_alpha   90.00000000
_cell_angle_beta   90.00000000
_cell_angle_gamma   90.00000000
_symmetry_Int_Tables_number   1
_chemical_formula_structural   GaAs(H2O3)2
_chemical_formula_sum   'Ga8 As8 H32 O48'
_cell_volume   971.40742815
_cell_formula_units_Z   8
loop_
 _symmetry_equiv_pos_site_id
 _symmetry_equiv_pos_as_xyz
  1  'x, y, z'
loop_
 _atom_site_type_symbol
 _atom_site_label
 _atom_site_symmetry_multiplicity
 _atom_site_fract_x
 _atom_site_fract_y
 _atom_site_fract_z
 _atom_site_occupancy
  Ga  Ga0  1  0.85849300  0.83272700  0.87155300  1
  Ga  Ga1  1  0.35849300  0.66727300  0.12844700  1
  Ga  Ga2  1  0.14150700  0.33272700  0.62844700  1
  Ga  Ga3  1  0.64150700  0.16727300  0.37155300  1
  Ga  Ga4  1  0.14150700  0.16727300  0.12844700  1
  Ga  Ga5  1  0.64150700  0.33272700  0.87155300  1
  Ga  Ga6  1  0.85849300  0.66727300  0.37155300  1
  Ga  Ga7  1  0.35849300  0.83272700  0.62844700  1
  As  As0  1  0.54300200  0.65199800  0.85074800  1
  As  As1  1  0.04300200  0.84800200  0.14925200  1
  As  As2  1  0.45699800  0.15199800  0.64925200  1
  As  As3  1  0.95699800  0.34800200  0.35074800  1
  As  As4  1  0.45699800  0.34800200  0.14925200  1
  As  As5  1  0.95699800  0.15199800  0.85074800  1
  As  As6  1  0.54300200  0.84800200  0.35074800  1
  As  As7  1  0.04300200  0.65199800  0.64925200  1
  H  H0  1  0.69140700  0.81212800  0.67737900  1
  H  H1  1  0.19140700  0.68787200  0.32262100  1
  H  H2  1  0.30859300  0.31212800  0.82262100  1
  H  H3  1  0.80859300  0.18787200  0.17737900  1
  H  H4  1  0.30859300  0.18787200  0.32262100  1
  H  H5  1  0.80859300  0.31212800  0.67737900  1
  H  H6  1  0.69140700  0.68787200  0.17737900  1
  H  H7  1  0.19140700  0.81212800  0.82262100  1
  H  H8  1  0.67793100  0.95368200  0.71106300  1
  H  H9  1  0.17793100  0.54631800  0.28893700  1
  H  H10  1  0.32206900  0.45368200  0.78893700  1
  H  H11  1  0.82206900  0.04631800  0.21106300  1
  H  H12  1  0.32206900  0.04631800  0.28893700  1
  H  H13  1  0.82206900  0.45368200  0.71106300  1
  H  H14  1  0.67793100  0.54631800  0.21106300  1
  H  H15  1  0.17793100  0.95368200  0.78893700  1
  H  H16  1  0.65954200  0.93595500  0.03577600  1
  H  H17  1  0.15954200  0.56404500  0.96422400  1
  H  H18  1  0.34045800  0.43595500  0.46422400  1
  H  H19  1  0.84045800  0.06404500  0.53577600  1
  H  H20  1  0.34045800  0.06404500  0.96422400  1
  H  H21  1  0.84045800  0.43595500  0.03577600  1
  H  H22  1  0.65954200  0.56404500  0.53577600  1
  H  H23  1  0.15954200  0.93595500  0.46422400  1
  H  H24  1  0.69936400  0.03915300  0.92679800  1
  H  H25  1  0.19936400  0.46084700  0.07320200  1
  H  H26  1  0.30063600  0.53915300  0.57320200  1
  H  H27  1  0.80063600  0.96084700  0.42679800  1
  H  H28  1  0.30063600  0.96084700  0.07320200  1
  H  H29  1  0.80063600  0.53915300  0.92679800  1
  H  H30  1  0.69936400  0.46084700  0.42679800  1
  H  H31  1  0.19936400  0.03915300  0.57320200  1
  O  O0  1  0.51652300  0.72252900  0.70364700  1
  O  O1  1  0.01652300  0.77747100  0.29635300  1
  O  O2  1  0.48347700  0.22252900  0.79635300  1
  O  O3  1  0.98347700  0.27747100  0.20364700  1
  O  O4  1  0.48347700  0.27747100  0.29635300  1
  O  O5  1  0.98347700  0.22252900  0.70364700  1
  O  O6  1  0.51652300  0.77747100  0.20364700  1
  O  O7  1  0.01652300  0.72252900  0.79635300  1
  O  O8  1  0.51307200  0.48680100  0.84423400  1
  O  O9  1  0.01307200  0.01319900  0.15576600  1
  O  O10  1  0.48692800  0.98680100  0.65576600  1
  O  O11  1  0.98692800  0.51319900  0.34423400  1
  O  O12  1  0.48692800  0.51319900  0.15576600  1
  O  O13  1  0.98692800  0.98680100  0.84423400  1
  O  O14  1  0.51307200  0.01319900  0.34423400  1
  O  O15  1  0.01307200  0.48680100  0.65576600  1
  O  O16  1  0.42212000  0.71518200  0.95829100  1
  O  O17  1  0.92212000  0.78481800  0.04170900  1
  O  O18  1  0.57788000  0.21518200  0.54170900  1
  O  O19  1  0.07788000  0.28481800  0.45829100  1
  O  O20  1  0.57788000  0.28481800  0.04170900  1
  O  O21  1  0.07788000  0.21518200  0.95829100  1
  O  O22  1  0.42212000  0.78481800  0.45829100  1
  O  O23  1  0.92212000  0.71518200  0.54170900  1
  O  O24  1  0.73125000  0.67414700  0.88138500  1
  O  O25  1  0.23125000  0.82585300  0.11861500  1
  O  O26  1  0.26875000  0.17414700  0.61861500  1
  O  O27  1  0.76875000  0.32585300  0.38138500  1
  O  O28  1  0.26875000  0.32585300  0.11861500  1
  O  O29  1  0.76875000  0.17414700  0.88138500  1
  O  O30  1  0.73125000  0.82585300  0.38138500  1
  O  O31  1  0.23125000  0.67414700  0.61861500  1
  O  O32  1  0.75653400  0.88583100  0.70242400  1
  O  O33  1  0.25653400  0.61416900  0.29757600  1
  O  O34  1  0.24346600  0.38583100  0.79757600  1
  O  O35  1  0.74346600  0.11416900  0.20242400  1
  O  O36  1  0.24346600  0.11416900  0.29757600  1
  O  O37  1  0.74346600  0.38583100  0.70242400  1
  O  O38  1  0.75653400  0.61416900  0.20242400  1
  O  O39  1  0.25653400  0.88583100  0.79757600  1
  O  O40  1  0.68098900  0.94355300  0.94539300  1
  O  O41  1  0.18098900  0.55644700  0.05460700  1
  O  O42  1  0.31901100  0.44355300  0.55460700  1
  O  O43  1  0.81901100  0.05644700  0.44539300  1
  O  O44  1  0.31901100  0.05644700  0.05460700  1
  O  O45  1  0.81901100  0.44355300  0.94539300  1
  O  O46  1  0.68098900  0.55644700  0.44539300  1
  O  O47  1  0.18098900  0.94355300  0.55460700  1
loop_
_geom_bond_atom_site_label_1
_geom_bond_atom_site_label_2
_geom_bond_distance
_geom_bond_site_symmetry_2
Ga0 O17 1.946503 1_556
Ga0 O13 1.978002 1_555
Ga0 O7 1.979588 1_655
Ga0 O24 1.991023 1_555
Ga0 O32 2.077548 1_555
Ga0 O40 2.106343 1_555
Ga1 O16 1.946503 1_554
Ga1 O12 1.978002 1_555
Ga1 O6 1.979588 1_555
Ga1 O25 1.991023 1_555
Ga1 O33 2.077548 1_555
Ga1 O41 2.106343 1_555
Ga2 O19 1.946503 1_555
Ga2 O15 1.978002 1_555
Ga2 O5 1.979588 1_455
Ga2 O26 1.991023 1_555
Ga2 O34 2.077548 1_555
Ga2 O42 2.106343 1_555
Ga3 O18 1.946503 1_555
Ga3 O14 1.978002 1_555
Ga3 O4 1.979588 1_555
Ga3 O27 1.991023 1_555
Ga3 O35 2.077548 1_555
Ga3 O43 2.106343 1_555
Ga4 O21 1.946503 1_554
Ga4 O9 1.978002 1_555
Ga4 O3 1.979588 1_455
Ga4 O28 1.991023 1_555
Ga4 O36 2.077548 1_555
Ga4 O44 2.106343 1_555
Ga5 O20 1.946503 1_556
Ga5 O8 1.978002 1_555
Ga5 O2 1.979588 1_555
Ga5 O29 1.991023 1_555
Ga5 O37 2.077548 1_555
Ga5 O45 2.106343 1_555
Ga6 O23 1.946503 1_555
Ga6 O11 1.978002 1_555
Ga6 O1 1.979588 1_655
Ga6 O30 1.991023 1_555
Ga6 O38 2.077548 1_555
Ga6 O46 2.106343 1_555
Ga7 O22 1.946503 1_555
Ga7 O10 1.978002 1_555
Ga7 O0 1.979588 1_555
Ga7 O31 1.991023 1_555
Ga7 O39 2.077548 1_555
Ga7 O47 2.106343 1_555
As0 O16 1.698061 1_555
As0 O8 1.718457 1_555
As0 O0 1.728624 1_555
As0 O24 1.734336 1_555
As1 O17 1.698061 1_455
As1 O9 1.718457 1_565
As1 O1 1.728624 1_555
As1 O25 1.734336 1_555
As2 O18 1.698061 1_555
As2 O10 1.718457 1_545
As2 O2 1.728624 1_555
As2 O26 1.734336 1_555
As3 O19 1.698061 1_655
As3 O11 1.718457 1_555
As3 O3 1.728624 1_555
As3 O27 1.734336 1_555
As4 O20 1.698061 1_555
As4 O12 1.718457 1_555
As4 O4 1.728624 1_555
As4 O28 1.734336 1_555
As5 O21 1.698061 1_655
As5 O13 1.718457 1_545
As5 O5 1.728624 1_555
As5 O29 1.734336 1_555
As6 O22 1.698061 1_555
As6 O14 1.718457 1_565
As6 O6 1.728624 1_555
As6 O30 1.734336 1_555
As7 O23 1.698061 1_455
As7 O15 1.718457 1_555
As7 O7 1.728624 1_555
As7 O31 1.734336 1_555
H0 O32 0.991790 1_555
H1 O33 0.991790 1_555
H2 O34 0.991790 1_555
H3 O35 0.991790 1_555
H4 O36 0.991790 1_555
H5 O37 0.991790 1_555
H6 O38 0.991790 1_555
H7 O39 0.991790 1_555
H8 O32 0.995354 1_555
H9 O33 0.995354 1_555
H10 O34 0.995354 1_555
H11 O35 0.995354 1_555
H12 O36 0.995354 1_555
H13 O37 0.995354 1_555
H14 O38 0.995354 1_555
H15 O39 0.995354 1_555
H16 O40 0.975680 1_554
H17 O41 0.975680 1_556
H18 O42 0.975680 1_555
H19 O43 0.975680 1_555
H20 O44 0.975680 1_556
H21 O45 0.975680 1_554
H22 O46 0.975680 1_555
H23 O47 0.975680 1_555
H24 O40 1.014347 1_545
H24 O29 1.592975 1_555
H25 O41 1.014347 1_555
H25 O28 1.592975 1_555
H26 O42 1.014347 1_555
H26 O31 1.592975 1_555
H27 O43 1.014347 1_565
H27 O30 1.592975 1_555
H28 O44 1.014347 1_565
H28 O25 1.592975 1_555
H29 O45 1.014347 1_555
H29 O24 1.592975 1_555
H30 O46 1.014347 1_555
H30 O27 1.592975 1_555
H31 O47 1.014347 1_545
H31 O26 1.592975 1_555
