# generated using pymatgen
data_Pr2B12Br2O27
_symmetry_space_group_name_H-M   'P 1'
_cell_length_a   14.78240900
_cell_length_b   8.18047300
_cell_length_c   9.92355690
_cell_angle_alpha   89.73530314
_cell_angle_beta   90.00000000
_cell_angle_gamma   90.00000000
_symmetry_Int_Tables_number   1
_chemical_formula_structural   Pr2B12Br2O27
_chemical_formula_sum   'Pr4 B24 Br4 O54'
_cell_volume   1200.01412859
_cell_formula_units_Z   2
loop_
 _symmetry_equiv_pos_site_id
 _symmetry_equiv_pos_as_xyz
  1  'x, y, z'
loop_
 _atom_site_type_symbol
 _atom_site_label
 _atom_site_symmetry_multiplicity
 _atom_site_fract_x
 _atom_site_fract_y
 _atom_site_fract_z
 _atom_site_occupancy
  Pr  Pr0  1  0.83172700  0.59973300  0.04171500  1
  Pr  Pr1  1  0.66853300  0.09843000  0.54577200  1
  Pr  Pr2  1  0.16853300  0.90157000  0.45422800  1
  Pr  Pr3  1  0.33172700  0.40026700  0.95828500  1
  B  B0  1  0.74565300  0.44874000  0.30968000  1
  B  B1  1  0.75566900  0.94425600  0.81116100  1
  B  B2  1  0.25566900  0.05574400  0.18883900  1
  B  B3  1  0.24565300  0.55126000  0.69032000  1
  B  B4  1  0.05616500  0.74898700  0.96463300  1
  B  B5  1  0.44651000  0.24086700  0.46151200  1
  B  B6  1  0.94651000  0.75913300  0.53848800  1
  B  B7  1  0.55616500  0.25101300  0.03536700  1
  B  B8  1  0.80781200  0.70782900  0.67375200  1
  B  B9  1  0.69519200  0.20933000  0.17297000  1
  B  B10  1  0.19519200  0.79067000  0.82703000  1
  B  B11  1  0.30781200  0.29217100  0.32624800  1
  B  B12  1  0.80659400  0.70644800  0.41518400  1
  B  B13  1  0.69554800  0.20315900  0.91330300  1
  B  B14  1  0.19554800  0.79684100  0.08669700  1
  B  B15  1  0.30659400  0.29355200  0.58481600  1
  B  B16  1  0.74176900  0.45214700  0.78258300  1
  B  B17  1  0.75730700  0.95049000  0.28352300  1
  B  B18  1  0.25730700  0.04951000  0.71647700  1
  B  B19  1  0.24176900  0.54785300  0.21741700  1
  B  B20  1  0.80171500  0.99519700  0.04761500  1
  B  B21  1  0.69881000  0.49993100  0.54447200  1
  B  B22  1  0.19881000  0.50006900  0.45552800  1
  B  B23  1  0.30171500  0.00480300  0.95238500  1
  Br  Br0  1  0.52515800  0.74050800  0.01342400  1
  Br  Br1  1  0.94861400  0.21825800  0.57649300  1
  Br  Br2  1  0.44861400  0.78174200  0.42350700  1
  Br  Br3  1  0.02515800  0.25949200  0.98657600  1
  O  O0  1  0.74862000  0.36202600  0.19271100  1
  O  O1  1  0.75287200  0.85845200  0.69366200  1
  O  O2  1  0.25287200  0.14154800  0.30633800  1
  O  O3  1  0.24862000  0.63797400  0.80728900  1
  O  O4  1  0.79208900  0.88735200  0.16559300  1
  O  O5  1  0.70377700  0.39582300  0.66467400  1
  O  O6  1  0.20377700  0.60417700  0.33532600  1
  O  O7  1  0.29208900  0.11264800  0.83440700  1
  O  O8  1  0.96698500  0.57119800  0.16825200  1
  O  O9  1  0.53492700  0.02152800  0.64956100  1
  O  O10  1  0.03492700  0.97847200  0.35043900  1
  O  O11  1  0.46698500  0.42880200  0.83174800  1
  O  O12  1  0.92702700  0.35737900  0.95086900  1
  O  O13  1  0.55536800  0.85482700  0.46984200  1
  O  O14  1  0.05536800  0.14517300  0.53015800  1
  O  O15  1  0.42702700  0.64262100  0.04913100  1
  O  O16  1  0.78482500  0.88307500  0.93296800  1
  O  O17  1  0.71170900  0.38883400  0.42997200  1
  O  O18  1  0.21170900  0.61116600  0.57002800  1
  O  O19  1  0.28482500  0.11692500  0.06703200  1
  O  O20  1  0.10000500  0.79359100  0.08145400  1
  O  O21  1  0.40191400  0.27733500  0.57997500  1
  O  O22  1  0.90191400  0.72266500  0.42002500  1
  O  O23  1  0.60000500  0.20640900  0.91854600  1
  O  O24  1  0.73173200  0.12878000  0.04480400  1
  O  O25  1  0.77242800  0.62681200  0.54562100  1
  O  O26  1  0.27242800  0.37318800  0.45437900  1
  O  O27  1  0.23173200  0.87122000  0.95519600  1
  O  O28  1  0.88990800  0.06566000  0.05784600  1
  O  O29  1  0.60873600  0.56815900  0.53184700  1
  O  O30  1  0.10873600  0.43184100  0.46815300  1
  O  O31  1  0.38990800  0.93434000  0.94215400  1
  O  O32  1  0.10120800  0.75316500  0.84292300  1
  O  O33  1  0.40150000  0.25242200  0.33999500  1
  O  O34  1  0.90150000  0.74757800  0.66000500  1
  O  O35  1  0.60120800  0.24683500  0.15707700  1
  O  O36  1  0.73601900  0.37035600  0.90288900  1
  O  O37  1  0.76028600  0.86911200  0.40409300  1
  O  O38  1  0.26028600  0.13088800  0.59590700  1
  O  O39  1  0.23601900  0.62964400  0.09711100  1
  O  O40  1  0.96730700  0.69977200  0.97174900  1
  O  O41  1  0.53543200  0.19196700  0.46539100  1
  O  O42  1  0.03543200  0.80803300  0.53460900  1
  O  O43  1  0.46730700  0.30022800  0.02825100  1
  O  O44  1  0.79156300  0.59390400  0.78780500  1
  O  O45  1  0.71214500  0.09731800  0.28782300  1
  O  O46  1  0.21214500  0.90268200  0.71217700  1
  O  O47  1  0.29156300  0.40609600  0.21219500  1
  O  O48  1  0.77969700  0.60415700  0.29977800  1
  O  O49  1  0.72608300  0.10376500  0.79858000  1
  O  O50  1  0.22608300  0.89623500  0.20142000  1
  O  O51  1  0.27969700  0.39584300  0.70022200  1
  O  O52  1  0.06076400  0.28567300  0.14473700  1
  O  O53  1  0.56076400  0.71432700  0.85526300  1
loop_
_geom_bond_atom_site_label_1
_geom_bond_atom_site_label_2
_geom_bond_distance
_geom_bond_site_symmetry_2
B0 O0 1.363841 1_555
B0 O48 1.370468 1_555
B0 O17 1.382573 1_555
B1 O1 1.364381 1_555
B1 O16 1.375411 1_555
B1 O49 1.381310 1_565
B2 O2 1.364381 1_555
B2 O19 1.375411 1_555
B2 O50 1.381310 1_545
B3 O3 1.363841 1_555
B3 O51 1.370468 1_555
B3 O18 1.382573 1_555
B4 O40 1.375568 1_455
B4 O20 1.378753 1_556
B4 O32 1.379459 1_555
B5 O41 1.374489 1_555
B5 O33 1.380119 1_555
B5 O21 1.381595 1_555
B6 O42 1.374489 1_655
B6 O34 1.380119 1_555
B6 O22 1.381595 1_555
B7 O43 1.375568 1_555
B7 O23 1.378753 1_554
B7 O35 1.379459 1_555
B8 O34 1.428977 1_555
B8 O44 1.482396 1_555
B8 O1 1.489666 1_555
B8 O25 1.528848 1_555
B9 O35 1.431342 1_555
B9 O45 1.480477 1_555
B9 O0 1.491552 1_555
B9 O24 1.533407 1_555
B10 O32 1.431342 1_555
B10 O46 1.480477 1_555
B10 O3 1.491552 1_555
B10 O27 1.533407 1_555
B11 O33 1.428977 1_555
B11 O47 1.482396 1_555
B11 O2 1.489666 1_555
B11 O26 1.528848 1_555
B12 O22 1.416126 1_555
B12 O48 1.476051 1_555
B12 O37 1.500013 1_555
B12 O25 1.532044 1_555
B13 O23 1.413568 1_555
B13 O49 1.472924 1_555
B13 O36 1.496004 1_555
B13 O24 1.533591 1_556
B14 O20 1.413568 1_555
B14 O50 1.472924 1_555
B14 O39 1.496004 1_555
B14 O27 1.533591 1_554
B15 O21 1.416126 1_555
B15 O51 1.476051 1_555
B15 O38 1.500013 1_555
B15 O26 1.532044 1_555
B16 O36 1.368515 1_555
B16 O44 1.374704 1_555
B16 O5 1.379046 1_555
B17 O37 1.367232 1_555
B17 O45 1.375021 1_565
B17 O4 1.380683 1_555
B18 O38 1.367232 1_555
B18 O46 1.375021 1_545
B18 O7 1.380683 1_555
B19 O39 1.368515 1_555
B19 O47 1.374704 1_555
B19 O6 1.379046 1_555
B20 O28 1.429250 1_565
B20 O4 1.469593 1_555
B20 O16 1.485810 1_554
B20 O24 1.504950 1_565
B21 O29 1.448961 1_555
B21 O5 1.464296 1_555
B21 O17 1.470688 1_555
B21 O25 1.503949 1_555
B22 O30 1.448961 1_555
B22 O6 1.464296 1_555
B22 O18 1.470688 1_555
B22 O26 1.503949 1_555
B23 O31 1.429250 1_545
B23 O7 1.469593 1_555
B23 O19 1.485810 1_556
B23 O27 1.504950 1_545
Br0 O53 1.670151 1_554
Br0 O15 1.693645 1_555
Br1 O14 1.749786 1_655
Br2 O13 1.749786 1_555
Br3 O52 1.670151 1_556
Br3 O12 1.693645 1_455
O0 Pr0 2.740236 1_555
O1 Pr1 2.745078 1_565
O2 Pr2 2.745078 1_545
O3 Pr3 2.740236 1_555
O4 Pr0 2.723455 1_555
O5 Pr1 2.758402 1_555
O6 Pr2 2.758402 1_555
O7 Pr3 2.723455 1_555
O8 Pr0 2.371985 1_555
O9 Pr1 2.313284 1_555
O10 Pr2 2.313284 1_555
O11 Pr3 2.371985 1_555
O12 Pr0 2.597007 1_556
O13 Pr1 2.711321 1_565
O14 Pr2 2.711321 1_545
O15 Pr3 2.597007 1_554
O16 Pr0 2.644749 1_556
O17 Pr1 2.710415 1_555
O18 Pr2 2.710415 1_555
O19 Pr3 2.644749 1_554
O36 Pr0 2.728436 1_556
O37 Pr1 2.712902 1_565
O38 Pr2 2.712902 1_545
O39 Pr3 2.728436 1_554
O40 Pr0 2.272302 1_556
O41 Pr1 2.255525 1_555
O42 Pr2 2.255525 1_555
O43 Pr3 2.272302 1_554
O44 Pr0 2.589349 1_556
O45 Pr1 2.639764 1_555
O46 Pr2 2.639764 1_555
O47 Pr3 2.589349 1_554
O48 Pr0 2.674313 1_555
O49 Pr1 2.649623 1_555
O50 Pr2 2.649623 1_555
O51 Pr3 2.674313 1_555
