# generated using pymatgen
data_Sr3YbRhO6
_symmetry_space_group_name_H-M   'P 1'
_cell_length_a   6.82492494
_cell_length_b   6.82492494
_cell_length_c   6.82492420
_cell_angle_alpha   91.91760633
_cell_angle_beta   91.91760633
_cell_angle_gamma   91.91760626
_symmetry_Int_Tables_number   1
_chemical_formula_structural   Sr3YbRhO6
_chemical_formula_sum   'Sr6 Yb2 Rh2 O12'
_cell_volume   317.35591635
_cell_formula_units_Z   2
loop_
 _symmetry_equiv_pos_site_id
 _symmetry_equiv_pos_as_xyz
  1  'x, y, z'
loop_
 _atom_site_type_symbol
 _atom_site_label
 _atom_site_symmetry_multiplicity
 _atom_site_fract_x
 _atom_site_fract_y
 _atom_site_fract_z
 _atom_site_occupancy
  Sr  Sr0  1  0.38515800  0.11484200  0.75000000  1
  Sr  Sr1  1  0.11484200  0.75000000  0.38515800  1
  Sr  Sr2  1  0.75000000  0.38515800  0.11484200  1
  Sr  Sr3  1  0.61484200  0.88515800  0.25000000  1
  Sr  Sr4  1  0.25000000  0.61484200  0.88515800  1
  Sr  Sr5  1  0.88515800  0.25000000  0.61484200  1
  Yb  Yb0  1  0.25000000  0.25000000  0.25000000  1
  Yb  Yb1  1  0.75000000  0.75000000  0.75000000  1
  Rh  Rh0  1  0.00000000  0.00000000  0.00000000  1
  Rh  Rh1  1  0.50000000  0.50000000  0.50000000  1
  O  O0  1  0.08348500  0.28644000  0.95152200  1
  O  O1  1  0.95152200  0.08348500  0.28644000  1
  O  O2  1  0.28644000  0.95152200  0.08348500  1
  O  O3  1  0.41651500  0.54847800  0.21356000  1
  O  O4  1  0.21356000  0.41651500  0.54847800  1
  O  O5  1  0.54847800  0.21356000  0.41651500  1
  O  O6  1  0.91651500  0.71356000  0.04847800  1
  O  O7  1  0.04847800  0.91651500  0.71356000  1
  O  O8  1  0.71356000  0.04847800  0.91651500  1
  O  O9  1  0.58348500  0.45152200  0.78644000  1
  O  O10  1  0.45152200  0.78644000  0.58348500  1
  O  O11  1  0.78644000  0.58348500  0.45152200  1
loop_
_geom_bond_atom_site_label_1
_geom_bond_atom_site_label_2
_geom_bond_distance
_geom_bond_site_symmetry_2
O0 Rh0 2.058453 1_556
O0 Yb0 2.324005 1_556
O0 Sr4 2.540098 1_555
O0 Sr5 2.627741 1_455
O0 Sr2 2.664346 1_456
O0 Sr0 2.783049 1_555
O1 Rh0 2.058453 1_655
O1 Yb0 2.324005 1_655
O1 Sr5 2.540098 1_555
O1 Sr3 2.627742 1_545
O1 Sr1 2.664346 1_645
O1 Sr2 2.783049 1_555
O2 Rh0 2.058453 1_565
O2 Yb0 2.324005 1_565
O2 Sr3 2.540098 1_555
O2 Sr4 2.627742 1_554
O2 Sr0 2.664346 1_564
O2 Sr1 2.783049 1_555
O3 Rh1 2.058453 1_555
O3 Yb0 2.324005 1_555
O3 Sr4 2.540098 1_554
O3 Sr3 2.627742 1_555
O3 Sr2 2.664346 1_555
O3 Sr1 2.783049 1_555
O4 Rh1 2.058453 1_555
O4 Yb0 2.324005 1_555
O4 Sr5 2.540098 1_455
O4 Sr4 2.627741 1_555
O4 Sr1 2.664346 1_555
O4 Sr0 2.783049 1_555
O5 Rh1 2.058453 1_555
O5 Yb0 2.324005 1_555
O5 Sr3 2.540098 1_545
O5 Sr5 2.627742 1_555
O5 Sr0 2.664346 1_555
O5 Sr2 2.783049 1_555
O6 Rh0 2.058453 1_665
O6 Yb1 2.324005 1_554
O6 Sr2 2.540098 1_555
O6 Sr1 2.627741 1_655
O6 Sr4 2.664346 1_654
O6 Sr3 2.783049 1_555
O7 Rh0 2.058453 1_566
O7 Yb1 2.324005 1_455
O7 Sr1 2.540098 1_555
O7 Sr0 2.627742 1_565
O7 Sr5 2.664346 1_465
O7 Sr4 2.783049 1_555
O8 Rh0 2.058453 1_656
O8 Yb1 2.324005 1_545
O8 Sr0 2.540098 1_555
O8 Sr2 2.627742 1_556
O8 Sr3 2.664346 1_546
O8 Sr5 2.783049 1_555
O9 Rh1 2.058453 1_555
O9 Yb1 2.324005 1_555
O9 Sr2 2.540098 1_556
O9 Sr0 2.627742 1_555
O9 Sr4 2.664346 1_555
O9 Sr5 2.783049 1_555
O10 Rh1 2.058453 1_555
O10 Yb1 2.324005 1_555
O10 Sr0 2.540098 1_565
O10 Sr1 2.627742 1_555
O10 Sr3 2.664346 1_555
O10 Sr4 2.783049 1_555
O11 Rh1 2.058453 1_555
O11 Yb1 2.324005 1_555
O11 Sr1 2.540098 1_655
O11 Sr2 2.627741 1_555
O11 Sr5 2.664346 1_555
O11 Sr3 2.783049 1_555
