# generated using pymatgen
data_BaFe2Se3
_symmetry_space_group_name_H-M   'P 1'
_cell_length_a   7.56810138
_cell_length_b   7.56810138
_cell_length_c   5.46367100
_cell_angle_alpha   90.00000000
_cell_angle_beta   90.00000000
_cell_angle_gamma   105.76882882
_symmetry_Int_Tables_number   1
_chemical_formula_structural   BaFe2Se3
_chemical_formula_sum   'Ba2 Fe4 Se6'
_cell_volume   301.16096865
_cell_formula_units_Z   2
loop_
 _symmetry_equiv_pos_site_id
 _symmetry_equiv_pos_as_xyz
  1  'x, y, z'
loop_
 _atom_site_type_symbol
 _atom_site_label
 _atom_site_symmetry_multiplicity
 _atom_site_fract_x
 _atom_site_fract_y
 _atom_site_fract_z
 _atom_site_occupancy
  Ba  Ba0  1  0.31416700  0.68583300  0.75000000  1
  Ba  Ba1  1  0.68583300  0.31416700  0.25000000  1
  Fe  Fe0  1  0.13879500  0.13879500  0.00000000  1
  Fe  Fe1  1  0.13879500  0.13879500  0.50000000  1
  Fe  Fe2  1  0.86120500  0.86120500  0.00000000  1
  Fe  Fe3  1  0.86120500  0.86120500  0.50000000  1
  Se  Se0  1  0.86632200  0.13367800  0.75000000  1
  Se  Se1  1  0.13367800  0.86632200  0.25000000  1
  Se  Se2  1  0.41004000  0.17064100  0.75000000  1
  Se  Se3  1  0.17064100  0.41004000  0.25000000  1
  Se  Se4  1  0.58996000  0.82935900  0.25000000  1
  Se  Se5  1  0.82935900  0.58996000  0.75000000  1
loop_
_geom_bond_atom_site_label_1
_geom_bond_atom_site_label_2
_geom_bond_distance
_geom_bond_site_symmetry_2
Ba0 Se3 3.430317 1_555
Ba0 Se3 3.430317 1_556
Ba0 Se4 3.430317 1_556
Ba0 Se4 3.430317 1_555
Ba0 Se1 3.494099 1_555
Ba0 Se1 3.494099 1_556
Ba0 Se5 3.541418 1_455
Ba0 Se2 3.541418 1_565
Ba1 Se2 3.430317 1_555
Ba1 Se2 3.430317 1_554
Ba1 Se5 3.430317 1_554
Ba1 Se5 3.430317 1_555
Ba1 Se0 3.494099 1_555
Ba1 Se0 3.494099 1_554
Ba1 Se4 3.541418 1_545
Ba1 Se3 3.541418 1_655
Fe0 Se2 2.422590 1_554
Fe0 Se3 2.422590 1_555
Fe0 Se0 2.464974 1_454
Fe0 Se1 2.464974 1_545
Fe1 Se2 2.422590 1_555
Fe1 Se3 2.422590 1_555
Fe1 Se1 2.464974 1_545
Fe1 Se0 2.464974 1_455
Fe2 Se4 2.422590 1_555
Fe2 Se5 2.422590 1_554
Fe2 Se0 2.464974 1_564
Fe2 Se1 2.464974 1_655
Fe3 Se4 2.422590 1_555
Fe3 Se5 2.422590 1_555
Fe3 Se0 2.464974 1_565
Fe3 Se1 2.464974 1_655
