# generated using pymatgen
data_KNaMg6O7
_symmetry_space_group_name_H-M   'P 1'
_cell_length_a   4.25424600
_cell_length_b   4.25424600
_cell_length_c   10.89758600
_cell_angle_alpha   90.00000000
_cell_angle_beta   90.00000000
_cell_angle_gamma   90.00000000
_symmetry_Int_Tables_number   1
_chemical_formula_structural   KNaMg6O7
_chemical_formula_sum   'K1 Na1 Mg6 O7'
_cell_volume   197.23114837
_cell_formula_units_Z   1
loop_
 _symmetry_equiv_pos_site_id
 _symmetry_equiv_pos_as_xyz
  1  'x, y, z'
loop_
 _atom_site_type_symbol
 _atom_site_label
 _atom_site_symmetry_multiplicity
 _atom_site_fract_x
 _atom_site_fract_y
 _atom_site_fract_z
 _atom_site_occupancy
  K  K0  1  0.00000000  0.00000000  0.96473300  1
  Na  Na0  1  0.50000000  0.50000000  0.03482800  1
  Mg  Mg0  1  0.00000000  0.00000000  0.48583100  1
  Mg  Mg1  1  0.50000000  0.50000000  0.50308100  1
  Mg  Mg2  1  0.00000000  0.50000000  0.26034100  1
  Mg  Mg3  1  0.00000000  0.50000000  0.68775600  1
  Mg  Mg4  1  0.50000000  0.00000000  0.26034100  1
  Mg  Mg5  1  0.50000000  0.00000000  0.68775600  1
  O  O0  1  0.00000000  0.00000000  0.30184700  1
  O  O1  1  0.00000000  0.00000000  0.69848300  1
  O  O2  1  0.50000000  0.50000000  0.69935600  1
  O  O3  1  0.00000000  0.50000000  0.08707500  1
  O  O4  1  0.00000000  0.50000000  0.49574700  1
  O  O5  1  0.50000000  0.00000000  0.08707500  1
  O  O6  1  0.50000000  0.00000000  0.49574700  1
loop_
_geom_bond_atom_site_label_1
_geom_bond_atom_site_label_2
_geom_bond_distance
_geom_bond_site_symmetry_2
K0 O5 2.510411 1_456
K0 O5 2.510411 1_556
K0 O3 2.510411 1_546
K0 O3 2.510411 1_556
K0 O1 2.901482 1_555
Na0 O5 2.202006 1_555
Na0 O3 2.202006 1_655
Na0 O5 2.202006 1_565
Na0 O3 2.202006 1_555
Mg0 O0 2.004981 1_555
Mg0 O6 2.129866 1_555
Mg0 O4 2.129866 1_555
Mg0 O6 2.129866 1_455
Mg0 O4 2.129866 1_545
Mg0 O1 2.317393 1_555
Mg1 O6 2.128624 1_555
Mg1 O6 2.128624 1_565
Mg1 O4 2.128624 1_555
Mg1 O4 2.128624 1_655
Mg1 O2 2.138924 1_555
Mg2 O3 1.888181 1_555
Mg2 O0 2.174682 1_555
Mg2 O0 2.174682 1_565
Mg2 O4 2.565357 1_555
Mg3 O4 2.092435 1_555
Mg3 O1 2.130333 1_555
Mg3 O1 2.130333 1_565
Mg3 O2 2.130876 1_455
Mg3 O2 2.130876 1_555
Mg4 O5 1.888181 1_555
Mg4 O0 2.174682 1_555
Mg4 O0 2.174682 1_655
Mg4 O6 2.565357 1_555
Mg5 O6 2.092435 1_555
Mg5 O1 2.130333 1_555
Mg5 O1 2.130333 1_655
Mg5 O2 2.130876 1_545
Mg5 O2 2.130876 1_555
