# generated using pymatgen
data_Tb2Al3Co
_symmetry_space_group_name_H-M   'P 1'
_cell_length_a   5.37197113
_cell_length_b   5.37197113
_cell_length_c   5.37197079
_cell_angle_alpha   61.51573717
_cell_angle_beta   61.51573717
_cell_angle_gamma   61.51574473
_symmetry_Int_Tables_number   1
_chemical_formula_structural   Tb2Al3Co
_chemical_formula_sum   'Tb2 Al3 Co1'
_cell_volume   113.34835532
_cell_formula_units_Z   1
loop_
 _symmetry_equiv_pos_site_id
 _symmetry_equiv_pos_as_xyz
  1  'x, y, z'
loop_
 _atom_site_type_symbol
 _atom_site_label
 _atom_site_symmetry_multiplicity
 _atom_site_fract_x
 _atom_site_fract_y
 _atom_site_fract_z
 _atom_site_occupancy
  Tb  Tb0  1  0.62638600  0.62638600  0.62638600  1
  Tb  Tb1  1  0.37361400  0.37361400  0.37361400  1
  Al  Al0  1  0.00000000  0.50000000  0.00000000  1
  Al  Al1  1  0.50000000  0.00000000  0.00000000  1
  Al  Al2  1  0.00000000  0.00000000  0.50000000  1
  Co  Co0  1  0.00000000  0.00000000  0.00000000  1
loop_
_geom_bond_atom_site_label_1
_geom_bond_atom_site_label_2
_geom_bond_distance
_geom_bond_site_symmetry_2
Al0 Co0 2.685986 1_565
Al0 Co0 2.685986 1_555
Al0 Al2 2.747286 1_564
Al0 Al2 2.747286 1_555
Al0 Al1 2.747286 1_555
Al0 Al1 2.747286 1_465
Al0 Tb1 3.124124 1_555
Al0 Tb0 3.124124 1_454
Al0 Tb1 3.201486 1_554
Al0 Tb0 3.201486 1_455
Al0 Tb1 3.201486 1_455
Al0 Tb0 3.201486 1_554
Al1 Co0 2.685986 1_655
Al1 Co0 2.685986 1_555
Al1 Al2 2.747286 1_654
Al1 Al2 2.747286 1_555
Al1 Tb1 3.124124 1_555
Al1 Tb0 3.124124 1_544
Al1 Tb1 3.201486 1_554
Al1 Tb0 3.201486 1_545
Al1 Tb1 3.201486 1_545
Al1 Tb0 3.201486 1_554
Al2 Co0 2.685985 1_556
Al2 Co0 2.685985 1_555
Al2 Tb0 3.124124 1_445
Al2 Tb1 3.124124 1_555
Al2 Tb1 3.201486 1_545
Al2 Tb0 3.201486 1_545
Al2 Tb0 3.201486 1_455
Al2 Tb1 3.201486 1_455
Co0 Tb0 3.215259 1_445
Co0 Tb1 3.215259 1_554
Co0 Tb1 3.215259 1_545
Co0 Tb0 3.215259 1_454
Co0 Tb1 3.215259 1_455
Co0 Tb0 3.215259 1_544
