# generated using pymatgen
data_CaTi2O4
_symmetry_space_group_name_H-M   'P 1'
_cell_length_a   6.36776819
_cell_length_b   6.36776819
_cell_length_c   15.23573700
_cell_angle_alpha   89.08057055
_cell_angle_beta   89.08057055
_cell_angle_gamma   58.02406879
_symmetry_Int_Tables_number   1
_chemical_formula_structural   CaTi2O4
_chemical_formula_sum   'Ca6 Ti12 O24'
_cell_volume   523.96136658
_cell_formula_units_Z   6
loop_
 _symmetry_equiv_pos_site_id
 _symmetry_equiv_pos_as_xyz
  1  'x, y, z'
loop_
 _atom_site_type_symbol
 _atom_site_label
 _atom_site_symmetry_multiplicity
 _atom_site_fract_x
 _atom_site_fract_y
 _atom_site_fract_z
 _atom_site_occupancy
  Ca  Ca0  1  0.83135100  0.83135100  0.96167600  1
  Ca  Ca1  1  0.16708700  0.16708700  0.66783800  1
  Ca  Ca2  1  0.33548100  0.33548100  0.83396100  1
  Ca  Ca3  1  0.83891600  0.83891600  0.32773100  1
  Ca  Ca4  1  0.00027400  0.00027400  0.49960900  1
  Ca  Ca5  1  0.66840000  0.66840000  0.16659400  1
  Ti  Ti0  1  0.82889200  0.33181400  0.83720500  1
  Ti  Ti1  1  0.50398400  0.50398400  0.62236800  1
  Ti  Ti2  1  0.49304100  0.49304100  0.00662800  1
  Ti  Ti3  1  0.33181400  0.82889200  0.83720500  1
  Ti  Ti4  1  0.50480100  0.99574800  0.49882600  1
  Ti  Ti5  1  0.17254800  0.17254800  0.28886700  1
  Ti  Ti6  1  0.99574800  0.50480100  0.49882600  1
  Ti  Ti7  1  0.19704600  0.64420900  0.15860900  1
  Ti  Ti8  1  0.82716600  0.82716600  0.71180100  1
  Ti  Ti9  1  0.64420900  0.19704600  0.15860900  1
  Ti  Ti10  1  0.49613700  0.49613700  0.37786000  1
  Ti  Ti11  1  0.15686700  0.15686700  0.03959400  1
  O  O0  1  0.66446400  0.21616300  0.91825100  1
  O  O1  1  0.51030400  0.51030400  0.74878900  1
  O  O2  1  0.21616300  0.66446400  0.91825100  1
  O  O3  1  0.64130800  0.64130800  0.91285800  1
  O  O4  1  0.35772900  0.82543000  0.57908100  1
  O  O5  1  0.99108600  0.99108600  0.76017700  1
  O  O6  1  0.17755400  0.17755400  0.41600500  1
  O  O7  1  0.50801100  0.96839600  0.75841500  1
  O  O8  1  0.82543000  0.35772900  0.57908100  1
  O  O9  1  0.15622600  0.15622600  0.91574100  1
  O  O10  1  0.34048300  0.34048300  0.57886300  1
  O  O11  1  0.96839600  0.50801100  0.75841500  1
  O  O12  1  0.03056300  0.48789300  0.24310300  1
  O  O13  1  0.66139200  0.66139200  0.42045300  1
  O  O14  1  0.17354900  0.64176600  0.42051400  1
  O  O15  1  0.48789300  0.03056300  0.24310300  1
  O  O16  1  0.85425900  0.85425900  0.10605300  1
  O  O17  1  0.82228200  0.82228200  0.58361100  1
  O  O18  1  0.01554900  0.01554900  0.24484700  1
  O  O19  1  0.64176600  0.17354900  0.42051400  1
  O  O20  1  0.32468700  0.32468700  0.07453300  1
  O  O21  1  0.82411400  0.32783100  0.07806300  1
  O  O22  1  0.49024400  0.49024400  0.24951700  1
  O  O23  1  0.32783100  0.82411400  0.07806300  1
loop_
_geom_bond_atom_site_label_1
_geom_bond_atom_site_label_2
_geom_bond_distance
_geom_bond_site_symmetry_2
Ca0 O0 2.187242 1_565
Ca0 O2 2.187242 1_655
Ca0 O16 2.219082 1_556
Ca0 O3 2.256314 1_555
Ca1 O4 2.297837 1_545
Ca1 O8 2.297837 1_455
Ca1 O11 2.312819 1_455
Ca1 O7 2.312819 1_545
Ca1 O10 2.339033 1_555
Ca1 O5 2.391742 1_445
Ca2 O0 2.232554 1_555
Ca2 O2 2.232554 1_555
Ca2 O11 2.306862 1_455
Ca2 O7 2.306862 1_545
Ca2 O1 2.319984 1_555
Ca2 O9 2.333874 1_555
Ca3 O15 2.302378 1_565
Ca3 O12 2.302378 1_655
Ca3 O14 2.306815 1_655
Ca3 O19 2.306815 1_565
Ca3 O18 2.318089 1_665
Ca3 O13 2.408811 1_555
Ca4 O4 2.290810 1_545
Ca4 O8 2.290810 1_455
Ca4 O14 2.293260 1_545
Ca4 O19 2.293260 1_455
Ca4 O6 2.329943 1_555
Ca4 O17 2.339805 1_445
Ca5 O16 2.250692 1_555
Ca5 O15 2.287829 1_565
Ca5 O12 2.287829 1_655
Ca5 O23 2.297631 1_555
Ca5 O21 2.297631 1_555
Ca5 O22 2.332645 1_555
O0 Ti0 1.977207 1_555
O0 Ti2 2.025772 1_556
O1 Ti1 1.928693 1_555
O1 Ti0 2.195111 1_555
O1 Ti3 2.195111 1_555
O2 Ti3 1.977207 1_555
O2 Ti2 2.025772 1_556
O3 Ti0 2.043233 1_555
O3 Ti3 2.043233 1_555
O3 Ti2 2.163637 1_556
O4 Ti1 1.857269 1_555
O4 Ti4 2.131867 1_555
O5 Ti8 1.981317 1_555
O5 Ti0 2.195664 1_565
O5 Ti3 2.195664 1_655
O6 Ti5 1.938866 1_555
O6 Ti4 2.181119 1_545
O6 Ti6 2.181119 1_455
O7 Ti8 1.865970 1_555
O7 Ti3 2.113566 1_555
O8 Ti1 1.857269 1_555
O8 Ti6 2.131867 1_555
O9 Ti11 1.887136 1_556
O9 Ti3 2.143669 1_545
O9 Ti0 2.143669 1_455
O10 Ti1 1.949263 1_555
O10 Ti6 2.238956 1_455
O10 Ti4 2.238956 1_545
O11 Ti8 1.865970 1_555
O11 Ti0 2.113566 1_555
O12 Ti5 1.840725 1_555
O12 Ti7 2.191933 1_555
O13 Ti10 1.962769 1_555
O13 Ti4 2.178992 1_555
O13 Ti6 2.178992 1_555
O14 Ti10 1.860334 1_555
O14 Ti6 2.105994 1_455
O15 Ti5 1.840725 1_555
O15 Ti9 2.191933 1_555
O16 Ti9 2.030832 1_565
O16 Ti7 2.030832 1_655
O17 Ti8 1.954824 1_555
O17 Ti4 2.156087 1_555
O17 Ti6 2.156087 1_555
O18 Ti5 1.884234 1_555
O18 Ti9 2.410385 1_455
O18 Ti7 2.410385 1_545
O19 Ti10 1.860334 1_555
O19 Ti4 2.105994 1_545
O20 Ti11 1.952784 1_555
O20 Ti2 2.124836 1_555
O20 Ti9 2.177147 1_555
O20 Ti7 2.177147 1_555
O21 Ti11 1.885706 1_655
O21 Ti2 2.103252 1_555
O21 Ti9 2.108192 1_555
O22 Ti10 1.957705 1_555
O22 Ti7 2.113306 1_555
O22 Ti9 2.113306 1_555
O23 Ti11 1.885706 1_565
O23 Ti2 2.103252 1_555
O23 Ti7 2.108192 1_555
