# generated using pymatgen
data_Fe3Co3Si2
_symmetry_space_group_name_H-M   'P 1'
_cell_length_a   6.83378307
_cell_length_b   6.83378307
_cell_length_c   6.83378271
_cell_angle_alpha   33.52302321
_cell_angle_beta   33.52302321
_cell_angle_gamma   33.52301946
_symmetry_Int_Tables_number   1
_chemical_formula_structural   Fe3Co3Si2
_chemical_formula_sum   'Fe3 Co3 Si2'
_cell_volume   86.69779519
_cell_formula_units_Z   1
loop_
 _symmetry_equiv_pos_site_id
 _symmetry_equiv_pos_as_xyz
  1  'x, y, z'
loop_
 _atom_site_type_symbol
 _atom_site_label
 _atom_site_symmetry_multiplicity
 _atom_site_fract_x
 _atom_site_fract_y
 _atom_site_fract_z
 _atom_site_occupancy
  Fe  Fe0  1  0.62530221  0.62530221  0.62530221  1
  Fe  Fe1  1  0.74927641  0.74927641  0.74927641  1
  Fe  Fe2  1  0.25055312  0.25055312  0.25055312  1
  Co  Co0  1  0.37629575  0.37629575  0.37629575  1
  Co  Co1  1  0.87376634  0.87376634  0.87376634  1
  Co  Co2  1  0.12484338  0.12484338  0.12484338  1
  Si  Si0  1  0.99896784  0.99896784  0.99896784  1
  Si  Si1  1  0.50099595  0.50099595  0.50099595  1
loop_
_geom_bond_atom_site_label_1
_geom_bond_atom_site_label_2
_geom_bond_distance
_geom_bond_site_symmetry_2
Fe0 Fe1 2.396577 1_555
Fe0 Si1 2.402996 1_555
Fe0 Si0 2.405525 1_545
Fe0 Si0 2.405525 1_455
Fe0 Si0 2.405525 1_554
Fe0 Fe2 2.412395 1_565
Fe0 Fe2 2.412395 1_655
Fe0 Fe2 2.412395 1_556
Fe2 Si0 2.770557 1_445
Fe2 Si0 2.770557 1_544
Fe2 Si0 2.770557 1_454
Fe2 Si1 2.783213 1_554
Fe2 Si1 2.783213 1_545
Fe2 Si1 2.783213 1_455
Co0 Fe1 2.401266 1_545
Co0 Fe1 2.401266 1_455
Co0 Fe1 2.401266 1_554
Co0 Si1 2.410611 1_555
Co0 Si0 2.429395 1_544
Co0 Si0 2.429395 1_454
Co0 Si0 2.429395 1_445
Co0 Fe2 2.430763 1_555
Co1 Si1 2.399972 1_565
Co1 Si1 2.399972 1_655
Co1 Si1 2.399972 1_556
Co1 Fe1 2.406546 1_555
Co1 Si0 2.420302 1_555
Co1 Fe2 2.425753 1_656
Co1 Fe2 2.425753 1_566
Co1 Fe2 2.425753 1_665
Co2 Fe1 2.417688 1_544
Co2 Fe1 2.417688 1_454
Co2 Fe1 2.417688 1_445
Co2 Si1 2.421534 1_545
Co2 Si1 2.421534 1_455
Co2 Si1 2.421535 1_554
Co2 Fe2 2.430127 1_555
Co2 Si0 2.433332 1_444
