# generated using pymatgen
data_V6InS8
_symmetry_space_group_name_H-M   'P 1'
_cell_length_a   9.19322050
_cell_length_b   9.19312977
_cell_length_c   3.21864577
_cell_angle_alpha   89.99981229
_cell_angle_beta   90.00015108
_cell_angle_gamma   119.99959056
_symmetry_Int_Tables_number   1
_chemical_formula_structural   V6InS8
_chemical_formula_sum   'V6 In1 S8'
_cell_volume   235.57905419
_cell_formula_units_Z   1
loop_
 _symmetry_equiv_pos_site_id
 _symmetry_equiv_pos_as_xyz
  1  'x, y, z'
loop_
 _atom_site_type_symbol
 _atom_site_label
 _atom_site_symmetry_multiplicity
 _atom_site_fract_x
 _atom_site_fract_y
 _atom_site_fract_z
 _atom_site_occupancy
  V  V0  1  0.28956974  0.44475230  0.26042060  1
  V  V1  1  0.55523085  0.84484523  0.26041980  1
  V  V2  1  0.15515418  0.71035431  0.26041943  1
  V  V3  1  0.04541036  0.22217380  0.75923123  1
  V  V4  1  0.77785753  0.82328009  0.75922669  1
  V  V5  1  0.17672810  0.95457019  0.75922940  1
  In  In0  1  0.66669674  0.33332721  0.37152848  1
  S  S0  1  0.61429608  0.62702145  0.25862183  1
  S  S1  1  0.37299381  0.98726254  0.25862492  1
  S  S2  1  0.01273849  0.38571214  0.25863074  1
  S  S3  1  0.71930840  0.04141756  0.76093783  1
  S  S4  1  0.95860914  0.67787441  0.76093739  1
  S  S5  1  0.32210205  0.28072238  0.76094257  1
  S  S6  1  -0.00000875  1.00002381  0.25975042  1
  S  S7  1  0.33331529  0.66666260  0.76007367  1
loop_
_geom_bond_atom_site_label_1
_geom_bond_atom_site_label_2
_geom_bond_distance
_geom_bond_site_symmetry_2
In0 S2 2.992029 1_655
In0 S1 2.992311 1_545
In0 S0 2.992423 1_555
S0 V4 2.320986 1_554
S0 V1 2.322101 1_555
S0 V4 2.323686 1_555
S0 V0 2.591815 1_555
S1 V5 2.321046 1_554
S1 V2 2.322283 1_555
S1 V5 2.323748 1_555
S1 V1 2.591219 1_555
S2 V3 2.320733 1_554
S2 V0 2.321681 1_555
S2 V3 2.323404 1_555
S2 V2 2.591118 1_555
S3 V4 2.321772 1_545
S3 V1 2.323719 1_546
S3 V1 2.326030 1_545
S3 V3 2.601395 1_655
S4 V5 2.321794 1_655
S4 V2 2.323577 1_656
S4 V2 2.325891 1_655
S4 V4 2.601789 1_555
S5 V3 2.321847 1_555
S5 V0 2.323548 1_556
S5 V0 2.325866 1_555
S5 V5 2.601765 1_545
S6 V4 2.465112 1_455
S6 V3 2.465153 1_565
S6 V5 2.465350 1_555
S6 V4 2.467312 1_454
S6 V3 2.467327 1_564
S6 V5 2.467546 1_554
S7 V2 2.467418 1_555
S7 V0 2.467684 1_555
S7 V1 2.467764 1_555
S7 V2 2.468877 1_556
S7 V0 2.469132 1_556
S7 V1 2.469217 1_556
