# generated using pymatgen
data_Rb2ZnBr4
_symmetry_space_group_name_H-M   'P 1'
_cell_length_a   15.80024030
_cell_length_b   15.81079109
_cell_length_c   29.67256471
_cell_angle_alpha   90.00000000
_cell_angle_beta   90.00000000
_cell_angle_gamma   119.99031081
_symmetry_Int_Tables_number   1
_chemical_formula_structural   Rb2ZnBr4
_chemical_formula_sum   'Rb48 Zn24 Br96'
_cell_volume   6420.15337805
_cell_formula_units_Z   24
loop_
 _symmetry_equiv_pos_site_id
 _symmetry_equiv_pos_as_xyz
  1  'x, y, z'
loop_
 _atom_site_type_symbol
 _atom_site_label
 _atom_site_symmetry_multiplicity
 _atom_site_fract_x
 _atom_site_fract_y
 _atom_site_fract_z
 _atom_site_occupancy
  Rb  Rb0  1  0.45173478  0.17120961  0.24719012  1
  Rb  Rb1  1  0.45173478  0.67120961  0.75280988  1
  Rb  Rb2  1  0.97696455  0.16557464  0.91455825  1
  Rb  Rb3  1  0.97696455  0.66557464  0.08544175  1
  Rb  Rb4  1  0.02486191  0.81541770  0.25392704  1
  Rb  Rb5  1  0.02486191  0.31541770  0.74607296  1
  Rb  Rb6  1  0.96526445  0.66931627  0.41954757  1
  Rb  Rb7  1  0.96526445  0.16931627  0.58045243  1
  Rb  Rb8  1  0.46990553  0.67251042  0.08767020  1
  Rb  Rb9  1  0.46990553  0.17251042  0.91232980  1
  Rb  Rb10  1  0.31718545  0.40001708  0.87365544  1
  Rb  Rb11  1  0.31718545  0.90001708  0.12634456  1
  Rb  Rb12  1  0.46817238  0.66856179  0.42225185  1
  Rb  Rb13  1  0.46817238  0.16856179  0.57774815  1
  Rb  Rb14  1  0.94977894  0.16876709  0.24511662  1
  Rb  Rb15  1  0.94977894  0.66876709  0.75488338  1
  Rb  Rb16  1  0.55175427  0.31326640  0.41296162  1
  Rb  Rb17  1  0.55175427  0.81326640  0.58703838  1
  Rb  Rb18  1  0.81691313  0.40810609  0.20967503  1
  Rb  Rb19  1  0.81691313  0.90810609  0.79032497  1
  Rb  Rb20  1  0.19264272  0.09766670  0.04209122  1
  Rb  Rb21  1  0.19264272  0.59766670  0.95790878  1
  Rb  Rb22  1  0.84227406  0.90120779  0.45681186  1
  Rb  Rb23  1  0.84227406  0.40120779  0.54318814  1
  Rb  Rb24  1  0.03414481  0.31614795  0.07859465  1
  Rb  Rb25  1  0.03414481  0.81614795  0.92140535  1
  Rb  Rb26  1  0.32840305  0.88986854  0.45787650  1
  Rb  Rb27  1  0.32840305  0.38986854  0.54212350  1
  Rb  Rb28  1  0.52224583  0.81586170  0.25352410  1
  Rb  Rb29  1  0.52224583  0.31586170  0.74647590  1
  Rb  Rb30  1  0.31473133  0.39112979  0.20845824  1
  Rb  Rb31  1  0.31473133  0.89112979  0.79154176  1
  Rb  Rb32  1  0.16651594  0.58317802  0.29037793  1
  Rb  Rb33  1  0.16651594  0.08317802  0.70962207  1
  Rb  Rb34  1  0.04252103  0.31977332  0.41394168  1
  Rb  Rb35  1  0.04252103  0.81977332  0.58605832  1
  Rb  Rb36  1  0.54719261  0.81747527  0.92049335  1
  Rb  Rb37  1  0.54719261  0.31747527  0.07950665  1
  Rb  Rb38  1  0.66928833  0.58248040  0.62693410  1
  Rb  Rb39  1  0.66928833  0.08248040  0.37306590  1
  Rb  Rb40  1  0.66981523  0.08224966  0.04253727  1
  Rb  Rb41  1  0.66981523  0.58224966  0.95746273  1
  Rb  Rb42  1  0.65403174  0.58781697  0.29245275  1
  Rb  Rb43  1  0.65403174  0.08781697  0.70754725  1
  Rb  Rb44  1  0.17046259  0.09794223  0.37477499  1
  Rb  Rb45  1  0.17046259  0.59794223  0.62522501  1
  Rb  Rb46  1  0.82997339  0.89065441  0.12486519  1
  Rb  Rb47  1  0.82997339  0.39065441  0.87513481  1
  Zn  Zn0  1  0.33409131  0.41497705  0.00897174  1
  Zn  Zn1  1  0.33409131  0.91497705  0.99102826  1
  Zn  Zn2  1  0.83963647  0.91097558  0.99300106  1
  Zn  Zn3  1  0.83963647  0.41097558  0.00699894  1
  Zn  Zn4  1  0.66095619  0.57740852  0.15623511  1
  Zn  Zn5  1  0.66095619  0.07740852  0.84376489  1
  Zn  Zn6  1  0.15642838  0.56824516  0.15809007  1
  Zn  Zn7  1  0.15642838  0.06824516  0.84190993  1
  Zn  Zn8  1  0.66750386  0.07099919  0.17538575  1
  Zn  Zn9  1  0.66750386  0.57099919  0.82461425  1
  Zn  Zn10  1  0.16943618  0.07201117  0.17643236  1
  Zn  Zn11  1  0.16943618  0.57201117  0.82356764  1
  Zn  Zn12  1  0.82887906  0.41196538  0.34227918  1
  Zn  Zn13  1  0.82887906  0.91196538  0.65772082  1
  Zn  Zn14  1  0.33549773  0.91042476  0.32416606  1
  Zn  Zn15  1  0.33549773  0.41042476  0.67583394  1
  Zn  Zn16  1  0.84388547  0.91698308  0.32389950  1
  Zn  Zn17  1  0.84388547  0.41698308  0.67610050  1
  Zn  Zn18  1  0.32876588  0.41278523  0.34342486  1
  Zn  Zn19  1  0.32876588  0.91278523  0.65657514  1
  Zn  Zn20  1  0.16574754  0.57411049  0.49151762  1
  Zn  Zn21  1  0.16574754  0.07411049  0.50848238  1
  Zn  Zn22  1  0.66764718  0.56952154  0.49258965  1
  Zn  Zn23  1  0.66764718  0.06952154  0.50741035  1
  Br  Br0  1  0.17360101  0.36080064  0.97498897  1
  Br  Br1  1  0.17360101  0.86080064  0.02501103  1
  Br  Br2  1  0.39460593  0.30648880  0.98633977  1
  Br  Br3  1  0.39460593  0.80648880  0.01366023  1
  Br  Br4  1  0.44040312  0.57625183  0.97519234  1
  Br  Br5  1  0.44040312  0.07625183  0.02480766  1
  Br  Br6  1  0.31945547  0.41570300  0.08972727  1
  Br  Br7  1  0.31945547  0.91570300  0.91027273  1
  Br  Br8  1  0.82986040  0.91088038  0.91176098  1
  Br  Br9  1  0.82986040  0.41088038  0.08823902  1
  Br  Br10  1  0.67838155  0.86240068  0.02531063  1
  Br  Br11  1  0.67838155  0.36240068  0.97468937  1
  Br  Br12  1  0.95468557  0.06916784  0.02633652  1
  Br  Br13  1  0.95468557  0.56916784  0.97366348  1
  Br  Br14  1  0.88429771  0.79039691  0.01613008  1
  Br  Br15  1  0.88429771  0.29039691  0.98386992  1
  Br  Br16  1  0.56515919  0.41654737  0.19174514  1
  Br  Br17  1  0.56515919  0.91654737  0.80825486  1
  Br  Br18  1  0.64110120  0.57108615  0.07562066  1
  Br  Br19  1  0.64110120  0.07108615  0.92437934  1
  Br  Br20  1  0.60556057  0.68524139  0.18690779  1
  Br  Br21  1  0.60556057  0.18524139  0.81309221  1
  Br  Br22  1  0.82940843  0.64076079  0.17991152  1
  Br  Br23  1  0.82940843  0.14076079  0.82008848  1
  Br  Br24  1  0.31978682  0.62247565  0.18769379  1
  Br  Br25  1  0.31978682  0.12247565  0.81230621  1
  Br  Br26  1  0.10112545  0.67623151  0.18858197  1
  Br  Br27  1  0.10112545  0.17623151  0.81141803  1
  Br  Br28  1  0.04869144  0.40543745  0.18923112  1
  Br  Br29  1  0.04869144  0.90543745  0.81076888  1
  Br  Br30  1  0.15168700  0.57412567  0.07700931  1
  Br  Br31  1  0.15168700  0.07412567  0.92299069  1
  Br  Br32  1  0.82271691  0.11773225  0.13729035  1
  Br  Br33  1  0.82271691  0.61773225  0.86270965  1
  Br  Br34  1  0.61495545  0.18836472  0.15832855  1
  Br  Br35  1  0.61495545  0.68836472  0.84167145  1
  Br  Br36  1  0.69035755  0.06526030  0.25575300  1
  Br  Br37  1  0.69035755  0.56526030  0.74424700  1
  Br  Br38  1  0.54872280  0.91333247  0.14199389  1
  Br  Br39  1  0.54872280  0.41333247  0.85800611  1
  Br  Br40  1  0.33279619  0.13766256  0.14206866  1
  Br  Br41  1  0.33279619  0.63766256  0.85793134  1
  Br  Br42  1  0.06938781  0.91158717  0.14175323  1
  Br  Br43  1  0.06938781  0.41158717  0.85824677  1
  Br  Br44  1  0.10401405  0.17641639  0.15535674  1
  Br  Br45  1  0.10401405  0.67641639  0.84464326  1
  Br  Br46  1  0.18909116  0.06791137  0.25692844  1
  Br  Br47  1  0.18909116  0.56791137  0.74307156  1
  Br  Br48  1  0.94051539  0.35967631  0.31489829  1
  Br  Br49  1  0.94051539  0.85967631  0.68510171  1
  Br  Br50  1  0.87840925  0.57131703  0.30795920  1
  Br  Br51  1  0.87840925  0.07131703  0.69204080  1
  Br  Br52  1  0.66585525  0.29676013  0.31317329  1
  Br  Br53  1  0.66585525  0.79676013  0.68682671  1
  Br  Br54  1  0.82088613  0.41401950  0.42330496  1
  Br  Br55  1  0.82088613  0.91401950  0.57669504  1
  Br  Br56  1  0.44036013  0.85579583  0.36075809  1
  Br  Br57  1  0.44036013  0.35579583  0.63924191  1
  Br  Br58  1  0.16587125  0.79439443  0.34170087  1
  Br  Br59  1  0.16587125  0.29439443  0.65829913  1
  Br  Br60  1  0.38145957  0.06822260  0.35846324  1
  Br  Br61  1  0.38145957  0.56822260  0.64153676  1
  Br  Br62  1  0.36420280  0.91787166  0.24386570  1
  Br  Br63  1  0.36420280  0.41787166  0.75613430  1
  Br  Br64  1  0.67346778  0.80981070  0.34410317  1
  Br  Br65  1  0.67346778  0.30981070  0.65589683  1
  Br  Br66  1  0.86802876  0.91969077  0.24344463  1
  Br  Br67  1  0.86802876  0.41969077  0.75655537  1
  Br  Br68  1  0.94654814  0.85987832  0.35969297  1
  Br  Br69  1  0.94654814  0.35987832  0.64030703  1
  Br  Br70  1  0.89684482  0.07715634  0.35829392  1
  Br  Br71  1  0.89684482  0.57715634  0.64170608  1
  Br  Br72  1  0.65441120  0.57033456  0.41149304  1
  Br  Br73  1  0.65441120  0.07033456  0.58850696  1
  Br  Br74  1  0.62365155  0.40952185  0.52454313  1
  Br  Br75  1  0.62365155  0.90952185  0.47545687  1
  Br  Br76  1  0.55544334  0.61551491  0.52743082  1
  Br  Br77  1  0.55544334  0.11551491  0.47256918  1
  Br  Br78  1  0.83442535  0.68853258  0.51395967  1
  Br  Br79  1  0.83442535  0.18853258  0.48604033  1
  Br  Br80  1  0.15527982  0.57430286  0.41053006  1
  Br  Br81  1  0.15527982  0.07430286  0.58946994  1
  Br  Br82  1  0.11007786  0.41374170  0.52560454  1
  Br  Br83  1  0.11007786  0.91374170  0.47439546  1
  Br  Br84  1  0.05963910  0.63178479  0.52283316  1
  Br  Br85  1  0.05963910  0.13178479  0.47716684  1
  Br  Br86  1  0.33322645  0.68311824  0.51627151  1
  Br  Br87  1  0.33322645  0.18311824  0.48372849  1
  Br  Br88  1  0.31315758  0.41234146  0.42419239  1
  Br  Br89  1  0.31315758  0.91234146  0.57580761  1
  Br  Br90  1  0.16555570  0.31057274  0.31142412  1
  Br  Br91  1  0.16555570  0.81057274  0.68857588  1
  Br  Br92  1  0.43138063  0.34798501  0.31717282  1
  Br  Br93  1  0.43138063  0.84798501  0.68282718  1
  Br  Br94  1  0.39832405  0.57667139  0.31087242  1
  Br  Br95  1  0.39832405  0.07667139  0.68912758  1
loop_
_geom_bond_atom_site_label_1
_geom_bond_atom_site_label_2
_geom_bond_distance
_geom_bond_site_symmetry_2
Br0 Zn0 2.451379 1_556
Br0 Rb2 3.578905 1_455
Br0 Rb10 3.628505 1_555
Br0 Rb21 3.639545 1_555
Br0 Rb24 3.639974 1_556
Br1 Zn1 2.451379 1_554
Br1 Rb3 3.578905 1_455
Br1 Rb11 3.628505 1_555
Br1 Rb20 3.639545 1_565
Br1 Rb25 3.639974 1_554
Br2 Zn0 2.438642 1_556
Br2 Rb37 3.614753 1_556
Br2 Rb9 3.639360 1_555
Br2 Rb20 3.645236 1_556
Br2 Rb10 4.083056 1_555
Br3 Zn1 2.438642 1_554
Br3 Rb36 3.614753 1_554
Br3 Rb8 3.639360 1_555
Br3 Rb21 3.645236 1_554
Br3 Rb11 4.083056 1_555
Br4 Zn0 2.458902 1_556
Br4 Rb8 3.600454 1_556
Br4 Rb41 3.616774 1_555
Br4 Rb36 3.687008 1_555
Br4 Rb10 3.899811 1_555
Br5 Zn1 2.458902 1_544
Br5 Rb9 3.600454 1_554
Br5 Rb40 3.616774 1_555
Br5 Rb37 3.687008 1_555
Br5 Rb11 3.899811 1_545
Br6 Zn0 2.407935 1_555
Br6 Rb8 3.534353 1_555
Br6 Rb30 3.541105 1_555
Br6 Rb24 3.976797 1_555
Br7 Zn1 2.407935 1_555
Br7 Rb9 3.534353 1_565
Br7 Rb31 3.541105 1_555
Br7 Rb25 3.976797 1_555
Br8 Zn2 2.415498 1_555
Br8 Rb2 3.502612 1_565
Br8 Rb19 3.608144 1_555
Br8 Rb36 3.949860 1_555
Br9 Zn3 2.415498 1_555
Br9 Rb3 3.502612 1_555
Br9 Rb18 3.608144 1_555
Br9 Rb37 3.949860 1_555
Br10 Zn2 2.458531 1_554
Br10 Rb40 3.582237 1_565
Br10 Rb36 3.605902 1_554
Br10 Rb8 3.660787 1_555
Br10 Rb46 3.686892 1_555
Br11 Zn3 2.458531 1_556
Br11 Rb41 3.582237 1_555
Br11 Rb37 3.605902 1_556
Br11 Rb9 3.660787 1_555
Br11 Rb47 3.686892 1_555
Br12 Zn2 2.448120 1_544
Br12 Rb20 3.586627 1_655
Br12 Rb2 3.593288 1_554
Br12 Rb24 3.785259 1_655
Br12 Rb46 3.851811 1_545
Br13 Zn3 2.448120 1_556
Br13 Rb21 3.586627 1_655
Br13 Rb3 3.593288 1_556
Br13 Rb25 3.785259 1_655
Br13 Rb47 3.851811 1_555
Br14 Zn2 2.438932 1_554
Br14 Rb25 3.564813 1_654
Br14 Rb3 3.627282 1_555
Br14 Rb41 3.767754 1_554
Br14 Rb46 3.875515 1_555
Br15 Zn3 2.438932 1_556
Br15 Rb24 3.564813 1_656
Br15 Rb2 3.627282 1_555
Br15 Rb40 3.767754 1_556
Br15 Rb47 3.875515 1_555
Br16 Zn4 2.453841 1_555
Br16 Rb37 3.630603 1_555
Br16 Rb0 3.743702 1_555
Br16 Rb42 3.799062 1_555
Br16 Rb30 3.804497 1_555
Br16 Rb18 4.080964 1_555
Br17 Zn5 2.453841 1_565
Br17 Rb36 3.630603 1_555
Br17 Rb1 3.743702 1_555
Br17 Rb43 3.799062 1_565
Br17 Rb31 3.804497 1_555
Br17 Rb19 4.080964 1_555
Br18 Zn4 2.408091 1_555
Br18 Rb37 3.513603 1_555
Br18 Rb41 3.528358 1_554
Br18 Rb8 3.788453 1_555
Br19 Zn5 2.408091 1_555
Br19 Rb36 3.513603 1_545
Br19 Rb40 3.528358 1_556
Br19 Rb9 3.788453 1_555
Br20 Zn4 2.448065 1_555
Br20 Rb28 3.552896 1_555
Br20 Rb8 3.588059 1_555
Br20 Rb42 3.734527 1_555
Br20 Rb46 3.872610 1_555
Br21 Zn5 2.448065 1_555
Br21 Rb29 3.552896 1_555
Br21 Rb9 3.588059 1_555
Br21 Rb43 3.734527 1_555
Br21 Rb47 3.872610 1_555
Br22 Zn4 2.432223 1_555
Br22 Rb3 3.540162 1_555
Br22 Rb4 3.668879 1_655
Br22 Rb18 3.691065 1_555
Br23 Zn5 2.432223 1_555
Br23 Rb2 3.540162 1_555
Br23 Rb5 3.668879 1_655
Br23 Rb19 3.691065 1_545
Br24 Zn6 2.440580 1_555
Br24 Rb8 3.631075 1_555
Br24 Rb30 3.670576 1_555
Br24 Rb28 3.690439 1_555
Br24 Rb32 3.745682 1_555
Br25 Zn7 2.440580 1_555
Br25 Rb9 3.631075 1_555
Br25 Rb31 3.670576 1_545
Br25 Rb29 3.690439 1_555
Br25 Rb33 3.745682 1_555
Br26 Zn6 2.447167 1_555
Br26 Rb4 3.564453 1_555
Br26 Rb3 3.593432 1_455
Br26 Rb32 3.724967 1_555
Br26 Rb11 3.938055 1_555
Br27 Zn7 2.447167 1_555
Br27 Rb5 3.564453 1_555
Br27 Rb2 3.593432 1_455
Br27 Rb33 3.724967 1_555
Br27 Rb10 3.938055 1_555
Br28 Zn6 2.448895 1_555
Br28 Rb24 3.535346 1_555
Br28 Rb14 3.653508 1_455
Br28 Rb18 3.733043 1_455
Br28 Rb32 3.891102 1_555
Br29 Zn7 2.448895 1_565
Br29 Rb25 3.535346 1_555
Br29 Rb15 3.653508 1_455
Br29 Rb19 3.733043 1_455
Br29 Rb33 3.891102 1_565
Br30 Zn6 2.410280 1_555
Br30 Rb24 3.537695 1_555
Br30 Rb21 3.578517 1_554
Br30 Rb3 3.710096 1_455
Br31 Zn7 2.410280 1_555
Br31 Rb25 3.537695 1_545
Br31 Rb20 3.578517 1_556
Br31 Rb2 3.710096 1_455
Br32 Zn8 2.454892 1_555
Br32 Rb40 3.563874 1_555
Br32 Rb14 3.646753 1_555
Br32 Rb46 3.667521 1_545
Br32 Rb24 3.682078 1_655
Br33 Zn9 2.454892 1_555
Br33 Rb41 3.563874 1_555
Br33 Rb15 3.646753 1_555
Br33 Rb47 3.667521 1_555
Br33 Rb25 3.682078 1_655
Br34 Zn8 2.434991 1_555
Br34 Rb37 3.601190 1_555
Br34 Rb0 3.602442 1_555
Br34 Rb18 3.673035 1_555
Br35 Zn9 2.434991 1_555
Br35 Rb36 3.601190 1_555
Br35 Rb1 3.602442 1_555
Br35 Rb19 3.673035 1_555
Br36 Zn8 2.420368 1_555
Br36 Rb28 3.483919 1_545
Br36 Rb39 3.520333 1_555
Br36 Rb14 3.587889 1_555
Br37 Zn9 2.420368 1_555
Br37 Rb29 3.483919 1_555
Br37 Rb38 3.520333 1_555
Br37 Rb15 3.587889 1_555
Br38 Zn8 2.457868 1_565
Br38 Rb28 3.585735 1_555
Br38 Rb11 3.587964 1_555
Br38 Rb8 3.729148 1_555
Br38 Rb40 3.793972 1_565
Br39 Zn9 2.457868 1_555
Br39 Rb29 3.585735 1_555
Br39 Rb10 3.587964 1_555
Br39 Rb9 3.729148 1_555
Br39 Rb41 3.793972 1_555
Br40 Zn10 2.470008 1_555
Br40 Rb0 3.542036 1_555
Br40 Rb20 3.564325 1_555
Br40 Rb37 3.657336 1_555
Br40 Rb11 3.670124 1_545
Br41 Zn11 2.470008 1_555
Br41 Rb1 3.542036 1_555
Br41 Rb21 3.564325 1_555
Br41 Rb36 3.657336 1_555
Br41 Rb10 3.670124 1_555
Br42 Zn10 2.445990 1_565
Br42 Rb4 3.579989 1_555
Br42 Rb46 3.663149 1_455
Br42 Rb3 3.791490 1_455
Br42 Rb11 4.035815 1_555
Br43 Zn11 2.445990 1_555
Br43 Rb5 3.579989 1_555
Br43 Rb47 3.663149 1_455
Br43 Rb2 3.791490 1_455
Br43 Rb10 4.035815 1_555
Br44 Zn10 2.427001 1_555
Br44 Rb14 3.571057 1_455
Br44 Rb24 3.704837 1_555
Br44 Rb30 3.713871 1_555
Br45 Zn11 2.427001 1_555
Br45 Rb15 3.571057 1_455
Br45 Rb25 3.704837 1_555
Br45 Rb31 3.713871 1_555
Br46 Zn10 2.413674 1_555
Br46 Rb4 3.510316 1_545
Br46 Rb44 3.560824 1_555
Br46 Rb0 3.632686 1_555
Br47 Zn11 2.413674 1_555
Br47 Rb5 3.510316 1_555
Br47 Rb45 3.560824 1_555
Br47 Rb1 3.632686 1_555
Br48 Zn12 2.431601 1_555
Br48 Rb34 3.556564 1_655
Br48 Rb32 3.626699 1_655
Br48 Rb14 3.723086 1_555
Br48 Rb18 3.955209 1_555
Br49 Zn13 2.431601 1_555
Br49 Rb35 3.556564 1_655
Br49 Rb33 3.626699 1_665
Br49 Rb15 3.723086 1_555
Br49 Rb19 3.955209 1_555
Br50 Zn12 2.454817 1_555
Br50 Rb6 3.622405 1_555
Br50 Rb18 3.688022 1_555
Br50 Rb42 3.711190 1_555
Br50 Rb4 3.727216 1_655
Br51 Zn13 2.454817 1_545
Br51 Rb7 3.622405 1_555
Br51 Rb19 3.688022 1_545
Br51 Rb43 3.711190 1_555
Br51 Rb5 3.727216 1_655
Br52 Zn12 2.451139 1_555
Br52 Rb0 3.536344 1_555
Br52 Rb16 3.543447 1_555
Br52 Rb18 3.745218 1_555
Br52 Rb39 3.850074 1_555
Br53 Zn13 2.451139 1_555
Br53 Rb1 3.536344 1_555
Br53 Rb17 3.543447 1_555
Br53 Rb19 3.745218 1_555
Br53 Rb38 3.850074 1_555
Br54 Zn12 2.408628 1_555
Br54 Rb6 3.507699 1_555
Br54 Rb23 3.588542 1_555
Br54 Rb16 3.733941 1_555
Br55 Zn13 2.408628 1_555
Br55 Rb7 3.507699 1_565
Br55 Rb22 3.588542 1_555
Br55 Rb17 3.733941 1_555
Br56 Zn14 2.469968 1_555
Br56 Rb26 3.560418 1_555
Br56 Rb28 3.607465 1_555
Br56 Rb39 3.619703 1_565
Br56 Rb12 3.685993 1_555
Br57 Zn15 2.469968 1_555
Br57 Rb27 3.560418 1_555
Br57 Rb29 3.607465 1_555
Br57 Rb38 3.619703 1_555
Br57 Rb13 3.685993 1_555
Br58 Zn14 2.429816 1_555
Br58 Rb4 3.549370 1_555
Br58 Rb6 3.609257 1_455
Br58 Rb32 3.674988 1_555
Br59 Zn15 2.429816 1_555
Br59 Rb5 3.549370 1_555
Br59 Rb7 3.609257 1_455
Br59 Rb33 3.674988 1_555
Br60 Zn14 2.444655 1_545
Br60 Rb0 3.602557 1_555
Br60 Rb44 3.624275 1_555
Br60 Rb16 3.800494 1_555
Br60 Rb26 3.872083 1_545
Br61 Zn15 2.444655 1_555
Br61 Rb1 3.602557 1_555
Br61 Rb45 3.624275 1_555
Br61 Rb17 3.800494 1_555
Br61 Rb27 3.872083 1_555
Br62 Zn14 2.417339 1_555
Br62 Rb0 3.525373 1_565
Br62 Rb11 3.547134 1_555
Br62 Rb28 3.597966 1_555
Br63 Zn15 2.417339 1_555
Br63 Rb1 3.525373 1_555
Br63 Rb10 3.547134 1_555
Br63 Rb29 3.597966 1_555
Br64 Zn16 2.433039 1_555
Br64 Rb28 3.629110 1_555
Br64 Rb12 3.693829 1_555
Br64 Rb42 3.699323 1_555
Br65 Zn17 2.433039 1_555
Br65 Rb29 3.629110 1_555
Br65 Rb13 3.693829 1_555
Br65 Rb43 3.699323 1_555
Br66 Zn16 2.414589 1_555
Br66 Rb14 3.477675 1_565
Br66 Rb46 3.560418 1_555
Br66 Rb4 3.611009 1_655
Br67 Zn17 2.414589 1_555
Br67 Rb15 3.477675 1_555
Br67 Rb47 3.560418 1_555
Br67 Rb5 3.611009 1_655
Br68 Zn16 2.457337 1_555
Br68 Rb22 3.538686 1_555
Br68 Rb4 3.569879 1_655
Br68 Rb6 3.634596 1_555
Br68 Rb44 3.684003 1_665
Br69 Zn17 2.457337 1_555
Br69 Rb23 3.538686 1_555
Br69 Rb5 3.569879 1_655
Br69 Rb7 3.634596 1_555
Br69 Rb45 3.684003 1_655
Br70 Zn16 2.456962 1_545
Br70 Rb14 3.586688 1_555
Br70 Rb39 3.664563 1_555
Br70 Rb34 3.729922 1_655
Br70 Rb22 3.824914 1_545
Br71 Zn17 2.456962 1_555
Br71 Rb15 3.586688 1_555
Br71 Rb38 3.664563 1_555
Br71 Rb35 3.729922 1_655
Br71 Rb23 3.824914 1_555
Br72 Zn22 2.416005 1_555
Br72 Rb42 3.543268 1_555
Br72 Rb16 3.544282 1_555
Br72 Rb12 3.967566 1_555
Br73 Zn23 2.416005 1_555
Br73 Rb43 3.543268 1_555
Br73 Rb17 3.544282 1_545
Br73 Rb13 3.967566 1_555
Br74 Zn22 2.454320 1_555
Br74 Rb23 3.565025 1_555
Br74 Rb16 3.583347 1_555
Br74 Rb13 3.699362 1_555
Br74 Rb38 3.906078 1_555
Br75 Zn23 2.454320 1_565
Br75 Rb22 3.565025 1_555
Br75 Rb17 3.583347 1_555
Br75 Rb12 3.699362 1_555
Br75 Rb39 3.906078 1_565
Br76 Zn22 2.455487 1_555
Br76 Rb27 3.604496 1_555
Br76 Rb17 3.617955 1_555
Br76 Rb38 3.628359 1_555
Br76 Rb12 3.674395 1_555
Br77 Zn23 2.455487 1_555
Br77 Rb26 3.604496 1_545
Br77 Rb16 3.617955 1_555
Br77 Rb39 3.628359 1_555
Br77 Rb13 3.674395 1_555
Br78 Zn22 2.435096 1_555
Br78 Rb6 3.583577 1_555
Br78 Rb35 3.587846 1_655
Br78 Rb22 3.712251 1_555
Br78 Rb38 4.059960 1_555
Br79 Zn23 2.435096 1_555
Br79 Rb7 3.583577 1_555
Br79 Rb34 3.587846 1_655
Br79 Rb23 3.712251 1_555
Br79 Rb39 4.059960 1_555
Br80 Zn20 2.408900 1_555
Br80 Rb34 3.494542 1_555
Br80 Rb32 3.568909 1_555
Br80 Rb6 3.981316 1_455
Br81 Zn21 2.408900 1_555
Br81 Rb35 3.494542 1_545
Br81 Rb33 3.568909 1_555
Br81 Rb7 3.981316 1_455
Br82 Zn20 2.448704 1_555
Br82 Rb34 3.569233 1_555
Br82 Rb27 3.685659 1_555
Br82 Rb7 3.738848 1_455
Br82 Rb45 3.918185 1_555
Br83 Zn21 2.448704 1_565
Br83 Rb35 3.569233 1_555
Br83 Rb26 3.685659 1_555
Br83 Rb6 3.738848 1_455
Br83 Rb44 3.918185 1_565
Br84 Zn20 2.456437 1_555
Br84 Rb6 3.585094 1_455
Br84 Rb23 3.596332 1_455
Br84 Rb35 3.637396 1_555
Br84 Rb45 3.676947 1_555
Br85 Zn21 2.456437 1_555
Br85 Rb7 3.585094 1_455
Br85 Rb22 3.596332 1_445
Br85 Rb34 3.637396 1_555
Br85 Rb44 3.676947 1_555
Br86 Zn20 2.439870 1_555
Br86 Rb12 3.587860 1_555
Br86 Rb17 3.669129 1_555
Br86 Rb26 3.734009 1_555
Br86 Rb45 3.926425 1_555
Br87 Zn21 2.439870 1_555
Br87 Rb13 3.587860 1_555
Br87 Rb16 3.669129 1_555
Br87 Rb27 3.734009 1_555
Br87 Rb44 3.926425 1_555
Br88 Zn18 2.408886 1_555
Br88 Rb12 3.534687 1_555
Br88 Rb27 3.537664 1_555
Br88 Rb34 3.776665 1_555
Br89 Zn19 2.408886 1_555
Br89 Rb13 3.534687 1_565
Br89 Rb26 3.537664 1_555
Br89 Rb35 3.776665 1_555
Br90 Zn18 2.448893 1_555
Br90 Rb14 3.588839 1_455
Br90 Rb34 3.651907 1_555
Br90 Rb30 3.675756 1_555
Br90 Rb44 3.886160 1_555
Br91 Zn19 2.448893 1_555
Br91 Rb15 3.588839 1_455
Br91 Rb35 3.651907 1_555
Br91 Rb31 3.675756 1_555
Br91 Rb45 3.886160 1_555
Br92 Zn18 2.438412 1_555
Br92 Rb16 3.611240 1_555
Br92 Rb0 3.622975 1_555
Br92 Rb42 3.735881 1_555
Br92 Rb30 3.940209 1_555
Br93 Zn19 2.438412 1_555
Br93 Rb17 3.611240 1_555
Br93 Rb1 3.622975 1_555
Br93 Rb43 3.735881 1_565
Br93 Rb31 3.940209 1_555
Br94 Zn18 2.451138 1_555
Br94 Rb12 3.556444 1_555
Br94 Rb28 3.691720 1_555
Br94 Rb32 3.764558 1_555
Br94 Rb30 3.963791 1_555
Br94 Rb42 3.992691 1_555
Br95 Zn19 2.451138 1_545
Br95 Rb13 3.556444 1_555
Br95 Rb29 3.691720 1_555
Br95 Rb33 3.764558 1_555
Br95 Rb31 3.963791 1_545
Br95 Rb43 3.992691 1_555
