# generated using pymatgen
data_CaFeAsO5
_symmetry_space_group_name_H-M   'P 1'
_cell_length_a   5.98939900
_cell_length_b   7.70923500
_cell_length_c   9.04394100
_cell_angle_alpha   90.00000000
_cell_angle_beta   90.00000000
_cell_angle_gamma   90.00000000
_symmetry_Int_Tables_number   1
_chemical_formula_structural   CaFeAsO5
_chemical_formula_sum   'Ca4 Fe4 As4 O20'
_cell_volume   417.59207746
_cell_formula_units_Z   4
loop_
 _symmetry_equiv_pos_site_id
 _symmetry_equiv_pos_as_xyz
  1  'x, y, z'
loop_
 _atom_site_type_symbol
 _atom_site_label
 _atom_site_symmetry_multiplicity
 _atom_site_fract_x
 _atom_site_fract_y
 _atom_site_fract_z
 _atom_site_occupancy
  Ca  Ca0  1  0.97503100  0.85255000  0.67034600  1
  Ca  Ca1  1  0.52496900  0.14745000  0.17034600  1
  Ca  Ca2  1  0.02496900  0.35255000  0.82965400  1
  Ca  Ca3  1  0.47503100  0.64745000  0.32965400  1
  Fe  Fe0  1  0.25404500  0.75804600  0.99517500  1
  Fe  Fe1  1  0.24595500  0.24195400  0.49517500  1
  Fe  Fe2  1  0.74595500  0.25804600  0.50482500  1
  Fe  Fe3  1  0.75404500  0.74195400  0.00482500  1
  As  As0  1  0.48121400  0.11121500  0.81467400  1
  As  As1  1  0.01878600  0.88878500  0.31467400  1
  As  As2  1  0.51878600  0.61121500  0.68532600  1
  As  As3  1  0.98121400  0.38878500  0.18532600  1
  O  O0  1  0.50846000  0.92865300  0.93055800  1
  O  O1  1  0.99154000  0.07134700  0.43055800  1
  O  O2  1  0.49154000  0.42865300  0.56944200  1
  O  O3  1  0.00846000  0.57134700  0.06944200  1
  O  O4  1  0.41350400  0.27393000  0.93375600  1
  O  O5  1  0.08649600  0.72607000  0.43375600  1
  O  O6  1  0.58649600  0.77393000  0.56624400  1
  O  O7  1  0.91350400  0.22607000  0.06624400  1
  O  O8  1  0.73152700  0.13775500  0.72163400  1
  O  O9  1  0.76847300  0.86224500  0.22163400  1
  O  O10  1  0.26847300  0.63775500  0.77836600  1
  O  O11  1  0.23152700  0.36224500  0.27836600  1
  O  O12  1  0.25404900  0.09546400  0.69685400  1
  O  O13  1  0.24595100  0.90453600  0.19685400  1
  O  O14  1  0.74595100  0.59546400  0.80314600  1
  O  O15  1  0.75404900  0.40453600  0.30314600  1
  O  O16  1  0.99514700  0.86875200  0.92024200  1
  O  O17  1  0.50485300  0.13124800  0.42024200  1
  O  O18  1  0.00485300  0.36875200  0.57975800  1
  O  O19  1  0.49514700  0.63124800  0.07975800  1
loop_
_geom_bond_atom_site_label_1
_geom_bond_atom_site_label_2
_geom_bond_distance
_geom_bond_site_symmetry_2
Ca0 O16 2.266698 1_555
Ca0 O5 2.444339 1_655
Ca0 O12 2.521339 1_665
Ca0 O6 2.582464 1_555
Ca0 O10 2.604872 1_655
Ca0 O8 2.678907 1_565
Ca0 O14 2.693155 1_555
Ca0 O1 2.749159 1_565
Ca1 O17 2.266698 1_555
Ca1 O4 2.444339 1_554
Ca1 O13 2.521339 1_545
Ca1 O7 2.582464 1_555
Ca1 O11 2.604872 1_555
Ca1 O9 2.678907 1_545
Ca1 O15 2.693155 1_555
Ca1 O0 2.749159 1_544
Ca2 O18 2.266698 1_555
Ca2 O7 2.444339 1_456
Ca2 O14 2.521339 1_455
Ca2 O4 2.582464 1_555
Ca2 O8 2.604872 1_455
Ca2 O10 2.678907 1_555
Ca2 O12 2.693155 1_555
Ca2 O3 2.749159 1_556
Ca3 O19 2.266698 1_555
Ca3 O6 2.444339 1_555
Ca3 O15 2.521339 1_555
Ca3 O5 2.582464 1_555
Ca3 O9 2.604872 1_555
Ca3 O11 2.678907 1_555
Ca3 O13 2.693155 1_555
Ca3 O2 2.749159 1_555
Fe0 O16 1.895297 1_455
Fe0 O19 1.904207 1_556
Fe0 O0 2.096030 1_555
Fe0 O13 2.145834 1_556
Fe0 O3 2.164787 1_556
Fe0 O10 2.170764 1_555
Fe1 O17 1.895297 1_555
Fe1 O18 1.904207 1_555
Fe1 O1 2.096030 1_455
Fe1 O12 2.145834 1_555
Fe1 O2 2.164787 1_555
Fe1 O11 2.170764 1_555
Fe2 O18 1.895297 1_655
Fe2 O17 1.904207 1_555
Fe2 O2 2.096030 1_555
Fe2 O15 2.145834 1_555
Fe2 O1 2.164787 1_555
Fe2 O8 2.170764 1_555
Fe3 O19 1.895297 1_555
Fe3 O16 1.904207 1_554
Fe3 O3 2.096030 1_655
Fe3 O14 2.145834 1_554
Fe3 O0 2.164787 1_554
Fe3 O9 2.170764 1_555
As0 O4 1.702313 1_555
As0 O8 1.731350 1_555
As0 O12 1.732438 1_555
As0 O0 1.762341 1_545
As1 O5 1.702313 1_555
As1 O9 1.731350 1_455
As1 O13 1.732438 1_555
As1 O1 1.762341 1_465
As2 O6 1.702313 1_555
As2 O10 1.731350 1_555
As2 O14 1.732438 1_555
As2 O2 1.762341 1_555
As3 O7 1.702313 1_555
As3 O11 1.731350 1_655
As3 O15 1.732438 1_555
As3 O3 1.762341 1_655
