# generated using pymatgen
data_Co4(MoO4)3
_symmetry_space_group_name_H-M   'P 1'
_cell_length_a   5.16543800
_cell_length_b   10.57219700
_cell_length_c   17.93876200
_cell_angle_alpha   90.00000000
_cell_angle_beta   90.00000000
_cell_angle_gamma   90.00000000
_symmetry_Int_Tables_number   1
_chemical_formula_structural   Co4(MoO4)3
_chemical_formula_sum   'Co16 Mo12 O48'
_cell_volume   979.63629739
_cell_formula_units_Z   4
loop_
 _symmetry_equiv_pos_site_id
 _symmetry_equiv_pos_as_xyz
  1  'x, y, z'
loop_
 _atom_site_type_symbol
 _atom_site_label
 _atom_site_symmetry_multiplicity
 _atom_site_fract_x
 _atom_site_fract_y
 _atom_site_fract_z
 _atom_site_occupancy
  Co  Co0  1  0.10152100  0.25000000  0.24970400  1
  Co  Co1  1  0.89847900  0.75000000  0.75029600  1
  Co  Co2  1  0.39847900  0.75000000  0.74970400  1
  Co  Co3  1  0.60152100  0.25000000  0.25029600  1
  Co  Co4  1  0.24548100  0.25000000  0.69743200  1
  Co  Co5  1  0.75451900  0.75000000  0.30256800  1
  Co  Co6  1  0.25451900  0.75000000  0.19743200  1
  Co  Co7  1  0.74548100  0.25000000  0.80256800  1
  Co  Co8  1  0.25415800  0.07439000  0.52544000  1
  Co  Co9  1  0.74584200  0.92561000  0.47456000  1
  Co  Co10  1  0.24584200  0.92561000  0.02544000  1
  Co  Co11  1  0.74584200  0.57439000  0.47456000  1
  Co  Co12  1  0.75415800  0.07439000  0.97456000  1
  Co  Co13  1  0.25415800  0.42561000  0.52544000  1
  Co  Co14  1  0.75415800  0.42561000  0.97456000  1
  Co  Co15  1  0.24584200  0.57439000  0.02544000  1
  Mo  Mo0  1  0.29495900  0.25000000  0.05783400  1
  Mo  Mo1  1  0.70504100  0.75000000  0.94216600  1
  Mo  Mo2  1  0.20504100  0.75000000  0.55783400  1
  Mo  Mo3  1  0.79495900  0.25000000  0.44216600  1
  Mo  Mo4  1  0.28191900  0.52955500  0.34392600  1
  Mo  Mo5  1  0.71808100  0.47044500  0.65607400  1
  Mo  Mo6  1  0.21808100  0.47044500  0.84392600  1
  Mo  Mo7  1  0.71808100  0.02955500  0.65607400  1
  Mo  Mo8  1  0.78191900  0.52955500  0.15607400  1
  Mo  Mo9  1  0.28191900  0.97044500  0.34392600  1
  Mo  Mo10  1  0.78191900  0.97044500  0.15607400  1
  Mo  Mo11  1  0.21808100  0.02955500  0.84392600  1
  O  O0  1  0.34997300  0.11580800  0.29522300  1
  O  O1  1  0.65002700  0.88419200  0.70477700  1
  O  O2  1  0.15002700  0.88419200  0.79522300  1
  O  O3  1  0.65002700  0.61580800  0.70477700  1
  O  O4  1  0.84997300  0.11580800  0.20477700  1
  O  O5  1  0.34997300  0.38419200  0.29522300  1
  O  O6  1  0.84997300  0.38419200  0.20477700  1
  O  O7  1  0.15002700  0.61580800  0.79522300  1
  O  O8  1  0.08047300  0.10815700  0.03730200  1
  O  O9  1  0.91952700  0.89184300  0.96269800  1
  O  O10  1  0.41952700  0.89184300  0.53730200  1
  O  O11  1  0.91952700  0.60815700  0.96269800  1
  O  O12  1  0.58047300  0.10815700  0.46269800  1
  O  O13  1  0.08047300  0.39184300  0.03730200  1
  O  O14  1  0.58047300  0.39184300  0.46269800  1
  O  O15  1  0.41952700  0.60815700  0.53730200  1
  O  O16  1  0.06554400  0.25000000  0.51319500  1
  O  O17  1  0.93445600  0.75000000  0.48680500  1
  O  O18  1  0.43445600  0.75000000  0.01319500  1
  O  O19  1  0.56554400  0.25000000  0.98680500  1
  O  O20  1  0.07377200  0.62866300  0.28345200  1
  O  O21  1  0.92622800  0.37133700  0.71654800  1
  O  O22  1  0.42622800  0.37133700  0.78345200  1
  O  O23  1  0.92622800  0.12866300  0.71654800  1
  O  O24  1  0.57377200  0.62866300  0.21654800  1
  O  O25  1  0.07377200  0.87133700  0.28345200  1
  O  O26  1  0.57377200  0.87133700  0.21654800  1
  O  O27  1  0.42622800  0.12866300  0.78345200  1
  O  O28  1  0.34912400  0.25000000  0.15881500  1
  O  O29  1  0.65087600  0.75000000  0.84118500  1
  O  O30  1  0.15087600  0.75000000  0.65881500  1
  O  O31  1  0.84912400  0.25000000  0.34118500  1
  O  O32  1  0.07794000  0.00882200  0.42514200  1
  O  O33  1  0.92206000  0.99117800  0.57485800  1
  O  O34  1  0.42206000  0.99117800  0.92514200  1
  O  O35  1  0.92206000  0.50882200  0.57485800  1
  O  O36  1  0.57794000  0.00882200  0.07485800  1
  O  O37  1  0.07794000  0.49117800  0.42514200  1
  O  O38  1  0.57794000  0.49117800  0.07485800  1
  O  O39  1  0.42206000  0.50882200  0.92514200  1
  O  O40  1  0.06750600  0.62183900  0.12723600  1
  O  O41  1  0.93249400  0.37816100  0.87276400  1
  O  O42  1  0.43249400  0.37816100  0.62723600  1
  O  O43  1  0.93249400  0.12183900  0.87276400  1
  O  O44  1  0.56750600  0.62183900  0.37276400  1
  O  O45  1  0.06750600  0.87816100  0.12723600  1
  O  O46  1  0.56750600  0.87816100  0.37276400  1
  O  O47  1  0.43249400  0.12183900  0.62723600  1
loop_
_geom_bond_atom_site_label_1
_geom_bond_atom_site_label_2
_geom_bond_distance
_geom_bond_site_symmetry_2
Co0 O28 2.072223 1_555
Co0 O5 2.080025 1_555
Co0 O0 2.080025 1_555
Co0 O6 2.085804 1_455
Co0 O4 2.085804 1_455
Co0 O31 2.095902 1_455
Co1 O29 2.072223 1_555
Co1 O3 2.080025 1_555
Co1 O1 2.080025 1_555
Co1 O7 2.085804 1_655
Co1 O2 2.085804 1_655
Co1 O30 2.095902 1_655
Co2 O30 2.072223 1_555
Co2 O2 2.080025 1_555
Co2 O7 2.080025 1_555
Co2 O1 2.085804 1_555
Co2 O3 2.085804 1_555
Co2 O29 2.095902 1_555
Co3 O31 2.072223 1_555
Co3 O6 2.080025 1_555
Co3 O4 2.080025 1_555
Co3 O5 2.085804 1_555
Co3 O0 2.085804 1_555
Co3 O28 2.095902 1_555
Co4 O42 2.086790 1_555
Co4 O47 2.086790 1_555
Co4 O21 2.117223 1_455
Co4 O23 2.117223 1_455
Co4 O22 2.213230 1_555
Co4 O27 2.213230 1_555
Co5 O46 2.086790 1_555
Co5 O44 2.086790 1_555
Co5 O25 2.117223 1_655
Co5 O20 2.117223 1_655
Co5 O26 2.213230 1_555
Co5 O24 2.213230 1_555
Co6 O45 2.086790 1_555
Co6 O40 2.086790 1_555
Co6 O26 2.117223 1_555
Co6 O24 2.117223 1_555
Co6 O25 2.213230 1_555
Co6 O20 2.213230 1_555
Co7 O41 2.086790 1_555
Co7 O43 2.086790 1_555
Co7 O22 2.117223 1_555
Co7 O27 2.117223 1_555
Co7 O21 2.213230 1_555
Co7 O23 2.213230 1_555
Co8 O12 2.057993 1_555
Co8 O47 2.105906 1_555
Co8 O16 2.108166 1_555
Co8 O10 2.121213 1_545
Co8 O33 2.121913 1_445
Co8 O32 2.132197 1_555
Co9 O10 2.057993 1_555
Co9 O46 2.105906 1_555
Co9 O17 2.108166 1_555
Co9 O12 2.121213 1_565
Co9 O32 2.121913 1_665
Co9 O33 2.132197 1_555
Co10 O9 2.057993 1_454
Co10 O45 2.105906 1_555
Co10 O18 2.108166 1_555
Co10 O8 2.121213 1_565
Co10 O36 2.121913 1_565
Co10 O34 2.132197 1_554
Co11 O15 2.057993 1_555
Co11 O44 2.105906 1_555
Co11 O17 2.108166 1_555
Co11 O14 2.121213 1_555
Co11 O37 2.121913 1_655
Co11 O35 2.132197 1_555
Co12 O8 2.057993 1_656
Co12 O43 2.105906 1_555
Co12 O19 2.108166 1_555
Co12 O9 2.121213 1_545
Co12 O34 2.121913 1_545
Co12 O36 2.132197 1_556
Co13 O14 2.057993 1_555
Co13 O42 2.105906 1_555
Co13 O16 2.108166 1_555
Co13 O15 2.121213 1_555
Co13 O35 2.121913 1_455
Co13 O37 2.132197 1_555
Co14 O13 2.057993 1_656
Co14 O41 2.105906 1_555
Co14 O19 2.108166 1_555
Co14 O11 2.121213 1_555
Co14 O39 2.121913 1_555
Co14 O38 2.132197 1_556
Co15 O11 2.057993 1_454
Co15 O40 2.105906 1_555
Co15 O18 2.108166 1_555
Co15 O13 2.121213 1_555
Co15 O38 2.121913 1_555
Co15 O39 2.132197 1_554
Mo0 O28 1.832954 1_555
Mo0 O19 1.891310 1_554
Mo0 O13 1.900502 1_555
Mo0 O8 1.900502 1_555
Mo1 O29 1.832954 1_555
Mo1 O18 1.891310 1_556
Mo1 O9 1.900502 1_555
Mo1 O11 1.900502 1_555
Mo2 O30 1.832954 1_555
Mo2 O17 1.891310 1_455
Mo2 O10 1.900502 1_555
Mo2 O15 1.900502 1_555
Mo3 O31 1.832954 1_555
Mo3 O16 1.891310 1_655
Mo3 O14 1.900502 1_555
Mo3 O12 1.900502 1_555
Mo4 O5 1.802401 1_555
Mo4 O44 1.842732 1_555
Mo4 O37 1.843197 1_555
Mo4 O20 1.852217 1_555
Mo5 O3 1.802401 1_555
Mo5 O42 1.842732 1_555
Mo5 O35 1.843197 1_555
Mo5 O21 1.852217 1_555
Mo6 O7 1.802401 1_555
Mo6 O41 1.842732 1_455
Mo6 O39 1.843197 1_555
Mo6 O22 1.852217 1_555
Mo7 O1 1.802401 1_545
Mo7 O47 1.842732 1_555
Mo7 O33 1.843197 1_545
Mo7 O23 1.852217 1_555
Mo8 O6 1.802401 1_555
Mo8 O40 1.842732 1_655
Mo8 O38 1.843197 1_555
Mo8 O24 1.852217 1_555
Mo9 O0 1.802401 1_565
Mo9 O46 1.842732 1_555
Mo9 O32 1.843197 1_565
Mo9 O25 1.852217 1_555
Mo10 O4 1.802401 1_565
Mo10 O45 1.842732 1_655
Mo10 O36 1.843197 1_565
Mo10 O26 1.852217 1_555
Mo11 O2 1.802401 1_545
Mo11 O43 1.842732 1_455
Mo11 O34 1.843197 1_545
Mo11 O27 1.852217 1_555
