# generated using pymatgen
data_Y2BeAlBO7
_symmetry_space_group_name_H-M   'P 1'
_cell_length_a   7.37884700
_cell_length_b   4.75490100
_cell_length_c   7.38607044
_cell_angle_alpha   89.73932363
_cell_angle_beta   90.00000000
_cell_angle_gamma   90.00000000
_symmetry_Int_Tables_number   1
_chemical_formula_structural   Y2BeAlBO7
_chemical_formula_sum   'Y4 Be2 Al2 B2 O14'
_cell_volume   259.14267351
_cell_formula_units_Z   2
loop_
 _symmetry_equiv_pos_site_id
 _symmetry_equiv_pos_as_xyz
  1  'x, y, z'
loop_
 _atom_site_type_symbol
 _atom_site_label
 _atom_site_symmetry_multiplicity
 _atom_site_fract_x
 _atom_site_fract_y
 _atom_site_fract_z
 _atom_site_occupancy
  Y  Y0  1  0.66238500  0.50843200  0.57752700  1
  Y  Y1  1  0.16238500  0.49156800  0.42247300  1
  Y  Y2  1  0.33516500  0.50618800  0.90428600  1
  Y  Y3  1  0.83516500  0.49381200  0.09571400  1
  Be  Be0  1  0.86453800  0.94503000  0.38578400  1
  Be  Be1  1  0.36453800  0.05497000  0.61421600  1
  Al  Al0  1  0.49803600  0.00034800  0.24767100  1
  Al  Al1  1  0.99803600  0.99965200  0.75232900  1
  B  B0  1  0.13618900  0.93565700  0.11378600  1
  B  B1  1  0.63618900  0.06434300  0.88621400  1
  O  O0  1  0.58149800  0.20736600  0.06438100  1
  O  O1  1  0.08149800  0.79263400  0.93561900  1
  O  O2  1  0.42289800  0.21954800  0.42177200  1
  O  O3  1  0.92289800  0.78045200  0.57822800  1
  O  O4  1  0.67292500  0.77825900  0.32084100  1
  O  O5  1  0.17292500  0.22174100  0.67915900  1
  O  O6  1  0.31580800  0.79539100  0.16240700  1
  O  O7  1  0.81580800  0.20460900  0.83759300  1
  O  O8  1  0.86004900  0.27897200  0.38622700  1
  O  O9  1  0.36004900  0.72102800  0.61377300  1
  O  O10  1  0.14152500  0.24148800  0.10478200  1
  O  O11  1  0.64152500  0.75851200  0.89521800  1
  O  O12  1  0.50898400  0.18028600  0.75506900  1
  O  O13  1  0.00898400  0.81971400  0.24493100  1
loop_
_geom_bond_atom_site_label_1
_geom_bond_atom_site_label_2
_geom_bond_distance
_geom_bond_site_symmetry_2
Be0 O8 1.588225 1_565
Be0 O13 1.605942 1_655
Be0 O3 1.675739 1_555
Be0 O4 1.691576 1_555
Be1 O9 1.588225 1_545
Be1 O12 1.605942 1_555
Be1 O2 1.675739 1_555
Be1 O5 1.691576 1_555
Al0 O2 1.749149 1_555
Al0 O4 1.751393 1_545
Al0 O6 1.777632 1_545
Al0 O0 1.780126 1_555
Al1 O3 1.749149 1_555
Al1 O5 1.751393 1_665
Al1 O7 1.777632 1_565
Al1 O1 1.780126 1_655
B0 O13 1.455460 1_555
B0 O10 1.455946 1_565
B0 O6 1.525859 1_555
B0 O1 1.537927 1_554
B1 O12 1.455460 1_555
B1 O11 1.455946 1_545
B1 O7 1.525859 1_555
B1 O0 1.537927 1_556
O0 Y3 2.327027 1_555
O0 Y2 2.589534 1_554
O1 Y2 2.327027 1_555
O1 Y3 2.589534 1_456
O2 Y1 2.316943 1_555
O2 Y0 2.519411 1_555
O3 Y0 2.316943 1_555
O3 Y1 2.519411 1_655
O4 Y0 2.285705 1_555
O4 Y3 2.459235 1_555
O5 Y1 2.285705 1_555
O5 Y2 2.459235 1_555
O6 Y2 2.360082 1_554
O6 Y1 2.651999 1_555
O7 Y3 2.360082 1_556
O7 Y0 2.651999 1_555
O8 Y0 2.308289 1_555
O8 Y3 2.379403 1_555
O8 Y1 2.464320 1_655
O9 Y1 2.308289 1_555
O9 Y2 2.379403 1_555
O9 Y0 2.464320 1_555
O10 Y2 2.408683 1_554
O10 Y3 2.559972 1_455
O10 Y1 2.639898 1_555
O11 Y3 2.408683 1_556
O11 Y2 2.559972 1_555
O11 Y0 2.639898 1_555
O12 Y2 2.297086 1_555
O12 Y0 2.327397 1_555
O13 Y3 2.297086 1_455
O13 Y1 2.327397 1_555
