# generated using pymatgen
data_Tb5(In2Ni)2
_symmetry_space_group_name_H-M   'P 1'
_cell_length_a   7.19454600
_cell_length_b   16.18123000
_cell_length_c   36.20650800
_cell_angle_alpha   90.00000000
_cell_angle_beta   90.00000000
_cell_angle_gamma   90.00000000
_symmetry_Int_Tables_number   1
_chemical_formula_structural   Tb5(In2Ni)2
_chemical_formula_sum   'Tb80 In64 Ni32'
_cell_volume   4215.03868855
_cell_formula_units_Z   16
loop_
 _symmetry_equiv_pos_site_id
 _symmetry_equiv_pos_as_xyz
  1  'x, y, z'
loop_
 _atom_site_type_symbol
 _atom_site_label
 _atom_site_symmetry_multiplicity
 _atom_site_fract_x
 _atom_site_fract_y
 _atom_site_fract_z
 _atom_site_occupancy
  Tb  Tb0_0  1  0.00000000  0.25000000  0.25000000  1
  Tb  Tb0_1  1  0.00000000  0.25000000  0.75000000  1
  Tb  Tb0_2  1  0.00000000  0.75000000  0.25000000  1
  Tb  Tb0_3  1  0.00000000  0.75000000  0.75000000  1
  Tb  Tb0_4  1  0.50000000  0.25000000  0.25000000  1
  Tb  Tb0_5  1  0.50000000  0.25000000  0.75000000  1
  Tb  Tb0_6  1  0.50000000  0.75000000  0.25000000  1
  Tb  Tb0_7  1  0.50000000  0.75000000  0.75000000  1
  Tb  Tb1_0  1  0.00000000  0.00000000  0.00000000  1
  Tb  Tb1_1  1  0.00000000  0.00000000  0.50000000  1
  Tb  Tb1_2  1  0.00000000  0.50000000  0.00000000  1
  Tb  Tb1_3  1  0.00000000  0.50000000  0.50000000  1
  Tb  Tb1_4  1  0.50000000  0.00000000  0.00000000  1
  Tb  Tb1_5  1  0.50000000  0.00000000  0.50000000  1
  Tb  Tb1_6  1  0.50000000  0.50000000  0.00000000  1
  Tb  Tb1_7  1  0.50000000  0.50000000  0.50000000  1
  Tb  Tb2_0  1  0.00000000  0.37309000  0.13903950  1
  Tb  Tb2_1  1  0.00000000  0.37309000  0.63903950  1
  Tb  Tb2_2  1  0.00000000  0.87309000  0.13903950  1
  Tb  Tb2_3  1  0.00000000  0.87309000  0.63903950  1
  Tb  Tb2_4  1  0.50000000  0.37309000  0.13903950  1
  Tb  Tb2_5  1  0.50000000  0.37309000  0.63903950  1
  Tb  Tb2_6  1  0.50000000  0.87309000  0.13903950  1
  Tb  Tb2_7  1  0.50000000  0.87309000  0.63903950  1
  Tb  Tb3_0  1  0.00000000  0.12691000  0.36096050  1
  Tb  Tb3_1  1  0.00000000  0.12691000  0.86096050  1
  Tb  Tb3_2  1  0.00000000  0.62691000  0.36096050  1
  Tb  Tb3_3  1  0.00000000  0.62691000  0.86096050  1
  Tb  Tb3_4  1  0.50000000  0.12691000  0.36096050  1
  Tb  Tb3_5  1  0.50000000  0.12691000  0.86096050  1
  Tb  Tb3_6  1  0.50000000  0.62691000  0.36096050  1
  Tb  Tb3_7  1  0.50000000  0.62691000  0.86096050  1
  Tb  Tb4_0  1  0.00000000  0.37691000  0.38903950  1
  Tb  Tb4_1  1  0.00000000  0.37691000  0.88903950  1
  Tb  Tb4_2  1  0.00000000  0.87691000  0.38903950  1
  Tb  Tb4_3  1  0.00000000  0.87691000  0.88903950  1
  Tb  Tb4_4  1  0.50000000  0.37691000  0.38903950  1
  Tb  Tb4_5  1  0.50000000  0.37691000  0.88903950  1
  Tb  Tb4_6  1  0.50000000  0.87691000  0.38903950  1
  Tb  Tb4_7  1  0.50000000  0.87691000  0.88903950  1
  Tb  Tb5_0  1  0.00000000  0.12309000  0.11096050  1
  Tb  Tb5_1  1  0.00000000  0.12309000  0.61096050  1
  Tb  Tb5_2  1  0.00000000  0.62309000  0.11096050  1
  Tb  Tb5_3  1  0.00000000  0.62309000  0.61096050  1
  Tb  Tb5_4  1  0.50000000  0.12309000  0.11096050  1
  Tb  Tb5_5  1  0.50000000  0.12309000  0.61096050  1
  Tb  Tb5_6  1  0.50000000  0.62309000  0.11096050  1
  Tb  Tb5_7  1  0.50000000  0.62309000  0.61096050  1
  Tb  Tb6_0  1  0.00000000  0.30899800  0.04381000  1
  Tb  Tb6_1  1  0.00000000  0.30899800  0.54381000  1
  Tb  Tb6_2  1  0.00000000  0.80899800  0.04381000  1
  Tb  Tb6_3  1  0.00000000  0.80899800  0.54381000  1
  Tb  Tb6_4  1  0.50000000  0.30899800  0.04381000  1
  Tb  Tb6_5  1  0.50000000  0.30899800  0.54381000  1
  Tb  Tb6_6  1  0.50000000  0.80899800  0.04381000  1
  Tb  Tb6_7  1  0.50000000  0.80899800  0.54381000  1
  Tb  Tb7_0  1  0.00000000  0.19100200  0.45619000  1
  Tb  Tb7_1  1  0.00000000  0.19100200  0.95619000  1
  Tb  Tb7_2  1  0.00000000  0.69100200  0.45619000  1
  Tb  Tb7_3  1  0.00000000  0.69100200  0.95619000  1
  Tb  Tb7_4  1  0.50000000  0.19100200  0.45619000  1
  Tb  Tb7_5  1  0.50000000  0.19100200  0.95619000  1
  Tb  Tb7_6  1  0.50000000  0.69100200  0.45619000  1
  Tb  Tb7_7  1  0.50000000  0.69100200  0.95619000  1
  Tb  Tb8_0  1  0.00000000  0.44100200  0.29381000  1
  Tb  Tb8_1  1  0.00000000  0.44100200  0.79381000  1
  Tb  Tb8_2  1  0.00000000  0.94100200  0.29381000  1
  Tb  Tb8_3  1  0.00000000  0.94100200  0.79381000  1
  Tb  Tb8_4  1  0.50000000  0.44100200  0.29381000  1
  Tb  Tb8_5  1  0.50000000  0.44100200  0.79381000  1
  Tb  Tb8_6  1  0.50000000  0.94100200  0.29381000  1
  Tb  Tb8_7  1  0.50000000  0.94100200  0.79381000  1
  Tb  Tb9_0  1  0.00000000  0.05899800  0.20619000  1
  Tb  Tb9_1  1  0.00000000  0.05899800  0.70619000  1
  Tb  Tb9_2  1  0.00000000  0.55899800  0.20619000  1
  Tb  Tb9_3  1  0.00000000  0.55899800  0.70619000  1
  Tb  Tb9_4  1  0.50000000  0.05899800  0.20619000  1
  Tb  Tb9_5  1  0.50000000  0.05899800  0.70619000  1
  Tb  Tb9_6  1  0.50000000  0.55899800  0.20619000  1
  Tb  Tb9_7  1  0.50000000  0.55899800  0.70619000  1
  In  In0_0  1  0.25000000  0.35284300  0.46500750  1
  In  In0_1  1  0.25000000  0.35284300  0.96500750  1
  In  In0_2  1  0.25000000  0.85284300  0.46500750  1
  In  In0_3  1  0.25000000  0.85284300  0.96500750  1
  In  In0_4  1  0.75000000  0.35284300  0.46500750  1
  In  In0_5  1  0.75000000  0.35284300  0.96500750  1
  In  In0_6  1  0.75000000  0.85284300  0.46500750  1
  In  In0_7  1  0.75000000  0.85284300  0.96500750  1
  In  In1_0  1  0.25000000  0.14715700  0.03499250  1
  In  In1_1  1  0.25000000  0.14715700  0.53499250  1
  In  In1_2  1  0.25000000  0.64715700  0.03499250  1
  In  In1_3  1  0.25000000  0.64715700  0.53499250  1
  In  In1_4  1  0.75000000  0.14715700  0.03499250  1
  In  In1_5  1  0.75000000  0.14715700  0.53499250  1
  In  In1_6  1  0.75000000  0.64715700  0.03499250  1
  In  In1_7  1  0.75000000  0.64715700  0.53499250  1
  In  In2_0  1  0.25000000  0.39715700  0.21500750  1
  In  In2_1  1  0.25000000  0.39715700  0.71500750  1
  In  In2_2  1  0.25000000  0.89715700  0.21500750  1
  In  In2_3  1  0.25000000  0.89715700  0.71500750  1
  In  In2_4  1  0.75000000  0.39715700  0.21500750  1
  In  In2_5  1  0.75000000  0.39715700  0.71500750  1
  In  In2_6  1  0.75000000  0.89715700  0.21500750  1
  In  In2_7  1  0.75000000  0.89715700  0.71500750  1
  In  In3_0  1  0.25000000  0.10284300  0.28499250  1
  In  In3_1  1  0.25000000  0.10284300  0.78499250  1
  In  In3_2  1  0.25000000  0.60284300  0.28499250  1
  In  In3_3  1  0.25000000  0.60284300  0.78499250  1
  In  In3_4  1  0.75000000  0.10284300  0.28499250  1
  In  In3_5  1  0.75000000  0.10284300  0.78499250  1
  In  In3_6  1  0.75000000  0.60284300  0.28499250  1
  In  In3_7  1  0.75000000  0.60284300  0.78499250  1
  In  In4_0  1  0.25000000  0.28544050  0.32607950  1
  In  In4_1  1  0.25000000  0.28544050  0.82607950  1
  In  In4_2  1  0.25000000  0.78544050  0.32607950  1
  In  In4_3  1  0.25000000  0.78544050  0.82607950  1
  In  In4_4  1  0.75000000  0.28544050  0.32607950  1
  In  In4_5  1  0.75000000  0.28544050  0.82607950  1
  In  In4_6  1  0.75000000  0.78544050  0.32607950  1
  In  In4_7  1  0.75000000  0.78544050  0.82607950  1
  In  In5_0  1  0.25000000  0.21455950  0.17392050  1
  In  In5_1  1  0.25000000  0.21455950  0.67392050  1
  In  In5_2  1  0.25000000  0.71455950  0.17392050  1
  In  In5_3  1  0.25000000  0.71455950  0.67392050  1
  In  In5_4  1  0.75000000  0.21455950  0.17392050  1
  In  In5_5  1  0.75000000  0.21455950  0.67392050  1
  In  In5_6  1  0.75000000  0.71455950  0.17392050  1
  In  In5_7  1  0.75000000  0.71455950  0.67392050  1
  In  In6_0  1  0.25000000  0.46455950  0.07607950  1
  In  In6_1  1  0.25000000  0.46455950  0.57607950  1
  In  In6_2  1  0.25000000  0.96455950  0.07607950  1
  In  In6_3  1  0.25000000  0.96455950  0.57607950  1
  In  In6_4  1  0.75000000  0.46455950  0.07607950  1
  In  In6_5  1  0.75000000  0.46455950  0.57607950  1
  In  In6_6  1  0.75000000  0.96455950  0.07607950  1
  In  In6_7  1  0.75000000  0.96455950  0.57607950  1
  In  In7_0  1  0.25000000  0.03544050  0.42392050  1
  In  In7_1  1  0.25000000  0.03544050  0.92392050  1
  In  In7_2  1  0.25000000  0.53544050  0.42392050  1
  In  In7_3  1  0.25000000  0.53544050  0.92392050  1
  In  In7_4  1  0.75000000  0.03544050  0.42392050  1
  In  In7_5  1  0.75000000  0.03544050  0.92392050  1
  In  In7_6  1  0.75000000  0.53544050  0.42392050  1
  In  In7_7  1  0.75000000  0.53544050  0.92392050  1
  Ni  Ni0_0  1  0.25000000  0.26189950  0.09796100  1
  Ni  Ni0_1  1  0.25000000  0.26189950  0.59796100  1
  Ni  Ni0_2  1  0.25000000  0.76189950  0.09796100  1
  Ni  Ni0_3  1  0.25000000  0.76189950  0.59796100  1
  Ni  Ni0_4  1  0.75000000  0.26189950  0.09796100  1
  Ni  Ni0_5  1  0.75000000  0.26189950  0.59796100  1
  Ni  Ni0_6  1  0.75000000  0.76189950  0.09796100  1
  Ni  Ni0_7  1  0.75000000  0.76189950  0.59796100  1
  Ni  Ni1_0  1  0.25000000  0.23810050  0.40203900  1
  Ni  Ni1_1  1  0.25000000  0.23810050  0.90203900  1
  Ni  Ni1_2  1  0.25000000  0.73810050  0.40203900  1
  Ni  Ni1_3  1  0.25000000  0.73810050  0.90203900  1
  Ni  Ni1_4  1  0.75000000  0.23810050  0.40203900  1
  Ni  Ni1_5  1  0.75000000  0.23810050  0.90203900  1
  Ni  Ni1_6  1  0.75000000  0.73810050  0.40203900  1
  Ni  Ni1_7  1  0.75000000  0.73810050  0.90203900  1
  Ni  Ni2_0  1  0.25000000  0.48810050  0.34796100  1
  Ni  Ni2_1  1  0.25000000  0.48810050  0.84796100  1
  Ni  Ni2_2  1  0.25000000  0.98810050  0.34796100  1
  Ni  Ni2_3  1  0.25000000  0.98810050  0.84796100  1
  Ni  Ni2_4  1  0.75000000  0.48810050  0.34796100  1
  Ni  Ni2_5  1  0.75000000  0.48810050  0.84796100  1
  Ni  Ni2_6  1  0.75000000  0.98810050  0.34796100  1
  Ni  Ni2_7  1  0.75000000  0.98810050  0.84796100  1
  Ni  Ni3_0  1  0.25000000  0.01189950  0.15203900  1
  Ni  Ni3_1  1  0.25000000  0.01189950  0.65203900  1
  Ni  Ni3_2  1  0.25000000  0.51189950  0.15203900  1
  Ni  Ni3_3  1  0.25000000  0.51189950  0.65203900  1
  Ni  Ni3_4  1  0.75000000  0.01189950  0.15203900  1
  Ni  Ni3_5  1  0.75000000  0.01189950  0.65203900  1
  Ni  Ni3_6  1  0.75000000  0.51189950  0.15203900  1
  Ni  Ni3_7  1  0.75000000  0.51189950  0.65203900  1
loop_
_geom_bond_atom_site_label_1
_geom_bond_atom_site_label_2
_geom_bond_distance
_geom_bond_site_symmetry_2
Tb0_0 Tb8_0 3.473925 1_555
Tb0_0 Tb9_0 3.473925 1_555
Tb0_0 Tb0_4 3.597273 1_555
Tb0_0 Tb0_4 3.597273 1_455
Tb0_1 Tb8_1 3.473925 1_555
Tb0_1 Tb9_1 3.473925 1_555
Tb0_1 Tb0_5 3.597273 1_555
Tb0_1 Tb0_5 3.597273 1_455
Tb0_2 Tb8_2 3.473925 1_555
Tb0_2 Tb9_2 3.473925 1_555
Tb0_2 Tb0_6 3.597273 1_455
Tb0_2 Tb0_6 3.597273 1_555
Tb0_3 Tb8_3 3.473925 1_555
Tb0_3 Tb9_3 3.473925 1_555
Tb0_3 Tb0_7 3.597273 1_455
Tb0_3 Tb0_7 3.597273 1_555
Tb0_4 Tb8_4 3.473925 1_555
Tb0_4 Tb9_4 3.473925 1_555
Tb0_5 Tb8_5 3.473925 1_555
Tb0_5 Tb9_5 3.473925 1_555
Tb0_6 Tb8_6 3.473925 1_555
Tb0_6 Tb9_6 3.473925 1_555
Tb0_7 Tb8_7 3.473925 1_555
Tb0_7 Tb9_7 3.473925 1_555
Tb1_0 Tb7_1 3.473925 1_554
Tb1_0 Tb6_2 3.473925 1_545
Tb1_0 Tb1_4 3.597273 1_455
Tb1_0 Tb1_4 3.597273 1_555
Tb1_1 Tb7_0 3.473925 1_555
Tb1_1 Tb6_3 3.473925 1_545
Tb1_1 Tb1_5 3.597273 1_455
Tb1_1 Tb1_5 3.597273 1_555
Tb1_2 Tb7_3 3.473925 1_554
Tb1_2 Tb6_0 3.473925 1_555
Tb1_2 Tb1_6 3.597273 1_455
Tb1_2 Tb1_6 3.597273 1_555
Tb1_3 Tb7_2 3.473925 1_555
Tb1_3 Tb6_1 3.473925 1_555
Tb1_3 Tb1_7 3.597273 1_455
Tb1_3 Tb1_7 3.597273 1_555
Tb1_4 Tb7_5 3.473925 1_554
Tb1_4 Tb6_6 3.473925 1_545
Tb1_5 Tb7_4 3.473925 1_555
Tb1_5 Tb6_7 3.473925 1_545
Tb1_6 Tb7_7 3.473925 1_554
Tb1_6 Tb6_4 3.473925 1_555
Tb1_7 Tb7_6 3.473925 1_555
Tb1_7 Tb6_5 3.473925 1_555
In0_0 Ni1_0 2.940246 1_555
In0_0 Tb7_4 3.192970 1_555
In0_0 Tb7_0 3.192970 1_555
In0_0 Tb1_3 3.241959 1_555
In0_0 Tb1_7 3.241959 1_555
In0_0 In7_2 3.308016 1_555
In0_0 Tb4_0 3.309411 1_555
In0_0 Tb4_4 3.309411 1_555
In0_0 Tb6_1 3.446589 1_555
In0_0 Tb6_5 3.446589 1_555
In0_1 Ni1_1 2.940246 1_555
In0_1 Tb7_5 3.192970 1_555
In0_1 Tb7_1 3.192970 1_555
In0_1 Tb1_2 3.241959 1_556
In0_1 Tb1_6 3.241959 1_556
In0_1 In7_3 3.308016 1_555
In0_1 Tb4_1 3.309411 1_555
In0_1 Tb4_5 3.309411 1_555
In0_1 Tb6_0 3.446589 1_556
In0_1 Tb6_4 3.446589 1_556
In0_2 Ni1_2 2.940246 1_555
In0_2 Tb7_6 3.192970 1_555
In0_2 Tb7_2 3.192970 1_555
In0_2 Tb1_5 3.241959 1_565
In0_2 Tb1_1 3.241959 1_565
In0_2 In7_0 3.308016 1_565
In0_2 Tb4_2 3.309411 1_555
In0_2 Tb4_6 3.309411 1_555
In0_2 Tb6_7 3.446589 1_555
In0_2 Tb6_3 3.446589 1_555
In0_3 Ni1_3 2.940246 1_555
In0_3 Tb7_7 3.192970 1_555
In0_3 Tb7_3 3.192970 1_555
In0_3 Tb1_0 3.241959 1_566
In0_3 Tb1_4 3.241959 1_566
In0_3 In7_1 3.308016 1_565
In0_3 Tb4_3 3.309411 1_555
In0_3 Tb4_7 3.309411 1_555
In0_3 Tb6_2 3.446589 1_556
In0_3 Tb6_6 3.446589 1_556
In0_4 Ni1_4 2.940246 1_555
In0_4 Tb7_4 3.192970 1_555
In0_4 Tb7_0 3.192970 1_655
In0_4 Tb1_3 3.241959 1_655
In0_4 Tb1_7 3.241959 1_555
In0_4 In7_6 3.308016 1_555
In0_4 Tb4_0 3.309411 1_655
In0_4 Tb4_4 3.309411 1_555
In0_4 Tb6_1 3.446589 1_655
In0_4 Tb6_5 3.446589 1_555
In0_5 Ni1_5 2.940246 1_555
In0_5 Tb7_5 3.192970 1_555
In0_5 Tb7_1 3.192970 1_655
In0_5 Tb1_2 3.241959 1_656
In0_5 Tb1_6 3.241959 1_556
In0_5 In7_7 3.308016 1_555
In0_5 Tb4_5 3.309411 1_555
In0_5 Tb4_1 3.309411 1_655
In0_5 Tb6_0 3.446589 1_656
In0_5 Tb6_4 3.446589 1_556
In0_6 Ni1_6 2.940246 1_555
In0_6 Tb7_2 3.192970 1_655
In0_6 Tb7_6 3.192970 1_555
In0_6 Tb1_5 3.241959 1_565
In0_6 Tb1_1 3.241959 1_665
In0_6 In7_4 3.308016 1_565
In0_6 Tb4_2 3.309411 1_655
In0_6 Tb4_6 3.309411 1_555
In0_6 Tb6_3 3.446589 1_655
In0_6 Tb6_7 3.446589 1_555
In0_7 Ni1_7 2.940246 1_555
In0_7 Tb7_7 3.192970 1_555
In0_7 Tb7_3 3.192970 1_655
In0_7 Tb1_4 3.241959 1_566
In0_7 Tb1_0 3.241959 1_666
In0_7 In7_5 3.308016 1_565
In0_7 Tb4_3 3.309411 1_655
In0_7 Tb4_7 3.309411 1_555
In0_7 Tb6_2 3.446589 1_656
In0_7 Tb6_6 3.446589 1_556
In1_0 Ni0_0 2.940246 1_555
In1_0 Tb6_4 3.192970 1_555
In1_0 Tb6_0 3.192970 1_555
In1_0 Tb1_0 3.241959 1_555
In1_0 Tb1_4 3.241959 1_555
In1_0 In6_2 3.308016 1_545
In1_0 Tb5_0 3.309411 1_555
In1_0 Tb5_4 3.309411 1_555
In1_0 Tb7_5 3.446589 1_554
In1_0 Tb7_1 3.446589 1_554
In1_1 Ni0_1 2.940246 1_555
In1_1 Tb6_1 3.192970 1_555
In1_1 Tb6_5 3.192970 1_555
In1_1 Tb1_1 3.241959 1_555
In1_1 Tb1_5 3.241959 1_555
In1_1 In6_3 3.308016 1_545
In1_1 Tb5_5 3.309411 1_555
In1_1 Tb5_1 3.309411 1_555
In1_1 Tb7_4 3.446589 1_555
In1_1 Tb7_0 3.446589 1_555
In1_2 Ni0_2 2.940246 1_555
In1_2 Tb6_2 3.192970 1_555
In1_2 Tb6_6 3.192970 1_555
In1_2 Tb1_2 3.241959 1_555
In1_2 Tb1_6 3.241959 1_555
In1_2 In6_0 3.308016 1_555
In1_2 Tb5_2 3.309411 1_555
In1_2 Tb5_6 3.309411 1_555
In1_2 Tb7_3 3.446589 1_554
In1_2 Tb7_7 3.446589 1_554
In1_3 Ni0_3 2.940246 1_555
In1_3 Tb6_7 3.192970 1_555
In1_3 Tb6_3 3.192970 1_555
In1_3 Tb1_3 3.241959 1_555
In1_3 Tb1_7 3.241959 1_555
In1_3 In6_1 3.308016 1_555
In1_3 Tb5_7 3.309411 1_555
In1_3 Tb5_3 3.309411 1_555
In1_3 Tb7_2 3.446589 1_555
In1_3 Tb7_6 3.446589 1_555
In1_4 Ni0_4 2.940246 1_555
In1_4 Tb6_4 3.192970 1_555
In1_4 Tb6_0 3.192970 1_655
In1_4 Tb1_0 3.241959 1_655
In1_4 Tb1_4 3.241959 1_555
In1_4 In6_6 3.308016 1_545
In1_4 Tb5_0 3.309411 1_655
In1_4 Tb5_4 3.309411 1_555
In1_4 Tb7_5 3.446589 1_554
In1_4 Tb7_1 3.446589 1_654
In1_5 Ni0_5 2.940246 1_555
In1_5 Tb6_5 3.192970 1_555
In1_5 Tb6_1 3.192970 1_655
In1_5 Tb1_5 3.241959 1_555
In1_5 Tb1_1 3.241959 1_655
In1_5 In6_7 3.308016 1_545
In1_5 Tb5_5 3.309411 1_555
In1_5 Tb5_1 3.309411 1_655
In1_5 Tb7_0 3.446589 1_655
In1_5 Tb7_4 3.446589 1_555
In1_6 Ni0_6 2.940246 1_555
In1_6 Tb6_2 3.192970 1_655
In1_6 Tb6_6 3.192970 1_555
In1_6 Tb1_2 3.241959 1_655
In1_6 Tb1_6 3.241959 1_555
In1_6 In6_4 3.308016 1_555
In1_6 Tb5_6 3.309411 1_555
In1_6 Tb5_2 3.309411 1_655
In1_6 Tb7_7 3.446589 1_554
In1_6 Tb7_3 3.446589 1_654
In1_7 Ni0_7 2.940246 1_555
In1_7 Tb6_7 3.192970 1_555
In1_7 Tb6_3 3.192970 1_655
In1_7 Tb1_7 3.241959 1_555
In1_7 Tb1_3 3.241959 1_655
In1_7 In6_5 3.308016 1_555
In1_7 Tb5_3 3.309411 1_655
In1_7 Tb5_7 3.309411 1_555
In1_7 Tb7_2 3.446589 1_655
In1_7 Tb7_6 3.446589 1_555
In2_0 Ni3_2 2.940246 1_555
In2_0 Tb9_2 3.192970 1_555
In2_0 Tb9_6 3.192970 1_555
In2_0 Tb0_4 3.241959 1_555
In2_0 Tb0_0 3.241959 1_555
In2_0 In5_0 3.308016 1_555
In2_0 Tb2_0 3.309411 1_555
In2_0 Tb2_4 3.309411 1_555
In2_0 Tb8_4 3.446589 1_555
In2_0 Tb8_0 3.446589 1_555
In2_1 Ni3_3 2.940246 1_555
In2_1 Tb9_3 3.192970 1_555
In2_1 Tb9_7 3.192970 1_555
In2_1 Tb0_1 3.241959 1_555
In2_1 Tb0_5 3.241959 1_555
In2_1 In5_1 3.308016 1_555
In2_1 Tb2_1 3.309411 1_555
In2_1 Tb2_5 3.309411 1_555
In2_1 Tb8_1 3.446589 1_555
In2_1 Tb8_5 3.446589 1_555
In2_2 Ni3_0 2.940246 1_565
In2_2 Tb9_4 3.192970 1_565
In2_2 Tb9_0 3.192970 1_565
In2_2 Tb0_2 3.241959 1_555
In2_2 Tb0_6 3.241959 1_555
In2_2 In5_2 3.308016 1_555
In2_2 Tb2_2 3.309411 1_555
In2_2 Tb2_6 3.309411 1_555
In2_2 Tb8_2 3.446589 1_555
In2_2 Tb8_6 3.446589 1_555
In2_3 Ni3_1 2.940246 1_565
In2_3 Tb9_5 3.192970 1_565
In2_3 Tb9_1 3.192970 1_565
In2_3 Tb0_3 3.241959 1_555
In2_3 Tb0_7 3.241959 1_555
In2_3 In5_3 3.308016 1_555
In2_3 Tb2_7 3.309411 1_555
In2_3 Tb2_3 3.309411 1_555
In2_3 Tb8_3 3.446589 1_555
In2_3 Tb8_7 3.446589 1_555
In2_4 Ni3_6 2.940246 1_555
In2_4 Tb9_6 3.192970 1_555
In2_4 Tb9_2 3.192970 1_655
In2_4 Tb0_4 3.241959 1_555
In2_4 Tb0_0 3.241959 1_655
In2_4 In5_4 3.308016 1_555
In2_4 Tb2_4 3.309411 1_555
In2_4 Tb2_0 3.309411 1_655
In2_4 Tb8_4 3.446589 1_555
In2_4 Tb8_0 3.446589 1_655
In2_5 Ni3_7 2.940246 1_555
In2_5 Tb9_7 3.192970 1_555
In2_5 Tb9_3 3.192970 1_655
In2_5 Tb0_1 3.241959 1_655
In2_5 Tb0_5 3.241959 1_555
In2_5 In5_5 3.308016 1_555
In2_5 Tb2_1 3.309411 1_655
In2_5 Tb2_5 3.309411 1_555
In2_5 Tb8_1 3.446589 1_655
In2_5 Tb8_5 3.446589 1_555
In2_6 Ni3_4 2.940246 1_565
In2_6 Tb9_0 3.192970 1_665
In2_6 Tb9_4 3.192970 1_565
In2_6 Tb0_2 3.241959 1_655
In2_6 Tb0_6 3.241959 1_555
In2_6 In5_6 3.308016 1_555
In2_6 Tb2_2 3.309411 1_655
In2_6 Tb2_6 3.309411 1_555
In2_6 Tb8_6 3.446589 1_555
In2_6 Tb8_2 3.446589 1_655
In2_7 Ni3_5 2.940246 1_565
In2_7 Tb9_5 3.192970 1_565
In2_7 Tb9_1 3.192970 1_665
In2_7 Tb0_3 3.241959 1_655
In2_7 Tb0_7 3.241959 1_555
In2_7 In5_7 3.308016 1_555
In2_7 Tb2_7 3.309411 1_555
In2_7 Tb2_3 3.309411 1_655
In2_7 Tb8_3 3.446589 1_655
In2_7 Tb8_7 3.446589 1_555
In3_0 Ni2_2 2.940246 1_545
In3_0 Tb8_2 3.192970 1_545
In3_0 Tb8_6 3.192970 1_545
In3_0 Tb0_4 3.241959 1_555
In3_0 Tb0_0 3.241959 1_555
In3_0 In4_0 3.308016 1_555
In3_0 Tb3_0 3.309411 1_555
In3_0 Tb3_4 3.309411 1_555
In3_0 Tb9_0 3.446589 1_555
In3_0 Tb9_4 3.446589 1_555
In3_1 Ni2_3 2.940246 1_545
In3_1 Tb8_3 3.192970 1_545
In3_1 Tb8_7 3.192970 1_545
In3_1 Tb0_1 3.241959 1_555
In3_1 Tb0_5 3.241959 1_555
In3_1 In4_1 3.308016 1_555
In3_1 Tb3_1 3.309411 1_555
In3_1 Tb3_5 3.309411 1_555
In3_1 Tb9_1 3.446589 1_555
In3_1 Tb9_5 3.446589 1_555
In3_2 Ni2_0 2.940246 1_555
In3_2 Tb8_0 3.192970 1_555
In3_2 Tb8_4 3.192970 1_555
In3_2 Tb0_2 3.241959 1_555
In3_2 Tb0_6 3.241959 1_555
In3_2 In4_2 3.308016 1_555
In3_2 Tb3_6 3.309411 1_555
In3_2 Tb3_2 3.309411 1_555
In3_2 Tb9_2 3.446589 1_555
In3_2 Tb9_6 3.446589 1_555
In3_3 Ni2_1 2.940246 1_555
In3_3 Tb8_1 3.192970 1_555
In3_3 Tb8_5 3.192970 1_555
In3_3 Tb0_7 3.241959 1_555
In3_3 Tb0_3 3.241959 1_555
In3_3 In4_3 3.308016 1_555
In3_3 Tb3_3 3.309411 1_555
In3_3 Tb3_7 3.309411 1_555
In3_3 Tb9_3 3.446589 1_555
In3_3 Tb9_7 3.446589 1_555
In3_4 Ni2_6 2.940246 1_545
In3_4 Tb8_6 3.192970 1_545
In3_4 Tb8_2 3.192970 1_645
In3_4 Tb0_4 3.241959 1_555
In3_4 Tb0_0 3.241959 1_655
In3_4 In4_4 3.308016 1_555
In3_4 Tb3_0 3.309411 1_655
In3_4 Tb3_4 3.309411 1_555
In3_4 Tb9_4 3.446589 1_555
In3_4 Tb9_0 3.446589 1_655
In3_5 Ni2_7 2.940246 1_545
In3_5 Tb8_3 3.192970 1_645
In3_5 Tb8_7 3.192970 1_545
In3_5 Tb0_1 3.241959 1_655
In3_5 Tb0_5 3.241959 1_555
In3_5 In4_5 3.308016 1_555
In3_5 Tb3_1 3.309411 1_655
In3_5 Tb3_5 3.309411 1_555
In3_5 Tb9_5 3.446589 1_555
In3_5 Tb9_1 3.446589 1_655
In3_6 Ni2_4 2.940246 1_555
In3_6 Tb8_0 3.192970 1_655
In3_6 Tb8_4 3.192970 1_555
In3_6 Tb0_2 3.241959 1_655
In3_6 Tb0_6 3.241959 1_555
In3_6 In4_6 3.308016 1_555
In3_6 Tb3_6 3.309411 1_555
In3_6 Tb3_2 3.309411 1_655
In3_6 Tb9_6 3.446589 1_555
In3_6 Tb9_2 3.446589 1_655
In3_7 Ni2_5 2.940246 1_555
In3_7 Tb8_1 3.192970 1_655
In3_7 Tb8_5 3.192970 1_555
In3_7 Tb0_3 3.241959 1_655
In3_7 Tb0_7 3.241959 1_555
In3_7 In4_7 3.308016 1_555
In3_7 Tb3_7 3.309411 1_555
In3_7 Tb3_3 3.309411 1_655
In3_7 Tb9_3 3.446589 1_655
In3_7 Tb9_7 3.446589 1_555
In4_0 Ni1_0 2.854915 1_555
In4_0 Tb4_0 3.259165 1_555
In4_0 Tb4_4 3.259165 1_555
In4_0 Tb8_0 3.307015 1_555
In4_0 Tb8_4 3.307015 1_555
In4_0 Tb0_0 3.339406 1_555
In4_0 Tb0_4 3.339406 1_555
In4_0 Tb3_0 3.377929 1_555
In4_0 Tb3_4 3.377929 1_555
In4_1 Ni1_1 2.854915 1_555
In4_1 Tb4_1 3.259165 1_555
In4_1 Tb4_5 3.259165 1_555
In4_1 Tb8_1 3.307015 1_555
In4_1 Tb8_5 3.307015 1_555
In4_1 Tb0_5 3.339406 1_555
In4_1 Tb0_1 3.339406 1_555
In4_1 Tb3_5 3.377929 1_555
In4_1 Tb3_1 3.377929 1_555
In4_2 Ni1_2 2.854915 1_555
In4_2 Tb4_2 3.259165 1_555
In4_2 Tb4_6 3.259165 1_555
In4_2 Tb8_6 3.307015 1_555
In4_2 Tb8_2 3.307015 1_555
In4_2 Tb0_2 3.339406 1_555
In4_2 Tb0_6 3.339406 1_555
In4_2 Tb3_2 3.377929 1_555
In4_2 Tb3_6 3.377929 1_555
In4_3 Ni1_3 2.854915 1_555
In4_3 Tb4_7 3.259165 1_555
In4_3 Tb4_3 3.259165 1_555
In4_3 Tb8_3 3.307015 1_555
In4_3 Tb8_7 3.307015 1_555
In4_3 Tb0_3 3.339406 1_555
In4_3 Tb0_7 3.339406 1_555
In4_3 Tb3_7 3.377929 1_555
In4_3 Tb3_3 3.377929 1_555
In4_4 Ni1_4 2.854915 1_555
In4_4 Tb4_0 3.259165 1_655
In4_4 Tb4_4 3.259165 1_555
In4_4 Tb8_4 3.307015 1_555
In4_4 Tb8_0 3.307015 1_655
In4_4 Tb0_0 3.339406 1_655
In4_4 Tb0_4 3.339406 1_555
In4_4 Tb3_4 3.377929 1_555
In4_4 Tb3_0 3.377929 1_655
In4_5 Ni1_5 2.854915 1_555
In4_5 Tb4_5 3.259165 1_555
In4_5 Tb4_1 3.259165 1_655
In4_5 Tb8_1 3.307015 1_655
In4_5 Tb8_5 3.307015 1_555
In4_5 Tb0_1 3.339406 1_655
In4_5 Tb0_5 3.339406 1_555
In4_5 Tb3_1 3.377929 1_655
In4_5 Tb3_5 3.377929 1_555
In4_6 Ni1_6 2.854915 1_555
In4_6 Tb4_2 3.259165 1_655
In4_6 Tb4_6 3.259165 1_555
In4_6 Tb8_6 3.307015 1_555
In4_6 Tb8_2 3.307015 1_655
In4_6 Tb0_2 3.339406 1_655
In4_6 Tb0_6 3.339406 1_555
In4_6 Tb3_6 3.377929 1_555
In4_6 Tb3_2 3.377929 1_655
In4_7 Ni1_7 2.854915 1_555
In4_7 Tb4_7 3.259165 1_555
In4_7 Tb4_3 3.259165 1_655
In4_7 Tb8_3 3.307015 1_655
In4_7 Tb8_7 3.307015 1_555
In4_7 Tb0_3 3.339406 1_655
In4_7 Tb0_7 3.339406 1_555
In4_7 Tb3_7 3.377929 1_555
In4_7 Tb3_3 3.377929 1_655
In5_0 Ni0_0 2.854915 1_555
In5_0 Tb5_0 3.259165 1_555
In5_0 Tb5_4 3.259165 1_555
In5_0 Tb9_0 3.307015 1_555
In5_0 Tb9_4 3.307015 1_555
In5_0 Tb0_4 3.339406 1_555
In5_0 Tb0_0 3.339406 1_555
In5_0 Tb2_0 3.377929 1_555
In5_0 Tb2_4 3.377929 1_555
In5_1 Ni0_1 2.854915 1_555
In5_1 Tb5_5 3.259165 1_555
In5_1 Tb5_1 3.259165 1_555
In5_1 Tb9_5 3.307015 1_555
In5_1 Tb9_1 3.307015 1_555
In5_1 Tb0_1 3.339406 1_555
In5_1 Tb0_5 3.339406 1_555
In5_1 Tb2_1 3.377929 1_555
In5_1 Tb2_5 3.377929 1_555
In5_2 Ni0_2 2.854915 1_555
In5_2 Tb5_2 3.259165 1_555
In5_2 Tb5_6 3.259165 1_555
In5_2 Tb9_2 3.307015 1_555
In5_2 Tb9_6 3.307015 1_555
In5_2 Tb0_2 3.339406 1_555
In5_2 Tb0_6 3.339406 1_555
In5_2 Tb2_2 3.377929 1_555
In5_2 Tb2_6 3.377929 1_555
In5_3 Ni0_3 2.854915 1_555
In5_3 Tb5_7 3.259165 1_555
In5_3 Tb5_3 3.259165 1_555
In5_3 Tb9_3 3.307015 1_555
In5_3 Tb9_7 3.307015 1_555
In5_3 Tb0_3 3.339406 1_555
In5_3 Tb0_7 3.339406 1_555
In5_3 Tb2_3 3.377929 1_555
In5_3 Tb2_7 3.377929 1_555
In5_4 Ni0_4 2.854915 1_555
In5_4 Tb5_4 3.259165 1_555
In5_4 Tb5_0 3.259165 1_655
In5_4 Tb9_4 3.307015 1_555
In5_4 Tb9_0 3.307015 1_655
In5_4 Tb0_4 3.339406 1_555
In5_4 Tb0_0 3.339406 1_655
In5_4 Tb2_4 3.377929 1_555
In5_4 Tb2_0 3.377929 1_655
In5_5 Ni0_5 2.854915 1_555
In5_5 Tb5_5 3.259165 1_555
In5_5 Tb5_1 3.259165 1_655
In5_5 Tb9_1 3.307015 1_655
In5_5 Tb9_5 3.307015 1_555
In5_5 Tb0_1 3.339406 1_655
In5_5 Tb0_5 3.339406 1_555
In5_5 Tb2_1 3.377929 1_655
In5_5 Tb2_5 3.377929 1_555
In5_6 Ni0_6 2.854915 1_555
In5_6 Tb5_6 3.259165 1_555
In5_6 Tb5_2 3.259165 1_655
In5_6 Tb9_2 3.307015 1_655
In5_6 Tb9_6 3.307015 1_555
In5_6 Tb0_2 3.339406 1_655
In5_6 Tb0_6 3.339406 1_555
In5_6 Tb2_6 3.377929 1_555
In5_6 Tb2_2 3.377929 1_655
In5_7 Ni0_7 2.854915 1_555
In5_7 Tb5_3 3.259165 1_655
In5_7 Tb5_7 3.259165 1_555
In5_7 Tb9_3 3.307015 1_655
In5_7 Tb9_7 3.307015 1_555
In5_7 Tb0_3 3.339406 1_655
In5_7 Tb0_7 3.339406 1_555
In5_7 Tb2_7 3.377929 1_555
In5_7 Tb2_3 3.377929 1_655
In6_0 Ni3_2 2.854915 1_555
In6_0 Tb2_0 3.259165 1_555
In6_0 Tb2_4 3.259165 1_555
In6_0 Tb6_0 3.307015 1_555
In6_0 Tb6_4 3.307015 1_555
In6_0 Tb1_6 3.339406 1_555
In6_0 Tb1_2 3.339406 1_555
In6_0 Tb5_2 3.377929 1_555
In6_0 Tb5_6 3.377929 1_555
In6_1 Ni3_3 2.854915 1_555
In6_1 Tb2_5 3.259165 1_555
In6_1 Tb2_1 3.259165 1_555
In6_1 Tb6_1 3.307015 1_555
In6_1 Tb6_5 3.307015 1_555
In6_1 Tb1_3 3.339406 1_555
In6_1 Tb1_7 3.339406 1_555
In6_1 Tb5_7 3.377929 1_555
In6_1 Tb5_3 3.377929 1_555
In6_2 Ni3_0 2.854915 1_565
In6_2 Tb2_2 3.259165 1_555
In6_2 Tb2_6 3.259165 1_555
In6_2 Tb6_2 3.307015 1_555
In6_2 Tb6_6 3.307015 1_555
In6_2 Tb1_0 3.339406 1_565
In6_2 Tb1_4 3.339406 1_565
In6_2 Tb5_0 3.377929 1_565
In6_2 Tb5_4 3.377929 1_565
In6_3 Ni3_1 2.854915 1_565
In6_3 Tb2_7 3.259165 1_555
In6_3 Tb2_3 3.259165 1_555
In6_3 Tb6_7 3.307015 1_555
In6_3 Tb6_3 3.307015 1_555
In6_3 Tb1_5 3.339406 1_565
In6_3 Tb1_1 3.339406 1_565
In6_3 Tb5_1 3.377929 1_565
In6_3 Tb5_5 3.377929 1_565
In6_4 Ni3_6 2.854915 1_555
In6_4 Tb2_0 3.259165 1_655
In6_4 Tb2_4 3.259165 1_555
In6_4 Tb6_0 3.307015 1_655
In6_4 Tb6_4 3.307015 1_555
In6_4 Tb1_6 3.339406 1_555
In6_4 Tb1_2 3.339406 1_655
In6_4 Tb5_6 3.377929 1_555
In6_4 Tb5_2 3.377929 1_655
In6_5 Ni3_7 2.854915 1_555
In6_5 Tb2_1 3.259165 1_655
In6_5 Tb2_5 3.259165 1_555
In6_5 Tb6_1 3.307015 1_655
In6_5 Tb6_5 3.307015 1_555
In6_5 Tb1_7 3.339406 1_555
In6_5 Tb1_3 3.339406 1_655
In6_5 Tb5_7 3.377929 1_555
In6_5 Tb5_3 3.377929 1_655
In6_6 Ni3_4 2.854915 1_565
In6_6 Tb2_6 3.259165 1_555
In6_6 Tb2_2 3.259165 1_655
In6_6 Tb6_2 3.307015 1_655
In6_6 Tb6_6 3.307015 1_555
In6_6 Tb1_4 3.339406 1_565
In6_6 Tb1_0 3.339406 1_665
In6_6 Tb5_4 3.377929 1_565
In6_6 Tb5_0 3.377929 1_665
In6_7 Ni3_5 2.854915 1_565
In6_7 Tb2_7 3.259165 1_555
In6_7 Tb2_3 3.259165 1_655
In6_7 Tb6_3 3.307015 1_655
In6_7 Tb6_7 3.307015 1_555
In6_7 Tb1_1 3.339406 1_665
In6_7 Tb1_5 3.339406 1_565
In6_7 Tb5_1 3.377929 1_665
In6_7 Tb5_5 3.377929 1_565
In7_0 Ni2_2 2.854915 1_545
In7_0 Tb3_0 3.259165 1_555
In7_0 Tb3_4 3.259165 1_555
In7_0 Tb7_4 3.307015 1_555
In7_0 Tb7_0 3.307015 1_555
In7_0 Tb1_1 3.339406 1_555
In7_0 Tb1_5 3.339406 1_555
In7_0 Tb4_2 3.377929 1_545
In7_0 Tb4_6 3.377929 1_545
In7_1 Ni2_3 2.854915 1_545
In7_1 Tb3_1 3.259165 1_555
In7_1 Tb3_5 3.259165 1_555
In7_1 Tb7_1 3.307015 1_555
In7_1 Tb7_5 3.307015 1_555
In7_1 Tb1_4 3.339406 1_556
In7_1 Tb1_0 3.339406 1_556
In7_1 Tb4_3 3.377929 1_545
In7_1 Tb4_7 3.377929 1_545
In7_2 Ni2_0 2.854915 1_555
In7_2 Tb3_2 3.259165 1_555
In7_2 Tb3_6 3.259165 1_555
In7_2 Tb7_2 3.307015 1_555
In7_2 Tb7_6 3.307015 1_555
In7_2 Tb1_3 3.339406 1_555
In7_2 Tb1_7 3.339406 1_555
In7_2 Tb4_4 3.377929 1_555
In7_2 Tb4_0 3.377929 1_555
In7_3 Ni2_1 2.854915 1_555
In7_3 Tb3_3 3.259165 1_555
In7_3 Tb3_7 3.259165 1_555
In7_3 Tb7_3 3.307015 1_555
In7_3 Tb7_7 3.307015 1_555
In7_3 Tb1_2 3.339406 1_556
In7_3 Tb1_6 3.339406 1_556
In7_3 Tb4_1 3.377929 1_555
In7_3 Tb4_5 3.377929 1_555
In7_4 Ni2_6 2.854915 1_545
In7_4 Tb3_4 3.259165 1_555
In7_4 Tb3_0 3.259165 1_655
In7_4 Tb7_4 3.307015 1_555
In7_4 Tb7_0 3.307015 1_655
In7_4 Tb1_5 3.339406 1_555
In7_4 Tb1_1 3.339406 1_655
In7_4 Tb4_2 3.377929 1_645
In7_4 Tb4_6 3.377929 1_545
In7_5 Ni2_7 2.854915 1_545
In7_5 Tb3_1 3.259165 1_655
In7_5 Tb3_5 3.259165 1_555
In7_5 Tb7_5 3.307015 1_555
In7_5 Tb7_1 3.307015 1_655
In7_5 Tb1_0 3.339406 1_656
In7_5 Tb1_4 3.339406 1_556
In7_5 Tb4_7 3.377929 1_545
In7_5 Tb4_3 3.377929 1_645
In7_6 Ni2_4 2.854915 1_555
In7_6 Tb3_6 3.259165 1_555
In7_6 Tb3_2 3.259165 1_655
In7_6 Tb7_2 3.307015 1_655
In7_6 Tb7_6 3.307015 1_555
In7_6 Tb1_3 3.339406 1_655
In7_6 Tb1_7 3.339406 1_555
In7_6 Tb4_0 3.377929 1_655
In7_6 Tb4_4 3.377929 1_555
In7_7 Ni2_5 2.854915 1_555
In7_7 Tb3_3 3.259165 1_655
In7_7 Tb3_7 3.259165 1_555
In7_7 Tb7_3 3.307015 1_655
In7_7 Tb7_7 3.307015 1_555
In7_7 Tb1_6 3.339406 1_556
In7_7 Tb1_2 3.339406 1_656
In7_7 Tb4_5 3.377929 1_555
In7_7 Tb4_1 3.377929 1_655
Ni0_0 Tb6_0 2.767658 1_555
Ni0_0 Tb6_4 2.767658 1_555
Ni0_0 Tb5_4 2.915754 1_555
Ni0_0 Tb5_0 2.915754 1_555
Ni0_0 Tb2_0 2.946913 1_555
Ni0_0 Tb2_4 2.946913 1_555
Ni0_1 Tb6_1 2.767658 1_555
Ni0_1 Tb6_5 2.767658 1_555
Ni0_1 Tb5_1 2.915754 1_555
Ni0_1 Tb5_5 2.915754 1_555
Ni0_1 Tb2_5 2.946913 1_555
Ni0_1 Tb2_1 2.946913 1_555
Ni0_2 Tb6_2 2.767658 1_555
Ni0_2 Tb6_6 2.767658 1_555
Ni0_2 Tb5_6 2.915754 1_555
Ni0_2 Tb5_2 2.915754 1_555
Ni0_2 Tb2_2 2.946913 1_555
Ni0_2 Tb2_6 2.946913 1_555
Ni0_3 Tb6_3 2.767658 1_555
Ni0_3 Tb6_7 2.767658 1_555
Ni0_3 Tb5_7 2.915754 1_555
Ni0_3 Tb5_3 2.915754 1_555
Ni0_3 Tb2_3 2.946913 1_555
Ni0_3 Tb2_7 2.946913 1_555
Ni0_4 Tb6_4 2.767658 1_555
Ni0_4 Tb6_0 2.767658 1_655
Ni0_4 Tb5_4 2.915754 1_555
Ni0_4 Tb5_0 2.915754 1_655
Ni0_4 Tb2_4 2.946913 1_555
Ni0_4 Tb2_0 2.946913 1_655
Ni0_5 Tb6_1 2.767658 1_655
Ni0_5 Tb6_5 2.767658 1_555
Ni0_5 Tb5_1 2.915754 1_655
Ni0_5 Tb5_5 2.915754 1_555
Ni0_5 Tb2_1 2.946913 1_655
Ni0_5 Tb2_5 2.946913 1_555
Ni0_6 Tb6_6 2.767658 1_555
Ni0_6 Tb6_2 2.767658 1_655
Ni0_6 Tb5_6 2.915754 1_555
Ni0_6 Tb5_2 2.915754 1_655
Ni0_6 Tb2_2 2.946913 1_655
Ni0_6 Tb2_6 2.946913 1_555
Ni0_7 Tb6_3 2.767658 1_655
Ni0_7 Tb6_7 2.767658 1_555
Ni0_7 Tb5_3 2.915754 1_655
Ni0_7 Tb5_7 2.915754 1_555
Ni0_7 Tb2_3 2.946913 1_655
Ni0_7 Tb2_7 2.946913 1_555
Ni1_0 Tb7_0 2.767658 1_555
Ni1_0 Tb7_4 2.767658 1_555
Ni1_0 Tb4_0 2.915754 1_555
Ni1_0 Tb4_4 2.915754 1_555
Ni1_0 Tb3_4 2.946913 1_555
Ni1_0 Tb3_0 2.946913 1_555
Ni1_1 Tb7_1 2.767658 1_555
Ni1_1 Tb7_5 2.767658 1_555
Ni1_1 Tb4_1 2.915754 1_555
Ni1_1 Tb4_5 2.915754 1_555
Ni1_1 Tb3_1 2.946913 1_555
Ni1_1 Tb3_5 2.946913 1_555
Ni1_2 Tb7_6 2.767658 1_555
Ni1_2 Tb7_2 2.767658 1_555
Ni1_2 Tb4_2 2.915754 1_555
Ni1_2 Tb4_6 2.915754 1_555
Ni1_2 Tb3_2 2.946913 1_555
Ni1_2 Tb3_6 2.946913 1_555
Ni1_3 Tb7_3 2.767658 1_555
Ni1_3 Tb7_7 2.767658 1_555
Ni1_3 Tb4_3 2.915754 1_555
Ni1_3 Tb4_7 2.915754 1_555
Ni1_3 Tb3_3 2.946913 1_555
Ni1_3 Tb3_7 2.946913 1_555
Ni1_4 Tb7_0 2.767658 1_655
Ni1_4 Tb7_4 2.767658 1_555
Ni1_4 Tb4_0 2.915754 1_655
Ni1_4 Tb4_4 2.915754 1_555
Ni1_4 Tb3_0 2.946913 1_655
Ni1_4 Tb3_4 2.946913 1_555
Ni1_5 Tb7_1 2.767658 1_655
Ni1_5 Tb7_5 2.767658 1_555
Ni1_5 Tb4_1 2.915754 1_655
Ni1_5 Tb4_5 2.915754 1_555
Ni1_5 Tb3_1 2.946913 1_655
Ni1_5 Tb3_5 2.946913 1_555
Ni1_6 Tb7_6 2.767658 1_555
Ni1_6 Tb7_2 2.767658 1_655
Ni1_6 Tb4_2 2.915754 1_655
Ni1_6 Tb4_6 2.915754 1_555
Ni1_6 Tb3_2 2.946913 1_655
Ni1_6 Tb3_6 2.946913 1_555
Ni1_7 Tb7_7 2.767658 1_555
Ni1_7 Tb7_3 2.767658 1_655
Ni1_7 Tb4_7 2.915754 1_555
Ni1_7 Tb4_3 2.915754 1_655
Ni1_7 Tb3_7 2.946913 1_555
Ni1_7 Tb3_3 2.946913 1_655
Ni2_0 Tb8_0 2.767658 1_555
Ni2_0 Tb8_4 2.767658 1_555
Ni2_0 Tb3_2 2.915754 1_555
Ni2_0 Tb3_6 2.915754 1_555
Ni2_0 Tb4_0 2.946913 1_555
Ni2_0 Tb4_4 2.946913 1_555
Ni2_1 Tb8_1 2.767658 1_555
Ni2_1 Tb8_5 2.767658 1_555
Ni2_1 Tb3_3 2.915754 1_555
Ni2_1 Tb3_7 2.915754 1_555
Ni2_1 Tb4_5 2.946913 1_555
Ni2_1 Tb4_1 2.946913 1_555
Ni2_2 Tb8_2 2.767658 1_555
Ni2_2 Tb8_6 2.767658 1_555
Ni2_2 Tb3_0 2.915754 1_565
Ni2_2 Tb3_4 2.915754 1_565
Ni2_2 Tb4_2 2.946913 1_555
Ni2_2 Tb4_6 2.946913 1_555
Ni2_3 Tb8_3 2.767658 1_555
Ni2_3 Tb8_7 2.767658 1_555
Ni2_3 Tb3_1 2.915754 1_565
Ni2_3 Tb3_5 2.915754 1_565
Ni2_3 Tb4_3 2.946913 1_555
Ni2_3 Tb4_7 2.946913 1_555
Ni2_4 Tb8_4 2.767658 1_555
Ni2_4 Tb8_0 2.767658 1_655
Ni2_4 Tb3_2 2.915754 1_655
Ni2_4 Tb3_6 2.915754 1_555
Ni2_4 Tb4_0 2.946913 1_655
Ni2_4 Tb4_4 2.946913 1_555
Ni2_5 Tb8_1 2.767658 1_655
Ni2_5 Tb8_5 2.767658 1_555
Ni2_5 Tb3_7 2.915754 1_555
Ni2_5 Tb3_3 2.915754 1_655
Ni2_5 Tb4_5 2.946913 1_555
Ni2_5 Tb4_1 2.946913 1_655
Ni2_6 Tb8_2 2.767658 1_655
Ni2_6 Tb8_6 2.767658 1_555
Ni2_6 Tb3_0 2.915754 1_665
Ni2_6 Tb3_4 2.915754 1_565
Ni2_6 Tb4_2 2.946913 1_655
Ni2_6 Tb4_6 2.946913 1_555
Ni2_7 Tb8_3 2.767658 1_655
Ni2_7 Tb8_7 2.767658 1_555
Ni2_7 Tb3_1 2.915754 1_665
Ni2_7 Tb3_5 2.915754 1_565
Ni2_7 Tb4_3 2.946913 1_655
Ni2_7 Tb4_7 2.946913 1_555
Ni3_0 Tb9_0 2.767658 1_555
Ni3_0 Tb9_4 2.767658 1_555
Ni3_0 Tb2_2 2.915754 1_545
Ni3_0 Tb2_6 2.915754 1_545
Ni3_0 Tb5_0 2.946913 1_555
Ni3_0 Tb5_4 2.946913 1_555
Ni3_1 Tb9_1 2.767658 1_555
Ni3_1 Tb9_5 2.767658 1_555
Ni3_1 Tb2_3 2.915754 1_545
Ni3_1 Tb2_7 2.915754 1_545
Ni3_1 Tb5_1 2.946913 1_555
Ni3_1 Tb5_5 2.946913 1_555
Ni3_2 Tb9_2 2.767658 1_555
Ni3_2 Tb9_6 2.767658 1_555
Ni3_2 Tb2_4 2.915754 1_555
Ni3_2 Tb2_0 2.915754 1_555
Ni3_2 Tb5_2 2.946913 1_555
Ni3_2 Tb5_6 2.946913 1_555
Ni3_3 Tb9_3 2.767658 1_555
Ni3_3 Tb9_7 2.767658 1_555
Ni3_3 Tb2_5 2.915754 1_555
Ni3_3 Tb2_1 2.915754 1_555
Ni3_3 Tb5_3 2.946913 1_555
Ni3_3 Tb5_7 2.946913 1_555
Ni3_4 Tb9_4 2.767658 1_555
Ni3_4 Tb9_0 2.767658 1_655
Ni3_4 Tb2_2 2.915754 1_645
Ni3_4 Tb2_6 2.915754 1_545
Ni3_4 Tb5_4 2.946913 1_555
Ni3_4 Tb5_0 2.946913 1_655
Ni3_5 Tb9_5 2.767658 1_555
Ni3_5 Tb9_1 2.767658 1_655
Ni3_5 Tb2_7 2.915754 1_545
Ni3_5 Tb2_3 2.915754 1_645
Ni3_5 Tb5_1 2.946913 1_655
Ni3_5 Tb5_5 2.946913 1_555
Ni3_6 Tb9_6 2.767658 1_555
Ni3_6 Tb9_2 2.767658 1_655
Ni3_6 Tb2_4 2.915754 1_555
Ni3_6 Tb2_0 2.915754 1_655
Ni3_6 Tb5_6 2.946913 1_555
Ni3_6 Tb5_2 2.946913 1_655
Ni3_7 Tb9_3 2.767658 1_655
Ni3_7 Tb9_7 2.767658 1_555
Ni3_7 Tb2_1 2.915754 1_655
Ni3_7 Tb2_5 2.915754 1_555
Ni3_7 Tb5_3 2.946913 1_655
Ni3_7 Tb5_7 2.946913 1_555
