# generated using pymatgen
data_SiGeN2O
_symmetry_space_group_name_H-M   'P 1'
_cell_length_a   5.37828227
_cell_length_b   5.37828227
_cell_length_c   5.03395739
_cell_angle_alpha   89.75093044
_cell_angle_beta   89.75093044
_cell_angle_gamma   116.21268660
_symmetry_Int_Tables_number   1
_chemical_formula_structural   SiGeN2O
_chemical_formula_sum   'Si2 Ge2 N4 O2'
_cell_volume   130.63279088
_cell_formula_units_Z   2
loop_
 _symmetry_equiv_pos_site_id
 _symmetry_equiv_pos_as_xyz
  1  'x, y, z'
loop_
 _atom_site_type_symbol
 _atom_site_label
 _atom_site_symmetry_multiplicity
 _atom_site_fract_x
 _atom_site_fract_y
 _atom_site_fract_z
 _atom_site_occupancy
  Si  Si0  1  0.66832800  0.01646700  0.59169700  1
  Si  Si1  1  0.01646700  0.66832800  0.59169700  1
  Ge  Ge0  1  0.96721900  0.32459700  0.08665300  1
  Ge  Ge1  1  0.32459700  0.96721900  0.08665300  1
  N  N0  1  0.06071200  0.65778700  0.25238000  1
  N  N1  1  0.65778700  0.06071200  0.25238000  1
  N  N2  1  0.88264800  0.33715900  0.73233600  1
  N  N3  1  0.33715900  0.88264800  0.73233600  1
  O  O0  1  0.25976300  0.25976300  0.13940900  1
  O  O1  1  0.80602100  0.80602100  0.66646000  1
loop_
_geom_bond_atom_site_label_1
_geom_bond_atom_site_label_2
_geom_bond_distance
_geom_bond_site_symmetry_2
Ge0 O0 1.776274 1_655
Ge0 N1 1.836014 1_555
Ge0 N0 1.838666 1_655
Ge0 N2 1.850916 1_554
Ge1 O0 1.776274 1_565
Ge1 N0 1.836014 1_555
Ge1 N1 1.838666 1_565
Ge1 N3 1.850916 1_554
N0 Si1 1.728206 1_555
N1 Si0 1.728206 1_555
N2 Si1 1.744640 1_655
N2 Si0 1.751035 1_555
N3 Si0 1.744640 1_565
N3 Si1 1.751035 1_555
O1 Si0 1.646298 1_565
O1 Si1 1.646298 1_655
