# generated using pymatgen
data_ZnNi13Ge8
_symmetry_space_group_name_H-M   'P 1'
_cell_length_a   7.87931975
_cell_length_b   7.87931975
_cell_length_c   15.19165900
_cell_angle_alpha   90.00000000
_cell_angle_beta   90.00000000
_cell_angle_gamma   119.99999793
_symmetry_Int_Tables_number   1
_chemical_formula_structural   ZnNi13Ge8
_chemical_formula_sum   'Zn3 Ni39 Ge24'
_cell_volume   816.79542096
_cell_formula_units_Z   3
loop_
 _symmetry_equiv_pos_site_id
 _symmetry_equiv_pos_as_xyz
  1  'x, y, z'
loop_
 _atom_site_type_symbol
 _atom_site_label
 _atom_site_symmetry_multiplicity
 _atom_site_fract_x
 _atom_site_fract_y
 _atom_site_fract_z
 _atom_site_occupancy
  Zn  Zn0  1  0.49672900  0.00000000  0.33333300  1
  Zn  Zn1  1  0.50327100  0.50327100  0.00000000  1
  Zn  Zn2  1  0.00000000  0.49672900  0.66666700  1
  Ni  Ni0  1  0.99912400  0.00000000  0.83333300  1
  Ni  Ni1  1  0.00087600  0.00087600  0.50000000  1
  Ni  Ni2  1  0.00000000  0.99912400  0.16666700  1
  Ni  Ni3  1  0.50128800  0.00000000  0.83333300  1
  Ni  Ni4  1  0.49871200  0.49871200  0.50000000  1
  Ni  Ni5  1  0.00000000  0.50128800  0.16666700  1
  Ni  Ni6  1  0.99934500  0.00000000  0.33333300  1
  Ni  Ni7  1  0.00065500  0.00065500  0.00000000  1
  Ni  Ni8  1  0.00000000  0.99934500  0.66666700  1
  Ni  Ni9  1  0.50532800  0.00293400  0.16745100  1
  Ni  Ni10  1  0.49760600  0.49467200  0.83411800  1
  Ni  Ni11  1  0.99706600  0.50239400  0.50078400  1
  Ni  Ni12  1  0.49467200  0.49760600  0.16588200  1
  Ni  Ni13  1  0.00293400  0.50532800  0.83254900  1
  Ni  Ni14  1  0.50239400  0.99706600  0.49921600  1
  Ni  Ni15  1  0.50074000  0.00040300  0.00058000  1
  Ni  Ni16  1  0.49966200  0.49926000  0.66724700  1
  Ni  Ni17  1  0.99959700  0.50033800  0.33391400  1
  Ni  Ni18  1  0.49926000  0.49966200  0.33275300  1
  Ni  Ni19  1  0.00040300  0.50074000  0.99942000  1
  Ni  Ni20  1  0.50033800  0.99959700  0.66608600  1
  Ni  Ni21  1  0.34114700  0.66313100  0.91959900  1
  Ni  Ni22  1  0.32198400  0.65885300  0.58626500  1
  Ni  Ni23  1  0.33686900  0.67801600  0.25293200  1
  Ni  Ni24  1  0.65885300  0.32198400  0.41373500  1
  Ni  Ni25  1  0.66313100  0.34114700  0.08040100  1
  Ni  Ni26  1  0.67801600  0.33686900  0.74706800  1
  Ni  Ni27  1  0.16195900  0.82373500  0.74305400  1
  Ni  Ni28  1  0.66177500  0.83804100  0.40972100  1
  Ni  Ni29  1  0.17626500  0.33822500  0.07638700  1
  Ni  Ni30  1  0.83804100  0.66177500  0.59027900  1
  Ni  Ni31  1  0.82373500  0.16195900  0.25694600  1
  Ni  Ni32  1  0.33822500  0.17626500  0.92361300  1
  Ni  Ni33  1  0.17598100  0.83996400  0.41523800  1
  Ni  Ni34  1  0.66398300  0.82401900  0.08190400  1
  Ni  Ni35  1  0.16003600  0.33601700  0.74857100  1
  Ni  Ni36  1  0.82401900  0.66398300  0.91809600  1
  Ni  Ni37  1  0.83996400  0.17598100  0.58476200  1
  Ni  Ni38  1  0.33601700  0.16003600  0.25142900  1
  Ge  Ge0  1  0.11966300  0.81015900  0.24818100  1
  Ge  Ge1  1  0.69049600  0.88033700  0.91484800  1
  Ge  Ge2  1  0.18984100  0.30950400  0.58151500  1
  Ge  Ge3  1  0.88033700  0.69049600  0.08515200  1
  Ge  Ge4  1  0.81015900  0.11966300  0.75181900  1
  Ge  Ge5  1  0.30950400  0.18984100  0.41848500  1
  Ge  Ge6  1  0.31371600  0.68985700  0.08838000  1
  Ge  Ge7  1  0.37614100  0.68628400  0.75504700  1
  Ge  Ge8  1  0.31014300  0.62385900  0.42171400  1
  Ge  Ge9  1  0.68628400  0.37614100  0.24495300  1
  Ge  Ge10  1  0.68985700  0.31371600  0.91162000  1
  Ge  Ge11  1  0.62385900  0.31014300  0.57828600  1
  Ge  Ge12  1  0.16754300  0.83309800  0.91602200  1
  Ge  Ge13  1  0.66555500  0.83245700  0.58268800  1
  Ge  Ge14  1  0.16690200  0.33444500  0.24935500  1
  Ge  Ge15  1  0.83245700  0.66555500  0.41731200  1
  Ge  Ge16  1  0.83309800  0.16754300  0.08397800  1
  Ge  Ge17  1  0.33444500  0.16690200  0.75064500  1
  Ge  Ge18  1  0.18936000  0.87521800  0.57807100  1
  Ge  Ge19  1  0.68585700  0.81064000  0.24473800  1
  Ge  Ge20  1  0.12478200  0.31414300  0.91140500  1
  Ge  Ge21  1  0.81064000  0.68585700  0.75526200  1
  Ge  Ge22  1  0.87521800  0.18936000  0.42192900  1
  Ge  Ge23  1  0.31414300  0.12478200  0.08859500  1
loop_
_geom_bond_atom_site_label_1
_geom_bond_atom_site_label_2
_geom_bond_distance
_geom_bond_site_symmetry_2
Ni0 Ni8 2.531955 1_645
Ni0 Ni7 2.531970 1_656
Ni0 Ni35 2.630307 1_655
Ni0 Ni36 2.630315 1_545
Ni0 Ni27 2.690348 1_645
Ni0 Ni32 2.690362 1_655
Ni1 Ni8 2.531970 1_545
Ni1 Ni6 2.531970 1_455
Ni1 Ni33 2.630307 1_545
Ni1 Ni37 2.630307 1_455
Ni1 Ni30 2.690354 1_445
Ni1 Ni28 2.690354 1_445
Ni2 Ni6 2.531955 1_465
Ni2 Ni7 2.531970 1_565
Ni2 Ni38 2.630307 1_565
Ni2 Ni34 2.630315 1_455
Ni2 Ni31 2.690348 1_465
Ni2 Ni29 2.690362 1_565
Ni3 Ni32 2.691677 1_555
Ni9 Zn0 2.520729 1_555
Ni10 Zn1 2.520729 1_556
Ni10 Ni16 2.535241 1_555
Ni10 Ni32 2.563031 1_555
Ni10 Ni36 2.567283 1_555
Ni10 Ni21 2.569884 1_555
Ni10 Ni35 2.646001 1_555
Ni10 Ni26 2.661388 1_555
Ni11 Zn2 2.520744 1_655
Ni11 Ni17 2.535226 1_555
Ni11 Ni30 2.563025 1_555
Ni11 Ni37 2.567283 1_555
Ni11 Ni22 2.569884 1_655
Ni11 Ni33 2.645994 1_655
Ni11 Ni24 2.661381 1_555
Ni12 Zn1 2.520729 1_555
Ni12 Ni18 2.535241 1_555
Ni12 Ni29 2.563031 1_555
Ni12 Ni34 2.567283 1_555
Ni12 Ni25 2.569884 1_555
Ni12 Ni38 2.646001 1_555
Ni12 Ni23 2.661388 1_555
Ni13 Zn2 2.520729 1_555
Ni13 Ni19 2.535241 1_555
Ni13 Ni27 2.563031 1_555
Ni13 Ni35 2.567283 1_555
Ni13 Ni26 2.569884 1_455
Ni13 Ni36 2.646001 1_455
Ni13 Ni21 2.661388 1_555
Ni14 Zn0 2.520744 1_565
Ni14 Ni20 2.535226 1_555
Ni14 Ni28 2.563025 1_555
Ni14 Ni33 2.567283 1_555
Ni14 Ni24 2.569884 1_565
Ni14 Ni37 2.645994 1_565
Ni14 Ni22 2.661381 1_555
Ni15 Ni9 2.535241 1_555
Ni15 Ni3 2.540768 1_554
Ni15 Ni32 2.588690 1_554
Ni15 Ni21 2.610591 1_544
Ni15 Ni25 2.623094 1_555
Ni15 Ni34 2.626758 1_545
Ni16 Ni4 2.540768 1_555
Ni16 Ni30 2.588709 1_555
Ni16 Ni22 2.610592 1_555
Ni16 Ni26 2.623100 1_555
Ni16 Ni35 2.626752 1_555
Ni17 Ni5 2.540768 1_655
Ni17 Ni31 2.588709 1_555
Ni17 Ni23 2.610597 1_655
Ni17 Ni24 2.623095 1_555
Ni17 Ni33 2.626752 1_655
Ni18 Ni4 2.540768 1_555
Ni18 Ni28 2.588709 1_555
Ni18 Ni24 2.610592 1_555
Ni18 Ni23 2.623100 1_555
Ni18 Ni38 2.626752 1_555
Ni19 Ni5 2.540768 1_556
Ni19 Ni29 2.588690 1_556
Ni19 Ni25 2.610591 1_456
Ni19 Ni21 2.623094 1_555
Ni19 Ni36 2.626758 1_455
Ni20 Ni3 2.540768 1_565
Ni20 Ni27 2.588709 1_555
Ni20 Ni26 2.610597 1_565
Ni20 Ni22 2.623095 1_555
Ni20 Ni37 2.626752 1_565
Ni21 Zn1 2.513820 1_556
Ni21 Ni3 2.646832 1_565
Ni22 Zn2 2.513827 1_555
Ni22 Ni4 2.646824 1_555
Ni23 Zn0 2.513820 1_565
Ni23 Ni9 2.569884 1_565
Ni23 Ni5 2.646824 1_555
Ni24 Zn0 2.513827 1_555
Ni24 Ni4 2.646824 1_555
Ni25 Zn1 2.513820 1_555
Ni25 Ni5 2.646832 1_655
Ni25 Ni9 2.661388 1_555
Ni26 Zn2 2.513820 1_655
Ni26 Ni3 2.646824 1_555
Ni27 Zn2 2.515129 1_555
Ni27 Ni8 2.579822 1_555
Ni27 Ni3 2.691675 1_565
Ni28 Zn0 2.515130 1_565
Ni28 Ni6 2.579835 1_565
Ni28 Ni4 2.691675 1_555
Ni29 Zn1 2.515129 1_555
Ni29 Ni7 2.579828 1_555
Ni29 Ni5 2.691677 1_555
Ni30 Zn2 2.515130 1_655
Ni30 Ni8 2.579835 1_655
Ni30 Ni4 2.691675 1_555
Ni31 Zn0 2.515129 1_555
Ni31 Ni9 2.563031 1_555
Ni31 Ni6 2.579822 1_555
Ni31 Ni5 2.691675 1_655
Ni32 Zn1 2.515129 1_556
Ni32 Ni7 2.579828 1_556
Ni33 Zn0 2.517651 1_565
Ni33 Ni6 2.613482 1_465
Ni34 Zn1 2.517643 1_555
Ni34 Ni7 2.613475 1_665
Ni34 Ni9 2.646001 1_565
Ni35 Zn2 2.517643 1_555
Ni35 Ni8 2.613475 1_545
Ni36 Zn1 2.517643 1_556
Ni36 Ni7 2.613475 1_666
Ni37 Zn2 2.517651 1_655
Ni37 Ni8 2.613482 1_645
Ni38 Zn0 2.517643 1_555
Ni38 Ni9 2.567283 1_555
Ni38 Ni6 2.613475 1_455
Ge0 Ni23 2.408372 1_555
Ge0 Ni38 2.410156 1_565
Ge0 Ni2 2.458286 1_555
Ge0 Ni5 2.459814 1_555
Ge0 Ni6 2.495535 1_465
Ge0 Ni17 2.498241 1_455
Ge0 Ni33 2.566837 1_555
Ge0 Ni9 2.903402 1_565
Ge1 Ni21 2.408372 1_555
Ge1 Ni36 2.410156 1_555
Ge1 Ni0 2.458294 1_565
Ge1 Ni3 2.459821 1_565
Ge1 Ni7 2.495535 1_666
Ge1 Ni15 2.498239 1_566
Ge1 Ni34 2.566822 1_556
Ge1 Ni10 2.903402 1_555
Ge2 Ni22 2.408371 1_555
Ge2 Ni37 2.410156 1_455
Ge2 Ni1 2.458294 1_555
Ge2 Ni4 2.459821 1_555
Ge2 Ni8 2.495535 1_545
Ge2 Ni16 2.498234 1_555
Ge2 Ni35 2.566822 1_555
Ge2 Ni11 2.903408 1_455
Ge3 Ni25 2.408372 1_555
Ge3 Ni34 2.410156 1_555
Ge3 Ni2 2.458294 1_655
Ge3 Ni5 2.459821 1_655
Ge3 Ni7 2.495535 1_665
Ge3 Ni19 2.498239 1_654
Ge3 Ni36 2.566822 1_554
Ge3 Ni12 2.903402 1_555
Ge4 Ni26 2.408372 1_555
Ge4 Ni35 2.410156 1_655
Ge4 Ni0 2.458286 1_555
Ge4 Ni3 2.459814 1_555
Ge4 Ni8 2.495535 1_645
Ge4 Ni20 2.498241 1_545
Ge4 Ni37 2.566837 1_555
Ge4 Ni13 2.903402 1_655
Ge5 Ni24 2.408371 1_555
Ge5 Ni33 2.410156 1_545
Ge5 Ni1 2.458294 1_555
Ge5 Ni4 2.459821 1_555
Ge5 Ni6 2.495535 1_455
Ge5 Ni18 2.498234 1_555
Ge5 Ni38 2.566822 1_555
Ge5 Ni14 2.903408 1_545
Ge6 Ni34 2.413823 1_555
Ge6 Ni29 2.425248 1_555
Ge6 Ni5 2.461603 1_555
Ge6 Ni9 2.466425 1_565
Ge6 Ni23 2.511592 1_555
Ge6 Ni15 2.516375 1_565
Ge6 Ni19 2.542178 1_554
Ge6 Ni21 2.590559 1_554
Ge6 Ni12 2.806000 1_555
Ge6 Zn1 2.896655 1_555
Ge7 Ni35 2.413823 1_555
Ge7 Ni27 2.425255 1_555
Ge7 Ni3 2.461596 1_565
Ge7 Ni10 2.466425 1_555
Ge7 Ni21 2.511592 1_555
Ge7 Ni16 2.516369 1_555
Ge7 Ni20 2.542185 1_555
Ge7 Ni22 2.590574 1_555
Ge7 Ni13 2.806000 1_555
Ge7 Zn2 2.896655 1_555
Ge8 Ni33 2.413823 1_555
Ge8 Ni28 2.425249 1_555
Ge8 Ni4 2.461595 1_555
Ge8 Ni11 2.466418 1_455
Ge8 Ni22 2.511577 1_555
Ge8 Ni17 2.516376 1_455
Ge8 Ni18 2.542191 1_555
Ge8 Ni23 2.590574 1_555
Ge8 Ni14 2.806000 1_555
Ge8 Zn0 2.896662 1_565
Ge9 Ni38 2.413823 1_555
Ge9 Ni31 2.425255 1_555
Ge9 Ni5 2.461596 1_655
Ge9 Ni12 2.466425 1_555
Ge9 Ni25 2.511592 1_555
Ge9 Ni18 2.516369 1_555
Ge9 Ni17 2.542185 1_555
Ge9 Ni24 2.590574 1_555
Ge9 Ni9 2.806000 1_555
Ge9 Zn0 2.896655 1_555
Ge10 Ni36 2.413823 1_555
Ge10 Ni32 2.425248 1_555
Ge10 Ni3 2.461603 1_555
Ge10 Ni13 2.466425 1_655
Ge10 Ni26 2.511592 1_555
Ge10 Ni19 2.516375 1_655
Ge10 Ni15 2.542178 1_556
Ge10 Ni25 2.590559 1_556
Ge10 Ni10 2.806000 1_555
Ge10 Zn1 2.896655 1_556
Ge11 Ni37 2.413823 1_555
Ge11 Ni30 2.425249 1_555
Ge11 Ni4 2.461595 1_555
Ge11 Ni14 2.466418 1_545
Ge11 Ni24 2.511577 1_555
Ge11 Ni20 2.516376 1_545
Ge11 Ni16 2.542191 1_555
Ge11 Ni26 2.590574 1_555
Ge11 Ni11 2.806000 1_555
Ge11 Zn2 2.896662 1_655
Ge12 Ni36 2.344406 1_455
Ge12 Ni32 2.344514 1_565
Ge12 Ni21 2.345096 1_555
Ge12 Ni13 2.571085 1_555
Ge12 Ni19 2.597814 1_555
Ge12 Ni3 2.600850 1_565
Ge12 Ni0 2.610279 1_465
Ge12 Ni15 2.611432 1_566
Ge12 Ni7 2.614534 1_566
Ge12 Ni27 2.628457 1_555
Ge13 Ni37 2.344406 1_565
Ge13 Ni30 2.344521 1_555
Ge13 Ni22 2.345096 1_555
Ge13 Ni14 2.571078 1_555
Ge13 Ni20 2.597808 1_555
Ge13 Ni4 2.600843 1_555
Ge13 Ni1 2.610272 1_665
Ge13 Ni16 2.611439 1_555
Ge13 Ni8 2.614542 1_655
Ge13 Ni28 2.628442 1_555
Ge14 Ni38 2.344406 1_555
Ge14 Ni31 2.344514 1_455
Ge14 Ni23 2.345096 1_555
Ge14 Ni12 2.571085 1_555
Ge14 Ni18 2.597814 1_555
Ge14 Ni5 2.600843 1_555
Ge14 Ni2 2.610272 1_545
Ge14 Ni17 2.611445 1_455
Ge14 Ni6 2.614534 1_455
Ge14 Ni29 2.628457 1_555
Ge15 Ni33 2.344406 1_655
Ge15 Ni28 2.344521 1_555
Ge15 Ni24 2.345096 1_555
Ge15 Ni11 2.571078 1_555
Ge15 Ni17 2.597808 1_555
Ge15 Ni4 2.600843 1_555
Ge15 Ni1 2.610272 1_665
Ge15 Ni18 2.611439 1_555
Ge15 Ni6 2.614542 1_565
Ge15 Ni30 2.628442 1_555
Ge16 Ni34 2.344406 1_545
Ge16 Ni29 2.344514 1_655
Ge16 Ni25 2.345096 1_555
Ge16 Ni9 2.571085 1_555
Ge16 Ni15 2.597814 1_555
Ge16 Ni5 2.600850 1_655
Ge16 Ni2 2.610279 1_645
Ge16 Ni19 2.611432 1_654
Ge16 Ni7 2.614534 1_655
Ge16 Ni31 2.628457 1_555
Ge17 Ni35 2.344406 1_555
Ge17 Ni27 2.344514 1_545
Ge17 Ni26 2.345096 1_555
Ge17 Ni10 2.571085 1_555
Ge17 Ni16 2.597814 1_555
Ge17 Ni3 2.600843 1_555
Ge17 Ni0 2.610272 1_455
Ge17 Ni20 2.611445 1_545
Ge17 Ni8 2.614534 1_545
Ge17 Ni32 2.628457 1_555
Ge18 Ni22 2.407357 1_555
Ge18 Ni30 2.422816 1_455
Ge18 Ni1 2.462312 1_565
Ge18 Ni14 2.464219 1_555
Ge18 Ni33 2.485598 1_555
Ge18 Ni20 2.520093 1_555
Ge18 Ni27 2.530900 1_555
Ge18 Ni8 2.540366 1_555
Ge18 Ni11 2.802288 1_455
Ge18 Zn2 2.912353 1_555
Ge19 Ni23 2.407350 1_555
Ge19 Ni31 2.422814 1_565
Ge19 Ni2 2.462318 1_655
Ge19 Ni12 2.464226 1_555
Ge19 Ni34 2.485613 1_555
Ge19 Ni18 2.520091 1_555
Ge19 Ni28 2.530900 1_555
Ge19 Ni6 2.540364 1_565
Ge19 Ni9 2.802282 1_565
Ge19 Zn0 2.912340 1_565
Ge20 Ni21 2.407351 1_555
Ge20 Ni32 2.422828 1_555
Ge20 Ni0 2.462326 1_455
Ge20 Ni13 2.464220 1_555
Ge20 Ni35 2.485613 1_555
Ge20 Ni19 2.520080 1_555
Ge20 Ni29 2.530885 1_556
Ge20 Ni7 2.540365 1_556
Ge20 Ni10 2.802288 1_555
Ge20 Zn1 2.912346 1_556
Ge21 Ni26 2.407350 1_555
Ge21 Ni27 2.422814 1_655
Ge21 Ni0 2.462318 1_565
Ge21 Ni10 2.464226 1_555
Ge21 Ni36 2.485613 1_555
Ge21 Ni16 2.520091 1_555
Ge21 Ni30 2.530900 1_555
Ge21 Ni8 2.540364 1_655
Ge21 Ni13 2.802282 1_655
Ge21 Zn2 2.912340 1_655
Ge22 Ni24 2.407357 1_555
Ge22 Ni28 2.422816 1_545
Ge22 Ni1 2.462312 1_655
Ge22 Ni11 2.464219 1_555
Ge22 Ni37 2.485598 1_555
Ge22 Ni17 2.520093 1_555
Ge22 Ni31 2.530900 1_555
Ge22 Ni6 2.540366 1_555
Ge22 Ni14 2.802288 1_545
Ge22 Zn0 2.912353 1_555
Ge23 Ni25 2.407351 1_555
Ge23 Ni29 2.422828 1_555
Ge23 Ni2 2.462326 1_545
Ge23 Ni9 2.464220 1_555
Ge23 Ni38 2.485613 1_555
Ge23 Ni15 2.520080 1_555
Ge23 Ni32 2.530885 1_554
Ge23 Ni7 2.540365 1_555
Ge23 Ni12 2.802288 1_555
Ge23 Zn1 2.912346 1_555
