# generated using pymatgen
data_Ba3Sr5Co2(CuO4)6
_symmetry_space_group_name_H-M   'P 1'
_cell_length_a   7.87342300
_cell_length_b   7.85403700
_cell_length_c   7.86306911
_cell_angle_alpha   89.96957805
_cell_angle_beta   90.00000000
_cell_angle_gamma   90.00000000
_symmetry_Int_Tables_number   1
_chemical_formula_structural   Ba3Sr5Co2(CuO4)6
_chemical_formula_sum   'Ba3 Sr5 Co2 Cu6 O24'
_cell_volume   486.23762215
_cell_formula_units_Z   1
loop_
 _symmetry_equiv_pos_site_id
 _symmetry_equiv_pos_as_xyz
  1  'x, y, z'
loop_
 _atom_site_type_symbol
 _atom_site_label
 _atom_site_symmetry_multiplicity
 _atom_site_fract_x
 _atom_site_fract_y
 _atom_site_fract_z
 _atom_site_occupancy
  Ba  Ba0  1  0.00000000  0.24720100  0.75134300  1
  Ba  Ba1  1  0.00000000  0.24745300  0.24818200  1
  Ba  Ba2  1  0.50000000  0.24713000  0.24804600  1
  Sr  Sr0  1  0.00000000  0.75328800  0.75447500  1
  Sr  Sr1  1  0.00000000  0.75276000  0.24609200  1
  Sr  Sr2  1  0.50000000  0.75412900  0.75428300  1
  Sr  Sr3  1  0.50000000  0.75358100  0.24479400  1
  Sr  Sr4  1  0.50000000  0.24547900  0.75347300  1
  Co  Co0  1  0.25140000  0.50598600  0.50198300  1
  Co  Co1  1  0.74860000  0.50598600  0.50198300  1
  Cu  Cu0  1  0.25023100  0.99931400  0.99970600  1
  Cu  Cu1  1  0.25040400  0.00026700  0.50040000  1
  Cu  Cu2  1  0.25010600  0.50046200  0.00011900  1
  Cu  Cu3  1  0.74976900  0.99931400  0.99970600  1
  Cu  Cu4  1  0.74959600  0.00026700  0.50040000  1
  Cu  Cu5  1  0.74989400  0.50046200  0.00011900  1
  O  O0  1  0.00000000  0.98601600  0.99857300  1
  O  O1  1  0.00000000  0.98620400  0.50174400  1
  O  O2  1  0.00000000  0.51512100  0.99922400  1
  O  O3  1  0.00000000  0.50758100  0.50130500  1
  O  O4  1  0.50000000  0.99052100  0.99415300  1
  O  O5  1  0.50000000  0.99165300  0.50659300  1
  O  O6  1  0.50000000  0.51044800  0.99431000  1
  O  O7  1  0.50000000  0.50620500  0.50247500  1
  O  O8  1  0.25221400  0.74884500  0.99821100  1
  O  O9  1  0.25119300  0.74486600  0.50183900  1
  O  O10  1  0.25714600  0.25168700  0.99299900  1
  O  O11  1  0.25425300  0.25820800  0.50432500  1
  O  O12  1  0.74778600  0.74884500  0.99821100  1
  O  O13  1  0.74880700  0.74486600  0.50183900  1
  O  O14  1  0.74285400  0.25168700  0.99299900  1
  O  O15  1  0.74574700  0.25820800  0.50432500  1
  O  O16  1  0.25609400  0.99095600  0.74862300  1
  O  O17  1  0.25162800  0.98598500  0.25135500  1
  O  O18  1  0.25359100  0.50679300  0.74403700  1
  O  O19  1  0.25098100  0.50924500  0.25687100  1
  O  O20  1  0.74390600  0.99095600  0.74862300  1
  O  O21  1  0.74837200  0.98598500  0.25135500  1
  O  O22  1  0.74640900  0.50679300  0.74403700  1
  O  O23  1  0.74901900  0.50924500  0.25687100  1
loop_
_geom_bond_atom_site_label_1
_geom_bond_atom_site_label_2
_geom_bond_distance
_geom_bond_site_symmetry_2
Ba0 O14 2.776868 1_455
Ba0 O10 2.776868 1_555
Ba0 O15 2.790568 1_455
Ba0 O11 2.790568 1_555
Ba0 O0 2.825405 1_545
Ba0 O3 2.836073 1_555
Ba0 O1 2.838685 1_545
Ba0 O16 2.848948 1_545
Ba0 O20 2.848948 1_445
Ba0 O18 2.854224 1_555
Ba0 O22 2.854224 1_455
Ba0 O2 2.869016 1_555
Ba1 O15 2.840979 1_455
Ba1 O11 2.840979 1_555
Ba1 O0 2.841238 1_544
Ba1 O14 2.850657 1_454
Ba1 O10 2.850657 1_554
Ba1 O19 2.852605 1_555
Ba1 O23 2.852605 1_455
Ba1 O3 2.853030 1_555
Ba1 O21 2.853560 1_445
Ba1 O17 2.853560 1_545
Ba1 O1 2.860231 1_545
Ba1 O2 2.871808 1_554
Ba2 O10 2.771126 1_554
Ba2 O14 2.771126 1_554
Ba2 O11 2.795043 1_555
Ba2 O15 2.795043 1_555
Ba2 O17 2.833994 1_545
Ba2 O21 2.833994 1_545
Ba2 O4 2.837552 1_544
Ba2 O19 2.843788 1_555
Ba2 O23 2.843788 1_555
Ba2 O7 2.854303 1_555
Ba2 O5 2.855660 1_545
Ba2 O6 2.872854 1_554
Co0 O9 1.876173 1_555
Co0 O18 1.903379 1_555
Co0 O19 1.927492 1_555
Co0 O11 1.946265 1_555
Co0 O7 1.957338 1_555
Co0 O3 1.979425 1_555
Co1 O13 1.876173 1_555
Co1 O22 1.903379 1_555
Co1 O23 1.927492 1_555
Co1 O15 1.946265 1_555
Co1 O7 1.957338 1_555
Co1 O3 1.979425 1_655
Cu0 O8 1.967296 1_555
Cu0 O4 1.968234 1_555
Cu0 O0 1.972961 1_555
Cu0 O16 1.975948 1_555
Cu0 O17 1.981476 1_556
Cu0 O10 1.983568 1_565
Cu1 O16 1.953639 1_545
Cu1 O17 1.961551 1_545
Cu1 O5 1.966941 1_545
Cu1 O1 1.974656 1_545
Cu1 O9 2.005964 1_545
Cu1 O11 2.026356 1_555
Cu2 O8 1.950930 1_554
Cu2 O10 1.955505 1_554
Cu2 O6 1.969613 1_554
Cu2 O2 1.972566 1_554
Cu2 O18 2.014365 1_554
Cu2 O19 2.020085 1_555
Cu3 O12 1.967296 1_555
Cu3 O4 1.968234 1_555
Cu3 O0 1.972961 1_655
Cu3 O20 1.975948 1_555
Cu3 O21 1.981476 1_556
Cu3 O14 1.983568 1_565
Cu4 O20 1.953639 1_545
Cu4 O21 1.961551 1_545
Cu4 O5 1.966941 1_545
Cu4 O1 1.974656 1_645
Cu4 O13 2.005964 1_545
Cu4 O15 2.026356 1_555
Cu5 O12 1.950930 1_554
Cu5 O14 1.955505 1_554
Cu5 O6 1.969613 1_554
Cu5 O2 1.972566 1_654
Cu5 O22 2.014365 1_554
Cu5 O23 2.020085 1_555
O0 Sr0 2.651173 1_555
O0 Sr1 2.672146 1_556
O1 Sr0 2.700318 1_555
O1 Sr1 2.721488 1_555
O2 Sr0 2.683065 1_555
O2 Sr1 2.693588 1_556
O3 Sr0 2.773272 1_555
O3 Sr1 2.780482 1_555
O4 Sr2 2.647306 1_555
O4 Sr3 2.709847 1_556
O4 Sr4 2.754501 1_565
O5 Sr2 2.696196 1_555
O5 Sr3 2.781715 1_555
O5 Sr4 2.783303 1_565
O6 Sr2 2.687226 1_555
O6 Sr3 2.744028 1_556
O6 Sr4 2.814468 1_555
O7 Sr2 2.777775 1_555
O7 Sr3 2.806425 1_555
O7 Sr4 2.843264 1_555
O8 Sr2 2.736157 1_555
O8 Sr3 2.750799 1_556
O8 Sr0 2.759986 1_555
O8 Sr1 2.782692 1_556
O9 Sr2 2.789829 1_555
O9 Sr0 2.803955 1_555
O9 Sr3 2.815523 1_555
O9 Sr1 2.821196 1_555
O10 Sr4 2.684363 1_555
O11 Sr4 2.755260 1_555
O12 Sr2 2.736157 1_555
O12 Sr3 2.750799 1_556
O12 Sr0 2.759986 1_655
O12 Sr1 2.782692 1_656
O13 Sr2 2.789829 1_555
O13 Sr0 2.803955 1_655
O13 Sr3 2.815523 1_555
O13 Sr1 2.821196 1_655
O14 Sr4 2.684363 1_555
O15 Sr4 2.755260 1_555
O16 Sr2 2.673857 1_555
O16 Sr0 2.748096 1_555
O16 Sr4 2.772275 1_565
O17 Sr3 2.675564 1_555
O17 Sr1 2.698551 1_555
O18 Sr2 2.746674 1_555
O18 Sr0 2.782347 1_555
O18 Sr4 2.825152 1_555
O19 Sr3 2.745097 1_555
O19 Sr1 2.751336 1_555
O20 Sr2 2.673857 1_555
O20 Sr0 2.748096 1_655
O20 Sr4 2.772275 1_565
O21 Sr3 2.675564 1_555
O21 Sr1 2.698551 1_655
O22 Sr2 2.746674 1_555
O22 Sr0 2.782347 1_655
O22 Sr4 2.825152 1_555
O23 Sr3 2.745097 1_555
O23 Sr1 2.751336 1_655
