# generated using pymatgen
data_SrCd6
_symmetry_space_group_name_H-M   'P 1'
_cell_length_a   14.03013492
_cell_length_b   14.03013492
_cell_length_c   14.03013492
_cell_angle_alpha   109.88054502
_cell_angle_beta   109.53565981
_cell_angle_gamma   108.99867390
_symmetry_Int_Tables_number   1
_chemical_formula_structural   SrCd6
_chemical_formula_sum   'Sr12 Cd72'
_cell_volume   2125.87413735
_cell_formula_units_Z   12
loop_
 _symmetry_equiv_pos_site_id
 _symmetry_equiv_pos_as_xyz
  1  'x, y, z'
loop_
 _atom_site_type_symbol
 _atom_site_label
 _atom_site_symmetry_multiplicity
 _atom_site_fract_x
 _atom_site_fract_y
 _atom_site_fract_z
 _atom_site_occupancy
  Sr  Sr0  1  0.81272700  0.51729900  0.70457200  1
  Sr  Sr1  1  0.18727300  0.48270100  0.29542800  1
  Sr  Sr2  1  0.18727300  0.89184500  0.70457200  1
  Sr  Sr3  1  0.81272700  0.10815500  0.29542800  1
  Sr  Sr4  1  0.11289700  0.30151600  0.81138200  1
  Sr  Sr5  1  0.88710300  0.69848400  0.18861800  1
  Sr  Sr6  1  0.49013400  0.30151600  0.18861800  1
  Sr  Sr7  1  0.50986600  0.69848400  0.81138200  1
  Sr  Sr8  1  0.29955100  0.18649800  0.48604900  1
  Sr  Sr9  1  0.70044900  0.81350200  0.51395100  1
  Sr  Sr10  1  0.29955100  0.81350200  0.11305300  1
  Sr  Sr11  1  0.70044900  0.18649800  0.88694700  1
  Cd  Cd0  1  0.00004200  0.67755400  0.00234500  1
  Cd  Cd1  1  0.32479100  0.32244600  0.32248800  1
  Cd  Cd2  1  0.99995800  0.00230300  0.67751200  1
  Cd  Cd3  1  0.67520900  0.99769700  0.99765500  1
  Cd  Cd4  1  0.99995800  0.32244600  0.99765500  1
  Cd  Cd5  1  0.67520900  0.67755400  0.67751200  1
  Cd  Cd6  1  0.00004200  0.99769700  0.32248800  1
  Cd  Cd7  1  0.32479100  0.00230300  0.00234500  1
  Cd  Cd8  1  0.73808500  0.64179400  0.90370900  1
  Cd  Cd9  1  0.26191500  0.35820600  0.09629100  1
  Cd  Cd10  1  0.26191500  0.16562400  0.90370900  1
  Cd  Cd11  1  0.73808500  0.83437600  0.09629100  1
  Cd  Cd12  1  0.85464900  0.09376400  0.76088500  1
  Cd  Cd13  1  0.14535100  0.90623600  0.23911500  1
  Cd  Cd14  1  0.33287900  0.09376400  0.23911500  1
  Cd  Cd15  1  0.66712100  0.90623600  0.76088500  1
  Cd  Cd16  1  0.09614000  0.24446300  0.34060300  1
  Cd  Cd17  1  0.90386000  0.75553700  0.65939700  1
  Cd  Cd18  1  0.09614000  0.75553700  0.85167700  1
  Cd  Cd19  1  0.90386000  0.24446300  0.14832300  1
  Cd  Cd20  1  0.59597200  0.25125400  0.65528200  1
  Cd  Cd21  1  0.40402800  0.74874600  0.34471800  1
  Cd  Cd22  1  0.40402800  0.05931000  0.65528200  1
  Cd  Cd23  1  0.59597200  0.94069000  0.34471800  1
  Cd  Cd24  1  0.94248500  0.34644900  0.59603600  1
  Cd  Cd25  1  0.05751500  0.65355100  0.40396400  1
  Cd  Cd26  1  0.75041300  0.34644900  0.40396400  1
  Cd  Cd27  1  0.24958700  0.65355100  0.59603600  1
  Cd  Cd28  1  0.34401700  0.40305400  0.74707100  1
  Cd  Cd29  1  0.65598300  0.59694600  0.25292900  1
  Cd  Cd30  1  0.34401700  0.59694600  0.94096200  1
  Cd  Cd31  1  0.65598300  0.40305400  0.05903800  1
  Cd  Cd32  1  0.58764500  0.58764500  0.00000000  1
  Cd  Cd33  1  0.41235500  0.41235500  0.00000000  1
  Cd  Cd34  1  0.59298900  0.00000000  0.59298900  1
  Cd  Cd35  1  0.40701100  0.00000000  0.40701100  1
  Cd  Cd36  1  0.00000000  0.40641500  0.40641500  1
  Cd  Cd37  1  0.00000000  0.59358500  0.59358500  1
  Cd  Cd38  1  0.77726400  0.45501600  0.91944400  1
  Cd  Cd39  1  0.46442800  0.54498400  0.32224800  1
  Cd  Cd40  1  0.22273600  0.14218000  0.67775200  1
  Cd  Cd41  1  0.53557200  0.85782000  0.08055600  1
  Cd  Cd42  1  0.85881000  0.08135100  0.54040700  1
  Cd  Cd43  1  0.14119000  0.68159700  0.22254100  1
  Cd  Cd44  1  0.54094400  0.31840300  0.45959300  1
  Cd  Cd45  1  0.45905600  0.91864900  0.77745900  1
  Cd  Cd46  1  0.31673500  0.45883200  0.54203800  1
  Cd  Cd47  1  0.91679400  0.77469700  0.45796200  1
  Cd  Cd48  1  0.08320600  0.54116800  0.85790300  1
  Cd  Cd49  1  0.68326500  0.22530300  0.14209700  1
  Cd  Cd50  1  0.22273600  0.54498400  0.08055600  1
  Cd  Cd51  1  0.53557200  0.45501600  0.67775200  1
  Cd  Cd52  1  0.77726400  0.85782000  0.32224800  1
  Cd  Cd53  1  0.46442800  0.14218000  0.91944400  1
  Cd  Cd54  1  0.14119000  0.91864900  0.45959300  1
  Cd  Cd55  1  0.85881000  0.31840300  0.77745900  1
  Cd  Cd56  1  0.45905600  0.68159700  0.54040700  1
  Cd  Cd57  1  0.54094400  0.08135100  0.22254100  1
  Cd  Cd58  1  0.68326500  0.54116800  0.45796200  1
  Cd  Cd59  1  0.08320600  0.22530300  0.54203800  1
  Cd  Cd60  1  0.91679400  0.45883200  0.14209700  1
  Cd  Cd61  1  0.31673500  0.77469700  0.85790300  1
  Cd  Cd62  1  0.50000000  0.31313900  0.81313900  1
  Cd  Cd63  1  0.50000000  0.68686100  0.18686100  1
  Cd  Cd64  1  0.69171300  0.19171300  0.50000000  1
  Cd  Cd65  1  0.30828700  0.80828700  0.50000000  1
  Cd  Cd66  1  0.18731200  0.50000000  0.68731200  1
  Cd  Cd67  1  0.81268800  0.50000000  0.31268800  1
  Cd  Cd68  1  0.91301300  0.82188800  0.90887500  1
  Cd  Cd69  1  0.08698700  0.17811200  0.09112500  1
  Cd  Cd70  1  0.08698700  0.99586200  0.90887500  1
  Cd  Cd71  1  0.91301300  0.00413800  0.09112500  1
loop_
_geom_bond_atom_site_label_1
_geom_bond_atom_site_label_2
_geom_bond_distance
_geom_bond_site_symmetry_2
Cd0 Cd43 3.030714 1_555
Cd0 Cd13 3.073850 1_555
Cd0 Cd48 3.086670 1_554
Cd0 Cd38 3.100884 1_454
Cd0 Cd68 3.107497 1_454
Cd0 Cd18 3.162609 1_554
Cd0 Cd8 3.255802 1_454
Cd0 Sr0 3.440516 1_454
Cd0 Sr5 3.460867 1_455
Cd0 Sr10 3.479953 1_555
Cd1 Cd44 3.030714 1_555
Cd1 Cd14 3.073850 1_555
Cd1 Cd46 3.086670 1_555
Cd1 Cd39 3.100884 1_555
Cd1 Cd69 3.107497 1_555
Cd1 Cd16 3.162609 1_555
Cd1 Cd9 3.255802 1_555
Cd1 Sr1 3.440516 1_555
Cd1 Sr6 3.460878 1_555
Cd1 Sr8 3.479953 1_555
Cd2 Cd42 3.030714 1_555
Cd2 Cd47 3.086670 1_545
Cd2 Cd40 3.100884 1_655
Cd2 Cd70 3.107497 1_645
Cd2 Sr2 3.440516 1_645
Cd2 Sr4 3.460879 1_655
Cd2 Sr9 3.479953 1_545
Cd3 Cd45 3.030714 1_555
Cd3 Cd49 3.086670 1_566
Cd3 Cd41 3.100884 1_556
Cd3 Cd71 3.107497 1_566
Cd3 Sr3 3.440516 1_566
Cd3 Sr7 3.460878 1_555
Cd3 Sr11 3.479953 1_565
Cd4 Cd55 3.030714 1_555
Cd4 Cd60 3.086670 1_556
Cd4 Cd50 3.100884 1_656
Cd4 Cd69 3.107497 1_656
Cd4 Cd9 3.255802 1_656
Cd4 Sr1 3.440516 1_656
Cd4 Sr4 3.460867 1_655
Cd4 Sr11 3.479953 1_555
Cd5 Cd56 3.030714 1_555
Cd5 Cd58 3.086670 1_555
Cd5 Cd51 3.100884 1_555
Cd5 Cd68 3.107497 1_555
Cd5 Cd8 3.255802 1_555
Cd5 Sr0 3.440516 1_555
Cd5 Sr7 3.460878 1_555
Cd5 Sr9 3.479953 1_555
Cd6 Cd71 3.107497 1_465
Cd6 Sr3 3.440516 1_465
Cd6 Sr5 3.460879 1_455
Cd6 Sr8 3.479953 1_565
Cd7 Cd70 3.107497 1_544
Cd7 Sr2 3.440516 1_544
Cd7 Sr6 3.460878 1_555
Cd7 Sr10 3.479953 1_545
Cd8 Sr0 3.432537 1_555
Cd8 Sr7 3.485395 1_555
Cd8 Sr5 3.485397 1_556
Cd9 Sr1 3.432537 1_555
Cd9 Sr6 3.485395 1_555
Cd9 Sr4 3.485397 1_554
Cd10 Cd70 2.851658 1_545
Cd10 Cd33 2.901444 1_556
Cd10 Cd40 2.910017 1_555
Cd10 Cd53 2.910017 1_555
Cd10 Cd9 3.104164 1_556
Cd10 Cd7 3.255802 1_556
Cd10 Cd2 3.255802 1_455
Cd10 Sr2 3.432537 1_545
Cd10 Sr6 3.485395 1_556
Cd10 Sr4 3.485404 1_555
Cd11 Cd71 2.851658 1_565
Cd11 Cd32 2.901444 1_555
Cd11 Cd41 2.910017 1_555
Cd11 Cd52 2.910017 1_555
Cd11 Cd8 3.104164 1_554
Cd11 Cd3 3.255802 1_554
Cd11 Cd6 3.255802 1_655
Cd11 Sr3 3.432537 1_565
Cd11 Sr7 3.485395 1_554
Cd11 Sr5 3.485404 1_555
Cd12 Cd15 3.055759 1_545
Cd12 Cd55 3.059978 1_555
Cd12 Cd42 3.059978 1_555
Cd12 Cd4 3.073850 1_555
Cd12 Cd2 3.073850 1_555
Cd12 Cd34 3.117874 1_555
Cd12 Sr4 3.482590 1_655
Cd12 Sr11 3.511147 1_555
Cd12 Sr9 3.511147 1_545
Cd13 Cd14 3.055759 1_565
Cd13 Cd54 3.059978 1_555
Cd13 Cd43 3.059978 1_555
Cd13 Cd6 3.073850 1_555
Cd13 Cd35 3.117874 1_565
Cd13 Sr5 3.482590 1_455
Cd13 Sr8 3.511147 1_565
Cd13 Sr10 3.511147 1_555
Cd14 Cd44 3.059978 1_555
Cd14 Cd57 3.059978 1_555
Cd14 Cd7 3.073850 1_555
Cd14 Cd35 3.117874 1_555
Cd14 Sr6 3.482600 1_555
Cd14 Sr8 3.511147 1_555
Cd14 Sr10 3.511147 1_545
Cd15 Cd45 3.059978 1_555
Cd15 Cd56 3.059978 1_555
Cd15 Cd3 3.073850 1_555
Cd15 Cd5 3.073850 1_555
Cd15 Cd34 3.117874 1_565
Cd15 Sr7 3.482600 1_555
Cd15 Sr11 3.511147 1_565
Cd15 Sr9 3.511147 1_555
Cd16 Cd46 2.986688 1_555
Cd16 Cd59 2.986688 1_555
Cd16 Cd36 3.039157 1_555
Cd16 Cd19 3.112574 1_455
Cd16 Cd6 3.162609 1_545
Cd16 Cd69 3.246539 1_555
Cd16 Cd71 3.246539 1_455
Cd16 Sr8 3.422750 1_555
Cd16 Sr1 3.522663 1_555
Cd16 Sr3 3.522663 1_455
Cd17 Cd58 2.986688 1_555
Cd17 Cd47 2.986688 1_555
Cd17 Cd37 3.039157 1_655
Cd17 Cd18 3.112574 1_655
Cd17 Cd2 3.162609 1_565
Cd17 Cd5 3.162609 1_555
Cd17 Cd70 3.246539 1_655
Cd17 Cd68 3.246539 1_555
Cd17 Sr9 3.422750 1_555
Cd17 Sr0 3.522663 1_555
Cd17 Sr2 3.522663 1_655
Cd18 Cd61 2.986688 1_555
Cd18 Cd48 2.986688 1_555
Cd18 Cd37 3.039157 1_555
Cd18 Cd7 3.162609 1_566
Cd18 Cd70 3.246539 1_555
Cd18 Cd68 3.246539 1_455
Cd18 Sr10 3.422750 1_556
Cd18 Sr2 3.522663 1_555
Cd18 Sr0 3.522663 1_455
Cd19 Cd49 2.986688 1_555
Cd19 Cd60 2.986688 1_555
Cd19 Cd36 3.039157 1_655
Cd19 Cd4 3.162609 1_554
Cd19 Cd3 3.162609 1_544
Cd19 Cd69 3.246539 1_655
Cd19 Cd71 3.246539 1_555
Cd19 Sr11 3.422750 1_554
Cd19 Sr1 3.522663 1_655
Cd19 Sr3 3.522663 1_555
Cd20 Cd64 2.949338 1_555
Cd20 Cd62 2.986611 1_555
Cd20 Cd22 3.127717 1_555
Cd20 Cd55 3.136366 1_555
Cd20 Cd44 3.136366 1_555
Cd20 Cd51 3.183291 1_555
Cd20 Cd38 3.183291 1_555
Cd20 Cd35 3.313038 1_555
Cd20 Cd34 3.313038 1_555
Cd20 Sr0 3.620264 1_555
Cd20 Sr8 3.636981 1_555
Cd20 Sr11 3.636981 1_555
Cd21 Cd65 2.949338 1_555
Cd21 Cd63 2.986611 1_555
Cd21 Cd23 3.127717 1_555
Cd21 Cd56 3.136366 1_555
Cd21 Cd43 3.136366 1_555
Cd21 Cd39 3.183291 1_555
Cd21 Cd50 3.183291 1_555
Cd21 Cd34 3.313038 1_565
Cd21 Cd35 3.313038 1_565
Cd21 Sr1 3.620264 1_555
Cd21 Sr10 3.636981 1_555
Cd21 Sr9 3.636981 1_555
Cd22 Cd65 2.949338 1_545
Cd22 Cd62 2.986611 1_555
Cd22 Cd45 3.136366 1_545
Cd22 Cd54 3.136366 1_545
Cd22 Cd40 3.183291 1_555
Cd22 Cd53 3.183291 1_555
Cd22 Cd35 3.313038 1_555
Cd22 Cd34 3.313038 1_555
Cd22 Sr2 3.620264 1_545
Cd22 Sr8 3.636981 1_555
Cd22 Sr11 3.636981 1_555
Cd23 Cd64 2.949338 1_565
Cd23 Cd63 2.986611 1_555
Cd23 Cd57 3.136366 1_565
Cd23 Cd42 3.136366 1_565
Cd23 Cd41 3.183291 1_555
Cd23 Cd52 3.183291 1_555
Cd23 Cd35 3.313038 1_565
Cd23 Cd34 3.313038 1_565
Cd23 Sr3 3.620264 1_565
Cd23 Sr10 3.636981 1_555
Cd23 Sr9 3.636981 1_555
Cd24 Cd66 2.905802 1_655
Cd24 Cd64 2.962149 1_555
Cd24 Cd26 3.109207 1_555
Cd24 Cd48 3.109725 1_655
Cd24 Cd59 3.109725 1_655
Cd24 Cd42 3.223501 1_555
Cd24 Cd55 3.223501 1_555
Cd24 Cd36 3.309500 1_655
Cd24 Cd37 3.309500 1_655
Cd24 Sr4 3.562017 1_655
Cd24 Sr3 3.686701 1_555
Cd24 Sr0 3.686701 1_555
Cd25 Cd67 2.905802 1_455
Cd25 Cd65 2.962149 1_555
Cd25 Cd27 3.109207 1_555
Cd25 Cd47 3.109725 1_455
Cd25 Cd60 3.109725 1_455
Cd25 Cd43 3.223501 1_555
Cd25 Cd54 3.223501 1_555
Cd25 Cd36 3.309500 1_555
Cd25 Cd37 3.309500 1_555
Cd25 Sr5 3.562017 1_455
Cd25 Sr1 3.686701 1_555
Cd25 Sr2 3.686701 1_555
Cd26 Cd67 2.905802 1_555
Cd26 Cd64 2.962149 1_555
Cd26 Cd58 3.109725 1_555
Cd26 Cd49 3.109725 1_555
Cd26 Cd57 3.223501 1_555
Cd26 Cd44 3.223501 1_555
Cd26 Cd37 3.309500 1_655
Cd26 Cd36 3.309500 1_655
Cd26 Sr6 3.562023 1_555
Cd26 Sr0 3.686701 1_555
Cd26 Sr3 3.686701 1_555
Cd27 Cd66 2.905802 1_555
Cd27 Cd65 2.962149 1_555
Cd27 Cd61 3.109725 1_555
Cd27 Cd46 3.109725 1_555
Cd27 Cd45 3.223501 1_555
Cd27 Cd56 3.223501 1_555
Cd27 Cd36 3.309500 1_555
Cd27 Cd37 3.309500 1_555
Cd27 Sr7 3.562023 1_555
Cd27 Sr1 3.686701 1_555
Cd27 Sr2 3.686701 1_555
Cd28 Cd62 2.911386 1_555
Cd28 Cd66 2.979374 1_555
Cd28 Cd51 3.107223 1_555
Cd28 Cd40 3.107223 1_555
Cd28 Cd30 3.125272 1_555
Cd28 Cd46 3.166024 1_555
Cd28 Cd59 3.166024 1_555
Cd28 Cd33 3.295024 1_556
Cd28 Cd32 3.295024 1_556
Cd28 Sr8 3.564036 1_555
Cd28 Sr7 3.630638 1_555
Cd28 Sr4 3.630650 1_555
Cd29 Cd63 2.911386 1_555
Cd29 Cd67 2.979374 1_555
Cd29 Cd39 3.107223 1_555
Cd29 Cd52 3.107223 1_555
Cd29 Cd31 3.125272 1_555
Cd29 Cd58 3.166024 1_555
Cd29 Cd47 3.166024 1_555
Cd29 Cd33 3.295024 1_555
Cd29 Cd32 3.295024 1_555
Cd29 Sr9 3.564036 1_555
Cd29 Sr6 3.630638 1_555
Cd29 Sr5 3.630650 1_555
Cd30 Cd63 2.911397 1_556
Cd30 Cd66 2.979363 1_555
Cd30 Cd41 3.107222 1_556
Cd30 Cd50 3.107235 1_556
Cd30 Cd61 3.166015 1_555
Cd30 Cd48 3.166025 1_555
Cd30 Cd32 3.295023 1_556
Cd30 Cd33 3.295030 1_556
Cd30 Sr10 3.564043 1_556
Cd30 Sr7 3.630627 1_555
Cd30 Sr4 3.630646 1_555
Cd31 Cd62 2.911397 1_554
Cd31 Cd67 2.979363 1_555
Cd31 Cd53 3.107222 1_554
Cd31 Cd38 3.107235 1_554
Cd31 Cd49 3.166015 1_555
Cd31 Cd60 3.166025 1_555
Cd31 Cd33 3.295023 1_555
Cd31 Cd32 3.295030 1_555
Cd31 Sr11 3.564043 1_554
Cd31 Sr6 3.630627 1_555
Cd31 Sr5 3.630646 1_555
Cd32 Cd33 2.856341 1_555
Cd32 Cd8 2.901444 1_554
Cd32 Cd62 3.333393 1_554
Cd32 Cd63 3.333393 1_555
Cd32 Sr7 3.547487 1_554
Cd32 Sr5 3.547498 1_555
Cd33 Cd9 2.901444 1_555
Cd33 Cd63 3.333393 1_555
Cd33 Cd62 3.333393 1_554
Cd33 Sr6 3.547487 1_555
Cd33 Sr4 3.547498 1_554
Cd34 Cd35 3.010559 1_555
Cd34 Cd64 3.467701 1_555
Cd34 Cd65 3.467701 1_545
Cd34 Sr9 3.473125 1_545
Cd34 Sr11 3.473125 1_555
Cd35 Cd65 3.467701 1_545
Cd35 Cd64 3.467701 1_555
Cd35 Sr8 3.473125 1_555
Cd35 Sr10 3.473125 1_545
Cd36 Cd37 3.016930 1_555
Cd36 Cd66 3.386654 1_555
Cd36 Cd67 3.386654 1_455
Cd36 Sr1 3.537325 1_555
Cd36 Sr3 3.537325 1_455
Cd37 Cd67 3.386654 1_455
Cd37 Cd66 3.386654 1_555
Cd37 Sr0 3.537325 1_455
Cd37 Sr2 3.537325 1_555
Cd38 Cd8 2.910017 1_555
Cd38 Cd55 3.050613 1_555
Cd38 Cd60 3.053157 1_556
Cd38 Cd62 3.221527 1_555
Cd38 Sr11 3.379624 1_555
Cd38 Sr5 3.494577 1_556
Cd38 Sr0 3.551227 1_555
Cd39 Cd9 2.910017 1_555
Cd39 Cd56 3.050613 1_555
Cd39 Cd58 3.053157 1_555
Cd39 Cd63 3.221527 1_555
Cd39 Sr9 3.379624 1_555
Cd39 Sr6 3.494581 1_555
Cd39 Sr1 3.551227 1_555
Cd40 Cd54 3.050613 1_545
Cd40 Cd59 3.053157 1_555
Cd40 Cd62 3.221527 1_555
Cd40 Sr8 3.379624 1_555
Cd40 Sr4 3.494592 1_555
Cd40 Sr2 3.551227 1_545
Cd41 Cd57 3.050613 1_565
Cd41 Cd61 3.053157 1_554
Cd41 Cd63 3.221527 1_555
Cd41 Sr10 3.379624 1_555
Cd41 Sr7 3.494581 1_554
Cd41 Sr3 3.551227 1_565
Cd42 Cd52 3.050613 1_545
Cd42 Cd59 3.125988 1_655
Cd42 Cd64 3.207295 1_555
Cd42 Sr3 3.453147 1_555
Cd42 Sr9 3.501425 1_545
Cd42 Sr4 3.533122 1_655
Cd43 Cd50 3.050613 1_555
Cd43 Cd60 3.125988 1_455
Cd43 Cd65 3.207295 1_555
Cd43 Sr1 3.453147 1_555
Cd43 Sr10 3.501425 1_555
Cd43 Sr5 3.533113 1_455
Cd44 Cd51 3.050613 1_555
Cd44 Cd58 3.125988 1_555
Cd44 Cd64 3.207295 1_555
Cd44 Sr0 3.453147 1_555
Cd44 Sr8 3.501425 1_555
Cd44 Sr6 3.533127 1_555
Cd45 Cd53 3.050613 1_565
Cd45 Cd61 3.125988 1_555
Cd45 Cd65 3.207295 1_555
Cd45 Sr2 3.453147 1_555
Cd45 Sr11 3.501425 1_565
Cd45 Sr7 3.533127 1_555
Cd46 Cd51 3.053157 1_555
Cd46 Cd56 3.125988 1_555
Cd46 Cd66 3.184735 1_555
Cd46 Sr7 3.392078 1_555
Cd46 Sr1 3.516219 1_555
Cd46 Sr8 3.536461 1_555
Cd47 Cd52 3.053157 1_555
Cd47 Cd54 3.125988 1_655
Cd47 Cd67 3.184735 1_555
Cd47 Sr5 3.392083 1_555
Cd47 Sr2 3.516219 1_655
Cd47 Sr9 3.536461 1_555
Cd48 Cd50 3.053157 1_556
Cd48 Cd55 3.125988 1_455
Cd48 Cd66 3.184735 1_555
Cd48 Sr4 3.392070 1_555
Cd48 Sr0 3.516219 1_455
Cd48 Sr10 3.536461 1_556
Cd49 Cd53 3.053157 1_554
Cd49 Cd57 3.125988 1_555
Cd49 Cd67 3.184735 1_555
Cd49 Sr6 3.392078 1_555
Cd49 Sr3 3.516219 1_555
Cd49 Sr11 3.536461 1_554
Cd50 Cd9 2.910017 1_555
Cd50 Cd63 3.221527 1_555
Cd50 Sr10 3.379624 1_555
Cd50 Sr4 3.494577 1_554
Cd50 Sr1 3.551227 1_555
Cd51 Cd8 2.910017 1_555
Cd51 Cd62 3.221527 1_555
Cd51 Sr8 3.379624 1_555
Cd51 Sr7 3.494581 1_555
Cd51 Sr0 3.551227 1_555
Cd52 Cd6 3.100884 1_655
Cd52 Cd63 3.221527 1_555
Cd52 Sr9 3.379624 1_555
Cd52 Sr5 3.494592 1_555
Cd52 Sr3 3.551227 1_565
Cd53 Cd7 3.100884 1_556
Cd53 Cd62 3.221527 1_555
Cd53 Sr11 3.379624 1_555
Cd53 Sr6 3.494581 1_556
Cd53 Sr2 3.551227 1_545
Cd54 Cd6 3.030714 1_555
Cd54 Cd65 3.207295 1_555
Cd54 Sr2 3.453147 1_555
Cd54 Sr8 3.501425 1_565
Cd54 Sr5 3.533122 1_455
Cd55 Cd64 3.207295 1_555
Cd55 Sr0 3.453147 1_555
Cd55 Sr11 3.501425 1_555
Cd55 Sr4 3.533113 1_655
Cd56 Cd65 3.207295 1_555
Cd56 Sr1 3.453147 1_555
Cd56 Sr9 3.501425 1_555
Cd56 Sr7 3.533127 1_555
Cd57 Cd7 3.030714 1_555
Cd57 Cd64 3.207295 1_555
Cd57 Sr3 3.453147 1_555
Cd57 Sr10 3.501425 1_545
Cd57 Sr6 3.533127 1_555
Cd58 Cd67 3.184735 1_555
Cd58 Sr6 3.392078 1_555
Cd58 Sr0 3.516219 1_555
Cd58 Sr9 3.536461 1_555
Cd59 Cd6 3.086670 1_545
Cd59 Cd66 3.184735 1_555
Cd59 Sr4 3.392083 1_555
Cd59 Sr3 3.516219 1_455
Cd59 Sr8 3.536461 1_555
Cd60 Cd67 3.184735 1_555
Cd60 Sr5 3.392070 1_555
Cd60 Sr1 3.516219 1_655
Cd60 Sr11 3.536461 1_554
Cd61 Cd7 3.086670 1_566
Cd61 Cd66 3.184735 1_555
Cd61 Sr7 3.392078 1_555
Cd61 Sr2 3.516219 1_555
Cd61 Sr10 3.536461 1_556
Cd62 Sr8 3.833490 1_555
Cd62 Sr11 3.833490 1_555
Cd63 Sr10 3.833490 1_555
Cd63 Sr9 3.833490 1_555
Cd64 Sr3 3.842067 1_555
Cd64 Sr0 3.842067 1_555
Cd65 Sr2 3.842067 1_555
Cd65 Sr1 3.842067 1_555
Cd66 Sr7 3.807140 1_555
Cd66 Sr4 3.807143 1_555
Cd67 Sr6 3.807140 1_555
Cd67 Sr5 3.807143 1_555
Cd68 Cd70 2.834897 1_655
Cd68 Cd8 2.851658 1_555
Cd68 Cd71 2.937626 1_566
Cd68 Sr0 3.676263 1_555
Cd69 Cd71 2.834897 1_455
Cd69 Cd9 2.851658 1_555
Cd69 Cd70 2.937626 1_544
Cd69 Sr1 3.676263 1_555
Cd70 Sr2 3.676263 1_555
Cd71 Sr3 3.676263 1_555
