# generated using pymatgen
data_CaCu3(IrO3)4
_symmetry_space_group_name_H-M   'P 1'
_cell_length_a   6.52041958
_cell_length_b   6.52041958
_cell_length_c   6.52041958
_cell_angle_alpha   109.47122063
_cell_angle_beta   109.47122063
_cell_angle_gamma   109.47122063
_symmetry_Int_Tables_number   1
_chemical_formula_structural   CaCu3(IrO3)4
_chemical_formula_sum   'Ca1 Cu3 Ir4 O12'
_cell_volume   213.40507244
_cell_formula_units_Z   1
loop_
 _symmetry_equiv_pos_site_id
 _symmetry_equiv_pos_as_xyz
  1  'x, y, z'
loop_
 _atom_site_type_symbol
 _atom_site_label
 _atom_site_symmetry_multiplicity
 _atom_site_fract_x
 _atom_site_fract_y
 _atom_site_fract_z
 _atom_site_occupancy
  Ca  Ca0  1  0.00000000  0.00000000  0.00000000  1
  Cu  Cu0  1  0.50000000  0.00000000  0.50000000  1
  Cu  Cu1  1  0.00000000  0.50000000  0.50000000  1
  Cu  Cu2  1  0.50000000  0.50000000  0.00000000  1
  Ir  Ir0  1  0.00000000  0.00000000  0.50000000  1
  Ir  Ir1  1  0.50000000  0.00000000  0.00000000  1
  Ir  Ir2  1  0.00000000  0.50000000  0.00000000  1
  Ir  Ir3  1  0.50000000  0.50000000  0.50000000  1
  O  O0  1  0.69466000  0.83095000  0.52561000  1
  O  O1  1  0.69466000  0.16905000  0.86370900  1
  O  O2  1  0.30534000  0.83095000  0.13629100  1
  O  O3  1  0.30534000  0.16905000  0.47439000  1
  O  O4  1  0.83095000  0.52561000  0.69466000  1
  O  O5  1  0.16905000  0.86370900  0.69466000  1
  O  O6  1  0.83095000  0.13629100  0.30534000  1
  O  O7  1  0.16905000  0.47439000  0.30534000  1
  O  O8  1  0.52561000  0.69466000  0.83095000  1
  O  O9  1  0.86370900  0.69466000  0.16905000  1
  O  O10  1  0.13629100  0.30534000  0.83095000  1
  O  O11  1  0.47439000  0.30534000  0.16905000  1
loop_
_geom_bond_atom_site_label_1
_geom_bond_atom_site_label_2
_geom_bond_distance
_geom_bond_site_symmetry_2
Ca0 O0 2.627769 1_444
Ca0 O4 2.627769 1_444
Ca0 O8 2.627769 1_444
Ca0 O3 2.627769 1_555
Ca0 O11 2.627769 1_555
Ca0 O7 2.627769 1_555
Ca0 O9 2.627770 1_445
Ca0 O10 2.627770 1_554
Ca0 O1 2.627770 1_454
Ca0 O6 2.627770 1_455
Ca0 O2 2.627770 1_545
Ca0 O5 2.627770 1_544
Cu0 O1 1.941145 1_555
Cu0 O2 1.941145 1_545
Cu0 O3 1.941150 1_555
Cu0 O0 1.941150 1_545
Cu1 O5 1.941145 1_555
Cu1 O6 1.941145 1_455
Cu1 O7 1.941150 1_555
Cu1 O4 1.941150 1_455
Cu2 O9 1.941145 1_555
Cu2 O10 1.941145 1_554
Cu2 O8 1.941150 1_554
Cu2 O11 1.941150 1_555
Ir0 O9 2.021895 1_445
Ir0 O10 2.021895 1_555
Ir0 O0 2.021897 1_445
Ir0 O3 2.021897 1_555
Ir0 O6 2.021902 1_455
Ir0 O5 2.021902 1_545
Ir1 O5 2.021895 1_544
Ir1 O6 2.021895 1_555
Ir1 O8 2.021897 1_544
Ir1 O11 2.021897 1_555
Ir1 O2 2.021902 1_545
Ir1 O1 2.021902 1_554
Ir2 O1 2.021895 1_454
Ir2 O2 2.021895 1_555
Ir2 O4 2.021897 1_454
Ir2 O7 2.021897 1_555
Ir2 O10 2.021902 1_554
Ir2 O9 2.021902 1_455
Ir3 O11 2.021897 1_555
Ir3 O7 2.021897 1_555
Ir3 O3 2.021897 1_555
Ir3 O8 2.021897 1_555
Ir3 O0 2.021897 1_555
Ir3 O4 2.021897 1_555
