# generated using pymatgen
data_La4(TmS2)11
_symmetry_space_group_name_H-M   'P 1'
_cell_length_a   19.68395127
_cell_length_b   19.68395127
_cell_length_c   11.33374693
_cell_angle_alpha   88.61520107
_cell_angle_beta   88.61520107
_cell_angle_gamma   11.53231020
_symmetry_Int_Tables_number   1
_chemical_formula_structural   La4(TmS2)11
_chemical_formula_sum   'La4 Tm11 S22'
_cell_volume   877.66191190
_cell_formula_units_Z   1
loop_
 _symmetry_equiv_pos_site_id
 _symmetry_equiv_pos_as_xyz
  1  'x, y, z'
loop_
 _atom_site_type_symbol
 _atom_site_label
 _atom_site_symmetry_multiplicity
 _atom_site_fract_x
 _atom_site_fract_y
 _atom_site_fract_z
 _atom_site_occupancy
  La  La0  1  0.10404400  0.10404400  0.98758500  1
  La  La1  1  0.89595600  0.89595600  0.01241500  1
  La  La2  1  0.36716800  0.36716800  0.65208000  1
  La  La3  1  0.63283200  0.63283200  0.34792000  1
  Tm  Tm0  1  0.79773500  0.79773500  0.94194200  1
  Tm  Tm1  1  0.20226500  0.20226500  0.05805800  1
  Tm  Tm2  1  0.46210700  0.46210700  0.72902100  1
  Tm  Tm3  1  0.53789300  0.53789300  0.27097900  1
  Tm  Tm4  1  0.65771200  0.65771200  0.69874800  1
  Tm  Tm5  1  0.34228800  0.34228800  0.30125200  1
  Tm  Tm6  1  0.26378700  0.26378700  0.64799700  1
  Tm  Tm7  1  0.73621300  0.73621300  0.35200300  1
  Tm  Tm8  1  0.06928600  0.06928600  0.63927400  1
  Tm  Tm9  1  0.93071400  0.93071400  0.36072600  1
  Tm  Tm10  1  0.00000000  0.00000000  0.00000000  1
  S  S0  1  0.08671900  0.08671900  0.24835900  1
  S  S1  1  0.91328100  0.91328100  0.75164100  1
  S  S2  1  0.18943300  0.18943300  0.30794500  1
  S  S3  1  0.81056700  0.81056700  0.69205500  1
  S  S4  1  0.27998400  0.27998400  0.40976700  1
  S  S5  1  0.72001600  0.72001600  0.59023300  1
  S  S6  1  0.44574800  0.44574800  0.50450900  1
  S  S7  1  0.55425200  0.55425200  0.49549100  1
  S  S8  1  0.13438800  0.13438800  0.54858100  1
  S  S9  1  0.86561200  0.86561200  0.45141900  1
  S  S10  1  0.59286500  0.59286500  0.78583100  1
  S  S11  1  0.40713500  0.40713500  0.21416900  1
  S  S12  1  0.45378700  0.45378700  0.96834500  1
  S  S13  1  0.54621300  0.54621300  0.03165500  1
  S  S14  1  0.35006500  0.35006500  0.90896500  1
  S  S15  1  0.64993500  0.64993500  0.09103500  1
  S  S16  1  0.16868600  0.16868600  0.84730000  1
  S  S17  1  0.83131400  0.83131400  0.15270000  1
  S  S18  1  0.00775200  0.00775200  0.76085400  1
  S  S19  1  0.99224800  0.99224800  0.23914600  1
  S  S20  1  0.25545300  0.25545300  0.88095800  1
  S  S21  1  0.74454700  0.74454700  0.11904200  1
loop_
_geom_bond_atom_site_label_1
_geom_bond_atom_site_label_2
_geom_bond_distance
_geom_bond_site_symmetry_2
La0 S15 2.935819 1_546
La0 S15 2.935819 1_456
La0 S16 2.956878 1_555
La0 S0 3.016342 1_556
La0 S13 3.039156 1_456
La0 S13 3.039156 1_546
La0 S10 3.062681 1_455
La0 S10 3.062681 1_545
La1 S14 2.935819 1_564
La1 S14 2.935819 1_654
La1 S17 2.956878 1_555
La1 S1 3.016342 1_554
La1 S12 3.039156 1_564
La1 S12 3.039156 1_654
La1 S11 3.062681 1_565
La1 S11 3.062681 1_655
La2 S1 2.923283 1_455
La2 S1 2.923283 1_545
La2 S14 2.971645 1_555
La2 S3 2.997080 1_455
La2 S3 2.997080 1_545
La2 S9 3.015559 1_455
La2 S9 3.015559 1_545
La2 S6 3.467075 1_555
La3 S0 2.923283 1_655
La3 S0 2.923283 1_565
La3 S15 2.971645 1_555
La3 S2 2.997080 1_655
La3 S2 2.997080 1_565
La3 S8 3.015559 1_655
La3 S8 3.015559 1_565
La3 S7 3.467075 1_555
S0 Tm3 2.758687 1_455
S0 Tm3 2.758687 1_545
S1 Tm2 2.758687 1_565
S1 Tm2 2.758687 1_655
S2 Tm7 2.749934 1_545
S2 Tm7 2.749934 1_455
S2 Tm1 2.864363 1_555
S3 Tm6 2.749934 1_565
S3 Tm6 2.749934 1_655
S3 Tm0 2.864363 1_555
S4 Tm5 2.705956 1_555
S4 Tm7 2.708037 1_545
S4 Tm7 2.708037 1_455
S4 Tm6 2.758528 1_555
S5 Tm4 2.705956 1_555
S5 Tm6 2.708037 1_565
S5 Tm6 2.708037 1_655
S5 Tm7 2.758528 1_555
S6 Tm9 2.638172 1_455
S6 Tm9 2.638172 1_545
S6 Tm2 2.639049 1_555
S7 Tm8 2.638172 1_565
S7 Tm8 2.638172 1_655
S7 Tm3 2.639049 1_555
S8 Tm8 2.726084 1_555
S8 Tm4 2.778088 1_455
S8 Tm4 2.778088 1_545
S9 Tm9 2.726084 1_555
S9 Tm5 2.778088 1_655
S9 Tm5 2.778088 1_565
S10 Tm4 2.702555 1_555
S10 Tm8 2.756359 1_565
S10 Tm8 2.756359 1_655
S11 Tm5 2.702555 1_555
S11 Tm9 2.756359 1_545
S11 Tm9 2.756359 1_455
S12 Tm10 2.710667 1_566
S12 Tm10 2.710667 1_656
S12 Tm2 2.724074 1_555
S13 Tm10 2.710667 1_565
S13 Tm10 2.710667 1_655
S13 Tm3 2.724074 1_555
S14 Tm0 2.866133 1_545
S14 Tm0 2.866133 1_455
S15 Tm1 2.866133 1_655
S15 Tm1 2.866133 1_565
S16 Tm4 2.639237 1_455
S16 Tm4 2.639237 1_545
S16 Tm1 2.754683 1_556
S17 Tm5 2.639237 1_655
S17 Tm5 2.639237 1_565
S17 Tm0 2.754683 1_554
S18 Tm2 2.696091 1_545
S18 Tm2 2.696091 1_455
S18 Tm10 2.720035 1_556
S18 Tm8 2.747094 1_555
S19 Tm3 2.696091 1_655
S19 Tm3 2.696091 1_565
S19 Tm10 2.720035 1_665
S19 Tm9 2.747094 1_555
S20 Tm6 2.652543 1_555
S20 Tm0 2.680873 1_545
S20 Tm0 2.680873 1_455
S20 Tm1 2.857603 1_556
S21 Tm7 2.652543 1_555
S21 Tm1 2.680873 1_655
S21 Tm1 2.680873 1_565
S21 Tm0 2.857603 1_554
