# generated using pymatgen
data_Eu5Ge3
_symmetry_space_group_name_H-M   'P 1'
_cell_length_a   7.90489981
_cell_length_b   7.90490162
_cell_length_c   9.34911326
_cell_angle_alpha   115.00870256
_cell_angle_beta   115.00867615
_cell_angle_gamma   90.00221655
_symmetry_Int_Tables_number   1
_chemical_formula_structural   Eu5Ge3
_chemical_formula_sum   'Eu10 Ge6'
_cell_volume   468.28884990
_cell_formula_units_Z   2
loop_
 _symmetry_equiv_pos_site_id
 _symmetry_equiv_pos_as_xyz
  1  'x, y, z'
loop_
 _atom_site_type_symbol
 _atom_site_label
 _atom_site_symmetry_multiplicity
 _atom_site_fract_x
 _atom_site_fract_y
 _atom_site_fract_z
 _atom_site_occupancy
  Eu  Eu0  1  0.02990281  0.52989821  0.70827457  1
  Eu  Eu1  1  0.67840960  0.17841107  0.70823819  1
  Eu  Eu2  1  0.17836287  0.02984321  0.70828099  1
  Eu  Eu3  1  0.52983855  0.67835965  0.70828125  1
  Eu  Eu4  1  0.97009719  0.47010179  0.29172543  1
  Eu  Eu5  1  0.32158940  0.82158893  0.29176181  1
  Eu  Eu6  1  0.82163713  0.97015679  0.29171901  1
  Eu  Eu7  1  0.47016145  0.32164035  0.29171875  1
  Eu  Eu8  1  0.50000000  0.50000000  0.00000000  1
  Eu  Eu9  1  0.00000000  0.00000000  0.00000000  1
  Ge  Ge0  1  0.38547010  0.88546931  0.00006744  1
  Ge  Ge1  1  0.61452990  0.11453069  0.99993256  1
  Ge  Ge2  1  0.11457351  0.38542818  0.00000047  1
  Ge  Ge3  1  0.88542649  0.61457182  -0.00000047  1
  Ge  Ge4  1  0.25000320  0.24999650  0.50000042  1
  Ge  Ge5  1  0.74999780  0.75000350  0.49999958  1
loop_
_geom_bond_atom_site_label_1
_geom_bond_atom_site_label_2
_geom_bond_distance
_geom_bond_site_symmetry_2
Eu0 Ge0 3.205563 1_556
Eu0 Ge2 3.206388 1_556
Eu0 Ge3 3.206412 1_456
Eu0 Ge4 3.307001 1_555
Eu0 Ge5 3.307047 1_455
Eu1 Ge1 3.205561 1_555
Eu1 Ge3 3.206156 1_556
Eu1 Ge2 3.206175 1_656
Eu1 Ge4 3.306966 1_555
Eu1 Ge5 3.306983 1_545
Eu2 Ge2 3.205400 1_556
Eu2 Ge1 3.205979 1_555
Eu2 Ge0 3.206370 1_546
Eu2 Ge5 3.306616 1_445
Eu2 Ge4 3.307355 1_555
Eu3 Ge3 3.205401 1_556
Eu3 Ge1 3.205995 1_565
Eu3 Ge0 3.206339 1_556
Eu3 Ge4 3.306590 1_555
Eu3 Ge5 3.307411 1_555
Eu4 Ge1 3.205563 1_554
Eu4 Ge3 3.206388 1_555
Eu4 Ge2 3.206412 1_655
Eu4 Ge5 3.306995 1_555
Eu4 Ge4 3.307051 1_655
Eu5 Ge0 3.205566 1_555
Eu5 Ge2 3.206154 1_555
Eu5 Ge3 3.206170 1_455
Eu5 Ge4 3.306977 1_565
Eu5 Ge5 3.306978 1_555
Eu6 Ge3 3.205400 1_555
Eu6 Ge0 3.205979 1_555
Eu6 Ge1 3.206370 1_564
Eu6 Ge4 3.306622 1_665
Eu6 Ge5 3.307351 1_555
Eu7 Ge2 3.205401 1_555
Eu7 Ge0 3.205995 1_545
Eu7 Ge1 3.206339 1_554
Eu7 Ge5 3.306593 1_555
Eu7 Ge4 3.307405 1_555
Eu8 Ge2 3.178488 1_555
Eu8 Ge3 3.178488 1_555
Eu8 Ge1 3.178604 1_554
Eu8 Ge0 3.178604 1_555
Eu8 Ge5 3.747060 1_555
Eu8 Ge4 3.747060 1_554
Eu9 Ge3 3.178501 1_445
Eu9 Ge2 3.178501 1_555
Eu9 Ge0 3.178612 1_545
Eu9 Ge1 3.178612 1_454
Eu9 Ge4 3.747066 1_555
Eu9 Ge5 3.747066 1_444
Ge0 Ge1 2.561423 1_564
Ge2 Ge3 2.561715 1_455
