# generated using pymatgen
data_Sc4Te3N2
_symmetry_space_group_name_H-M   'P 1'
_cell_length_a   6.85909300
_cell_length_b   11.27105700
_cell_length_c   10.64992500
_cell_angle_alpha   90.00000000
_cell_angle_beta   90.00000000
_cell_angle_gamma   90.00000000
_symmetry_Int_Tables_number   1
_chemical_formula_structural   Sc4Te3N2
_chemical_formula_sum   'Sc16 Te12 N8'
_cell_volume   823.33748183
_cell_formula_units_Z   4
loop_
 _symmetry_equiv_pos_site_id
 _symmetry_equiv_pos_as_xyz
  1  'x, y, z'
loop_
 _atom_site_type_symbol
 _atom_site_label
 _atom_site_symmetry_multiplicity
 _atom_site_fract_x
 _atom_site_fract_y
 _atom_site_fract_z
 _atom_site_occupancy
  Sc  Sc0  1  0.57856700  0.25000000  0.87473700  1
  Sc  Sc1  1  0.07856700  0.25000000  0.62526300  1
  Sc  Sc2  1  0.42143300  0.75000000  0.12526300  1
  Sc  Sc3  1  0.92143300  0.75000000  0.37473700  1
  Sc  Sc4  1  0.82577300  0.25000000  0.39092600  1
  Sc  Sc5  1  0.32577300  0.25000000  0.10907400  1
  Sc  Sc6  1  0.17422700  0.75000000  0.60907400  1
  Sc  Sc7  1  0.67422700  0.75000000  0.89092600  1
  Sc  Sc8  1  0.69162700  0.48104900  0.06857100  1
  Sc  Sc9  1  0.19162700  0.01895100  0.43142900  1
  Sc  Sc10  1  0.30837300  0.98104900  0.93142900  1
  Sc  Sc11  1  0.80837300  0.51895100  0.56857100  1
  Sc  Sc12  1  0.30837300  0.51895100  0.93142900  1
  Sc  Sc13  1  0.80837300  0.98104900  0.56857100  1
  Sc  Sc14  1  0.69162700  0.01895100  0.06857100  1
  Sc  Sc15  1  0.19162700  0.48104900  0.43142900  1
  Te  Te0  1  0.89563000  0.25000000  0.12626300  1
  Te  Te1  1  0.39563000  0.25000000  0.37373700  1
  Te  Te2  1  0.10437000  0.75000000  0.87373700  1
  Te  Te3  1  0.60437000  0.75000000  0.62626300  1
  Te  Te4  1  0.58891400  0.56996200  0.32421000  1
  Te  Te5  1  0.08891400  0.93003800  0.17579000  1
  Te  Te6  1  0.41108600  0.06996200  0.67579000  1
  Te  Te7  1  0.91108600  0.43003800  0.82421000  1
  Te  Te8  1  0.41108600  0.43003800  0.67579000  1
  Te  Te9  1  0.91108600  0.06996200  0.82421000  1
  Te  Te10  1  0.58891400  0.93003800  0.32421000  1
  Te  Te11  1  0.08891400  0.56996200  0.17579000  1
  N  N0  1  0.54171900  0.62468700  0.99743000  1
  N  N1  1  0.04171900  0.87531300  0.50257000  1
  N  N2  1  0.45828100  0.12468700  0.00257000  1
  N  N3  1  0.95828100  0.37531300  0.49743000  1
  N  N4  1  0.45828100  0.37531300  0.00257000  1
  N  N5  1  0.95828100  0.12468700  0.49743000  1
  N  N6  1  0.54171900  0.87531300  0.99743000  1
  N  N7  1  0.04171900  0.62468700  0.50257000  1
loop_
_geom_bond_atom_site_label_1
_geom_bond_atom_site_label_2
_geom_bond_distance
_geom_bond_site_symmetry_2
Sc0 Te9 3.099878 1_555
Sc0 Te7 3.099878 1_555
Sc0 Te8 3.150648 1_555
Sc0 Te6 3.150648 1_555
Sc1 Te6 3.099878 1_555
Sc1 Te8 3.099878 1_555
Sc1 Te7 3.150648 1_455
Sc1 Te9 3.150648 1_455
Sc2 Te5 3.099878 1_555
Sc2 Te11 3.099878 1_555
Sc2 Te4 3.150648 1_555
Sc2 Te10 3.150648 1_555
Sc3 Te4 3.099878 1_555
Sc3 Te10 3.099878 1_555
Sc3 Te5 3.150648 1_655
Sc3 Te11 3.150648 1_655
Sc4 Te0 2.859078 1_555
Sc4 Te1 2.956065 1_555
Sc5 Te1 2.859078 1_555
Sc5 Te0 2.956065 1_455
Sc6 Te2 2.859078 1_555
Sc6 Te3 2.956065 1_555
Sc7 Te3 2.859078 1_555
Sc7 Te2 2.956065 1_655
Sc8 Te4 2.985438 1_555
Sc8 Te0 3.019464 1_555
Sc8 Te7 3.060896 1_554
Sc8 Te11 3.119928 1_655
Sc9 Te5 2.985438 1_545
Sc9 Te1 3.019464 1_555
Sc9 Te6 3.060896 1_555
Sc9 Te10 3.119928 1_545
Sc10 Te6 2.985438 1_565
Sc10 Te2 3.019464 1_555
Sc10 Te5 3.060896 1_556
Sc10 Te9 3.119928 1_465
Sc11 Te7 2.985438 1_555
Sc11 Te3 3.019464 1_555
Sc11 Te4 3.060896 1_555
Sc11 Te8 3.119928 1_555
Sc12 Te8 2.985438 1_555
Sc12 Te2 3.019464 1_555
Sc12 Te11 3.060896 1_556
Sc12 Te7 3.119928 1_455
Sc13 Te9 2.985438 1_565
Sc13 Te3 3.019464 1_555
Sc13 Te10 3.060896 1_555
Sc13 Te6 3.119928 1_565
Sc14 Te10 2.985438 1_545
Sc14 Te0 3.019464 1_555
Sc14 Te9 3.060896 1_554
Sc14 Te5 3.119928 1_645
Sc15 Te11 2.985438 1_555
Sc15 Te1 3.019464 1_555
Sc15 Te8 3.060896 1_555
Sc15 Te4 3.119928 1_555
N0 Sc7 2.026701 1_555
N0 Sc8 2.062110 1_556
N0 Sc12 2.115678 1_555
N0 Sc2 2.128158 1_556
N1 Sc6 2.026701 1_555
N1 Sc9 2.062110 1_565
N1 Sc13 2.115678 1_455
N1 Sc3 2.128158 1_455
N2 Sc5 2.026701 1_555
N2 Sc10 2.062110 1_544
N2 Sc14 2.115678 1_555
N2 Sc0 2.128158 1_554
N3 Sc4 2.026701 1_555
N3 Sc11 2.062110 1_555
N3 Sc15 2.115678 1_655
N3 Sc1 2.128158 1_655
N4 Sc5 2.026701 1_555
N4 Sc12 2.062110 1_554
N4 Sc8 2.115678 1_555
N4 Sc0 2.128158 1_554
N5 Sc4 2.026701 1_555
N5 Sc13 2.062110 1_545
N5 Sc9 2.115678 1_655
N5 Sc1 2.128158 1_655
N6 Sc7 2.026701 1_555
N6 Sc14 2.062110 1_566
N6 Sc10 2.115678 1_555
N6 Sc2 2.128158 1_556
N7 Sc6 2.026701 1_555
N7 Sc15 2.062110 1_555
N7 Sc11 2.115678 1_455
N7 Sc3 2.128158 1_455
