# generated using pymatgen
data_Te3MoWS
_symmetry_space_group_name_H-M   'P 1'
_cell_length_a   3.45797954
_cell_length_b   3.45797954
_cell_length_c   39.31681900
_cell_angle_alpha   90.00000000
_cell_angle_beta   90.00000000
_cell_angle_gamma   119.99999129
_symmetry_Int_Tables_number   1
_chemical_formula_structural   Te3MoWS
_chemical_formula_sum   'Te6 Mo2 W2 S2'
_cell_volume   407.14947848
_cell_formula_units_Z   2
loop_
 _symmetry_equiv_pos_site_id
 _symmetry_equiv_pos_as_xyz
  1  'x, y, z'
loop_
 _atom_site_type_symbol
 _atom_site_label
 _atom_site_symmetry_multiplicity
 _atom_site_fract_x
 _atom_site_fract_y
 _atom_site_fract_z
 _atom_site_occupancy
  Te  Te0  1  0.00000000  0.00000000  0.32870700  1
  Te  Te1  1  0.00000000  0.00000000  0.70478900  1
  Te  Te2  1  0.33333300  0.66666700  0.42241300  1
  Te  Te3  1  0.33333300  0.66666700  0.51687300  1
  Te  Te4  1  0.00000000  0.00000000  0.23476500  1
  Te  Te5  1  0.00000000  0.00000000  0.61032000  1
  Mo  Mo0  1  0.00000000  0.00000000  0.09396200  1
  Mo  Mo1  1  0.33333300  0.66666700  0.28175500  1
  W  W0  1  0.00000000  0.00000000  0.46967200  1
  W  W1  1  0.33333300  0.66666700  0.65758400  1
  S  S0  1  0.33333300  0.66666700  0.05605600  1
  S  S1  1  0.33333300  0.66666700  0.13185200  1
loop_
_geom_bond_atom_site_label_1
_geom_bond_atom_site_label_2
_geom_bond_distance
_geom_bond_site_symmetry_2
Te1 W1 2.725879 1_545
Te1 W1 2.725882 1_445
Te1 W1 2.725882 1_555
Te2 W0 2.727325 1_565
Te2 W0 2.727328 1_555
Te2 W0 2.727328 1_665
Te3 W0 2.725772 1_565
Te3 W0 2.725775 1_665
Te3 W0 2.725775 1_555
Te5 W1 2.727459 1_545
Te5 W1 2.727462 1_445
Te5 W1 2.727462 1_555
Mo0 S1 2.491007 1_545
Mo0 S1 2.491009 1_555
Mo0 S1 2.491009 1_445
Mo0 S0 2.491383 1_545
Mo0 S0 2.491386 1_555
Mo0 S0 2.491386 1_445
Mo1 Te0 2.719116 1_565
Mo1 Te0 2.719119 1_555
Mo1 Te0 2.719119 1_665
Mo1 Te4 2.720131 1_565
Mo1 Te4 2.720133 1_665
Mo1 Te4 2.720133 1_555
