# generated using pymatgen
data_Ca2FeSbO6
_symmetry_space_group_name_H-M   'P 1'
_cell_length_a   7.80565400
_cell_length_b   5.50292200
_cell_length_c   5.65099054
_cell_angle_alpha   89.81791216
_cell_angle_beta   90.00000000
_cell_angle_gamma   90.00000000
_symmetry_Int_Tables_number   1
_chemical_formula_structural   Ca2FeSbO6
_chemical_formula_sum   'Ca4 Fe2 Sb2 O12'
_cell_volume   242.73088559
_cell_formula_units_Z   2
loop_
 _symmetry_equiv_pos_site_id
 _symmetry_equiv_pos_as_xyz
  1  'x, y, z'
loop_
 _atom_site_type_symbol
 _atom_site_label
 _atom_site_symmetry_multiplicity
 _atom_site_fract_x
 _atom_site_fract_y
 _atom_site_fract_z
 _atom_site_occupancy
  Ca  Ca0  1  0.75000000  0.48092600  0.56465000  1
  Ca  Ca1  1  0.25000000  0.51907400  0.43535000  1
  Ca  Ca2  1  0.75000000  0.99913900  0.04122200  1
  Ca  Ca3  1  0.25000000  0.00086100  0.95877800  1
  Fe  Fe0  1  0.50000000  0.50000000  0.00000000  1
  Fe  Fe1  1  0.00000000  0.50000000  0.00000000  1
  Sb  Sb0  1  0.50000000  0.00000000  0.50000000  1
  Sb  Sb1  1  0.00000000  0.00000000  0.50000000  1
  O  O0  1  0.45138500  0.70667300  0.69673900  1
  O  O1  1  0.04982200  0.80716500  0.20893900  1
  O  O2  1  0.95138500  0.29332700  0.30326100  1
  O  O3  1  0.54982200  0.19283500  0.79106100  1
  O  O4  1  0.45017800  0.80716500  0.20893900  1
  O  O5  1  0.95017800  0.19283500  0.79106100  1
  O  O6  1  0.25000000  0.10384100  0.53518600  1
  O  O7  1  0.04861500  0.70667300  0.69673900  1
  O  O8  1  0.75000000  0.58205900  0.97082800  1
  O  O9  1  0.54861500  0.29332700  0.30326100  1
  O  O10  1  0.75000000  0.89615900  0.46481400  1
  O  O11  1  0.25000000  0.41794100  0.02917200  1
loop_
_geom_bond_atom_site_label_1
_geom_bond_atom_site_label_2
_geom_bond_distance
_geom_bond_site_symmetry_2
Ca0 O10 2.351871 1_555
Ca0 O8 2.363531 1_555
Ca0 O2 2.393380 1_555
Ca0 O9 2.393380 1_555
Ca0 O5 2.564931 1_555
Ca0 O3 2.564931 1_555
Ca0 O0 2.745781 1_555
Ca0 O7 2.745781 1_655
Ca1 O6 2.351871 1_555
Ca1 O11 2.363531 1_555
Ca1 O0 2.393380 1_555
Ca1 O7 2.393380 1_555
Ca1 O4 2.564931 1_555
Ca1 O1 2.564931 1_555
Ca1 O9 2.745781 1_555
Ca1 O2 2.745781 1_455
Ca2 O8 2.330622 1_554
Ca2 O5 2.359332 1_564
Ca2 O3 2.359332 1_564
Ca2 O10 2.458126 1_555
Ca2 O9 2.701807 1_565
Ca2 O2 2.701807 1_565
Ca2 O4 2.735864 1_555
Ca2 O1 2.735864 1_655
Ca3 O11 2.330622 1_556
Ca3 O4 2.359332 1_546
Ca3 O1 2.359332 1_546
Ca3 O6 2.458126 1_555
Ca3 O0 2.701807 1_545
Ca3 O7 2.701807 1_545
Ca3 O3 2.735864 1_555
Ca3 O5 2.735864 1_455
Fe0 O8 2.009634 1_554
Fe0 O11 2.009634 1_555
Fe0 O9 2.088523 1_555
Fe0 O0 2.088523 1_554
Fe0 O3 2.101222 1_554
Fe0 O4 2.101222 1_555
Fe1 O8 2.009634 1_454
Fe1 O11 2.009634 1_555
Fe1 O7 2.088523 1_554
Fe1 O2 2.088523 1_455
Fe1 O5 2.101222 1_454
Fe1 O1 2.101222 1_555
O0 Sb0 1.993520 1_565
O1 Sb1 1.998423 1_565
O2 Sb1 1.993520 1_655
O3 Sb0 1.998423 1_555
O4 Sb0 1.998423 1_565
O5 Sb1 1.998423 1_655
O6 Sb0 2.043234 1_555
O6 Sb1 2.043234 1_555
O7 Sb1 1.993520 1_565
O9 Sb0 1.993520 1_555
O10 Sb0 2.043234 1_565
O10 Sb1 2.043234 1_665
