# generated using pymatgen
data_Ca4MnFe3(SiO3)10
_symmetry_space_group_name_H-M   'P 1'
_cell_length_a   6.70475854
_cell_length_b   7.51629580
_cell_length_c   11.85731624
_cell_angle_alpha   103.58405729
_cell_angle_beta   92.95111408
_cell_angle_gamma   93.63983968
_symmetry_Int_Tables_number   1
_chemical_formula_structural   Ca4MnFe3(SiO3)10
_chemical_formula_sum   'Ca4 Mn1 Fe3 Si10 O30'
_cell_volume   578.30229654
_cell_formula_units_Z   1
loop_
 _symmetry_equiv_pos_site_id
 _symmetry_equiv_pos_as_xyz
  1  'x, y, z'
loop_
 _atom_site_type_symbol
 _atom_site_label
 _atom_site_symmetry_multiplicity
 _atom_site_fract_x
 _atom_site_fract_y
 _atom_site_fract_z
 _atom_site_occupancy
  Ca  Ca0  1  0.84227900  0.21416000  0.04996700  1
  Ca  Ca1  1  0.15948800  0.79024400  0.95384100  1
  Ca  Ca2  1  0.70377800  0.77021900  0.48065100  1
  Ca  Ca3  1  0.29876900  0.23132600  0.51739400  1
  Mn  Mn0  1  0.93294500  0.40522400  0.35218400  1
  Fe  Fe0  1  0.81222600  0.95505400  0.76866200  1
  Fe  Fe1  1  0.18231300  0.04540900  0.23118700  1
  Fe  Fe2  1  0.06638800  0.59468000  0.64924000  1
  Si  Si0  1  0.79090100  0.19448400  0.55627600  1
  Si  Si1  1  0.20959800  0.80857600  0.44637200  1
  Si  Si2  1  0.57703600  0.53603400  0.68649300  1
  Si  Si3  1  0.42079100  0.46531800  0.31297200  1
  Si  Si4  1  0.65726500  0.71514700  0.94472000  1
  Si  Si5  1  0.34441300  0.28451400  0.05391200  1
  Si  Si6  1  0.88317000  0.67469600  0.16379000  1
  Si  Si7  1  0.11583500  0.32428500  0.83601500  1
  Si  Si8  1  0.68472700  0.01417700  0.28522000  1
  Si  Si9  1  0.31610600  0.98298900  0.71176600  1
  O  O0  1  0.63984000  0.45175700  0.37801700  1
  O  O1  1  0.35608100  0.54847200  0.62322400  1
  O  O2  1  0.87158900  0.13172000  0.24535100  1
  O  O3  1  0.12699000  0.85587500  0.74421500  1
  O  O4  1  0.97358200  0.33611800  0.53332500  1
  O  O5  1  0.03233800  0.67489000  0.48092400  1
  O  O6  1  0.76358900  0.66818700  0.65464700  1
  O  O7  1  0.23470000  0.33209900  0.34509800  1
  O  O8  1  0.61852200  0.31844800  0.62266800  1
  O  O9  1  0.37734600  0.68213500  0.37682100  1
  O  O10  1  0.84793300  0.03268900  0.61767300  1
  O  O11  1  0.14592100  0.96830200  0.38435000  1
  O  O12  1  0.77145900  0.60097000  0.03178600  1
  O  O13  1  0.22973900  0.39971600  0.96704700  1
  O  O14  1  0.93691000  0.49196500  0.20562500  1
  O  O15  1  0.06577100  0.50658200  0.79076100  1
  O  O16  1  0.52838300  0.94939100  0.76492000  1
  O  O17  1  0.46701000  0.04650500  0.23788300  1
  O  O18  1  0.58034500  0.55733000  0.82518400  1
  O  O19  1  0.42083300  0.44108600  0.17393000  1
  O  O20  1  0.47480000  0.81134100  0.00671400  1
  O  O21  1  0.52776900  0.18849400  0.99269600  1
  O  O22  1  0.74109500  0.79617000  0.26165700  1
  O  O23  1  0.25542500  0.19894800  0.73883200  1
  O  O24  1  0.82930800  0.86210100  0.91420800  1
  O  O25  1  0.17288800  0.13593400  0.08294500  1
  O  O26  1  0.92250300  0.19540600  0.85543700  1
  O  O27  1  0.07651300  0.80454100  0.14479900  1
  O  O28  1  0.67659200  0.07313200  0.43133900  1
  O  O29  1  0.33619600  0.93315800  0.56726200  1
loop_
_geom_bond_atom_site_label_1
_geom_bond_atom_site_label_2
_geom_bond_distance
_geom_bond_site_symmetry_2
Ca0 O21 2.164348 1_554
Ca0 O25 2.365671 1_655
Ca0 O26 2.369441 1_554
Ca0 O14 2.463735 1_555
Ca0 O2 2.536284 1_555
Ca0 O24 2.748910 1_544
Ca1 O20 2.159128 1_556
Ca1 O27 2.338990 1_556
Ca1 O24 2.361626 1_455
Ca1 O15 2.539275 1_555
Ca1 O3 2.646299 1_555
Ca1 O25 2.681506 1_566
Ca2 O10 2.357197 1_565
Ca2 O5 2.359453 1_655
Ca2 O6 2.387998 1_555
Ca2 O0 2.417022 1_555
Ca2 O9 2.428973 1_555
Ca2 O28 2.495179 1_565
Ca2 O22 2.672457 1_555
Ca2 O29 2.946455 1_555
Ca3 O11 2.357659 1_545
Ca3 O4 2.366504 1_455
Ca3 O7 2.368502 1_555
Ca3 O8 2.396950 1_555
Ca3 O1 2.415278 1_555
Ca3 O29 2.472618 1_545
Ca3 O23 2.721676 1_555
Ca3 O28 2.991791 1_555
Mn0 O14 1.995114 1_555
Mn0 O0 2.043792 1_555
Mn0 O7 2.130603 1_655
Mn0 O2 2.148407 1_555
Mn0 O5 2.270010 1_655
Mn0 O4 2.332177 1_555
Fe0 O16 1.898868 1_555
Fe0 O26 1.935953 1_565
Fe0 O24 2.008924 1_555
Fe0 O10 2.029832 1_565
Fe0 O6 2.253698 1_555
Fe0 O3 2.292342 1_655
Fe1 O17 1.905800 1_555
Fe1 O27 1.929019 1_545
Fe1 O25 2.027925 1_555
Fe1 O11 2.053228 1_545
Fe1 O2 2.223911 1_455
Fe1 O7 2.253648 1_555
Fe2 O15 1.943373 1_555
Fe2 O1 2.021242 1_555
Fe2 O3 2.024992 1_555
Fe2 O4 2.134676 1_455
Fe2 O6 2.137811 1_455
Fe2 O5 2.221367 1_555
O0 Si3 1.643632 1_555
O1 Si2 1.643876 1_555
O2 Si8 1.640226 1_555
O3 Si9 1.654612 1_555
O4 Si0 1.646943 1_555
O5 Si1 1.637652 1_555
O6 Si2 1.661563 1_555
O7 Si3 1.665522 1_555
O8 Si0 1.646065 1_555
O8 Si2 1.680122 1_555
O9 Si1 1.646614 1_555
O9 Si3 1.678460 1_555
O10 Si0 1.612873 1_555
O11 Si1 1.616141 1_555
O12 Si6 1.654424 1_555
O12 Si4 1.675320 1_554
O13 Si7 1.651571 1_555
O13 Si5 1.680393 1_556
O14 Si6 1.620727 1_555
O15 Si7 1.631952 1_555
O16 Si9 1.585789 1_555
O17 Si8 1.590492 1_555
O18 Si2 1.613272 1_555
O18 Si4 1.655078 1_555
O19 Si3 1.615633 1_555
O19 Si5 1.653581 1_555
O20 Si4 1.585882 1_554
O21 Si5 1.586668 1_556
O22 Si8 1.667444 1_565
O22 Si6 1.677560 1_555
O23 Si9 1.660099 1_545
O23 Si7 1.674621 1_555
O24 Si4 1.658438 1_555
O25 Si5 1.657274 1_555
O26 Si7 1.627190 1_655
O27 Si6 1.629813 1_455
O28 Si0 1.665398 1_555
O28 Si8 1.689177 1_555
O29 Si1 1.671921 1_555
O29 Si9 1.680172 1_555
