# generated using pymatgen
data_Zr4Cr
_symmetry_space_group_name_H-M   'P 1'
_cell_length_a   6.89604757
_cell_length_b   6.89604757
_cell_length_c   6.89604757
_cell_angle_alpha   60.00000000
_cell_angle_beta   60.00000000
_cell_angle_gamma   60.00000000
_symmetry_Int_Tables_number   1
_chemical_formula_structural   Zr4Cr
_chemical_formula_sum   'Zr8 Cr2'
_cell_volume   231.89199031
_cell_formula_units_Z   2
loop_
 _symmetry_equiv_pos_site_id
 _symmetry_equiv_pos_as_xyz
  1  'x, y, z'
loop_
 _atom_site_type_symbol
 _atom_site_label
 _atom_site_symmetry_multiplicity
 _atom_site_fract_x
 _atom_site_fract_y
 _atom_site_fract_z
 _atom_site_occupancy
  Zr  Zr0  1  0.60882600  0.60882600  0.60882600  1
  Zr  Zr1  1  0.17352100  0.60882600  0.60882600  1
  Zr  Zr2  1  0.60882600  0.17352100  0.60882600  1
  Zr  Zr3  1  0.57647900  0.14117400  0.14117400  1
  Zr  Zr4  1  0.14117400  0.14117400  0.14117400  1
  Zr  Zr5  1  0.60882600  0.60882600  0.17352100  1
  Zr  Zr6  1  0.14117400  0.57647900  0.14117400  1
  Zr  Zr7  1  0.14117400  0.14117400  0.57647900  1
  Cr  Cr0  1  0.00000000  0.00000000  0.00000000  1
  Cr  Cr1  1  0.75000000  0.75000000  0.75000000  1
loop_
_geom_bond_atom_site_label_1
_geom_bond_atom_site_label_2
_geom_bond_distance
_geom_bond_site_symmetry_2
Cr0 Zr7 2.384677 1_554
Cr0 Zr6 2.384677 1_545
Cr0 Zr3 2.384677 1_455
Cr0 Zr4 2.384683 1_555
Cr1 Zr2 2.384677 1_565
Cr1 Zr1 2.384677 1_655
Cr1 Zr5 2.384677 1_556
Cr1 Zr0 2.384683 1_555
