# generated using pymatgen
data_Ti3Cr17Si12
_symmetry_space_group_name_H-M   'P 1'
_cell_length_a   4.63724700
_cell_length_b   6.88883515
_cell_length_c   12.97819544
_cell_angle_alpha   90.00000000
_cell_angle_beta   90.00000000
_cell_angle_gamma   109.66845892
_symmetry_Int_Tables_number   1
_chemical_formula_structural   Ti3Cr17Si12
_chemical_formula_sum   'Ti3 Cr17 Si12'
_cell_volume   390.40250524
_cell_formula_units_Z   1
loop_
 _symmetry_equiv_pos_site_id
 _symmetry_equiv_pos_as_xyz
  1  'x, y, z'
loop_
 _atom_site_type_symbol
 _atom_site_label
 _atom_site_symmetry_multiplicity
 _atom_site_fract_x
 _atom_site_fract_y
 _atom_site_fract_z
 _atom_site_occupancy
  Ti  Ti0  1  0.99971400  0.50000000  0.75000000  1
  Ti  Ti1  1  0.99936400  0.50000000  0.25000000  1
  Ti  Ti2  1  0.49962600  0.50000000  0.75000000  1
  Cr  Cr0  1  0.92447100  0.84434100  0.35006000  1
  Cr  Cr1  1  0.42206800  0.84462500  0.85237000  1
  Cr  Cr2  1  0.58013000  0.15565900  0.14994000  1
  Cr  Cr3  1  0.07744200  0.15537500  0.64763000  1
  Cr  Cr4  1  0.14651600  0.29651600  0.07890900  1
  Cr  Cr5  1  0.64783200  0.29602000  0.57626300  1
  Cr  Cr6  1  0.35000000  0.70348400  0.42109100  1
  Cr  Cr7  1  0.85181200  0.70398000  0.92373700  1
  Cr  Cr8  1  0.35000000  0.70348400  0.07890900  1
  Cr  Cr9  1  0.85181200  0.70398000  0.57626300  1
  Cr  Cr10  1  0.14651600  0.29651600  0.42109100  1
  Cr  Cr11  1  0.64783200  0.29602000  0.92373700  1
  Cr  Cr12  1  0.58013000  0.15565900  0.35006000  1
  Cr  Cr13  1  0.07744200  0.15537500  0.85237000  1
  Cr  Cr14  1  0.92447100  0.84434100  0.14994000  1
  Cr  Cr15  1  0.42206800  0.84462500  0.64763000  1
  Cr  Cr16  1  0.50060000  0.50000000  0.25000000  1
  Si  Si0  1  0.25031300  0.00074700  0.00066400  1
  Si  Si1  1  0.74956600  0.99925300  0.49933600  1
  Si  Si2  1  0.74956600  0.99925300  0.00066400  1
  Si  Si3  1  0.25031300  0.00074700  0.49933600  1
  Si  Si4  1  0.74116700  0.50000000  0.07793600  1
  Si  Si5  1  0.24850400  0.50000000  0.57453300  1
  Si  Si6  1  0.74116700  0.50000000  0.42206400  1
  Si  Si7  1  0.24850400  0.50000000  0.92546700  1
  Si  Si8  1  0.43296900  0.84508500  0.25000000  1
  Si  Si9  1  0.92510500  0.85001100  0.75000000  1
  Si  Si10  1  0.08788300  0.15491500  0.25000000  1
  Si  Si11  1  0.57509400  0.14998900  0.75000000  1
loop_
_geom_bond_atom_site_label_1
_geom_bond_atom_site_label_2
_geom_bond_distance
_geom_bond_site_symmetry_2
Ti0 Ti2 2.318215 1_655
Ti0 Ti2 2.319032 1_555
Cr0 Si10 2.397219 1_665
Cr0 Si6 2.421855 1_555
Cr0 Si3 2.470100 1_665
Cr0 Si1 2.476407 1_555
Cr0 Si8 2.624704 1_555
Cr0 Si8 2.690457 1_655
Cr0 Ti1 2.826382 1_555
Cr1 Si11 2.385155 1_565
Cr1 Si7 2.428517 1_555
Cr1 Si2 2.460925 1_556
Cr1 Si0 2.464088 1_566
Cr1 Si9 2.671135 1_455
Cr1 Si9 2.673903 1_555
Cr1 Ti2 2.847003 1_555
Cr1 Ti0 2.847326 1_455
Cr2 Si8 2.397219 1_545
Cr2 Si4 2.421855 1_555
Cr2 Si2 2.470100 1_545
Cr2 Si0 2.476408 1_555
Cr2 Si10 2.624709 1_555
Cr2 Si10 2.690453 1_655
Cr2 Ti1 2.826382 1_555
Cr3 Si9 2.385155 1_445
Cr3 Si5 2.428517 1_555
Cr3 Si3 2.460927 1_555
Cr3 Si1 2.464086 1_445
Cr3 Si11 2.671131 1_455
Cr3 Si11 2.673907 1_555
Cr3 Ti2 2.847005 1_555
Cr3 Ti0 2.847324 1_455
Cr4 Si7 2.389149 1_554
Cr4 Si10 2.403608 1_555
Cr4 Si0 2.464645 1_555
Cr4 Si2 2.464873 1_445
Cr4 Si4 2.639531 1_555
Cr4 Si4 2.696682 1_455
Cr4 Ti1 2.829294 1_455
Cr5 Si6 2.399452 1_555
Cr5 Si11 2.445701 1_555
Cr5 Si3 2.451181 1_555
Cr5 Si1 2.459275 1_545
Cr5 Si5 2.664409 1_655
Cr5 Si5 2.675025 1_555
Cr5 Ti0 2.859684 1_555
Cr5 Ti2 2.860255 1_555
Cr6 Si5 2.389149 1_555
Cr6 Si8 2.403608 1_555
Cr6 Si1 2.464645 1_555
Cr6 Si3 2.464873 1_565
Cr6 Si6 2.639531 1_555
Cr6 Si6 2.696682 1_455
Cr6 Ti1 2.829294 1_455
Cr7 Si4 2.399452 1_556
Cr7 Si9 2.445701 1_555
Cr7 Si2 2.451181 1_556
Cr7 Si0 2.459275 1_666
Cr7 Si7 2.664409 1_655
Cr7 Si7 2.675025 1_555
Cr7 Ti0 2.859684 1_555
Cr7 Ti2 2.860256 1_555
Cr8 Si7 2.389149 1_554
Cr8 Si8 2.403608 1_555
Cr8 Si2 2.464645 1_555
Cr8 Si0 2.464873 1_565
Cr8 Si4 2.639531 1_555
Cr8 Si4 2.696682 1_455
Cr8 Ti1 2.829294 1_455
Cr9 Si6 2.399452 1_555
Cr9 Si9 2.445701 1_555
Cr9 Si1 2.451181 1_555
Cr9 Si3 2.459275 1_665
Cr9 Si5 2.664409 1_655
Cr9 Si5 2.675025 1_555
Cr9 Ti0 2.859684 1_555
Cr9 Ti2 2.860256 1_555
Cr10 Si5 2.389149 1_555
Cr10 Si10 2.403608 1_555
Cr10 Si3 2.464645 1_555
Cr10 Si1 2.464873 1_445
Cr10 Si6 2.639531 1_555
Cr10 Si6 2.696682 1_455
Cr10 Ti1 2.829294 1_455
Cr11 Si4 2.399452 1_556
Cr11 Si11 2.445701 1_555
Cr11 Si0 2.451181 1_556
Cr11 Si2 2.459275 1_546
Cr11 Si7 2.664409 1_655
Cr11 Si7 2.675025 1_555
Cr11 Ti0 2.859684 1_555
Cr11 Ti2 2.860255 1_555
Cr12 Si8 2.397219 1_545
Cr12 Si6 2.421855 1_555
Cr12 Si1 2.470100 1_545
Cr12 Si3 2.476408 1_555
Cr12 Si10 2.624709 1_555
Cr12 Si10 2.690453 1_655
Cr12 Ti1 2.826382 1_555
Cr13 Si9 2.385155 1_445
Cr13 Si7 2.428517 1_555
Cr13 Si0 2.460927 1_556
Cr13 Si2 2.464086 1_446
Cr13 Si11 2.671131 1_455
Cr13 Si11 2.673907 1_555
Cr13 Ti2 2.847005 1_555
Cr13 Ti0 2.847324 1_455
Cr14 Si10 2.397219 1_665
Cr14 Si4 2.421855 1_555
Cr14 Si0 2.470100 1_665
Cr14 Si2 2.476407 1_555
Cr14 Si8 2.624704 1_555
Cr14 Si8 2.690457 1_655
Cr14 Ti1 2.826382 1_555
Cr15 Si11 2.385155 1_565
Cr15 Si5 2.428517 1_555
Cr15 Si1 2.460925 1_555
Cr15 Si3 2.464088 1_565
Cr15 Si9 2.671135 1_455
Cr15 Si9 2.673903 1_555
Cr15 Ti2 2.847003 1_555
Cr15 Ti0 2.847326 1_455
Cr16 Ti1 2.312892 1_555
Cr16 Ti1 2.324355 1_455
Cr16 Si4 2.496225 1_555
Cr16 Si6 2.496225 1_555
Cr16 Si8 2.500294 1_555
Cr16 Si10 2.500296 1_555
Si0 Si2 2.318644 1_545
Si0 Si2 2.318644 1_445
Si1 Si3 2.318644 1_565
Si1 Si3 2.318644 1_665
Si4 Ti1 2.533817 1_555
Si5 Ti0 2.552816 1_455
Si5 Ti2 2.557722 1_555
Si6 Ti1 2.533817 1_555
Si7 Ti0 2.552816 1_455
Si7 Ti2 2.557722 1_555
Si8 Ti1 2.544921 1_455
Si9 Ti0 2.548527 1_555
Si9 Ti2 2.550339 1_555
Si10 Ti1 2.544919 1_455
Si11 Ti0 2.548527 1_555
Si11 Ti2 2.550339 1_555
