# generated using pymatgen
data_Er2Ga3Co
_symmetry_space_group_name_H-M   'P 1'
_cell_length_a   6.87798779
_cell_length_b   8.67249883
_cell_length_c   8.67250188
_cell_angle_alpha   119.99949539
_cell_angle_beta   89.99995469
_cell_angle_gamma   90.00019552
_symmetry_Int_Tables_number   1
_chemical_formula_structural   Er2Ga3Co
_chemical_formula_sum   'Er8 Ga12 Co4'
_cell_volume   448.00503288
_cell_formula_units_Z   4
loop_
 _symmetry_equiv_pos_site_id
 _symmetry_equiv_pos_as_xyz
  1  'x, y, z'
loop_
 _atom_site_type_symbol
 _atom_site_label
 _atom_site_symmetry_multiplicity
 _atom_site_fract_x
 _atom_site_fract_y
 _atom_site_fract_z
 _atom_site_occupancy
  Er  Er0  1  0.75000052  0.00000058  -0.00000051  1
  Er  Er1  1  0.24999729  0.00000041  -0.00000279  1
  Er  Er2  1  0.74999811  0.47919986  0.52079995  1
  Er  Er3  1  0.25000037  0.52080675  0.47919261  1
  Er  Er4  1  0.74999847  0.04159980  0.52080194  1
  Er  Er5  1  0.25000172  0.95838384  0.47919163  1
  Er  Er6  1  0.74999871  0.47919938  0.95839977  1
  Er  Er7  1  0.25000012  0.52081167  0.04161968  1
  Ga  Ga0  1  0.95515133  0.82798218  0.17201734  1
  Ga  Ga1  1  0.04484805  0.17201303  0.82798698  1
  Ga  Ga2  1  0.95515412  0.34403353  0.17201678  1
  Ga  Ga3  1  0.45515506  0.17201471  0.82799090  1
  Ga  Ga4  1  0.04484691  0.65597668  0.82798911  1
  Ga  Ga5  1  0.54484896  0.82798306  0.17201736  1
  Ga  Ga6  1  0.95515896  0.82797937  0.65596764  1
  Ga  Ga7  1  0.45515328  0.65597961  0.82798994  1
  Ga  Ga8  1  0.04484492  0.17200929  0.34401962  1
  Ga  Ga9  1  0.54484640  0.34403299  0.17201847  1
  Ga  Ga10  1  0.45515382  0.17200949  0.34401989  1
  Ga  Ga11  1  0.54484589  0.82798358  0.65596730  1
  Co  Co0  1  0.99660008  0.66666702  0.33333489  1
  Co  Co1  1  0.00340470  0.33333226  0.66666263  1
  Co  Co2  1  0.49659605  0.33333342  0.66666605  1
  Co  Co3  1  0.50339718  0.66666548  0.33333281  1
loop_
_geom_bond_atom_site_label_1
_geom_bond_atom_site_label_2
_geom_bond_distance
_geom_bond_site_symmetry_2
Er0 Ga5 2.944073 1_545
Er0 Ga2 2.944079 1_555
Er0 Ga11 2.944081 1_544
Er0 Ga0 2.944082 1_545
Er0 Ga9 2.944086 1_555
Er0 Ga6 2.944094 1_544
Er0 Ga8 3.284601 1_655
Er0 Ga3 3.284611 1_554
Er0 Ga7 3.284614 1_544
Er0 Ga10 3.284616 1_555
Er0 Ga1 3.284625 1_654
Er0 Ga4 3.284638 1_644
Er1 Ga1 2.943989 1_554
Er1 Ga3 2.943996 1_554
Er1 Ga4 2.944008 1_544
Er1 Ga8 2.944012 1_555
Er1 Ga7 2.944016 1_544
Er1 Ga10 2.944025 1_555
Er1 Ga6 3.284631 1_444
Er1 Ga2 3.284679 1_455
Er1 Ga11 3.284680 1_544
Er1 Ga9 3.284690 1_555
Er1 Ga0 3.284697 1_445
Er1 Ga5 3.284724 1_545
Er2 Ga9 2.994807 1_555
Er2 Ga6 2.994818 1_555
Er2 Ga11 2.994829 1_555
Er2 Ga2 2.994835 1_555
Er2 Ga10 3.078325 1_555
Er2 Ga7 3.078333 1_555
Er2 Ga4 3.078341 1_655
Er2 Ga8 3.078348 1_655
Er3 Ga7 2.994917 1_555
Er3 Ga4 2.994918 1_555
Er3 Ga8 2.994922 1_555
Er3 Ga10 2.994923 1_555
Er3 Ga6 3.078225 1_455
Er3 Ga9 3.078251 1_555
Er3 Ga11 3.078255 1_555
Er3 Ga2 3.078256 1_455
Er4 Ga11 2.994795 1_545
Er4 Ga5 2.994825 1_545
Er4 Ga0 2.994841 1_545
Er4 Ga6 2.994859 1_545
Er4 Ga3 3.078315 1_555
Er4 Ga1 3.078318 1_655
Er4 Ga10 3.078330 1_555
Er4 Ga8 3.078332 1_655
Er5 Ga10 2.994898 1_565
Er5 Ga1 2.994920 1_565
Er5 Ga8 2.994921 1_565
Er5 Ga3 2.994941 1_565
Er5 Ga11 3.078239 1_555
Er5 Ga6 3.078251 1_455
Er5 Ga5 3.078253 1_555
Er5 Ga0 3.078265 1_455
Er6 Ga2 2.994819 1_556
Er6 Ga9 2.994819 1_556
Er6 Ga0 2.994822 1_556
Er6 Ga5 2.994827 1_556
Er6 Ga3 3.078287 1_555
Er6 Ga4 3.078315 1_655
Er6 Ga7 3.078324 1_555
Er6 Ga1 3.078331 1_655
Er7 Ga4 2.994902 1_554
Er7 Ga7 2.994909 1_554
Er7 Ga1 2.994932 1_554
Er7 Ga3 2.994935 1_554
Er7 Ga5 3.078238 1_555
Er7 Ga2 3.078238 1_455
Er7 Ga0 3.078243 1_455
Er7 Ga9 3.078260 1_555
Ga0 Ga8 2.656487 1_665
Ga0 Ga4 2.656502 1_654
Ga0 Ga5 2.822055 1_555
Ga1 Ga2 2.656511 1_456
Ga1 Ga6 2.656528 1_445
Ga1 Ga3 2.822087 1_555
Ga2 Ga8 2.656467 1_655
Ga2 Ga9 2.822091 1_555
Ga3 Ga9 2.656489 1_556
Ga4 Ga6 2.656442 1_455
Ga4 Ga7 2.822082 1_555
Ga5 Ga7 2.656495 1_554
Ga10 Ga9 2.656452 1_555
Ga10 Ga5 2.656489 1_545
Ga10 Ga8 2.822100 1_555
Ga11 Ga7 2.656464 1_555
Ga11 Ga3 2.656516 1_565
Ga11 Ga6 2.822128 1_555
Co0 Ga0 2.439874 1_555
Co0 Ga6 2.439887 1_555
Co0 Ga2 2.439894 1_555
Co0 Er7 2.799642 1_655
Co0 Er3 2.799648 1_655
Co0 Er5 2.799651 1_655
Co0 Er2 3.287317 1_555
Co0 Er4 3.287346 1_565
Co0 Er6 3.287354 1_554
Co1 Ga1 2.439951 1_555
Co1 Ga8 2.439962 1_555
Co1 Ga4 2.439972 1_555
Co1 Er2 2.799747 1_455
Co1 Er4 2.799763 1_455
Co1 Er6 2.799796 1_455
Co1 Er3 3.287374 1_555
Co1 Er5 3.287430 1_545
Co1 Er7 3.287474 1_556
Co2 Ga3 2.439947 1_555
Co2 Ga10 2.439987 1_555
Co2 Ga7 2.439988 1_555
Co2 Er2 2.799734 1_555
Co2 Er6 2.799759 1_555
Co2 Er4 2.799763 1_555
Co2 Er3 3.287395 1_555
Co2 Er5 3.287418 1_545
Co2 Er7 3.287457 1_556
Co3 Ga5 2.439877 1_555
Co3 Ga9 2.439891 1_555
Co3 Ga11 2.439905 1_555
Co3 Er7 2.799614 1_555
Co3 Er3 2.799629 1_555
Co3 Er5 2.799643 1_555
Co3 Er2 3.287324 1_555
Co3 Er4 3.287345 1_565
Co3 Er6 3.287345 1_554
