# generated using pymatgen
data_LiFePH2O5
_symmetry_space_group_name_H-M   'P 1'
_cell_length_a   4.80716312
_cell_length_b   5.75962113
_cell_length_c   8.40097100
_cell_angle_alpha   103.21941717
_cell_angle_beta   90.00495601
_cell_angle_gamma   90.03583807
_symmetry_Int_Tables_number   1
_chemical_formula_structural   LiFePH2O5
_chemical_formula_sum   'Li2 Fe2 P2 H4 O10'
_cell_volume   226.43771881
_cell_formula_units_Z   2
loop_
 _symmetry_equiv_pos_site_id
 _symmetry_equiv_pos_as_xyz
  1  'x, y, z'
loop_
 _atom_site_type_symbol
 _atom_site_label
 _atom_site_symmetry_multiplicity
 _atom_site_fract_x
 _atom_site_fract_y
 _atom_site_fract_z
 _atom_site_occupancy
  Li  Li0  1  0.08428100  0.12031500  0.42286800  1
  Li  Li1  1  0.58466000  0.38182900  0.57723900  1
  Fe  Fe0  1  0.50838800  0.50585100  0.02652600  1
  Fe  Fe1  1  0.00761500  0.99372800  0.97340000  1
  P  P0  1  0.58825100  0.06316700  0.21769100  1
  P  P1  1  0.08875100  0.43680800  0.78259500  1
  H  H0  1  0.63301500  0.09275700  0.77122300  1
  H  H1  1  0.13157800  0.40623800  0.22741500  1
  H  H2  1  0.03722500  0.65819800  0.20628800  1
  H  H3  1  0.53575300  0.84210400  0.79393200  1
  O  O0  1  0.26665400  0.06586500  0.20701000  1
  O  O1  1  0.76710800  0.43362500  0.79317200  1
  O  O2  1  0.68744400  0.13489900  0.39578200  1
  O  O3  1  0.18781600  0.36625600  0.60448200  1
  O  O4  1  0.70005900  0.93139900  0.77059400  1
  O  O5  1  0.20040100  0.56754400  0.22933200  1
  O  O6  1  0.71673000  0.23414500  0.11471000  1
  O  O7  1  0.21710300  0.26524300  0.88503000  1
  O  O8  1  0.21439000  0.68777400  0.86819600  1
  O  O9  1  0.71397500  0.81225300  0.13251300  1
loop_
_geom_bond_atom_site_label_1
_geom_bond_atom_site_label_2
_geom_bond_distance
_geom_bond_site_symmetry_2
Li0 O3 1.895427 1_555
Li0 O2 1.925323 1_455
Li0 O0 1.973814 1_555
Li1 O2 1.897397 1_555
Li1 O3 1.925869 1_555
Li1 O1 1.975064 1_555
Fe0 O9 2.040317 1_555
Fe0 O6 2.129075 1_555
Fe0 O7 2.130274 1_554
Fe0 O5 2.223803 1_555
Fe0 O1 2.278402 1_554
Fe0 O8 2.345954 1_554
Fe1 O8 2.040704 1_555
Fe1 O6 2.129069 1_466
Fe1 O7 2.130721 1_565
Fe1 O4 2.221877 1_455
Fe1 O0 2.280538 1_566
Fe1 O9 2.347192 1_456
H0 O4 0.982721 1_545
H1 O5 0.982672 1_555
H2 O5 0.985962 1_555
H3 O4 0.986126 1_555
O0 P0 1.548857 1_555
O1 P1 1.549087 1_655
O2 P0 1.534084 1_555
O3 P1 1.534002 1_555
O6 P0 1.577554 1_555
O7 P1 1.577112 1_555
O8 P1 1.579469 1_555
O9 P0 1.579251 1_565
