# generated using pymatgen
data_Sr4Bi11
_symmetry_space_group_name_H-M   'P 1'
_cell_length_a   7.46921100
_cell_length_b   9.28879750
_cell_length_c   9.68394684
_cell_angle_alpha   62.09420995
_cell_angle_beta   71.70369071
_cell_angle_gamma   79.79548307
_symmetry_Int_Tables_number   1
_chemical_formula_structural   Sr4Bi11
_chemical_formula_sum   'Sr4 Bi11'
_cell_volume   563.36315117
_cell_formula_units_Z   1
loop_
 _symmetry_equiv_pos_site_id
 _symmetry_equiv_pos_as_xyz
  1  'x, y, z'
loop_
 _atom_site_type_symbol
 _atom_site_label
 _atom_site_symmetry_multiplicity
 _atom_site_fract_x
 _atom_site_fract_y
 _atom_site_fract_z
 _atom_site_occupancy
  Sr  Sr0  1  0.65137900  0.05834400  0.79272400  1
  Sr  Sr1  1  0.22659700  0.90974000  0.67111500  1
  Sr  Sr2  1  0.77340300  0.09026000  0.32888500  1
  Sr  Sr3  1  0.34862100  0.94165600  0.20727600  1
  Bi  Bi0  1  0.42799700  0.32956600  0.49895500  1
  Bi  Bi1  1  0.27795400  0.32812000  0.86471700  1
  Bi  Bi2  1  0.22093100  0.26457100  0.29179600  1
  Bi  Bi3  1  0.99092400  0.32450700  0.64584700  1
  Bi  Bi4  1  0.61385600  0.33516700  0.98807000  1
  Bi  Bi5  1  0.77906900  0.73542900  0.70820400  1
  Bi  Bi6  1  0.72204600  0.67188000  0.13528300  1
  Bi  Bi7  1  0.57200300  0.67043400  0.50104500  1
  Bi  Bi8  1  0.38614400  0.66483300  0.01193000  1
  Bi  Bi9  1  0.00907600  0.67549300  0.35415300  1
  Bi  Bi10  1  0.00000000  0.00000000  0.00000000  1
loop_
_geom_bond_atom_site_label_1
_geom_bond_atom_site_label_2
_geom_bond_distance
_geom_bond_site_symmetry_2
Sr0 Sr3 3.674291 1_546
Sr0 Sr2 4.168168 1_555
Sr0 Sr1 4.242047 1_645
Sr0 Sr1 4.333380 1_545
Sr1 Sr3 4.168168 1_555
Sr1 Sr2 4.382042 1_565
Sr2 Sr3 4.242047 1_645
Sr2 Sr3 4.333380 1_545
Bi0 Bi3 3.123992 1_455
Bi0 Bi2 3.192744 1_555
Bi0 Bi1 3.357161 1_555
Bi0 Sr0 3.464987 1_555
Bi0 Bi7 3.530280 1_555
Bi0 Sr2 3.610614 1_555
Bi0 Sr1 3.829908 1_545
Bi1 Bi4 3.120739 1_555
Bi1 Bi3 3.469131 1_455
Bi1 Bi10 3.480322 1_556
Bi1 Sr0 3.533131 1_555
Bi1 Sr3 3.667561 1_546
Bi2 Bi4 3.339322 1_554
Bi2 Sr3 3.372055 1_545
Bi2 Bi3 3.572998 1_455
Bi2 Bi8 3.575620 1_555
Bi2 Sr1 3.615771 1_545
Bi2 Sr2 3.813618 1_455
Bi3 Bi9 3.150015 1_655
Bi3 Sr0 3.351521 1_555
Bi3 Bi4 3.643215 1_555
Bi3 Sr1 3.871270 1_645
Bi4 Bi8 3.300516 1_556
Bi4 Sr2 3.459640 1_556
Bi4 Bi5 3.575620 1_555
Bi4 Sr0 3.772788 1_555
Bi4 Sr3 3.801859 1_546
Bi5 Bi7 3.192744 1_555
Bi5 Bi8 3.339322 1_556
Bi5 Sr0 3.372055 1_565
Bi5 Bi9 3.572998 1_655
Bi5 Sr2 3.615771 1_565
Bi5 Sr1 3.813618 1_655
Bi6 Bi8 3.120739 1_555
Bi6 Bi7 3.357161 1_555
Bi6 Bi9 3.469131 1_655
Bi6 Sr3 3.533131 1_555
Bi6 Sr0 3.667561 1_564
Bi7 Bi9 3.123992 1_655
Bi7 Sr3 3.464987 1_555
Bi7 Sr1 3.610614 1_555
Bi7 Sr2 3.829908 1_565
Bi8 Sr1 3.459640 1_554
Bi8 Bi9 3.643215 1_555
Bi8 Sr3 3.772788 1_555
Bi8 Sr0 3.801859 1_564
Bi9 Sr3 3.351521 1_555
Bi9 Sr2 3.871270 1_465
Bi10 Bi9 3.354050 1_545
Bi10 Bi3 3.354050 1_454
Bi10 Bi6 3.480322 1_445
Bi10 Sr1 3.510456 1_544
Bi10 Sr2 3.510456 1_455
Bi10 Sr3 3.587002 1_545
Bi10 Sr0 3.587002 1_454
