# generated using pymatgen
data_MgZrHg2
_symmetry_space_group_name_H-M   'P 1'
_cell_length_a   11.87065374
_cell_length_b   11.87065374
_cell_length_c   11.87065374
_cell_angle_alpha   120.80105323
_cell_angle_beta   119.88368180
_cell_angle_gamma   89.40987304
_symmetry_Int_Tables_number   1
_chemical_formula_structural   MgZrHg2
_chemical_formula_sum   'Mg1 Zr1 Hg2'
_cell_volume   1176.50951934
_cell_formula_units_Z   1
loop_
 _symmetry_equiv_pos_site_id
 _symmetry_equiv_pos_as_xyz
  1  'x, y, z'
loop_
 _atom_site_type_symbol
 _atom_site_label
 _atom_site_symmetry_multiplicity
 _atom_site_fract_x
 _atom_site_fract_y
 _atom_site_fract_z
 _atom_site_occupancy
  Mg  Mg0  1  0.00000000  0.00000000  0.00000000  1
  Zr  Zr0  1  0.00000000  0.50000000  0.50000000  1
  Hg  Hg0  1  0.00000000  0.24788600  0.24788600  1
  Hg  Hg1  1  0.00000000  0.75211400  0.75211400  1
loop_
_geom_bond_atom_site_label_1
_geom_bond_atom_site_label_2
_geom_bond_distance
_geom_bond_site_symmetry_2
Hg0 Mg0 2.906869 1_555
Hg0 Zr0 2.956449 1_555
Hg1 Mg0 2.906869 1_566
Hg1 Zr0 2.956449 1_555
