# generated using pymatgen
data_Al2O3
_symmetry_space_group_name_H-M   'P 1'
_cell_length_a   10.70903819
_cell_length_b   10.44943966
_cell_length_c   9.82677943
_cell_angle_alpha   87.15966866
_cell_angle_beta   90.64721454
_cell_angle_gamma   90.19529951
_symmetry_Int_Tables_number   1
_chemical_formula_structural   Al2O3
_chemical_formula_sum   'Al40 O60'
_cell_volume   1098.22504823
_cell_formula_units_Z   20
loop_
 _symmetry_equiv_pos_site_id
 _symmetry_equiv_pos_as_xyz
  1  'x, y, z'
loop_
 _atom_site_type_symbol
 _atom_site_label
 _atom_site_symmetry_multiplicity
 _atom_site_fract_x
 _atom_site_fract_y
 _atom_site_fract_z
 _atom_site_occupancy
  Al  Al0  1  0.78733100  0.38219000  0.62550200  1
  Al  Al1  1  0.72359400  0.95480300  0.35067500  1
  Al  Al2  1  0.66630600  0.60156700  0.78239300  1
  Al  Al3  1  0.26734300  0.64099100  0.47250300  1
  Al  Al4  1  0.92102400  0.49062500  0.17211100  1
  Al  Al5  1  0.21742900  0.89696000  0.53770000  1
  Al  Al6  1  0.04296200  0.82590000  0.78536600  1
  Al  Al7  1  0.09206900  0.20545000  0.40700900  1
  Al  Al8  1  0.62956700  0.15020300  0.09041700  1
  Al  Al9  1  0.87281300  0.27383500  0.93819800  1
  Al  Al10  1  0.50802900  0.58231400  0.55862500  1
  Al  Al11  1  0.19943800  0.59207800  0.75035700  1
  Al  Al12  1  0.58160900  0.20781400  0.44730100  1
  Al  Al13  1  0.78393100  0.68451100  0.50546200  1
  Al  Al14  1  0.28000200  0.99614700  0.85976700  1
  Al  Al15  1  0.76046000  0.84642500  0.80861700  1
  Al  Al16  1  0.30980600  0.16685200  0.10628800  1
  Al  Al17  1  0.62214900  0.87535100  0.08282600  1
  Al  Al18  1  0.34613200  0.12422100  0.61491200  1
  Al  Al19  1  0.42859700  0.00924600  0.28477500  1
  Al  Al20  1  0.54136200  0.00164800  0.80384100  1
  Al  Al21  1  0.18441900  0.68038000  0.01540300  1
  Al  Al22  1  0.70792700  0.61309800  0.08257800  1
  Al  Al23  1  0.98651300  0.91560400  0.44717000  1
  Al  Al24  1  0.19115100  0.85789200  0.21658500  1
  Al  Al25  1  0.37135300  0.37300200  0.42471700  1
  Al  Al26  1  0.11359600  0.37691400  0.98308300  1
  Al  Al27  1  0.60111600  0.37842900  0.88153000  1
  Al  Al28  1  0.98899300  0.04685400  0.88789300  1
  Al  Al29  1  0.80934400  0.08879200  0.62258900  1
  Al  Al30  1  0.91866500  0.79221000  0.20411100  1
  Al  Al31  1  0.63303100  0.49306400  0.31167000  1
  Al  Al32  1  0.51759400  0.86950000  0.50242100  1
  Al  Al33  1  0.31713800  0.29407000  0.81934700  1
  Al  Al34  1  0.40389100  0.76304500  0.77567200  1
  Al  Al35  1  0.43109500  0.70187900  0.24378000  1
  Al  Al36  1  0.18977500  0.43991500  0.23553800  1
  Al  Al37  1  0.05252100  0.25124300  0.71070200  1
  Al  Al38  1  0.90568200  0.10143900  0.19699800  1
  Al  Al39  1  0.01931300  0.47566500  0.48877500  1
  O  O0  1  0.97730600  0.95208100  0.25586200  1
  O  O1  1  0.22183600  0.30807500  0.11373100  1
  O  O2  1  0.60739700  0.01967200  0.98304800  1
  O  O3  1  0.11987400  0.04043800  0.45696900  1
  O  O4  1  0.47222100  0.15178200  0.17124900  1
  O  O5  1  0.02026200  0.30594000  0.53641900  1
  O  O6  1  0.30671300  0.65916200  0.88364200  1
  O  O7  1  0.18946900  0.79058700  0.39022500  1
  O  O8  1  0.69893200  0.26752200  0.97390800  1
  O  O9  1  0.05382100  0.85123000  0.60837500  1
  O  O10  1  0.27107400  0.98412300  0.68045000  1
  O  O11  1  0.22900300  0.23179100  0.67665200  1
  O  O12  1  0.98945700  0.21961000  0.26998300  1
  O  O13  1  0.50376300  0.86938000  0.21359600  1
  O  O14  1  0.51680600  0.64125700  0.72339700  1
  O  O15  1  0.70877900  0.99941700  0.73791400  1
  O  O16  1  0.58127200  0.03830600  0.40748800  1
  O  O17  1  0.94779700  0.39269600  0.03242500  1
  O  O18  1  0.90825700  0.88722500  0.86226600  1
  O  O19  1  0.28547600  0.73176800  0.63572800  1
  O  O20  1  0.22090900  0.31540300  0.37237200  1
  O  O21  1  0.88456800  0.32983300  0.76224500  1
  O  O22  1  0.29977400  0.74675200  0.14198500  1
  O  O23  1  0.95536800  0.10198600  0.71073800  1
  O  O24  1  0.86687500  0.51665300  0.54117500  1
  O  O25  1  0.29916400  0.14608100  0.93184800  1
  O  O26  1  0.08091100  0.67260900  0.84639700  1
  O  O27  1  0.14238000  0.52447300  0.07875000  1
  O  O28  1  0.44075800  0.70736000  0.43567600  1
  O  O29  1  0.19255600  0.42365400  0.82467500  1
  O  O30  1  0.73746700  0.11012200  0.22802900  1
  O  O31  1  0.38353200  0.47715700  0.56119700  1
  O  O32  1  0.56904500  0.61678800  0.19237900  1
  O  O33  1  0.03393100  0.48692000  0.30831200  1
  O  O34  1  0.84311800  0.00517300  0.47441200  1
  O  O35  1  0.89061900  0.10869200  0.01486000  1
  O  O36  1  0.05964900  0.22397000  0.89610700  1
  O  O37  1  0.65133500  0.56771100  0.46905400  1
  O  O38  1  0.31384900  0.53612300  0.31581500  1
  O  O39  1  0.90580300  0.75631100  0.39682800  1
  O  O40  1  0.75884500  0.46214200  0.21141000  1
  O  O41  1  0.72331100  0.23350900  0.55200500  1
  O  O42  1  0.07341400  0.78260300  0.11831500  1
  O  O43  1  0.54066600  0.36044200  0.35532600  1
  O  O44  1  0.77189700  0.71051200  0.69964000  1
  O  O45  1  0.46836400  0.14061700  0.73634800  1
  O  O46  1  0.65628700  0.43982400  0.71368600  1
  O  O47  1  0.75485300  0.86401700  0.19425200  1
  O  O48  1  0.67011900  0.52275700  0.94351700  1
  O  O49  1  0.67183900  0.81751200  0.46009600  1
  O  O50  1  0.51306000  0.87647700  0.67974400  1
  O  O51  1  0.67158000  0.76849600  0.95239600  1
  O  O52  1  0.14185700  0.55686700  0.56922700  1
  O  O53  1  0.44519500  0.36111300  0.89615300  1
  O  O54  1  0.41823400  0.21063200  0.48109200  1
  O  O55  1  0.86750600  0.65104500  0.11836400  1
  O  O56  1  0.41143800  0.89804900  0.89434000  1
  O  O57  1  0.12594200  0.94525700  0.88954700  1
  O  O58  1  0.27222600  0.01488500  0.19647100  1
  O  O59  1  0.37176100  0.95163700  0.45068200  1
loop_
_geom_bond_atom_site_label_1
_geom_bond_atom_site_label_2
_geom_bond_distance
_geom_bond_site_symmetry_2
Al0 O21 1.757474 1_555
Al0 O46 1.779886 1_555
Al0 O24 1.810777 1_555
Al0 O41 1.870348 1_555
Al1 O49 1.837565 1_555
Al1 O34 1.848668 1_565
Al1 O16 1.863489 1_565
Al1 O47 1.879657 1_555
Al1 O30 1.979211 1_565
Al2 O14 1.740988 1_555
Al2 O48 1.748237 1_555
Al2 O44 1.776565 1_555
Al2 O46 1.853133 1_555
Al2 O51 2.474401 1_555
Al3 O52 1.849334 1_555
Al3 O19 1.911211 1_555
Al3 O7 1.913419 1_555
Al3 O38 2.001974 1_555
Al3 O28 2.010550 1_555
Al3 O31 2.254076 1_555
Al4 O17 1.778668 1_555
Al4 O33 1.792615 1_655
Al4 O40 1.803987 1_555
Al4 O55 1.824657 1_555
Al5 O10 1.797838 1_555
Al5 O7 1.890222 1_555
Al5 O59 1.940692 1_555
Al5 O9 1.941488 1_555
Al5 O3 1.960275 1_565
Al5 O19 2.065560 1_555
Al6 O26 1.730419 1_555
Al6 O9 1.751375 1_555
Al6 O18 1.772454 1_455
Al6 O57 1.868621 1_555
Al7 O12 1.729302 1_455
Al7 O3 1.794198 1_555
Al7 O20 1.816781 1_555
Al7 O5 1.863086 1_555
Al8 O2 1.778981 1_554
Al8 O8 1.799832 1_554
Al8 O30 1.803092 1_555
Al8 O4 1.871429 1_555
Al9 O17 1.770655 1_556
Al9 O21 1.803333 1_555
Al9 O35 1.857934 1_556
Al9 O8 1.899087 1_555
Al9 O36 2.119690 1_655
Al10 O31 1.724421 1_555
Al10 O14 1.762083 1_555
Al10 O37 1.788480 1_555
Al10 O28 1.875200 1_555
Al11 O26 1.822915 1_555
Al11 O29 1.873261 1_555
Al11 O6 1.891598 1_555
Al11 O52 1.929329 1_555
Al11 O19 2.024796 1_555
Al12 O54 1.785115 1_555
Al12 O16 1.832772 1_555
Al12 O43 1.845460 1_555
Al12 O41 1.850093 1_555
Al13 O39 1.830656 1_555
Al13 O49 1.873254 1_555
Al13 O37 1.911524 1_555
Al13 O44 1.946437 1_555
Al13 O24 1.982755 1_555
Al14 O57 1.754958 1_555
Al14 O25 1.761525 1_565
Al14 O56 1.764062 1_555
Al14 O10 1.774263 1_555
Al15 O18 1.721530 1_555
Al15 O15 1.797798 1_555
Al15 O44 1.825843 1_555
Al15 O51 1.864506 1_555
Al16 O25 1.740923 1_554
Al16 O1 1.758487 1_555
Al16 O58 1.825708 1_555
Al16 O4 1.850490 1_555
Al17 O2 1.764142 1_564
Al17 O47 1.784858 1_555
Al17 O13 1.814078 1_555
Al17 O51 1.825081 1_554
Al18 O54 1.743933 1_555
Al18 O10 1.764720 1_545
Al18 O45 1.774900 1_555
Al18 O11 1.816405 1_555
Al19 O59 1.820298 1_545
Al19 O13 1.842633 1_545
Al19 O58 1.877087 1_555
Al19 O4 1.877108 1_555
Al19 O16 2.051326 1_555
Al20 O45 1.749374 1_555
Al20 O50 1.853855 1_545
Al20 O2 1.908038 1_555
Al20 O15 1.913812 1_545
Al20 O56 1.954727 1_545
Al21 O27 1.773444 1_555
Al21 O6 1.873381 1_554
Al21 O22 1.897180 1_555
Al21 O42 1.928659 1_555
Al21 O26 1.991148 1_554
Al22 O48 1.742188 1_554
Al22 O55 1.788012 1_555
Al22 O32 1.848923 1_555
Al22 O40 2.044666 1_555
Al22 O51 2.052322 1_554
Al23 O34 1.830222 1_565
Al23 O9 1.831230 1_655
Al23 O0 1.901116 1_555
Al23 O3 1.935757 1_665
Al23 O39 1.955649 1_555
Al24 O42 1.783884 1_555
Al24 O7 1.813330 1_555
Al24 O22 1.830883 1_555
Al24 O58 1.856377 1_565
Al25 O31 1.772002 1_555
Al25 O20 1.796628 1_555
Al25 O54 1.828670 1_555
Al25 O43 1.951472 1_555
Al25 O38 2.059453 1_555
Al26 O29 1.824352 1_555
Al26 O1 1.841158 1_556
Al26 O17 1.855866 1_456
Al26 O27 1.868196 1_556
Al26 O36 1.932968 1_555
Al27 O53 1.685908 1_555
Al27 O8 1.773969 1_555
Al27 O48 1.806899 1_555
Al27 O46 1.842723 1_555
Al28 O35 1.788383 1_556
Al28 O57 1.812894 1_645
Al28 O23 1.838483 1_555
Al28 O18 1.902676 1_545
Al28 O36 2.002061 1_655
Al29 O34 1.776140 1_555
Al29 O23 1.787319 1_555
Al29 O15 1.797823 1_545
Al29 O41 1.872924 1_555
Al30 O55 1.814747 1_555
Al30 O42 1.873055 1_655
Al30 O0 1.874459 1_555
Al30 O47 1.909919 1_555
Al30 O39 1.918660 1_555
Al31 O40 1.718994 1_555
Al31 O43 1.739043 1_555
Al31 O37 1.774943 1_555
Al31 O32 1.831078 1_555
Al32 O50 1.748872 1_555
Al32 O49 1.800175 1_555
Al32 O59 1.839051 1_555
Al32 O28 2.016494 1_555
Al32 O16 2.071192 1_565
Al33 O53 1.721500 1_555
Al33 O11 1.826734 1_555
Al33 O25 1.866531 1_555
Al33 O29 1.907134 1_555
Al34 O6 1.813888 1_555
Al34 O14 1.853359 1_555
Al34 O56 1.875267 1_555
Al34 O50 1.888134 1_555
Al34 O19 1.899582 1_555
Al35 O22 1.767617 1_555
Al35 O32 1.816177 1_555
Al35 O28 1.891080 1_555
Al35 O13 1.923949 1_555
Al35 O38 2.227411 1_555
Al36 O27 1.806274 1_555
Al36 O20 1.852423 1_555
Al36 O38 1.855873 1_555
Al36 O33 1.898787 1_555
Al36 O1 1.903809 1_555
Al37 O5 1.808348 1_555
Al37 O36 1.830857 1_555
Al37 O23 1.871863 1_455
Al37 O11 1.936192 1_555
Al37 O21 2.058601 1_455
Al38 O12 1.705792 1_555
Al38 O35 1.793146 1_555
Al38 O0 1.807594 1_545
Al38 O30 1.833740 1_555
Al39 O52 1.761437 1_555
Al39 O24 1.777398 1_455
Al39 O33 1.780072 1_555
Al39 O5 1.811750 1_555
