# generated using pymatgen
data_Ga5Ir3
_symmetry_space_group_name_H-M   'P 1'
_cell_length_a   5.83271382
_cell_length_b   5.83271382
_cell_length_c   14.21514178
_cell_angle_alpha   90.00000000
_cell_angle_beta   90.00000000
_cell_angle_gamma   90.00000000
_symmetry_Int_Tables_number   1
_chemical_formula_structural   Ga5Ir3
_chemical_formula_sum   'Ga20 Ir12'
_cell_volume   483.60694888
_cell_formula_units_Z   4
loop_
 _symmetry_equiv_pos_site_id
 _symmetry_equiv_pos_as_xyz
  1  'x, y, z'
loop_
 _atom_site_type_symbol
 _atom_site_label
 _atom_site_symmetry_multiplicity
 _atom_site_fract_x
 _atom_site_fract_y
 _atom_site_fract_z
 _atom_site_occupancy
  Ga  Ga0  1  0.22819639  0.35030818  0.05297321  1
  Ga  Ga1  1  0.77180361  0.64969182  0.05297321  1
  Ga  Ga2  1  0.35030818  0.77180361  0.94702679  1
  Ga  Ga3  1  0.72819639  0.14969182  0.55297321  1
  Ga  Ga4  1  0.64969182  0.22819639  0.94702679  1
  Ga  Ga5  1  0.27180361  0.85030818  0.55297321  1
  Ga  Ga6  1  0.85030818  0.72819639  0.44702679  1
  Ga  Ga7  1  0.14969182  0.27180361  0.44702679  1
  Ga  Ga8  1  0.34429401  0.30851686  0.65303188  1
  Ga  Ga9  1  0.65570599  0.69148314  0.65303188  1
  Ga  Ga10  1  0.30851686  0.65570599  0.34696812  1
  Ga  Ga11  1  0.84429401  0.19148314  0.15303188  1
  Ga  Ga12  1  0.69148314  0.34429401  0.34696812  1
  Ga  Ga13  1  0.15570599  0.80851686  0.15303188  1
  Ga  Ga14  1  0.80851686  0.84429401  0.84696812  1
  Ga  Ga15  1  0.19148314  0.15570599  0.84696812  1
  Ga  Ga16  1  0.33211541  0.16788459  0.25000000  1
  Ga  Ga17  1  0.66788459  0.83211541  0.25000000  1
  Ga  Ga18  1  0.16788459  0.66788459  0.75000000  1
  Ga  Ga19  1  0.83211541  0.33211541  0.75000000  1
  Ir  Ir0  1  0.00000000  0.00000000  0.32719570  1
  Ir  Ir1  1  0.00000000  0.00000000  0.67280430  1
  Ir  Ir2  1  0.50000000  0.50000000  0.82719570  1
  Ir  Ir3  1  0.50000000  0.50000000  0.17280430  1
  Ir  Ir4  1  0.00000000  0.50000000  0.58600397  1
  Ir  Ir5  1  0.50000000  0.00000000  0.41399603  1
  Ir  Ir6  1  0.50000000  0.00000000  0.08600397  1
  Ir  Ir7  1  0.00000000  0.50000000  0.91399603  1
  Ir  Ir8  1  0.00000000  0.50000000  0.25000000  1
  Ir  Ir9  1  0.50000000  0.00000000  0.75000000  1
  Ir  Ir10  1  0.00000000  0.00000000  -0.00000000  1
  Ir  Ir11  1  0.50000000  0.50000000  0.50000000  1
loop_
_geom_bond_atom_site_label_1
_geom_bond_atom_site_label_2
_geom_bond_distance
_geom_bond_site_symmetry_2
Ga0 Ir3 2.485415 1_555
Ga0 Ir7 2.537087 1_554
Ga0 Ir10 2.552151 1_555
Ga0 Ir6 2.628434 1_555
Ga1 Ir3 2.485415 1_555
Ga1 Ir7 2.537087 1_654
Ga1 Ir10 2.552151 1_665
Ga1 Ir6 2.628434 1_565
Ga2 Ir2 2.485415 1_555
Ga2 Ir6 2.537087 1_566
Ga2 Ir10 2.552151 1_566
Ga2 Ir7 2.628434 1_555
Ga3 Ir1 2.485415 1_655
Ga3 Ir5 2.537087 1_555
Ga3 Ir11 2.552151 1_555
Ga3 Ir4 2.628434 1_655
Ga4 Ir2 2.485415 1_555
Ga4 Ir6 2.537087 1_556
Ga4 Ir10 2.552151 1_656
Ga4 Ir7 2.628434 1_655
Ga5 Ir1 2.485415 1_565
Ga5 Ir5 2.537087 1_565
Ga5 Ir11 2.552151 1_555
Ga5 Ir4 2.628434 1_555
Ga6 Ir0 2.485415 1_665
Ga6 Ir4 2.537087 1_655
Ga6 Ir11 2.552151 1_555
Ga6 Ir5 2.628434 1_565
Ga7 Ir0 2.485415 1_555
Ga7 Ir4 2.537087 1_555
Ga7 Ir11 2.552151 1_555
Ga7 Ir5 2.628434 1_555
Ga8 Ir9 2.441926 1_555
Ga8 Ir4 2.487565 1_555
Ga8 Ir11 2.608530 1_555
Ga8 Ir1 2.711071 1_555
Ga8 Ir2 2.863844 1_555
Ga9 Ir9 2.441926 1_565
Ga9 Ir4 2.487565 1_655
Ga9 Ir11 2.608530 1_555
Ga9 Ir1 2.711071 1_665
Ga9 Ir2 2.863844 1_555
Ga10 Ir8 2.441926 1_555
Ga10 Ir5 2.487565 1_565
Ga10 Ir11 2.608530 1_555
Ga10 Ir0 2.711071 1_565
Ga10 Ir3 2.863844 1_555
Ga11 Ir8 2.441926 1_655
Ga11 Ir6 2.487565 1_555
Ga11 Ir10 2.608530 1_655
Ga11 Ir3 2.711071 1_555
Ga11 Ir0 2.863844 1_655
Ga12 Ir8 2.441926 1_655
Ga12 Ir5 2.487565 1_555
Ga12 Ir11 2.608530 1_555
Ga12 Ir0 2.711071 1_655
Ga12 Ir3 2.863844 1_555
Ga13 Ir8 2.441926 1_555
Ga13 Ir6 2.487565 1_565
Ga13 Ir10 2.608530 1_565
Ga13 Ir3 2.711071 1_555
Ga13 Ir0 2.863844 1_565
Ga14 Ir9 2.441926 1_565
Ga14 Ir7 2.487565 1_655
Ga14 Ir10 2.608530 1_666
Ga14 Ir2 2.711071 1_555
Ga14 Ir1 2.863844 1_665
Ga15 Ir9 2.441926 1_555
Ga15 Ir7 2.487565 1_555
Ga15 Ir10 2.608530 1_556
Ga15 Ir2 2.711071 1_555
Ga15 Ir1 2.863844 1_555
Ga16 Ir0 2.432188 1_555
Ga16 Ir3 2.432188 1_555
Ga16 Ir5 2.711526 1_555
Ga16 Ir6 2.711526 1_555
Ga16 Ir8 2.739521 1_555
Ga17 Ir3 2.432188 1_555
Ga17 Ir0 2.432188 1_665
Ga17 Ir6 2.711526 1_565
Ga17 Ir5 2.711526 1_565
Ga17 Ir8 2.739521 1_655
Ga18 Ir2 2.432188 1_555
Ga18 Ir1 2.432188 1_565
Ga18 Ir7 2.711526 1_555
Ga18 Ir4 2.711526 1_555
Ga18 Ir9 2.739521 1_565
Ga19 Ir2 2.432188 1_555
Ga19 Ir1 2.432188 1_655
Ga19 Ir4 2.711526 1_655
Ga19 Ir7 2.711526 1_655
Ga19 Ir9 2.739521 1_555
