# generated using pymatgen
data_LaIn2Cl5
_symmetry_space_group_name_H-M   'P 1'
_cell_length_a   8.10518881
_cell_length_b   8.95070601
_cell_length_c   12.83203439
_cell_angle_alpha   90.00000000
_cell_angle_beta   90.00000000
_cell_angle_gamma   90.00000000
_symmetry_Int_Tables_number   1
_chemical_formula_structural   LaIn2Cl5
_chemical_formula_sum   'La4 In8 Cl20'
_cell_volume   930.92768017
_cell_formula_units_Z   4
loop_
 _symmetry_equiv_pos_site_id
 _symmetry_equiv_pos_as_xyz
  1  'x, y, z'
loop_
 _atom_site_type_symbol
 _atom_site_label
 _atom_site_symmetry_multiplicity
 _atom_site_fract_x
 _atom_site_fract_y
 _atom_site_fract_z
 _atom_site_occupancy
  La  La0  1  0.92352707  0.75000000  0.50516381  1
  La  La1  1  0.07647293  0.25000000  0.49483619  1
  La  La2  1  0.42352707  0.25000000  0.99483619  1
  La  La3  1  0.57647293  0.75000000  0.00516381  1
  In  In0  1  0.95648637  0.00674713  0.82844303  1
  In  In1  1  0.04351363  0.99325287  0.17155697  1
  In  In2  1  0.45648637  0.99325287  0.67155697  1
  In  In3  1  0.04351363  0.50674713  0.17155697  1
  In  In4  1  0.54351363  0.00674713  0.32844303  1
  In  In5  1  0.95648637  0.49325287  0.82844303  1
  In  In6  1  0.54351363  0.49325287  0.32844303  1
  In  In7  1  0.45648637  0.50674713  0.67155697  1
  Cl  Cl0  1  0.11913124  0.75000000  0.68522804  1
  Cl  Cl1  1  0.88086876  0.25000000  0.31477196  1
  Cl  Cl2  1  0.61913124  0.25000000  0.81477196  1
  Cl  Cl3  1  0.38086876  0.75000000  0.18522804  1
  Cl  Cl4  1  0.83274880  0.04325179  0.57775416  1
  Cl  Cl5  1  0.16725120  0.95674821  0.42224584  1
  Cl  Cl6  1  0.33274880  0.95674821  0.92224584  1
  Cl  Cl7  1  0.16725120  0.54325179  0.42224584  1
  Cl  Cl8  1  0.66725120  0.04325179  0.07775416  1
  Cl  Cl9  1  0.83274880  0.45674821  0.57775416  1
  Cl  Cl10  1  0.66725120  0.45674821  0.07775416  1
  Cl  Cl11  1  0.33274880  0.54325179  0.92224584  1
  Cl  Cl12  1  0.57256555  0.75000000  0.50639625  1
  Cl  Cl13  1  0.42743445  0.25000000  0.49360375  1
  Cl  Cl14  1  0.07256555  0.25000000  0.99360375  1
  Cl  Cl15  1  0.92743445  0.75000000  0.00639625  1
  Cl  Cl16  1  0.66172341  0.75000000  0.78999419  1
  Cl  Cl17  1  0.33827659  0.25000000  0.21000581  1
  Cl  Cl18  1  0.16172341  0.25000000  0.71000581  1
  Cl  Cl19  1  0.83827659  0.75000000  0.28999419  1
loop_
_geom_bond_atom_site_label_1
_geom_bond_atom_site_label_2
_geom_bond_distance
_geom_bond_site_symmetry_2
Cl0 La0 2.802204 1_455
Cl1 La1 2.802204 1_655
Cl2 La2 2.802204 1_555
Cl3 La3 2.802204 1_555
Cl4 La0 2.880738 1_545
Cl4 La1 2.908426 1_655
Cl5 La1 2.880738 1_565
Cl5 La0 2.908426 1_455
Cl6 La2 2.880738 1_565
Cl6 La3 2.908426 1_556
Cl7 La1 2.880738 1_555
Cl7 La0 2.908426 1_455
Cl8 La3 2.880738 1_545
Cl8 La2 2.908426 1_554
Cl9 La0 2.880738 1_555
Cl9 La1 2.908426 1_655
Cl10 La3 2.880738 1_555
Cl10 La2 2.908426 1_554
Cl11 La2 2.880738 1_555
Cl11 La3 2.908426 1_556
Cl12 La0 2.844653 1_555
Cl13 La1 2.844653 1_555
Cl14 La2 2.844653 1_555
Cl15 La3 2.844653 1_555
Cl16 La3 2.846211 1_556
Cl16 In7 3.133291 1_555
Cl16 In2 3.133291 1_555
Cl17 La2 2.846211 1_554
Cl17 In4 3.133291 1_555
Cl17 In6 3.133291 1_555
Cl18 La1 2.846211 1_555
Cl18 In5 3.133291 1_455
Cl18 In0 3.133291 1_455
Cl19 La0 2.846211 1_555
Cl19 In3 3.133291 1_655
Cl19 In1 3.133291 1_655
