# generated using pymatgen
data_LiZn2CrO4
_symmetry_space_group_name_H-M   'P 1'
_cell_length_a   5.32901604
_cell_length_b   5.32901604
_cell_length_c   5.32901604
_cell_angle_alpha   133.88157090
_cell_angle_beta   133.88157090
_cell_angle_gamma   67.27304217
_symmetry_Int_Tables_number   1
_chemical_formula_structural   LiZn2CrO4
_chemical_formula_sum   'Li1 Zn2 Cr1 O4'
_cell_volume   77.31944833
_cell_formula_units_Z   1
loop_
 _symmetry_equiv_pos_site_id
 _symmetry_equiv_pos_as_xyz
  1  'x, y, z'
loop_
 _atom_site_type_symbol
 _atom_site_label
 _atom_site_symmetry_multiplicity
 _atom_site_fract_x
 _atom_site_fract_y
 _atom_site_fract_z
 _atom_site_occupancy
  Li  Li0  1  0.00000000  0.00000000  0.00000000  1
  Zn  Zn0  1  0.25000000  0.75000000  0.50000000  1
  Zn  Zn1  1  0.75000000  0.25000000  0.50000000  1
  Cr  Cr0  1  0.50000000  0.50000000  0.00000000  1
  O  O0  1  0.00000000  0.50000000  0.50000000  1
  O  O1  1  0.27376200  0.27376200  0.00000000  1
  O  O2  1  0.50000000  0.00000000  0.50000000  1
  O  O3  1  0.72623800  0.72623800  0.00000000  1
loop_
_geom_bond_atom_site_label_1
_geom_bond_atom_site_label_2
_geom_bond_distance
_geom_bond_site_symmetry_2
Li0 O2 2.087281 1_454
Li0 O0 2.087281 1_555
Li0 O2 2.087281 1_555
Li0 O0 2.087281 1_544
Li0 O3 2.429238 1_445
Li0 O1 2.429238 1_555
Cr0 O1 2.007532 1_555
Cr0 O3 2.007532 1_555
Cr0 O2 2.087281 1_554
Cr0 O0 2.087281 1_554
Cr0 O2 2.087281 1_565
Cr0 O0 2.087281 1_655
O0 Zn1 2.218385 1_455
O0 Zn0 2.218385 1_555
O1 Zn1 2.097904 1_454
O1 Zn0 2.097904 1_544
O1 Zn0 2.097904 1_555
O1 Zn1 2.097904 1_555
O2 Zn0 2.218385 1_545
O2 Zn1 2.218385 1_555
O3 Zn1 2.097904 1_554
O3 Zn0 2.097904 1_554
O3 Zn1 2.097904 1_565
O3 Zn0 2.097904 1_655
