# generated using pymatgen
data_Li3Pr2Sb3
_symmetry_space_group_name_H-M   'P 1'
_cell_length_a   6.45345600
_cell_length_b   6.45345600
_cell_length_c   46.93182400
_cell_angle_alpha   90.00000000
_cell_angle_beta   90.00000000
_cell_angle_gamma   90.00000000
_symmetry_Int_Tables_number   1
_chemical_formula_structural   Li3Pr2Sb3
_chemical_formula_sum   'Li24 Pr16 Sb24'
_cell_volume   1954.57410186
_cell_formula_units_Z   8
loop_
 _symmetry_equiv_pos_site_id
 _symmetry_equiv_pos_as_xyz
  1  'x, y, z'
loop_
 _atom_site_type_symbol
 _atom_site_label
 _atom_site_symmetry_multiplicity
 _atom_site_fract_x
 _atom_site_fract_y
 _atom_site_fract_z
 _atom_site_occupancy
  Li  Li0_0  1  0.25000000  0.25000000  0.05841850  1
  Li  Li0_1  1  0.25000000  0.25000000  0.55841850  1
  Li  Li0_2  1  0.25000000  0.75000000  0.05841850  1
  Li  Li0_3  1  0.25000000  0.75000000  0.55841850  1
  Li  Li0_4  1  0.75000000  0.25000000  0.05841850  1
  Li  Li0_5  1  0.75000000  0.25000000  0.55841850  1
  Li  Li0_6  1  0.75000000  0.75000000  0.05841850  1
  Li  Li0_7  1  0.75000000  0.75000000  0.55841850  1
  Li  Li1_0  1  0.25000000  0.25000000  0.44158150  1
  Li  Li1_1  1  0.25000000  0.25000000  0.94158150  1
  Li  Li1_2  1  0.25000000  0.75000000  0.44158150  1
  Li  Li1_3  1  0.25000000  0.75000000  0.94158150  1
  Li  Li1_4  1  0.75000000  0.25000000  0.44158150  1
  Li  Li1_5  1  0.75000000  0.25000000  0.94158150  1
  Li  Li1_6  1  0.75000000  0.75000000  0.44158150  1
  Li  Li1_7  1  0.75000000  0.75000000  0.94158150  1
  Li  Li2_0  1  0.25000000  0.25000000  0.25000000  1
  Li  Li2_1  1  0.25000000  0.25000000  0.75000000  1
  Li  Li2_2  1  0.25000000  0.75000000  0.25000000  1
  Li  Li2_3  1  0.25000000  0.75000000  0.75000000  1
  Li  Li2_4  1  0.75000000  0.25000000  0.25000000  1
  Li  Li2_5  1  0.75000000  0.25000000  0.75000000  1
  Li  Li2_6  1  0.75000000  0.75000000  0.25000000  1
  Li  Li2_7  1  0.75000000  0.75000000  0.75000000  1
  Pr  Pr0_0  1  0.25000000  0.25000000  0.37116400  1
  Pr  Pr0_1  1  0.25000000  0.25000000  0.87116400  1
  Pr  Pr0_2  1  0.25000000  0.75000000  0.37116400  1
  Pr  Pr0_3  1  0.25000000  0.75000000  0.87116400  1
  Pr  Pr0_4  1  0.75000000  0.25000000  0.37116400  1
  Pr  Pr0_5  1  0.75000000  0.25000000  0.87116400  1
  Pr  Pr0_6  1  0.75000000  0.75000000  0.37116400  1
  Pr  Pr0_7  1  0.75000000  0.75000000  0.87116400  1
  Pr  Pr1_0  1  0.25000000  0.25000000  0.12883600  1
  Pr  Pr1_1  1  0.25000000  0.25000000  0.62883600  1
  Pr  Pr1_2  1  0.25000000  0.75000000  0.12883600  1
  Pr  Pr1_3  1  0.25000000  0.75000000  0.62883600  1
  Pr  Pr1_4  1  0.75000000  0.25000000  0.12883600  1
  Pr  Pr1_5  1  0.75000000  0.25000000  0.62883600  1
  Pr  Pr1_6  1  0.75000000  0.75000000  0.12883600  1
  Pr  Pr1_7  1  0.75000000  0.75000000  0.62883600  1
  Sb  Sb0_0  1  0.25000000  0.25000000  0.19406900  1
  Sb  Sb0_1  1  0.25000000  0.25000000  0.69406900  1
  Sb  Sb0_2  1  0.25000000  0.75000000  0.19406900  1
  Sb  Sb0_3  1  0.25000000  0.75000000  0.69406900  1
  Sb  Sb0_4  1  0.75000000  0.25000000  0.19406900  1
  Sb  Sb0_5  1  0.75000000  0.25000000  0.69406900  1
  Sb  Sb0_6  1  0.75000000  0.75000000  0.19406900  1
  Sb  Sb0_7  1  0.75000000  0.75000000  0.69406900  1
  Sb  Sb1_0  1  0.25000000  0.25000000  0.30593100  1
  Sb  Sb1_1  1  0.25000000  0.25000000  0.80593100  1
  Sb  Sb1_2  1  0.25000000  0.75000000  0.30593100  1
  Sb  Sb1_3  1  0.25000000  0.75000000  0.80593100  1
  Sb  Sb1_4  1  0.75000000  0.25000000  0.30593100  1
  Sb  Sb1_5  1  0.75000000  0.25000000  0.80593100  1
  Sb  Sb1_6  1  0.75000000  0.75000000  0.30593100  1
  Sb  Sb1_7  1  0.75000000  0.75000000  0.80593100  1
  Sb  Sb2_0  1  0.25000000  0.25000000  0.00000000  1
  Sb  Sb2_1  1  0.25000000  0.25000000  0.50000000  1
  Sb  Sb2_2  1  0.25000000  0.75000000  0.00000000  1
  Sb  Sb2_3  1  0.25000000  0.75000000  0.50000000  1
  Sb  Sb2_4  1  0.75000000  0.25000000  0.00000000  1
  Sb  Sb2_5  1  0.75000000  0.25000000  0.50000000  1
  Sb  Sb2_6  1  0.75000000  0.75000000  0.00000000  1
  Sb  Sb2_7  1  0.75000000  0.75000000  0.50000000  1
loop_
_geom_bond_atom_site_label_1
_geom_bond_atom_site_label_2
_geom_bond_distance
_geom_bond_site_symmetry_2
Li0_0 Sb2_0 2.741687 1_555
Li0_0 Pr1_0 3.304822 1_555
Li0_1 Sb2_1 2.741687 1_555
Li0_1 Pr1_1 3.304822 1_555
Li0_2 Sb2_2 2.741687 1_555
Li0_2 Pr1_2 3.304822 1_555
Li0_3 Sb2_3 2.741687 1_555
Li0_3 Pr1_3 3.304822 1_555
Li0_4 Sb2_4 2.741687 1_555
Li0_4 Pr1_4 3.304822 1_555
Li0_5 Sb2_5 2.741687 1_555
Li0_5 Pr1_5 3.304822 1_555
Li0_6 Sb2_6 2.741687 1_555
Li0_6 Pr1_6 3.304822 1_555
Li0_7 Sb2_7 2.741687 1_555
Li0_7 Pr1_7 3.304822 1_555
Li1_0 Sb2_1 2.741687 1_555
Li1_0 Pr0_0 3.304822 1_555
Li1_1 Sb2_0 2.741687 1_556
Li1_1 Pr0_1 3.304822 1_555
Li1_2 Sb2_3 2.741687 1_555
Li1_2 Pr0_2 3.304822 1_555
Li1_3 Sb2_2 2.741687 1_556
Li1_3 Pr0_3 3.304822 1_555
Li1_4 Sb2_5 2.741687 1_555
Li1_4 Pr0_4 3.304822 1_555
Li1_5 Sb2_4 2.741687 1_556
Li1_5 Pr0_5 3.304822 1_555
Li1_6 Sb2_7 2.741687 1_555
Li1_6 Pr0_6 3.304822 1_555
Li1_7 Sb2_6 2.741687 1_556
Li1_7 Pr0_7 3.304822 1_555
Li2_0 Sb1_0 2.624944 1_555
Li2_0 Sb0_0 2.624944 1_555
Li2_1 Sb0_1 2.624944 1_555
Li2_1 Sb1_1 2.624944 1_555
Li2_2 Sb1_2 2.624944 1_555
Li2_2 Sb0_2 2.624944 1_555
Li2_3 Sb0_3 2.624944 1_555
Li2_3 Sb1_3 2.624944 1_555
Li2_4 Sb1_4 2.624944 1_555
Li2_4 Sb0_4 2.624944 1_555
Li2_5 Sb0_5 2.624944 1_555
Li2_5 Sb1_5 2.624944 1_555
Li2_6 Sb1_6 2.624944 1_555
Li2_6 Sb0_6 2.624944 1_555
Li2_7 Sb0_7 2.624944 1_555
Li2_7 Sb1_7 2.624944 1_555
Pr0_0 Sb1_0 3.061504 1_555
Pr0_0 Pr0_4 3.226728 1_455
Pr0_0 Pr0_2 3.226728 1_545
Pr0_0 Pr0_4 3.226728 1_555
Pr0_0 Pr0_2 3.226728 1_555
Pr0_1 Sb1_1 3.061504 1_555
Pr0_1 Pr0_3 3.226728 1_545
Pr0_1 Pr0_5 3.226728 1_455
Pr0_1 Pr0_3 3.226728 1_555
Pr0_1 Pr0_5 3.226728 1_555
Pr0_2 Sb1_2 3.061504 1_555
Pr0_2 Pr0_6 3.226728 1_455
Pr0_2 Pr0_6 3.226728 1_555
Pr0_3 Sb1_3 3.061504 1_555
Pr0_3 Pr0_7 3.226728 1_455
Pr0_3 Pr0_7 3.226728 1_555
Pr0_4 Sb1_4 3.061504 1_555
Pr0_4 Pr0_6 3.226728 1_545
Pr0_4 Pr0_6 3.226728 1_555
Pr0_5 Sb1_5 3.061504 1_555
Pr0_5 Pr0_7 3.226728 1_545
Pr0_5 Pr0_7 3.226728 1_555
Pr0_6 Sb1_6 3.061504 1_555
Pr0_7 Sb1_7 3.061504 1_555
Pr1_0 Sb0_0 3.061504 1_555
Pr1_0 Pr1_4 3.226728 1_455
Pr1_0 Pr1_2 3.226728 1_545
Pr1_0 Pr1_2 3.226728 1_555
Pr1_0 Pr1_4 3.226728 1_555
Pr1_1 Sb0_1 3.061504 1_555
Pr1_1 Pr1_5 3.226728 1_455
Pr1_1 Pr1_3 3.226728 1_545
Pr1_1 Pr1_5 3.226728 1_555
Pr1_1 Pr1_3 3.226728 1_555
Pr1_2 Sb0_2 3.061504 1_555
Pr1_2 Pr1_6 3.226728 1_455
Pr1_2 Pr1_6 3.226728 1_555
Pr1_3 Sb0_3 3.061504 1_555
Pr1_3 Pr1_7 3.226728 1_455
Pr1_3 Pr1_7 3.226728 1_555
Pr1_4 Sb0_4 3.061504 1_555
Pr1_4 Pr1_6 3.226728 1_545
Pr1_4 Pr1_6 3.226728 1_555
Pr1_5 Sb0_5 3.061504 1_555
Pr1_5 Pr1_7 3.226728 1_545
Pr1_5 Pr1_7 3.226728 1_555
Pr1_6 Sb0_6 3.061504 1_555
Pr1_7 Sb0_7 3.061504 1_555
