# generated using pymatgen
data_BaSr(WO3)4
_symmetry_space_group_name_H-M   'P 1'
_cell_length_a   5.64461018
_cell_length_b   5.64461018
_cell_length_c   8.10527872
_cell_angle_alpha   90.00000000
_cell_angle_beta   90.00000000
_cell_angle_gamma   90.00000000
_symmetry_Int_Tables_number   1
_chemical_formula_structural   BaSr(WO3)4
_chemical_formula_sum   'Ba1 Sr1 W4 O12'
_cell_volume   258.24734367
_cell_formula_units_Z   1
loop_
 _symmetry_equiv_pos_site_id
 _symmetry_equiv_pos_as_xyz
  1  'x, y, z'
loop_
 _atom_site_type_symbol
 _atom_site_label
 _atom_site_symmetry_multiplicity
 _atom_site_fract_x
 _atom_site_fract_y
 _atom_site_fract_z
 _atom_site_occupancy
  Ba  Ba0  1  0.50000000  0.50000000  0.50000000  1
  Sr  Sr0  1  -0.00000000  -0.00000000  0.00000000  1
  W  W0  1  -0.00000000  0.50000000  0.75200710  1
  W  W1  1  -0.00000000  0.50000000  0.24799290  1
  W  W2  1  0.50000000  -0.00000000  0.24799290  1
  W  W3  1  0.50000000  -0.00000000  0.75200710  1
  O  O0  1  0.24498821  0.24498821  0.75444701  1
  O  O1  1  0.24498821  0.24498821  0.24555299  1
  O  O2  1  0.75501179  0.75501179  0.24555299  1
  O  O3  1  0.75501179  0.75501179  0.75444701  1
  O  O4  1  0.75501179  0.24498821  0.75444701  1
  O  O5  1  0.75501179  0.24498821  0.24555299  1
  O  O6  1  0.24498821  0.75501179  0.75444701  1
  O  O7  1  0.24498821  0.75501179  0.24555299  1
  O  O8  1  -0.00000000  0.50000000  0.50000000  1
  O  O9  1  -0.00000000  0.50000000  0.00000000  1
  O  O10  1  0.50000000  -0.00000000  0.50000000  1
  O  O11  1  0.50000000  -0.00000000  0.00000000  1
loop_
_geom_bond_atom_site_label_1
_geom_bond_atom_site_label_2
_geom_bond_distance
_geom_bond_site_symmetry_2
Ba0 O10 2.822305 1_565
Ba0 O8 2.822305 1_555
Ba0 O8 2.822305 1_655
Ba0 O10 2.822305 1_555
Ba0 O2 2.897815 1_555
Ba0 O6 2.897815 1_555
Ba0 O3 2.897815 1_555
Ba0 O7 2.897815 1_555
Ba0 O4 2.897815 1_555
Ba0 O1 2.897815 1_555
Ba0 O0 2.897815 1_555
Ba0 O5 2.897815 1_555
O0 W0 1.996170 1_555
O0 W3 1.996170 1_555
O0 Sr0 2.790308 1_556
O1 W1 1.996170 1_555
O1 W2 1.996170 1_555
O1 Sr0 2.790308 1_555
O2 W2 1.996170 1_565
O2 W1 1.996170 1_655
O2 Sr0 2.790308 1_665
O3 W0 1.996170 1_655
O3 W3 1.996170 1_565
O3 Sr0 2.790308 1_666
O4 W3 1.996170 1_555
O4 W0 1.996170 1_655
O4 Sr0 2.790308 1_656
O5 W2 1.996170 1_555
O5 W1 1.996170 1_655
O5 Sr0 2.790308 1_655
O6 W0 1.996170 1_555
O6 W3 1.996170 1_565
O6 Sr0 2.790308 1_566
O7 W1 1.996170 1_555
O7 W2 1.996170 1_565
O7 Sr0 2.790308 1_565
O8 W1 2.042588 1_555
O8 W0 2.042588 1_555
O9 W0 2.010052 1_554
O9 W1 2.010052 1_555
O9 Sr0 2.822305 1_565
O9 Sr0 2.822305 1_555
O10 W2 2.042588 1_555
O10 W3 2.042588 1_555
O11 W3 2.010052 1_554
O11 W2 2.010052 1_555
O11 Sr0 2.822305 1_655
O11 Sr0 2.822305 1_555
