# generated using pymatgen
data_CrRe3B4
_symmetry_space_group_name_H-M   'P 1'
_cell_length_a   8.94495847
_cell_length_b   8.94495847
_cell_length_c   8.94495847
_cell_angle_alpha   160.75521938
_cell_angle_beta   160.50773768
_cell_angle_gamma   27.52545384
_symmetry_Int_Tables_number   1
_chemical_formula_structural   CrRe3B4
_chemical_formula_sum   'Cr1 Re3 B4'
_cell_volume   78.68169065
_cell_formula_units_Z   1
loop_
 _symmetry_equiv_pos_site_id
 _symmetry_equiv_pos_as_xyz
  1  'x, y, z'
loop_
 _atom_site_type_symbol
 _atom_site_label
 _atom_site_symmetry_multiplicity
 _atom_site_fract_x
 _atom_site_fract_y
 _atom_site_fract_z
 _atom_site_occupancy
  Cr  Cr0  1  0.94365100  0.44365100  0.50000000  1
  Re  Re0  1  0.80964100  0.80964100  0.00000000  1
  Re  Re1  1  0.54633900  0.04633900  0.50000000  1
  Re  Re2  1  0.19410300  0.19410300  0.00000000  1
  B  B0  1  0.08978500  0.58978500  0.50000000  1
  B  B1  1  0.65194700  0.65194700  0.00000000  1
  B  B2  1  0.41211300  0.91211300  0.50000000  1
  B  B3  1  0.35242100  0.35242100  0.00000000  1
loop_
_geom_bond_atom_site_label_1
_geom_bond_atom_site_label_2
_geom_bond_distance
_geom_bond_site_symmetry_2
Cr0 Re1 2.777107 1_565
Cr0 Re1 2.777107 1_554
Cr0 Re1 2.777107 1_666
Cr0 Re1 2.777107 1_655
B0 B1 1.860000 1_455
B0 B1 1.860000 1_556
B0 Re1 2.257961 1_465
B0 Re1 2.257961 1_454
B0 Re1 2.257961 1_566
B0 Re1 2.257961 1_555
B0 Re2 2.349748 1_566
B0 Re2 2.349748 1_555
B0 Cr0 2.539266 1_455
B1 Re2 2.250566 1_666
B1 Re2 2.250566 1_565
B1 Re2 2.250566 1_655
B1 Re2 2.250566 1_554
B1 Re1 2.367083 1_554
B1 Re1 2.367083 1_565
B1 Re0 2.740136 1_555
B2 B3 1.819730 1_566
B2 B3 1.819730 1_555
B2 Cr0 2.197451 1_555
B2 Cr0 2.197451 1_566
B2 Cr0 2.197451 1_454
B2 Cr0 2.197451 1_465
B2 Re1 2.332349 1_565
B2 Re0 2.337384 1_556
B2 Re0 2.337384 1_455
B3 Cr0 2.192230 1_555
B3 Cr0 2.192230 1_454
B3 Re0 2.254119 1_444
B3 Re0 2.254119 1_556
B3 Re0 2.254119 1_545
B3 Re0 2.254119 1_455
B3 Re2 2.750979 1_555
