# generated using pymatgen
data_Li4MnCo3O8
_symmetry_space_group_name_H-M   'P 1'
_cell_length_a   2.95195300
_cell_length_b   5.09143048
_cell_length_c   10.29475388
_cell_angle_alpha   98.96763703
_cell_angle_beta   92.42125940
_cell_angle_gamma   103.98423307
_symmetry_Int_Tables_number   1
_chemical_formula_structural   Li4MnCo3O8
_chemical_formula_sum   'Li4 Mn1 Co3 O8'
_cell_volume   147.78933615
_cell_formula_units_Z   1
loop_
 _symmetry_equiv_pos_site_id
 _symmetry_equiv_pos_as_xyz
  1  'x, y, z'
loop_
 _atom_site_type_symbol
 _atom_site_label
 _atom_site_symmetry_multiplicity
 _atom_site_fract_x
 _atom_site_fract_y
 _atom_site_fract_z
 _atom_site_occupancy
  Li  Li0  1  0.74675200  0.49674400  0.87496700  1
  Li  Li1  1  0.25324800  0.50325600  0.12503300  1
  Li  Li2  1  0.74990000  0.49923000  0.37402600  1
  Li  Li3  1  0.25010000  0.50077000  0.62597400  1
  Mn  Mn0  1  0.50000000  0.00000000  0.00000000  1
  Co  Co0  1  0.00561600  0.00553900  0.75030700  1
  Co  Co1  1  0.99438400  0.99446100  0.24969300  1
  Co  Co2  1  0.50000000  0.00000000  0.50000000  1
  O  O0  1  0.38511400  0.77508600  0.81475900  1
  O  O1  1  0.84411300  0.76445300  0.06620600  1
  O  O2  1  0.37874000  0.76960900  0.31344600  1
  O  O3  1  0.87554100  0.77318200  0.56343500  1
  O  O4  1  0.15588700  0.23554700  0.93379400  1
  O  O5  1  0.61488600  0.22491400  0.18524100  1
  O  O6  1  0.12445900  0.22681800  0.43656500  1
  O  O7  1  0.62126000  0.23039100  0.68655400  1
loop_
_geom_bond_atom_site_label_1
_geom_bond_atom_site_label_2
_geom_bond_distance
_geom_bond_site_symmetry_2
Li0 O4 2.096861 1_555
Li0 O0 2.116904 1_555
Li0 O4 2.135300 1_655
Li0 O7 2.148264 1_555
Li0 O1 2.177779 1_556
Li0 O0 2.241737 1_655
Li1 O1 2.096861 1_555
Li1 O5 2.116904 1_555
Li1 O1 2.135300 1_455
Li1 O2 2.148264 1_555
Li1 O4 2.177779 1_554
Li1 O5 2.241737 1_455
Li2 O2 2.103175 1_555
Li2 O6 2.126059 1_655
Li2 O5 2.169326 1_555
Li2 O3 2.173984 1_555
Li2 O2 2.204609 1_655
Li2 O6 2.210906 1_555
Li3 O7 2.103175 1_555
Li3 O3 2.126059 1_455
Li3 O0 2.169326 1_555
Li3 O6 2.173984 1_555
Li3 O7 2.204609 1_455
Li3 O3 2.210906 1_555
Mn0 O1 1.928669 1_545
Mn0 O4 1.928669 1_554
Mn0 O0 2.034673 1_544
Mn0 O5 2.034673 1_555
Mn0 O4 2.212591 1_654
Mn0 O1 2.212591 1_445
Co0 O7 1.956473 1_455
Co0 O0 1.971583 1_545
Co0 O4 2.030967 1_555
Co0 O3 2.063135 1_445
Co0 O7 2.091319 1_555
Co0 O0 2.116304 1_445
Co1 O2 1.956473 1_655
Co1 O5 1.971583 1_565
Co1 O1 2.030967 1_555
Co1 O6 2.063135 1_665
Co1 O2 2.091319 1_555
Co1 O5 2.116304 1_665
Co2 O3 1.944667 1_545
Co2 O6 1.944667 1_555
Co2 O2 2.056499 1_545
Co2 O7 2.056499 1_555
Co2 O3 2.113313 1_445
Co2 O6 2.113313 1_655
