# generated using pymatgen
data_ZnCr2CuO7
_symmetry_space_group_name_H-M   'P 1'
_cell_length_a   8.38315500
_cell_length_b   10.20683786
_cell_length_c   10.24793520
_cell_angle_alpha   94.46421638
_cell_angle_beta   90.00000000
_cell_angle_gamma   90.00000000
_symmetry_Int_Tables_number   1
_chemical_formula_structural   ZnCr2CuO7
_chemical_formula_sum   'Zn6 Cr12 Cu6 O42'
_cell_volume   874.20943907
_cell_formula_units_Z   6
loop_
 _symmetry_equiv_pos_site_id
 _symmetry_equiv_pos_as_xyz
  1  'x, y, z'
loop_
 _atom_site_type_symbol
 _atom_site_label
 _atom_site_symmetry_multiplicity
 _atom_site_fract_x
 _atom_site_fract_y
 _atom_site_fract_z
 _atom_site_occupancy
  Zn  Zn0  1  0.43160500  0.13524700  0.57220700  1
  Zn  Zn1  1  0.92293400  0.50000000  0.75000000  1
  Zn  Zn2  1  0.43160500  0.86475300  0.92779300  1
  Zn  Zn3  1  0.07706600  0.50000000  0.25000000  1
  Zn  Zn4  1  0.56839500  0.86475300  0.42779300  1
  Zn  Zn5  1  0.56839500  0.13524700  0.07220700  1
  Cr  Cr0  1  0.22955200  0.16465800  0.28657800  1
  Cr  Cr1  1  0.74286200  0.16840900  0.37671600  1
  Cr  Cr2  1  0.25713800  0.16840900  0.87671600  1
  Cr  Cr3  1  0.77044800  0.16465800  0.78657800  1
  Cr  Cr4  1  0.26945700  0.48454100  0.95684100  1
  Cr  Cr5  1  0.74286200  0.83159100  0.12328400  1
  Cr  Cr6  1  0.73054300  0.48454100  0.45684100  1
  Cr  Cr7  1  0.25713800  0.83159100  0.62328400  1
  Cr  Cr8  1  0.26945700  0.51545900  0.54315900  1
  Cr  Cr9  1  0.73054300  0.51545900  0.04315900  1
  Cr  Cr10  1  0.77044800  0.83534200  0.71342200  1
  Cr  Cr11  1  0.22955200  0.83534200  0.21342200  1
  Cu  Cu0  1  0.93555900  0.80715600  0.40965900  1
  Cu  Cu1  1  0.06444100  0.19284400  0.59034100  1
  Cu  Cu2  1  0.44470900  0.50000000  0.25000000  1
  Cu  Cu3  1  0.93555900  0.19284400  0.09034100  1
  Cu  Cu4  1  0.55529100  0.50000000  0.75000000  1
  Cu  Cu5  1  0.06444100  0.80715600  0.90965900  1
  O  O0  1  0.75733600  0.18885300  0.95629100  1
  O  O1  1  0.75741600  0.83901100  0.29218900  1
  O  O2  1  0.83988000  0.00000000  0.75000000  1
  O  O3  1  0.90701600  0.50010000  0.11368900  1
  O  O4  1  0.40487600  0.93291000  0.56756700  1
  O  O5  1  0.91586000  0.26222100  0.72237000  1
  O  O6  1  0.34420600  0.32086800  0.92777400  1
  O  O7  1  0.09298400  0.50010000  0.61368900  1
  O  O8  1  0.73184200  0.48312000  0.87415900  1
  O  O9  1  0.40487600  0.06709000  0.93243300  1
  O  O10  1  0.73184200  0.51688000  0.62584100  1
  O  O11  1  0.40856300  0.57236400  0.87990500  1
  O  O12  1  0.91539900  0.85567900  0.04568100  1
  O  O13  1  0.08414000  0.26222100  0.22237000  1
  O  O14  1  0.65579400  0.67913200  0.07222600  1
  O  O15  1  0.34420600  0.67913200  0.57222600  1
  O  O16  1  0.91586000  0.73777900  0.77763000  1
  O  O17  1  0.59512400  0.06709000  0.43243300  1
  O  O18  1  0.24266400  0.18885300  0.45629100  1
  O  O19  1  0.59143700  0.42763600  0.12009500  1
  O  O20  1  0.40019100  0.81220200  0.29142700  1
  O  O21  1  0.26815800  0.51688000  0.12584100  1
  O  O22  1  0.08460100  0.85567900  0.54568100  1
  O  O23  1  0.26815800  0.48312000  0.37415900  1
  O  O24  1  0.90701600  0.49990000  0.38631100  1
  O  O25  1  0.59143700  0.57236400  0.37990500  1
  O  O26  1  0.09298400  0.49990000  0.88631100  1
  O  O27  1  0.59980900  0.81220200  0.79142700  1
  O  O28  1  0.59980900  0.18779800  0.70857300  1
  O  O29  1  0.08460100  0.14432100  0.95431900  1
  O  O30  1  0.08414000  0.73777900  0.27763000  1
  O  O31  1  0.75733600  0.81114700  0.54370900  1
  O  O32  1  0.16012000  0.00000000  0.25000000  1
  O  O33  1  0.24258400  0.83901100  0.79218900  1
  O  O34  1  0.59512400  0.93291000  0.06756700  1
  O  O35  1  0.91539900  0.14432100  0.45431900  1
  O  O36  1  0.24266400  0.81114700  0.04370900  1
  O  O37  1  0.75741600  0.16098900  0.20781100  1
  O  O38  1  0.40856300  0.42763600  0.62009500  1
  O  O39  1  0.65579400  0.32086800  0.42777400  1
  O  O40  1  0.24258400  0.16098900  0.70781100  1
  O  O41  1  0.40019100  0.18779800  0.20857300  1
loop_
_geom_bond_atom_site_label_1
_geom_bond_atom_site_label_2
_geom_bond_distance
_geom_bond_site_symmetry_2
Cr0 O41 1.664485 1_555
Cr0 O13 1.735682 1_555
Cr0 O18 1.740991 1_555
Cr0 O32 1.790468 1_555
Cr1 O35 1.677924 1_555
Cr1 O37 1.730989 1_555
Cr1 O17 1.738192 1_555
Cr1 O39 1.761054 1_555
Cr2 O29 1.677924 1_555
Cr2 O40 1.730989 1_555
Cr2 O9 1.738192 1_555
Cr2 O6 1.761054 1_555
Cr3 O28 1.664485 1_555
Cr3 O5 1.735682 1_555
Cr3 O0 1.740991 1_555
Cr3 O2 1.790468 1_555
Cr4 O26 1.659296 1_555
Cr4 O11 1.701492 1_555
Cr4 O21 1.737688 1_556
Cr4 O6 1.787395 1_555
Cr5 O12 1.677924 1_555
Cr5 O1 1.730989 1_555
Cr5 O34 1.738192 1_555
Cr5 O14 1.761054 1_555
Cr6 O24 1.659296 1_555
Cr6 O25 1.701492 1_555
Cr6 O10 1.737688 1_555
Cr6 O39 1.787395 1_555
Cr7 O22 1.677924 1_555
Cr7 O33 1.730989 1_555
Cr7 O4 1.738192 1_555
Cr7 O15 1.761054 1_555
Cr8 O7 1.659296 1_555
Cr8 O38 1.701492 1_555
Cr8 O23 1.737688 1_555
Cr8 O15 1.787395 1_555
Cr9 O3 1.659296 1_555
Cr9 O19 1.701492 1_555
Cr9 O8 1.737688 1_554
Cr9 O14 1.787395 1_555
Cr10 O27 1.664485 1_555
Cr10 O16 1.735682 1_555
Cr10 O31 1.740991 1_555
Cr10 O2 1.790468 1_565
Cr11 O20 1.664485 1_555
Cr11 O30 1.735682 1_555
Cr11 O36 1.740991 1_555
Cr11 O32 1.790468 1_565
Cu0 O22 1.908403 1_655
Cu0 O30 1.932465 1_655
Cu0 O1 1.961144 1_555
Cu0 O31 2.027892 1_555
Cu1 O35 1.908403 1_455
Cu1 O5 1.932465 1_455
Cu1 O40 1.961144 1_555
Cu1 O18 2.027892 1_555
Cu2 O25 1.917740 1_555
Cu2 O19 1.917740 1_555
Cu2 O23 1.968072 1_555
Cu2 O21 1.968072 1_555
Cu3 O29 1.908403 1_654
Cu3 O13 1.932465 1_655
Cu3 O37 1.961144 1_555
Cu3 O0 2.027892 1_554
Cu4 O11 1.917740 1_555
Cu4 O38 1.917740 1_555
Cu4 O8 1.968072 1_555
Cu4 O10 1.968072 1_555
Cu5 O12 1.908403 1_456
Cu5 O16 1.932465 1_455
Cu5 O33 1.961144 1_555
Cu5 O36 2.027892 1_556
O0 Zn5 2.078573 1_556
O1 Zn4 2.110518 1_555
O3 Zn3 1.995941 1_655
O4 Zn4 2.063902 1_555
O4 Zn0 2.074203 1_565
O5 Zn1 2.422169 1_555
O7 Zn1 1.995941 1_455
O8 Zn1 2.061311 1_555
O9 Zn5 2.063902 1_556
O9 Zn2 2.074203 1_545
O10 Zn1 2.061311 1_555
O13 Zn3 2.422169 1_555
O16 Zn1 2.422169 1_555
O17 Zn0 2.063902 1_555
O17 Zn4 2.074203 1_545
O18 Zn0 2.078573 1_555
O20 Zn4 2.027872 1_555
O21 Zn3 2.061311 1_555
O23 Zn3 2.061311 1_555
O24 Zn3 1.995941 1_655
O26 Zn1 1.995941 1_455
O27 Zn2 2.027872 1_555
O28 Zn0 2.027872 1_555
O30 Zn3 2.422169 1_555
O31 Zn4 2.078573 1_555
O33 Zn2 2.110518 1_555
O34 Zn2 2.063902 1_554
O34 Zn5 2.074203 1_565
O36 Zn2 2.078573 1_554
O37 Zn5 2.110518 1_555
O40 Zn0 2.110518 1_555
O41 Zn5 2.027872 1_555
