# generated using pymatgen
data_Li12(WO4)7
_symmetry_space_group_name_H-M   'P 1'
_cell_length_a   8.50806200
_cell_length_b   8.50806200
_cell_length_c   8.50806200
_cell_angle_alpha   90.00000000
_cell_angle_beta   90.00000000
_cell_angle_gamma   90.00000000
_symmetry_Int_Tables_number   1
_chemical_formula_structural   Li12(WO4)7
_chemical_formula_sum   'Li12 W7 O28'
_cell_volume   615.87409642
_cell_formula_units_Z   1
loop_
 _symmetry_equiv_pos_site_id
 _symmetry_equiv_pos_as_xyz
  1  'x, y, z'
loop_
 _atom_site_type_symbol
 _atom_site_label
 _atom_site_symmetry_multiplicity
 _atom_site_fract_x
 _atom_site_fract_y
 _atom_site_fract_z
 _atom_site_occupancy
  Li  Li0  1  0.14280900  0.14280900  0.40160900  1
  Li  Li1  1  0.85719100  0.85719100  0.40160900  1
  Li  Li2  1  0.85719100  0.14280900  0.59839100  1
  Li  Li3  1  0.40160900  0.14280900  0.14280900  1
  Li  Li4  1  0.14280900  0.85719100  0.59839100  1
  Li  Li5  1  0.40160900  0.85719100  0.85719100  1
  Li  Li6  1  0.59839100  0.85719100  0.14280900  1
  Li  Li7  1  0.59839100  0.14280900  0.85719100  1
  Li  Li8  1  0.14280900  0.40160900  0.14280900  1
  Li  Li9  1  0.14280900  0.59839100  0.85719100  1
  Li  Li10  1  0.85719100  0.59839100  0.14280900  1
  Li  Li11  1  0.85719100  0.40160900  0.85719100  1
  W  W0  1  0.85802700  0.85802700  0.85802700  1
  W  W1  1  0.14197300  0.14197300  0.85802700  1
  W  W2  1  0.14197300  0.85802700  0.14197300  1
  W  W3  1  0.85802700  0.14197300  0.14197300  1
  W  W4  1  0.00000000  0.50000000  0.50000000  1
  W  W5  1  0.50000000  0.00000000  0.50000000  1
  W  W6  1  0.50000000  0.50000000  0.00000000  1
  O  O0  1  0.37495800  0.37495800  0.11949800  1
  O  O1  1  0.62504200  0.62504200  0.11949800  1
  O  O2  1  0.62504200  0.37495800  0.88050200  1
  O  O3  1  0.11949800  0.37495800  0.37495800  1
  O  O4  1  0.37495800  0.62504200  0.88050200  1
  O  O5  1  0.11949800  0.62504200  0.62504200  1
  O  O6  1  0.88050200  0.62504200  0.37495800  1
  O  O7  1  0.88050200  0.37495800  0.62504200  1
  O  O8  1  0.37495800  0.11949800  0.37495800  1
  O  O9  1  0.37495800  0.88050200  0.62504200  1
  O  O10  1  0.62504200  0.88050200  0.37495800  1
  O  O11  1  0.62504200  0.11949800  0.62504200  1
  O  O12  1  0.10876700  0.10876700  0.10876700  1
  O  O13  1  0.89123300  0.89123300  0.10876700  1
  O  O14  1  0.89123300  0.10876700  0.89123300  1
  O  O15  1  0.10876700  0.89123300  0.89123300  1
  O  O16  1  0.11557100  0.11557100  0.64608400  1
  O  O17  1  0.88442900  0.88442900  0.64608400  1
  O  O18  1  0.88442900  0.11557100  0.35391600  1
  O  O19  1  0.64608400  0.11557100  0.11557100  1
  O  O20  1  0.11557100  0.88442900  0.35391600  1
  O  O21  1  0.64608400  0.88442900  0.88442900  1
  O  O22  1  0.35391600  0.88442900  0.11557100  1
  O  O23  1  0.35391600  0.11557100  0.88442900  1
  O  O24  1  0.11557100  0.64608400  0.11557100  1
  O  O25  1  0.11557100  0.35391600  0.88442900  1
  O  O26  1  0.88442900  0.35391600  0.11557100  1
  O  O27  1  0.88442900  0.64608400  0.88442900  1
loop_
_geom_bond_atom_site_label_1
_geom_bond_atom_site_label_2
_geom_bond_distance
_geom_bond_site_symmetry_2
Li0 O3 1.997979 1_555
Li0 O8 1.997979 1_555
Li0 O16 2.105670 1_555
Li0 O20 2.247429 1_545
Li0 O18 2.247429 1_455
Li0 O12 2.524962 1_555
Li1 O6 1.997979 1_555
Li1 O10 1.997979 1_555
Li1 O17 2.105670 1_555
Li1 O18 2.247429 1_565
Li1 O20 2.247429 1_655
Li1 O13 2.524962 1_555
Li2 O11 1.997979 1_555
Li2 O7 1.997979 1_555
Li2 O18 2.105670 1_555
Li2 O17 2.247429 1_545
Li2 O16 2.247429 1_655
Li2 O14 2.524962 1_555
Li3 O0 1.997979 1_555
Li3 O8 1.997979 1_555
Li3 O19 2.105670 1_555
Li3 O23 2.247429 1_554
Li3 O22 2.247429 1_545
Li3 O12 2.524962 1_555
Li4 O5 1.997979 1_555
Li4 O9 1.997979 1_555
Li4 O20 2.105670 1_555
Li4 O17 2.247429 1_455
Li4 O16 2.247429 1_565
Li4 O15 2.524962 1_555
Li5 O4 1.997979 1_555
Li5 O9 1.997979 1_555
Li5 O21 2.105670 1_555
Li5 O22 2.247429 1_556
Li5 O23 2.247429 1_565
Li5 O15 2.524962 1_555
Li6 O1 1.997979 1_555
Li6 O10 1.997979 1_555
Li6 O22 2.105670 1_555
Li6 O21 2.247429 1_554
Li6 O19 2.247429 1_565
Li6 O13 2.524962 1_555
Li7 O11 1.997979 1_555
Li7 O2 1.997979 1_555
Li7 O23 2.105670 1_555
Li7 O21 2.247429 1_545
Li7 O19 2.247429 1_556
Li7 O14 2.524962 1_555
Li8 O3 1.997979 1_555
Li8 O0 1.997979 1_555
Li8 O24 2.105670 1_555
Li8 O25 2.247429 1_554
Li8 O26 2.247429 1_455
Li8 O12 2.524962 1_555
Li9 O5 1.997979 1_555
Li9 O4 1.997979 1_555
Li9 O25 2.105670 1_555
Li9 O27 2.247429 1_455
Li9 O24 2.247429 1_556
Li9 O15 2.524962 1_555
Li10 O1 1.997979 1_555
Li10 O6 1.997979 1_555
Li10 O26 2.105670 1_555
Li10 O27 2.247429 1_554
Li10 O24 2.247429 1_655
Li10 O13 2.524962 1_555
Li11 O2 1.997979 1_555
Li11 O7 1.997979 1_555
Li11 O27 2.105670 1_555
Li11 O25 2.247429 1_655
Li11 O26 2.247429 1_556
Li11 O14 2.524962 1_555
O0 W6 1.815844 1_555
O1 W6 1.815844 1_555
O2 W6 1.815844 1_556
O3 W4 1.815844 1_555
O4 W6 1.815844 1_556
O5 W4 1.815844 1_555
O6 W4 1.815844 1_655
O7 W4 1.815844 1_655
O8 W5 1.815844 1_555
O9 W5 1.815844 1_565
O10 W5 1.815844 1_565
O11 W5 1.815844 1_555
O12 W2 2.170404 1_545
O12 W1 2.170404 1_554
O12 W3 2.170404 1_455
O13 W0 2.170404 1_554
O13 W3 2.170404 1_565
O13 W2 2.170404 1_655
O14 W0 2.170404 1_545
O14 W1 2.170404 1_655
O14 W3 2.170404 1_556
O15 W0 2.170404 1_455
O15 W1 2.170404 1_565
O15 W2 2.170404 1_556
O16 W1 1.830993 1_555
O17 W0 1.830993 1_555
O18 W3 1.830993 1_555
O19 W3 1.830993 1_555
O20 W2 1.830993 1_555
O21 W0 1.830993 1_555
O22 W2 1.830993 1_555
O23 W1 1.830993 1_555
O24 W2 1.830993 1_555
O25 W1 1.830993 1_555
O26 W3 1.830993 1_555
O27 W0 1.830993 1_555
