# generated using pymatgen
data_Ca3(OsN2)2
_symmetry_space_group_name_H-M   'P 1'
_cell_length_a   7.05497346
_cell_length_b   8.75140099
_cell_length_c   5.29569353
_cell_angle_alpha   90.00000927
_cell_angle_beta   90.86976469
_cell_angle_gamma   128.33288181
_symmetry_Int_Tables_number   1
_chemical_formula_structural   Ca3(OsN2)2
_chemical_formula_sum   'Ca6 Os4 N8'
_cell_volume   256.42681758
_cell_formula_units_Z   2
loop_
 _symmetry_equiv_pos_site_id
 _symmetry_equiv_pos_as_xyz
  1  'x, y, z'
loop_
 _atom_site_type_symbol
 _atom_site_label
 _atom_site_symmetry_multiplicity
 _atom_site_fract_x
 _atom_site_fract_y
 _atom_site_fract_z
 _atom_site_occupancy
  Ca  Ca0  1  0.22645800  0.96331200  0.04300700  1
  Ca  Ca1  1  0.77354200  0.73685300  0.45699300  1
  Ca  Ca2  1  0.77354200  0.03668800  0.95699300  1
  Ca  Ca3  1  0.22645800  0.26314700  0.54300700  1
  Ca  Ca4  1  0.00000000  0.59690700  0.75000000  1
  Ca  Ca5  1  0.00000000  0.40309300  0.25000000  1
  Os  Os0  1  0.54822800  0.16389900  0.58275100  1
  Os  Os1  1  0.45177200  0.61567100  0.91724900  1
  Os  Os2  1  0.45177200  0.83610100  0.41724900  1
  Os  Os3  1  0.54822800  0.38432900  0.08275100  1
  N  N0  1  0.21533700  0.92602600  0.52828000  1
  N  N1  1  0.78466300  0.71069000  0.97172000  1
  N  N2  1  0.78466300  0.07397400  0.47172000  1
  N  N3  1  0.21533700  0.28931000  0.02828000  1
  N  N4  1  0.68729200  0.26691500  0.92377600  1
  N  N5  1  0.31270800  0.57962200  0.57622400  1
  N  N6  1  0.31270800  0.73308500  0.07622400  1
  N  N7  1  0.68729200  0.42037800  0.42377600  1
loop_
_geom_bond_atom_site_label_1
_geom_bond_atom_site_label_2
_geom_bond_distance
_geom_bond_site_symmetry_2
Ca0 N6 2.445037 1_555
Ca0 N1 2.482241 1_454
Ca0 N0 2.586728 1_555
Ca0 N4 2.715727 1_564
Ca0 N0 2.739446 1_554
Ca0 N3 2.903270 1_565
Ca1 N7 2.445019 1_555
Ca1 N0 2.482241 1_655
Ca1 N1 2.586726 1_554
Ca1 N5 2.715727 1_555
Ca1 N1 2.739444 1_555
Ca1 N2 2.903287 1_565
Ca2 N4 2.445037 1_555
Ca2 N3 2.482241 1_656
Ca2 N2 2.586728 1_555
Ca2 N6 2.715727 1_546
Ca2 N2 2.739446 1_556
Ca2 N1 2.903270 1_545
Ca3 N5 2.445019 1_555
Ca3 N2 2.482241 1_455
Ca3 N3 2.586726 1_556
Ca3 N7 2.715727 1_555
Ca3 N3 2.739444 1_555
Ca3 N0 2.903287 1_545
Ca4 N7 2.427920 1_455
Ca4 N6 2.427921 1_556
Ca4 N4 2.492474 1_455
Ca4 N5 2.492479 1_555
Ca4 N0 2.570756 1_555
Ca4 N1 2.570762 1_455
Ca5 N5 2.427920 1_555
Ca5 N4 2.427921 1_454
Ca5 N6 2.492474 1_555
Ca5 N7 2.492479 1_455
Ca5 N2 2.570756 1_455
Ca5 N3 2.570762 1_555
N0 Os0 1.961436 1_565
N0 Os2 2.324982 1_555
N1 Os1 1.961434 1_555
N1 Os3 2.324988 1_556
N2 Os2 1.961436 1_545
N2 Os0 2.324982 1_555
N3 Os3 1.961434 1_555
N3 Os1 2.324988 1_554
N4 Os0 1.971256 1_555
N4 Os3 2.000684 1_556
N5 Os1 1.971255 1_555
N5 Os2 2.000691 1_555
N6 Os2 1.971256 1_555
N6 Os1 2.000684 1_554
N7 Os3 1.971255 1_555
N7 Os0 2.000691 1_555
