# generated using pymatgen
data_LuCu(WO4)2
_symmetry_space_group_name_H-M   'P 1'
_cell_length_a   5.94578500
_cell_length_b   5.08129300
_cell_length_c   10.93043520
_cell_angle_alpha   64.62976274
_cell_angle_beta   90.00000000
_cell_angle_gamma   90.00000000
_symmetry_Int_Tables_number   1
_chemical_formula_structural   LuCu(WO4)2
_chemical_formula_sum   'Lu2 Cu2 W4 O16'
_cell_volume   298.38495467
_cell_formula_units_Z   2
loop_
 _symmetry_equiv_pos_site_id
 _symmetry_equiv_pos_as_xyz
  1  'x, y, z'
loop_
 _atom_site_type_symbol
 _atom_site_label
 _atom_site_symmetry_multiplicity
 _atom_site_fract_x
 _atom_site_fract_y
 _atom_site_fract_z
 _atom_site_occupancy
  Lu  Lu0  1  0.33634500  0.00000000  0.25000000  1
  Lu  Lu1  1  0.66365500  0.00000000  0.75000000  1
  Cu  Cu0  1  0.70601400  0.50000000  0.25000000  1
  Cu  Cu1  1  0.29398600  0.50000000  0.75000000  1
  W  W0  1  0.16942500  0.76131000  0.99059600  1
  W  W1  1  0.83057500  0.23869000  0.00940400  1
  W  W2  1  0.16942500  0.23869000  0.50940400  1
  W  W3  1  0.83057500  0.76131000  0.49059600  1
  O  O0  1  0.36601700  0.73282100  0.86551600  1
  O  O1  1  0.36601700  0.26717900  0.63448400  1
  O  O2  1  0.63398300  0.26717900  0.13448400  1
  O  O3  1  0.63398300  0.73282100  0.36551600  1
  O  O4  1  0.90607800  0.16449400  0.38945300  1
  O  O5  1  0.90607800  0.83550600  0.11054700  1
  O  O6  1  0.09392200  0.83550600  0.61054700  1
  O  O7  1  0.09392200  0.16449400  0.88945300  1
  O  O8  1  0.63570500  0.21853300  0.88344000  1
  O  O9  1  0.63570500  0.78146700  0.61656000  1
  O  O10  1  0.36429500  0.78146700  0.11656000  1
  O  O11  1  0.36429500  0.21853300  0.38344000  1
  O  O12  1  0.88610700  0.66506800  0.90064600  1
  O  O13  1  0.11389300  0.33493200  0.09935400  1
  O  O14  1  0.88610700  0.33493200  0.59935400  1
  O  O15  1  0.11389300  0.66506800  0.40064600  1
loop_
_geom_bond_atom_site_label_1
_geom_bond_atom_site_label_2
_geom_bond_distance
_geom_bond_site_symmetry_2
Lu0 O11 2.185399 1_555
Lu0 O10 2.185399 1_545
Lu0 O13 2.226155 1_555
Lu0 O15 2.226155 1_545
Lu0 O2 2.258374 1_555
Lu0 O3 2.258374 1_545
Lu1 O8 2.185399 1_555
Lu1 O9 2.185399 1_545
Lu1 O12 2.226155 1_545
Lu1 O14 2.226155 1_555
Lu1 O0 2.258374 1_545
Lu1 O1 2.258374 1_555
Cu0 O4 2.101896 1_555
Cu0 O5 2.101896 1_555
Cu0 O3 2.111228 1_555
Cu0 O2 2.111228 1_555
Cu0 O10 2.552149 1_555
Cu0 O11 2.552149 1_555
Cu1 O7 2.101896 1_555
Cu1 O6 2.101896 1_555
Cu1 O0 2.111228 1_555
Cu1 O1 2.111228 1_555
Cu1 O9 2.552149 1_555
Cu1 O8 2.552149 1_555
O0 W0 1.850958 1_555
O1 W2 1.850958 1_555
O2 W1 1.850958 1_555
O3 W3 1.850958 1_555
O4 W3 1.918340 1_545
O4 W2 2.176349 1_655
O5 W1 1.918340 1_565
O5 W0 2.176349 1_654
O6 W2 1.918340 1_565
O6 W3 2.176349 1_455
O7 W0 1.918340 1_545
O7 W1 2.176349 1_456
O8 W1 1.835622 1_556
O9 W3 1.835622 1_555
O10 W0 1.835622 1_554
O11 W2 1.835622 1_555
O12 W1 2.002270 1_556
O12 W0 2.110817 1_655
O13 W0 2.002270 1_554
O13 W1 2.110817 1_455
O14 W3 2.002270 1_555
O14 W2 2.110817 1_655
O15 W2 2.002270 1_555
O15 W3 2.110817 1_455
