# generated using pymatgen
data_TeMoWSeS2
_symmetry_space_group_name_H-M   'P 1'
_cell_length_a   3.30660704
_cell_length_b   3.30660704
_cell_length_c   37.59305600
_cell_angle_alpha   90.00000000
_cell_angle_beta   90.00000000
_cell_angle_gamma   120.00002086
_symmetry_Int_Tables_number   1
_chemical_formula_structural   TeMoWSeS2
_chemical_formula_sum   'Te2 Mo2 W2 Se2 S4'
_cell_volume   355.96175951
_cell_formula_units_Z   2
loop_
 _symmetry_equiv_pos_site_id
 _symmetry_equiv_pos_as_xyz
  1  'x, y, z'
loop_
 _atom_site_type_symbol
 _atom_site_label
 _atom_site_symmetry_multiplicity
 _atom_site_fract_x
 _atom_site_fract_y
 _atom_site_fract_z
 _atom_site_occupancy
  Te  Te0  1  0.33333300  0.66666700  0.04309500  1
  Te  Te1  1  0.33333300  0.66666700  0.14474300  1
  Mo  Mo0  1  0.00000000  0.00000000  0.09389800  1
  Mo  Mo1  1  0.33333300  0.66666700  0.28181600  1
  W  W0  1  0.00000000  0.00000000  0.46965500  1
  W  W1  1  0.33333300  0.66666700  0.65753700  1
  Se  Se0  1  0.00000000  0.00000000  0.70239400  1
  Se  Se1  1  0.00000000  0.00000000  0.61267400  1
  S  S0  1  0.00000000  0.00000000  0.32247100  1
  S  S1  1  0.33333300  0.66666700  0.42887400  1
  S  S2  1  0.33333300  0.66666700  0.51043900  1
  S  S3  1  0.00000000  0.00000000  0.24115100  1
loop_
_geom_bond_atom_site_label_1
_geom_bond_atom_site_label_2
_geom_bond_distance
_geom_bond_site_symmetry_2
Mo0 Te0 2.700376 1_545
Mo0 Te0 2.700378 1_555
Mo0 Te0 2.700378 1_445
Mo0 Te1 2.701493 1_545
Mo0 Te1 2.701495 1_445
Mo0 Te1 2.701495 1_555
Mo1 S0 2.445482 1_565
Mo1 S0 2.445484 1_555
Mo1 S0 2.445484 1_665
Mo1 S3 2.445717 1_565
Mo1 S3 2.445719 1_665
Mo1 S3 2.445719 1_555
Se0 W1 2.547193 1_545
Se0 W1 2.547194 1_445
Se0 W1 2.547194 1_555
Se1 W1 2.547342 1_545
Se1 W1 2.547344 1_445
Se1 W1 2.547344 1_555
S1 W0 2.448445 1_565
S1 W0 2.448447 1_665
S1 W0 2.448447 1_555
S2 W0 2.448516 1_565
S2 W0 2.448518 1_665
S2 W0 2.448518 1_555
