# generated using pymatgen
data_YMg6Zr
_symmetry_space_group_name_H-M   'P 1'
_cell_length_a   5.18384500
_cell_length_b   6.55161500
_cell_length_c   11.38668000
_cell_angle_alpha   90.00000000
_cell_angle_beta   90.00000000
_cell_angle_gamma   90.00000000
_symmetry_Int_Tables_number   1
_chemical_formula_structural   YMg6Zr
_chemical_formula_sum   'Y2 Mg12 Zr2'
_cell_volume   386.72076467
_cell_formula_units_Z   2
loop_
 _symmetry_equiv_pos_site_id
 _symmetry_equiv_pos_as_xyz
  1  'x, y, z'
loop_
 _atom_site_type_symbol
 _atom_site_label
 _atom_site_symmetry_multiplicity
 _atom_site_fract_x
 _atom_site_fract_y
 _atom_site_fract_z
 _atom_site_occupancy
  Y  Y0  1  0.00000000  0.50000000  0.33160200  1
  Y  Y1  1  0.00000000  0.00000000  0.83160200  1
  Mg  Mg0  1  0.00000000  0.25722500  0.08453400  1
  Mg  Mg1  1  0.00000000  0.74277500  0.08453400  1
  Mg  Mg2  1  0.00000000  0.00000000  0.33504000  1
  Mg  Mg3  1  0.50000000  0.75187900  0.41738100  1
  Mg  Mg4  1  0.50000000  0.24812100  0.41738100  1
  Mg  Mg5  1  0.50000000  0.00000000  0.16515800  1
  Mg  Mg6  1  0.00000000  0.75722500  0.58453400  1
  Mg  Mg7  1  0.00000000  0.24277500  0.58453400  1
  Mg  Mg8  1  0.00000000  0.50000000  0.83504000  1
  Mg  Mg9  1  0.50000000  0.25187900  0.91738100  1
  Mg  Mg10  1  0.50000000  0.74812100  0.91738100  1
  Mg  Mg11  1  0.50000000  0.50000000  0.66515800  1
  Zr  Zr0  1  0.50000000  0.50000000  0.16437000  1
  Zr  Zr1  1  0.50000000  0.00000000  0.66437000  1
loop_
_geom_bond_atom_site_label_1
_geom_bond_atom_site_label_2
_geom_bond_distance
_geom_bond_site_symmetry_2
Y0 Zr0 3.216225 1_555
Y0 Zr0 3.216225 1_455
Y1 Zr1 3.216225 1_455
Y1 Zr1 3.216225 1_555
Mg0 Zr0 3.174015 1_555
Mg0 Zr0 3.174015 1_455
Mg0 Mg1 3.181137 1_555
Mg0 Mg9 3.215884 1_554
Mg0 Mg9 3.215884 1_454
Mg0 Mg5 3.225041 1_555
Mg0 Mg5 3.225041 1_455
Mg0 Y0 3.231791 1_555
Mg0 Mg8 3.255867 1_554
Mg0 Mg2 3.313065 1_555
Mg0 Y1 3.336878 1_554
Mg0 Mg1 3.370478 1_545
Mg1 Zr0 3.174015 1_555
Mg1 Zr0 3.174015 1_455
Mg1 Mg10 3.215884 1_454
Mg1 Mg10 3.215884 1_554
Mg1 Mg5 3.225041 1_565
Mg1 Mg5 3.225041 1_465
Mg1 Y0 3.231791 1_555
Mg1 Mg8 3.255867 1_554
Mg1 Mg2 3.313065 1_565
Mg1 Y1 3.336878 1_564
Mg2 Mg4 3.199952 1_455
Mg2 Mg3 3.199952 1_445
Mg2 Mg3 3.199952 1_545
Mg2 Mg4 3.199952 1_555
Mg2 Mg5 3.234182 1_555
Mg2 Mg5 3.234182 1_455
Mg2 Mg7 3.255867 1_555
Mg2 Mg6 3.255867 1_545
Mg2 Y0 3.276041 1_555
Mg2 Y0 3.276041 1_545
Mg3 Mg6 3.215884 1_655
Mg3 Mg6 3.215884 1_555
Mg3 Y0 3.224172 1_555
Mg3 Y0 3.224172 1_655
Mg3 Zr1 3.248394 1_565
Mg3 Mg4 3.251187 1_565
Mg3 Mg5 3.300127 1_565
Mg3 Mg4 3.300428 1_555
Mg3 Zr0 3.320107 1_555
Mg4 Mg7 3.215884 1_555
Mg4 Mg7 3.215884 1_655
Mg4 Y0 3.224172 1_555
Mg4 Y0 3.224172 1_655
Mg4 Zr1 3.248394 1_555
Mg4 Mg5 3.300127 1_555
Mg4 Zr0 3.320107 1_555
Mg5 Mg9 3.268526 1_554
Mg5 Zr0 3.275820 1_555
Mg5 Zr0 3.275820 1_545
Mg6 Zr1 3.174015 1_565
Mg6 Zr1 3.174015 1_465
Mg6 Mg7 3.181137 1_565
Mg6 Y1 3.231791 1_565
Mg6 Mg8 3.313065 1_555
Mg6 Y0 3.336878 1_555
Mg6 Mg7 3.370478 1_555
Mg7 Zr1 3.174015 1_455
Mg7 Zr1 3.174015 1_555
Mg7 Y1 3.231791 1_555
Mg7 Mg8 3.313065 1_555
Mg7 Y0 3.336878 1_555
Mg8 Mg9 3.199952 1_455
Mg8 Mg9 3.199952 1_555
Mg8 Y1 3.276041 1_565
Mg8 Y1 3.276041 1_555
Mg9 Y1 3.224172 1_555
Mg9 Y1 3.224172 1_655
Mg9 Zr0 3.248394 1_556
Mg9 Zr1 3.320107 1_555
Mg10 Mg8 3.199952 1_555
Mg10 Mg8 3.199952 1_655
Mg10 Y1 3.224172 1_665
Mg10 Y1 3.224172 1_565
Mg10 Zr0 3.248394 1_556
Mg10 Mg9 3.251187 1_555
Mg10 Mg5 3.268526 1_566
Mg10 Mg11 3.300127 1_555
Mg10 Mg9 3.300428 1_565
Mg10 Zr1 3.320107 1_565
Mg11 Mg6 3.225041 1_655
Mg11 Mg7 3.225041 1_655
Mg11 Mg6 3.225041 1_555
Mg11 Mg7 3.225041 1_555
Mg11 Mg8 3.234182 1_555
Mg11 Mg8 3.234182 1_655
Mg11 Mg4 3.268526 1_555
Mg11 Mg3 3.268526 1_555
Mg11 Zr1 3.275820 1_565
Mg11 Zr1 3.275820 1_555
Mg11 Mg9 3.300127 1_555
