# generated using pymatgen
data_K2HoF5
_symmetry_space_group_name_H-M   'P 1'
_cell_length_a   6.54050953
_cell_length_b   7.18552402
_cell_length_c   10.71149457
_cell_angle_alpha   90.00000000
_cell_angle_beta   90.00000000
_cell_angle_gamma   90.00000000
_symmetry_Int_Tables_number   1
_chemical_formula_structural   K2HoF5
_chemical_formula_sum   'K8 Ho4 F20'
_cell_volume   503.40798531
_cell_formula_units_Z   4
loop_
 _symmetry_equiv_pos_site_id
 _symmetry_equiv_pos_as_xyz
  1  'x, y, z'
loop_
 _atom_site_type_symbol
 _atom_site_label
 _atom_site_symmetry_multiplicity
 _atom_site_fract_x
 _atom_site_fract_y
 _atom_site_fract_z
 _atom_site_occupancy
  K  K0  1  0.53480035  0.49702447  0.82863922  1
  K  K1  1  0.46519965  0.50297553  0.17136078  1
  K  K2  1  0.03480035  0.50297553  0.67136078  1
  K  K3  1  0.46519965  0.99702447  0.17136078  1
  K  K4  1  0.96519965  0.49702447  0.32863922  1
  K  K5  1  0.53480035  0.00297553  0.82863922  1
  K  K6  1  0.96519965  0.00297553  0.32863922  1
  K  K7  1  0.03480035  0.99702447  0.67136078  1
  Ho  Ho0  1  0.56513210  0.75000000  0.50261531  1
  Ho  Ho1  1  0.43486790  0.25000000  0.49738469  1
  Ho  Ho2  1  0.06513210  0.25000000  0.99738469  1
  Ho  Ho3  1  0.93486790  0.75000000  0.00261531  1
  F  F0  1  0.83817841  0.75000000  0.80723091  1
  F  F1  1  0.16182159  0.25000000  0.19276909  1
  F  F2  1  0.33817841  0.25000000  0.69276909  1
  F  F3  1  0.66182159  0.75000000  0.30723091  1
  F  F4  1  0.36865179  0.75000000  0.66629144  1
  F  F5  1  0.63134821  0.25000000  0.33370856  1
  F  F6  1  0.86865179  0.25000000  0.83370856  1
  F  F7  1  0.13134821  0.75000000  0.16629144  1
  F  F8  1  0.89612349  0.75000000  0.51258826  1
  F  F9  1  0.10387651  0.25000000  0.48741174  1
  F  F10  1  0.39612349  0.25000000  0.98741174  1
  F  F11  1  0.60387651  0.75000000  0.01258826  1
  F  F12  1  0.64739474  0.03496641  0.57661935  1
  F  F13  1  0.35260526  0.96503359  0.42338065  1
  F  F14  1  0.14739474  0.96503359  0.92338065  1
  F  F15  1  0.35260526  0.53496641  0.42338065  1
  F  F16  1  0.85260526  0.03496641  0.07661935  1
  F  F17  1  0.64739474  0.46503359  0.57661935  1
  F  F18  1  0.85260526  0.46503359  0.07661935  1
  F  F19  1  0.14739474  0.53496641  0.92338065  1
loop_
_geom_bond_atom_site_label_1
_geom_bond_atom_site_label_2
_geom_bond_distance
_geom_bond_site_symmetry_2
F0 Ho3 2.186318 1_556
F0 K2 2.631074 1_655
F0 K7 2.631074 1_655
F0 K0 2.700755 1_555
F0 K5 2.700755 1_565
F1 Ho2 2.186318 1_554
F1 K4 2.631074 1_455
F1 K6 2.631074 1_455
F1 K3 2.700755 1_545
F1 K1 2.700755 1_555
F2 Ho1 2.186318 1_555
F2 K0 2.631074 1_555
F2 K5 2.631074 1_555
F2 K7 2.700755 1_545
F2 K2 2.700755 1_555
F3 Ho0 2.186318 1_555
F3 K1 2.631074 1_555
F3 K3 2.631074 1_555
F3 K4 2.700755 1_555
F3 K6 2.700755 1_565
F4 Ho0 2.173753 1_555
F4 K5 2.740300 1_565
F4 K0 2.740300 1_555
F4 K2 2.814516 1_555
F4 K7 2.814516 1_555
F5 Ho1 2.173753 1_555
F5 K3 2.740300 1_545
F5 K1 2.740300 1_555
F5 K4 2.814516 1_555
F5 K6 2.814516 1_555
F6 Ho2 2.173753 1_655
F6 K7 2.740300 1_645
F6 K2 2.740300 1_655
F6 K5 2.814516 1_555
F6 K0 2.814516 1_555
F7 Ho3 2.173753 1_455
F7 K4 2.740300 1_455
F7 K6 2.740300 1_465
F7 K1 2.814516 1_555
F7 K3 2.814516 1_555
F8 Ho0 2.167486 1_555
F8 K2 2.620240 1_655
F8 K7 2.620240 1_655
F8 K4 2.718590 1_555
F8 K6 2.718590 1_565
F9 Ho1 2.167486 1_555
F9 K6 2.620240 1_455
F9 K4 2.620240 1_455
F9 K7 2.718590 1_545
F9 K2 2.718590 1_555
F10 Ho2 2.167486 1_555
F10 K5 2.620240 1_555
F10 K0 2.620240 1_555
F10 K3 2.718590 1_546
F10 K1 2.718590 1_556
F11 Ho3 2.167486 1_555
F11 K1 2.620240 1_555
F11 K3 2.620240 1_555
F11 K0 2.718590 1_554
F11 K5 2.718590 1_564
F12 Ho1 2.244982 1_555
F12 Ho0 2.260675 1_545
F12 K7 2.743080 1_645
F12 K5 2.807581 1_555
F13 Ho0 2.244982 1_555
F13 Ho1 2.260675 1_565
F13 K6 2.743080 1_465
F13 K3 2.807581 1_555
F14 Ho3 2.244982 1_456
F14 Ho2 2.260675 1_565
F14 K5 2.743080 1_565
F14 K7 2.807581 1_555
F15 Ho0 2.244982 1_555
F15 Ho1 2.260675 1_555
F15 K4 2.743080 1_455
F15 K1 2.807581 1_555
F16 Ho2 2.244982 1_654
F16 Ho3 2.260675 1_545
F16 K3 2.743080 1_545
F16 K6 2.807581 1_555
F17 Ho1 2.244982 1_555
F17 Ho0 2.260675 1_555
F17 K2 2.743080 1_655
F17 K0 2.807581 1_555
F18 Ho2 2.244982 1_654
F18 Ho3 2.260675 1_555
F18 K1 2.743080 1_555
F18 K4 2.807581 1_555
F19 Ho3 2.244982 1_456
F19 Ho2 2.260675 1_555
F19 K0 2.743080 1_555
F19 K2 2.807581 1_555
