# generated using pymatgen
data_ZrAlCu2
_symmetry_space_group_name_H-M   'P 1'
_cell_length_a   3.05503500
_cell_length_b   3.05503500
_cell_length_c   6.57335700
_cell_angle_alpha   90.00000000
_cell_angle_beta   90.00000000
_cell_angle_gamma   90.00000000
_symmetry_Int_Tables_number   1
_chemical_formula_structural   ZrAlCu2
_chemical_formula_sum   'Zr1 Al1 Cu2'
_cell_volume   61.35071094
_cell_formula_units_Z   1
loop_
 _symmetry_equiv_pos_site_id
 _symmetry_equiv_pos_as_xyz
  1  'x, y, z'
loop_
 _atom_site_type_symbol
 _atom_site_label
 _atom_site_symmetry_multiplicity
 _atom_site_fract_x
 _atom_site_fract_y
 _atom_site_fract_z
 _atom_site_occupancy
  Zr  Zr0  1  0.50000000  0.50000000  0.75000000  1
  Al  Al0  1  0.50000000  0.50000000  0.25000000  1
  Cu  Cu0  1  0.00000000  0.00000000  0.03858100  1
  Cu  Cu1  1  0.00000000  0.00000000  0.46141900  1
loop_
_geom_bond_atom_site_label_1
_geom_bond_atom_site_label_2
_geom_bond_distance
_geom_bond_site_symmetry_2
Al0 Cu1 2.568653 1_565
Al0 Cu1 2.568653 1_655
Al0 Cu1 2.568653 1_555
Al0 Cu1 2.568653 1_665
Al0 Cu0 2.568653 1_665
Al0 Cu0 2.568653 1_655
Al0 Cu0 2.568653 1_555
Al0 Cu0 2.568653 1_565
Cu0 Zr0 2.874895 1_554
Cu0 Zr0 2.874895 1_444
Cu0 Zr0 2.874895 1_544
Cu0 Zr0 2.874895 1_454
Cu1 Zr0 2.874895 1_445
Cu1 Zr0 2.874895 1_545
Cu1 Zr0 2.874895 1_455
Cu1 Zr0 2.874895 1_555
