# generated using pymatgen
data_Na2CoO3
_symmetry_space_group_name_H-M   'P 1'
_cell_length_a   5.28137362
_cell_length_b   5.28147196
_cell_length_c   10.89310864
_cell_angle_alpha   94.17331340
_cell_angle_beta   85.83111438
_cell_angle_gamma   60.08152237
_symmetry_Int_Tables_number   1
_chemical_formula_structural   Na2CoO3
_chemical_formula_sum   'Na8 Co4 O12'
_cell_volume   260.55988687
_cell_formula_units_Z   4
loop_
 _symmetry_equiv_pos_site_id
 _symmetry_equiv_pos_as_xyz
  1  'x, y, z'
loop_
 _atom_site_type_symbol
 _atom_site_label
 _atom_site_symmetry_multiplicity
 _atom_site_fract_x
 _atom_site_fract_y
 _atom_site_fract_z
 _atom_site_occupancy
  Na  Na0  1  0.25126800  0.75085400  0.25187500  1
  Na  Na1  1  0.75085600  0.25126600  0.74812500  1
  Na  Na2  1  0.00009900  0.00010400  0.00000300  1
  Na  Na3  1  0.49992500  0.49992600  0.49999900  1
  Na  Na4  1  0.90656000  0.40866000  0.25152300  1
  Na  Na5  1  0.40865700  0.90656300  0.74847400  1
  Na  Na6  1  0.59294400  0.09051600  0.25110800  1
  Na  Na7  1  0.09051400  0.59294500  0.74889500  1
  Co  Co0  1  0.17063800  0.17064200  0.49999700  1
  Co  Co1  1  0.82940000  0.82940000  0.49999800  1
  Co  Co2  1  0.66853700  0.66857000  0.00000000  1
  Co  Co3  1  0.33211700  0.33209200  0.99999800  1
  O  O0  1  0.91262400  0.08761400  0.40202000  1
  O  O1  1  0.41927800  0.59504800  0.89936500  1
  O  O2  1  0.59501400  0.41924100  0.10063500  1
  O  O3  1  0.08761800  0.91262300  0.59798300  1
  O  O4  1  0.94710300  0.66179300  0.10075600  1
  O  O5  1  0.46104400  0.15336100  0.59808100  1
  O  O6  1  0.35692500  0.01745300  0.09985500  1
  O  O7  1  0.84739500  0.53885400  0.59714000  1
  O  O8  1  0.53885300  0.84739300  0.40285900  1
  O  O9  1  0.01749400  0.35690900  0.90015100  1
  O  O10  1  0.15336000  0.46104100  0.40192000  1
  O  O11  1  0.66177900  0.94713300  0.89924000  1
loop_
_geom_bond_atom_site_label_1
_geom_bond_atom_site_label_2
_geom_bond_distance
_geom_bond_site_symmetry_2
Na0 O0 2.239480 1_465
Na0 O2 2.247417 1_555
Na0 O6 2.454580 1_565
Na0 O8 2.507087 1_555
Na0 O10 2.512460 1_555
Na0 O4 2.556787 1_455
Na1 O3 2.239462 1_645
Na1 O1 2.247425 1_555
Na1 O9 2.454626 1_655
Na1 O7 2.507226 1_555
Na1 O5 2.512321 1_555
Na1 O11 2.556788 1_545
Na2 O6 2.280069 1_555
Na2 O9 2.280176 1_554
Na2 O11 2.283590 1_444
Na2 O4 2.283657 1_445
Na2 O2 2.293597 1_455
Na2 O1 2.293659 1_544
Na3 O7 2.270833 1_555
Na3 O8 2.270915 1_555
Na3 O10 2.271809 1_555
Na3 O5 2.271919 1_555
Na3 O0 2.284883 1_555
Na3 O3 2.284884 1_555
Na4 O10 2.250269 1_655
Na4 O4 2.254863 1_555
Na4 O2 2.393081 1_555
Na4 O0 2.433451 1_555
Na4 O8 2.519510 1_555
Na4 O6 2.585635 1_655
Na5 O5 2.250344 1_565
Na5 O11 2.254760 1_555
Na5 O1 2.393036 1_555
Na5 O3 2.433272 1_555
Na5 O7 2.519521 1_555
Na5 O9 2.585564 1_565
Na6 O8 2.251471 1_545
Na6 O6 2.259025 1_555
Na6 O0 2.436095 1_555
Na6 O4 2.469417 1_545
Na6 O2 2.476202 1_555
Na6 O10 2.522655 1_555
Na7 O7 2.251387 1_455
Na7 O9 2.259128 1_555
Na7 O3 2.436207 1_555
Na7 O11 2.469453 1_455
Na7 O1 2.476273 1_555
Na7 O5 2.522666 1_555
Co0 O5 1.901334 1_555
Co0 O10 1.901348 1_555
Co0 O0 1.981826 1_455
Co0 O3 1.981974 1_545
Co0 O8 1.985479 1_545
Co0 O7 1.985480 1_455
Co1 O8 1.894361 1_555
Co1 O7 1.894460 1_555
Co1 O3 1.983319 1_655
Co1 O0 1.983352 1_565
Co1 O10 1.991222 1_655
Co1 O5 1.991239 1_565
Co2 O4 1.886348 1_555
Co2 O11 1.886483 1_554
Co2 O6 1.926103 1_565
Co2 O9 1.926355 1_654
Co2 O1 1.934751 1_554
Co2 O2 1.935149 1_555
Co3 O9 2.006854 1_555
Co3 O6 2.007096 1_556
Co3 O2 2.031450 1_556
Co3 O1 2.031813 1_555
Co3 O11 2.058135 1_545
Co3 O4 2.058355 1_456
