# generated using pymatgen
data_KYMg14O16
_symmetry_space_group_name_H-M   'P 1'
_cell_length_a   8.73096500
_cell_length_b   8.73096500
_cell_length_c   4.44306400
_cell_angle_alpha   90.00000000
_cell_angle_beta   90.00000000
_cell_angle_gamma   90.00000000
_symmetry_Int_Tables_number   1
_chemical_formula_structural   KYMg14O16
_chemical_formula_sum   'K1 Y1 Mg14 O16'
_cell_volume   338.69365720
_cell_formula_units_Z   1
loop_
 _symmetry_equiv_pos_site_id
 _symmetry_equiv_pos_as_xyz
  1  'x, y, z'
loop_
 _atom_site_type_symbol
 _atom_site_label
 _atom_site_symmetry_multiplicity
 _atom_site_fract_x
 _atom_site_fract_y
 _atom_site_fract_z
 _atom_site_occupancy
  K  K0  1  0.50000000  0.50000000  0.00000000  1
  Y  Y0  1  0.00000000  0.00000000  0.00000000  1
  Mg  Mg0  1  0.50000000  0.00000000  0.00000000  1
  Mg  Mg1  1  0.00000000  0.50000000  0.00000000  1
  Mg  Mg2  1  0.26376200  0.00000000  0.50000000  1
  Mg  Mg3  1  0.73623800  0.00000000  0.50000000  1
  Mg  Mg4  1  0.25111500  0.50000000  0.50000000  1
  Mg  Mg5  1  0.74888500  0.50000000  0.50000000  1
  Mg  Mg6  1  0.00000000  0.26376200  0.50000000  1
  Mg  Mg7  1  0.50000000  0.25111500  0.50000000  1
  Mg  Mg8  1  0.00000000  0.73623800  0.50000000  1
  Mg  Mg9  1  0.50000000  0.74888500  0.50000000  1
  Mg  Mg10  1  0.25712400  0.25712400  0.00000000  1
  Mg  Mg11  1  0.74287600  0.25712400  0.00000000  1
  Mg  Mg12  1  0.25712400  0.74287600  0.00000000  1
  Mg  Mg13  1  0.74287600  0.74287600  0.00000000  1
  O  O0  1  0.00000000  0.25513300  0.00000000  1
  O  O1  1  0.50000000  0.22557800  0.00000000  1
  O  O2  1  0.00000000  0.74486700  0.00000000  1
  O  O3  1  0.50000000  0.77442200  0.00000000  1
  O  O4  1  0.24758400  0.24758400  0.50000000  1
  O  O5  1  0.75241600  0.24758400  0.50000000  1
  O  O6  1  0.24758400  0.75241600  0.50000000  1
  O  O7  1  0.75241600  0.75241600  0.50000000  1
  O  O8  1  0.00000000  0.00000000  0.50000000  1
  O  O9  1  0.50000000  0.00000000  0.50000000  1
  O  O10  1  0.00000000  0.50000000  0.50000000  1
  O  O11  1  0.50000000  0.50000000  0.50000000  1
  O  O12  1  0.25513300  0.00000000  0.00000000  1
  O  O13  1  0.74486700  0.00000000  0.00000000  1
  O  O14  1  0.22557800  0.50000000  0.00000000  1
  O  O15  1  0.77442200  0.50000000  0.00000000  1
loop_
_geom_bond_atom_site_label_1
_geom_bond_atom_site_label_2
_geom_bond_distance
_geom_bond_site_symmetry_2
K0 O11 2.221532 1_554
K0 O11 2.221532 1_555
K0 O15 2.395969 1_555
K0 O3 2.395969 1_555
K0 O1 2.395969 1_555
K0 O14 2.395969 1_555
Mg0 O1 1.969514 1_555
Mg0 O3 1.969514 1_545
Mg0 O13 2.137925 1_555
Mg0 O12 2.137925 1_555
Mg0 O9 2.221532 1_555
Mg0 O9 2.221532 1_554
Mg1 O14 1.969514 1_555
Mg1 O15 1.969514 1_455
Mg1 O2 2.137925 1_555
Mg1 O0 2.137925 1_555
Mg1 O10 2.221532 1_555
Mg1 O10 2.221532 1_554
Mg2 O9 2.062586 1_555
Mg2 O4 2.166257 1_555
Mg2 O6 2.166257 1_545
Mg2 O12 2.222809 1_556
Mg2 O12 2.222809 1_555
Mg2 O8 2.302897 1_555
Mg3 O9 2.062586 1_555
Mg3 O5 2.166257 1_555
Mg3 O7 2.166257 1_545
Mg3 O13 2.222809 1_555
Mg3 O13 2.222809 1_556
Mg3 O8 2.302897 1_655
Mg4 O11 2.173006 1_555
Mg4 O10 2.192476 1_555
Mg4 O4 2.204051 1_555
Mg4 O6 2.204051 1_555
Mg4 O14 2.232693 1_556
Mg4 O14 2.232693 1_555
Mg5 O11 2.173006 1_555
Mg5 O10 2.192476 1_655
Mg5 O5 2.204051 1_555
Mg5 O7 2.204051 1_555
Mg5 O15 2.232693 1_556
Mg5 O15 2.232693 1_555
Mg6 O10 2.062586 1_555
Mg6 O4 2.166257 1_555
Mg6 O5 2.166257 1_455
Mg6 O0 2.222809 1_555
Mg6 O0 2.222809 1_556
Mg6 O8 2.302897 1_555
Mg7 O11 2.173006 1_555
Mg7 O9 2.192476 1_555
Mg7 O4 2.204051 1_555
Mg7 O5 2.204051 1_555
Mg7 O1 2.232693 1_556
Mg7 O1 2.232693 1_555
Mg8 O10 2.062586 1_555
Mg8 O6 2.166257 1_555
Mg8 O7 2.166257 1_455
Mg8 O2 2.222809 1_556
Mg8 O2 2.222809 1_555
Mg8 O8 2.302897 1_565
Mg9 O11 2.173006 1_555
Mg9 O9 2.192476 1_565
Mg9 O6 2.204051 1_555
Mg9 O7 2.204051 1_555
Mg9 O3 2.232693 1_556
Mg9 O3 2.232693 1_555
Mg10 O1 2.138354 1_555
Mg10 O14 2.138354 1_555
Mg10 O4 2.224653 1_554
Mg10 O4 2.224653 1_555
Mg10 O12 2.245008 1_555
Mg10 O0 2.245008 1_555
Mg11 O1 2.138354 1_555
Mg11 O15 2.138354 1_555
Mg11 O5 2.224653 1_555
Mg11 O5 2.224653 1_554
Mg11 O13 2.245008 1_555
Mg11 O0 2.245008 1_655
Mg12 O14 2.138354 1_555
Mg12 O3 2.138354 1_555
Mg12 O6 2.224653 1_555
Mg12 O6 2.224653 1_554
Mg12 O2 2.245008 1_555
Mg12 O12 2.245008 1_565
Mg13 O15 2.138354 1_555
Mg13 O3 2.138354 1_555
Mg13 O7 2.224653 1_555
Mg13 O7 2.224653 1_554
Mg13 O13 2.245008 1_565
Mg13 O2 2.245008 1_655
O0 Y0 2.227557 1_555
O2 Y0 2.227557 1_565
O8 Y0 2.221532 1_556
O8 Y0 2.221532 1_555
O12 Y0 2.227557 1_555
O13 Y0 2.227557 1_655
