# generated using pymatgen
data_Rb2TaCuS4
_symmetry_space_group_name_H-M   'P 1'
_cell_length_a   13.99435844
_cell_length_b   12.48279445
_cell_length_c   7.46811421
_cell_angle_alpha   85.15391598
_cell_angle_beta   62.72271190
_cell_angle_gamma   32.12337211
_symmetry_Int_Tables_number   1
_chemical_formula_structural   Rb2TaCuS4
_chemical_formula_sum   'Rb4 Ta2 Cu2 S8'
_cell_volume   472.46751423
_cell_formula_units_Z   2
loop_
 _symmetry_equiv_pos_site_id
 _symmetry_equiv_pos_as_xyz
  1  'x, y, z'
loop_
 _atom_site_type_symbol
 _atom_site_label
 _atom_site_symmetry_multiplicity
 _atom_site_fract_x
 _atom_site_fract_y
 _atom_site_fract_z
 _atom_site_occupancy
  Rb  Rb0  1  0.82248800  0.82248800  0.17751200  1
  Rb  Rb1  1  0.17751200  0.17751200  0.82248800  1
  Rb  Rb2  1  0.42751200  0.42751200  0.07248800  1
  Rb  Rb3  1  0.07248800  0.07248800  0.42751200  1
  Ta  Ta0  1  0.00000000  0.00000000  0.00000000  1
  Ta  Ta1  1  0.25000000  0.25000000  0.25000000  1
  Cu  Cu0  1  0.50000000  0.50000000  0.50000000  1
  Cu  Cu1  1  0.75000000  0.75000000  0.75000000  1
  S  S0  1  0.53383900  0.85922900  0.15715800  1
  S  S1  1  0.44977400  0.15715800  0.85922900  1
  S  S2  1  0.80022600  0.09284200  0.39077100  1
  S  S3  1  0.71616100  0.39077100  0.09284200  1
  S  S4  1  0.39077100  0.71616100  0.80022600  1
  S  S5  1  0.09284200  0.80022600  0.71616100  1
  S  S6  1  0.15715800  0.44977400  0.53383900  1
  S  S7  1  0.85922900  0.53383900  0.44977400  1
loop_
_geom_bond_atom_site_label_1
_geom_bond_atom_site_label_2
_geom_bond_distance
_geom_bond_site_symmetry_2
Rb0 S1 3.522345 1_654
Rb0 S6 3.522345 1_565
Rb0 S2 3.563025 1_565
Rb0 S5 3.563025 1_654
Rb0 S1 3.594876 1_565
Rb0 S6 3.594876 1_654
Rb0 S7 3.736805 1_555
Rb0 S0 3.736805 1_555
Rb1 S7 3.522345 1_456
Rb1 S0 3.522345 1_545
Rb1 S4 3.563025 1_545
Rb1 S3 3.563025 1_456
Rb1 S7 3.594876 1_545
Rb1 S0 3.594876 1_456
Rb1 S1 3.736805 1_555
Rb1 S6 3.736805 1_555
Rb2 S5 3.522345 1_644
Rb2 S2 3.522345 1_465
Rb2 S6 3.563025 1_555
Rb2 S1 3.563025 1_554
Rb2 S5 3.594876 1_555
Rb2 S2 3.594876 1_554
Rb2 S3 3.736805 1_555
Rb2 S4 3.736805 1_554
Rb3 S3 3.522345 1_456
Rb3 S4 3.522345 1_544
Rb3 S0 3.563025 1_545
Rb3 S7 3.563025 1_455
Rb3 S3 3.594876 1_545
Rb3 S4 3.594876 1_455
Rb3 S5 3.736805 1_545
Rb3 S2 3.736805 1_455
Cu0 S4 2.353503 1_555
Cu0 S3 2.353503 1_555
Cu0 S2 2.353503 1_555
Cu0 S5 2.353503 1_555
Cu1 S6 2.353503 1_655
Cu1 S1 2.353503 1_565
Cu1 S0 2.353503 1_556
Cu1 S7 2.353503 1_555
S0 Ta1 2.298014 1_565
S1 Ta1 2.298014 1_556
S2 Ta0 2.298014 1_655
S3 Ta0 2.298014 1_655
S4 Ta0 2.298014 1_566
S5 Ta0 2.298014 1_566
S6 Ta1 2.298014 1_555
S7 Ta1 2.298014 1_655
