# generated using pymatgen
data_KGaGeO4
_symmetry_space_group_name_H-M   'P 1'
_cell_length_a   8.78912392
_cell_length_b   18.90340914
_cell_length_c   18.90340915
_cell_angle_alpha   120.00000005
_cell_angle_beta   90.00000000
_cell_angle_gamma   90.00000000
_symmetry_Int_Tables_number   1
_chemical_formula_structural   KGaGeO4
_chemical_formula_sum   'K24 Ga24 Ge24 O96'
_cell_volume   2719.92223751
_cell_formula_units_Z   24
loop_
 _symmetry_equiv_pos_site_id
 _symmetry_equiv_pos_as_xyz
  1  'x, y, z'
loop_
 _atom_site_type_symbol
 _atom_site_label
 _atom_site_symmetry_multiplicity
 _atom_site_fract_x
 _atom_site_fract_y
 _atom_site_fract_z
 _atom_site_occupancy
  K  K0  1  0.98351009  0.99599142  0.52557896  1
  K  K1  1  0.98351009  0.52958753  0.00400858  1
  K  K2  1  0.48351009  0.00400858  0.47442104  1
  K  K3  1  0.98351009  0.47442104  0.47041247  1
  K  K4  1  0.48351009  0.47041247  0.99599142  1
  K  K5  1  0.48351009  0.52557896  0.52958753  1
  K  K6  1  0.98335291  0.66666700  0.33333300  1
  K  K7  1  0.48335291  0.33333300  0.66666700  1
  K  K8  1  0.98052967  0.80252622  0.13365686  1
  K  K9  1  0.98052967  0.33113064  0.19747378  1
  K  K10  1  0.48052967  0.19747378  0.86634314  1
  K  K11  1  0.98052967  0.86634314  0.66886936  1
  K  K12  1  0.48052967  0.66886936  0.80252622  1
  K  K13  1  0.48052967  0.13365686  0.33113064  1
  K  K14  1  0.47631942  0.66666700  0.33333300  1
  K  K15  1  0.97631942  0.33333300  0.66666700  1
  K  K16  1  0.97999541  0.66947948  0.85569300  1
  K  K17  1  0.97999541  0.18621352  0.33052052  1
  K  K18  1  0.47999541  0.33052052  0.14430700  1
  K  K19  1  0.97999541  0.14430700  0.81378648  1
  K  K20  1  0.47999541  0.81378648  0.66947948  1
  K  K21  1  0.47999541  0.85569300  0.18621352  1
  K  K22  1  0.99330433  -0.00000000  0.00000000  1
  K  K23  1  0.49330433  -0.00000000  0.00000000  1
  Ga  Ga0  1  0.68567344  0.50226780  0.82453036  1
  Ga  Ga1  1  0.68567344  0.32226255  0.49773220  1
  Ga  Ga2  1  0.18567344  0.49773220  0.17546964  1
  Ga  Ga3  1  0.68567344  0.17546964  0.67773745  1
  Ga  Ga4  1  0.18567344  0.67773745  0.50226780  1
  Ga  Ga5  1  0.18567344  0.82453036  0.32226255  1
  Ga  Ga6  1  0.68521510  0.65278767  0.16508714  1
  Ga  Ga7  1  0.68521510  0.51229947  0.34721233  1
  Ga  Ga8  1  0.18521510  0.34721233  0.83491286  1
  Ga  Ga9  1  0.68521510  0.83491286  0.48770053  1
  Ga  Ga10  1  0.18521510  0.48770053  0.65278767  1
  Ga  Ga11  1  0.18521510  0.16508714  0.51229947  1
  Ga  Ga12  1  0.78887727  0.66903640  0.66976036  1
  Ga  Ga13  1  0.78887727  0.00072396  0.33096360  1
  Ga  Ga14  1  0.28887727  0.33096360  0.33023964  1
  Ga  Ga15  1  0.78887727  0.33023964  0.99927604  1
  Ga  Ga16  1  0.28887727  0.99927604  0.66903640  1
  Ga  Ga17  1  0.28887727  0.66976036  0.00072396  1
  Ga  Ga18  1  0.66286566  0.83110984  0.99327881  1
  Ga  Ga19  1  0.66286566  0.16216897  0.16889016  1
  Ga  Ga20  1  0.16286566  0.16889016  0.00672119  1
  Ga  Ga21  1  0.66286566  0.00672119  0.83783103  1
  Ga  Ga22  1  0.16286566  0.83783103  0.83110984  1
  Ga  Ga23  1  0.16286566  0.99327881  0.16216897  1
  Ge  Ge0  1  0.80226212  0.82492611  0.31948626  1
  Ge  Ge1  1  0.80226212  0.49456015  0.17507389  1
  Ge  Ge2  1  0.30226212  0.17507389  0.68051374  1
  Ge  Ge3  1  0.80226212  0.68051374  0.50543985  1
  Ge  Ge4  1  0.30226212  0.50543985  0.82492611  1
  Ge  Ge5  1  0.30226212  0.31948626  0.49456015  1
  Ge  Ge6  1  0.77968946  0.99272396  0.15859486  1
  Ge  Ge7  1  0.77968946  0.16587089  0.00727604  1
  Ge  Ge8  1  0.27968946  0.00727604  0.84140514  1
  Ge  Ge9  1  0.77968946  0.84140514  0.83412911  1
  Ge  Ge10  1  0.27968946  0.83412911  0.99272396  1
  Ge  Ge11  1  0.27968946  0.15859486  0.16587089  1
  Ge  Ge12  1  0.68775248  0.66742576  0.00361765  1
  Ge  Ge13  1  0.68775248  0.33619189  0.33257424  1
  Ge  Ge14  1  0.18775248  0.33257424  0.99638235  1
  Ge  Ge15  1  0.68775248  0.99638235  0.66380811  1
  Ge  Ge16  1  0.18775248  0.66380811  0.66742576  1
  Ge  Ge17  1  0.18775248  0.00361765  0.33619189  1
  Ge  Ge18  1  0.80124544  0.49311794  0.65636627  1
  Ge  Ge19  1  0.80124544  0.16324833  0.50688206  1
  Ge  Ge20  1  0.30124544  0.50688206  0.34363373  1
  Ge  Ge21  1  0.80124544  0.34363373  0.83675167  1
  Ge  Ge22  1  0.30124544  0.83675167  0.49311794  1
  Ge  Ge23  1  0.30124544  0.65636627  0.16324833  1
  O  O0  1  0.76676889  0.73842743  0.97837184  1
  O  O1  1  0.76676889  0.23994441  0.26157257  1
  O  O2  1  0.26676889  0.26157257  0.02162816  1
  O  O3  1  0.76676889  0.02162816  0.76005559  1
  O  O4  1  0.26676889  0.76005559  0.73842743  1
  O  O5  1  0.26676889  0.97837184  0.23994441  1
  O  O6  1  0.74948739  0.56729889  0.93240599  1
  O  O7  1  0.74948739  0.36510711  0.43270111  1
  O  O8  1  0.24948739  0.43270111  0.06759401  1
  O  O9  1  0.74948739  0.06759401  0.63489289  1
  O  O10  1  0.24948739  0.63489289  0.56729889  1
  O  O11  1  0.24948739  0.93240599  0.36510711  1
  O  O12  1  0.76329061  0.69269764  0.10046645  1
  O  O13  1  0.76329061  0.40776881  0.30730236  1
  O  O14  1  0.26329061  0.30730236  0.89953355  1
  O  O15  1  0.76329061  0.89953355  0.59223119  1
  O  O16  1  0.26329061  0.59223119  0.69269764  1
  O  O17  1  0.26329061  0.10046645  0.40776881  1
  O  O18  1  0.70905844  0.56594684  0.63750631  1
  O  O19  1  0.70905844  0.07155947  0.43405316  1
  O  O20  1  0.20905844  0.43405316  0.36249369  1
  O  O21  1  0.70905844  0.36249369  0.92844053  1
  O  O22  1  0.20905844  0.92844053  0.56594684  1
  O  O23  1  0.20905844  0.63750631  0.07155947  1
  O  O24  1  0.70178374  0.73125469  0.27468221  1
  O  O25  1  0.70178374  0.54342753  0.26874531  1
  O  O26  1  0.20178374  0.26874531  0.72531779  1
  O  O27  1  0.70178374  0.72531779  0.45657247  1
  O  O28  1  0.20178374  0.45657247  0.73125469  1
  O  O29  1  0.20178374  0.27468221  0.54342753  1
  O  O30  1  0.96579782  0.95064190  0.14129921  1
  O  O31  1  0.96579782  0.19065731  0.04935810  1
  O  O32  1  0.46579782  0.04935810  0.85870079  1
  O  O33  1  0.96579782  0.85870079  0.80934269  1
  O  O34  1  0.46579782  0.80934269  0.95064190  1
  O  O35  1  0.46579782  0.14129921  0.19065731  1
  O  O36  1  0.72048657  0.73796401  0.77583650  1
  O  O37  1  0.72048657  0.03787250  0.26203599  1
  O  O38  1  0.22048657  0.26203599  0.22416350  1
  O  O39  1  0.72048657  0.22416350  0.96212750  1
  O  O40  1  0.22048657  0.96212750  0.73796401  1
  O  O41  1  0.22048657  0.77583650  0.03787250  1
  O  O42  1  0.77201553  0.87406388  0.93949624  1
  O  O43  1  0.77201553  0.06543236  0.12593612  1
  O  O44  1  0.27201553  0.12593612  0.06050376  1
  O  O45  1  0.77201553  0.06050376  0.93456764  1
  O  O46  1  0.27201553  0.93456764  0.87406388  1
  O  O47  1  0.27201553  0.93949624  0.06543236  1
  O  O48  1  0.80512815  0.86562034  0.42618167  1
  O  O49  1  0.80512815  0.56056133  0.13437966  1
  O  O50  1  0.30512815  0.13437966  0.57381833  1
  O  O51  1  0.80512815  0.57381833  0.43943867  1
  O  O52  1  0.30512815  0.43943867  0.86562034  1
  O  O53  1  0.30512815  0.42618167  0.56056133  1
  O  O54  1  0.98671489  0.46956889  0.61347004  1
  O  O55  1  0.98671489  0.14390115  0.53043111  1
  O  O56  1  0.48671489  0.53043111  0.38652996  1
  O  O57  1  0.98671489  0.38652996  0.85609885  1
  O  O58  1  0.48671489  0.85609885  0.46956889  1
  O  O59  1  0.48671489  0.61347004  0.14390115  1
  O  O60  1  0.99299143  0.66456734  0.68032972  1
  O  O61  1  0.99299143  0.01576238  0.33543266  1
  O  O62  1  0.49299143  0.33543266  0.31967028  1
  O  O63  1  0.99299143  0.31967028  0.98423762  1
  O  O64  1  0.49299143  0.98423762  0.66456734  1
  O  O65  1  0.49299143  0.68032972  0.01576238  1
  O  O66  1  0.65101070  0.91107169  0.10217354  1
  O  O67  1  0.65101070  0.19110185  0.08892831  1
  O  O68  1  0.15101070  0.08892831  0.89782646  1
  O  O69  1  0.65101070  0.89782646  0.80889815  1
  O  O70  1  0.15101070  0.80889815  0.91107169  1
  O  O71  1  0.15101070  0.10217354  0.19110185  1
  O  O72  1  0.81194712  0.52933733  0.76259434  1
  O  O73  1  0.81194712  0.23325702  0.47066267  1
  O  O74  1  0.31194712  0.47066267  0.23740566  1
  O  O75  1  0.81194712  0.23740566  0.76674298  1
  O  O76  1  0.31194712  0.76674298  0.52933733  1
  O  O77  1  0.31194712  0.76259434  0.23325702  1
  O  O78  1  0.69701200  0.40035025  0.60783447  1
  O  O79  1  0.69701200  0.20748422  0.59964975  1
  O  O80  1  0.19701200  0.59964975  0.39216553  1
  O  O81  1  0.69701200  0.39216553  0.79251578  1
  O  O82  1  0.19701200  0.79251578  0.40035025  1
  O  O83  1  0.19701200  0.60783447  0.20748422  1
  O  O84  1  0.98994408  0.80389473  0.27962931  1
  O  O85  1  0.98994408  0.47573458  0.19610527  1
  O  O86  1  0.48994408  0.19610527  0.72037069  1
  O  O87  1  0.98994408  0.72037069  0.52426542  1
  O  O88  1  0.48994408  0.52426542  0.80389473  1
  O  O89  1  0.48994408  0.27962931  0.47573458  1
  O  O90  1  0.71718759  0.89574298  0.29508295  1
  O  O91  1  0.71718759  0.39933997  0.10425702  1
  O  O92  1  0.21718759  0.10425702  0.70491705  1
  O  O93  1  0.71718759  0.70491705  0.60066003  1
  O  O94  1  0.21718759  0.60066003  0.89574298  1
  O  O95  1  0.21718759  0.29508295  0.39933997  1
loop_
_geom_bond_atom_site_label_1
_geom_bond_atom_site_label_2
_geom_bond_distance
_geom_bond_site_symmetry_2
K0 O22 2.667791 1_655
K0 O48 2.726073 1_555
K0 O9 2.745139 1_565
K0 O55 2.751428 1_565
K1 O23 2.667792 1_655
K1 O49 2.726073 1_555
K1 O6 2.745139 1_554
K1 O57 2.751428 1_554
K2 O19 2.667791 1_555
K2 O50 2.726073 1_555
K2 O11 2.745139 1_545
K2 O58 2.751428 1_545
K3 O20 2.667792 1_655
K3 O51 2.726073 1_555
K3 O7 2.745139 1_555
K3 O54 2.751428 1_555
K4 O21 2.667792 1_555
K4 O52 2.726073 1_555
K4 O8 2.745139 1_556
K4 O59 2.751428 1_556
K5 O18 2.667792 1_555
K5 O53 2.726073 1_555
K5 O10 2.745139 1_555
K5 O56 2.751428 1_555
K6 O83 2.788733 1_655
K6 O82 2.788733 1_655
K6 O80 2.788745 1_655
K6 O24 3.193414 1_555
K6 O25 3.193424 1_555
K6 O27 3.193424 1_555
K6 O84 3.224379 1_555
K6 O85 3.224392 1_555
K6 O87 3.224397 1_555
K7 O81 2.788733 1_555
K7 O79 2.788733 1_555
K7 O78 2.788745 1_555
K7 O26 3.193414 1_555
K7 O28 3.193424 1_555
K7 O29 3.193424 1_555
K7 O86 3.224379 1_555
K7 O88 3.224392 1_555
K7 O89 3.224397 1_555
K8 O12 2.654613 1_555
K8 O41 2.658460 1_655
K8 O30 2.733594 1_555
K8 O84 2.747780 1_555
K8 O0 3.171408 1_554
K9 O13 2.654613 1_555
K9 O38 2.658460 1_655
K9 O31 2.733594 1_555
K9 O85 2.747780 1_555
K9 O1 3.171408 1_555
K10 O14 2.654613 1_555
K10 O39 2.658460 1_555
K10 O32 2.733594 1_555
K10 O86 2.747780 1_555
K10 O2 3.171408 1_556
K11 O15 2.654613 1_555
K11 O40 2.658460 1_655
K11 O33 2.733594 1_555
K11 O87 2.747780 1_555
K11 O3 3.171408 1_565
K12 O16 2.654613 1_555
K12 O36 2.658460 1_555
K12 O34 2.733594 1_555
K12 O88 2.747780 1_555
K12 O4 3.171408 1_555
K13 O17 2.654613 1_555
K13 O37 2.658460 1_555
K13 O35 2.733594 1_555
K13 O89 2.747780 1_555
K13 O5 3.171408 1_545
K14 O24 2.828497 1_555
K14 O25 2.828508 1_555
K14 O27 2.828509 1_555
K14 O59 3.200236 1_555
K14 O58 3.200241 1_555
K14 O56 3.200255 1_555
K14 O83 3.205774 1_555
K14 O82 3.205774 1_555
K14 O80 3.205784 1_555
K15 O26 2.828497 1_655
K15 O28 2.828508 1_655
K15 O29 2.828509 1_655
K15 O57 3.200236 1_555
K15 O55 3.200241 1_555
K15 O54 3.200255 1_555
K15 O81 3.205774 1_555
K15 O79 3.205774 1_555
K15 O78 3.205784 1_555
K16 O70 2.746264 1_655
K16 O0 2.750696 1_555
K16 O94 2.756174 1_655
K16 O72 2.763071 1_555
K16 O60 3.271519 1_555
K16 O36 3.333362 1_555
K17 O71 2.746264 1_655
K17 O1 2.750696 1_555
K17 O95 2.756174 1_655
K17 O73 2.763071 1_555
K17 O61 3.271519 1_555
K17 O37 3.333362 1_555
K18 O67 2.746264 1_555
K18 O2 2.750696 1_555
K18 O91 2.756174 1_555
K18 O74 2.763071 1_555
K18 O62 3.271519 1_555
K18 O38 3.333362 1_555
K19 O68 2.746264 1_655
K19 O3 2.750696 1_555
K19 O92 2.756174 1_655
K19 O75 2.763071 1_555
K19 O63 3.271519 1_555
K19 O39 3.333362 1_555
K20 O69 2.746264 1_555
K20 O4 2.750696 1_555
K20 O93 2.756174 1_555
K20 O76 2.763071 1_555
K20 O64 3.271519 1_555
K20 O40 3.333362 1_555
K21 O66 2.746264 1_555
K21 O5 2.750696 1_555
K21 O90 2.756174 1_555
K21 O77 2.763071 1_555
K21 O65 3.271519 1_555
K21 O41 3.333362 1_555
K22 O42 2.834689 1_544
K22 O43 2.834689 1_555
K22 O45 2.834689 1_554
K22 O44 3.202088 1_655
K22 O46 3.202088 1_644
K22 O47 3.202088 1_645
K22 O33 3.248941 1_544
K22 O31 3.248941 1_555
K22 O30 3.248941 1_545
K23 O44 2.834689 1_555
K23 O46 2.834689 1_544
K23 O47 2.834689 1_545
K23 O42 3.202088 1_544
K23 O43 3.202088 1_555
K23 O45 3.202088 1_554
K23 O35 3.248941 1_555
K23 O34 3.248941 1_544
K23 O32 3.248941 1_554
Ga0 O88 1.856525 1_555
Ga0 O81 1.857000 1_555
Ga0 O72 1.861038 1_555
Ga0 O6 1.864766 1_555
Ga1 O89 1.856525 1_555
Ga1 O78 1.857000 1_555
Ga1 O73 1.861037 1_555
Ga1 O7 1.864767 1_555
Ga2 O85 1.856525 1_455
Ga2 O83 1.857000 1_555
Ga2 O74 1.861038 1_555
Ga2 O8 1.864766 1_555
Ga3 O86 1.856525 1_555
Ga3 O79 1.857000 1_555
Ga3 O75 1.861037 1_555
Ga3 O9 1.864766 1_555
Ga4 O87 1.856525 1_455
Ga4 O80 1.857000 1_555
Ga4 O76 1.861037 1_555
Ga4 O10 1.864767 1_555
Ga5 O84 1.856525 1_455
Ga5 O82 1.857000 1_555
Ga5 O77 1.861037 1_555
Ga5 O11 1.864766 1_555
Ga6 O24 1.854838 1_555
Ga6 O12 1.858449 1_555
Ga6 O59 1.859815 1_555
Ga6 O49 1.864173 1_555
Ga7 O25 1.854838 1_555
Ga7 O13 1.858449 1_555
Ga7 O56 1.859815 1_555
Ga7 O51 1.864173 1_555
Ga8 O26 1.854838 1_555
Ga8 O14 1.858449 1_555
Ga8 O57 1.859815 1_455
Ga8 O52 1.864173 1_555
Ga9 O27 1.854838 1_555
Ga9 O15 1.858449 1_555
Ga9 O58 1.859815 1_555
Ga9 O48 1.864173 1_555
Ga10 O28 1.854838 1_555
Ga10 O16 1.858449 1_555
Ga10 O54 1.859815 1_455
Ga10 O53 1.864173 1_555
Ga11 O29 1.854838 1_555
Ga11 O17 1.858449 1_555
Ga11 O55 1.859815 1_455
Ga11 O50 1.864173 1_555
Ga12 O60 1.811716 1_555
Ga12 O93 1.857222 1_555
Ga12 O36 1.862030 1_555
Ga12 O18 1.863689 1_555
Ga13 O61 1.811716 1_555
Ga13 O90 1.857222 1_545
Ga13 O37 1.862030 1_555
Ga13 O19 1.863689 1_555
Ga14 O62 1.811716 1_555
Ga14 O95 1.857222 1_555
Ga14 O38 1.862030 1_555
Ga14 O20 1.863689 1_555
Ga15 O63 1.811716 1_555
Ga15 O91 1.857222 1_556
Ga15 O39 1.862030 1_555
Ga15 O21 1.863689 1_555
Ga16 O64 1.811716 1_555
Ga16 O92 1.857222 1_565
Ga16 O40 1.862030 1_555
Ga16 O22 1.863689 1_555
Ga17 O65 1.811716 1_555
Ga17 O94 1.857222 1_554
Ga17 O41 1.862030 1_555
Ga17 O23 1.863689 1_555
Ga18 O66 1.849727 1_556
Ga18 O42 1.854391 1_555
Ga18 O34 1.867428 1_555
Ga18 O0 1.867946 1_555
Ga19 O67 1.849727 1_555
Ga19 O43 1.854391 1_555
Ga19 O35 1.867428 1_555
Ga19 O1 1.867946 1_555
Ga20 O68 1.849727 1_554
Ga20 O44 1.854391 1_555
Ga20 O31 1.867428 1_455
Ga20 O2 1.867946 1_555
Ga21 O69 1.849727 1_545
Ga21 O45 1.854391 1_555
Ga21 O32 1.867428 1_555
Ga21 O3 1.867946 1_555
Ga22 O70 1.849727 1_555
Ga22 O46 1.854391 1_555
Ga22 O33 1.867428 1_455
Ga22 O4 1.867946 1_555
Ga23 O71 1.849727 1_565
Ga23 O47 1.854391 1_555
Ga23 O30 1.867428 1_455
Ga23 O5 1.867946 1_555
Ge0 O48 1.763174 1_555
Ge0 O24 1.770008 1_555
Ge0 O84 1.774043 1_555
Ge0 O90 1.783679 1_555
Ge1 O49 1.763174 1_555
Ge1 O25 1.770008 1_555
Ge1 O85 1.774043 1_555
Ge1 O91 1.783679 1_555
Ge2 O50 1.763174 1_555
Ge2 O26 1.770008 1_555
Ge2 O86 1.774043 1_555
Ge2 O92 1.783679 1_555
Ge3 O51 1.763174 1_555
Ge3 O27 1.770008 1_555
Ge3 O87 1.774043 1_555
Ge3 O93 1.783679 1_555
Ge4 O52 1.763174 1_555
Ge4 O28 1.770008 1_555
Ge4 O88 1.774043 1_555
Ge4 O94 1.783679 1_555
Ge5 O53 1.763174 1_555
Ge5 O29 1.770008 1_555
Ge5 O89 1.774043 1_555
Ge5 O95 1.783679 1_555
Ge6 O43 1.767282 1_565
Ge6 O66 1.775618 1_555
Ge6 O37 1.775909 1_565
Ge6 O30 1.776297 1_555
Ge7 O45 1.767282 1_554
Ge7 O67 1.775618 1_555
Ge7 O39 1.775909 1_554
Ge7 O31 1.776297 1_555
Ge8 O46 1.767282 1_545
Ge8 O68 1.775618 1_555
Ge8 O40 1.775909 1_545
Ge8 O32 1.776297 1_555
Ge9 O42 1.767282 1_555
Ge9 O69 1.775618 1_555
Ge9 O36 1.775909 1_555
Ge9 O33 1.776297 1_555
Ge10 O47 1.767282 1_556
Ge10 O70 1.775618 1_555
Ge10 O41 1.775909 1_556
Ge10 O34 1.776297 1_555
Ge11 O44 1.767282 1_555
Ge11 O71 1.775618 1_555
Ge11 O38 1.775909 1_555
Ge11 O35 1.776297 1_555
Ge12 O65 1.728119 1_555
Ge12 O6 1.772308 1_554
Ge12 O12 1.773732 1_555
Ge12 O0 1.775392 1_554
Ge13 O62 1.728119 1_555
Ge13 O7 1.772308 1_555
Ge13 O13 1.773732 1_555
Ge13 O1 1.775392 1_555
Ge14 O63 1.728119 1_455
Ge14 O8 1.772308 1_556
Ge14 O14 1.773732 1_555
Ge14 O2 1.775392 1_556
Ge15 O64 1.728119 1_555
Ge15 O9 1.772308 1_565
Ge15 O15 1.773732 1_555
Ge15 O3 1.775392 1_565
Ge16 O60 1.728119 1_455
Ge16 O10 1.772308 1_555
Ge16 O16 1.773732 1_555
Ge16 O4 1.775392 1_555
Ge17 O61 1.728119 1_455
Ge17 O11 1.772308 1_545
Ge17 O17 1.773732 1_555
Ge17 O5 1.775392 1_545
Ge18 O72 1.770624 1_555
Ge18 O78 1.774071 1_555
Ge18 O54 1.775387 1_555
Ge18 O18 1.780383 1_555
Ge19 O73 1.770624 1_555
Ge19 O79 1.774071 1_555
Ge19 O55 1.775387 1_555
Ge19 O19 1.780383 1_555
Ge20 O74 1.770624 1_555
Ge20 O80 1.774071 1_555
Ge20 O56 1.775387 1_555
Ge20 O20 1.780383 1_555
Ge21 O75 1.770624 1_555
Ge21 O81 1.774071 1_555
Ge21 O57 1.775387 1_555
Ge21 O21 1.780383 1_555
Ge22 O76 1.770624 1_555
Ge22 O82 1.774071 1_555
Ge22 O58 1.775387 1_555
Ge22 O22 1.780383 1_555
Ge23 O77 1.770624 1_555
Ge23 O83 1.774071 1_555
Ge23 O59 1.775387 1_555
Ge23 O23 1.780383 1_555
