# generated using pymatgen
data_CeGa2Co3
_symmetry_space_group_name_H-M   'P 1'
_cell_length_a   4.07304454
_cell_length_b   8.85187727
_cell_length_c   8.85187704
_cell_angle_alpha   60.18891154
_cell_angle_beta   90.00000000
_cell_angle_gamma   90.00000000
_symmetry_Int_Tables_number   1
_chemical_formula_structural   CeGa2Co3
_chemical_formula_sum   'Ce3 Ga6 Co9'
_cell_volume   276.91349824
_cell_formula_units_Z   3
loop_
 _symmetry_equiv_pos_site_id
 _symmetry_equiv_pos_as_xyz
  1  'x, y, z'
loop_
 _atom_site_type_symbol
 _atom_site_label
 _atom_site_symmetry_multiplicity
 _atom_site_fract_x
 _atom_site_fract_y
 _atom_site_fract_z
 _atom_site_occupancy
  Ce  Ce0  1  0.50000000  0.33355543  0.33207556  1
  Ce  Ce1  1  0.50000000  0.66792444  0.66644457  1
  Ce  Ce2  1  0.00000000  -0.00095115  0.00095115  1
  Ga  Ga0  1  0.00000000  0.50166144  0.49833856  1
  Ga  Ga1  1  0.00000000  0.49865643  -0.00051630  1
  Ga  Ga2  1  0.00000000  0.00051630  0.50134357  1
  Ga  Ga3  1  0.50000000  0.28161750  0.71838250  1
  Ga  Ga4  1  0.50000000  0.71762307  -0.00024774  1
  Ga  Ga5  1  0.50000000  0.00024774  0.28237693  1
  Co  Co0  1  0.00000000  0.17866300  0.17331527  1
  Co  Co1  1  -0.00000000  0.17237769  0.65112926  1
  Co  Co2  1  0.00000000  0.64994011  0.17732478  1
  Co  Co3  1  0.00000000  0.82668473  0.82133700  1
  Co  Co4  1  -0.00000000  0.34887074  0.82762231  1
  Co  Co5  1  0.00000000  0.82267522  0.35005989  1
  Co  Co6  1  0.50000000  0.70696731  0.29303269  1
  Co  Co7  1  0.50000000  0.29247162  -0.00040137  1
  Co  Co8  1  0.50000000  0.00040137  0.70752838  1
loop_
_geom_bond_atom_site_label_1
_geom_bond_atom_site_label_2
_geom_bond_distance
_geom_bond_site_symmetry_2
Ce0 Co7 3.139736 1_555
Ce0 Co6 3.147898 1_555
Ce0 Co0 3.149296 1_655
Ce0 Co0 3.149296 1_555
Ce0 Co8 3.161841 1_555
Ce0 Co2 3.170614 1_655
Ce0 Co2 3.170614 1_555
Ce0 Co1 3.186354 1_655
Ce0 Co1 3.186354 1_555
Ce0 Ga5 3.192010 1_555
Ce0 Ga4 3.204351 1_555
Ce0 Ga3 3.215819 1_555
Ce0 Ga1 3.266918 1_655
Ce0 Ga1 3.266918 1_555
Ce0 Ga2 3.269769 1_555
Ce0 Ga2 3.269769 1_655
Ce0 Ga0 3.271888 1_555
Ce0 Ga0 3.271888 1_655
Ce1 Co8 3.139736 1_565
Ce1 Co6 3.147898 1_555
Ce1 Co3 3.149296 1_555
Ce1 Co3 3.149296 1_655
Ce1 Co7 3.161841 1_556
Ce1 Co5 3.170614 1_655
Ce1 Co5 3.170614 1_555
Ce1 Co4 3.186354 1_555
Ce1 Co4 3.186354 1_655
Ce1 Ga4 3.192010 1_556
Ce1 Ga5 3.204351 1_565
Ce1 Ga3 3.215819 1_555
Ce1 Ga2 3.266919 1_565
Ce1 Ga2 3.266919 1_665
Ce1 Ga1 3.269769 1_556
Ce1 Ga1 3.269769 1_656
Ce1 Ga0 3.271888 1_555
Ce1 Ga0 3.271888 1_655
Ce2 Co5 2.681446 1_545
Ce2 Co2 2.681446 1_545
Ce2 Co1 2.686813 1_554
Ce2 Co4 2.686813 1_554
Ce2 Co3 2.695868 1_544
Ce2 Co0 2.695868 1_555
Ce2 Ga5 3.221744 1_555
Ce2 Ga5 3.221744 1_455
Ce2 Ga4 3.221744 1_445
Ce2 Ga4 3.221744 1_545
Ce2 Ga3 3.231022 1_554
Ce2 Ga3 3.231022 1_454
Ce2 Co8 3.295881 1_454
Ce2 Co8 3.295881 1_554
Ce2 Co7 3.295882 1_455
Ce2 Co7 3.295882 1_555
Ce2 Co6 3.297012 1_545
Ce2 Co6 3.297012 1_445
Ga0 Ga3 2.821886 1_455
Ga0 Ga3 2.821886 1_555
Ga1 Ga4 2.812274 1_555
Ga1 Ga4 2.812274 1_455
Ga2 Ga5 2.812274 1_555
Ga2 Ga5 2.812274 1_455
Co0 Co7 2.446758 1_555
Co0 Co7 2.446758 1_455
Co0 Ga1 2.461176 1_555
Co0 Ga5 2.461237 1_555
Co0 Ga5 2.461237 1_455
Co0 Ga2 2.522951 1_555
Co0 Co4 2.655136 1_554
Co0 Co5 2.734166 1_545
Co1 Co8 2.440993 1_555
Co1 Co8 2.440993 1_455
Co1 Ga3 2.451375 1_555
Co1 Ga3 2.451375 1_455
Co1 Ga2 2.465328 1_555
Co1 Ga0 2.530908 1_555
Co1 Co3 2.655136 1_545
Co1 Co4 2.703395 1_555
Co2 Co6 2.442411 1_455
Co2 Co6 2.442411 1_555
Co2 Ga4 2.457791 1_555
Co2 Ga4 2.457791 1_455
Co2 Ga0 2.467579 1_555
Co2 Ga1 2.523404 1_555
Co2 Co5 2.645833 1_555
Co2 Co3 2.734165 1_554
Co3 Co8 2.446758 1_565
Co3 Co8 2.446758 1_465
Co3 Ga2 2.461175 1_565
Co3 Ga4 2.461237 1_556
Co3 Ga4 2.461237 1_456
Co3 Ga1 2.522951 1_556
Co4 Co7 2.440993 1_456
Co4 Co7 2.440993 1_556
Co4 Ga3 2.451375 1_555
Co4 Ga3 2.451375 1_455
Co4 Ga1 2.465328 1_556
Co4 Ga0 2.530908 1_555
Co5 Co6 2.442411 1_455
Co5 Co6 2.442411 1_555
Co5 Ga5 2.457791 1_565
Co5 Ga5 2.457791 1_465
Co5 Ga0 2.467579 1_555
Co5 Ga2 2.523404 1_565
Co6 Ga4 2.550504 1_555
Co6 Ga5 2.550504 1_565
Co6 Ga0 2.732954 1_555
Co6 Ga0 2.732954 1_655
Co7 Ga3 2.538425 1_554
Co7 Ga5 2.553213 1_555
Co7 Ga1 2.734346 1_655
Co7 Ga1 2.734346 1_555
Co8 Ga3 2.538425 1_555
Co8 Ga4 2.553213 1_546
Co8 Ga2 2.734346 1_655
Co8 Ga2 2.734346 1_555
