# generated using pymatgen
data_NaSn3
_symmetry_space_group_name_H-M   'P 1'
_cell_length_a   6.75192637
_cell_length_b   6.75192637
_cell_length_c   5.30473657
_cell_angle_alpha   90.00000000
_cell_angle_beta   90.00000000
_cell_angle_gamma   119.99999261
_symmetry_Int_Tables_number   1
_chemical_formula_structural   NaSn3
_chemical_formula_sum   'Na2 Sn6'
_cell_volume   209.43529885
_cell_formula_units_Z   2
loop_
 _symmetry_equiv_pos_site_id
 _symmetry_equiv_pos_as_xyz
  1  'x, y, z'
loop_
 _atom_site_type_symbol
 _atom_site_label
 _atom_site_symmetry_multiplicity
 _atom_site_fract_x
 _atom_site_fract_y
 _atom_site_fract_z
 _atom_site_occupancy
  Na  Na0  1  0.33333300  0.66666700  0.75000000  1
  Na  Na1  1  0.66666700  0.33333300  0.25000000  1
  Sn  Sn0  1  0.16300788  0.32601577  0.25000000  1
  Sn  Sn1  1  0.67398423  0.83699212  0.25000000  1
  Sn  Sn2  1  0.16300788  0.83699212  0.25000000  1
  Sn  Sn3  1  0.83699212  0.67398423  0.75000000  1
  Sn  Sn4  1  0.32601577  0.16300788  0.75000000  1
  Sn  Sn5  1  0.83699212  0.16300788  0.75000000  1
loop_
_geom_bond_atom_site_label_1
_geom_bond_atom_site_label_2
_geom_bond_distance
_geom_bond_site_symmetry_2
Na0 Sn2 3.317034 1_555
Na0 Sn2 3.317034 1_556
Na0 Sn1 3.317037 1_555
Na0 Sn1 3.317037 1_556
Na0 Sn0 3.317037 1_556
Na0 Sn0 3.317037 1_555
Na0 Sn4 3.376231 1_565
Na0 Sn3 3.376231 1_455
Na0 Sn5 3.376235 1_565
Na0 Sn5 3.376235 1_455
Na0 Sn4 3.376238 1_555
Na0 Sn3 3.376238 1_555
Na1 Sn5 3.317034 1_555
Na1 Sn5 3.317034 1_554
Na1 Sn3 3.317037 1_555
Na1 Sn3 3.317037 1_554
Na1 Sn4 3.317037 1_554
Na1 Sn4 3.317037 1_555
Na1 Sn0 3.376231 1_655
Na1 Sn1 3.376231 1_545
Na1 Sn2 3.376235 1_655
Na1 Sn2 3.376235 1_545
Na1 Sn1 3.376238 1_555
Na1 Sn0 3.376238 1_555
Sn0 Sn4 3.266364 1_554
Sn0 Sn4 3.266364 1_555
Sn0 Sn5 3.266364 1_455
Sn0 Sn5 3.266364 1_454
Sn0 Sn2 3.301852 1_545
Sn0 Sn1 3.301852 1_445
Sn0 Sn2 3.450075 1_555
Sn0 Sn1 3.450075 1_555
Sn1 Sn3 3.266364 1_555
Sn1 Sn3 3.266364 1_554
Sn1 Sn5 3.266364 1_565
Sn1 Sn5 3.266364 1_564
Sn1 Sn2 3.301852 1_655
Sn1 Sn2 3.450075 1_555
Sn2 Sn4 3.266364 1_565
Sn2 Sn4 3.266364 1_564
Sn2 Sn3 3.266364 1_455
Sn2 Sn3 3.266364 1_454
Sn3 Sn5 3.301852 1_565
Sn3 Sn4 3.301852 1_665
Sn3 Sn5 3.450075 1_555
Sn3 Sn4 3.450075 1_555
Sn4 Sn5 3.301852 1_455
Sn4 Sn5 3.450075 1_555
