# generated using pymatgen
data_LaAl5Ni2
_symmetry_space_group_name_H-M   'P 1'
_cell_length_a   12.58468907
_cell_length_b   12.58468907
_cell_length_c   12.58468907
_cell_angle_alpha   142.89086809
_cell_angle_beta   112.25327743
_cell_angle_gamma   79.85212236
_symmetry_Int_Tables_number   1
_chemical_formula_structural   LaAl5Ni2
_chemical_formula_sum   'La8 Al40 Ni16'
_cell_volume   1084.31842393
_cell_formula_units_Z   8
loop_
 _symmetry_equiv_pos_site_id
 _symmetry_equiv_pos_as_xyz
  1  'x, y, z'
loop_
 _atom_site_type_symbol
 _atom_site_label
 _atom_site_symmetry_multiplicity
 _atom_site_fract_x
 _atom_site_fract_y
 _atom_site_fract_z
 _atom_site_occupancy
  La  La0_0  1  0.00000000  0.00000000  0.00000000  1
  La  La0_1  1  0.00000000  0.00000000  0.50000000  1
  La  La0_2  1  0.00000000  0.50000000  0.00000000  1
  La  La0_3  1  0.00000000  0.50000000  0.50000000  1
  La  La0_4  1  0.50000000  0.00000000  0.00000000  1
  La  La0_5  1  0.50000000  0.00000000  0.50000000  1
  La  La0_6  1  0.50000000  0.50000000  0.00000000  1
  La  La0_7  1  0.50000000  0.50000000  0.50000000  1
  Al  Al0_0  1  0.25000000  0.00000000  0.25000000  1
  Al  Al0_1  1  0.25000000  0.00000000  0.75000000  1
  Al  Al0_2  1  0.25000000  0.50000000  0.25000000  1
  Al  Al0_3  1  0.25000000  0.50000000  0.75000000  1
  Al  Al0_4  1  0.75000000  0.00000000  0.25000000  1
  Al  Al0_5  1  0.75000000  0.00000000  0.75000000  1
  Al  Al0_6  1  0.75000000  0.50000000  0.25000000  1
  Al  Al0_7  1  0.75000000  0.50000000  0.75000000  1
  Al  Al1_0  1  0.42466841  0.33035885  0.09430956  1
  Al  Al1_1  1  0.42466841  0.33035885  0.59430955  1
  Al  Al1_2  1  0.42466841  0.83035885  0.09430955  1
  Al  Al1_3  1  0.42466841  0.83035885  0.59430955  1
  Al  Al1_4  1  0.92466841  0.33035885  0.09430955  1
  Al  Al1_5  1  0.92466841  0.33035885  0.59430955  1
  Al  Al1_6  1  0.92466841  0.83035885  0.09430956  1
  Al  Al1_7  1  0.92466841  0.83035885  0.59430955  1
  Al  Al2_0  1  0.26395071  0.16964115  0.09430956  1
  Al  Al2_1  1  0.26395070  0.16964115  0.59430955  1
  Al  Al2_2  1  0.26395071  0.66964115  0.09430955  1
  Al  Al2_3  1  0.26395071  0.66964115  0.59430955  1
  Al  Al2_4  1  0.76395070  0.16964115  0.09430955  1
  Al  Al2_5  1  0.76395071  0.16964115  0.59430956  1
  Al  Al2_6  1  0.76395071  0.66964115  0.09430956  1
  Al  Al2_7  1  0.76395070  0.66964115  0.59430955  1
  Al  Al3_0  1  0.23604929  0.33035885  0.40569044  1
  Al  Al3_1  1  0.23604929  0.33035885  0.90569044  1
  Al  Al3_2  1  0.23604929  0.83035885  0.40569044  1
  Al  Al3_3  1  0.23604929  0.83035885  0.90569044  1
  Al  Al3_4  1  0.73604929  0.33035885  0.40569044  1
  Al  Al3_5  1  0.73604929  0.33035885  0.90569044  1
  Al  Al3_6  1  0.73604930  0.83035885  0.40569044  1
  Al  Al3_7  1  0.73604929  0.83035885  0.90569044  1
  Al  Al4_0  1  0.07533160  0.16964115  0.40569045  1
  Al  Al4_1  1  0.07533159  0.16964115  0.90569044  1
  Al  Al4_2  1  0.07533160  0.66964115  0.40569044  1
  Al  Al4_3  1  0.07533159  0.66964115  0.90569045  1
  Al  Al4_4  1  0.57533159  0.16964115  0.40569045  1
  Al  Al4_5  1  0.57533159  0.16964115  0.90569044  1
  Al  Al4_6  1  0.57533159  0.66964115  0.40569045  1
  Al  Al4_7  1  0.57533159  0.66964115  0.90569044  1
  Ni  Ni0_0  1  0.36785816  0.11785816  0.25000000  1
  Ni  Ni0_1  1  0.36785816  0.11785816  0.75000000  1
  Ni  Ni0_2  1  0.36785816  0.61785816  0.25000000  1
  Ni  Ni0_3  1  0.36785816  0.61785816  0.75000000  1
  Ni  Ni0_4  1  0.86785816  0.11785816  0.25000000  1
  Ni  Ni0_5  1  0.86785816  0.11785816  0.75000000  1
  Ni  Ni0_6  1  0.86785816  0.61785816  0.25000000  1
  Ni  Ni0_7  1  0.86785816  0.61785816  0.75000000  1
  Ni  Ni1_0  1  0.13214184  0.38214184  0.25000000  1
  Ni  Ni1_1  1  0.13214184  0.38214184  0.75000000  1
  Ni  Ni1_2  1  0.13214184  0.88214184  0.25000000  1
  Ni  Ni1_3  1  0.13214184  0.88214184  0.75000000  1
  Ni  Ni1_4  1  0.63214184  0.38214184  0.25000000  1
  Ni  Ni1_5  1  0.63214184  0.38214184  0.75000000  1
  Ni  Ni1_6  1  0.63214184  0.88214184  0.25000000  1
  Ni  Ni1_7  1  0.63214184  0.88214184  0.75000000  1
loop_
_geom_bond_atom_site_label_1
_geom_bond_atom_site_label_2
_geom_bond_distance
_geom_bond_site_symmetry_2
La0_0 Ni0_7 3.242604 1_444
La0_0 Ni1_3 3.242604 1_544
La0_0 Ni1_0 3.242604 1_555
La0_0 Ni0_4 3.242604 1_455
La0_0 La0_3 4.004544 1_555
La0_0 La0_3 4.004544 1_544
La0_1 Ni1_2 3.242604 1_545
La0_1 Ni1_1 3.242604 1_555
La0_1 Ni0_5 3.242604 1_455
La0_1 Ni0_6 3.242604 1_445
La0_1 La0_2 4.004544 1_545
La0_1 La0_2 4.004544 1_556
La0_2 Ni0_5 3.242604 1_454
La0_2 Ni0_6 3.242604 1_455
La0_2 Ni1_1 3.242604 1_554
La0_2 Ni1_2 3.242604 1_555
La0_3 Ni0_4 3.242604 1_455
La0_3 Ni1_0 3.242604 1_555
La0_3 Ni0_7 3.242604 1_455
La0_3 Ni1_3 3.242604 1_555
La0_4 Ni0_3 3.242604 1_544
La0_4 Ni1_7 3.242604 1_544
La0_4 Ni0_0 3.242604 1_555
La0_4 Ni1_4 3.242604 1_555
La0_4 La0_7 4.004544 1_544
La0_4 La0_7 4.004544 1_555
La0_5 Ni0_2 3.242604 1_545
La0_5 Ni0_1 3.242604 1_555
La0_5 Ni1_5 3.242604 1_555
La0_5 Ni1_6 3.242604 1_545
La0_5 La0_6 4.004544 1_556
La0_5 La0_6 4.004544 1_545
La0_6 Ni0_1 3.242604 1_554
La0_6 Ni0_2 3.242604 1_555
La0_6 Ni1_5 3.242604 1_554
La0_6 Ni1_6 3.242604 1_555
La0_7 Ni0_3 3.242604 1_555
La0_7 Ni0_0 3.242604 1_555
La0_7 Ni1_4 3.242604 1_555
La0_7 Ni1_7 3.242604 1_555
Al0_0 Ni1_2 2.274866 1_545
Al0_0 Ni0_0 2.274866 1_555
Al0_0 Al2_1 2.857490 1_555
Al0_0 Al4_3 2.857490 1_544
Al0_0 Al4_0 2.857490 1_555
Al0_0 Al2_2 2.857490 1_545
Al0_0 Al3_0 2.857490 1_555
Al0_0 Al1_1 2.857490 1_555
Al0_0 Al3_3 2.857490 1_544
Al0_0 Al1_2 2.857490 1_545
Al0_0 La0_0 3.507096 1_555
Al0_0 La0_5 3.507096 1_555
Al0_1 Ni1_3 2.274866 1_545
Al0_1 Ni0_1 2.274866 1_555
Al0_1 Al3_2 2.857490 1_545
Al0_1 Al4_2 2.857490 1_545
Al0_1 Al3_1 2.857490 1_555
Al0_1 Al2_3 2.857490 1_545
Al0_1 Al2_0 2.857490 1_556
Al0_1 Al4_1 2.857490 1_555
Al0_1 Al1_0 2.857490 1_556
Al0_1 Al1_3 2.857490 1_545
Al0_1 La0_1 3.507096 1_555
Al0_1 La0_4 3.507096 1_556
Al0_2 Ni0_2 2.274866 1_555
Al0_2 Ni1_0 2.274866 1_555
Al0_2 Al2_3 2.857490 1_555
Al0_2 Al3_2 2.857490 1_555
Al0_2 Al4_2 2.857490 1_555
Al0_2 Al2_0 2.857490 1_555
Al0_2 Al4_1 2.857490 1_554
Al0_2 Al1_3 2.857490 1_555
Al0_2 Al3_1 2.857490 1_554
Al0_2 Al1_0 2.857490 1_555
Al0_2 La0_2 3.507096 1_555
Al0_2 La0_7 3.507096 1_555
Al0_3 Ni1_1 2.274866 1_555
Al0_3 Ni0_3 2.274866 1_555
Al0_3 Al3_0 2.857490 1_555
Al0_3 Al4_0 2.857490 1_555
Al0_3 Al2_1 2.857490 1_555
Al0_3 Al2_2 2.857490 1_556
Al0_3 Al1_1 2.857490 1_555
Al0_3 Al4_3 2.857490 1_555
Al0_3 Al1_2 2.857490 1_556
Al0_3 Al3_3 2.857490 1_555
Al0_3 La0_3 3.507096 1_555
Al0_3 La0_6 3.507096 1_556
Al0_4 Ni1_6 2.274866 1_545
Al0_4 Ni0_4 2.274866 1_555
Al0_4 Al2_6 2.857490 1_545
Al0_4 Al2_5 2.857490 1_555
Al0_4 Al3_4 2.857490 1_555
Al0_4 Al4_4 2.857490 1_555
Al0_4 Al4_7 2.857490 1_544
Al0_4 Al1_5 2.857490 1_555
Al0_4 Al3_7 2.857490 1_544
Al0_4 Al1_6 2.857490 1_545
Al0_4 La0_1 3.507096 1_655
Al0_4 La0_4 3.507096 1_555
Al0_5 Ni1_7 2.274866 1_545
Al0_5 Ni0_5 2.274866 1_555
Al0_5 Al4_6 2.857490 1_545
Al0_5 Al3_5 2.857490 1_555
Al0_5 Al4_5 2.857490 1_555
Al0_5 Al2_7 2.857490 1_545
Al0_5 Al2_4 2.857490 1_556
Al0_5 Al3_6 2.857490 1_545
Al0_5 Al1_4 2.857490 1_556
Al0_5 Al1_7 2.857490 1_545
Al0_5 La0_5 3.507096 1_555
Al0_5 La0_0 3.507096 1_656
Al0_6 Ni0_6 2.274866 1_555
Al0_6 Ni1_4 2.274866 1_555
Al0_6 Al2_4 2.857490 1_555
Al0_6 Al2_7 2.857490 1_555
Al0_6 Al3_5 2.857490 1_554
Al0_6 Al1_7 2.857490 1_555
Al0_6 Al4_5 2.857490 1_554
Al0_6 Al4_6 2.857490 1_555
Al0_6 Al3_6 2.857490 1_555
Al0_6 Al1_4 2.857490 1_555
Al0_6 La0_6 3.507096 1_555
Al0_6 La0_3 3.507096 1_655
Al0_7 Ni0_7 2.274866 1_555
Al0_7 Ni1_5 2.274866 1_555
Al0_7 Al3_4 2.857490 1_555
Al0_7 Al2_6 2.857490 1_556
Al0_7 Al3_7 2.857490 1_555
Al0_7 Al4_4 2.857490 1_555
Al0_7 Al1_6 2.857490 1_556
Al0_7 Al2_5 2.857490 1_555
Al0_7 Al4_7 2.857490 1_555
Al0_7 Al1_5 2.857490 1_555
Al0_7 La0_7 3.507096 1_555
Al0_7 La0_2 3.507096 1_656
Al1_0 Ni1_4 2.401922 1_555
Al1_0 Ni0_1 2.506659 1_554
Al1_0 Ni0_2 2.506659 1_555
Al1_0 Al3_1 2.646021 1_554
Al1_0 Al4_5 2.778545 1_554
Al1_0 Al4_6 2.778545 1_555
Al1_0 Al2_0 3.102129 1_555
Al1_0 La0_7 3.344417 1_555
Al1_0 La0_4 3.344417 1_555
Al1_0 La0_6 3.531548 1_555
Al1_1 Ni1_5 2.401922 1_555
Al1_1 Ni0_0 2.506659 1_555
Al1_1 Ni0_3 2.506659 1_555
Al1_1 Al3_0 2.646021 1_555
Al1_1 Al4_4 2.778545 1_555
Al1_1 Al4_7 2.778545 1_555
Al1_1 Al2_1 3.102129 1_555
Al1_1 La0_5 3.344417 1_555
Al1_1 La0_6 3.344417 1_556
Al1_1 La0_7 3.531548 1_555
Al1_2 Ni1_6 2.401922 1_555
Al1_2 Ni0_3 2.506659 1_554
Al1_2 Ni0_0 2.506659 1_565
Al1_2 Al3_3 2.646021 1_554
Al1_2 Al4_4 2.778545 1_565
Al1_2 Al4_7 2.778545 1_554
Al1_2 Al2_2 3.102129 1_555
Al1_2 La0_5 3.344417 1_565
Al1_2 La0_6 3.344417 1_555
Al1_2 La0_4 3.531548 1_565
Al1_3 Ni1_7 2.401922 1_555
Al1_3 Ni0_2 2.506659 1_555
Al1_3 Ni0_1 2.506659 1_565
Al1_3 Al3_2 2.646021 1_555
Al1_3 Al4_5 2.778545 1_565
Al1_3 Al4_6 2.778545 1_555
Al1_3 Al2_3 3.102129 1_555
Al1_3 La0_7 3.344417 1_555
Al1_3 La0_4 3.344417 1_566
Al1_3 La0_5 3.531548 1_565
Al1_4 Ni1_0 2.401922 1_655
Al1_4 Ni0_5 2.506659 1_554
Al1_4 Ni0_6 2.506659 1_555
Al1_4 Al3_5 2.646021 1_554
Al1_4 Al4_1 2.778545 1_654
Al1_4 Al4_2 2.778545 1_655
Al1_4 Al2_4 3.102129 1_555
Al1_4 La0_0 3.344417 1_655
Al1_4 La0_3 3.344417 1_655
Al1_4 La0_2 3.531548 1_655
Al1_5 Ni1_1 2.401922 1_655
Al1_5 Ni0_4 2.506659 1_555
Al1_5 Ni0_7 2.506659 1_555
Al1_5 Al3_4 2.646021 1_555
Al1_5 Al4_0 2.778545 1_655
Al1_5 Al4_3 2.778545 1_655
Al1_5 Al2_5 3.102129 1_555
Al1_5 La0_1 3.344417 1_655
Al1_5 La0_2 3.344417 1_656
Al1_5 La0_3 3.531548 1_655
Al1_6 Ni1_2 2.401922 1_655
Al1_6 Ni0_7 2.506659 1_554
Al1_6 Ni0_4 2.506659 1_565
Al1_6 Al3_7 2.646021 1_554
Al1_6 Al4_3 2.778545 1_654
Al1_6 Al4_0 2.778545 1_665
Al1_6 Al2_6 3.102129 1_555
Al1_6 La0_1 3.344417 1_665
Al1_6 La0_2 3.344417 1_655
Al1_6 La0_0 3.531548 1_665
Al1_7 Ni1_3 2.401922 1_655
Al1_7 Ni0_6 2.506659 1_555
Al1_7 Ni0_5 2.506659 1_565
Al1_7 Al3_6 2.646021 1_555
Al1_7 Al4_2 2.778545 1_655
Al1_7 Al4_1 2.778545 1_665
Al1_7 Al2_7 3.102129 1_555
Al1_7 La0_3 3.344417 1_655
Al1_7 La0_0 3.344417 1_666
Al1_7 La0_1 3.531548 1_665
Al2_0 Ni0_0 2.401922 1_555
Al2_0 Ni1_3 2.506659 1_544
Al2_0 Ni1_0 2.506659 1_555
Al2_0 Al4_1 2.646021 1_554
Al2_0 Al3_3 2.778545 1_544
Al2_0 Al3_0 2.778545 1_555
Al2_0 La0_7 3.344417 1_555
Al2_0 La0_4 3.344417 1_555
Al2_0 La0_0 3.531548 1_555
Al2_1 Ni0_1 2.401922 1_555
Al2_1 Ni1_2 2.506659 1_545
Al2_1 Ni1_1 2.506659 1_555
Al2_1 Al4_0 2.646021 1_555
Al2_1 Al3_1 2.778545 1_555
Al2_1 Al3_2 2.778545 1_545
Al2_1 La0_5 3.344417 1_555
Al2_1 La0_6 3.344417 1_556
Al2_1 La0_1 3.531548 1_555
Al2_2 Ni0_2 2.401922 1_555
Al2_2 Ni1_2 2.506659 1_555
Al2_2 Ni1_1 2.506659 1_554
Al2_2 Al4_3 2.646021 1_554
Al2_2 Al3_1 2.778545 1_554
Al2_2 Al3_2 2.778545 1_555
Al2_2 La0_5 3.344417 1_565
Al2_2 La0_6 3.344417 1_555
Al2_2 La0_2 3.531548 1_555
Al2_3 Ni0_3 2.401922 1_555
Al2_3 Ni1_0 2.506659 1_555
Al2_3 Ni1_3 2.506659 1_555
Al2_3 Al4_2 2.646021 1_555
Al2_3 Al3_0 2.778545 1_555
Al2_3 Al3_3 2.778545 1_555
Al2_3 La0_7 3.344417 1_555
Al2_3 La0_4 3.344417 1_566
Al2_3 La0_3 3.531548 1_555
Al2_4 Ni0_4 2.401922 1_555
Al2_4 Ni1_4 2.506659 1_555
Al2_4 Ni1_7 2.506659 1_544
Al2_4 Al4_5 2.646021 1_554
Al2_4 Al3_4 2.778545 1_555
Al2_4 Al3_7 2.778545 1_544
Al2_4 La0_3 3.344417 1_655
Al2_4 La0_0 3.344417 1_655
Al2_4 La0_4 3.531548 1_555
Al2_5 Ni0_5 2.401922 1_555
Al2_5 Ni1_6 2.506659 1_545
Al2_5 Ni1_5 2.506659 1_555
Al2_5 Al4_4 2.646021 1_555
Al2_5 Al3_6 2.778545 1_545
Al2_5 Al3_5 2.778545 1_555
Al2_5 La0_1 3.344417 1_655
Al2_5 La0_2 3.344417 1_656
Al2_5 La0_5 3.531548 1_555
Al2_6 Ni0_6 2.401922 1_555
Al2_6 Ni1_6 2.506659 1_555
Al2_6 Ni1_5 2.506659 1_554
Al2_6 Al4_7 2.646021 1_554
Al2_6 Al3_6 2.778545 1_555
Al2_6 Al3_5 2.778545 1_554
Al2_6 La0_1 3.344417 1_665
Al2_6 La0_2 3.344417 1_655
Al2_6 La0_6 3.531548 1_555
Al2_7 Ni0_7 2.401922 1_555
Al2_7 Ni1_4 2.506659 1_555
Al2_7 Ni1_7 2.506659 1_555
Al2_7 Al4_6 2.646021 1_555
Al2_7 Al3_7 2.778545 1_555
Al2_7 Al3_4 2.778545 1_555
Al2_7 La0_3 3.344417 1_655
Al2_7 La0_0 3.344417 1_666
Al2_7 La0_7 3.531548 1_555
Al3_0 Ni1_0 2.401922 1_555
Al3_0 Ni0_3 2.506659 1_555
Al3_0 Ni0_0 2.506659 1_555
Al3_0 Al4_0 3.102129 1_555
Al3_0 La0_3 3.344417 1_555
Al3_0 La0_0 3.344417 1_555
Al3_0 La0_7 3.531548 1_555
Al3_1 Ni1_1 2.401922 1_555
Al3_1 Ni0_1 2.506659 1_555
Al3_1 Ni0_2 2.506659 1_556
Al3_1 Al4_1 3.102129 1_555
Al3_1 La0_2 3.344417 1_556
Al3_1 La0_1 3.344417 1_555
Al3_1 La0_6 3.531548 1_556
Al3_2 Ni1_2 2.401922 1_555
Al3_2 Ni0_1 2.506659 1_565
Al3_2 Ni0_2 2.506659 1_555
Al3_2 Al4_2 3.102129 1_555
Al3_2 La0_1 3.344417 1_565
Al3_2 La0_2 3.344417 1_555
Al3_2 La0_5 3.531548 1_565
Al3_3 Ni1_3 2.401922 1_555
Al3_3 Ni0_0 2.506659 1_566
Al3_3 Ni0_3 2.506659 1_555
Al3_3 Al4_3 3.102129 1_555
Al3_3 La0_0 3.344417 1_566
Al3_3 La0_3 3.344417 1_555
Al3_3 La0_4 3.531548 1_566
Al3_4 Ni1_4 2.401922 1_555
Al3_4 Ni0_4 2.506659 1_555
Al3_4 Ni0_7 2.506659 1_555
Al3_4 Al4_4 3.102129 1_555
Al3_4 La0_7 3.344417 1_555
Al3_4 La0_4 3.344417 1_555
Al3_4 La0_3 3.531548 1_655
Al3_5 Ni1_5 2.401922 1_555
Al3_5 Ni0_5 2.506659 1_555
Al3_5 Ni0_6 2.506659 1_556
Al3_5 Al4_5 3.102129 1_555
Al3_5 La0_6 3.344417 1_556
Al3_5 La0_5 3.344417 1_555
Al3_5 La0_2 3.531548 1_656
Al3_6 Ni1_6 2.401922 1_555
Al3_6 Ni0_5 2.506659 1_565
Al3_6 Ni0_6 2.506659 1_555
Al3_6 Al4_6 3.102129 1_555
Al3_6 La0_6 3.344417 1_555
Al3_6 La0_5 3.344417 1_565
Al3_6 La0_1 3.531548 1_665
Al3_7 Ni1_7 2.401922 1_555
Al3_7 Ni0_7 2.506659 1_555
Al3_7 Ni0_4 2.506659 1_566
Al3_7 Al4_7 3.102129 1_555
Al3_7 La0_4 3.344417 1_566
Al3_7 La0_7 3.344417 1_555
Al3_7 La0_0 3.531548 1_666
Al4_0 Ni0_4 2.401922 1_455
Al4_0 Ni1_1 2.506659 1_555
Al4_0 Ni1_2 2.506659 1_545
Al4_0 La0_3 3.344417 1_555
Al4_0 La0_0 3.344417 1_555
Al4_0 La0_1 3.531548 1_555
Al4_1 Ni0_5 2.401922 1_455
Al4_1 Ni1_3 2.506659 1_545
Al4_1 Ni1_0 2.506659 1_556
Al4_1 La0_2 3.344417 1_556
Al4_1 La0_1 3.344417 1_555
Al4_1 La0_0 3.531548 1_556
Al4_2 Ni0_6 2.401922 1_455
Al4_2 Ni1_0 2.506659 1_555
Al4_2 Ni1_3 2.506659 1_555
Al4_2 La0_2 3.344417 1_555
Al4_2 La0_1 3.344417 1_565
Al4_2 La0_3 3.531548 1_555
Al4_3 Ni0_7 2.401922 1_455
Al4_3 Ni1_2 2.506659 1_556
Al4_3 Ni1_1 2.506659 1_555
Al4_3 La0_0 3.344417 1_566
Al4_3 La0_3 3.344417 1_555
Al4_3 La0_2 3.531548 1_556
Al4_4 Ni0_0 2.401922 1_555
Al4_4 Ni1_5 2.506659 1_555
Al4_4 Ni1_6 2.506659 1_545
Al4_4 La0_7 3.344417 1_555
Al4_4 La0_4 3.344417 1_555
Al4_4 La0_5 3.531548 1_555
Al4_5 Ni0_1 2.401922 1_555
Al4_5 Ni1_7 2.506659 1_545
Al4_5 Ni1_4 2.506659 1_556
Al4_5 La0_6 3.344417 1_556
Al4_5 La0_5 3.344417 1_555
Al4_5 La0_4 3.531548 1_556
Al4_6 Ni0_2 2.401922 1_555
Al4_6 Ni1_7 2.506659 1_555
Al4_6 Ni1_4 2.506659 1_555
Al4_6 La0_5 3.344417 1_565
Al4_6 La0_6 3.344417 1_555
Al4_6 La0_7 3.531548 1_555
Al4_7 Ni0_3 2.401922 1_555
Al4_7 Ni1_5 2.506659 1_555
Al4_7 Ni1_6 2.506659 1_556
Al4_7 La0_4 3.344417 1_566
Al4_7 La0_7 3.344417 1_555
Al4_7 La0_6 3.531548 1_556
