# generated using pymatgen
data_KNaCaMg5(SiO3)8
_symmetry_space_group_name_H-M   'P 1'
_cell_length_a   5.21375426
_cell_length_b   10.11765304
_cell_length_c   10.40332428
_cell_angle_alpha   119.07179462
_cell_angle_beta   97.40792497
_cell_angle_gamma   74.61948083
_symmetry_Int_Tables_number   1
_chemical_formula_structural   KNaCaMg5(SiO3)8
_chemical_formula_sum   'K1 Na1 Ca1 Mg5 Si8 O24'
_cell_volume   462.46651705
_cell_formula_units_Z   1
loop_
 _symmetry_equiv_pos_site_id
 _symmetry_equiv_pos_as_xyz
  1  'x, y, z'
loop_
 _atom_site_type_symbol
 _atom_site_label
 _atom_site_symmetry_multiplicity
 _atom_site_fract_x
 _atom_site_fract_y
 _atom_site_fract_z
 _atom_site_occupancy
  K  K0  1  0.99160014  0.50814049  0.00853355  1
  Na  Na0  1  0.50041626  0.72010586  0.44023935  1
  Ca  Ca0  1  0.49951338  0.28314692  0.56560561  1
  Mg  Mg0  1  0.49915408  0.89870024  0.79640967  1
  Mg  Mg1  1  0.49727973  0.10050073  0.19984319  1
  Mg  Mg2  1  -0.00110529  0.99939766  0.99843726  1
  Mg  Mg3  1  -0.00083657  0.81696604  0.63261366  1
  Mg  Mg4  1  0.99834907  0.18053560  0.35946560  1
  Si  Si0  1  0.69883515  0.18724978  0.82983326  1
  Si  Si1  1  0.70003090  0.35753011  0.17001220  1
  Si  Si2  1  0.29921052  0.81346556  0.17034575  1
  Si  Si3  1  0.30111341  0.64336715  0.83009671  1
  Si  Si4  1  0.18895799  0.11464646  0.65587791  1
  Si  Si5  1  0.19369663  0.45919248  0.34427971  1
  Si  Si6  1  0.80530919  0.88658099  0.34457890  1
  Si  Si7  1  0.81081940  0.54226781  0.65616217  1
  O  O0  1  0.39656122  0.22489655  0.77044934  1
  O  O1  1  0.39616796  0.44741842  0.22491274  1
  O  O2  1  0.60323089  0.77865683  0.22513365  1
  O  O3  1  0.60367319  0.54657847  0.77108875  1
  O  O4  1  0.26553620  0.95046412  0.65501323  1
  O  O5  1  0.27320964  0.29543829  0.35077536  1
  O  O6  1  0.72489591  0.05652879  0.35049416  1
  O  O7  1  0.73385771  0.70558572  0.65534067  1
  O  O8  1  0.37788577  0.06501849  0.99867969  1
  O  O9  1  0.62117059  0.93449034  0.99899489  1
  O  O10  1  0.79357266  0.01987034  0.82052851  1
  O  O11  1  0.79453753  0.19803539  0.17845031  1
  O  O12  1  0.20388227  0.98124379  0.17850302  1
  O  O13  1  0.20590254  0.80130464  0.82062475  1
  O  O14  1  0.20532095  0.12463551  0.50939745  1
  O  O15  1  0.20935856  0.60961213  0.49397470  1
  O  O16  1  0.78907016  0.88581623  0.49420066  1
  O  O17  1  0.79353509  0.38602766  0.50980685  1
  O  O18  1  0.88776918  0.21420861  0.73331903  1
  O  O19  1  0.89774116  0.47395834  0.26252422  1
  O  O20  1  0.10125326  0.78977162  0.26288062  1
  O  O21  1  0.11212316  0.51998211  0.73359790  1
  O  O22  1  0.71163474  0.32407170  0.99930714  1
  O  O23  1  0.28876464  0.67589001  0.99966985  1
loop_
_geom_bond_atom_site_label_1
_geom_bond_atom_site_label_2
_geom_bond_distance
_geom_bond_site_symmetry_2
K0 O22 2.615402 1_554
K0 O23 2.621713 1_654
K0 O20 2.931654 1_655
K0 O19 2.941490 1_555
K0 O2 2.985300 1_555
K0 O1 3.053870 1_655
K0 O21 3.070283 1_654
K0 O18 3.084538 1_554
K0 O3 3.093857 1_554
K0 O0 3.169578 1_654
Na0 O15 2.364552 1_555
Na0 O16 2.365798 1_555
Na0 O7 2.456186 1_555
Na0 O4 2.460670 1_555
Na0 O1 2.720423 1_555
Na0 O2 2.722533 1_555
Na0 O19 2.772747 1_555
Na0 O20 2.779925 1_555
Ca0 O14 2.330003 1_555
Ca0 O17 2.330995 1_555
Ca0 O6 2.430740 1_555
Ca0 O5 2.432053 1_555
Ca0 O0 2.619195 1_555
Ca0 O3 2.626783 1_555
Ca0 O21 2.673730 1_555
Ca0 O18 2.674204 1_555
Mg0 O4 1.967226 1_555
Mg0 O7 1.969007 1_555
Mg0 O8 1.999237 1_565
Mg0 O9 2.003108 1_555
Mg0 O13 2.124133 1_555
Mg0 O10 2.126553 1_565
Mg1 O8 1.987096 1_554
Mg1 O5 1.990348 1_555
Mg1 O9 1.991545 1_544
Mg1 O6 1.995129 1_555
Mg1 O12 2.115738 1_545
Mg1 O11 2.130488 1_555
Mg2 O10 2.087707 1_465
Mg2 O13 2.090002 1_555
Mg2 O12 2.097412 1_556
Mg2 O11 2.098206 1_466
Mg2 O9 2.236598 1_455
Mg2 O8 2.244603 1_565
Mg3 O16 1.980374 1_455
Mg3 O15 1.982427 1_555
Mg3 O7 2.099834 1_455
Mg3 O4 2.100750 1_555
Mg3 O10 2.158264 1_465
Mg3 O13 2.163236 1_555
Mg4 O17 2.000508 1_555
Mg4 O14 2.004200 1_655
Mg4 O11 2.101196 1_555
Mg4 O6 2.101502 1_555
Mg4 O5 2.105379 1_655
Mg4 O12 2.107914 1_645
O0 Si0 1.633908 1_555
O0 Si4 1.688857 1_555
O1 Si1 1.620947 1_555
O1 Si5 1.672790 1_555
O2 Si2 1.620923 1_555
O2 Si6 1.673481 1_555
O3 Si3 1.634108 1_555
O3 Si7 1.689716 1_555
O4 Si4 1.597957 1_565
O5 Si5 1.630545 1_555
O6 Si6 1.630204 1_545
O7 Si7 1.597690 1_555
O8 O9 1.570845 1_545
O10 Si0 1.590770 1_555
O11 Si1 1.599778 1_555
O12 Si2 1.599733 1_555
O13 Si3 1.590355 1_555
O14 Si4 1.589806 1_555
O15 Si5 1.574150 1_555
O16 Si6 1.573580 1_555
O17 Si7 1.589470 1_555
O18 Si0 1.648213 1_555
O18 Si4 1.681714 1_655
O19 Si1 1.631876 1_555
O19 Si5 1.670170 1_655
O20 Si2 1.631307 1_555
O20 Si6 1.670334 1_455
O21 Si3 1.648232 1_555
O21 Si7 1.682234 1_455
O22 Si0 1.635869 1_555
O22 Si1 1.644593 1_556
O23 Si3 1.636605 1_555
O23 Si2 1.645185 1_556
