# generated using pymatgen
data_LiVP3HO10
_symmetry_space_group_name_H-M   'P 1'
_cell_length_a   6.43278703
_cell_length_b   6.51680937
_cell_length_c   6.36252321
_cell_angle_alpha   72.95974026
_cell_angle_beta   106.19455189
_cell_angle_gamma   93.45960903
_symmetry_Int_Tables_number   1
_chemical_formula_structural   LiVP3HO10
_chemical_formula_sum   'Li1 V1 P3 H1 O10'
_cell_volume   244.83004453
_cell_formula_units_Z   1
loop_
 _symmetry_equiv_pos_site_id
 _symmetry_equiv_pos_as_xyz
  1  'x, y, z'
loop_
 _atom_site_type_symbol
 _atom_site_label
 _atom_site_symmetry_multiplicity
 _atom_site_fract_x
 _atom_site_fract_y
 _atom_site_fract_z
 _atom_site_occupancy
  Li  Li0  1  0.20411600  0.20038400  0.49487100  1
  V  V0  1  0.65305900  0.65148700  0.00208600  1
  P  P0  1  0.18751100  0.54460200  0.10665700  1
  P  P1  1  0.55310400  0.56082500  0.49957100  1
  P  P2  1  0.55319600  0.18980700  0.90100900  1
  H  H0  1  0.23833800  0.21795700  0.97338800  1
  O  O0  1  0.33100900  0.65023100  0.95185400  1
  O  O1  1  0.65247100  0.97101000  0.96784300  1
  O  O2  1  0.59163900  0.69873000  0.65726800  1
  O  O3  1  0.30094200  0.58703400  0.36007700  1
  O  O4  1  0.29496800  0.18267900  0.85000500  1
  O  O5  1  0.18261900  0.29848000  0.16529000  1
  O  O6  1  0.56942100  0.30513500  0.64055200  1
  O  O7  1  0.69870000  0.58970800  0.34640100  1
  O  O8  1  0.96924700  0.65760900  0.02799000  1
  O  O9  1  0.65259300  0.32725400  0.05513700  1
loop_
_geom_bond_atom_site_label_1
_geom_bond_atom_site_label_2
_geom_bond_distance
_geom_bond_site_symmetry_2
Li0 O5 1.971880 1_555
Li0 O4 2.139899 1_555
Li0 O6 2.410306 1_555
Li0 O3 2.512871 1_555
H0 O4 1.037896 1_555
H0 O5 1.592783 1_556
O0 P0 1.526151 1_556
O0 V0 2.006048 1_556
O1 P2 1.491572 1_565
O1 V0 2.029269 1_556
O2 P1 1.496223 1_555
O2 V0 2.049254 1_556
O3 P1 1.609241 1_555
O3 P0 1.670148 1_555
O4 P2 1.601762 1_555
O5 P0 1.537050 1_555
O6 P2 1.636764 1_555
O6 P1 1.638509 1_555
O7 P1 1.497570 1_555
O7 V0 2.045992 1_555
O8 P0 1.510291 1_655
O8 V0 1.993203 1_555
O9 P2 1.506231 1_554
O9 V0 2.039696 1_555
