# generated using pymatgen
data_Li2WO12
_symmetry_space_group_name_H-M   'P 1'
_cell_length_a   10.15578500
_cell_length_b   6.81090000
_cell_length_c   12.87953403
_cell_angle_alpha   84.26000419
_cell_angle_beta   90.00000000
_cell_angle_gamma   90.00000000
_symmetry_Int_Tables_number   1
_chemical_formula_structural   Li2WO12
_chemical_formula_sum   'Li8 W4 O48'
_cell_volume   886.41096858
_cell_formula_units_Z   4
loop_
 _symmetry_equiv_pos_site_id
 _symmetry_equiv_pos_as_xyz
  1  'x, y, z'
loop_
 _atom_site_type_symbol
 _atom_site_label
 _atom_site_symmetry_multiplicity
 _atom_site_fract_x
 _atom_site_fract_y
 _atom_site_fract_z
 _atom_site_occupancy
  Li  Li0  1  0.68251400  0.71447100  0.04977000  1
  Li  Li1  1  0.31748600  0.28552900  0.95023000  1
  Li  Li2  1  0.18251400  0.28552900  0.45023000  1
  Li  Li3  1  0.81748600  0.71447100  0.54977000  1
  Li  Li4  1  0.57782900  0.89022000  0.34007300  1
  Li  Li5  1  0.42217100  0.10978000  0.65992700  1
  Li  Li6  1  0.07782900  0.10978000  0.15992700  1
  Li  Li7  1  0.92217100  0.89022000  0.84007300  1
  W  W0  1  0.61587500  0.46948600  0.25010800  1
  W  W1  1  0.38412500  0.53051400  0.74989200  1
  W  W2  1  0.11587500  0.53051400  0.24989200  1
  W  W3  1  0.88412500  0.46948600  0.75010800  1
  O  O0  1  0.41822700  0.86682700  0.45686100  1
  O  O1  1  0.58177300  0.13317300  0.54313900  1
  O  O2  1  0.91822700  0.13317300  0.04313900  1
  O  O3  1  0.08177300  0.86682700  0.95686100  1
  O  O4  1  0.64655000  0.76402800  0.20923500  1
  O  O5  1  0.35345000  0.23597200  0.79076500  1
  O  O6  1  0.14655000  0.23597200  0.29076500  1
  O  O7  1  0.85345000  0.76402800  0.70923500  1
  O  O8  1  0.07713400  0.81886200  0.21738400  1
  O  O9  1  0.92286600  0.18113800  0.78261600  1
  O  O10  1  0.57713400  0.18113800  0.28261600  1
  O  O11  1  0.42286600  0.81886200  0.71738400  1
  O  O12  1  0.50386600  0.71346500  0.22999400  1
  O  O13  1  0.49613400  0.28653500  0.77000600  1
  O  O14  1  0.00386600  0.28653500  0.27000600  1
  O  O15  1  0.99613400  0.71346500  0.72999400  1
  O  O16  1  0.49615100  0.90954200  0.00179500  1
  O  O17  1  0.50384900  0.09045800  0.99820500  1
  O  O18  1  0.99615100  0.09045800  0.49820500  1
  O  O19  1  0.00384900  0.90954200  0.50179500  1
  O  O20  1  0.74730100  0.42101900  0.14130900  1
  O  O21  1  0.25269900  0.57898100  0.85869100  1
  O  O22  1  0.24730100  0.57898100  0.35869100  1
  O  O23  1  0.75269900  0.42101900  0.64130900  1
  O  O24  1  0.63607800  0.53014500  0.39974300  1
  O  O25  1  0.36392200  0.46985500  0.60025700  1
  O  O26  1  0.13607800  0.46985500  0.10025700  1
  O  O27  1  0.86392200  0.53014500  0.89974300  1
  O  O28  1  0.61181500  0.45177800  0.09570300  1
  O  O29  1  0.38818500  0.54822200  0.90429700  1
  O  O30  1  0.11181500  0.54822200  0.40429700  1
  O  O31  1  0.88818500  0.45177800  0.59570300  1
  O  O32  1  0.95653900  0.69693500  0.22350500  1
  O  O33  1  0.04346100  0.30306500  0.77649500  1
  O  O34  1  0.45653900  0.30306500  0.27649500  1
  O  O35  1  0.54346100  0.69693500  0.72350500  1
  O  O36  1  0.75752400  0.45892600  0.35866900  1
  O  O37  1  0.24247600  0.54107400  0.64133100  1
  O  O38  1  0.25752400  0.54107400  0.14133100  1
  O  O39  1  0.74247600  0.45892600  0.85866900  1
  O  O40  1  0.87609500  0.95273400  0.04399600  1
  O  O41  1  0.12390500  0.04726600  0.95600400  1
  O  O42  1  0.37609500  0.04726600  0.45600400  1
  O  O43  1  0.62390500  0.95273400  0.54399600  1
  O  O44  1  0.71168000  0.92081800  0.46608100  1
  O  O45  1  0.28832000  0.07918200  0.53391900  1
  O  O46  1  0.21168000  0.07918200  0.03391900  1
  O  O47  1  0.78832000  0.92081800  0.96608100  1
loop_
_geom_bond_atom_site_label_1
_geom_bond_atom_site_label_2
_geom_bond_distance
_geom_bond_site_symmetry_2
Li0 O28 1.963400 1_555
Li0 O47 1.997152 1_554
Li0 O4 2.145747 1_555
Li0 O20 2.312196 1_555
Li0 O16 2.359016 1_555
Li0 O40 2.545555 1_555
Li1 O29 1.963400 1_555
Li1 O46 1.997152 1_556
Li1 O5 2.145747 1_555
Li1 O21 2.312196 1_555
Li1 O17 2.359016 1_555
Li1 O41 2.545555 1_555
Li2 O30 1.963400 1_555
Li2 O45 1.997152 1_555
Li2 O6 2.145747 1_555
Li2 O22 2.312196 1_555
Li2 O18 2.359016 1_455
Li2 O42 2.545555 1_555
Li3 O31 1.963400 1_555
Li3 O44 1.997152 1_555
Li3 O7 2.145747 1_555
Li3 O23 2.312196 1_555
Li3 O19 2.359016 1_655
Li3 O43 2.545555 1_555
Li4 O10 2.044597 1_565
Li4 O4 2.086906 1_555
Li4 O12 2.089253 1_555
Li4 O44 2.143089 1_555
Li4 O0 2.206185 1_555
Li4 O24 2.564762 1_555
Li5 O11 2.044597 1_545
Li5 O5 2.086906 1_555
Li5 O13 2.089253 1_555
Li5 O45 2.143089 1_555
Li5 O1 2.206185 1_555
Li5 O25 2.564762 1_555
Li6 O8 2.044597 1_545
Li6 O6 2.086906 1_555
Li6 O14 2.089253 1_555
Li6 O46 2.143089 1_555
Li6 O2 2.206185 1_455
Li6 O26 2.564762 1_555
Li7 O9 2.044597 1_565
Li7 O7 2.086906 1_555
Li7 O15 2.089253 1_555
Li7 O47 2.143089 1_555
Li7 O3 2.206185 1_655
Li7 O27 2.564762 1_555
O0 O42 1.300314 1_565
O1 O43 1.300314 1_545
O2 O40 1.300314 1_545
O3 O41 1.300314 1_565
O4 W0 2.046302 1_555
O5 W1 2.046302 1_555
O6 W2 2.046302 1_555
O7 W3 2.046302 1_555
O8 W2 2.005633 1_555
O9 W3 2.005633 1_555
O10 O34 1.477403 1_555
O10 W0 2.005633 1_555
O11 O35 1.477403 1_555
O11 W1 2.005633 1_555
O12 O4 1.507137 1_555
O12 W0 2.009055 1_555
O13 O5 1.507137 1_555
O13 W1 2.009055 1_555
O14 O6 1.507137 1_555
O14 W2 2.009055 1_555
O15 O7 1.507137 1_555
O15 W3 2.009055 1_555
O16 O17 1.230923 1_564
O18 O19 1.230923 1_645
O20 O28 1.502524 1_555
O20 W0 1.986605 1_555
O21 O29 1.502524 1_555
O21 W1 1.986605 1_555
O22 O30 1.502524 1_555
O22 W2 1.986605 1_555
O23 O31 1.502524 1_555
O23 W3 1.986605 1_555
O24 O36 1.444887 1_555
O24 W0 2.021451 1_555
O25 O37 1.444887 1_555
O25 W1 2.021451 1_555
O26 O38 1.444887 1_555
O26 W2 2.021451 1_555
O27 O39 1.444887 1_555
O27 W3 2.021451 1_555
O28 W0 2.004747 1_555
O29 W1 2.004747 1_555
O30 W2 2.004747 1_555
O31 W3 2.004747 1_555
O32 O8 1.477403 1_655
O32 W2 1.985379 1_655
O33 O9 1.477403 1_455
O33 W3 1.985379 1_455
O34 W0 1.985379 1_555
O35 W1 1.985379 1_555
O36 W0 2.002376 1_555
O37 W1 2.002376 1_555
O38 W2 2.002376 1_555
O39 W3 2.002376 1_555
O40 O47 1.375701 1_554
O41 O46 1.375701 1_556
O42 O45 1.375701 1_555
O43 O44 1.375701 1_555
