# generated using pymatgen
data_HoFeCu
_symmetry_space_group_name_H-M   'P 1'
_cell_length_a   5.19995592
_cell_length_b   5.19995592
_cell_length_c   5.19995592
_cell_angle_alpha   121.89192210
_cell_angle_beta   121.25806516
_cell_angle_gamma   87.29393255
_symmetry_Int_Tables_number   1
_chemical_formula_structural   HoFeCu
_chemical_formula_sum   'Ho2 Fe2 Cu2'
_cell_volume   96.93402947
_cell_formula_units_Z   2
loop_
 _symmetry_equiv_pos_site_id
 _symmetry_equiv_pos_as_xyz
  1  'x, y, z'
loop_
 _atom_site_type_symbol
 _atom_site_label
 _atom_site_symmetry_multiplicity
 _atom_site_fract_x
 _atom_site_fract_y
 _atom_site_fract_z
 _atom_site_occupancy
  Ho  Ho0  1  0.37241200  0.12241200  0.25000000  1
  Ho  Ho1  1  0.62758800  0.87758800  0.75000000  1
  Fe  Fe0  1  0.00000000  0.50000000  0.00000000  1
  Fe  Fe1  1  0.00000000  0.00000000  0.50000000  1
  Cu  Cu0  1  0.50000000  0.50000000  0.00000000  1
  Cu  Cu1  1  0.00000000  0.50000000  0.50000000  1
loop_
_geom_bond_atom_site_label_1
_geom_bond_atom_site_label_2
_geom_bond_distance
_geom_bond_site_symmetry_2
Ho0 Ho1 3.146255 1_444
Ho0 Ho1 3.146255 1_545
Ho0 Ho1 3.172479 1_555
Ho0 Ho1 3.172479 1_544
Fe0 Fe1 2.525277 1_554
Fe0 Fe1 2.525277 1_565
Fe0 Ho1 3.003432 1_555
Fe0 Ho1 3.003432 1_454
Fe0 Ho0 3.003432 1_454
Fe0 Ho0 3.003432 1_555
Fe0 Ho0 3.073862 1_565
Fe0 Ho1 3.073862 1_444
Fe1 Ho1 3.003432 1_444
Fe1 Ho1 3.003432 1_545
Fe1 Ho0 3.003432 1_455
Fe1 Ho0 3.003432 1_556
Fe1 Ho0 3.073862 1_555
Fe1 Ho1 3.073862 1_445
Cu0 Cu1 2.550382 1_554
Cu0 Cu1 2.550382 1_655
Cu0 Fe1 2.599978 1_554
Cu0 Fe1 2.599978 1_665
Cu0 Fe0 2.599978 1_555
Cu0 Fe0 2.599978 1_655
Cu0 Ho0 2.975190 1_565
Cu0 Ho0 2.975190 1_554
Cu0 Ho1 2.975190 1_544
Cu0 Ho1 2.975190 1_555
Cu0 Ho1 3.114535 1_554
Cu0 Ho0 3.114535 1_555
Cu1 Fe0 2.599978 1_555
Cu1 Fe0 2.599978 1_556
Cu1 Fe1 2.599978 1_555
Cu1 Fe1 2.599978 1_565
Cu1 Ho0 2.975190 1_566
Cu1 Ho0 2.975190 1_555
Cu1 Ho1 2.975190 1_444
Cu1 Ho1 2.975190 1_455
Cu1 Ho1 3.114535 1_555
Cu1 Ho0 3.114535 1_455
