# generated using pymatgen
data_SrC6(BrO4)2
_symmetry_space_group_name_H-M   'P 1'
_cell_length_a   10.72947443
_cell_length_b   10.72947443
_cell_length_c   6.47810890
_cell_angle_alpha   81.16121389
_cell_angle_beta   81.16121389
_cell_angle_gamma   109.14714344
_symmetry_Int_Tables_number   1
_chemical_formula_structural   SrC6(BrO4)2
_chemical_formula_sum   'Sr2 C12 Br4 O16'
_cell_volume   679.31116120
_cell_formula_units_Z   2
loop_
 _symmetry_equiv_pos_site_id
 _symmetry_equiv_pos_as_xyz
  1  'x, y, z'
loop_
 _atom_site_type_symbol
 _atom_site_label
 _atom_site_symmetry_multiplicity
 _atom_site_fract_x
 _atom_site_fract_y
 _atom_site_fract_z
 _atom_site_occupancy
  Sr  Sr0  1  0.80126800  0.80126800  0.14020900  1
  Sr  Sr1  1  0.19873200  0.19873200  0.85979100  1
  C  C0  1  0.54790800  0.09214200  0.13696200  1
  C  C1  1  0.45209200  0.90785800  0.86303800  1
  C  C2  1  0.90785800  0.45209200  0.86303800  1
  C  C3  1  0.09214200  0.54790800  0.13696200  1
  C  C4  1  0.60385100  0.99048500  0.11617500  1
  C  C5  1  0.39614900  0.00951500  0.88382500  1
  C  C6  1  0.00951500  0.39614900  0.88382500  1
  C  C7  1  0.99048500  0.60385100  0.11617500  1
  C  C8  1  0.44492200  0.10608700  0.03221500  1
  C  C9  1  0.55507800  0.89391300  0.96778500  1
  C  C10  1  0.89391300  0.55507800  0.96778500  1
  C  C11  1  0.10608700  0.44492200  0.03221500  1
  Br  Br0  1  0.61310700  0.20921100  0.31598200  1
  Br  Br1  1  0.38689300  0.79078900  0.68401800  1
  Br  Br2  1  0.79078900  0.38689300  0.68401800  1
  Br  Br3  1  0.20921100  0.61310700  0.31598200  1
  O  O0  1  0.38899600  0.19115300  0.05057800  1
  O  O1  1  0.61100400  0.80884700  0.94942200  1
  O  O2  1  0.80884700  0.61100400  0.94942200  1
  O  O3  1  0.19115300  0.38899600  0.05057800  1
  O  O4  1  0.88025100  0.11974900  0.50000000  1
  O  O5  1  0.11974900  0.88025100  0.50000000  1
  O  O6  1  0.64858700  0.64858700  0.57140800  1
  O  O7  1  0.35141300  0.35141300  0.42859200  1
  O  O8  1  0.69225800  0.97289600  0.21104500  1
  O  O9  1  0.30774200  0.02710400  0.78895500  1
  O  O10  1  0.02710400  0.30774200  0.78895500  1
  O  O11  1  0.97289600  0.69225800  0.21104500  1
  O  O12  1  0.99333700  0.99333700  0.89933600  1
  O  O13  1  0.00666300  0.00666300  0.10066400  1
  O  O14  1  0.44936600  0.44936600  0.32261400  1
  O  O15  1  0.55063400  0.55063400  0.67738600  1
loop_
_geom_bond_atom_site_label_1
_geom_bond_atom_site_label_2
_geom_bond_distance
_geom_bond_site_symmetry_2
C0 C8 1.418275 1_555
C0 C4 1.420520 1_545
C1 C9 1.418275 1_555
C1 C5 1.420520 1_565
C2 C6 1.420520 1_655
C3 C7 1.420520 1_455
C4 O8 1.254603 1_555
C5 O9 1.254603 1_555
C6 O10 1.254603 1_555
C7 O11 1.254603 1_555
C8 O0 1.256172 1_555
C9 O1 1.256172 1_555
C10 O2 1.256172 1_555
C10 C2 1.418275 1_555
C11 O3 1.256172 1_555
C11 C3 1.418275 1_555
Br0 C0 1.879525 1_555
Br1 C1 1.879525 1_555
Br2 C2 1.879525 1_555
Br3 C3 1.879525 1_555
O0 Sr1 2.560271 1_554
O1 Sr0 2.560271 1_556
O2 Sr0 2.560271 1_556
O3 Sr1 2.560271 1_554
O6 Sr0 2.932093 1_555
O7 Sr1 2.932093 1_555
O8 Sr0 2.545047 1_555
O9 Sr1 2.545047 1_555
O10 Sr1 2.545047 1_555
O11 Sr0 2.545047 1_555
O12 O13 1.357605 1_666
O12 Sr0 2.483204 1_556
O12 Sr1 2.499204 1_665
O13 Sr1 2.483204 1_554
O13 Sr0 2.499204 1_445
O14 O7 1.229801 1_555
O15 O6 1.229801 1_555
