# generated using pymatgen
data_CaSmV4O12
_symmetry_space_group_name_H-M   'P 1'
_cell_length_a   5.31935128
_cell_length_b   5.31935128
_cell_length_c   7.51923313
_cell_angle_alpha   90.00000000
_cell_angle_beta   90.00000000
_cell_angle_gamma   90.05625509
_symmetry_Int_Tables_number   1
_chemical_formula_structural   CaSmV4O12
_chemical_formula_sum   'Ca1 Sm1 V4 O12'
_cell_volume   212.76034336
_cell_formula_units_Z   1
loop_
 _symmetry_equiv_pos_site_id
 _symmetry_equiv_pos_as_xyz
  1  'x, y, z'
loop_
 _atom_site_type_symbol
 _atom_site_label
 _atom_site_symmetry_multiplicity
 _atom_site_fract_x
 _atom_site_fract_y
 _atom_site_fract_z
 _atom_site_occupancy
  Ca  Ca0  1  0.50000000  0.50000000  0.50000000  1
  Sm  Sm0  1  0.00000000  0.00000000  0.00000000  1
  V  V0  1  0.00000000  0.50000000  0.25232416  1
  V  V1  1  0.00000000  0.50000000  0.74767584  1
  V  V2  1  0.50000000  0.00000000  0.25232416  1
  V  V3  1  0.50000000  0.00000000  0.74767584  1
  O  O0  1  0.22969276  0.22969276  0.24492181  1
  O  O1  1  0.22969276  0.22969276  0.75507819  1
  O  O2  1  0.77030724  0.77030724  0.24492181  1
  O  O3  1  0.77030724  0.77030724  0.75507819  1
  O  O4  1  0.73373953  0.26626047  0.75153867  1
  O  O5  1  0.73373953  0.26626047  0.24846133  1
  O  O6  1  0.26626047  0.73373953  0.75153867  1
  O  O7  1  0.26626047  0.73373953  0.24846133  1
  O  O8  1  0.00000000  0.50000000  -0.00000000  1
  O  O9  1  0.00000000  0.50000000  0.50000000  1
  O  O10  1  0.50000000  0.00000000  0.00000000  1
  O  O11  1  0.50000000  0.00000000  0.50000000  1
loop_
_geom_bond_atom_site_label_1
_geom_bond_atom_site_label_2
_geom_bond_distance
_geom_bond_site_symmetry_2
Ca0 O6 2.583050 1_555
Ca0 O7 2.583050 1_555
Ca0 O4 2.583050 1_555
Ca0 O5 2.583050 1_555
Ca0 O9 2.659676 1_655
Ca0 O11 2.659676 1_555
Ca0 O11 2.659676 1_565
Ca0 O9 2.659676 1_555
Ca0 O1 2.794551 1_555
Ca0 O0 2.794551 1_555
Ca0 O2 2.794551 1_555
Ca0 O3 2.794551 1_555
O0 V2 1.888603 1_555
O0 V0 1.888603 1_555
O0 Sm0 2.524741 1_555
O1 V3 1.888603 1_555
O1 V1 1.888603 1_555
O1 Sm0 2.524741 1_556
O2 V0 1.888603 1_655
O2 V2 1.888603 1_565
O2 Sm0 2.524741 1_665
O3 V1 1.888603 1_655
O3 V3 1.888603 1_565
O3 Sm0 2.524741 1_666
O4 V1 1.883955 1_655
O4 V3 1.883955 1_555
O4 Sm0 2.739754 1_656
O5 V0 1.883955 1_655
O5 V2 1.883955 1_555
O5 Sm0 2.739754 1_655
O6 V3 1.883955 1_565
O6 V1 1.883955 1_555
O6 Sm0 2.739754 1_566
O7 V2 1.883955 1_565
O7 V0 1.883955 1_555
O7 Sm0 2.739754 1_565
O8 V1 1.897284 1_554
O8 V0 1.897284 1_555
O8 Sm0 2.659676 1_565
O8 Sm0 2.659676 1_555
O9 V1 1.862332 1_555
O9 V0 1.862332 1_555
O10 V3 1.897284 1_554
O10 V2 1.897284 1_555
O10 Sm0 2.659676 1_555
O10 Sm0 2.659676 1_655
O11 V2 1.862332 1_555
O11 V3 1.862332 1_555
