# generated using pymatgen
data_MgCoSiO5
_symmetry_space_group_name_H-M   'P 1'
_cell_length_a   5.47220370
_cell_length_b   6.79828014
_cell_length_c   8.34828596
_cell_angle_alpha   90.27389536
_cell_angle_beta   38.78748760
_cell_angle_gamma   73.52080208
_symmetry_Int_Tables_number   1
_chemical_formula_structural   MgCoSiO5
_chemical_formula_sum   'Mg2 Co2 Si2 O10'
_cell_volume   172.86614419
_cell_formula_units_Z   2
loop_
 _symmetry_equiv_pos_site_id
 _symmetry_equiv_pos_as_xyz
  1  'x, y, z'
loop_
 _atom_site_type_symbol
 _atom_site_label
 _atom_site_symmetry_multiplicity
 _atom_site_fract_x
 _atom_site_fract_y
 _atom_site_fract_z
 _atom_site_occupancy
  Mg  Mg0  1  0.38657400  0.25475000  0.73988200  1
  Mg  Mg1  1  0.61194500  0.71667200  0.25170300  1
  Co  Co0  1  0.49936200  0.48548500  0.99586700  1
  Co  Co1  1  0.49914200  0.98547700  0.99558900  1
  Si  Si0  1  0.55110100  0.23090600  0.31792900  1
  Si  Si1  1  0.44706700  0.74002000  0.67350800  1
  O  O0  1  0.52318000  0.03384900  0.22931200  1
  O  O1  1  0.69072800  0.39186800  0.13985900  1
  O  O2  1  0.47292500  0.93799000  0.76263300  1
  O  O3  1  0.30762300  0.57950000  0.85212200  1
  O  O4  1  0.89721300  0.59095600  0.33750000  1
  O  O5  1  0.12655800  0.82976900  0.67603100  1
  O  O6  1  0.10180500  0.37948200  0.65407100  1
  O  O7  1  0.87203300  0.13981300  0.31498900  1
  O  O8  1  0.45667300  0.74540200  0.09432000  1
  O  O9  1  0.54280200  0.22518800  0.89669800  1
loop_
_geom_bond_atom_site_label_1
_geom_bond_atom_site_label_2
_geom_bond_distance
_geom_bond_site_symmetry_2
Mg0 O9 2.033456 1_555
Mg0 O7 2.087010 1_555
Mg0 O2 2.112609 1_545
Mg0 O1 2.157065 1_456
Mg0 O6 2.158014 1_555
Mg0 O3 2.178705 1_555
Mg1 O8 2.033484 1_555
Mg1 O5 2.083718 1_555
Mg1 O0 2.114597 1_565
Mg1 O3 2.156076 1_654
Mg1 O4 2.161559 1_555
Mg1 O1 2.178553 1_555
Co0 O8 1.817959 1_556
Co0 O9 1.820395 1_555
Co0 O4 1.869576 1_456
Co0 O6 1.870082 1_655
Co0 O1 2.130331 1_556
Co0 O3 2.130542 1_555
Co1 O9 1.822245 1_565
Co1 O8 1.823882 1_556
Co1 O7 1.911209 1_466
Co1 O5 1.912455 1_655
Co1 O0 2.085929 1_566
Co1 O2 2.088592 1_555
O0 Si0 1.627320 1_555
O1 Si0 1.646299 1_555
O2 Si1 1.627128 1_555
O3 Si1 1.646429 1_555
O4 Si1 1.657688 1_555
O5 Si1 1.668538 1_555
O6 Si0 1.657719 1_555
O7 Si0 1.668532 1_555
