# generated using pymatgen
data_KLi3Ca7Ti2(Si6O19)2
_symmetry_space_group_name_H-M   'P 1'
_cell_length_a   9.85661490
_cell_length_b   9.88137752
_cell_length_c   20.14000060
_cell_angle_alpha   81.74765348
_cell_angle_beta   75.85475751
_cell_angle_gamma   60.10171499
_symmetry_Int_Tables_number   1
_chemical_formula_structural   KLi3Ca7Ti2(Si6O19)2
_chemical_formula_sum   'K2 Li6 Ca14 Ti4 Si24 O76'
_cell_volume   1648.40057610
_cell_formula_units_Z   2
loop_
 _symmetry_equiv_pos_site_id
 _symmetry_equiv_pos_as_xyz
  1  'x, y, z'
loop_
 _atom_site_type_symbol
 _atom_site_label
 _atom_site_symmetry_multiplicity
 _atom_site_fract_x
 _atom_site_fract_y
 _atom_site_fract_z
 _atom_site_occupancy
  K  K0  1  0.07086596  0.25021873  0.74995496  1
  K  K1  1  0.92913404  0.74978127  0.25004504  1
  Li  Li0  1  0.07084301  0.74511041  0.74936098  1
  Li  Li1  1  0.92915699  0.25488959  0.25063902  1
  Li  Li2  1  0.56305270  0.75692234  0.75182162  1
  Li  Li3  1  0.43694730  0.24307766  0.24817838  1
  Li  Li4  1  0.58300973  0.25025505  0.74974126  1
  Li  Li5  1  0.41699027  0.74974495  0.25025874  1
  Ca  Ca0  1  -0.00000000  0.00000000  -0.00000000  1
  Ca  Ca1  1  -0.00000000  0.50000000  0.50000000  1
  Ca  Ca2  1  0.70453804  0.43009097  0.01256025  1
  Ca  Ca3  1  0.29546196  0.56990903  0.98743975  1
  Ca  Ca4  1  0.56682441  0.14488627  0.00007869  1
  Ca  Ca5  1  0.43317559  0.85511373  0.99992131  1
  Ca  Ca6  1  0.85991291  0.71489250  0.99330920  1
  Ca  Ca7  1  0.14008709  0.28510750  0.00669080  1
  Ca  Ca8  1  0.14725837  0.07019064  0.48745478  1
  Ca  Ca9  1  0.85274163  0.92980936  0.51254522  1
  Ca  Ca10  1  0.56846915  0.78470541  0.50662790  1
  Ca  Ca11  1  0.43153085  0.21529459  0.49337210  1
  Ca  Ca12  1  0.28859980  0.64441002  0.50001655  1
  Ca  Ca13  1  0.71140020  0.35558998  0.49998345  1
  Ti  Ti0  1  0.40470834  0.58265263  0.74824966  1
  Ti  Ti1  1  0.59529166  0.41734737  0.25175034  1
  Ti  Ti2  1  0.73543086  0.91754450  0.75177840  1
  Ti  Ti3  1  0.26456914  0.08245550  0.24822160  1
  Si  Si0  1  0.89215833  0.00246550  0.86011746  1
  Si  Si1  1  0.10784167  0.99753450  0.13988254  1
  Si  Si2  1  0.26570417  0.87842829  0.85947949  1
  Si  Si3  1  0.73429583  0.12157171  0.14052051  1
  Si  Si4  1  0.38836779  0.12187580  0.86079989  1
  Si  Si5  1  0.61163221  0.87812420  0.13920011  1
  Si  Si6  1  0.14192494  0.48838165  0.85918433  1
  Si  Si7  1  0.85807506  0.51161835  0.14081567  1
  Si  Si8  1  0.76988760  0.61454474  0.86216185  1
  Si  Si9  1  0.23011240  0.38545526  0.13783815  1
  Si  Si10  1  0.65125266  0.36800439  0.86058062  1
  Si  Si11  1  0.34874734  0.63199561  0.13941938  1
  Si  Si12  1  0.62976526  0.62152207  0.36056117  1
  Si  Si13  1  0.37023474  0.37847793  0.63943883  1
  Si  Si14  1  0.99643094  0.37841473  0.35907998  1
  Si  Si15  1  0.00356906  0.62158527  0.64092002  1
  Si  Si16  1  0.24558053  0.50189076  0.35958931  1
  Si  Si17  1  0.75441947  0.49810924  0.64041069  1
  Si  Si18  1  0.12032323  0.86745086  0.36061258  1
  Si  Si19  1  0.87967677  0.13254914  0.63938742  1
  Si  Si20  1  0.75346145  0.11484654  0.36217817  1
  Si  Si21  1  0.24653855  0.88515346  0.63782183  1
  Si  Si22  1  0.51093138  0.98829924  0.35922009  1
  Si  Si23  1  0.48906862  0.01170076  0.64077991  1
  O  O0  1  0.79447180  0.18928088  0.84065327  1
  O  O1  1  0.20552820  0.81071912  0.15934673  1
  O  O2  1  0.88498412  0.90161403  0.80602914  1
  O  O3  1  0.11501588  0.09838597  0.19397086  1
  O  O4  1  0.83110852  0.96470103  0.94008347  1
  O  O5  1  0.16889148  0.03529897  0.05991653  1
  O  O6  1  0.07753705  0.96984590  0.85104949  1
  O  O7  1  0.92246295  0.03015410  0.14895051  1
  O  O8  1  0.37774674  0.74369885  0.80412775  1
  O  O9  1  0.62225326  0.25630115  0.19587225  1
  O  O10  1  0.27135655  0.81730450  0.93899820  1
  O  O11  1  0.72864345  0.18269550  0.06100180  1
  O  O12  1  0.32211608  0.01265501  0.84095428  1
  O  O13  1  0.67788392  0.98734499  0.15904572  1
  O  O14  1  0.55537985  0.08784086  0.80871337  1
  O  O15  1  0.44462015  0.91215914  0.19128663  1
  O  O16  1  0.39915159  0.10082234  0.94186257  1
  O  O17  1  0.60084841  0.89917766  0.05813743  1
  O  O18  1  0.24819918  0.29975523  0.84506959  1
  O  O19  1  0.75180082  0.70024477  0.15493041  1
  O  O20  1  0.21224503  0.58489399  0.80402842  1
  O  O21  1  0.78775497  0.41510601  0.19597158  1
  O  O22  1  0.12575632  0.51912775  0.93894242  1
  O  O23  1  0.87424368  0.48087225  0.06105758  1
  O  O24  1  0.96502194  0.54017514  0.84469628  1
  O  O25  1  0.03497806  0.45982486  0.15530372  1
  O  O26  1  0.69213085  0.76057916  0.81020149  1
  O  O27  1  0.30786915  0.23942084  0.18979851  1
  O  O28  1  0.69642357  0.65973227  0.94294281  1
  O  O29  1  0.30357643  0.34026773  0.05705719  1
  O  O30  1  0.74445021  0.47189598  0.84468981  1
  O  O31  1  0.25554979  0.52810402  0.15531019  1
  O  O32  1  0.53201474  0.41796557  0.80819614  1
  O  O33  1  0.46798526  0.58203443  0.19180386  1
  O  O34  1  0.56380042  0.37797485  0.94134779  1
  O  O35  1  0.43619958  0.62202515  0.05865221  1
  O  O36  1  0.60732184  0.79975874  0.34517578  1
  O  O37  1  0.39267816  0.20024126  0.65482422  1
  O  O38  1  0.54834919  0.58752145  0.30877786  1
  O  O39  1  0.45165081  0.41247855  0.69122214  1
  O  O40  1  0.55942685  0.59988995  0.44166941  1
  O  O41  1  0.44057315  0.40011005  0.55833059  1
  O  O42  1  0.82511178  0.51310620  0.34022583  1
  O  O43  1  0.17488822  0.48689380  0.65977417  1
  O  O44  1  0.07407032  0.24278586  0.30409515  1
  O  O45  1  0.92592968  0.75721414  0.69590485  1
  O  O46  1  0.97187973  0.31818359  0.43881942  1
  O  O47  1  0.02812027  0.68181641  0.56118058  1
  O  O48  1  0.10175532  0.46952734  0.35047487  1
  O  O49  1  0.89824468  0.53047266  0.64952513  1
  O  O50  1  0.40739919  0.40115015  0.30533180  1
  O  O51  1  0.59260081  0.59884985  0.69466820  1
  O  O52  1  0.26447661  0.46420600  0.43956579  1
  O  O53  1  0.73552339  0.53579400  0.56043421  1
  O  O54  1  0.17528585  0.68916861  0.34042074  1
  O  O55  1  0.82471415  0.31083139  0.65957926  1
  O  O56  1  0.24171835  0.91783285  0.30806928  1
  O  O57  1  0.75828165  0.08216715  0.69193072  1
  O  O58  1  0.11793408  0.87712827  0.44131607  1
  O  O59  1  0.88206592  0.12287173  0.55868393  1
  O  O60  1  0.93897307  0.97172268  0.34524444  1
  O  O61  1  0.06102693  0.02827732  0.65475556  1
  O  O62  1  0.73783034  0.26017404  0.30993353  1
  O  O63  1  0.26216966  0.73982596  0.69006647  1
  O  O64  1  0.70036175  0.16033237  0.44293862  1
  O  O65  1  0.29963825  0.83966763  0.55706138  1
  O  O66  1  0.65033451  0.04013430  0.34465413  1
  O  O67  1  0.34966549  0.95986570  0.65534587  1
  O  O68  1  0.39917158  0.08465475  0.30395745  1
  O  O69  1  0.60082842  0.91534525  0.69604255  1
  O  O70  1  0.41633312  0.01911143  0.43896159  1
  O  O71  1  0.58366688  0.98088857  0.56103841  1
  O  O72  1  0.03437336  0.75382688  0.03961425  1
  O  O73  1  0.96562664  0.24617312  0.96038575  1
  O  O74  1  0.17185893  0.25438851  0.53960930  1
  O  O75  1  0.82814107  0.74561149  0.46039070  1
loop_
_geom_bond_atom_site_label_1
_geom_bond_atom_site_label_2
_geom_bond_distance
_geom_bond_site_symmetry_2
K0 O37 3.117010 1_555
K0 O18 3.118168 1_555
K0 O55 3.155170 1_455
K0 O30 3.156494 1_455
K0 O61 3.163086 1_555
K0 O0 3.163626 1_455
K0 O49 3.167311 1_455
K0 O43 3.174958 1_555
K0 O6 3.176451 1_545
K0 O12 3.192201 1_555
K0 O24 3.248832 1_455
K0 O67 3.250229 1_545
K1 O36 3.117010 1_555
K1 O19 3.118168 1_555
K1 O54 3.155170 1_655
K1 O31 3.156494 1_655
K1 O60 3.163086 1_555
K1 O1 3.163626 1_655
K1 O48 3.167311 1_655
K1 O42 3.174958 1_555
K1 O7 3.176451 1_565
K1 O13 3.192201 1_555
K1 O25 3.248832 1_655
K1 O66 3.250229 1_565
Li0 O2 1.926286 1_455
Li0 O20 1.926404 1_555
Li0 O45 1.938535 1_455
Li0 O63 1.950437 1_555
Li1 O3 1.926286 1_655
Li1 O21 1.926404 1_555
Li1 O44 1.938535 1_655
Li1 O62 1.950437 1_555
Li2 O8 1.928955 1_555
Li2 O69 1.929519 1_555
Li2 O51 1.936054 1_555
Li2 O26 1.947200 1_555
Li3 O9 1.928955 1_555
Li3 O68 1.929519 1_555
Li3 O50 1.936054 1_555
Li3 O27 1.947200 1_555
Li4 O39 1.941497 1_555
Li4 O14 1.947016 1_555
Li4 O57 1.952004 1_555
Li4 O32 1.955867 1_555
Li5 O38 1.941497 1_555
Li5 O15 1.947016 1_555
Li5 O56 1.952004 1_555
Li5 O33 1.955867 1_555
Ca0 O73 2.328497 1_454
Ca0 O72 2.328497 1_545
Ca0 O4 2.455724 1_444
Ca0 O5 2.455724 1_555
Ca0 O10 2.477739 1_544
Ca0 O11 2.477739 1_455
Ca1 O74 2.324268 1_555
Ca1 O75 2.324268 1_455
Ca1 O52 2.460848 1_555
Ca1 O53 2.460848 1_455
Ca1 O46 2.474204 1_455
Ca1 O47 2.474204 1_555
Ca2 O73 2.365085 1_554
Ca2 O35 2.399750 1_555
Ca2 O23 2.404125 1_555
Ca2 O11 2.415364 1_555
Ca2 O28 2.466163 1_554
Ca2 O34 2.478532 1_554
Ca3 O72 2.365085 1_556
Ca3 O34 2.399750 1_555
Ca3 O22 2.404125 1_555
Ca3 O10 2.415364 1_555
Ca3 O29 2.466163 1_556
Ca3 O35 2.478532 1_556
Ca4 O4 2.423064 1_544
Ca4 O11 2.423069 1_555
Ca4 O34 2.423142 1_554
Ca4 O17 2.437125 1_545
Ca4 O29 2.442020 1_555
Ca4 O16 2.471168 1_554
Ca5 O5 2.423064 1_566
Ca5 O10 2.423069 1_555
Ca5 O35 2.423142 1_556
Ca5 O16 2.437125 1_565
Ca5 O28 2.442020 1_555
Ca5 O17 2.471168 1_556
Ca6 O72 2.349692 1_656
Ca6 O28 2.399192 1_555
Ca6 O17 2.441000 1_556
Ca6 O22 2.441204 1_655
Ca6 O4 2.452234 1_555
Ca6 O23 2.468174 1_556
Ca7 O73 2.349692 1_454
Ca7 O29 2.399192 1_555
Ca7 O16 2.441000 1_554
Ca7 O23 2.441204 1_455
Ca7 O5 2.452234 1_555
Ca7 O22 2.468174 1_554
Ca8 O74 2.363955 1_555
Ca8 O58 2.403392 1_545
Ca8 O70 2.404906 1_555
Ca8 O46 2.422431 1_455
Ca8 O65 2.472154 1_545
Ca8 O59 2.487271 1_455
Ca9 O75 2.363955 1_555
Ca9 O59 2.403392 1_565
Ca9 O71 2.404906 1_555
Ca9 O47 2.422431 1_655
Ca9 O64 2.472154 1_565
Ca9 O58 2.487271 1_655
Ca10 O75 2.349469 1_555
Ca10 O65 2.399194 1_555
Ca10 O40 2.441256 1_555
Ca10 O71 2.441484 1_555
Ca10 O53 2.450440 1_555
Ca10 O70 2.470005 1_565
Ca11 O74 2.349469 1_555
Ca11 O64 2.399194 1_555
Ca11 O41 2.441256 1_555
Ca11 O70 2.441484 1_555
Ca11 O52 2.450440 1_555
Ca11 O71 2.470005 1_545
Ca12 O58 2.418809 1_555
Ca12 O47 2.425834 1_555
Ca12 O41 2.427280 1_555
Ca12 O52 2.428059 1_555
Ca12 O65 2.441539 1_555
Ca12 O40 2.478871 1_555
Ca13 O59 2.418809 1_555
Ca13 O46 2.425834 1_555
Ca13 O40 2.427280 1_555
Ca13 O53 2.428059 1_555
Ca13 O64 2.441539 1_555
Ca13 O41 2.478871 1_555
O0 Si0 1.641111 1_555
O0 Si10 1.647397 1_555
O1 Si1 1.641111 1_555
O1 Si11 1.647397 1_555
O2 Si0 1.613788 1_565
O2 Ti2 1.974338 1_555
O3 Si1 1.613788 1_545
O3 Ti3 1.974338 1_555
O4 Si0 1.634863 1_565
O5 Si1 1.634863 1_545
O6 Si2 1.650559 1_555
O6 Si0 1.656075 1_465
O7 Si3 1.650559 1_555
O7 Si1 1.656075 1_645
O8 Si2 1.610385 1_555
O8 Ti0 1.953423 1_555
O9 Si3 1.610385 1_555
O9 Ti1 1.953423 1_555
O10 Si2 1.632518 1_555
O11 Si3 1.632518 1_555
O12 Si2 1.642964 1_545
O12 Si4 1.644680 1_555
O13 Si3 1.642964 1_565
O13 Si5 1.644680 1_555
O14 Si4 1.621346 1_555
O14 Ti2 1.969307 1_545
O15 Si5 1.621346 1_555
O15 Ti3 1.969307 1_565
O16 Si4 1.638670 1_555
O17 Si5 1.638670 1_555
O18 Si6 1.646904 1_555
O18 Si4 1.652810 1_555
O19 Si7 1.646904 1_555
O19 Si5 1.652810 1_555
O20 Si6 1.613201 1_555
O20 Ti0 1.945479 1_555
O21 Si7 1.613201 1_555
O21 Ti1 1.945479 1_555
O22 Si6 1.632389 1_555
O23 Si7 1.632389 1_555
O24 Si8 1.642422 1_555
O24 Si6 1.644261 1_655
O25 Si9 1.642422 1_555
O25 Si7 1.644261 1_455
O26 Si8 1.618884 1_555
O26 Ti2 1.965433 1_555
O27 Si9 1.618884 1_555
O27 Ti3 1.965433 1_555
O28 Si8 1.637381 1_555
O29 Si9 1.637381 1_555
O30 Si10 1.643866 1_555
O30 Si8 1.646634 1_555
O31 Si11 1.643866 1_555
O31 Si9 1.646634 1_555
O32 Si10 1.617459 1_555
O32 Ti0 1.954771 1_555
O33 Si11 1.617459 1_555
O33 Ti1 1.954771 1_555
O34 Si10 1.635464 1_555
O35 Si11 1.635464 1_555
O36 Si22 1.645877 1_555
O36 Si12 1.653871 1_555
O37 Si23 1.645877 1_555
O37 Si13 1.653871 1_555
O38 Si12 1.619557 1_555
O38 Ti1 1.969739 1_555
O39 Si13 1.619557 1_555
O39 Ti0 1.969739 1_555
O40 Si12 1.639730 1_555
O41 Si13 1.639730 1_555
O42 Si14 1.641591 1_555
O42 Si12 1.645274 1_555
O43 Si15 1.641591 1_555
O43 Si13 1.645274 1_555
O44 Si14 1.611670 1_455
O44 Ti3 1.953290 1_555
O45 Si15 1.611670 1_655
O45 Ti2 1.953290 1_555
O46 Si14 1.634357 1_555
O47 Si15 1.634357 1_555
O48 Si14 1.648454 1_455
O48 Si16 1.655789 1_555
O49 Si15 1.648454 1_655
O49 Si17 1.655789 1_555
O50 Si16 1.614480 1_555
O50 Ti1 1.972079 1_555
O51 Si17 1.614480 1_555
O51 Ti0 1.972079 1_555
O52 Si16 1.634961 1_555
O53 Si17 1.634961 1_555
O54 Si16 1.643499 1_555
O54 Si18 1.645872 1_555
O55 Si17 1.643499 1_555
O55 Si19 1.645872 1_555
O56 Si18 1.619615 1_555
O56 Ti3 1.954333 1_565
O57 Si19 1.619615 1_555
O57 Ti2 1.954333 1_545
O58 Si18 1.635600 1_555
O59 Si19 1.635600 1_555
O60 Si18 1.641752 1_655
O60 Si20 1.647889 1_565
O61 Si19 1.641752 1_455
O61 Si21 1.647889 1_545
O62 Si20 1.618018 1_555
O62 Ti1 1.966223 1_555
O63 Si21 1.618018 1_555
O63 Ti0 1.966223 1_555
O64 Si20 1.637304 1_555
O65 Si21 1.637304 1_555
O66 Si22 1.642522 1_545
O66 Si20 1.643499 1_555
O67 Si23 1.642522 1_565
O67 Si21 1.643499 1_555
O68 Si22 1.614986 1_545
O68 Ti3 1.945345 1_555
O69 Si23 1.614986 1_565
O69 Ti2 1.945345 1_555
O70 Si22 1.633025 1_545
O71 Si23 1.633025 1_565
