# generated using pymatgen
data_MgSbF5
_symmetry_space_group_name_H-M   'P 1'
_cell_length_a   5.68057877
_cell_length_b   5.68057877
_cell_length_c   8.27647814
_cell_angle_alpha   68.08889839
_cell_angle_beta   68.08889839
_cell_angle_gamma   71.40015359
_symmetry_Int_Tables_number   1
_chemical_formula_structural   MgSbF5
_chemical_formula_sum   'Mg2 Sb2 F10'
_cell_volume   224.81662652
_cell_formula_units_Z   2
loop_
 _symmetry_equiv_pos_site_id
 _symmetry_equiv_pos_as_xyz
  1  'x, y, z'
loop_
 _atom_site_type_symbol
 _atom_site_label
 _atom_site_symmetry_multiplicity
 _atom_site_fract_x
 _atom_site_fract_y
 _atom_site_fract_z
 _atom_site_occupancy
  Mg  Mg0  1  0.51231100  0.48768900  0.75000000  1
  Mg  Mg1  1  0.48768900  0.51231100  0.25000000  1
  Sb  Sb0  1  0.00000000  0.00000000  0.00000000  1
  Sb  Sb1  1  0.00000000  0.00000000  0.50000000  1
  F  F0  1  0.16403200  0.83596800  0.25000000  1
  F  F1  1  0.83596800  0.16403200  0.75000000  1
  F  F2  1  0.23590700  0.28743000  0.36218500  1
  F  F3  1  0.71257000  0.76409300  0.13781500  1
  F  F4  1  0.70062400  0.32670100  0.06746000  1
  F  F5  1  0.67329900  0.29937600  0.43254000  1
  F  F6  1  0.29937600  0.67329900  0.93254000  1
  F  F7  1  0.32670100  0.70062400  0.56746000  1
  F  F8  1  0.28743000  0.23590700  0.86218500  1
  F  F9  1  0.76409300  0.71257000  0.63781500  1
loop_
_geom_bond_atom_site_label_1
_geom_bond_atom_site_label_2
_geom_bond_distance
_geom_bond_site_symmetry_2
F0 Mg1 2.145754 1_555
F0 Sb0 2.337494 1_565
F0 Sb1 2.337494 1_565
F1 Mg0 2.145754 1_555
F1 Sb1 2.337494 1_655
F1 Sb0 2.337494 1_656
F2 Mg1 1.956738 1_555
F2 Sb1 2.151238 1_555
F3 Mg1 1.956738 1_555
F3 Sb0 2.151238 1_665
F4 Mg1 1.966903 1_555
F4 Sb0 2.167812 1_655
F5 Mg1 1.966903 1_555
F5 Sb1 2.167812 1_655
F6 Mg0 1.966903 1_555
F6 Sb0 2.167812 1_566
F7 Mg0 1.966903 1_555
F7 Sb1 2.167812 1_565
F8 Mg0 1.956738 1_555
F8 Sb0 2.151238 1_556
F9 Mg0 1.956738 1_555
F9 Sb1 2.151238 1_665
