# generated using pymatgen
data_Dy2Al5Fe12
_symmetry_space_group_name_H-M   'P 1'
_cell_length_a   8.59319100
_cell_length_b   8.59319100
_cell_length_c   8.37436500
_cell_angle_alpha   90.00000000
_cell_angle_beta   90.00000000
_cell_angle_gamma   120.00000774
_symmetry_Int_Tables_number   1
_chemical_formula_structural   Dy2Al5Fe12
_chemical_formula_sum   'Dy4 Al10 Fe24'
_cell_volume   535.53938318
_cell_formula_units_Z   2
loop_
 _symmetry_equiv_pos_site_id
 _symmetry_equiv_pos_as_xyz
  1  'x, y, z'
loop_
 _atom_site_type_symbol
 _atom_site_label
 _atom_site_symmetry_multiplicity
 _atom_site_fract_x
 _atom_site_fract_y
 _atom_site_fract_z
 _atom_site_occupancy
  Dy  Dy0  1  0.00000000  0.00000000  0.25000000  1
  Dy  Dy1  1  0.00000000  0.00000000  0.75000000  1
  Dy  Dy2  1  0.33333300  0.66666700  0.75000000  1
  Dy  Dy3  1  0.66666700  0.33333300  0.25000000  1
  Al  Al0  1  0.33333300  0.66666700  0.39682300  1
  Al  Al1  1  0.66666700  0.33333300  0.60317700  1
  Al  Al2  1  0.66666700  0.33333300  0.89682300  1
  Al  Al3  1  0.33333300  0.66666700  0.10317700  1
  Al  Al4  1  0.50000000  0.50000000  0.50000000  1
  Al  Al5  1  0.50000000  0.00000000  0.50000000  1
  Al  Al6  1  0.00000000  0.50000000  0.50000000  1
  Al  Al7  1  0.50000000  0.50000000  0.00000000  1
  Al  Al8  1  0.50000000  0.00000000  0.00000000  1
  Al  Al9  1  0.00000000  0.50000000  0.00000000  1
  Fe  Fe0  1  0.32339500  0.34737700  0.25000000  1
  Fe  Fe1  1  0.65262300  0.97601800  0.25000000  1
  Fe  Fe2  1  0.02398200  0.67660500  0.25000000  1
  Fe  Fe3  1  0.65262300  0.67660500  0.25000000  1
  Fe  Fe4  1  0.02398200  0.34737700  0.25000000  1
  Fe  Fe5  1  0.32339500  0.97601800  0.25000000  1
  Fe  Fe6  1  0.67660500  0.65262300  0.75000000  1
  Fe  Fe7  1  0.34737700  0.02398200  0.75000000  1
  Fe  Fe8  1  0.97601800  0.32339500  0.75000000  1
  Fe  Fe9  1  0.34737700  0.32339500  0.75000000  1
  Fe  Fe10  1  0.97601800  0.65262300  0.75000000  1
  Fe  Fe11  1  0.67660500  0.02398200  0.75000000  1
  Fe  Fe12  1  0.16435900  0.83564100  0.51271200  1
  Fe  Fe13  1  0.16435900  0.32871900  0.51271200  1
  Fe  Fe14  1  0.67128100  0.83564100  0.51271200  1
  Fe  Fe15  1  0.83564100  0.16435900  0.48728800  1
  Fe  Fe16  1  0.83564100  0.67128100  0.48728800  1
  Fe  Fe17  1  0.32871900  0.16435900  0.48728800  1
  Fe  Fe18  1  0.83564100  0.16435900  0.01271200  1
  Fe  Fe19  1  0.83564100  0.67128100  0.01271200  1
  Fe  Fe20  1  0.32871900  0.16435900  0.01271200  1
  Fe  Fe21  1  0.16435900  0.83564100  0.98728800  1
  Fe  Fe22  1  0.16435900  0.32871900  0.98728800  1
  Fe  Fe23  1  0.67128100  0.83564100  0.98728800  1
loop_
_geom_bond_atom_site_label_1
_geom_bond_atom_site_label_2
_geom_bond_distance
_geom_bond_site_symmetry_2
Dy0 Fe3 2.887556 1_445
Dy0 Fe0 2.887556 1_555
Dy0 Fe1 2.887557 1_445
Dy0 Fe4 2.887557 1_555
Dy0 Fe2 2.887557 1_545
Dy0 Fe5 2.887557 1_545
Dy0 Fe18 3.151676 1_455
Dy0 Fe15 3.151676 1_455
Dy0 Fe19 3.151682 1_445
Dy0 Fe20 3.151682 1_555
Dy0 Fe16 3.151682 1_445
Dy0 Fe17 3.151682 1_555
Dy0 Fe12 3.290069 1_545
Dy0 Fe21 3.290069 1_544
Dy0 Fe13 3.290075 1_555
Dy0 Fe14 3.290075 1_445
Dy0 Fe22 3.290075 1_554
Dy0 Fe23 3.290075 1_444
Dy1 Fe9 2.887556 1_555
Dy1 Fe6 2.887556 1_445
Dy1 Fe10 2.887557 1_445
Dy1 Fe7 2.887557 1_555
Dy1 Fe11 2.887557 1_455
Dy1 Fe8 2.887557 1_455
Dy1 Fe21 3.151676 1_545
Dy1 Fe12 3.151676 1_545
Dy1 Fe22 3.151682 1_555
Dy1 Fe23 3.151682 1_445
Dy1 Fe14 3.151682 1_445
Dy1 Fe13 3.151682 1_555
Dy1 Fe18 3.290069 1_456
Dy1 Fe15 3.290069 1_455
Dy1 Fe17 3.290075 1_555
Dy1 Fe16 3.290075 1_445
Dy1 Fe20 3.290075 1_556
Dy1 Fe19 3.290075 1_446
Dy2 Fe7 3.011949 1_565
Dy2 Fe10 3.011949 1_455
Dy2 Fe11 3.011952 1_565
Dy2 Fe8 3.011952 1_455
Dy2 Fe6 3.011957 1_555
Dy2 Fe9 3.011957 1_555
Dy2 Fe22 3.205284 1_555
Dy2 Fe23 3.205284 1_555
Dy2 Fe13 3.205284 1_555
Dy2 Fe14 3.205284 1_555
Dy2 Fe21 3.205284 1_555
Dy2 Fe12 3.205284 1_555
Dy3 Fe4 3.011949 1_655
Dy3 Fe1 3.011949 1_545
Dy3 Fe2 3.011952 1_655
Dy3 Fe5 3.011952 1_545
Dy3 Fe0 3.011957 1_555
Dy3 Fe3 3.011957 1_555
Dy3 Fe16 3.205284 1_555
Dy3 Fe19 3.205284 1_555
Dy3 Fe20 3.205284 1_555
Dy3 Fe17 3.205284 1_555
Dy3 Fe18 3.205284 1_555
Dy3 Fe15 3.205284 1_555
Al0 Al3 2.459099 1_555
Al0 Al5 2.626810 1_565
Al0 Al6 2.626810 1_555
Al0 Al4 2.626818 1_555
Al0 Fe14 2.695737 1_555
Al0 Fe13 2.695737 1_555
Al0 Fe12 2.695738 1_555
Al0 Dy2 2.957633 1_555
Al0 Fe5 2.968624 1_555
Al0 Fe2 2.968624 1_555
Al0 Fe1 2.968627 1_555
Al0 Fe4 2.968627 1_555
Al0 Fe3 2.968631 1_555
Al0 Fe0 2.968631 1_555
Al1 Al2 2.459099 1_555
Al1 Al6 2.626810 1_655
Al1 Al5 2.626810 1_555
Al1 Al4 2.626818 1_555
Al1 Fe17 2.695737 1_555
Al1 Fe16 2.695737 1_555
Al1 Fe15 2.695738 1_555
Al1 Dy3 2.957633 1_555
Al1 Fe8 2.968624 1_555
Al1 Fe11 2.968624 1_555
Al1 Fe10 2.968627 1_555
Al1 Fe7 2.968627 1_555
Al1 Fe9 2.968631 1_555
Al1 Fe6 2.968631 1_555
Al2 Al9 2.626810 1_656
Al2 Al8 2.626810 1_556
Al2 Al7 2.626818 1_556
Al2 Fe20 2.695737 1_556
Al2 Fe19 2.695737 1_556
Al2 Fe18 2.695738 1_556
Al2 Dy3 2.957633 1_556
Al2 Fe8 2.968624 1_555
Al2 Fe11 2.968624 1_555
Al2 Fe10 2.968627 1_555
Al2 Fe7 2.968627 1_555
Al2 Fe6 2.968631 1_555
Al2 Fe9 2.968631 1_555
Al3 Al8 2.626810 1_565
Al3 Al9 2.626810 1_555
Al3 Al7 2.626818 1_555
Al3 Fe22 2.695737 1_554
Al3 Fe23 2.695737 1_554
Al3 Fe21 2.695738 1_554
Al3 Dy2 2.957633 1_554
Al3 Fe5 2.968624 1_555
Al3 Fe2 2.968624 1_555
Al3 Fe1 2.968627 1_555
Al3 Fe4 2.968627 1_555
Al3 Fe3 2.968631 1_555
Al3 Fe0 2.968631 1_555
Al4 Fe13 2.500258 1_555
Al4 Fe17 2.500258 1_555
Al4 Fe14 2.500258 1_555
Al4 Fe16 2.500258 1_555
Al4 Fe9 2.532974 1_555
Al4 Fe6 2.532974 1_555
Al4 Fe3 2.532974 1_555
Al4 Fe0 2.532974 1_555
Al4 Dy3 3.246033 1_555
Al4 Dy2 3.246033 1_555
Al5 Fe17 2.500251 1_555
Al5 Fe14 2.500251 1_545
Al5 Fe12 2.500258 1_545
Al5 Fe15 2.500258 1_555
Al5 Fe5 2.532974 1_545
Al5 Fe11 2.532974 1_555
Al5 Fe7 2.532974 1_555
Al5 Fe1 2.532974 1_545
Al5 Dy2 3.246027 1_545
Al5 Dy3 3.246027 1_555
Al6 Fe13 2.500251 1_555
Al6 Fe16 2.500251 1_455
Al6 Fe15 2.500258 1_455
Al6 Fe12 2.500258 1_555
Al6 Fe8 2.532974 1_455
Al6 Fe2 2.532974 1_555
Al6 Fe4 2.532974 1_555
Al6 Fe10 2.532974 1_455
Al6 Dy2 3.246027 1_555
Al6 Dy3 3.246027 1_455
Al7 Fe20 2.500258 1_555
Al7 Fe19 2.500258 1_555
Al7 Fe23 2.500258 1_554
Al7 Fe22 2.500258 1_554
Al7 Fe9 2.532974 1_554
Al7 Fe6 2.532974 1_554
Al7 Fe3 2.532974 1_555
Al7 Fe0 2.532974 1_555
Al7 Dy3 3.246033 1_555
Al7 Dy2 3.246033 1_554
Al8 Fe20 2.500251 1_555
Al8 Fe23 2.500251 1_544
Al8 Fe18 2.500258 1_555
Al8 Fe21 2.500258 1_544
Al8 Fe5 2.532974 1_545
Al8 Fe11 2.532974 1_554
Al8 Fe7 2.532974 1_554
Al8 Fe1 2.532974 1_545
Al8 Dy2 3.246027 1_544
Al8 Dy3 3.246027 1_555
Al9 Fe22 2.500251 1_554
Al9 Fe19 2.500251 1_455
Al9 Fe18 2.500258 1_455
Al9 Fe21 2.500258 1_554
Al9 Fe8 2.532974 1_454
Al9 Fe2 2.532974 1_555
Al9 Fe4 2.532974 1_555
Al9 Fe10 2.532974 1_454
Al9 Dy2 3.246027 1_554
Al9 Dy3 3.246027 1_455
Fe0 Fe17 2.548758 1_555
Fe0 Fe20 2.548758 1_555
Fe0 Fe13 2.552345 1_555
Fe0 Fe22 2.552345 1_554
Fe0 Fe4 2.572913 1_555
Fe0 Fe3 2.829119 1_555
Fe0 Fe5 3.191159 1_545
Fe1 Fe15 2.548755 1_565
Fe1 Fe18 2.548755 1_565
Fe1 Fe14 2.552341 1_555
Fe1 Fe23 2.552341 1_554
Fe1 Fe3 2.572913 1_555
Fe1 Fe5 2.829119 1_555
Fe1 Fe4 3.191158 1_665
Fe2 Fe21 2.552343 1_554
Fe2 Fe5 2.572913 1_555
Fe2 Fe4 2.829119 1_555
Fe2 Fe3 3.191159 1_455
Fe6 Fe9 2.829119 1_555
Fe7 Fe9 2.572913 1_555
Fe8 Fe9 3.191159 1_655
Fe10 Fe21 2.548755 1_655
Fe10 Fe12 2.548755 1_655
Fe10 Fe16 2.552341 1_555
Fe10 Fe19 2.552341 1_556
Fe10 Fe6 2.572913 1_555
Fe10 Fe8 2.829119 1_555
Fe10 Fe7 3.191158 1_665
Fe11 Fe23 2.548753 1_545
Fe11 Fe14 2.548753 1_545
Fe11 Fe15 2.552343 1_555
Fe11 Fe18 2.552343 1_556
Fe11 Fe8 2.572913 1_555
Fe11 Fe7 2.829119 1_555
Fe11 Fe6 3.191159 1_545
Fe12 Fe17 2.455541 1_565
Fe12 Fe16 2.455541 1_455
Fe12 Fe7 2.548755 1_565
Fe12 Fe5 2.552343 1_555
Fe12 Fe2 2.552343 1_555
Fe13 Fe15 2.455541 1_455
Fe13 Fe17 2.455556 1_555
Fe13 Fe8 2.548753 1_455
Fe13 Fe9 2.548758 1_555
Fe13 Fe4 2.552341 1_555
Fe14 Fe15 2.455541 1_565
Fe14 Fe16 2.455556 1_555
Fe14 Fe6 2.548758 1_555
Fe14 Fe3 2.552345 1_555
Fe15 Fe4 2.548755 1_655
Fe15 Fe8 2.552343 1_555
Fe16 Fe2 2.548753 1_655
Fe16 Fe3 2.548758 1_555
Fe16 Fe6 2.552345 1_555
Fe17 Fe5 2.548753 1_545
Fe17 Fe7 2.552341 1_555
Fe17 Fe9 2.552345 1_555
Fe18 Fe22 2.455541 1_654
Fe18 Fe23 2.455541 1_544
Fe18 Fe4 2.548755 1_655
Fe18 Fe8 2.552343 1_554
Fe19 Fe21 2.455541 1_654
Fe19 Fe23 2.455556 1_554
Fe19 Fe2 2.548753 1_655
Fe19 Fe3 2.548758 1_555
Fe19 Fe6 2.552345 1_554
Fe20 Fe21 2.455541 1_544
Fe20 Fe22 2.455556 1_554
Fe20 Fe5 2.548753 1_545
Fe20 Fe7 2.552341 1_554
Fe20 Fe9 2.552345 1_554
Fe21 Fe7 2.548755 1_565
Fe21 Fe5 2.552343 1_556
Fe22 Fe8 2.548753 1_455
Fe22 Fe9 2.548758 1_555
Fe22 Fe4 2.552341 1_556
Fe23 Fe6 2.548758 1_555
Fe23 Fe3 2.552345 1_556
