# generated using pymatgen
data_PmN
_symmetry_space_group_name_H-M   'P 1'
_cell_length_a   3.60491634
_cell_length_b   3.60491634
_cell_length_c   3.60491634
_cell_angle_alpha   60.00000000
_cell_angle_beta   60.00000000
_cell_angle_gamma   60.00000000
_symmetry_Int_Tables_number   1
_chemical_formula_structural   PmN
_chemical_formula_sum   'Pm1 N1'
_cell_volume   33.12612022
_cell_formula_units_Z   1
loop_
 _symmetry_equiv_pos_site_id
 _symmetry_equiv_pos_as_xyz
  1  'x, y, z'
loop_
 _atom_site_type_symbol
 _atom_site_label
 _atom_site_symmetry_multiplicity
 _atom_site_fract_x
 _atom_site_fract_y
 _atom_site_fract_z
 _atom_site_occupancy
  Pm  Pm0  1  0.00000000  -0.00000000  0.00000000  1
  N  N0  1  0.50000000  0.50000000  0.50000000  1
loop_
_geom_bond_atom_site_label_1
_geom_bond_atom_site_label_2
_geom_bond_distance
_geom_bond_site_symmetry_2
N0 Pm0 2.549061 1_656
N0 Pm0 2.549061 1_665
N0 Pm0 2.549061 1_565
N0 Pm0 2.549061 1_655
N0 Pm0 2.549061 1_566
N0 Pm0 2.549061 1_556
