# generated using pymatgen
data_MgTi2O4
_symmetry_space_group_name_H-M   'P 1'
_cell_length_a   6.11674491
_cell_length_b   6.11674491
_cell_length_c   20.01517986
_cell_angle_alpha   80.00902656
_cell_angle_beta   80.00902656
_cell_angle_gamma   57.92629140
_symmetry_Int_Tables_number   1
_chemical_formula_structural   MgTi2O4
_chemical_formula_sum   'Mg8 Ti16 O32'
_cell_volume   621.95709389
_cell_formula_units_Z   8
loop_
 _symmetry_equiv_pos_site_id
 _symmetry_equiv_pos_as_xyz
  1  'x, y, z'
loop_
 _atom_site_type_symbol
 _atom_site_label
 _atom_site_symmetry_multiplicity
 _atom_site_fract_x
 _atom_site_fract_y
 _atom_site_fract_z
 _atom_site_occupancy
  Mg  Mg0  1  0.66093100  0.66093100  0.03058800  1
  Mg  Mg1  1  0.11790900  0.11790900  0.12320300  1
  Mg  Mg2  1  0.90675400  0.90675400  0.27970300  1
  Mg  Mg3  1  0.37805500  0.37805500  0.37391100  1
  Mg  Mg4  1  0.62440300  0.62440300  0.62509600  1
  Mg  Mg5  1  0.50197900  0.50197900  0.49843900  1
  Mg  Mg6  1  0.86665800  0.86665800  0.87488000  1
  Mg  Mg7  1  0.74486700  0.74486700  0.75284900  1
  Ti  Ti0  1  0.61875200  0.13175600  0.12712000  1
  Ti  Ti1  1  0.25421600  0.25421600  0.24751300  1
  Ti  Ti2  1  0.13175600  0.61875200  0.12712000  1
  Ti  Ti3  1  0.15480400  0.15480400  0.53394500  1
  Ti  Ti4  1  0.90186100  0.36147100  0.37041500  1
  Ti  Ti5  1  0.59860700  0.59860700  0.22096900  1
  Ti  Ti6  1  0.40622200  0.40622200  0.78426200  1
  Ti  Ti7  1  0.36147100  0.90186100  0.37041500  1
  Ti  Ti8  1  0.11785400  0.63188700  0.62498300  1
  Ti  Ti9  1  0.84474400  0.84474400  0.46432300  1
  Ti  Ti10  1  0.63188700  0.11785400  0.62498300  1
  Ti  Ti11  1  0.89143600  0.34881300  0.88024400  1
  Ti  Ti12  1  0.34881300  0.89143600  0.88024400  1
  Ti  Ti13  1  0.09549700  0.09549700  0.71708500  1
  Ti  Ti14  1  0.00561400  0.00561400  0.99685000  1
  Ti  Ti15  1  0.35029200  0.35029200  0.97252100  1
  O  O0  1  0.28675600  0.81133100  0.06311300  1
  O  O1  1  0.93392900  0.93392900  0.18033000  1
  O  O2  1  0.81133100  0.28675600  0.06311300  1
  O  O3  1  0.82550400  0.82550400  0.06472900  1
  O  O4  1  0.44540200  0.44540200  0.18896400  1
  O  O5  1  0.53920500  0.07030200  0.31419400  1
  O  O6  1  0.43159100  0.95037100  0.18541700  1
  O  O7  1  0.18763800  0.18763800  0.43611000  1
  O  O8  1  0.07030200  0.53920500  0.31419400  1
  O  O9  1  0.30746300  0.30746300  0.06864900  1
  O  O10  1  0.06816000  0.06816000  0.31044800  1
  O  O11  1  0.95037100  0.43159100  0.18541700  1
  O  O12  1  0.79583100  0.31551100  0.56511900  1
  O  O13  1  0.68535000  0.68535000  0.43513900  1
  O  O14  1  0.68964500  0.20140100  0.43450800  1
  O  O15  1  0.43785700  0.43785700  0.68694100  1
  O  O16  1  0.31551100  0.79583100  0.56511900  1
  O  O17  1  0.56236500  0.56236500  0.31746600  1
  O  O18  1  0.31600200  0.31600200  0.56342500  1
  O  O19  1  0.20140100  0.68964500  0.43450800  1
  O  O20  1  0.93540100  0.93540100  0.68736800  1
  O  O21  1  0.05228300  0.55922600  0.81410500  1
  O  O22  1  0.93548500  0.45327900  0.68497800  1
  O  O23  1  0.68237000  0.68237000  0.92905800  1
  O  O24  1  0.55922600  0.05228300  0.81410500  1
  O  O25  1  0.81226800  0.81226800  0.56189800  1
  O  O26  1  0.56198900  0.56198900  0.81560500  1
  O  O27  1  0.45327900  0.93548500  0.68497800  1
  O  O28  1  0.19628500  0.19628500  0.94241400  1
  O  O29  1  0.17557100  0.69963900  0.93602600  1
  O  O30  1  0.05915300  0.05915300  0.81487400  1
  O  O31  1  0.69963900  0.17557100  0.93602600  1
loop_
_geom_bond_atom_site_label_1
_geom_bond_atom_site_label_2
_geom_bond_distance
_geom_bond_site_symmetry_2
Mg0 O2 1.990755 1_555
Mg0 O0 1.990755 1_555
Mg0 O23 1.999330 1_554
Mg0 O3 2.011768 1_555
Mg1 O1 2.071776 1_445
Mg1 O2 2.079540 1_455
Mg1 O0 2.079540 1_545
Mg1 O9 2.104770 1_555
Mg1 O11 2.140153 1_455
Mg1 O6 2.140153 1_545
Mg2 O10 1.945483 1_665
Mg2 O1 1.952220 1_555
Mg2 O8 1.960690 1_655
Mg2 O5 1.960690 1_565
Mg3 O17 2.069838 1_555
Mg3 O8 2.084496 1_555
Mg3 O5 2.084496 1_555
Mg3 O14 2.105071 1_555
Mg3 O19 2.105071 1_555
Mg3 O7 2.167375 1_555
Mg4 O12 2.087259 1_555
Mg4 O16 2.087259 1_555
Mg4 O22 2.096097 1_555
Mg4 O27 2.096097 1_555
Mg4 O15 2.130449 1_555
Mg4 O25 2.152822 1_555
Mg5 O19 2.097762 1_555
Mg5 O14 2.097762 1_555
Mg5 O12 2.107072 1_555
Mg5 O16 2.107072 1_555
Mg5 O13 2.114526 1_555
Mg5 O18 2.151158 1_555
Mg6 O23 2.053883 1_555
Mg6 O24 2.086144 1_565
Mg6 O21 2.086144 1_655
Mg6 O31 2.104837 1_565
Mg6 O29 2.104837 1_655
Mg6 O30 2.169377 1_665
Mg7 O24 2.092294 1_565
Mg7 O21 2.092294 1_655
Mg7 O26 2.105746 1_555
Mg7 O22 2.113893 1_555
Mg7 O27 2.113893 1_555
Mg7 O20 2.194708 1_555
O0 Ti2 2.041740 1_555
O0 Ti14 2.050033 1_564
O1 Ti0 2.025555 1_565
O1 Ti2 2.025555 1_655
O2 Ti0 2.041740 1_555
O2 Ti14 2.050033 1_654
O3 Ti0 2.101344 1_565
O3 Ti2 2.101344 1_655
O3 Ti14 2.126858 1_664
O4 Ti5 1.875091 1_555
O4 Ti0 2.131970 1_555
O4 Ti2 2.131970 1_555
O4 Ti1 2.147044 1_555
O5 Ti7 1.967863 1_545
O5 Ti1 2.071036 1_555
O6 Ti5 1.888423 1_555
O6 Ti0 2.083092 1_565
O6 Ti1 2.090008 1_565
O7 Ti3 1.919655 1_555
O7 Ti4 2.062429 1_455
O7 Ti7 2.062429 1_545
O8 Ti4 1.967863 1_455
O8 Ti1 2.071036 1_555
O9 Ti15 1.887381 1_554
O9 Ti0 2.076935 1_555
O9 Ti2 2.076935 1_555
O10 Ti7 2.019784 1_545
O10 Ti4 2.019784 1_455
O10 Ti1 2.134884 1_555
O11 Ti5 1.888423 1_555
O11 Ti2 2.083092 1_655
O11 Ti1 2.090008 1_655
O12 Ti3 1.903171 1_655
O12 Ti10 2.066644 1_555
O13 Ti9 1.909735 1_555
O13 Ti4 2.205825 1_555
O13 Ti7 2.205825 1_555
O14 Ti9 1.887359 1_545
O14 Ti4 2.150685 1_555
O15 Ti6 1.909812 1_555
O15 Ti10 2.154566 1_555
O15 Ti8 2.154566 1_555
O16 Ti3 1.903171 1_565
O16 Ti8 2.066644 1_555
O17 Ti5 1.893059 1_555
O17 Ti4 2.132409 1_555
O17 Ti7 2.132409 1_555
O18 Ti3 1.931017 1_555
O18 Ti10 2.131008 1_555
O18 Ti8 2.131008 1_555
O19 Ti9 1.887359 1_455
O19 Ti7 2.150685 1_555
O20 Ti13 1.922069 1_665
O20 Ti10 2.090861 1_565
O20 Ti8 2.090861 1_655
O21 Ti6 1.874339 1_555
O21 Ti11 2.162999 1_455
O22 Ti13 1.901510 1_655
O22 Ti8 2.062553 1_655
O23 Ti12 2.059096 1_555
O23 Ti11 2.059096 1_555
O24 Ti6 1.874339 1_555
O24 Ti12 2.162999 1_545
O25 Ti9 1.914611 1_555
O25 Ti8 2.109696 1_655
O25 Ti10 2.109696 1_565
O26 Ti6 1.894218 1_555
O26 Ti11 2.227905 1_555
O26 Ti12 2.227905 1_555
O27 Ti13 1.901510 1_565
O27 Ti10 2.062553 1_565
O28 Ti15 1.863951 1_555
O28 Ti12 2.109636 1_545
O28 Ti11 2.109636 1_455
O28 Ti14 2.114307 1_555
O29 Ti15 1.883042 1_555
O29 Ti12 2.049649 1_555
O29 Ti14 2.085835 1_565
O30 Ti13 1.918399 1_555
O30 Ti12 2.076484 1_545
O30 Ti11 2.076484 1_455
O31 Ti15 1.883042 1_555
O31 Ti11 2.049649 1_555
O31 Ti14 2.085835 1_655
