# generated using pymatgen
data_Li2TiVO4
_symmetry_space_group_name_H-M   'P 1'
_cell_length_a   5.94885167
_cell_length_b   5.98959835
_cell_length_c   10.40435412
_cell_angle_alpha   72.90545077
_cell_angle_beta   73.38166109
_cell_angle_gamma   60.22124490
_symmetry_Int_Tables_number   1
_chemical_formula_structural   Li2TiVO4
_chemical_formula_sum   'Li8 Ti4 V4 O16'
_cell_volume   303.13976931
_cell_formula_units_Z   4
loop_
 _symmetry_equiv_pos_site_id
 _symmetry_equiv_pos_as_xyz
  1  'x, y, z'
loop_
 _atom_site_type_symbol
 _atom_site_label
 _atom_site_symmetry_multiplicity
 _atom_site_fract_x
 _atom_site_fract_y
 _atom_site_fract_z
 _atom_site_occupancy
  Li  Li0  1  0.25044000  0.75048300  0.24868000  1
  Li  Li1  1  0.75017900  0.24951800  0.75010500  1
  Li  Li2  1  0.50004600  0.49972200  0.00021200  1
  Li  Li3  1  0.99894800  0.00145000  0.50061400  1
  Li  Li4  1  0.75033200  0.25216200  0.24885300  1
  Li  Li5  1  0.24939400  0.74752500  0.75073900  1
  Li  Li6  1  0.24865000  0.25218300  0.24886500  1
  Li  Li7  1  0.75235000  0.74750300  0.75073900  1
  Ti  Ti0  1  0.50309200  0.99404200  0.00204800  1
  Ti  Ti1  1  0.99683000  0.50711100  0.49710300  1
  Ti  Ti2  1  0.00081300  0.99405700  0.00203700  1
  Ti  Ti3  1  0.49893600  0.50707900  0.49709600  1
  V  V0  1  0.25253300  0.24585100  0.74907800  1
  V  V1  1  0.49818100  0.00183500  0.50180300  1
  V  V2  1  0.74656500  0.75310600  0.25378900  1
  V  V3  1  0.00334300  0.49619200  0.99714200  1
  O  O0  1  0.37886200  0.85650200  0.38445100  1
  O  O1  1  0.89575900  0.34726700  0.87624500  1
  O  O2  1  0.88020900  0.85651800  0.38445300  1
  O  O3  1  0.38071900  0.34726200  0.87624800  1
  O  O4  1  0.62159600  0.64733200  0.11761500  1
  O  O5  1  0.12049800  0.15081600  0.62209600  1
  O  O6  1  0.11347700  0.64732800  0.11761000  1
  O  O7  1  0.60658000  0.15081700  0.62210700  1
  O  O8  1  0.13487600  0.11416500  0.11610000  1
  O  O9  1  0.63391600  0.61662000  0.61556000  1
  O  O10  1  0.86643100  0.38233300  0.38478000  1
  O  O11  1  0.36660500  0.88460100  0.88217400  1
  O  O12  1  0.63279100  0.11863600  0.11580500  1
  O  O13  1  0.13514200  0.61118900  0.61851800  1
  O  O14  1  0.36508700  0.38631700  0.38348000  1
  O  O15  1  0.86682100  0.88247700  0.88385300  1
loop_
_geom_bond_atom_site_label_1
_geom_bond_atom_site_label_2
_geom_bond_distance
_geom_bond_site_symmetry_2
Li0 O8 2.099722 1_565
Li0 O14 2.112068 1_555
Li0 O4 2.129416 1_555
Li0 O6 2.129837 1_555
Li0 O2 2.146645 1_455
Li0 O0 2.146826 1_555
Li1 O3 2.102261 1_555
Li1 O1 2.102547 1_555
Li1 O5 2.113629 1_655
Li1 O7 2.113754 1_555
Li1 O15 2.118853 1_545
Li1 O9 2.122807 1_555
Li2 O12 2.102141 1_555
Li2 O11 2.127951 1_554
Li2 O6 2.137902 1_555
Li2 O4 2.138159 1_555
Li2 O1 2.204413 1_554
Li2 O3 2.204828 1_554
Li3 O10 2.102157 1_555
Li3 O2 2.104128 1_545
Li3 O0 2.104228 1_645
Li3 O13 2.150986 1_645
Li3 O7 2.179309 1_555
Li3 O5 2.179655 1_655
Li4 O12 2.191980 1_555
Li4 O8 2.193113 1_655
Li4 O10 2.196988 1_555
Li4 O14 2.203679 1_555
Li4 O4 2.225038 1_555
Li4 O2 2.245528 1_545
Li5 O13 2.183529 1_555
Li5 O15 2.186096 1_455
Li5 O11 2.191903 1_555
Li5 O9 2.202711 1_555
Li5 O3 2.223908 1_555
Li5 O5 2.249619 1_565
Li6 O12 2.191874 1_555
Li6 O8 2.193495 1_555
Li6 O10 2.196745 1_455
Li6 O14 2.203653 1_555
Li6 O6 2.225003 1_555
Li6 O0 2.245623 1_545
Li7 O13 2.183187 1_655
Li7 O15 2.186314 1_555
Li7 O11 2.191732 1_555
Li7 O9 2.202874 1_555
Li7 O1 2.223779 1_555
Li7 O7 2.249676 1_565
O0 Ti3 1.953433 1_555
O0 V2 2.113021 1_555
O0 V1 2.118173 1_565
O1 Ti2 2.026313 1_646
O1 V0 2.051778 1_655
O1 V3 2.115330 1_655
O2 Ti1 1.953387 1_555
O2 V2 2.113361 1_555
O2 V1 2.118002 1_565
O3 Ti0 2.026393 1_546
O3 V0 2.052018 1_555
O3 V3 2.114940 1_555
O4 Ti0 1.953957 1_555
O4 V3 2.131836 1_654
O4 V2 2.135273 1_555
O5 Ti1 2.035401 1_455
O5 V0 2.041133 1_555
O5 V1 2.113621 1_555
O6 Ti2 1.954061 1_555
O6 V3 2.132036 1_554
O6 V2 2.135011 1_455
O7 Ti3 2.035337 1_555
O7 V0 2.040809 1_555
O7 V1 2.113935 1_555
O8 Ti0 2.042940 1_545
O8 Ti2 2.043314 1_545
O8 V3 2.119069 1_554
O9 Ti1 2.038838 1_555
O9 Ti3 2.039420 1_555
O9 V1 2.113530 1_565
O10 Ti3 2.032909 1_555
O10 Ti1 2.033208 1_555
O10 V2 2.121630 1_555
O11 Ti2 2.057084 1_556
O11 Ti0 2.057430 1_556
O11 V0 2.092221 1_565
O12 Ti2 2.040895 1_645
O12 Ti0 2.041224 1_545
O12 V2 2.132732 1_545
O13 Ti3 2.056019 1_555
O13 Ti1 2.056299 1_455
O13 V0 2.097247 1_555
O14 Ti1 2.041399 1_455
O14 Ti3 2.041494 1_555
O14 V1 2.127306 1_555
O15 Ti0 2.040978 1_556
O15 Ti2 2.041300 1_656
O15 V3 2.116572 1_655
