# generated using pymatgen
data_SbNCl8O
_symmetry_space_group_name_H-M   'P 1'
_cell_length_a   11.65332900
_cell_length_b   10.96870400
_cell_length_c   23.02612171
_cell_angle_alpha   76.93046539
_cell_angle_beta   90.00000000
_cell_angle_gamma   90.00000000
_symmetry_Int_Tables_number   1
_chemical_formula_structural   SbNCl8O
_chemical_formula_sum   'Sb8 N8 Cl64 O8'
_cell_volume   2867.00225357
_cell_formula_units_Z   8
loop_
 _symmetry_equiv_pos_site_id
 _symmetry_equiv_pos_as_xyz
  1  'x, y, z'
loop_
 _atom_site_type_symbol
 _atom_site_label
 _atom_site_symmetry_multiplicity
 _atom_site_fract_x
 _atom_site_fract_y
 _atom_site_fract_z
 _atom_site_occupancy
  Sb  Sb0  1  0.12569900  0.07510000  0.62908700  1
  Sb  Sb1  1  0.62569900  0.92490000  0.87091300  1
  Sb  Sb2  1  0.87430100  0.92490000  0.37091300  1
  Sb  Sb3  1  0.37430100  0.07510000  0.12908700  1
  Sb  Sb4  1  0.60904900  0.58738700  0.64183600  1
  Sb  Sb5  1  0.10904900  0.41261300  0.85816400  1
  Sb  Sb6  1  0.39095100  0.41261300  0.35816400  1
  Sb  Sb7  1  0.89095100  0.58738700  0.14183600  1
  N  N0  1  0.59293500  0.08425100  0.62148900  1
  N  N1  1  0.09293500  0.91574900  0.87851100  1
  N  N2  1  0.40706500  0.91574900  0.37851100  1
  N  N3  1  0.90706500  0.08425100  0.12148900  1
  N  N4  1  0.14939900  0.56940400  0.60443200  1
  N  N5  1  0.64939900  0.43059600  0.89556800  1
  N  N6  1  0.85060100  0.43059600  0.39556800  1
  N  N7  1  0.35060100  0.56940400  0.10443200  1
  Cl  Cl0  1  0.00125000  0.13391800  0.69977300  1
  Cl  Cl1  1  0.50125000  0.86608200  0.80022700  1
  Cl  Cl2  1  0.99875000  0.86608200  0.30022700  1
  Cl  Cl3  1  0.49875000  0.13391800  0.19977300  1
  Cl  Cl4  1  0.20148100  0.91419100  0.70749400  1
  Cl  Cl5  1  0.70148100  0.08580900  0.79250600  1
  Cl  Cl6  1  0.79851900  0.08580900  0.29250600  1
  Cl  Cl7  1  0.29851900  0.91419100  0.20749400  1
  Cl  Cl8  1  0.26572800  0.22754200  0.62779600  1
  Cl  Cl9  1  0.76572800  0.77245800  0.87220400  1
  Cl  Cl10  1  0.73427200  0.77245800  0.37220400  1
  Cl  Cl11  1  0.23427200  0.22754200  0.12779600  1
  Cl  Cl12  1  0.21002100  0.96516800  0.56158600  1
  Cl  Cl13  1  0.71002100  0.03483200  0.93841400  1
  Cl  Cl14  1  0.78997900  0.03483200  0.43841400  1
  Cl  Cl15  1  0.28997900  0.96516800  0.06158600  1
  Cl  Cl16  1  0.01280300  0.19001800  0.54977900  1
  Cl  Cl17  1  0.51280300  0.80998200  0.95022100  1
  Cl  Cl18  1  0.98719700  0.80998200  0.45022100  1
  Cl  Cl19  1  0.48719700  0.19001800  0.04977900  1
  Cl  Cl20  1  0.93520700  0.88980900  0.62881200  1
  Cl  Cl21  1  0.43520700  0.11019100  0.87118800  1
  Cl  Cl22  1  0.06479300  0.11019100  0.37118800  1
  Cl  Cl23  1  0.56479300  0.88980900  0.12881200  1
  Cl  Cl24  1  0.54249400  0.42779900  0.72333700  1
  Cl  Cl25  1  0.04249400  0.57220100  0.77666300  1
  Cl  Cl26  1  0.45750600  0.57220100  0.27666300  1
  Cl  Cl27  1  0.95750600  0.42779900  0.22333700  1
  Cl  Cl28  1  0.71568700  0.69884500  0.55927400  1
  Cl  Cl29  1  0.21568700  0.30115500  0.94072600  1
  Cl  Cl30  1  0.28431300  0.30115500  0.44072600  1
  Cl  Cl31  1  0.78431300  0.69884500  0.05927400  1
  Cl  Cl32  1  0.51990800  0.47224200  0.57817000  1
  Cl  Cl33  1  0.01990800  0.52775800  0.92183000  1
  Cl  Cl34  1  0.48009200  0.52775800  0.42183000  1
  Cl  Cl35  1  0.98009200  0.47224200  0.07817000  1
  Cl  Cl36  1  0.74101800  0.64830400  0.70846200  1
  Cl  Cl37  1  0.24101800  0.35169600  0.79153800  1
  Cl  Cl38  1  0.25898200  0.35169600  0.29153800  1
  Cl  Cl39  1  0.75898200  0.64830400  0.20846200  1
  Cl  Cl40  1  0.46916900  0.74012200  0.64071600  1
  Cl  Cl41  1  0.96916900  0.25987800  0.85928400  1
  Cl  Cl42  1  0.53083100  0.25987800  0.35928400  1
  Cl  Cl43  1  0.03083100  0.74012200  0.14071600  1
  Cl  Cl44  1  0.79715700  0.39523600  0.63679300  1
  Cl  Cl45  1  0.29715700  0.60476400  0.86320700  1
  Cl  Cl46  1  0.20284300  0.60476400  0.36320700  1
  Cl  Cl47  1  0.70284300  0.39523600  0.13679300  1
  Cl  Cl48  1  0.78287700  0.98257800  0.62399900  1
  Cl  Cl49  1  0.28287700  0.01742200  0.87600100  1
  Cl  Cl50  1  0.21712300  0.01742200  0.37600100  1
  Cl  Cl51  1  0.71712300  0.98257800  0.12399900  1
  Cl  Cl52  1  0.52774900  0.14435700  0.54369100  1
  Cl  Cl53  1  0.02774900  0.85564300  0.95630900  1
  Cl  Cl54  1  0.47225100  0.85564300  0.45630900  1
  Cl  Cl55  1  0.97225100  0.14435700  0.04369100  1
  Cl  Cl56  1  0.95304300  0.48019500  0.62256800  1
  Cl  Cl57  1  0.45304300  0.51980500  0.87743200  1
  Cl  Cl58  1  0.04695700  0.51980500  0.37743200  1
  Cl  Cl59  1  0.54695700  0.48019500  0.12256800  1
  Cl  Cl60  1  0.20213500  0.57609500  0.52481500  1
  Cl  Cl61  1  0.70213500  0.42390500  0.97518500  1
  Cl  Cl62  1  0.79786500  0.42390500  0.47518500  1
  Cl  Cl63  1  0.29786500  0.57609500  0.02481500  1
  O  O0  1  0.53836400  0.09846500  0.66163000  1
  O  O1  1  0.03836400  0.90153500  0.83837000  1
  O  O2  1  0.46163600  0.90153500  0.33837000  1
  O  O3  1  0.96163600  0.09846500  0.16163000  1
  O  O4  1  0.21441600  0.59985400  0.63647000  1
  O  O5  1  0.71441600  0.40014600  0.86353000  1
  O  O6  1  0.78558400  0.40014600  0.36353000  1
  O  O7  1  0.28558400  0.59985400  0.13647000  1
loop_
_geom_bond_atom_site_label_1
_geom_bond_atom_site_label_2
_geom_bond_distance
_geom_bond_site_symmetry_2
N0 O0 1.161124 1_555
N1 O1 1.161124 1_555
N2 O2 1.161124 1_555
N3 O3 1.161124 1_555
N4 O4 1.158129 1_555
N5 O5 1.158129 1_555
N6 O6 1.158129 1_555
N7 O7 1.158129 1_555
Cl0 Sb0 2.375608 1_555
Cl1 Sb1 2.375608 1_555
Cl2 Sb2 2.375608 1_555
Cl3 Sb3 2.375608 1_555
Cl4 Sb0 2.390261 1_565
Cl5 Sb1 2.390261 1_545
Cl6 Sb2 2.390261 1_545
Cl7 Sb3 2.390261 1_565
Cl8 Sb0 2.331754 1_555
Cl9 Sb1 2.331754 1_555
Cl10 Sb2 2.331754 1_555
Cl11 Sb3 2.331754 1_555
Cl12 Sb0 2.383900 1_565
Cl13 Sb1 2.383900 1_545
Cl14 Sb2 2.383900 1_545
Cl15 Sb3 2.383900 1_565
Cl16 Sb0 2.369280 1_555
Cl17 Sb1 2.369280 1_555
Cl18 Sb2 2.369280 1_555
Cl19 Sb3 2.369280 1_555
Cl20 Cl48 2.036630 1_555
Cl20 Sb0 3.010702 1_665
Cl21 Cl49 2.036630 1_555
Cl21 Sb1 3.010702 1_545
Cl22 Cl50 2.036630 1_555
Cl22 Sb2 3.010702 1_445
Cl23 Cl51 2.036630 1_555
Cl23 Sb3 3.010702 1_565
Cl24 Sb4 2.387845 1_555
Cl25 Sb5 2.387845 1_555
Cl26 Sb6 2.387845 1_555
Cl27 Sb7 2.387845 1_555
Cl28 Sb4 2.366827 1_555
Cl29 Sb5 2.366827 1_555
Cl30 Sb6 2.366827 1_555
Cl31 Sb7 2.366827 1_555
Cl32 Sb4 2.379225 1_555
Cl33 Sb5 2.379225 1_555
Cl34 Sb6 2.379225 1_555
Cl35 Sb7 2.379225 1_555
Cl36 Sb4 2.372493 1_555
Cl37 Sb5 2.372493 1_555
Cl38 Sb6 2.372493 1_555
Cl39 Sb7 2.372493 1_555
Cl40 Sb4 2.333429 1_555
Cl41 Sb5 2.333429 1_655
Cl42 Sb6 2.333429 1_555
Cl43 Sb7 2.333429 1_455
Cl44 Cl56 2.034124 1_555
Cl44 Sb4 3.061304 1_555
Cl45 Cl57 2.034124 1_555
Cl45 Sb5 3.061304 1_555
Cl46 Cl58 2.034124 1_555
Cl46 Sb6 3.061304 1_555
Cl47 Cl59 2.034124 1_555
Cl47 Sb7 3.061304 1_555
Cl48 N0 2.473317 1_565
Cl49 N1 2.473317 1_545
Cl50 N2 2.473317 1_545
Cl51 N3 2.473317 1_565
Cl52 N0 1.920058 1_555
Cl53 N1 1.920058 1_555
Cl54 N2 1.920058 1_555
Cl55 N3 1.920058 1_555
Cl56 N4 2.486548 1_655
Cl57 N5 2.486548 1_555
Cl58 N6 2.486548 1_455
Cl59 N7 2.486548 1_555
Cl60 N4 1.919137 1_555
Cl61 N5 1.919137 1_555
Cl62 N6 1.919137 1_555
Cl63 N7 1.919137 1_555
