# generated using pymatgen
data_MgMnP2O7
_symmetry_space_group_name_H-M   'P 1'
_cell_length_a   7.13665490
_cell_length_b   8.93557177
_cell_length_c   9.60720423
_cell_angle_alpha   73.10323599
_cell_angle_beta   102.74082549
_cell_angle_gamma   68.20598080
_symmetry_Int_Tables_number   1
_chemical_formula_structural   MgMnP2O7
_chemical_formula_sum   'Mg4 Mn4 P8 O28'
_cell_volume   505.74298817
_cell_formula_units_Z   4
loop_
 _symmetry_equiv_pos_site_id
 _symmetry_equiv_pos_as_xyz
  1  'x, y, z'
loop_
 _atom_site_type_symbol
 _atom_site_label
 _atom_site_symmetry_multiplicity
 _atom_site_fract_x
 _atom_site_fract_y
 _atom_site_fract_z
 _atom_site_occupancy
  Mg  Mg0  1  0.65387400  0.83220000  0.81669500  1
  Mg  Mg1  1  0.65391500  0.33224500  0.31668700  1
  Mg  Mg2  1  0.34614600  0.66778000  0.68331000  1
  Mg  Mg3  1  0.34609400  0.16774900  0.18332200  1
  Mn  Mn0  1  0.15855400  0.37930600  0.80794300  1
  Mn  Mn1  1  0.84143200  0.12068500  0.69205900  1
  Mn  Mn2  1  0.15853400  0.87896600  0.30783500  1
  Mn  Mn3  1  0.84142800  0.62106400  0.19218100  1
  P  P0  1  0.68460400  0.60280400  0.48565700  1
  P  P1  1  0.68451200  0.10277600  0.98562100  1
  P  P2  1  0.31539400  0.89719800  0.01433900  1
  P  P3  1  0.31549000  0.39723300  0.51437400  1
  P  P4  1  0.19689600  0.09761000  0.51614900  1
  P  P5  1  0.19688500  0.59760800  0.01624200  1
  P  P6  1  0.80311000  0.40238300  0.98384900  1
  P  P7  1  0.80311900  0.90238300  0.48376300  1
  O  O0  1  0.68242400  0.05110900  0.84580400  1
  O  O1  1  0.68262400  0.55102500  0.34590600  1
  O  O2  1  0.31757000  0.44888300  0.65419900  1
  O  O3  1  0.31737200  0.94898100  0.15408900  1
  O  O4  1  0.86256800  0.45830800  0.63885500  1
  O  O5  1  0.86242100  0.95807800  0.13878800  1
  O  O6  1  0.13743600  0.04169600  0.86113800  1
  O  O7  1  0.13758300  0.54194500  0.36121300  1
  O  O8  1  0.45905000  0.67704700  0.49640300  1
  O  O9  1  0.45897500  0.17706700  0.99639400  1
  O  O10  1  0.54095000  0.82295700  0.00359500  1
  O  O11  1  0.54103300  0.32294900  0.50360800  1
  O  O12  1  0.65147600  0.58297600  0.84556000  1
  O  O13  1  0.65152000  0.08300900  0.34553000  1
  O  O14  1  0.34853700  0.91702100  0.65444100  1
  O  O15  1  0.34849900  0.41698400  0.15447700  1
  O  O16  1  0.22212000  0.09903700  0.36107800  1
  O  O17  1  0.22209800  0.59914200  0.86113300  1
  O  O18  1  0.77786000  0.40095200  0.13891500  1
  O  O19  1  0.77788500  0.90084900  0.63886500  1
  O  O20  1  0.26842400  0.22993700  0.56667300  1
  O  O21  1  0.26854600  0.72980800  0.06689300  1
  O  O22  1  0.73157200  0.27007200  0.93329100  1
  O  O23  1  0.73144100  0.77020200  0.43309200  1
  O  O24  1  0.04209600  0.83347700  0.49930600  1
  O  O25  1  0.04206900  0.33353200  0.99934300  1
  O  O26  1  0.95791400  0.66650300  0.00071500  1
  O  O27  1  0.95793800  0.16645900  0.50066800  1
loop_
_geom_bond_atom_site_label_1
_geom_bond_atom_site_label_2
_geom_bond_distance
_geom_bond_site_symmetry_2
Mg0 O14 2.083588 1_555
Mg0 O26 2.103978 1_556
Mg0 O10 2.117054 1_556
Mg0 O0 2.129497 1_565
Mg0 O19 2.130539 1_555
Mg0 O12 2.169780 1_555
Mg1 O15 2.084012 1_555
Mg1 O27 2.103815 1_555
Mg1 O11 2.117034 1_555
Mg1 O1 2.129214 1_555
Mg1 O18 2.129867 1_555
Mg1 O13 2.169914 1_555
Mg2 O12 2.083571 1_555
Mg2 O24 2.103957 1_555
Mg2 O8 2.117019 1_555
Mg2 O2 2.129473 1_555
Mg2 O17 2.130648 1_555
Mg2 O14 2.169904 1_555
Mg3 O13 2.084055 1_555
Mg3 O25 2.103814 1_554
Mg3 O9 2.117079 1_554
Mg3 O3 2.129197 1_545
Mg3 O16 2.129896 1_555
Mg3 O15 2.169931 1_555
Mn0 O4 2.076495 1_455
Mn0 O2 2.141381 1_555
Mn0 O9 2.156229 1_555
Mn0 O25 2.174665 1_555
Mn0 O17 2.338431 1_555
Mn1 O6 2.076579 1_655
Mn1 O0 2.141340 1_555
Mn1 O11 2.156201 1_555
Mn1 O27 2.174685 1_555
Mn1 O19 2.338457 1_545
Mn2 O5 2.076706 1_455
Mn2 O3 2.141516 1_555
Mn2 O8 2.156350 1_555
Mn2 O24 2.174835 1_555
Mn2 O16 2.340830 1_565
Mn3 O7 2.076838 1_655
Mn3 O1 2.141240 1_555
Mn3 O10 2.156228 1_555
Mn3 O26 2.174975 1_555
Mn3 O18 2.341222 1_555
O0 P1 1.540926 1_555
O1 P0 1.540932 1_555
O2 P3 1.540919 1_555
O3 P2 1.540944 1_555
O4 P0 1.516422 1_555
O5 P1 1.516609 1_564
O6 P2 1.516429 1_546
O7 P3 1.516606 1_555
O8 P0 1.536902 1_555
O9 P1 1.536929 1_555
O10 P2 1.536905 1_555
O11 P3 1.536935 1_555
O12 P6 1.537240 1_555
O13 P7 1.537151 1_545
O14 P4 1.537239 1_565
O15 P5 1.537162 1_555
O16 P4 1.536562 1_555
O17 P5 1.536678 1_556
O18 P6 1.536568 1_554
O19 P7 1.536662 1_555
O20 P4 1.602132 1_555
O20 P3 1.615746 1_555
O21 P5 1.602105 1_555
O21 P2 1.615765 1_555
O22 P6 1.602180 1_555
O22 P1 1.615746 1_555
O23 P7 1.602095 1_555
O23 P0 1.615791 1_555
O24 P7 1.537726 1_455
O25 P6 1.537749 1_455
O26 P5 1.537730 1_655
O27 P4 1.537776 1_655
