# generated using pymatgen
data_PrGaNi
_symmetry_space_group_name_H-M   'P 1'
_cell_length_a   4.49903820
_cell_length_b   7.20854405
_cell_length_c   7.13163393
_cell_angle_alpha   90.00000000
_cell_angle_beta   90.00000000
_cell_angle_gamma   90.00000000
_symmetry_Int_Tables_number   1
_chemical_formula_structural   PrGaNi
_chemical_formula_sum   'Pr4 Ga4 Ni4'
_cell_volume   231.28969311
_cell_formula_units_Z   4
loop_
 _symmetry_equiv_pos_site_id
 _symmetry_equiv_pos_as_xyz
  1  'x, y, z'
loop_
 _atom_site_type_symbol
 _atom_site_label
 _atom_site_symmetry_multiplicity
 _atom_site_fract_x
 _atom_site_fract_y
 _atom_site_fract_z
 _atom_site_occupancy
  Pr  Pr0  1  0.75000000  0.46518883  0.68574215  1
  Pr  Pr1  1  0.75000000  0.96518883  0.81425785  1
  Pr  Pr2  1  0.25000000  0.53481117  0.31425785  1
  Pr  Pr3  1  0.25000000  0.03481117  0.18574215  1
  Ga  Ga0  1  0.75000000  0.33160374  0.08707574  1
  Ga  Ga1  1  0.75000000  0.83160374  0.41292426  1
  Ga  Ga2  1  0.25000000  0.66839626  0.91292426  1
  Ga  Ga3  1  0.25000000  0.16839626  0.58707574  1
  Ni  Ni0  1  0.75000000  0.68758148  0.09429169  1
  Ni  Ni1  1  0.75000000  0.18758148  0.40570831  1
  Ni  Ni2  1  0.25000000  0.31241852  0.90570831  1
  Ni  Ni3  1  0.25000000  0.81241852  0.59429169  1
loop_
_geom_bond_atom_site_label_1
_geom_bond_atom_site_label_2
_geom_bond_distance
_geom_bond_site_symmetry_2
Pr0 Pr2 3.511546 1_655
Pr0 Pr2 3.511546 1_555
Pr0 Pr1 3.718978 1_545
Pr0 Pr1 3.718978 1_555
Pr1 Pr3 3.511546 1_566
Pr1 Pr3 3.511546 1_666
Pr2 Pr3 3.718978 1_555
Pr2 Pr3 3.718978 1_565
Ga0 Ni1 2.498301 1_555
Ga0 Ni0 2.566597 1_555
Ga0 Ni2 2.598551 1_654
Ga0 Ni2 2.598551 1_554
Ga0 Pr0 3.019812 1_554
Ga0 Pr2 3.135450 1_655
Ga0 Pr2 3.135450 1_555
Ga0 Pr3 3.183187 1_555
Ga0 Pr3 3.183187 1_655
Ga0 Pr1 3.280559 1_544
Ga1 Ni0 2.498301 1_555
Ga1 Ni1 2.566597 1_565
Ga1 Ni3 2.598551 1_655
Ga1 Ni3 2.598551 1_555
Ga1 Pr1 3.019812 1_555
Ga1 Pr3 3.135450 1_565
Ga1 Pr3 3.135450 1_665
Ga1 Pr2 3.183187 1_655
Ga1 Pr2 3.183187 1_555
Ga1 Pr0 3.280559 1_555
Ga2 Ni3 2.498301 1_555
Ga2 Ni2 2.566597 1_555
Ga2 Ni0 2.598551 1_456
Ga2 Ni0 2.598551 1_556
Ga2 Pr2 3.019812 1_556
Ga2 Pr0 3.135450 1_455
Ga2 Pr0 3.135450 1_555
Ga2 Pr1 3.183187 1_555
Ga2 Pr1 3.183187 1_455
Ga2 Pr3 3.280559 1_566
Ga3 Ni2 2.498301 1_555
Ga3 Ni3 2.566597 1_545
Ga3 Ni1 2.598551 1_455
Ga3 Ni1 2.598551 1_555
Ga3 Pr3 3.019812 1_555
Ga3 Pr1 3.135450 1_445
Ga3 Pr1 3.135450 1_545
Ga3 Pr0 3.183187 1_555
Ga3 Pr0 3.183187 1_455
Ga3 Pr2 3.280559 1_555
Ni0 Pr1 2.827187 1_554
Ni0 Pr2 2.955329 1_655
Ni0 Pr2 2.955329 1_555
Ni0 Pr0 3.325542 1_554
Ni0 Pr3 3.427944 1_565
Ni0 Pr3 3.427944 1_665
Ni1 Pr0 2.827187 1_555
Ni1 Pr3 2.955329 1_555
Ni1 Pr3 2.955329 1_655
Ni1 Pr1 3.325542 1_545
Ni1 Pr2 3.427944 1_655
Ni1 Pr2 3.427944 1_555
Ni2 Pr3 2.827187 1_556
Ni2 Pr0 2.955329 1_555
Ni2 Pr0 2.955329 1_455
Ni2 Pr2 3.325542 1_556
Ni2 Pr1 3.427944 1_445
Ni2 Pr1 3.427944 1_545
Ni3 Pr2 2.827187 1_555
Ni3 Pr1 2.955329 1_455
Ni3 Pr1 2.955329 1_555
Ni3 Pr3 3.325542 1_565
Ni3 Pr0 3.427944 1_455
Ni3 Pr0 3.427944 1_555
