# generated using pymatgen
data_K3(Fe11O17)2
_symmetry_space_group_name_H-M   'P 1'
_cell_length_a   6.05914740
_cell_length_b   6.07034923
_cell_length_c   24.13781091
_cell_angle_alpha   89.84536352
_cell_angle_beta   89.85135159
_cell_angle_gamma   120.01547941
_symmetry_Int_Tables_number   1
_chemical_formula_structural   K3(Fe11O17)2
_chemical_formula_sum   'K3 Fe22 O34'
_cell_volume   768.74066676
_cell_formula_units_Z   1
loop_
 _symmetry_equiv_pos_site_id
 _symmetry_equiv_pos_as_xyz
  1  'x, y, z'
loop_
 _atom_site_type_symbol
 _atom_site_label
 _atom_site_symmetry_multiplicity
 _atom_site_fract_x
 _atom_site_fract_y
 _atom_site_fract_z
 _atom_site_occupancy
  K  K0  1  0.35826800  0.67940000  0.75464700  1
  K  K1  1  0.63776500  0.39724000  0.24501600  1
  K  K2  1  0.92972500  0.08508600  0.24729900  1
  Fe  Fe0  1  0.16826900  0.83165000  0.89483500  1
  Fe  Fe1  1  0.16874100  0.83295800  0.60543300  1
  Fe  Fe2  1  0.33074600  0.67093600  0.17110500  1
  Fe  Fe3  1  0.33798100  0.66939800  0.02426400  1
  Fe  Fe4  1  0.33222500  0.67002500  0.32587800  1
  Fe  Fe5  1  0.16831700  0.33653300  0.89476900  1
  Fe  Fe6  1  0.16854300  0.33614700  0.60543200  1
  Fe  Fe7  1  0.33314500  0.66624200  0.47388300  1
  Fe  Fe8  1  0.00147300  0.00066900  0.00235400  1
  Fe  Fe9  1  0.00087900  0.00045700  0.49977200  1
  Fe  Fe10  1  0.66530100  0.83301600  0.60516300  1
  Fe  Fe11  1  0.66408800  0.83197000  0.89544100  1
  Fe  Fe12  1  0.33034600  0.16623400  0.10537100  1
  Fe  Fe13  1  0.33539700  0.16819600  0.39396400  1
  Fe  Fe14  1  0.66667000  0.33336800  0.67471300  1
  Fe  Fe15  1  0.83540000  0.67020400  0.10537500  1
  Fe  Fe16  1  0.66794500  0.33433000  0.82667300  1
  Fe  Fe17  1  0.66727600  0.33349300  0.97555700  1
  Fe  Fe18  1  0.83216300  0.66506400  0.39426400  1
  Fe  Fe19  1  0.66797800  0.33401500  0.52582600  1
  Fe  Fe20  1  0.83175400  0.16844800  0.39456100  1
  Fe  Fe21  1  0.83544300  0.16707900  0.10502900  1
  O  O0  1  0.15693500  0.84335300  0.44724300  1
  O  O1  1  0.15317500  0.84952900  0.05525500  1
  O  O2  1  0.00989100  0.50496000  0.64448000  1
  O  O3  1  0.01137700  0.50615700  0.85230900  1
  O  O4  1  0.35111100  0.64487500  0.25036100  1
  O  O5  1  0.15566000  0.31317100  0.44760600  1
  O  O6  1  0.99981900  0.99917300  0.14815400  1
  O  O7  1  0.99996700  0.00104900  0.35529300  1
  O  O8  1  0.00094400  0.00079800  0.85903100  1
  O  O9  1  0.00011400  0.99992000  0.64091300  1
  O  O10  1  0.33404400  0.66717800  0.55324300  1
  O  O11  1  0.33038500  0.66436600  0.94098300  1
  O  O12  1  0.15068600  0.30218000  0.05439000  1
  O  O13  1  0.49698500  0.99093100  0.85288300  1
  O  O14  1  0.49637200  0.99147500  0.64436000  1
  O  O15  1  0.31355000  0.15673400  0.54873100  1
  O  O16  1  0.31535000  0.15766900  0.95085100  1
  O  O17  1  0.49600400  0.50527900  0.64438100  1
  O  O18  1  0.49725900  0.50674000  0.85283800  1
  O  O19  1  0.50491200  0.49710100  0.35357700  1
  O  O20  1  0.50281300  0.49644300  0.14804000  1
  O  O21  1  0.68744000  0.84475600  0.44778600  1
  O  O22  1  0.69802500  0.85073900  0.05525800  1
  O  O23  1  0.50874600  0.01680000  0.35109000  1
  O  O24  1  0.66681000  0.33316700  0.44425500  1
  O  O25  1  0.65955400  0.33018900  0.74923400  1
  O  O26  1  0.66752000  0.33355200  0.05673200  1
  O  O27  1  0.51001600  0.02030100  0.15160000  1
  O  O28  1  0.84295900  0.68625100  0.95114800  1
  O  O29  1  0.84459100  0.68746300  0.54874000  1
  O  O30  1  0.98071400  0.49010900  0.15176000  1
  O  O31  1  0.98380600  0.49256900  0.35106000  1
  O  O32  1  0.84468700  0.15691900  0.54884400  1
  O  O33  1  0.84271400  0.15675200  0.95094200  1
loop_
_geom_bond_atom_site_label_1
_geom_bond_atom_site_label_2
_geom_bond_distance
_geom_bond_site_symmetry_2
K0 O18 2.881885 1_555
K0 O13 2.889574 1_555
K0 O3 2.971588 1_555
K0 O14 3.122651 1_555
K0 O17 3.127920 1_555
K0 O2 3.233637 1_555
K1 O20 2.646794 1_555
K1 O4 2.811607 1_555
K1 O19 2.892734 1_555
K1 O30 2.915418 1_555
K1 O27 3.030529 1_555
K1 O31 3.178826 1_555
K1 O23 3.263675 1_555
K2 O6 2.530328 1_545
K2 O7 2.729883 1_555
Fe0 O8 1.967313 1_565
Fe0 O13 1.996215 1_555
Fe0 O3 1.999550 1_555
Fe0 O11 2.057763 1_555
Fe0 O28 2.179668 1_455
Fe0 O16 2.189795 1_565
Fe1 O9 1.959790 1_555
Fe1 O2 1.961359 1_555
Fe1 O14 1.962935 1_555
Fe1 O10 2.147466 1_555
Fe1 O15 2.181734 1_565
Fe1 O29 2.189807 1_455
Fe2 O27 1.893792 1_565
Fe2 O30 1.897337 1_455
Fe2 O20 1.903662 1_555
Fe2 O4 1.928522 1_555
Fe3 O11 2.010832 1_554
Fe3 O22 2.034942 1_555
Fe3 O1 2.057711 1_555
Fe3 O12 2.059559 1_555
Fe4 O4 1.837650 1_555
Fe4 O31 1.923878 1_455
Fe4 O23 1.924393 1_565
Fe4 O19 1.934536 1_555
Fe5 O8 1.967841 1_555
Fe5 O18 1.997003 1_555
Fe5 O3 1.998463 1_555
Fe5 O11 2.057068 1_555
Fe5 O33 2.178476 1_455
Fe5 O16 2.184298 1_555
Fe6 O9 1.960317 1_545
Fe6 O2 1.961796 1_555
Fe6 O17 1.962549 1_555
Fe6 O10 2.143419 1_555
Fe6 O32 2.187692 1_455
Fe6 O15 2.188707 1_555
Fe7 O10 1.915614 1_555
Fe7 O21 1.959960 1_555
Fe7 O5 1.964000 1_555
Fe7 O0 1.964075 1_555
Fe8 O12 2.026748 1_555
Fe8 O22 2.036413 1_445
Fe8 O1 2.039768 1_545
Fe8 O16 2.058804 1_554
Fe8 O33 2.067550 1_454
Fe8 O28 2.068312 1_444
Fe9 O29 2.021328 1_445
Fe9 O32 2.024918 1_455
Fe9 O15 2.026153 1_555
Fe9 O5 2.066008 1_555
Fe9 O21 2.073086 1_445
Fe9 O0 2.076956 1_545
Fe10 O9 1.960649 1_655
Fe10 O17 1.962000 1_555
Fe10 O14 1.962911 1_555
Fe10 O10 2.147316 1_555
Fe10 O32 2.176045 1_565
Fe10 O29 2.185127 1_555
Fe11 O8 1.970205 1_665
Fe11 O13 1.997263 1_555
Fe11 O18 1.999186 1_555
Fe11 O11 2.063047 1_555
Fe11 O28 2.173810 1_555
Fe11 O33 2.177167 1_565
Fe12 O6 2.014302 1_445
Fe12 O20 2.022823 1_555
Fe12 O27 2.044720 1_555
Fe12 O1 2.065505 1_545
Fe12 O12 2.068956 1_555
Fe12 O26 2.118701 1_555
Fe13 O19 1.980965 1_555
Fe13 O7 1.995830 1_455
Fe13 O23 1.996013 1_555
Fe13 O24 2.125125 1_555
Fe13 O0 2.134810 1_545
Fe13 O5 2.143533 1_555
Fe14 O25 1.798999 1_555
Fe14 O2 1.939895 1_655
Fe14 O17 1.942639 1_555
Fe14 O14 1.943821 1_545
Fe15 O6 2.018084 1_555
Fe15 O20 2.022603 1_555
Fe15 O30 2.045856 1_555
Fe15 O1 2.059065 1_655
Fe15 O22 2.065910 1_555
Fe15 O26 2.128145 1_555
Fe16 O25 1.869926 1_555
Fe16 O3 1.907797 1_655
Fe16 O18 1.909685 1_555
Fe16 O13 1.909916 1_545
Fe17 O16 1.942899 1_555
Fe17 O28 1.942967 1_555
Fe17 O33 1.942998 1_555
Fe17 O26 1.959392 1_556
Fe18 O19 1.982088 1_555
Fe18 O7 1.997098 1_565
Fe18 O31 1.997921 1_555
Fe18 O24 2.116626 1_555
Fe18 O0 2.137482 1_655
Fe18 O21 2.141608 1_555
Fe19 O15 1.937561 1_555
Fe19 O32 1.939653 1_555
Fe19 O29 1.940843 1_555
Fe19 O24 1.968988 1_555
Fe20 O23 1.998061 1_555
Fe20 O31 1.998198 1_555
Fe20 O7 2.001553 1_555
Fe20 O24 2.106537 1_555
Fe20 O21 2.130176 1_545
Fe20 O5 2.134736 1_655
Fe21 O6 2.032161 1_545
Fe21 O27 2.042292 1_555
Fe21 O30 2.045126 1_555
Fe21 O12 2.056788 1_655
Fe21 O22 2.059630 1_545
Fe21 O26 2.108077 1_555
