# generated using pymatgen
data_Ta4MoSe10
_symmetry_space_group_name_H-M   'P 1'
_cell_length_a   9.81322800
_cell_length_b   9.81322800
_cell_length_c   10.41490122
_cell_angle_alpha   84.38813805
_cell_angle_beta   84.38813805
_cell_angle_gamma   20.21524003
_symmetry_Int_Tables_number   1
_chemical_formula_structural   Ta4MoSe10
_chemical_formula_sum   'Ta4 Mo1 Se10'
_cell_volume   344.85295272
_cell_formula_units_Z   1
loop_
 _symmetry_equiv_pos_site_id
 _symmetry_equiv_pos_as_xyz
  1  'x, y, z'
loop_
 _atom_site_type_symbol
 _atom_site_label
 _atom_site_symmetry_multiplicity
 _atom_site_fract_x
 _atom_site_fract_y
 _atom_site_fract_z
 _atom_site_occupancy
  Ta  Ta0  1  0.13138181  0.13138181  0.26764083  1
  Ta  Ta1  1  0.33476288  0.33476288  0.67673914  1
  Ta  Ta2  1  0.52570182  0.52570182  0.05767119  1
  Ta  Ta3  1  0.73256848  0.73256848  0.47046677  1
  Mo  Mo0  1  0.93265669  0.93265669  0.87249964  1
  Se  Se0  1  0.39563164  0.39563164  0.04950451  1
  Se  Se1  1  0.59904022  0.59904022  0.45103445  1
  Se  Se2  1  0.99901927  0.99901927  0.24652022  1
  Se  Se3  1  0.80076503  0.80076503  0.85620377  1
  Se  Se4  1  0.20069361  0.20069361  0.65421098  1
  Se  Se5  1  0.73159980  0.73159980  0.22022798  1
  Se  Se6  1  0.93272309  0.93272309  0.62581035  1
  Se  Se7  1  0.12841657  0.12841657  0.02024991  1
  Se  Se8  1  0.33267346  0.33267346  0.42474158  1
  Se  Se9  1  0.52972162  0.52972162  0.81487769  1
loop_
_geom_bond_atom_site_label_1
_geom_bond_atom_site_label_2
_geom_bond_distance
_geom_bond_site_symmetry_2
Mo0 Se6 2.569117 1_555
Mo0 Se3 2.570802 1_555
Mo0 Se0 2.571810 1_656
Mo0 Se0 2.571810 1_566
Mo0 Se9 2.572922 1_655
Mo0 Se9 2.572922 1_565
Se0 Ta2 2.523065 1_555
Se1 Ta0 2.601452 1_655
Se1 Ta0 2.601452 1_565
Se1 Ta3 2.607903 1_555
Se2 Ta0 2.588609 1_665
Se2 Ta2 2.626556 1_655
Se2 Ta2 2.626556 1_565
Se3 Ta1 2.578202 1_655
Se3 Ta1 2.578202 1_565
Se4 Ta3 2.602556 1_455
Se4 Ta3 2.602556 1_545
Se4 Ta1 2.624178 1_555
Se5 Ta0 2.601823 1_565
Se5 Ta0 2.601823 1_655
Se5 Ta3 2.608138 1_555
Se6 Ta1 2.574966 1_565
Se6 Ta1 2.574966 1_655
Se7 Ta0 2.582872 1_555
Se7 Ta2 2.627355 1_455
Se7 Ta2 2.627355 1_545
Se8 Ta3 2.598259 1_455
Se8 Ta3 2.598259 1_545
Se8 Ta1 2.628847 1_555
Se9 Ta2 2.522140 1_556
