# generated using pymatgen
data_Ti3MnSn2(PO4)6
_symmetry_space_group_name_H-M   'P 1'
_cell_length_a   9.14595293
_cell_length_b   9.14595293
_cell_length_c   9.14595260
_cell_angle_alpha   56.22999567
_cell_angle_beta   56.22999567
_cell_angle_gamma   56.22999267
_symmetry_Int_Tables_number   1
_chemical_formula_structural   Ti3MnSn2(PO4)6
_chemical_formula_sum   'Ti3 Mn1 Sn2 P6 O24'
_cell_volume   493.76980450
_cell_formula_units_Z   1
loop_
 _symmetry_equiv_pos_site_id
 _symmetry_equiv_pos_as_xyz
  1  'x, y, z'
loop_
 _atom_site_type_symbol
 _atom_site_label
 _atom_site_symmetry_multiplicity
 _atom_site_fract_x
 _atom_site_fract_y
 _atom_site_fract_z
 _atom_site_occupancy
  Ti  Ti0  1  0.85485300  0.85485300  0.85485300  1
  Ti  Ti1  1  0.64732500  0.64732500  0.64732500  1
  Ti  Ti2  1  0.34489100  0.34489100  0.34489100  1
  Mn  Mn0  1  0.15126500  0.15126500  0.15126500  1
  Sn  Sn0  1  0.01507500  0.01507500  0.01507500  1
  Sn  Sn1  1  0.48766900  0.48766900  0.48766900  1
  P  P0  1  0.46889500  0.03697700  0.74452500  1
  P  P1  1  0.03697700  0.74452500  0.46889500  1
  P  P2  1  0.74452500  0.46889500  0.03697700  1
  P  P3  1  0.25019000  0.53850800  0.95647100  1
  P  P4  1  0.95647100  0.25019000  0.53850800  1
  P  P5  1  0.53850800  0.95647100  0.25019000  1
  O  O0  1  0.69703900  0.50997400  0.87835100  1
  O  O1  1  0.50997400  0.87835100  0.69703900  1
  O  O2  1  0.06653200  0.71235500  0.94326100  1
  O  O3  1  0.87835100  0.69703900  0.50997400  1
  O  O4  1  0.24897700  0.36880100  0.96681600  1
  O  O5  1  0.41662200  0.59393300  0.78086700  1
  O  O6  1  0.94326100  0.06653200  0.71235500  1
  O  O7  1  0.78086700  0.41662200  0.59393300  1
  O  O8  1  0.63164000  0.00660100  0.77968300  1
  O  O9  1  0.59393300  0.78086700  0.41662200  1
  O  O10  1  0.28368700  0.05526300  0.91720300  1
  O  O11  1  0.00660100  0.77968300  0.63164000  1
  O  O12  1  0.96681600  0.24897700  0.36880100  1
  O  O13  1  0.71235500  0.94326100  0.06653200  1
  O  O14  1  0.44225400  0.22371500  0.56903300  1
  O  O15  1  0.36880100  0.96681600  0.24897700  1
  O  O16  1  0.22371500  0.56903300  0.44225400  1
  O  O17  1  0.05526300  0.91720300  0.28368700  1
  O  O18  1  0.56903300  0.44225400  0.22371500  1
  O  O19  1  0.77968300  0.63164000  0.00660100  1
  O  O20  1  0.13430300  0.27356200  0.50288200  1
  O  O21  1  0.91720300  0.28368700  0.05526300  1
  O  O22  1  0.50288200  0.13430300  0.27356200  1
  O  O23  1  0.27356200  0.50288200  0.13430300  1
loop_
_geom_bond_atom_site_label_1
_geom_bond_atom_site_label_2
_geom_bond_distance
_geom_bond_site_symmetry_2
Mn0 O15 2.042604 1_545
Mn0 O12 2.042604 1_455
Mn0 O4 2.042604 1_554
Mn0 O10 2.201251 1_554
Mn0 O21 2.201251 1_455
Mn0 O17 2.201251 1_545
O0 P2 1.532210 1_556
O0 Ti1 1.931730 1_555
O1 P0 1.532210 1_565
O1 Ti1 1.931730 1_555
O2 P3 1.551477 1_555
O2 Ti0 1.965749 1_455
O3 P1 1.532210 1_655
O3 Ti1 1.931730 1_555
O4 P3 1.507615 1_555
O5 P3 1.545419 1_555
O5 Ti1 1.949284 1_555
O6 P4 1.551477 1_555
O6 Ti0 1.965749 1_545
O7 P4 1.545419 1_555
O7 Ti1 1.949284 1_555
O8 P0 1.539203 1_555
O8 Ti0 1.978950 1_545
O9 P5 1.545419 1_555
O9 Ti1 1.949284 1_555
O10 P0 1.547938 1_555
O10 Sn0 2.272691 1_556
O11 P1 1.539203 1_555
O11 Ti0 1.978950 1_455
O12 P4 1.507615 1_555
O13 P5 1.551477 1_555
O13 Ti0 1.965749 1_554
O14 P0 1.573873 1_555
O14 Ti2 2.151785 1_555
O14 Sn1 2.308287 1_555
O15 P5 1.507615 1_555
O16 P1 1.573873 1_555
O16 Ti2 2.151786 1_555
O16 Sn1 2.308287 1_555
O17 P1 1.547938 1_555
O17 Sn0 2.272691 1_565
O18 P2 1.573873 1_555
O18 Ti2 2.151786 1_555
O18 Sn1 2.308287 1_555
O19 P2 1.539203 1_555
O19 Ti0 1.978950 1_554
O20 P4 1.586537 1_455
O20 Ti2 1.864946 1_555
O21 P2 1.547938 1_555
O21 Sn0 2.272691 1_655
O22 P5 1.586537 1_545
O22 Ti2 1.864946 1_555
O23 P3 1.586537 1_554
O23 Ti2 1.864946 1_555
