# generated using pymatgen
data_Ce5Bi3
_symmetry_space_group_name_H-M   'P 1'
_cell_length_a   9.52742300
_cell_length_b   9.52742381
_cell_length_c   6.48753800
_cell_angle_alpha   90.00000000
_cell_angle_beta   90.00000000
_cell_angle_gamma   120.00000065
_symmetry_Int_Tables_number   1
_chemical_formula_structural   Ce5Bi3
_chemical_formula_sum   'Ce10 Bi6'
_cell_volume   509.98978296
_cell_formula_units_Z   2
loop_
 _symmetry_equiv_pos_site_id
 _symmetry_equiv_pos_as_xyz
  1  'x, y, z'
loop_
 _atom_site_type_symbol
 _atom_site_label
 _atom_site_symmetry_multiplicity
 _atom_site_fract_x
 _atom_site_fract_y
 _atom_site_fract_z
 _atom_site_occupancy
  Ce  Ce0  1  0.66666700  0.33333300  0.00000000  1
  Ce  Ce1  1  0.33333300  0.66666700  0.00000000  1
  Ce  Ce2  1  0.33333300  0.66666700  0.50000000  1
  Ce  Ce3  1  0.66666700  0.33333300  0.50000000  1
  Ce  Ce4  1  0.74782700  0.74782700  0.75000000  1
  Ce  Ce5  1  0.25217300  0.00000000  0.75000000  1
  Ce  Ce6  1  0.00000000  0.25217300  0.75000000  1
  Ce  Ce7  1  0.25217300  0.25217300  0.25000000  1
  Ce  Ce8  1  0.74782700  0.00000000  0.25000000  1
  Ce  Ce9  1  0.00000000  0.74782700  0.25000000  1
  Bi  Bi0  1  0.38604200  0.38604200  0.75000000  1
  Bi  Bi1  1  0.61395800  0.00000000  0.75000000  1
  Bi  Bi2  1  0.00000000  0.61395800  0.75000000  1
  Bi  Bi3  1  0.61395800  0.61395800  0.25000000  1
  Bi  Bi4  1  0.38604200  0.00000000  0.25000000  1
  Bi  Bi5  1  0.00000000  0.38604200  0.25000000  1
loop_
_geom_bond_atom_site_label_1
_geom_bond_atom_site_label_2
_geom_bond_distance
_geom_bond_site_symmetry_2
Bi0 Ce6 3.234701 1_555
Bi0 Ce5 3.234701 1_555
Bi0 Ce3 3.372485 1_555
Bi0 Ce0 3.372485 1_556
Bi0 Ce1 3.372485 1_556
Bi0 Ce2 3.372485 1_555
Bi0 Ce4 3.446879 1_555
Bi0 Ce7 3.485506 1_555
Bi0 Ce7 3.485506 1_556
Bi1 Ce6 3.234701 1_655
Bi1 Ce4 3.234701 1_545
Bi1 Ce3 3.372477 1_555
Bi1 Ce0 3.372477 1_556
Bi1 Ce1 3.372480 1_546
Bi1 Ce2 3.372480 1_545
Bi1 Ce5 3.446879 1_555
Bi1 Ce8 3.485506 1_555
Bi1 Ce8 3.485506 1_556
Bi2 Ce4 3.234701 1_455
Bi2 Ce5 3.234701 1_565
Bi2 Ce1 3.372477 1_556
Bi2 Ce2 3.372477 1_555
Bi2 Ce0 3.372480 1_456
Bi2 Ce3 3.372480 1_455
Bi2 Ce6 3.446879 1_555
Bi2 Ce9 3.485506 1_555
Bi2 Ce9 3.485506 1_556
Bi3 Ce9 3.234701 1_655
Bi3 Ce8 3.234701 1_565
Bi3 Ce2 3.372485 1_555
Bi3 Ce1 3.372485 1_555
Bi3 Ce3 3.372485 1_555
Bi3 Ce0 3.372485 1_555
Bi3 Ce7 3.446879 1_555
Bi3 Ce4 3.485506 1_555
Bi3 Ce4 3.485506 1_554
Bi4 Ce9 3.234701 1_545
Bi4 Ce7 3.234701 1_555
Bi4 Ce1 3.372477 1_545
Bi4 Ce2 3.372477 1_545
Bi4 Ce3 3.372480 1_555
Bi4 Ce0 3.372480 1_555
Bi4 Ce8 3.446879 1_555
Bi4 Ce5 3.485506 1_555
Bi4 Ce5 3.485506 1_554
Bi5 Ce7 3.234701 1_555
Bi5 Ce8 3.234701 1_455
Bi5 Ce0 3.372477 1_455
Bi5 Ce3 3.372477 1_455
Bi5 Ce1 3.372480 1_555
Bi5 Ce2 3.372480 1_555
Bi5 Ce9 3.446879 1_555
Bi5 Ce6 3.485506 1_555
Bi5 Ce6 3.485506 1_554
