# generated using pymatgen
data_TmH2ClO2
_symmetry_space_group_name_H-M   'P 1'
_cell_length_a   3.54845000
_cell_length_b   6.18774198
_cell_length_c   6.63499213
_cell_angle_alpha   105.38280338
_cell_angle_beta   90.00000000
_cell_angle_gamma   90.00000000
_symmetry_Int_Tables_number   1
_chemical_formula_structural   TmH2ClO2
_chemical_formula_sum   'Tm2 H4 Cl2 O4'
_cell_volume   140.46469929
_cell_formula_units_Z   2
loop_
 _symmetry_equiv_pos_site_id
 _symmetry_equiv_pos_as_xyz
  1  'x, y, z'
loop_
 _atom_site_type_symbol
 _atom_site_label
 _atom_site_symmetry_multiplicity
 _atom_site_fract_x
 _atom_site_fract_y
 _atom_site_fract_z
 _atom_site_occupancy
  Tm  Tm0  1  0.75000000  0.71832600  0.89095900  1
  Tm  Tm1  1  0.25000000  0.28167400  0.10904100  1
  H  H0  1  0.25000000  0.87338800  0.23117900  1
  H  H1  1  0.75000000  0.12661200  0.76882100  1
  H  H2  1  0.25000000  0.35703300  0.69823400  1
  H  H3  1  0.75000000  0.64296700  0.30176600  1
  Cl  Cl0  1  0.25000000  0.77044200  0.57797000  1
  Cl  Cl1  1  0.75000000  0.22955800  0.42203000  1
  O  O0  1  0.25000000  0.89410500  0.09037500  1
  O  O1  1  0.75000000  0.10589500  0.90962500  1
  O  O2  1  0.25000000  0.45271800  0.84119200  1
  O  O3  1  0.75000000  0.54728200  0.15880800  1
loop_
_geom_bond_atom_site_label_1
_geom_bond_atom_site_label_2
_geom_bond_distance
_geom_bond_site_symmetry_2
H0 O0 0.976095 1_555
H1 O1 0.976095 1_555
H2 O2 0.975862 1_555
H3 O3 0.975862 1_555
Cl0 Tm0 2.814206 1_555
Cl0 Tm0 2.814206 1_455
Cl1 Tm1 2.814206 1_655
Cl1 Tm1 2.814206 1_555
O0 Tm0 2.306092 1_454
O0 Tm0 2.306092 1_554
O0 Tm1 2.368336 1_565
O1 Tm1 2.306092 1_656
O1 Tm1 2.306092 1_556
O1 Tm0 2.368336 1_545
O2 Tm1 2.297043 1_556
O2 Tm0 2.381203 1_455
O2 Tm0 2.381203 1_555
O3 Tm0 2.297043 1_554
O3 Tm1 2.381203 1_655
O3 Tm1 2.381203 1_555
