# generated using pymatgen
data_Ca11GaSb9
_symmetry_space_group_name_H-M   'P 1'
_cell_length_a   12.03621545
_cell_length_b   12.03627898
_cell_length_c   12.03626591
_cell_angle_alpha   120.98613783
_cell_angle_beta   117.27664551
_cell_angle_gamma   91.54032786
_symmetry_Int_Tables_number   1
_chemical_formula_structural   Ca11GaSb9
_chemical_formula_sum   'Ca22 Ga2 Sb18'
_cell_volume   1247.10557076
_cell_formula_units_Z   2
loop_
 _symmetry_equiv_pos_site_id
 _symmetry_equiv_pos_as_xyz
  1  'x, y, z'
loop_
 _atom_site_type_symbol
 _atom_site_label
 _atom_site_symmetry_multiplicity
 _atom_site_fract_x
 _atom_site_fract_y
 _atom_site_fract_z
 _atom_site_occupancy
  Ca  Ca0  1  0.29090932  0.08721306  0.34944553  1
  Ca  Ca1  1  0.73774659  0.94146175  0.65055521  1
  Ca  Ca2  1  0.23775417  0.58720859  0.79629742  1
  Ca  Ca3  1  0.79090343  0.44145870  0.20370330  1
  Ca  Ca4  1  0.60528773  0.42392440  0.36438967  1
  Ca  Ca5  1  0.05953419  0.24090268  0.63559944  1
  Ca  Ca6  1  0.55953266  0.92393791  0.81863905  1
  Ca  Ca7  1  0.10528805  0.74089096  0.18135774  1
  Ca  Ca8  1  0.09833174  0.36272922  0.36980175  1
  Ca  Ca9  1  0.99292041  0.72851540  0.63018429  1
  Ca  Ca10  1  0.49291945  0.86273287  0.26440333  1
  Ca  Ca11  1  0.59832576  0.22852755  0.73560190  1
  Ca  Ca12  1  0.50182052  0.51646696  0.67011430  1
  Ca  Ca13  1  0.84634719  0.83170664  0.32987489  1
  Ca  Ca14  1  0.34634056  0.01646764  0.01464271  1
  Ca  Ca15  1  0.00182759  0.33171013  0.98535290  1
  Ca  Ca16  1  0.99442491  0.99442662  -0.00000850  1
  Ca  Ca17  1  0.49442508  0.49442247  -0.00000748  1
  Ca  Ca18  1  0.35804294  0.61872842  0.37417269  1
  Ca  Ca19  1  0.24453538  0.98386096  0.62580883  1
  Ca  Ca20  1  0.74455003  0.11872447  0.26067801  1
  Ca  Ca21  1  0.85803768  0.48386930  0.73930854  1
  Ga  Ga0  1  0.27805801  0.27805308  0.99999056  1
  Ga  Ga1  1  0.77805679  0.77805701  -0.00001204  1
  Sb  Sb0  1  0.72499896  0.71761496  0.72055496  1
  Sb  Sb1  1  0.99705848  0.00443777  0.27945143  1
  Sb  Sb2  1  0.49701954  0.21758866  0.99258103  1
  Sb  Sb3  1  0.22500994  0.50445392  0.00741655  1
  Sb  Sb4  1  0.56678819  0.21131723  0.42606286  1
  Sb  Sb5  1  0.78528607  0.14080720  0.57403708  1
  Sb  Sb6  1  0.28527323  0.71122365  0.64446302  1
  Sb  Sb7  1  0.06678677  0.64074257  0.35549413  1
  Sb  Sb8  1  0.28494698  0.30210444  0.24453633  1
  Sb  Sb9  1  0.05753499  0.04039921  0.75542363  1
  Sb  Sb10  1  0.55755742  0.80211405  0.01715519  1
  Sb  Sb11  1  0.78496955  0.54041681  0.98286581  1
  Sb  Sb12  1  0.92240469  0.42237034  0.50003264  1
  Sb  Sb13  1  0.42238889  0.92236585  0.50002552  1
  Sb  Sb14  1  0.67111683  0.66845315  0.35524542  1
  Sb  Sb15  1  0.31319472  0.31587256  0.64475432  1
  Sb  Sb16  1  0.81323760  0.16845611  0.99735952  1
  Sb  Sb17  1  0.17110395  0.81586272  0.00264450  1
loop_
_geom_bond_atom_site_label_1
_geom_bond_atom_site_label_2
_geom_bond_distance
_geom_bond_site_symmetry_2
Ca0 Sb15 3.048649 1_555
Ca0 Sb4 3.100962 1_555
Ca0 Sb17 3.219097 1_545
Ca0 Sb1 3.229072 1_455
Ca0 Sb13 3.311909 1_545
Ca0 Sb8 3.402843 1_555
Ca1 Sb14 3.048643 1_555
Ca1 Sb5 3.101164 1_565
Ca1 Sb16 3.218959 1_565
Ca1 Sb0 3.228961 1_555
Ca1 Sb13 3.311170 1_555
Ca1 Sb9 3.402834 1_665
Ca2 Sb17 3.048468 1_556
Ca2 Sb6 3.100969 1_555
Ca2 Sb15 3.218892 1_555
Ca2 Sb3 3.229238 1_556
Ca2 Sb12 3.311125 1_455
Ca2 Sb10 3.402907 1_556
Ca3 Sb16 3.048661 1_554
Ca3 Sb7 3.101068 1_655
Ca3 Sb14 3.218903 1_555
Ca3 Sb2 3.229345 1_554
Ca3 Sb12 3.311842 1_555
Ca3 Sb11 3.402870 1_554
Ca4 Sb4 3.085725 1_555
Ca4 Sb14 3.096859 1_555
Ca4 Sb2 3.306086 1_554
Ca4 Sb0 3.377961 1_555
Ca4 Sb8 3.393714 1_555
Ca4 Sb12 3.399713 1_555
Ca5 Sb5 3.085723 1_455
Ca5 Sb15 3.096617 1_555
Ca5 Sb3 3.306177 1_556
Ca5 Sb1 3.377825 1_455
Ca5 Sb9 3.393702 1_555
Ca5 Sb12 3.398888 1_455
Ca6 Sb6 3.085917 1_555
Ca6 Sb16 3.096966 1_565
Ca6 Sb0 3.305972 1_555
Ca6 Sb2 3.377769 1_565
Ca6 Sb10 3.393746 1_556
Ca6 Sb13 3.398996 1_555
Ca7 Sb7 3.085845 1_555
Ca7 Sb17 3.096910 1_555
Ca7 Sb1 3.305883 1_465
Ca7 Sb3 3.377761 1_555
Ca7 Sb11 3.393519 1_454
Ca7 Sb13 3.399597 1_555
Ca8 Sb12 3.069448 1_455
Ca8 Sb8 3.148046 1_555
Ca8 Sb7 3.460188 1_555
Ca8 Sb6 3.461611 1_555
Ca8 Sb16 3.466183 1_454
Ca8 Sb15 3.480512 1_555
Ca9 Sb12 3.069532 1_555
Ca9 Sb9 3.148176 1_665
Ca9 Sb6 3.460760 1_655
Ca9 Sb7 3.462086 1_655
Ca9 Sb17 3.466377 1_656
Ca9 Sb14 3.480508 1_555
Ca10 Sb13 3.069578 1_555
Ca10 Sb10 3.148140 1_555
Ca10 Sb5 3.460843 1_565
Ca10 Sb4 3.462357 1_565
Ca10 Sb14 3.466512 1_555
Ca10 Sb17 3.480650 1_555
Ca11 Sb13 3.069520 1_545
Ca11 Sb11 3.148217 1_555
Ca11 Sb4 3.460151 1_555
Ca11 Sb5 3.461904 1_555
Ca11 Sb15 3.466538 1_555
Ca11 Sb16 3.480864 1_555
Ca12 Sb15 3.064031 1_555
Ca12 Sb0 3.176173 1_555
Ca12 Ga1 3.346323 1_556
Ca12 Sb10 3.498426 1_556
Ca12 Sb6 3.566485 1_555
Ca12 Sb11 3.597122 1_555
Ca12 Sb8 3.671989 1_555
Ca12 Sb4 3.725717 1_555
Ca13 Sb14 3.063989 1_555
Ca13 Sb1 3.175983 1_565
Ca13 Ga1 3.346393 1_555
Ca13 Sb11 3.498209 1_554
Ca13 Sb7 3.567310 1_655
Ca13 Sb10 3.596897 1_555
Ca13 Sb9 3.671730 1_665
Ca13 Sb5 3.726528 1_565
Ca14 Sb17 3.063903 1_545
Ca14 Sb2 3.175996 1_554
Ca14 Ga0 3.346298 1_554
Ca14 Sb8 3.498272 1_555
Ca14 Sb4 3.567442 1_555
Ca14 Sb9 3.597137 1_554
Ca14 Sb10 3.671914 1_545
Ca14 Sb6 3.726725 1_544
Ca15 Sb16 3.063944 1_455
Ca15 Sb3 3.175995 1_556
Ca15 Ga0 3.346330 1_555
Ca15 Sb9 3.498349 1_555
Ca15 Sb5 3.566585 1_455
Ca15 Sb8 3.596854 1_556
Ca15 Sb11 3.671852 1_455
Ca15 Sb7 3.725988 1_556
Ca16 Sb16 3.065151 1_564
Ca16 Sb17 3.065390 1_655
Ca16 Sb0 3.288300 1_554
Ca16 Sb1 3.288530 1_565
Ca16 Sb8 3.640321 1_665
Ca16 Sb9 3.640403 1_664
Ca17 Sb15 3.065373 1_554
Ca17 Sb14 3.065488 1_555
Ca17 Sb3 3.288381 1_555
Ca17 Sb2 3.288400 1_554
Ca17 Sb11 3.640404 1_554
Ca17 Sb10 3.640441 1_555
Ca18 Sb13 3.053399 1_555
Ca18 Sb8 3.189189 1_555
Ca18 Sb3 3.330697 1_555
Ca18 Sb6 3.394896 1_555
Ca18 Sb7 3.434971 1_555
Ca19 Sb13 3.053580 1_555
Ca19 Sb9 3.189136 1_565
Ca19 Sb2 3.330803 1_565
Ca19 Sb7 3.395324 1_555
Ca19 Sb6 3.435633 1_555
Ca20 Sb12 3.053672 1_555
Ca20 Sb10 3.189090 1_545
Ca20 Sb1 3.331016 1_555
Ca20 Sb4 3.395596 1_555
Ca20 Sb5 3.435452 1_555
Ca21 Sb12 3.053414 1_555
Ca21 Sb11 3.189253 1_555
Ca21 Sb0 3.330951 1_555
Ca21 Sb5 3.394924 1_555
Ca21 Sb4 3.434793 1_555
Ga0 Sb8 2.766232 1_556
Ga0 Sb9 2.766392 1_555
Ga0 Sb2 2.781188 1_555
Ga0 Sb3 2.781453 1_556
Ga1 Sb11 2.766277 1_554
Ga1 Sb10 2.766313 1_555
Ga1 Sb0 2.781370 1_554
Ga1 Sb1 2.781538 1_565
Sb4 Sb5 2.862146 1_555
Sb6 Sb7 2.861982 1_555
