# generated using pymatgen
data_Mg149H
_symmetry_space_group_name_H-M   'P 1'
_cell_length_a   15.94712798
_cell_length_b   15.94713525
_cell_length_c   15.64515602
_cell_angle_alpha   90.00000000
_cell_angle_beta   90.00000000
_cell_angle_gamma   120.00001051
_symmetry_Int_Tables_number   1
_chemical_formula_structural   Mg149H
_chemical_formula_sum   'Mg149 H1'
_cell_volume   3445.68554863
_cell_formula_units_Z   1
loop_
 _symmetry_equiv_pos_site_id
 _symmetry_equiv_pos_as_xyz
  1  'x, y, z'
loop_
 _atom_site_type_symbol
 _atom_site_label
 _atom_site_symmetry_multiplicity
 _atom_site_fract_x
 _atom_site_fract_y
 _atom_site_fract_z
 _atom_site_occupancy
  Mg  Mg0  1  0.80426668  0.00078690  -0.00000000  1
  Mg  Mg1  1  0.19652022  0.00078690  -0.00000000  1
  Mg  Mg2  1  0.19652022  0.19573232  -0.00000000  1
  Mg  Mg3  1  0.99921310  0.19573332  -0.00000000  1
  Mg  Mg4  1  0.39907225  0.19953612  -0.00000000  1
  Mg  Mg5  1  0.80046388  0.19953612  -0.00000000  1
  Mg  Mg6  1  0.59994812  0.19989624  -0.00000000  1
  Mg  Mg7  1  0.19935145  0.39870290  -0.00000000  1
  Mg  Mg8  1  0.00024235  0.39964207  -0.00000000  1
  Mg  Mg9  1  0.39939972  0.39964307  -0.00000000  1
  Mg  Mg10  1  0.80010376  0.40005188  -0.00000000  1
  Mg  Mg11  1  0.59994812  0.40005188  -0.00000000  1
  Mg  Mg12  1  0.20018096  0.60008998  -0.00000000  1
  Mg  Mg13  1  0.39990902  0.60008998  -0.00000000  1
  Mg  Mg14  1  0.00024235  0.60059928  -0.00000000  1
  Mg  Mg15  1  0.60035693  0.60060028  -0.00000000  1
  Mg  Mg16  1  0.80046388  0.60092875  -0.00000000  1
  Mg  Mg17  1  0.39990902  0.79981904  -0.00000000  1
  Mg  Mg18  1  0.60129810  0.80064855  -0.00000000  1
  Mg  Mg19  1  0.19935145  0.80064855  -0.00000000  1
  Mg  Mg20  1  0.80426668  0.80347978  -0.00000000  1
  Mg  Mg21  1  0.99921310  0.80348078  -0.00000000  1
  Mg  Mg22  1  0.60035693  0.99975665  -0.00000000  1
  Mg  Mg23  1  0.39939972  0.99975665  -0.00000000  1
  Mg  Mg24  1  0.06509454  0.13018809  0.16279252  1
  Mg  Mg25  1  0.06509454  0.93490546  0.16279252  1
  Mg  Mg26  1  0.86981191  0.93490546  0.16279252  1
  Mg  Mg27  1  0.26583390  0.33244644  0.16615081  1
  Mg  Mg28  1  0.06661154  0.33244644  0.16615081  1
  Mg  Mg29  1  0.06661154  0.73416510  0.16615081  1
  Mg  Mg30  1  0.66755356  0.73416510  0.16615081  1
  Mg  Mg31  1  0.66755356  0.93338846  0.16615081  1
  Mg  Mg32  1  0.26583390  0.93338846  0.16615081  1
  Mg  Mg33  1  0.66666700  0.33333300  0.16637823  1
  Mg  Mg34  1  0.66689911  0.13311682  0.16640233  1
  Mg  Mg35  1  0.46621772  0.13311782  0.16640233  1
  Mg  Mg36  1  0.86688218  0.33309989  0.16640233  1
  Mg  Mg37  1  0.46621772  0.33310089  0.16640233  1
  Mg  Mg38  1  0.86688218  0.53378228  0.16640233  1
  Mg  Mg39  1  0.66689911  0.53378228  0.16640233  1
  Mg  Mg40  1  0.86710031  0.13289969  0.16644322  1
  Mg  Mg41  1  0.26579938  0.13289969  0.16644322  1
  Mg  Mg42  1  0.86710031  0.73420062  0.16644322  1
  Mg  Mg43  1  0.26644207  0.53288314  0.16645089  1
  Mg  Mg44  1  0.46711686  0.73355793  0.16645089  1
  Mg  Mg45  1  0.26644207  0.73355893  0.16645089  1
  Mg  Mg46  1  0.06665929  0.53332965  0.16663688  1
  Mg  Mg47  1  0.46667035  0.53332965  0.16663688  1
  Mg  Mg48  1  0.46667035  0.93333971  0.16663688  1
  Mg  Mg49  1  0.00000000  -0.00000000  0.33088160  1
  Mg  Mg50  1  0.19952595  0.99969741  0.33294646  1
  Mg  Mg51  1  0.80017246  0.99969841  0.33294646  1
  Mg  Mg52  1  0.00030259  0.19982854  0.33294646  1
  Mg  Mg53  1  0.19952595  0.19982854  0.33294646  1
  Mg  Mg54  1  0.80017246  0.80047405  0.33294646  1
  Mg  Mg55  1  0.00030259  0.80047405  0.33294646  1
  Mg  Mg56  1  0.59999428  0.19998757  0.33304267  1
  Mg  Mg57  1  0.80001243  0.40000572  0.33304267  1
  Mg  Mg58  1  0.59999428  0.40000672  0.33304267  1
  Mg  Mg59  1  0.80020274  0.19979726  0.33308636  1
  Mg  Mg60  1  0.39959453  0.19979726  0.33308636  1
  Mg  Mg61  1  0.80020274  0.60040547  0.33308636  1
  Mg  Mg62  1  0.39992330  0.99995800  0.33324039  1
  Mg  Mg63  1  0.60003570  0.99995800  0.33324039  1
  Mg  Mg64  1  0.00004200  0.39996430  0.33324039  1
  Mg  Mg65  1  0.39992330  0.39996530  0.33324039  1
  Mg  Mg66  1  0.00004200  0.60007670  0.33324039  1
  Mg  Mg67  1  0.60003570  0.60007670  0.33324039  1
  Mg  Mg68  1  0.20000183  0.40000266  0.33314891  1
  Mg  Mg69  1  0.59999734  0.79999817  0.33314891  1
  Mg  Mg70  1  0.20000183  0.79999917  0.33314891  1
  Mg  Mg71  1  0.20003543  0.60001722  0.33342376  1
  Mg  Mg72  1  0.39998178  0.60001722  0.33342376  1
  Mg  Mg73  1  0.39998178  0.79996457  0.33342376  1
  Mg  Mg74  1  0.06641262  0.13282525  0.50000000  1
  Mg  Mg75  1  0.26661305  0.13330653  0.50000000  1
  Mg  Mg76  1  0.86669347  0.13330653  0.50000000  1
  Mg  Mg77  1  0.66670125  0.13361993  0.50000000  1
  Mg  Mg78  1  0.46691869  0.13361993  0.50000000  1
  Mg  Mg79  1  0.06655285  0.33312849  0.50000000  1
  Mg  Mg80  1  0.26657464  0.33312849  0.50000000  1
  Mg  Mg81  1  0.86637907  0.33329775  0.50000000  1
  Mg  Mg82  1  0.46691869  0.33329775  0.50000000  1
  Mg  Mg83  1  0.66666700  0.33333300  0.50000000  1
  Mg  Mg84  1  0.66670125  0.53308131  0.50000000  1
  Mg  Mg85  1  0.86637907  0.53308131  0.50000000  1
  Mg  Mg86  1  0.06644114  0.53322057  0.50000000  1
  Mg  Mg87  1  0.46677943  0.53322057  0.50000000  1
  Mg  Mg88  1  0.26654626  0.53309252  0.50000000  1
  Mg  Mg89  1  0.86669347  0.73338695  0.50000000  1
  Mg  Mg90  1  0.06655285  0.73342436  0.50000000  1
  Mg  Mg91  1  0.66687051  0.73342536  0.50000000  1
  Mg  Mg92  1  0.46690748  0.73345374  0.50000000  1
  Mg  Mg93  1  0.26654626  0.73345374  0.50000000  1
  Mg  Mg94  1  0.66687051  0.93344615  0.50000000  1
  Mg  Mg95  1  0.26657464  0.93344615  0.50000000  1
  Mg  Mg96  1  0.86717475  0.93358738  0.50000000  1
  Mg  Mg97  1  0.06641262  0.93358738  0.50000000  1
  Mg  Mg98  1  0.46677943  0.93355886  0.50000000  1
  Mg  Mg99  1  0.20003543  0.60001722  0.66657624  1
  Mg  Mg100  1  0.39998178  0.60001722  0.66657624  1
  Mg  Mg101  1  0.39998178  0.79996457  0.66657624  1
  Mg  Mg102  1  0.20000183  0.40000266  0.66685209  1
  Mg  Mg103  1  0.59999734  0.79999817  0.66685209  1
  Mg  Mg104  1  0.20000183  0.79999917  0.66685209  1
  Mg  Mg105  1  0.39992330  0.99995800  0.66675961  1
  Mg  Mg106  1  0.60003570  0.99995800  0.66675961  1
  Mg  Mg107  1  0.00004200  0.39996430  0.66675961  1
  Mg  Mg108  1  0.39992330  0.39996530  0.66675961  1
  Mg  Mg109  1  0.00004200  0.60007670  0.66675961  1
  Mg  Mg110  1  0.60003570  0.60007670  0.66675961  1
  Mg  Mg111  1  0.80020274  0.19979726  0.66691364  1
  Mg  Mg112  1  0.39959453  0.19979726  0.66691364  1
  Mg  Mg113  1  0.80020274  0.60040547  0.66691364  1
  Mg  Mg114  1  0.59999428  0.19998757  0.66695633  1
  Mg  Mg115  1  0.80001243  0.40000572  0.66695633  1
  Mg  Mg116  1  0.59999428  0.40000672  0.66695633  1
  Mg  Mg117  1  0.19952595  0.99969741  0.66705354  1
  Mg  Mg118  1  0.80017246  0.99969841  0.66705354  1
  Mg  Mg119  1  0.00030259  0.19982854  0.66705354  1
  Mg  Mg120  1  0.19952595  0.19982854  0.66705354  1
  Mg  Mg121  1  0.80017246  0.80047405  0.66705354  1
  Mg  Mg122  1  0.00030259  0.80047405  0.66705354  1
  Mg  Mg123  1  0.00000000  -0.00000000  0.66911840  1
  Mg  Mg124  1  0.06665929  0.53332965  0.83336312  1
  Mg  Mg125  1  0.46667035  0.53332965  0.83336312  1
  Mg  Mg126  1  0.46667035  0.93333971  0.83336312  1
  Mg  Mg127  1  0.26644207  0.53288314  0.83354911  1
  Mg  Mg128  1  0.46711686  0.73355793  0.83354911  1
  Mg  Mg129  1  0.26644207  0.73355893  0.83354911  1
  Mg  Mg130  1  0.86710031  0.13289969  0.83355678  1
  Mg  Mg131  1  0.26579938  0.13289969  0.83355678  1
  Mg  Mg132  1  0.86710031  0.73420062  0.83355678  1
  Mg  Mg133  1  0.66689911  0.13311682  0.83359767  1
  Mg  Mg134  1  0.46621772  0.13311782  0.83359767  1
  Mg  Mg135  1  0.86688218  0.33309989  0.83359767  1
  Mg  Mg136  1  0.46621772  0.33310089  0.83359767  1
  Mg  Mg137  1  0.86688218  0.53378228  0.83359767  1
  Mg  Mg138  1  0.66689911  0.53378228  0.83359767  1
  Mg  Mg139  1  0.66666700  0.33333300  0.83362177  1
  Mg  Mg140  1  0.26583390  0.33244644  0.83384919  1
  Mg  Mg141  1  0.06661154  0.33244644  0.83384919  1
  Mg  Mg142  1  0.06661154  0.73416510  0.83384919  1
  Mg  Mg143  1  0.66755356  0.73416510  0.83384919  1
  Mg  Mg144  1  0.66755356  0.93338846  0.83384919  1
  Mg  Mg145  1  0.26583390  0.93338846  0.83384919  1
  Mg  Mg146  1  0.06509454  0.13018809  0.83720748  1
  Mg  Mg147  1  0.06509454  0.93490546  0.83720748  1
  Mg  Mg148  1  0.86981191  0.93490546  0.83720748  1
  H  H0  1  0.00000000  -0.00000000  -0.00000000  1
loop_
_geom_bond_atom_site_label_1
_geom_bond_atom_site_label_2
_geom_bond_distance
_geom_bond_site_symmetry_2
Mg0 Mg40 3.180037 1_555
Mg0 Mg130 3.180037 1_554
Mg0 Mg5 3.200234 1_555
Mg0 Mg144 3.212833 1_544
Mg0 Mg31 3.212833 1_545
Mg0 Mg18 3.214437 1_545
Mg0 Mg22 3.243591 1_545
Mg1 Mg41 3.180037 1_555
Mg1 Mg131 3.180037 1_554
Mg1 Mg4 3.200232 1_555
Mg1 Mg145 3.212825 1_544
Mg1 Mg32 3.212825 1_545
Mg1 Mg19 3.214446 1_545
Mg1 Mg23 3.243591 1_545
Mg2 Mg41 3.180029 1_555
Mg2 Mg4 3.200224 1_555
Mg2 Mg27 3.212841 1_555
Mg2 Mg7 3.214462 1_555
Mg2 Mg9 3.243600 1_555
Mg3 Mg40 3.180036 1_555
Mg3 Mg5 3.200232 1_555
Mg3 Mg7 3.214445 1_655
Mg3 Mg8 3.243585 1_655
Mg4 Mg9 3.188525 1_555
Mg4 Mg41 3.188841 1_555
Mg4 Mg6 3.200526 1_555
Mg5 Mg8 3.188507 1_655
Mg5 Mg6 3.200526 1_555
Mg7 Mg9 3.182725 1_555
Mg7 Mg8 3.182733 1_555
Mg10 Mg139 3.189318 1_554
Mg10 Mg33 3.189318 1_555
Mg10 Mg11 3.191908 1_555
Mg10 Mg6 3.191908 1_555
Mg10 Mg137 3.191972 1_554
Mg10 Mg38 3.191972 1_555
Mg10 Mg135 3.191972 1_554
Mg10 Mg36 3.191972 1_555
Mg10 Mg14 3.194901 1_655
Mg10 Mg8 3.194908 1_655
Mg10 Mg5 3.200527 1_555
Mg10 Mg16 3.200543 1_555
Mg11 Mg139 3.189327 1_554
Mg11 Mg33 3.189327 1_555
Mg11 Mg6 3.191909 1_555
Mg11 Mg136 3.191971 1_554
Mg11 Mg37 3.191971 1_555
Mg11 Mg138 3.191972 1_554
Mg11 Mg39 3.191972 1_555
Mg11 Mg9 3.194916 1_555
Mg11 Mg15 3.194918 1_555
Mg11 Mg4 3.200526 1_555
Mg11 Mg16 3.200534 1_555
Mg12 Mg13 3.185089 1_555
Mg12 Mg17 3.185097 1_555
Mg12 Mg43 3.190505 1_555
Mg12 Mg127 3.190505 1_554
Mg12 Mg45 3.190513 1_555
Mg12 Mg129 3.190513 1_554
Mg12 Mg14 3.192515 1_555
Mg12 Mg8 3.192516 1_555
Mg12 Mg46 3.193299 1_555
Mg12 Mg124 3.193299 1_554
Mg12 Mg7 3.204953 1_555
Mg12 Mg19 3.204969 1_555
Mg13 Mg17 3.185106 1_555
Mg13 Mg43 3.190496 1_555
Mg13 Mg44 3.190505 1_555
Mg13 Mg9 3.192501 1_555
Mg13 Mg15 3.192507 1_555
Mg13 Mg47 3.193299 1_555
Mg13 Mg7 3.204952 1_555
Mg13 Mg18 3.204976 1_555
Mg14 Mg19 3.182742 1_555
Mg14 Mg142 3.187454 1_554
Mg14 Mg29 3.187454 1_555
Mg14 Mg16 3.188523 1_455
Mg14 Mg38 3.189016 1_455
Mg14 Mg46 3.194622 1_555
Mg14 Mg8 3.204692 1_555
Mg14 Mg21 3.243617 1_455
Mg15 Mg18 3.182719 1_555
Mg15 Mg30 3.187446 1_555
Mg15 Mg16 3.188515 1_555
Mg15 Mg39 3.189016 1_555
Mg15 Mg47 3.194622 1_555
Mg15 Mg9 3.204691 1_555
Mg15 Mg20 3.243592 1_555
Mg16 Mg42 3.188834 1_555
Mg16 Mg39 3.190653 1_555
Mg16 Mg38 3.190654 1_555
Mg16 Mg20 3.200218 1_555
Mg16 Mg21 3.200232 1_555
Mg17 Mg45 3.190496 1_555
Mg17 Mg44 3.190512 1_555
Mg17 Mg23 3.192501 1_555
Mg17 Mg22 3.192508 1_555
Mg17 Mg48 3.193292 1_555
Mg17 Mg19 3.204952 1_555
Mg17 Mg18 3.204984 1_555
Mg18 Mg30 3.180852 1_555
Mg18 Mg31 3.180860 1_555
Mg18 Mg22 3.182735 1_555
Mg18 Mg44 3.196197 1_555
Mg18 Mg20 3.214429 1_555
Mg19 Mg29 3.180859 1_555
Mg19 Mg32 3.180860 1_555
Mg19 Mg23 3.182726 1_555
Mg19 Mg45 3.196189 1_555
Mg19 Mg21 3.214453 1_455
Mg20 Mg42 3.180037 1_555
Mg20 Mg30 3.212833 1_555
Mg21 Mg42 3.180036 1_555
Mg21 Mg29 3.212841 1_655
Mg22 Mg31 3.187446 1_555
Mg22 Mg5 3.188523 1_565
Mg22 Mg34 3.189016 1_565
Mg22 Mg48 3.194622 1_555
Mg22 Mg6 3.194918 1_565
Mg22 Mg23 3.204690 1_555
Mg23 Mg32 3.187453 1_555
Mg23 Mg4 3.188525 1_565
Mg23 Mg35 3.189024 1_565
Mg23 Mg48 3.194630 1_555
Mg23 Mg6 3.194917 1_565
Mg24 Mg41 3.179778 1_555
Mg24 Mg40 3.179794 1_455
Mg24 Mg49 3.185666 1_555
Mg24 Mg27 3.213826 1_555
Mg24 Mg28 3.213843 1_555
Mg24 Mg53 3.245779 1_555
Mg24 Mg52 3.245787 1_555
Mg25 Mg41 3.179786 1_565
Mg25 Mg42 3.179786 1_455
Mg25 Mg49 3.185674 1_565
Mg25 Mg32 3.213810 1_555
Mg25 Mg29 3.213827 1_555
Mg25 Mg50 3.245779 1_555
Mg25 Mg55 3.245780 1_555
Mg26 Mg42 3.179780 1_555
Mg26 Mg40 3.179795 1_565
Mg26 Mg49 3.185666 1_665
Mg26 Mg30 3.213834 1_555
Mg26 Mg31 3.213842 1_555
Mg26 Mg54 3.245780 1_555
Mg26 Mg51 3.245787 1_555
Mg27 Mg28 3.177024 1_555
Mg27 Mg7 3.180852 1_555
Mg27 Mg41 3.181927 1_555
Mg27 Mg9 3.187453 1_555
Mg27 Mg53 3.188141 1_555
Mg27 Mg37 3.190343 1_555
Mg27 Mg43 3.191556 1_555
Mg27 Mg68 3.196883 1_555
Mg27 Mg47 3.203147 1_555
Mg27 Mg65 3.203619 1_555
Mg28 Mg7 3.180859 1_555
Mg28 Mg40 3.181918 1_455
Mg28 Mg8 3.187446 1_555
Mg28 Mg52 3.188141 1_555
Mg28 Mg36 3.190335 1_455
Mg28 Mg43 3.191571 1_555
Mg28 Mg68 3.196898 1_555
Mg28 Mg46 3.203140 1_555
Mg28 Mg64 3.203603 1_555
Mg28 Mg3 3.212833 1_455
Mg29 Mg32 3.177033 1_555
Mg29 Mg42 3.181918 1_455
Mg29 Mg55 3.188141 1_555
Mg29 Mg38 3.190335 1_455
Mg29 Mg45 3.191571 1_555
Mg29 Mg70 3.196898 1_555
Mg29 Mg46 3.203140 1_555
Mg29 Mg66 3.203611 1_555
Mg30 Mg31 3.177042 1_555
Mg30 Mg42 3.181918 1_555
Mg30 Mg54 3.188148 1_555
Mg30 Mg39 3.190329 1_555
Mg30 Mg44 3.191563 1_555
Mg30 Mg69 3.196891 1_555
Mg30 Mg47 3.203139 1_555
Mg30 Mg67 3.203611 1_555
Mg31 Mg40 3.181918 1_565
Mg31 Mg51 3.188148 1_555
Mg31 Mg34 3.190329 1_565
Mg31 Mg44 3.191571 1_555
Mg31 Mg69 3.196899 1_555
Mg31 Mg48 3.203131 1_555
Mg31 Mg63 3.203603 1_555
Mg32 Mg41 3.181911 1_565
Mg32 Mg50 3.188133 1_555
Mg32 Mg35 3.190343 1_565
Mg32 Mg45 3.191572 1_555
Mg32 Mg70 3.196891 1_555
Mg32 Mg48 3.203162 1_555
Mg32 Mg62 3.203619 1_555
Mg33 Mg6 3.189319 1_555
Mg33 Mg57 3.192246 1_555
Mg33 Mg56 3.192247 1_555
Mg33 Mg58 3.192255 1_555
Mg33 Mg36 3.194717 1_555
Mg33 Mg35 3.194726 1_555
Mg33 Mg38 3.194726 1_555
Mg33 Mg34 3.194727 1_555
Mg33 Mg37 3.194741 1_555
Mg33 Mg39 3.194743 1_555
Mg34 Mg36 3.189156 1_555
Mg34 Mg48 3.189481 1_545
Mg34 Mg5 3.190653 1_555
Mg34 Mg6 3.191972 1_555
Mg34 Mg59 3.192164 1_555
Mg34 Mg63 3.192984 1_545
Mg34 Mg40 3.194367 1_555
Mg34 Mg56 3.195370 1_555
Mg34 Mg35 3.200300 1_555
Mg35 Mg37 3.189157 1_555
Mg35 Mg48 3.189506 1_545
Mg35 Mg4 3.190646 1_555
Mg35 Mg6 3.191971 1_555
Mg35 Mg60 3.192156 1_555
Mg35 Mg62 3.192992 1_545
Mg35 Mg41 3.194359 1_555
Mg35 Mg56 3.195377 1_555
Mg36 Mg8 3.189016 1_655
Mg36 Mg46 3.189489 1_655
Mg36 Mg5 3.190646 1_555
Mg36 Mg59 3.192156 1_555
Mg36 Mg64 3.192992 1_655
Mg36 Mg40 3.194360 1_555
Mg36 Mg57 3.195370 1_555
Mg36 Mg38 3.200309 1_555
Mg37 Mg9 3.189016 1_555
Mg37 Mg47 3.189474 1_555
Mg37 Mg4 3.190654 1_555
Mg37 Mg60 3.192164 1_555
Mg37 Mg65 3.192984 1_555
Mg37 Mg41 3.194367 1_555
Mg37 Mg58 3.195377 1_555
Mg37 Mg39 3.200292 1_555
Mg38 Mg39 3.189156 1_555
Mg38 Mg46 3.189488 1_655
Mg38 Mg61 3.192156 1_555
Mg38 Mg66 3.192992 1_655
Mg38 Mg42 3.194361 1_555
Mg38 Mg57 3.195378 1_555
Mg39 Mg47 3.189473 1_555
Mg39 Mg61 3.192164 1_555
Mg39 Mg67 3.192976 1_555
Mg39 Mg42 3.194367 1_555
Mg39 Mg58 3.195370 1_555
Mg40 Mg5 3.188842 1_555
Mg40 Mg51 3.189043 1_545
Mg40 Mg52 3.189050 1_655
Mg40 Mg59 3.195562 1_555
Mg41 Mg53 3.189050 1_555
Mg41 Mg50 3.189051 1_545
Mg41 Mg60 3.195561 1_555
Mg42 Mg54 3.189043 1_555
Mg42 Mg55 3.189050 1_655
Mg42 Mg61 3.195562 1_555
Mg43 Mg68 3.188976 1_555
Mg43 Mg47 3.189513 1_555
Mg43 Mg46 3.189529 1_555
Mg43 Mg7 3.196189 1_555
Mg43 Mg72 3.197741 1_555
Mg43 Mg71 3.197749 1_555
Mg43 Mg44 3.200187 1_555
Mg43 Mg45 3.200204 1_555
Mg44 Mg69 3.188976 1_555
Mg44 Mg47 3.189514 1_555
Mg44 Mg48 3.189515 1_555
Mg44 Mg72 3.197750 1_555
Mg44 Mg73 3.197757 1_555
Mg44 Mg45 3.200195 1_555
Mg45 Mg70 3.188976 1_555
Mg45 Mg48 3.189505 1_555
Mg45 Mg46 3.189529 1_555
Mg45 Mg73 3.197741 1_555
Mg45 Mg71 3.197757 1_555
Mg46 Mg66 3.191619 1_555
Mg46 Mg64 3.191627 1_555
Mg46 Mg71 3.194056 1_555
Mg46 Mg8 3.194631 1_555
Mg47 Mg65 3.191619 1_555
Mg47 Mg67 3.191627 1_555
Mg47 Mg72 3.194056 1_555
Mg47 Mg9 3.194623 1_555
Mg48 Mg63 3.191627 1_555
Mg48 Mg62 3.191627 1_555
Mg48 Mg73 3.194048 1_555
Mg49 Mg51 3.184437 1_445
Mg49 Mg54 3.184437 1_445
Mg49 Mg50 3.184445 1_545
Mg49 Mg53 3.184445 1_555
Mg49 Mg55 3.184447 1_545
Mg49 Mg52 3.184447 1_555
Mg49 Mg96 3.219584 1_445
Mg49 Mg97 3.219584 1_545
Mg49 Mg74 3.219584 1_555
Mg50 Mg55 3.177041 1_555
Mg50 Mg70 3.188418 1_555
Mg50 Mg60 3.190770 1_565
Mg50 Mg53 3.191518 1_565
Mg50 Mg62 3.193690 1_555
Mg50 Mg97 3.195383 1_555
Mg50 Mg95 3.196866 1_555
Mg50 Mg75 3.199323 1_565
Mg51 Mg54 3.177058 1_555
Mg51 Mg69 3.188440 1_555
Mg51 Mg59 3.190763 1_565
Mg51 Mg52 3.191501 1_665
Mg51 Mg63 3.193682 1_555
Mg51 Mg96 3.195384 1_555
Mg51 Mg94 3.196881 1_555
Mg51 Mg76 3.199315 1_565
Mg52 Mg53 3.177040 1_555
Mg52 Mg68 3.188424 1_555
Mg52 Mg59 3.190769 1_455
Mg52 Mg64 3.193675 1_555
Mg52 Mg74 3.195384 1_555
Mg52 Mg79 3.196866 1_555
Mg52 Mg76 3.199323 1_455
Mg53 Mg68 3.188418 1_555
Mg53 Mg60 3.190769 1_555
Mg53 Mg65 3.193690 1_555
Mg53 Mg74 3.195383 1_555
Mg53 Mg80 3.196866 1_555
Mg53 Mg75 3.199323 1_555
Mg54 Mg69 3.188432 1_555
Mg54 Mg61 3.190763 1_555
Mg54 Mg55 3.191501 1_655
Mg54 Mg67 3.193690 1_555
Mg54 Mg96 3.195384 1_555
Mg54 Mg91 3.196881 1_555
Mg54 Mg89 3.199315 1_555
Mg55 Mg70 3.188424 1_555
Mg55 Mg61 3.190770 1_455
Mg55 Mg66 3.193691 1_555
Mg55 Mg97 3.195384 1_555
Mg55 Mg90 3.196866 1_555
Mg55 Mg89 3.199323 1_455
Mg56 Mg57 3.189715 1_555
Mg56 Mg58 3.189732 1_555
Mg56 Mg62 3.190229 1_545
Mg56 Mg63 3.190230 1_545
Mg56 Mg77 3.193838 1_555
Mg56 Mg78 3.193846 1_555
Mg56 Mg59 3.194269 1_555
Mg56 Mg60 3.194284 1_555
Mg56 Mg83 3.195991 1_555
Mg57 Mg58 3.189723 1_555
Mg57 Mg64 3.190229 1_655
Mg57 Mg66 3.190229 1_655
Mg57 Mg81 3.193838 1_555
Mg57 Mg85 3.193846 1_555
Mg57 Mg59 3.194270 1_555
Mg57 Mg61 3.194286 1_555
Mg57 Mg83 3.195990 1_555
Mg58 Mg67 3.190214 1_555
Mg58 Mg65 3.190229 1_555
Mg58 Mg84 3.193838 1_555
Mg58 Mg82 3.193846 1_555
Mg58 Mg61 3.194269 1_555
Mg58 Mg60 3.194285 1_555
Mg58 Mg83 3.195999 1_555
Mg59 Mg63 3.189480 1_545
Mg59 Mg64 3.189480 1_655
Mg59 Mg76 3.192538 1_555
Mg59 Mg81 3.196680 1_555
Mg59 Mg77 3.196687 1_555
Mg60 Mg62 3.189489 1_545
Mg60 Mg65 3.189489 1_555
Mg60 Mg75 3.192538 1_555
Mg60 Mg82 3.196680 1_555
Mg60 Mg78 3.196688 1_555
Mg61 Mg67 3.189472 1_555
Mg61 Mg66 3.189488 1_655
Mg61 Mg89 3.192538 1_555
Mg61 Mg85 3.196680 1_555
Mg61 Mg84 3.196687 1_555
Mg62 Mg70 3.188472 1_555
Mg62 Mg73 3.189790 1_555
Mg62 Mg63 3.191218 1_555
Mg62 Mg98 3.192747 1_555
Mg62 Mg95 3.193489 1_555
Mg62 Mg78 3.195987 1_565
Mg63 Mg69 3.188481 1_555
Mg63 Mg73 3.189805 1_555
Mg63 Mg98 3.192755 1_555
Mg63 Mg94 3.193474 1_555
Mg63 Mg77 3.195987 1_565
Mg64 Mg68 3.188479 1_555
Mg64 Mg71 3.189797 1_555
Mg64 Mg66 3.191220 1_555
Mg64 Mg86 3.192755 1_555
Mg64 Mg79 3.193474 1_555
Mg64 Mg81 3.195994 1_455
Mg65 Mg68 3.188472 1_555
Mg65 Mg72 3.189790 1_555
Mg65 Mg67 3.191210 1_555
Mg65 Mg87 3.192747 1_555
Mg65 Mg80 3.193489 1_555
Mg65 Mg82 3.195995 1_555
Mg66 Mg70 3.188488 1_555
Mg66 Mg71 3.189796 1_555
Mg66 Mg86 3.192747 1_555
Mg66 Mg90 3.193482 1_555
Mg66 Mg85 3.195994 1_455
Mg67 Mg69 3.188481 1_555
Mg67 Mg72 3.189813 1_555
Mg67 Mg87 3.192755 1_555
Mg67 Mg91 3.193490 1_555
Mg67 Mg84 3.195979 1_555
Mg68 Mg72 3.189385 1_555
Mg68 Mg71 3.189394 1_555
Mg68 Mg88 3.192599 1_555
Mg68 Mg80 3.195442 1_555
Mg68 Mg79 3.195458 1_555
Mg69 Mg72 3.189401 1_555
Mg69 Mg73 3.189409 1_555
Mg69 Mg92 3.192599 1_555
Mg69 Mg91 3.195434 1_555
Mg69 Mg94 3.195450 1_555
Mg70 Mg73 3.189385 1_555
Mg70 Mg71 3.189410 1_555
Mg70 Mg93 3.192599 1_555
Mg70 Mg95 3.195442 1_555
Mg70 Mg90 3.195458 1_555
Mg71 Mg72 3.188570 1_555
Mg71 Mg73 3.188578 1_555
Mg71 Mg88 3.191840 1_555
Mg71 Mg93 3.191848 1_555
Mg71 Mg86 3.193104 1_555
Mg72 Mg73 3.188587 1_555
Mg72 Mg88 3.191839 1_555
Mg72 Mg92 3.191848 1_555
Mg72 Mg87 3.193104 1_555
Mg73 Mg93 3.191839 1_555
Mg73 Mg92 3.191848 1_555
Mg73 Mg98 3.193104 1_555
Mg74 Mg96 3.177272 1_445
Mg74 Mg97 3.177273 1_545
Mg74 Mg75 3.188791 1_555
Mg74 Mg76 3.188791 1_455
Mg74 Mg80 3.193136 1_555
Mg74 Mg79 3.193145 1_555
Mg75 Mg80 3.186894 1_555
Mg75 Mg95 3.186894 1_545
Mg75 Mg97 3.188792 1_545
Mg75 Mg82 3.191796 1_555
Mg75 Mg78 3.191804 1_555
Mg76 Mg79 3.186885 1_655
Mg76 Mg94 3.186901 1_545
Mg76 Mg96 3.188793 1_545
Mg76 Mg81 3.191797 1_555
Mg76 Mg77 3.191803 1_555
Mg77 Mg81 3.184288 1_555
Mg77 Mg83 3.185124 1_555
Mg77 Mg78 3.185958 1_555
Mg77 Mg98 3.189290 1_545
Mg77 Mg94 3.193549 1_545
Mg78 Mg82 3.184289 1_555
Mg78 Mg83 3.185131 1_555
Mg78 Mg98 3.189291 1_545
Mg78 Mg95 3.193556 1_545
Mg79 Mg88 3.189086 1_555
Mg79 Mg80 3.189773 1_555
Mg79 Mg86 3.191787 1_555
Mg79 Mg81 3.193547 1_455
Mg80 Mg88 3.189080 1_555
Mg80 Mg87 3.191793 1_555
Mg80 Mg82 3.193563 1_555
Mg81 Mg83 3.185115 1_555
Mg81 Mg85 3.185975 1_555
Mg81 Mg86 3.189306 1_655
Mg82 Mg83 3.185131 1_555
Mg82 Mg84 3.185966 1_555
Mg82 Mg87 3.189307 1_555
Mg83 Mg85 3.185123 1_555
Mg83 Mg84 3.185140 1_555
Mg84 Mg85 3.184288 1_555
Mg84 Mg87 3.189290 1_555
Mg84 Mg89 3.191804 1_555
Mg84 Mg91 3.193565 1_555
Mg85 Mg86 3.189306 1_655
Mg85 Mg89 3.191797 1_555
Mg85 Mg90 3.193548 1_655
Mg86 Mg90 3.191787 1_555
Mg86 Mg88 3.192123 1_555
Mg86 Mg93 3.192124 1_555
Mg86 Mg99 3.193104 1_555
Mg87 Mg91 3.191785 1_555
Mg87 Mg88 3.192123 1_555
Mg87 Mg92 3.192125 1_555
Mg88 Mg99 3.191840 1_555
Mg88 Mg92 3.195186 1_555
Mg88 Mg93 3.195187 1_555
Mg89 Mg90 3.186885 1_655
Mg89 Mg91 3.186909 1_555
Mg89 Mg97 3.188792 1_655
Mg89 Mg96 3.188793 1_555
Mg90 Mg93 3.189086 1_555
Mg90 Mg95 3.189773 1_555
Mg90 Mg97 3.193145 1_555
Mg91 Mg92 3.189062 1_555
Mg91 Mg94 3.189759 1_555
Mg91 Mg96 3.193144 1_555
Mg92 Mg94 3.189071 1_555
Mg92 Mg98 3.192125 1_555
Mg92 Mg93 3.195186 1_555
Mg93 Mg95 3.189080 1_555
Mg93 Mg99 3.191848 1_555
Mg93 Mg98 3.192124 1_555
Mg94 Mg98 3.191777 1_555
Mg94 Mg96 3.193152 1_555
Mg95 Mg98 3.191793 1_555
Mg95 Mg97 3.193136 1_555
Mg96 Mg97 3.177272 1_655
Mg100 Mg99 3.188570 1_555
Mg100 Mg101 3.188587 1_555
Mg100 Mg102 3.189385 1_555
Mg100 Mg103 3.189401 1_555
Mg100 Mg108 3.189790 1_555
Mg100 Mg110 3.189813 1_555
Mg100 Mg88 3.191839 1_555
Mg100 Mg92 3.191848 1_555
Mg100 Mg87 3.193104 1_555
Mg100 Mg125 3.194056 1_555
Mg100 Mg127 3.197741 1_555
Mg100 Mg128 3.197750 1_555
Mg101 Mg99 3.188578 1_555
Mg101 Mg104 3.189385 1_555
Mg101 Mg103 3.189409 1_555
Mg101 Mg105 3.189790 1_555
Mg101 Mg106 3.189805 1_555
Mg101 Mg93 3.191839 1_555
Mg101 Mg92 3.191848 1_555
Mg101 Mg98 3.193104 1_555
Mg101 Mg126 3.194048 1_555
Mg101 Mg129 3.197741 1_555
Mg101 Mg128 3.197757 1_555
Mg102 Mg120 3.188418 1_555
Mg102 Mg119 3.188424 1_555
Mg102 Mg108 3.188472 1_555
Mg102 Mg107 3.188480 1_555
Mg102 Mg127 3.188964 1_555
Mg102 Mg99 3.189394 1_555
Mg102 Mg88 3.192612 1_555
Mg102 Mg80 3.195455 1_555
Mg102 Mg79 3.195470 1_555
Mg102 Mg140 3.196870 1_555
Mg102 Mg141 3.196885 1_555
Mg103 Mg121 3.188432 1_555
Mg103 Mg118 3.188440 1_555
Mg103 Mg110 3.188481 1_555
Mg103 Mg106 3.188481 1_555
Mg103 Mg128 3.188963 1_555
Mg103 Mg92 3.192611 1_555
Mg103 Mg91 3.195447 1_555
Mg103 Mg94 3.195463 1_555
Mg103 Mg143 3.196878 1_555
Mg103 Mg144 3.196886 1_555
Mg104 Mg117 3.188418 1_555
Mg104 Mg122 3.188424 1_555
Mg104 Mg105 3.188472 1_555
Mg104 Mg109 3.188488 1_555
Mg104 Mg129 3.188964 1_555
Mg104 Mg99 3.189410 1_555
Mg104 Mg93 3.192612 1_555
Mg104 Mg95 3.195455 1_555
Mg104 Mg90 3.195470 1_555
Mg104 Mg145 3.196878 1_555
Mg104 Mg142 3.196885 1_555
Mg105 Mg112 3.189489 1_565
Mg105 Mg114 3.190229 1_565
Mg105 Mg106 3.191218 1_555
Mg105 Mg126 3.191627 1_555
Mg105 Mg98 3.192747 1_555
Mg105 Mg134 3.192992 1_565
Mg105 Mg95 3.193489 1_555
Mg105 Mg117 3.193690 1_555
Mg105 Mg78 3.195987 1_565
Mg105 Mg145 3.203619 1_555
Mg106 Mg111 3.189480 1_565
Mg106 Mg114 3.190230 1_565
Mg106 Mg126 3.191627 1_555
Mg106 Mg98 3.192755 1_555
Mg106 Mg133 3.192984 1_565
Mg106 Mg94 3.193474 1_555
Mg106 Mg118 3.193682 1_555
Mg106 Mg77 3.195987 1_565
Mg106 Mg144 3.203603 1_555
Mg107 Mg111 3.189480 1_455
Mg107 Mg99 3.189797 1_555
Mg107 Mg115 3.190229 1_455
Mg107 Mg109 3.191220 1_555
Mg107 Mg124 3.191627 1_555
Mg107 Mg86 3.192755 1_555
Mg107 Mg135 3.192992 1_455
Mg107 Mg79 3.193474 1_555
Mg107 Mg119 3.193675 1_555
Mg107 Mg81 3.195994 1_455
Mg107 Mg141 3.203603 1_555
Mg108 Mg112 3.189489 1_555
Mg108 Mg116 3.190229 1_555
Mg108 Mg110 3.191210 1_555
Mg108 Mg125 3.191619 1_555
Mg108 Mg87 3.192747 1_555
Mg108 Mg136 3.192984 1_555
Mg108 Mg80 3.193489 1_555
Mg108 Mg120 3.193690 1_555
Mg108 Mg82 3.195995 1_555
Mg108 Mg140 3.203619 1_555
Mg109 Mg113 3.189488 1_455
Mg109 Mg99 3.189796 1_555
Mg109 Mg115 3.190229 1_455
Mg109 Mg124 3.191619 1_555
Mg109 Mg86 3.192747 1_555
Mg109 Mg137 3.192992 1_455
Mg109 Mg90 3.193482 1_555
Mg109 Mg122 3.193691 1_555
Mg109 Mg85 3.195994 1_455
Mg109 Mg142 3.203611 1_555
Mg110 Mg113 3.189472 1_555
Mg110 Mg116 3.190214 1_555
Mg110 Mg125 3.191627 1_555
Mg110 Mg87 3.192755 1_555
Mg110 Mg138 3.192976 1_555
Mg110 Mg91 3.193490 1_555
Mg110 Mg121 3.193690 1_555
Mg110 Mg84 3.195979 1_555
Mg110 Mg143 3.203611 1_555
Mg111 Mg118 3.190763 1_545
Mg111 Mg119 3.190769 1_655
Mg111 Mg135 3.192156 1_555
Mg111 Mg133 3.192164 1_555
Mg111 Mg76 3.192538 1_555
Mg111 Mg114 3.194269 1_555
Mg111 Mg115 3.194270 1_555
Mg111 Mg130 3.195562 1_555
Mg111 Mg81 3.196680 1_555
Mg111 Mg77 3.196687 1_555
Mg112 Mg120 3.190769 1_555
Mg112 Mg117 3.190770 1_545
Mg112 Mg134 3.192156 1_555
Mg112 Mg136 3.192164 1_555
Mg112 Mg75 3.192538 1_555
Mg112 Mg114 3.194284 1_555
Mg112 Mg116 3.194285 1_555
Mg112 Mg131 3.195561 1_555
Mg112 Mg82 3.196680 1_555
Mg112 Mg78 3.196688 1_555
Mg113 Mg121 3.190763 1_555
Mg113 Mg122 3.190770 1_655
Mg113 Mg137 3.192156 1_555
Mg113 Mg138 3.192164 1_555
Mg113 Mg89 3.192538 1_555
Mg113 Mg116 3.194269 1_555
Mg113 Mg115 3.194286 1_555
Mg113 Mg132 3.195562 1_555
Mg113 Mg85 3.196680 1_555
Mg113 Mg84 3.196687 1_555
Mg114 Mg115 3.189715 1_555
Mg114 Mg116 3.189732 1_555
Mg114 Mg139 3.192260 1_555
Mg114 Mg77 3.193825 1_555
Mg114 Mg78 3.193833 1_555
Mg114 Mg133 3.195383 1_555
Mg114 Mg134 3.195390 1_555
Mg114 Mg83 3.195978 1_555
Mg115 Mg116 3.189723 1_555
Mg115 Mg139 3.192259 1_555
Mg115 Mg81 3.193825 1_555
Mg115 Mg85 3.193833 1_555
Mg115 Mg135 3.195383 1_555
Mg115 Mg137 3.195391 1_555
Mg115 Mg83 3.195978 1_555
Mg116 Mg139 3.192268 1_555
Mg116 Mg84 3.193825 1_555
Mg116 Mg82 3.193833 1_555
Mg116 Mg138 3.195383 1_555
Mg116 Mg136 3.195390 1_555
Mg116 Mg83 3.195986 1_555
Mg117 Mg122 3.177041 1_555
Mg117 Mg123 3.184445 1_565
Mg117 Mg145 3.188133 1_555
Mg117 Mg131 3.189051 1_565
Mg117 Mg120 3.191518 1_565
Mg117 Mg97 3.195383 1_555
Mg117 Mg95 3.196866 1_555
Mg117 Mg75 3.199323 1_565
Mg117 Mg147 3.245779 1_555
Mg118 Mg121 3.177058 1_555
Mg118 Mg123 3.184437 1_665
Mg118 Mg144 3.188148 1_555
Mg118 Mg130 3.189043 1_565
Mg118 Mg119 3.191501 1_665
Mg118 Mg96 3.195384 1_555
Mg118 Mg94 3.196881 1_555
Mg118 Mg76 3.199315 1_565
Mg118 Mg148 3.245787 1_555
Mg119 Mg120 3.177040 1_555
Mg119 Mg123 3.184447 1_555
Mg119 Mg141 3.188141 1_555
Mg119 Mg130 3.189050 1_455
Mg119 Mg74 3.195384 1_555
Mg119 Mg79 3.196866 1_555
Mg119 Mg76 3.199323 1_455
Mg119 Mg146 3.245787 1_555
Mg120 Mg123 3.184445 1_555
Mg120 Mg140 3.188141 1_555
Mg120 Mg131 3.189050 1_555
Mg120 Mg74 3.195383 1_555
Mg120 Mg80 3.196866 1_555
Mg120 Mg75 3.199323 1_555
Mg120 Mg146 3.245779 1_555
Mg121 Mg123 3.184437 1_665
Mg121 Mg143 3.188148 1_555
Mg121 Mg132 3.189043 1_555
Mg121 Mg122 3.191501 1_655
Mg121 Mg96 3.195384 1_555
Mg121 Mg91 3.196881 1_555
Mg121 Mg89 3.199315 1_555
Mg121 Mg148 3.245780 1_555
Mg122 Mg123 3.184447 1_565
Mg122 Mg142 3.188141 1_555
Mg122 Mg132 3.189050 1_455
Mg122 Mg97 3.195384 1_555
Mg122 Mg90 3.196866 1_555
Mg122 Mg89 3.199323 1_455
Mg122 Mg147 3.245780 1_555
Mg123 Mg148 3.185666 1_445
Mg123 Mg146 3.185666 1_555
Mg123 Mg147 3.185674 1_545
Mg123 Mg96 3.219584 1_445
Mg123 Mg97 3.219584 1_545
Mg123 Mg74 3.219584 1_555
Mg124 Mg137 3.189488 1_455
Mg124 Mg135 3.189489 1_455
Mg124 Mg127 3.189529 1_555
Mg124 Mg129 3.189529 1_555
Mg124 Mg99 3.194056 1_555
Mg124 Mg14 3.194622 1_556
Mg124 Mg8 3.194631 1_556
Mg124 Mg142 3.203140 1_555
Mg124 Mg141 3.203140 1_555
Mg125 Mg138 3.189473 1_555
Mg125 Mg136 3.189474 1_555
Mg125 Mg127 3.189513 1_555
Mg125 Mg128 3.189514 1_555
Mg125 Mg13 3.193299 1_556
Mg125 Mg15 3.194622 1_556
Mg125 Mg9 3.194623 1_556
Mg125 Mg143 3.203139 1_555
Mg125 Mg140 3.203147 1_555
Mg126 Mg133 3.189481 1_565
Mg126 Mg129 3.189505 1_555
Mg126 Mg134 3.189506 1_565
Mg126 Mg128 3.189515 1_555
Mg126 Mg17 3.193292 1_556
Mg126 Mg22 3.194622 1_556
Mg126 Mg23 3.194630 1_556
Mg126 Mg144 3.203131 1_555
Mg126 Mg145 3.203162 1_555
Mg127 Mg13 3.190496 1_556
Mg127 Mg140 3.191556 1_555
Mg127 Mg141 3.191571 1_555
Mg127 Mg7 3.196189 1_556
Mg127 Mg99 3.197749 1_555
Mg127 Mg128 3.200187 1_555
Mg127 Mg129 3.200204 1_555
Mg128 Mg13 3.190505 1_556
Mg128 Mg17 3.190512 1_556
Mg128 Mg143 3.191563 1_555
Mg128 Mg144 3.191571 1_555
Mg128 Mg18 3.196197 1_556
Mg128 Mg129 3.200195 1_555
Mg129 Mg17 3.190496 1_556
Mg129 Mg142 3.191571 1_555
Mg129 Mg145 3.191572 1_555
Mg129 Mg19 3.196189 1_556
Mg129 Mg99 3.197757 1_555
Mg130 Mg146 3.179794 1_655
Mg130 Mg148 3.179795 1_545
Mg130 Mg3 3.180036 1_556
Mg130 Mg144 3.181918 1_545
Mg130 Mg141 3.181918 1_655
Mg130 Mg5 3.188842 1_556
Mg130 Mg135 3.194360 1_555
Mg130 Mg133 3.194367 1_555
Mg131 Mg146 3.179778 1_555
Mg131 Mg147 3.179786 1_545
Mg131 Mg2 3.180029 1_556
Mg131 Mg145 3.181911 1_545
Mg131 Mg140 3.181927 1_555
Mg131 Mg4 3.188841 1_556
Mg131 Mg134 3.194359 1_555
Mg131 Mg136 3.194367 1_555
Mg132 Mg148 3.179780 1_555
Mg132 Mg147 3.179786 1_655
Mg132 Mg21 3.180036 1_556
Mg132 Mg20 3.180037 1_556
Mg132 Mg143 3.181918 1_555
Mg132 Mg142 3.181918 1_655
Mg132 Mg16 3.188834 1_556
Mg132 Mg137 3.194361 1_555
Mg132 Mg138 3.194367 1_555
Mg133 Mg22 3.189016 1_546
Mg133 Mg135 3.189156 1_555
Mg133 Mg144 3.190329 1_545
Mg133 Mg5 3.190653 1_556
Mg133 Mg6 3.191972 1_556
Mg133 Mg139 3.194727 1_555
Mg133 Mg134 3.200300 1_555
Mg134 Mg23 3.189024 1_546
Mg134 Mg136 3.189157 1_555
Mg134 Mg145 3.190343 1_545
Mg134 Mg4 3.190646 1_556
Mg134 Mg6 3.191971 1_556
Mg134 Mg139 3.194726 1_555
Mg135 Mg8 3.189016 1_656
Mg135 Mg141 3.190335 1_655
Mg135 Mg5 3.190646 1_556
Mg135 Mg139 3.194717 1_555
Mg135 Mg137 3.200309 1_555
Mg136 Mg9 3.189016 1_556
Mg136 Mg140 3.190343 1_555
Mg136 Mg4 3.190654 1_556
Mg136 Mg139 3.194741 1_555
Mg136 Mg138 3.200292 1_555
Mg137 Mg14 3.189016 1_656
Mg137 Mg138 3.189156 1_555
Mg137 Mg142 3.190335 1_655
Mg137 Mg16 3.190654 1_556
Mg137 Mg139 3.194726 1_555
Mg138 Mg15 3.189016 1_556
Mg138 Mg143 3.190329 1_555
Mg138 Mg16 3.190653 1_556
Mg138 Mg139 3.194743 1_555
Mg139 Mg6 3.189319 1_556
Mg140 Mg141 3.177024 1_555
Mg140 Mg7 3.180852 1_556
Mg140 Mg9 3.187453 1_556
Mg140 Mg2 3.212841 1_556
Mg140 Mg146 3.213826 1_555
Mg141 Mg7 3.180859 1_556
Mg141 Mg8 3.187446 1_556
Mg141 Mg3 3.212833 1_456
Mg141 Mg146 3.213843 1_555
Mg142 Mg145 3.177033 1_555
Mg142 Mg19 3.180859 1_556
Mg142 Mg21 3.212841 1_456
Mg142 Mg147 3.213827 1_555
Mg143 Mg144 3.177042 1_555
Mg143 Mg18 3.180852 1_556
Mg143 Mg15 3.187446 1_556
Mg143 Mg20 3.212833 1_556
Mg143 Mg148 3.213834 1_555
Mg144 Mg18 3.180860 1_556
Mg144 Mg22 3.187446 1_556
Mg144 Mg148 3.213842 1_555
Mg145 Mg19 3.180860 1_556
Mg145 Mg23 3.187453 1_556
Mg145 Mg147 3.213810 1_555
