# generated using pymatgen
data_Sr2AlCu2MoO7
_symmetry_space_group_name_H-M   'P 1'
_cell_length_a   12.47491964
_cell_length_b   12.47491964
_cell_length_c   5.43585818
_cell_angle_alpha   77.67992591
_cell_angle_beta   77.67992591
_cell_angle_gamma   144.44718677
_symmetry_Int_Tables_number   1
_chemical_formula_structural   Sr2AlCu2MoO7
_chemical_formula_sum   'Sr4 Al2 Cu4 Mo2 O14'
_cell_volume   351.80731630
_cell_formula_units_Z   2
loop_
 _symmetry_equiv_pos_site_id
 _symmetry_equiv_pos_as_xyz
  1  'x, y, z'
loop_
 _atom_site_type_symbol
 _atom_site_label
 _atom_site_symmetry_multiplicity
 _atom_site_fract_x
 _atom_site_fract_y
 _atom_site_fract_z
 _atom_site_occupancy
  Sr  Sr0  1  0.62029100  0.83852500  0.03681800  1
  Sr  Sr1  1  0.38053400  0.15978100  0.99861400  1
  Sr  Sr2  1  0.15978100  0.38053400  0.99861400  1
  Sr  Sr3  1  0.83852500  0.62029100  0.03681800  1
  Al  Al0  1  0.99651700  0.49591900  0.01346300  1
  Al  Al1  1  0.49591900  0.99651700  0.01346300  1
  Cu  Cu0  1  0.55427200  0.94429900  0.51904200  1
  Cu  Cu1  1  0.44294200  0.05207400  0.52101500  1
  Cu  Cu2  1  0.05207400  0.44294200  0.52101500  1
  Cu  Cu3  1  0.94429900  0.55427200  0.51904200  1
  Mo  Mo0  1  0.16834900  0.16834900  0.57963500  1
  Mo  Mo1  1  0.83809200  0.83809200  0.42240500  1
  O  O0  1  0.82324800  0.82324800  0.05866400  1
  O  O1  1  0.19284200  0.19284200  0.09845600  1
  O  O2  1  0.37210400  0.76596100  0.37518600  1
  O  O3  1  0.63128800  0.23268500  0.01479200  1
  O  O4  1  0.23268500  0.63128800  0.01479200  1
  O  O5  1  0.76596100  0.37210400  0.37518600  1
  O  O6  1  0.72206100  0.11315700  0.67752200  1
  O  O7  1  0.27317500  0.88057700  0.01800900  1
  O  O8  1  0.88057700  0.27317500  0.01800900  1
  O  O9  1  0.11315700  0.72206100  0.67752200  1
  O  O10  1  0.18786600  0.34783200  0.48413100  1
  O  O11  1  0.80199600  0.64540200  0.57298500  1
  O  O12  1  0.64540200  0.80199600  0.57298500  1
  O  O13  1  0.34783200  0.18786500  0.48413100  1
loop_
_geom_bond_atom_site_label_1
_geom_bond_atom_site_label_2
_geom_bond_distance
_geom_bond_site_symmetry_2
Al0 O8 1.797137 1_555
Al0 O9 1.843601 1_654
Al0 O4 1.857558 1_655
Al0 O5 1.893738 1_555
Al1 O7 1.797137 1_555
Al1 O6 1.843601 1_564
Al1 O3 1.857558 1_565
Al1 O2 1.893738 1_555
Cu0 O6 1.982464 1_565
Cu0 O2 1.999891 1_555
Cu0 O4 2.002508 1_556
Cu0 O8 2.036132 1_565
Cu1 O5 1.978437 1_555
Cu1 O9 2.012542 1_545
Cu1 O7 2.019956 1_546
Cu1 O3 2.037228 1_555
Cu1 O13 2.746730 1_555
Cu2 O2 1.978437 1_555
Cu2 O6 2.012542 1_455
Cu2 O8 2.019956 1_456
Cu2 O4 2.037228 1_555
Cu2 O10 2.746742 1_555
Cu3 O9 1.982464 1_655
Cu3 O5 1.999891 1_555
Cu3 O3 2.002508 1_556
Cu3 O7 2.036132 1_655
Mo0 O10 1.976121 1_555
Mo0 O13 1.976131 1_555
Mo0 O0 2.030482 1_446
Mo0 O1 2.488809 1_555
Mo1 O1 1.936924 1_665
Mo1 O12 1.973010 1_555
Mo1 O11 1.973010 1_555
Mo1 O0 2.057858 1_555
O0 Sr3 2.713778 1_555
O0 Sr0 2.713778 1_555
O1 Sr1 2.659242 1_554
O1 Sr2 2.659242 1_554
O2 Sr0 2.467242 1_555
O3 Sr1 2.478395 1_554
O4 Sr2 2.478395 1_554
O5 Sr3 2.467242 1_555
O6 Sr0 2.484519 1_546
O7 Sr1 2.475694 1_564
O8 Sr2 2.475694 1_654
O9 Sr3 2.484519 1_456
O10 Sr0 2.608276 1_555
O10 Sr2 2.724383 1_554
O10 Sr2 2.900306 1_555
O10 Sr0 3.017194 1_446
O11 Sr1 2.587782 1_555
O11 Sr3 2.654889 1_556
O11 Sr3 2.975799 1_555
O11 Sr1 3.080552 1_664
O12 Sr2 2.587782 1_555
O12 Sr0 2.654889 1_556
O12 Sr0 2.975799 1_555
O12 Sr2 3.080552 1_664
O13 Sr3 2.608275 1_555
O13 Sr1 2.724378 1_554
O13 Sr1 2.900306 1_555
O13 Sr3 3.017188 1_446
