# generated using pymatgen
data_AsRh2
_symmetry_space_group_name_H-M   'P 1'
_cell_length_a   4.00399700
_cell_length_b   5.84731900
_cell_length_c   7.52453700
_cell_angle_alpha   90.00000000
_cell_angle_beta   90.00000000
_cell_angle_gamma   90.00000000
_symmetry_Int_Tables_number   1
_chemical_formula_structural   AsRh2
_chemical_formula_sum   'As4 Rh8'
_cell_volume   176.16933414
_cell_formula_units_Z   4
loop_
 _symmetry_equiv_pos_site_id
 _symmetry_equiv_pos_as_xyz
  1  'x, y, z'
loop_
 _atom_site_type_symbol
 _atom_site_label
 _atom_site_symmetry_multiplicity
 _atom_site_fract_x
 _atom_site_fract_y
 _atom_site_fract_z
 _atom_site_occupancy
  As  As0  1  0.25000000  0.23344300  0.61160400  1
  As  As1  1  0.25000000  0.73344300  0.88839600  1
  As  As2  1  0.75000000  0.76655700  0.38839600  1
  As  As3  1  0.75000000  0.26655700  0.11160400  1
  Rh  Rh0  1  0.25000000  0.03198200  0.32162800  1
  Rh  Rh1  1  0.25000000  0.53198200  0.17837200  1
  Rh  Rh2  1  0.75000000  0.96801800  0.67837200  1
  Rh  Rh3  1  0.75000000  0.46801800  0.82162800  1
  Rh  Rh4  1  0.25000000  0.14721000  0.92668500  1
  Rh  Rh5  1  0.25000000  0.64721000  0.57331500  1
  Rh  Rh6  1  0.75000000  0.85279000  0.07331500  1
  Rh  Rh7  1  0.75000000  0.35279000  0.42668500  1
loop_
_geom_bond_atom_site_label_1
_geom_bond_atom_site_label_2
_geom_bond_distance
_geom_bond_site_symmetry_2
As0 Rh4 2.423866 1_555
As0 Rh5 2.436521 1_555
As0 Rh0 2.479625 1_555
As0 Rh7 2.535958 1_555
As0 Rh7 2.535958 1_455
As0 Rh2 2.582476 1_445
As0 Rh2 2.582476 1_545
As0 Rh3 2.896003 1_555
As0 Rh3 2.896003 1_455
As1 Rh5 2.423866 1_555
As1 Rh4 2.436521 1_565
As1 Rh1 2.479625 1_556
As1 Rh6 2.535958 1_456
As1 Rh6 2.535958 1_556
As1 Rh3 2.582476 1_555
As1 Rh3 2.582476 1_455
As1 Rh2 2.896003 1_555
As1 Rh2 2.896003 1_455
As2 Rh6 2.423866 1_555
As2 Rh7 2.436521 1_555
As2 Rh2 2.479625 1_555
As2 Rh5 2.535958 1_555
As2 Rh5 2.535958 1_655
As2 Rh0 2.582476 1_665
As2 Rh0 2.582476 1_565
As2 Rh1 2.896003 1_555
As2 Rh1 2.896003 1_655
As3 Rh7 2.423866 1_555
As3 Rh6 2.436521 1_545
As3 Rh3 2.479625 1_554
As3 Rh4 2.535958 1_654
As3 Rh4 2.535958 1_554
As3 Rh1 2.582476 1_555
As3 Rh1 2.582476 1_655
As3 Rh0 2.896003 1_655
As3 Rh0 2.896003 1_555
