# generated using pymatgen
data_H13S2N3O8
_symmetry_space_group_name_H-M   'P 1'
_cell_length_a   5.80775300
_cell_length_b   8.51267985
_cell_length_c   10.37636624
_cell_angle_alpha   99.36234503
_cell_angle_beta   90.00000000
_cell_angle_gamma   70.05464818
_symmetry_Int_Tables_number   1
_chemical_formula_structural   H13S2N3O8
_chemical_formula_sum   'H26 S4 N6 O16'
_cell_volume   474.95599079
_cell_formula_units_Z   2
loop_
 _symmetry_equiv_pos_site_id
 _symmetry_equiv_pos_as_xyz
  1  'x, y, z'
loop_
 _atom_site_type_symbol
 _atom_site_label
 _atom_site_symmetry_multiplicity
 _atom_site_fract_x
 _atom_site_fract_y
 _atom_site_fract_z
 _atom_site_occupancy
  H  H0  1  0.50479600  0.64656200  0.26226400  1
  H  H1  1  0.14721600  0.36154200  0.23819000  1
  H  H2  1  0.49124200  0.36154200  0.73819000  1
  H  H3  1  0.84864100  0.64656200  0.76226400  1
  H  H4  1  0.54411600  0.67389700  0.42600000  1
  H  H5  1  0.21414600  0.32616600  0.07489800  1
  H  H6  1  0.45968800  0.32616600  0.57489800  1
  H  H7  1  0.78198700  0.67389700  0.92600000  1
  H  H8  1  0.78243000  0.06596800  0.20657500  1
  H  H9  1  0.84259400  0.90950800  0.29617500  1
  H  H10  1  0.24789800  0.90950800  0.79617500  1
  H  H11  1  0.15160200  0.06596800  0.70657500  1
  H  H12  1  0.56931200  0.07362000  0.31738600  1
  H  H13  1  0.64089900  0.91860700  0.18079700  1
  H  H14  1  0.44049300  0.91860700  0.68079700  1
  H  H15  1  0.35706800  0.07362000  0.81738600  1
  H  H16  1  0.58640600  0.48100500  0.34317000  1
  H  H17  1  0.07216900  0.52336700  0.15260500  1
  H  H18  1  0.40446400  0.52336700  0.65260500  1
  H  H19  1  0.93258900  0.48100500  0.84317000  1
  H  H20  1  0.29412900  0.63096700  0.36668700  1
  H  H21  1  0.92136400  0.37760600  0.13406000  1
  H  H22  1  0.70103000  0.37760600  0.63406000  1
  H  H23  1  0.07490300  0.63096700  0.86668700  1
  H  H24  1  0.02435400  0.00403100  0.49214100  1
  H  H25  1  0.97161500  0.00403100  0.99214100  1
  S  S0  1  0.31268100  0.77551800  0.04205200  1
  S  S1  1  0.08840300  0.23177200  0.45799300  1
  S  S2  1  0.67982500  0.23177200  0.95799300  1
  S  S3  1  0.91180200  0.77551800  0.54205200  1
  N  N0  1  0.48215300  0.60761200  0.34905500  1
  N  N1  1  0.08706200  0.39801600  0.15056900  1
  N  N2  1  0.51492200  0.39801600  0.65056900  1
  N  N3  1  0.91023500  0.60761200  0.84905500  1
  N  N4  1  0.70853300  0.99253300  0.25026400  1
  N  N5  1  0.29893400  0.99253300  0.75026400  1
  O  O0  1  0.17232700  0.70405300  0.11946800  1
  O  O1  1  0.87397200  0.29449100  0.38168100  1
  O  O2  1  0.83153700  0.29449100  0.88168100  1
  O  O3  1  0.12362100  0.70405300  0.61946800  1
  O  O4  1  0.56703000  0.74202900  0.08803300  1
  O  O5  1  0.30729800  0.26082800  0.40788900  1
  O  O6  1  0.43187300  0.26082800  0.90788900  1
  O  O7  1  0.69094100  0.74202900  0.58803300  1
  O  O8  1  0.18663200  0.96630000  0.05921300  1
  O  O9  1  0.16337700  0.03377200  0.44020900  1
  O  O10  1  0.80285100  0.03377200  0.94020900  1
  O  O11  1  0.84706800  0.96630000  0.55921300  1
  O  O12  1  0.32539600  0.70379600  0.89957700  1
  O  O13  1  0.03382800  0.29763500  0.59964800  1
  O  O14  1  0.66853700  0.29763500  0.09964800  1
  O  O15  1  0.97080800  0.70379600  0.39957700  1
loop_
_geom_bond_atom_site_label_1
_geom_bond_atom_site_label_2
_geom_bond_distance
_geom_bond_site_symmetry_2
H0 N0 1.032069 1_555
H1 N1 1.030980 1_555
H2 N2 1.030980 1_555
H3 N3 1.032071 1_555
H4 N0 1.037937 1_555
H5 N1 1.034956 1_555
H6 N2 1.034956 1_555
H7 N3 1.037937 1_555
H8 N4 1.027488 1_545
H9 N4 1.032854 1_555
H10 N5 1.032854 1_555
H11 N5 1.027488 1_545
H12 N4 1.038332 1_545
H13 N4 1.044489 1_555
H14 N5 1.044486 1_555
H15 N5 1.038332 1_545
H16 N0 1.032127 1_555
H17 N1 1.037434 1_555
H18 N2 1.037434 1_555
H19 N3 1.032127 1_555
H20 N0 1.051430 1_555
H21 N1 1.044033 1_655
H22 N2 1.044033 1_555
H23 N3 1.051424 1_455
H24 O9 1.090980 1_555
H24 O11 1.395002 1_445
H25 O10 1.090980 1_555
H25 O8 1.395002 1_646
O0 S0 1.475522 1_555
O1 S1 1.465236 1_655
O2 S2 1.465236 1_555
O3 S3 1.475522 1_455
O4 S0 1.499321 1_555
O5 S1 1.484592 1_555
O6 S2 1.484598 1_555
O7 S3 1.499327 1_555
O8 S0 1.516571 1_555
O9 S1 1.569295 1_555
O10 S2 1.569294 1_555
O11 S3 1.516570 1_555
O12 S0 1.496454 1_556
O13 S1 1.478494 1_555
O14 S2 1.478494 1_554
O15 S3 1.496454 1_555
