# generated using pymatgen
data_Mg6TiMn
_symmetry_space_group_name_H-M   'P 1'
_cell_length_a   4.86375600
_cell_length_b   6.14235400
_cell_length_c   10.98939400
_cell_angle_alpha   90.00000000
_cell_angle_beta   90.00000000
_cell_angle_gamma   90.00000000
_symmetry_Int_Tables_number   1
_chemical_formula_structural   Mg6TiMn
_chemical_formula_sum   'Mg12 Ti2 Mn2'
_cell_volume   328.30716903
_cell_formula_units_Z   2
loop_
 _symmetry_equiv_pos_site_id
 _symmetry_equiv_pos_as_xyz
  1  'x, y, z'
loop_
 _atom_site_type_symbol
 _atom_site_label
 _atom_site_symmetry_multiplicity
 _atom_site_fract_x
 _atom_site_fract_y
 _atom_site_fract_z
 _atom_site_occupancy
  Mg  Mg0  1  0.00000000  0.74196700  0.08229100  1
  Mg  Mg1  1  0.00000000  0.25803300  0.08229100  1
  Mg  Mg2  1  0.00000000  0.00000000  0.33108800  1
  Mg  Mg3  1  0.50000000  0.25865000  0.41981100  1
  Mg  Mg4  1  0.50000000  0.74135000  0.41981100  1
  Mg  Mg5  1  0.50000000  0.00000000  0.16620500  1
  Mg  Mg6  1  0.00000000  0.24196700  0.58229100  1
  Mg  Mg7  1  0.00000000  0.75803300  0.58229100  1
  Mg  Mg8  1  0.00000000  0.50000000  0.83108800  1
  Mg  Mg9  1  0.50000000  0.75865000  0.91981100  1
  Mg  Mg10  1  0.50000000  0.24135000  0.91981100  1
  Mg  Mg11  1  0.50000000  0.50000000  0.66620500  1
  Ti  Ti0  1  0.50000000  0.50000000  0.18663600  1
  Ti  Ti1  1  0.50000000  0.00000000  0.68663600  1
  Mn  Mn0  1  0.00000000  0.50000000  0.31186700  1
  Mn  Mn1  1  0.00000000  0.00000000  0.81186700  1
loop_
_geom_bond_atom_site_label_1
_geom_bond_atom_site_label_2
_geom_bond_distance
_geom_bond_site_symmetry_2
Mg0 Mn0 2.928133 1_555
Mg0 Mg1 2.972494 1_555
Mg0 Mg9 3.018732 1_554
Mg0 Mg9 3.018732 1_454
Mg0 Mg5 3.045722 1_565
Mg0 Mg5 3.045722 1_465
Mg0 Ti0 3.072109 1_455
Mg0 Ti0 3.072109 1_555
Mg0 Mg8 3.135230 1_554
Mg0 Mg2 3.160294 1_565
Mg0 Mg1 3.169860 1_565
Mg0 Mn1 3.368022 1_564
Mg1 Mn0 2.928133 1_555
Mg1 Mg10 3.018732 1_554
Mg1 Mg10 3.018732 1_454
Mg1 Mg5 3.045722 1_455
Mg1 Mg5 3.045722 1_555
Mg1 Ti0 3.072109 1_455
Mg1 Ti0 3.072109 1_555
Mg1 Mg8 3.135230 1_554
Mg1 Mg2 3.160294 1_555
Mg1 Mn1 3.368022 1_554
Mg2 Mg5 3.032696 1_455
Mg2 Mg5 3.032696 1_555
Mg2 Mg3 3.064100 1_555
Mg2 Mg4 3.064100 1_445
Mg2 Mg4 3.064100 1_545
Mg2 Mg3 3.064100 1_455
Mg2 Mn0 3.078432 1_545
Mg2 Mn0 3.078432 1_555
Mg2 Mg6 3.135230 1_555
Mg2 Mg7 3.135230 1_545
Mg3 Ti0 2.960378 1_555
Mg3 Mg4 2.964914 1_555
Mg3 Mg6 3.018732 1_555
Mg3 Mg6 3.018732 1_655
Mg3 Mn0 3.085267 1_555
Mg3 Mn0 3.085267 1_655
Mg3 Mg4 3.177440 1_545
Mg3 Mg5 3.208001 1_555
Mg3 Ti1 3.334980 1_555
Mg4 Ti0 2.960378 1_555
Mg4 Mg7 3.018732 1_555
Mg4 Mg7 3.018732 1_655
Mg4 Mn0 3.085267 1_555
Mg4 Mn0 3.085267 1_655
Mg4 Mg5 3.208001 1_565
Mg4 Ti1 3.334980 1_565
Mg5 Ti0 3.079373 1_545
Mg5 Ti0 3.079373 1_555
Mg5 Mg9 3.086978 1_544
Mg6 Mn1 2.928133 1_555
Mg6 Mg7 2.972494 1_545
Mg6 Ti1 3.072109 1_455
Mg6 Ti1 3.072109 1_555
Mg6 Mg8 3.160294 1_555
Mg6 Mg7 3.169860 1_555
Mg6 Mn0 3.368022 1_555
Mg7 Mn1 2.928133 1_565
Mg7 Ti1 3.072109 1_465
Mg7 Ti1 3.072109 1_565
Mg7 Mg8 3.160294 1_555
Mg7 Mn0 3.368022 1_555
Mg8 Mg9 3.064100 1_555
Mg8 Mg9 3.064100 1_455
Mg8 Mn1 3.078432 1_555
Mg8 Mn1 3.078432 1_565
Mg9 Ti1 2.960378 1_565
Mg9 Mn1 3.085267 1_665
Mg9 Mn1 3.085267 1_565
Mg9 Ti0 3.334980 1_556
Mg10 Ti1 2.960378 1_555
Mg10 Mg9 2.964914 1_545
Mg10 Mg8 3.064100 1_655
Mg10 Mg8 3.064100 1_555
Mg10 Mn1 3.085267 1_555
Mg10 Mn1 3.085267 1_655
Mg10 Mg5 3.086978 1_556
Mg10 Mg9 3.177440 1_555
Mg10 Mg11 3.208001 1_555
Mg10 Ti0 3.334980 1_556
Mg11 Mg8 3.032696 1_555
Mg11 Mg8 3.032696 1_655
Mg11 Mg7 3.045722 1_555
Mg11 Mg6 3.045722 1_655
Mg11 Mg7 3.045722 1_655
Mg11 Mg6 3.045722 1_555
Mg11 Ti1 3.079373 1_555
Mg11 Ti1 3.079373 1_565
Mg11 Mg4 3.086978 1_555
Mg11 Mg3 3.086978 1_555
Mg11 Mg9 3.208001 1_555
Mn0 Ti0 2.794278 1_555
Mn0 Ti0 2.794278 1_455
Mn1 Ti1 2.794278 1_455
Mn1 Ti1 2.794278 1_555
