# generated using pymatgen
data_Ni2Te3O8
_symmetry_space_group_name_H-M   'P 1'
_cell_length_a   6.71470873
_cell_length_b   6.71498805
_cell_length_c   11.43402175
_cell_angle_alpha   82.13532941
_cell_angle_beta   82.13390435
_cell_angle_gamma   45.40925064
_symmetry_Int_Tables_number   1
_chemical_formula_structural   Ni2Te3O8
_chemical_formula_sum   'Ni4 Te6 O16'
_cell_volume   363.08200392
_cell_formula_units_Z   2
loop_
 _symmetry_equiv_pos_site_id
 _symmetry_equiv_pos_as_xyz
  1  'x, y, z'
loop_
 _atom_site_type_symbol
 _atom_site_label
 _atom_site_symmetry_multiplicity
 _atom_site_fract_x
 _atom_site_fract_y
 _atom_site_fract_z
 _atom_site_occupancy
  Ni  Ni0  1  0.05600613  0.41492564  0.14403258  1
  Ni  Ni1  1  0.58508612  0.94399256  0.35597110  1
  Ni  Ni2  1  0.94399232  0.58505648  0.85597066  1
  Ni  Ni3  1  0.41493173  0.05600636  0.64402594  1
  Te  Te0  1  0.81596795  0.18401840  0.75000193  1
  Te  Te1  1  0.18404347  0.81597208  0.24999709  1
  Te  Te2  1  0.94868026  0.31971751  0.44355473  1
  Te  Te3  1  0.68028722  0.05132891  0.05644396  1
  Te  Te4  1  0.05132743  0.68027916  0.55644550  1
  Te  Te5  1  0.31969591  0.94868686  0.94355472  1
  O  O0  1  0.27515230  0.25686907  0.97394598  1
  O  O1  1  0.74313545  0.72483926  0.52604914  1
  O  O2  1  0.72484376  0.74312760  0.02605298  1
  O  O3  1  0.25687498  0.27516091  0.47395022  1
  O  O4  1  0.54630100  0.85574141  0.80262129  1
  O  O5  1  0.14427311  0.45367111  0.69738182  1
  O  O6  1  0.45369696  0.14426118  0.19737739  1
  O  O7  1  0.85572611  0.54633088  0.30261719  1
  O  O8  1  0.96378179  0.26157137  0.86867566  1
  O  O9  1  0.73844161  0.03618521  0.63132302  1
  O  O10  1  0.03440146  0.13022465  0.14564769  1
  O  O11  1  0.86981774  0.96556369  0.35435424  1
  O  O12  1  0.96559737  0.86977813  0.85435321  1
  O  O13  1  0.13017111  0.03443444  0.64564943  1
  O  O14  1  0.26155470  0.96381898  0.36867781  1
  O  O15  1  0.03621100  0.73843613  0.13132271  1
loop_
_geom_bond_atom_site_label_1
_geom_bond_atom_site_label_2
_geom_bond_distance
_geom_bond_site_symmetry_2
Ni0 O7 1.994823 1_455
Ni0 O10 2.013761 1_555
Ni0 O6 2.033259 1_555
Ni0 O15 2.066746 1_555
Ni0 O0 2.159314 1_554
Ni0 O2 2.178994 1_455
Ni1 O6 1.994945 1_565
Ni1 O11 2.013723 1_555
Ni1 O7 2.033218 1_555
Ni1 O14 2.066651 1_555
Ni1 O1 2.159295 1_555
Ni1 O3 2.178969 1_565
Ni2 O5 1.994854 1_655
Ni2 O12 2.013898 1_555
Ni2 O4 2.033270 1_555
Ni2 O8 2.066605 1_555
Ni2 O2 2.159288 1_556
Ni2 O0 2.178937 1_655
Ni3 O4 1.994943 1_545
Ni3 O13 2.013911 1_555
Ni3 O5 2.033232 1_555
Ni3 O9 2.066534 1_555
Ni3 O3 2.159281 1_555
Ni3 O1 2.178939 1_545
O0 Te5 1.947324 1_545
O0 Te3 2.295515 1_556
O1 Te4 1.947256 1_655
O1 Te2 2.295481 1_555
O2 Te3 1.947395 1_565
O2 Te5 2.295551 1_554
O3 Te2 1.947286 1_455
O3 Te4 2.295461 1_555
O4 Te5 1.890023 1_555
O5 Te4 1.890135 1_555
O6 Te3 1.889988 1_555
O7 Te2 1.890156 1_555
O8 Te5 1.968869 1_645
O8 Te0 2.094108 1_555
O9 Te4 1.968825 1_645
O9 Te0 2.094136 1_555
O10 Te1 1.883655 1_545
O10 Te5 2.603014 1_544
O11 Te1 1.883528 1_655
O11 Te4 2.603053 1_655
O12 Te0 1.883627 1_565
O12 Te3 2.603029 1_566
O13 Te0 1.883408 1_455
O13 Te2 2.603074 1_455
O14 Te2 1.968783 1_465
O14 Te1 2.094152 1_555
O15 Te3 1.968911 1_465
O15 Te1 2.094129 1_555
