# generated using pymatgen
data_CaMg14CrO16
_symmetry_space_group_name_H-M   'P 1'
_cell_length_a   4.32963200
_cell_length_b   8.57398700
_cell_length_c   8.69542900
_cell_angle_alpha   90.00000000
_cell_angle_beta   90.00000000
_cell_angle_gamma   90.00000000
_symmetry_Int_Tables_number   1
_chemical_formula_structural   CaMg14CrO16
_chemical_formula_sum   'Ca1 Mg14 Cr1 O16'
_cell_volume   322.79352819
_cell_formula_units_Z   1
loop_
 _symmetry_equiv_pos_site_id
 _symmetry_equiv_pos_as_xyz
  1  'x, y, z'
loop_
 _atom_site_type_symbol
 _atom_site_label
 _atom_site_symmetry_multiplicity
 _atom_site_fract_x
 _atom_site_fract_y
 _atom_site_fract_z
 _atom_site_occupancy
  Ca  Ca0  1  0.00000000  0.00000000  0.00000000  1
  Mg  Mg0  1  0.00000000  0.00000000  0.50000000  1
  Mg  Mg1  1  0.00000000  0.50000000  0.50000000  1
  Mg  Mg2  1  0.50000000  0.74507300  0.00000000  1
  Mg  Mg3  1  0.50000000  0.25492700  0.00000000  1
  Mg  Mg4  1  0.50000000  0.74916500  0.50000000  1
  Mg  Mg5  1  0.50000000  0.25083500  0.50000000  1
  Mg  Mg6  1  0.50000000  0.00000000  0.74364100  1
  Mg  Mg7  1  0.50000000  0.50000000  0.74634900  1
  Mg  Mg8  1  0.50000000  0.00000000  0.25635900  1
  Mg  Mg9  1  0.50000000  0.50000000  0.25365100  1
  Mg  Mg10  1  0.00000000  0.74631100  0.74405600  1
  Mg  Mg11  1  0.00000000  0.25368900  0.74405600  1
  Mg  Mg12  1  0.00000000  0.74631100  0.25594400  1
  Mg  Mg13  1  0.00000000  0.25368900  0.25594400  1
  Cr  Cr0  1  0.00000000  0.50000000  0.00000000  1
  O  O0  1  0.00000000  0.00000000  0.73688200  1
  O  O1  1  0.00000000  0.50000000  0.73523000  1
  O  O2  1  0.00000000  0.00000000  0.26311800  1
  O  O3  1  0.00000000  0.50000000  0.26477000  1
  O  O4  1  0.50000000  0.74976700  0.75060800  1
  O  O5  1  0.50000000  0.25023300  0.75060800  1
  O  O6  1  0.50000000  0.74976700  0.24939200  1
  O  O7  1  0.50000000  0.25023300  0.24939200  1
  O  O8  1  0.50000000  0.00000000  0.00000000  1
  O  O9  1  0.50000000  0.50000000  0.00000000  1
  O  O10  1  0.50000000  0.00000000  0.50000000  1
  O  O11  1  0.50000000  0.50000000  0.50000000  1
  O  O12  1  0.00000000  0.73799300  0.00000000  1
  O  O13  1  0.00000000  0.26200700  0.00000000  1
  O  O14  1  0.00000000  0.75003600  0.50000000  1
  O  O15  1  0.00000000  0.24996400  0.50000000  1
loop_
_geom_bond_atom_site_label_1
_geom_bond_atom_site_label_2
_geom_bond_distance
_geom_bond_site_symmetry_2
Ca0 O8 2.164816 1_555
Ca0 O8 2.164816 1_455
Ca0 O13 2.246445 1_555
Ca0 O12 2.246445 1_545
Ca0 O0 2.287924 1_554
Ca0 O2 2.287924 1_555
Mg0 O2 2.059791 1_555
Mg0 O0 2.059791 1_555
Mg0 O14 2.143188 1_545
Mg0 O15 2.143188 1_555
Mg0 O10 2.164816 1_455
Mg0 O10 2.164816 1_555
Mg1 O3 2.045426 1_555
Mg1 O1 2.045426 1_555
Mg1 O14 2.143805 1_555
Mg1 O15 2.143805 1_555
Mg1 O11 2.164816 1_455
Mg1 O11 2.164816 1_555
Mg2 O9 2.101253 1_555
Mg2 O12 2.165667 1_655
Mg2 O12 2.165667 1_555
Mg2 O4 2.168944 1_554
Mg2 O6 2.168944 1_555
Mg2 O8 2.185741 1_565
Mg3 O9 2.101253 1_555
Mg3 O13 2.165667 1_655
Mg3 O13 2.165667 1_555
Mg3 O5 2.168944 1_554
Mg3 O7 2.168944 1_555
Mg3 O8 2.185741 1_555
Mg4 O11 2.136337 1_555
Mg4 O10 2.150656 1_565
Mg4 O14 2.164829 1_555
Mg4 O14 2.164829 1_655
Mg4 O6 2.179150 1_555
Mg4 O4 2.179150 1_555
Mg5 O11 2.136337 1_555
Mg5 O10 2.150656 1_555
Mg5 O15 2.164829 1_655
Mg5 O15 2.164829 1_555
Mg5 O7 2.179150 1_555
Mg5 O5 2.179150 1_555
Mg6 O10 2.118563 1_555
Mg6 O5 2.146350 1_555
Mg6 O4 2.146350 1_545
Mg6 O0 2.165614 1_555
Mg6 O0 2.165614 1_655
Mg6 O8 2.229151 1_556
Mg7 O4 2.141819 1_555
Mg7 O5 2.141819 1_555
Mg7 O11 2.142110 1_555
Mg7 O1 2.166974 1_655
Mg7 O1 2.166974 1_555
Mg7 O9 2.205604 1_556
Mg8 O10 2.118563 1_555
Mg8 O7 2.146350 1_555
Mg8 O6 2.146350 1_545
Mg8 O2 2.165614 1_555
Mg8 O2 2.165614 1_655
Mg8 O8 2.229151 1_555
Mg9 O6 2.141819 1_555
Mg9 O7 2.141819 1_555
Mg9 O11 2.142110 1_555
Mg9 O3 2.166974 1_655
Mg9 O3 2.166974 1_555
Mg9 O9 2.205604 1_555
Mg10 O1 2.113261 1_555
Mg10 O14 2.122412 1_555
Mg10 O4 2.165768 1_555
Mg10 O4 2.165768 1_455
Mg10 O0 2.176021 1_565
Mg10 O12 2.226685 1_556
Mg11 O1 2.113261 1_555
Mg11 O15 2.122412 1_555
Mg11 O5 2.165768 1_455
Mg11 O5 2.165768 1_555
Mg11 O0 2.176021 1_555
Mg11 O13 2.226685 1_556
Mg12 O3 2.113261 1_555
Mg12 O14 2.122412 1_555
Mg12 O6 2.165768 1_455
Mg12 O6 2.165768 1_555
Mg12 O2 2.176021 1_565
Mg12 O12 2.226685 1_555
Mg13 O3 2.113261 1_555
Mg13 O15 2.122412 1_555
Mg13 O7 2.165768 1_455
Mg13 O7 2.165768 1_555
Mg13 O2 2.176021 1_555
Mg13 O13 2.226685 1_555
Cr0 O13 2.040549 1_555
Cr0 O12 2.040549 1_555
Cr0 O9 2.164816 1_455
Cr0 O9 2.164816 1_555
Cr0 O1 2.302289 1_554
Cr0 O3 2.302289 1_555
