# generated using pymatgen
data_CI
_symmetry_space_group_name_H-M   'P 1'
_cell_length_a   16.59546500
_cell_length_b   16.59546500
_cell_length_c   5.18502900
_cell_angle_alpha   90.00000000
_cell_angle_beta   90.00000000
_cell_angle_gamma   90.00000000
_symmetry_Int_Tables_number   1
_chemical_formula_structural   CI
_chemical_formula_sum   'C16 I16'
_cell_volume   1428.00602954
_cell_formula_units_Z   16
loop_
 _symmetry_equiv_pos_site_id
 _symmetry_equiv_pos_as_xyz
  1  'x, y, z'
loop_
 _atom_site_type_symbol
 _atom_site_label
 _atom_site_symmetry_multiplicity
 _atom_site_fract_x
 _atom_site_fract_y
 _atom_site_fract_z
 _atom_site_occupancy
  C  C0  1  0.96013600  0.22755500  0.20516200  1
  C  C1  1  0.03986400  0.77244500  0.20516200  1
  C  C2  1  0.27244500  0.46013600  0.70516200  1
  C  C3  1  0.72755500  0.53986400  0.70516200  1
  C  C4  1  0.53986400  0.27244500  0.29483800  1
  C  C5  1  0.46013600  0.72755500  0.29483800  1
  C  C6  1  0.22755500  0.03986400  0.79483800  1
  C  C7  1  0.77244500  0.96013600  0.79483800  1
  C  C8  1  0.00879500  0.27612200  0.29211200  1
  C  C9  1  0.99120500  0.72387800  0.29211200  1
  C  C10  1  0.22387800  0.50879500  0.79211200  1
  C  C11  1  0.77612200  0.49120500  0.79211200  1
  C  C12  1  0.49120500  0.22387800  0.20788800  1
  C  C13  1  0.50879500  0.77612200  0.20788800  1
  C  C14  1  0.27612200  0.99120500  0.70788800  1
  C  C15  1  0.72387800  0.00879500  0.70788800  1
  I  I0  1  0.88129100  0.14861300  0.06586600  1
  I  I1  1  0.11870900  0.85138700  0.06586600  1
  I  I2  1  0.35138700  0.38129100  0.56586600  1
  I  I3  1  0.64861300  0.61870900  0.56586600  1
  I  I4  1  0.61870900  0.35138700  0.43413400  1
  I  I5  1  0.38129100  0.64861300  0.43413400  1
  I  I6  1  0.14861300  0.11870900  0.93413400  1
  I  I7  1  0.85138700  0.88129100  0.93413400  1
  I  I8  1  0.08775500  0.35450200  0.43387600  1
  I  I9  1  0.91224500  0.64549800  0.43387600  1
  I  I10  1  0.14549800  0.58775500  0.93387600  1
  I  I11  1  0.85450200  0.41224500  0.93387600  1
  I  I12  1  0.41224500  0.14549800  0.06612400  1
  I  I13  1  0.58775500  0.85450200  0.06612400  1
  I  I14  1  0.35450200  0.91224500  0.56612400  1
  I  I15  1  0.64549800  0.08775500  0.56612400  1
loop_
_geom_bond_atom_site_label_1
_geom_bond_atom_site_label_2
_geom_bond_distance
_geom_bond_site_symmetry_2
C0 C8 1.226770 1_655
C0 I0 1.987473 1_555
C1 C9 1.226770 1_455
C1 I1 1.987473 1_555
C2 I2 1.987473 1_555
C3 I3 1.987473 1_555
C4 I4 1.987473 1_555
C5 I5 1.987473 1_555
C6 I6 1.987473 1_555
C7 I7 1.987473 1_555
C8 I8 1.987296 1_555
C9 I9 1.987296 1_555
C10 C2 1.226770 1_555
C10 I10 1.987296 1_555
C11 C3 1.226770 1_555
C11 I11 1.987296 1_555
C12 C4 1.226770 1_555
C12 I12 1.987296 1_555
C13 C5 1.226770 1_555
C13 I13 1.987296 1_555
C14 C6 1.226770 1_565
C14 I14 1.987296 1_555
C15 C7 1.226770 1_545
C15 I15 1.987296 1_555
