# generated using pymatgen
data_Sr2LuTaO6
_symmetry_space_group_name_H-M   'P 1'
_cell_length_a   5.86271800
_cell_length_b   5.89095600
_cell_length_c   8.29842800
_cell_angle_alpha   90.00000000
_cell_angle_beta   90.00000000
_cell_angle_gamma   90.00000000
_symmetry_Int_Tables_number   1
_chemical_formula_structural   Sr2LuTaO6
_chemical_formula_sum   'Sr4 Lu2 Ta2 O12'
_cell_volume   286.60292218
_cell_formula_units_Z   2
loop_
 _symmetry_equiv_pos_site_id
 _symmetry_equiv_pos_as_xyz
  1  'x, y, z'
loop_
 _atom_site_type_symbol
 _atom_site_label
 _atom_site_symmetry_multiplicity
 _atom_site_fract_x
 _atom_site_fract_y
 _atom_site_fract_z
 _atom_site_occupancy
  Sr  Sr0  1  0.00202300  0.48370700  0.25192200  1
  Sr  Sr1  1  0.00202300  0.51629300  0.74807800  1
  Sr  Sr2  1  0.50202300  0.98370700  0.24807800  1
  Sr  Sr3  1  0.50202300  0.01629300  0.75192200  1
  Lu  Lu0  1  0.00295300  0.00000000  0.00000000  1
  Lu  Lu1  1  0.50295300  0.50000000  0.50000000  1
  Ta  Ta0  1  0.00327000  0.00000000  0.50000000  1
  Ta  Ta1  1  0.50327000  0.50000000  0.00000000  1
  O  O0  1  0.48636900  0.51044600  0.23990700  1
  O  O1  1  0.48636900  0.48955400  0.76009300  1
  O  O2  1  0.98636900  0.01044600  0.26009300  1
  O  O3  1  0.98636900  0.98955400  0.73990700  1
  O  O4  1  0.25139700  0.23166900  0.49733900  1
  O  O5  1  0.25139700  0.76833100  0.50266100  1
  O  O6  1  0.75139700  0.73166900  0.00266100  1
  O  O7  1  0.75139700  0.26833100  0.99733900  1
  O  O8  1  0.27319900  0.25039200  0.00698200  1
  O  O9  1  0.27319900  0.74960800  0.99301800  1
  O  O10  1  0.77319900  0.75039200  0.49301800  1
  O  O11  1  0.77319900  0.24960800  0.50698200  1
loop_
_geom_bond_atom_site_label_1
_geom_bond_atom_site_label_2
_geom_bond_distance
_geom_bond_site_symmetry_2
Lu0 O2 2.161428 1_455
Lu0 O3 2.161428 1_444
Lu0 O7 2.161995 1_454
Lu0 O6 2.161995 1_445
Lu0 O8 2.165496 1_555
Lu0 O9 2.165496 1_544
Lu1 O1 2.161428 1_555
Lu1 O0 2.161428 1_555
Lu1 O5 2.161995 1_555
Lu1 O4 2.161995 1_555
Lu1 O11 2.165496 1_555
Lu1 O10 2.165496 1_555
O0 Ta1 1.994265 1_555
O0 Sr2 2.790294 1_555
O0 Sr0 2.845697 1_555
O0 Sr0 3.028876 1_655
O0 Sr2 3.105094 1_545
O1 Ta1 1.994265 1_556
O1 Sr3 2.790294 1_555
O1 Sr1 2.845697 1_555
O1 Sr1 3.028876 1_655
O1 Sr3 3.105094 1_565
O2 Ta0 1.994265 1_655
O2 Sr0 2.790294 1_655
O2 Sr2 2.845697 1_545
O2 Sr2 3.028876 1_645
O2 Sr0 3.105094 1_645
O3 Ta0 1.994265 1_665
O3 Sr1 2.790294 1_655
O3 Sr3 2.845697 1_565
O3 Sr3 3.028876 1_665
O3 Sr1 3.105094 1_665
O4 Ta0 1.994789 1_555
O4 Sr3 2.869148 1_555
O4 Sr0 2.913688 1_555
O4 Sr2 2.927681 1_545
O4 Sr1 3.046030 1_555
O5 Ta0 1.994789 1_565
O5 Sr2 2.869148 1_555
O5 Sr1 2.913688 1_555
O5 Sr3 2.927681 1_565
O5 Sr0 3.046030 1_555
O6 Ta1 1.994789 1_555
O6 Sr1 2.869148 1_654
O6 Sr2 2.913688 1_555
O6 Sr0 2.927681 1_655
O6 Sr3 3.046030 1_564
O7 Ta1 1.994789 1_556
O7 Sr0 2.869148 1_656
O7 Sr3 2.913688 1_555
O7 Sr1 2.927681 1_655
O7 Sr2 3.046030 1_546
O8 Ta1 1.996220 1_555
O8 Sr3 2.860334 1_554
O8 Sr2 2.875884 1_545
O8 Sr0 2.923730 1_555
O8 Sr1 3.097940 1_554
O9 Ta1 1.996220 1_556
O9 Sr2 2.860334 1_556
O9 Sr3 2.875884 1_565
O9 Sr1 2.923730 1_555
O9 Sr0 3.097940 1_556
O10 Ta0 1.996220 1_665
O10 Sr1 2.860334 1_655
O10 Sr0 2.875884 1_655
O10 Sr2 2.923730 1_555
O10 Sr3 3.097940 1_565
O11 Ta0 1.996220 1_655
O11 Sr0 2.860334 1_655
O11 Sr1 2.875884 1_655
O11 Sr3 2.923730 1_555
O11 Sr2 3.097940 1_545
