# generated using pymatgen
data_Er2WO6
_symmetry_space_group_name_H-M   'P 1'
_cell_length_a   5.29068200
_cell_length_b   7.56888313
_cell_length_c   11.26738432
_cell_angle_alpha   75.29353082
_cell_angle_beta   90.00000000
_cell_angle_gamma   90.00000000
_symmetry_Int_Tables_number   1
_chemical_formula_structural   Er2WO6
_chemical_formula_sum   'Er8 W4 O24'
_cell_volume   436.41574266
_cell_formula_units_Z   4
loop_
 _symmetry_equiv_pos_site_id
 _symmetry_equiv_pos_as_xyz
  1  'x, y, z'
loop_
 _atom_site_type_symbol
 _atom_site_label
 _atom_site_symmetry_multiplicity
 _atom_site_fract_x
 _atom_site_fract_y
 _atom_site_fract_z
 _atom_site_occupancy
  Er  Er0  1  0.18461892  0.20335883  0.42171508  1
  Er  Er1  1  0.18461892  0.79664117  0.07828492  1
  Er  Er2  1  0.81538108  0.79664117  0.57828492  1
  Er  Er3  1  0.81538108  0.20335883  0.92171508  1
  Er  Er4  1  0.68298643  0.50000000  0.25000000  1
  Er  Er5  1  0.31701357  0.50000000  0.75000000  1
  Er  Er6  1  0.73905441  0.00000000  0.25000000  1
  Er  Er7  1  0.26094559  0.00000000  0.75000000  1
  W  W0  1  0.25533702  0.27825211  0.11362127  1
  W  W1  1  0.25533702  0.72174789  0.38637873  1
  W  W2  1  0.74466298  0.72174789  0.88637873  1
  W  W3  1  0.74466298  0.27825211  0.61362127  1
  O  O0  1  0.46233559  0.21141403  0.27325319  1
  O  O1  1  0.46233559  0.78858597  0.22674681  1
  O  O2  1  0.53766441  0.78858597  0.72674681  1
  O  O3  1  0.53766441  0.21141403  0.77325319  1
  O  O4  1  0.04021458  0.06129115  0.10390094  1
  O  O5  1  0.04021458  0.93870885  0.39609906  1
  O  O6  1  0.95978542  0.93870885  0.89609906  1
  O  O7  1  0.95978542  0.06129115  0.60390094  1
  O  O8  1  0.98251655  0.28923404  0.22904270  1
  O  O9  1  0.98251655  0.71076596  0.27095730  1
  O  O10  1  0.01748345  0.71076596  0.77095730  1
  O  O11  1  0.01748345  0.28923404  0.72904270  1
  O  O12  1  0.84694615  0.36702744  0.45046186  1
  O  O13  1  0.84694615  0.63297256  0.04953814  1
  O  O14  1  0.15305385  0.63297256  0.54953814  1
  O  O15  1  0.15305385  0.36702744  0.95046186  1
  O  O16  1  0.64126122  0.51173281  0.61355559  1
  O  O17  1  0.64126122  0.48826719  0.88644441  1
  O  O18  1  0.35873878  0.48826719  0.38644441  1
  O  O19  1  0.35873878  0.51173281  0.11355559  1
  O  O20  1  0.46940196  0.15053111  0.56975100  1
  O  O21  1  0.46940196  0.84946889  0.93024900  1
  O  O22  1  0.53059804  0.84946889  0.43024900  1
  O  O23  1  0.53059804  0.15053111  0.06975100  1
loop_
_geom_bond_atom_site_label_1
_geom_bond_atom_site_label_2
_geom_bond_distance
_geom_bond_site_symmetry_2
Er0 O20 2.207608 1_555
Er0 O0 2.215624 1_555
Er0 O5 2.230016 1_545
Er0 O12 2.243855 1_455
Er0 O18 2.285097 1_555
Er0 O8 2.358435 1_455
Er0 O7 2.379980 1_455
Er1 O21 2.207608 1_554
Er1 O1 2.215624 1_555
Er1 O4 2.230016 1_565
Er1 O13 2.243855 1_455
Er1 O19 2.285097 1_555
Er1 O9 2.358435 1_455
Er1 O6 2.379980 1_454
Er2 O22 2.207608 1_555
Er2 O2 2.215624 1_555
Er2 O7 2.230016 1_565
Er2 O14 2.243855 1_655
Er2 O16 2.285097 1_555
Er2 O10 2.358435 1_655
Er2 O5 2.379980 1_655
Er3 O23 2.207608 1_556
Er3 O3 2.215624 1_555
Er3 O6 2.230016 1_545
Er3 O15 2.243855 1_655
Er3 O17 2.285097 1_555
Er3 O11 2.358435 1_655
Er3 O4 2.379980 1_656
Er4 O18 2.290194 1_555
Er4 O19 2.290194 1_555
Er4 O8 2.302872 1_555
Er4 O9 2.302872 1_555
Er4 O13 2.390159 1_555
Er4 O12 2.390159 1_555
Er4 O1 2.431447 1_555
Er4 O0 2.431447 1_555
Er5 O16 2.290194 1_555
Er5 O17 2.290194 1_555
Er5 O11 2.302872 1_555
Er5 O10 2.302872 1_555
Er5 O14 2.390159 1_555
Er5 O15 2.390159 1_555
Er5 O2 2.431447 1_555
Er5 O3 2.431447 1_555
Er6 O0 2.232809 1_555
Er6 O1 2.232809 1_545
Er6 O5 2.253006 1_645
Er6 O4 2.253006 1_655
Er6 O22 2.337581 1_545
Er6 O23 2.337581 1_555
Er6 O9 2.498989 1_545
Er6 O8 2.498989 1_555
Er7 O3 2.232809 1_555
Er7 O2 2.232809 1_545
Er7 O7 2.253006 1_455
Er7 O6 2.253006 1_445
Er7 O21 2.337581 1_545
Er7 O20 2.337581 1_555
Er7 O10 2.498989 1_545
Er7 O11 2.498989 1_555
O0 W0 2.056307 1_555
O1 W1 2.056307 1_555
O2 W2 2.056307 1_555
O3 W3 2.056307 1_555
O4 W0 2.023697 1_555
O5 W1 2.023697 1_555
O6 W2 2.023697 1_555
O7 W3 2.023697 1_555
O8 W0 1.958701 1_655
O9 W1 1.958701 1_655
O10 W2 1.958701 1_455
O11 W3 1.958701 1_455
O12 W3 1.869969 1_555
O13 W2 1.869969 1_554
O14 W1 1.869969 1_555
O15 W0 1.869969 1_556
O16 W3 1.849749 1_555
O17 W2 1.849749 1_555
O18 W1 1.849749 1_555
O19 W0 1.849749 1_555
O20 W3 1.882110 1_555
O21 W2 1.882110 1_555
O22 W1 1.882110 1_555
O23 W0 1.882110 1_555
