# generated using pymatgen
data_ThOs2
_symmetry_space_group_name_H-M   'P 1'
_cell_length_a   5.44966556
_cell_length_b   5.44966529
_cell_length_c   5.44966529
_cell_angle_alpha   60.00000610
_cell_angle_beta   60.00000779
_cell_angle_gamma   60.00000712
_symmetry_Int_Tables_number   1
_chemical_formula_structural   ThOs2
_chemical_formula_sum   'Th2 Os4'
_cell_volume   114.44440899
_cell_formula_units_Z   2
loop_
 _symmetry_equiv_pos_site_id
 _symmetry_equiv_pos_as_xyz
  1  'x, y, z'
loop_
 _atom_site_type_symbol
 _atom_site_label
 _atom_site_symmetry_multiplicity
 _atom_site_fract_x
 _atom_site_fract_y
 _atom_site_fract_z
 _atom_site_occupancy
  Th  Th0  1  0.87500000  0.87500000  0.87500000  1
  Th  Th1  1  0.12500000  0.12500000  0.12500000  1
  Os  Os0  1  0.50000000  -0.00000000  0.50000000  1
  Os  Os1  1  0.00000000  0.50000000  0.50000000  1
  Os  Os2  1  0.50000000  0.50000000  0.50000000  1
  Os  Os3  1  0.50000000  0.50000000  -0.00000000  1
loop_
_geom_bond_atom_site_label_1
_geom_bond_atom_site_label_2
_geom_bond_distance
_geom_bond_site_symmetry_2
Os0 Os2 2.724833 1_555
Os0 Os2 2.724833 1_545
Os0 Os3 2.724833 1_546
Os0 Os3 2.724833 1_555
Os0 Os1 2.724833 1_645
Os0 Os1 2.724833 1_555
Os0 Th1 3.195150 1_555
Os0 Th0 3.195150 1_545
Os0 Th1 3.195150 1_556
Os0 Th0 3.195150 1_544
Os0 Th1 3.195150 1_655
Os0 Th0 3.195150 1_445
Os1 Os2 2.724833 1_555
Os1 Os2 2.724833 1_455
Os1 Os3 2.724833 1_456
Os1 Os3 2.724833 1_555
Os1 Th1 3.195149 1_555
Os1 Th0 3.195149 1_455
Os1 Th0 3.195150 1_454
Os1 Th1 3.195150 1_556
Os1 Th0 3.195150 1_445
Os1 Th1 3.195150 1_565
Os2 Os3 2.724833 1_556
Os2 Os3 2.724833 1_555
Os2 Th1 3.195150 1_565
Os2 Th0 3.195150 1_545
Os2 Th1 3.195150 1_556
Os2 Th0 3.195150 1_554
Os2 Th0 3.195150 1_455
Os2 Th1 3.195150 1_655
Os3 Th1 3.195150 1_555
Os3 Th0 3.195150 1_554
Os3 Th0 3.195150 1_544
Os3 Th1 3.195150 1_565
Os3 Th0 3.195150 1_454
Os3 Th1 3.195150 1_655
