# generated using pymatgen
data_Yb3(Si3Pd10)2
_symmetry_space_group_name_H-M   'P 1'
_cell_length_a   8.60843939
_cell_length_b   8.60843939
_cell_length_c   8.60843939
_cell_angle_alpha   60.00000000
_cell_angle_beta   60.00000000
_cell_angle_gamma   60.00000000
_symmetry_Int_Tables_number   1
_chemical_formula_structural   Yb3(Si3Pd10)2
_chemical_formula_sum   'Yb3 Si6 Pd20'
_cell_volume   451.08489023
_cell_formula_units_Z   1
loop_
 _symmetry_equiv_pos_site_id
 _symmetry_equiv_pos_as_xyz
  1  'x, y, z'
loop_
 _atom_site_type_symbol
 _atom_site_label
 _atom_site_symmetry_multiplicity
 _atom_site_fract_x
 _atom_site_fract_y
 _atom_site_fract_z
 _atom_site_occupancy
  Yb  Yb0  1  0.25000000  0.25000000  0.25000000  1
  Yb  Yb1  1  0.75000000  0.75000000  0.75000000  1
  Yb  Yb2  1  0.00000000  0.00000000  0.00000000  1
  Si  Si0  1  0.73247283  0.26752717  0.26752717  1
  Si  Si1  1  0.26752717  0.73247283  0.73247283  1
  Si  Si2  1  0.26752717  0.73247283  0.26752717  1
  Si  Si3  1  0.73247283  0.26752717  0.73247283  1
  Si  Si4  1  0.26752717  0.26752717  0.73247283  1
  Si  Si5  1  0.73247283  0.73247283  0.26752717  1
  Pd  Pd0  1  0.38264270  0.38264270  0.38264270  1
  Pd  Pd1  1  0.61735730  0.61735730  0.61735730  1
  Pd  Pd2  1  0.38264270  0.38264270  0.85207291  1
  Pd  Pd3  1  0.38264270  0.85207291  0.38264270  1
  Pd  Pd4  1  0.61735730  0.61735730  0.14792709  1
  Pd  Pd5  1  0.61735730  0.14792709  0.61735730  1
  Pd  Pd6  1  0.85207291  0.38264270  0.38264270  1
  Pd  Pd7  1  0.14792709  0.61735730  0.61735730  1
  Pd  Pd8  1  0.34489681  0.00000000  0.00000000  1
  Pd  Pd9  1  0.65510319  0.00000000  0.00000000  1
  Pd  Pd10  1  0.00000000  0.34489681  0.65510319  1
  Pd  Pd11  1  0.00000000  0.65510319  0.34489681  1
  Pd  Pd12  1  0.00000000  0.34489681  0.00000000  1
  Pd  Pd13  1  0.65510319  0.00000000  0.34489681  1
  Pd  Pd14  1  0.00000000  0.65510319  0.00000000  1
  Pd  Pd15  1  0.34489681  0.00000000  0.65510319  1
  Pd  Pd16  1  0.00000000  0.00000000  0.34489681  1
  Pd  Pd17  1  0.00000000  0.00000000  0.65510319  1
  Pd  Pd18  1  0.65510319  0.34489681  0.00000000  1
  Pd  Pd19  1  0.34489681  0.65510319  0.00000000  1
loop_
_geom_bond_atom_site_label_1
_geom_bond_atom_site_label_2
_geom_bond_distance
_geom_bond_site_symmetry_2
Pd0 Si0 2.458973 1_555
Pd0 Si2 2.458973 1_555
Pd0 Si4 2.458973 1_555
Pd0 Yb0 2.796942 1_555
Pd1 Si1 2.458973 1_555
Pd1 Si5 2.458973 1_555
Pd1 Si3 2.458973 1_555
Pd1 Yb1 2.796942 1_555
Pd2 Si1 2.458974 1_555
Pd2 Si3 2.458974 1_555
Pd2 Si4 2.458981 1_555
Pd2 Yb0 2.796935 1_556
Pd3 Si1 2.458974 1_555
Pd3 Si5 2.458974 1_555
Pd3 Si2 2.458981 1_555
Pd3 Yb0 2.796935 1_565
Pd4 Si2 2.458974 1_555
Pd4 Si0 2.458974 1_555
Pd4 Si5 2.458981 1_555
Pd4 Yb1 2.796935 1_554
Pd5 Si4 2.458974 1_555
Pd5 Si0 2.458974 1_555
Pd5 Si3 2.458981 1_555
Pd5 Yb1 2.796935 1_545
Pd6 Si5 2.458974 1_555
Pd6 Si3 2.458974 1_555
Pd6 Si0 2.458981 1_555
Pd6 Yb0 2.796935 1_655
Pd7 Si4 2.458974 1_555
Pd7 Si2 2.458974 1_555
Pd7 Si1 2.458981 1_555
Pd7 Yb1 2.796935 1_455
Pd8 Si4 2.397367 1_554
Pd8 Si2 2.397367 1_545
Pd8 Yb2 2.969023 1_555
Pd9 Si5 2.397367 1_545
Pd9 Si3 2.397367 1_554
Pd9 Yb2 2.969023 1_655
Pd10 Si4 2.397367 1_555
Pd10 Si3 2.397367 1_455
Pd10 Yb2 2.969023 1_556
Pd11 Si2 2.397367 1_555
Pd11 Si5 2.397367 1_455
Pd11 Yb2 2.969023 1_565
Pd12 Si4 2.397367 1_554
Pd12 Si0 2.397367 1_455
Pd12 Yb2 2.969023 1_555
Pd13 Si0 2.397367 1_555
Pd13 Si5 2.397367 1_545
Pd13 Yb2 2.969023 1_655
Pd14 Si5 2.397367 1_455
Pd14 Si1 2.397367 1_554
Pd14 Yb2 2.969023 1_565
Pd15 Si4 2.397367 1_555
Pd15 Si1 2.397367 1_545
Pd15 Yb2 2.969023 1_556
Pd16 Si2 2.397367 1_545
Pd16 Si0 2.397367 1_455
Pd16 Yb2 2.969023 1_555
Pd17 Si1 2.397367 1_545
Pd17 Si3 2.397367 1_455
Pd17 Yb2 2.969023 1_556
Pd18 Si0 2.397367 1_555
Pd18 Si3 2.397367 1_554
Pd18 Yb2 2.969023 1_655
Pd19 Si2 2.397367 1_555
Pd19 Si1 2.397367 1_554
Pd19 Yb2 2.969023 1_565
