# generated using pymatgen
data_KFe2(MoO5)2
_symmetry_space_group_name_H-M   'P 1'
_cell_length_a   5.88257123
_cell_length_b   5.88257123
_cell_length_c   8.56104336
_cell_angle_alpha   68.59196581
_cell_angle_beta   68.59196581
_cell_angle_gamma   61.36119424
_symmetry_Int_Tables_number   1
_chemical_formula_structural   KFe2(MoO5)2
_chemical_formula_sum   'K1 Fe2 Mo2 O10'
_cell_volume   235.42888267
_cell_formula_units_Z   1
loop_
 _symmetry_equiv_pos_site_id
 _symmetry_equiv_pos_as_xyz
  1  'x, y, z'
loop_
 _atom_site_type_symbol
 _atom_site_label
 _atom_site_symmetry_multiplicity
 _atom_site_fract_x
 _atom_site_fract_y
 _atom_site_fract_z
 _atom_site_occupancy
  K  K0  1  0.50000000  0.50000000  0.50000000  1
  Fe  Fe0  1  0.00000000  0.50000000  0.00000000  1
  Fe  Fe1  1  0.50000000  0.00000000  0.00000000  1
  Mo  Mo0  1  0.07051700  0.07051700  0.74392900  1
  Mo  Mo1  1  0.92948300  0.92948300  0.25607100  1
  O  O0  1  0.30736900  0.30736900  0.08388300  1
  O  O1  1  0.69263100  0.69263100  0.91611700  1
  O  O2  1  0.19288100  0.71453600  0.78398700  1
  O  O3  1  0.71453600  0.19288100  0.78398700  1
  O  O4  1  0.80711900  0.28546400  0.21601300  1
  O  O5  1  0.28546400  0.80711900  0.21601300  1
  O  O6  1  0.19266900  0.19266900  0.52715400  1
  O  O7  1  0.80733100  0.80733100  0.47284600  1
  O  O8  1  0.17384600  0.17384600  0.88357600  1
  O  O9  1  0.82615400  0.82615400  0.11642400  1
loop_
_geom_bond_atom_site_label_1
_geom_bond_atom_site_label_2
_geom_bond_distance
_geom_bond_site_symmetry_2
K0 O3 2.759591 1_555
K0 O2 2.759591 1_555
K0 O4 2.759591 1_555
K0 O5 2.759591 1_555
K0 O7 3.018359 1_555
K0 O6 3.018359 1_555
Fe0 O0 1.859809 1_555
Fe0 O1 1.859809 1_454
Fe0 O4 2.106441 1_455
Fe0 O2 2.106441 1_554
Fe0 O9 2.119312 1_455
Fe0 O8 2.119312 1_554
Fe1 O0 1.859809 1_555
Fe1 O1 1.859809 1_544
Fe1 O5 2.106441 1_545
Fe1 O3 2.106441 1_554
Fe1 O9 2.119312 1_545
Fe1 O8 2.119312 1_554
Mo0 O6 1.739167 1_555
Mo0 O2 1.797768 1_545
Mo0 O3 1.797768 1_455
Mo0 O8 1.892978 1_555
Mo1 O7 1.739167 1_555
Mo1 O4 1.797768 1_565
Mo1 O5 1.797768 1_655
Mo1 O9 1.892978 1_555
