# generated using pymatgen
data_Zr6FeSb2
_symmetry_space_group_name_H-M   'P 1'
_cell_length_a   7.77957168
_cell_length_b   7.77958071
_cell_length_c   3.69094580
_cell_angle_alpha   90.00000000
_cell_angle_beta   90.00000000
_cell_angle_gamma   119.99991594
_symmetry_Int_Tables_number   1
_chemical_formula_structural   Zr6FeSb2
_chemical_formula_sum   'Zr6 Fe1 Sb2'
_cell_volume   193.45526109
_cell_formula_units_Z   1
loop_
 _symmetry_equiv_pos_site_id
 _symmetry_equiv_pos_as_xyz
  1  'x, y, z'
loop_
 _atom_site_type_symbol
 _atom_site_label
 _atom_site_symmetry_multiplicity
 _atom_site_fract_x
 _atom_site_fract_y
 _atom_site_fract_z
 _atom_site_occupancy
  Zr  Zr0  1  0.59670724  0.00000001  0.50000000  1
  Zr  Zr1  1  0.00002817  0.23915153  0.00000000  1
  Zr  Zr2  1  0.76087451  0.76084638  -0.00000000  1
  Zr  Zr3  1  0.40330025  0.40331202  0.50000000  1
  Zr  Zr4  1  -0.00001184  0.59668429  0.50000000  1
  Zr  Zr5  1  0.23909866  -0.00000012  -0.00000000  1
  Fe  Fe0  1  0.00001961  0.00000420  0.50000000  1
  Sb  Sb0  1  0.33332276  0.66664147  -0.00000000  1
  Sb  Sb1  1  0.66666063  0.33336023  -0.00000000  1
loop_
_geom_bond_atom_site_label_1
_geom_bond_atom_site_label_2
_geom_bond_distance
_geom_bond_site_symmetry_2
Fe0 Zr5 2.620149 1_556
Fe0 Zr5 2.620149 1_555
Fe0 Zr1 2.620492 1_555
Fe0 Zr1 2.620492 1_556
Fe0 Zr2 2.620540 1_446
Fe0 Zr2 2.620540 1_445
Fe0 Zr3 3.137462 1_555
Fe0 Zr4 3.137537 1_545
Fe0 Zr0 3.137581 1_455
Sb0 Zr3 3.002351 1_554
Sb0 Zr3 3.002351 1_555
Sb0 Zr4 3.002556 1_555
Sb0 Zr4 3.002556 1_554
Sb0 Zr0 3.002670 1_564
Sb0 Zr0 3.002670 1_565
Sb0 Zr1 3.026578 1_555
Sb0 Zr2 3.027020 1_555
Sb0 Zr5 3.027209 1_565
Sb1 Zr4 3.002425 1_655
Sb1 Zr4 3.002425 1_654
Sb1 Zr3 3.002431 1_555
Sb1 Zr3 3.002431 1_554
Sb1 Zr0 3.002719 1_555
Sb1 Zr0 3.002719 1_554
Sb1 Zr2 3.026504 1_555
Sb1 Zr5 3.027109 1_555
Sb1 Zr1 3.027196 1_655
