# generated using pymatgen
data_Mg30VBiO32
_symmetry_space_group_name_H-M   'P 1'
_cell_length_a   8.64540300
_cell_length_b   8.64540300
_cell_length_c   8.64243400
_cell_angle_alpha   90.00000000
_cell_angle_beta   90.00000000
_cell_angle_gamma   90.00000000
_symmetry_Int_Tables_number   1
_chemical_formula_structural   Mg30VBiO32
_chemical_formula_sum   'Mg30 V1 Bi1 O32'
_cell_volume   645.96138425
_cell_formula_units_Z   1
loop_
 _symmetry_equiv_pos_site_id
 _symmetry_equiv_pos_as_xyz
  1  'x, y, z'
loop_
 _atom_site_type_symbol
 _atom_site_label
 _atom_site_symmetry_multiplicity
 _atom_site_fract_x
 _atom_site_fract_y
 _atom_site_fract_z
 _atom_site_occupancy
  Mg  Mg0  1  0.50000000  0.00000000  0.00000000  1
  Mg  Mg1  1  0.00000000  0.50000000  0.00000000  1
  Mg  Mg2  1  0.00000000  0.00000000  0.50000000  1
  Mg  Mg3  1  0.50000000  0.00000000  0.50000000  1
  Mg  Mg4  1  0.00000000  0.50000000  0.50000000  1
  Mg  Mg5  1  0.50000000  0.50000000  0.50000000  1
  Mg  Mg6  1  0.24351100  0.24351100  0.00000000  1
  Mg  Mg7  1  0.75648900  0.24351100  0.00000000  1
  Mg  Mg8  1  0.24351100  0.75648900  0.00000000  1
  Mg  Mg9  1  0.75648900  0.75648900  0.00000000  1
  Mg  Mg10  1  0.24883900  0.24883900  0.50000000  1
  Mg  Mg11  1  0.75116100  0.24883900  0.50000000  1
  Mg  Mg12  1  0.24883900  0.75116100  0.50000000  1
  Mg  Mg13  1  0.75116100  0.75116100  0.50000000  1
  Mg  Mg14  1  0.24958100  0.00000000  0.25176700  1
  Mg  Mg15  1  0.75041900  0.00000000  0.25176700  1
  Mg  Mg16  1  0.24286000  0.50000000  0.25712400  1
  Mg  Mg17  1  0.75714000  0.50000000  0.25712400  1
  Mg  Mg18  1  0.24958100  0.00000000  0.74823300  1
  Mg  Mg19  1  0.75041900  0.00000000  0.74823300  1
  Mg  Mg20  1  0.24286000  0.50000000  0.74287600  1
  Mg  Mg21  1  0.75714000  0.50000000  0.74287600  1
  Mg  Mg22  1  0.00000000  0.24958100  0.25176700  1
  Mg  Mg23  1  0.50000000  0.24286000  0.25712400  1
  Mg  Mg24  1  0.00000000  0.75041900  0.25176700  1
  Mg  Mg25  1  0.50000000  0.75714000  0.25712400  1
  Mg  Mg26  1  0.00000000  0.24958100  0.74823300  1
  Mg  Mg27  1  0.50000000  0.24286000  0.74287600  1
  Mg  Mg28  1  0.00000000  0.75041900  0.74823300  1
  Mg  Mg29  1  0.50000000  0.75714000  0.74287600  1
  V  V0  1  0.00000000  0.00000000  0.00000000  1
  Bi  Bi0  1  0.50000000  0.50000000  0.00000000  1
  O  O0  1  0.00000000  0.00000000  0.25503500  1
  O  O1  1  0.50000000  0.00000000  0.25363700  1
  O  O2  1  0.00000000  0.50000000  0.25363700  1
  O  O3  1  0.50000000  0.50000000  0.26928200  1
  O  O4  1  0.00000000  0.00000000  0.74496500  1
  O  O5  1  0.50000000  0.00000000  0.74636300  1
  O  O6  1  0.00000000  0.50000000  0.74636300  1
  O  O7  1  0.50000000  0.50000000  0.73071800  1
  O  O8  1  0.25044000  0.25044000  0.24919800  1
  O  O9  1  0.74956000  0.25044000  0.24919800  1
  O  O10  1  0.25044000  0.74956000  0.24919800  1
  O  O11  1  0.74956000  0.74956000  0.24919800  1
  O  O12  1  0.25044000  0.25044000  0.75080200  1
  O  O13  1  0.74956000  0.25044000  0.75080200  1
  O  O14  1  0.25044000  0.74956000  0.75080200  1
  O  O15  1  0.74956000  0.74956000  0.75080200  1
  O  O16  1  0.25255400  0.00000000  0.00000000  1
  O  O17  1  0.74744600  0.00000000  0.00000000  1
  O  O18  1  0.23124700  0.50000000  0.00000000  1
  O  O19  1  0.76875300  0.50000000  0.00000000  1
  O  O20  1  0.24988400  0.00000000  0.50000000  1
  O  O21  1  0.75011600  0.00000000  0.50000000  1
  O  O22  1  0.24710900  0.50000000  0.50000000  1
  O  O23  1  0.75289100  0.50000000  0.50000000  1
  O  O24  1  0.00000000  0.25255400  0.00000000  1
  O  O25  1  0.50000000  0.23124700  0.00000000  1
  O  O26  1  0.00000000  0.74744600  0.00000000  1
  O  O27  1  0.50000000  0.76875300  0.00000000  1
  O  O28  1  0.00000000  0.24988400  0.50000000  1
  O  O29  1  0.50000000  0.24710900  0.50000000  1
  O  O30  1  0.00000000  0.75011600  0.50000000  1
  O  O31  1  0.50000000  0.75289100  0.50000000  1
loop_
_geom_bond_atom_site_label_1
_geom_bond_atom_site_label_2
_geom_bond_distance
_geom_bond_site_symmetry_2
Mg0 O27 1.999224 1_545
Mg0 O25 1.999224 1_555
Mg0 O16 2.139270 1_555
Mg0 O17 2.139270 1_555
Mg0 O5 2.192041 1_554
Mg0 O1 2.192041 1_555
Mg1 O19 1.999224 1_455
Mg1 O18 1.999224 1_555
Mg1 O24 2.139270 1_555
Mg1 O26 2.139270 1_555
Mg1 O2 2.192041 1_555
Mg1 O6 2.192041 1_554
Mg2 O4 2.117094 1_555
Mg2 O0 2.117094 1_555
Mg2 O20 2.160348 1_555
Mg2 O28 2.160348 1_555
Mg2 O30 2.160348 1_545
Mg2 O21 2.160348 1_455
Mg3 O1 2.129176 1_555
Mg3 O5 2.129176 1_555
Mg3 O29 2.136357 1_555
Mg3 O31 2.136357 1_545
Mg3 O21 2.162354 1_555
Mg3 O20 2.162354 1_555
Mg4 O2 2.129176 1_555
Mg4 O6 2.129176 1_555
Mg4 O22 2.136357 1_555
Mg4 O23 2.136357 1_455
Mg4 O30 2.162354 1_555
Mg4 O28 2.162354 1_555
Mg5 O3 1.993965 1_555
Mg5 O7 1.993965 1_555
Mg5 O31 2.186345 1_555
Mg5 O22 2.186345 1_555
Mg5 O23 2.186345 1_555
Mg5 O29 2.186345 1_555
Mg6 O24 2.106702 1_555
Mg6 O16 2.106702 1_555
Mg6 O8 2.155343 1_555
Mg6 O12 2.155343 1_554
Mg6 O25 2.219984 1_555
Mg6 O18 2.219984 1_555
Mg7 O17 2.106702 1_555
Mg7 O24 2.106702 1_655
Mg7 O9 2.155343 1_555
Mg7 O13 2.155343 1_554
Mg7 O25 2.219984 1_555
Mg7 O19 2.219984 1_555
Mg8 O26 2.106702 1_555
Mg8 O16 2.106702 1_565
Mg8 O10 2.155343 1_555
Mg8 O14 2.155343 1_554
Mg8 O27 2.219984 1_555
Mg8 O18 2.219984 1_555
Mg9 O26 2.106702 1_655
Mg9 O17 2.106702 1_565
Mg9 O11 2.155343 1_555
Mg9 O15 2.155343 1_554
Mg9 O19 2.219984 1_555
Mg9 O27 2.219984 1_555
Mg10 O20 2.151332 1_555
Mg10 O28 2.151332 1_555
Mg10 O8 2.167628 1_555
Mg10 O12 2.167628 1_555
Mg10 O29 2.171440 1_555
Mg10 O22 2.171440 1_555
Mg11 O21 2.151332 1_555
Mg11 O28 2.151332 1_655
Mg11 O9 2.167628 1_555
Mg11 O13 2.167628 1_555
Mg11 O29 2.171440 1_555
Mg11 O23 2.171440 1_555
Mg12 O30 2.151332 1_555
Mg12 O20 2.151332 1_565
Mg12 O14 2.167628 1_555
Mg12 O10 2.167628 1_555
Mg12 O31 2.171440 1_555
Mg12 O22 2.171440 1_555
Mg13 O21 2.151332 1_565
Mg13 O30 2.151332 1_655
Mg13 O11 2.167628 1_555
Mg13 O15 2.167628 1_555
Mg13 O31 2.171440 1_555
Mg13 O23 2.171440 1_555
Mg14 O20 2.145339 1_555
Mg14 O0 2.157913 1_555
Mg14 O1 2.165033 1_555
Mg14 O8 2.165281 1_555
Mg14 O10 2.165281 1_545
Mg14 O16 2.176031 1_555
Mg15 O21 2.145339 1_555
Mg15 O0 2.157913 1_655
Mg15 O1 2.165033 1_555
Mg15 O9 2.165281 1_555
Mg15 O11 2.165281 1_545
Mg15 O17 2.176031 1_555
Mg16 O22 2.099361 1_555
Mg16 O2 2.099839 1_555
Mg16 O10 2.159628 1_555
Mg16 O8 2.159628 1_555
Mg16 O18 2.224444 1_555
Mg16 O3 2.225561 1_555
Mg17 O23 2.099361 1_555
Mg17 O2 2.099839 1_655
Mg17 O11 2.159628 1_555
Mg17 O9 2.159628 1_555
Mg17 O19 2.224444 1_555
Mg17 O3 2.225561 1_555
Mg18 O20 2.145339 1_555
Mg18 O4 2.157913 1_555
Mg18 O5 2.165033 1_555
Mg18 O12 2.165281 1_555
Mg18 O14 2.165281 1_545
Mg18 O16 2.176031 1_556
Mg19 O21 2.145339 1_555
Mg19 O4 2.157913 1_655
Mg19 O5 2.165033 1_555
Mg19 O15 2.165281 1_545
Mg19 O13 2.165281 1_555
Mg19 O17 2.176031 1_556
Mg20 O22 2.099361 1_555
Mg20 O6 2.099839 1_555
Mg20 O12 2.159628 1_555
Mg20 O14 2.159628 1_555
Mg20 O18 2.224444 1_556
Mg20 O7 2.225561 1_555
Mg21 O23 2.099361 1_555
Mg21 O6 2.099839 1_655
Mg21 O15 2.159628 1_555
Mg21 O13 2.159628 1_555
Mg21 O19 2.224444 1_556
Mg21 O7 2.225561 1_555
Mg22 O28 2.145339 1_555
Mg22 O0 2.157913 1_555
Mg22 O2 2.165033 1_555
Mg22 O8 2.165281 1_555
Mg22 O9 2.165281 1_455
Mg22 O24 2.176031 1_555
Mg23 O29 2.099361 1_555
Mg23 O1 2.099839 1_555
Mg23 O8 2.159628 1_555
Mg23 O9 2.159628 1_555
Mg23 O25 2.224444 1_555
Mg23 O3 2.225561 1_555
Mg24 O30 2.145339 1_555
Mg24 O0 2.157913 1_565
Mg24 O2 2.165033 1_555
Mg24 O11 2.165281 1_455
Mg24 O10 2.165281 1_555
Mg24 O26 2.176031 1_555
Mg25 O31 2.099361 1_555
Mg25 O1 2.099839 1_565
Mg25 O10 2.159628 1_555
Mg25 O11 2.159628 1_555
Mg25 O27 2.224444 1_555
Mg25 O3 2.225561 1_555
Mg26 O28 2.145339 1_555
Mg26 O4 2.157913 1_555
Mg26 O6 2.165033 1_555
Mg26 O12 2.165281 1_555
Mg26 O13 2.165281 1_455
Mg26 O24 2.176031 1_556
Mg27 O29 2.099361 1_555
Mg27 O5 2.099839 1_555
Mg27 O13 2.159628 1_555
Mg27 O12 2.159628 1_555
Mg27 O25 2.224444 1_556
Mg27 O7 2.225561 1_555
Mg28 O30 2.145339 1_555
Mg28 O4 2.157913 1_565
Mg28 O6 2.165033 1_555
Mg28 O14 2.165281 1_555
Mg28 O15 2.165281 1_455
Mg28 O26 2.176031 1_556
Mg29 O31 2.099361 1_555
Mg29 O5 2.099839 1_565
Mg29 O15 2.159628 1_555
Mg29 O14 2.159628 1_555
Mg29 O27 2.224444 1_556
Mg29 O7 2.225561 1_555
Bi0 O25 2.323478 1_555
Bi0 O18 2.323478 1_555
Bi0 O19 2.323478 1_555
Bi0 O27 2.323478 1_555
Bi0 O7 2.327252 1_554
Bi0 O3 2.327252 1_555
O0 V0 2.204123 1_555
O4 V0 2.204123 1_556
O16 V0 2.183431 1_555
O17 V0 2.183431 1_655
O24 V0 2.183431 1_555
O26 V0 2.183431 1_565
