# generated using pymatgen
data_CaMg14Sn
_symmetry_space_group_name_H-M   'P 1'
_cell_length_a   6.45797085
_cell_length_b   6.45797031
_cell_length_c   10.61592470
_cell_angle_alpha   90.00000000
_cell_angle_beta   90.00000000
_cell_angle_gamma   120.00000280
_symmetry_Int_Tables_number   1
_chemical_formula_structural   CaMg14Sn
_chemical_formula_sum   'Ca1 Mg14 Sn1'
_cell_volume   383.42512993
_cell_formula_units_Z   1
loop_
 _symmetry_equiv_pos_site_id
 _symmetry_equiv_pos_as_xyz
  1  'x, y, z'
loop_
 _atom_site_type_symbol
 _atom_site_label
 _atom_site_symmetry_multiplicity
 _atom_site_fract_x
 _atom_site_fract_y
 _atom_site_fract_z
 _atom_site_occupancy
  Ca  Ca0  1  0.16666700  0.33333300  0.12500000  1
  Mg  Mg0  1  0.17139236  0.83569568  0.12500000  1
  Mg  Mg1  1  0.16357954  0.83178927  0.62500000  1
  Mg  Mg2  1  0.66430432  0.32860764  0.12500000  1
  Mg  Mg3  1  0.66821073  0.33642046  0.62500000  1
  Mg  Mg4  1  0.66430432  0.83569568  0.12500000  1
  Mg  Mg5  1  0.66821073  0.83178927  0.62500000  1
  Mg  Mg6  1  0.33499536  0.16500464  0.37792362  1
  Mg  Mg7  1  0.33499536  0.16500464  0.87207638  1
  Mg  Mg8  1  0.33499536  0.66999172  0.37792362  1
  Mg  Mg9  1  0.33499536  0.66999172  0.87207638  1
  Mg  Mg10  1  0.83000828  0.16500464  0.37792362  1
  Mg  Mg11  1  0.83000828  0.16500464  0.87207638  1
  Mg  Mg12  1  0.83333300  0.66666700  0.36992867  1
  Mg  Mg13  1  0.83333300  0.66666700  0.88007133  1
  Sn  Sn0  1  0.16666700  0.33333300  0.62500000  1
loop_
_geom_bond_atom_site_label_1
_geom_bond_atom_site_label_2
_geom_bond_distance
_geom_bond_site_symmetry_2
Ca0 Mg4 3.229093 1_555
Ca0 Mg0 3.229093 1_555
Ca0 Mg4 3.229093 1_445
Ca0 Mg0 3.229093 1_545
Ca0 Mg2 3.229094 1_455
Ca0 Mg2 3.229094 1_555
Ca0 Mg7 3.279393 1_554
Ca0 Mg6 3.279393 1_555
Ca0 Mg9 3.279399 1_554
Ca0 Mg8 3.279399 1_555
Ca0 Mg10 3.279399 1_455
Ca0 Mg11 3.279399 1_454
Mg0 Mg2 3.183211 1_565
Mg0 Mg4 3.183211 1_555
Mg0 Mg13 3.214879 1_454
Mg0 Mg12 3.214879 1_455
Mg0 Mg9 3.255973 1_554
Mg0 Mg8 3.255973 1_555
Mg0 Mg6 3.255980 1_565
Mg0 Mg7 3.255980 1_564
Mg0 Mg2 3.274760 1_455
Mg0 Mg4 3.274760 1_455
Mg1 Mg3 3.199077 1_455
Mg1 Mg5 3.199077 1_455
Mg1 Mg8 3.217724 1_555
Mg1 Mg9 3.217724 1_555
Mg1 Mg6 3.217730 1_565
Mg1 Mg7 3.217730 1_565
Mg1 Sn0 3.229031 1_565
Mg1 Sn0 3.229031 1_555
Mg1 Mg3 3.258893 1_565
Mg1 Mg5 3.258894 1_555
Mg1 Mg13 3.277752 1_455
Mg1 Mg12 3.277752 1_455
Mg2 Mg4 3.183211 1_545
Mg2 Mg7 3.255980 1_554
Mg2 Mg6 3.255980 1_555
Mg2 Mg4 3.274760 1_555
Mg3 Mg5 3.199077 1_555
Mg3 Mg6 3.217731 1_555
Mg3 Mg7 3.217731 1_555
Mg3 Sn0 3.229032 1_555
Mg3 Sn0 3.229032 1_655
Mg3 Mg5 3.258893 1_545
Mg4 Mg9 3.255980 1_554
Mg4 Mg8 3.255980 1_555
Mg5 Mg9 3.217731 1_555
Mg5 Mg8 3.217731 1_555
Mg5 Sn0 3.229031 1_665
Mg5 Sn0 3.229031 1_555
Mg6 Mg8 3.196779 1_545
Mg6 Sn0 3.228766 1_555
Mg6 Mg8 3.261192 1_555
Mg7 Mg9 3.196779 1_545
Mg7 Sn0 3.228766 1_555
Mg7 Mg9 3.261192 1_555
Mg8 Sn0 3.228773 1_555
Mg9 Sn0 3.228773 1_555
Mg10 Mg8 3.196779 1_545
Mg10 Mg6 3.196779 1_555
Mg10 Mg3 3.217724 1_555
Mg10 Mg5 3.217731 1_545
Mg10 Sn0 3.228773 1_655
Mg10 Mg12 3.230154 1_555
Mg10 Mg12 3.230154 1_545
Mg10 Mg2 3.255973 1_555
Mg10 Mg4 3.255980 1_545
Mg10 Mg8 3.261192 1_655
Mg10 Mg6 3.261192 1_655
Mg11 Mg9 3.196779 1_545
Mg11 Mg7 3.196779 1_555
Mg11 Mg3 3.217724 1_555
Mg11 Mg5 3.217731 1_545
Mg11 Sn0 3.228773 1_655
Mg11 Mg13 3.230154 1_555
Mg11 Mg13 3.230154 1_545
Mg11 Mg2 3.255973 1_556
Mg11 Mg4 3.255980 1_546
Mg11 Mg9 3.261192 1_655
Mg11 Mg7 3.261192 1_655
Mg12 Mg4 3.214873 1_555
Mg12 Mg2 3.214879 1_555
Mg12 Mg6 3.230154 1_555
Mg12 Mg6 3.230154 1_665
Mg12 Mg8 3.230154 1_655
Mg12 Mg8 3.230154 1_555
Mg12 Mg5 3.277746 1_555
Mg12 Mg3 3.277752 1_555
Mg13 Mg4 3.214873 1_556
Mg13 Mg2 3.214879 1_556
Mg13 Mg7 3.230154 1_555
Mg13 Mg7 3.230154 1_665
Mg13 Mg9 3.230154 1_655
Mg13 Mg9 3.230154 1_555
Mg13 Mg5 3.277746 1_555
Mg13 Mg3 3.277752 1_555
