# generated using pymatgen
data_La7SmMn2(Fe3O10)2
_symmetry_space_group_name_H-M   'P 1'
_cell_length_a   11.06817327
_cell_length_b   11.85698871
_cell_length_c   17.83707282
_cell_angle_alpha   109.40952514
_cell_angle_beta   108.02257322
_cell_angle_gamma   89.92206666
_symmetry_Int_Tables_number   1
_chemical_formula_structural   La7SmMn2(Fe3O10)2
_chemical_formula_sum   'La28 Sm4 Mn8 Fe24 O80'
_cell_volume   2086.01225092
_cell_formula_units_Z   4
loop_
 _symmetry_equiv_pos_site_id
 _symmetry_equiv_pos_as_xyz
  1  'x, y, z'
loop_
 _atom_site_type_symbol
 _atom_site_label
 _atom_site_symmetry_multiplicity
 _atom_site_fract_x
 _atom_site_fract_y
 _atom_site_fract_z
 _atom_site_occupancy
  La  La0  1  0.30352840  0.06399821  0.11324782  1
  La  La1  1  0.30295897  0.06353589  0.60831997  1
  La  La2  1  0.30229832  0.56579112  0.60981176  1
  La  La3  1  0.80485469  0.06470467  0.61211561  1
  La  La4  1  0.80498352  0.56402304  0.11185958  1
  La  La5  1  0.80213674  0.56505785  0.60920764  1
  La  La6  1  0.19254910  0.43472581  0.38843226  1
  La  La7  1  0.19084052  0.43483783  0.89225838  1
  La  La8  1  0.19179915  0.93389223  0.38596552  1
  La  La9  1  0.19176648  0.93792001  0.88993463  1
  La  La10  1  0.69254336  0.43460485  0.38737617  1
  La  La11  1  0.69334535  0.93609060  0.38954789  1
  La  La12  1  0.69204647  0.93440137  0.88926287  1
  La  La13  1  0.05203033  0.29639805  0.11038396  1
  La  La14  1  0.05184159  0.29383075  0.60967492  1
  La  La15  1  0.05241122  0.79704411  0.61019101  1
  La  La16  1  0.55537181  0.29586718  0.11213761  1
  La  La17  1  0.55256858  0.29548355  0.61101291  1
  La  La18  1  0.55043795  0.79744180  0.11135616  1
  La  La19  1  0.55467567  0.79422818  0.61049015  1
  La  La20  1  0.44324577  0.20229716  0.38748550  1
  La  La21  1  0.44588282  0.20665019  0.89123210  1
  La  La22  1  0.44364413  0.70490432  0.38828266  1
  La  La23  1  0.44174042  0.70500431  0.89025340  1
  La  La24  1  0.94316980  0.20404470  0.38768901  1
  La  La25  1  0.94030020  0.20286942  0.88818767  1
  La  La26  1  0.94353304  0.70194519  0.38688006  1
  La  La27  1  0.94191393  0.70594000  0.89210736  1
  Sm  Sm0  1  0.30162772  0.56766203  0.10895598  1
  Sm  Sm1  1  0.80224977  0.06527259  0.10797042  1
  Sm  Sm2  1  0.69083348  0.43417263  0.89273334  1
  Sm  Sm3  1  0.05462822  0.79536860  0.11156668  1
  Mn  Mn0  1  0.10923997  0.59725846  0.75068022  1
  Mn  Mn1  1  0.61097558  0.09883115  0.75045725  1
  Mn  Mn2  1  0.61077389  0.59676180  0.75194747  1
  Mn  Mn3  1  0.35861256  0.40571276  0.24823173  1
  Mn  Mn4  1  0.36107337  0.40223437  0.75090633  1
  Mn  Mn5  1  0.35889024  0.90379611  0.75031677  1
  Mn  Mn6  1  0.85796054  0.40298897  0.75179521  1
  Mn  Mn7  1  0.86061692  0.90375641  0.24709508  1
  Fe  Fe0  1  0.00569630  0.99989197  0.00227271  1
  Fe  Fe1  1  0.00462590  0.99812667  0.49821760  1
  Fe  Fe2  1  0.00518925  0.50112468  0.00150657  1
  Fe  Fe3  1  0.00470522  0.50001198  0.49982951  1
  Fe  Fe4  1  0.50597636  0.00011916  0.00116786  1
  Fe  Fe5  1  0.50488002  0.00037131  0.49937913  1
  Fe  Fe6  1  0.50566448  0.50071628  0.00062354  1
  Fe  Fe7  1  0.50454592  0.49868841  0.49884204  1
  Fe  Fe8  1  0.25687581  0.25163200  0.00291932  1
  Fe  Fe9  1  0.25466562  0.24953821  0.49917709  1
  Fe  Fe10  1  0.25426443  0.75144745  0.00056928  1
  Fe  Fe11  1  0.25520730  0.74937920  0.49899933  1
  Fe  Fe12  1  0.75564577  0.24990760  0.00054291  1
  Fe  Fe13  1  0.75457341  0.24973640  0.49982130  1
  Fe  Fe14  1  0.75686196  0.74987060  0.00214789  1
  Fe  Fe15  1  0.75435589  0.74975090  0.49864307  1
  Fe  Fe16  1  0.10825520  0.10100031  0.24776053  1
  Fe  Fe17  1  0.11266045  0.10419061  0.75083606  1
  Fe  Fe18  1  0.11358636  0.60313088  0.24809372  1
  Fe  Fe19  1  0.61451956  0.10111016  0.24930697  1
  Fe  Fe20  1  0.60941644  0.60274947  0.24821935  1
  Fe  Fe21  1  0.35899906  0.89565329  0.24852332  1
  Fe  Fe22  1  0.86179027  0.39584518  0.24883600  1
  Fe  Fe23  1  0.86301573  0.89689565  0.75073607  1
  O  O0  1  0.11569530  0.11628044  0.47751891  1
  O  O1  1  0.11378701  0.12031978  0.97818028  1
  O  O2  1  0.11545089  0.61590202  0.47589540  1
  O  O3  1  0.11551382  0.62169457  0.98191542  1
  O  O4  1  0.61474031  0.11686352  0.47579991  1
  O  O5  1  0.61674809  0.11827588  0.97947417  1
  O  O6  1  0.61552119  0.61671660  0.47737817  1
  O  O7  1  0.61481795  0.61634157  0.97526200  1
  O  O8  1  0.14312963  0.39004215  0.02779304  1
  O  O9  1  0.13583569  0.38153579  0.52091627  1
  O  O10  1  0.13599804  0.88321215  0.02589064  1
  O  O11  1  0.13803593  0.88209046  0.52265295  1
  O  O12  1  0.63655365  0.38283926  0.02078442  1
  O  O13  1  0.63800901  0.38334544  0.52399987  1
  O  O14  1  0.64199325  0.88703210  0.02723094  1
  O  O15  1  0.63662326  0.88212920  0.51996485  1
  O  O16  1  0.36513554  0.10986045  0.47677701  1
  O  O17  1  0.36544160  0.10933071  0.97668530  1
  O  O18  1  0.36491996  0.60885601  0.47517078  1
  O  O19  1  0.36456550  0.60951939  0.98046167  1
  O  O20  1  0.86569046  0.11035813  0.47613880  1
  O  O21  1  0.86496422  0.10786751  0.98188027  1
  O  O22  1  0.86601275  0.61077033  0.47850425  1
  O  O23  1  0.86047119  0.60344311  0.97264403  1
  O  O24  1  0.38720306  0.39288714  0.02576438  1
  O  O25  1  0.38601089  0.38900150  0.52101275  1
  O  O26  1  0.38734057  0.88926596  0.02332291  1
  O  O27  1  0.38747885  0.88814437  0.52085893  1
  O  O28  1  0.88665832  0.38861063  0.02197927  1
  O  O29  1  0.88709091  0.38841763  0.52196141  1
  O  O30  1  0.89164351  0.89012638  0.03024023  1
  O  O31  1  0.88658709  0.88910394  0.52043639  1
  O  O32  1  0.09435553  0.11749011  0.14005543  1
  O  O33  1  0.09100338  0.11349398  0.63951495  1
  O  O34  1  0.10084494  0.61806219  0.13988981  1
  O  O35  1  0.09465979  0.61704153  0.63945924  1
  O  O36  1  0.60281392  0.11446920  0.14047541  1
  O  O37  1  0.59537005  0.11619542  0.63857729  1
  O  O38  1  0.59403291  0.61649946  0.13943659  1
  O  O39  1  0.59580221  0.61527594  0.64026450  1
  O  O40  1  0.45472585  0.38276691  0.35883498  1
  O  O41  1  0.46440212  0.38401461  0.86097545  1
  O  O42  1  0.44841636  0.88544933  0.35938572  1
  O  O43  1  0.45668736  0.88335352  0.86119428  1
  O  O44  1  0.95113398  0.38534513  0.36009993  1
  O  O45  1  0.96023565  0.38283023  0.86171286  1
  O  O46  1  0.95593600  0.88268572  0.35848306  1
  O  O47  1  0.95295923  0.88709343  0.86195350  1
  O  O48  1  0.34876395  0.26974970  0.14051263  1
  O  O49  1  0.34477337  0.27254491  0.63903247  1
  O  O50  1  0.34292637  0.77341675  0.13938274  1
  O  O51  1  0.34615443  0.77321391  0.63920562  1
  O  O52  1  0.84071115  0.27261751  0.13934783  1
  O  O53  1  0.84445198  0.27311094  0.64020319  1
  O  O54  1  0.85746937  0.76833254  0.14023407  1
  O  O55  1  0.84075818  0.77645788  0.63951526  1
  O  O56  1  0.19821403  0.22203401  0.35857919  1
  O  O57  1  0.20524815  0.22566081  0.86079646  1
  O  O58  1  0.20199018  0.72505824  0.35909162  1
  O  O59  1  0.20564919  0.72821991  0.86150539  1
  O  O60  1  0.70167752  0.22505763  0.35940847  1
  O  O61  1  0.70727936  0.22872454  0.86186109  1
  O  O62  1  0.70001666  0.72370809  0.35918075  1
  O  O63  1  0.70705164  0.72951383  0.86197983  1
  O  O64  1  0.42129499  0.06636529  0.24996055  1
  O  O65  1  0.41878510  0.07359745  0.75024302  1
  O  O66  1  0.41293453  0.57404983  0.24442435  1
  O  O67  1  0.41693140  0.57273238  0.74995486  1
  O  O68  1  0.91231811  0.07364980  0.24446712  1
  O  O69  1  0.91913890  0.06863078  0.75067179  1
  O  O70  1  0.92138766  0.56658830  0.24952127  1
  O  O71  1  0.91632278  0.57285901  0.75075275  1
  O  O72  1  0.16708733  0.42948763  0.24961457  1
  O  O73  1  0.16829804  0.42695385  0.75096324  1
  O  O74  1  0.16299104  0.92693009  0.24498121  1
  O  O75  1  0.16726090  0.93016656  0.75036634  1
  O  O76  1  0.66862003  0.43227353  0.24975340  1
  O  O77  1  0.66696630  0.42679615  0.75590331  1
  O  O78  1  0.66882991  0.92807936  0.24959492  1
  O  O79  1  0.66877340  0.92893133  0.74984985  1
loop_
_geom_bond_atom_site_label_1
_geom_bond_atom_site_label_2
_geom_bond_distance
_geom_bond_site_symmetry_2
La0 O48 2.345828 1_555
La0 O64 2.373630 1_555
La0 O26 2.536234 1_545
La0 O10 2.542473 1_545
La0 O32 2.543688 1_555
La0 O1 2.931786 1_554
La0 O17 2.931909 1_554
La1 O49 2.366385 1_555
La1 O65 2.420269 1_555
La1 O27 2.524907 1_545
La1 O11 2.528889 1_545
La1 O33 2.597867 1_555
La1 O0 2.846826 1_555
La1 O16 2.852605 1_555
La1 O37 3.139501 1_555
La2 O51 2.355408 1_555
La2 O67 2.401309 1_555
La2 O25 2.541142 1_555
La2 O35 2.542675 1_555
La2 O9 2.565658 1_555
La2 O2 2.866860 1_555
La2 O18 2.890473 1_555
La2 O39 3.145453 1_555
La3 O53 2.365064 1_555
La3 O69 2.387354 1_555
La3 O37 2.540334 1_555
La3 O31 2.544589 1_545
La3 O15 2.570477 1_545
La3 O20 2.917751 1_555
La3 O4 2.924425 1_555
La3 O33 3.076295 1_655
La4 O54 2.338615 1_555
La4 O70 2.383931 1_555
La4 O28 2.527602 1_555
La4 O12 2.558693 1_555
La4 O38 2.565905 1_555
La4 O23 2.911663 1_554
La4 O7 2.929025 1_554
La5 O55 2.391060 1_555
La5 O71 2.418851 1_555
La5 O13 2.525449 1_555
La5 O29 2.535026 1_555
La5 O39 2.537088 1_555
La5 O22 2.844238 1_555
La5 O6 2.849426 1_555
La5 O35 3.139598 1_655
La6 O72 2.383359 1_555
La6 O56 2.403140 1_555
La6 O18 2.521408 1_555
La6 O2 2.523523 1_555
La6 O44 2.590356 1_455
La6 O25 2.861305 1_555
La6 O9 2.878481 1_555
La6 O40 3.131409 1_555
La7 O57 2.370868 1_555
La7 O73 2.424300 1_555
La7 O45 2.472287 1_455
La7 O19 2.536823 1_555
La7 O3 2.574179 1_555
La7 O8 2.837188 1_556
La7 O24 2.867681 1_556
La7 O41 3.264848 1_555
La8 O58 2.370146 1_555
La8 O74 2.407981 1_555
La8 O46 2.537452 1_455
La8 O16 2.549407 1_565
La8 O0 2.559705 1_565
La8 O27 2.900688 1_555
La8 O11 2.927412 1_555
La8 O42 3.044623 1_555
La9 O59 2.381632 1_555
La9 O75 2.389501 1_555
La9 O17 2.509990 1_565
La9 O1 2.544184 1_565
La9 O47 2.566457 1_455
La9 O26 2.898506 1_556
La9 O10 2.942028 1_556
La9 O43 3.159695 1_555
La10 O60 2.374667 1_555
La10 O76 2.376882 1_555
La10 O6 2.550378 1_555
La10 O22 2.552390 1_555
La10 O40 2.555916 1_555
La10 O29 2.893341 1_555
La10 O13 2.927140 1_555
La10 O44 3.072110 1_555
La11 O78 2.395359 1_555
La11 O62 2.399569 1_555
La11 O4 2.519835 1_565
La11 O20 2.521969 1_565
La11 O42 2.624175 1_555
La11 O31 2.847286 1_555
La11 O15 2.847633 1_555
La11 O46 3.148566 1_555
La12 O63 2.330086 1_555
La12 O79 2.398087 1_555
La12 O43 2.529599 1_555
La12 O21 2.533459 1_565
La12 O5 2.555443 1_565
La12 O14 2.905471 1_556
La12 O30 2.985986 1_556
La12 O47 3.094498 1_555
La13 O32 2.364231 1_555
La13 O72 2.392346 1_555
La13 O28 2.527196 1_455
La13 O8 2.535575 1_555
La13 O52 2.581331 1_455
La13 O1 2.847471 1_554
La13 O21 2.865006 1_454
La13 O48 3.192670 1_555
La14 O33 2.377907 1_555
La14 O73 2.419865 1_555
La14 O29 2.534962 1_455
La14 O9 2.541620 1_555
La14 O53 2.547496 1_455
La14 O20 2.860517 1_455
La14 O0 2.866478 1_555
La14 O49 3.144033 1_555
La15 O35 2.373432 1_555
La15 O75 2.403047 1_555
La15 O11 2.513523 1_555
La15 O31 2.541842 1_455
La15 O55 2.581787 1_455
La15 O22 2.866622 1_455
La15 O2 2.906657 1_555
La15 O51 3.157769 1_555
La16 O76 2.382303 1_555
La16 O36 2.390098 1_555
La16 O48 2.530546 1_555
La16 O12 2.559552 1_555
La16 O24 2.561076 1_555
La16 O5 2.859025 1_554
La16 O17 2.909747 1_554
La16 O52 3.069815 1_555
La17 O37 2.352248 1_555
La17 O77 2.452077 1_555
La17 O13 2.524681 1_555
La17 O49 2.533117 1_555
La17 O25 2.559568 1_555
La17 O16 2.883938 1_555
La17 O4 2.898941 1_555
La17 O53 3.134800 1_555
La18 O38 2.376640 1_555
La18 O78 2.379937 1_555
La18 O26 2.507336 1_555
La18 O14 2.531838 1_555
La18 O50 2.532417 1_555
La18 O19 2.868974 1_554
La18 O7 2.934829 1_554
La19 O39 2.363934 1_555
La19 O79 2.397727 1_555
La19 O51 2.543410 1_555
La19 O15 2.558036 1_555
La19 O27 2.562725 1_555
La19 O6 2.860959 1_555
La19 O18 2.901326 1_555
La19 O55 3.065109 1_555
La20 O40 2.371476 1_555
La20 O64 2.383000 1_555
La20 O4 2.513098 1_555
La20 O16 2.549549 1_555
La20 O56 2.624699 1_555
La20 O25 2.898297 1_555
La20 O13 2.911157 1_555
La20 O60 3.079559 1_555
La21 O41 2.362179 1_555
La21 O65 2.408497 1_555
La21 O5 2.529982 1_555
La21 O17 2.541464 1_555
La21 O57 2.573743 1_555
La21 O12 2.818456 1_556
La21 O24 2.914618 1_556
La21 O61 3.121629 1_555
La22 O42 2.366784 1_555
La22 O66 2.433694 1_555
La22 O6 2.542878 1_555
La22 O18 2.543534 1_555
La22 O58 2.588681 1_555
La22 O15 2.849951 1_555
La22 O27 2.861863 1_555
La22 O62 3.059590 1_555
La23 O43 2.355939 1_555
La23 O67 2.401060 1_555
La23 O7 2.516083 1_555
La23 O59 2.535690 1_555
La23 O19 2.581541 1_555
La23 O26 2.864225 1_556
La23 O14 2.949183 1_556
La23 O63 3.158796 1_555
La24 O44 2.366751 1_555
La24 O68 2.422765 1_555
La24 O20 2.542252 1_555
La24 O0 2.550715 1_655
La24 O60 2.590024 1_555
La24 O9 2.859391 1_655
La24 O29 2.887345 1_555
La24 O56 3.044000 1_655
La25 O45 2.358016 1_555
La25 O69 2.378141 1_555
La25 O61 2.512058 1_555
La25 O1 2.520651 1_655
La25 O21 2.621652 1_555
La25 O28 2.877139 1_556
La25 O8 3.007876 1_656
La25 O57 3.144472 1_655
La26 O46 2.373458 1_555
La26 O70 2.377970 1_555
La26 O2 2.526740 1_655
La26 O22 2.572996 1_555
La26 O62 2.614205 1_555
La26 O31 2.899766 1_555
La26 O11 2.900054 1_655
La26 O58 3.077970 1_655
La27 O47 2.393136 1_555
La27 O71 2.417098 1_555
La27 O23 2.513518 1_555
La27 O63 2.521458 1_555
La27 O3 2.531704 1_655
La27 O10 2.869439 1_656
La27 O30 2.901446 1_556
La27 O59 3.157940 1_655
Mn0 O59 2.028961 1_555
Mn0 O35 2.031707 1_555
Mn0 O73 2.122738 1_555
Mn0 O71 2.155595 1_455
Mn1 O37 2.028394 1_555
Mn1 O61 2.028938 1_555
Mn1 O79 2.110413 1_545
Mn1 O65 2.147194 1_555
Mn2 O63 2.030348 1_555
Mn2 O39 2.032335 1_555
Mn2 O77 2.125347 1_555
Mn2 O67 2.152506 1_555
Mn3 O48 2.028474 1_555
Mn3 O40 2.038404 1_555
Mn3 O66 2.113913 1_555
Mn3 O72 2.144733 1_555
Mn4 O41 2.025105 1_555
Mn4 O49 2.029213 1_555
Mn4 O67 2.121804 1_555
Mn4 O73 2.153578 1_555
Mn5 O51 2.033047 1_555
Mn5 O43 2.033485 1_555
Mn5 O65 2.121064 1_565
Mn5 O75 2.143717 1_555
Mn6 O45 2.029764 1_555
Mn6 O53 2.033476 1_555
Mn6 O71 2.123739 1_555
Mn6 O77 2.152754 1_555
Mn7 O54 2.034101 1_555
Mn7 O46 2.038412 1_555
Mn7 O68 2.114249 1_565
Mn7 O78 2.153952 1_555
Fe0 O21 2.037436 1_464
Fe0 O10 2.043869 1_555
Fe0 O30 2.088525 1_455
Fe0 O1 2.094163 1_564
Fe0 O32 2.276181 1_565
Fe0 O47 2.295032 1_454
Fe1 O31 2.049502 1_455
Fe1 O0 2.059015 1_565
Fe1 O11 2.063507 1_555
Fe1 O20 2.063650 1_465
Fe1 O46 2.297756 1_455
Fe1 O33 2.314832 1_565
Fe2 O23 2.049899 1_454
Fe2 O8 2.060968 1_555
Fe2 O3 2.063430 1_554
Fe2 O28 2.063795 1_455
Fe2 O34 2.290932 1_555
Fe2 O45 2.311312 1_454
Fe3 O22 2.047194 1_455
Fe3 O9 2.056496 1_555
Fe3 O29 2.066663 1_455
Fe3 O2 2.071515 1_555
Fe3 O44 2.290748 1_455
Fe3 O35 2.300472 1_555
Fe4 O17 2.058406 1_554
Fe4 O14 2.063058 1_545
Fe4 O5 2.067415 1_554
Fe4 O26 2.068567 1_545
Fe4 O36 2.297453 1_555
Fe4 O43 2.304307 1_544
Fe5 O16 2.048600 1_555
Fe5 O15 2.057164 1_545
Fe5 O27 2.063392 1_545
Fe5 O4 2.066495 1_555
Fe5 O37 2.291848 1_555
Fe5 O42 2.293009 1_545
Fe6 O12 2.046391 1_555
Fe6 O19 2.046438 1_554
Fe6 O7 2.073322 1_554
Fe6 O24 2.074681 1_555
Fe6 O38 2.284272 1_555
Fe6 O41 2.309738 1_554
Fe7 O18 2.056738 1_555
Fe7 O25 2.058303 1_555
Fe7 O13 2.060600 1_555
Fe7 O6 2.065316 1_555
Fe7 O40 2.301832 1_555
Fe7 O39 2.324651 1_555
Fe8 O24 2.059421 1_555
Fe8 O1 2.060269 1_554
Fe8 O17 2.080239 1_554
Fe8 O8 2.081155 1_555
Fe8 O48 2.282447 1_555
Fe8 O57 2.330908 1_554
Fe9 O25 2.056124 1_555
Fe9 O9 2.058235 1_555
Fe9 O0 2.060311 1_555
Fe9 O16 2.062639 1_555
Fe9 O56 2.296402 1_555
Fe9 O49 2.302415 1_555
Fe10 O3 2.045987 1_554
Fe10 O26 2.049476 1_555
Fe10 O10 2.061460 1_555
Fe10 O19 2.077310 1_554
Fe10 O50 2.286934 1_555
Fe10 O59 2.288818 1_554
Fe11 O11 2.056147 1_555
Fe11 O27 2.056555 1_555
Fe11 O2 2.060590 1_555
Fe11 O18 2.067503 1_555
Fe11 O58 2.295743 1_555
Fe11 O51 2.306684 1_555
Fe12 O28 2.049163 1_555
Fe12 O5 2.049344 1_554
Fe12 O12 2.064642 1_555
Fe12 O21 2.069371 1_554
Fe12 O52 2.281243 1_555
Fe12 O61 2.288396 1_554
Fe13 O4 2.051511 1_555
Fe13 O29 2.056125 1_555
Fe13 O13 2.060299 1_555
Fe13 O20 2.067384 1_555
Fe13 O60 2.303740 1_555
Fe13 O53 2.309672 1_555
Fe14 O30 2.057297 1_555
Fe14 O7 2.060091 1_554
Fe14 O14 2.079488 1_555
Fe14 O23 2.089766 1_554
Fe14 O54 2.302106 1_555
Fe14 O63 2.315059 1_554
Fe15 O15 2.051995 1_555
Fe15 O6 2.059509 1_555
Fe15 O22 2.060971 1_555
Fe15 O31 2.061764 1_555
Fe15 O62 2.282414 1_555
Fe15 O55 2.305161 1_555
Fe16 O32 1.954322 1_555
Fe16 O56 1.964380 1_555
Fe16 O74 2.139286 1_545
Fe16 O68 2.173051 1_455
Fe17 O57 1.963230 1_555
Fe17 O33 1.965551 1_555
Fe17 O75 2.147360 1_545
Fe17 O69 2.182521 1_455
Fe18 O34 1.958291 1_555
Fe18 O58 1.967249 1_555
Fe18 O72 2.148084 1_555
Fe18 O70 2.181078 1_455
Fe19 O36 1.964423 1_555
Fe19 O60 1.964839 1_555
Fe19 O78 2.138286 1_545
Fe19 O64 2.182811 1_555
Fe20 O38 1.956102 1_555
Fe20 O62 1.966977 1_555
Fe20 O76 2.130253 1_555
Fe20 O66 2.178370 1_555
Fe21 O50 1.957863 1_555
Fe21 O42 1.962691 1_555
Fe21 O64 2.128742 1_565
Fe21 O74 2.185545 1_555
Fe22 O52 1.955952 1_555
Fe22 O44 1.970176 1_555
Fe22 O70 2.125103 1_555
Fe22 O76 2.184604 1_555
Fe23 O55 1.962463 1_555
Fe23 O47 1.967457 1_555
Fe23 O69 2.130179 1_565
Fe23 O79 2.178848 1_555
O3 Sm3 2.799675 1_556
O3 Sm0 2.803854 1_556
O5 Sm1 2.811698 1_556
O7 Sm2 2.487669 1_555
O8 Sm0 2.453746 1_555
O10 Sm3 2.478608 1_555
O12 Sm2 2.778920 1_554
O14 Sm1 2.468462 1_565
O19 Sm0 2.780213 1_556
O21 Sm1 2.741748 1_556
O23 Sm2 2.457245 1_555
O23 Sm3 2.984520 1_656
O24 Sm0 2.492799 1_555
O28 Sm2 2.834958 1_554
O30 Sm3 2.465633 1_655
O30 Sm1 2.478623 1_565
O32 Sm1 3.128684 1_455
O34 Sm3 2.340879 1_555
O34 Sm0 2.477128 1_555
O36 Sm1 2.472378 1_555
O38 Sm0 3.132442 1_555
O41 Sm2 2.420166 1_555
O45 Sm2 3.218683 1_555
O50 Sm0 2.329122 1_555
O50 Sm3 3.098369 1_555
O52 Sm1 2.340837 1_555
O54 Sm3 2.434645 1_655
O61 Sm2 2.332317 1_555
O66 Sm0 2.323541 1_555
O68 Sm1 2.329381 1_555
O74 Sm3 2.303621 1_555
O77 Sm2 2.343806 1_555
