# generated using pymatgen
data_KTiSi3O11
_symmetry_space_group_name_H-M   'P 1'
_cell_length_a   9.94629700
_cell_length_b   7.29246300
_cell_length_c   13.03361853
_cell_angle_alpha   88.24145163
_cell_angle_beta   90.00000000
_cell_angle_gamma   90.00000000
_symmetry_Int_Tables_number   1
_chemical_formula_structural   KTiSi3O11
_chemical_formula_sum   'K4 Ti4 Si12 O44'
_cell_volume   944.92224409
_cell_formula_units_Z   4
loop_
 _symmetry_equiv_pos_site_id
 _symmetry_equiv_pos_as_xyz
  1  'x, y, z'
loop_
 _atom_site_type_symbol
 _atom_site_label
 _atom_site_symmetry_multiplicity
 _atom_site_fract_x
 _atom_site_fract_y
 _atom_site_fract_z
 _atom_site_occupancy
  K  K0  1  0.21406800  0.76164400  0.09916400  1
  K  K1  1  0.78593200  0.23835600  0.90083600  1
  K  K2  1  0.71406800  0.23835600  0.40083600  1
  K  K3  1  0.28593200  0.76164400  0.59916400  1
  Ti  Ti0  1  0.70645500  0.76925200  0.29543800  1
  Ti  Ti1  1  0.29354500  0.23074800  0.70456200  1
  Ti  Ti2  1  0.20645500  0.23074800  0.20456200  1
  Ti  Ti3  1  0.79354500  0.76925200  0.79543800  1
  Si  Si0  1  0.78759500  0.77407300  0.05300000  1
  Si  Si1  1  0.21240500  0.22592700  0.94700000  1
  Si  Si2  1  0.28759500  0.22592700  0.44700000  1
  Si  Si3  1  0.71240500  0.77407300  0.55300000  1
  Si  Si4  1  0.93790100  0.48685500  0.17322800  1
  Si  Si5  1  0.06209900  0.51314500  0.82677200  1
  Si  Si6  1  0.43790100  0.51314500  0.32677200  1
  Si  Si7  1  0.56209900  0.48685500  0.67322800  1
  Si  Si8  1  0.39797800  0.91975800  0.33160000  1
  Si  Si9  1  0.60202200  0.08024200  0.66840000  1
  Si  Si10  1  0.89797800  0.08024200  0.16840000  1
  Si  Si11  1  0.10202200  0.91975800  0.83160000  1
  O  O0  1  0.87128200  0.58350600  0.27524800  1
  O  O1  1  0.12871800  0.41649400  0.72475200  1
  O  O2  1  0.37128200  0.41649400  0.22475200  1
  O  O3  1  0.62871800  0.58350600  0.77524800  1
  O  O4  1  0.56142000  0.92570700  0.32115200  1
  O  O5  1  0.43858000  0.07429300  0.67884800  1
  O  O6  1  0.06142000  0.07429300  0.17884800  1
  O  O7  1  0.93858000  0.92570700  0.82115200  1
  O  O8  1  0.85177900  0.98307000  0.06091800  1
  O  O9  1  0.14822100  0.01693000  0.93908200  1
  O  O10  1  0.35177900  0.01693000  0.43908200  1
  O  O11  1  0.64822100  0.98307000  0.56091800  1
  O  O12  1  0.85216800  0.29711300  0.15521100  1
  O  O13  1  0.14783200  0.70288700  0.84478900  1
  O  O14  1  0.35216800  0.70288700  0.34478900  1
  O  O15  1  0.64783200  0.29711300  0.65521100  1
  O  O16  1  0.67881500  0.74034900  0.14573100  1
  O  O17  1  0.32118500  0.25965100  0.85426900  1
  O  O18  1  0.17881500  0.25965100  0.35426900  1
  O  O19  1  0.82118500  0.74034900  0.64573100  1
  O  O20  1  0.48173200  0.57644100  0.09000700  1
  O  O21  1  0.51826800  0.42355900  0.90999300  1
  O  O22  1  0.98173200  0.42355900  0.40999300  1
  O  O23  1  0.01826800  0.57644100  0.59000700  1
  O  O24  1  0.77182600  0.75473100  0.43806700  1
  O  O25  1  0.22817400  0.24526900  0.56193300  1
  O  O26  1  0.27182600  0.24526900  0.06193300  1
  O  O27  1  0.72817400  0.75473100  0.93806700  1
  O  O28  1  0.82144900  0.97874400  0.26389300  1
  O  O29  1  0.17855100  0.02125600  0.73610700  1
  O  O30  1  0.32144900  0.02125600  0.23610700  1
  O  O31  1  0.67855100  0.97874400  0.76389300  1
  O  O32  1  0.49433800  0.29553500  0.11001500  1
  O  O33  1  0.50566200  0.70446500  0.88998500  1
  O  O34  1  0.99433800  0.70446500  0.38998500  1
  O  O35  1  0.00566200  0.29553500  0.61001500  1
  O  O36  1  0.91400800  0.62897500  0.07369800  1
  O  O37  1  0.08599200  0.37102500  0.92630200  1
  O  O38  1  0.41400800  0.37102500  0.42630200  1
  O  O39  1  0.58599200  0.62897500  0.57369800  1
  O  O40  1  0.59628500  0.55220200  0.31660400  1
  O  O41  1  0.40371500  0.44779800  0.68339600  1
  O  O42  1  0.09628500  0.44779800  0.18339600  1
  O  O43  1  0.90371500  0.55220200  0.81660400  1
loop_
_geom_bond_atom_site_label_1
_geom_bond_atom_site_label_2
_geom_bond_distance
_geom_bond_site_symmetry_2
K0 O42 2.767973 1_555
K0 O9 2.830123 1_564
K0 O30 2.849227 1_565
K0 O6 2.954227 1_565
K0 O20 2.989294 1_555
K0 O36 3.158015 1_455
K1 O43 2.767973 1_555
K1 O8 2.830123 1_546
K1 O31 2.849227 1_545
K1 O7 2.954227 1_545
K1 O21 2.989294 1_555
K1 O37 3.158015 1_655
K2 O40 2.767973 1_555
K2 O11 2.830123 1_545
K2 O28 2.849227 1_545
K2 O4 2.954227 1_545
K2 O22 2.989294 1_555
K2 O38 3.158015 1_555
K3 O41 2.767973 1_555
K3 O10 2.830123 1_565
K3 O29 2.849227 1_565
K3 O5 2.954227 1_565
K3 O23 2.989294 1_555
K3 O39 3.158015 1_555
O0 Si4 1.661754 1_555
O0 Ti0 2.147932 1_555
O1 Si5 1.661754 1_555
O1 Ti1 2.147932 1_555
O2 Si6 1.661754 1_555
O2 Ti2 2.147932 1_555
O3 Si7 1.661754 1_555
O3 Ti3 2.147932 1_555
O4 Si8 1.631802 1_555
O4 Ti0 1.875773 1_555
O5 Si9 1.631802 1_555
O5 Ti1 1.875773 1_555
O6 Si10 1.631802 1_455
O6 Ti2 1.875773 1_555
O7 Si11 1.631802 1_655
O7 Ti3 1.875773 1_555
O8 Si10 1.654293 1_565
O8 Si0 1.658535 1_555
O9 Si11 1.654293 1_545
O9 Si1 1.658535 1_555
O10 Si8 1.654293 1_545
O10 Si2 1.658535 1_555
O11 Si9 1.654293 1_565
O11 Si3 1.658535 1_555
O12 Si4 1.648277 1_555
O12 Si10 1.649754 1_555
O13 Si5 1.648277 1_555
O13 Si11 1.649754 1_555
O14 Si6 1.648277 1_555
O14 Si8 1.649754 1_555
O15 Si7 1.648277 1_555
O15 Si9 1.649754 1_555
O16 Si0 1.635126 1_555
O16 Ti0 1.988095 1_555
O17 Si1 1.635126 1_555
O17 Ti1 1.988095 1_555
O18 Si2 1.635126 1_555
O18 Ti2 1.988095 1_555
O19 Si3 1.635126 1_555
O19 Ti3 1.988095 1_555
O24 Si3 1.620540 1_555
O24 Ti0 1.969179 1_555
O25 Si2 1.620540 1_555
O25 Ti1 1.969179 1_555
O26 Si1 1.620540 1_554
O26 Ti2 1.969179 1_555
O27 Si0 1.620540 1_556
O27 Ti3 1.969179 1_555
O28 Si10 1.618575 1_565
O28 Ti0 1.942316 1_555
O29 Si11 1.618575 1_545
O29 Ti1 1.942316 1_555
O30 Si8 1.618575 1_545
O30 Ti2 1.942316 1_555
O31 Si9 1.618575 1_565
O31 Ti3 1.942316 1_555
O36 Si4 1.652548 1_555
O36 Si0 1.660056 1_555
O37 Si5 1.652548 1_555
O37 Si1 1.660056 1_555
O38 Si6 1.652548 1_555
O38 Si2 1.660056 1_555
O39 Si7 1.652548 1_555
O39 Si3 1.660056 1_555
O40 Si6 1.605630 1_555
O40 Ti0 1.937884 1_555
O41 Si7 1.605630 1_555
O41 Ti1 1.937884 1_555
O42 Si4 1.605630 1_455
O42 Ti2 1.937884 1_555
O43 Si5 1.605630 1_655
O43 Ti3 1.937884 1_555
