# generated using pymatgen
data_SrTbEuWO6
_symmetry_space_group_name_H-M   'P 1'
_cell_length_a   5.95472739
_cell_length_b   5.95472739
_cell_length_c   5.95472739
_cell_angle_alpha   60.00000000
_cell_angle_beta   60.00000000
_cell_angle_gamma   60.00000000
_symmetry_Int_Tables_number   1
_chemical_formula_structural   SrTbEuWO6
_chemical_formula_sum   'Sr1 Tb1 Eu1 W1 O6'
_cell_volume   149.30372914
_cell_formula_units_Z   1
loop_
 _symmetry_equiv_pos_site_id
 _symmetry_equiv_pos_as_xyz
  1  'x, y, z'
loop_
 _atom_site_type_symbol
 _atom_site_label
 _atom_site_symmetry_multiplicity
 _atom_site_fract_x
 _atom_site_fract_y
 _atom_site_fract_z
 _atom_site_occupancy
  Sr  Sr0  1  0.25000000  0.25000000  0.25000000  1
  Tb  Tb0  1  -0.00000000  -0.00000000  -0.00000000  1
  Eu  Eu0  1  0.75000000  0.75000000  0.75000000  1
  W  W0  1  0.50000000  0.50000000  0.50000000  1
  O  O0  1  0.73642583  0.26357417  0.26357417  1
  O  O1  1  0.26357417  0.73642583  0.73642583  1
  O  O2  1  0.73642583  0.26357417  0.73642583  1
  O  O3  1  0.26357417  0.73642583  0.26357417  1
  O  O4  1  0.73642583  0.73642583  0.26357417  1
  O  O5  1  0.26357417  0.26357417  0.73642583  1
loop_
_geom_bond_atom_site_label_1
_geom_bond_atom_site_label_2
_geom_bond_distance
_geom_bond_site_symmetry_2
Eu0 O4 2.979557 1_555
Eu0 O2 2.979557 1_555
Eu0 O0 2.979557 1_556
Eu0 O1 2.979557 1_555
Eu0 O0 2.979557 1_565
Eu0 O3 2.979557 1_655
Eu0 O5 2.979557 1_565
Eu0 O1 2.979557 1_655
Eu0 O5 2.979557 1_655
Eu0 O3 2.979557 1_556
Eu0 O2 2.979557 1_565
Eu0 O4 2.979557 1_556
O0 W0 1.991002 1_555
O0 Tb0 2.219626 1_655
O0 Sr0 2.979557 1_555
O0 Sr0 2.979557 1_655
O1 W0 1.991002 1_555
O1 Tb0 2.219626 1_566
O1 Sr0 2.979557 1_556
O1 Sr0 2.979557 1_565
O2 W0 1.991002 1_555
O2 Tb0 2.219626 1_656
O2 Sr0 2.979557 1_556
O2 Sr0 2.979557 1_655
O3 W0 1.991002 1_555
O3 Tb0 2.219626 1_565
O3 Sr0 2.979557 1_565
O3 Sr0 2.979557 1_555
O4 W0 1.991002 1_555
O4 Tb0 2.219626 1_665
O4 Sr0 2.979557 1_565
O4 Sr0 2.979557 1_655
O5 W0 1.991002 1_555
O5 Tb0 2.219626 1_556
O5 Sr0 2.979557 1_556
O5 Sr0 2.979557 1_555
