# generated using pymatgen
data_Ba3Ho2MoO9
_symmetry_space_group_name_H-M   'P 1'
_cell_length_a   6.08619339
_cell_length_b   6.08619339
_cell_length_c   14.88961619
_cell_angle_alpha   89.68301528
_cell_angle_beta   89.68301528
_cell_angle_gamma   59.79120869
_symmetry_Int_Tables_number   1
_chemical_formula_structural   Ba3Ho2MoO9
_chemical_formula_sum   'Ba6 Ho4 Mo2 O18'
_cell_volume   476.62763127
_cell_formula_units_Z   2
loop_
 _symmetry_equiv_pos_site_id
 _symmetry_equiv_pos_as_xyz
  1  'x, y, z'
loop_
 _atom_site_type_symbol
 _atom_site_label
 _atom_site_symmetry_multiplicity
 _atom_site_fract_x
 _atom_site_fract_y
 _atom_site_fract_z
 _atom_site_occupancy
  Ba  Ba0  1  0.66772300  0.66578400  0.08596600  1
  Ba  Ba1  1  0.99843800  0.00156200  0.75000000  1
  Ba  Ba2  1  0.33421600  0.33227700  0.41403400  1
  Ba  Ba3  1  0.33227700  0.33421600  0.91403400  1
  Ba  Ba4  1  0.66578400  0.66772300  0.58596600  1
  Ba  Ba5  1  0.00156200  0.99843800  0.25000000  1
  Ho  Ho0  1  0.33288200  0.33353800  0.16795400  1
  Ho  Ho1  1  0.66711800  0.66646200  0.83204600  1
  Ho  Ho2  1  0.33353800  0.33288200  0.66795400  1
  Ho  Ho3  1  0.66646200  0.66711800  0.33204600  1
  Mo  Mo0  1  0.00000000  0.00000000  0.50000000  1
  Mo  Mo1  1  0.00000000  0.00000000  0.00000000  1
  O  O0  1  0.97796900  0.54388600  0.23890000  1
  O  O1  1  0.28616000  0.88506500  0.91570000  1
  O  O2  1  0.67677700  0.18956800  0.56546700  1
  O  O3  1  0.02203100  0.45611400  0.76110000  1
  O  O4  1  0.32322300  0.81043200  0.43453300  1
  O  O5  1  0.71384000  0.11493500  0.08430000  1
  O  O6  1  0.54388600  0.97796900  0.73890000  1
  O  O7  1  0.88506500  0.28616000  0.41570000  1
  O  O8  1  0.18956800  0.67677700  0.06546700  1
  O  O9  1  0.81043200  0.32322300  0.93453300  1
  O  O10  1  0.11493500  0.71384000  0.58430000  1
  O  O11  1  0.45611400  0.02203100  0.26110000  1
  O  O12  1  0.15293300  0.15222500  0.07506300  1
  O  O13  1  0.49916800  0.50083200  0.75000000  1
  O  O14  1  0.84777500  0.84706700  0.42493700  1
  O  O15  1  0.84706700  0.84777500  0.92493700  1
  O  O16  1  0.15222500  0.15293300  0.57506300  1
  O  O17  1  0.50083200  0.49916800  0.25000000  1
loop_
_geom_bond_atom_site_label_1
_geom_bond_atom_site_label_2
_geom_bond_distance
_geom_bond_site_symmetry_2
Ba0 O0 2.814299 1_555
Ba0 O5 2.885021 1_565
Ba0 O8 2.894865 1_555
Ba0 O9 2.897116 1_554
Ba0 O17 3.001167 1_555
Ba0 O12 3.037836 1_655
Ba0 O12 3.045284 1_565
Ba0 O15 3.053740 1_554
Ba0 O5 3.220724 1_555
Ba0 O11 3.221039 1_565
Ba0 O8 3.223013 1_655
Ba0 O1 3.241937 1_554
Ba1 O3 2.847188 1_655
Ba1 O6 2.847188 1_545
Ba1 O10 2.904363 1_645
Ba1 O1 2.904363 1_645
Ba1 O13 3.029059 1_555
Ba1 O13 3.037917 1_645
Ba1 O15 3.053472 1_545
Ba1 O16 3.053472 1_655
Ba1 O9 3.234474 1_555
Ba1 O2 3.234474 1_555
Ba1 O3 3.253131 1_645
Ba1 O6 3.253131 1_645
Ba2 O11 2.814299 1_555
Ba2 O7 2.885021 1_455
Ba2 O4 2.894865 1_555
Ba2 O2 2.897116 1_555
Ba2 O17 3.001167 1_555
Ba2 O14 3.037836 1_545
Ba2 O14 3.045284 1_455
Ba2 O16 3.053740 1_555
Ba2 O7 3.220724 1_555
Ba2 O0 3.221039 1_455
Ba2 O4 3.223013 1_545
Ba2 O10 3.241937 1_555
Ba3 O3 2.814299 1_555
Ba3 O1 2.885021 1_545
Ba3 O9 2.894865 1_555
Ba3 O8 2.897116 1_556
Ba3 O13 3.001167 1_555
Ba3 O15 3.037836 1_455
Ba3 O15 3.045284 1_545
Ba3 O12 3.053740 1_556
Ba3 O1 3.220724 1_555
Ba3 O6 3.221039 1_545
Ba3 O9 3.223013 1_455
Ba3 O5 3.241937 1_556
Ba4 O6 2.814299 1_555
Ba4 O10 2.885021 1_655
Ba4 O2 2.894865 1_555
Ba4 O4 2.897116 1_555
Ba4 O13 3.001167 1_555
Ba4 O16 3.037836 1_565
Ba4 O16 3.045284 1_655
Ba4 O14 3.053740 1_555
Ba4 O10 3.220724 1_555
Ba4 O3 3.221039 1_655
Ba4 O2 3.223013 1_565
Ba4 O7 3.241937 1_555
Ba5 O11 2.847188 1_565
Ba5 O0 2.847188 1_455
Ba5 O7 2.904363 1_465
Ba5 O5 2.904363 1_465
Ba5 O17 3.029059 1_555
Ba5 O17 3.037917 1_465
Ba5 O14 3.053472 1_455
Ba5 O12 3.053472 1_565
Ba5 O4 3.234474 1_555
Ba5 O8 3.234474 1_555
Ba5 O11 3.253131 1_465
Ba5 O0 3.253131 1_465
Ho0 O17 2.148898 1_555
Ho0 O0 2.151202 1_455
Ho0 O11 2.152196 1_555
Ho0 O5 2.362110 1_555
Ho0 O12 2.362208 1_555
Ho0 O8 2.366283 1_555
Ho1 O13 2.148898 1_555
Ho1 O3 2.151202 1_655
Ho1 O6 2.152196 1_555
Ho1 O1 2.362110 1_555
Ho1 O15 2.362208 1_555
Ho1 O9 2.366283 1_555
Ho2 O13 2.148898 1_555
Ho2 O6 2.151202 1_545
Ho2 O3 2.152196 1_555
Ho2 O10 2.362110 1_555
Ho2 O16 2.362208 1_555
Ho2 O2 2.366283 1_555
Ho3 O17 2.148898 1_555
Ho3 O11 2.151202 1_565
Ho3 O0 2.152196 1_555
Ho3 O7 2.362110 1_555
Ho3 O14 2.362208 1_555
Ho3 O4 2.366283 1_555
Mo0 O7 1.964089 1_455
Mo0 O10 1.964089 1_545
Mo0 O4 1.964296 1_545
Mo0 O2 1.964296 1_455
Mo0 O14 1.965860 1_445
Mo0 O16 1.965860 1_555
Mo1 O5 1.964089 1_455
Mo1 O1 1.964089 1_544
Mo1 O8 1.964296 1_545
Mo1 O9 1.964296 1_454
Mo1 O15 1.965860 1_444
Mo1 O12 1.965860 1_555
