# generated using pymatgen
data_Mg16BeAl12
_symmetry_space_group_name_H-M   'P 1'
_cell_length_a   8.98771411
_cell_length_b   8.98771411
_cell_length_c   8.98771409
_cell_angle_alpha   108.67933693
_cell_angle_beta   108.67933693
_cell_angle_gamma   108.67933768
_symmetry_Int_Tables_number   1
_chemical_formula_structural   Mg16BeAl12
_chemical_formula_sum   'Mg16 Be1 Al12'
_cell_volume   574.69124321
_cell_formula_units_Z   1
loop_
 _symmetry_equiv_pos_site_id
 _symmetry_equiv_pos_as_xyz
  1  'x, y, z'
loop_
 _atom_site_type_symbol
 _atom_site_label
 _atom_site_symmetry_multiplicity
 _atom_site_fract_x
 _atom_site_fract_y
 _atom_site_fract_z
 _atom_site_occupancy
  Mg  Mg0  1  0.58054900  0.58054900  0.29948200  1
  Mg  Mg1  1  0.31720300  0.31720300  0.72017600  1
  Mg  Mg2  1  0.00305900  0.00305900  0.65319700  1
  Mg  Mg3  1  0.99645600  0.99645600  0.99645600  1
  Mg  Mg4  1  0.68282100  0.40489500  0.00439300  1
  Mg  Mg5  1  0.58054900  0.29948200  0.58054900  1
  Mg  Mg6  1  0.00439300  0.68282100  0.40489500  1
  Mg  Mg7  1  0.00305900  0.65319700  0.00305900  1
  Mg  Mg8  1  0.40489500  0.00439300  0.68282100  1
  Mg  Mg9  1  0.72017600  0.31720300  0.31720300  1
  Mg  Mg10  1  0.31720300  0.72017600  0.31720300  1
  Mg  Mg11  1  0.00439300  0.40489500  0.68282100  1
  Mg  Mg12  1  0.65319700  0.00305900  0.00305900  1
  Mg  Mg13  1  0.68282100  0.00439300  0.40489500  1
  Mg  Mg14  1  0.29948200  0.58054900  0.58054900  1
  Mg  Mg15  1  0.40489500  0.68282100  0.00439300  1
  Be  Be0  1  0.27866300  0.27866300  0.27866300  1
  Al  Al0  1  0.64467900  0.64467900  0.83431600  1
  Al  Al1  1  0.81668700  0.81668700  0.19517500  1
  Al  Al2  1  0.36666200  0.18513700  0.00519200  1
  Al  Al3  1  0.18513700  0.00519200  0.36666200  1
  Al  Al4  1  0.83431600  0.64467900  0.64467900  1
  Al  Al5  1  0.36666200  0.00519200  0.18513700  1
  Al  Al6  1  0.19517500  0.81668700  0.81668700  1
  Al  Al7  1  0.81668700  0.19517500  0.81668700  1
  Al  Al8  1  0.00519200  0.36666200  0.18513700  1
  Al  Al9  1  0.64467900  0.83431600  0.64467900  1
  Al  Al10  1  0.00519200  0.18513700  0.36666200  1
  Al  Al11  1  0.18513700  0.36666200  0.00519200  1
loop_
_geom_bond_atom_site_label_1
_geom_bond_atom_site_label_2
_geom_bond_distance
_geom_bond_site_symmetry_2
Mg0 Mg10 3.036173 1_555
Mg0 Mg9 3.036173 1_555
Mg0 Mg15 3.190676 1_555
Mg0 Mg4 3.190676 1_555
Mg0 Mg13 3.337883 1_565
Mg0 Mg6 3.337883 1_655
Mg1 Mg2 3.003710 1_555
Mg1 Mg14 3.036173 1_555
Mg1 Mg5 3.036173 1_555
Mg1 Mg4 3.101507 1_556
Mg1 Mg15 3.101507 1_556
Mg1 Mg8 3.101993 1_555
Mg1 Mg11 3.101993 1_555
Mg2 Mg6 3.031414 1_545
Mg2 Mg3 3.123662 1_445
Mg3 Mg7 3.123662 1_656
Mg4 Mg7 3.031414 1_655
Mg4 Mg9 3.101993 1_555
Mg4 Mg5 3.337883 1_554
Mg5 Mg9 3.036173 1_555
Mg5 Mg8 3.190676 1_555
Mg6 Mg9 3.101507 1_455
Mg10 Mg7 3.003710 1_555
Mg10 Mg14 3.036173 1_555
Mg10 Mg13 3.101507 1_565
Mg10 Mg8 3.101507 1_565
Mg10 Mg6 3.101993 1_555
Mg10 Mg15 3.101993 1_555
Mg11 Mg7 3.031414 1_556
Mg11 Mg9 3.101507 1_455
Mg11 Mg14 3.190676 1_555
Mg11 Mg5 3.337883 1_455
Mg12 Mg9 3.003710 1_555
Mg12 Mg15 3.031414 1_545
Mg12 Mg8 3.031414 1_554
Mg12 Mg3 3.123662 1_544
Mg13 Mg2 3.031414 1_655
Mg13 Mg9 3.101993 1_555
Mg13 Mg5 3.190676 1_555
Mg14 Mg6 3.190676 1_555
Mg14 Mg8 3.337883 1_565
Mg14 Mg15 3.337883 1_556
Be0 Mg3 2.633912 1_444
Be0 Mg0 3.064747 1_555
Be0 Mg14 3.064747 1_555
Be0 Mg5 3.064747 1_555
Al0 Al1 2.710110 1_556
Al0 Al9 2.769612 1_555
Al0 Al4 2.769612 1_555
Al0 Mg5 2.939350 1_555
Al0 Mg14 2.939350 1_555
Al0 Mg1 2.993493 1_555
Al0 Mg12 3.052790 1_566
Al0 Mg7 3.052790 1_656
Al0 Mg15 3.057182 1_556
Al0 Mg4 3.057182 1_556
Al0 Mg3 3.132174 1_555
Al1 Al3 2.770638 1_665
Al1 Al10 2.770638 1_665
Al1 Mg13 2.926171 1_565
Al1 Mg6 2.926171 1_655
Al1 Mg0 3.090507 1_555
Al1 Mg7 3.122570 1_655
Al1 Mg12 3.122570 1_565
Al1 Mg15 3.137974 1_555
Al1 Mg4 3.137974 1_555
Al1 Mg3 3.230424 1_554
Al2 Al5 2.628062 1_555
Al2 Al6 2.770638 1_544
Al2 Be0 2.778657 1_555
Al2 Mg4 2.898744 1_555
Al2 Mg9 3.018762 1_555
Al2 Mg8 3.021960 1_554
Al2 Mg0 3.109228 1_555
Al2 Mg1 3.118449 1_554
Al2 Mg2 3.162602 1_554
Al2 Mg3 3.175850 1_444
Al3 Al5 2.651138 1_555
Al3 Be0 2.778657 1_555
Al3 Mg8 2.898744 1_555
Al3 Mg1 3.018762 1_555
Al3 Mg6 3.021960 1_545
Al3 Mg5 3.109228 1_555
Al3 Mg10 3.118449 1_545
Al3 Mg7 3.162602 1_545
Al3 Mg3 3.175850 1_444
Al4 Al6 2.710110 1_655
Al4 Al9 2.769612 1_555
Al4 Mg5 2.939350 1_555
Al4 Mg0 2.939350 1_555
Al4 Mg9 2.993493 1_555
Al4 Mg2 3.052790 1_665
Al4 Mg7 3.052790 1_656
Al4 Mg6 3.057182 1_655
Al4 Mg11 3.057182 1_655
Al4 Mg3 3.132174 1_555
Al5 Al6 2.770638 1_544
Al5 Be0 2.778657 1_555
Al5 Mg13 2.898744 1_555
Al5 Mg9 3.018762 1_555
Al5 Mg15 3.021960 1_545
Al5 Mg5 3.109228 1_555
Al5 Mg10 3.118449 1_545
Al5 Mg7 3.162602 1_545
Al5 Mg3 3.175850 1_444
Al6 Mg8 2.926171 1_565
Al6 Mg15 2.926171 1_556
Al6 Mg14 3.090507 1_555
Al6 Mg7 3.122570 1_556
Al6 Mg2 3.122570 1_565
Al6 Mg11 3.137974 1_555
Al6 Mg6 3.137974 1_555
Al6 Mg3 3.230424 1_455
Al7 Al9 2.710110 1_545
Al7 Al8 2.770638 1_656
Al7 Mg11 2.926171 1_655
Al7 Mg4 2.926171 1_556
Al7 Mg5 3.090507 1_555
Al7 Mg12 3.122570 1_556
Al7 Mg2 3.122570 1_655
Al7 Mg8 3.137974 1_555
Al7 Mg13 3.137974 1_555
Al7 Mg3 3.230424 1_545
Al8 Be0 2.778657 1_555
Al8 Mg6 2.898744 1_555
Al8 Mg10 3.018762 1_555
Al8 Mg4 3.021960 1_455
Al8 Mg14 3.109228 1_555
Al8 Mg9 3.118449 1_455
Al8 Mg12 3.162602 1_455
Al8 Mg3 3.175850 1_444
Al9 Mg14 2.939350 1_555
Al9 Mg0 2.939350 1_555
Al9 Mg10 2.993493 1_555
Al9 Mg2 3.052790 1_665
Al9 Mg12 3.052790 1_566
Al9 Mg13 3.057182 1_565
Al9 Mg8 3.057182 1_565
Al9 Mg3 3.132174 1_555
Al10 Al3 2.628062 1_555
Al10 Al8 2.651138 1_555
Al10 Be0 2.778657 1_555
Al10 Mg11 2.898744 1_555
Al10 Mg1 3.018762 1_555
Al10 Mg13 3.021960 1_455
Al10 Mg14 3.109228 1_555
Al10 Mg9 3.118449 1_455
Al10 Mg12 3.162602 1_455
Al10 Mg3 3.175850 1_444
Al11 Al8 2.628062 1_555
Al11 Al2 2.651138 1_555
Al11 Al7 2.770638 1_454
Al11 Be0 2.778657 1_555
Al11 Mg15 2.898744 1_555
Al11 Mg10 3.018762 1_555
Al11 Mg11 3.021960 1_554
Al11 Mg0 3.109228 1_555
Al11 Mg1 3.118449 1_554
Al11 Mg2 3.162602 1_554
Al11 Mg3 3.175850 1_444
