# generated using pymatgen
data_Nb4V3FeSe20
_symmetry_space_group_name_H-M   'P 1'
_cell_length_a   3.49155700
_cell_length_b   9.47656000
_cell_length_c   18.77735269
_cell_angle_alpha   86.55993401
_cell_angle_beta   90.00000000
_cell_angle_gamma   90.00000000
_symmetry_Int_Tables_number   1
_chemical_formula_structural   Nb4V3FeSe20
_chemical_formula_sum   'Nb4 V3 Fe1 Se20'
_cell_volume   620.18457524
_cell_formula_units_Z   1
loop_
 _symmetry_equiv_pos_site_id
 _symmetry_equiv_pos_as_xyz
  1  'x, y, z'
loop_
 _atom_site_type_symbol
 _atom_site_label
 _atom_site_symmetry_multiplicity
 _atom_site_fract_x
 _atom_site_fract_y
 _atom_site_fract_z
 _atom_site_occupancy
  Nb  Nb0  1  0.50000000  0.59892800  0.67905600  1
  Nb  Nb1  1  0.50000000  0.09420600  0.18285400  1
  Nb  Nb2  1  0.00000000  0.90801500  0.81609100  1
  Nb  Nb3  1  0.00000000  0.40267300  0.31916500  1
  V  V0  1  0.00000000  0.39247000  0.04790700  1
  V  V1  1  0.50000000  0.60854100  0.95127300  1
  V  V2  1  0.50000000  0.08914700  0.45847900  1
  Fe  Fe0  1  0.00000000  0.90027600  0.54929500  1
  Se  Se0  1  0.00000000  0.42773200  0.61816400  1
  Se  Se1  1  0.00000000  0.92305600  0.12222500  1
  Se  Se2  1  0.50000000  0.07626700  0.87794100  1
  Se  Se3  1  0.50000000  0.57464800  0.37949200  1
  Se  Se4  1  0.00000000  0.80898300  0.67604000  1
  Se  Se5  1  0.00000000  0.30473200  0.18298500  1
  Se  Se6  1  0.50000000  0.69806400  0.81485500  1
  Se  Se7  1  0.50000000  0.19109900  0.32098200  1
  Se  Se8  1  0.00000000  0.42226300  0.74444900  1
  Se  Se9  1  0.00000000  0.91790100  0.24797600  1
  Se  Se10  1  0.50000000  0.08499000  0.75139800  1
  Se  Se11  1  0.50000000  0.58104000  0.25381000  1
  Se  Se12  1  0.50000000  0.72132100  0.54353300  1
  Se  Se13  1  0.50000000  0.19840600  0.04465000  1
  Se  Se14  1  0.00000000  0.80253300  0.95467100  1
  Se  Se15  1  0.00000000  0.29090900  0.45685300  1
  Se  Se16  1  0.50000000  0.05918600  0.58279700  1
  Se  Se17  1  0.50000000  0.57080300  0.08009400  1
  Se  Se18  1  0.00000000  0.42986200  0.91914300  1
  Se  Se19  1  0.00000000  0.92195000  0.42382200  1
loop_
_geom_bond_atom_site_label_1
_geom_bond_atom_site_label_2
_geom_bond_distance
_geom_bond_site_symmetry_2
Nb0 Se4 2.645733 1_655
Nb0 Se4 2.645733 1_555
Nb0 Se8 2.666770 1_555
Nb0 Se8 2.666770 1_655
Nb0 Se0 2.685091 1_555
Nb0 Se0 2.685091 1_655
Nb0 Se12 2.732561 1_555
Nb0 Se6 2.769895 1_555
Nb1 Se5 2.651153 1_655
Nb1 Se5 2.651153 1_555
Nb1 Se9 2.662574 1_645
Nb1 Se9 2.662574 1_545
Nb1 Se1 2.682538 1_545
Nb1 Se1 2.682538 1_645
Nb1 Se13 2.720683 1_555
Nb1 Se7 2.802871 1_555
Nb2 Se6 2.648091 1_455
Nb2 Se6 2.648091 1_555
Nb2 Se10 2.663008 1_465
Nb2 Se10 2.663008 1_565
Nb2 Se2 2.676013 1_465
Nb2 Se2 2.676013 1_565
Nb2 Se14 2.730992 1_555
Nb2 Se4 2.844769 1_555
Nb3 Se7 2.657197 1_455
Nb3 Se7 2.657197 1_555
Nb3 Se11 2.676181 1_555
Nb3 Se11 2.676181 1_455
Nb3 Se3 2.684867 1_455
Nb3 Se3 2.684867 1_555
Nb3 Se15 2.734507 1_555
Nb3 Se5 2.772189 1_555
Fe0 Se19 2.352677 1_555
Fe0 Se16 2.413497 1_465
Fe0 Se16 2.413497 1_565
Fe0 Se12 2.440793 1_455
Fe0 Se12 2.440793 1_555
Fe0 Se4 2.483036 1_555
Se0 Se8 2.368753 1_555
Se1 Se9 2.358844 1_555
Se5 V0 2.621372 1_555
Se6 V1 2.649636 1_555
Se7 V2 2.701841 1_555
Se10 Se2 2.372618 1_555
Se11 Se3 2.357116 1_555
Se13 V0 2.539118 1_555
Se13 V0 2.539118 1_655
Se14 V1 2.538803 1_555
Se14 V1 2.538803 1_455
Se15 V2 2.587943 1_455
Se15 V2 2.587943 1_555
Se16 V2 2.334593 1_555
Se17 V1 2.423890 1_554
Se17 V0 2.528171 1_555
Se17 V0 2.528171 1_655
Se18 V0 2.422546 1_556
Se18 V1 2.530112 1_455
Se18 V1 2.530112 1_555
Se19 V2 2.470925 1_465
Se19 V2 2.470925 1_565
