# generated using pymatgen
data_Li4Mn3CoO8
_symmetry_space_group_name_H-M   'P 1'
_cell_length_a   3.08299100
_cell_length_b   6.10715535
_cell_length_c   8.13941496
_cell_angle_alpha   90.34461306
_cell_angle_beta   90.83151124
_cell_angle_gamma   95.34716351
_symmetry_Int_Tables_number   1
_chemical_formula_structural   Li4Mn3CoO8
_chemical_formula_sum   'Li4 Mn3 Co1 O8'
_cell_volume   152.56424179
_cell_formula_units_Z   1
loop_
 _symmetry_equiv_pos_site_id
 _symmetry_equiv_pos_as_xyz
  1  'x, y, z'
loop_
 _atom_site_type_symbol
 _atom_site_label
 _atom_site_symmetry_multiplicity
 _atom_site_fract_x
 _atom_site_fract_y
 _atom_site_fract_z
 _atom_site_occupancy
  Li  Li0  1  0.00000000  0.50000000  0.00000000  1
  Li  Li1  1  0.49668000  0.75183300  0.24747200  1
  Li  Li2  1  0.50332000  0.24816700  0.75252800  1
  Li  Li3  1  0.00000000  0.00000000  0.50000000  1
  Mn  Mn0  1  0.51168100  0.24621800  0.24807900  1
  Mn  Mn1  1  0.00000000  0.50000000  0.50000000  1
  Mn  Mn2  1  0.48831900  0.75378200  0.75192100  1
  Co  Co0  1  0.00000000  0.00000000  0.00000000  1
  O  O0  1  0.47211000  0.76644600  0.98994700  1
  O  O1  1  0.03764000  0.00424900  0.23837400  1
  O  O2  1  0.02963500  0.50995800  0.74077800  1
  O  O3  1  0.53342200  0.25775400  0.48771900  1
  O  O4  1  0.52789000  0.23355400  0.01005300  1
  O  O5  1  0.97036500  0.49004200  0.25922200  1
  O  O6  1  0.96236000  0.99575100  0.76162600  1
  O  O7  1  0.46657800  0.74224600  0.51228100  1
loop_
_geom_bond_atom_site_label_1
_geom_bond_atom_site_label_2
_geom_bond_distance
_geom_bond_site_symmetry_2
Li0 O0 2.082475 1_554
Li0 O4 2.082475 1_455
Li0 O5 2.114212 1_455
Li0 O2 2.114212 1_554
Li0 O0 2.407193 1_454
Li0 O4 2.407193 1_555
Li1 O0 2.099107 1_554
Li1 O7 2.159643 1_555
Li1 O1 2.165432 1_665
Li1 O5 2.172795 1_455
Li1 O1 2.188520 1_565
Li1 O5 2.265155 1_555
Li2 O4 2.099107 1_556
Li2 O3 2.159643 1_555
Li2 O6 2.165432 1_445
Li2 O2 2.172795 1_655
Li2 O6 2.188520 1_545
Li2 O2 2.265155 1_555
Li3 O6 2.134505 1_445
Li3 O1 2.134505 1_555
Li3 O7 2.171771 1_445
Li3 O3 2.171771 1_555
Li3 O7 2.230879 1_545
Li3 O3 2.230879 1_455
Mn0 O4 1.940025 1_555
Mn0 O3 1.951331 1_555
Mn0 O5 1.956394 1_555
Mn0 O1 1.979537 1_555
Mn0 O1 2.295262 1_655
Mn0 O5 2.340220 1_455
Mn1 O2 1.960909 1_555
Mn1 O5 1.960909 1_455
Mn1 O7 1.966032 1_555
Mn1 O3 1.966032 1_455
Mn1 O3 2.315095 1_555
Mn1 O7 2.315095 1_455
Mn2 O0 1.940025 1_555
Mn2 O7 1.951331 1_555
Mn2 O2 1.956394 1_555
Mn2 O6 1.979537 1_555
Mn2 O6 2.295262 1_455
Mn2 O2 2.340220 1_655
Co0 O1 1.941883 1_555
Co0 O6 1.941883 1_444
Co0 O4 2.062023 1_555
Co0 O0 2.062023 1_444
Co0 O4 2.132762 1_455
Co0 O0 2.132762 1_544
