# generated using pymatgen
data_Cs12Sn2As6O
_symmetry_space_group_name_H-M   'P 1'
_cell_length_a   12.41483072
_cell_length_b   12.41483072
_cell_length_c   6.43229900
_cell_angle_alpha   90.00000000
_cell_angle_beta   90.00000000
_cell_angle_gamma   120.00000386
_symmetry_Int_Tables_number   1
_chemical_formula_structural   Cs12Sn2As6O
_chemical_formula_sum   'Cs12 Sn2 As6 O1'
_cell_volume   858.57540523
_cell_formula_units_Z   1
loop_
 _symmetry_equiv_pos_site_id
 _symmetry_equiv_pos_as_xyz
  1  'x, y, z'
loop_
 _atom_site_type_symbol
 _atom_site_label
 _atom_site_symmetry_multiplicity
 _atom_site_fract_x
 _atom_site_fract_y
 _atom_site_fract_z
 _atom_site_occupancy
  Cs  Cs0  1  0.23428200  0.11714100  0.26981000  1
  Cs  Cs1  1  0.88285900  0.11714100  0.26981000  1
  Cs  Cs2  1  0.88285900  0.76571800  0.26981000  1
  Cs  Cs3  1  0.76571800  0.88285900  0.73019000  1
  Cs  Cs4  1  0.11714100  0.88285900  0.73019000  1
  Cs  Cs5  1  0.11714100  0.23428200  0.73019000  1
  Cs  Cs6  1  0.90852400  0.45426200  0.24927100  1
  Cs  Cs7  1  0.54573800  0.45426200  0.24927100  1
  Cs  Cs8  1  0.54573800  0.09147600  0.24927100  1
  Cs  Cs9  1  0.09147600  0.54573800  0.75072900  1
  Cs  Cs10  1  0.45426200  0.54573800  0.75072900  1
  Cs  Cs11  1  0.45426200  0.90852400  0.75072900  1
  Sn  Sn0  1  0.66666700  0.33333300  0.74941800  1
  Sn  Sn1  1  0.33333300  0.66666700  0.25058200  1
  As  As0  1  0.57348500  0.78674200  0.25174500  1
  As  As1  1  0.21325800  0.78674200  0.25174500  1
  As  As2  1  0.21325800  0.42651500  0.25174500  1
  As  As3  1  0.42651500  0.21325800  0.74825500  1
  As  As4  1  0.78674200  0.21325800  0.74825500  1
  As  As5  1  0.78674200  0.57348500  0.74825500  1
  O  O0  1  0.00000000  0.00000000  0.50000000  1
loop_
_geom_bond_atom_site_label_1
_geom_bond_atom_site_label_2
_geom_bond_distance
_geom_bond_site_symmetry_2
Cs0 O0 2.921843 1_555
Cs0 Cs7 4.037594 1_555
Cs0 Cs8 4.037594 1_555
Cs1 O0 2.921843 1_655
Cs1 Cs6 4.037594 1_555
Cs1 Cs8 4.037594 1_555
Cs2 O0 2.921843 1_665
Cs2 Cs7 4.037594 1_555
Cs2 Cs6 4.037594 1_555
Cs3 O0 2.921843 1_665
Cs4 O0 2.921843 1_565
Cs4 Cs9 4.037594 1_555
Cs5 O0 2.921843 1_555
Cs5 Cs9 4.037594 1_555
Cs6 Cs9 3.761987 1_654
Cs6 Cs9 3.777988 1_655
Cs6 Sn0 4.135130 1_554
Cs6 Sn0 4.136601 1_555
Cs7 Sn0 4.135137 1_554
Cs7 Sn0 4.136608 1_555
Cs8 Sn0 4.135130 1_554
Cs8 Sn0 4.136601 1_555
Cs9 Sn1 4.135130 1_556
Cs9 Sn1 4.136601 1_555
Cs10 Cs7 3.761987 1_556
Cs10 Cs7 3.777988 1_555
Cs10 Cs5 4.037594 1_555
Cs10 Cs3 4.037594 1_555
Cs10 Sn1 4.135137 1_556
Cs10 Sn1 4.136608 1_555
Cs11 Cs8 3.761987 1_566
Cs11 Cs8 3.777988 1_565
Cs11 Cs4 4.037594 1_555
Cs11 Cs3 4.037594 1_555
Cs11 Sn1 4.135130 1_556
Cs11 Sn1 4.136601 1_555
As0 Sn1 2.582019 1_555
As0 Cs3 3.707114 1_555
As0 Cs3 3.940349 1_554
As0 Cs7 3.966712 1_555
As0 Cs8 3.966724 1_565
As0 Cs2 3.979455 1_555
As0 Cs1 3.979462 1_565
As0 Cs10 4.125049 1_555
As0 Cs11 4.125056 1_555
As0 Cs10 4.135227 1_554
As0 Cs11 4.135234 1_554
As1 Sn1 2.581998 1_555
As1 Cs4 3.707120 1_555
As1 Cs4 3.940354 1_554
As1 Cs6 3.966717 1_455
As1 Cs8 3.966717 1_565
As1 Cs2 3.979467 1_455
As1 Cs0 3.979467 1_565
As1 Cs9 4.125049 1_555
As1 Cs11 4.125049 1_555
As1 Cs9 4.135227 1_554
As1 Cs11 4.135227 1_554
As2 Sn1 2.582019 1_555
As2 Cs5 3.707114 1_555
As2 Cs5 3.940349 1_554
As2 Cs7 3.966712 1_555
As2 Cs6 3.966724 1_455
As2 Cs0 3.979455 1_555
As2 Cs1 3.979462 1_455
As2 Cs10 4.125049 1_555
As2 Cs9 4.125056 1_555
As2 Cs10 4.135227 1_554
As2 Cs9 4.135234 1_554
As3 Sn0 2.582019 1_555
As3 Cs0 3.707114 1_555
As3 Cs0 3.940349 1_556
As3 Cs10 3.966712 1_555
As3 Cs11 3.966724 1_545
As3 Cs5 3.979455 1_555
As3 Cs4 3.979462 1_545
As3 Cs7 4.125049 1_555
As3 Cs8 4.125056 1_555
As3 Cs7 4.135227 1_556
As3 Cs8 4.135234 1_556
As4 Sn0 2.581998 1_555
As4 Cs1 3.707120 1_555
As4 Cs1 3.940354 1_556
As4 Cs11 3.966717 1_545
As4 Cs9 3.966717 1_655
As4 Cs3 3.979467 1_545
As4 Cs5 3.979467 1_655
As4 Cs8 4.125049 1_555
As4 Cs6 4.125049 1_555
As4 Cs8 4.135227 1_556
As4 Cs6 4.135227 1_556
As5 Sn0 2.582019 1_555
As5 Cs2 3.707114 1_555
As5 Cs2 3.940349 1_556
As5 Cs10 3.966712 1_555
As5 Cs9 3.966724 1_655
As5 Cs3 3.979455 1_555
As5 Cs4 3.979462 1_655
As5 Cs7 4.125049 1_555
As5 Cs6 4.125056 1_555
As5 Cs7 4.135227 1_556
As5 Cs6 4.135234 1_556
