# generated using pymatgen
data_Ba3SrCa2(MoO6)2
_symmetry_space_group_name_H-M   'P 1'
_cell_length_a   5.98469000
_cell_length_b   5.98469000
_cell_length_c   8.46328900
_cell_angle_alpha   90.00000000
_cell_angle_beta   90.00000000
_cell_angle_gamma   90.00000000
_symmetry_Int_Tables_number   1
_chemical_formula_structural   Ba3SrCa2(MoO6)2
_chemical_formula_sum   'Ba3 Sr1 Ca2 Mo2 O12'
_cell_volume   303.12551231
_cell_formula_units_Z   1
loop_
 _symmetry_equiv_pos_site_id
 _symmetry_equiv_pos_as_xyz
  1  'x, y, z'
loop_
 _atom_site_type_symbol
 _atom_site_label
 _atom_site_symmetry_multiplicity
 _atom_site_fract_x
 _atom_site_fract_y
 _atom_site_fract_z
 _atom_site_occupancy
  Ba  Ba0  1  0.00000000  0.00000000  0.00000000  1
  Ba  Ba1  1  0.50000000  0.50000000  0.00000000  1
  Ba  Ba2  1  0.00000000  0.00000000  0.50000000  1
  Sr  Sr0  1  0.50000000  0.50000000  0.50000000  1
  Ca  Ca0  1  0.50000000  0.00000000  0.25052000  1
  Ca  Ca1  1  0.00000000  0.50000000  0.74948000  1
  Mo  Mo0  1  0.50000000  0.00000000  0.74907400  1
  Mo  Mo1  1  0.00000000  0.50000000  0.25092600  1
  O  O0  1  0.50000000  0.00000000  0.51929200  1
  O  O1  1  0.00000000  0.50000000  0.02052100  1
  O  O2  1  0.76895500  0.72916300  0.25121400  1
  O  O3  1  0.27083700  0.23104500  0.74878600  1
  O  O4  1  0.23104500  0.72916300  0.25121400  1
  O  O5  1  0.72916300  0.23104500  0.74878600  1
  O  O6  1  0.50000000  0.00000000  0.97947900  1
  O  O7  1  0.00000000  0.50000000  0.48070800  1
  O  O8  1  0.23104500  0.27083700  0.25121400  1
  O  O9  1  0.72916300  0.76895500  0.74878600  1
  O  O10  1  0.76895500  0.27083700  0.25121400  1
  O  O11  1  0.27083700  0.76895500  0.74878600  1
loop_
_geom_bond_atom_site_label_1
_geom_bond_atom_site_label_2
_geom_bond_distance
_geom_bond_site_symmetry_2
Ba0 O1 2.997381 1_545
Ba0 O1 2.997381 1_555
Ba0 O6 2.997381 1_454
Ba0 O6 2.997381 1_554
Ba0 O8 3.009896 1_555
Ba0 O4 3.009896 1_545
Ba0 O3 3.009896 1_554
Ba0 O5 3.009896 1_454
Ba0 O10 3.009896 1_455
Ba0 O11 3.009896 1_544
Ba0 O2 3.009896 1_445
Ba0 O9 3.009896 1_444
Ba1 O1 2.997381 1_555
Ba1 O1 2.997381 1_655
Ba1 O6 2.997381 1_564
Ba1 O6 2.997381 1_554
Ba1 O2 2.998678 1_555
Ba1 O10 2.998678 1_555
Ba1 O11 2.998678 1_554
Ba1 O9 2.998678 1_554
Ba1 O4 2.998678 1_555
Ba1 O8 2.998678 1_555
Ba1 O3 2.998678 1_554
Ba1 O5 2.998678 1_554
Ba2 O4 2.995416 1_545
Ba2 O3 2.995416 1_555
Ba2 O5 2.995416 1_455
Ba2 O8 2.995416 1_555
Ba2 O11 2.995416 1_545
Ba2 O9 2.995416 1_445
Ba2 O2 2.995416 1_445
Ba2 O10 2.995416 1_455
Ba2 O0 2.996796 1_555
Ba2 O0 2.996796 1_455
Ba2 O7 2.996796 1_555
Ba2 O7 2.996796 1_545
Ca0 O0 2.274695 1_555
Ca0 O10 2.284321 1_555
Ca0 O2 2.284321 1_545
Ca0 O8 2.284321 1_555
Ca0 O4 2.284321 1_545
Ca0 O6 2.293898 1_554
Ca1 O7 2.274695 1_555
Ca1 O9 2.284321 1_455
Ca1 O11 2.284321 1_555
Ca1 O3 2.284321 1_555
Ca1 O5 2.284321 1_455
Ca1 O1 2.293898 1_556
Mo0 O0 1.944711 1_555
Mo0 O3 1.947533 1_555
Mo0 O5 1.947533 1_555
Mo0 O11 1.947533 1_545
Mo0 O9 1.947533 1_545
Mo0 O6 1.949984 1_555
Mo1 O7 1.944711 1_555
Mo1 O4 1.947533 1_555
Mo1 O8 1.947533 1_555
Mo1 O2 1.947533 1_455
Mo1 O10 1.947533 1_455
Mo1 O1 1.949984 1_555
O0 Sr0 2.996796 1_545
O0 Sr0 2.996796 1_555
O2 Sr0 2.984143 1_555
O3 Sr0 2.984143 1_555
O4 Sr0 2.984143 1_555
O5 Sr0 2.984143 1_555
O7 Sr0 2.996796 1_455
O7 Sr0 2.996796 1_555
O8 Sr0 2.984143 1_555
O9 Sr0 2.984143 1_555
O10 Sr0 2.984143 1_555
O11 Sr0 2.984143 1_555
