# generated using pymatgen
data_Ag2CO3
_symmetry_space_group_name_H-M   'P 1'
_cell_length_a   9.78689473
_cell_length_b   9.78689473
_cell_length_c   9.78689473
_cell_angle_alpha   139.37377858
_cell_angle_beta   124.07844728
_cell_angle_gamma   71.37935040
_symmetry_Int_Tables_number   1
_chemical_formula_structural   Ag2CO3
_chemical_formula_sum   'Ag12 C6 O18'
_cell_volume   495.69989460
_cell_formula_units_Z   6
loop_
 _symmetry_equiv_pos_site_id
 _symmetry_equiv_pos_as_xyz
  1  'x, y, z'
loop_
 _atom_site_type_symbol
 _atom_site_label
 _atom_site_symmetry_multiplicity
 _atom_site_fract_x
 _atom_site_fract_y
 _atom_site_fract_z
 _atom_site_occupancy
  Ag  Ag0  1  0.57632800  0.66347500  0.91335200  1
  Ag  Ag1  1  0.57632800  0.16297500  0.41285300  1
  Ag  Ag2  1  0.87837300  0.56770800  0.81066500  1
  Ag  Ag3  1  0.88521900  0.06414500  0.32107400  1
  Ag  Ag4  1  0.62165700  0.25345500  0.86820200  1
  Ag  Ag5  1  0.61474800  0.74654500  0.36820200  1
  Ag  Ag6  1  0.24987800  0.83702500  0.41335200  1
  Ag  Ag7  1  0.24987800  0.33652500  0.91285300  1
  Ag  Ag8  1  0.92368200  0.00000000  0.92368200  1
  Ag  Ag9  1  0.92368200  0.50000000  0.42368200  1
  Ag  Ag10  1  0.24295700  0.43229200  0.31066500  1
  Ag  Ag11  1  0.25692900  0.93585500  0.82107400  1
  C  C0  1  0.58335300  0.33298000  0.24950900  1
  C  C1  1  0.58335300  0.83384400  0.75037200  1
  C  C2  1  0.91652900  0.16615600  0.74950900  1
  C  C3  1  0.91652900  0.66702000  0.25037200  1
  C  C4  1  0.25008500  0.25003200  0.50005300  1
  C  C5  1  0.25002100  0.74996800  0.00005300  1
  O  O0  1  0.32230900  0.20423900  0.61807000  1
  O  O1  1  0.52926800  0.38481800  0.14078900  1
  O  O2  1  0.52926800  0.88847900  0.64445000  1
  O  O3  1  0.47685800  0.75128400  0.72189500  1
  O  O4  1  0.47685800  0.25496300  0.22557400  1
  O  O5  1  0.34170700  0.33193500  0.50977200  1
  O  O6  1  0.41383200  0.79576100  0.11807000  1
  O  O7  1  0.74390600  0.35894500  0.38199600  1
  O  O8  1  0.74390600  0.86191100  0.88496200  1
  O  O9  1  0.08628700  0.21393700  0.37235100  1
  O  O10  1  0.75597100  0.61518200  0.14445000  1
  O  O11  1  0.75597100  0.11152100  0.64078900  1
  O  O12  1  0.97061100  0.74503700  0.22189500  1
  O  O13  1  0.97061100  0.24871600  0.72557400  1
  O  O14  1  0.17783700  0.66806500  0.00977200  1
  O  O15  1  0.02305100  0.64105500  0.38496200  1
  O  O16  1  0.02305100  0.13808900  0.88199600  1
  O  O17  1  0.15841400  0.78606300  0.87235100  1
loop_
_geom_bond_atom_site_label_1
_geom_bond_atom_site_label_2
_geom_bond_distance
_geom_bond_site_symmetry_2
Ag0 O3 2.250132 1_555
Ag0 O10 2.250703 1_556
Ag0 O6 2.556950 1_556
Ag0 O5 2.557703 1_555
Ag1 O4 2.250141 1_555
Ag1 O11 2.250695 1_555
Ag1 O6 2.556947 1_545
Ag1 O5 2.557704 1_555
Ag2 O14 2.425791 1_656
Ag2 O7 2.454719 1_555
Ag2 O8 2.454723 1_555
Ag2 O12 2.520158 1_556
Ag2 O13 2.520158 1_555
Ag3 O9 2.427380 1_655
Ag3 O13 2.456617 1_555
Ag3 O12 2.456617 1_545
Ag3 O8 2.521334 1_544
Ag3 O7 2.521339 1_555
Ag4 O0 2.425262 1_555
Ag4 O11 2.455759 1_555
Ag4 O10 2.455759 1_556
Ag4 O2 2.518361 1_545
Ag4 O1 2.518361 1_556
Ag5 O6 2.425262 1_555
Ag5 O1 2.455762 1_555
Ag5 O2 2.455766 1_555
Ag5 O10 2.518353 1_555
Ag5 O11 2.518357 1_565
Ag6 O12 2.250142 1_455
Ag6 O2 2.250697 1_555
Ag6 O0 2.556947 1_565
Ag6 O14 2.557695 1_555
Ag7 O13 2.250141 1_455
Ag7 O1 2.250695 1_556
Ag7 O0 2.556952 1_555
Ag7 O14 2.557704 1_556
Ag8 O16 2.249351 1_655
Ag8 O8 2.249360 1_545
Ag8 O17 2.557118 1_645
Ag8 O9 2.557119 1_656
Ag9 O15 2.249351 1_655
Ag9 O7 2.249360 1_555
Ag9 O9 2.557114 1_655
Ag9 O17 2.557118 1_655
Ag10 O5 2.425791 1_555
Ag10 O16 2.454720 1_554
Ag10 O15 2.454720 1_555
Ag10 O3 2.520158 1_555
Ag10 O4 2.520158 1_555
Ag11 O17 2.427389 1_555
Ag11 O3 2.456617 1_555
Ag11 O4 2.456617 1_566
Ag11 O15 2.521336 1_555
Ag11 O16 2.521336 1_565
C0 O7 1.298636 1_555
C0 O1 1.298647 1_555
C0 O4 1.298949 1_555
C1 O8 1.298638 1_555
C1 O2 1.298638 1_555
C1 O3 1.298956 1_555
C2 O16 1.298643 1_655
C2 O11 1.298647 1_555
C2 O13 1.298949 1_555
C3 O10 1.298649 1_555
C3 O15 1.298650 1_655
C3 O12 1.298940 1_555
C4 O9 1.304931 1_555
C4 O0 1.305026 1_555
C4 O5 1.305114 1_555
C5 O17 1.304923 1_554
C5 O6 1.305034 1_555
C5 O14 1.305114 1_555
