# generated using pymatgen
data_DyGa3
_symmetry_space_group_name_H-M   'P 1'
_cell_length_a   6.18818666
_cell_length_b   6.18818666
_cell_length_c   22.79020664
_cell_angle_alpha   90.00000000
_cell_angle_beta   90.00000000
_cell_angle_gamma   120.00001409
_symmetry_Int_Tables_number   1
_chemical_formula_structural   DyGa3
_chemical_formula_sum   'Dy10 Ga30'
_cell_volume   755.79783450
_cell_formula_units_Z   10
loop_
 _symmetry_equiv_pos_site_id
 _symmetry_equiv_pos_as_xyz
  1  'x, y, z'
loop_
 _atom_site_type_symbol
 _atom_site_label
 _atom_site_symmetry_multiplicity
 _atom_site_fract_x
 _atom_site_fract_y
 _atom_site_fract_z
 _atom_site_occupancy
  Dy  Dy0  1  0.00000000  0.00000000  0.25000000  1
  Dy  Dy1  1  0.00000000  0.00000000  0.75000000  1
  Dy  Dy2  1  0.33333300  0.66666700  0.35041353  1
  Dy  Dy3  1  0.66666700  0.33333300  0.64958647  1
  Dy  Dy4  1  0.66666700  0.33333300  0.85041353  1
  Dy  Dy5  1  0.33333300  0.66666700  0.14958647  1
  Dy  Dy6  1  0.33333300  0.66666700  0.54191995  1
  Dy  Dy7  1  0.66666700  0.33333300  0.45808005  1
  Dy  Dy8  1  0.66666700  0.33333300  0.04191995  1
  Dy  Dy9  1  0.33333300  0.66666700  0.95808005  1
  Ga  Ga0  1  0.52152360  0.47847640  0.25000000  1
  Ga  Ga1  1  0.52152360  0.04304719  0.25000000  1
  Ga  Ga2  1  0.95695281  0.47847640  0.25000000  1
  Ga  Ga3  1  0.47847640  0.52152360  0.75000000  1
  Ga  Ga4  1  0.47847640  0.95695281  0.75000000  1
  Ga  Ga5  1  0.04304719  0.52152360  0.75000000  1
  Ga  Ga6  1  0.82578037  0.17421963  0.35124248  1
  Ga  Ga7  1  0.82578037  0.65156074  0.35124248  1
  Ga  Ga8  1  0.34843926  0.17421963  0.35124248  1
  Ga  Ga9  1  0.17421963  0.82578037  0.64875752  1
  Ga  Ga10  1  0.17421963  0.34843926  0.64875752  1
  Ga  Ga11  1  0.65156074  0.82578037  0.64875752  1
  Ga  Ga12  1  0.17421963  0.82578037  0.85124248  1
  Ga  Ga13  1  0.17421963  0.34843926  0.85124248  1
  Ga  Ga14  1  0.65156074  0.82578037  0.85124248  1
  Ga  Ga15  1  0.82578037  0.17421963  0.14875752  1
  Ga  Ga16  1  0.82578037  0.65156074  0.14875752  1
  Ga  Ga17  1  0.34843926  0.17421963  0.14875752  1
  Ga  Ga18  1  0.14216762  0.85783238  0.44770746  1
  Ga  Ga19  1  0.14216762  0.28433623  0.44770746  1
  Ga  Ga20  1  0.71566377  0.85783238  0.44770746  1
  Ga  Ga21  1  0.85783238  0.14216762  0.55229254  1
  Ga  Ga22  1  0.85783238  0.71566377  0.55229254  1
  Ga  Ga23  1  0.28433623  0.14216762  0.55229254  1
  Ga  Ga24  1  0.85783238  0.14216762  0.94770746  1
  Ga  Ga25  1  0.85783238  0.71566377  0.94770746  1
  Ga  Ga26  1  0.28433623  0.14216762  0.94770746  1
  Ga  Ga27  1  0.14216762  0.85783238  0.05229254  1
  Ga  Ga28  1  0.14216762  0.28433623  0.05229254  1
  Ga  Ga29  1  0.71566377  0.85783238  0.05229254  1
loop_
_geom_bond_atom_site_label_1
_geom_bond_atom_site_label_2
_geom_bond_distance
_geom_bond_site_symmetry_2
Dy0 Ga17 2.968287 1_555
Dy0 Ga16 2.968287 1_445
Dy0 Ga7 2.968287 1_445
Dy0 Ga8 2.968287 1_555
Dy0 Ga15 2.968287 1_455
Dy0 Ga6 2.968287 1_455
Dy0 Ga0 3.102681 1_555
Dy0 Ga0 3.102681 1_445
Dy0 Ga1 3.102682 1_555
Dy0 Ga2 3.102682 1_445
Dy0 Ga2 3.102682 1_455
Dy0 Ga1 3.102682 1_455
Dy1 Ga10 2.968287 1_555
Dy1 Ga11 2.968287 1_445
Dy1 Ga14 2.968287 1_445
Dy1 Ga13 2.968287 1_555
Dy1 Ga12 2.968287 1_545
Dy1 Ga9 2.968287 1_545
Dy1 Ga3 3.102681 1_555
Dy1 Ga3 3.102681 1_445
Dy1 Ga5 3.102682 1_555
Dy1 Ga4 3.102682 1_445
Dy1 Ga4 3.102682 1_545
Dy1 Ga5 3.102682 1_545
Dy2 Ga19 3.019084 1_555
Dy2 Ga20 3.019084 1_555
Dy2 Ga18 3.019084 1_555
Dy2 Ga1 3.050500 1_565
Dy2 Ga2 3.050500 1_455
Dy2 Ga0 3.050503 1_555
Dy2 Ga7 3.095207 1_455
Dy2 Ga8 3.095207 1_565
Dy2 Ga6 3.095209 1_455
Dy2 Ga6 3.095209 1_565
Dy2 Ga8 3.095213 1_555
Dy2 Ga7 3.095213 1_555
Dy3 Ga23 3.019084 1_555
Dy3 Ga22 3.019084 1_555
Dy3 Ga21 3.019084 1_555
Dy3 Ga5 3.050500 1_655
Dy3 Ga4 3.050500 1_545
Dy3 Ga3 3.050503 1_555
Dy3 Ga11 3.095207 1_545
Dy3 Ga10 3.095207 1_655
Dy3 Ga9 3.095209 1_545
Dy3 Ga9 3.095209 1_655
Dy3 Ga10 3.095213 1_555
Dy3 Ga11 3.095213 1_555
Dy4 Ga25 3.019084 1_555
Dy4 Ga26 3.019084 1_555
Dy4 Ga24 3.019084 1_555
Dy4 Ga5 3.050500 1_655
Dy4 Ga4 3.050500 1_545
Dy4 Ga3 3.050503 1_555
Dy4 Ga14 3.095207 1_545
Dy4 Ga13 3.095207 1_655
Dy4 Ga12 3.095209 1_545
Dy4 Ga12 3.095209 1_655
Dy4 Ga13 3.095213 1_555
Dy4 Ga14 3.095213 1_555
Dy5 Ga29 3.019084 1_555
Dy5 Ga28 3.019084 1_555
Dy5 Ga27 3.019084 1_555
Dy5 Ga1 3.050500 1_565
Dy5 Ga2 3.050500 1_455
Dy5 Ga0 3.050503 1_555
Dy5 Ga16 3.095207 1_455
Dy5 Ga17 3.095207 1_565
Dy5 Ga15 3.095209 1_455
Dy5 Ga15 3.095209 1_565
Dy5 Ga17 3.095213 1_555
Dy5 Ga16 3.095213 1_555
Dy6 Ga19 2.967889 1_555
Dy6 Ga20 2.967889 1_555
Dy6 Ga18 2.967889 1_555
Dy6 Ga9 2.972700 1_555
Dy6 Ga11 2.972703 1_555
Dy6 Ga10 2.972703 1_555
Dy6 Ga22 3.114194 1_455
Dy6 Ga23 3.114194 1_565
Dy6 Ga21 3.114201 1_455
Dy6 Ga21 3.114201 1_565
Dy6 Ga23 3.114206 1_555
Dy6 Ga22 3.114206 1_555
Dy7 Ga23 2.967889 1_555
Dy7 Ga22 2.967889 1_555
Dy7 Ga21 2.967889 1_555
Dy7 Ga6 2.972700 1_555
Dy7 Ga8 2.972703 1_555
Dy7 Ga7 2.972703 1_555
Dy7 Ga19 3.114194 1_655
Dy7 Ga20 3.114194 1_545
Dy7 Ga18 3.114201 1_545
Dy7 Ga18 3.114201 1_655
Dy7 Ga19 3.114206 1_555
Dy7 Ga20 3.114206 1_555
Dy8 Ga26 2.967889 1_554
Dy8 Ga25 2.967889 1_554
Dy8 Ga24 2.967889 1_554
Dy8 Ga15 2.972700 1_555
Dy8 Ga16 2.972703 1_555
Dy8 Ga17 2.972703 1_555
Dy8 Ga28 3.114194 1_655
Dy8 Ga29 3.114194 1_545
Dy8 Ga27 3.114201 1_545
Dy8 Ga27 3.114201 1_655
Dy8 Ga28 3.114206 1_555
Dy8 Ga29 3.114206 1_555
Dy9 Ga28 2.967889 1_556
Dy9 Ga29 2.967889 1_556
Dy9 Ga27 2.967889 1_556
Dy9 Ga12 2.972700 1_555
Dy9 Ga14 2.972703 1_555
Dy9 Ga13 2.972703 1_555
Dy9 Ga25 3.114194 1_455
Dy9 Ga26 3.114194 1_565
Dy9 Ga24 3.114201 1_455
Dy9 Ga24 3.114201 1_565
Dy9 Ga26 3.114206 1_555
Dy9 Ga25 3.114206 1_555
Ga0 Ga1 2.694517 1_555
Ga0 Ga2 2.694517 1_555
Ga0 Ga17 2.828306 1_555
Ga0 Ga8 2.828306 1_555
Ga0 Ga16 2.828306 1_555
Ga0 Ga7 2.828306 1_555
Ga1 Ga2 2.694517 1_555
Ga1 Ga15 2.828306 1_555
Ga1 Ga6 2.828306 1_555
Ga1 Ga17 2.828306 1_555
Ga1 Ga8 2.828306 1_555
Ga2 Ga6 2.828306 1_555
Ga2 Ga7 2.828306 1_555
Ga3 Ga5 2.694517 1_555
Ga3 Ga4 2.694517 1_555
Ga4 Ga5 2.694517 1_555
Ga4 Ga9 2.828306 1_555
Ga5 Ga9 2.828306 1_555
Ga6 Ga8 2.953876 1_555
Ga6 Ga7 2.953876 1_555
Ga7 Ga8 2.953875 1_555
Ga10 Ga21 2.792248 1_455
Ga10 Ga23 2.792251 1_555
Ga10 Ga3 2.828306 1_555
Ga10 Ga5 2.828306 1_555
Ga10 Ga11 2.953875 1_555
Ga10 Ga9 2.953876 1_555
Ga11 Ga21 2.792248 1_565
Ga11 Ga22 2.792251 1_555
Ga11 Ga3 2.828306 1_555
Ga11 Ga4 2.828306 1_555
Ga11 Ga9 2.953876 1_555
Ga12 Ga26 2.792247 1_565
Ga12 Ga25 2.792247 1_455
Ga12 Ga4 2.828306 1_555
Ga12 Ga5 2.828306 1_555
Ga12 Ga13 2.953876 1_555
Ga12 Ga14 2.953876 1_555
Ga13 Ga24 2.792248 1_455
Ga13 Ga26 2.792251 1_555
Ga13 Ga3 2.828306 1_555
Ga13 Ga5 2.828306 1_555
Ga13 Ga14 2.953875 1_555
Ga14 Ga24 2.792248 1_565
Ga14 Ga25 2.792251 1_555
Ga14 Ga3 2.828306 1_555
Ga14 Ga4 2.828306 1_555
Ga15 Ga28 2.792247 1_655
Ga15 Ga29 2.792247 1_545
Ga15 Ga2 2.828306 1_555
Ga15 Ga16 2.953876 1_555
Ga15 Ga17 2.953876 1_555
Ga16 Ga27 2.792248 1_655
Ga16 Ga29 2.792251 1_555
Ga16 Ga2 2.828306 1_555
Ga16 Ga17 2.953875 1_555
Ga17 Ga27 2.792248 1_545
Ga17 Ga28 2.792251 1_555
Ga18 Ga20 2.639285 1_455
Ga18 Ga19 2.639285 1_565
Ga18 Ga7 2.792248 1_455
Ga18 Ga8 2.792248 1_565
Ga18 Ga23 2.828971 1_565
Ga18 Ga22 2.828971 1_455
Ga19 Ga20 2.639285 1_445
Ga19 Ga6 2.792247 1_455
Ga19 Ga8 2.792251 1_555
Ga19 Ga21 2.828971 1_455
Ga19 Ga23 2.828977 1_555
Ga20 Ga6 2.792247 1_565
Ga20 Ga7 2.792251 1_555
Ga20 Ga21 2.828971 1_565
Ga20 Ga22 2.828977 1_555
Ga21 Ga23 2.639285 1_655
Ga21 Ga22 2.639285 1_545
Ga22 Ga23 2.639285 1_665
Ga22 Ga9 2.792247 1_655
Ga23 Ga9 2.792247 1_545
Ga24 Ga26 2.639285 1_655
Ga24 Ga25 2.639285 1_545
Ga24 Ga28 2.828971 1_656
Ga24 Ga29 2.828971 1_546
Ga25 Ga26 2.639285 1_665
Ga25 Ga27 2.828971 1_656
Ga25 Ga29 2.828977 1_556
Ga26 Ga27 2.828971 1_546
Ga26 Ga28 2.828977 1_556
Ga27 Ga28 2.639285 1_565
Ga27 Ga29 2.639285 1_455
Ga28 Ga29 2.639285 1_445
