# generated using pymatgen
data_Mo4Ir
_symmetry_space_group_name_H-M   'P 1'
_cell_length_a   23.86957751
_cell_length_b   23.86957751
_cell_length_c   23.86957878
_cell_angle_alpha   13.35605605
_cell_angle_beta   13.35605605
_cell_angle_gamma   13.35605641
_symmetry_Int_Tables_number   1
_chemical_formula_structural   Mo4Ir
_chemical_formula_sum   'Mo32 Ir8'
_cell_volume   631.33147387
_cell_formula_units_Z   8
loop_
 _symmetry_equiv_pos_site_id
 _symmetry_equiv_pos_as_xyz
  1  'x, y, z'
loop_
 _atom_site_type_symbol
 _atom_site_label
 _atom_site_symmetry_multiplicity
 _atom_site_fract_x
 _atom_site_fract_y
 _atom_site_fract_z
 _atom_site_occupancy
  Mo  Mo0_0  1  0.30135550  0.30135550  0.30135550  1
  Mo  Mo0_1  1  0.30135550  0.30135550  0.80135550  1
  Mo  Mo0_2  1  0.30135550  0.80135550  0.30135550  1
  Mo  Mo0_3  1  0.30135550  0.80135550  0.80135550  1
  Mo  Mo0_4  1  0.80135550  0.30135550  0.30135550  1
  Mo  Mo0_5  1  0.80135550  0.30135550  0.80135550  1
  Mo  Mo0_6  1  0.80135550  0.80135550  0.30135550  1
  Mo  Mo0_7  1  0.80135550  0.80135550  0.80135550  1
  Mo  Mo1_0  1  0.10035050  0.10035050  0.10035050  1
  Mo  Mo1_1  1  0.10035050  0.10035050  0.60035050  1
  Mo  Mo1_2  1  0.10035050  0.60035050  0.10035050  1
  Mo  Mo1_3  1  0.10035050  0.60035050  0.60035050  1
  Mo  Mo1_4  1  0.60035050  0.10035050  0.10035050  1
  Mo  Mo1_5  1  0.60035050  0.10035050  0.60035050  1
  Mo  Mo1_6  1  0.60035050  0.60035050  0.10035050  1
  Mo  Mo1_7  1  0.60035050  0.60035050  0.60035050  1
  Mo  Mo2_0  1  0.39964950  0.39964950  0.39964950  1
  Mo  Mo2_1  1  0.39964950  0.39964950  0.89964950  1
  Mo  Mo2_2  1  0.39964950  0.89964950  0.39964950  1
  Mo  Mo2_3  1  0.39964950  0.89964950  0.89964950  1
  Mo  Mo2_4  1  0.89964950  0.39964950  0.39964950  1
  Mo  Mo2_5  1  0.89964950  0.39964950  0.89964950  1
  Mo  Mo2_6  1  0.89964950  0.89964950  0.39964950  1
  Mo  Mo2_7  1  0.89964950  0.89964950  0.89964950  1
  Mo  Mo3_0  1  0.19864450  0.19864450  0.19864450  1
  Mo  Mo3_1  1  0.19864450  0.19864450  0.69864450  1
  Mo  Mo3_2  1  0.19864450  0.69864450  0.19864450  1
  Mo  Mo3_3  1  0.19864450  0.69864450  0.69864450  1
  Mo  Mo3_4  1  0.69864450  0.19864450  0.19864450  1
  Mo  Mo3_5  1  0.69864450  0.19864450  0.69864450  1
  Mo  Mo3_6  1  0.69864450  0.69864450  0.19864450  1
  Mo  Mo3_7  1  0.69864450  0.69864450  0.69864450  1
  Ir  Ir0_0  1  0.00000000  0.00000000  0.00000000  1
  Ir  Ir0_1  1  0.00000000  0.00000000  0.50000000  1
  Ir  Ir0_2  1  1.00000000  0.50000000  0.00000000  1
  Ir  Ir0_3  1  1.00000000  0.50000000  0.50000000  1
  Ir  Ir0_4  1  0.50000000  0.00000000  0.00000000  1
  Ir  Ir0_5  1  0.50000000  0.00000000  0.50000000  1
  Ir  Ir0_6  1  0.50000000  0.50000000  0.00000000  1
  Ir  Ir0_7  1  0.50000000  0.50000000  0.50000000  1
loop_
_geom_bond_atom_site_label_1
_geom_bond_atom_site_label_2
_geom_bond_distance
_geom_bond_site_symmetry_2
Mo0_0 Mo0_3 2.775790 1_545
Mo0_0 Mo0_5 2.775790 1_554
Mo0_0 Mo0_5 2.775790 1_455
Mo0_0 Mo0_3 2.775790 1_554
Mo0_0 Mo0_6 2.775790 1_545
Mo0_0 Mo0_6 2.775790 1_455
Mo0_0 Mo1_1 2.916440 1_555
Mo0_0 Mo1_2 2.916441 1_555
Mo0_0 Mo1_4 2.916441 1_555
Mo0_1 Mo0_4 2.775790 1_456
Mo0_1 Mo0_4 2.775790 1_555
Mo0_1 Mo0_2 2.775790 1_546
Mo0_1 Mo0_2 2.775790 1_555
Mo0_1 Mo0_7 2.775790 1_545
Mo0_1 Mo0_7 2.775790 1_455
Mo0_1 Mo1_0 2.916440 1_556
Mo0_1 Mo1_3 2.916441 1_555
Mo0_1 Mo1_5 2.916441 1_555
Mo0_2 Mo0_7 2.775790 1_554
Mo0_2 Mo0_7 2.775790 1_455
Mo0_2 Mo0_4 2.775790 1_555
Mo0_2 Mo0_4 2.775790 1_465
Mo0_2 Mo1_3 2.916440 1_555
Mo0_2 Mo1_0 2.916441 1_565
Mo0_2 Mo1_6 2.916441 1_555
Mo0_3 Mo0_6 2.775790 1_555
Mo0_3 Mo0_6 2.775790 1_456
Mo0_3 Mo0_5 2.775790 1_465
Mo0_3 Mo0_5 2.775790 1_555
Mo0_3 Mo1_2 2.916440 1_556
Mo0_3 Mo1_1 2.916441 1_565
Mo0_3 Mo1_7 2.916441 1_555
Mo0_4 Mo0_7 2.775790 1_545
Mo0_4 Mo0_7 2.775790 1_554
Mo0_4 Mo1_5 2.916440 1_555
Mo0_4 Mo1_0 2.916441 1_655
Mo0_4 Mo1_6 2.916441 1_555
Mo0_5 Mo0_6 2.775790 1_555
Mo0_5 Mo0_6 2.775790 1_546
Mo0_5 Mo1_4 2.916440 1_556
Mo0_5 Mo1_1 2.916441 1_655
Mo0_5 Mo1_7 2.916441 1_555
Mo0_6 Mo1_7 2.916440 1_555
Mo0_6 Mo1_4 2.916441 1_565
Mo0_6 Mo1_2 2.916441 1_655
Mo0_7 Mo1_6 2.916440 1_556
Mo0_7 Mo1_5 2.916441 1_565
Mo0_7 Mo1_3 2.916441 1_655
Mo1_0 Mo1_5 2.775790 1_554
Mo1_0 Mo1_5 2.775790 1_455
Mo1_0 Mo1_3 2.775790 1_545
Mo1_0 Mo1_3 2.775790 1_554
Mo1_0 Mo1_6 2.775790 1_545
Mo1_0 Mo1_6 2.775790 1_455
Mo1_0 Mo2_6 2.898441 1_445
Mo1_0 Mo2_3 2.898442 1_544
Mo1_0 Mo2_5 2.898442 1_454
Mo1_1 Mo1_4 2.775790 1_555
Mo1_1 Mo1_4 2.775790 1_456
Mo1_1 Mo1_2 2.775790 1_555
Mo1_1 Mo1_2 2.775790 1_546
Mo1_1 Mo1_7 2.775790 1_545
Mo1_1 Mo1_7 2.775790 1_455
Mo1_1 Mo2_7 2.898441 1_445
Mo1_1 Mo2_4 2.898442 1_455
Mo1_1 Mo2_2 2.898442 1_545
Mo1_2 Mo1_7 2.775790 1_554
Mo1_2 Mo1_7 2.775790 1_455
Mo1_2 Mo1_4 2.775790 1_555
Mo1_2 Mo1_4 2.775790 1_465
Mo1_2 Mo2_4 2.898441 1_455
Mo1_2 Mo2_1 2.898442 1_554
Mo1_2 Mo2_7 2.898442 1_454
Mo1_3 Mo1_6 2.775790 1_456
Mo1_3 Mo1_6 2.775790 1_555
Mo1_3 Mo1_5 2.775790 1_465
Mo1_3 Mo1_5 2.775790 1_555
Mo1_3 Mo2_5 2.898441 1_455
Mo1_3 Mo2_0 2.898442 1_555
Mo1_3 Mo2_6 2.898442 1_455
Mo1_4 Mo1_7 2.775790 1_554
Mo1_4 Mo1_7 2.775790 1_545
Mo1_4 Mo2_2 2.898441 1_545
Mo1_4 Mo2_1 2.898442 1_554
Mo1_4 Mo2_7 2.898442 1_544
Mo1_5 Mo1_6 2.775790 1_546
Mo1_5 Mo1_6 2.775790 1_555
Mo1_5 Mo2_3 2.898441 1_545
Mo1_5 Mo2_0 2.898442 1_555
Mo1_5 Mo2_6 2.898442 1_545
Mo1_6 Mo2_0 2.898441 1_555
Mo1_6 Mo2_5 2.898442 1_554
Mo1_6 Mo2_3 2.898442 1_554
Mo1_7 Mo2_1 2.898441 1_555
Mo1_7 Mo2_4 2.898442 1_555
Mo1_7 Mo2_2 2.898442 1_555
Mo2_0 Mo2_3 2.775790 1_545
Mo2_0 Mo2_5 2.775790 1_554
Mo2_0 Mo2_5 2.775790 1_455
Mo2_0 Mo2_3 2.775790 1_554
Mo2_0 Mo2_6 2.775790 1_545
Mo2_0 Mo2_6 2.775790 1_455
Mo2_0 Mo3_1 2.916440 1_555
Mo2_0 Mo3_4 2.916441 1_555
Mo2_0 Mo3_2 2.916441 1_555
Mo2_1 Mo2_2 2.775790 1_555
Mo2_1 Mo2_4 2.775790 1_555
Mo2_1 Mo2_4 2.775790 1_456
Mo2_1 Mo2_2 2.775790 1_546
Mo2_1 Mo2_7 2.775790 1_545
Mo2_1 Mo2_7 2.775790 1_455
Mo2_1 Mo3_0 2.916440 1_556
Mo2_1 Mo3_5 2.916441 1_555
Mo2_1 Mo3_3 2.916441 1_555
Mo2_2 Mo2_7 2.775790 1_455
Mo2_2 Mo2_7 2.775790 1_554
Mo2_2 Mo2_4 2.775790 1_465
Mo2_2 Mo2_4 2.775790 1_555
Mo2_2 Mo3_3 2.916440 1_555
Mo2_2 Mo3_6 2.916441 1_555
Mo2_2 Mo3_0 2.916441 1_565
Mo2_3 Mo2_6 2.775790 1_555
Mo2_3 Mo2_6 2.775790 1_456
Mo2_3 Mo2_5 2.775790 1_555
Mo2_3 Mo2_5 2.775790 1_465
Mo2_3 Mo3_2 2.916440 1_556
Mo2_3 Mo3_1 2.916441 1_565
Mo2_3 Mo3_7 2.916441 1_555
Mo2_4 Mo2_7 2.775790 1_545
Mo2_4 Mo2_7 2.775790 1_554
Mo2_4 Mo3_5 2.916440 1_555
Mo2_4 Mo3_6 2.916441 1_555
Mo2_4 Mo3_0 2.916441 1_655
Mo2_5 Mo2_6 2.775790 1_555
Mo2_5 Mo2_6 2.775790 1_546
Mo2_5 Mo3_4 2.916440 1_556
Mo2_5 Mo3_1 2.916441 1_655
Mo2_5 Mo3_7 2.916441 1_555
Mo2_6 Mo3_7 2.916440 1_555
Mo2_6 Mo3_2 2.916441 1_655
Mo2_6 Mo3_4 2.916441 1_565
Mo2_7 Mo3_6 2.916440 1_556
Mo2_7 Mo3_5 2.916441 1_565
Mo2_7 Mo3_3 2.916441 1_655
Mo3_0 Mo3_3 2.775790 1_545
Mo3_0 Mo3_3 2.775790 1_554
Mo3_0 Mo3_5 2.775790 1_455
Mo3_0 Mo3_5 2.775790 1_554
Mo3_0 Mo3_6 2.775790 1_545
Mo3_0 Mo3_6 2.775790 1_455
Mo3_1 Mo3_2 2.775790 1_546
Mo3_1 Mo3_4 2.775790 1_456
Mo3_1 Mo3_4 2.775790 1_555
Mo3_1 Mo3_2 2.775790 1_555
Mo3_1 Mo3_7 2.775790 1_545
Mo3_1 Mo3_7 2.775790 1_455
Mo3_2 Mo3_7 2.775790 1_554
Mo3_2 Mo3_7 2.775790 1_455
Mo3_2 Mo3_4 2.775790 1_465
Mo3_2 Mo3_4 2.775790 1_555
Mo3_3 Mo3_6 2.775790 1_456
Mo3_3 Mo3_6 2.775790 1_555
Mo3_3 Mo3_5 2.775790 1_465
Mo3_3 Mo3_5 2.775790 1_555
Mo3_4 Mo3_7 2.775790 1_554
Mo3_4 Mo3_7 2.775790 1_545
Mo3_5 Mo3_6 2.775790 1_546
Mo3_5 Mo3_6 2.775790 1_555
Ir0_0 Ir0_5 2.775790 1_554
Ir0_0 Ir0_3 2.775790 1_445
Ir0_0 Ir0_3 2.775790 1_454
Ir0_0 Ir0_5 2.775790 1_455
Ir0_0 Ir0_6 2.775790 1_545
Ir0_0 Ir0_6 2.775790 1_455
Ir0_0 Mo3_1 2.778020 1_554
Ir0_0 Mo0_6 2.778020 1_445
Ir0_0 Mo3_4 2.778020 1_455
Ir0_0 Mo3_2 2.778020 1_545
Ir0_0 Mo0_3 2.778020 1_544
Ir0_0 Mo0_5 2.778020 1_454
Ir0_1 Ir0_4 2.775790 1_555
Ir0_1 Ir0_4 2.775790 1_456
Ir0_1 Ir0_2 2.775790 1_455
Ir0_1 Ir0_2 2.775790 1_446
Ir0_1 Ir0_7 2.775790 1_545
Ir0_1 Ir0_7 2.775790 1_455
Ir0_1 Mo3_0 2.778020 1_555
Ir0_1 Mo0_7 2.778020 1_445
Ir0_1 Mo3_3 2.778020 1_545
Ir0_1 Mo3_5 2.778020 1_455
Ir0_1 Mo0_2 2.778020 1_545
Ir0_1 Mo0_4 2.778020 1_455
Ir0_2 Ir0_7 2.775790 1_654
Ir0_2 Ir0_7 2.775790 1_555
Ir0_2 Ir0_4 2.775790 1_565
Ir0_2 Ir0_4 2.775790 1_655
Ir0_2 Mo0_4 2.778020 1_555
Ir0_2 Mo3_3 2.778020 1_654
Ir0_2 Mo0_7 2.778020 1_554
Ir0_2 Mo3_6 2.778020 1_555
Ir0_2 Mo3_0 2.778020 1_655
Ir0_2 Mo0_1 2.778020 1_654
Ir0_3 Ir0_6 2.775790 1_556
Ir0_3 Ir0_6 2.775790 1_655
Ir0_3 Ir0_5 2.775790 1_565
Ir0_3 Ir0_5 2.775790 1_655
Ir0_3 Mo3_2 2.778020 1_655
Ir0_3 Mo0_5 2.778020 1_555
Ir0_3 Mo3_7 2.778020 1_555
Ir0_3 Mo3_1 2.778020 1_655
Ir0_3 Mo0_0 2.778020 1_655
Ir0_3 Mo0_6 2.778020 1_555
Ir0_4 Ir0_7 2.775790 1_554
Ir0_4 Ir0_7 2.775790 1_545
Ir0_4 Mo3_5 2.778020 1_554
Ir0_4 Mo0_2 2.778020 1_545
Ir0_4 Mo3_6 2.778020 1_545
Ir0_4 Mo0_7 2.778020 1_544
Ir0_4 Mo3_0 2.778020 1_555
Ir0_4 Mo0_1 2.778020 1_554
Ir0_5 Ir0_6 2.775790 1_546
Ir0_5 Ir0_6 2.775790 1_555
Ir0_5 Mo3_4 2.778020 1_555
Ir0_5 Mo0_3 2.778020 1_545
Ir0_5 Mo3_7 2.778020 1_545
Ir0_5 Mo3_1 2.778020 1_555
Ir0_5 Mo0_0 2.778020 1_555
Ir0_5 Mo0_6 2.778020 1_545
Ir0_6 Mo3_7 2.778020 1_554
Ir0_6 Mo0_0 2.778020 1_555
Ir0_6 Mo0_5 2.778020 1_554
Ir0_6 Mo0_3 2.778020 1_554
Ir0_6 Mo3_4 2.778020 1_555
Ir0_6 Mo3_2 2.778020 1_555
Ir0_7 Mo0_1 2.778020 1_555
Ir0_7 Mo3_6 2.778020 1_555
Ir0_7 Mo0_2 2.778020 1_555
Ir0_7 Mo0_4 2.778020 1_555
Ir0_7 Mo3_3 2.778020 1_555
Ir0_7 Mo3_5 2.778020 1_555
