# generated using pymatgen
data_Cd(BO2)2
_symmetry_space_group_name_H-M   'P 1'
_cell_length_a   8.97259457
_cell_length_b   8.97259457
_cell_length_c   7.27258200
_cell_angle_alpha   90.00000000
_cell_angle_beta   90.00000000
_cell_angle_gamma   120.00000420
_symmetry_Int_Tables_number   1
_chemical_formula_structural   Cd(BO2)2
_chemical_formula_sum   'Cd8 B16 O32'
_cell_volume   507.05530274
_cell_formula_units_Z   8
loop_
 _symmetry_equiv_pos_site_id
 _symmetry_equiv_pos_as_xyz
  1  'x, y, z'
loop_
 _atom_site_type_symbol
 _atom_site_label
 _atom_site_symmetry_multiplicity
 _atom_site_fract_x
 _atom_site_fract_y
 _atom_site_fract_z
 _atom_site_occupancy
  Cd  Cd0  1  0.00000000  0.00000000  0.06250000  1
  Cd  Cd1  1  0.00000000  0.00000000  0.56250000  1
  Cd  Cd2  1  0.52123300  0.04570400  0.04315300  1
  Cd  Cd3  1  0.47552900  0.52123300  0.54315300  1
  Cd  Cd4  1  0.04570400  0.52447100  0.54315300  1
  Cd  Cd5  1  0.95429600  0.47552900  0.04315300  1
  Cd  Cd6  1  0.52447100  0.47876700  0.04315300  1
  Cd  Cd7  1  0.47876700  0.95429600  0.54315300  1
  B  B0  1  0.84836300  0.17729800  0.34600000  1
  B  B1  1  0.67106500  0.84836300  0.84600000  1
  B  B2  1  0.17729800  0.32893500  0.84600000  1
  B  B3  1  0.82270200  0.67106500  0.34600000  1
  B  B4  1  0.32893500  0.15163700  0.34600000  1
  B  B5  1  0.15163700  0.82270200  0.84600000  1
  B  B6  1  0.67268000  0.84781600  0.23134300  1
  B  B7  1  0.82486300  0.67268000  0.73134300  1
  B  B8  1  0.66666700  0.33333300  0.75093200  1
  B  B9  1  0.33333300  0.66666700  0.25093200  1
  B  B10  1  0.66666700  0.33333300  0.36694700  1
  B  B11  1  0.33333300  0.66666700  0.86694700  1
  B  B12  1  0.32732000  0.15218400  0.73134300  1
  B  B13  1  0.17513700  0.32732000  0.23134300  1
  B  B14  1  0.15218400  0.82486300  0.23134300  1
  B  B15  1  0.84781600  0.17513700  0.73134300  1
  O  O0  1  0.00451600  0.70764900  0.72232000  1
  O  O1  1  0.70764900  0.70313200  0.22232000  1
  O  O2  1  0.30407300  0.80759800  0.79479500  1
  O  O3  1  0.49647500  0.30407300  0.29479500  1
  O  O4  1  0.80759800  0.50352500  0.29479500  1
  O  O5  1  0.19240200  0.49647500  0.79479500  1
  O  O6  1  0.50352500  0.69592700  0.79479500  1
  O  O7  1  0.69592700  0.19240200  0.29479500  1
  O  O8  1  0.66666700  0.33333300  0.55990700  1
  O  O9  1  0.33333300  0.66666700  0.05990700  1
  O  O10  1  0.32939200  0.09190600  0.53795600  1
  O  O11  1  0.23748600  0.32939200  0.03795600  1
  O  O12  1  0.09190600  0.76251400  0.03795600  1
  O  O13  1  0.90809400  0.23748600  0.53795600  1
  O  O14  1  0.76251400  0.67060800  0.53795600  1
  O  O15  1  0.67060800  0.90809400  0.03795600  1
  O  O16  1  0.18686000  0.00284300  0.82812400  1
  O  O17  1  0.18401700  0.18686000  0.32812400  1
  O  O18  1  0.00284300  0.81598300  0.32812400  1
  O  O19  1  0.99715700  0.18401700  0.82812400  1
  O  O20  1  0.81598300  0.81314000  0.82812400  1
  O  O21  1  0.81314000  0.99715700  0.32812400  1
  O  O22  1  0.49325600  0.20592300  0.82821200  1
  O  O23  1  0.28733300  0.49325600  0.32821200  1
  O  O24  1  0.20592300  0.71266700  0.32821200  1
  O  O25  1  0.79407700  0.28733300  0.82821200  1
  O  O26  1  0.71266700  0.50674400  0.82821200  1
  O  O27  1  0.50674400  0.79407700  0.32821200  1
  O  O28  1  0.29235100  0.29686800  0.72232000  1
  O  O29  1  0.99548400  0.29235100  0.22232000  1
  O  O30  1  0.29686800  0.00451600  0.22232000  1
  O  O31  1  0.70313200  0.99548400  0.72232000  1
loop_
_geom_bond_atom_site_label_1
_geom_bond_atom_site_label_2
_geom_bond_distance
_geom_bond_site_symmetry_2
Cd0 O20 2.382082 1_444
Cd0 O16 2.382082 1_554
Cd0 O19 2.382082 1_454
Cd0 O17 2.549643 1_555
Cd0 O21 2.549643 1_445
Cd0 O18 2.549643 1_545
Cd0 O11 2.647576 1_555
Cd0 O15 2.647576 1_445
Cd0 O12 2.647576 1_545
Cd1 O17 2.382082 1_555
Cd1 O21 2.382082 1_445
Cd1 O18 2.382082 1_545
Cd1 O20 2.549643 1_445
Cd1 O16 2.549643 1_555
Cd1 O19 2.549643 1_455
Cd1 O14 2.647576 1_445
Cd1 O10 2.647576 1_555
Cd1 O13 2.647576 1_455
Cd2 O22 2.221270 1_554
Cd2 O15 2.230960 1_545
Cd2 O30 2.267849 1_555
Cd2 O7 2.339979 1_555
Cd3 O23 2.221270 1_555
Cd3 O14 2.230960 1_555
Cd3 O28 2.267852 1_555
Cd3 O6 2.339979 1_555
Cd4 O24 2.221270 1_555
Cd4 O13 2.230960 1_455
Cd4 O0 2.267856 1_555
Cd4 O5 2.339979 1_555
Cd5 O25 2.221270 1_554
Cd5 O12 2.230960 1_655
Cd5 O29 2.267856 1_555
Cd5 O4 2.339979 1_555
Cd6 O26 2.221270 1_554
Cd6 O11 2.230960 1_555
Cd6 O1 2.267852 1_555
Cd6 O3 2.339979 1_555
Cd7 O27 2.221270 1_555
Cd7 O10 2.230960 1_565
Cd7 O31 2.267849 1_555
Cd7 O2 2.339979 1_555
B0 O7 1.487660 1_555
B0 O21 1.489458 1_545
B0 O13 1.496098 1_555
B0 O29 1.501522 1_555
B1 O6 1.487660 1_555
B1 O20 1.489458 1_555
B1 O15 1.496098 1_556
B1 O31 1.501524 1_555
B2 O5 1.487660 1_555
B2 O19 1.489458 1_455
B2 O11 1.496098 1_556
B2 O28 1.501517 1_555
B3 O4 1.487660 1_555
B3 O18 1.489458 1_655
B3 O14 1.496098 1_555
B3 O1 1.501517 1_555
B4 O3 1.487660 1_555
B4 O17 1.489458 1_555
B4 O10 1.496098 1_555
B4 O30 1.501524 1_555
B5 O2 1.487660 1_555
B5 O16 1.489458 1_565
B5 O12 1.496098 1_556
B5 O0 1.501522 1_555
B6 O21 1.480037 1_555
B6 O1 1.481680 1_555
B6 O27 1.492531 1_555
B6 O15 1.510280 1_555
B7 O20 1.480033 1_555
B7 O0 1.481680 1_655
B7 O26 1.492529 1_555
B7 O14 1.510276 1_555
B8 O8 1.389245 1_555
B8 O25 1.504982 1_555
B8 O22 1.504988 1_555
B8 O26 1.504990 1_555
B9 O9 1.389245 1_555
B9 O24 1.504982 1_555
B9 O27 1.504988 1_555
B9 O23 1.504990 1_555
B10 O8 1.403317 1_555
B10 O7 1.508395 1_555
B10 O4 1.508400 1_555
B10 O3 1.508403 1_555
B11 O9 1.403317 1_556
B11 O2 1.508395 1_555
B11 O5 1.508400 1_555
B11 O6 1.508403 1_555
B12 O16 1.480037 1_555
B12 O28 1.481680 1_555
B12 O22 1.492531 1_555
B12 O10 1.510280 1_555
B13 O17 1.480033 1_555
B13 O29 1.481680 1_455
B13 O23 1.492529 1_555
B13 O11 1.510276 1_555
B14 O18 1.480041 1_555
B14 O30 1.481680 1_565
B14 O24 1.492523 1_555
B14 O12 1.510278 1_555
B15 O19 1.480041 1_555
B15 O31 1.481680 1_545
B15 O25 1.492523 1_555
B15 O13 1.510278 1_555
