# generated using pymatgen
data_LiCu6OF11
_symmetry_space_group_name_H-M   'P 1'
_cell_length_a   5.47492284
_cell_length_b   4.81889537
_cell_length_c   8.45097225
_cell_angle_alpha   93.42699378
_cell_angle_beta   94.45295633
_cell_angle_gamma   88.76532758
_symmetry_Int_Tables_number   1
_chemical_formula_structural   LiCu6OF11
_chemical_formula_sum   'Li1 Cu6 O1 F11'
_cell_volume   221.86012474
_cell_formula_units_Z   1
loop_
 _symmetry_equiv_pos_site_id
 _symmetry_equiv_pos_as_xyz
  1  'x, y, z'
loop_
 _atom_site_type_symbol
 _atom_site_label
 _atom_site_symmetry_multiplicity
 _atom_site_fract_x
 _atom_site_fract_y
 _atom_site_fract_z
 _atom_site_occupancy
  Li  Li0  1  0.41494100  0.51982600  0.42676800  1
  Cu  Cu0  1  0.99918100  0.00475600  0.99716700  1
  Cu  Cu1  1  0.50186100  0.52236400  0.02052600  1
  Cu  Cu2  1  0.35827900  0.99479800  0.30366100  1
  Cu  Cu3  1  0.84444600  0.50982600  0.31862700  1
  Cu  Cu4  1  0.14211700  0.50200600  0.68744200  1
  Cu  Cu5  1  0.65228000  0.99433900  0.67880900  1
  O  O0  1  0.54763000  0.68180800  0.24232400  1
  F  F0  1  0.28384500  0.21432600  0.07802100  1
  F  F1  1  0.06416900  0.78967300  0.25015400  1
  F  F2  1  0.79831800  0.28671200  0.08455800  1
  F  F3  1  0.14123600  0.29822500  0.40058500  1
  F  F4  1  0.62921900  0.20902300  0.40999000  1
  F  F5  1  0.36398300  0.77695000  0.59266900  1
  F  F6  1  0.85787200  0.69153800  0.58105000  1
  F  F7  1  0.44955100  0.30674400  0.76835900  1
  F  F8  1  0.20482100  0.71548700  0.91817400  1
  F  F9  1  0.94638000  0.19943200  0.74987300  1
  F  F10  1  0.71237100  0.79605500  0.92093100  1
loop_
_geom_bond_atom_site_label_1
_geom_bond_atom_site_label_2
_geom_bond_distance
_geom_bond_site_symmetry_2
Li0 O0 1.977983 1_555
Cu0 F2 1.882197 1_556
Cu0 F8 1.895825 1_645
Cu0 F10 1.930221 1_545
Cu0 F0 1.932799 1_656
Cu0 F9 2.336688 1_555
Cu0 F1 2.429556 1_646
Cu1 O0 1.982356 1_555
Cu1 F8 2.017823 1_554
Cu1 F2 2.018517 1_555
Cu1 F0 2.029018 1_555
Cu1 F10 2.031022 1_554
Cu1 F7 2.314385 1_554
Cu2 O0 1.881718 1_555
Cu2 F1 1.917417 1_555
Cu2 F4 1.954908 1_565
Cu2 F3 2.038143 1_565
Cu2 F0 2.241270 1_565
Cu3 O0 1.893823 1_555
Cu3 F1 1.967708 1_655
Cu3 F3 1.999515 1_655
Cu3 F4 2.105828 1_555
Cu3 F2 2.193750 1_555
Cu3 F6 2.331477 1_555
Cu4 F9 1.949325 1_455
Cu4 F6 1.970802 1_455
Cu4 F7 2.004004 1_555
Cu4 F5 2.054190 1_555
Cu4 F8 2.156332 1_555
Cu5 F9 1.943599 1_565
Cu5 F5 1.979993 1_555
Cu5 F7 1.998311 1_565
Cu5 F6 2.002043 1_555
Cu5 F10 2.307314 1_555
Cu5 F4 2.545195 1_565
F3 Li0 1.850427 1_555
F4 Li0 1.887937 1_555
F5 Li0 1.848491 1_555
