# generated using pymatgen
data_MgNb2Te4Cl10O
_symmetry_space_group_name_H-M   'P 1'
_cell_length_a   6.72286383
_cell_length_b   8.93115081
_cell_length_c   9.80160009
_cell_angle_alpha   80.14242595
_cell_angle_beta   86.98910734
_cell_angle_gamma   73.60595223
_symmetry_Int_Tables_number   1
_chemical_formula_structural   MgNb2Te4Cl10O
_chemical_formula_sum   'Mg1 Nb2 Te4 Cl10 O1'
_cell_volume   556.24855594
_cell_formula_units_Z   1
loop_
 _symmetry_equiv_pos_site_id
 _symmetry_equiv_pos_as_xyz
  1  'x, y, z'
loop_
 _atom_site_type_symbol
 _atom_site_label
 _atom_site_symmetry_multiplicity
 _atom_site_fract_x
 _atom_site_fract_y
 _atom_site_fract_z
 _atom_site_occupancy
  Mg  Mg0  1  0.21971700  0.05495500  0.42127300  1
  Nb  Nb0  1  0.53627100  0.63977800  0.63743700  1
  Nb  Nb1  1  0.48478100  0.38037300  0.37202600  1
  Te  Te0  1  0.19497300  0.89136200  0.13737300  1
  Te  Te1  1  0.08700200  0.18591500  0.97399600  1
  Te  Te2  1  0.88833600  0.80993800  0.01057500  1
  Te  Te3  1  0.80883300  0.09367900  0.83417100  1
  Cl  Cl0  1  0.40838600  0.16543500  0.23194100  1
  Cl  Cl1  1  0.35514400  0.50544600  0.80115900  1
  Cl  Cl2  1  0.83826400  0.18400500  0.42036300  1
  Cl  Cl3  1  0.14545900  0.53487100  0.30169500  1
  Cl  Cl4  1  0.62633100  0.48746300  0.16995900  1
  Cl  Cl5  1  0.34349400  0.20926700  0.56147800  1
  Cl  Cl6  1  0.86781300  0.47497000  0.70767800  1
  Cl  Cl7  1  0.64595100  0.80650800  0.44916600  1
  Cl  Cl8  1  0.17247000  0.82300000  0.56278600  1
  Cl  Cl9  1  0.54672200  0.82182300  0.79445000  1
  O  O0  1  0.51523800  0.50264100  0.49818800  1
loop_
_geom_bond_atom_site_label_1
_geom_bond_atom_site_label_2
_geom_bond_distance
_geom_bond_site_symmetry_2
Mg0 Te0 3.388746 1_545
Nb0 O0 2.018260 1_555
Nb1 O0 1.838125 1_555
Te0 Te1 2.759272 1_564
Te0 Te2 2.783519 1_455
Te1 Te3 2.753100 1_455
Te2 Te3 2.743965 1_564
Cl0 Mg0 2.420434 1_555
Cl0 Nb1 2.714259 1_555
Cl1 Nb0 2.336130 1_555
Cl2 Mg0 2.497070 1_655
Cl2 Nb1 2.535502 1_555
Cl3 Nb1 2.376089 1_555
Cl4 Nb1 2.325988 1_555
Cl5 Mg0 2.428239 1_555
Cl5 Nb1 2.519560 1_555
Cl6 Nb0 2.360271 1_555
Cl7 Nb0 2.387974 1_555
Cl7 Mg0 3.081382 1_565
Cl8 Mg0 2.378598 1_565
Cl8 Nb0 2.591105 1_555
Cl9 Nb0 2.439147 1_555
Cl9 Te2 3.173284 1_556
