# generated using pymatgen
data_Zn3SiNi2
_symmetry_space_group_name_H-M   'P 1'
_cell_length_a   7.48912298
_cell_length_b   7.48912082
_cell_length_c   7.48912244
_cell_angle_alpha   60.00149013
_cell_angle_beta   60.00149326
_cell_angle_gamma   60.00148070
_symmetry_Int_Tables_number   1
_chemical_formula_structural   Zn3SiNi2
_chemical_formula_sum   'Zn12 Si4 Ni8'
_cell_volume   297.02457572
_cell_formula_units_Z   4
loop_
 _symmetry_equiv_pos_site_id
 _symmetry_equiv_pos_as_xyz
  1  'x, y, z'
loop_
 _atom_site_type_symbol
 _atom_site_label
 _atom_site_symmetry_multiplicity
 _atom_site_fract_x
 _atom_site_fract_y
 _atom_site_fract_z
 _atom_site_occupancy
  Zn  Zn0  1  0.81305178  0.81305263  0.18694314  1
  Zn  Zn1  1  0.18695029  0.18695021  0.81304931  1
  Zn  Zn2  1  0.81305207  0.18694384  0.81305296  1
  Zn  Zn3  1  0.18695148  0.81304907  0.18694955  1
  Zn  Zn4  1  0.18694436  0.81305196  0.81305205  1
  Zn  Zn5  1  0.81304912  0.18695095  0.18694911  1
  Zn  Zn6  1  0.43694852  0.43694867  0.06305597  1
  Zn  Zn7  1  0.06305082  0.06304833  0.43695083  1
  Zn  Zn8  1  0.43694788  0.06305609  0.43694858  1
  Zn  Zn9  1  0.06305012  0.43695102  0.06304822  1
  Zn  Zn10  1  0.06305721  0.43694807  0.43694863  1
  Zn  Zn11  1  0.43695074  0.06304895  0.06304961  1
  Si  Si0  1  0.12499997  0.62500004  0.62499998  1
  Si  Si1  1  0.62500009  0.12500017  0.62499987  1
  Si  Si2  1  0.62500006  0.62499989  0.12500026  1
  Si  Si3  1  0.62500005  0.62499986  0.62499984  1
  Ni  Ni0  1  0.75889340  0.41370121  0.41370035  1
  Ni  Ni1  1  0.41370009  0.75889462  0.41370078  1
  Ni  Ni2  1  0.41369986  0.41370086  0.75889475  1
  Ni  Ni3  1  0.41369906  0.41369986  0.41369958  1
  Ni  Ni4  1  0.49110582  0.83629853  0.83630002  1
  Ni  Ni5  1  0.83629870  0.49110687  0.83629928  1
  Ni  Ni6  1  0.83629904  0.83629859  0.49110703  1
  Ni  Ni7  1  0.83629946  0.83629971  0.83630030  1
loop_
_geom_bond_atom_site_label_1
_geom_bond_atom_site_label_2
_geom_bond_distance
_geom_bond_site_symmetry_2
Zn0 Zn2 2.800176 1_564
Zn0 Zn5 2.800182 1_565
Zn0 Zn4 2.800185 1_654
Zn0 Zn3 2.800192 1_655
Zn0 Zn11 2.811195 1_565
Zn0 Zn9 2.811203 1_655
Zn0 Zn8 2.811277 1_565
Zn0 Zn10 2.811286 1_655
Zn1 Zn2 2.800180 1_455
Zn1 Zn4 2.800181 1_545
Zn1 Zn5 2.800250 1_456
Zn1 Zn3 2.800251 1_546
Zn1 Zn9 2.811175 1_556
Zn1 Zn11 2.811179 1_556
Zn1 Zn10 2.811191 1_555
Zn1 Zn8 2.811195 1_555
Zn2 Zn5 2.800170 1_556
Zn2 Zn4 2.800186 1_645
Zn2 Zn7 2.811209 1_655
Zn2 Zn6 2.811272 1_556
Zn3 Zn4 2.800180 1_554
Zn3 Zn5 2.800261 1_465
Zn3 Zn7 2.811179 1_565
Zn3 Zn6 2.811191 1_555
Zn4 Zn7 2.811196 1_565
Zn4 Zn9 2.811197 1_556
Zn4 Zn8 2.811271 1_565
Zn4 Zn6 2.811272 1_556
Zn5 Zn9 2.811182 1_655
Zn5 Zn6 2.811191 1_555
Zn5 Zn7 2.811192 1_655
Zn5 Zn8 2.811202 1_555
Zn6 Zn8 2.800190 1_555
Zn6 Zn9 2.800191 1_555
Zn7 Zn8 2.800182 1_555
Zn7 Zn9 2.800265 1_555
Zn10 Zn8 2.800180 1_555
Zn10 Zn6 2.800186 1_555
Zn10 Zn7 2.800196 1_555
Zn10 Zn9 2.800201 1_555
Zn10 Zn3 2.811197 1_555
Zn10 Zn2 2.811280 1_455
Zn11 Zn8 2.800191 1_555
Zn11 Zn6 2.800196 1_555
Zn11 Zn7 2.800250 1_555
Zn11 Zn9 2.800255 1_555
Zn11 Zn3 2.811172 1_545
Zn11 Zn2 2.811202 1_554
Si0 Zn10 2.733493 1_555
Si0 Zn4 2.733505 1_555
Si0 Zn9 2.733570 1_556
Si0 Zn7 2.733571 1_565
Si0 Zn1 2.733579 1_555
Si0 Zn3 2.733582 1_555
Si1 Zn8 2.733501 1_555
Si1 Zn2 2.733509 1_555
Si1 Zn11 2.733578 1_556
Si1 Zn1 2.733580 1_555
Si1 Zn7 2.733584 1_655
Si1 Zn5 2.733585 1_555
Si2 Zn6 2.733497 1_555
Si2 Zn0 2.733501 1_555
Si2 Zn3 2.733573 1_555
Si2 Zn11 2.733573 1_565
Si2 Zn5 2.733575 1_555
Si2 Zn9 2.733579 1_655
Si3 Zn4 2.733630 1_555
Si3 Zn6 2.733631 1_556
Si3 Zn8 2.733631 1_565
Si3 Zn2 2.733632 1_555
Si3 Zn0 2.733636 1_555
Si3 Zn10 2.733636 1_655
Ni0 Si2 2.311776 1_555
Ni0 Si1 2.311782 1_555
Ni0 Si3 2.311784 1_555
Ni0 Zn10 2.464348 1_655
Ni0 Zn9 2.464359 1_655
Ni0 Zn7 2.464363 1_655
Ni0 Ni3 2.585211 1_555
Ni0 Ni1 2.585253 1_555
Ni0 Ni2 2.585258 1_555
Ni0 Zn5 2.727312 1_555
Ni0 Zn0 2.727406 1_555
Ni0 Zn2 2.727415 1_555
Ni1 Si0 2.311782 1_555
Ni1 Si2 2.311785 1_555
Ni1 Si3 2.311787 1_555
Ni1 Zn8 2.464331 1_565
Ni1 Zn7 2.464336 1_565
Ni1 Zn11 2.464347 1_565
Ni1 Ni3 2.585214 1_555
Ni1 Ni2 2.585257 1_555
Ni1 Zn3 2.727306 1_555
Ni1 Zn4 2.727402 1_555
Ni1 Zn0 2.727407 1_555
Ni2 Si0 2.311781 1_555
Ni2 Si1 2.311786 1_555
Ni2 Si3 2.311787 1_555
Ni2 Zn6 2.464334 1_556
Ni2 Zn9 2.464338 1_556
Ni2 Zn11 2.464351 1_556
Ni2 Ni3 2.585216 1_555
Ni2 Zn1 2.727308 1_555
Ni2 Zn4 2.727400 1_555
Ni2 Zn2 2.727411 1_555
Ni3 Si0 2.311819 1_555
Ni3 Si2 2.311822 1_555
Ni3 Si1 2.311823 1_555
Ni3 Zn10 2.464229 1_555
Ni3 Zn6 2.464239 1_555
Ni3 Zn8 2.464241 1_555
Ni3 Zn3 2.727385 1_555
Ni3 Zn1 2.727390 1_555
Ni3 Zn5 2.727394 1_555
Ni4 Si2 2.311781 1_556
Ni4 Si3 2.311786 1_555
Ni4 Si1 2.311790 1_565
Ni4 Zn4 2.464328 1_555
Ni4 Zn3 2.464340 1_556
Ni4 Zn1 2.464352 1_565
Ni4 Ni7 2.585203 1_555
Ni4 Ni5 2.585245 1_555
Ni4 Ni6 2.585252 1_555
Ni4 Zn11 2.727305 1_566
Ni4 Zn6 2.727393 1_556
Ni4 Zn8 2.727405 1_565
Ni5 Si2 2.311780 1_556
Ni5 Si0 2.311783 1_655
Ni5 Si3 2.311784 1_555
Ni5 Zn2 2.464332 1_555
Ni5 Zn5 2.464346 1_556
Ni5 Zn1 2.464356 1_655
Ni5 Ni7 2.585198 1_555
Ni5 Ni6 2.585243 1_555
Ni5 Zn9 2.727304 1_656
Ni5 Zn6 2.727398 1_556
Ni5 Zn10 2.727403 1_655
Ni6 Si0 2.311780 1_655
Ni6 Si3 2.311782 1_555
Ni6 Si1 2.311783 1_565
Ni6 Zn0 2.464340 1_555
Ni6 Zn3 2.464362 1_655
Ni6 Zn5 2.464363 1_565
Ni6 Ni7 2.585200 1_555
Ni6 Zn7 2.727311 1_665
Ni6 Zn10 2.727400 1_655
Ni6 Zn8 2.727405 1_565
Ni7 Si2 2.311815 1_556
Ni7 Si1 2.311818 1_565
Ni7 Si0 2.311819 1_655
Ni7 Zn0 2.464244 1_556
Ni7 Zn2 2.464253 1_565
Ni7 Zn4 2.464256 1_655
Ni7 Zn9 2.727386 1_656
Ni7 Zn11 2.727386 1_566
Ni7 Zn7 2.727394 1_665
