# generated using pymatgen
data_Rb2Na2Al3(GeO4)3
_symmetry_space_group_name_H-M   'P 1'
_cell_length_a   5.38776000
_cell_length_b   8.50064800
_cell_length_c   15.82861300
_cell_angle_alpha   90.00000000
_cell_angle_beta   90.00000000
_cell_angle_gamma   90.00000000
_symmetry_Int_Tables_number   1
_chemical_formula_structural   Rb2Na2Al3(GeO4)3
_chemical_formula_sum   'Rb4 Na4 Al6 Ge6 O24'
_cell_volume   724.94178974
_cell_formula_units_Z   2
loop_
 _symmetry_equiv_pos_site_id
 _symmetry_equiv_pos_as_xyz
  1  'x, y, z'
loop_
 _atom_site_type_symbol
 _atom_site_label
 _atom_site_symmetry_multiplicity
 _atom_site_fract_x
 _atom_site_fract_y
 _atom_site_fract_z
 _atom_site_occupancy
  Rb  Rb0  1  0.80975800  0.32356500  0.74111700  1
  Rb  Rb1  1  0.30975800  0.67643500  0.75888300  1
  Rb  Rb2  1  0.30975800  0.67643500  0.24111700  1
  Rb  Rb3  1  0.80975800  0.32356500  0.25888300  1
  Na  Na0  1  0.79579500  0.18457600  0.00000000  1
  Na  Na1  1  0.29579500  0.81542400  0.50000000  1
  Na  Na2  1  0.29593600  0.82119200  0.00000000  1
  Na  Na3  1  0.79593600  0.17880800  0.50000000  1
  Al  Al0  1  0.33703700  0.39549600  0.00000000  1
  Al  Al1  1  0.83703700  0.60450400  0.50000000  1
  Al  Al2  1  0.82224800  0.89485700  0.85852300  1
  Al  Al3  1  0.32224800  0.10514300  0.64147700  1
  Al  Al4  1  0.32224800  0.10514300  0.35852300  1
  Al  Al5  1  0.82224800  0.89485700  0.14147700  1
  Ge  Ge0  1  0.83735700  0.60849300  0.00000000  1
  Ge  Ge1  1  0.33735700  0.39150700  0.50000000  1
  Ge  Ge2  1  0.82247200  0.88941300  0.64177300  1
  Ge  Ge3  1  0.32247200  0.11058700  0.85822700  1
  Ge  Ge4  1  0.32247200  0.11058700  0.14177300  1
  Ge  Ge5  1  0.82247200  0.88941300  0.35822700  1
  O  O0  1  0.93300300  0.71754900  0.58954900  1
  O  O1  1  0.43300300  0.28245100  0.91045100  1
  O  O2  1  0.43300300  0.28245100  0.08954900  1
  O  O3  1  0.93300300  0.71754900  0.41045100  1
  O  O4  1  0.51178700  0.94416700  0.88775000  1
  O  O5  1  0.01178700  0.05583300  0.61225000  1
  O  O6  1  0.01178700  0.05583300  0.38775000  1
  O  O7  1  0.51178700  0.94416700  0.11225000  1
  O  O8  1  0.51018400  0.57446000  0.00000000  1
  O  O9  1  0.01018400  0.42554000  0.50000000  1
  O  O10  1  0.84105800  0.84053600  0.75092400  1
  O  O11  1  0.34105800  0.15946400  0.74907600  1
  O  O12  1  0.34105800  0.15946400  0.25092400  1
  O  O13  1  0.84105800  0.84053600  0.24907600  1
  O  O14  1  0.50949100  0.93916700  0.61317900  1
  O  O15  1  0.00949100  0.06083300  0.88682100  1
  O  O16  1  0.00949100  0.06083300  0.11317900  1
  O  O17  1  0.50949100  0.93916700  0.38682100  1
  O  O18  1  0.01109300  0.43054300  0.00000000  1
  O  O19  1  0.51109300  0.56945700  0.50000000  1
  O  O20  1  0.93236100  0.72310700  0.91054600  1
  O  O21  1  0.43236100  0.27689300  0.58945400  1
  O  O22  1  0.43236100  0.27689300  0.41054600  1
  O  O23  1  0.93236100  0.72310700  0.08945400  1
loop_
_geom_bond_atom_site_label_1
_geom_bond_atom_site_label_2
_geom_bond_distance
_geom_bond_site_symmetry_2
Na0 O16 2.375169 1_655
Na0 O15 2.375169 1_654
Na0 O18 2.391091 1_655
Na0 O2 2.553812 1_555
Na0 O1 2.553812 1_554
Na1 O17 2.375169 1_555
Na1 O14 2.375169 1_555
Na1 O19 2.391091 1_555
Na1 O3 2.553812 1_455
Na1 O0 2.553812 1_455
Na2 O4 2.366883 1_554
Na2 O7 2.366883 1_555
Na2 O8 2.394046 1_555
Na2 O23 2.556790 1_455
Na2 O20 2.556790 1_454
Na3 O5 2.366883 1_655
Na3 O6 2.366883 1_655
Na3 O9 2.394046 1_655
Na3 O22 2.556790 1_555
Na3 O21 2.556790 1_555
Al0 O18 1.781200 1_555
Al0 O8 1.784556 1_555
Al0 O1 1.788825 1_554
Al0 O2 1.788825 1_555
Al1 O19 1.781200 1_555
Al1 O9 1.784556 1_655
Al1 O0 1.788825 1_555
Al1 O3 1.788825 1_555
Al2 O10 1.767538 1_555
Al2 O20 1.778087 1_555
Al2 O4 1.785388 1_555
Al2 O15 1.791368 1_665
Al3 O11 1.767538 1_555
Al3 O21 1.778087 1_555
Al3 O5 1.785388 1_555
Al3 O14 1.791368 1_545
Al4 O12 1.767538 1_555
Al4 O22 1.778087 1_555
Al4 O6 1.785388 1_555
Al4 O17 1.791368 1_545
Al5 O13 1.767538 1_555
Al5 O23 1.778087 1_555
Al5 O7 1.785388 1_555
Al5 O16 1.791368 1_665
Ge0 O18 1.778881 1_655
Ge0 O8 1.786312 1_555
Ge0 O23 1.793352 1_555
Ge0 O20 1.793352 1_554
Ge1 O19 1.778881 1_555
Ge1 O9 1.786312 1_555
Ge1 O22 1.793352 1_555
Ge1 O21 1.793352 1_555
Ge2 O10 1.779785 1_555
Ge2 O0 1.781109 1_555
Ge2 O14 1.796448 1_555
Ge2 O5 1.805563 1_665
Ge3 O11 1.779785 1_555
Ge3 O1 1.781109 1_555
Ge3 O15 1.796448 1_555
Ge3 O4 1.805563 1_545
Ge4 O12 1.779785 1_555
Ge4 O2 1.781109 1_555
Ge4 O16 1.796448 1_555
Ge4 O7 1.805563 1_545
Ge5 O13 1.779785 1_555
Ge5 O3 1.781109 1_555
Ge5 O17 1.796448 1_555
Ge5 O6 1.805563 1_665
O0 Rb1 3.380330 1_655
O1 Rb0 3.380330 1_555
O2 Rb3 3.380330 1_555
O3 Rb2 3.380330 1_655
O4 Rb1 3.244260 1_555
O5 Rb0 3.244260 1_455
O6 Rb3 3.244260 1_455
O7 Rb2 3.244260 1_555
O10 Rb1 2.887672 1_655
O10 Rb1 3.186817 1_555
O11 Rb0 2.887672 1_555
O11 Rb0 3.186817 1_455
O12 Rb3 2.887672 1_555
O12 Rb3 3.186817 1_455
O13 Rb2 2.887672 1_655
O13 Rb2 3.186817 1_555
O14 Rb1 3.386007 1_555
O15 Rb0 3.386007 1_455
O16 Rb3 3.386007 1_455
O17 Rb2 3.386007 1_555
O20 Rb1 3.170925 1_655
O21 Rb0 3.170925 1_555
O22 Rb3 3.170925 1_555
O23 Rb2 3.170925 1_655
