# generated using pymatgen
data_La4CI6N
_symmetry_space_group_name_H-M   'P 1'
_cell_length_a   14.32390400
_cell_length_b   14.32390400
_cell_length_c   9.81094900
_cell_angle_alpha   90.00000000
_cell_angle_beta   90.00000000
_cell_angle_gamma   90.00000000
_symmetry_Int_Tables_number   1
_chemical_formula_structural   La4CI6N
_chemical_formula_sum   'La16 C4 I24 N4'
_cell_volume   2012.95386545
_cell_formula_units_Z   4
loop_
 _symmetry_equiv_pos_site_id
 _symmetry_equiv_pos_as_xyz
  1  'x, y, z'
loop_
 _atom_site_type_symbol
 _atom_site_label
 _atom_site_symmetry_multiplicity
 _atom_site_fract_x
 _atom_site_fract_y
 _atom_site_fract_z
 _atom_site_occupancy
  La  La0  1  0.59009600  0.40990400  0.00000000  1
  La  La1  1  0.40990400  0.59009600  0.00000000  1
  La  La2  1  0.90990400  0.90990400  0.50000000  1
  La  La3  1  0.09009600  0.09009600  0.50000000  1
  La  La4  1  0.15230400  0.15230400  0.00000000  1
  La  La5  1  0.84769600  0.84769600  0.00000000  1
  La  La6  1  0.65230400  0.34769600  0.50000000  1
  La  La7  1  0.34769600  0.65230400  0.50000000  1
  La  La8  1  0.41139200  0.41139200  0.30513700  1
  La  La9  1  0.58860800  0.58860800  0.69486300  1
  La  La10  1  0.58860800  0.58860800  0.30513700  1
  La  La11  1  0.91139200  0.08860800  0.80513700  1
  La  La12  1  0.91139200  0.08860800  0.19486300  1
  La  La13  1  0.41139200  0.41139200  0.69486300  1
  La  La14  1  0.08860800  0.91139200  0.19486300  1
  La  La15  1  0.08860800  0.91139200  0.80513700  1
  C  C0  1  0.03514600  0.03514600  0.00000000  1
  C  C1  1  0.96485400  0.96485400  0.00000000  1
  C  C2  1  0.53514600  0.46485400  0.50000000  1
  C  C3  1  0.46485400  0.53514600  0.50000000  1
  I  I0  1  0.78049000  0.21951000  0.00000000  1
  I  I1  1  0.21951000  0.78049000  0.00000000  1
  I  I2  1  0.71951000  0.71951000  0.50000000  1
  I  I3  1  0.28049000  0.28049000  0.50000000  1
  I  I4  1  0.32712600  0.32712600  0.00000000  1
  I  I5  1  0.67287400  0.67287400  0.00000000  1
  I  I6  1  0.82712600  0.17287400  0.50000000  1
  I  I7  1  0.17287400  0.82712600  0.50000000  1
  I  I8  1  0.26297300  0.05033600  0.24963600  1
  I  I9  1  0.73702700  0.94966400  0.75036400  1
  I  I10  1  0.73702700  0.94966400  0.24963600  1
  I  I11  1  0.55033600  0.23702700  0.74963600  1
  I  I12  1  0.76297300  0.44966400  0.25036400  1
  I  I13  1  0.26297300  0.05033600  0.75036400  1
  I  I14  1  0.44966400  0.76297300  0.25036400  1
  I  I15  1  0.23702700  0.55033600  0.74963600  1
  I  I16  1  0.44966400  0.76297300  0.74963600  1
  I  I17  1  0.23702700  0.55033600  0.25036400  1
  I  I18  1  0.55033600  0.23702700  0.25036400  1
  I  I19  1  0.76297300  0.44966400  0.74963600  1
  I  I20  1  0.05033600  0.26297300  0.75036400  1
  I  I21  1  0.94966400  0.73702700  0.24963600  1
  I  I22  1  0.94966400  0.73702700  0.75036400  1
  I  I23  1  0.05033600  0.26297300  0.24963600  1
  N  N0  1  0.00000000  0.00000000  0.34958000  1
  N  N1  1  0.00000000  0.00000000  0.65042000  1
  N  N2  1  0.50000000  0.50000000  0.84958000  1
  N  N3  1  0.50000000  0.50000000  0.15042000  1
loop_
_geom_bond_atom_site_label_1
_geom_bond_atom_site_label_2
_geom_bond_distance
_geom_bond_site_symmetry_2
La0 N2 2.347082 1_554
La0 N3 2.347082 1_555
La1 N2 2.347082 1_554
La1 N3 2.347082 1_555
La2 N0 2.347082 1_665
La2 N1 2.347082 1_665
La3 N1 2.347082 1_555
La3 N0 2.347082 1_555
La8 N3 2.350720 1_555
La9 N2 2.350720 1_555
La10 N3 2.350720 1_555
La11 N1 2.350720 1_655
La12 N0 2.350720 1_655
La13 N2 2.350720 1_555
La14 N0 2.350720 1_565
La15 N1 2.350720 1_565
C0 C1 1.423909 1_445
C0 La4 2.373277 1_555
C0 La11 2.717283 1_454
C0 La12 2.717283 1_455
C0 La15 2.717283 1_544
C0 La14 2.717283 1_545
C1 La5 2.373277 1_555
C1 La14 2.717283 1_655
C1 La11 2.717283 1_564
C1 La12 2.717283 1_565
C1 La15 2.717283 1_654
C2 C3 1.423909 1_555
C2 La6 2.373277 1_555
C2 La8 2.717283 1_555
C2 La9 2.717283 1_555
C2 La13 2.717283 1_555
C2 La10 2.717283 1_555
C3 La7 2.373277 1_555
C3 La8 2.717283 1_555
C3 La9 2.717283 1_555
C3 La13 2.717283 1_555
C3 La10 2.717283 1_555
I0 La12 3.269006 1_555
I0 La11 3.269006 1_554
I0 La0 3.856823 1_555
I1 La15 3.269006 1_554
I1 La14 3.269006 1_555
I1 La1 3.856823 1_555
I2 La9 3.269006 1_555
I2 La10 3.269006 1_555
I2 La2 3.856823 1_555
I3 La8 3.269006 1_555
I3 La13 3.269006 1_555
I3 La3 3.856823 1_555
I4 La8 3.446147 1_555
I4 La13 3.446147 1_554
I4 La4 3.541380 1_555
I5 La9 3.446147 1_554
I5 La10 3.446147 1_555
I5 La5 3.541380 1_555
I6 La11 3.446147 1_555
I6 La12 3.446147 1_555
I6 La6 3.541380 1_555
I7 La14 3.446147 1_555
I7 La15 3.446147 1_555
I7 La7 3.541380 1_555
I8 La14 3.238471 1_545
I8 La4 3.262607 1_555
I8 La3 3.534082 1_555
I9 La11 3.238471 1_565
I9 La5 3.262607 1_556
I9 La2 3.534082 1_555
I10 La12 3.238471 1_565
I10 La5 3.262607 1_555
I10 La2 3.534082 1_555
I11 La13 3.238471 1_555
I11 La6 3.262607 1_555
I11 La0 3.534082 1_556
I12 La10 3.238471 1_555
I12 La6 3.262607 1_555
I12 La0 3.534082 1_555
I13 La15 3.238471 1_545
I13 La4 3.262607 1_556
I13 La3 3.534082 1_555
I14 La10 3.238471 1_555
I14 La7 3.262607 1_555
I14 La1 3.534082 1_555
I15 La13 3.238471 1_555
I15 La7 3.262607 1_555
I15 La1 3.534082 1_556
I16 La9 3.238471 1_555
I16 La7 3.262607 1_555
I16 La1 3.534082 1_556
I17 La8 3.238471 1_555
I17 La7 3.262607 1_555
I17 La1 3.534082 1_555
I18 La8 3.238471 1_555
I18 La6 3.262607 1_555
I18 La0 3.534082 1_555
I19 La9 3.238471 1_555
I19 La6 3.262607 1_555
I19 La0 3.534082 1_556
I20 La11 3.238471 1_455
I20 La4 3.262607 1_556
I20 La3 3.534082 1_555
I21 La14 3.238471 1_655
I21 La5 3.262607 1_555
I21 La2 3.534082 1_555
I22 La15 3.238471 1_655
I22 La5 3.262607 1_556
I22 La2 3.534082 1_555
I23 La12 3.238471 1_455
I23 La4 3.262607 1_555
I23 La3 3.534082 1_555
