# generated using pymatgen
data_AcCuO2F
_symmetry_space_group_name_H-M   'P 1'
_cell_length_a   5.71550823
_cell_length_b   5.71550823
_cell_length_c   5.71550823
_cell_angle_alpha   120.78542200
_cell_angle_beta   120.78542200
_cell_angle_gamma   88.64490874
_symmetry_Int_Tables_number   1
_chemical_formula_structural   AcCuO2F
_chemical_formula_sum   'Ac2 Cu2 O4 F2'
_cell_volume   130.41608768
_cell_formula_units_Z   2
loop_
 _symmetry_equiv_pos_site_id
 _symmetry_equiv_pos_as_xyz
  1  'x, y, z'
loop_
 _atom_site_type_symbol
 _atom_site_label
 _atom_site_symmetry_multiplicity
 _atom_site_fract_x
 _atom_site_fract_y
 _atom_site_fract_z
 _atom_site_occupancy
  Ac  Ac0  1  0.25000000  0.75000000  0.50000000  1
  Ac  Ac1  1  0.75000000  0.25000000  0.50000000  1
  Cu  Cu0  1  0.00000000  0.00000000  0.00000000  1
  Cu  Cu1  1  0.50000000  0.50000000  0.00000000  1
  O  O0  1  0.29540800  0.79540800  0.09081500  1
  O  O1  1  0.79540800  0.70459200  0.50000000  1
  O  O2  1  0.70459200  0.20459200  0.90918500  1
  O  O3  1  0.20459200  0.29540800  0.50000000  1
  F  F0  1  0.25000000  0.25000000  0.00000000  1
  F  F1  1  0.75000000  0.75000000  0.00000000  1
loop_
_geom_bond_atom_site_label_1
_geom_bond_atom_site_label_2
_geom_bond_distance
_geom_bond_site_symmetry_2
Ac0 O2 2.617253 1_565
Ac0 O3 2.617254 1_555
Ac0 O1 2.617254 1_455
Ac0 O0 2.617260 1_555
Ac0 F1 2.823761 1_455
Ac0 F0 2.823761 1_566
Ac0 F1 2.823761 1_556
Ac0 F0 2.823761 1_555
Ac0 O0 3.121941 1_556
Ac0 O2 3.121946 1_454
Ac0 O1 3.121947 1_555
Ac0 O3 3.121947 1_565
Ac1 O0 2.617253 1_545
Ac1 O3 2.617254 1_655
Ac1 O1 2.617254 1_555
Ac1 O2 2.617260 1_555
Ac1 F0 2.823761 1_656
Ac1 F1 2.823761 1_556
Ac1 F1 2.823761 1_545
Ac1 F0 2.823761 1_555
Ac1 O2 3.121941 1_554
Ac1 O0 3.121946 1_656
Ac1 O3 3.121947 1_555
Ac1 O1 3.121947 1_545
Cu0 O0 2.029368 1_545
Cu0 O2 2.029368 1_454
Cu0 O3 2.029369 1_555
Cu0 O1 2.029369 1_444
Cu0 F1 2.044491 1_445
Cu0 F0 2.044491 1_555
Cu1 O2 2.029368 1_554
Cu1 O0 2.029368 1_555
Cu1 O3 2.029369 1_554
Cu1 O1 2.029369 1_555
Cu1 F1 2.044491 1_555
Cu1 F0 2.044491 1_555
