# generated using pymatgen
data_Ca5Fe4(As3Pt)3
_symmetry_space_group_name_H-M   'P 1'
_cell_length_a   8.91064470
_cell_length_b   8.89077587
_cell_length_c   10.93509388
_cell_angle_alpha   99.29220230
_cell_angle_beta   109.15534246
_cell_angle_gamma   89.93449766
_symmetry_Int_Tables_number   1
_chemical_formula_structural   Ca5Fe4(As3Pt)3
_chemical_formula_sum   'Ca10 Fe8 As18 Pt6'
_cell_volume   806.35255792
_cell_formula_units_Z   2
loop_
 _symmetry_equiv_pos_site_id
 _symmetry_equiv_pos_as_xyz
  1  'x, y, z'
loop_
 _atom_site_type_symbol
 _atom_site_label
 _atom_site_symmetry_multiplicity
 _atom_site_fract_x
 _atom_site_fract_y
 _atom_site_fract_z
 _atom_site_occupancy
  Ca  Ca0  1  0.44864600  0.10869800  0.75111700  1
  Ca  Ca1  1  0.55135400  0.89130200  0.24888300  1
  Ca  Ca2  1  0.66332400  0.70005300  0.76852300  1
  Ca  Ca3  1  0.33667600  0.29994700  0.23147700  1
  Ca  Ca4  1  0.05700100  0.90565600  0.75085000  1
  Ca  Ca5  1  0.94299900  0.09434400  0.24915000  1
  Ca  Ca6  1  0.25360700  0.50443500  0.75633600  1
  Ca  Ca7  1  0.74639300  0.49556500  0.24366400  1
  Ca  Ca8  1  0.85611400  0.30092100  0.75171600  1
  Ca  Ca9  1  0.14388600  0.69907900  0.24828400  1
  Fe  Fe0  1  0.55637700  0.15239700  0.50307400  1
  Fe  Fe1  1  0.44362300  0.84760300  0.49692600  1
  Fe  Fe2  1  0.95047100  0.35391700  0.50165000  1
  Fe  Fe3  1  0.04952900  0.64608300  0.49835000  1
  Fe  Fe4  1  0.74413500  0.74911300  0.49815600  1
  Fe  Fe5  1  0.25586500  0.25088700  0.50184400  1
  Fe  Fe6  1  0.35014100  0.54420300  0.49889300  1
  Fe  Fe7  1  0.64985900  0.45579700  0.50110700  1
  As  As0  1  0.11312400  0.19963500  0.63735900  1
  As  As1  1  0.88687600  0.80036500  0.36264100  1
  As  As2  1  0.30929000  0.76009400  0.62946900  1
  As  As3  1  0.69071000  0.23990600  0.37053100  1
  As  As4  1  0.89913200  0.57827300  0.62473100  1
  As  As5  1  0.10086800  0.42172700  0.37526900  1
  As  As6  1  0.14773100  0.49452100  0.01609300  1
  As  As7  1  0.85226900  0.50547900  0.98390700  1
  As  As8  1  0.68666500  0.96667900  0.63026500  1
  As  As9  1  0.31333500  0.03332100  0.36973500  1
  As  As10  1  0.01820500  0.14460300  0.02023700  1
  As  As11  1  0.98179500  0.85539700  0.97976300  1
  As  As12  1  0.36612300  0.01327800  0.01862900  1
  As  As13  1  0.63387700  0.98672200  0.98137100  1
  As  As14  1  0.50453300  0.37768600  0.62671800  1
  As  As15  1  0.49546700  0.62231400  0.37328200  1
  As  As16  1  0.49687300  0.35959100  0.01223100  1
  As  As17  1  0.50312700  0.64040900  0.98776900  1
  Pt  Pt0  1  0.24864000  0.75198800  0.00096600  1
  Pt  Pt1  1  0.75136000  0.24801200  0.99903400  1
  Pt  Pt2  1  0.78074500  0.76617400  0.07538200  1
  Pt  Pt3  1  0.21925500  0.23382600  0.92461800  1
  Pt  Pt4  1  0.14972800  0.94948400  0.49840100  1
  Pt  Pt5  1  0.85027200  0.05051600  0.50159900  1
loop_
_geom_bond_atom_site_label_1
_geom_bond_atom_site_label_2
_geom_bond_distance
_geom_bond_site_symmetry_2
Ca0 Fe5 3.164498 1_555
Ca0 Pt1 3.206835 1_555
Ca0 Fe0 3.237180 1_555
Ca0 Pt4 3.263415 1_545
Ca0 Pt3 3.297481 1_555
Ca0 Fe1 3.309329 1_545
Ca1 Fe4 3.164498 1_555
Ca1 Pt0 3.206835 1_555
Ca1 Fe1 3.237180 1_555
Ca1 Pt5 3.263415 1_565
Ca1 Pt2 3.297481 1_555
Ca1 Fe0 3.309329 1_565
Ca2 Pt2 3.124138 1_556
Ca2 Fe7 3.316774 1_555
Ca2 Fe4 3.356170 1_555
Ca2 Fe6 3.419171 1_555
Ca2 Fe1 3.436662 1_555
Ca3 Pt3 3.124138 1_554
Ca3 Fe6 3.316774 1_555
Ca3 Fe5 3.356170 1_555
Ca3 Fe7 3.419171 1_555
Ca3 Fe0 3.436662 1_555
Ca4 Pt4 3.209392 1_555
Ca4 Pt5 3.211556 1_465
Ca4 Pt0 3.224808 1_556
Ca4 Pt3 3.260394 1_565
Ca4 Fe3 3.282688 1_555
Ca4 Fe4 3.325057 1_455
Ca5 Pt5 3.209392 1_555
Ca5 Pt4 3.211556 1_645
Ca5 Pt1 3.224808 1_554
Ca5 Pt2 3.260394 1_545
Ca5 Fe2 3.282688 1_555
Ca5 Fe5 3.325057 1_655
Ca6 Pt0 3.190317 1_556
Ca6 Fe3 3.259885 1_555
Ca6 Fe6 3.271294 1_555
Ca6 Fe2 3.272783 1_455
Ca6 Fe5 3.291996 1_555
Ca6 Pt3 3.327090 1_555
Ca7 Pt1 3.190317 1_554
Ca7 Fe2 3.259885 1_555
Ca7 Fe7 3.271294 1_555
Ca7 Fe3 3.272783 1_655
Ca7 Fe4 3.291996 1_555
Ca7 Pt2 3.327090 1_555
Ca8 Fe2 3.214373 1_555
Ca8 Fe0 3.217551 1_555
Ca8 Pt5 3.221809 1_555
Ca8 Pt1 3.236525 1_555
Ca8 Fe7 3.269754 1_555
Ca8 Pt3 3.278102 1_655
Ca9 Fe3 3.214373 1_555
Ca9 Fe1 3.217551 1_555
Ca9 Pt4 3.221809 1_555
Ca9 Pt0 3.236525 1_555
Ca9 Fe6 3.269754 1_555
Ca9 Pt2 3.278102 1_455
Fe0 Pt5 2.774238 1_555
Fe1 Pt4 2.774238 1_555
Fe2 Pt5 2.842217 1_555
Fe3 Pt4 2.842217 1_555
Fe4 Pt5 2.833113 1_565
Fe5 Pt4 2.833113 1_545
As0 Fe2 2.329308 1_455
As0 Fe5 2.340439 1_555
As0 Pt5 2.556760 1_455
As0 Pt4 2.567857 1_545
As0 Ca6 2.898904 1_555
As0 Pt3 2.932012 1_555
As0 Ca0 3.003013 1_555
As0 Ca8 3.021653 1_455
As0 Ca4 3.174822 1_545
As1 Fe3 2.329308 1_655
As1 Fe4 2.340439 1_555
As1 Pt4 2.556760 1_655
As1 Pt5 2.567857 1_565
As1 Ca7 2.898904 1_555
As1 Pt2 2.932012 1_555
As1 Ca1 3.003013 1_555
As1 Ca9 3.021653 1_655
As1 Ca5 3.174822 1_565
As2 Fe6 2.304334 1_555
As2 Fe1 2.375629 1_555
As2 Fe3 2.408085 1_555
As2 Pt4 2.519429 1_555
As2 Ca6 2.968165 1_555
As2 Ca2 3.107941 1_555
As2 Ca4 3.144390 1_555
As2 Ca0 3.242042 1_565
As3 Fe7 2.304334 1_555
As3 Fe0 2.375629 1_555
As3 Fe2 2.408085 1_555
As3 Pt5 2.519429 1_555
As3 Ca7 2.968165 1_555
As3 Ca3 3.107941 1_555
As3 Ca5 3.144390 1_555
As3 Ca1 3.242042 1_545
As4 Fe7 2.346584 1_555
As4 Fe2 2.352560 1_555
As4 Fe4 2.355827 1_555
As4 Fe3 2.357045 1_655
As4 Ca8 3.100469 1_555
As4 Ca2 3.110133 1_555
As4 Ca4 3.129343 1_655
As4 Ca6 3.129861 1_655
As5 Fe6 2.346584 1_555
As5 Fe3 2.352560 1_555
As5 Fe5 2.355827 1_555
As5 Fe2 2.357045 1_455
As5 Ca9 3.100469 1_555
As5 Ca3 3.110133 1_555
As5 Ca5 3.129343 1_455
As5 Ca7 3.129861 1_455
As6 Pt0 2.510049 1_555
As6 Pt3 2.538729 1_554
As6 As7 2.543061 1_454
As6 Ca9 2.884642 1_555
As6 Ca3 3.175087 1_555
As6 Ca6 3.287208 1_554
As6 Ca8 3.397936 1_454
As7 Pt1 2.510049 1_555
As7 Pt2 2.538729 1_556
As7 Ca8 2.884642 1_555
As7 Ca2 3.175087 1_555
As7 Ca7 3.287208 1_556
As7 Ca9 3.397936 1_656
As8 Fe1 2.317615 1_555
As8 Fe4 2.381518 1_555
As8 Fe0 2.384582 1_565
As8 Pt5 2.519468 1_565
As8 Ca0 3.022147 1_565
As8 Ca2 3.051750 1_555
As8 Ca4 3.208422 1_655
As8 Ca8 3.208455 1_565
As9 Fe0 2.317615 1_555
As9 Fe5 2.381518 1_555
As9 Fe1 2.384582 1_545
As9 Pt4 2.519468 1_545
As9 Ca1 3.022147 1_545
As9 Ca3 3.051750 1_555
As9 Ca5 3.208422 1_455
As9 Ca9 3.208455 1_545
As10 Pt1 2.500964 1_454
As10 Pt3 2.536212 1_554
As10 As11 2.540220 1_444
As10 Ca5 2.894381 1_455
As10 Ca3 3.158028 1_555
As10 Ca8 3.342088 1_454
As10 Ca4 3.457731 1_544
As11 Pt0 2.500964 1_656
As11 Pt2 2.536212 1_556
As11 Ca4 2.894381 1_655
As11 Ca2 3.158028 1_555
As11 Ca9 3.342088 1_656
As11 Ca5 3.457731 1_566
As12 Pt0 2.501564 1_545
As12 Pt3 2.525192 1_554
As12 As13 2.553357 1_544
As12 Ca1 2.896598 1_545
As12 Ca3 3.235062 1_555
As12 Ca4 3.299247 1_544
As12 Ca0 3.468736 1_554
As13 Pt1 2.501564 1_565
As13 Pt2 2.525192 1_556
As13 Ca0 2.896598 1_565
As13 Ca2 3.235062 1_555
As13 Ca5 3.299247 1_566
As13 Ca1 3.468736 1_556
As14 Fe6 2.332349 1_555
As14 Fe7 2.350163 1_555
As14 Fe5 2.359701 1_555
As14 Fe0 2.363614 1_555
As14 Ca0 3.052156 1_555
As14 Ca8 3.104002 1_555
As14 Ca2 3.123329 1_555
As14 Ca6 3.136303 1_555
As15 Fe7 2.332349 1_555
As15 Fe6 2.350163 1_555
As15 Fe4 2.359701 1_555
As15 Fe1 2.363614 1_555
As15 Ca1 3.052156 1_555
As15 Ca9 3.104002 1_555
As15 Ca3 3.123329 1_555
As15 Ca7 3.136303 1_555
As16 Pt1 2.512076 1_554
As16 Pt3 2.528366 1_554
As16 As17 2.556148 1_554
As16 Ca7 2.852199 1_555
As16 Ca0 3.233152 1_554
As16 Ca3 3.274895 1_555
As16 Ca6 3.371043 1_554
As17 Pt0 2.512076 1_556
As17 Pt2 2.528366 1_556
As17 Ca6 2.852199 1_555
As17 Ca1 3.233152 1_556
As17 Ca2 3.274895 1_555
As17 Ca7 3.371043 1_556
Pt4 Pt5 2.823786 1_465
