# generated using pymatgen
data_Mg6NbGa
_symmetry_space_group_name_H-M   'P 1'
_cell_length_a   4.96852100
_cell_length_b   5.95137900
_cell_length_c   10.99473900
_cell_angle_alpha   90.00000000
_cell_angle_beta   90.00000000
_cell_angle_gamma   90.00000000
_symmetry_Int_Tables_number   1
_chemical_formula_structural   Mg6NbGa
_chemical_formula_sum   'Mg12 Nb2 Ga2'
_cell_volume   325.10950153
_cell_formula_units_Z   2
loop_
 _symmetry_equiv_pos_site_id
 _symmetry_equiv_pos_as_xyz
  1  'x, y, z'
loop_
 _atom_site_type_symbol
 _atom_site_label
 _atom_site_symmetry_multiplicity
 _atom_site_fract_x
 _atom_site_fract_y
 _atom_site_fract_z
 _atom_site_occupancy
  Mg  Mg0  1  0.50000000  0.24905500  0.42180300  1
  Mg  Mg1  1  0.50000000  0.75094500  0.42180300  1
  Mg  Mg2  1  0.00000000  0.75777000  0.08275400  1
  Mg  Mg3  1  0.00000000  0.24223000  0.08275400  1
  Mg  Mg4  1  0.00000000  0.00000000  0.32494800  1
  Mg  Mg5  1  0.00000000  0.50000000  0.32493000  1
  Mg  Mg6  1  0.50000000  0.74905500  0.92180300  1
  Mg  Mg7  1  0.50000000  0.25094500  0.92180300  1
  Mg  Mg8  1  0.00000000  0.25777000  0.58275400  1
  Mg  Mg9  1  0.00000000  0.74223000  0.58275400  1
  Mg  Mg10  1  0.00000000  0.50000000  0.82494800  1
  Mg  Mg11  1  0.00000000  0.00000000  0.82493000  1
  Nb  Nb0  1  0.50000000  0.00000000  0.17306400  1
  Nb  Nb1  1  0.50000000  0.50000000  0.67306400  1
  Ga  Ga0  1  0.50000000  0.50000000  0.16794000  1
  Ga  Ga1  1  0.50000000  0.00000000  0.66794000  1
loop_
_geom_bond_atom_site_label_1
_geom_bond_atom_site_label_2
_geom_bond_distance
_geom_bond_site_symmetry_2
Mg0 Mg1 2.964441 1_545
Mg0 Mg1 2.986938 1_555
Mg0 Mg8 3.050537 1_655
Mg0 Mg8 3.050537 1_555
Mg0 Mg4 3.082618 1_655
Mg0 Mg4 3.082618 1_555
Mg0 Mg5 3.088110 1_655
Mg0 Mg5 3.088110 1_555
Mg0 Nb0 3.110662 1_555
Mg0 Nb1 3.140402 1_555
Mg1 Mg9 3.050537 1_555
Mg1 Mg9 3.050537 1_655
Mg1 Mg4 3.082618 1_565
Mg1 Mg4 3.082618 1_665
Mg1 Mg5 3.088110 1_655
Mg1 Mg5 3.088110 1_555
Mg1 Nb0 3.110662 1_565
Mg1 Nb1 3.140402 1_555
Mg2 Mg3 2.883205 1_565
Mg2 Mg4 3.028042 1_565
Mg2 Nb0 3.039027 1_465
Mg2 Nb0 3.039027 1_565
Mg2 Mg6 3.050537 1_454
Mg2 Mg6 3.050537 1_554
Mg2 Mg3 3.068174 1_555
Mg2 Mg5 3.072978 1_555
Mg3 Mg4 3.028042 1_555
Mg3 Nb0 3.039027 1_455
Mg3 Nb0 3.039027 1_555
Mg3 Mg7 3.050537 1_454
Mg3 Mg7 3.050537 1_554
Mg3 Mg5 3.072978 1_555
Mg4 Mg5 2.975690 1_545
Mg4 Mg5 2.975690 1_555
Mg4 Nb0 2.993359 1_455
Mg4 Nb0 2.993359 1_555
Mg4 Mg9 3.223022 1_545
Mg4 Mg8 3.223022 1_555
Mg5 Mg8 3.180218 1_555
Mg5 Mg9 3.180218 1_555
Mg6 Mg7 2.964441 1_555
Mg6 Mg7 2.986938 1_565
Mg6 Nb1 3.110662 1_555
Mg6 Nb0 3.140402 1_566
Mg7 Nb1 3.110662 1_555
Mg7 Nb0 3.140402 1_556
Mg8 Mg9 2.883205 1_555
Mg8 Nb1 3.039027 1_455
Mg8 Nb1 3.039027 1_555
Mg8 Mg9 3.068174 1_545
Mg9 Nb1 3.039027 1_455
Mg9 Nb1 3.039027 1_555
Mg10 Mg11 2.975690 1_555
Mg10 Mg11 2.975690 1_565
Mg10 Nb1 2.993359 1_455
Mg10 Nb1 2.993359 1_555
Mg10 Mg8 3.028042 1_555
Mg10 Mg9 3.028042 1_555
Mg10 Mg6 3.082618 1_455
Mg10 Mg6 3.082618 1_555
Mg10 Mg7 3.082618 1_455
Mg10 Mg7 3.082618 1_555
Mg10 Mg3 3.223022 1_556
Mg10 Mg2 3.223022 1_556
Mg11 Mg9 3.072978 1_545
Mg11 Mg8 3.072978 1_555
Mg11 Mg7 3.088110 1_455
Mg11 Mg7 3.088110 1_555
Mg11 Mg6 3.088110 1_545
Mg11 Mg6 3.088110 1_445
Mg11 Mg3 3.180218 1_556
Mg11 Mg2 3.180218 1_546
Ga0 Nb0 2.976223 1_555
Ga0 Nb0 2.976223 1_565
Ga0 Mg5 3.025037 1_655
Ga0 Mg5 3.025037 1_555
Ga0 Mg3 3.066299 1_555
Ga0 Mg3 3.066299 1_655
Ga0 Mg2 3.066299 1_555
Ga0 Mg2 3.066299 1_655
Ga0 Mg6 3.085541 1_554
Ga0 Mg7 3.085541 1_554
Ga0 Mg0 3.165598 1_555
Ga0 Mg1 3.165598 1_555
Ga1 Nb1 2.976223 1_545
Ga1 Nb1 2.976223 1_555
Ga1 Mg11 3.025037 1_655
Ga1 Mg11 3.025037 1_555
Ga1 Mg8 3.066299 1_555
Ga1 Mg9 3.066299 1_645
Ga1 Mg8 3.066299 1_655
Ga1 Mg9 3.066299 1_545
Ga1 Mg0 3.085541 1_555
Ga1 Mg1 3.085541 1_545
Ga1 Mg7 3.165598 1_555
Ga1 Mg6 3.165598 1_545
