# generated using pymatgen
data_Na3Ca
_symmetry_space_group_name_H-M   'P 1'
_cell_length_a   5.35462600
_cell_length_b   5.35462600
_cell_length_c   5.35462600
_cell_angle_alpha   90.00000000
_cell_angle_beta   90.00000000
_cell_angle_gamma   90.00000000
_symmetry_Int_Tables_number   1
_chemical_formula_structural   Na3Ca
_chemical_formula_sum   'Na3 Ca1'
_cell_volume   153.52794162
_cell_formula_units_Z   1
loop_
 _symmetry_equiv_pos_site_id
 _symmetry_equiv_pos_as_xyz
  1  'x, y, z'
loop_
 _atom_site_type_symbol
 _atom_site_label
 _atom_site_symmetry_multiplicity
 _atom_site_fract_x
 _atom_site_fract_y
 _atom_site_fract_z
 _atom_site_occupancy
  Na  Na0  1  0.00000000  0.50000000  0.50000000  1
  Na  Na1  1  0.50000000  0.00000000  0.50000000  1
  Na  Na2  1  0.50000000  0.50000000  0.00000000  1
  Ca  Ca0  1  0.00000000  0.00000000  0.00000000  1
loop_
_geom_bond_atom_site_label_1
_geom_bond_atom_site_label_2
_geom_bond_distance
_geom_bond_site_symmetry_2
Na0 Na2 3.786292 1_456
Na0 Na1 3.786292 1_555
Na0 Na1 3.786292 1_465
Na0 Na1 3.786292 1_565
Na0 Na2 3.786292 1_455
Na0 Na2 3.786292 1_556
Na0 Na2 3.786292 1_555
Na0 Na1 3.786292 1_455
Na1 Na2 3.786292 1_545
Na1 Na2 3.786292 1_546
Na1 Na2 3.786292 1_556
Na1 Na2 3.786292 1_555
Ca0 Na0 3.786292 1_555
Ca0 Na2 3.786292 1_545
Ca0 Na0 3.786292 1_554
Ca0 Na1 3.786292 1_555
Ca0 Na1 3.786292 1_454
Ca0 Na1 3.786292 1_554
Ca0 Na0 3.786292 1_545
Ca0 Na0 3.786292 1_544
Ca0 Na2 3.786292 1_455
Ca0 Na2 3.786292 1_555
Ca0 Na2 3.786292 1_445
Ca0 Na1 3.786292 1_455
