# generated using pymatgen
data_YbPrO2
_symmetry_space_group_name_H-M   'P 1'
_cell_length_a   6.14296785
_cell_length_b   6.14296785
_cell_length_c   6.14296871
_cell_angle_alpha   32.57321095
_cell_angle_beta   32.57321095
_cell_angle_gamma   32.57320799
_symmetry_Int_Tables_number   1
_chemical_formula_structural   YbPrO2
_chemical_formula_sum   'Yb1 Pr1 O2'
_cell_volume   59.75263108
_cell_formula_units_Z   1
loop_
 _symmetry_equiv_pos_site_id
 _symmetry_equiv_pos_as_xyz
  1  'x, y, z'
loop_
 _atom_site_type_symbol
 _atom_site_label
 _atom_site_symmetry_multiplicity
 _atom_site_fract_x
 _atom_site_fract_y
 _atom_site_fract_z
 _atom_site_occupancy
  Yb  Yb0  1  0.00000000  0.00000000  0.00000000  1
  Pr  Pr0  1  0.50000000  0.50000000  0.50000000  1
  O  O0  1  0.25781700  0.25781700  0.25781700  1
  O  O1  1  0.74218300  0.74218300  0.74218300  1
loop_
_geom_bond_atom_site_label_1
_geom_bond_atom_site_label_2
_geom_bond_distance
_geom_bond_site_symmetry_2
O0 Yb0 2.385546 1_655
O0 Yb0 2.385546 1_565
O0 Yb0 2.385547 1_556
O0 Pr0 2.546170 1_545
O0 Pr0 2.546170 1_455
O0 Pr0 2.546170 1_554
O1 Yb0 2.385546 1_566
O1 Yb0 2.385546 1_656
O1 Yb0 2.385547 1_665
O1 Pr0 2.546170 1_655
O1 Pr0 2.546170 1_565
O1 Pr0 2.546170 1_556
