# generated using pymatgen
data_Li9Mn2Co5O16
_symmetry_space_group_name_H-M   'P 1'
_cell_length_a   5.90638100
_cell_length_b   6.53408332
_cell_length_c   7.77198480
_cell_angle_alpha   86.52775199
_cell_angle_beta   80.74713013
_cell_angle_gamma   76.88464505
_symmetry_Int_Tables_number   1
_chemical_formula_structural   Li9Mn2Co5O16
_chemical_formula_sum   'Li9 Mn2 Co5 O16'
_cell_volume   288.22716694
_cell_formula_units_Z   1
loop_
 _symmetry_equiv_pos_site_id
 _symmetry_equiv_pos_as_xyz
  1  'x, y, z'
loop_
 _atom_site_type_symbol
 _atom_site_label
 _atom_site_symmetry_multiplicity
 _atom_site_fract_x
 _atom_site_fract_y
 _atom_site_fract_z
 _atom_site_occupancy
  Li  Li0  1  0.92831300  0.88580200  0.37358700  1
  Li  Li1  1  0.68552600  0.37262800  0.88342400  1
  Li  Li2  1  0.57234100  0.12669700  0.61157200  1
  Li  Li3  1  0.32742300  0.61326800  0.12628300  1
  Li  Li4  1  0.17939100  0.37210900  0.88188900  1
  Li  Li5  1  0.80390200  0.62276500  0.12705300  1
  Li  Li6  1  0.43912600  0.87730800  0.37365800  1
  Li  Li7  1  0.06068000  0.13059100  0.62370300  1
  Li  Li8  1  0.62582600  0.25187700  0.24874700  1
  Mn  Mn0  1  0.99821600  0.99724200  0.00413000  1
  Mn  Mn1  1  0.74712000  0.50029500  0.49510500  1
  Co  Co0  1  0.49697400  0.01406300  0.00781200  1
  Co  Co1  1  0.25714600  0.49871300  0.49323400  1
  Co  Co2  1  0.37657800  0.75157500  0.75238000  1
  Co  Co3  1  0.11912000  0.24799900  0.25530900  1
  Co  Co4  1  0.87597200  0.74540200  0.74938000  1
  O  O0  1  0.20957900  0.94167200  0.17807900  1
  O  O1  1  0.94954800  0.45758100  0.68256800  1
  O  O2  1  0.84335700  0.21035100  0.43881600  1
  O  O3  1  0.58338100  0.70153000  0.92724400  1
  O  O4  1  0.48324000  0.44664500  0.66094200  1
  O  O5  1  0.09300000  0.70270600  0.93450000  1
  O  O6  1  0.74013000  0.93981500  0.16634600  1
  O  O7  1  0.32389000  0.21032300  0.43307600  1
  O  O8  1  0.65915600  0.79977200  0.56566400  1
  O  O9  1  0.40486600  0.29646000  0.05913500  1
  O  O10  1  0.25889800  0.04968900  0.82788200  1
  O  O11  1  0.01995400  0.55271900  0.33561900  1
  O  O12  1  0.92573600  0.28871400  0.06658300  1
  O  O13  1  0.54614600  0.56236900  0.32334100  1
  O  O14  1  0.17025700  0.78710500  0.57016100  1
  O  O15  1  0.79520500  0.04421500  0.82278000  1
loop_
_geom_bond_atom_site_label_1
_geom_bond_atom_site_label_2
_geom_bond_distance
_geom_bond_site_symmetry_2
Li0 O6 2.069553 1_555
Li0 O2 2.138076 1_565
Li0 O0 2.144335 1_655
Li0 O11 2.146753 1_655
Li0 O8 2.147675 1_555
Li0 O14 2.226334 1_655
Li1 O9 2.103480 1_556
Li1 O3 2.129003 1_555
Li1 O12 2.131156 1_556
Li1 O15 2.154077 1_555
Li1 O1 2.163749 1_555
Li1 O4 2.225334 1_555
Li2 O2 2.069020 1_555
Li2 O4 2.080285 1_555
Li2 O8 2.118911 1_545
Li2 O7 2.139026 1_555
Li2 O15 2.232363 1_555
Li2 O10 2.413762 1_555
Li3 O9 2.095487 1_555
Li3 O13 2.122424 1_555
Li3 O3 2.132281 1_554
Li3 O0 2.141907 1_555
Li3 O5 2.161310 1_554
Li3 O11 2.323664 1_555
Li4 O9 2.030826 1_556
Li4 O12 2.046003 1_456
Li4 O10 2.104691 1_555
Li4 O5 2.152550 1_555
Li4 O1 2.186781 1_455
Li4 O4 2.389776 1_555
Li5 O6 2.052391 1_555
Li5 O13 2.062425 1_555
Li5 O3 2.149952 1_554
Li5 O11 2.185336 1_655
Li5 O12 2.192176 1_555
Li5 O5 2.217289 1_654
Li6 O13 2.053009 1_555
Li6 O8 2.098981 1_555
Li6 O0 2.156871 1_555
Li6 O14 2.176572 1_555
Li6 O7 2.181692 1_565
Li6 O6 2.291774 1_555
Li7 O2 2.045203 1_455
Li7 O10 2.093621 1_555
Li7 O7 2.101577 1_555
Li7 O1 2.142545 1_455
Li7 O15 2.164882 1_455
Li7 O14 2.235291 1_545
Li8 O13 2.072429 1_555
Li8 O2 2.076087 1_555
Li8 O9 2.086553 1_555
Li8 O6 2.101906 1_545
Li8 O12 2.132106 1_555
Li8 O7 2.158111 1_555
Mn0 O6 1.907400 1_555
Mn0 O12 1.929025 1_565
Mn0 O0 1.948231 1_655
Mn0 O15 1.960245 1_564
Mn0 O5 1.962098 1_654
Mn0 O10 1.966920 1_664
Mn1 O13 1.892389 1_555
Mn1 O2 1.906671 1_555
Mn1 O4 1.939197 1_555
Mn1 O11 1.951229 1_655
Mn1 O8 1.994173 1_555
Mn1 O1 1.997403 1_555
Co0 O9 1.850313 1_555
Co0 O6 1.999133 1_545
Co0 O3 2.098080 1_544
Co0 O0 2.102968 1_545
Co0 O10 2.105098 1_554
Co0 O15 2.125601 1_554
Co1 O7 1.906610 1_555
Co1 O14 1.941810 1_555
Co1 O11 1.965431 1_555
Co1 O4 1.974283 1_555
Co1 O13 2.088302 1_555
Co1 O1 2.202780 1_455
Co2 O3 1.935101 1_555
Co2 O14 1.982754 1_555
Co2 O10 2.003652 1_565
Co2 O4 2.080773 1_555
Co2 O5 2.082390 1_555
Co2 O8 2.096410 1_555
Co3 O7 1.947623 1_555
Co3 O12 1.969879 1_455
Co3 O2 2.034643 1_455
Co3 O11 2.049564 1_555
Co3 O0 2.051603 1_545
Co3 O9 2.151702 1_555
Co4 O1 1.915761 1_555
Co4 O15 1.997458 1_565
Co4 O8 2.031001 1_555
Co4 O5 2.042827 1_655
Co4 O3 2.094799 1_555
Co4 O14 2.103802 1_655
