# generated using pymatgen
data_Dy2Si3Ni
_symmetry_space_group_name_H-M   'P 1'
_cell_length_a   4.01129220
_cell_length_b   4.01129220
_cell_length_c   7.97584400
_cell_angle_alpha   90.00000000
_cell_angle_beta   90.00000000
_cell_angle_gamma   120.00000323
_symmetry_Int_Tables_number   1
_chemical_formula_structural   Dy2Si3Ni
_chemical_formula_sum   'Dy2 Si3 Ni1'
_cell_volume   111.14140067
_cell_formula_units_Z   1
loop_
 _symmetry_equiv_pos_site_id
 _symmetry_equiv_pos_as_xyz
  1  'x, y, z'
loop_
 _atom_site_type_symbol
 _atom_site_label
 _atom_site_symmetry_multiplicity
 _atom_site_fract_x
 _atom_site_fract_y
 _atom_site_fract_z
 _atom_site_occupancy
  Dy  Dy0  1  0.33333300  0.66666700  0.23828200  1
  Dy  Dy1  1  0.33333300  0.66666700  0.76171800  1
  Si  Si0  1  0.66666700  0.33333300  0.50000000  1
  Si  Si1  1  0.00000000  0.00000000  0.00000000  1
  Si  Si2  1  0.00000000  0.00000000  0.50000000  1
  Ni  Ni0  1  0.66666700  0.33333300  0.00000000  1
loop_
_geom_bond_atom_site_label_1
_geom_bond_atom_site_label_2
_geom_bond_distance
_geom_bond_site_symmetry_2
Dy0 Ni0 2.995893 1_455
Dy0 Ni0 2.995893 1_565
Dy0 Si1 2.995894 1_565
Dy0 Si1 2.995896 1_555
Dy0 Si1 2.995896 1_665
Dy0 Ni0 2.995899 1_555
Dy0 Si0 3.117821 1_455
Dy0 Si0 3.117821 1_565
Dy0 Si2 3.117821 1_565
Dy0 Si2 3.117824 1_555
Dy0 Si2 3.117824 1_665
Dy0 Si0 3.117826 1_555
Dy1 Ni0 2.995893 1_456
Dy1 Ni0 2.995893 1_566
Dy1 Si1 2.995894 1_566
Dy1 Si1 2.995896 1_556
Dy1 Si1 2.995896 1_666
Dy1 Ni0 2.995899 1_556
Dy1 Si0 3.117821 1_455
Dy1 Si0 3.117821 1_565
Dy1 Si2 3.117821 1_565
Dy1 Si2 3.117824 1_555
Dy1 Si2 3.117824 1_665
Dy1 Si0 3.117826 1_555
Si0 Si2 2.315918 1_655
Si0 Si2 2.315922 1_555
Si0 Si2 2.315922 1_665
Ni0 Si1 2.315918 1_655
Ni0 Si1 2.315922 1_665
Ni0 Si1 2.315922 1_555
