# generated using pymatgen
data_MgSi2
_symmetry_space_group_name_H-M   'P 1'
_cell_length_a   5.22192512
_cell_length_b   5.22192512
_cell_length_c   5.22192512
_cell_angle_alpha   127.50353358
_cell_angle_beta   116.34710521
_cell_angle_gamma   86.98379280
_symmetry_Int_Tables_number   1
_chemical_formula_structural   MgSi2
_chemical_formula_sum   'Mg2 Si4'
_cell_volume   96.37145483
_cell_formula_units_Z   2
loop_
 _symmetry_equiv_pos_site_id
 _symmetry_equiv_pos_as_xyz
  1  'x, y, z'
loop_
 _atom_site_type_symbol
 _atom_site_label
 _atom_site_symmetry_multiplicity
 _atom_site_fract_x
 _atom_site_fract_y
 _atom_site_fract_z
 _atom_site_occupancy
  Mg  Mg0  1  0.75362200  0.00362200  0.75000000  1
  Mg  Mg1  1  0.24637800  0.99637800  0.25000000  1
  Si  Si0  1  0.17251800  0.66697500  0.50554400  1
  Si  Si1  1  0.66143100  0.66697500  0.99445600  1
  Si  Si2  1  0.33856900  0.33302500  0.00554400  1
  Si  Si3  1  0.82748200  0.33302500  0.49445600  1
loop_
_geom_bond_atom_site_label_1
_geom_bond_atom_site_label_2
_geom_bond_distance
_geom_bond_site_symmetry_2
Mg0 Mg1 2.754319 1_545
Mg0 Mg1 2.754319 1_646
Mg0 Si2 2.865278 1_656
Mg0 Si3 2.865280 1_555
Mg0 Si1 2.884203 1_545
Mg0 Si0 2.884208 1_545
Mg0 Si3 2.969336 1_556
Mg0 Si2 2.969338 1_545
Mg0 Si2 2.969338 1_556
Mg0 Si3 2.969339 1_545
Mg0 Si0 2.974261 1_645
Mg0 Si0 2.974265 1_656
Mg0 Si1 2.974266 1_555
Mg0 Si1 2.974266 1_544
Mg1 Si1 2.865278 1_454
Mg1 Si0 2.865280 1_555
Mg1 Si2 2.884203 1_565
Mg1 Si3 2.884208 1_565
Mg1 Si0 2.969336 1_554
Mg1 Si1 2.969338 1_565
Mg1 Si1 2.969338 1_554
Mg1 Si0 2.969339 1_565
Mg1 Si3 2.974261 1_465
Mg1 Si3 2.974265 1_454
Mg1 Si2 2.974266 1_555
Mg1 Si2 2.974266 1_566
Si0 Si3 2.530974 1_455
Si0 Si2 2.629910 1_566
Si0 Si2 2.629914 1_555
Si0 Si1 2.692707 1_555
Si0 Si1 2.814837 1_454
Si1 Si2 2.530982 1_556
Si1 Si3 2.629910 1_566
Si1 Si3 2.629914 1_555
Si2 Si3 2.692707 1_555
Si2 Si3 2.814837 1_454
