# generated using pymatgen
data_TiMn(Ni2Sn)2
_symmetry_space_group_name_H-M   'P 1'
_cell_length_a   7.42571642
_cell_length_b   7.42571642
_cell_length_c   7.42571662
_cell_angle_alpha   33.73206438
_cell_angle_beta   33.73206438
_cell_angle_gamma   33.73205701
_symmetry_Int_Tables_number   1
_chemical_formula_structural   TiMn(Ni2Sn)2
_chemical_formula_sum   'Ti1 Mn1 Ni4 Sn2'
_cell_volume   112.50036810
_cell_formula_units_Z   1
loop_
 _symmetry_equiv_pos_site_id
 _symmetry_equiv_pos_as_xyz
  1  'x, y, z'
loop_
 _atom_site_type_symbol
 _atom_site_label
 _atom_site_symmetry_multiplicity
 _atom_site_fract_x
 _atom_site_fract_y
 _atom_site_fract_z
 _atom_site_occupancy
  Ti  Ti0  1  0.50000000  0.50000000  0.50000000  1
  Mn  Mn0  1  0.00000000  0.00000000  0.00000000  1
  Ni  Ni0  1  0.62296500  0.62296500  0.62296500  1
  Ni  Ni1  1  0.12700000  0.12700000  0.12700000  1
  Ni  Ni2  1  0.87300000  0.87300000  0.87300000  1
  Ni  Ni3  1  0.37703500  0.37703500  0.37703500  1
  Sn  Sn0  1  0.25170200  0.25170200  0.25170200  1
  Sn  Sn1  1  0.74829800  0.74829800  0.74829800  1
loop_
_geom_bond_atom_site_label_1
_geom_bond_atom_site_label_2
_geom_bond_distance
_geom_bond_site_symmetry_2
Mn0 Ni0 2.651480 1_544
Mn0 Ni3 2.651480 1_455
Mn0 Ni3 2.651480 1_545
Mn0 Ni0 2.651480 1_454
Mn0 Ni3 2.651480 1_554
Mn0 Ni0 2.651480 1_445
Mn0 Ni1 2.665703 1_555
Mn0 Ni2 2.665703 1_444
Ni0 Ti0 2.581009 1_555
Ni0 Sn0 2.612041 1_655
Ni0 Sn0 2.612041 1_565
Ni0 Sn0 2.612041 1_556
Ni0 Sn1 2.630713 1_555
Ni1 Sn0 2.617468 1_555
Ni1 Ti0 2.623383 1_455
Ni1 Ti0 2.623383 1_545
Ni1 Ti0 2.623384 1_554
Ni1 Sn1 2.663787 1_544
Ni1 Sn1 2.663787 1_454
Ni1 Sn1 2.663787 1_445
Ni2 Sn1 2.617468 1_555
Ni2 Ti0 2.623383 1_655
Ni2 Ti0 2.623383 1_565
Ni2 Ti0 2.623384 1_556
Ni2 Sn0 2.663787 1_566
Ni2 Sn0 2.663787 1_656
Ni2 Sn0 2.663787 1_665
Ni3 Ti0 2.581009 1_555
Ni3 Sn1 2.612041 1_545
Ni3 Sn1 2.612041 1_455
Ni3 Sn1 2.612041 1_554
Ni3 Sn0 2.630713 1_555
