# generated using pymatgen
data_Tm3Ni13B2
_symmetry_space_group_name_H-M   'P 1'
_cell_length_a   4.92048521
_cell_length_b   4.92092078
_cell_length_c   10.93280100
_cell_angle_alpha   90.00226765
_cell_angle_beta   89.99891290
_cell_angle_gamma   120.01642934
_symmetry_Int_Tables_number   1
_chemical_formula_structural   Tm3Ni13B2
_chemical_formula_sum   'Tm3 Ni13 B2'
_cell_volume   229.21575053
_cell_formula_units_Z   1
loop_
 _symmetry_equiv_pos_site_id
 _symmetry_equiv_pos_as_xyz
  1  'x, y, z'
loop_
 _atom_site_type_symbol
 _atom_site_label
 _atom_site_symmetry_multiplicity
 _atom_site_fract_x
 _atom_site_fract_y
 _atom_site_fract_z
 _atom_site_occupancy
  Tm  Tm0  1  0.99999000  0.00000200  0.99996500  1
  Tm  Tm1  1  0.99998000  0.00000100  0.32620200  1
  Tm  Tm2  1  0.00001900  0.00000000  0.67383800  1
  Ni  Ni0  1  0.50000800  0.00002000  0.50001500  1
  Ni  Ni1  1  0.50001000  0.49999000  0.50001600  1
  Ni  Ni2  1  0.99997700  0.49998700  0.50001400  1
  Ni  Ni3  1  0.33333300  0.66674500  0.31977200  1
  Ni  Ni4  1  0.66663000  0.33325300  0.31975600  1
  Ni  Ni5  1  0.66667000  0.33325900  0.68030900  1
  Ni  Ni6  1  0.33336300  0.66674000  0.68026000  1
  Ni  Ni7  1  0.49998600  0.00001300  0.13386500  1
  Ni  Ni8  1  0.49999700  0.49998800  0.13387100  1
  Ni  Ni9  1  0.99996500  0.49998900  0.13387100  1
  Ni  Ni10  1  0.49999900  0.00000600  0.86609500  1
  Ni  Ni11  1  0.49999200  0.50000000  0.86609600  1
  Ni  Ni12  1  0.99999900  0.50000500  0.86609900  1
  B  B0  1  0.33331900  0.66668900  0.99997200  1
  B  B1  1  0.66666200  0.33331300  0.99998200  1
loop_
_geom_bond_atom_site_label_1
_geom_bond_atom_site_label_2
_geom_bond_distance
_geom_bond_site_symmetry_2
Ni0 Ni3 2.428888 1_545
Ni0 Ni6 2.428998 1_545
Ni0 Ni4 2.429005 1_555
Ni0 Ni5 2.429251 1_555
Ni0 Ni2 2.459583 1_555
Ni0 Ni2 2.459898 1_445
Ni0 Ni1 2.460308 1_555
Ni0 Ni1 2.460613 1_545
Ni0 Tm1 3.108564 1_555
Ni0 Tm2 3.108621 1_555
Ni0 Tm1 3.108765 1_455
Ni0 Tm2 3.108841 1_655
Ni1 Ni6 2.429371 1_555
Ni1 Ni4 2.429414 1_555
Ni1 Ni3 2.429537 1_555
Ni1 Ni5 2.429869 1_555
Ni1 Ni2 2.460088 1_555
Ni1 Ni2 2.460398 1_455
Ni1 Tm1 3.108268 1_565
Ni1 Tm1 3.108279 1_455
Ni1 Tm2 3.108321 1_555
Ni1 Tm2 3.108333 1_665
Ni2 Ni3 2.429048 1_655
Ni2 Ni6 2.429156 1_655
Ni2 Ni4 2.429166 1_555
Ni2 Ni5 2.429397 1_555
Ni2 Tm1 3.108722 1_555
Ni2 Tm2 3.108819 1_665
Ni2 Tm1 3.108938 1_565
Ni2 Tm2 3.109001 1_655
Ni3 Ni7 2.479453 1_565
Ni3 Ni9 2.479530 1_455
Ni3 Ni8 2.479859 1_555
Ni3 Ni4 2.839949 1_565
Ni3 Ni4 2.840528 1_455
Ni3 Tm1 2.841159 1_565
Ni3 Ni4 2.841726 1_555
Ni3 Tm1 2.841826 1_465
Ni3 Tm1 2.841826 1_455
Ni4 Ni7 2.479161 1_555
Ni4 Ni9 2.479308 1_555
Ni4 Ni8 2.479665 1_555
Ni4 Tm1 2.841176 1_455
Ni4 Tm1 2.841805 1_555
Ni4 Tm1 2.841843 1_565
Ni5 Ni6 2.839995 1_545
Ni5 Ni6 2.840485 1_655
Ni5 Tm2 2.841187 1_555
Ni5 Ni6 2.841722 1_555
Ni5 Tm2 2.841825 1_665
Ni5 Tm2 2.841833 1_655
Ni6 Tm2 2.841195 1_665
Ni6 Tm2 2.841802 1_555
Ni6 Tm2 2.841807 1_565
Ni7 Tm0 2.862815 1_454
Ni7 Tm0 2.862848 1_554
Ni7 Tm1 3.236401 1_455
Ni7 Tm1 3.236461 1_555
Ni8 Tm0 2.862393 1_454
Ni8 Tm0 2.862474 1_564
Ni8 Tm1 3.235966 1_565
Ni8 Tm1 3.236047 1_455
Ni9 Tm0 2.863000 1_554
Ni9 Tm0 2.863104 1_564
Ni9 Tm1 3.236508 1_565
Ni9 Tm1 3.236601 1_555
Ni10 Ni5 2.478332 1_555
Ni10 Ni6 2.478722 1_545
Ni10 Tm0 2.862658 1_555
Ni10 Tm0 2.862669 1_455
Ni10 Tm2 3.235807 1_555
Ni10 Tm2 3.235919 1_655
Ni11 Ni5 2.478833 1_555
Ni11 Ni6 2.479229 1_555
Ni11 Tm0 2.862201 1_565
Ni11 Tm0 2.862252 1_455
Ni11 Tm2 3.235405 1_555
Ni11 Tm2 3.235572 1_665
Ni12 Ni5 2.478440 1_555
Ni12 Ni6 2.478967 1_655
Ni12 Tm0 2.862785 1_565
Ni12 Tm0 2.862872 1_555
Ni12 Tm2 3.236050 1_655
Ni12 Tm2 3.236064 1_665
B0 Ni12 2.039340 1_455
B0 Ni10 2.039487 1_565
B0 Ni7 2.039562 1_566
B0 Ni9 2.039647 1_456
B0 Ni11 2.039745 1_555
B0 Ni8 2.040044 1_556
B0 Tm0 2.840392 1_565
B0 Tm0 2.840711 1_455
B0 Tm0 2.841099 1_465
B1 Ni9 2.039416 1_556
B1 Ni10 2.039465 1_555
B1 Ni12 2.039471 1_555
B1 Ni7 2.039484 1_556
B1 Ni8 2.039781 1_556
B1 Ni11 2.039877 1_555
B1 Tm0 2.840396 1_455
B1 Tm0 2.840720 1_565
B1 Tm0 2.841086 1_555
