# generated using pymatgen
data_Li3V(Si2O5)3
_symmetry_space_group_name_H-M   'P 1'
_cell_length_a   9.98337113
_cell_length_b   7.99951575
_cell_length_c   14.92661339
_cell_angle_alpha   90.04572773
_cell_angle_beta   90.04416746
_cell_angle_gamma   89.93883861
_symmetry_Int_Tables_number   1
_chemical_formula_structural   Li3V(Si2O5)3
_chemical_formula_sum   'Li12 V4 Si24 O60'
_cell_volume   1192.06979571
_cell_formula_units_Z   4
loop_
 _symmetry_equiv_pos_site_id
 _symmetry_equiv_pos_as_xyz
  1  'x, y, z'
loop_
 _atom_site_type_symbol
 _atom_site_label
 _atom_site_symmetry_multiplicity
 _atom_site_fract_x
 _atom_site_fract_y
 _atom_site_fract_z
 _atom_site_occupancy
  Li  Li0  1  0.92941200  0.25095000  0.09679600  1
  Li  Li1  1  0.57030500  0.25116500  0.59677600  1
  Li  Li2  1  0.49755100  0.01255800  0.24254600  1
  Li  Li3  1  0.49714200  0.48851400  0.24290100  1
  Li  Li4  1  0.50068700  0.99763300  0.75718000  1
  Li  Li5  1  0.50204400  0.50481600  0.75679700  1
  Li  Li6  1  0.42893300  0.75040900  0.40249100  1
  Li  Li7  1  0.06932900  0.74803300  0.90122200  1
  Li  Li8  1  0.99859900  0.99855100  0.25781900  1
  Li  Li9  1  0.99889700  0.50252500  0.25771600  1
  Li  Li10  1  0.00144300  0.48354600  0.74340800  1
  Li  Li11  1  0.00144500  0.01174700  0.74330600  1
  V  V0  1  0.74406900  0.25026600  0.25321400  1
  V  V1  1  0.75537400  0.24990900  0.75334500  1
  V  V2  1  0.25563500  0.74966300  0.74641600  1
  V  V3  1  0.24264800  0.75064200  0.24627800  1
  Si  Si0  1  0.97088000  0.75002000  0.40003500  1
  Si  Si1  1  0.97604000  0.75072000  0.60015600  1
  Si  Si2  1  0.78860600  0.56291600  0.10225800  1
  Si  Si3  1  0.78762000  0.93819600  0.10170100  1
  Si  Si4  1  0.79196200  0.93944000  0.89857200  1
  Si  Si5  1  0.79217400  0.55925300  0.89913000  1
  Si  Si6  1  0.70655900  0.94005900  0.39858100  1
  Si  Si7  1  0.71230100  0.56304300  0.60205600  1
  Si  Si8  1  0.70704700  0.56004200  0.39873600  1
  Si  Si9  1  0.71195600  0.93840200  0.60152500  1
  Si  Si10  1  0.52416200  0.74992600  0.10054900  1
  Si  Si11  1  0.52777600  0.74948500  0.90022900  1
  Si  Si12  1  0.47314400  0.24957500  0.89950400  1
  Si  Si13  1  0.46949500  0.25019900  0.09887900  1
  Si  Si14  1  0.28989300  0.43827600  0.39780200  1
  Si  Si15  1  0.29534600  0.06005200  0.60009800  1
  Si  Si16  1  0.29028700  0.06238700  0.39800200  1
  Si  Si17  1  0.29485200  0.44092400  0.60022700  1
  Si  Si18  1  0.20529900  0.06024700  0.10044500  1
  Si  Si19  1  0.20837700  0.43662500  0.89757500  1
  Si  Si20  1  0.20972200  0.06099600  0.89824800  1
  Si  Si21  1  0.20510000  0.44081400  0.09973900  1
  Si  Si22  1  0.03068900  0.25058800  0.59914400  1
  Si  Si23  1  0.02615500  0.25033400  0.39987600  1
  O  O0  1  0.95947200  0.25148300  0.50024500  1
  O  O1  1  0.92445700  0.24899200  0.31791300  1
  O  O2  1  0.93404800  0.24990700  0.68397400  1
  O  O3  1  0.86940700  0.58741600  0.39018600  1
  O  O4  1  0.86900200  0.91237300  0.39085500  1
  O  O5  1  0.87559800  0.58621300  0.61138700  1
  O  O6  1  0.87522800  0.91526800  0.61018300  1
  O  O7  1  0.85437400  0.75086200  0.11632900  1
  O  O8  1  0.86471900  0.74921700  0.89111100  1
  O  O9  1  0.84507200  0.07634600  0.17062900  1
  O  O10  1  0.84677400  0.42660200  0.17173500  1
  O  O11  1  0.84569100  0.06024100  0.82133100  1
  O  O12  1  0.84583300  0.43709000  0.82221100  1
  O  O13  1  0.82818500  0.49251200  0.00110000  1
  O  O14  1  0.82730800  0.00720200  0.00046000  1
  O  O15  1  0.67247500  0.49311100  0.50083300  1
  O  O16  1  0.67115000  0.00776200  0.50047200  1
  O  O17  1  0.65457400  0.07588500  0.67083200  1
  O  O18  1  0.65346600  0.06059200  0.32098400  1
  O  O19  1  0.65334000  0.43770200  0.32185700  1
  O  O20  1  0.65445600  0.42623300  0.67134200  1
  O  O21  1  0.63386700  0.74983800  0.39085100  1
  O  O22  1  0.64624600  0.75085000  0.61607000  1
  O  O23  1  0.62460100  0.91458800  0.11077800  1
  O  O24  1  0.62536000  0.58584400  0.11079400  1
  O  O25  1  0.62949800  0.91190300  0.89016500  1
  O  O26  1  0.62976000  0.58684700  0.89073400  1
  O  O27  1  0.56614800  0.25069400  0.18366700  1
  O  O28  1  0.57497800  0.24978700  0.81767400  1
  O  O29  1  0.54011100  0.24934000  0.99991900  1
  O  O30  1  0.45946200  0.74996000  0.99964900  1
  O  O31  1  0.41971600  0.74961000  0.18059300  1
  O  O32  1  0.42836900  0.74813800  0.81695300  1
  O  O33  1  0.37295200  0.08465300  0.88989500  1
  O  O34  1  0.37181000  0.41349100  0.89008900  1
  O  O35  1  0.36774000  0.08784600  0.10765500  1
  O  O36  1  0.36757400  0.41280100  0.10638800  1
  O  O37  1  0.36769000  0.25065100  0.60692700  1
  O  O38  1  0.35598800  0.25028600  0.38421300  1
  O  O39  1  0.34893200  0.56084700  0.67767200  1
  O  O40  1  0.34758800  0.94193300  0.67868500  1
  O  O41  1  0.34749500  0.57327100  0.32774500  1
  O  O42  1  0.34742500  0.92713600  0.32768900  1
  O  O43  1  0.33181800  0.99090700  0.49854100  1
  O  O44  1  0.33035900  0.50961800  0.49856700  1
  O  O45  1  0.16932600  0.99054000  0.99903600  1
  O  O46  1  0.16780600  0.50909700  0.99817200  1
  O  O47  1  0.15281000  0.55910200  0.17853400  1
  O  O48  1  0.15221000  0.94256200  0.17911200  1
  O  O49  1  0.15057900  0.57076300  0.82695800  1
  O  O50  1  0.15236800  0.92457800  0.82861200  1
  O  O51  1  0.13241300  0.25055600  0.10686400  1
  O  O52  1  0.14291000  0.24839400  0.88408200  1
  O  O53  1  0.13232000  0.41333300  0.60797000  1
  O  O54  1  0.12659000  0.41475900  0.38981200  1
  O  O55  1  0.12686600  0.08581800  0.39065800  1
  O  O56  1  0.13277100  0.08827700  0.60654500  1
  O  O57  1  0.07026100  0.75060900  0.31698500  1
  O  O58  1  0.08073100  0.75332300  0.68028300  1
  O  O59  1  0.04017500  0.74944500  0.49921400  1
loop_
_geom_bond_atom_site_label_1
_geom_bond_atom_site_label_2
_geom_bond_distance
_geom_bond_site_symmetry_2
Li0 O9 1.969983 1_555
Li0 O10 1.975525 1_555
Li0 O51 2.032082 1_655
Li1 O17 1.973385 1_555
Li1 O20 1.975971 1_555
Li1 O37 2.028573 1_555
Li2 O18 1.984709 1_555
Li2 O42 2.082049 1_545
Li2 O27 2.208325 1_555
Li2 O31 2.425445 1_545
Li2 O23 2.467949 1_545
Li2 O35 2.468300 1_555
Li3 O19 1.995605 1_555
Li3 O41 2.072420 1_555
Li3 O27 2.207056 1_555
Li3 O31 2.413181 1_555
Li3 O24 2.478231 1_555
Li3 O36 2.487530 1_555
Li4 O40 1.976192 1_555
Li4 O17 2.102312 1_565
Li4 O32 2.303817 1_555
Li4 O28 2.330971 1_565
Li4 O33 2.456600 1_565
Li4 O25 2.461844 1_555
Li5 O39 1.982161 1_555
Li5 O20 2.082571 1_555
Li5 O32 2.265202 1_555
Li5 O28 2.348764 1_555
Li5 O26 2.459470 1_555
Li5 O34 2.488172 1_555
Li6 O42 1.976387 1_555
Li6 O41 1.977950 1_555
Li6 O21 2.053430 1_555
Li7 O50 1.965394 1_555
Li7 O49 1.973351 1_555
Li7 O8 2.048162 1_455
Li8 O48 1.983202 1_655
Li8 O9 2.103916 1_565
Li8 O57 2.285721 1_655
Li8 O1 2.315408 1_565
Li8 O55 2.460596 1_665
Li8 O4 2.469932 1_555
Li9 O47 1.991973 1_655
Li9 O10 2.078502 1_555
Li9 O57 2.286471 1_655
Li9 O1 2.340977 1_555
Li9 O54 2.449951 1_655
Li9 O3 2.458069 1_555
Li10 O12 1.984905 1_455
Li10 O49 2.063204 1_555
Li10 O2 2.175317 1_455
Li10 O53 2.471911 1_555
Li10 O5 2.476465 1_455
Li10 O58 2.485913 1_555
Li11 O11 1.981300 1_455
Li11 O50 2.091419 1_545
Li11 O2 2.205844 1_455
Li11 O58 2.404087 1_545
Li11 O6 2.475413 1_445
Li11 O56 2.503752 1_555
O0 Si22 1.638043 1_655
O0 Si23 1.639903 1_655
O1 Si23 1.589275 1_655
O1 V0 2.042845 1_555
O2 Si22 1.592515 1_655
O2 V1 2.063222 1_555
O3 Si8 1.640938 1_555
O3 Si0 1.655930 1_555
O4 Si6 1.640681 1_555
O4 Si0 1.654457 1_555
O5 Si7 1.646735 1_555
O5 Si1 1.663981 1_555
O6 Si9 1.645276 1_555
O6 Si1 1.662852 1_555
O7 Si3 1.654000 1_555
O7 Si2 1.654404 1_555
O8 Si5 1.688453 1_555
O8 Si4 1.689095 1_555
O9 Si3 1.614769 1_545
O9 V0 2.113809 1_555
O10 Si2 1.612858 1_555
O10 V0 2.127917 1_555
O11 Si4 1.598336 1_545
O11 V1 2.035438 1_555
O12 Si5 1.599451 1_555
O12 V1 2.028126 1_555
O13 Si5 1.652581 1_554
O13 Si2 1.659020 1_555
O14 Si4 1.652144 1_544
O14 Si3 1.657743 1_545
O15 Si8 1.652502 1_555
O15 Si7 1.658947 1_555
O16 Si6 1.652419 1_545
O16 Si9 1.657989 1_545
O17 Si9 1.614222 1_545
O17 V1 2.113275 1_555
O18 Si6 1.597484 1_545
O18 V0 2.037263 1_555
O19 Si8 1.600155 1_555
O19 V0 2.028431 1_555
O20 Si7 1.613968 1_555
O20 V1 2.121474 1_555
O21 Si8 1.688357 1_555
O21 Si6 1.690389 1_555
O22 Si9 1.652664 1_555
O22 Si7 1.653279 1_555
O23 Si3 1.644308 1_555
O23 Si10 1.663154 1_555
O24 Si2 1.644868 1_555
O24 Si10 1.662587 1_555
O25 Si4 1.641755 1_555
O25 Si11 1.656900 1_555
O26 Si5 1.640873 1_555
O26 Si11 1.657248 1_555
O27 Si13 1.590895 1_555
O27 V0 2.056668 1_555
O28 Si12 1.589787 1_555
O28 V1 2.041603 1_555
O29 Si13 1.637244 1_556
O29 Si12 1.640731 1_555
O30 Si11 1.633694 1_555
O30 Si10 1.638304 1_556
O31 Si10 1.586418 1_555
O31 V3 2.022097 1_555
O32 Si11 1.590040 1_555
O32 V2 2.019819 1_555
O33 Si20 1.645575 1_555
O33 Si12 1.662503 1_555
O34 Si19 1.645751 1_555
O34 Si12 1.661268 1_555
O35 Si18 1.640342 1_555
O35 Si13 1.655041 1_555
O36 Si21 1.640148 1_555
O36 Si13 1.654368 1_555
O37 Si17 1.689174 1_555
O37 Si15 1.690774 1_555
O38 Si16 1.653696 1_555
O38 Si14 1.653980 1_555
O39 Si17 1.595772 1_555
O39 V2 2.048870 1_555
O40 Si15 1.593936 1_565
O40 V2 2.058498 1_555
O41 Si14 1.610727 1_555
O41 V3 2.141309 1_555
O42 Si16 1.610995 1_565
O42 V3 2.136044 1_555
O43 Si15 1.653956 1_565
O43 Si16 1.658582 1_565
O44 Si17 1.653126 1_555
O44 Si14 1.658116 1_555
O45 Si18 1.652098 1_566
O45 Si20 1.657216 1_565
O46 Si21 1.653910 1_556
O46 Si19 1.659494 1_555
O47 Si21 1.596661 1_555
O47 V3 2.042961 1_555
O48 Si18 1.596808 1_565
O48 V3 2.043394 1_555
O49 Si19 1.610894 1_555
O49 V2 2.145069 1_555
O50 Si20 1.611758 1_565
O50 V2 2.126536 1_555
O51 Si18 1.689320 1_555
O51 Si21 1.690275 1_555
O52 Si20 1.653798 1_555
O52 Si19 1.654222 1_555
O53 Si17 1.641967 1_555
O53 Si22 1.656516 1_555
O54 Si14 1.645557 1_555
O54 Si23 1.661735 1_555
O55 Si16 1.645607 1_555
O55 Si23 1.660998 1_555
O56 Si15 1.641324 1_555
O56 Si22 1.653455 1_555
O57 Si0 1.588414 1_455
O57 V3 2.019544 1_555
O58 Si1 1.587881 1_455
O58 V2 2.005383 1_555
O59 Si0 1.633595 1_455
O59 Si1 1.637598 1_455
