# generated using pymatgen
data_VNO6F
_symmetry_space_group_name_H-M   'P 1'
_cell_length_a   8.07893700
_cell_length_b   9.46354200
_cell_length_c   11.18090500
_cell_angle_alpha   90.00000000
_cell_angle_beta   90.00000000
_cell_angle_gamma   90.00000000
_symmetry_Int_Tables_number   1
_chemical_formula_structural   VNO6F
_chemical_formula_sum   'V4 N4 O24 F4'
_cell_volume   854.84011259
_cell_formula_units_Z   4
loop_
 _symmetry_equiv_pos_site_id
 _symmetry_equiv_pos_as_xyz
  1  'x, y, z'
loop_
 _atom_site_type_symbol
 _atom_site_label
 _atom_site_symmetry_multiplicity
 _atom_site_fract_x
 _atom_site_fract_y
 _atom_site_fract_z
 _atom_site_occupancy
  V  V0  1  0.50000000  0.50000000  0.25004300  1
  V  V1  1  0.00000000  0.50000000  0.74995700  1
  V  V2  1  0.50000000  0.00000000  0.68033000  1
  V  V3  1  0.00000000  0.00000000  0.31967000  1
  N  N0  1  0.75000000  0.74090600  0.00000000  1
  N  N1  1  0.25000000  0.25909400  0.00000000  1
  N  N2  1  0.25000000  0.77179300  0.50000000  1
  N  N3  1  0.75000000  0.22820700  0.50000000  1
  O  O0  1  0.36540000  0.67824400  0.22517500  1
  O  O1  1  0.63460000  0.32175600  0.22517500  1
  O  O2  1  0.86540000  0.32175600  0.77482500  1
  O  O3  1  0.13460000  0.67824400  0.77482500  1
  O  O4  1  0.51246900  0.71016600  0.27083700  1
  O  O5  1  0.48753100  0.28983400  0.27083700  1
  O  O6  1  0.01246900  0.28983400  0.72916300  1
  O  O7  1  0.98753100  0.71016600  0.72916300  1
  O  O8  1  0.04761700  0.83390800  0.23258300  1
  O  O9  1  0.95238300  0.16609200  0.23258300  1
  O  O10  1  0.54761700  0.16609200  0.76741700  1
  O  O11  1  0.45238300  0.83390800  0.76741700  1
  O  O12  1  0.50000000  0.00000000  0.26722300  1
  O  O13  1  0.00000000  0.00000000  0.73277700  1
  O  O14  1  0.87670400  0.86287900  0.23542600  1
  O  O15  1  0.12329600  0.13712100  0.23542600  1
  O  O16  1  0.37670400  0.13712100  0.76457400  1
  O  O17  1  0.62329600  0.86287900  0.76457400  1
  O  O18  1  0.58185700  0.49663500  0.42161300  1
  O  O19  1  0.41814300  0.50336500  0.42161300  1
  O  O20  1  0.08185700  0.50336500  0.57838700  1
  O  O21  1  0.91814300  0.49663500  0.57838700  1
  O  O22  1  0.00000000  0.50000000  0.18943000  1
  O  O23  1  0.50000000  0.50000000  0.81057000  1
  F  F0  1  0.50000000  0.50000000  0.08923300  1
  F  F1  1  0.00000000  0.50000000  0.91076700  1
  F  F2  1  0.50000000  0.00000000  0.52134200  1
  F  F3  1  0.00000000  0.00000000  0.47865800  1
loop_
_geom_bond_atom_site_label_1
_geom_bond_atom_site_label_2
_geom_bond_distance
_geom_bond_site_symmetry_2
O0 O4 1.328022 1_555
O0 V0 2.026120 1_555
O1 O5 1.328022 1_555
O1 V0 2.026120 1_555
O2 O6 1.328022 1_655
O2 V1 2.026120 1_655
O3 O7 1.328022 1_455
O3 V1 2.026120 1_555
O4 V0 2.004990 1_555
O5 V0 2.004990 1_555
O6 V1 2.004990 1_555
O7 V1 2.004990 1_655
O8 V3 1.888576 1_565
O9 V3 1.888576 1_655
O10 O16 1.408110 1_555
O10 V2 1.888576 1_555
O11 O17 1.408110 1_555
O11 V2 1.888576 1_565
O14 O8 1.408110 1_655
O14 V3 1.887680 1_665
O15 O9 1.408110 1_455
O15 V3 1.887680 1_555
O16 V2 1.887680 1_555
O17 V2 1.887680 1_565
O18 O19 1.324168 1_555
O18 V0 2.029350 1_555
O19 V0 2.029350 1_555
O20 O21 1.324168 1_455
O20 V1 2.029350 1_555
O21 V1 2.029350 1_655
F0 V0 1.798001 1_555
F1 V1 1.798001 1_555
F2 V2 1.777630 1_555
F3 V3 1.777630 1_555
