# generated using pymatgen
data_InBi2N3
_symmetry_space_group_name_H-M   'P 1'
_cell_length_a   6.33579246
_cell_length_b   11.08073716
_cell_length_c   15.07667983
_cell_angle_alpha   89.99999837
_cell_angle_beta   87.55293869
_cell_angle_gamma   150.98058986
_symmetry_Int_Tables_number   1
_chemical_formula_structural   InBi2N3
_chemical_formula_sum   'In4 Bi8 N12'
_cell_volume   511.47353281
_cell_formula_units_Z   4
loop_
 _symmetry_equiv_pos_site_id
 _symmetry_equiv_pos_as_xyz
  1  'x, y, z'
loop_
 _atom_site_type_symbol
 _atom_site_label
 _atom_site_symmetry_multiplicity
 _atom_site_fract_x
 _atom_site_fract_y
 _atom_site_fract_z
 _atom_site_occupancy
  In  In0  1  0.59377500  0.32926100  0.66808400  1
  In  In1  1  0.40622500  0.73548600  0.83191600  1
  In  In2  1  0.40622500  0.67073900  0.33191600  1
  In  In3  1  0.59377500  0.26451400  0.16808400  1
  Bi  Bi0  1  0.47287500  0.08572400  0.91676700  1
  Bi  Bi1  1  0.52712500  0.61284800  0.58323300  1
  Bi  Bi2  1  0.52712500  0.91427600  0.08323300  1
  Bi  Bi3  1  0.47287500  0.38715200  0.41676700  1
  Bi  Bi4  1  0.61927300  0.98274400  0.64043900  1
  Bi  Bi5  1  0.38072700  0.36347100  0.85956100  1
  Bi  Bi6  1  0.38072700  0.01725600  0.35956100  1
  Bi  Bi7  1  0.61927300  0.63652900  0.14043900  1
  N  N0  1  0.00000000  0.64517000  0.75000000  1
  N  N1  1  0.00000000  0.35483000  0.25000000  1
  N  N2  1  0.82112600  0.27246400  0.62309000  1
  N  N3  1  0.17887400  0.45133800  0.87691000  1
  N  N4  1  0.17887400  0.72753600  0.37691000  1
  N  N5  1  0.82112600  0.54866200  0.12309000  1
  N  N6  1  0.42050400  0.05665500  0.06418100  1
  N  N7  1  0.57949600  0.63615100  0.43581900  1
  N  N8  1  0.57949600  0.94334500  0.93581900  1
  N  N9  1  0.42050400  0.36384900  0.56418100  1
  N  N10  1  0.00000000  0.08997400  0.75000000  1
  N  N11  1  0.00000000  0.91002600  0.25000000  1
loop_
_geom_bond_atom_site_label_1
_geom_bond_atom_site_label_2
_geom_bond_distance
_geom_bond_site_symmetry_2
In0 N2 2.105513 1_555
In0 N9 2.165349 1_555
In0 N10 2.206007 1_555
In0 N0 2.217599 1_655
In1 N3 2.105513 1_555
In1 N8 2.165349 1_555
In1 N10 2.206008 1_665
In1 N0 2.217599 1_555
In2 N4 2.105513 1_555
In2 N7 2.165349 1_555
In2 N11 2.206007 1_655
In2 N1 2.217599 1_555
In3 N5 2.105513 1_555
In3 N6 2.165349 1_555
In3 N11 2.206008 1_545
In3 N1 2.217599 1_655
Bi0 N3 2.204452 1_655
Bi0 N6 2.214390 1_556
Bi0 N8 2.215481 1_545
Bi1 N2 2.204453 1_455
Bi1 N7 2.214390 1_555
Bi1 N9 2.215470 1_555
Bi2 N5 2.204452 1_455
Bi2 N8 2.214390 1_554
Bi2 N6 2.215481 1_565
Bi3 N4 2.204453 1_655
Bi3 N9 2.214390 1_555
Bi3 N7 2.215470 1_555
Bi4 N2 2.191140 1_565
Bi4 N10 2.299267 1_665
Bi4 N0 2.427685 1_555
Bi4 N9 2.633369 1_665
Bi5 N3 2.191139 1_555
Bi5 N10 2.299268 1_555
Bi5 N0 2.427685 1_655
Bi5 N8 2.633369 1_445
Bi6 N4 2.191140 1_545
Bi6 N11 2.299267 1_545
Bi6 N1 2.427685 1_655
Bi6 N7 2.633369 1_445
Bi7 N5 2.191139 1_555
Bi7 N11 2.299268 1_655
Bi7 N1 2.427685 1_555
Bi7 N6 2.633369 1_665
