# generated using pymatgen
data_MgSbPt
_symmetry_space_group_name_H-M   'P 1'
_cell_length_a   4.44465356
_cell_length_b   4.44465392
_cell_length_c   4.44465369
_cell_angle_alpha   60.00000161
_cell_angle_beta   59.99999894
_cell_angle_gamma   60.00001060
_symmetry_Int_Tables_number   1
_chemical_formula_structural   MgSbPt
_chemical_formula_sum   'Mg1 Sb1 Pt1'
_cell_volume   62.08673646
_cell_formula_units_Z   1
loop_
 _symmetry_equiv_pos_site_id
 _symmetry_equiv_pos_as_xyz
  1  'x, y, z'
loop_
 _atom_site_type_symbol
 _atom_site_label
 _atom_site_symmetry_multiplicity
 _atom_site_fract_x
 _atom_site_fract_y
 _atom_site_fract_z
 _atom_site_occupancy
  Mg  Mg0  1  0.50000000  0.50000000  0.50000000  1
  Sb  Sb0  1  -0.00000000  -0.00000000  0.00000000  1
  Pt  Pt0  1  0.25000000  0.25000000  0.25000000  1
loop_
_geom_bond_atom_site_label_1
_geom_bond_atom_site_label_2
_geom_bond_distance
_geom_bond_site_symmetry_2
Mg0 Pt0 2.721783 1_556
Mg0 Pt0 2.721783 1_555
Mg0 Pt0 2.721784 1_655
Mg0 Pt0 2.721784 1_565
Mg0 Sb0 3.142845 1_556
Mg0 Sb0 3.142845 1_665
Mg0 Sb0 3.142845 1_656
Mg0 Sb0 3.142845 1_655
Mg0 Sb0 3.142845 1_565
Mg0 Sb0 3.142845 1_566
Pt0 Sb0 2.721783 1_556
Pt0 Sb0 2.721783 1_555
Pt0 Sb0 2.721784 1_655
Pt0 Sb0 2.721784 1_565
