# generated using pymatgen
data_BaTbCuTe3
_symmetry_space_group_name_H-M   'P 1'
_cell_length_a   4.45490000
_cell_length_b   7.79382546
_cell_length_c   11.46917700
_cell_angle_alpha   90.00000000
_cell_angle_beta   90.00000000
_cell_angle_gamma   106.60648015
_symmetry_Int_Tables_number   1
_chemical_formula_structural   BaTbCuTe3
_chemical_formula_sum   'Ba2 Tb2 Cu2 Te6'
_cell_volume   381.60843270
_cell_formula_units_Z   2
loop_
 _symmetry_equiv_pos_site_id
 _symmetry_equiv_pos_as_xyz
  1  'x, y, z'
loop_
 _atom_site_type_symbol
 _atom_site_label
 _atom_site_symmetry_multiplicity
 _atom_site_fract_x
 _atom_site_fract_y
 _atom_site_fract_z
 _atom_site_occupancy
  Ba  Ba0  1  0.75026500  0.50053000  0.25000000  1
  Ba  Ba1  1  0.24973500  0.49947000  0.75000000  1
  Tb  Tb0  1  0.00000000  0.00000000  0.50000000  1
  Tb  Tb1  1  0.00000000  0.00000000  0.00000000  1
  Cu  Cu0  1  0.46711200  0.93422400  0.25000000  1
  Cu  Cu1  1  0.53288800  0.06577600  0.75000000  1
  Te  Te0  1  0.36271400  0.72542800  0.43870100  1
  Te  Te1  1  0.63728600  0.27457200  0.56129900  1
  Te  Te2  1  0.36271400  0.72542800  0.06129900  1
  Te  Te3  1  0.63728600  0.27457200  0.93870100  1
  Te  Te4  1  0.07003900  0.14007800  0.25000000  1
  Te  Te5  1  0.92996100  0.85992200  0.75000000  1
loop_
_geom_bond_atom_site_label_1
_geom_bond_atom_site_label_2
_geom_bond_distance
_geom_bond_site_symmetry_2
Ba0 Te4 3.494148 1_655
Ba0 Te4 3.494148 1_555
Ba0 Te2 3.530850 1_555
Ba0 Te0 3.530850 1_555
Ba0 Te0 3.530850 1_655
Ba0 Te2 3.530850 1_655
Ba0 Te1 3.949104 1_555
Ba0 Te3 3.949104 1_554
Ba1 Te5 3.494148 1_555
Ba1 Te5 3.494148 1_455
Ba1 Te3 3.530850 1_455
Ba1 Te3 3.530850 1_555
Ba1 Te1 3.530850 1_455
Ba1 Te1 3.530850 1_555
Ba1 Te0 3.949104 1_555
Ba1 Te2 3.949104 1_556
Tb0 Te4 3.052200 1_555
Tb0 Te5 3.052200 1_445
Tb0 Te1 3.108250 1_455
Tb0 Te0 3.108250 1_445
Tb0 Te0 3.108250 1_545
Tb0 Te1 3.108250 1_555
Tb1 Te4 3.052200 1_555
Tb1 Te5 3.052200 1_444
Tb1 Te3 3.108250 1_454
Tb1 Te2 3.108250 1_445
Tb1 Te3 3.108250 1_554
Tb1 Te2 3.108250 1_545
Cu0 Te0 2.667550 1_555
Cu0 Te2 2.667550 1_555
Cu0 Te4 2.706539 1_565
Cu0 Te4 2.706539 1_665
Cu1 Te3 2.667550 1_555
Cu1 Te1 2.667550 1_555
Cu1 Te5 2.706539 1_445
Cu1 Te5 2.706539 1_545
