# generated using pymatgen
data_La2CoSiO2
_symmetry_space_group_name_H-M   'P 1'
_cell_length_a   3.92673100
_cell_length_b   3.92673100
_cell_length_c   6.92544100
_cell_angle_alpha   90.00000000
_cell_angle_beta   90.00000000
_cell_angle_gamma   90.00000000
_symmetry_Int_Tables_number   1
_chemical_formula_structural   La2CoSiO2
_chemical_formula_sum   'La2 Co1 Si1 O2'
_cell_volume   106.78487307
_cell_formula_units_Z   1
loop_
 _symmetry_equiv_pos_site_id
 _symmetry_equiv_pos_as_xyz
  1  'x, y, z'
loop_
 _atom_site_type_symbol
 _atom_site_label
 _atom_site_symmetry_multiplicity
 _atom_site_fract_x
 _atom_site_fract_y
 _atom_site_fract_z
 _atom_site_occupancy
  La  La0  1  0.50000000  0.50000000  0.74065000  1
  La  La1  1  0.50000000  0.50000000  0.25935000  1
  Co  Co0  1  0.00000000  0.00000000  0.50000000  1
  Si  Si0  1  0.00000000  0.00000000  0.00000000  1
  O  O0  1  0.00000000  0.50000000  0.50000000  1
  O  O1  1  0.50000000  0.00000000  0.50000000  1
loop_
_geom_bond_atom_site_label_1
_geom_bond_atom_site_label_2
_geom_bond_distance
_geom_bond_site_symmetry_2
La0 O0 2.575342 1_555
La0 O1 2.575342 1_555
La0 O0 2.575342 1_655
La0 O1 2.575342 1_565
La0 Si0 3.306906 1_666
La0 Si0 3.306906 1_656
La0 Si0 3.306906 1_566
La0 Si0 3.306906 1_556
La1 O1 2.575342 1_555
La1 O0 2.575342 1_555
La1 O1 2.575342 1_565
La1 O0 2.575342 1_655
La1 Si0 3.306906 1_665
La1 Si0 3.306906 1_565
La1 Si0 3.306906 1_555
La1 Si0 3.306906 1_655
Co0 O0 1.963366 1_555
Co0 O0 1.963366 1_545
Co0 O1 1.963366 1_555
Co0 O1 1.963366 1_455
