# generated using pymatgen
data_CoNi2Sn
_symmetry_space_group_name_H-M   'P 1'
_cell_length_a   4.19912858
_cell_length_b   4.19912858
_cell_length_c   10.32737100
_cell_angle_alpha   89.99748099
_cell_angle_beta   90.00251901
_cell_angle_gamma   120.01053348
_symmetry_Int_Tables_number   1
_chemical_formula_structural   CoNi2Sn
_chemical_formula_sum   'Co3 Ni6 Sn3'
_cell_volume   157.68582291
_cell_formula_units_Z   3
loop_
 _symmetry_equiv_pos_site_id
 _symmetry_equiv_pos_as_xyz
  1  'x, y, z'
loop_
 _atom_site_type_symbol
 _atom_site_label
 _atom_site_symmetry_multiplicity
 _atom_site_fract_x
 _atom_site_fract_y
 _atom_site_fract_z
 _atom_site_occupancy
  Co  Co0  1  0.99999600  0.00000400  0.26153600  1
  Co  Co1  1  0.99999300  0.00000700  0.74889400  1
  Co  Co2  1  0.00001500  0.99998500  0.00650100  1
  Ni  Ni0  1  0.66670900  0.33329100  0.13663000  1
  Ni  Ni1  1  0.66669300  0.33330700  0.61051200  1
  Ni  Ni2  1  0.33332000  0.66668000  0.37419300  1
  Ni  Ni3  1  0.33330600  0.66669400  0.87459800  1
  Ni  Ni4  1  0.99999400  0.00000600  0.49114500  1
  Ni  Ni5  1  0.66667500  0.33332500  0.37187400  1
  Sn  Sn0  1  0.66670400  0.33329600  0.87467000  1
  Sn  Sn1  1  0.33329900  0.66670100  0.12797400  1
  Sn  Sn2  1  0.33329700  0.66670300  0.62147200  1
loop_
_geom_bond_atom_site_label_1
_geom_bond_atom_site_label_2
_geom_bond_distance
_geom_bond_site_symmetry_2
Co0 Ni4 2.371257 1_555
Co0 Co2 2.633841 1_645
Co0 Ni5 2.678592 1_545
Co0 Ni5 2.678592 1_655
Co0 Ni5 2.678898 1_555
Co0 Ni2 2.688910 1_545
Co0 Ni2 2.688910 1_655
Co0 Ni2 2.689086 1_645
Co0 Ni0 2.745943 1_555
Co0 Ni0 2.746136 1_545
Co0 Ni0 2.746136 1_655
Co0 Sn1 2.789134 1_545
Co0 Sn1 2.789134 1_655
Co0 Sn1 2.789273 1_645
Co1 Co2 2.660403 1_646
Co1 Ni4 2.661870 1_555
Co1 Ni3 2.749933 1_545
Co1 Ni3 2.749933 1_655
Co1 Ni3 2.749991 1_645
Co1 Sn0 2.750303 1_545
Co1 Sn0 2.750303 1_655
Co1 Sn0 2.750304 1_555
Co1 Sn2 2.758324 1_545
Co1 Sn2 2.758324 1_655
Co1 Sn2 2.758470 1_645
Co1 Ni1 2.814080 1_555
Co1 Ni1 2.814155 1_655
Co1 Ni1 2.814155 1_545
Co2 Sn1 2.729450 1_555
Co2 Sn1 2.729670 1_455
Co2 Sn1 2.729670 1_565
Co2 Ni0 2.771763 1_455
Co2 Ni0 2.771763 1_565
Co2 Ni0 2.771929 1_465
Co2 Sn0 2.780372 1_454
Co2 Sn0 2.780372 1_564
Co2 Sn0 2.780406 1_464
Co2 Ni3 2.780739 1_454
Co2 Ni3 2.780739 1_564
Co2 Ni3 2.780764 1_554
Ni0 Sn1 2.425482 1_655
Ni0 Sn1 2.425482 1_545
Ni0 Sn1 2.426697 1_555
Ni0 Ni5 2.429452 1_555
Ni0 Sn0 2.705358 1_554
Ni1 Sn2 2.426521 1_655
Ni1 Sn2 2.426521 1_545
Ni1 Sn2 2.427598 1_555
Ni1 Ni5 2.464503 1_555
Ni1 Ni4 2.719632 1_455
Ni1 Ni4 2.719632 1_565
Ni1 Ni4 2.719745 1_555
Ni1 Sn0 2.728058 1_555
Ni2 Ni5 2.424150 1_565
Ni2 Ni5 2.424150 1_455
Ni2 Ni5 2.424774 1_555
Ni2 Sn1 2.542795 1_555
Ni2 Sn2 2.553742 1_555
Ni2 Ni4 2.708337 1_565
Ni2 Ni4 2.708337 1_455
Ni2 Ni4 2.708693 1_465
Ni3 Sn0 2.423876 1_455
Ni3 Sn0 2.423876 1_565
Ni3 Sn0 2.424967 1_555
Ni3 Sn2 2.614126 1_555
Ni3 Sn1 2.616708 1_556
Ni4 Ni5 2.719180 1_545
Ni4 Ni5 2.719180 1_655
Ni4 Ni5 2.719301 1_555
Ni4 Sn2 2.772783 1_645
Ni4 Sn2 2.772824 1_545
Ni4 Sn2 2.772824 1_655
