# generated using pymatgen
data_MgB2H7
_symmetry_space_group_name_H-M   'P 1'
_cell_length_a   7.88354410
_cell_length_b   8.34899220
_cell_length_c   10.18012511
_cell_angle_alpha   90.36897750
_cell_angle_beta   88.91383222
_cell_angle_gamma   91.74004858
_symmetry_Int_Tables_number   1
_chemical_formula_structural   MgB2H7
_chemical_formula_sum   'Mg4 B8 H28'
_cell_volume   669.61140979
_cell_formula_units_Z   4
loop_
 _symmetry_equiv_pos_site_id
 _symmetry_equiv_pos_as_xyz
  1  'x, y, z'
loop_
 _atom_site_type_symbol
 _atom_site_label
 _atom_site_symmetry_multiplicity
 _atom_site_fract_x
 _atom_site_fract_y
 _atom_site_fract_z
 _atom_site_occupancy
  Mg  Mg0  1  0.17187200  0.44019000  0.26726300  1
  Mg  Mg1  1  0.58575200  0.85094300  0.84318000  1
  Mg  Mg2  1  0.68656500  0.39384500  0.01851500  1
  Mg  Mg3  1  0.97440000  0.74936000  0.78822900  1
  B  B0  1  0.77506900  0.67951600  0.96196700  1
  B  B1  1  0.61789100  0.11852800  0.94394800  1
  B  B2  1  0.42208500  0.43999600  0.14128700  1
  B  B3  1  0.73136600  0.58408800  0.82983300  1
  B  B4  1  0.94964000  0.35716500  0.13362400  1
  B  B5  1  0.13600000  0.51749000  0.46572300  1
  B  B6  1  0.82795500  0.93072000  0.65906500  1
  B  B7  1  0.27416000  0.78892100  0.82442900  1
  H  H0  1  0.48306500  0.07041100  0.89704500  1
  H  H1  1  0.35251400  0.31628700  0.18553700  1
  H  H2  1  0.59189300  0.55530400  0.78580300  1
  H  H3  1  0.93438200  0.29444100  0.02596300  1
  H  H4  1  0.03731300  0.58076700  0.38822600  1
  H  H5  1  0.88490900  0.96837300  0.76781300  1
  H  H6  1  0.34680500  0.77512900  0.92908500  1
  H  H7  1  0.58958200  0.15947700  0.05783100  1
  H  H8  1  0.92095500  0.71896100  0.99245000  1
  H  H9  1  0.34882100  0.56495800  0.16703300  1
  H  H10  1  0.10388000  0.55461300  0.57710700  1
  H  H11  1  0.81854700  0.39371400  0.19047500  1
  H  H12  1  0.36584800  0.82191800  0.72887300  1
  H  H13  1  0.67231000  0.90401700  0.66824000  1
  H  H14  1  0.72704300  0.01787900  0.94858900  1
  H  H15  1  0.42406000  0.42619800  0.02165100  1
  H  H16  1  0.84233100  0.54091400  0.75075000  1
  H  H17  1  0.67160900  0.22644500  0.87055000  1
  H  H18  1  0.67339300  0.73535700  0.04020000  1
  H  H19  1  0.55857900  0.45142200  0.19444700  1
  H  H20  1  0.01724600  0.25982300  0.20467800  1
  H  H21  1  0.11995100  0.36890300  0.45216300  1
  H  H22  1  0.89015900  0.80796000  0.61254000  1
  H  H23  1  0.17433200  0.89855400  0.83830900  1
  H  H24  1  0.03245200  0.48305800  0.11519600  1
  H  H25  1  0.28231900  0.55711700  0.43198600  1
  H  H26  1  0.20693100  0.65626600  0.79968200  1
  H  H27  1  0.85397800  0.04097400  0.58472400  1
loop_
_geom_bond_atom_site_label_1
_geom_bond_atom_site_label_2
_geom_bond_distance
_geom_bond_site_symmetry_2
B0 H18 1.219781 1_556
B0 H8 1.231541 1_555
B0 Mg2 2.531431 1_556
B1 H14 1.222620 1_555
B1 H7 1.224944 1_556
B1 H0 1.228813 1_555
B1 H17 1.234079 1_555
B2 H19 1.214515 1_555
B2 H15 1.222456 1_555
B2 H9 1.232119 1_555
B2 H1 1.238035 1_555
B3 H2 1.211984 1_555
B3 H16 1.237764 1_555
B3 Mg2 2.513277 1_556
B4 H3 1.218078 1_555
B4 H11 1.220796 1_555
B4 H20 1.231368 1_655
B4 H24 1.233856 1_655
B5 H10 1.198029 1_555
B5 H25 1.233399 1_555
B5 H4 1.249159 1_555
B5 H21 1.250183 1_555
B6 H27 1.205733 1_565
B6 H22 1.237230 1_555
B6 H5 1.237666 1_555
B6 H13 1.242317 1_555
B7 H6 1.226810 1_555
B7 H12 1.228560 1_555
B7 H23 1.230861 1_555
B7 H26 1.239688 1_555
H0 Mg1 2.091366 1_545
H1 Mg0 1.955462 1_555
H3 Mg2 2.148550 1_555
H4 Mg0 2.006659 1_555
H5 Mg3 1.993310 1_555
H6 Mg1 2.141545 1_555
H7 Mg2 2.116886 1_555
H8 Mg3 2.128674 1_555
H9 Mg0 1.985874 1_555
H11 Mg2 2.053356 1_555
H12 Mg1 2.113200 1_555
H13 Mg1 1.944060 1_555
H14 Mg1 2.065554 1_545
H15 Mg2 2.094760 1_555
H16 Mg3 2.038326 1_555
H17 Mg2 2.050806 1_556
H19 Mg2 2.099214 1_555
H20 Mg0 2.016229 1_555
H21 Mg0 2.008799 1_555
H22 Mg3 1.988797 1_555
H23 Mg3 2.049112 1_455
H24 Mg0 1.956578 1_555
H25 Mg0 2.122687 1_555
H26 Mg3 2.018416 1_455
