# generated using pymatgen
data_AgIr
_symmetry_space_group_name_H-M   'P 1'
_cell_length_a   5.51469082
_cell_length_b   5.51469082
_cell_length_c   9.78601800
_cell_angle_alpha   90.00000000
_cell_angle_beta   90.00000000
_cell_angle_gamma   119.99998581
_symmetry_Int_Tables_number   1
_chemical_formula_structural   AgIr
_chemical_formula_sum   'Ag8 Ir8'
_cell_volume   257.73834841
_cell_formula_units_Z   8
loop_
 _symmetry_equiv_pos_site_id
 _symmetry_equiv_pos_as_xyz
  1  'x, y, z'
loop_
 _atom_site_type_symbol
 _atom_site_label
 _atom_site_symmetry_multiplicity
 _atom_site_fract_x
 _atom_site_fract_y
 _atom_site_fract_z
 _atom_site_occupancy
  Ag  Ag0_0  1  0.00000000  0.00000000  0.25000000  1
  Ag  Ag0_1  1  0.00000000  0.00000000  0.75000000  1
  Ag  Ag0_2  1  0.00000000  0.50000000  0.25000000  1
  Ag  Ag0_3  1  0.00000000  0.50000000  0.75000000  1
  Ag  Ag0_4  1  0.50000000  0.00000000  0.25000000  1
  Ag  Ag0_5  1  0.50000000  0.00000000  0.75000000  1
  Ag  Ag0_6  1  0.50000000  0.50000000  0.25000000  1
  Ag  Ag0_7  1  0.50000000  0.50000000  0.75000000  1
  Ir  Ir0_0  1  0.33333350  0.16666650  0.00000000  1
  Ir  Ir0_1  1  0.33333350  0.16666650  0.50000000  1
  Ir  Ir0_2  1  0.33333350  0.66666650  0.00000000  1
  Ir  Ir0_3  1  0.33333350  0.66666650  0.50000000  1
  Ir  Ir0_4  1  0.83333350  0.16666650  0.00000000  1
  Ir  Ir0_5  1  0.83333350  0.16666650  0.50000000  1
  Ir  Ir0_6  1  0.83333350  0.66666650  0.00000000  1
  Ir  Ir0_7  1  0.83333350  0.66666650  0.50000000  1
loop_
_geom_bond_atom_site_label_1
_geom_bond_atom_site_label_2
_geom_bond_distance
_geom_bond_site_symmetry_2
Ag0_0 Ag0_4 2.757345 1_555
Ag0_0 Ag0_4 2.757345 1_455
Ag0_0 Ag0_2 2.757345 1_545
Ag0_0 Ag0_2 2.757345 1_555
Ag0_0 Ag0_6 2.757346 1_555
Ag0_0 Ag0_6 2.757346 1_445
Ag0_0 Ir0_5 2.918852 1_455
Ag0_0 Ir0_4 2.918852 1_455
Ag0_0 Ir0_6 2.918853 1_445
Ag0_0 Ir0_7 2.918853 1_445
Ag0_0 Ir0_0 2.918853 1_555
Ag0_0 Ir0_1 2.918853 1_555
Ag0_1 Ag0_3 2.757345 1_555
Ag0_1 Ag0_5 2.757345 1_555
Ag0_1 Ag0_5 2.757345 1_455
Ag0_1 Ag0_3 2.757345 1_545
Ag0_1 Ag0_7 2.757346 1_445
Ag0_1 Ag0_7 2.757346 1_555
Ag0_1 Ir0_4 2.918852 1_456
Ag0_1 Ir0_5 2.918852 1_455
Ag0_1 Ir0_6 2.918853 1_446
Ag0_1 Ir0_7 2.918853 1_445
Ag0_1 Ir0_1 2.918853 1_555
Ag0_1 Ir0_0 2.918853 1_556
Ag0_2 Ag0_6 2.757345 1_555
Ag0_2 Ag0_6 2.757345 1_455
Ag0_2 Ag0_4 2.757346 1_565
Ag0_2 Ag0_4 2.757346 1_455
Ag0_2 Ir0_6 2.918852 1_455
Ag0_2 Ir0_7 2.918852 1_455
Ag0_2 Ir0_3 2.918853 1_555
Ag0_2 Ir0_5 2.918853 1_455
Ag0_2 Ir0_2 2.918853 1_555
Ag0_2 Ir0_4 2.918853 1_455
Ag0_3 Ag0_7 2.757345 1_555
Ag0_3 Ag0_7 2.757345 1_455
Ag0_3 Ag0_5 2.757346 1_565
Ag0_3 Ag0_5 2.757346 1_455
Ag0_3 Ir0_7 2.918852 1_455
Ag0_3 Ir0_6 2.918852 1_456
Ag0_3 Ir0_3 2.918853 1_555
Ag0_3 Ir0_5 2.918853 1_455
Ag0_3 Ir0_4 2.918853 1_456
Ag0_3 Ir0_2 2.918853 1_556
Ag0_4 Ag0_6 2.757345 1_555
Ag0_4 Ag0_6 2.757345 1_545
Ag0_4 Ir0_1 2.918852 1_555
Ag0_4 Ir0_0 2.918852 1_555
Ag0_4 Ir0_5 2.918853 1_555
Ag0_4 Ir0_2 2.918853 1_545
Ag0_4 Ir0_3 2.918853 1_545
Ag0_4 Ir0_4 2.918853 1_555
Ag0_5 Ag0_7 2.757345 1_545
Ag0_5 Ag0_7 2.757345 1_555
Ag0_5 Ir0_1 2.918852 1_555
Ag0_5 Ir0_0 2.918852 1_556
Ag0_5 Ir0_5 2.918853 1_555
Ag0_5 Ir0_2 2.918853 1_546
Ag0_5 Ir0_4 2.918853 1_556
Ag0_5 Ir0_3 2.918853 1_545
Ag0_6 Ir0_3 2.918852 1_555
Ag0_6 Ir0_2 2.918852 1_555
Ag0_6 Ir0_7 2.918853 1_555
Ag0_6 Ir0_6 2.918853 1_555
Ag0_6 Ir0_0 2.918853 1_555
Ag0_6 Ir0_1 2.918853 1_555
Ag0_7 Ir0_2 2.918852 1_556
Ag0_7 Ir0_3 2.918852 1_555
Ag0_7 Ir0_7 2.918853 1_555
Ag0_7 Ir0_6 2.918853 1_556
Ag0_7 Ir0_1 2.918853 1_555
Ag0_7 Ir0_0 2.918853 1_556
Ir0_0 Ir0_4 2.757345 1_555
Ir0_0 Ir0_2 2.757345 1_545
Ir0_0 Ir0_4 2.757345 1_455
Ir0_0 Ir0_2 2.757345 1_555
Ir0_0 Ir0_6 2.757346 1_445
Ir0_0 Ir0_6 2.757346 1_555
Ir0_1 Ir0_5 2.757345 1_555
Ir0_1 Ir0_3 2.757345 1_545
Ir0_1 Ir0_5 2.757345 1_455
Ir0_1 Ir0_3 2.757345 1_555
Ir0_1 Ir0_7 2.757346 1_555
Ir0_1 Ir0_7 2.757346 1_445
Ir0_2 Ir0_6 2.757345 1_555
Ir0_2 Ir0_6 2.757345 1_455
Ir0_2 Ir0_4 2.757346 1_455
Ir0_2 Ir0_4 2.757346 1_565
Ir0_3 Ir0_7 2.757345 1_555
Ir0_3 Ir0_7 2.757345 1_455
Ir0_3 Ir0_5 2.757346 1_565
Ir0_3 Ir0_5 2.757346 1_455
Ir0_4 Ir0_6 2.757345 1_545
Ir0_4 Ir0_6 2.757345 1_555
Ir0_5 Ir0_7 2.757345 1_545
Ir0_5 Ir0_7 2.757345 1_555
