# generated using pymatgen
data_Ce5Pb3
_symmetry_space_group_name_H-M   'P 1'
_cell_length_a   9.49462000
_cell_length_b   9.49461990
_cell_length_c   6.49840100
_cell_angle_alpha   90.00000000
_cell_angle_beta   90.00000000
_cell_angle_gamma   120.00000036
_symmetry_Int_Tables_number   1
_chemical_formula_structural   Ce5Pb3
_chemical_formula_sum   'Ce10 Pb6'
_cell_volume   507.33206041
_cell_formula_units_Z   2
loop_
 _symmetry_equiv_pos_site_id
 _symmetry_equiv_pos_as_xyz
  1  'x, y, z'
loop_
 _atom_site_type_symbol
 _atom_site_label
 _atom_site_symmetry_multiplicity
 _atom_site_fract_x
 _atom_site_fract_y
 _atom_site_fract_z
 _atom_site_occupancy
  Ce  Ce0  1  0.66666700  0.33333300  0.00000000  1
  Ce  Ce1  1  0.33333300  0.66666700  0.00000000  1
  Ce  Ce2  1  0.33333300  0.66666700  0.50000000  1
  Ce  Ce3  1  0.66666700  0.33333300  0.50000000  1
  Ce  Ce4  1  0.74611900  0.74611900  0.75000000  1
  Ce  Ce5  1  0.25388100  0.00000000  0.75000000  1
  Ce  Ce6  1  0.00000000  0.25388100  0.75000000  1
  Ce  Ce7  1  0.25388100  0.25388100  0.25000000  1
  Ce  Ce8  1  0.74611900  0.00000000  0.25000000  1
  Ce  Ce9  1  0.00000000  0.74611900  0.25000000  1
  Pb  Pb0  1  0.38746900  0.38746900  0.75000000  1
  Pb  Pb1  1  0.61253100  0.00000000  0.75000000  1
  Pb  Pb2  1  0.00000000  0.61253100  0.75000000  1
  Pb  Pb3  1  0.61253100  0.61253100  0.25000000  1
  Pb  Pb4  1  0.38746900  0.00000000  0.25000000  1
  Pb  Pb5  1  0.00000000  0.38746900  0.25000000  1
loop_
_geom_bond_atom_site_label_1
_geom_bond_atom_site_label_2
_geom_bond_distance
_geom_bond_site_symmetry_2
Ce0 Pb1 3.360533 1_554
Ce0 Pb5 3.360533 1_655
Ce0 Pb4 3.360536 1_555
Ce0 Pb2 3.360536 1_654
Ce0 Pb3 3.360541 1_555
Ce0 Pb0 3.360541 1_554
Ce1 Pb4 3.360533 1_565
Ce1 Pb2 3.360533 1_554
Ce1 Pb1 3.360536 1_564
Ce1 Pb5 3.360536 1_555
Ce1 Pb0 3.360541 1_554
Ce1 Pb3 3.360541 1_555
Ce2 Pb4 3.360533 1_565
Ce2 Pb2 3.360533 1_555
Ce2 Pb1 3.360536 1_565
Ce2 Pb5 3.360536 1_555
Ce2 Pb0 3.360541 1_555
Ce2 Pb3 3.360541 1_555
Ce3 Pb1 3.360533 1_555
Ce3 Pb5 3.360533 1_655
Ce3 Pb4 3.360536 1_555
Ce3 Pb2 3.360536 1_655
Ce3 Pb3 3.360541 1_555
Ce3 Pb0 3.360541 1_555
Ce4 Pb1 3.236771 1_565
Ce4 Pb2 3.236771 1_655
Ce4 Pb0 3.405245 1_555
Ce4 Pb3 3.487988 1_555
Ce4 Pb3 3.487988 1_556
Ce5 Pb2 3.236771 1_545
Ce5 Pb0 3.236771 1_555
Ce5 Pb1 3.405245 1_555
Ce5 Pb4 3.487988 1_555
Ce5 Pb4 3.487988 1_556
Ce6 Pb1 3.236771 1_455
Ce6 Pb0 3.236771 1_555
Ce6 Pb2 3.405245 1_555
Ce6 Pb5 3.487988 1_555
Ce6 Pb5 3.487988 1_556
Ce7 Pb4 3.236771 1_555
Ce7 Pb5 3.236771 1_555
Ce7 Pb3 3.405245 1_555
Ce7 Pb0 3.487988 1_555
Ce7 Pb0 3.487988 1_554
Ce8 Pb3 3.236771 1_545
Ce8 Pb5 3.236771 1_655
Ce8 Pb4 3.405245 1_555
Ce8 Pb1 3.487988 1_555
Ce8 Pb1 3.487988 1_554
Ce9 Pb4 3.236771 1_565
Ce9 Pb3 3.236771 1_455
Ce9 Pb5 3.405245 1_555
Ce9 Pb2 3.487988 1_554
Ce9 Pb2 3.487988 1_555
