# generated using pymatgen
data_TeW2S3
_symmetry_space_group_name_H-M   'P 1'
_cell_length_a   3.27412798
_cell_length_b   3.27412798
_cell_length_c   42.00748500
_cell_angle_alpha   90.00000000
_cell_angle_beta   90.00000000
_cell_angle_gamma   119.99999959
_symmetry_Int_Tables_number   1
_chemical_formula_structural   TeW2S3
_chemical_formula_sum   'Te2 W4 S6'
_cell_volume   389.98564098
_cell_formula_units_Z   2
loop_
 _symmetry_equiv_pos_site_id
 _symmetry_equiv_pos_as_xyz
  1  'x, y, z'
loop_
 _atom_site_type_symbol
 _atom_site_label
 _atom_site_symmetry_multiplicity
 _atom_site_fract_x
 _atom_site_fract_y
 _atom_site_fract_z
 _atom_site_occupancy
  Te  Te0  1  0.66666700  0.33333300  0.42355500  1
  Te  Te1  1  0.66666700  0.33333300  0.51578900  1
  W  W0  1  0.33333300  0.66666700  0.09372000  1
  W  W1  1  0.33333300  0.66666700  0.46967500  1
  W  W2  1  0.66666700  0.33333300  0.27948600  1
  W  W3  1  0.66666700  0.33333300  0.66004700  1
  S  S0  1  0.33333300  0.66666700  0.31623300  1
  S  S1  1  0.33333300  0.66666700  0.69681200  1
  S  S2  1  0.66666700  0.33333300  0.05695800  1
  S  S3  1  0.66666700  0.33333300  0.13048600  1
  S  S4  1  0.33333300  0.66666700  0.24271300  1
  S  S5  1  0.33333300  0.66666700  0.62327600  1
loop_
_geom_bond_atom_site_label_1
_geom_bond_atom_site_label_2
_geom_bond_distance
_geom_bond_site_symmetry_2
Te0 W1 2.706799 1_655
Te0 W1 2.706799 1_545
Te0 W1 2.706803 1_555
Te1 W1 2.706618 1_545
Te1 W1 2.706618 1_655
Te1 W1 2.706622 1_555
S0 W2 2.440522 1_455
S0 W2 2.440522 1_565
S0 W2 2.440527 1_555
S1 W3 2.441001 1_565
S1 W3 2.441001 1_455
S1 W3 2.441005 1_555
S2 W0 2.440921 1_655
S2 W0 2.440921 1_545
S2 W0 2.440925 1_555
S3 W0 2.441027 1_655
S3 W0 2.441027 1_545
S3 W0 2.441032 1_555
S4 W2 2.441213 1_455
S4 W2 2.441213 1_565
S4 W2 2.441218 1_555
S5 W3 2.441160 1_455
S5 W3 2.441160 1_565
S5 W3 2.441165 1_555
