# generated using pymatgen
data_VGa2FeCo4
_symmetry_space_group_name_H-M   'P 1'
_cell_length_a   7.02438781
_cell_length_b   7.02438781
_cell_length_c   7.02438839
_cell_angle_alpha   33.64356983
_cell_angle_beta   33.64356983
_cell_angle_gamma   33.64356823
_symmetry_Int_Tables_number   1
_chemical_formula_structural   VGa2FeCo4
_chemical_formula_sum   'V1 Ga2 Fe1 Co4'
_cell_volume   94.77383271
_cell_formula_units_Z   1
loop_
 _symmetry_equiv_pos_site_id
 _symmetry_equiv_pos_as_xyz
  1  'x, y, z'
loop_
 _atom_site_type_symbol
 _atom_site_label
 _atom_site_symmetry_multiplicity
 _atom_site_fract_x
 _atom_site_fract_y
 _atom_site_fract_z
 _atom_site_occupancy
  V  V0  1  0.50000000  0.50000000  0.50000000  1
  Ga  Ga0  1  0.25026200  0.25026200  0.25026200  1
  Ga  Ga1  1  0.74973800  0.74973800  0.74973800  1
  Fe  Fe0  1  0.00000000  0.00000000  0.00000000  1
  Co  Co0  1  0.62438700  0.62438700  0.62438700  1
  Co  Co1  1  0.12586600  0.12586600  0.12586600  1
  Co  Co2  1  0.87413400  0.87413400  0.87413400  1
  Co  Co3  1  0.37561300  0.37561300  0.37561300  1
loop_
_geom_bond_atom_site_label_1
_geom_bond_atom_site_label_2
_geom_bond_distance
_geom_bond_site_symmetry_2
Co0 V0 2.470545 1_555
Co0 Ga0 2.483197 1_565
Co0 Ga0 2.483197 1_655
Co0 Ga0 2.483197 1_556
Co0 Ga1 2.489692 1_555
Co0 Fe0 2.492996 1_566
Co0 Fe0 2.492996 1_656
Co0 Fe0 2.492996 1_665
Co1 Ga0 2.470724 1_555
Co1 V0 2.483256 1_455
Co1 V0 2.483256 1_545
Co1 V0 2.483256 1_554
Co1 Ga1 2.496461 1_454
Co1 Ga1 2.496461 1_544
Co1 Ga1 2.496461 1_445
Co1 Fe0 2.499920 1_555
Co2 Ga1 2.470724 1_555
Co2 V0 2.483256 1_655
Co2 V0 2.483256 1_565
Co2 V0 2.483256 1_556
Co2 Ga0 2.496461 1_656
Co2 Ga0 2.496461 1_566
Co2 Ga0 2.496461 1_665
Co2 Fe0 2.499920 1_666
Co3 V0 2.470545 1_555
Co3 Ga1 2.483197 1_455
Co3 Ga1 2.483197 1_545
Co3 Ga1 2.483197 1_554
Co3 Ga0 2.489692 1_555
Co3 Fe0 2.492996 1_565
Co3 Fe0 2.492996 1_655
Co3 Fe0 2.492996 1_556
