# generated using pymatgen
data_AsPHCl3OF6
_symmetry_space_group_name_H-M   'P 1'
_cell_length_a   8.65786500
_cell_length_b   8.81983300
_cell_length_c   13.13737800
_cell_angle_alpha   90.00000000
_cell_angle_beta   90.00000000
_cell_angle_gamma   90.00000000
_symmetry_Int_Tables_number   1
_chemical_formula_structural   AsPHCl3OF6
_chemical_formula_sum   'As4 P4 H4 Cl12 O4 F24'
_cell_volume   1003.18231561
_cell_formula_units_Z   4
loop_
 _symmetry_equiv_pos_site_id
 _symmetry_equiv_pos_as_xyz
  1  'x, y, z'
loop_
 _atom_site_type_symbol
 _atom_site_label
 _atom_site_symmetry_multiplicity
 _atom_site_fract_x
 _atom_site_fract_y
 _atom_site_fract_z
 _atom_site_occupancy
  As  As0  1  0.80217300  0.75000000  0.44034000  1
  As  As1  1  0.69782700  0.75000000  0.94034000  1
  As  As2  1  0.19782700  0.25000000  0.55966000  1
  As  As3  1  0.30217300  0.25000000  0.05966000  1
  P  P0  1  0.27477300  0.75000000  0.22436300  1
  P  P1  1  0.22522700  0.75000000  0.72436300  1
  P  P2  1  0.72522700  0.25000000  0.77563700  1
  P  P3  1  0.77477300  0.25000000  0.27563700  1
  H  H0  1  0.45910900  0.75000000  0.09576100  1
  H  H1  1  0.04089100  0.75000000  0.59576100  1
  H  H2  1  0.54089100  0.25000000  0.90423900  1
  H  H3  1  0.95910900  0.25000000  0.40423900  1
  Cl  Cl0  1  0.10109200  0.75000000  0.12807600  1
  Cl  Cl1  1  0.39890800  0.75000000  0.62807600  1
  Cl  Cl2  1  0.89890800  0.25000000  0.87192400  1
  Cl  Cl3  1  0.60109200  0.25000000  0.37192400  1
  Cl  Cl4  1  0.25556000  0.57162100  0.31315700  1
  Cl  Cl5  1  0.24444000  0.92837900  0.81315700  1
  Cl  Cl6  1  0.74444000  0.07162100  0.68684300  1
  Cl  Cl7  1  0.75556000  0.42837900  0.18684300  1
  Cl  Cl8  1  0.74444000  0.42837900  0.68684300  1
  Cl  Cl9  1  0.75556000  0.07162100  0.18684300  1
  Cl  Cl10  1  0.25556000  0.92837900  0.31315700  1
  Cl  Cl11  1  0.24444000  0.57162100  0.81315700  1
  O  O0  1  0.43303900  0.75000000  0.17372700  1
  O  O1  1  0.06696100  0.75000000  0.67372700  1
  O  O2  1  0.56696100  0.25000000  0.82627300  1
  O  O3  1  0.93303900  0.25000000  0.32627300  1
  F  F0  1  0.73714400  0.75000000  0.56833200  1
  F  F1  1  0.76285600  0.75000000  0.06833200  1
  F  F2  1  0.26285600  0.25000000  0.43166800  1
  F  F3  1  0.23714400  0.25000000  0.93166800  1
  F  F4  1  0.00128800  0.75000000  0.49206800  1
  F  F5  1  0.49871200  0.75000000  0.99206800  1
  F  F6  1  0.99871200  0.25000000  0.50793200  1
  F  F7  1  0.50128800  0.25000000  0.00793200  1
  F  F8  1  0.61097500  0.75000000  0.39558700  1
  F  F9  1  0.88902500  0.75000000  0.89558700  1
  F  F10  1  0.38902500  0.25000000  0.60441300  1
  F  F11  1  0.11097500  0.25000000  0.10441300  1
  F  F12  1  0.88160100  0.75000000  0.31718700  1
  F  F13  1  0.61839900  0.75000000  0.81718700  1
  F  F14  1  0.11839900  0.25000000  0.68281300  1
  F  F15  1  0.38160100  0.25000000  0.18281300  1
  F  F16  1  0.80865700  0.54982800  0.44159300  1
  F  F17  1  0.69134300  0.95017200  0.94159300  1
  F  F18  1  0.19134300  0.04982800  0.55840700  1
  F  F19  1  0.30865700  0.45017200  0.05840700  1
  F  F20  1  0.19134300  0.45017200  0.55840700  1
  F  F21  1  0.30865700  0.04982800  0.05840700  1
  F  F22  1  0.80865700  0.95017200  0.44159300  1
  F  F23  1  0.69134300  0.54982800  0.94159300  1
loop_
_geom_bond_atom_site_label_1
_geom_bond_atom_site_label_2
_geom_bond_distance
_geom_bond_site_symmetry_2
As0 F8 1.756675 1_555
As0 F12 1.757989 1_555
As0 F22 1.766453 1_555
As0 F16 1.766453 1_555
As0 F0 1.773233 1_555
As0 F4 1.853020 1_655
As1 F9 1.756675 1_555
As1 F13 1.757989 1_555
As1 F17 1.766453 1_555
As1 F23 1.766453 1_555
As1 F1 1.773233 1_556
As1 F5 1.853020 1_555
As2 F10 1.756675 1_555
As2 F14 1.757989 1_555
As2 F20 1.766453 1_555
As2 F18 1.766453 1_555
As2 F2 1.773233 1_555
As2 F6 1.853020 1_455
As3 F11 1.756675 1_555
As3 F15 1.757989 1_555
As3 F19 1.766453 1_555
As3 F21 1.766453 1_555
As3 F3 1.773233 1_554
As3 F7 1.853020 1_555
H0 O0 1.048843 1_555
H1 O1 1.048843 1_555
H2 O2 1.048843 1_555
H3 O3 1.048843 1_555
Cl0 P0 1.965007 1_555
Cl1 P1 1.965007 1_555
Cl2 P2 1.965007 1_555
Cl3 P3 1.965007 1_555
Cl4 P0 1.965611 1_555
Cl5 P1 1.965611 1_555
Cl6 P2 1.965611 1_555
Cl7 P3 1.965611 1_555
Cl8 P2 1.965611 1_555
Cl9 P3 1.965611 1_555
Cl10 P0 1.965611 1_555
Cl11 P1 1.965611 1_555
O0 P0 1.523186 1_555
O1 P1 1.523186 1_555
O2 P2 1.523186 1_555
O3 P3 1.523186 1_555
F4 H1 1.404742 1_555
F5 H0 1.404742 1_556
F6 H3 1.404742 1_555
F7 H2 1.404742 1_554
