# generated using pymatgen
data_Li(Mg2Si)2
_symmetry_space_group_name_H-M   'P 1'
_cell_length_a   4.56144400
_cell_length_b   4.56144400
_cell_length_c   6.52843800
_cell_angle_alpha   90.00000000
_cell_angle_beta   90.00000000
_cell_angle_gamma   90.00000000
_symmetry_Int_Tables_number   1
_chemical_formula_structural   Li(Mg2Si)2
_chemical_formula_sum   'Li1 Mg4 Si2'
_cell_volume   135.83571684
_cell_formula_units_Z   1
loop_
 _symmetry_equiv_pos_site_id
 _symmetry_equiv_pos_as_xyz
  1  'x, y, z'
loop_
 _atom_site_type_symbol
 _atom_site_label
 _atom_site_symmetry_multiplicity
 _atom_site_fract_x
 _atom_site_fract_y
 _atom_site_fract_z
 _atom_site_occupancy
  Li  Li0  1  0.50000000  0.50000000  0.00000000  1
  Mg  Mg0  1  0.00000000  0.50000000  0.25964900  1
  Mg  Mg1  1  0.50000000  0.00000000  0.74035100  1
  Mg  Mg2  1  0.00000000  0.50000000  0.74035100  1
  Mg  Mg3  1  0.50000000  0.00000000  0.25964900  1
  Si  Si0  1  0.00000000  0.00000000  0.00000000  1
  Si  Si1  1  0.50000000  0.50000000  0.50000000  1
loop_
_geom_bond_atom_site_label_1
_geom_bond_atom_site_label_2
_geom_bond_distance
_geom_bond_site_symmetry_2
Li0 Mg3 2.841666 1_555
Li0 Mg0 2.841666 1_555
Li0 Mg3 2.841666 1_565
Li0 Mg0 2.841666 1_655
Li0 Mg1 2.841666 1_554
Li0 Mg2 2.841666 1_554
Li0 Mg2 2.841666 1_654
Li0 Mg1 2.841666 1_564
Mg0 Si1 2.768360 1_455
Mg0 Si1 2.768360 1_555
Mg0 Si0 2.841666 1_555
Mg0 Si0 2.841666 1_565
Mg1 Si1 2.768360 1_555
Mg1 Si1 2.768360 1_545
Mg1 Si0 2.841666 1_656
Mg1 Si0 2.841666 1_556
Mg2 Si1 2.768360 1_555
Mg2 Si1 2.768360 1_455
Mg2 Si0 2.841666 1_566
Mg2 Si0 2.841666 1_556
Mg3 Si1 2.768360 1_555
Mg3 Si1 2.768360 1_545
Mg3 Si0 2.841666 1_555
Mg3 Si0 2.841666 1_655
