# generated using pymatgen
data_Lu(FeB)2
_symmetry_space_group_name_H-M   'P 1'
_cell_length_a   3.43845201
_cell_length_b   3.43845205
_cell_length_c   5.24913037
_cell_angle_alpha   109.11867841
_cell_angle_beta   109.11867486
_cell_angle_gamma   89.99998078
_symmetry_Int_Tables_number   1
_chemical_formula_structural   Lu(FeB)2
_chemical_formula_sum   'Lu1 Fe2 B2'
_cell_volume   55.00137870
_cell_formula_units_Z   1
loop_
 _symmetry_equiv_pos_site_id
 _symmetry_equiv_pos_as_xyz
  1  'x, y, z'
loop_
 _atom_site_type_symbol
 _atom_site_label
 _atom_site_symmetry_multiplicity
 _atom_site_fract_x
 _atom_site_fract_y
 _atom_site_fract_z
 _atom_site_occupancy
  Lu  Lu0  1  0.00000000  -0.00000000  -0.00000000  1
  Fe  Fe0  1  0.25000000  0.75000000  0.50000000  1
  Fe  Fe1  1  0.75000000  0.25000000  0.50000000  1
  B  B0  1  0.60629702  0.60629702  0.21259405  1
  B  B1  1  0.39370298  0.39370298  0.78740595  1
loop_
_geom_bond_atom_site_label_1
_geom_bond_atom_site_label_2
_geom_bond_distance
_geom_bond_site_symmetry_2
Fe0 Lu0 2.892440 1_566
Fe0 Lu0 2.892440 1_565
Fe0 Lu0 2.892441 1_555
Fe0 Lu0 2.892441 1_666
Fe1 Lu0 2.892440 1_655
Fe1 Lu0 2.892440 1_656
Fe1 Lu0 2.892441 1_666
Fe1 Lu0 2.892441 1_555
B0 B1 1.978011 1_554
B0 Fe0 2.177936 1_555
B0 Fe1 2.177936 1_555
B0 Fe1 2.177936 1_565
B0 Fe0 2.177936 1_655
B0 Lu0 2.624806 1_655
B0 Lu0 2.624806 1_565
B0 Lu0 2.624807 1_665
B0 Lu0 2.624807 1_555
B1 Fe1 2.177936 1_555
B1 Fe0 2.177936 1_555
B1 Fe0 2.177936 1_545
B1 Fe1 2.177936 1_455
B1 Lu0 2.624806 1_566
B1 Lu0 2.624806 1_656
B1 Lu0 2.624807 1_556
B1 Lu0 2.624807 1_666
