# generated using pymatgen
data_Li9Mn2Co5O16
_symmetry_space_group_name_H-M   'P 1'
_cell_length_a   3.01854400
_cell_length_b   5.12042605
_cell_length_c   19.49576154
_cell_angle_alpha   91.38959515
_cell_angle_beta   93.02189163
_cell_angle_gamma   104.78390039
_symmetry_Int_Tables_number   1
_chemical_formula_structural   Li9Mn2Co5O16
_chemical_formula_sum   'Li9 Mn2 Co5 O16'
_cell_volume   290.72843932
_cell_formula_units_Z   1
loop_
 _symmetry_equiv_pos_site_id
 _symmetry_equiv_pos_as_xyz
  1  'x, y, z'
loop_
 _atom_site_type_symbol
 _atom_site_label
 _atom_site_symmetry_multiplicity
 _atom_site_fract_x
 _atom_site_fract_y
 _atom_site_fract_z
 _atom_site_occupancy
  Li  Li0  1  0.31010700  0.56126000  0.06389700  1
  Li  Li1  1  0.93726000  0.68715700  0.18803200  1
  Li  Li2  1  0.56314900  0.81391400  0.31261700  1
  Li  Li3  1  0.19347000  0.93496500  0.43812400  1
  Li  Li4  1  0.81147700  0.05598800  0.56169200  1
  Li  Li5  1  0.43877900  0.19385700  0.68781900  1
  Li  Li6  1  0.05615700  0.31551400  0.81030800  1
  Li  Li7  1  0.68789000  0.43590800  0.93785800  1
  Li  Li8  1  0.12447500  0.62444900  0.62426700  1
  Mn  Mn0  1  0.00895600  0.00003900  0.00045500  1
  Mn  Mn1  1  0.37021400  0.87345300  0.87232400  1
  Co  Co0  1  0.63096700  0.12499100  0.12717300  1
  Co  Co1  1  0.25149600  0.25197300  0.25177100  1
  Co  Co2  1  0.87694600  0.37576500  0.37697600  1
  Co  Co3  1  0.50530600  0.50517100  0.50466400  1
  Co  Co4  1  0.73462100  0.74494300  0.74310500  1
  O  O0  1  0.69264300  0.26677300  0.03555500  1
  O  O1  1  0.26953900  0.38894100  0.16050800  1
  O  O2  1  0.88779100  0.51460700  0.28556900  1
  O  O3  1  0.51283900  0.63137400  0.41200000  1
  O  O4  1  0.16724300  0.75395000  0.52831400  1
  O  O5  1  0.78588900  0.90129900  0.66475600  1
  O  O6  1  0.42162800  0.01037700  0.78156300  1
  O  O7  1  0.05808300  0.14345900  0.90807200  1
  O  O8  1  0.99398200  0.86295600  0.09274900  1
  O  O9  1  0.61108900  0.98666500  0.21732300  1
  O  O10  1  0.22777300  0.10938000  0.34185200  1
  O  O11  1  0.81934400  0.24022300  0.46613600  1
  O  O12  1  0.46359400  0.34875300  0.58308700  1
  O  O13  1  0.07442500  0.49584500  0.72005200  1
  O  O14  1  0.69653800  0.61472300  0.83639900  1
  O  O15  1  0.31633000  0.73133100  0.96498400  1
loop_
_geom_bond_atom_site_label_1
_geom_bond_atom_site_label_2
_geom_bond_distance
_geom_bond_site_symmetry_2
Li0 O8 2.092886 1_455
Li0 O1 2.095448 1_555
Li0 O0 2.114156 1_455
Li0 O15 2.134079 1_554
Li0 O0 2.197241 1_555
Li0 O8 2.274236 1_555
Li1 O8 2.079982 1_555
Li1 O1 2.103401 1_655
Li1 O9 2.105899 1_555
Li1 O2 2.112567 1_555
Li1 O1 2.226564 1_555
Li1 O9 2.249056 1_655
Li2 O9 2.073075 1_555
Li2 O2 2.090194 1_555
Li2 O10 2.106955 1_565
Li2 O3 2.167303 1_555
Li2 O10 2.219728 1_665
Li2 O2 2.244041 1_455
Li3 O4 2.003331 1_555
Li3 O3 2.093666 1_555
Li3 O10 2.094193 1_565
Li3 O11 2.157159 1_565
Li3 O11 2.222882 1_465
Li3 O3 2.262362 1_455
Li4 O12 2.084029 1_555
Li4 O11 2.107012 1_555
Li4 O12 2.161744 1_655
Li4 O5 2.175548 1_545
Li4 O4 2.200236 1_645
Li4 O4 2.209038 1_545
Li5 O6 2.072179 1_555
Li5 O5 2.088561 1_545
Li5 O5 2.167353 1_445
Li5 O13 2.186102 1_655
Li5 O12 2.206375 1_555
Li5 O13 2.211160 1_555
Li6 O13 2.003729 1_555
Li6 O7 2.119398 1_555
Li6 O14 2.157209 1_455
Li6 O14 2.165567 1_555
Li6 O6 2.177364 1_455
Li6 O6 2.207863 1_555
Li7 O0 2.112226 1_556
Li7 O15 2.134803 1_655
Li7 O7 2.140641 1_555
Li7 O7 2.169911 1_655
Li7 O15 2.171501 1_555
Li7 O14 2.198334 1_555
Li8 O13 1.995560 1_555
Li8 O4 1.999434 1_555
Li8 O5 2.108889 1_455
Li8 O12 2.110545 1_555
Li8 O5 2.225727 1_555
Li8 O12 2.226197 1_455
Mn0 O8 1.945767 1_445
Mn0 O7 1.960077 1_554
Mn0 O15 1.976153 1_544
Mn0 O0 1.983530 1_455
Mn0 O0 2.227097 1_555
Mn0 O15 2.252947 1_444
Mn1 O6 1.918386 1_565
Mn1 O15 1.963092 1_555
Mn1 O14 1.977283 1_555
Mn1 O7 1.993023 1_565
Mn1 O14 2.193354 1_455
Mn1 O7 2.245904 1_665
Co0 O9 1.908936 1_545
Co0 O0 1.944496 1_555
Co0 O1 2.055220 1_555
Co0 O8 2.058050 1_545
Co0 O8 2.109819 1_445
Co0 O1 2.111934 1_655
Co1 O10 1.916044 1_555
Co1 O1 1.926599 1_555
Co1 O2 2.057844 1_455
Co1 O9 2.063947 1_545
Co1 O2 2.106437 1_555
Co1 O9 2.124156 1_445
Co2 O11 1.887377 1_555
Co2 O2 1.933368 1_555
Co2 O3 2.038908 1_555
Co2 O10 2.054070 1_655
Co2 O3 2.097613 1_655
Co2 O10 2.149051 1_555
Co3 O12 1.738719 1_555
Co3 O4 1.887104 1_555
Co3 O3 1.932668 1_555
Co3 O11 1.996307 1_555
Co3 O4 2.098344 1_655
Co3 O11 2.246127 1_455
Co4 O5 1.737557 1_555
Co4 O13 1.889294 1_655
Co4 O14 1.951341 1_555
Co4 O6 1.995648 1_565
Co4 O13 2.093031 1_555
Co4 O6 2.249022 1_665
