# generated using pymatgen
data_La4Se7S
_symmetry_space_group_name_H-M   'P 1'
_cell_length_a   4.25939101
_cell_length_b   8.52427358
_cell_length_c   8.56169694
_cell_angle_alpha   89.77256680
_cell_angle_beta   89.96274041
_cell_angle_gamma   89.93177128
_symmetry_Int_Tables_number   1
_chemical_formula_structural   La4Se7S
_chemical_formula_sum   'La4 Se7 S1'
_cell_volume   310.85719233
_cell_formula_units_Z   1
loop_
 _symmetry_equiv_pos_site_id
 _symmetry_equiv_pos_as_xyz
  1  'x, y, z'
loop_
 _atom_site_type_symbol
 _atom_site_label
 _atom_site_symmetry_multiplicity
 _atom_site_fract_x
 _atom_site_fract_y
 _atom_site_fract_z
 _atom_site_occupancy
  La  La0  1  0.27475624  0.62711684  0.71581911  1
  La  La1  1  0.78770889  0.86674480  0.27879269  1
  La  La2  1  0.71196472  0.37774546  0.27798534  1
  La  La3  1  0.21981891  0.12717830  0.72549624  1
  Se  Se0  1  0.32926503  0.88222379  0.00285334  1
  Se  Se1  1  0.82494974  0.61689881  0.99670873  1
  Se  Se2  1  0.67767163  0.11460471  -0.00051173  1
  Se  Se3  1  0.17409877  0.38544479  0.00330119  1
  Se  Se4  1  0.75779683  0.87407591  0.63387692  1
  Se  Se5  1  0.74098281  0.37552475  0.63369886  1
  Se  Se6  1  0.23921254  0.12585455  0.36649422  1
  S  S0  1  0.26177191  0.62659029  0.36548510  1
loop_
_geom_bond_atom_site_label_1
_geom_bond_atom_site_label_2
_geom_bond_distance
_geom_bond_site_symmetry_2
La0 S0 3.000021 1_555
La0 Se5 3.006225 1_555
La0 Se4 3.025506 1_555
La0 Se1 3.074819 1_455
La0 Se4 3.122753 1_455
La0 Se5 3.207570 1_455
La0 Se3 3.232087 1_556
La0 Se0 3.296433 1_556
La0 Se1 3.359794 1_555
La1 S0 2.966310 1_655
La1 Se6 3.027517 1_665
La1 Se4 3.043596 1_555
La1 Se0 3.068351 1_555
La1 S0 3.123583 1_555
La1 Se2 3.218867 1_565
La1 Se1 3.230069 1_554
La1 Se6 3.301359 1_565
La1 Se0 3.303163 1_655
La2 S0 2.956154 1_555
La2 Se6 3.038878 1_555
La2 Se5 3.048082 1_555
La2 Se3 3.066397 1_655
La2 Se1 3.185723 1_554
La2 Se6 3.194664 1_655
La2 S0 3.251425 1_655
La2 Se2 3.283573 1_555
La2 Se3 3.284679 1_555
La3 Se4 3.027952 1_445
La3 Se5 3.039348 1_455
La3 Se2 3.053043 1_556
La3 Se6 3.074788 1_555
La3 Se5 3.165863 1_555
La3 Se0 3.189987 1_546
La3 Se4 3.243498 1_545
La3 Se3 3.252968 1_556
La3 Se2 3.292183 1_456
Se0 Se2 2.476582 1_565
Se1 Se3 2.469760 1_656
