# generated using pymatgen
data_Sc2(MoO4)3
_symmetry_space_group_name_H-M   'P 1'
_cell_length_a   9.59257344
_cell_length_b   9.68452672
_cell_length_c   13.27235624
_cell_angle_alpha   90.00000000
_cell_angle_beta   90.00000000
_cell_angle_gamma   90.00000000
_symmetry_Int_Tables_number   1
_chemical_formula_structural   Sc2(MoO4)3
_chemical_formula_sum   'Sc8 Mo12 O48'
_cell_volume   1232.99570703
_cell_formula_units_Z   4
loop_
 _symmetry_equiv_pos_site_id
 _symmetry_equiv_pos_as_xyz
  1  'x, y, z'
loop_
 _atom_site_type_symbol
 _atom_site_label
 _atom_site_symmetry_multiplicity
 _atom_site_fract_x
 _atom_site_fract_y
 _atom_site_fract_z
 _atom_site_occupancy
  Sc  Sc0  1  0.25083978  0.46426867  0.11983386  1
  Sc  Sc1  1  0.25083978  0.03573133  0.88016614  1
  Sc  Sc2  1  0.24916022  0.96426867  0.38016614  1
  Sc  Sc3  1  0.24916022  0.53573133  0.61983386  1
  Sc  Sc4  1  0.74916022  0.53573133  0.88016614  1
  Sc  Sc5  1  0.74916022  0.96426867  0.11983386  1
  Sc  Sc6  1  0.75083978  0.03573133  0.61983386  1
  Sc  Sc7  1  0.75083978  0.46426867  0.38016614  1
  Mo  Mo0  1  0.39730484  0.88077280  0.64458957  1
  Mo  Mo1  1  0.39730484  0.61922720  0.35541043  1
  Mo  Mo2  1  0.10269516  0.38077280  0.85541043  1
  Mo  Mo3  1  0.10269516  0.11922720  0.14458957  1
  Mo  Mo4  1  0.89730484  0.88077280  0.85541043  1
  Mo  Mo5  1  0.89730484  0.61922720  0.14458957  1
  Mo  Mo6  1  0.60269516  0.38077280  0.64458957  1
  Mo  Mo7  1  0.60269516  0.11922720  0.35541043  1
  Mo  Mo8  1  0.02626817  0.25000000  0.50000000  1
  Mo  Mo9  1  0.47373183  0.75000000  0.00000000  1
  Mo  Mo10  1  0.97373183  0.75000000  0.50000000  1
  Mo  Mo11  1  0.52626817  0.25000000  0.00000000  1
  O  O0  1  0.13153516  0.12621547  0.43982892  1
  O  O1  1  0.13153516  0.37378453  0.56017108  1
  O  O2  1  0.36846484  0.62621547  0.06017108  1
  O  O3  1  0.36846484  0.87378453  0.93982892  1
  O  O4  1  0.86846484  0.87378453  0.56017108  1
  O  O5  1  0.86846484  0.62621547  0.43982892  1
  O  O6  1  0.63153516  0.37378453  0.93982892  1
  O  O7  1  0.63153516  0.12621547  0.06017108  1
  O  O8  1  0.91925536  0.33045786  0.40957042  1
  O  O9  1  0.91925536  0.16954214  0.59042958  1
  O  O10  1  0.58074464  0.83045786  0.09042958  1
  O  O11  1  0.58074464  0.66954214  0.90957042  1
  O  O12  1  0.08074464  0.66954214  0.59042958  1
  O  O13  1  0.08074464  0.83045786  0.40957042  1
  O  O14  1  0.41925536  0.16954214  0.90957042  1
  O  O15  1  0.41925536  0.33045786  0.09042958  1
  O  O16  1  0.17446756  0.07881254  0.02637788  1
  O  O17  1  0.17446756  0.42118746  0.97362212  1
  O  O18  1  0.32553244  0.57881254  0.47362212  1
  O  O19  1  0.32553244  0.92118746  0.52637788  1
  O  O20  1  0.82553244  0.92118746  0.97362212  1
  O  O21  1  0.82553244  0.57881254  0.02637788  1
  O  O22  1  0.67446756  0.42118746  0.52637788  1
  O  O23  1  0.67446756  0.07881254  0.47362212  1
  O  O24  1  0.92123073  0.09270739  0.14146770  1
  O  O25  1  0.92123073  0.40729261  0.85853230  1
  O  O26  1  0.57876927  0.59270739  0.35853230  1
  O  O27  1  0.57876927  0.90729261  0.64146770  1
  O  O28  1  0.07876927  0.90729261  0.85853230  1
  O  O29  1  0.07876927  0.59270739  0.14146770  1
  O  O30  1  0.42123073  0.40729261  0.64146770  1
  O  O31  1  0.42123073  0.09270739  0.35853230  1
  O  O32  1  0.17793413  0.01197806  0.23688545  1
  O  O33  1  0.17793413  0.48802194  0.76311455  1
  O  O34  1  0.32206587  0.51197806  0.26311455  1
  O  O35  1  0.32206587  0.98802194  0.73688545  1
  O  O36  1  0.82206587  0.98802194  0.76311455  1
  O  O37  1  0.82206587  0.51197806  0.23688545  1
  O  O38  1  0.67793413  0.48802194  0.73688545  1
  O  O39  1  0.67793413  0.01197806  0.26311455  1
  O  O40  1  0.13663730  0.29389833  0.17221162  1
  O  O41  1  0.13663730  0.20610167  0.82778838  1
  O  O42  1  0.36336270  0.79389833  0.32778838  1
  O  O43  1  0.36336270  0.70610167  0.67221162  1
  O  O44  1  0.86336270  0.70610167  0.82778838  1
  O  O45  1  0.86336270  0.79389833  0.17221162  1
  O  O46  1  0.63663730  0.20610167  0.67221162  1
  O  O47  1  0.63663730  0.29389833  0.32778838  1
loop_
_geom_bond_atom_site_label_1
_geom_bond_atom_site_label_2
_geom_bond_distance
_geom_bond_site_symmetry_2
Mo0 O19 1.757497 1_555
Mo0 O27 1.760044 1_555
Mo0 O35 1.760766 1_555
Mo0 O43 1.761235 1_555
Mo1 O18 1.757497 1_555
Mo1 O26 1.760044 1_555
Mo1 O34 1.760766 1_555
Mo1 O42 1.761235 1_555
Mo2 O17 1.757497 1_555
Mo2 O25 1.760044 1_455
Mo2 O33 1.760766 1_555
Mo2 O41 1.761235 1_555
Mo3 O16 1.757497 1_555
Mo3 O24 1.760044 1_455
Mo3 O32 1.760766 1_555
Mo3 O40 1.761235 1_555
Mo4 O20 1.757497 1_555
Mo4 O28 1.760044 1_655
Mo4 O36 1.760766 1_555
Mo4 O44 1.761235 1_555
Mo5 O21 1.757497 1_555
Mo5 O29 1.760044 1_655
Mo5 O37 1.760766 1_555
Mo5 O45 1.761235 1_555
Mo6 O22 1.757497 1_555
Mo6 O30 1.760044 1_555
Mo6 O38 1.760766 1_555
Mo6 O46 1.761235 1_555
Mo7 O23 1.757497 1_555
Mo7 O31 1.760044 1_555
Mo7 O39 1.760766 1_555
Mo7 O47 1.761235 1_555
Mo8 O0 1.759133 1_555
Mo8 O1 1.759133 1_555
Mo8 O9 1.761085 1_455
Mo8 O8 1.761085 1_455
Mo9 O3 1.759133 1_554
Mo9 O2 1.759133 1_555
Mo9 O11 1.761085 1_554
Mo9 O10 1.761085 1_555
Mo10 O5 1.759133 1_555
Mo10 O4 1.759133 1_555
Mo10 O13 1.761085 1_655
Mo10 O12 1.761085 1_655
Mo11 O6 1.759133 1_554
Mo11 O7 1.759133 1_555
Mo11 O14 1.761085 1_554
Mo11 O15 1.761085 1_555
O0 Sc2 2.088057 1_545
O1 Sc3 2.088057 1_555
O2 Sc0 2.088057 1_555
O3 Sc1 2.088057 1_565
O4 Sc6 2.088057 1_565
O5 Sc7 2.088057 1_555
O6 Sc4 2.088057 1_555
O7 Sc5 2.088057 1_545
O8 Sc7 2.107514 1_555
O9 Sc6 2.107514 1_555
O10 Sc5 2.107514 1_555
O11 Sc4 2.107514 1_555
O12 Sc3 2.107514 1_555
O13 Sc2 2.107514 1_555
O14 Sc1 2.107514 1_555
O15 Sc0 2.107514 1_555
O16 Sc1 2.115801 1_554
O17 Sc0 2.115801 1_556
O18 Sc3 2.115801 1_555
O19 Sc2 2.115801 1_555
O20 Sc5 2.115801 1_556
O21 Sc4 2.115801 1_554
O22 Sc7 2.115801 1_555
O23 Sc6 2.115801 1_555
O24 Sc5 2.086655 1_545
O25 Sc4 2.086655 1_555
O26 Sc7 2.086655 1_555
O27 Sc6 2.086655 1_565
O28 Sc1 2.086655 1_565
O29 Sc0 2.086655 1_555
O30 Sc3 2.086655 1_555
O31 Sc2 2.086655 1_545
O32 Sc2 2.072839 1_545
O33 Sc3 2.072839 1_555
O34 Sc0 2.072839 1_555
O35 Sc1 2.072839 1_565
O36 Sc6 2.072839 1_565
O37 Sc7 2.072839 1_555
O38 Sc4 2.072839 1_555
O39 Sc5 2.072839 1_545
O40 Sc0 2.098985 1_555
O41 Sc1 2.098985 1_555
O42 Sc2 2.098985 1_555
O43 Sc3 2.098985 1_555
O44 Sc4 2.098985 1_555
O45 Sc5 2.098985 1_555
O46 Sc6 2.098985 1_555
O47 Sc7 2.098985 1_555
