# generated using pymatgen
data_Zr(ClO4)4
_symmetry_space_group_name_H-M   'P 1'
_cell_length_a   8.27100313
_cell_length_b   8.27100313
_cell_length_c   13.87605052
_cell_angle_alpha   75.16549651
_cell_angle_beta   75.16549651
_cell_angle_gamma   63.03230164
_symmetry_Int_Tables_number   1
_chemical_formula_structural   Zr(ClO4)4
_chemical_formula_sum   'Zr2 Cl8 O32'
_cell_volume   806.97748955
_cell_formula_units_Z   2
loop_
 _symmetry_equiv_pos_site_id
 _symmetry_equiv_pos_as_xyz
  1  'x, y, z'
loop_
 _atom_site_type_symbol
 _atom_site_label
 _atom_site_symmetry_multiplicity
 _atom_site_fract_x
 _atom_site_fract_y
 _atom_site_fract_z
 _atom_site_occupancy
  Zr  Zr0  1  0.65008800  0.63633100  0.89950700  1
  Zr  Zr1  1  0.63633100  0.65008800  0.39950700  1
  Cl  Cl0  1  0.99649000  0.25530700  0.13958200  1
  Cl  Cl1  1  0.20992100  0.60653900  0.96324700  1
  Cl  Cl2  1  0.02212300  0.59916100  0.31632700  1
  Cl  Cl3  1  0.59916100  0.02212300  0.81632700  1
  Cl  Cl4  1  0.60653900  0.20992100  0.46324700  1
  Cl  Cl5  1  0.44597700  0.93843500  0.24140100  1
  Cl  Cl6  1  0.25530700  0.99649000  0.63958200  1
  Cl  Cl7  1  0.93843500  0.44597700  0.74140100  1
  O  O0  1  0.89932500  0.58102600  0.26136600  1
  O  O1  1  0.96566900  0.53962200  0.63931200  1
  O  O2  1  0.17531700  0.42830600  0.33745300  1
  O  O3  1  0.71517600  0.23819100  0.96640600  1
  O  O4  1  0.94767500  0.54879000  0.81787100  1
  O  O5  1  0.66092800  0.39263200  0.41439400  1
  O  O6  1  0.23819100  0.71517600  0.46640600  1
  O  O7  1  0.16587500  0.01019700  0.74340700  1
  O  O8  1  0.74799400  0.07130000  0.76726000  1
  O  O9  1  0.42830600  0.17531700  0.83745300  1
  O  O10  1  0.78207700  0.06013700  0.48225700  1
  O  O11  1  0.14566800  0.76073600  0.54579300  1
  O  O12  1  0.13996800  0.11940800  0.56508700  1
  O  O13  1  0.58102600  0.89932500  0.76136600  1
  O  O14  1  0.01019700  0.16587500  0.24340700  1
  O  O15  1  0.07130000  0.74799400  0.26726000  1
  O  O16  1  0.73021700  0.48001300  0.77374900  1
  O  O17  1  0.25875800  0.47720300  0.05609300  1
  O  O18  1  0.64785000  0.89191200  0.91764700  1
  O  O19  1  0.39263200  0.66092800  0.91439400  1
  O  O20  1  0.11940800  0.13996800  0.06508700  1
  O  O21  1  0.50440400  0.72397100  0.52592900  1
  O  O22  1  0.48001300  0.73021700  0.27374900  1
  O  O23  1  0.54879000  0.94767500  0.31787100  1
  O  O24  1  0.76073600  0.14566800  0.04579300  1
  O  O25  1  0.89191200  0.64785000  0.41764700  1
  O  O26  1  0.53962200  0.96566900  0.13931200  1
  O  O27  1  0.47720300  0.25875800  0.55609300  1
  O  O28  1  0.72397100  0.50440400  0.02592900  1
  O  O29  1  0.28532300  0.75656200  0.63301300  1
  O  O30  1  0.75656200  0.28532300  0.13301300  1
  O  O31  1  0.06013700  0.78207700  0.98225700  1
loop_
_geom_bond_atom_site_label_1
_geom_bond_atom_site_label_2
_geom_bond_distance
_geom_bond_site_symmetry_2
Cl0 O14 1.448260 1_655
Cl0 O20 1.448915 1_655
Cl0 O30 1.908446 1_555
Cl1 O31 1.452489 1_555
Cl1 O17 1.461565 1_556
Cl1 O19 1.697497 1_555
Cl2 O15 1.423906 1_555
Cl2 O2 1.429145 1_555
Cl2 O0 1.493007 1_455
Cl2 O25 1.555600 1_455
Cl3 O8 1.423906 1_555
Cl3 O9 1.429145 1_555
Cl3 O13 1.493007 1_545
Cl3 O18 1.555600 1_545
Cl4 O10 1.452489 1_555
Cl4 O27 1.461565 1_555
Cl4 O5 1.697497 1_555
Cl5 O26 1.445820 1_555
Cl5 O23 1.554802 1_555
Cl5 O22 1.573456 1_555
Cl6 O7 1.448260 1_565
Cl6 O12 1.448915 1_565
Cl6 O29 1.908446 1_555
Cl7 O1 1.445820 1_555
Cl7 O4 1.554802 1_555
Cl7 O16 1.573456 1_555
O0 Zr1 2.455785 1_555
O4 Zr0 2.289452 1_555
O5 Zr1 2.005455 1_555
O11 O6 1.208489 1_555
O11 O29 1.859689 1_555
O13 Zr0 2.455785 1_555
O16 Zr0 2.223032 1_555
O18 Zr0 2.183325 1_555
O19 Zr0 2.005455 1_555
O21 Zr1 1.898793 1_555
O21 O29 1.986799 1_555
O22 Zr1 2.223032 1_555
O23 Zr1 2.289452 1_555
O24 O3 1.208489 1_554
O24 O30 1.859689 1_555
O25 Zr1 2.183325 1_555
O28 Zr0 1.898793 1_554
O28 O30 1.986799 1_555
