# generated using pymatgen
data_Mg(InS2)2
_symmetry_space_group_name_H-M   'P 1'
_cell_length_a   13.11236000
_cell_length_b   7.76819200
_cell_length_c   6.39983200
_cell_angle_alpha   90.00000000
_cell_angle_beta   90.00000000
_cell_angle_gamma   90.00000000
_symmetry_Int_Tables_number   1
_chemical_formula_structural   Mg(InS2)2
_chemical_formula_sum   'Mg4 In8 S16'
_cell_volume   651.88259997
_cell_formula_units_Z   4
loop_
 _symmetry_equiv_pos_site_id
 _symmetry_equiv_pos_as_xyz
  1  'x, y, z'
loop_
 _atom_site_type_symbol
 _atom_site_label
 _atom_site_symmetry_multiplicity
 _atom_site_fract_x
 _atom_site_fract_y
 _atom_site_fract_z
 _atom_site_occupancy
  Mg  Mg0  1  0.09338900  0.25000000  0.93138700  1
  Mg  Mg1  1  0.90661100  0.75000000  0.06861300  1
  Mg  Mg2  1  0.40661100  0.75000000  0.43138700  1
  Mg  Mg3  1  0.59338900  0.25000000  0.56861300  1
  In  In0  1  0.00000000  0.00000000  0.50000000  1
  In  In1  1  0.50000000  0.00000000  0.00000000  1
  In  In2  1  0.50000000  0.50000000  0.00000000  1
  In  In3  1  0.00000000  0.50000000  0.50000000  1
  In  In4  1  0.22843800  0.75000000  0.99749900  1
  In  In5  1  0.77156200  0.25000000  0.00250100  1
  In  In6  1  0.27156200  0.25000000  0.49749900  1
  In  In7  1  0.72843800  0.75000000  0.50250100  1
  S  S0  1  0.16629400  0.00361300  0.74448500  1
  S  S1  1  0.83370600  0.99638700  0.25551500  1
  S  S2  1  0.33370600  0.99638700  0.24448500  1
  S  S3  1  0.66629400  0.00361300  0.75551500  1
  S  S4  1  0.66629400  0.49638700  0.75551500  1
  S  S5  1  0.33370600  0.50361300  0.24448500  1
  S  S6  1  0.83370600  0.50361300  0.25551500  1
  S  S7  1  0.16629400  0.49638700  0.74448500  1
  S  S8  1  0.07416500  0.75000000  0.24648600  1
  S  S9  1  0.92583500  0.25000000  0.75351400  1
  S  S10  1  0.42583500  0.25000000  0.74648600  1
  S  S11  1  0.57416500  0.75000000  0.25351400  1
  S  S12  1  0.09253800  0.25000000  0.31061300  1
  S  S13  1  0.90746200  0.75000000  0.68938700  1
  S  S14  1  0.40746200  0.75000000  0.81061300  1
  S  S15  1  0.59253800  0.25000000  0.18938700  1
loop_
_geom_bond_atom_site_label_1
_geom_bond_atom_site_label_2
_geom_bond_distance
_geom_bond_site_symmetry_2
Mg0 S12 2.427008 1_556
Mg0 S7 2.451108 1_555
Mg0 S0 2.451108 1_555
Mg0 S9 2.474427 1_455
Mg1 S13 2.427008 1_554
Mg1 S1 2.451108 1_555
Mg1 S6 2.451108 1_555
Mg1 S8 2.474427 1_655
Mg2 S14 2.427008 1_555
Mg2 S2 2.451108 1_555
Mg2 S5 2.451108 1_555
Mg2 S11 2.474427 1_555
Mg3 S15 2.427008 1_555
Mg3 S4 2.451108 1_555
Mg3 S3 2.451108 1_555
Mg3 S10 2.474427 1_555
In0 S13 2.590931 1_445
In0 S12 2.590931 1_555
In0 S0 2.683946 1_555
In0 S1 2.683946 1_445
In0 S9 2.711014 1_455
In0 S8 2.711014 1_545
In1 S15 2.590931 1_555
In1 S14 2.590931 1_544
In1 S3 2.683946 1_554
In1 S2 2.683946 1_545
In1 S11 2.711014 1_545
In1 S10 2.711014 1_554
In2 S15 2.590931 1_555
In2 S14 2.590931 1_554
In2 S4 2.683946 1_554
In2 S5 2.683946 1_555
In2 S11 2.711014 1_555
In2 S10 2.711014 1_554
In3 S13 2.590931 1_455
In3 S12 2.590931 1_555
In3 S7 2.683946 1_555
In3 S6 2.683946 1_455
In3 S9 2.711014 1_455
In3 S8 2.711014 1_555
In4 S8 2.575115 1_556
In4 S14 2.634563 1_555
In4 S0 2.677181 1_565
In4 S7 2.677181 1_555
In4 S2 2.840264 1_556
In4 S5 2.840264 1_556
In5 S9 2.575115 1_554
In5 S15 2.634563 1_555
In5 S6 2.677181 1_555
In5 S1 2.677181 1_545
In5 S4 2.840264 1_554
In5 S3 2.840264 1_554
In6 S10 2.575115 1_555
In6 S12 2.634563 1_555
In6 S5 2.677181 1_555
In6 S2 2.677181 1_545
In6 S7 2.840264 1_555
In6 S0 2.840264 1_555
In7 S11 2.575115 1_555
In7 S13 2.634563 1_555
In7 S3 2.677181 1_565
In7 S4 2.677181 1_555
In7 S1 2.840264 1_555
In7 S6 2.840264 1_555
