# generated using pymatgen
data_SrEuDyMnO6
_symmetry_space_group_name_H-M   'P 1'
_cell_length_a   5.68977469
_cell_length_b   5.68977392
_cell_length_c   5.68977428
_cell_angle_alpha   60.00005369
_cell_angle_beta   60.00005579
_cell_angle_gamma   60.00001320
_symmetry_Int_Tables_number   1
_chemical_formula_structural   SrEuDyMnO6
_chemical_formula_sum   'Sr1 Eu1 Dy1 Mn1 O6'
_cell_volume   130.24783778
_cell_formula_units_Z   1
loop_
 _symmetry_equiv_pos_site_id
 _symmetry_equiv_pos_as_xyz
  1  'x, y, z'
loop_
 _atom_site_type_symbol
 _atom_site_label
 _atom_site_symmetry_multiplicity
 _atom_site_fract_x
 _atom_site_fract_y
 _atom_site_fract_z
 _atom_site_occupancy
  Sr  Sr0  1  0.25000010  0.24999969  0.24999988  1
  Eu  Eu0  1  0.75000031  0.74999957  0.74999938  1
  Dy  Dy0  1  0.00000040  0.99999874  0.99999968  1
  Mn  Mn0  1  0.49999871  0.50000271  0.50000129  1
  O  O0  1  0.73160087  0.26839882  0.26839917  1
  O  O1  1  0.26839943  0.73160082  0.73160057  1
  O  O2  1  0.73160085  0.26839893  0.73160086  1
  O  O3  1  0.26839913  0.73160091  0.26839913  1
  O  O4  1  0.73160091  0.73160106  0.26839916  1
  O  O5  1  0.26839927  0.26839876  0.73160087  1
loop_
_geom_bond_atom_site_label_1
_geom_bond_atom_site_label_2
_geom_bond_distance
_geom_bond_site_symmetry_2
Eu0 O4 2.848732 1_555
Eu0 O2 2.848734 1_555
Eu0 O1 2.848735 1_555
Eu0 O3 2.848737 1_655
Eu0 O5 2.848737 1_655
Eu0 O0 2.848738 1_565
Eu0 O5 2.848738 1_565
Eu0 O2 2.848739 1_565
Eu0 O1 2.848739 1_655
Eu0 O0 2.848741 1_556
Eu0 O4 2.848742 1_556
Eu0 O3 2.848742 1_556
Dy0 O1 2.159684 1_555
Dy0 O4 2.159686 1_456
Dy0 O3 2.159689 1_556
Dy0 O2 2.159689 1_465
Dy0 O5 2.159693 1_565
Dy0 O0 2.159694 1_466
Mn0 O1 1.863572 1_555
Mn0 O4 1.863586 1_555
Mn0 O2 1.863589 1_555
Mn0 O3 1.863590 1_555
Mn0 O5 1.863597 1_555
Mn0 O0 1.863607 1_555
O0 Sr0 2.848737 1_555
O0 Sr0 2.848737 1_655
O1 Sr0 2.848738 1_565
O1 Sr0 2.848740 1_556
O2 Sr0 2.848739 1_556
O2 Sr0 2.848740 1_655
O3 Sr0 2.848735 1_565
O3 Sr0 2.848739 1_555
O4 Sr0 2.848736 1_565
O4 Sr0 2.848739 1_655
O5 Sr0 2.848736 1_556
O5 Sr0 2.848737 1_555
