# generated using pymatgen
data_BeH24C8S4(ClO2)2
_symmetry_space_group_name_H-M   'P 1'
_cell_length_a   9.88316799
_cell_length_b   19.58822982
_cell_length_c   21.94676111
_cell_angle_alpha   90.00000000
_cell_angle_beta   90.00000000
_cell_angle_gamma   90.00000000
_symmetry_Int_Tables_number   1
_chemical_formula_structural   BeH24C8S4(ClO2)2
_chemical_formula_sum   'Be8 H192 C64 S32 Cl16 O32'
_cell_volume   4248.75613342
_cell_formula_units_Z   8
loop_
 _symmetry_equiv_pos_site_id
 _symmetry_equiv_pos_as_xyz
  1  'x, y, z'
loop_
 _atom_site_type_symbol
 _atom_site_label
 _atom_site_symmetry_multiplicity
 _atom_site_fract_x
 _atom_site_fract_y
 _atom_site_fract_z
 _atom_site_occupancy
  Be  Be0  1  0.26358023  0.13304147  0.13034138  1
  Be  Be1  1  0.76358023  0.36695853  0.86965862  1
  Be  Be2  1  0.73641977  0.63304147  0.36965862  1
  Be  Be3  1  0.23641977  0.86695853  0.63034138  1
  Be  Be4  1  0.73641977  0.86695853  0.86965862  1
  Be  Be5  1  0.23641977  0.63304147  0.13034138  1
  Be  Be6  1  0.26358023  0.36695853  0.63034138  1
  Be  Be7  1  0.76358023  0.13304147  0.36965862  1
  H  H0  1  0.57408627  0.05146231  0.05974214  1
  H  H1  1  0.07408627  0.44853769  0.94025786  1
  H  H2  1  0.42591373  0.55146231  0.44025786  1
  H  H3  1  0.92591373  0.94853769  0.55974214  1
  H  H4  1  0.42591373  0.94853769  0.94025786  1
  H  H5  1  0.92591373  0.55146231  0.05974214  1
  H  H6  1  0.57408627  0.44853769  0.55974214  1
  H  H7  1  0.07408627  0.05146231  0.44025786  1
  H  H8  1  0.62790672  0.97250764  0.09430888  1
  H  H9  1  0.12790672  0.52749236  0.90569112  1
  H  H10  1  0.37209328  0.47250764  0.40569112  1
  H  H11  1  0.87209328  0.02749236  0.59430888  1
  H  H12  1  0.37209328  0.02749236  0.90569112  1
  H  H13  1  0.87209328  0.47250764  0.09430888  1
  H  H14  1  0.62790672  0.52749236  0.59430888  1
  H  H15  1  0.12790672  0.97250764  0.40569112  1
  H  H16  1  0.46734757  0.97527840  0.05405256  1
  H  H17  1  0.96734757  0.52472160  0.94594744  1
  H  H18  1  0.53265243  0.47527840  0.44594744  1
  H  H19  1  0.03265243  0.02472160  0.55405256  1
  H  H20  1  0.53265243  0.02472160  0.94594744  1
  H  H21  1  0.03265243  0.47527840  0.05405256  1
  H  H22  1  0.46734757  0.52472160  0.55405256  1
  H  H23  1  0.96734757  0.97527840  0.44594744  1
  H  H24  1  0.35442324  0.94194325  0.21644830  1
  H  H25  1  0.85442324  0.55805675  0.78355170  1
  H  H26  1  0.64557676  0.44194325  0.28355170  1
  H  H27  1  0.14557676  0.05805675  0.71644830  1
  H  H28  1  0.64557676  0.05805675  0.78355170  1
  H  H29  1  0.14557676  0.44194325  0.21644830  1
  H  H30  1  0.35442324  0.55805675  0.71644830  1
  H  H31  1  0.85442324  0.94194325  0.28355170  1
  H  H32  1  0.35950145  0.91617617  0.13656350  1
  H  H33  1  0.85950145  0.58382383  0.86343650  1
  H  H34  1  0.64049855  0.41617617  0.36343650  1
  H  H35  1  0.14049855  0.08382383  0.63656350  1
  H  H36  1  0.64049855  0.08382383  0.86343650  1
  H  H37  1  0.14049855  0.41617617  0.13656350  1
  H  H38  1  0.35950145  0.58382383  0.63656350  1
  H  H39  1  0.85950145  0.91617617  0.36343650  1
  H  H40  1  0.51286944  0.91473765  0.18262315  1
  H  H41  1  0.01286944  0.58526235  0.81737685  1
  H  H42  1  0.48713056  0.41473765  0.31737685  1
  H  H43  1  0.98713056  0.08526235  0.68262315  1
  H  H44  1  0.48713056  0.08526235  0.81737685  1
  H  H45  1  0.98713056  0.41473765  0.18262315  1
  H  H46  1  0.51286944  0.58526235  0.68262315  1
  H  H47  1  0.01286944  0.91473765  0.31737685  1
  H  H48  1  0.54595657  0.20625477  0.27015761  1
  H  H49  1  0.04595657  0.29374523  0.72984239  1
  H  H50  1  0.45404343  0.70625477  0.22984239  1
  H  H51  1  0.95404343  0.79374523  0.77015761  1
  H  H52  1  0.45404343  0.79374523  0.72984239  1
  H  H53  1  0.95404343  0.70625477  0.27015761  1
  H  H54  1  0.54595657  0.29374523  0.77015761  1
  H  H55  1  0.04595657  0.20625477  0.22984239  1
  H  H56  1  0.56887584  0.29322021  0.24535413  1
  H  H57  1  0.06887584  0.20677979  0.75464587  1
  H  H58  1  0.43112416  0.79322021  0.25464587  1
  H  H59  1  0.93112416  0.70677979  0.74535413  1
  H  H60  1  0.43112416  0.70677979  0.75464587  1
  H  H61  1  0.93112416  0.79322021  0.24535413  1
  H  H62  1  0.56887584  0.20677979  0.74535413  1
  H  H63  1  0.06887584  0.29322021  0.25464587  1
  H  H64  1  0.40934122  0.26781327  0.27893326  1
  H  H65  1  0.90934122  0.23218673  0.72106674  1
  H  H66  1  0.59065878  0.76781327  0.22106674  1
  H  H67  1  0.09065878  0.73218673  0.77893326  1
  H  H68  1  0.59065878  0.73218673  0.72106674  1
  H  H69  1  0.09065878  0.76781327  0.27893326  1
  H  H70  1  0.40934122  0.23218673  0.77893326  1
  H  H71  1  0.90934122  0.26781327  0.22106674  1
  H  H72  1  0.31615406  0.31251606  0.11504371  1
  H  H73  1  0.81615406  0.18748394  0.88495629  1
  H  H74  1  0.68384594  0.81251606  0.38495629  1
  H  H75  1  0.18384594  0.68748394  0.61504371  1
  H  H76  1  0.68384594  0.68748394  0.88495629  1
  H  H77  1  0.18384594  0.81251606  0.11504371  1
  H  H78  1  0.31615406  0.18748394  0.61504371  1
  H  H79  1  0.81615406  0.31251606  0.38495629  1
  H  H80  1  0.29034702  0.32492126  0.19698473  1
  H  H81  1  0.79034702  0.17507874  0.80301527  1
  H  H82  1  0.70965298  0.82492126  0.30301527  1
  H  H83  1  0.20965298  0.67507874  0.69698473  1
  H  H84  1  0.70965298  0.67507874  0.80301527  1
  H  H85  1  0.20965298  0.82492126  0.19698473  1
  H  H86  1  0.29034702  0.17507874  0.69698473  1
  H  H87  1  0.79034702  0.32492126  0.30301527  1
  H  H88  1  0.44676266  0.35102261  0.16157444  1
  H  H89  1  0.94676266  0.14897739  0.83842556  1
  H  H90  1  0.55323734  0.85102261  0.33842556  1
  H  H91  1  0.05323734  0.64897739  0.66157444  1
  H  H92  1  0.55323734  0.64897739  0.83842556  1
  H  H93  1  0.05323734  0.85102261  0.16157444  1
  H  H94  1  0.44676266  0.14897739  0.66157444  1
  H  H95  1  0.94676266  0.35102261  0.33842556  1
  H  H96  1  0.49717855  0.17482570  0.96938469  1
  H  H97  1  0.99717855  0.32517430  0.03061531  1
  H  H98  1  0.50282145  0.67482570  0.53061531  1
  H  H99  1  0.00282145  0.82517430  0.46938469  1
  H  H100  1  0.50282145  0.82517430  0.03061531  1
  H  H101  1  0.00282145  0.67482570  0.96938469  1
  H  H102  1  0.49717855  0.32517430  0.46938469  1
  H  H103  1  0.99717855  0.17482570  0.53061531  1
  H  H104  1  0.36951263  0.17956935  0.90972633  1
  H  H105  1  0.86951263  0.32043065  0.09027367  1
  H  H106  1  0.63048737  0.67956935  0.59027367  1
  H  H107  1  0.13048737  0.82043065  0.40972633  1
  H  H108  1  0.63048737  0.82043065  0.09027367  1
  H  H109  1  0.13048737  0.67956935  0.90972633  1
  H  H110  1  0.36951263  0.32043065  0.40972633  1
  H  H111  1  0.86951263  0.17956935  0.59027367  1
  H  H112  1  0.37909600  0.24685744  0.96661608  1
  H  H113  1  0.87909600  0.25314256  0.03338392  1
  H  H114  1  0.62090400  0.74685744  0.53338392  1
  H  H115  1  0.12090400  0.75314256  0.46661608  1
  H  H116  1  0.62090400  0.75314256  0.03338392  1
  H  H117  1  0.12090400  0.74685744  0.96661608  1
  H  H118  1  0.37909600  0.25314256  0.46661608  1
  H  H119  1  0.87909600  0.24685744  0.53338392  1
  H  H120  1  0.03872105  0.16684524  0.00054987  1
  H  H121  1  0.53872105  0.33315476  0.99945013  1
  H  H122  1  0.96127895  0.66684524  0.49945013  1
  H  H123  1  0.46127895  0.83315476  0.50054987  1
  H  H124  1  0.96127895  0.83315476  0.99945013  1
  H  H125  1  0.46127895  0.66684524  0.00054987  1
  H  H126  1  0.03872105  0.33315476  0.50054987  1
  H  H127  1  0.53872105  0.16684524  0.49945013  1
  H  H128  1  0.13934035  0.24275805  0.98353539  1
  H  H129  1  0.63934035  0.25724195  0.01646461  1
  H  H130  1  0.86065965  0.74275805  0.51646461  1
  H  H131  1  0.36065965  0.75724195  0.48353539  1
  H  H132  1  0.86065965  0.75724195  0.01646461  1
  H  H133  1  0.36065965  0.74275805  0.98353539  1
  H  H134  1  0.13934035  0.25724195  0.48353539  1
  H  H135  1  0.63934035  0.24275805  0.51646461  1
  H  H136  1  0.11884341  0.17564525  0.92704262  1
  H  H137  1  0.61884341  0.32435475  0.07295738  1
  H  H138  1  0.88115659  0.67564525  0.57295738  1
  H  H139  1  0.38115659  0.82435475  0.42704262  1
  H  H140  1  0.88115659  0.82435475  0.07295738  1
  H  H141  1  0.38115659  0.67564525  0.92704262  1
  H  H142  1  0.11884341  0.32435475  0.42704262  1
  H  H143  1  0.61884341  0.17564525  0.57295738  1
  H  H144  1  0.10024086  0.99206265  0.06992689  1
  H  H145  1  0.60024086  0.50793735  0.93007311  1
  H  H146  1  0.89975914  0.49206265  0.43007311  1
  H  H147  1  0.39975914  0.00793735  0.56992689  1
  H  H148  1  0.89975914  0.00793735  0.93007311  1
  H  H149  1  0.39975914  0.49206265  0.06992689  1
  H  H150  1  0.10024086  0.50793735  0.56992689  1
  H  H151  1  0.60024086  0.99206265  0.43007311  1
  H  H152  1  0.93362788  0.96906789  0.09706456  1
  H  H153  1  0.43362788  0.53093211  0.90293544  1
  H  H154  1  0.06637212  0.46906789  0.40293544  1
  H  H155  1  0.56637212  0.03093211  0.59706456  1
  H  H156  1  0.06637212  0.03093211  0.90293544  1
  H  H157  1  0.56637212  0.46906789  0.09706456  1
  H  H158  1  0.93362788  0.53093211  0.59706456  1
  H  H159  1  0.43362788  0.96906789  0.40293544  1
  H  H160  1  0.95300791  0.04550402  0.05163357  1
  H  H161  1  0.45300791  0.45449598  0.94836643  1
  H  H162  1  0.04699209  0.54550402  0.44836643  1
  H  H163  1  0.54699209  0.95449598  0.55163357  1
  H  H164  1  0.04699209  0.95449598  0.94836643  1
  H  H165  1  0.54699209  0.54550402  0.05163357  1
  H  H166  1  0.95300791  0.45449598  0.55163357  1
  H  H167  1  0.45300791  0.04550402  0.44836643  1
  H  H168  1  0.85207811  0.11825503  0.20500989  1
  H  H169  1  0.35207811  0.38174497  0.79499011  1
  H  H170  1  0.14792189  0.61825503  0.29499011  1
  H  H171  1  0.64792189  0.88174497  0.70500989  1
  H  H172  1  0.14792189  0.88174497  0.79499011  1
  H  H173  1  0.64792189  0.61825503  0.20500989  1
  H  H174  1  0.85207811  0.38174497  0.70500989  1
  H  H175  1  0.35207811  0.11825503  0.29499011  1
  H  H176  1  0.81971509  0.11038287  0.12338082  1
  H  H177  1  0.31971509  0.38961713  0.87661918  1
  H  H178  1  0.18028491  0.61038287  0.37661918  1
  H  H179  1  0.68028491  0.88961713  0.62338082  1
  H  H180  1  0.18028491  0.88961713  0.87661918  1
  H  H181  1  0.68028491  0.61038287  0.12338082  1
  H  H182  1  0.81971509  0.38961713  0.62338082  1
  H  H183  1  0.31971509  0.11038287  0.37661918  1
  H  H184  1  0.79856263  0.03742100  0.17354175  1
  H  H185  1  0.29856263  0.46257900  0.82645825  1
  H  H186  1  0.20143737  0.53742100  0.32645825  1
  H  H187  1  0.70143737  0.96257900  0.67354175  1
  H  H188  1  0.20143737  0.96257900  0.82645825  1
  H  H189  1  0.70143737  0.53742100  0.17354175  1
  H  H190  1  0.79856263  0.46257900  0.67354175  1
  H  H191  1  0.29856263  0.03742100  0.32645825  1
  C  C0  1  0.53983012  0.00412212  0.08198054  1
  C  C1  1  0.03983012  0.49587788  0.91801946  1
  C  C2  1  0.46016988  0.50412212  0.41801946  1
  C  C3  1  0.96016988  0.99587788  0.58198054  1
  C  C4  1  0.46016988  0.99587788  0.91801946  1
  C  C5  1  0.96016988  0.50412212  0.08198054  1
  C  C6  1  0.53983012  0.49587788  0.58198054  1
  C  C7  1  0.03983012  0.00412212  0.41801946  1
  C  C8  1  0.41493783  0.94006135  0.17439380  1
  C  C9  1  0.91493783  0.55993865  0.82560620  1
  C  C10  1  0.58506217  0.44006135  0.32560620  1
  C  C11  1  0.08506217  0.05993865  0.67439380  1
  C  C12  1  0.58506217  0.05993865  0.82560620  1
  C  C13  1  0.08506217  0.44006135  0.17439380  1
  C  C14  1  0.41493783  0.55993865  0.67439380  1
  C  C15  1  0.91493783  0.94006135  0.32560620  1
  C  C16  1  0.49571166  0.25138672  0.25107670  1
  C  C17  1  0.99571166  0.24861328  0.74892330  1
  C  C18  1  0.50428834  0.75138672  0.24892330  1
  C  C19  1  0.00428834  0.74861328  0.75107670  1
  C  C20  1  0.50428834  0.74861328  0.74892330  1
  C  C21  1  0.00428834  0.75138672  0.25107670  1
  C  C22  1  0.49571166  0.24861328  0.75107670  1
  C  C23  1  0.99571166  0.25138672  0.24892330  1
  C  C24  1  0.36297850  0.31386874  0.16049161  1
  C  C25  1  0.86297850  0.18613126  0.83950839  1
  C  C26  1  0.63702150  0.81386874  0.33950839  1
  C  C27  1  0.13702150  0.68613126  0.66049161  1
  C  C28  1  0.63702150  0.68613126  0.83950839  1
  C  C29  1  0.13702150  0.81386874  0.16049161  1
  C  C30  1  0.36297850  0.18613126  0.66049161  1
  C  C31  1  0.86297850  0.31386874  0.33950839  1
  C  C32  1  0.39463342  0.19231714  0.95725861  1
  C  C33  1  0.89463342  0.30768286  0.04274139  1
  C  C34  1  0.60536658  0.69231714  0.54274139  1
  C  C35  1  0.10536658  0.80768286  0.45725861  1
  C  C36  1  0.60536658  0.80768286  0.04274139  1
  C  C37  1  0.10536658  0.69231714  0.95725861  1
  C  C38  1  0.39463342  0.30768286  0.45725861  1
  C  C39  1  0.89463342  0.19231714  0.54274139  1
  C  C40  1  0.12620500  0.18772854  0.97595295  1
  C  C41  1  0.62620500  0.31227146  0.02404705  1
  C  C42  1  0.87379500  0.68772854  0.52404705  1
  C  C43  1  0.37379500  0.81227146  0.47595295  1
  C  C44  1  0.87379500  0.81227146  0.02404705  1
  C  C45  1  0.37379500  0.68772854  0.97595295  1
  C  C46  1  0.12620500  0.31227146  0.47595295  1
  C  C47  1  0.62620500  0.18772854  0.52404705  1
  C  C48  1  0.00163049  0.01160798  0.08506867  1
  C  C49  1  0.50163049  0.48839202  0.91493133  1
  C  C50  1  0.99836951  0.51160798  0.41493133  1
  C  C51  1  0.49836951  0.98839202  0.58506867  1
  C  C52  1  0.99836951  0.98839202  0.91493133  1
  C  C53  1  0.49836951  0.51160798  0.08506867  1
  C  C54  1  0.00163049  0.48839202  0.58506867  1
  C  C55  1  0.50163049  0.01160798  0.41493133  1
  C  C56  1  0.85542187  0.08473293  0.16498371  1
  C  C57  1  0.35542187  0.41526707  0.83501629  1
  C  C58  1  0.14457813  0.58473293  0.33501629  1
  C  C59  1  0.64457813  0.91526707  0.66498371  1
  C  C60  1  0.14457813  0.91526707  0.83501629  1
  C  C61  1  0.64457813  0.58473293  0.16498371  1
  C  C62  1  0.85542187  0.41526707  0.66498371  1
  C  C63  1  0.35542187  0.08473293  0.33501629  1
  S  S0  1  0.45658540  0.02467305  0.15179614  1
  S  S1  1  0.95658540  0.47532695  0.84820386  1
  S  S2  1  0.54341460  0.52467305  0.34820386  1
  S  S3  1  0.04341460  0.97532695  0.65179614  1
  S  S4  1  0.54341460  0.97532695  0.84820386  1
  S  S5  1  0.04341460  0.52467305  0.15179614  1
  S  S6  1  0.45658540  0.47532695  0.65179614  1
  S  S7  1  0.95658540  0.02467305  0.34820386  1
  S  S8  1  0.44004228  0.23304919  0.17550736  1
  S  S9  1  0.94004228  0.26695081  0.82449264  1
  S  S10  1  0.55995772  0.73304919  0.32449264  1
  S  S11  1  0.05995772  0.76695081  0.67550736  1
  S  S12  1  0.55995772  0.76695081  0.82449264  1
  S  S13  1  0.05995772  0.73304919  0.17550736  1
  S  S14  1  0.44004228  0.26695081  0.67550736  1
  S  S15  1  0.94004228  0.23304919  0.32449264  1
  S  S16  1  0.27609931  0.14562749  0.00192294  1
  S  S17  1  0.77609931  0.35437251  0.99807706  1
  S  S18  1  0.72390069  0.64562749  0.49807706  1
  S  S19  1  0.22390069  0.85437251  0.50192294  1
  S  S20  1  0.72390069  0.85437251  0.99807706  1
  S  S21  1  0.22390069  0.64562749  0.00192294  1
  S  S22  1  0.27609931  0.35437251  0.50192294  1
  S  S23  1  0.77609931  0.14562749  0.49807706  1
  S  S24  1  0.02648160  0.05793221  0.15445008  1
  S  S25  1  0.52648160  0.44206779  0.84554992  1
  S  S26  1  0.97351840  0.55793221  0.34554992  1
  S  S27  1  0.47351840  0.94206779  0.65445008  1
  S  S28  1  0.97351840  0.94206779  0.84554992  1
  S  S29  1  0.47351840  0.55793221  0.15445008  1
  S  S30  1  0.02648160  0.44206779  0.65445008  1
  S  S31  1  0.52648160  0.05793221  0.34554992  1
  Cl  Cl0  1  0.77932090  0.88826039  0.17617417  1
  Cl  Cl1  1  0.27932090  0.61173961  0.82382583  1
  Cl  Cl2  1  0.22067910  0.38826039  0.32382583  1
  Cl  Cl3  1  0.72067910  0.11173961  0.67617417  1
  Cl  Cl4  1  0.22067910  0.11173961  0.82382583  1
  Cl  Cl5  1  0.72067910  0.38826039  0.17617417  1
  Cl  Cl6  1  0.77932090  0.61173961  0.67617417  1
  Cl  Cl7  1  0.27932090  0.88826039  0.32382583  1
  Cl  Cl8  1  0.74573730  0.12404085  0.99424687  1
  Cl  Cl9  1  0.24573730  0.37595915  0.00575313  1
  Cl  Cl10  1  0.25426270  0.62404085  0.50575313  1
  Cl  Cl11  1  0.75426270  0.87595915  0.49424687  1
  Cl  Cl12  1  0.25426270  0.87595915  0.00575313  1
  Cl  Cl13  1  0.75426270  0.62404085  0.99424687  1
  Cl  Cl14  1  0.74573730  0.37595915  0.49424687  1
  Cl  Cl15  1  0.24573730  0.12404085  0.50575313  1
  O  O0  1  0.31808529  0.05452219  0.13261031  1
  O  O1  1  0.81808529  0.44547781  0.86738969  1
  O  O2  1  0.68191471  0.55452219  0.36738969  1
  O  O3  1  0.18191471  0.94547781  0.63261031  1
  O  O4  1  0.68191471  0.94547781  0.86738969  1
  O  O5  1  0.18191471  0.55452219  0.13261031  1
  O  O6  1  0.31808529  0.44547781  0.63261031  1
  O  O7  1  0.81808529  0.05452219  0.36738969  1
  O  O8  1  0.32232809  0.18126727  0.18543386  1
  O  O9  1  0.82232809  0.31873273  0.81456614  1
  O  O10  1  0.67767191  0.68126727  0.31456614  1
  O  O11  1  0.17767191  0.81873273  0.68543386  1
  O  O12  1  0.67767191  0.81873273  0.81456614  1
  O  O13  1  0.17767191  0.68126727  0.18543386  1
  O  O14  1  0.32232809  0.31873273  0.68543386  1
  O  O15  1  0.82232809  0.18126727  0.31456614  1
  O  O16  1  0.30148739  0.17273451  0.06748222  1
  O  O17  1  0.80148739  0.32726549  0.93251778  1
  O  O18  1  0.69851261  0.67273451  0.43251778  1
  O  O19  1  0.19851261  0.82726549  0.56748222  1
  O  O20  1  0.69851261  0.82726549  0.93251778  1
  O  O21  1  0.19851261  0.67273451  0.06748222  1
  O  O22  1  0.30148739  0.32726549  0.56748222  1
  O  O23  1  0.80148739  0.17273451  0.43251778  1
  O  O24  1  0.09887864  0.12566756  0.13702133  1
  O  O25  1  0.59887864  0.37433244  0.86297867  1
  O  O26  1  0.90112136  0.62566756  0.36297867  1
  O  O27  1  0.40112136  0.87433244  0.63702133  1
  O  O28  1  0.90112136  0.87433244  0.86297867  1
  O  O29  1  0.40112136  0.62566756  0.13702133  1
  O  O30  1  0.09887864  0.37433244  0.63702133  1
  O  O31  1  0.59887864  0.12566756  0.36297867  1
loop_
_geom_bond_atom_site_label_1
_geom_bond_atom_site_label_2
_geom_bond_distance
_geom_bond_site_symmetry_2
Be0 O16 1.627286 1_555
Be0 O0 1.630420 1_555
Be0 O8 1.640554 1_555
Be0 O24 1.640732 1_555
Be1 O17 1.627286 1_555
Be1 O1 1.630420 1_555
Be1 O9 1.640554 1_555
Be1 O25 1.640732 1_555
Be2 O18 1.627286 1_555
Be2 O2 1.630420 1_555
Be2 O10 1.640554 1_555
Be2 O26 1.640732 1_555
Be3 O19 1.627286 1_555
Be3 O3 1.630420 1_555
Be3 O11 1.640554 1_555
Be3 O27 1.640732 1_555
Be4 O20 1.627286 1_555
Be4 O4 1.630420 1_555
Be4 O12 1.640554 1_555
Be4 O28 1.640732 1_555
Be5 O21 1.627286 1_555
Be5 O5 1.630420 1_555
Be5 O13 1.640554 1_555
Be5 O29 1.640732 1_555
Be6 O22 1.627286 1_555
Be6 O6 1.630420 1_555
Be6 O14 1.640554 1_555
Be6 O30 1.640732 1_555
Be7 O23 1.627286 1_555
Be7 O7 1.630420 1_555
Be7 O15 1.640554 1_555
Be7 O31 1.640732 1_555
C0 H16 1.099123 1_545
C0 H0 1.101240 1_555
C0 H8 1.102013 1_545
C0 S0 1.785116 1_555
C1 H17 1.099123 1_455
C1 H1 1.101240 1_555
C1 H9 1.102013 1_555
C1 S1 1.785116 1_455
C2 H18 1.099123 1_555
C2 H2 1.101240 1_555
C2 H10 1.102013 1_555
C2 S2 1.785116 1_555
C3 H19 1.099123 1_665
C3 H3 1.101240 1_555
C3 H11 1.102013 1_565
C3 S3 1.785116 1_655
C4 H20 1.099123 1_565
C4 H4 1.101240 1_555
C4 H12 1.102013 1_565
C4 S4 1.785116 1_555
C5 H21 1.099123 1_655
C5 H5 1.101240 1_555
C5 H13 1.102013 1_555
C5 S5 1.785116 1_655
C6 H22 1.099123 1_555
C6 H6 1.101240 1_555
C6 H14 1.102013 1_555
C6 S6 1.785116 1_555
C7 H23 1.099123 1_445
C7 H7 1.101240 1_555
C7 H15 1.102013 1_545
C7 S7 1.785116 1_455
C8 H32 1.099273 1_555
C8 H24 1.100413 1_555
C8 H40 1.102480 1_555
C8 S0 1.778296 1_565
C9 H33 1.099273 1_555
C9 H25 1.100413 1_555
C9 H41 1.102480 1_655
C9 S1 1.778296 1_555
C10 H34 1.099273 1_555
C10 H26 1.100413 1_555
C10 H42 1.102480 1_555
C10 S2 1.778296 1_555
C11 H35 1.099273 1_555
C11 H27 1.100413 1_555
C11 H43 1.102480 1_455
C11 S3 1.778296 1_545
C12 H36 1.099273 1_555
C12 H28 1.100413 1_555
C12 H44 1.102480 1_555
C12 S4 1.778296 1_545
C13 H37 1.099273 1_555
C13 H29 1.100413 1_555
C13 H45 1.102480 1_455
C13 S5 1.778296 1_555
C14 H38 1.099273 1_555
C14 H30 1.100413 1_555
C14 H46 1.102480 1_555
C14 S6 1.778296 1_555
C15 H39 1.099273 1_555
C15 H31 1.100413 1_555
C15 H47 1.102480 1_655
C15 S7 1.778296 1_565
C16 H48 1.097045 1_555
C16 H64 1.098159 1_555
C16 H56 1.100058 1_555
C16 S8 1.783918 1_555
C17 H49 1.097045 1_655
C17 H65 1.098159 1_555
C17 H57 1.100058 1_655
C17 S9 1.783918 1_555
C18 H50 1.097045 1_555
C18 H66 1.098159 1_555
C18 H58 1.100058 1_555
C18 S10 1.783918 1_555
C19 H51 1.097045 1_455
C19 H67 1.098159 1_555
C19 H59 1.100058 1_455
C19 S11 1.783918 1_555
C20 H52 1.097045 1_555
C20 H68 1.098159 1_555
C20 H60 1.100058 1_555
C20 S12 1.783918 1_555
C21 H53 1.097045 1_455
C21 H69 1.098159 1_555
C21 H61 1.100058 1_455
C21 S13 1.783918 1_555
C22 H54 1.097045 1_555
C22 H70 1.098159 1_555
C22 H62 1.100058 1_555
C22 S14 1.783918 1_555
C23 H55 1.097045 1_655
C23 H71 1.098159 1_555
C23 H63 1.100058 1_655
C23 S15 1.783918 1_555
C24 H80 1.097087 1_555
C24 H72 1.099880 1_555
C24 H88 1.102678 1_555
C24 S8 1.787437 1_555
C25 H81 1.097087 1_555
C25 H73 1.099880 1_555
C25 H89 1.102678 1_555
C25 S9 1.787437 1_555
C26 H82 1.097087 1_555
C26 H74 1.099880 1_555
C26 H90 1.102678 1_555
C26 S10 1.787437 1_555
C27 H83 1.097087 1_555
C27 H75 1.099880 1_555
C27 H91 1.102678 1_555
C27 S11 1.787437 1_555
C28 H84 1.097087 1_555
C28 H76 1.099880 1_555
C28 H92 1.102678 1_555
C28 S12 1.787437 1_555
C29 H85 1.097087 1_555
C29 H77 1.099880 1_555
C29 H93 1.102678 1_555
C29 S13 1.787437 1_555
C30 H86 1.097087 1_555
C30 H78 1.099880 1_555
C30 H94 1.102678 1_555
C30 S14 1.787437 1_555
C31 H87 1.097087 1_555
C31 H79 1.099880 1_555
C31 H95 1.102678 1_555
C31 S15 1.787437 1_555
C32 H112 1.098691 1_555
C32 H104 1.101007 1_555
C32 H96 1.102425 1_555
C32 S16 1.780363 1_556
C33 H113 1.098691 1_555
C33 H105 1.101007 1_555
C33 H97 1.102425 1_555
C33 S17 1.780363 1_554
C34 H114 1.098691 1_555
C34 H106 1.101007 1_555
C34 H98 1.102425 1_555
C34 S18 1.780363 1_555
C35 H115 1.098691 1_555
C35 H107 1.101007 1_555
C35 H99 1.102425 1_555
C35 S19 1.780363 1_555
C36 H116 1.098691 1_555
C36 H108 1.101007 1_555
C36 H100 1.102425 1_555
C36 S20 1.780363 1_554
C37 H117 1.098691 1_555
C37 H109 1.101007 1_555
C37 H101 1.102425 1_555
C37 S21 1.780363 1_556
C38 H118 1.098691 1_555
C38 H110 1.101007 1_555
C38 H102 1.102425 1_555
C38 S22 1.780363 1_555
C39 H119 1.098691 1_555
C39 H111 1.101007 1_555
C39 H103 1.102425 1_555
C39 S23 1.780363 1_555
C40 H120 1.098321 1_556
C40 H128 1.098399 1_555
C40 H136 1.101614 1_555
C40 S16 1.788741 1_556
C41 H121 1.098321 1_554
C41 H129 1.098399 1_555
C41 H137 1.101614 1_555
C41 S17 1.788741 1_554
C42 H122 1.098321 1_555
C42 H130 1.098399 1_555
C42 H138 1.101614 1_555
C42 S18 1.788741 1_555
C43 H123 1.098321 1_555
C43 H131 1.098399 1_555
C43 H139 1.101614 1_555
C43 S19 1.788741 1_555
C44 H124 1.098321 1_554
C44 H132 1.098399 1_555
C44 H140 1.101614 1_555
C44 S20 1.788741 1_554
C45 H125 1.098321 1_556
C45 H133 1.098399 1_555
C45 H141 1.101614 1_555
C45 S21 1.788741 1_556
C46 H126 1.098321 1_555
C46 H134 1.098399 1_555
C46 H142 1.101614 1_555
C46 S22 1.788741 1_555
C47 H127 1.098321 1_555
C47 H135 1.098399 1_555
C47 H143 1.101614 1_555
C47 S23 1.788741 1_555
C48 H144 1.098556 1_545
C48 H160 1.100101 1_455
C48 H152 1.102438 1_445
C48 S24 1.789503 1_555
C49 H145 1.098556 1_555
C49 H161 1.100101 1_555
C49 H153 1.102438 1_555
C49 S25 1.789503 1_555
C50 H146 1.098556 1_555
C50 H162 1.100101 1_655
C50 H154 1.102438 1_655
C50 S26 1.789503 1_555
C51 H147 1.098556 1_565
C51 H163 1.100101 1_555
C51 H155 1.102438 1_565
C51 S27 1.789503 1_555
C52 H148 1.098556 1_565
C52 H164 1.100101 1_655
C52 H156 1.102438 1_665
C52 S28 1.789503 1_555
C53 H149 1.098556 1_555
C53 H165 1.100101 1_555
C53 H157 1.102438 1_555
C53 S29 1.789503 1_555
C54 H150 1.098556 1_555
C54 H166 1.100101 1_455
C54 H158 1.102438 1_455
C54 S30 1.789503 1_555
C55 H151 1.098556 1_545
C55 H167 1.100101 1_555
C55 H159 1.102438 1_545
C55 S31 1.789503 1_555
C56 H168 1.097238 1_555
C56 H184 1.099974 1_555
C56 H176 1.100289 1_555
C56 S24 1.785277 1_655
C57 H169 1.097238 1_555
C57 H185 1.099974 1_555
C57 H177 1.100289 1_555
C57 S25 1.785277 1_555
C58 H170 1.097238 1_555
C58 H186 1.099974 1_555
C58 H178 1.100289 1_555
C58 S26 1.785277 1_455
C59 H171 1.097238 1_555
C59 H187 1.099974 1_555
C59 H179 1.100289 1_555
C59 S27 1.785277 1_555
C60 H172 1.097238 1_555
C60 H188 1.099974 1_555
C60 H180 1.100289 1_555
C60 S28 1.785277 1_455
C61 H173 1.097238 1_555
C61 H189 1.099974 1_555
C61 H181 1.100289 1_555
C61 S29 1.785277 1_555
C62 H174 1.097238 1_555
C62 H190 1.099974 1_555
C62 H182 1.100289 1_555
C62 S30 1.785277 1_655
C63 H175 1.097238 1_555
C63 H191 1.099974 1_555
C63 H183 1.100289 1_555
C63 S31 1.785277 1_555
O0 S0 1.546877 1_555
O1 S1 1.546877 1_555
O2 S2 1.546877 1_555
O3 S3 1.546877 1_555
O4 S4 1.546877 1_555
O5 S5 1.546877 1_555
O6 S6 1.546877 1_555
O7 S7 1.546877 1_555
O8 S8 1.558773 1_555
O9 S9 1.558773 1_555
O10 S10 1.558773 1_555
O11 S11 1.558773 1_555
O12 S12 1.558773 1_555
O13 S13 1.558773 1_555
O14 S14 1.558773 1_555
O15 S15 1.558773 1_555
O16 S16 1.554053 1_555
O17 S17 1.554053 1_555
O18 S18 1.554053 1_555
O19 S19 1.554053 1_555
O20 S20 1.554053 1_555
O21 S21 1.554053 1_555
O22 S22 1.554053 1_555
O23 S23 1.554053 1_555
O24 S24 1.555219 1_555
O25 S25 1.555219 1_555
O26 S26 1.555219 1_555
O27 S27 1.555219 1_555
O28 S28 1.555219 1_555
O29 S29 1.555219 1_555
O30 S30 1.555219 1_555
O31 S31 1.555219 1_555
