# generated using pymatgen
data_KMg6Mn
_symmetry_space_group_name_H-M   'P 1'
_cell_length_a   5.22091600
_cell_length_b   6.76921400
_cell_length_c   11.43827300
_cell_angle_alpha   90.00000000
_cell_angle_beta   90.00000000
_cell_angle_gamma   90.00000000
_symmetry_Int_Tables_number   1
_chemical_formula_structural   KMg6Mn
_chemical_formula_sum   'K2 Mg12 Mn2'
_cell_volume   404.24569869
_cell_formula_units_Z   2
loop_
 _symmetry_equiv_pos_site_id
 _symmetry_equiv_pos_as_xyz
  1  'x, y, z'
loop_
 _atom_site_type_symbol
 _atom_site_label
 _atom_site_symmetry_multiplicity
 _atom_site_fract_x
 _atom_site_fract_y
 _atom_site_fract_z
 _atom_site_occupancy
  K  K0  1  0.50000000  0.50000000  0.83438800  1
  K  K1  1  0.50000000  0.00000000  0.33438800  1
  Mg  Mg0  1  0.50000000  0.24679700  0.08126900  1
  Mg  Mg1  1  0.50000000  0.75320300  0.08126900  1
  Mg  Mg2  1  0.00000000  0.22551800  0.91853500  1
  Mg  Mg3  1  0.00000000  0.77448200  0.91853500  1
  Mg  Mg4  1  0.00000000  0.50000000  0.17221900  1
  Mg  Mg5  1  0.00000000  0.50000000  0.65594000  1
  Mg  Mg6  1  0.50000000  0.74679700  0.58126900  1
  Mg  Mg7  1  0.50000000  0.25320300  0.58126900  1
  Mg  Mg8  1  0.00000000  0.72551800  0.41853500  1
  Mg  Mg9  1  0.00000000  0.27448200  0.41853500  1
  Mg  Mg10  1  0.00000000  0.00000000  0.67221900  1
  Mg  Mg11  1  0.00000000  0.00000000  0.15594000  1
  Mn  Mn0  1  0.50000000  0.50000000  0.33784800  1
  Mn  Mn1  1  0.50000000  0.00000000  0.83784800  1
loop_
_geom_bond_atom_site_label_1
_geom_bond_atom_site_label_2
_geom_bond_distance
_geom_bond_site_symmetry_2
K0 Mg1 3.303349 1_556
K0 Mg0 3.303349 1_556
K0 Mg5 3.313719 1_655
K0 Mg5 3.313719 1_555
K0 Mg6 3.342666 1_555
K0 Mg7 3.342666 1_555
K0 Mg3 3.345617 1_655
K0 Mg2 3.345617 1_655
K0 Mg3 3.345617 1_555
K0 Mg2 3.345617 1_555
K0 Mn1 3.384838 1_565
K0 Mn1 3.384838 1_555
K1 Mg7 3.303349 1_555
K1 Mg6 3.303349 1_545
K1 Mg11 3.313719 1_555
K1 Mg11 3.313719 1_655
K1 Mg0 3.342666 1_555
K1 Mg1 3.342666 1_545
K1 Mg9 3.345617 1_555
K1 Mg9 3.345617 1_655
K1 Mg8 3.345617 1_645
K1 Mg8 3.345617 1_545
K1 Mn0 3.384838 1_545
K1 Mn0 3.384838 1_555
Mg0 Mg2 3.209367 1_554
Mg0 Mg2 3.209367 1_654
Mg0 Mg11 3.214804 1_655
Mg0 Mg11 3.214804 1_555
Mg0 Mn1 3.247059 1_554
Mg0 Mg4 3.291578 1_655
Mg0 Mg4 3.291578 1_555
Mg0 Mg1 3.341243 1_545
Mg0 Mn0 3.398664 1_555
Mg0 Mg1 3.427971 1_555
Mg1 Mg3 3.209367 1_654
Mg1 Mg3 3.209367 1_554
Mg1 Mg11 3.214804 1_665
Mg1 Mg11 3.214804 1_565
Mg1 Mn1 3.247059 1_564
Mg1 Mg4 3.291578 1_555
Mg1 Mg4 3.291578 1_655
Mg1 Mn0 3.398664 1_555
Mg2 Mg3 3.053159 1_545
Mg2 Mn1 3.161759 1_455
Mg2 Mn1 3.161759 1_555
Mg2 Mg4 3.445601 1_556
Mg2 Mg5 3.531866 1_555
Mg3 Mn1 3.161759 1_465
Mg3 Mn1 3.161759 1_565
Mg3 Mg4 3.445601 1_556
Mg3 Mg5 3.531866 1_555
Mg4 Mg8 3.204427 1_555
Mg4 Mg9 3.204427 1_555
Mg4 Mn0 3.225470 1_455
Mg4 Mn0 3.225470 1_555
Mg5 Mg8 3.115189 1_555
Mg5 Mg9 3.115189 1_555
Mg5 Mg6 3.214804 1_455
Mg5 Mg6 3.214804 1_555
Mg5 Mg7 3.214804 1_455
Mg5 Mg7 3.214804 1_555
Mg6 Mg8 3.209367 1_555
Mg6 Mg8 3.209367 1_655
Mg6 Mn0 3.247059 1_555
Mg6 Mg7 3.341243 1_555
Mg6 Mn1 3.398664 1_565
Mg6 Mg7 3.427971 1_565
Mg7 Mg9 3.209367 1_555
Mg7 Mg9 3.209367 1_655
Mg7 Mn0 3.247059 1_555
Mg7 Mn1 3.398664 1_555
Mg8 Mg9 3.053159 1_555
Mg8 Mn0 3.161759 1_555
Mg8 Mn0 3.161759 1_455
Mg9 Mn0 3.161759 1_555
Mg9 Mn0 3.161759 1_455
Mg10 Mg2 3.204427 1_555
Mg10 Mg3 3.204427 1_545
Mg10 Mn1 3.225470 1_455
Mg10 Mn1 3.225470 1_555
Mg10 Mg7 3.291578 1_555
Mg10 Mg7 3.291578 1_455
Mg10 Mg6 3.291578 1_445
Mg10 Mg6 3.291578 1_545
Mg10 Mg5 3.389725 1_555
Mg10 Mg5 3.389725 1_545
Mg10 Mg8 3.445601 1_545
Mg10 Mg9 3.445601 1_555
Mg11 Mg2 3.115189 1_554
Mg11 Mg3 3.115189 1_544
Mg11 Mg4 3.389725 1_555
Mg11 Mg4 3.389725 1_545
Mg11 Mg8 3.531866 1_545
Mg11 Mg9 3.531866 1_555
