# generated using pymatgen
data_InH12S3(NO4)3
_symmetry_space_group_name_H-M   'P 1'
_cell_length_a   15.61083606
_cell_length_b   8.96310249
_cell_length_c   9.12737500
_cell_angle_alpha   70.89768624
_cell_angle_beta   90.00000000
_cell_angle_gamma   90.00000000
_symmetry_Int_Tables_number   1
_chemical_formula_structural   InH12S3(NO4)3
_chemical_formula_sum   'In4 H48 S12 N12 O48'
_cell_volume   1206.79270282
_cell_formula_units_Z   4
loop_
 _symmetry_equiv_pos_site_id
 _symmetry_equiv_pos_as_xyz
  1  'x, y, z'
loop_
 _atom_site_type_symbol
 _atom_site_label
 _atom_site_symmetry_multiplicity
 _atom_site_fract_x
 _atom_site_fract_y
 _atom_site_fract_z
 _atom_site_occupancy
  In  In0  1  0.24901015  0.71952849  0.77142603  1
  In  In1  1  0.75098985  0.28047151  0.22857397  1
  In  In2  1  0.74901015  0.28047151  0.72857397  1
  In  In3  1  0.25098985  0.71952849  0.27142603  1
  H  H0  1  -0.00109256  0.90674058  0.19480806  1
  H  H1  1  0.00109256  0.09325942  0.80519194  1
  H  H2  1  0.49890744  0.09325942  0.30519194  1
  H  H3  1  0.50109256  0.90674058  0.69480806  1
  H  H4  1  0.45977464  0.42976568  0.87281734  1
  H  H5  1  0.54022536  0.57023432  0.12718266  1
  H  H6  1  0.95977464  0.57023432  0.62718266  1
  H  H7  1  0.04022536  0.42976568  0.37281734  1
  H  H8  1  0.99316967  0.91443723  0.37769073  1
  H  H9  1  0.00683033  0.08556277  0.62230927  1
  H  H10  1  0.49316967  0.08556277  0.12230927  1
  H  H11  1  0.50683033  0.91443723  0.87769073  1
  H  H12  1  0.93017162  0.70642401  0.70310193  1
  H  H13  1  0.06982838  0.29357599  0.29689807  1
  H  H14  1  0.43017162  0.29357599  0.79689807  1
  H  H15  1  0.56982838  0.70642401  0.20310193  1
  H  H16  1  0.29786855  0.23278636  0.60854667  1
  H  H17  1  0.70213145  0.76721364  0.39145333  1
  H  H18  1  0.79786855  0.76721364  0.89145333  1
  H  H19  1  0.20213145  0.23278636  0.10854667  1
  H  H20  1  0.06864981  0.21135421  0.67280803  1
  H  H21  1  0.93135019  0.78864579  0.32719197  1
  H  H22  1  0.56864981  0.78864579  0.82719197  1
  H  H23  1  0.43135019  0.21135421  0.17280803  1
  H  H24  1  0.39468845  0.24885623  0.51908906  1
  H  H25  1  0.60531155  0.75114377  0.48091094  1
  H  H26  1  0.89468845  0.75114377  0.98091094  1
  H  H27  1  0.10531155  0.24885623  0.01908906  1
  H  H28  1  0.91282916  0.98574645  0.25193339  1
  H  H29  1  0.08717084  0.01425355  0.74806661  1
  H  H30  1  0.41282916  0.01425355  0.24806661  1
  H  H31  1  0.58717084  0.98574645  0.75193339  1
  H  H32  1  0.83904711  0.91903650  0.93847587  1
  H  H33  1  0.16095289  0.08096350  0.06152413  1
  H  H34  1  0.33904711  0.08096350  0.56152413  1
  H  H35  1  0.66095289  0.91903650  0.43847587  1
  H  H36  1  0.69511385  0.75757560  0.57904398  1
  H  H37  1  0.30488615  0.24242440  0.42095602  1
  H  H38  1  0.19511385  0.24242440  0.92095602  1
  H  H39  1  0.80488615  0.75757560  0.07904398  1
  H  H40  1  0.47915272  0.46264525  0.68328163  1
  H  H41  1  0.52084728  0.53735475  0.31671837  1
  H  H42  1  0.97915272  0.53735475  0.81671837  1
  H  H43  1  0.02084728  0.46264525  0.18328163  1
  H  H44  1  0.03366379  0.67711648  0.67928111  1
  H  H45  1  0.96633621  0.32288352  0.32071889  1
  H  H46  1  0.53366379  0.32288352  0.82071889  1
  H  H47  1  0.46633621  0.67711648  0.17928111  1
  S  S0  1  0.40890609  0.75501971  0.52441001  1
  S  S1  1  0.59109391  0.24498029  0.47558999  1
  S  S2  1  0.90890609  0.24498029  0.97558999  1
  S  S3  1  0.09109391  0.75501971  0.02441001  1
  S  S4  1  0.34895491  0.95348435  0.95434903  1
  S  S5  1  0.65104509  0.04651565  0.04565097  1
  S  S6  1  0.84895491  0.04651565  0.54565097  1
  S  S7  1  0.15104509  0.95348435  0.45434903  1
  S  S8  1  0.17268558  0.45576761  0.60733221  1
  S  S9  1  0.82731442  0.54423239  0.39266779  1
  S  S10  1  0.67268558  0.54423239  0.89266779  1
  S  S11  1  0.32731442  0.45576761  0.10733221  1
  N  N0  1  0.33405401  0.20154269  0.52847713  1
  N  N1  1  0.66594599  0.79845731  0.47152287  1
  N  N2  1  0.83405401  0.79845731  0.97152287  1
  N  N3  1  0.16594599  0.20154269  0.02847713  1
  N  N4  1  0.97565841  0.62170511  0.70909406  1
  N  N5  1  0.02434159  0.37829489  0.29090594  1
  N  N6  1  0.47565841  0.37829489  0.79090594  1
  N  N7  1  0.52434159  0.62170511  0.20909406  1
  N  N8  1  0.95845741  0.89957067  0.28686322  1
  N  N9  1  0.04154259  0.10042933  0.71313678  1
  N  N10  1  0.45845741  0.10042933  0.21313678  1
  N  N11  1  0.54154259  0.89957067  0.78686322  1
  O  O0  1  0.35401212  0.65207284  0.65176527  1
  O  O1  1  0.64598788  0.34792716  0.34823473  1
  O  O2  1  0.85401212  0.34792716  0.84823473  1
  O  O3  1  0.14598788  0.65207284  0.15176527  1
  O  O4  1  0.13617623  0.78521787  0.87249800  1
  O  O5  1  0.86382377  0.21478213  0.12750200  1
  O  O6  1  0.63617623  0.21478213  0.62750200  1
  O  O7  1  0.36382377  0.78521787  0.37249800  1
  O  O8  1  0.48874654  0.67001627  0.52286453  1
  O  O9  1  0.51125346  0.32998373  0.47713547  1
  O  O10  1  0.98874654  0.32998373  0.97713547  1
  O  O11  1  0.01125346  0.67001627  0.02286453  1
  O  O12  1  0.21313047  0.31272555  0.70985302  1
  O  O13  1  0.78686953  0.68727445  0.29014698  1
  O  O14  1  0.71313047  0.68727445  0.79014698  1
  O  O15  1  0.28686953  0.31272555  0.20985302  1
  O  O16  1  0.16548900  0.57752524  0.68560472  1
  O  O17  1  0.83451100  0.42247476  0.31439528  1
  O  O18  1  0.66548900  0.42247476  0.81439528  1
  O  O19  1  0.33451100  0.57752524  0.18560472  1
  O  O20  1  0.07196272  0.88429078  0.53266328  1
  O  O21  1  0.92803728  0.11570922  0.46733672  1
  O  O22  1  0.57196272  0.11570922  0.96733672  1
  O  O23  1  0.42803728  0.88429078  0.03266328  1
  O  O24  1  0.32942959  0.88039168  0.83258652  1
  O  O25  1  0.67057041  0.11960832  0.16741348  1
  O  O26  1  0.82942959  0.11960832  0.66741348  1
  O  O27  1  0.17057041  0.88039168  0.33258652  1
  O  O28  1  0.08598410  0.42425402  0.56490886  1
  O  O29  1  0.91401590  0.57574598  0.43509114  1
  O  O30  1  0.58598410  0.57574598  0.93509114  1
  O  O31  1  0.41401590  0.42425402  0.06490886  1
  O  O32  1  0.42389680  0.90708441  0.54533481  1
  O  O33  1  0.57610320  0.09291559  0.45466519  1
  O  O34  1  0.92389680  0.09291559  0.95466519  1
  O  O35  1  0.07610320  0.90708441  0.04533481  1
  O  O36  1  0.22358200  0.91880416  0.56807140  1
  O  O37  1  0.77641800  0.08119584  0.43192860  1
  O  O38  1  0.72358200  0.08119584  0.93192860  1
  O  O39  1  0.27641800  0.91880416  0.06807140  1
  O  O40  1  0.27221956  0.51612600  0.96695523  1
  O  O41  1  0.72778044  0.48387400  0.03304477  1
  O  O42  1  0.77221956  0.48387400  0.53304477  1
  O  O43  1  0.22778044  0.51612600  0.46695523  1
  O  O44  1  0.85525582  0.87681558  0.61833950  1
  O  O45  1  0.14474418  0.12318442  0.38166050  1
  O  O46  1  0.35525582  0.12318442  0.88166050  1
  O  O47  1  0.64474418  0.87681558  0.11833950  1
loop_
_geom_bond_atom_site_label_1
_geom_bond_atom_site_label_2
_geom_bond_distance
_geom_bond_site_symmetry_2
In0 O24 2.119759 1_555
In0 O40 2.123797 1_555
In0 O16 2.141524 1_555
In0 O36 2.150130 1_555
In0 O4 2.157744 1_555
In0 O0 2.162756 1_555
In1 O25 2.119759 1_555
In1 O41 2.123797 1_555
In1 O17 2.141524 1_555
In1 O37 2.150130 1_555
In1 O5 2.157744 1_555
In1 O1 2.162756 1_555
In2 O26 2.119759 1_555
In2 O42 2.123797 1_555
In2 O18 2.141524 1_555
In2 O38 2.150130 1_555
In2 O6 2.157744 1_555
In2 O2 2.162756 1_555
In3 O27 2.119759 1_555
In3 O43 2.123797 1_555
In3 O19 2.141524 1_555
In3 O39 2.150130 1_555
In3 O7 2.157744 1_555
In3 O3 2.162756 1_555
H0 N8 1.036099 1_455
H1 N9 1.036099 1_555
H2 N10 1.036099 1_555
H3 N11 1.036099 1_555
H4 N6 1.029090 1_555
H5 N7 1.029090 1_555
H6 N4 1.029090 1_555
H7 N5 1.029090 1_555
H8 N8 1.034876 1_555
H9 N9 1.034876 1_555
H10 N10 1.034876 1_555
H11 N11 1.034876 1_555
H12 N4 1.027928 1_555
H13 N5 1.027928 1_555
H14 N6 1.027928 1_555
H15 N7 1.027928 1_555
H16 N0 1.032267 1_555
H17 N1 1.032267 1_555
H18 N2 1.032267 1_555
H19 N3 1.032267 1_555
H20 N9 1.031274 1_555
H21 N8 1.031274 1_555
H22 N11 1.031274 1_555
H23 N10 1.031274 1_555
H24 N0 1.029254 1_555
H25 N1 1.029254 1_555
H26 N2 1.029254 1_555
H27 N3 1.029254 1_555
H28 N8 1.021977 1_555
H29 N9 1.021977 1_555
H30 N10 1.021977 1_555
H31 N11 1.021977 1_555
H32 N2 1.025544 1_555
H33 N3 1.025544 1_555
H34 N0 1.025544 1_555
H35 N1 1.025544 1_555
H36 N1 1.034093 1_555
H37 N0 1.034093 1_555
H38 N3 1.034093 1_556
H39 N2 1.034093 1_554
H40 N6 1.026376 1_555
H41 N7 1.026376 1_555
H42 N4 1.026376 1_555
H43 N5 1.026376 1_555
H44 N4 1.025774 1_455
H45 N5 1.025774 1_655
H46 N6 1.025774 1_555
H47 N7 1.025774 1_555
O0 S0 1.494978 1_555
O1 S1 1.494978 1_555
O2 S2 1.494978 1_555
O3 S3 1.494978 1_555
O4 S3 1.498487 1_556
O5 S2 1.498487 1_554
O6 S1 1.498487 1_555
O7 S0 1.498487 1_555
O8 S0 1.463274 1_555
O9 S1 1.463274 1_555
O10 S2 1.463274 1_555
O11 S3 1.463274 1_555
O12 S8 1.460414 1_555
O13 S9 1.460414 1_555
O14 S10 1.460414 1_555
O15 S11 1.460414 1_555
O16 S8 1.491414 1_555
O17 S9 1.491414 1_555
O18 S10 1.491414 1_555
O19 S11 1.491414 1_555
O20 S7 1.459287 1_555
O21 S6 1.459287 1_555
O22 S5 1.459287 1_556
O23 S4 1.459287 1_554
O24 S4 1.494594 1_555
O25 S5 1.494594 1_555
O26 S6 1.494594 1_555
O27 S7 1.494594 1_555
O28 S8 1.460554 1_555
O29 S9 1.460554 1_555
O30 S10 1.460554 1_555
O31 S11 1.460554 1_555
O32 S0 1.455785 1_555
O33 S1 1.455785 1_555
O34 S2 1.455785 1_555
O35 S3 1.455785 1_555
O36 S7 1.498367 1_555
O37 S6 1.498367 1_555
O38 S5 1.498367 1_556
O39 S4 1.498367 1_554
O40 S11 1.490096 1_556
O41 S10 1.490096 1_554
O42 S9 1.490096 1_555
O43 S8 1.490096 1_555
O44 S6 1.450142 1_565
O45 S7 1.450142 1_545
O46 S4 1.450142 1_545
O47 S5 1.450142 1_565
