# generated using pymatgen
data_Mg(FeO2)2
_symmetry_space_group_name_H-M   'P 1'
_cell_length_a   7.67379196
_cell_length_b   7.67379196
_cell_length_c   9.15795745
_cell_angle_alpha   56.52559907
_cell_angle_beta   56.52559907
_cell_angle_gamma   22.03024998
_symmetry_Int_Tables_number   1
_chemical_formula_structural   Mg(FeO2)2
_chemical_formula_sum   'Mg2 Fe4 O8'
_cell_volume   167.32793717
_cell_formula_units_Z   2
loop_
 _symmetry_equiv_pos_site_id
 _symmetry_equiv_pos_as_xyz
  1  'x, y, z'
loop_
 _atom_site_type_symbol
 _atom_site_label
 _atom_site_symmetry_multiplicity
 _atom_site_fract_x
 _atom_site_fract_y
 _atom_site_fract_z
 _atom_site_occupancy
  Mg  Mg0  1  0.68871900  0.68871900  0.83099700  1
  Mg  Mg1  1  0.31128100  0.31128100  0.16900300  1
  Fe  Fe0  1  0.39739100  0.39739100  0.79879800  1
  Fe  Fe1  1  0.85050600  0.85050600  0.48053500  1
  Fe  Fe2  1  0.14949400  0.14949400  0.51946500  1
  Fe  Fe3  1  0.60260900  0.60260900  0.20120200  1
  O  O0  1  0.14529800  0.14529800  0.29743100  1
  O  O1  1  0.55194200  0.55194200  0.65469700  1
  O  O2  1  0.44805800  0.44805800  0.34530300  1
  O  O3  1  0.85470200  0.85470200  0.70256900  1
  O  O4  1  0.86106500  0.86106500  0.98313000  1
  O  O5  1  0.22548400  0.22548400  0.64408100  1
  O  O6  1  0.13893500  0.13893500  0.01687000  1
  O  O7  1  0.77451600  0.77451600  0.35591900  1
loop_
_geom_bond_atom_site_label_1
_geom_bond_atom_site_label_2
_geom_bond_distance
_geom_bond_site_symmetry_2
Mg0 O6 2.043302 1_656
Mg0 O6 2.043302 1_566
Mg0 O5 2.078755 1_655
Mg0 O5 2.078755 1_565
Mg0 O3 2.081034 1_555
Mg1 O4 2.043302 1_454
Mg1 O4 2.043302 1_544
Mg1 O7 2.078755 1_545
Mg1 O7 2.078755 1_455
Mg1 O0 2.081034 1_555
Fe0 O1 1.925976 1_555
Fe0 O3 1.994221 1_545
Fe0 O3 1.994221 1_455
Fe0 O4 2.064161 1_545
Fe0 O4 2.064161 1_455
Fe1 O2 1.948814 1_565
Fe1 O2 1.948814 1_655
Fe1 O7 2.020185 1_555
Fe1 O3 2.069558 1_555
Fe1 O5 2.184064 1_655
Fe1 O5 2.184064 1_565
Fe2 O1 1.948814 1_545
Fe2 O1 1.948814 1_455
Fe2 O5 2.020185 1_555
Fe2 O0 2.069558 1_555
Fe2 O7 2.184064 1_455
Fe2 O7 2.184064 1_545
Fe3 O2 1.925976 1_555
Fe3 O0 1.994221 1_655
Fe3 O0 1.994221 1_565
Fe3 O6 2.064161 1_565
Fe3 O6 2.064161 1_655
