# generated using pymatgen
data_SbXeF11
_symmetry_space_group_name_H-M   'P 1'
_cell_length_a   5.98867200
_cell_length_b   8.48737700
_cell_length_c   17.23927200
_cell_angle_alpha   90.00000000
_cell_angle_beta   90.00000000
_cell_angle_gamma   90.00000000
_symmetry_Int_Tables_number   1
_chemical_formula_structural   SbXeF11
_chemical_formula_sum   'Sb4 Xe4 F44'
_cell_volume   876.23973410
_cell_formula_units_Z   4
loop_
 _symmetry_equiv_pos_site_id
 _symmetry_equiv_pos_as_xyz
  1  'x, y, z'
loop_
 _atom_site_type_symbol
 _atom_site_label
 _atom_site_symmetry_multiplicity
 _atom_site_fract_x
 _atom_site_fract_y
 _atom_site_fract_z
 _atom_site_occupancy
  Sb  Sb0  1  0.71580300  0.25000000  0.45605000  1
  Sb  Sb1  1  0.78419700  0.25000000  0.95605000  1
  Sb  Sb2  1  0.28419700  0.75000000  0.54395000  1
  Sb  Sb3  1  0.21580300  0.75000000  0.04395000  1
  Xe  Xe0  1  0.20444300  0.25000000  0.64944200  1
  Xe  Xe1  1  0.29555700  0.25000000  0.14944200  1
  Xe  Xe2  1  0.79555700  0.75000000  0.35055800  1
  Xe  Xe3  1  0.70444300  0.75000000  0.85055800  1
  F  F0  1  0.13444500  0.25000000  0.76095500  1
  F  F1  1  0.36555500  0.25000000  0.26095500  1
  F  F2  1  0.86555500  0.75000000  0.23904500  1
  F  F3  1  0.63444500  0.75000000  0.73904500  1
  F  F4  1  0.96761000  0.08811900  0.65197500  1
  F  F5  1  0.53239000  0.41188100  0.15197500  1
  F  F6  1  0.03239000  0.58811900  0.34802500  1
  F  F7  1  0.46761000  0.91188100  0.84802500  1
  F  F8  1  0.03239000  0.91188100  0.34802500  1
  F  F9  1  0.46761000  0.58811900  0.84802500  1
  F  F10  1  0.96761000  0.41188100  0.65197500  1
  F  F11  1  0.53239000  0.08811900  0.15197500  1
  F  F12  1  0.41743300  0.08911400  0.68599200  1
  F  F13  1  0.08256700  0.41088600  0.18599200  1
  F  F14  1  0.58256700  0.58911400  0.31400800  1
  F  F15  1  0.91743300  0.91088600  0.81400800  1
  F  F16  1  0.58256700  0.91088600  0.31400800  1
  F  F17  1  0.91743300  0.58911400  0.81400800  1
  F  F18  1  0.41743300  0.41088600  0.68599200  1
  F  F19  1  0.08256700  0.08911400  0.18599200  1
  F  F20  1  0.99997800  0.25000000  0.51152600  1
  F  F21  1  0.50002200  0.25000000  0.01152600  1
  F  F22  1  0.00002200  0.75000000  0.48847400  1
  F  F23  1  0.49997800  0.75000000  0.98847400  1
  F  F24  1  0.42851400  0.25000000  0.40923300  1
  F  F25  1  0.07148600  0.25000000  0.90923300  1
  F  F26  1  0.57148600  0.75000000  0.59076700  1
  F  F27  1  0.92851400  0.75000000  0.09076700  1
  F  F28  1  0.86311000  0.25000000  0.35833600  1
  F  F29  1  0.63689000  0.25000000  0.85833600  1
  F  F30  1  0.13689000  0.75000000  0.64166400  1
  F  F31  1  0.36311000  0.75000000  0.14166400  1
  F  F32  1  0.72362100  0.02398600  0.45814300  1
  F  F33  1  0.77637900  0.47601400  0.95814300  1
  F  F34  1  0.27637900  0.52398600  0.54185700  1
  F  F35  1  0.22362100  0.97601400  0.04185700  1
  F  F36  1  0.27637900  0.97601400  0.54185700  1
  F  F37  1  0.22362100  0.52398600  0.04185700  1
  F  F38  1  0.72362100  0.47601400  0.45814300  1
  F  F39  1  0.77637900  0.02398600  0.95814300  1
  F  F40  1  0.57201100  0.25000000  0.55763800  1
  F  F41  1  0.92798900  0.25000000  0.05763800  1
  F  F42  1  0.42798900  0.75000000  0.44236200  1
  F  F43  1  0.07201100  0.75000000  0.94236200  1
loop_
_geom_bond_atom_site_label_1
_geom_bond_atom_site_label_2
_geom_bond_distance
_geom_bond_site_symmetry_2
F0 Xe0 1.967577 1_555
F1 Xe1 1.967577 1_555
F2 Xe2 1.967577 1_555
F3 Xe3 1.967577 1_555
F4 Xe0 1.975158 1_655
F5 Xe1 1.975158 1_555
F6 Xe2 1.975158 1_455
F7 Xe3 1.975158 1_555
F8 Xe2 1.975158 1_455
F9 Xe3 1.975158 1_555
F10 Xe0 1.975158 1_655
F11 Xe1 1.975158 1_555
F12 Xe0 1.971948 1_555
F13 Xe1 1.971948 1_555
F14 Xe2 1.971948 1_555
F15 Xe3 1.971948 1_555
F16 Xe2 1.971948 1_555
F17 Xe3 1.971948 1_555
F18 Xe0 1.971948 1_555
F19 Xe1 1.971948 1_555
F20 Sb0 1.952143 1_555
F21 Sb1 1.952143 1_554
F22 Sb2 1.952143 1_555
F23 Sb3 1.952143 1_556
F24 Sb0 1.900380 1_555
F25 Sb1 1.900380 1_455
F26 Sb2 1.900380 1_555
F27 Sb3 1.900380 1_655
F28 Sb0 1.901534 1_555
F29 Sb1 1.901534 1_555
F30 Sb2 1.901534 1_555
F31 Sb3 1.901534 1_555
F32 Sb0 1.919177 1_555
F33 Sb1 1.919177 1_555
F34 Sb2 1.919177 1_555
F35 Sb3 1.919177 1_555
F36 Sb2 1.919177 1_555
F37 Sb3 1.919177 1_555
F38 Sb0 1.919177 1_555
F39 Sb1 1.919177 1_555
F40 Sb0 1.951562 1_555
F41 Sb1 1.951562 1_554
F42 Sb2 1.951562 1_555
F43 Sb3 1.951562 1_556
