# generated using pymatgen
data_Pr2P3H5WO9
_symmetry_space_group_name_H-M   'P 1'
_cell_length_a   8.67591500
_cell_length_b   9.32845700
_cell_length_c   13.70922437
_cell_angle_alpha   67.77071081
_cell_angle_beta   90.00000000
_cell_angle_gamma   90.00000000
_symmetry_Int_Tables_number   1
_chemical_formula_structural   Pr2P3H5WO9
_chemical_formula_sum   'Pr8 P12 H20 W4 O36'
_cell_volume   1027.06423783
_cell_formula_units_Z   4
loop_
 _symmetry_equiv_pos_site_id
 _symmetry_equiv_pos_as_xyz
  1  'x, y, z'
loop_
 _atom_site_type_symbol
 _atom_site_label
 _atom_site_symmetry_multiplicity
 _atom_site_fract_x
 _atom_site_fract_y
 _atom_site_fract_z
 _atom_site_occupancy
  Pr  Pr0  1  0.80233500  0.91903300  0.45968900  1
  Pr  Pr1  1  0.19766500  0.08096700  0.54031100  1
  Pr  Pr2  1  0.30233500  0.08096700  0.04031100  1
  Pr  Pr3  1  0.69766500  0.91903300  0.95968900  1
  Pr  Pr4  1  0.94088700  0.68568000  0.24614500  1
  Pr  Pr5  1  0.05911300  0.31432000  0.75385500  1
  Pr  Pr6  1  0.44088700  0.31432000  0.25385500  1
  Pr  Pr7  1  0.55911300  0.68568000  0.74614500  1
  P  P0  1  0.72962300  0.55960000  0.05376200  1
  P  P1  1  0.27037700  0.44040000  0.94623800  1
  P  P2  1  0.22962300  0.44040000  0.44623800  1
  P  P3  1  0.77037700  0.55960000  0.55376200  1
  P  P4  1  0.41364800  0.94114700  0.32686000  1
  P  P5  1  0.58635200  0.05885300  0.67314000  1
  P  P6  1  0.91364800  0.05885300  0.17314000  1
  P  P7  1  0.08635200  0.94114700  0.82686000  1
  P  P8  1  0.28453300  0.73367800  0.07859800  1
  P  P9  1  0.71546700  0.26632200  0.92140200  1
  P  P10  1  0.78453300  0.26632200  0.42140200  1
  P  P11  1  0.21546700  0.73367800  0.57859800  1
  H  H0  1  0.59260300  0.74158900  0.22797500  1
  H  H1  1  0.40739700  0.25841100  0.77202500  1
  H  H2  1  0.09260300  0.25841100  0.27202500  1
  H  H3  1  0.90739700  0.74158900  0.72797500  1
  H  H4  1  0.87397100  0.49891700  0.02736500  1
  H  H5  1  0.12602900  0.50108300  0.97263500  1
  H  H6  1  0.37397100  0.50108300  0.47263500  1
  H  H7  1  0.62602900  0.49891700  0.52736500  1
  H  H8  1  0.30200400  0.83230300  0.32547300  1
  H  H9  1  0.69799600  0.16769700  0.67452700  1
  H  H10  1  0.80200400  0.16769700  0.17452700  1
  H  H11  1  0.19799600  0.83230300  0.82547300  1
  H  H12  1  0.20592100  0.73527000  0.98880200  1
  H  H13  1  0.79407900  0.26473000  0.01119800  1
  H  H14  1  0.70592100  0.26473000  0.51119800  1
  H  H15  1  0.29407900  0.73527000  0.48880200  1
  H  H16  1  0.50046000  0.49877900  0.32222200  1
  H  H17  1  0.49954000  0.50122100  0.67777800  1
  H  H18  1  0.00046000  0.50122100  0.17777800  1
  H  H19  1  0.99954000  0.49877900  0.82222200  1
  W  W0  1  0.63124800  0.62316400  0.35875400  1
  W  W1  1  0.36875200  0.37683600  0.64124600  1
  W  W2  1  0.13124800  0.37683600  0.14124600  1
  W  W3  1  0.86875200  0.62316400  0.85875400  1
  O  O0  1  0.80673400  0.43988100  0.35479400  1
  O  O1  1  0.19326600  0.56011900  0.64520600  1
  O  O2  1  0.30673400  0.56011900  0.14520600  1
  O  O3  1  0.69326600  0.43988100  0.85479400  1
  O  O4  1  0.56078900  0.84447400  0.37932500  1
  O  O5  1  0.43921100  0.15552600  0.62067500  1
  O  O6  1  0.06078900  0.15552600  0.12067500  1
  O  O7  1  0.93921100  0.84447400  0.87932500  1
  O  O8  1  0.64051300  0.42203900  0.12535200  1
  O  O9  1  0.35948700  0.57796100  0.87464800  1
  O  O10  1  0.14051300  0.57796100  0.37464800  1
  O  O11  1  0.85948700  0.42203900  0.62535200  1
  O  O12  1  0.84738500  0.66457000  0.44630000  1
  O  O13  1  0.15261500  0.33543000  0.55370000  1
  O  O14  1  0.34738500  0.33543000  0.05370000  1
  O  O15  1  0.65261500  0.66457000  0.94630000  1
  O  O16  1  0.18182700  0.81876000  0.13221500  1
  O  O17  1  0.81817300  0.18124000  0.86778500  1
  O  O18  1  0.68182700  0.18124000  0.36778500  1
  O  O19  1  0.31817300  0.81876000  0.63221500  1
  O  O20  1  0.43024100  0.83741000  0.03851600  1
  O  O21  1  0.56975900  0.16259000  0.96148400  1
  O  O22  1  0.93024100  0.16259000  0.46148400  1
  O  O23  1  0.06975900  0.83741000  0.53851600  1
  O  O24  1  0.85742800  0.96412500  0.10893000  1
  O  O25  1  0.14257200  0.03587500  0.89107000  1
  O  O26  1  0.35742800  0.03587500  0.39107000  1
  O  O27  1  0.64257200  0.96412500  0.60893000  1
  O  O28  1  0.93714100  0.94635600  0.28907200  1
  O  O29  1  0.06285900  0.05364400  0.71092800  1
  O  O30  1  0.43714100  0.05364400  0.21092800  1
  O  O31  1  0.56285900  0.94635600  0.78907200  1
  O  O32  1  0.78202300  0.67936400  0.09994900  1
  O  O33  1  0.21797700  0.32063600  0.90005100  1
  O  O34  1  0.28202300  0.32063600  0.40005100  1
  O  O35  1  0.71797700  0.67936400  0.59994900  1
loop_
_geom_bond_atom_site_label_1
_geom_bond_atom_site_label_2
_geom_bond_distance
_geom_bond_site_symmetry_2
H0 W0 1.746034 1_555
H1 W1 1.746034 1_555
H2 W2 1.746034 1_555
H3 W3 1.746034 1_555
H4 P0 1.474715 1_555
H4 W3 2.159039 1_554
H5 P1 1.474715 1_555
H5 W2 2.159039 1_556
H6 P2 1.474715 1_555
H6 W1 2.159039 1_555
H7 P3 1.474715 1_555
H7 W0 2.159039 1_555
H8 P4 1.408585 1_555
H9 P5 1.408585 1_555
H10 P6 1.408585 1_555
H11 P7 1.408585 1_555
H12 P8 1.402497 1_556
H13 P9 1.402497 1_554
H14 P10 1.402497 1_555
H15 P11 1.402497 1_555
H16 W0 1.823298 1_555
H16 Pr6 2.307968 1_555
H17 W1 1.823298 1_555
H17 Pr7 2.307968 1_555
H18 W2 1.823298 1_555
H18 Pr4 2.307968 1_455
H19 W3 1.823298 1_555
H19 Pr5 2.307968 1_655
O0 P10 1.540651 1_555
O0 W0 2.305304 1_555
O0 Pr4 2.499330 1_555
O1 P11 1.540651 1_555
O1 W1 2.305304 1_555
O1 Pr5 2.499330 1_555
O2 P8 1.540651 1_555
O2 W2 2.305304 1_555
O2 Pr6 2.499330 1_555
O3 P9 1.540651 1_555
O3 W3 2.305304 1_555
O3 Pr7 2.499330 1_555
O4 P4 1.571458 1_555
O4 W0 2.270641 1_555
O4 Pr0 2.582443 1_555
O5 P5 1.571458 1_555
O5 W1 2.270641 1_555
O5 Pr1 2.582443 1_555
O6 P6 1.571458 1_455
O6 W2 2.270641 1_555
O6 Pr2 2.582443 1_555
O7 P7 1.571458 1_655
O7 W3 2.270641 1_555
O7 Pr3 2.582443 1_555
O8 P0 1.501567 1_555
O8 Pr6 2.402798 1_555
O9 P1 1.501567 1_555
O9 Pr7 2.402798 1_555
O10 P2 1.501567 1_555
O10 Pr4 2.402798 1_455
O11 P3 1.501567 1_555
O11 Pr5 2.402798 1_655
O12 P3 1.576103 1_555
O12 W0 2.335963 1_555
O12 Pr0 2.480081 1_555
O12 Pr4 2.795957 1_555
O13 P2 1.576103 1_555
O13 W1 2.335963 1_555
O13 Pr1 2.480081 1_555
O13 Pr5 2.795957 1_555
O14 P1 1.576103 1_554
O14 W2 2.335963 1_555
O14 Pr2 2.480081 1_555
O14 Pr6 2.795957 1_555
O15 P0 1.576103 1_556
O15 W3 2.335963 1_555
O15 Pr3 2.480081 1_555
O15 Pr7 2.795957 1_555
O16 P8 1.551014 1_555
O16 Pr2 2.516272 1_565
O16 Pr4 2.623592 1_455
O17 P9 1.551014 1_555
O17 Pr3 2.516272 1_545
O17 Pr5 2.623592 1_655
O18 P10 1.551014 1_555
O18 Pr0 2.516272 1_545
O18 Pr6 2.623592 1_555
O19 P11 1.551014 1_555
O19 Pr1 2.516272 1_565
O19 Pr7 2.623592 1_555
O20 P8 1.560150 1_555
O20 Pr2 2.537002 1_565
O20 Pr3 2.551095 1_554
O21 P9 1.560150 1_555
O21 Pr3 2.537002 1_545
O21 Pr2 2.551095 1_556
O22 P10 1.560150 1_555
O22 Pr0 2.537002 1_545
O22 Pr1 2.551095 1_655
O23 P11 1.560150 1_555
O23 Pr1 2.537002 1_565
O23 Pr0 2.551095 1_455
O24 P6 1.543439 1_565
O24 Pr3 2.633511 1_554
O24 Pr4 2.666967 1_555
O25 P7 1.543439 1_545
O25 Pr2 2.633511 1_556
O25 Pr5 2.666967 1_555
O26 P4 1.543439 1_545
O26 Pr1 2.633511 1_555
O26 Pr6 2.666967 1_555
O27 P5 1.543439 1_565
O27 Pr0 2.633511 1_555
O27 Pr7 2.666967 1_555
O28 P6 1.551405 1_565
O28 Pr0 2.540238 1_555
O28 Pr4 2.709860 1_555
O29 P7 1.551405 1_545
O29 Pr1 2.540238 1_555
O29 Pr5 2.709860 1_555
O30 P4 1.551405 1_545
O30 Pr2 2.540238 1_555
O30 Pr6 2.709860 1_555
O31 P5 1.551405 1_565
O31 Pr3 2.540238 1_555
O31 Pr7 2.709860 1_555
O32 P0 1.546290 1_555
O32 Pr3 2.445162 1_554
O32 Pr4 2.451419 1_555
O33 P1 1.546290 1_555
O33 Pr2 2.445162 1_556
O33 Pr5 2.451419 1_555
O34 P2 1.546290 1_555
O34 Pr1 2.445162 1_555
O34 Pr6 2.451419 1_555
O35 P3 1.546290 1_555
O35 Pr0 2.445162 1_555
O35 Pr7 2.451419 1_555
