# generated using pymatgen
data_Mg(SnO2)2
_symmetry_space_group_name_H-M   'P 1'
_cell_length_a   6.61352835
_cell_length_b   6.61352835
_cell_length_c   15.99061967
_cell_angle_alpha   89.43365818
_cell_angle_beta   89.43365818
_cell_angle_gamma   60.10566330
_symmetry_Int_Tables_number   1
_chemical_formula_structural   Mg(SnO2)2
_chemical_formula_sum   'Mg6 Sn12 O24'
_cell_volume   606.31102988
_cell_formula_units_Z   6
loop_
 _symmetry_equiv_pos_site_id
 _symmetry_equiv_pos_as_xyz
  1  'x, y, z'
loop_
 _atom_site_type_symbol
 _atom_site_label
 _atom_site_symmetry_multiplicity
 _atom_site_fract_x
 _atom_site_fract_y
 _atom_site_fract_z
 _atom_site_occupancy
  Mg  Mg0  1  0.83279200  0.83279200  0.04777300  1
  Mg  Mg1  1  0.50614200  0.50614200  0.38324400  1
  Mg  Mg2  1  0.50000900  0.50000900  0.99970700  1
  Mg  Mg3  1  0.17183800  0.17183800  0.71693200  1
  Mg  Mg4  1  0.82876800  0.82876800  0.28134800  1
  Mg  Mg5  1  0.49396600  0.49396600  0.61986600  1
  Sn  Sn0  1  0.33665100  0.82536600  0.16398000  1
  Sn  Sn1  1  0.33710800  0.33710800  0.16400600  1
  Sn  Sn2  1  0.00097600  0.50153200  0.49939800  1
  Sn  Sn3  1  0.82536600  0.33665100  0.16398000  1
  Sn  Sn4  1  0.16398400  0.16398400  0.33052400  1
  Sn  Sn5  1  0.00194800  0.00194800  0.49945900  1
  Sn  Sn6  1  0.66673300  0.17059400  0.83452500  1
  Sn  Sn7  1  0.50153200  0.00097600  0.49939800  1
  Sn  Sn8  1  0.17059400  0.66673300  0.83452500  1
  Sn  Sn9  1  0.83706800  0.83706800  0.66554200  1
  Sn  Sn10  1  0.66550700  0.66550700  0.83430900  1
  Sn  Sn11  1  0.16642800  0.16642800  0.94854000  1
  O  O0  1  0.65229900  0.65229900  0.08161200  1
  O  O1  1  0.49611100  0.49611100  0.24702500  1
  O  O2  1  0.19752100  0.64828100  0.08248100  1
  O  O3  1  0.64828100  0.19752100  0.08248100  1
  O  O4  1  0.00169900  0.50308400  0.22963300  1
  O  O5  1  0.32969900  0.32969900  0.42907000  1
  O  O6  1  0.50308400  0.00169900  0.22963300  1
  O  O7  1  0.16831900  0.16831900  0.10442600  1
  O  O8  1  0.83776100  0.36066600  0.42603100  1
  O  O9  1  0.17850600  0.17850600  0.57829600  1
  O  O10  1  0.99548800  0.99548800  0.23112600  1
  O  O11  1  0.36066600  0.83776100  0.42603100  1
  O  O12  1  0.63168500  0.16175400  0.57937000  1
  O  O13  1  0.00826600  0.00826600  0.77073800  1
  O  O14  1  0.16175400  0.63168500  0.57937000  1
  O  O15  1  0.81576200  0.81576200  0.41863200  1
  O  O16  1  0.83314000  0.83314000  0.90987100  1
  O  O17  1  0.49015800  0.00408700  0.77319500  1
  O  O18  1  0.67422100  0.67422100  0.57319000  1
  O  O19  1  0.00408700  0.49015800  0.77319500  1
  O  O20  1  0.36507200  0.77343500  0.91078200  1
  O  O21  1  0.50263100  0.50263100  0.75454000  1
  O  O22  1  0.77343500  0.36507200  0.91078200  1
  O  O23  1  0.36195800  0.36195800  0.91144300  1
loop_
_geom_bond_atom_site_label_1
_geom_bond_atom_site_label_2
_geom_bond_distance
_geom_bond_site_symmetry_2
Mg0 O0 2.130125 1_555
Mg0 O2 2.166691 1_655
Mg0 O3 2.166691 1_565
Mg0 O16 2.205097 1_554
Mg1 O11 2.029063 1_555
Mg1 O8 2.029063 1_555
Mg1 O5 2.140995 1_555
Mg1 O1 2.182561 1_555
Mg2 O20 2.110456 1_555
Mg2 O22 2.110456 1_555
Mg2 O23 2.130975 1_555
Mg2 O2 2.175648 1_556
Mg2 O3 2.175648 1_556
Mg2 O0 2.192591 1_556
Mg3 O19 2.040046 1_555
Mg3 O17 2.040046 1_555
Mg3 O13 2.051957 1_555
Mg3 O9 2.217318 1_555
Mg4 O4 2.047492 1_655
Mg4 O6 2.047492 1_565
Mg4 O10 2.062347 1_555
Mg4 O15 2.198603 1_555
Mg5 O12 2.024315 1_555
Mg5 O14 2.024315 1_555
Mg5 O21 2.156936 1_555
Mg5 O18 2.186509 1_555
O0 Sn0 2.235269 1_555
O0 Sn3 2.235269 1_555
O1 Sn1 2.265256 1_555
O1 Sn3 2.301892 1_555
O1 Sn0 2.301892 1_555
O2 Sn1 2.205416 1_555
O2 Sn0 2.246043 1_555
O3 Sn1 2.205416 1_555
O3 Sn3 2.246043 1_555
O4 Sn1 2.185491 1_555
O4 Sn3 2.236127 1_455
O4 Sn4 2.519439 1_555
O5 Sn2 2.190146 1_555
O5 Sn7 2.190146 1_555
O5 Sn4 2.480124 1_555
O6 Sn1 2.185491 1_555
O6 Sn0 2.236127 1_545
O6 Sn4 2.519439 1_555
O7 Sn1 2.164269 1_555
O7 Sn3 2.179898 1_455
O7 Sn0 2.179898 1_545
O7 Sn11 2.493055 1_554
O8 Sn2 2.111513 1_655
O8 Sn5 2.363952 1_655
O8 Sn4 2.419885 1_655
O9 Sn7 2.238283 1_555
O9 Sn2 2.238283 1_555
O9 Sn5 2.394464 1_555
O10 Sn3 2.226004 1_565
O10 Sn0 2.226004 1_655
O10 Sn4 2.513506 1_665
O11 Sn7 2.111513 1_565
O11 Sn5 2.363952 1_565
O11 Sn4 2.419885 1_565
O12 Sn7 2.113734 1_555
O12 Sn9 2.329339 1_545
O12 Sn5 2.476140 1_655
O13 Sn6 2.203129 1_455
O13 Sn8 2.203129 1_545
O13 Sn9 2.597425 1_445
O14 Sn2 2.113734 1_555
O14 Sn9 2.329339 1_455
O14 Sn5 2.476140 1_565
O15 Sn7 2.219897 1_565
O15 Sn2 2.219897 1_655
O15 Sn5 2.505436 1_665
O16 Sn6 2.273395 1_565
O16 Sn8 2.273395 1_655
O16 Sn10 2.279532 1_555
O17 Sn10 2.169011 1_545
O17 Sn6 2.205443 1_555
O17 Sn9 2.623095 1_545
O18 Sn7 2.209687 1_565
O18 Sn2 2.209687 1_655
O18 Sn9 2.391601 1_555
O19 Sn10 2.169011 1_455
O19 Sn8 2.205443 1_555
O19 Sn9 2.623095 1_455
O20 Sn10 2.123270 1_555
O20 Sn8 2.142878 1_555
O20 Sn11 2.336102 1_565
O21 Sn10 2.271264 1_555
O21 Sn8 2.287392 1_555
O21 Sn6 2.287392 1_555
O22 Sn10 2.123270 1_555
O22 Sn6 2.142878 1_555
O22 Sn11 2.336102 1_655
O23 Sn6 2.148552 1_555
O23 Sn8 2.148552 1_555
O23 Sn11 2.309302 1_555
