# generated using pymatgen
data_K2S5
_symmetry_space_group_name_H-M   'P 1'
_cell_length_a   6.48895017
_cell_length_b   6.63951447
_cell_length_c   17.42228806
_cell_angle_alpha   90.00000000
_cell_angle_beta   90.00000000
_cell_angle_gamma   90.00000000
_symmetry_Int_Tables_number   1
_chemical_formula_structural   K2S5
_chemical_formula_sum   'K8 S20'
_cell_volume   750.61277390
_cell_formula_units_Z   4
loop_
 _symmetry_equiv_pos_site_id
 _symmetry_equiv_pos_as_xyz
  1  'x, y, z'
loop_
 _atom_site_type_symbol
 _atom_site_label
 _atom_site_symmetry_multiplicity
 _atom_site_fract_x
 _atom_site_fract_y
 _atom_site_fract_z
 _atom_site_occupancy
  K  K0  1  0.41384726  0.72909790  0.33345850  1
  K  K1  1  0.91384726  0.77090210  0.66654150  1
  K  K2  1  0.58615274  0.22909790  0.16654150  1
  K  K3  1  0.08615274  0.27090210  0.83345850  1
  K  K4  1  0.87562081  0.58501000  0.01039673  1
  K  K5  1  0.37562081  0.91499000  0.98960327  1
  K  K6  1  0.12437919  0.08501000  0.48960327  1
  K  K7  1  0.62437919  0.41499000  0.51039673  1
  S  S0  1  0.54738913  0.72938866  0.15567586  1
  S  S1  1  0.04738913  0.77061134  0.84432414  1
  S  S2  1  0.45261087  0.22938866  0.34432414  1
  S  S3  1  0.95261087  0.27061134  0.65567586  1
  S  S4  1  0.24515886  0.64281592  0.14571957  1
  S  S5  1  0.74515886  0.85718408  0.85428043  1
  S  S6  1  0.75484114  0.14281592  0.35428043  1
  S  S7  1  0.25484114  0.35718408  0.64571957  1
  S  S8  1  0.58753163  0.91406027  0.52927539  1
  S  S9  1  0.08753163  0.58593973  0.47072461  1
  S  S10  1  0.41246837  0.41406027  0.97072461  1
  S  S11  1  0.91246837  0.08593973  0.02927539  1
  S  S12  1  0.42456651  0.88137282  0.62905976  1
  S  S13  1  0.92456651  0.61862718  0.37094024  1
  S  S14  1  0.57543349  0.38137282  0.87094024  1
  S  S15  1  0.07543349  0.11862718  0.12905976  1
  S  S16  1  0.44366318  0.14011703  0.69485834  1
  S  S17  1  0.94366318  0.35988297  0.30514166  1
  S  S18  1  0.55633682  0.64011703  0.80514166  1
  S  S19  1  0.05633682  0.85988297  0.19485834  1
loop_
_geom_bond_atom_site_label_1
_geom_bond_atom_site_label_2
_geom_bond_distance
_geom_bond_site_symmetry_2
K0 S0 3.216313 1_555
K0 S13 3.323330 1_455
K0 S9 3.332604 1_555
K0 S2 3.332729 1_555
K0 S2 3.336572 1_565
K0 S13 3.456475 1_555
K0 S19 3.459298 1_555
K0 S4 3.496392 1_555
K0 S6 3.545842 1_565
K0 S8 3.796998 1_555
K1 S1 3.216313 1_655
K1 S12 3.323330 1_555
K1 S8 3.332604 1_555
K1 S3 3.332729 1_565
K1 S3 3.336572 1_555
K1 S12 3.456475 1_655
K1 S18 3.459298 1_555
K1 S5 3.496392 1_555
K1 S7 3.545842 1_655
K1 S9 3.796998 1_655
K2 S2 3.216313 1_555
K2 S15 3.323330 1_655
K2 S11 3.332604 1_555
K2 S0 3.332729 1_545
K2 S0 3.336572 1_555
K2 S15 3.456475 1_555
K2 S17 3.459298 1_555
K2 S6 3.496392 1_555
K2 S4 3.545842 1_555
K2 S10 3.796998 1_554
K3 S3 3.216313 1_455
K3 S14 3.323330 1_555
K3 S10 3.332604 1_555
K3 S1 3.332729 1_555
K3 S1 3.336572 1_545
K3 S14 3.456475 1_455
K3 S16 3.459298 1_555
K3 S7 3.496392 1_555
K3 S5 3.545842 1_445
K3 S11 3.796998 1_456
K4 S10 3.286073 1_554
K4 S1 3.336533 1_654
K4 S11 3.338442 1_555
K4 S11 3.350696 1_565
K4 S5 3.373450 1_554
K4 S4 3.384632 1_655
K4 S14 3.394932 1_554
K4 S0 3.444089 1_555
K4 S10 3.728447 1_654
K5 S11 3.286073 1_466
K5 S0 3.336533 1_556
K5 S10 3.338442 1_565
K5 S10 3.350696 1_555
K5 S4 3.373450 1_556
K5 S5 3.384632 1_555
K5 S15 3.394932 1_566
K5 S1 3.444089 1_555
K5 S11 3.728447 1_566
K6 S8 3.286073 1_545
K6 S3 3.336533 1_455
K6 S9 3.338442 1_545
K6 S9 3.350696 1_555
K6 S7 3.373450 1_555
K6 S6 3.384632 1_455
K6 S12 3.394932 1_545
K6 S2 3.444089 1_555
K6 S8 3.728447 1_445
K7 S9 3.286073 1_655
K7 S2 3.336533 1_555
K7 S8 3.338442 1_555
K7 S8 3.350696 1_545
K7 S6 3.373450 1_555
K7 S7 3.384632 1_555
K7 S13 3.394932 1_555
K7 S3 3.444089 1_555
K7 S9 3.728447 1_555
S0 S4 2.051005 1_555
S1 S5 2.051005 1_455
S2 S6 2.051005 1_555
S3 S7 2.051005 1_655
S10 S14 2.046371 1_555
S11 S15 2.046371 1_655
S12 S8 2.046371 1_555
S12 S16 2.069011 1_565
S13 S9 2.046371 1_655
S13 S17 2.069011 1_555
S14 S18 2.069011 1_555
S15 S19 2.069011 1_545
S16 S7 2.076365 1_555
S17 S6 2.076365 1_555
S18 S5 2.076365 1_555
S19 S4 2.076365 1_555
