# generated using pymatgen
data_MnSnH16C6S3O11
_symmetry_space_group_name_H-M   'P 1'
_cell_length_a   10.05243700
_cell_length_b   10.83691000
_cell_length_c   16.18667109
_cell_angle_alpha   90.00000000
_cell_angle_beta   96.34628264
_cell_angle_gamma   90.00000000
_symmetry_Int_Tables_number   1
_chemical_formula_structural   MnSnH16C6S3O11
_chemical_formula_sum   'Mn4 Sn4 H64 C24 S12 O44'
_cell_volume   1752.52741168
_cell_formula_units_Z   4
loop_
 _symmetry_equiv_pos_site_id
 _symmetry_equiv_pos_as_xyz
  1  'x, y, z'
loop_
 _atom_site_type_symbol
 _atom_site_label
 _atom_site_symmetry_multiplicity
 _atom_site_fract_x
 _atom_site_fract_y
 _atom_site_fract_z
 _atom_site_occupancy
  Mn  Mn0  1  0.89931100  0.72793800  0.80163700  1
  Mn  Mn1  1  0.10068900  0.22793800  0.69836300  1
  Mn  Mn2  1  0.10068900  0.27206200  0.19836300  1
  Mn  Mn3  1  0.89931100  0.77206200  0.30163700  1
  Sn  Sn0  1  0.31424800  0.74845300  0.58233400  1
  Sn  Sn1  1  0.68575200  0.24845300  0.91766600  1
  Sn  Sn2  1  0.68575200  0.25154700  0.41766600  1
  Sn  Sn3  1  0.31424800  0.75154700  0.08233400  1
  H  H0  1  0.80762600  0.97444900  0.82264100  1
  H  H1  1  0.19237400  0.47444900  0.67735900  1
  H  H2  1  0.19237400  0.02555100  0.17735900  1
  H  H3  1  0.80762600  0.52555100  0.32264100  1
  H  H4  1  0.96451800  0.96325200  0.85060600  1
  H  H5  1  0.03548200  0.46325200  0.64939400  1
  H  H6  1  0.03548200  0.03674800  0.14939400  1
  H  H7  1  0.96451800  0.53674800  0.35060600  1
  H  H8  1  0.00973400  0.77209500  0.96236900  1
  H  H9  1  0.99026600  0.27209500  0.53763100  1
  H  H10  1  0.99026600  0.22790500  0.03763100  1
  H  H11  1  0.00973400  0.72790500  0.46236900  1
  H  H12  1  0.90177300  0.66687600  0.97696100  1
  H  H13  1  0.09822700  0.16687600  0.52303900  1
  H  H14  1  0.09822700  0.33312400  0.02303900  1
  H  H15  1  0.90177300  0.83312400  0.47696100  1
  H  H16  1  0.64542200  0.66892300  0.86106400  1
  H  H17  1  0.35457800  0.16892300  0.63893600  1
  H  H18  1  0.35457800  0.33107700  0.13893600  1
  H  H19  1  0.64542200  0.83107700  0.36106400  1
  H  H20  1  0.61195000  0.72939500  0.77260100  1
  H  H21  1  0.38805000  0.22939500  0.72739900  1
  H  H22  1  0.38805000  0.27060500  0.22739900  1
  H  H23  1  0.61195000  0.77060500  0.27260100  1
  H  H24  1  0.01686300  0.49460800  0.78090300  1
  H  H25  1  0.98313700  0.99460800  0.71909700  1
  H  H26  1  0.98313700  0.50539200  0.21909700  1
  H  H27  1  0.01686300  0.00539200  0.28090300  1
  H  H28  1  0.94464900  0.48764600  0.86378800  1
  H  H29  1  0.05535100  0.98764600  0.63621200  1
  H  H30  1  0.05535100  0.51235400  0.13621200  1
  H  H31  1  0.94464900  0.01235400  0.36378800  1
  H  H32  1  0.85618300  0.65609100  0.63291900  1
  H  H33  1  0.14381700  0.15609100  0.86708100  1
  H  H34  1  0.14381700  0.34390900  0.36708100  1
  H  H35  1  0.85618300  0.84390900  0.13291900  1
  H  H36  1  0.82998400  0.80085000  0.62980300  1
  H  H37  1  0.17001600  0.30085000  0.87019700  1
  H  H38  1  0.17001600  0.19915000  0.37019700  1
  H  H39  1  0.82998400  0.69915000  0.12980300  1
  H  H40  1  0.38993800  0.00544500  0.40591200  1
  H  H41  1  0.61006200  0.50544500  0.09408800  1
  H  H42  1  0.61006200  0.99455500  0.59408800  1
  H  H43  1  0.38993800  0.49455500  0.90591200  1
  H  H44  1  0.28350300  0.94807400  0.77681400  1
  H  H45  1  0.71649700  0.44807400  0.72318600  1
  H  H46  1  0.71649700  0.05192600  0.22318600  1
  H  H47  1  0.28350300  0.55192600  0.27681400  1
  H  H48  1  0.35419100  0.81726200  0.83108100  1
  H  H49  1  0.64580900  0.31726200  0.66891900  1
  H  H50  1  0.64580900  0.18273800  0.16891900  1
  H  H51  1  0.35419100  0.68273800  0.33108100  1
  H  H52  1  0.26763700  0.37603900  0.52047300  1
  H  H53  1  0.73236300  0.87603900  0.97952700  1
  H  H54  1  0.73236300  0.62396100  0.47952700  1
  H  H55  1  0.26763700  0.12396100  0.02047300  1
  H  H56  1  0.37332400  0.47019100  0.46564700  1
  H  H57  1  0.62667600  0.97019100  0.03435300  1
  H  H58  1  0.62667600  0.52980900  0.53435300  1
  H  H59  1  0.37332400  0.02980900  0.96564700  1
  H  H60  1  0.27443500  0.88945600  0.36630900  1
  H  H61  1  0.72556500  0.38945600  0.13369100  1
  H  H62  1  0.72556500  0.11054400  0.63369100  1
  H  H63  1  0.27443500  0.61054400  0.86630900  1
  C  C0  1  0.31485500  0.85184200  0.76931100  1
  C  C1  1  0.68514500  0.35184200  0.73068900  1
  C  C2  1  0.68514500  0.14815800  0.23068900  1
  C  C3  1  0.31485500  0.64815800  0.26931100  1
  C  C4  1  0.18697500  0.78129700  0.74102500  1
  C  C5  1  0.81302500  0.28129700  0.75897500  1
  C  C6  1  0.81302500  0.21870300  0.25897500  1
  C  C7  1  0.18697500  0.71870300  0.24102500  1
  C  C8  1  0.29936600  0.47147900  0.51112500  1
  C  C9  1  0.70063400  0.97147900  0.98887500  1
  C  C10  1  0.70063400  0.52852100  0.48887500  1
  C  C11  1  0.29936600  0.02852100  0.01112500  1
  C  C12  1  0.17701500  0.54181400  0.47200100  1
  C  C13  1  0.82298500  0.04181400  0.02799900  1
  C  C14  1  0.82298500  0.45818600  0.52799900  1
  C  C15  1  0.17701500  0.95818600  0.97200100  1
  C  C16  1  0.33082200  0.92622600  0.42312800  1
  C  C17  1  0.66917800  0.42622600  0.07687200  1
  C  C18  1  0.66917800  0.07377400  0.57687200  1
  C  C19  1  0.33082200  0.57377400  0.92312800  1
  C  C20  1  0.22587000  0.97448400  0.47602100  1
  C  C21  1  0.77413000  0.47448400  0.02397900  1
  C  C22  1  0.77413000  0.02551600  0.52397900  1
  C  C23  1  0.22587000  0.52551600  0.97602100  1
  S  S0  1  0.44799500  0.84873000  0.70191700  1
  S  S1  1  0.55200500  0.34873000  0.79808300  1
  S  S2  1  0.55200500  0.15127000  0.29808300  1
  S  S3  1  0.44799500  0.65127000  0.20191700  1
  S  S4  1  0.37798700  0.52952500  0.61016400  1
  S  S5  1  0.62201300  0.02952500  0.88983600  1
  S  S6  1  0.62201300  0.47047500  0.38983600  1
  S  S7  1  0.37798700  0.97047500  0.11016400  1
  S  S8  1  0.44755100  0.80997800  0.46843700  1
  S  S9  1  0.55244900  0.30997800  0.03156300  1
  S  S10  1  0.55244900  0.19002200  0.53156300  1
  S  S11  1  0.44755100  0.69002200  0.96843700  1
  O  O0  1  0.16057200  0.74243600  0.66582200  1
  O  O1  1  0.83942800  0.24243600  0.83417800  1
  O  O2  1  0.83942800  0.25756400  0.33417800  1
  O  O3  1  0.16057200  0.75756400  0.16582200  1
  O  O4  1  0.10818700  0.76546200  0.79538700  1
  O  O5  1  0.89181300  0.26546200  0.70461300  1
  O  O6  1  0.89181300  0.23453800  0.20461300  1
  O  O7  1  0.10818700  0.73453800  0.29538700  1
  O  O8  1  0.15587200  0.65304600  0.49666200  1
  O  O9  1  0.84412800  0.15304600  0.00333800  1
  O  O10  1  0.84412800  0.34695400  0.50333800  1
  O  O11  1  0.15587200  0.84695400  0.99666200  1
  O  O12  1  0.10221700  0.48812700  0.41577100  1
  O  O13  1  0.89778300  0.98812700  0.08422900  1
  O  O14  1  0.89778300  0.51187300  0.58422900  1
  O  O15  1  0.10221700  0.01187300  0.91577100  1
  O  O16  1  0.19878900  0.91443500  0.54111700  1
  O  O17  1  0.80121100  0.41443500  0.95888300  1
  O  O18  1  0.80121100  0.08556500  0.45888300  1
  O  O19  1  0.19878900  0.58556500  0.04111700  1
  O  O20  1  0.16536700  0.07229600  0.45239100  1
  O  O21  1  0.83463300  0.57229600  0.04760900  1
  O  O22  1  0.83463300  0.92770400  0.54760900  1
  O  O23  1  0.16536700  0.42770400  0.95239100  1
  O  O24  1  0.89147100  0.93731300  0.80653900  1
  O  O25  1  0.10852900  0.43731300  0.69346100  1
  O  O26  1  0.10852900  0.06268700  0.19346100  1
  O  O27  1  0.89147100  0.56268700  0.30653900  1
  O  O28  1  0.92506400  0.73265400  0.93795100  1
  O  O29  1  0.07493600  0.23265400  0.56204900  1
  O  O30  1  0.07493600  0.26734600  0.06204900  1
  O  O31  1  0.92506400  0.76734600  0.43795100  1
  O  O32  1  0.68475200  0.69171800  0.81077200  1
  O  O33  1  0.31524800  0.19171800  0.68922800  1
  O  O34  1  0.31524800  0.30828200  0.18922800  1
  O  O35  1  0.68475200  0.80828200  0.31077200  1
  O  O36  1  0.94290100  0.52798900  0.80959700  1
  O  O37  1  0.05709900  0.02798900  0.69040300  1
  O  O38  1  0.05709900  0.47201100  0.19040300  1
  O  O39  1  0.94290100  0.97201100  0.30959700  1
  O  O40  1  0.83152900  0.72788100  0.66631500  1
  O  O41  1  0.16847100  0.22788100  0.83368500  1
  O  O42  1  0.16847100  0.27211900  0.33368500  1
  O  O43  1  0.83152900  0.77211900  0.16631500  1
loop_
_geom_bond_atom_site_label_1
_geom_bond_atom_site_label_2
_geom_bond_distance
_geom_bond_site_symmetry_2
Mn0 O4 2.152057 1_655
Mn0 O28 2.193595 1_555
Mn0 O36 2.211623 1_555
Mn0 O32 2.213233 1_555
Mn0 O40 2.220862 1_555
Mn0 O24 2.272037 1_555
Mn1 O5 2.152057 1_455
Mn1 O29 2.193595 1_555
Mn1 O37 2.211623 1_555
Mn1 O33 2.213233 1_555
Mn1 O41 2.220862 1_555
Mn1 O25 2.272037 1_555
Mn2 O6 2.152057 1_455
Mn2 O30 2.193595 1_555
Mn2 O38 2.211623 1_555
Mn2 O34 2.213233 1_555
Mn2 O42 2.220862 1_555
Mn2 O26 2.272037 1_555
Mn3 O7 2.152057 1_655
Mn3 O31 2.193595 1_555
Mn3 O39 2.211623 1_555
Mn3 O35 2.213233 1_555
Mn3 O43 2.220862 1_555
Mn3 O27 2.272037 1_555
H0 O24 0.994407 1_555
H1 O25 0.994407 1_555
H2 O26 0.994407 1_555
H3 O27 0.994407 1_555
H4 O24 1.005592 1_555
H5 O25 1.005592 1_555
H6 O26 1.005592 1_555
H7 O27 1.005592 1_555
H8 O28 0.994472 1_455
H8 O11 1.715823 1_555
H9 O29 0.994472 1_655
H9 O10 1.715823 1_555
H10 O30 0.994472 1_655
H10 O9 1.715823 1_555
H11 O31 0.994472 1_455
H11 O8 1.715823 1_555
H12 O28 0.997170 1_555
H13 O29 0.997170 1_555
H14 O30 0.997170 1_555
H15 O31 0.997170 1_555
H16 O32 0.975285 1_555
H17 O33 0.975285 1_555
H18 O34 0.975285 1_555
H19 O35 0.975285 1_555
H20 O32 0.992011 1_555
H21 O33 0.992011 1_555
H22 O34 0.992011 1_555
H23 O35 0.992011 1_555
H24 O36 0.987784 1_455
H25 O37 0.987784 1_665
H26 O38 0.987784 1_655
H27 O39 0.987784 1_445
H28 O36 0.978504 1_555
H29 O37 0.978504 1_565
H30 O38 0.978504 1_555
H31 O39 0.978504 1_545
H32 O40 0.994239 1_555
H33 O41 0.994239 1_555
H34 O42 0.994239 1_555
H35 O43 0.994239 1_555
H36 O40 0.986307 1_555
H37 O41 0.986307 1_555
H38 O42 0.986307 1_555
H39 O43 0.986307 1_555
C0 H48 1.099584 1_555
C0 H44 1.100042 1_555
C0 S0 1.818022 1_555
C1 H49 1.099584 1_555
C1 H45 1.100042 1_555
C1 S1 1.818022 1_555
C2 H50 1.099584 1_555
C2 H46 1.100042 1_555
C2 S2 1.818022 1_555
C3 H51 1.099584 1_555
C3 H47 1.100042 1_555
C3 S3 1.818022 1_555
C4 O4 1.259006 1_555
C4 O0 1.287695 1_555
C5 O5 1.259006 1_555
C5 O1 1.287695 1_555
C6 O6 1.259006 1_555
C6 O2 1.287695 1_555
C7 O7 1.259006 1_555
C7 O3 1.287695 1_555
C8 H52 1.097734 1_555
C8 H56 1.102640 1_555
C8 S4 1.819391 1_555
C9 H53 1.097734 1_555
C9 H57 1.102640 1_556
C9 S5 1.819391 1_565
C10 H54 1.097734 1_555
C10 H58 1.102640 1_555
C10 S6 1.819391 1_555
C11 H55 1.097734 1_555
C11 H59 1.102640 1_554
C11 S7 1.819391 1_545
C12 O12 1.257368 1_555
C12 O8 1.294716 1_555
C13 O13 1.257368 1_545
C13 O9 1.294716 1_555
C14 O14 1.257368 1_555
C14 O10 1.294716 1_555
C15 O15 1.257368 1_565
C15 O11 1.294716 1_555
C16 H40 1.097459 1_565
C16 H60 1.100314 1_555
C16 S8 1.819763 1_555
C17 H41 1.097459 1_555
C17 H61 1.100314 1_555
C17 S9 1.819763 1_555
C18 H42 1.097459 1_545
C18 H62 1.100314 1_555
C18 S10 1.819763 1_555
C19 H43 1.097459 1_555
C19 H63 1.100314 1_555
C19 S11 1.819763 1_555
C20 O20 1.260293 1_565
C20 O16 1.292769 1_555
C21 O21 1.260293 1_555
C21 O17 1.292769 1_554
C22 O22 1.260293 1_545
C22 O18 1.292769 1_555
C23 O23 1.260293 1_555
C23 O19 1.292769 1_556
S0 Sn0 2.481924 1_555
S1 Sn1 2.481924 1_555
S2 Sn2 2.481924 1_555
S3 Sn3 2.481924 1_555
S4 Sn0 2.485644 1_555
S5 Sn1 2.485644 1_555
S6 Sn2 2.485644 1_555
S7 Sn3 2.485644 1_555
S8 Sn0 2.487020 1_555
S9 Sn1 2.487020 1_554
S10 Sn2 2.487020 1_555
S11 Sn3 2.487020 1_556
O0 Sn0 2.162985 1_555
O1 Sn1 2.162985 1_555
O2 Sn2 2.162985 1_555
O3 Sn3 2.162985 1_555
O8 Sn0 2.244689 1_555
O9 Sn1 2.244689 1_554
O10 Sn2 2.244689 1_555
O11 Sn3 2.244689 1_556
O16 Sn0 2.203737 1_555
O17 Sn1 2.203737 1_555
O18 Sn2 2.203737 1_555
O19 Sn3 2.203737 1_555
