# generated using pymatgen
data_MnCd4Te5
_symmetry_space_group_name_H-M   'P 1'
_cell_length_a   6.51321495
_cell_length_b   7.97700039
_cell_length_c   7.97726768
_cell_angle_alpha   80.40146380
_cell_angle_beta   65.89763467
_cell_angle_gamma   65.90880693
_symmetry_Int_Tables_number   1
_chemical_formula_structural   MnCd4Te5
_chemical_formula_sum   'Mn1 Cd4 Te5'
_cell_volume   345.37810860
_cell_formula_units_Z   1
loop_
 _symmetry_equiv_pos_site_id
 _symmetry_equiv_pos_as_xyz
  1  'x, y, z'
loop_
 _atom_site_type_symbol
 _atom_site_label
 _atom_site_symmetry_multiplicity
 _atom_site_fract_x
 _atom_site_fract_y
 _atom_site_fract_z
 _atom_site_occupancy
  Mn  Mn0  1  0.80013720  0.79999578  0.59998222  1
  Cd  Cd0  1  0.00030242  0.99755180  0.99891664  1
  Cd  Cd1  1  0.20076931  0.19903079  0.40225478  1
  Cd  Cd2  1  0.40199179  0.40097237  0.79775592  1
  Cd  Cd3  1  0.59690531  0.60233193  0.20099507  1
  Te  Te0  1  0.46105040  0.70236536  0.89156960  1
  Te  Te1  1  0.65470375  0.89784945  0.30861290  1
  Te  Te2  1  0.84754078  0.09142871  0.69769995  1
  Te  Te3  1  0.04978901  0.29999065  0.09998164  1
  Te  Te4  1  0.23680903  0.50848216  0.50223128  1
loop_
_geom_bond_atom_site_label_1
_geom_bond_atom_site_label_2
_geom_bond_distance
_geom_bond_site_symmetry_2
Mn0 Te2 2.737586 1_565
Mn0 Te1 2.738358 1_555
Mn0 Te4 2.738372 1_655
Mn0 Te0 2.738448 1_555
Cd0 Te1 2.840284 1_456
Cd0 Te2 2.840582 1_465
Cd0 Te3 2.840777 1_566
Cd0 Te0 2.844011 1_555
Cd1 Te4 2.840267 1_555
Cd1 Te1 2.840282 1_545
Cd1 Te3 2.841220 1_555
Cd1 Te2 2.844891 1_455
Cd2 Te3 2.840360 1_556
Cd2 Te2 2.840979 1_555
Cd2 Te0 2.842254 1_555
Cd2 Te4 2.845123 1_555
Cd3 Te0 2.839567 1_554
Cd3 Te3 2.840051 1_655
Cd3 Te4 2.840109 1_555
Cd3 Te1 2.845899 1_555
