# generated using pymatgen
data_Mn7Sb4
_symmetry_space_group_name_H-M   'P 1'
_cell_length_a   4.44247011
_cell_length_b   4.44247011
_cell_length_c   10.90603800
_cell_angle_alpha   90.00000000
_cell_angle_beta   90.00000000
_cell_angle_gamma   120.00000161
_symmetry_Int_Tables_number   1
_chemical_formula_structural   Mn7Sb4
_chemical_formula_sum   'Mn7 Sb4'
_cell_volume   186.40032263
_cell_formula_units_Z   1
loop_
 _symmetry_equiv_pos_site_id
 _symmetry_equiv_pos_as_xyz
  1  'x, y, z'
loop_
 _atom_site_type_symbol
 _atom_site_label
 _atom_site_symmetry_multiplicity
 _atom_site_fract_x
 _atom_site_fract_y
 _atom_site_fract_z
 _atom_site_occupancy
  Mn  Mn0  1  0.66666700  0.33333300  0.87423200  1
  Mn  Mn1  1  0.66666700  0.33333300  0.37452500  1
  Mn  Mn2  1  0.66666700  0.33333300  0.12576800  1
  Mn  Mn3  1  0.66666700  0.33333300  0.62547500  1
  Mn  Mn4  1  0.33333300  0.66666700  0.50000000  1
  Mn  Mn5  1  0.00000000  0.00000000  0.74352600  1
  Mn  Mn6  1  0.00000000  0.00000000  0.25647400  1
  Sb  Sb0  1  0.33333300  0.66666700  0.75897100  1
  Sb  Sb1  1  0.33333300  0.66666700  0.24102900  1
  Sb  Sb2  1  0.00000000  0.00000000  0.00000000  1
  Sb  Sb3  1  0.00000000  0.00000000  0.50000000  1
loop_
_geom_bond_atom_site_label_1
_geom_bond_atom_site_label_2
_geom_bond_distance
_geom_bond_site_symmetry_2
Mn0 Mn3 2.712953 1_555
Mn0 Mn2 2.743261 1_556
Mn0 Sb0 2.856335 1_545
Mn0 Sb0 2.856335 1_655
Mn0 Sb0 2.856342 1_555
Mn0 Sb2 2.908586 1_656
Mn0 Sb2 2.908589 1_666
Mn0 Sb2 2.908589 1_556
Mn0 Mn5 2.934367 1_655
Mn0 Mn5 2.934370 1_555
Mn0 Mn5 2.934370 1_665
Mn1 Mn2 2.712953 1_555
Mn1 Mn3 2.736870 1_555
Mn1 Mn6 2.869856 1_655
Mn1 Mn6 2.869860 1_665
Mn1 Mn6 2.869860 1_555
Mn1 Mn4 2.907080 1_545
Mn1 Mn4 2.907080 1_655
Mn1 Sb3 2.907080 1_655
Mn1 Sb3 2.907084 1_555
Mn1 Sb3 2.907084 1_665
Mn1 Mn4 2.907087 1_555
Mn1 Sb1 2.949268 1_545
Mn1 Sb1 2.949268 1_655
Mn1 Sb1 2.949275 1_555
Mn2 Sb1 2.856335 1_545
Mn2 Sb1 2.856335 1_655
Mn2 Sb1 2.856342 1_555
Mn2 Sb2 2.908586 1_655
Mn2 Sb2 2.908589 1_665
Mn2 Sb2 2.908589 1_555
Mn2 Mn6 2.934367 1_655
Mn2 Mn6 2.934370 1_665
Mn2 Mn6 2.934370 1_555
Mn3 Mn5 2.869856 1_655
Mn3 Mn5 2.869860 1_665
Mn3 Mn5 2.869860 1_555
Mn3 Mn4 2.907080 1_545
Mn3 Mn4 2.907080 1_655
Mn3 Sb3 2.907080 1_655
Mn3 Sb3 2.907084 1_555
Mn3 Sb3 2.907084 1_665
Mn3 Mn4 2.907087 1_555
Mn3 Sb0 2.949268 1_655
Mn3 Sb0 2.949268 1_545
Mn3 Sb0 2.949275 1_555
Mn4 Sb3 2.564859 1_565
Mn4 Sb3 2.564863 1_555
Mn4 Sb3 2.564863 1_665
Mn4 Sb0 2.824348 1_555
Mn4 Sb1 2.824348 1_555
Mn5 Sb0 2.570384 1_545
Mn5 Sb0 2.570388 1_445
Mn5 Sb0 2.570388 1_555
Mn5 Sb3 2.655904 1_555
Mn5 Sb2 2.797115 1_556
Mn6 Sb1 2.570384 1_545
Mn6 Sb1 2.570388 1_445
Mn6 Sb1 2.570388 1_555
Mn6 Sb3 2.655904 1_555
Mn6 Sb2 2.797115 1_555
