# generated using pymatgen
data_Na3CoAsCO7
_symmetry_space_group_name_H-M   'P 1'
_cell_length_a   8.66629679
_cell_length_b   8.66387675
_cell_length_c   9.13174465
_cell_angle_alpha   89.41136712
_cell_angle_beta   89.28902345
_cell_angle_gamma   104.89278419
_symmetry_Int_Tables_number   1
_chemical_formula_structural   Na3CoAsCO7
_chemical_formula_sum   'Na12 Co4 As4 C4 O28'
_cell_volume   662.49822053
_cell_formula_units_Z   4
loop_
 _symmetry_equiv_pos_site_id
 _symmetry_equiv_pos_as_xyz
  1  'x, y, z'
loop_
 _atom_site_type_symbol
 _atom_site_label
 _atom_site_symmetry_multiplicity
 _atom_site_fract_x
 _atom_site_fract_y
 _atom_site_fract_z
 _atom_site_occupancy
  Na  Na0  1  0.50832300  0.25918200  0.07944200  1
  Na  Na1  1  0.00983400  0.75882600  0.07874200  1
  Na  Na2  1  0.49200800  0.74309800  0.91944000  1
  Na  Na3  1  0.99230800  0.24157200  0.91870200  1
  Na  Na4  1  0.12848500  0.12422600  0.25870200  1
  Na  Na5  1  0.62604500  0.62286300  0.25818600  1
  Na  Na6  1  0.37354800  0.87625300  0.25776200  1
  Na  Na7  1  0.87306000  0.37667000  0.25801000  1
  Na  Na8  1  0.62794400  0.12378100  0.74152900  1
  Na  Na9  1  0.12633700  0.62184500  0.74160800  1
  Na  Na10  1  0.87370700  0.87764800  0.74162200  1
  Na  Na11  1  0.37212700  0.37603200  0.74165500  1
  Co  Co0  1  0.26475800  0.51882900  0.34624100  1
  Co  Co1  1  0.73049500  0.48392800  0.65340800  1
  Co  Co2  1  0.76683800  0.01688500  0.34134600  1
  Co  Co3  1  0.23359800  0.98047800  0.65262600  1
  As  As0  1  0.47783100  0.22696900  0.41716000  1
  As  As1  1  0.97631100  0.72731400  0.41666400  1
  As  As2  1  0.52321300  0.77281700  0.58359000  1
  As  As3  1  0.02159200  0.27164900  0.58353600  1
  C  C0  1  0.73647500  0.98651200  0.05904300  1
  C  C1  1  0.23573500  0.48594900  0.05979200  1
  C  C2  1  0.26571600  0.01544400  0.94081800  1
  C  C3  1  0.76516200  0.51547300  0.94108800  1
  O  O0  1  0.27382700  0.02319700  0.08241100  1
  O  O1  1  0.77425700  0.52421500  0.08254900  1
  O  O2  1  0.72346900  0.97344800  0.91845500  1
  O  O3  1  0.22275600  0.47279500  0.91900800  1
  O  O4  1  0.84839100  0.09885900  0.11663700  1
  O  O5  1  0.34600500  0.60001800  0.11720300  1
  O  O6  1  0.15539700  0.90468500  0.87902900  1
  O  O7  1  0.65306000  0.40599900  0.88015500  1
  O  O8  1  0.63813700  0.88771900  0.14729600  1
  O  O9  1  0.13876500  0.38512600  0.14755900  1
  O  O10  1  0.36689400  0.11754300  0.85798100  1
  O  O11  1  0.86760900  0.61537200  0.85727200  1
  O  O12  1  0.31445600  0.06441600  0.44581400  1
  O  O13  1  0.81459500  0.56358300  0.44556700  1
  O  O14  1  0.68528800  0.93536400  0.55443400  1
  O  O15  1  0.18489300  0.43399400  0.55429600  1
  O  O16  1  0.45158000  0.70146000  0.41658100  1
  O  O17  1  0.95093400  0.20082100  0.41618500  1
  O  O18  1  0.54729100  0.29662700  0.58505700  1
  O  O19  1  0.04676900  0.79629100  0.58438300  1
  O  O20  1  0.42054300  0.36636800  0.30874000  1
  O  O21  1  0.91728800  0.86527100  0.30736800  1
  O  O22  1  0.61553300  0.16727900  0.30740300  1
  O  O23  1  0.11495800  0.66973300  0.30647400  1
  O  O24  1  0.38333800  0.82939900  0.69310200  1
  O  O25  1  0.88241400  0.32945700  0.69243900  1
  O  O26  1  0.58035400  0.63413000  0.69379900  1
  O  O27  1  0.07975000  0.13259000  0.69208700  1
loop_
_geom_bond_atom_site_label_1
_geom_bond_atom_site_label_2
_geom_bond_distance
_geom_bond_site_symmetry_2
Na0 O7 2.361951 1_554
Na0 O0 2.484460 1_555
Na0 O20 2.487774 1_555
Na0 O22 2.494966 1_555
Na0 O10 2.537187 1_554
Na0 O1 2.804929 1_555
Na1 O6 2.364406 1_554
Na1 O23 2.475077 1_555
Na1 O1 2.482858 1_455
Na1 O21 2.496132 1_455
Na1 O11 2.545611 1_454
Na1 O0 2.791327 1_565
Na2 O5 2.343090 1_556
Na2 O2 2.438872 1_555
Na2 O26 2.468907 1_555
Na2 O24 2.469089 1_555
Na2 O8 2.608918 1_556
Na2 O3 2.849689 1_555
Na3 O4 2.335990 1_556
Na3 O3 2.438327 1_655
Na3 O27 2.473294 1_655
Na3 O25 2.478936 1_555
Na3 O9 2.614034 1_656
Na3 O2 2.835965 1_545
Na4 O17 2.316394 1_455
Na4 O0 2.342997 1_555
Na4 O9 2.448378 1_555
Na4 O12 2.502994 1_555
Na4 O21 2.535661 1_445
Na4 O4 2.726397 1_455
Na4 O20 2.887074 1_555
Na5 O16 2.310210 1_555
Na5 O1 2.343930 1_555
Na5 O8 2.475470 1_555
Na5 O20 2.499481 1_555
Na5 O13 2.518822 1_555
Na5 O5 2.724405 1_555
Na5 O21 2.881983 1_555
Na6 O16 2.315092 1_555
Na6 O0 2.343009 1_565
Na6 O8 2.471592 1_555
Na6 O23 2.513820 1_555
Na6 O12 2.516670 1_565
Na6 O5 2.685009 1_555
Na6 O22 2.879234 1_565
Na7 O17 2.317422 1_555
Na7 O1 2.342883 1_555
Na7 O9 2.485783 1_655
Na7 O13 2.503952 1_555
Na7 O22 2.520421 1_555
Na7 O4 2.704034 1_555
Na7 O23 2.889204 1_655
Na8 O18 2.300349 1_555
Na8 O2 2.352924 1_545
Na8 O10 2.475519 1_555
Na8 O25 2.485714 1_555
Na8 O14 2.506788 1_545
Na8 O7 2.724934 1_555
Na8 O24 2.908875 1_545
Na9 O19 2.310150 1_555
Na9 O3 2.352739 1_555
Na9 O11 2.453901 1_455
Na9 O24 2.508163 1_555
Na9 O15 2.508443 1_555
Na9 O6 2.719723 1_555
Na9 O25 2.895121 1_455
Na10 O19 2.306236 1_655
Na10 O2 2.350006 1_555
Na10 O11 2.483780 1_555
Na10 O27 2.490764 1_665
Na10 O14 2.511910 1_555
Na10 O6 2.716050 1_655
Na10 O26 2.897348 1_555
Na11 O18 2.307762 1_555
Na11 O3 2.352690 1_555
Na11 O10 2.458375 1_555
Na11 O15 2.506474 1_555
Na11 O26 2.516711 1_555
Na11 O7 2.711596 1_555
Na11 O27 2.893909 1_555
Co0 O16 2.065776 1_555
Co0 O15 2.075113 1_555
Co0 O23 2.097844 1_555
Co0 O20 2.144588 1_555
Co0 O5 2.245805 1_555
Co0 O9 2.295216 1_555
Co1 O18 2.065128 1_555
Co1 O13 2.071207 1_555
Co1 O26 2.095438 1_555
Co1 O25 2.135193 1_555
Co1 O7 2.213019 1_555
Co1 O11 2.361661 1_555
Co2 O17 2.072330 1_555
Co2 O22 2.096016 1_555
Co2 O21 2.097720 1_545
Co2 O14 2.113235 1_545
Co2 O4 2.211472 1_555
Co2 O8 2.254907 1_545
Co3 O12 2.064831 1_565
Co3 O19 2.067305 1_555
Co3 O24 2.099760 1_555
Co3 O27 2.131985 1_565
Co3 O6 2.207588 1_555
Co3 O10 2.378146 1_565
As0 O18 1.712436 1_555
As0 O20 1.726610 1_555
As0 O22 1.730407 1_555
As0 O12 1.736320 1_555
As1 O19 1.711760 1_655
As1 O21 1.728814 1_555
As1 O23 1.730183 1_655
As1 O13 1.734155 1_555
As2 O16 1.714369 1_555
As2 O14 1.730109 1_555
As2 O26 1.730665 1_555
As2 O24 1.730680 1_555
As3 O17 1.713558 1_455
As3 O25 1.727895 1_455
As3 O27 1.728623 1_555
As3 O15 1.735567 1_555
C0 O2 1.293720 1_554
C0 O8 1.304691 1_555
C0 O4 1.304855 1_565
C1 O3 1.295541 1_554
C1 O5 1.304761 1_555
C1 O9 1.305056 1_555
C2 O0 1.297263 1_556
C2 O10 1.301779 1_555
C2 O6 1.306209 1_545
C3 O1 1.296969 1_556
C3 O11 1.302964 1_555
C3 O7 1.305238 1_555
