# generated using pymatgen
data_Al8(SiO6)3
_symmetry_space_group_name_H-M   'P 1'
_cell_length_a   2.92734000
_cell_length_b   8.25867366
_cell_length_c   13.67336899
_cell_angle_alpha   78.93232106
_cell_angle_beta   90.00000000
_cell_angle_gamma   90.00000000
_symmetry_Int_Tables_number   1
_chemical_formula_structural   Al8(SiO6)3
_chemical_formula_sum   'Al8 Si3 O18'
_cell_volume   324.41845501
_cell_formula_units_Z   1
loop_
 _symmetry_equiv_pos_site_id
 _symmetry_equiv_pos_as_xyz
  1  'x, y, z'
loop_
 _atom_site_type_symbol
 _atom_site_label
 _atom_site_symmetry_multiplicity
 _atom_site_fract_x
 _atom_site_fract_y
 _atom_site_fract_z
 _atom_site_occupancy
  Al  Al0  1  0.00000000  0.97621500  0.06948000  1
  Al  Al1  1  0.00000000  0.89103400  0.44759300  1
  Al  Al2  1  0.50000000  0.29724800  0.61258300  1
  Al  Al3  1  0.50000000  0.21148700  0.38632000  1
  Al  Al4  1  0.50000000  0.87872800  0.65964100  1
  Al  Al5  1  0.50000000  0.79187300  0.26464900  1
  Al  Al6  1  0.00000000  0.48508300  0.22372600  1
  Al  Al7  1  0.00000000  0.51068300  0.74805000  1
  Si  Si0  1  0.50000000  0.31821300  0.07736500  1
  Si  Si1  1  0.50000000  0.14964200  0.82250400  1
  Si  Si2  1  0.50000000  0.66029600  0.00049000  1
  O  O0  1  0.00000000  0.30986400  0.14175700  1
  O  O1  1  0.00000000  0.09313000  0.37792300  1
  O  O2  1  0.00000000  0.40779000  0.63632400  1
  O  O3  1  0.00000000  0.88364000  0.58552000  1
  O  O4  1  0.50000000  0.13451300  0.04712100  1
  O  O5  1  0.50000000  0.37934100  0.29195100  1
  O  O6  1  0.50000000  0.21552400  0.51150700  1
  O  O7  1  0.50000000  0.35492400  0.79531000  1
  O  O8  1  0.50000000  0.56860700  0.12772300  1
  O  O9  1  0.50000000  0.07909400  0.71284900  1
  O  O10  1  0.50000000  0.45465800  0.97641500  1
  O  O11  1  0.50000000  0.66191900  0.72708100  1
  O  O12  1  0.50000000  0.80919200  0.41088300  1
  O  O13  1  0.50000000  0.85719300  0.03381700  1
  O  O14  1  0.00000000  0.65136500  0.28878700  1
  O  O15  1  0.00000000  0.92690300  0.20326900  1
  O  O16  1  0.00000000  0.09226400  0.87279800  1
  O  O17  1  0.00000000  0.69957600  0.93856100  1
loop_
_geom_bond_atom_site_label_1
_geom_bond_atom_site_label_2
_geom_bond_distance
_geom_bond_site_symmetry_2
Al0 O15 1.796198 1_555
Al0 O13 1.878927 1_455
Al0 O13 1.878927 1_555
Al0 O4 1.947167 1_465
Al0 O4 1.947167 1_565
Al1 O12 1.726670 1_455
Al1 O12 1.726670 1_555
Al1 O1 1.755777 1_565
Al1 O3 1.875162 1_555
Al2 O6 1.650371 1_555
Al2 O2 1.787437 1_655
Al2 O2 1.787437 1_555
Al2 O9 2.043825 1_555
Al3 O5 1.702913 1_555
Al3 O6 1.718440 1_555
Al3 O1 1.775965 1_555
Al3 O1 1.775965 1_655
Al4 O3 1.776328 1_555
Al4 O3 1.776328 1_655
Al4 O11 1.849996 1_555
Al4 O9 1.931254 1_565
Al5 O14 1.857624 1_555
Al5 O14 1.857624 1_655
Al5 O15 1.931572 1_555
Al5 O15 1.931572 1_655
Al5 O12 2.031824 1_555
Al6 O14 1.773782 1_555
Al6 O5 1.860759 1_555
Al6 O5 1.860759 1_455
Al6 O0 1.993214 1_555
Al6 O8 1.998410 1_555
Al6 O8 1.998410 1_455
Al7 O2 1.885279 1_555
Al7 O11 1.909730 1_455
Al7 O11 1.909730 1_555
Al7 O7 1.973699 1_555
Al7 O7 1.973699 1_455
O0 Si0 1.702638 1_555
O0 Si0 1.702638 1_455
O4 Si0 1.647282 1_555
O7 Si1 1.664472 1_555
O8 Si2 1.759029 1_555
O8 Si0 2.301545 1_555
O9 Si1 1.709654 1_555
O10 Si0 1.605589 1_556
O10 Si2 1.790871 1_556
O13 Si2 1.770983 1_555
O16 Si1 1.647629 1_555
O16 Si1 1.647629 1_455
O17 Si2 1.690897 1_456
O17 Si2 1.690897 1_556
