# generated using pymatgen
data_Th4SiGe
_symmetry_space_group_name_H-M   'P 1'
_cell_length_a   6.04747111
_cell_length_b   6.04747111
_cell_length_c   6.04747111
_cell_angle_alpha   104.45041621
_cell_angle_beta   104.45041621
_cell_angle_gamma   120.06061065
_symmetry_Int_Tables_number   1
_chemical_formula_structural   Th4SiGe
_chemical_formula_sum   'Th4 Si1 Ge1'
_cell_volume   165.82486128
_cell_formula_units_Z   1
loop_
 _symmetry_equiv_pos_site_id
 _symmetry_equiv_pos_as_xyz
  1  'x, y, z'
loop_
 _atom_site_type_symbol
 _atom_site_label
 _atom_site_symmetry_multiplicity
 _atom_site_fract_x
 _atom_site_fract_y
 _atom_site_fract_z
 _atom_site_occupancy
  Th  Th0  1  0.91436600  0.41436600  0.82873200  1
  Th  Th1  1  0.58563400  0.08563400  0.17126800  1
  Th  Th2  1  0.08563400  0.91436600  0.50000000  1
  Th  Th3  1  0.41436600  0.58563400  0.50000000  1
  Si  Si0  1  0.50000000  0.50000000  0.00000000  1
  Ge  Ge0  1  0.00000000  0.00000000  0.00000000  1
loop_
_geom_bond_atom_site_label_1
_geom_bond_atom_site_label_2
_geom_bond_distance
_geom_bond_site_symmetry_2
Si0 Th2 3.154050 1_655
Si0 Th0 3.154050 1_454
Si0 Th1 3.154050 1_565
Si0 Th3 3.154050 1_554
Si0 Th3 3.154050 1_555
Si0 Th1 3.154050 1_555
Si0 Th0 3.154050 1_554
Si0 Th2 3.154050 1_544
Ge0 Si0 3.020965 1_555
Ge0 Si0 3.020965 1_445
Ge0 Th0 3.154050 1_444
Ge0 Th3 3.154050 1_444
Ge0 Th1 3.154050 1_455
Ge0 Th0 3.154050 1_454
Ge0 Th3 3.154050 1_555
Ge0 Th1 3.154050 1_555
Ge0 Th2 3.154050 1_544
Ge0 Th2 3.154050 1_545
