# generated using pymatgen
data_Mo2P4O15
_symmetry_space_group_name_H-M   'P 1'
_cell_length_a   6.83281300
_cell_length_b   8.49609600
_cell_length_c   11.10808053
_cell_angle_alpha   73.94245831
_cell_angle_beta   90.00000000
_cell_angle_gamma   90.00000000
_symmetry_Int_Tables_number   1
_chemical_formula_structural   Mo2P4O15
_chemical_formula_sum   'Mo4 P8 O30'
_cell_volume   619.68973065
_cell_formula_units_Z   2
loop_
 _symmetry_equiv_pos_site_id
 _symmetry_equiv_pos_as_xyz
  1  'x, y, z'
loop_
 _atom_site_type_symbol
 _atom_site_label
 _atom_site_symmetry_multiplicity
 _atom_site_fract_x
 _atom_site_fract_y
 _atom_site_fract_z
 _atom_site_occupancy
  Mo  Mo0  1  0.99917500  0.20286800  0.34821500  1
  Mo  Mo1  1  0.49818200  0.79746100  0.15261300  1
  Mo  Mo2  1  0.50181800  0.79746100  0.65261300  1
  Mo  Mo3  1  0.00082500  0.20286800  0.84821500  1
  P  P0  1  0.30995000  0.18540100  0.10093900  1
  P  P1  1  0.80772300  0.81697400  0.39914000  1
  P  P2  1  0.19227700  0.81697400  0.89914000  1
  P  P3  1  0.69005000  0.18540100  0.60093900  1
  P  P4  1  0.63724900  0.41388600  0.12687100  1
  P  P5  1  0.13347700  0.58101200  0.37743500  1
  P  P6  1  0.86652300  0.58101200  0.87743500  1
  P  P7  1  0.36275100  0.41388600  0.62687100  1
  O  O0  1  0.92182700  0.97338700  0.34038000  1
  O  O1  1  0.42111300  0.02707600  0.15996100  1
  O  O2  1  0.57888700  0.02707600  0.65996100  1
  O  O3  1  0.07817300  0.97338700  0.84038000  1
  O  O4  1  0.77784000  0.19482500  0.47391900  1
  O  O5  1  0.27579000  0.80631800  0.02788100  1
  O  O6  1  0.72421000  0.80631800  0.52788100  1
  O  O7  1  0.22216000  0.19482500  0.97391900  1
  O  O8  1  0.18294500  0.15538900  0.45485800  1
  O  O9  1  0.68333200  0.84445600  0.04722000  1
  O  O10  1  0.31666800  0.84445600  0.54722000  1
  O  O11  1  0.81705500  0.15538900  0.95485800  1
  O  O12  1  0.46984100  0.33081200  0.06643100  1
  O  O13  1  0.96302100  0.66959200  0.42981800  1
  O  O14  1  0.03697900  0.66959200  0.92981800  1
  O  O15  1  0.53015900  0.33081200  0.56643100  1
  O  O16  1  0.04355100  0.45474400  0.32183300  1
  O  O17  1  0.54639300  0.54576800  0.17569400  1
  O  O18  1  0.45360700  0.54576800  0.67569400  1
  O  O19  1  0.95644900  0.45474400  0.82183300  1
  O  O20  1  0.16500600  0.22822000  0.19039400  1
  O  O21  1  0.65887200  0.77707000  0.31103800  1
  O  O22  1  0.34112800  0.77707000  0.81103800  1
  O  O23  1  0.83499400  0.22822000  0.69039400  1
  O  O24  1  0.75668200  0.28830200  0.21832100  1
  O  O25  1  0.26876000  0.70105500  0.29389800  1
  O  O26  1  0.73124000  0.70105500  0.79389800  1
  O  O27  1  0.24331800  0.28830200  0.71832100  1
  O  O28  1  0.76714200  0.49138400  0.00714000  1
  O  O29  1  0.23285800  0.49138400  0.50714000  1
loop_
_geom_bond_atom_site_label_1
_geom_bond_atom_site_label_2
_geom_bond_distance
_geom_bond_site_symmetry_2
Mo0 O8 1.696568 1_655
Mo0 O0 2.045009 1_545
Mo0 O4 2.046655 1_555
Mo0 O20 2.048101 1_655
Mo0 O16 2.100079 1_655
Mo0 O24 2.185112 1_555
Mo1 O9 1.694659 1_555
Mo1 O21 2.040532 1_555
Mo1 O5 2.043712 1_555
Mo1 O1 2.043966 1_565
Mo1 O17 2.108018 1_555
Mo1 O25 2.209107 1_555
Mo2 O10 1.694659 1_555
Mo2 O22 2.040532 1_555
Mo2 O6 2.043712 1_555
Mo2 O2 2.043966 1_565
Mo2 O18 2.108018 1_555
Mo2 O26 2.209107 1_555
Mo3 O11 1.696568 1_455
Mo3 O3 2.045009 1_545
Mo3 O7 2.046655 1_555
Mo3 O23 2.048101 1_455
Mo3 O19 2.100079 1_455
Mo3 O27 2.185112 1_555
O0 P1 1.523161 1_555
O1 P0 1.525878 1_555
O2 P3 1.525878 1_555
O3 P2 1.523161 1_555
O4 P3 1.514765 1_555
O5 P2 1.518972 1_554
O6 P1 1.518972 1_555
O7 P0 1.514765 1_556
O12 P4 1.587285 1_555
O12 P0 1.613940 1_555
O13 P5 1.582317 1_655
O13 P1 1.604364 1_555
O14 P6 1.582317 1_455
O14 P2 1.604364 1_555
O15 P7 1.587285 1_555
O15 P3 1.613940 1_555
O16 P5 1.508784 1_555
O17 P4 1.507038 1_555
O18 P7 1.507038 1_555
O19 P6 1.508784 1_555
O20 P0 1.516758 1_555
O21 P1 1.513494 1_555
O22 P2 1.513494 1_555
O23 P3 1.516758 1_555
O24 P4 1.495563 1_555
O25 P5 1.494038 1_555
O26 P6 1.494038 1_555
O27 P7 1.495563 1_555
O28 P4 1.582927 1_555
O28 P6 1.584255 1_554
O29 P7 1.582927 1_555
O29 P5 1.584255 1_555
