# generated using pymatgen
data_FeCu2As3O11
_symmetry_space_group_name_H-M   'P 1'
_cell_length_a   8.07870300
_cell_length_b   9.68977100
_cell_length_c   13.19012900
_cell_angle_alpha   90.00000000
_cell_angle_beta   90.00000000
_cell_angle_gamma   90.00000000
_symmetry_Int_Tables_number   1
_chemical_formula_structural   FeCu2As3O11
_chemical_formula_sum   'Fe4 Cu8 As12 O44'
_cell_volume   1032.53361342
_cell_formula_units_Z   4
loop_
 _symmetry_equiv_pos_site_id
 _symmetry_equiv_pos_as_xyz
  1  'x, y, z'
loop_
 _atom_site_type_symbol
 _atom_site_label
 _atom_site_symmetry_multiplicity
 _atom_site_fract_x
 _atom_site_fract_y
 _atom_site_fract_z
 _atom_site_occupancy
  Fe  Fe0  1  0.00000000  0.50000000  0.00000000  1
  Fe  Fe1  1  0.50000000  0.00000000  0.50000000  1
  Fe  Fe2  1  0.00000000  0.50000000  0.50000000  1
  Fe  Fe3  1  0.50000000  0.00000000  0.00000000  1
  Cu  Cu0  1  0.76592800  0.75972900  0.13434500  1
  Cu  Cu1  1  0.73407200  0.25972900  0.36565500  1
  Cu  Cu2  1  0.23407200  0.24027100  0.63434500  1
  Cu  Cu3  1  0.26592800  0.74027100  0.86565500  1
  Cu  Cu4  1  0.23407200  0.24027100  0.86565500  1
  Cu  Cu5  1  0.26592800  0.74027100  0.63434500  1
  Cu  Cu6  1  0.76592800  0.75972900  0.36565500  1
  Cu  Cu7  1  0.73407200  0.25972900  0.13434500  1
  As  As0  1  0.18440000  0.80512800  0.06970300  1
  As  As1  1  0.31560000  0.30512800  0.43029700  1
  As  As2  1  0.81560000  0.19487200  0.56970300  1
  As  As3  1  0.68440000  0.69487200  0.93029700  1
  As  As4  1  0.81560000  0.19487200  0.93029700  1
  As  As5  1  0.68440000  0.69487200  0.56970300  1
  As  As6  1  0.18440000  0.80512800  0.43029700  1
  As  As7  1  0.31560000  0.30512800  0.06970300  1
  As  As8  1  0.96362100  0.50545200  0.25000000  1
  As  As9  1  0.53637900  0.00545200  0.25000000  1
  As  As10  1  0.03637900  0.49454800  0.75000000  1
  As  As11  1  0.46362100  0.99454800  0.75000000  1
  O  O0  1  0.08276300  0.49717300  0.14354800  1
  O  O1  1  0.41723700  0.99717300  0.35645200  1
  O  O2  1  0.91723700  0.50282700  0.64354800  1
  O  O3  1  0.58276300  0.00282700  0.85645200  1
  O  O4  1  0.91723700  0.50282700  0.85645200  1
  O  O5  1  0.58276300  0.00282700  0.64354800  1
  O  O6  1  0.08276300  0.49717300  0.35645200  1
  O  O7  1  0.41723700  0.99717300  0.14354800  1
  O  O8  1  0.79492400  0.61121300  0.03445800  1
  O  O9  1  0.70507600  0.11121300  0.46554200  1
  O  O10  1  0.20507600  0.38878700  0.53445800  1
  O  O11  1  0.29492400  0.88878700  0.96554200  1
  O  O12  1  0.20507600  0.38878700  0.96554200  1
  O  O13  1  0.29492400  0.88878700  0.53445800  1
  O  O14  1  0.79492400  0.61121300  0.46554200  1
  O  O15  1  0.70507600  0.11121300  0.03445800  1
  O  O16  1  0.62847600  0.82392700  0.02496700  1
  O  O17  1  0.87152400  0.32392700  0.47503300  1
  O  O18  1  0.37152400  0.17607300  0.52496700  1
  O  O19  1  0.12847600  0.67607300  0.97503300  1
  O  O20  1  0.37152400  0.17607300  0.97503300  1
  O  O21  1  0.12847600  0.67607300  0.52496700  1
  O  O22  1  0.62847600  0.82392700  0.47503300  1
  O  O23  1  0.87152400  0.32392700  0.02496700  1
  O  O24  1  0.00703500  0.88759800  0.10435200  1
  O  O25  1  0.49296500  0.38759800  0.39564800  1
  O  O26  1  0.99296500  0.11240200  0.60435200  1
  O  O27  1  0.50703500  0.61240200  0.89564800  1
  O  O28  1  0.99296500  0.11240200  0.89564800  1
  O  O29  1  0.50703500  0.61240200  0.60435200  1
  O  O30  1  0.00703500  0.88759800  0.39564800  1
  O  O31  1  0.49296500  0.38759800  0.10435200  1
  O  O32  1  0.68048400  0.87307900  0.25000000  1
  O  O33  1  0.81951600  0.37307900  0.25000000  1
  O  O34  1  0.31951600  0.12692100  0.75000000  1
  O  O35  1  0.18048400  0.62692100  0.75000000  1
  O  O36  1  0.47225700  0.55190600  0.25000000  1
  O  O37  1  0.02774300  0.05190600  0.25000000  1
  O  O38  1  0.52774300  0.44809400  0.75000000  1
  O  O39  1  0.97225700  0.94809400  0.75000000  1
  O  O40  1  0.87362400  0.66827800  0.25000000  1
  O  O41  1  0.62637600  0.16827800  0.25000000  1
  O  O42  1  0.12637600  0.33172200  0.75000000  1
  O  O43  1  0.37362400  0.83172200  0.75000000  1
loop_
_geom_bond_atom_site_label_1
_geom_bond_atom_site_label_2
_geom_bond_distance
_geom_bond_site_symmetry_2
Fe0 O4 2.008190 1_454
Fe0 O0 2.008190 1_555
Fe0 O19 2.023988 1_554
Fe0 O23 2.023988 1_455
Fe0 O12 2.027973 1_554
Fe0 O8 2.027973 1_455
Fe1 O5 2.008190 1_555
Fe1 O1 2.008190 1_545
Fe1 O18 2.023988 1_555
Fe1 O22 2.023988 1_545
Fe1 O13 2.027973 1_545
Fe1 O9 2.027973 1_555
Fe2 O6 2.008190 1_555
Fe2 O2 2.008190 1_455
Fe2 O17 2.023988 1_455
Fe2 O21 2.023988 1_555
Fe2 O10 2.027973 1_555
Fe2 O14 2.027973 1_455
Fe3 O7 2.008190 1_545
Fe3 O3 2.008190 1_554
Fe3 O20 2.023988 1_554
Fe3 O16 2.023988 1_545
Fe3 O11 2.027973 1_544
Fe3 O15 2.027973 1_555
Cu0 O16 1.923912 1_555
Cu0 O8 1.965123 1_555
Cu0 O40 1.967075 1_555
Cu0 O32 2.002495 1_555
Cu0 O24 2.342164 1_655
Cu1 O17 1.923912 1_555
Cu1 O9 1.965123 1_555
Cu1 O41 1.967075 1_555
Cu1 O33 2.002495 1_555
Cu1 O25 2.342164 1_555
Cu2 O18 1.923912 1_555
Cu2 O10 1.965123 1_555
Cu2 O42 1.967075 1_555
Cu2 O34 2.002495 1_555
Cu2 O26 2.342164 1_455
Cu3 O19 1.923912 1_555
Cu3 O11 1.965123 1_555
Cu3 O43 1.967075 1_555
Cu3 O35 2.002495 1_555
Cu3 O27 2.342164 1_555
Cu4 O20 1.923912 1_555
Cu4 O12 1.965123 1_555
Cu4 O42 1.967075 1_555
Cu4 O34 2.002495 1_555
Cu4 O28 2.342164 1_455
Cu5 O21 1.923912 1_555
Cu5 O13 1.965123 1_555
Cu5 O43 1.967075 1_555
Cu5 O35 2.002495 1_555
Cu5 O29 2.342164 1_555
Cu6 O22 1.923912 1_555
Cu6 O14 1.965123 1_555
Cu6 O40 1.967075 1_555
Cu6 O32 2.002495 1_555
Cu6 O30 2.342164 1_655
Cu7 O23 1.923912 1_555
Cu7 O15 1.965123 1_555
Cu7 O41 1.967075 1_555
Cu7 O33 2.002495 1_555
Cu7 O31 2.342164 1_555
As0 O24 1.703115 1_555
As0 O19 1.824055 1_554
As0 O11 1.828108 1_554
As1 O25 1.703115 1_555
As1 O18 1.824055 1_555
As1 O10 1.828108 1_555
As2 O26 1.703115 1_555
As2 O17 1.824055 1_555
As2 O9 1.828108 1_555
As3 O27 1.703115 1_555
As3 O16 1.824055 1_556
As3 O8 1.828108 1_556
As4 O28 1.703115 1_555
As4 O23 1.824055 1_556
As4 O15 1.828108 1_556
As5 O29 1.703115 1_555
As5 O22 1.824055 1_555
As5 O14 1.828108 1_555
As6 O30 1.703115 1_555
As6 O21 1.824055 1_555
As6 O13 1.828108 1_555
As7 O31 1.703115 1_555
As7 O20 1.824055 1_554
As7 O12 1.828108 1_554
As8 O0 1.704232 1_655
As8 O6 1.704232 1_655
As8 O33 1.732208 1_555
As8 O40 1.737210 1_555
As9 O7 1.704232 1_545
As9 O1 1.704232 1_545
As9 O32 1.732208 1_545
As9 O41 1.737210 1_555
As10 O2 1.704232 1_455
As10 O4 1.704232 1_455
As10 O35 1.732208 1_555
As10 O42 1.737210 1_555
As11 O3 1.704232 1_565
As11 O5 1.704232 1_565
As11 O34 1.732208 1_565
As11 O43 1.737210 1_555
