# generated using pymatgen
data_LaEu2SbO6
_symmetry_space_group_name_H-M   'P 1'
_cell_length_a   6.04394441
_cell_length_b   6.04394441
_cell_length_c   6.04394263
_cell_angle_alpha   60.00000971
_cell_angle_beta   60.00000971
_cell_angle_gamma   59.99998057
_symmetry_Int_Tables_number   1
_chemical_formula_structural   LaEu2SbO6
_chemical_formula_sum   'La1 Eu2 Sb1 O6'
_cell_volume   156.11558382
_cell_formula_units_Z   1
loop_
 _symmetry_equiv_pos_site_id
 _symmetry_equiv_pos_as_xyz
  1  'x, y, z'
loop_
 _atom_site_type_symbol
 _atom_site_label
 _atom_site_symmetry_multiplicity
 _atom_site_fract_x
 _atom_site_fract_y
 _atom_site_fract_z
 _atom_site_occupancy
  La  La0  1  0.00000000  0.00000000  -0.00000000  1
  Eu  Eu0  1  0.25000000  0.25000000  0.25000000  1
  Eu  Eu1  1  0.75000000  0.75000000  0.75000000  1
  Sb  Sb0  1  0.50000000  0.50000000  0.50000000  1
  O  O0  1  0.73030453  0.26969547  0.26969547  1
  O  O1  1  0.26969547  0.73030453  0.73030453  1
  O  O2  1  0.73030453  0.26969547  0.73030453  1
  O  O3  1  0.26969547  0.73030453  0.26969547  1
  O  O4  1  0.73030454  0.73030454  0.26969546  1
  O  O5  1  0.26969546  0.26969546  0.73030454  1
loop_
_geom_bond_atom_site_label_1
_geom_bond_atom_site_label_2
_geom_bond_distance
_geom_bond_site_symmetry_2
La0 O0 2.305202 1_455
La0 O3 2.305202 1_545
La0 O2 2.305202 1_454
La0 O1 2.305202 1_544
La0 O4 2.305203 1_445
La0 O5 2.305203 1_554
Eu0 O5 3.026657 1_555
Eu0 O5 3.026657 1_554
Eu0 O4 3.026657 1_545
Eu0 O4 3.026657 1_455
Eu0 O3 3.026658 1_555
Eu0 O2 3.026658 1_455
Eu0 O1 3.026658 1_554
Eu0 O0 3.026658 1_555
Eu0 O0 3.026658 1_455
Eu0 O1 3.026658 1_545
Eu0 O3 3.026658 1_545
Eu0 O2 3.026658 1_554
Eu1 O4 3.026657 1_556
Eu1 O5 3.026657 1_655
Eu1 O5 3.026657 1_565
Eu1 O4 3.026657 1_555
Eu1 O1 3.026658 1_555
Eu1 O3 3.026658 1_556
Eu1 O1 3.026658 1_655
Eu1 O2 3.026658 1_565
Eu1 O0 3.026658 1_556
Eu1 O2 3.026658 1_555
Eu1 O3 3.026658 1_655
Eu1 O0 3.026658 1_565
O0 Sb0 1.968511 1_555
O1 Sb0 1.968511 1_555
O2 Sb0 1.968511 1_555
O3 Sb0 1.968511 1_555
O4 Sb0 1.968512 1_555
O5 Sb0 1.968512 1_555
