# generated using pymatgen
data_Li3MnPCO7
_symmetry_space_group_name_H-M   'P 1'
_cell_length_a   5.19450800
_cell_length_b   6.71997371
_cell_length_c   8.78109899
_cell_angle_alpha   100.36618835
_cell_angle_beta   91.58323320
_cell_angle_gamma   89.83252832
_symmetry_Int_Tables_number   1
_chemical_formula_structural   Li3MnPCO7
_chemical_formula_sum   'Li6 Mn2 P2 C2 O14'
_cell_volume   301.40258986
_cell_formula_units_Z   2
loop_
 _symmetry_equiv_pos_site_id
 _symmetry_equiv_pos_as_xyz
  1  'x, y, z'
loop_
 _atom_site_type_symbol
 _atom_site_label
 _atom_site_symmetry_multiplicity
 _atom_site_fract_x
 _atom_site_fract_y
 _atom_site_fract_z
 _atom_site_occupancy
  Li  Li0  1  0.43291300  0.49070900  0.21421000  1
  Li  Li1  1  0.32424900  0.88323200  0.22906200  1
  Li  Li2  1  0.03809300  0.23832800  0.25392400  1
  Li  Li3  1  0.96190700  0.76167200  0.74607600  1
  Li  Li4  1  0.67575100  0.11676800  0.77093800  1
  Li  Li5  1  0.56708700  0.50929100  0.78579000  1
  Mn  Mn0  1  0.84935100  0.74203900  0.36832700  1
  Mn  Mn1  1  0.15064900  0.25796100  0.63167300  1
  P  P0  1  0.65186200  0.24302000  0.42556300  1
  P  P1  1  0.34813800  0.75698000  0.57443700  1
  C  C0  1  0.80312700  0.72691600  0.05684400  1
  C  C1  1  0.19687300  0.27308400  0.94315600  1
  O  O0  1  0.23981500  0.27587000  0.08850700  1
  O  O1  1  0.02935900  0.74596000  0.12103200  1
  O  O2  1  0.60845900  0.70952900  0.14741200  1
  O  O3  1  0.73883800  0.41760900  0.34192100  1
  O  O4  1  0.81136900  0.05726700  0.35024300  1
  O  O5  1  0.35656400  0.20261100  0.40327000  1
  O  O6  1  0.27236200  0.70584800  0.39814200  1
  O  O7  1  0.72763800  0.29415200  0.60185800  1
  O  O8  1  0.64343600  0.79738900  0.59673000  1
  O  O9  1  0.18863100  0.94273300  0.64975700  1
  O  O10  1  0.26116200  0.58239100  0.65807900  1
  O  O11  1  0.39154100  0.29047100  0.85258800  1
  O  O12  1  0.97064100  0.25404000  0.87896800  1
  O  O13  1  0.76018500  0.72413000  0.91149300  1
loop_
_geom_bond_atom_site_label_1
_geom_bond_atom_site_label_2
_geom_bond_distance
_geom_bond_site_symmetry_2
Li0 O0 1.919010 1_555
Li0 O2 1.919799 1_555
Li0 O3 2.029652 1_555
Li0 O6 2.149732 1_555
Li1 O1 1.926216 1_555
Li1 O2 1.950226 1_555
Li1 O6 2.087775 1_555
Li1 O5 2.404353 1_565
Li2 O0 1.867896 1_555
Li2 O4 2.004137 1_455
Li2 O3 2.045814 1_455
Li2 O5 2.122550 1_555
Li3 O13 1.867896 1_555
Li3 O9 2.004137 1_655
Li3 O10 2.045814 1_655
Li3 O8 2.122550 1_555
Li4 O12 1.926216 1_555
Li4 O11 1.950226 1_555
Li4 O7 2.087775 1_555
Li4 O8 2.404353 1_545
Li5 O13 1.919010 1_555
Li5 O11 1.919799 1_555
Li5 O10 2.029652 1_555
Li5 O7 2.149732 1_555
Mn0 O4 2.160630 1_565
Mn0 O6 2.223504 1_655
Mn0 O3 2.225859 1_555
Mn0 O2 2.256455 1_555
Mn0 O8 2.269967 1_555
Mn0 O1 2.392376 1_655
Mn1 O9 2.160630 1_545
Mn1 O7 2.223504 1_455
Mn1 O10 2.225859 1_555
Mn1 O11 2.256455 1_555
Mn1 O5 2.269967 1_555
Mn1 O12 2.392376 1_455
C0 O1 1.285845 1_655
C0 O13 1.286409 1_554
C0 O2 1.321831 1_555
C1 O12 1.285845 1_455
C1 O0 1.286409 1_556
C1 O11 1.321831 1_555
O3 P0 1.565754 1_555
O4 P0 1.552166 1_555
O5 P0 1.559393 1_555
O6 P1 1.563712 1_555
O7 P0 1.563712 1_555
O8 P1 1.559393 1_555
O9 P1 1.552166 1_555
O10 P1 1.565754 1_555
