# generated using pymatgen
data_Nb2(CrSi)3
_symmetry_space_group_name_H-M   'P 1'
_cell_length_a   7.26376562
_cell_length_b   7.26376562
_cell_length_c   4.86236600
_cell_angle_alpha   90.00000000
_cell_angle_beta   90.00000000
_cell_angle_gamma   121.14044929
_symmetry_Int_Tables_number   1
_chemical_formula_structural   Nb2(CrSi)3
_chemical_formula_sum   'Nb4 Cr6 Si6'
_cell_volume   219.58134425
_cell_formula_units_Z   2
loop_
 _symmetry_equiv_pos_site_id
 _symmetry_equiv_pos_as_xyz
  1  'x, y, z'
loop_
 _atom_site_type_symbol
 _atom_site_label
 _atom_site_symmetry_multiplicity
 _atom_site_fract_x
 _atom_site_fract_y
 _atom_site_fract_z
 _atom_site_occupancy
  Nb  Nb0  1  0.76678300  0.76678300  0.50000000  1
  Nb  Nb1  1  0.75915000  0.00141900  0.00000000  1
  Nb  Nb2  1  0.00141900  0.75915000  0.00000000  1
  Nb  Nb3  1  0.22266800  0.22266800  0.00000000  1
  Cr  Cr0  1  0.66670600  0.33752100  0.25241100  1
  Cr  Cr1  1  0.33752100  0.66670600  0.25241100  1
  Cr  Cr2  1  0.33752100  0.66670600  0.74758900  1
  Cr  Cr3  1  0.66670600  0.33752100  0.74758900  1
  Cr  Cr4  1  0.25087000  0.99601000  0.50000000  1
  Cr  Cr5  1  0.99601000  0.25087000  0.50000000  1
  Si  Si0  1  0.59662300  0.00871500  0.50000000  1
  Si  Si1  1  0.00871500  0.59662300  0.50000000  1
  Si  Si2  1  0.38999800  0.38999800  0.50000000  1
  Si  Si3  1  0.40872800  0.00169800  0.00000000  1
  Si  Si4  1  0.00169800  0.40872800  0.00000000  1
  Si  Si5  1  0.58866900  0.58866900  0.00000000  1
loop_
_geom_bond_atom_site_label_1
_geom_bond_atom_site_label_2
_geom_bond_distance
_geom_bond_site_symmetry_2
Nb0 Si0 2.619629 1_565
Nb0 Si1 2.619629 1_655
Nb0 Si2 2.689565 1_555
Nb0 Si5 2.743564 1_555
Nb0 Si5 2.743564 1_556
Nb1 Si4 2.542858 1_655
Nb1 Si3 2.546432 1_555
Nb1 Si5 2.585008 1_545
Nb1 Si0 2.715122 1_554
Nb1 Si0 2.715122 1_555
Nb2 Si3 2.542858 1_565
Nb2 Si4 2.546432 1_555
Nb2 Si5 2.585008 1_455
Nb2 Si1 2.715122 1_554
Nb2 Si1 2.715122 1_555
Nb3 Si4 2.578063 1_555
Nb3 Si3 2.578063 1_555
Nb3 Si5 2.612587 1_555
Nb3 Si2 2.708750 1_555
Nb3 Si2 2.708750 1_554
Cr0 Cr3 2.407737 1_555
Cr0 Cr3 2.454629 1_554
Cr0 Si0 2.480977 1_555
Cr0 Si5 2.495022 1_555
Cr0 Si3 2.498082 1_555
Cr0 Si1 2.515403 1_655
Cr0 Si4 2.528453 1_655
Cr0 Si2 2.535128 1_555
Cr1 Cr2 2.407737 1_555
Cr1 Cr2 2.454629 1_554
Cr1 Si1 2.480977 1_555
Cr1 Si5 2.495022 1_555
Cr1 Si4 2.498082 1_555
Cr1 Si0 2.515403 1_565
Cr1 Si3 2.528453 1_565
Cr1 Si2 2.535128 1_555
Cr2 Si1 2.480977 1_555
Cr2 Si5 2.495022 1_556
Cr2 Si4 2.498082 1_556
Cr2 Si0 2.515403 1_565
Cr2 Si3 2.528453 1_566
Cr2 Si2 2.535128 1_555
Cr3 Si0 2.480977 1_555
Cr3 Si5 2.495022 1_556
Cr3 Si3 2.498082 1_556
Cr3 Si1 2.515403 1_655
Cr3 Si4 2.528453 1_656
Cr3 Si2 2.535128 1_555
Cr4 Si0 2.465010 1_565
Cr4 Si2 2.494018 1_565
Cr4 Si1 2.496460 1_555
Cr4 Si3 2.679207 1_565
Cr4 Si3 2.679207 1_566
Cr5 Si1 2.465010 1_655
Cr5 Si2 2.494018 1_655
Cr5 Si0 2.496460 1_555
Cr5 Si4 2.679207 1_655
Cr5 Si4 2.679207 1_656
