# generated using pymatgen
data_Li9Mn2Co5O16
_symmetry_space_group_name_H-M   'P 1'
_cell_length_a   3.03217600
_cell_length_b   5.14204024
_cell_length_c   19.57340438
_cell_angle_alpha   91.27673698
_cell_angle_beta   93.00056035
_cell_angle_gamma   104.58883380
_symmetry_Int_Tables_number   1
_chemical_formula_structural   Li9Mn2Co5O16
_chemical_formula_sum   'Li9 Mn2 Co5 O16'
_cell_volume   294.73701533
_cell_formula_units_Z   1
loop_
 _symmetry_equiv_pos_site_id
 _symmetry_equiv_pos_as_xyz
  1  'x, y, z'
loop_
 _atom_site_type_symbol
 _atom_site_label
 _atom_site_symmetry_multiplicity
 _atom_site_fract_x
 _atom_site_fract_y
 _atom_site_fract_z
 _atom_site_occupancy
  Li  Li0  1  0.30845900  0.55976400  0.06382100  1
  Li  Li1  1  0.93764700  0.68791100  0.18766600  1
  Li  Li2  1  0.56983000  0.81018000  0.31357900  1
  Li  Li3  1  0.18689900  0.92987700  0.43672400  1
  Li  Li4  1  0.81370100  0.06997600  0.56304500  1
  Li  Li5  1  0.43269500  0.19283200  0.68542100  1
  Li  Li6  1  0.05268500  0.30600100  0.81293600  1
  Li  Li7  1  0.69750500  0.44267400  0.93734700  1
  Li  Li8  1  0.49974200  0.49910800  0.49935800  1
  Mn  Mn0  1  0.99493100  0.99981100  0.00061700  1
  Mn  Mn1  1  0.75581500  0.74962300  0.74791800  1
  Co  Co0  1  0.62832500  0.12456900  0.12736800  1
  Co  Co1  1  0.25509300  0.25071300  0.25208100  1
  Co  Co2  1  0.88315500  0.37992500  0.38004300  1
  Co  Co3  1  0.11155900  0.62103700  0.61855300  1
  Co  Co4  1  0.37442000  0.87482600  0.87433100  1
  O  O0  1  0.67928800  0.26687000  0.03586200  1
  O  O1  1  0.26694200  0.38956200  0.16096400  1
  O  O2  1  0.88824800  0.50620200  0.28736700  1
  O  O3  1  0.54519200  0.62893800  0.40355400  1
  O  O4  1  0.16062200  0.77673500  0.54043800  1
  O  O5  1  0.79609300  0.88497000  0.65683600  1
  O  O6  1  0.44174300  0.02029800  0.78364100  1
  O  O7  1  0.00485800  0.13649000  0.90859100  1
  O  O8  1  0.99142100  0.86271000  0.09286000  1
  O  O9  1  0.60629600  0.98278200  0.21703500  1
  O  O10  1  0.19641900  0.11533700  0.34140100  1
  O  O11  1  0.84100100  0.22373900  0.45811600  1
  O  O12  1  0.44971500  0.37213700  0.59543800  1
  O  O13  1  0.07823900  0.49081000  0.71153800  1
  O  O14  1  0.74322900  0.61212300  0.84022900  1
  O  O15  1  0.30822800  0.73147200  0.96532500  1
loop_
_geom_bond_atom_site_label_1
_geom_bond_atom_site_label_2
_geom_bond_distance
_geom_bond_site_symmetry_2
Li0 O1 2.107346 1_555
Li0 O8 2.108541 1_455
Li0 O15 2.138316 1_554
Li0 O0 2.147983 1_455
Li0 O0 2.170910 1_555
Li0 O8 2.291371 1_555
Li1 O8 2.076097 1_555
Li1 O1 2.101004 1_655
Li1 O9 2.104265 1_555
Li1 O2 2.178328 1_555
Li1 O9 2.242890 1_655
Li1 O1 2.245863 1_555
Li2 O3 2.006861 1_555
Li2 O2 2.101182 1_555
Li2 O9 2.101916 1_555
Li2 O10 2.172608 1_665
Li2 O10 2.227597 1_565
Li2 O2 2.281115 1_455
Li3 O11 2.091598 1_465
Li3 O10 2.112468 1_565
Li3 O11 2.183437 1_565
Li3 O4 2.191815 1_555
Li3 O3 2.207340 1_555
Li3 O3 2.215464 1_455
Li4 O5 2.083395 1_545
Li4 O4 2.096193 1_645
Li4 O4 2.182924 1_545
Li4 O12 2.203143 1_655
Li4 O11 2.215253 1_555
Li4 O12 2.219766 1_555
Li5 O12 2.003180 1_555
Li5 O6 2.136957 1_555
Li5 O13 2.148568 1_555
Li5 O13 2.188586 1_655
Li5 O5 2.202994 1_445
Li5 O5 2.221939 1_545
Li6 O7 2.079358 1_555
Li6 O6 2.097382 1_455
Li6 O14 2.098255 1_455
Li6 O6 2.187475 1_555
Li6 O13 2.216116 1_555
Li6 O14 2.309206 1_555
Li7 O15 2.099202 1_655
Li7 O7 2.102065 1_655
Li7 O14 2.105348 1_555
Li7 O0 2.145266 1_556
Li7 O15 2.193818 1_555
Li7 O7 2.318951 1_555
Li8 O3 2.004390 1_555
Li8 O12 2.005161 1_555
Li8 O11 2.121772 1_555
Li8 O4 2.125259 1_555
Li8 O11 2.236460 1_455
Li8 O4 2.244809 1_655
Mn0 O7 1.947004 1_664
Mn0 O8 1.952416 1_555
Mn0 O0 1.991653 1_565
Mn0 O15 1.992499 1_654
Mn0 O0 2.245012 1_665
Mn0 O15 2.253052 1_554
Mn1 O5 1.926880 1_555
Mn1 O14 1.953606 1_555
Mn1 O13 1.979908 1_655
Mn1 O6 2.006752 1_565
Mn1 O13 2.219563 1_555
Mn1 O6 2.257869 1_665
Co0 O9 1.913403 1_545
Co0 O0 1.948766 1_555
Co0 O8 2.065312 1_545
Co0 O1 2.068217 1_555
Co0 O8 2.124091 1_445
Co0 O1 2.129863 1_655
Co1 O10 1.896620 1_555
Co1 O1 1.934511 1_555
Co1 O2 2.053380 1_455
Co1 O9 2.067880 1_545
Co1 O2 2.106865 1_555
Co1 O9 2.165648 1_445
Co2 O11 1.737819 1_555
Co2 O3 1.893554 1_555
Co2 O2 1.939786 1_555
Co2 O10 2.001432 1_655
Co2 O3 2.112622 1_655
Co2 O10 2.263002 1_555
Co3 O4 1.737594 1_555
Co3 O12 1.891537 1_555
Co3 O13 1.952080 1_555
Co3 O5 2.000510 1_455
Co3 O12 2.110767 1_455
Co3 O5 2.254856 1_555
Co4 O6 1.942271 1_565
Co4 O15 1.943510 1_555
Co4 O7 2.076946 1_565
Co4 O14 2.078419 1_555
Co4 O7 2.108110 1_665
Co4 O14 2.111141 1_455
