# generated using pymatgen
data_Ba12SrCa3(Ru2O9)4
_symmetry_space_group_name_H-M   'P 1'
_cell_length_a   5.98763164
_cell_length_b   5.98763164
_cell_length_c   30.20472800
_cell_angle_alpha   90.00000000
_cell_angle_beta   90.00000000
_cell_angle_gamma   119.99999598
_symmetry_Int_Tables_number   1
_chemical_formula_structural   Ba12SrCa3(Ru2O9)4
_chemical_formula_sum   'Ba12 Sr1 Ca3 Ru8 O36'
_cell_volume   937.81187383
_cell_formula_units_Z   1
loop_
 _symmetry_equiv_pos_site_id
 _symmetry_equiv_pos_as_xyz
  1  'x, y, z'
loop_
 _atom_site_type_symbol
 _atom_site_label
 _atom_site_symmetry_multiplicity
 _atom_site_fract_x
 _atom_site_fract_y
 _atom_site_fract_z
 _atom_site_occupancy
  Ba  Ba0  1  0.33333300  0.66666700  0.94353100  1
  Ba  Ba1  1  0.33333300  0.66666700  0.44998100  1
  Ba  Ba2  1  0.66666700  0.33333300  0.20167400  1
  Ba  Ba3  1  0.66666700  0.33333300  0.69950600  1
  Ba  Ba4  1  0.66666700  0.33333300  0.05646900  1
  Ba  Ba5  1  0.66666700  0.33333300  0.55001900  1
  Ba  Ba6  1  0.33333300  0.66666700  0.79832600  1
  Ba  Ba7  1  0.33333300  0.66666700  0.30049400  1
  Ba  Ba8  1  0.00000000  0.00000000  0.87232100  1
  Ba  Ba9  1  0.00000000  0.00000000  0.37538300  1
  Ba  Ba10  1  0.00000000  0.00000000  0.12767900  1
  Ba  Ba11  1  0.00000000  0.00000000  0.62461700  1
  Sr  Sr0  1  0.00000000  0.00000000  0.00000000  1
  Ca  Ca0  1  0.00000000  0.00000000  0.50000000  1
  Ca  Ca1  1  0.00000000  0.00000000  0.25129600  1
  Ca  Ca2  1  0.00000000  0.00000000  0.74870400  1
  Ru  Ru0  1  0.33333300  0.66666700  0.08188000  1
  Ru  Ru1  1  0.33333300  0.66666700  0.57856700  1
  Ru  Ru2  1  0.66666700  0.33333300  0.82650200  1
  Ru  Ru3  1  0.66666700  0.33333300  0.32929700  1
  Ru  Ru4  1  0.66666700  0.33333300  0.91812000  1
  Ru  Ru5  1  0.66666700  0.33333300  0.42143300  1
  Ru  Ru6  1  0.33333300  0.66666700  0.17349800  1
  Ru  Ru7  1  0.33333300  0.66666700  0.67070300  1
  O  O0  1  0.02978900  0.51489400  0.12790000  1
  O  O1  1  0.03226200  0.51613100  0.62464000  1
  O  O2  1  0.48510600  0.97021100  0.12790000  1
  O  O3  1  0.48386900  0.96773800  0.62464000  1
  O  O4  1  0.48510600  0.51489400  0.12790000  1
  O  O5  1  0.48386900  0.51613100  0.62464000  1
  O  O6  1  0.97021100  0.48510600  0.87210000  1
  O  O7  1  0.96773800  0.48386900  0.37536000  1
  O  O8  1  0.51489400  0.02978900  0.87210000  1
  O  O9  1  0.51613100  0.03226200  0.37536000  1
  O  O10  1  0.51489400  0.48510600  0.87210000  1
  O  O11  1  0.51613100  0.48386900  0.37536000  1
  O  O12  1  0.35442900  0.17721400  0.95044400  1
  O  O13  1  0.35189700  0.17594800  0.45456000  1
  O  O14  1  0.82278600  0.64557100  0.95044400  1
  O  O15  1  0.82405200  0.64810300  0.45456000  1
  O  O16  1  0.82278600  0.17721400  0.95044400  1
  O  O17  1  0.82405200  0.17594800  0.45456000  1
  O  O18  1  0.64810800  0.82405400  0.20638500  1
  O  O19  1  0.64755100  0.82377500  0.70381400  1
  O  O20  1  0.17594600  0.35189200  0.20638500  1
  O  O21  1  0.17622500  0.35244900  0.70381400  1
  O  O22  1  0.17594600  0.82405400  0.20638500  1
  O  O23  1  0.17622500  0.82377500  0.70381400  1
  O  O24  1  0.64557100  0.82278600  0.04955600  1
  O  O25  1  0.64810300  0.82405200  0.54544000  1
  O  O26  1  0.17721400  0.35442900  0.04955600  1
  O  O27  1  0.17594800  0.35189700  0.54544000  1
  O  O28  1  0.17721400  0.82278600  0.04955600  1
  O  O29  1  0.17594800  0.82405200  0.54544000  1
  O  O30  1  0.35189200  0.17594600  0.79361500  1
  O  O31  1  0.35244900  0.17622500  0.29618600  1
  O  O32  1  0.82405400  0.64810800  0.79361500  1
  O  O33  1  0.82377500  0.64755100  0.29618600  1
  O  O34  1  0.82405400  0.17594600  0.79361500  1
  O  O35  1  0.82377500  0.17622500  0.29618600  1
loop_
_geom_bond_atom_site_label_1
_geom_bond_atom_site_label_2
_geom_bond_distance
_geom_bond_site_symmetry_2
Ba0 O10 2.863657 1_555
Ba0 O8 2.863657 1_565
Ba0 O6 2.863657 1_455
Ba0 O12 3.003076 1_565
Ba0 O14 3.003076 1_455
Ba0 O16 3.003081 1_565
Ba0 O16 3.003081 1_455
Ba0 O14 3.003088 1_555
Ba0 O12 3.003088 1_555
Ba1 O9 2.945173 1_565
Ba1 O7 2.945173 1_455
Ba1 O11 2.945177 1_555
Ba1 O15 2.998548 1_455
Ba1 O13 2.998548 1_565
Ba1 O17 2.998554 1_455
Ba1 O17 2.998554 1_565
Ba1 O13 2.998560 1_555
Ba1 O15 2.998560 1_555
Ba1 O29 3.313252 1_555
Ba1 O25 3.313252 1_555
Ba1 O27 3.313252 1_555
Ba2 O4 2.917348 1_555
Ba2 O0 2.917348 1_655
Ba2 O2 2.917348 1_545
Ba2 O20 2.998737 1_655
Ba2 O18 2.998737 1_545
Ba2 O22 2.998740 1_655
Ba2 O22 2.998740 1_545
Ba2 O20 2.998743 1_555
Ba2 O18 2.998743 1_555
Ba2 O35 3.286965 1_555
Ba2 O33 3.286971 1_555
Ba2 O31 3.286971 1_555
Ba3 O3 2.950840 1_545
Ba3 O1 2.950840 1_655
Ba3 O5 2.950844 1_555
Ba3 O19 2.998281 1_555
Ba3 O21 2.998281 1_555
Ba3 O21 2.998281 1_655
Ba3 O19 2.998281 1_545
Ba3 O23 2.998281 1_655
Ba3 O23 2.998281 1_545
Ba3 O34 3.277839 1_555
Ba3 O30 3.277842 1_555
Ba3 O32 3.277842 1_555
Ba4 O4 2.863657 1_555
Ba4 O0 2.863657 1_655
Ba4 O2 2.863657 1_545
Ba4 O26 3.003076 1_655
Ba4 O24 3.003076 1_545
Ba4 O28 3.003081 1_655
Ba4 O28 3.003081 1_545
Ba4 O24 3.003088 1_555
Ba4 O26 3.003088 1_555
Ba5 O3 2.945173 1_545
Ba5 O1 2.945173 1_655
Ba5 O5 2.945177 1_555
Ba5 O25 2.998548 1_545
Ba5 O27 2.998548 1_655
Ba5 O29 2.998554 1_655
Ba5 O29 2.998554 1_545
Ba5 O27 2.998560 1_555
Ba5 O25 2.998560 1_555
Ba5 O17 3.313252 1_555
Ba5 O15 3.313252 1_555
Ba5 O13 3.313252 1_555
Ba6 O10 2.917348 1_555
Ba6 O8 2.917348 1_565
Ba6 O6 2.917348 1_455
Ba6 O30 2.998737 1_565
Ba6 O32 2.998737 1_455
Ba6 O34 2.998740 1_565
Ba6 O34 2.998740 1_455
Ba6 O32 2.998743 1_555
Ba6 O30 2.998743 1_555
Ba6 O23 3.286965 1_555
Ba6 O19 3.286971 1_555
Ba6 O21 3.286971 1_555
Ba7 O9 2.950840 1_565
Ba7 O7 2.950840 1_455
Ba7 O11 2.950844 1_555
Ba7 O33 2.998281 1_555
Ba7 O31 2.998281 1_555
Ba7 O31 2.998281 1_565
Ba7 O33 2.998281 1_455
Ba7 O35 2.998281 1_565
Ba7 O35 2.998281 1_455
Ba7 O22 3.277839 1_555
Ba7 O18 3.277842 1_555
Ba7 O20 3.277842 1_555
Ba8 O16 2.990963 1_455
Ba8 O12 2.990966 1_555
Ba8 O14 2.990966 1_445
Ba8 O34 2.996850 1_455
Ba8 O32 2.996850 1_445
Ba8 O30 2.996850 1_555
Ba8 O6 2.997803 1_445
Ba8 O8 2.997803 1_555
Ba8 O10 2.997806 1_445
Ba8 O10 2.997806 1_555
Ba8 O8 2.997809 1_455
Ba8 O6 2.997809 1_455
Ba9 O7 2.998486 1_455
Ba9 O9 2.998486 1_455
Ba9 O9 2.998486 1_555
Ba9 O7 2.998486 1_445
Ba9 O11 2.998487 1_445
Ba9 O11 2.998487 1_555
Ba9 O17 3.008160 1_455
Ba9 O13 3.008163 1_555
Ba9 O15 3.008163 1_445
Ba9 O31 3.010381 1_555
Ba9 O33 3.010381 1_445
Ba9 O35 3.010384 1_455
Ba10 O28 2.990963 1_545
Ba10 O26 2.990966 1_555
Ba10 O24 2.990966 1_445
Ba10 O22 2.996850 1_545
Ba10 O20 2.996850 1_555
Ba10 O18 2.996850 1_445
Ba10 O2 2.997803 1_445
Ba10 O0 2.997803 1_555
Ba10 O4 2.997806 1_445
Ba10 O4 2.997806 1_555
Ba10 O0 2.997809 1_545
Ba10 O2 2.997809 1_545
Ba11 O1 2.998486 1_545
Ba11 O3 2.998486 1_545
Ba11 O1 2.998486 1_555
Ba11 O3 2.998486 1_445
Ba11 O5 2.998487 1_445
Ba11 O5 2.998487 1_555
Ba11 O29 3.008160 1_545
Ba11 O27 3.008163 1_555
Ba11 O25 3.008163 1_445
Ba11 O21 3.010381 1_555
Ba11 O19 3.010381 1_445
Ba11 O23 3.010384 1_545
Ca0 O17 2.283293 1_455
Ca0 O29 2.283293 1_545
Ca0 O13 2.283297 1_555
Ca0 O27 2.283297 1_555
Ca0 O15 2.283297 1_445
Ca0 O25 2.283297 1_445
Ca1 O22 2.273707 1_545
Ca1 O20 2.273707 1_555
Ca1 O18 2.273707 1_445
Ca1 O31 2.275648 1_555
Ca1 O33 2.275648 1_445
Ca1 O35 2.275652 1_455
Ca2 O34 2.273707 1_455
Ca2 O32 2.273707 1_445
Ca2 O30 2.273707 1_555
Ca2 O21 2.275648 1_555
Ca2 O19 2.275648 1_445
Ca2 O23 2.275652 1_545
O0 Ru6 2.091505 1_555
O0 Ru0 2.099921 1_555
O1 Ru7 2.091190 1_555
O1 Ru1 2.091391 1_555
O2 Ru6 2.091505 1_555
O2 Ru0 2.099921 1_555
O3 Ru7 2.091190 1_555
O3 Ru1 2.091391 1_555
O4 Ru6 2.091513 1_555
O4 Ru0 2.099928 1_555
O5 Ru7 2.091193 1_555
O5 Ru1 2.091394 1_555
O6 Ru2 2.091505 1_555
O6 Ru4 2.099921 1_555
O7 Ru3 2.091190 1_555
O7 Ru5 2.091391 1_555
O8 Ru2 2.091505 1_555
O8 Ru4 2.099921 1_555
O9 Ru3 2.091190 1_555
O9 Ru5 2.091391 1_555
O10 Ru2 2.091513 1_555
O10 Ru4 2.099928 1_555
O11 Ru3 2.091193 1_555
O11 Ru5 2.091394 1_555
O12 Ru4 1.890686 1_555
O12 Sr0 2.370286 1_556
O13 Ru5 1.914505 1_555
O14 Ru4 1.890686 1_555
O14 Sr0 2.370286 1_666
O15 Ru5 1.914505 1_555
O16 Ru4 1.890686 1_555
O16 Sr0 2.370282 1_656
O17 Ru5 1.914505 1_555
O18 Ru6 1.910749 1_555
O19 Ru7 1.911813 1_555
O20 Ru6 1.910749 1_555
O21 Ru7 1.911813 1_555
O22 Ru6 1.910744 1_555
O23 Ru7 1.911804 1_555
O24 Ru0 1.890686 1_555
O24 Sr0 2.370286 1_665
O25 Ru1 1.914505 1_555
O26 Ru0 1.890686 1_555
O26 Sr0 2.370286 1_555
O27 Ru1 1.914505 1_555
O28 Ru0 1.890686 1_555
O28 Sr0 2.370282 1_565
O29 Ru1 1.914505 1_555
O30 Ru2 1.910749 1_555
O31 Ru3 1.911813 1_555
O32 Ru2 1.910749 1_555
O33 Ru3 1.911813 1_555
O34 Ru2 1.910744 1_555
O35 Ru3 1.911804 1_555
