# generated using pymatgen
data_CuB(CN)4
_symmetry_space_group_name_H-M   'P 1'
_cell_length_a   5.42574800
_cell_length_b   5.42574800
_cell_length_c   5.42574800
_cell_angle_alpha   90.00000000
_cell_angle_beta   90.00000000
_cell_angle_gamma   90.00000000
_symmetry_Int_Tables_number   1
_chemical_formula_structural   CuB(CN)4
_chemical_formula_sum   'Cu1 B1 C4 N4'
_cell_volume   159.72719205
_cell_formula_units_Z   1
loop_
 _symmetry_equiv_pos_site_id
 _symmetry_equiv_pos_as_xyz
  1  'x, y, z'
loop_
 _atom_site_type_symbol
 _atom_site_label
 _atom_site_symmetry_multiplicity
 _atom_site_fract_x
 _atom_site_fract_y
 _atom_site_fract_z
 _atom_site_occupancy
  Cu  Cu0  1  0.50000000  0.50000000  0.50000000  1
  B  B0  1  0.00000000  0.00000000  0.00000000  1
  C  C0  1  0.83111600  0.16888400  0.16888400  1
  C  C1  1  0.83111600  0.83111600  0.83111600  1
  C  C2  1  0.16888400  0.16888400  0.83111600  1
  C  C3  1  0.16888400  0.83111600  0.16888400  1
  N  N0  1  0.70721500  0.70721500  0.70721500  1
  N  N1  1  0.70721500  0.29278500  0.29278500  1
  N  N2  1  0.29278500  0.29278500  0.70721500  1
  N  N3  1  0.29278500  0.70721500  0.29278500  1
loop_
_geom_bond_atom_site_label_1
_geom_bond_atom_site_label_2
_geom_bond_distance
_geom_bond_site_symmetry_2
Cu0 N3 1.947338 1_555
Cu0 N1 1.947338 1_555
Cu0 N2 1.947338 1_555
Cu0 N0 1.947338 1_555
B0 C0 1.587116 1_455
B0 C2 1.587116 1_554
B0 C3 1.587116 1_545
B0 C1 1.587116 1_444
C0 N1 1.164381 1_555
C1 N0 1.164381 1_555
C2 N2 1.164381 1_555
C3 N3 1.164381 1_555
