# generated using pymatgen
data_SrCa(CuO2)2
_symmetry_space_group_name_H-M   'P 1'
_cell_length_a   8.23241068
_cell_length_b   8.23241068
_cell_length_c   3.93962900
_cell_angle_alpha   90.00000000
_cell_angle_beta   90.00000000
_cell_angle_gamma   155.37913728
_symmetry_Int_Tables_number   1
_chemical_formula_structural   SrCa(CuO2)2
_chemical_formula_sum   'Sr1 Ca1 Cu2 O4'
_cell_volume   111.23487922
_cell_formula_units_Z   1
loop_
 _symmetry_equiv_pos_site_id
 _symmetry_equiv_pos_as_xyz
  1  'x, y, z'
loop_
 _atom_site_type_symbol
 _atom_site_label
 _atom_site_symmetry_multiplicity
 _atom_site_fract_x
 _atom_site_fract_y
 _atom_site_fract_z
 _atom_site_occupancy
  Sr  Sr0  1  0.66983400  0.33016600  0.50000000  1
  Ca  Ca0  1  0.33129300  0.66870700  0.00000000  1
  Cu  Cu0  1  0.93713600  0.06286400  0.50000000  1
  Cu  Cu1  1  0.06196700  0.93803300  0.00000000  1
  O  O0  1  0.05500900  0.94499100  0.50000000  1
  O  O1  1  0.94070900  0.05929100  0.00000000  1
  O  O2  1  0.82045400  0.17954600  0.50000000  1
  O  O3  1  0.18359900  0.81640100  0.00000000  1
loop_
_geom_bond_atom_site_label_1
_geom_bond_atom_site_label_2
_geom_bond_distance
_geom_bond_site_symmetry_2
Ca0 O3 2.375841 1_555
Ca0 O1 2.485702 1_565
Ca0 O1 2.485702 1_455
Ca0 O2 2.644118 1_454
Ca0 O2 2.644118 1_455
Ca0 O2 2.644118 1_565
Ca0 O2 2.644118 1_564
Cu0 O2 1.876975 1_555
Cu0 O0 1.896134 1_645
Cu0 O1 1.970653 1_556
Cu0 O1 1.970653 1_555
Cu1 O1 1.950586 1_465
Cu1 O3 1.956602 1_555
Cu1 O0 1.972992 1_554
Cu1 O0 1.972992 1_555
O0 Sr0 2.548054 1_455
O0 Sr0 2.548054 1_565
O2 Sr0 2.422910 1_555
O3 Sr0 2.647638 1_564
O3 Sr0 2.647638 1_455
O3 Sr0 2.647638 1_454
O3 Sr0 2.647638 1_565
