# generated using pymatgen
data_CsSmBr3
_symmetry_space_group_name_H-M   'P 1'
_cell_length_a   8.01257100
_cell_length_b   8.36219500
_cell_length_c   11.65026900
_cell_angle_alpha   90.00000000
_cell_angle_beta   90.00000000
_cell_angle_gamma   90.00000000
_symmetry_Int_Tables_number   1
_chemical_formula_structural   CsSmBr3
_chemical_formula_sum   'Cs4 Sm4 Br12'
_cell_volume   780.59925916
_cell_formula_units_Z   4
loop_
 _symmetry_equiv_pos_site_id
 _symmetry_equiv_pos_as_xyz
  1  'x, y, z'
loop_
 _atom_site_type_symbol
 _atom_site_label
 _atom_site_symmetry_multiplicity
 _atom_site_fract_x
 _atom_site_fract_y
 _atom_site_fract_z
 _atom_site_occupancy
  Cs  Cs0  1  0.02893900  0.44536100  0.25000000  1
  Cs  Cs1  1  0.97106100  0.55463900  0.75000000  1
  Cs  Cs2  1  0.52893900  0.05463900  0.75000000  1
  Cs  Cs3  1  0.47106100  0.94536100  0.25000000  1
  Sm  Sm0  1  0.00000000  0.00000000  0.00000000  1
  Sm  Sm1  1  0.50000000  0.50000000  0.00000000  1
  Sm  Sm2  1  0.00000000  0.00000000  0.50000000  1
  Sm  Sm3  1  0.50000000  0.50000000  0.50000000  1
  Br  Br0  1  0.28432400  0.21840400  0.02404300  1
  Br  Br1  1  0.71567600  0.78159600  0.97595700  1
  Br  Br2  1  0.78432400  0.28159600  0.97595700  1
  Br  Br3  1  0.71567600  0.78159600  0.52404300  1
  Br  Br4  1  0.21567600  0.71840400  0.02404300  1
  Br  Br5  1  0.28432400  0.21840400  0.47595700  1
  Br  Br6  1  0.21567600  0.71840400  0.47595700  1
  Br  Br7  1  0.78432400  0.28159600  0.52404300  1
  Br  Br8  1  0.55187300  0.49988900  0.25000000  1
  Br  Br9  1  0.44812700  0.50011100  0.75000000  1
  Br  Br10  1  0.05187300  0.00011100  0.75000000  1
  Br  Br11  1  0.94812700  0.99988900  0.25000000  1
loop_
_geom_bond_atom_site_label_1
_geom_bond_atom_site_label_2
_geom_bond_distance
_geom_bond_site_symmetry_2
Br0 Sm0 2.933259 1_555
Br0 Sm1 2.934238 1_555
Br0 Cs3 3.792330 1_545
Br0 Cs0 3.836537 1_555
Br0 Cs2 3.988747 1_554
Br1 Sm0 2.933259 1_666
Br1 Sm1 2.934238 1_556
Br1 Cs2 3.792330 1_565
Br1 Cs1 3.836537 1_555
Br1 Cs3 3.988747 1_556
Br2 Sm1 2.933259 1_556
Br2 Sm0 2.934238 1_656
Br2 Cs1 3.792330 1_555
Br2 Cs2 3.836537 1_555
Br2 Cs0 3.988747 1_656
Br3 Sm2 2.933259 1_665
Br3 Sm3 2.934238 1_555
Br3 Cs2 3.792330 1_565
Br3 Cs1 3.836537 1_555
Br3 Cs3 3.988747 1_555
Br4 Sm1 2.933259 1_555
Br4 Sm0 2.934238 1_565
Br4 Cs0 3.792330 1_555
Br4 Cs3 3.836537 1_555
Br4 Cs1 3.988747 1_454
Br5 Sm2 2.933259 1_555
Br5 Sm3 2.934238 1_555
Br5 Cs3 3.792330 1_545
Br5 Cs0 3.836537 1_555
Br5 Cs2 3.988747 1_555
Br6 Sm3 2.933259 1_555
Br6 Sm2 2.934238 1_565
Br6 Cs0 3.792330 1_555
Br6 Cs3 3.836537 1_555
Br6 Cs1 3.988747 1_455
Br7 Sm3 2.933259 1_555
Br7 Sm2 2.934238 1_655
Br7 Cs1 3.792330 1_555
Br7 Cs2 3.836537 1_555
Br7 Cs0 3.988747 1_655
Br8 Sm3 2.942074 1_555
Br8 Sm1 2.942074 1_555
Br8 Cs3 3.780981 1_555
Br8 Cs0 3.849625 1_655
Br8 Cs0 4.214783 1_555
Br9 Sm3 2.942074 1_555
Br9 Sm1 2.942074 1_556
Br9 Cs2 3.780981 1_555
Br9 Cs1 3.849625 1_455
Br9 Cs1 4.214783 1_555
Br10 Sm2 2.942074 1_555
Br10 Sm0 2.942074 1_556
Br10 Cs1 3.780981 1_445
Br10 Cs2 3.849625 1_555
Br10 Cs2 4.214783 1_455
Br11 Sm2 2.942074 1_665
Br11 Sm0 2.942074 1_665
Br11 Cs0 3.780981 1_665
Br11 Cs3 3.849625 1_555
Br11 Cs3 4.214783 1_655
