# generated using pymatgen
data_Ti2H2CSe4Cl16O5
_symmetry_space_group_name_H-M   'P 1'
_cell_length_a   8.89928700
_cell_length_b   13.23240000
_cell_length_c   18.16539030
_cell_angle_alpha   50.43948950
_cell_angle_beta   90.00000000
_cell_angle_gamma   90.00000000
_symmetry_Int_Tables_number   1
_chemical_formula_structural   Ti2H2CSe4Cl16O5
_chemical_formula_sum   'Ti4 H4 C2 Se8 Cl32 O10'
_cell_volume   1649.17265094
_cell_formula_units_Z   2
loop_
 _symmetry_equiv_pos_site_id
 _symmetry_equiv_pos_as_xyz
  1  'x, y, z'
loop_
 _atom_site_type_symbol
 _atom_site_label
 _atom_site_symmetry_multiplicity
 _atom_site_fract_x
 _atom_site_fract_y
 _atom_site_fract_z
 _atom_site_occupancy
  Ti  Ti0  1  0.99756400  0.38902100  0.72500400  1
  Ti  Ti1  1  0.00243600  0.61097900  0.27499600  1
  Ti  Ti2  1  0.99756400  0.61097900  0.77499600  1
  Ti  Ti3  1  0.00243600  0.38902100  0.22500400  1
  H  H0  1  0.85230700  0.91819100  0.76814400  1
  H  H1  1  0.14769300  0.08180900  0.23185600  1
  H  H2  1  0.85230700  0.08180900  0.73185600  1
  H  H3  1  0.14769300  0.91819100  0.26814400  1
  C  C0  1  0.78373100  0.00000000  0.75000000  1
  C  C1  1  0.21626900  0.00000000  0.25000000  1
  Se  Se0  1  0.26652500  0.24941000  0.88949900  1
  Se  Se1  1  0.73347500  0.75059000  0.11050100  1
  Se  Se2  1  0.26652500  0.75059000  0.61050100  1
  Se  Se3  1  0.73347500  0.24941000  0.38949900  1
  Se  Se4  1  0.16769100  0.33141700  0.58827100  1
  Se  Se5  1  0.83230900  0.66858300  0.41172900  1
  Se  Se6  1  0.16769100  0.66858300  0.91172900  1
  Se  Se7  1  0.83230900  0.33141700  0.08827100  1
  Cl  Cl0  1  0.11171100  0.56463000  0.57046900  1
  Cl  Cl1  1  0.88828900  0.43537000  0.42953100  1
  Cl  Cl2  1  0.11171100  0.43537000  0.92953100  1
  Cl  Cl3  1  0.88828900  0.56463000  0.07046900  1
  Cl  Cl4  1  0.77090600  0.41171200  0.65993400  1
  Cl  Cl5  1  0.22909400  0.58828800  0.34006600  1
  Cl  Cl6  1  0.77090600  0.58828800  0.84006600  1
  Cl  Cl7  1  0.22909400  0.41171200  0.15993400  1
  Cl  Cl8  1  0.94759600  0.19430100  0.87516300  1
  Cl  Cl9  1  0.05240400  0.80569900  0.12483700  1
  Cl  Cl10  1  0.94759600  0.80569900  0.62483700  1
  Cl  Cl11  1  0.05240400  0.19430100  0.37516300  1
  Cl  Cl12  1  0.48830700  0.32397200  0.88768500  1
  Cl  Cl13  1  0.51169300  0.67602800  0.11231500  1
  Cl  Cl14  1  0.48830700  0.67602800  0.61231500  1
  Cl  Cl15  1  0.51169300  0.32397200  0.38768500  1
  Cl  Cl16  1  0.35017700  0.08136600  0.90224600  1
  Cl  Cl17  1  0.64982300  0.91863400  0.09775400  1
  Cl  Cl18  1  0.35017700  0.91863400  0.59775400  1
  Cl  Cl19  1  0.64982300  0.08136600  0.40224600  1
  Cl  Cl20  1  0.40692600  0.32797400  0.62177700  1
  Cl  Cl21  1  0.59307400  0.67202600  0.37822300  1
  Cl  Cl22  1  0.40692600  0.67202600  0.87822300  1
  Cl  Cl23  1  0.59307400  0.32797400  0.12177700  1
  Cl  Cl24  1  0.17067900  0.15139100  0.60385300  1
  Cl  Cl25  1  0.82932100  0.84860900  0.39614700  1
  Cl  Cl26  1  0.17067900  0.84860900  0.89614700  1
  Cl  Cl27  1  0.82932100  0.15139100  0.10385300  1
  Cl  Cl28  1  0.67152700  0.05630400  0.64940100  1
  Cl  Cl29  1  0.32847300  0.94369600  0.35059900  1
  Cl  Cl30  1  0.67152700  0.94369600  0.85059900  1
  Cl  Cl31  1  0.32847300  0.05630400  0.14940100  1
  O  O0  1  0.96645300  0.50000000  0.75000000  1
  O  O1  1  0.03354700  0.50000000  0.25000000  1
  O  O2  1  0.22255300  0.36205100  0.77353100  1
  O  O3  1  0.77744700  0.63794900  0.22646900  1
  O  O4  1  0.22255300  0.63794900  0.72646900  1
  O  O5  1  0.77744700  0.36205100  0.27353100  1
  O  O6  1  0.07488700  0.27100300  0.68909100  1
  O  O7  1  0.92511300  0.72899700  0.31090900  1
  O  O8  1  0.07488700  0.72899700  0.81090900  1
  O  O9  1  0.92511300  0.27100300  0.18909100  1
loop_
_geom_bond_atom_site_label_1
_geom_bond_atom_site_label_2
_geom_bond_distance
_geom_bond_site_symmetry_2
C0 H2 1.094742 1_555
C0 H0 1.094742 1_545
C0 Cl30 1.776897 1_545
C0 Cl28 1.776897 1_555
C1 H1 1.094742 1_555
C1 H3 1.094742 1_545
C1 Cl29 1.776897 1_545
C1 Cl31 1.776897 1_555
Cl0 Ti0 2.450069 1_455
Cl1 Ti1 2.450069 1_655
Cl2 Ti2 2.450069 1_455
Cl3 Ti3 2.450069 1_655
Cl4 Ti0 2.259186 1_555
Cl5 Ti1 2.259186 1_555
Cl6 Ti2 2.259186 1_555
Cl7 Ti3 2.259186 1_555
Cl8 Ti0 2.307501 1_555
Cl9 Ti1 2.307501 1_555
Cl10 Ti2 2.307501 1_555
Cl11 Ti3 2.307501 1_555
Cl12 Se0 2.197412 1_555
Cl13 Se1 2.197412 1_555
Cl14 Se2 2.197412 1_555
Cl15 Se3 2.197412 1_555
Cl16 Se0 2.212795 1_555
Cl17 Se1 2.212795 1_555
Cl18 Se2 2.212795 1_555
Cl19 Se3 2.212795 1_555
Cl20 Se4 2.206794 1_555
Cl21 Se5 2.206794 1_555
Cl22 Se6 2.206794 1_555
Cl23 Se7 2.206794 1_555
Cl24 Se4 2.212848 1_555
Cl25 Se5 2.212848 1_555
Cl26 Se6 2.212848 1_555
Cl27 Se7 2.212848 1_555
O0 Ti2 1.813486 1_555
O0 Ti0 1.813486 1_555
O1 Ti1 1.813486 1_555
O1 Ti3 1.813486 1_555
O2 Se0 1.677186 1_555
O2 Ti0 2.124306 1_455
O3 Se1 1.677186 1_555
O3 Ti1 2.124306 1_655
O4 Se2 1.677186 1_555
O4 Ti2 2.124306 1_455
O5 Se3 1.677186 1_555
O5 Ti3 2.124306 1_655
O6 Se4 1.676421 1_555
O6 Ti0 2.153045 1_455
O7 Se5 1.676421 1_555
O7 Ti1 2.153045 1_655
O8 Se6 1.676421 1_555
O8 Ti2 2.153045 1_455
O9 Se7 1.676421 1_555
O9 Ti3 2.153045 1_655
