# generated using pymatgen
data_Ce2Mg
_symmetry_space_group_name_H-M   'P 1'
_cell_length_a   6.27395663
_cell_length_b   6.27395663
_cell_length_c   36.12313000
_cell_angle_alpha   90.00000000
_cell_angle_beta   90.00000000
_cell_angle_gamma   120.00000659
_symmetry_Int_Tables_number   1
_chemical_formula_structural   Ce2Mg
_chemical_formula_sum   'Ce32 Mg16'
_cell_volume   1231.39957870
_cell_formula_units_Z   16
loop_
 _symmetry_equiv_pos_site_id
 _symmetry_equiv_pos_as_xyz
  1  'x, y, z'
loop_
 _atom_site_type_symbol
 _atom_site_label
 _atom_site_symmetry_multiplicity
 _atom_site_fract_x
 _atom_site_fract_y
 _atom_site_fract_z
 _atom_site_occupancy
  Ce  Ce0_0  1  0.33333350  0.16666650  0.25000000  1
  Ce  Ce0_1  1  0.33333350  0.16666650  0.75000000  1
  Ce  Ce0_2  1  0.33333350  0.66666650  0.25000000  1
  Ce  Ce0_3  1  0.33333350  0.66666650  0.75000000  1
  Ce  Ce0_4  1  0.83333350  0.16666650  0.25000000  1
  Ce  Ce0_5  1  0.83333350  0.16666650  0.75000000  1
  Ce  Ce0_6  1  0.83333350  0.66666650  0.25000000  1
  Ce  Ce0_7  1  0.83333350  0.66666650  0.75000000  1
  Ce  Ce1_0  1  0.00000000  0.00000000  0.16686850  1
  Ce  Ce1_1  1  0.00000000  0.00000000  0.66686850  1
  Ce  Ce1_2  1  0.00000000  0.50000000  0.16686850  1
  Ce  Ce1_3  1  0.00000000  0.50000000  0.66686850  1
  Ce  Ce1_4  1  0.50000000  0.00000000  0.16686850  1
  Ce  Ce1_5  1  0.50000000  0.00000000  0.66686850  1
  Ce  Ce1_6  1  0.50000000  0.50000000  0.16686850  1
  Ce  Ce1_7  1  0.50000000  0.50000000  0.66686850  1
  Ce  Ce2_0  1  0.00000000  0.00000000  0.00000000  1
  Ce  Ce2_1  1  0.00000000  0.00000000  0.50000000  1
  Ce  Ce2_2  1  0.00000000  0.50000000  0.00000000  1
  Ce  Ce2_3  1  0.00000000  0.50000000  0.50000000  1
  Ce  Ce2_4  1  0.50000000  0.00000000  0.00000000  1
  Ce  Ce2_5  1  0.50000000  0.00000000  0.50000000  1
  Ce  Ce2_6  1  0.50000000  0.50000000  0.00000000  1
  Ce  Ce2_7  1  0.50000000  0.50000000  0.50000000  1
  Ce  Ce3_0  1  0.00000000  0.00000000  0.33313150  1
  Ce  Ce3_1  1  0.00000000  0.00000000  0.83313150  1
  Ce  Ce3_2  1  0.00000000  0.50000000  0.33313150  1
  Ce  Ce3_3  1  0.00000000  0.50000000  0.83313150  1
  Ce  Ce3_4  1  0.50000000  0.00000000  0.33313150  1
  Ce  Ce3_5  1  0.50000000  0.00000000  0.83313150  1
  Ce  Ce3_6  1  0.50000000  0.50000000  0.33313150  1
  Ce  Ce3_7  1  0.50000000  0.50000000  0.83313150  1
  Mg  Mg0_0  1  0.33333350  0.16666650  0.08341650  1
  Mg  Mg0_1  1  0.33333350  0.16666650  0.58341650  1
  Mg  Mg0_2  1  0.33333350  0.66666650  0.08341650  1
  Mg  Mg0_3  1  0.33333350  0.66666650  0.58341650  1
  Mg  Mg0_4  1  0.83333350  0.16666650  0.08341650  1
  Mg  Mg0_5  1  0.83333350  0.16666650  0.58341650  1
  Mg  Mg0_6  1  0.83333350  0.66666650  0.08341650  1
  Mg  Mg0_7  1  0.83333350  0.66666650  0.58341650  1
  Mg  Mg1_0  1  0.33333350  0.16666650  0.41658350  1
  Mg  Mg1_1  1  0.33333350  0.16666650  0.91658350  1
  Mg  Mg1_2  1  0.33333350  0.66666650  0.41658350  1
  Mg  Mg1_3  1  0.33333350  0.66666650  0.91658350  1
  Mg  Mg1_4  1  0.83333350  0.16666650  0.41658350  1
  Mg  Mg1_5  1  0.83333350  0.16666650  0.91658350  1
  Mg  Mg1_6  1  0.83333350  0.66666650  0.41658350  1
  Mg  Mg1_7  1  0.83333350  0.66666650  0.91658350  1
loop_
_geom_bond_atom_site_label_1
_geom_bond_atom_site_label_2
_geom_bond_distance
_geom_bond_site_symmetry_2
Ce0_0 Ce0_6 3.136978 1_445
Ce0_0 Ce0_6 3.136978 1_555
Ce0_0 Ce0_4 3.136978 1_555
Ce0_0 Ce0_4 3.136978 1_455
Ce0_0 Ce0_2 3.136978 1_545
Ce0_0 Ce0_2 3.136978 1_555
Ce0_0 Ce1_4 3.506855 1_555
Ce0_0 Ce3_4 3.506855 1_555
Ce0_0 Ce1_0 3.506857 1_555
Ce0_0 Ce1_6 3.506857 1_555
Ce0_0 Ce3_6 3.506857 1_555
Ce0_0 Ce3_0 3.506857 1_555
Ce0_1 Ce0_7 3.136978 1_445
Ce0_1 Ce0_7 3.136978 1_555
Ce0_1 Ce0_5 3.136978 1_555
Ce0_1 Ce0_3 3.136978 1_545
Ce0_1 Ce0_3 3.136978 1_555
Ce0_1 Ce0_5 3.136978 1_455
Ce0_1 Ce1_5 3.506855 1_555
Ce0_1 Ce3_5 3.506855 1_555
Ce0_1 Ce3_1 3.506857 1_555
Ce0_1 Ce1_7 3.506857 1_555
Ce0_1 Ce1_1 3.506857 1_555
Ce0_1 Ce3_7 3.506857 1_555
Ce0_2 Ce0_4 3.136978 1_455
Ce0_2 Ce0_4 3.136978 1_565
Ce0_2 Ce0_6 3.136978 1_455
Ce0_2 Ce0_6 3.136978 1_555
Ce0_2 Ce1_6 3.506855 1_555
Ce0_2 Ce3_6 3.506855 1_555
Ce0_2 Ce1_2 3.506857 1_555
Ce0_2 Ce1_4 3.506857 1_565
Ce0_2 Ce3_2 3.506857 1_555
Ce0_2 Ce3_4 3.506857 1_565
Ce0_3 Ce0_5 3.136978 1_455
Ce0_3 Ce0_5 3.136978 1_565
Ce0_3 Ce0_7 3.136978 1_555
Ce0_3 Ce0_7 3.136978 1_455
Ce0_3 Ce1_7 3.506855 1_555
Ce0_3 Ce3_7 3.506855 1_555
Ce0_3 Ce1_5 3.506857 1_565
Ce0_3 Ce1_3 3.506857 1_555
Ce0_3 Ce3_3 3.506857 1_555
Ce0_3 Ce3_5 3.506857 1_565
Ce0_4 Ce0_6 3.136978 1_545
Ce0_4 Ce0_6 3.136978 1_555
Ce0_4 Ce1_0 3.506855 1_655
Ce0_4 Ce3_0 3.506855 1_655
Ce0_4 Ce1_4 3.506857 1_555
Ce0_4 Ce1_2 3.506857 1_655
Ce0_4 Ce3_4 3.506857 1_555
Ce0_4 Ce3_2 3.506857 1_655
Ce0_5 Ce0_7 3.136978 1_545
Ce0_5 Ce0_7 3.136978 1_555
Ce0_5 Ce3_1 3.506855 1_655
Ce0_5 Ce1_1 3.506855 1_655
Ce0_5 Ce1_5 3.506857 1_555
Ce0_5 Ce3_5 3.506857 1_555
Ce0_5 Ce1_3 3.506857 1_655
Ce0_5 Ce3_3 3.506857 1_655
Ce0_6 Ce1_2 3.506855 1_655
Ce0_6 Ce3_2 3.506855 1_655
Ce0_6 Ce1_0 3.506857 1_665
Ce0_6 Ce1_6 3.506857 1_555
Ce0_6 Ce3_0 3.506857 1_665
Ce0_6 Ce3_6 3.506857 1_555
Ce0_7 Ce3_3 3.506855 1_655
Ce0_7 Ce1_3 3.506855 1_655
Ce0_7 Ce1_1 3.506857 1_665
Ce0_7 Ce3_1 3.506857 1_665
Ce0_7 Ce1_7 3.506857 1_555
Ce0_7 Ce3_7 3.506857 1_555
Ce1_0 Ce1_6 3.136978 1_445
Ce1_0 Ce1_6 3.136978 1_555
Ce1_0 Ce1_2 3.136978 1_555
Ce1_0 Ce1_4 3.136978 1_455
Ce1_0 Ce1_4 3.136978 1_555
Ce1_0 Ce1_2 3.136978 1_545
Ce1_0 Mg0_4 3.516774 1_455
Ce1_0 Mg0_6 3.516776 1_445
Ce1_0 Mg0_0 3.516776 1_555
Ce1_1 Ce1_7 3.136978 1_445
Ce1_1 Ce1_7 3.136978 1_555
Ce1_1 Ce1_3 3.136978 1_555
Ce1_1 Ce1_5 3.136978 1_555
Ce1_1 Ce1_3 3.136978 1_545
Ce1_1 Ce1_5 3.136978 1_455
Ce1_1 Mg0_5 3.516774 1_455
Ce1_1 Mg0_7 3.516776 1_445
Ce1_1 Mg0_1 3.516776 1_555
Ce1_2 Ce1_4 3.136978 1_565
Ce1_2 Ce1_4 3.136978 1_455
Ce1_2 Ce1_6 3.136978 1_455
Ce1_2 Ce1_6 3.136978 1_555
Ce1_2 Mg0_6 3.516774 1_455
Ce1_2 Mg0_2 3.516776 1_555
Ce1_2 Mg0_4 3.516776 1_455
Ce1_3 Ce1_5 3.136978 1_455
Ce1_3 Ce1_5 3.136978 1_565
Ce1_3 Ce1_7 3.136978 1_455
Ce1_3 Ce1_7 3.136978 1_555
Ce1_3 Mg0_7 3.516774 1_455
Ce1_3 Mg0_3 3.516776 1_555
Ce1_3 Mg0_5 3.516776 1_455
Ce1_4 Ce1_6 3.136978 1_555
Ce1_4 Ce1_6 3.136978 1_545
Ce1_4 Mg0_0 3.516774 1_555
Ce1_4 Mg0_4 3.516776 1_555
Ce1_4 Mg0_2 3.516776 1_545
Ce1_5 Ce1_7 3.136978 1_555
Ce1_5 Ce1_7 3.136978 1_545
Ce1_5 Mg0_1 3.516774 1_555
Ce1_5 Mg0_3 3.516776 1_545
Ce1_5 Mg0_5 3.516776 1_555
Ce1_6 Mg0_2 3.516774 1_555
Ce1_6 Mg0_6 3.516776 1_555
Ce1_6 Mg0_0 3.516776 1_555
Ce1_7 Mg0_3 3.516774 1_555
Ce1_7 Mg0_1 3.516776 1_555
Ce1_7 Mg0_7 3.516776 1_555
Ce2_0 Ce2_6 3.136978 1_445
Ce2_0 Ce2_6 3.136978 1_555
Ce2_0 Ce2_2 3.136978 1_555
Ce2_0 Ce2_4 3.136978 1_455
Ce2_0 Ce2_2 3.136978 1_545
Ce2_0 Ce2_4 3.136978 1_555
Ce2_0 Mg1_5 3.515675 1_454
Ce2_0 Mg0_4 3.515675 1_455
Ce2_0 Mg1_1 3.515676 1_554
Ce2_0 Mg0_6 3.515676 1_445
Ce2_0 Mg1_7 3.515676 1_444
Ce2_0 Mg0_0 3.515676 1_555
Ce2_1 Ce2_7 3.136978 1_445
Ce2_1 Ce2_7 3.136978 1_555
Ce2_1 Ce2_3 3.136978 1_555
Ce2_1 Ce2_3 3.136978 1_545
Ce2_1 Ce2_5 3.136978 1_455
Ce2_1 Ce2_5 3.136978 1_555
Ce2_1 Mg0_5 3.515675 1_455
Ce2_1 Mg1_4 3.515675 1_455
Ce2_1 Mg0_7 3.515676 1_445
Ce2_1 Mg0_1 3.515676 1_555
Ce2_1 Mg1_6 3.515676 1_445
Ce2_1 Mg1_0 3.515676 1_555
Ce2_2 Ce2_4 3.136978 1_455
Ce2_2 Ce2_4 3.136978 1_565
Ce2_2 Ce2_6 3.136978 1_455
Ce2_2 Ce2_6 3.136978 1_555
Ce2_2 Mg0_6 3.515675 1_455
Ce2_2 Mg1_7 3.515675 1_454
Ce2_2 Mg1_5 3.515676 1_454
Ce2_2 Mg0_4 3.515676 1_455
Ce2_2 Mg0_2 3.515676 1_555
Ce2_2 Mg1_3 3.515676 1_554
Ce2_3 Ce2_5 3.136978 1_565
Ce2_3 Ce2_5 3.136978 1_455
Ce2_3 Ce2_7 3.136978 1_455
Ce2_3 Ce2_7 3.136978 1_555
Ce2_3 Mg1_6 3.515675 1_455
Ce2_3 Mg0_7 3.515675 1_455
Ce2_3 Mg1_4 3.515676 1_455
Ce2_3 Mg0_5 3.515676 1_455
Ce2_3 Mg0_3 3.515676 1_555
Ce2_3 Mg1_2 3.515676 1_555
Ce2_4 Ce2_6 3.136978 1_555
Ce2_4 Ce2_6 3.136978 1_545
Ce2_4 Mg0_0 3.515675 1_555
Ce2_4 Mg1_1 3.515675 1_554
Ce2_4 Mg1_5 3.515676 1_554
Ce2_4 Mg0_4 3.515676 1_555
Ce2_4 Mg1_3 3.515676 1_544
Ce2_4 Mg0_2 3.515676 1_545
Ce2_5 Ce2_7 3.136978 1_555
Ce2_5 Ce2_7 3.136978 1_545
Ce2_5 Mg1_0 3.515675 1_555
Ce2_5 Mg0_1 3.515675 1_555
Ce2_5 Mg0_5 3.515676 1_555
Ce2_5 Mg1_4 3.515676 1_555
Ce2_5 Mg0_3 3.515676 1_545
Ce2_5 Mg1_2 3.515676 1_545
Ce2_6 Mg1_3 3.515675 1_554
Ce2_6 Mg0_2 3.515675 1_555
Ce2_6 Mg1_1 3.515676 1_554
Ce2_6 Mg0_0 3.515676 1_555
Ce2_6 Mg1_7 3.515676 1_554
Ce2_6 Mg0_6 3.515676 1_555
Ce2_7 Mg0_3 3.515675 1_555
Ce2_7 Mg1_2 3.515675 1_555
Ce2_7 Mg1_0 3.515676 1_555
Ce2_7 Mg0_1 3.515676 1_555
Ce2_7 Mg0_7 3.515676 1_555
Ce2_7 Mg1_6 3.515676 1_555
Ce3_0 Ce3_6 3.136978 1_445
Ce3_0 Ce3_6 3.136978 1_555
Ce3_0 Ce3_2 3.136978 1_555
Ce3_0 Ce3_4 3.136978 1_555
Ce3_0 Ce3_2 3.136978 1_545
Ce3_0 Ce3_4 3.136978 1_455
Ce3_0 Mg1_4 3.516774 1_455
Ce3_0 Mg1_0 3.516776 1_555
Ce3_0 Mg1_6 3.516776 1_445
Ce3_1 Ce3_7 3.136978 1_445
Ce3_1 Ce3_7 3.136978 1_555
Ce3_1 Ce3_3 3.136978 1_555
Ce3_1 Ce3_5 3.136978 1_455
Ce3_1 Ce3_5 3.136978 1_555
Ce3_1 Ce3_3 3.136978 1_545
Ce3_1 Mg1_5 3.516774 1_455
Ce3_1 Mg1_7 3.516776 1_445
Ce3_1 Mg1_1 3.516776 1_555
Ce3_2 Ce3_4 3.136978 1_455
Ce3_2 Ce3_4 3.136978 1_565
Ce3_2 Ce3_6 3.136978 1_455
Ce3_2 Ce3_6 3.136978 1_555
Ce3_2 Mg1_6 3.516774 1_455
Ce3_2 Mg1_4 3.516776 1_455
Ce3_2 Mg1_2 3.516776 1_555
Ce3_3 Ce3_5 3.136978 1_565
Ce3_3 Ce3_5 3.136978 1_455
Ce3_3 Ce3_7 3.136978 1_555
Ce3_3 Ce3_7 3.136978 1_455
Ce3_3 Mg1_7 3.516774 1_455
Ce3_3 Mg1_5 3.516776 1_455
Ce3_3 Mg1_3 3.516776 1_555
Ce3_4 Ce3_6 3.136978 1_555
Ce3_4 Ce3_6 3.136978 1_545
Ce3_4 Mg1_0 3.516774 1_555
Ce3_4 Mg1_4 3.516776 1_555
Ce3_4 Mg1_2 3.516776 1_545
Ce3_5 Ce3_7 3.136978 1_555
Ce3_5 Ce3_7 3.136978 1_545
Ce3_5 Mg1_1 3.516774 1_555
Ce3_5 Mg1_3 3.516776 1_545
Ce3_5 Mg1_5 3.516776 1_555
Ce3_6 Mg1_2 3.516774 1_555
Ce3_6 Mg1_0 3.516776 1_555
Ce3_6 Mg1_6 3.516776 1_555
Ce3_7 Mg1_3 3.516774 1_555
Ce3_7 Mg1_1 3.516776 1_555
Ce3_7 Mg1_7 3.516776 1_555
Mg0_0 Mg0_6 3.136978 1_445
Mg0_0 Mg0_6 3.136978 1_555
Mg0_0 Mg0_4 3.136978 1_555
Mg0_0 Mg0_2 3.136978 1_545
Mg0_0 Mg0_4 3.136978 1_455
Mg0_0 Mg0_2 3.136978 1_555
Mg0_1 Mg0_7 3.136978 1_445
Mg0_1 Mg0_7 3.136978 1_555
Mg0_1 Mg0_5 3.136978 1_555
Mg0_1 Mg0_3 3.136978 1_555
Mg0_1 Mg0_3 3.136978 1_545
Mg0_1 Mg0_5 3.136978 1_455
Mg0_2 Mg0_4 3.136978 1_455
Mg0_2 Mg0_4 3.136978 1_565
Mg0_2 Mg0_6 3.136978 1_455
Mg0_2 Mg0_6 3.136978 1_555
Mg0_3 Mg0_5 3.136978 1_455
Mg0_3 Mg0_5 3.136978 1_565
Mg0_3 Mg0_7 3.136978 1_555
Mg0_3 Mg0_7 3.136978 1_455
Mg0_4 Mg0_6 3.136978 1_545
Mg0_4 Mg0_6 3.136978 1_555
Mg0_5 Mg0_7 3.136978 1_545
Mg0_5 Mg0_7 3.136978 1_555
Mg1_0 Mg1_6 3.136978 1_445
Mg1_0 Mg1_6 3.136978 1_555
Mg1_0 Mg1_4 3.136978 1_555
Mg1_0 Mg1_2 3.136978 1_555
Mg1_0 Mg1_4 3.136978 1_455
Mg1_0 Mg1_2 3.136978 1_545
Mg1_1 Mg1_7 3.136978 1_445
Mg1_1 Mg1_7 3.136978 1_555
Mg1_1 Mg1_5 3.136978 1_555
Mg1_1 Mg1_3 3.136978 1_555
Mg1_1 Mg1_5 3.136978 1_455
Mg1_1 Mg1_3 3.136978 1_545
Mg1_2 Mg1_4 3.136978 1_455
Mg1_2 Mg1_4 3.136978 1_565
Mg1_2 Mg1_6 3.136978 1_555
Mg1_2 Mg1_6 3.136978 1_455
Mg1_3 Mg1_5 3.136978 1_455
Mg1_3 Mg1_5 3.136978 1_565
Mg1_3 Mg1_7 3.136978 1_455
Mg1_3 Mg1_7 3.136978 1_555
Mg1_4 Mg1_6 3.136978 1_545
Mg1_4 Mg1_6 3.136978 1_555
Mg1_5 Mg1_7 3.136978 1_545
Mg1_5 Mg1_7 3.136978 1_555
