# generated using pymatgen
data_Li8(CoO2)5
_symmetry_space_group_name_H-M   'P 1'
_cell_length_a   6.64771015
_cell_length_b   8.64642440
_cell_length_c   10.08472871
_cell_angle_alpha   112.66556119
_cell_angle_beta   103.36606396
_cell_angle_gamma   94.81990606
_symmetry_Int_Tables_number   1
_chemical_formula_structural   Li8(CoO2)5
_chemical_formula_sum   'Li16 Co10 O20'
_cell_volume   510.63801731
_cell_formula_units_Z   2
loop_
 _symmetry_equiv_pos_site_id
 _symmetry_equiv_pos_as_xyz
  1  'x, y, z'
loop_
 _atom_site_type_symbol
 _atom_site_label
 _atom_site_symmetry_multiplicity
 _atom_site_fract_x
 _atom_site_fract_y
 _atom_site_fract_z
 _atom_site_occupancy
  Li  Li0  1  0.91006100  0.06084900  0.24738600  1
  Li  Li1  1  0.41126800  0.06909400  0.75902700  1
  Li  Li2  1  0.29010400  0.13906400  0.35274800  1
  Li  Li3  1  0.78900200  0.13078500  0.84100300  1
  Li  Li4  1  0.28677600  0.44180900  0.44721200  1
  Li  Li5  1  0.78145000  0.44104500  0.94532800  1
  Li  Li6  1  0.41849700  0.75913000  0.65453400  1
  Li  Li7  1  0.91320000  0.75822400  0.15271800  1
  Li  Li8  1  0.14965500  0.26764500  0.85317100  1
  Li  Li9  1  0.64488500  0.26860600  0.35871900  1
  Li  Li10  1  0.55535800  0.93148500  0.24141500  1
  Li  Li11  1  0.05032500  0.93220200  0.74676900  1
  Li  Li12  1  0.18000400  0.54976800  0.05457900  1
  Li  Li13  1  0.67604000  0.54938500  0.55721900  1
  Li  Li14  1  0.52388700  0.65058200  0.04276200  1
  Li  Li15  1  0.01989600  0.65028400  0.54539100  1
  Co  Co0  1  0.09993000  0.59999400  0.79996000  1
  Co  Co1  1  0.59999800  0.59995700  0.29993500  1
  Co  Co2  1  0.69852300  0.19748100  0.59761900  1
  Co  Co3  1  0.19985400  0.19761300  0.09863500  1
  Co  Co4  1  0.00019400  0.00233900  0.50137800  1
  Co  Co5  1  0.50130000  0.00254400  0.00246500  1
  Co  Co6  1  0.41214000  0.40626000  0.70799400  1
  Co  Co7  1  0.90877300  0.40563900  0.20735900  1
  Co  Co8  1  0.78780500  0.79386600  0.89207300  1
  Co  Co9  1  0.29128100  0.79429100  0.39260200  1
  O  O0  1  0.09366800  0.26031700  0.26338000  1
  O  O1  1  0.58896100  0.26302300  0.77255300  1
  O  O2  1  0.61105100  0.93707300  0.82760000  1
  O  O3  1  0.10635300  0.93960000  0.33663000  1
  O  O4  1  0.78916800  0.09134000  0.41354500  1
  O  O5  1  0.26910600  0.10179800  0.92143100  1
  O  O6  1  0.93048300  0.09782700  0.67842400  1
  O  O7  1  0.41121300  0.10900400  0.18664600  1
  O  O8  1  0.23638300  0.56320000  0.65086400  1
  O  O9  1  0.73681000  0.55953600  0.15042000  1
  O  O10  1  0.96353300  0.63687800  0.94909700  1
  O  O11  1  0.46312500  0.64034600  0.44943200  1
  O  O12  1  0.50503900  0.32910100  0.52154400  1
  O  O13  1  0.01703400  0.32067800  0.02421900  1
  O  O14  1  0.69488100  0.87098000  0.07852000  1
  O  O15  1  0.18309200  0.87938700  0.57580500  1
  O  O16  1  0.28692400  0.48978100  0.87905800  1
  O  O17  1  0.78566200  0.48740500  0.37873900  1
  O  O18  1  0.41440600  0.71263000  0.22122400  1
  O  O19  1  0.91290000  0.71015700  0.72086800  1
loop_
_geom_bond_atom_site_label_1
_geom_bond_atom_site_label_2
_geom_bond_distance
_geom_bond_site_symmetry_2
Li0 O0 1.957335 1_655
Li0 O4 1.959846 1_555
Li0 O14 1.991441 1_545
Li0 O3 2.006471 1_645
Li1 O1 1.908393 1_555
Li1 O2 1.995908 1_545
Li1 O5 2.014713 1_555
Li1 O15 2.087034 1_545
Li2 O3 1.957314 1_545
Li2 O7 1.960820 1_555
Li2 O12 1.991076 1_555
Li2 O0 2.007687 1_555
Li3 O2 1.908311 1_545
Li3 O1 1.997911 1_555
Li3 O6 2.012927 1_555
Li3 O13 2.087190 1_656
Li4 O0 1.966324 1_555
Li4 O12 1.978543 1_555
Li4 O11 1.985377 1_555
Li4 O8 2.036590 1_555
Li5 O1 1.900997 1_555
Li5 O10 1.979497 1_555
Li5 O9 2.029112 1_556
Li5 O13 2.122440 1_656
Li6 O2 1.902214 1_555
Li6 O8 1.980727 1_555
Li6 O11 2.029482 1_555
Li6 O15 2.120311 1_555
Li7 O3 1.966444 1_655
Li7 O14 1.978550 1_555
Li7 O9 1.986216 1_555
Li7 O10 2.036095 1_554
Li8 O16 1.949039 1_555
Li8 O6 1.960487 1_455
Li8 O5 1.964725 1_555
Li8 O13 2.030889 1_556
Li9 O17 1.953544 1_555
Li9 O7 1.968890 1_555
Li9 O12 1.989904 1_555
Li9 O4 2.056669 1_555
Li10 O18 1.953753 1_555
Li10 O4 1.970265 1_565
Li10 O14 1.989031 1_555
Li10 O7 2.057926 1_565
Li11 O19 1.948653 1_455
Li11 O5 1.958231 1_565
Li11 O6 1.964463 1_465
Li11 O15 2.030912 1_555
Li12 O18 1.957545 1_555
Li12 O16 1.960477 1_554
Li12 O10 1.965093 1_454
Li12 O13 2.051746 1_555
Li13 O19 1.948834 1_555
Li13 O11 1.984466 1_555
Li13 O12 1.992078 1_555
Li13 O17 1.996654 1_555
Li14 O16 1.949506 1_554
Li14 O9 1.984293 1_555
Li14 O14 1.992616 1_555
Li14 O18 1.995907 1_555
Li15 O17 1.957021 1_455
Li15 O19 1.960437 1_455
Li15 O8 1.964967 1_555
Li15 O15 2.052275 1_555
Co0 O19 1.848076 1_455
Co0 O16 1.848276 1_555
Co0 O8 1.869561 1_555
Co0 O10 1.869581 1_455
Co1 O17 1.856447 1_555
Co1 O18 1.856488 1_555
Co1 O9 1.871933 1_555
Co1 O11 1.872081 1_555
Co2 O1 1.963876 1_555
Co2 O4 1.987070 1_555
Co2 O6 1.991918 1_555
Co2 O12 2.000190 1_555
Co3 O5 1.842629 1_554
Co3 O0 1.861406 1_555
Co3 O7 1.864764 1_555
Co3 O13 1.893030 1_555
Co4 O6 1.842559 1_455
Co4 O3 1.861316 1_545
Co4 O4 1.864670 1_455
Co4 O15 1.892640 1_545
Co5 O2 1.964042 1_544
Co5 O7 1.986247 1_555
Co5 O5 1.991684 1_554
Co5 O14 2.000113 1_545
Co6 O1 1.962570 1_555
Co6 O16 1.998819 1_555
Co6 O12 2.000327 1_555
Co6 O8 2.023899 1_555
Co7 O0 1.973411 1_655
Co7 O9 1.987010 1_555
Co7 O17 1.991530 1_555
Co7 O13 2.031363 1_655
Co8 O2 1.961725 1_555
Co8 O19 1.999569 1_555
Co8 O14 2.000394 1_556
Co8 O10 2.023696 1_555
Co9 O3 1.973264 1_555
Co9 O11 1.986452 1_555
Co9 O18 1.991523 1_555
Co9 O15 2.031668 1_555
