# generated using pymatgen
data_YFe3
_symmetry_space_group_name_H-M   'P 1'
_cell_length_a   5.15703574
_cell_length_b   5.15719096
_cell_length_c   16.04045470
_cell_angle_alpha   90.00000000
_cell_angle_beta   90.00000000
_cell_angle_gamma   120.00352427
_symmetry_Int_Tables_number   1
_chemical_formula_structural   YFe3
_chemical_formula_sum   'Y6 Fe18'
_cell_volume   369.44112338
_cell_formula_units_Z   6
loop_
 _symmetry_equiv_pos_site_id
 _symmetry_equiv_pos_as_xyz
  1  'x, y, z'
loop_
 _atom_site_type_symbol
 _atom_site_label
 _atom_site_symmetry_multiplicity
 _atom_site_fract_x
 _atom_site_fract_y
 _atom_site_fract_z
 _atom_site_occupancy
  Y  Y0  1  0.66666412  0.33333436  0.03687751  1
  Y  Y1  1  0.33333588  0.66666564  0.96312249  1
  Y  Y2  1  0.33333588  0.66666564  0.53687751  1
  Y  Y3  1  0.66666412  0.33333436  0.46312249  1
  Y  Y4  1  0.66669598  0.33330448  0.25000000  1
  Y  Y5  1  0.33330402  0.66669552  0.75000000  1
  Fe  Fe0  1  0.83397251  0.66794474  0.62959348  1
  Fe  Fe1  1  0.83395388  0.16604473  0.62959815  1
  Fe  Fe2  1  0.33205700  0.16602803  0.62959280  1
  Fe  Fe3  1  0.16602749  0.33205526  0.37040652  1
  Fe  Fe4  1  0.16604612  0.83395527  0.37040185  1
  Fe  Fe5  1  0.66794300  0.83397197  0.37040720  1
  Fe  Fe6  1  0.16602749  0.33205526  0.12959348  1
  Fe  Fe7  1  0.16604612  0.83395527  0.12959815  1
  Fe  Fe8  1  0.66794300  0.83397197  0.12959280  1
  Fe  Fe9  1  0.83397251  0.66794474  0.87040652  1
  Fe  Fe10  1  0.83395388  0.16604473  0.87040185  1
  Fe  Fe11  1  0.33205700  0.16602803  0.87040720  1
  Fe  Fe12  1  0.66663160  0.33337124  0.75000000  1
  Fe  Fe13  1  0.33336840  0.66662876  0.25000000  1
  Fe  Fe14  1  0.99995783  0.00004027  0.75000000  1
  Fe  Fe15  1  0.00004217  0.99995973  0.25000000  1
  Fe  Fe16  1  -0.00000000  -0.00000000  0.50000000  1
  Fe  Fe17  1  -0.00000000  -0.00000000  -0.00000000  1
loop_
_geom_bond_atom_site_label_1
_geom_bond_atom_site_label_2
_geom_bond_distance
_geom_bond_site_symmetry_2
Fe0 Fe14 2.435161 1_565
Fe0 Fe12 2.441917 1_555
Fe0 Fe16 2.553511 1_665
Fe0 Fe2 2.568538 1_665
Fe0 Fe1 2.568845 1_565
Fe0 Fe2 2.588300 1_555
Fe0 Fe1 2.588346 1_555
Fe0 Y2 2.976657 1_555
Fe0 Y2 2.976684 1_655
Fe0 Y3 3.059998 1_555
Fe0 Y5 3.221464 1_655
Fe0 Y5 3.221826 1_555
Fe1 Fe14 2.434899 1_555
Fe1 Fe12 2.442099 1_555
Fe1 Fe16 2.553697 1_655
Fe1 Fe2 2.568779 1_655
Fe1 Fe2 2.588257 1_555
Fe1 Y2 2.976616 1_545
Fe1 Y2 2.976629 1_655
Fe1 Y3 3.060023 1_555
Fe1 Y5 3.221519 1_545
Fe1 Y5 3.221524 1_655
Fe2 Y2 2.976724 1_555
Fe2 Y2 2.976741 1_545
Fe2 Y3 3.059959 1_555
Fe2 Y5 3.221532 1_545
Fe2 Y5 3.221895 1_555
Fe3 Fe5 2.568538 1_445
Fe3 Fe4 2.568845 1_545
Fe3 Fe5 2.588300 1_555
Fe3 Fe4 2.588346 1_555
Fe3 Y3 2.976657 1_555
Fe3 Y3 2.976684 1_455
Fe3 Y2 3.059998 1_555
Fe3 Y4 3.221464 1_455
Fe3 Y4 3.221826 1_555
Fe4 Fe5 2.568779 1_455
Fe4 Fe5 2.588257 1_555
Fe4 Y3 2.976616 1_565
Fe4 Y3 2.976629 1_455
Fe4 Y2 3.060023 1_555
Fe4 Y4 3.221519 1_565
Fe4 Y4 3.221524 1_455
Fe5 Y3 2.976724 1_555
Fe5 Y3 2.976741 1_565
Fe5 Y2 3.059959 1_555
Fe5 Y4 3.221532 1_565
Fe5 Y4 3.221895 1_555
Fe6 Fe8 2.568538 1_445
Fe6 Fe7 2.568845 1_545
Fe6 Fe8 2.588300 1_555
Fe6 Fe7 2.588346 1_555
Fe6 Y0 2.976657 1_555
Fe6 Y0 2.976684 1_455
Fe6 Y1 3.059998 1_554
Fe6 Y4 3.221464 1_455
Fe6 Y4 3.221826 1_555
Fe7 Fe8 2.568779 1_455
Fe7 Fe8 2.588257 1_555
Fe7 Y0 2.976616 1_565
Fe7 Y0 2.976629 1_455
Fe7 Y1 3.060023 1_554
Fe7 Y4 3.221519 1_565
Fe7 Y4 3.221524 1_455
Fe8 Y0 2.976724 1_555
Fe8 Y0 2.976741 1_565
Fe8 Y1 3.059959 1_554
Fe8 Y4 3.221532 1_565
Fe8 Y4 3.221895 1_555
Fe9 Y1 2.976657 1_555
Fe9 Y1 2.976684 1_655
Fe9 Y0 3.059998 1_556
Fe9 Y5 3.221464 1_655
Fe9 Y5 3.221826 1_555
Fe10 Fe14 2.434899 1_555
Fe10 Fe12 2.442099 1_555
Fe10 Fe17 2.553697 1_656
Fe10 Fe11 2.568779 1_655
Fe10 Fe9 2.568845 1_545
Fe10 Fe11 2.588257 1_555
Fe10 Fe9 2.588346 1_555
Fe10 Y1 2.976616 1_545
Fe10 Y1 2.976629 1_655
Fe10 Y0 3.060023 1_556
Fe10 Y5 3.221519 1_545
Fe10 Y5 3.221524 1_655
Fe11 Fe14 2.435152 1_455
Fe11 Fe12 2.441901 1_555
Fe11 Fe17 2.553481 1_556
Fe11 Fe9 2.568538 1_445
Fe11 Fe9 2.588300 1_555
Fe11 Y1 2.976724 1_555
Fe11 Y1 2.976741 1_545
Fe11 Y0 3.059959 1_556
Fe11 Y5 3.221532 1_545
Fe11 Y5 3.221895 1_555
Fe12 Fe2 2.441901 1_555
Fe12 Fe9 2.441917 1_555
Fe12 Y5 2.977336 1_655
Fe12 Y5 2.977440 1_545
Fe12 Y5 2.977448 1_555
Fe13 Fe8 2.441901 1_555
Fe13 Fe5 2.441901 1_555
Fe13 Fe6 2.441917 1_555
Fe13 Fe3 2.441917 1_555
Fe13 Fe4 2.442099 1_555
Fe13 Fe7 2.442099 1_555
Fe13 Y4 2.977336 1_455
Fe13 Y4 2.977440 1_565
Fe13 Y4 2.977448 1_555
Fe14 Fe2 2.435152 1_655
Fe14 Fe9 2.435161 1_545
Fe14 Y5 2.977253 1_545
Fe14 Y5 2.977349 1_655
Fe14 Y5 2.977622 1_645
Fe15 Fe7 2.434899 1_555
Fe15 Fe4 2.434899 1_555
Fe15 Fe8 2.435152 1_455
Fe15 Fe5 2.435152 1_455
Fe15 Fe6 2.435161 1_565
Fe15 Fe3 2.435161 1_565
Fe15 Y4 2.977253 1_565
Fe15 Y4 2.977349 1_455
Fe15 Y4 2.977622 1_465
Fe16 Fe2 2.553481 1_555
Fe16 Fe5 2.553481 1_445
Fe16 Fe3 2.553511 1_555
Fe16 Fe4 2.553697 1_545
Fe16 Y3 3.035493 1_555
Fe16 Y2 3.035493 1_445
Fe16 Y3 3.035588 1_445
Fe16 Y2 3.035588 1_555
Fe16 Y2 3.035719 1_545
Fe16 Y3 3.035719 1_455
Fe17 Fe8 2.553481 1_445
Fe17 Fe9 2.553511 1_444
Fe17 Fe6 2.553511 1_555
Fe17 Fe7 2.553697 1_545
Fe17 Y1 3.035493 1_444
Fe17 Y0 3.035493 1_555
Fe17 Y0 3.035588 1_445
Fe17 Y1 3.035588 1_554
Fe17 Y1 3.035719 1_544
Fe17 Y0 3.035719 1_455
