# generated using pymatgen
data_Nb4Ag2O11
_symmetry_space_group_name_H-M   'P 1'
_cell_length_a   13.18874355
_cell_length_b   13.18874355
_cell_length_c   13.18874404
_cell_angle_alpha   27.57437886
_cell_angle_beta   27.57437886
_cell_angle_gamma   27.57438051
_symmetry_Int_Tables_number   1
_chemical_formula_structural   Nb4Ag2O11
_chemical_formula_sum   'Nb8 Ag4 O22'
_cell_volume   433.91913936
_cell_formula_units_Z   2
loop_
 _symmetry_equiv_pos_site_id
 _symmetry_equiv_pos_as_xyz
  1  'x, y, z'
loop_
 _atom_site_type_symbol
 _atom_site_label
 _atom_site_symmetry_multiplicity
 _atom_site_fract_x
 _atom_site_fract_y
 _atom_site_fract_z
 _atom_site_occupancy
  Nb  Nb0  1  0.12176100  0.74790800  0.38940000  1
  Nb  Nb1  1  0.74790800  0.38940000  0.12176100  1
  Nb  Nb2  1  0.38940000  0.12176100  0.74790800  1
  Nb  Nb3  1  0.62010700  0.89110600  0.24915800  1
  Nb  Nb4  1  0.89110600  0.24915800  0.62010700  1
  Nb  Nb5  1  0.24915800  0.62010700  0.89110600  1
  Nb  Nb6  1  0.00583000  0.00583000  0.00583000  1
  Nb  Nb7  1  0.50601900  0.50601900  0.50601900  1
  Ag  Ag0  1  0.67465800  0.67465800  0.67465800  1
  Ag  Ag1  1  0.17228200  0.17228200  0.17228200  1
  Ag  Ag2  1  0.83254100  0.83254100  0.83254100  1
  Ag  Ag3  1  0.33100600  0.33100600  0.33100600  1
  O  O0  1  0.43197400  0.22788400  0.74598500  1
  O  O1  1  0.22788400  0.74598500  0.43197400  1
  O  O2  1  0.74598500  0.43197400  0.22788400  1
  O  O3  1  0.93742700  0.24487800  0.72457200  1
  O  O4  1  0.24487800  0.72457200  0.93742700  1
  O  O5  1  0.72457200  0.93742700  0.24487800  1
  O  O6  1  0.05183600  0.75334600  0.28539200  1
  O  O7  1  0.75334600  0.28539200  0.05183600  1
  O  O8  1  0.28539200  0.05183600  0.75334600  1
  O  O9  1  0.56163900  0.77930600  0.25093600  1
  O  O10  1  0.77930600  0.25093600  0.56163900  1
  O  O11  1  0.25093600  0.56163900  0.77930600  1
  O  O12  1  0.49918400  0.75167500  0.00143000  1
  O  O13  1  0.75167500  0.00143000  0.49918400  1
  O  O14  1  0.00143000  0.49918400  0.75167500  1
  O  O15  1  0.00069600  0.49896300  0.25303500  1
  O  O16  1  0.49896300  0.25303500  0.00069600  1
  O  O17  1  0.25303500  0.00069600  0.49896300  1
  O  O18  1  0.59164800  0.59164800  0.59164800  1
  O  O19  1  0.09128500  0.09128500  0.09128500  1
  O  O20  1  0.90666400  0.90666400  0.90666400  1
  O  O21  1  0.40497100  0.40497100  0.40497100  1
loop_
_geom_bond_atom_site_label_1
_geom_bond_atom_site_label_2
_geom_bond_distance
_geom_bond_site_symmetry_2
Nb0 O1 1.892075 1_555
Nb0 O14 2.026966 1_555
Nb0 O19 2.034119 1_565
Nb0 O21 2.052761 1_555
Nb0 O13 2.054575 1_465
Nb0 O6 2.165254 1_555
Nb0 O12 2.407460 1_555
Nb1 O2 1.892075 1_555
Nb1 O12 2.026966 1_555
Nb1 O19 2.034119 1_655
Nb1 O21 2.052761 1_555
Nb1 O14 2.054575 1_654
Nb1 O7 2.165254 1_555
Nb1 O13 2.407460 1_555
Nb2 O0 1.892075 1_555
Nb2 O13 2.026966 1_555
Nb2 O19 2.034119 1_556
Nb2 O21 2.052761 1_555
Nb2 O12 2.054575 1_546
Nb2 O8 2.165254 1_555
Nb2 O14 2.407461 1_555
Nb3 O5 1.888862 1_555
Nb3 O16 2.026560 1_565
Nb3 O18 2.034247 1_555
Nb3 O17 2.035085 1_565
Nb3 O20 2.048480 1_554
Nb3 O9 2.166034 1_555
Nb3 O15 2.430971 1_655
Nb4 O3 1.888862 1_555
Nb4 O17 2.026560 1_655
Nb4 O18 2.034248 1_555
Nb4 O15 2.035085 1_655
Nb4 O20 2.048480 1_545
Nb4 O10 2.166034 1_555
Nb4 O16 2.430971 1_556
Nb5 O4 1.888862 1_555
Nb5 O15 2.026560 1_556
Nb5 O18 2.034247 1_555
Nb5 O16 2.035085 1_556
Nb5 O20 2.048480 1_455
Nb5 O11 2.166034 1_555
Nb5 O17 2.430971 1_565
Nb6 O8 1.915488 1_554
Nb6 O7 1.915488 1_455
Nb6 O6 1.915488 1_545
Nb6 O5 2.161243 1_445
Nb6 O4 2.161243 1_544
Nb6 O3 2.161243 1_454
Nb7 O9 1.913813 1_555
Nb7 O10 1.913813 1_555
Nb7 O11 1.913813 1_555
Nb7 O0 2.171642 1_555
Nb7 O1 2.171642 1_555
Nb7 O2 2.171642 1_555
Ag0 O6 2.571183 1_655
Ag0 O7 2.571183 1_556
Ag0 O8 2.571183 1_565
Ag0 O4 2.679018 1_555
Ag0 O3 2.679018 1_555
Ag0 O5 2.679018 1_555
Ag1 O1 2.623737 1_545
Ag1 O2 2.623737 1_455
Ag1 O0 2.623737 1_554
Ag1 O11 2.652710 1_554
Ag1 O10 2.652711 1_455
Ag1 O9 2.652711 1_545
Ag2 O10 2.516863 1_565
Ag2 O11 2.516863 1_655
Ag2 O9 2.516863 1_556
Ag2 O2 2.775821 1_556
Ag2 O1 2.775821 1_655
Ag2 O0 2.775821 1_565
Ag2 O20 2.819538 1_555
Ag3 O7 2.563717 1_555
Ag3 O6 2.563717 1_555
Ag3 O8 2.563717 1_555
Ag3 O3 2.722440 1_455
Ag3 O4 2.722440 1_554
Ag3 O5 2.722440 1_545
Ag3 O21 2.813528 1_555
