# generated using pymatgen
data_MnBP(HO3)2
_symmetry_space_group_name_H-M   'P 1'
_cell_length_a   7.67629570
_cell_length_b   7.67629570
_cell_length_c   12.99027900
_cell_angle_alpha   90.00000000
_cell_angle_beta   90.00000000
_cell_angle_gamma   119.99999744
_symmetry_Int_Tables_number   1
_chemical_formula_structural   MnBP(HO3)2
_chemical_formula_sum   'Mn6 B6 P6 H12 O36'
_cell_volume   662.90686089
_cell_formula_units_Z   6
loop_
 _symmetry_equiv_pos_site_id
 _symmetry_equiv_pos_as_xyz
  1  'x, y, z'
loop_
 _atom_site_type_symbol
 _atom_site_label
 _atom_site_symmetry_multiplicity
 _atom_site_fract_x
 _atom_site_fract_y
 _atom_site_fract_z
 _atom_site_occupancy
  Mn  Mn0  1  0.12212500  0.00000000  0.33333300  1
  Mn  Mn1  1  0.00000000  0.12212500  0.66666700  1
  Mn  Mn2  1  0.87787500  0.87787500  0.00000000  1
  Mn  Mn3  1  0.25178500  0.00000000  0.83333300  1
  Mn  Mn4  1  0.00000000  0.25178500  0.16666700  1
  Mn  Mn5  1  0.74821500  0.74821500  0.50000000  1
  B  B0  1  0.24422900  0.55485000  0.53981600  1
  B  B1  1  0.44515000  0.68937900  0.87314900  1
  B  B2  1  0.55485000  0.24422900  0.46018400  1
  B  B3  1  0.31062100  0.75577100  0.20648200  1
  B  B4  1  0.68937900  0.44515000  0.12685100  1
  B  B5  1  0.75577100  0.31062100  0.79351800  1
  P  P0  1  0.08028000  0.33002200  0.90272900  1
  P  P1  1  0.66997800  0.75025800  0.23606300  1
  P  P2  1  0.33002200  0.08028000  0.09727100  1
  P  P3  1  0.24974200  0.91972000  0.56939600  1
  P  P4  1  0.75025800  0.66997800  0.76393700  1
  P  P5  1  0.91972000  0.24974200  0.43060400  1
  H  H0  1  0.58925200  0.27650300  0.92661600  1
  H  H1  1  0.72349700  0.31275000  0.25995000  1
  H  H2  1  0.27650300  0.58925200  0.07338400  1
  H  H3  1  0.68725000  0.41074800  0.59328300  1
  H  H4  1  0.31275000  0.72349700  0.74005000  1
  H  H5  1  0.41074800  0.68725000  0.40671700  1
  H  H6  1  0.37312600  0.41772400  0.62023000  1
  H  H7  1  0.58227600  0.95540200  0.95356300  1
  H  H8  1  0.41772400  0.37312600  0.37977000  1
  H  H9  1  0.04459800  0.62687400  0.28689600  1
  H  H10  1  0.95540200  0.58227600  0.04643700  1
  H  H11  1  0.62687400  0.04459800  0.71310400  1
  O  O0  1  0.24350500  0.41128400  0.61373700  1
  O  O1  1  0.58871600  0.83222100  0.94707100  1
  O  O2  1  0.41128400  0.24350500  0.38626300  1
  O  O3  1  0.16777900  0.75649500  0.28040400  1
  O  O4  1  0.83222100  0.58871600  0.05292900  1
  O  O5  1  0.75649500  0.16777900  0.71959600  1
  O  O6  1  0.46186400  0.05545300  0.52057100  1
  O  O7  1  0.94454700  0.40641200  0.85390500  1
  O  O8  1  0.05545300  0.46186400  0.47942900  1
  O  O9  1  0.59358800  0.53813600  0.18723800  1
  O  O10  1  0.40641200  0.94454700  0.14609500  1
  O  O11  1  0.53813600  0.59358800  0.81276200  1
  O  O12  1  0.57692300  0.21110100  0.85982100  1
  O  O13  1  0.78889900  0.36582100  0.19315400  1
  O  O14  1  0.21110100  0.57692300  0.14017900  1
  O  O15  1  0.63417900  0.42307700  0.52648800  1
  O  O16  1  0.36582100  0.78889900  0.80684600  1
  O  O17  1  0.42307700  0.63417900  0.47351200  1
  O  O18  1  0.22787900  0.01956100  0.66789700  1
  O  O19  1  0.98043900  0.20831800  0.00123100  1
  O  O20  1  0.01956100  0.22787900  0.33210300  1
  O  O21  1  0.79168200  0.77212100  0.33456400  1
  O  O22  1  0.20831800  0.98043900  0.99876900  1
  O  O23  1  0.77212100  0.79168200  0.66543600  1
  O  O24  1  0.27831900  0.52341300  0.93723400  1
  O  O25  1  0.47658700  0.75490600  0.27056800  1
  O  O26  1  0.52341300  0.27831900  0.06276600  1
  O  O27  1  0.24509400  0.72168100  0.60390100  1
  O  O28  1  0.75490600  0.47658700  0.72943200  1
  O  O29  1  0.72168100  0.24509400  0.39609900  1
  O  O30  1  0.12443000  0.20715000  0.82481300  1
  O  O31  1  0.79285000  0.91728000  0.15814600  1
  O  O32  1  0.20715000  0.12443000  0.17518700  1
  O  O33  1  0.08272000  0.87557000  0.49147900  1
  O  O34  1  0.91728000  0.79285000  0.84185400  1
  O  O35  1  0.87557000  0.08272000  0.50852100  1
loop_
_geom_bond_atom_site_label_1
_geom_bond_atom_site_label_2
_geom_bond_distance
_geom_bond_site_symmetry_2
Mn0 O3 2.178211 1_545
Mn0 O2 2.178215 1_555
Mn0 O33 2.221555 1_545
Mn0 O32 2.221555 1_555
Mn0 O20 2.248837 1_555
Mn0 O21 2.248837 1_445
Mn1 O5 2.178211 1_455
Mn1 O0 2.178215 1_555
Mn1 O35 2.221555 1_455
Mn1 O30 2.221555 1_555
Mn1 O18 2.248837 1_555
Mn1 O23 2.248837 1_445
Mn2 O4 2.178211 1_555
Mn2 O1 2.178211 1_554
Mn2 O31 2.221555 1_555
Mn2 O34 2.221555 1_554
Mn2 O22 2.248837 1_654
Mn2 O19 2.248837 1_565
Mn3 O18 2.168464 1_555
Mn3 O22 2.168464 1_545
Mn3 O16 2.220163 1_545
Mn3 O12 2.220171 1_555
Mn3 O30 2.247463 1_555
Mn3 O34 2.247463 1_445
Mn4 O20 2.168464 1_555
Mn4 O19 2.168464 1_455
Mn4 O13 2.220163 1_455
Mn4 O14 2.220171 1_555
Mn4 O32 2.247463 1_555
Mn4 O31 2.247463 1_445
Mn5 O23 2.168464 1_555
Mn5 O21 2.168464 1_555
Mn5 O15 2.220172 1_555
Mn5 O17 2.220172 1_555
Mn5 O33 2.247463 1_655
Mn5 O35 2.247463 1_565
B0 O0 1.459630 1_555
B0 O17 1.470196 1_555
B0 O8 1.479996 1_555
B0 O27 1.524669 1_555
B1 O1 1.459639 1_555
B1 O16 1.470194 1_555
B1 O11 1.480001 1_555
B1 O24 1.524669 1_555
B2 O2 1.459630 1_555
B2 O15 1.470196 1_555
B2 O6 1.479996 1_555
B2 O29 1.524669 1_555
B3 O3 1.459639 1_555
B3 O14 1.470189 1_555
B3 O10 1.479996 1_555
B3 O25 1.524676 1_555
B4 O4 1.459639 1_555
B4 O13 1.470194 1_555
B4 O9 1.480001 1_555
B4 O26 1.524669 1_555
B5 O5 1.459639 1_555
B5 O12 1.470189 1_555
B5 O7 1.479996 1_555
B5 O28 1.524676 1_555
H0 O12 0.983041 1_555
H1 O13 0.983051 1_555
H2 O14 0.983041 1_555
H3 O15 0.983034 1_555
H4 O16 0.983051 1_555
H5 O17 0.983034 1_555
H6 O0 0.974891 1_555
H7 O1 0.974890 1_555
H8 O2 0.974891 1_555
H9 O3 0.974890 1_555
H10 O4 0.974890 1_555
H11 O5 0.974890 1_555
O6 P3 1.562914 1_545
O7 P0 1.562914 1_655
O8 P5 1.562914 1_455
O9 P1 1.562913 1_555
O10 P2 1.562914 1_565
O11 P4 1.562913 1_555
O18 P3 1.543190 1_545
O19 P0 1.543201 1_654
O20 P5 1.543190 1_455
O21 P1 1.543190 1_555
O22 P2 1.543201 1_566
O23 P4 1.543190 1_555
O24 P0 1.568110 1_555
O25 P1 1.568110 1_555
O26 P2 1.568110 1_555
O27 P3 1.568110 1_555
O28 P4 1.568110 1_555
O29 P5 1.568110 1_555
O30 P0 1.532513 1_555
O31 P1 1.532522 1_555
O32 P2 1.532513 1_555
O33 P3 1.532522 1_555
O34 P4 1.532522 1_555
O35 P5 1.532522 1_555
