# generated using pymatgen
data_BaMg6B
_symmetry_space_group_name_H-M   'P 1'
_cell_length_a   17.43112812
_cell_length_b   17.43112812
_cell_length_c   7.92194000
_cell_angle_alpha   90.00000000
_cell_angle_beta   90.00000000
_cell_angle_gamma   137.63106726
_symmetry_Int_Tables_number   1
_chemical_formula_structural   BaMg6B
_chemical_formula_sum   'Ba8 Mg48 B8'
_cell_volume   1622.10590760
_cell_formula_units_Z   8
loop_
 _symmetry_equiv_pos_site_id
 _symmetry_equiv_pos_as_xyz
  1  'x, y, z'
loop_
 _atom_site_type_symbol
 _atom_site_label
 _atom_site_symmetry_multiplicity
 _atom_site_fract_x
 _atom_site_fract_y
 _atom_site_fract_z
 _atom_site_occupancy
  Ba  Ba0_0  1  0.11215200  0.38784800  0.00000000  1
  Ba  Ba0_1  1  0.11215200  0.38784800  0.50000000  1
  Ba  Ba0_2  1  0.11215200  0.88784800  0.00000000  1
  Ba  Ba0_3  1  0.11215200  0.88784800  0.50000000  1
  Ba  Ba0_4  1  0.61215200  0.38784800  0.00000000  1
  Ba  Ba0_5  1  0.61215200  0.38784800  0.50000000  1
  Ba  Ba0_6  1  0.61215200  0.88784800  0.00000000  1
  Ba  Ba0_7  1  0.61215200  0.88784800  0.50000000  1
  Mg  Mg0_0  1  0.09383950  0.18083700  0.00000000  1
  Mg  Mg0_1  1  0.09383950  0.18083700  0.50000000  1
  Mg  Mg0_2  1  0.09383950  0.68083700  0.00000000  1
  Mg  Mg0_3  1  0.09383950  0.68083700  0.50000000  1
  Mg  Mg0_4  1  0.59383950  0.18083700  0.00000000  1
  Mg  Mg0_5  1  0.59383950  0.18083700  0.50000000  1
  Mg  Mg0_6  1  0.59383950  0.68083700  0.00000000  1
  Mg  Mg0_7  1  0.59383950  0.68083700  0.50000000  1
  Mg  Mg1_0  1  0.31916300  0.40616050  0.00000000  1
  Mg  Mg1_1  1  0.31916300  0.40616050  0.50000000  1
  Mg  Mg1_2  1  0.31916300  0.90616050  0.00000000  1
  Mg  Mg1_3  1  0.31916300  0.90616050  0.50000000  1
  Mg  Mg1_4  1  0.81916300  0.40616050  0.00000000  1
  Mg  Mg1_5  1  0.81916300  0.40616050  0.50000000  1
  Mg  Mg1_6  1  0.81916300  0.90616050  0.00000000  1
  Mg  Mg1_7  1  0.81916300  0.90616050  0.50000000  1
  Mg  Mg2_0  1  0.32375550  0.17624450  0.00000000  1
  Mg  Mg2_1  1  0.32375550  0.17624450  0.50000000  1
  Mg  Mg2_2  1  0.32375550  0.67624450  0.00000000  1
  Mg  Mg2_3  1  0.32375550  0.67624450  0.50000000  1
  Mg  Mg2_4  1  0.82375550  0.17624450  0.00000000  1
  Mg  Mg2_5  1  0.82375550  0.17624450  0.50000000  1
  Mg  Mg2_6  1  0.82375550  0.67624450  0.00000000  1
  Mg  Mg2_7  1  0.82375550  0.67624450  0.50000000  1
  Mg  Mg3_0  1  0.14549950  0.10262400  0.25000000  1
  Mg  Mg3_1  1  0.14549950  0.10262400  0.75000000  1
  Mg  Mg3_2  1  0.14549950  0.60262400  0.25000000  1
  Mg  Mg3_3  1  0.14549950  0.60262400  0.75000000  1
  Mg  Mg3_4  1  0.64549950  0.10262400  0.25000000  1
  Mg  Mg3_5  1  0.64549950  0.10262400  0.75000000  1
  Mg  Mg3_6  1  0.64549950  0.60262400  0.25000000  1
  Mg  Mg3_7  1  0.64549950  0.60262400  0.75000000  1
  Mg  Mg4_0  1  0.39737600  0.35450050  0.25000000  1
  Mg  Mg4_1  1  0.39737600  0.35450050  0.75000000  1
  Mg  Mg4_2  1  0.39737600  0.85450050  0.25000000  1
  Mg  Mg4_3  1  0.39737600  0.85450050  0.75000000  1
  Mg  Mg4_4  1  0.89737600  0.35450050  0.25000000  1
  Mg  Mg4_5  1  0.89737600  0.35450050  0.75000000  1
  Mg  Mg4_6  1  0.89737600  0.85450050  0.25000000  1
  Mg  Mg4_7  1  0.89737600  0.85450050  0.75000000  1
  Mg  Mg5_0  1  0.40368750  0.09631250  0.25000000  1
  Mg  Mg5_1  1  0.40368750  0.09631250  0.75000000  1
  Mg  Mg5_2  1  0.40368750  0.59631250  0.25000000  1
  Mg  Mg5_3  1  0.40368750  0.59631250  0.75000000  1
  Mg  Mg5_4  1  0.90368750  0.09631250  0.25000000  1
  Mg  Mg5_5  1  0.90368750  0.09631250  0.75000000  1
  Mg  Mg5_6  1  0.90368750  0.59631250  0.25000000  1
  Mg  Mg5_7  1  0.90368750  0.59631250  0.75000000  1
  B  B0_0  1  0.20452700  0.29547300  0.25000000  1
  B  B0_1  1  0.20452700  0.29547300  0.75000000  1
  B  B0_2  1  0.20452700  0.79547300  0.25000000  1
  B  B0_3  1  0.20452700  0.79547300  0.75000000  1
  B  B0_4  1  0.70452700  0.29547300  0.25000000  1
  B  B0_5  1  0.70452700  0.29547300  0.75000000  1
  B  B0_6  1  0.70452700  0.79547300  0.25000000  1
  B  B0_7  1  0.70452700  0.79547300  0.75000000  1
loop_
_geom_bond_atom_site_label_1
_geom_bond_atom_site_label_2
_geom_bond_distance
_geom_bond_site_symmetry_2
Ba0_0 Mg0_0 3.379451 1_555
Ba0_0 Mg1_0 3.379451 1_555
Ba0_0 Mg2_4 3.387853 1_455
Ba0_0 Mg2_2 3.387853 1_555
Ba0_0 Mg3_2 3.880787 1_555
Ba0_0 Mg3_3 3.880787 1_554
Ba0_0 Mg4_5 3.880787 1_454
Ba0_0 Mg4_4 3.880787 1_455
Ba0_0 Mg5_4 3.957903 1_455
Ba0_0 Mg5_5 3.957903 1_454
Ba0_0 Mg5_3 3.957903 1_554
Ba0_0 Mg5_2 3.957903 1_555
Ba0_0 Ba0_1 3.960970 1_555
Ba0_0 Ba0_1 3.960970 1_554
Ba0_1 Mg0_1 3.379451 1_555
Ba0_1 Mg1_1 3.379451 1_555
Ba0_1 Mg2_5 3.387853 1_455
Ba0_1 Mg2_3 3.387853 1_555
Ba0_1 Mg3_2 3.880787 1_555
Ba0_1 Mg3_3 3.880787 1_555
Ba0_1 Mg4_4 3.880787 1_455
Ba0_1 Mg4_5 3.880787 1_455
Ba0_1 Mg5_5 3.957903 1_455
Ba0_1 Mg5_4 3.957903 1_455
Ba0_1 Mg5_2 3.957903 1_555
Ba0_1 Mg5_3 3.957903 1_555
Ba0_2 Mg0_2 3.379451 1_555
Ba0_2 Mg1_2 3.379451 1_555
Ba0_2 Mg2_6 3.387853 1_455
Ba0_2 Mg2_0 3.387853 1_565
Ba0_2 Mg3_0 3.880787 1_565
Ba0_2 Mg3_1 3.880787 1_564
Ba0_2 Mg4_6 3.880787 1_455
Ba0_2 Mg4_7 3.880787 1_454
Ba0_2 Mg5_7 3.957903 1_454
Ba0_2 Mg5_6 3.957903 1_455
Ba0_2 Mg5_1 3.957903 1_564
Ba0_2 Mg5_0 3.957903 1_565
Ba0_2 Ba0_3 3.960970 1_555
Ba0_2 Ba0_3 3.960970 1_554
Ba0_3 Mg0_3 3.379451 1_555
Ba0_3 Mg1_3 3.379451 1_555
Ba0_3 Mg2_7 3.387853 1_455
Ba0_3 Mg2_1 3.387853 1_565
Ba0_3 Mg3_0 3.880787 1_565
Ba0_3 Mg3_1 3.880787 1_565
Ba0_3 Mg4_6 3.880787 1_455
Ba0_3 Mg4_7 3.880787 1_455
Ba0_3 Mg5_6 3.957903 1_455
Ba0_3 Mg5_7 3.957903 1_455
Ba0_3 Mg5_0 3.957903 1_565
Ba0_3 Mg5_1 3.957903 1_565
Ba0_4 Mg0_4 3.379451 1_555
Ba0_4 Mg1_4 3.379451 1_555
Ba0_4 Mg2_0 3.387853 1_555
Ba0_4 Mg2_6 3.387853 1_555
Ba0_4 Mg3_7 3.880787 1_554
Ba0_4 Mg3_6 3.880787 1_555
Ba0_4 Mg4_0 3.880787 1_555
Ba0_4 Mg4_1 3.880787 1_554
Ba0_4 Mg5_0 3.957903 1_555
Ba0_4 Mg5_1 3.957903 1_554
Ba0_4 Mg5_6 3.957903 1_555
Ba0_4 Mg5_7 3.957903 1_554
Ba0_4 Ba0_5 3.960970 1_555
Ba0_4 Ba0_5 3.960970 1_554
Ba0_5 Mg0_5 3.379451 1_555
Ba0_5 Mg1_5 3.379451 1_555
Ba0_5 Mg2_1 3.387853 1_555
Ba0_5 Mg2_7 3.387853 1_555
Ba0_5 Mg3_6 3.880787 1_555
Ba0_5 Mg3_7 3.880787 1_555
Ba0_5 Mg4_0 3.880787 1_555
Ba0_5 Mg4_1 3.880787 1_555
Ba0_5 Mg5_0 3.957903 1_555
Ba0_5 Mg5_1 3.957903 1_555
Ba0_5 Mg5_6 3.957903 1_555
Ba0_5 Mg5_7 3.957903 1_555
Ba0_6 Mg0_6 3.379451 1_555
Ba0_6 Mg1_6 3.379451 1_555
Ba0_6 Mg2_2 3.387853 1_555
Ba0_6 Mg2_4 3.387853 1_565
Ba0_6 Mg3_5 3.880787 1_564
Ba0_6 Mg3_4 3.880787 1_565
Ba0_6 Mg4_3 3.880787 1_554
Ba0_6 Mg4_2 3.880787 1_555
Ba0_6 Mg5_3 3.957903 1_554
Ba0_6 Mg5_2 3.957903 1_555
Ba0_6 Mg5_5 3.957903 1_564
Ba0_6 Mg5_4 3.957903 1_565
Ba0_6 Ba0_7 3.960970 1_555
Ba0_6 Ba0_7 3.960970 1_554
Ba0_7 Mg0_7 3.379451 1_555
Ba0_7 Mg1_7 3.379451 1_555
Ba0_7 Mg2_3 3.387853 1_555
Ba0_7 Mg2_5 3.387853 1_565
Ba0_7 Mg3_5 3.880787 1_565
Ba0_7 Mg3_4 3.880787 1_565
Ba0_7 Mg4_2 3.880787 1_555
Ba0_7 Mg4_3 3.880787 1_555
Ba0_7 Mg5_3 3.957903 1_555
Ba0_7 Mg5_2 3.957903 1_555
Ba0_7 Mg5_4 3.957903 1_565
Ba0_7 Mg5_5 3.957903 1_565
Mg0_0 Mg5_4 3.140592 1_455
Mg0_0 Mg5_5 3.140592 1_454
Mg0_1 Mg5_4 3.140592 1_455
Mg0_1 Mg5_5 3.140592 1_455
Mg0_2 Mg5_7 3.140592 1_454
Mg0_2 Mg5_6 3.140592 1_455
Mg0_3 Mg5_6 3.140592 1_455
Mg0_3 Mg5_7 3.140592 1_455
Mg0_4 Mg5_0 3.140592 1_555
Mg0_4 Mg5_1 3.140592 1_554
Mg0_5 Mg5_0 3.140592 1_555
Mg0_5 Mg5_1 3.140592 1_555
Mg0_6 Mg5_2 3.140592 1_555
Mg0_6 Mg5_3 3.140592 1_554
Mg0_7 Mg5_2 3.140592 1_555
Mg0_7 Mg5_3 3.140592 1_555
Mg1_0 Mg5_2 3.140592 1_555
Mg1_0 Mg5_3 3.140592 1_554
Mg1_1 Mg5_2 3.140592 1_555
Mg1_1 Mg5_3 3.140592 1_555
Mg1_2 Mg5_0 3.140592 1_565
Mg1_2 Mg5_1 3.140592 1_564
Mg1_3 Mg5_0 3.140592 1_565
Mg1_3 Mg5_1 3.140592 1_565
Mg1_4 Mg5_6 3.140592 1_555
Mg1_4 Mg5_7 3.140592 1_554
Mg1_5 Mg5_6 3.140592 1_555
Mg1_5 Mg5_7 3.140592 1_555
Mg1_6 Mg5_4 3.140592 1_565
Mg1_6 Mg5_5 3.140592 1_564
Mg1_7 Mg5_4 3.140592 1_565
Mg1_7 Mg5_5 3.140592 1_565
Mg2_0 Mg3_1 3.054809 1_554
Mg2_0 Mg3_0 3.054809 1_555
Mg2_0 Mg4_0 3.054809 1_555
Mg2_0 Mg4_1 3.054809 1_554
Mg2_0 Mg5_1 3.267026 1_554
Mg2_0 Mg5_0 3.267026 1_555
Mg2_1 Mg3_0 3.054809 1_555
Mg2_1 Mg3_1 3.054809 1_555
Mg2_1 Mg4_0 3.054809 1_555
Mg2_1 Mg4_1 3.054809 1_555
Mg2_1 Mg5_0 3.267026 1_555
Mg2_1 Mg5_1 3.267026 1_555
Mg2_2 Mg3_3 3.054809 1_554
Mg2_2 Mg3_2 3.054809 1_555
Mg2_2 Mg4_3 3.054809 1_554
Mg2_2 Mg4_2 3.054809 1_555
Mg2_2 Mg5_2 3.267026 1_555
Mg2_2 Mg5_3 3.267026 1_554
Mg2_3 Mg3_2 3.054809 1_555
Mg2_3 Mg3_3 3.054809 1_555
Mg2_3 Mg4_2 3.054809 1_555
Mg2_3 Mg4_3 3.054809 1_555
Mg2_3 Mg5_2 3.267026 1_555
Mg2_3 Mg5_3 3.267026 1_555
Mg2_4 Mg3_4 3.054809 1_555
Mg2_4 Mg3_5 3.054809 1_554
Mg2_4 Mg4_5 3.054809 1_554
Mg2_4 Mg4_4 3.054809 1_555
Mg2_4 Mg5_5 3.267026 1_554
Mg2_4 Mg5_4 3.267026 1_555
Mg2_5 Mg3_4 3.054809 1_555
Mg2_5 Mg3_5 3.054809 1_555
Mg2_5 Mg4_4 3.054809 1_555
Mg2_5 Mg4_5 3.054809 1_555
Mg2_5 Mg5_4 3.267026 1_555
Mg2_5 Mg5_5 3.267026 1_555
Mg2_6 Mg3_6 3.054809 1_555
Mg2_6 Mg3_7 3.054809 1_554
Mg2_6 Mg4_6 3.054809 1_555
Mg2_6 Mg4_7 3.054809 1_554
Mg2_6 Mg5_6 3.267026 1_555
Mg2_6 Mg5_7 3.267026 1_554
Mg2_7 Mg3_6 3.054809 1_555
Mg2_7 Mg3_7 3.054809 1_555
Mg2_7 Mg4_6 3.054809 1_555
Mg2_7 Mg4_7 3.054809 1_555
Mg2_7 Mg5_6 3.267026 1_555
Mg2_7 Mg5_7 3.267026 1_555
B0_0 Mg1_0 2.437409 1_555
B0_0 Mg1_1 2.437409 1_555
B0_0 Mg0_0 2.437409 1_555
B0_0 Mg0_1 2.437409 1_555
B0_0 Mg4_0 2.692215 1_555
B0_0 Mg3_0 2.692215 1_555
B0_0 Ba0_1 3.597077 1_555
B0_0 Ba0_0 3.597077 1_555
B0_1 Mg1_0 2.437409 1_556
B0_1 Mg1_1 2.437409 1_555
B0_1 Mg0_0 2.437409 1_556
B0_1 Mg0_1 2.437409 1_555
B0_1 Mg4_1 2.692215 1_555
B0_1 Mg3_1 2.692215 1_555
B0_1 Ba0_0 3.597077 1_556
B0_1 Ba0_1 3.597077 1_555
B0_2 Mg1_2 2.437409 1_555
B0_2 Mg1_3 2.437409 1_555
B0_2 Mg0_3 2.437409 1_555
B0_2 Mg0_2 2.437409 1_555
B0_2 Mg4_2 2.692215 1_555
B0_2 Mg3_2 2.692215 1_555
B0_2 Ba0_2 3.597077 1_555
B0_2 Ba0_3 3.597077 1_555
B0_3 Mg1_2 2.437409 1_556
B0_3 Mg1_3 2.437409 1_555
B0_3 Mg0_2 2.437409 1_556
B0_3 Mg0_3 2.437409 1_555
B0_3 Mg4_3 2.692215 1_555
B0_3 Mg3_3 2.692215 1_555
B0_3 Ba0_2 3.597077 1_556
B0_3 Ba0_3 3.597077 1_555
B0_4 Mg1_5 2.437409 1_555
B0_4 Mg1_4 2.437409 1_555
B0_4 Mg0_5 2.437409 1_555
B0_4 Mg0_4 2.437409 1_555
B0_4 Mg4_4 2.692215 1_555
B0_4 Mg3_4 2.692215 1_555
B0_4 Ba0_5 3.597077 1_555
B0_4 Ba0_4 3.597077 1_555
B0_5 Mg1_4 2.437409 1_556
B0_5 Mg1_5 2.437409 1_555
B0_5 Mg0_4 2.437409 1_556
B0_5 Mg0_5 2.437409 1_555
B0_5 Mg4_5 2.692215 1_555
B0_5 Mg3_5 2.692215 1_555
B0_5 Ba0_5 3.597077 1_555
B0_5 Ba0_4 3.597077 1_556
B0_6 Mg1_7 2.437409 1_555
B0_6 Mg1_6 2.437409 1_555
B0_6 Mg0_6 2.437409 1_555
B0_6 Mg0_7 2.437409 1_555
B0_6 Mg4_6 2.692215 1_555
B0_6 Mg3_6 2.692215 1_555
B0_6 Ba0_7 3.597077 1_555
B0_6 Ba0_6 3.597077 1_555
B0_7 Mg1_6 2.437409 1_556
B0_7 Mg1_7 2.437409 1_555
B0_7 Mg0_6 2.437409 1_556
B0_7 Mg0_7 2.437409 1_555
B0_7 Mg4_7 2.692215 1_555
B0_7 Mg3_7 2.692215 1_555
B0_7 Ba0_7 3.597077 1_555
B0_7 Ba0_6 3.597077 1_556
