# generated using pymatgen
data_PrGe3Rh
_symmetry_space_group_name_H-M   'P 1'
_cell_length_a   5.91642859
_cell_length_b   5.91642859
_cell_length_c   5.91642859
_cell_angle_alpha   136.18199016
_cell_angle_beta   136.18199016
_cell_angle_gamma   63.69910077
_symmetry_Int_Tables_number   1
_chemical_formula_structural   PrGe3Rh
_chemical_formula_sum   'Pr1 Ge3 Rh1'
_cell_volume   97.97123687
_cell_formula_units_Z   1
loop_
 _symmetry_equiv_pos_site_id
 _symmetry_equiv_pos_as_xyz
  1  'x, y, z'
loop_
 _atom_site_type_symbol
 _atom_site_label
 _atom_site_symmetry_multiplicity
 _atom_site_fract_x
 _atom_site_fract_y
 _atom_site_fract_z
 _atom_site_occupancy
  Pr  Pr0  1  0.00219633  0.00219633  -0.00000000  1
  Ge  Ge0  1  0.73935568  0.23935568  0.50000000  1
  Ge  Ge1  1  0.23935568  0.73935568  0.50000000  1
  Ge  Ge2  1  0.58036662  0.58036662  0.00000000  1
  Rh  Rh0  1  0.34210468  0.34210468  0.00000000  1
loop_
_geom_bond_atom_site_label_1
_geom_bond_atom_site_label_2
_geom_bond_distance
_geom_bond_site_symmetry_2
Pr0 Rh0 3.416508 1_555
Pr0 Rh0 3.512326 1_455
Pr0 Rh0 3.512326 1_545
Pr0 Rh0 3.512326 1_444
Pr0 Rh0 3.512326 1_556
Ge0 Rh0 2.437246 1_555
Ge0 Rh0 2.437246 1_656
Ge0 Ge2 2.725310 1_545
Ge0 Ge2 2.725310 1_556
Ge0 Pr0 3.248976 1_656
Ge0 Pr0 3.248976 1_555
Ge0 Pr0 3.442835 1_666
Ge0 Pr0 3.442835 1_655
Ge1 Rh0 2.437246 1_555
Ge1 Rh0 2.437246 1_566
Ge1 Ge2 2.725310 1_455
Ge1 Ge2 2.725310 1_556
Ge1 Pr0 3.248976 1_555
Ge1 Pr0 3.248976 1_566
Ge1 Pr0 3.442835 1_666
Ge1 Pr0 3.442835 1_565
Ge2 Rh0 2.394833 1_555
Ge2 Pr0 3.219394 1_666
Ge2 Pr0 3.219394 1_554
Ge2 Pr0 3.219394 1_565
Ge2 Pr0 3.219394 1_655
