# generated using pymatgen
data_NdIn7Cu5
_symmetry_space_group_name_H-M   'P 1'
_cell_length_a   7.25941574
_cell_length_b   7.25941574
_cell_length_c   7.25941574
_cell_angle_alpha   134.34219881
_cell_angle_beta   98.76768008
_cell_angle_gamma   98.54750822
_symmetry_Int_Tables_number   1
_chemical_formula_structural   NdIn7Cu5
_chemical_formula_sum   'Nd1 In7 Cu5'
_cell_volume   252.16944589
_cell_formula_units_Z   1
loop_
 _symmetry_equiv_pos_site_id
 _symmetry_equiv_pos_as_xyz
  1  'x, y, z'
loop_
 _atom_site_type_symbol
 _atom_site_label
 _atom_site_symmetry_multiplicity
 _atom_site_fract_x
 _atom_site_fract_y
 _atom_site_fract_z
 _atom_site_occupancy
  Nd  Nd0  1  0.99980900  0.00000000  0.99980900  1
  In  In0  1  0.65537600  0.00000000  0.65537600  1
  In  In1  1  0.33666800  0.00000000  0.33666800  1
  In  In2  1  0.32913600  0.34162100  0.98751500  1
  In  In3  1  0.64589400  0.65837900  0.98751500  1
  In  In4  1  0.77249400  0.50000000  0.27249400  1
  In  In5  1  0.81174000  0.29909200  0.51264800  1
  In  In6  1  0.21355600  0.70090800  0.51264800  1
  Cu  Cu0  1  0.49439600  0.48705700  0.49672300  1
  Cu  Cu1  1  0.49439600  0.99767300  0.00733900  1
  Cu  Cu2  1  0.00966600  0.00232700  0.49672300  1
  Cu  Cu3  1  0.00966600  0.51294300  0.00733900  1
  Cu  Cu4  1  0.22720200  0.50000000  0.72720200  1
loop_
_geom_bond_atom_site_label_1
_geom_bond_atom_site_label_2
_geom_bond_distance
_geom_bond_site_symmetry_2
In0 In1 3.012297 1_555
In0 In4 3.026232 1_545
In0 In4 3.026232 1_556
In0 In5 3.137989 1_555
In0 In6 3.137989 1_545
In0 Nd0 3.255439 1_555
In1 Nd0 3.183853 1_454
In1 In5 3.285375 1_555
In1 In6 3.285375 1_545
In2 In3 3.000569 1_555
In2 In4 3.083151 1_556
In2 In6 3.125043 1_545
In2 In6 3.125043 1_556
In2 Nd0 3.238175 1_455
In3 In4 3.083151 1_556
In3 In5 3.125043 1_555
In3 In5 3.125043 1_566
In3 Nd0 3.238175 1_565
In4 In6 2.962118 1_655
In4 In5 2.962118 1_555
In4 Nd0 3.542420 1_565
In4 Nd0 3.542420 1_554
In5 Nd0 3.401389 1_554
In5 Nd0 3.401389 1_565
In6 Nd0 3.401389 1_465
In6 Nd0 3.401389 1_454
Cu0 In6 2.709548 1_555
Cu0 Cu4 2.719255 1_555
Cu0 Cu1 2.756712 1_545
Cu0 In3 2.766762 1_555
Cu0 In1 2.794777 1_555
Cu0 In4 2.809514 1_555
Cu0 In5 2.873360 1_555
Cu0 Cu1 2.876312 1_556
Cu0 In0 2.976399 1_565
Cu0 In2 3.005724 1_554
Cu0 Nd0 3.585223 1_454
Cu0 Nd0 3.675441 1_565
Cu1 In6 2.709548 1_554
Cu1 Cu4 2.719255 1_554
Cu1 In3 2.766762 1_554
Cu1 In1 2.794777 1_565
Cu1 In4 2.809514 1_565
Cu1 In5 2.873360 1_565
Cu1 In0 2.976399 1_564
Cu1 In2 3.005724 1_564
Cu1 Nd0 3.585223 1_464
Cu1 Nd0 3.675441 1_564
Cu2 In5 2.709548 1_455
Cu2 Cu4 2.719255 1_555
Cu2 Cu3 2.756712 1_545
Cu2 In2 2.766762 1_555
Cu2 In1 2.794777 1_555
Cu2 In4 2.809514 1_445
Cu2 In6 2.873360 1_545
Cu2 Cu3 2.876312 1_556
Cu2 In0 2.976399 1_455
Cu2 In3 3.005724 1_444
Cu2 Nd0 3.585223 1_454
Cu2 Nd0 3.675441 1_455
Cu3 In5 2.709548 1_454
Cu3 Cu4 2.719255 1_554
Cu3 In2 2.766762 1_554
Cu3 In1 2.794777 1_565
Cu3 In4 2.809514 1_455
Cu3 In6 2.873360 1_555
Cu3 In0 2.976399 1_454
Cu3 In3 3.005724 1_454
Cu3 Nd0 3.585223 1_464
Cu3 Nd0 3.675441 1_454
Cu4 In5 2.781055 1_455
Cu4 In6 2.781055 1_555
Cu4 In2 2.881715 1_555
Cu4 In3 2.881715 1_555
Cu4 In1 3.000532 1_555
Cu4 In1 3.000532 1_566
Cu4 Nd0 3.542867 1_454
Cu4 Nd0 3.542867 1_465
