# generated using pymatgen
data_HfNbCN
_symmetry_space_group_name_H-M   'P 1'
_cell_length_a   5.57621277
_cell_length_b   5.57621277
_cell_length_c   5.57621299
_cell_angle_alpha   33.37231315
_cell_angle_beta   33.37231315
_cell_angle_gamma   33.37231546
_symmetry_Int_Tables_number   1
_chemical_formula_structural   HfNbCN
_chemical_formula_sum   'Hf1 Nb1 C1 N1'
_cell_volume   46.71717394
_cell_formula_units_Z   1
loop_
 _symmetry_equiv_pos_site_id
 _symmetry_equiv_pos_as_xyz
  1  'x, y, z'
loop_
 _atom_site_type_symbol
 _atom_site_label
 _atom_site_symmetry_multiplicity
 _atom_site_fract_x
 _atom_site_fract_y
 _atom_site_fract_z
 _atom_site_occupancy
  Hf  Hf0  1  0.00174600  0.00174600  0.00174600  1
  Nb  Nb0  1  0.49697300  0.49697300  0.49697300  1
  C  C0  1  0.75053400  0.75053400  0.75053400  1
  N  N0  1  0.25074700  0.25074700  0.25074700  1
loop_
_geom_bond_atom_site_label_1
_geom_bond_atom_site_label_2
_geom_bond_distance
_geom_bond_site_symmetry_2
Hf0 N0 2.278043 1_455
Hf0 N0 2.278043 1_545
Hf0 N0 2.278043 1_554
C0 Nb0 2.236757 1_565
C0 Nb0 2.236757 1_655
C0 Nb0 2.236758 1_556
C0 Hf0 2.257833 1_566
C0 Hf0 2.257833 1_656
C0 Hf0 2.257833 1_665
N0 Nb0 2.303905 1_545
N0 Nb0 2.303905 1_455
N0 Nb0 2.303905 1_554
