# generated using pymatgen
data_Nd4InSbS9
_symmetry_space_group_name_H-M   'P 1'
_cell_length_a   10.21022300
_cell_length_b   10.21022300
_cell_length_c   28.11183200
_cell_angle_alpha   90.00000000
_cell_angle_beta   90.00000000
_cell_angle_gamma   90.00000000
_symmetry_Int_Tables_number   1
_chemical_formula_structural   Nd4InSbS9
_chemical_formula_sum   'Nd32 In8 Sb8 S72'
_cell_volume   2930.62063931
_cell_formula_units_Z   8
loop_
 _symmetry_equiv_pos_site_id
 _symmetry_equiv_pos_as_xyz
  1  'x, y, z'
loop_
 _atom_site_type_symbol
 _atom_site_label
 _atom_site_symmetry_multiplicity
 _atom_site_fract_x
 _atom_site_fract_y
 _atom_site_fract_z
 _atom_site_occupancy
  Nd  Nd0  1  0.05941100  0.72426300  0.16155400  1
  Nd  Nd1  1  0.94058900  0.27573700  0.66155400  1
  Nd  Nd2  1  0.22426300  0.44058900  0.41155400  1
  Nd  Nd3  1  0.77573700  0.55941100  0.91155400  1
  Nd  Nd4  1  0.27573700  0.94058900  0.33844600  1
  Nd  Nd5  1  0.72426300  0.05941100  0.83844600  1
  Nd  Nd6  1  0.44058900  0.22426300  0.58844600  1
  Nd  Nd7  1  0.55941100  0.77573700  0.08844600  1
  Nd  Nd8  1  0.01080500  0.65030100  0.30283700  1
  Nd  Nd9  1  0.98919500  0.34969900  0.80283700  1
  Nd  Nd10  1  0.15030100  0.48919500  0.55283700  1
  Nd  Nd11  1  0.84969900  0.51080500  0.05283700  1
  Nd  Nd12  1  0.34969900  0.98919500  0.19716300  1
  Nd  Nd13  1  0.65030100  0.01080500  0.69716300  1
  Nd  Nd14  1  0.48919500  0.15030100  0.44716300  1
  Nd  Nd15  1  0.51080500  0.84969900  0.94716300  1
  Nd  Nd16  1  0.73348800  0.50232000  0.19921000  1
  Nd  Nd17  1  0.26651200  0.49768000  0.69921000  1
  Nd  Nd18  1  0.00232000  0.76651200  0.44921000  1
  Nd  Nd19  1  0.99768000  0.23348800  0.94921000  1
  Nd  Nd20  1  0.49768000  0.26651200  0.30079000  1
  Nd  Nd21  1  0.50232000  0.73348800  0.80079000  1
  Nd  Nd22  1  0.76651200  0.00232000  0.55079000  1
  Nd  Nd23  1  0.23348800  0.99768000  0.05079000  1
  Nd  Nd24  1  0.05643000  0.27268000  0.15762300  1
  Nd  Nd25  1  0.94357000  0.72732000  0.65762300  1
  Nd  Nd26  1  0.77268000  0.44357000  0.40762300  1
  Nd  Nd27  1  0.22732000  0.55643000  0.90762300  1
  Nd  Nd28  1  0.72732000  0.94357000  0.34237700  1
  Nd  Nd29  1  0.27268000  0.05643000  0.84237700  1
  Nd  Nd30  1  0.44357000  0.77268000  0.59237700  1
  Nd  Nd31  1  0.55643000  0.22732000  0.09237700  1
  In  In0  1  0.29611900  0.51333000  0.04685000  1
  In  In1  1  0.70388100  0.48667000  0.54685000  1
  In  In2  1  0.01333000  0.20388100  0.29685000  1
  In  In3  1  0.98667000  0.79611900  0.79685000  1
  In  In4  1  0.48667000  0.70388100  0.45315000  1
  In  In5  1  0.51333000  0.29611900  0.95315000  1
  In  In6  1  0.20388100  0.01333000  0.70315000  1
  In  In7  1  0.79611900  0.98667000  0.20315000  1
  Sb  Sb0  1  0.35817700  0.49091800  0.19447300  1
  Sb  Sb1  1  0.64182300  0.50908200  0.69447300  1
  Sb  Sb2  1  0.99091800  0.14182300  0.44447300  1
  Sb  Sb3  1  0.00908200  0.85817700  0.94447300  1
  Sb  Sb4  1  0.50908200  0.64182300  0.30552700  1
  Sb  Sb5  1  0.49091800  0.35817700  0.80552700  1
  Sb  Sb6  1  0.14182300  0.99091800  0.55552700  1
  Sb  Sb7  1  0.85817700  0.00908200  0.05552700  1
  S  S0  1  0.51063900  0.67706200  0.21159900  1
  S  S1  1  0.48936100  0.32293800  0.71159900  1
  S  S2  1  0.17706200  0.98936100  0.46159900  1
  S  S3  1  0.82293800  0.01063900  0.96159900  1
  S  S4  1  0.32293800  0.48936100  0.28840100  1
  S  S5  1  0.67706200  0.51063900  0.78840100  1
  S  S6  1  0.98936100  0.17706200  0.53840100  1
  S  S7  1  0.01063900  0.82293800  0.03840100  1
  S  S8  1  0.02041200  0.18831900  0.04974000  1
  S  S9  1  0.97958800  0.81168100  0.54974000  1
  S  S10  1  0.68831900  0.47958800  0.29974000  1
  S  S11  1  0.31168100  0.52041200  0.79974000  1
  S  S12  1  0.81168100  0.97958800  0.45026000  1
  S  S13  1  0.18831900  0.02041200  0.95026000  1
  S  S14  1  0.47958800  0.68831900  0.70026000  1
  S  S15  1  0.52041200  0.31168100  0.20026000  1
  S  S16  1  0.99039300  0.99528700  0.14872800  1
  S  S17  1  0.00960700  0.00471300  0.64872800  1
  S  S18  1  0.49528700  0.50960700  0.39872800  1
  S  S19  1  0.50471300  0.49039300  0.89872800  1
  S  S20  1  0.00471300  0.00960700  0.35127200  1
  S  S21  1  0.99528700  0.99039300  0.85127200  1
  S  S22  1  0.50960700  0.49528700  0.60127200  1
  S  S23  1  0.49039300  0.50471300  0.10127200  1
  S  S24  1  0.10127800  0.50359000  0.09930000  1
  S  S25  1  0.89872200  0.49641000  0.59930000  1
  S  S26  1  0.00359000  0.39872200  0.34930000  1
  S  S27  1  0.99641000  0.60127800  0.84930000  1
  S  S28  1  0.49641000  0.89872200  0.40070000  1
  S  S29  1  0.50359000  0.10127800  0.90070000  1
  S  S30  1  0.39872200  0.00359000  0.65070000  1
  S  S31  1  0.60127800  0.99641000  0.15070000  1
  S  S32  1  0.30598500  0.30598500  0.00000000  1
  S  S33  1  0.69401500  0.69401500  0.50000000  1
  S  S34  1  0.80598500  0.19401500  0.25000000  1
  S  S35  1  0.19401500  0.80598500  0.75000000  1
  S  S36  1  0.20706400  0.19753700  0.24398600  1
  S  S37  1  0.79293600  0.80246300  0.74398600  1
  S  S38  1  0.69753700  0.29293600  0.49398600  1
  S  S39  1  0.30246300  0.70706400  0.99398600  1
  S  S40  1  0.80246300  0.79293600  0.25601400  1
  S  S41  1  0.19753700  0.20706400  0.75601400  1
  S  S42  1  0.29293600  0.69753700  0.50601400  1
  S  S43  1  0.70706400  0.30246300  0.00601400  1
  S  S44  1  0.00318900  0.49937000  0.21837800  1
  S  S45  1  0.99681100  0.50063000  0.71837800  1
  S  S46  1  0.99937000  0.49681100  0.46837800  1
  S  S47  1  0.00063000  0.50318900  0.96837800  1
  S  S48  1  0.50063000  0.99681100  0.28162200  1
  S  S49  1  0.49937000  0.00318900  0.78162200  1
  S  S50  1  0.49681100  0.99937000  0.53162200  1
  S  S51  1  0.50318900  0.00063000  0.03162200  1
  S  S52  1  0.29847900  0.17672300  0.12359400  1
  S  S53  1  0.70152100  0.82327700  0.62359400  1
  S  S54  1  0.67672300  0.20152100  0.37359400  1
  S  S55  1  0.32327700  0.79847900  0.87359400  1
  S  S56  1  0.82327700  0.70152100  0.37640600  1
  S  S57  1  0.17672300  0.29847900  0.87640600  1
  S  S58  1  0.20152100  0.67672300  0.62640600  1
  S  S59  1  0.79847900  0.32327700  0.12640600  1
  S  S60  1  0.29817300  0.81074800  0.12207500  1
  S  S61  1  0.70182700  0.18925200  0.62207500  1
  S  S62  1  0.31074800  0.20182700  0.37207500  1
  S  S63  1  0.68925200  0.79817300  0.87207500  1
  S  S64  1  0.18925200  0.70182700  0.37792500  1
  S  S65  1  0.81074800  0.29817300  0.87792500  1
  S  S66  1  0.20182700  0.31074800  0.62792500  1
  S  S67  1  0.79817300  0.68925200  0.12792500  1
  S  S68  1  0.18317900  0.81682100  0.25000000  1
  S  S69  1  0.81682100  0.18317900  0.75000000  1
  S  S70  1  0.31682100  0.31682100  0.50000000  1
  S  S71  1  0.68317900  0.68317900  0.00000000  1
loop_
_geom_bond_atom_site_label_1
_geom_bond_atom_site_label_2
_geom_bond_distance
_geom_bond_site_symmetry_2
Nd0 S60 2.820353 1_555
Nd0 S67 2.852366 1_455
Nd0 S44 2.855497 1_555
Nd0 S16 2.878207 1_455
Nd0 S24 2.884795 1_555
Nd0 S68 2.944845 1_555
Nd1 S61 2.820353 1_555
Nd1 S66 2.852366 1_655
Nd1 S45 2.855497 1_555
Nd1 S17 2.878207 1_655
Nd1 S25 2.884795 1_555
Nd1 S69 2.944845 1_555
Nd2 S62 2.820353 1_555
Nd2 S64 2.852366 1_555
Nd2 S46 2.855497 1_455
Nd2 S18 2.878207 1_555
Nd2 S26 2.884795 1_555
Nd2 S70 2.944845 1_555
Nd3 S63 2.820353 1_555
Nd3 S65 2.852366 1_555
Nd3 S47 2.855497 1_655
Nd3 S19 2.878207 1_555
Nd3 S27 2.884795 1_555
Nd3 S71 2.944845 1_556
Nd4 S64 2.820353 1_555
Nd4 S62 2.852366 1_565
Nd4 S48 2.855497 1_555
Nd4 S20 2.878207 1_565
Nd4 S28 2.884795 1_555
Nd4 S68 2.944845 1_555
Nd5 S65 2.820353 1_555
Nd5 S63 2.852366 1_545
Nd5 S49 2.855497 1_555
Nd5 S21 2.878207 1_545
Nd5 S29 2.884795 1_555
Nd5 S69 2.944845 1_555
Nd6 S66 2.820353 1_555
Nd6 S61 2.852366 1_555
Nd6 S50 2.855497 1_545
Nd6 S22 2.878207 1_555
Nd6 S30 2.884795 1_555
Nd6 S70 2.944845 1_555
Nd7 S67 2.820353 1_555
Nd7 S60 2.852366 1_555
Nd7 S51 2.855497 1_565
Nd7 S23 2.878207 1_555
Nd7 S31 2.884795 1_555
Nd7 S71 2.944845 1_555
Nd8 S44 2.831631 1_555
Nd8 S64 2.837628 1_555
Nd8 S68 2.862598 1_555
Nd8 S56 2.866507 1_455
Nd8 S26 2.882635 1_555
Nd8 S40 2.894575 1_455
Nd9 S45 2.831631 1_555
Nd9 S65 2.837628 1_555
Nd9 S69 2.862598 1_555
Nd9 S57 2.866507 1_655
Nd9 S27 2.882635 1_555
Nd9 S41 2.894575 1_655
Nd10 S46 2.831631 1_455
Nd10 S66 2.837628 1_555
Nd10 S70 2.862598 1_555
Nd10 S58 2.866507 1_555
Nd10 S25 2.882635 1_455
Nd10 S42 2.894575 1_555
Nd11 S47 2.831631 1_654
Nd11 S67 2.837628 1_555
Nd11 S71 2.862598 1_555
Nd11 S59 2.866507 1_555
Nd11 S24 2.882635 1_655
Nd11 S43 2.894575 1_555
Nd12 S48 2.831631 1_555
Nd12 S60 2.837628 1_555
Nd12 S68 2.862598 1_555
Nd12 S52 2.866507 1_565
Nd12 S31 2.882635 1_555
Nd12 S36 2.894575 1_565
Nd13 S49 2.831631 1_555
Nd13 S61 2.837628 1_555
Nd13 S69 2.862598 1_555
Nd13 S53 2.866507 1_545
Nd13 S30 2.882635 1_555
Nd13 S37 2.894575 1_545
Nd14 S50 2.831631 1_545
Nd14 S62 2.837628 1_555
Nd14 S70 2.862598 1_555
Nd14 S54 2.866507 1_555
Nd14 S28 2.882635 1_545
Nd14 S38 2.894575 1_555
Nd15 S51 2.831631 1_566
Nd15 S63 2.837628 1_555
Nd15 S71 2.862598 1_556
Nd15 S55 2.866507 1_555
Nd15 S29 2.882635 1_565
Nd15 S39 2.894575 1_555
Nd16 S44 2.806095 1_655
Nd16 S59 2.823288 1_555
Nd16 S67 2.845142 1_555
Nd16 S10 2.872856 1_555
Nd16 S0 2.912330 1_555
Nd16 S15 2.919356 1_555
Nd17 S45 2.806095 1_455
Nd17 S58 2.823288 1_555
Nd17 S66 2.845142 1_555
Nd17 S11 2.872856 1_555
Nd17 S1 2.912330 1_555
Nd17 S14 2.919356 1_555
Nd18 S46 2.806095 1_455
Nd18 S56 2.823288 1_455
Nd18 S64 2.845142 1_555
Nd18 S9 2.872856 1_455
Nd18 S2 2.912330 1_555
Nd18 S12 2.919356 1_455
Nd19 S47 2.806095 1_655
Nd19 S57 2.823288 1_655
Nd19 S65 2.845142 1_555
Nd19 S8 2.872856 1_656
Nd19 S3 2.912330 1_555
Nd19 S13 2.919356 1_655
Nd20 S48 2.806095 1_545
Nd20 S54 2.823288 1_555
Nd20 S62 2.845142 1_555
Nd20 S15 2.872856 1_555
Nd20 S4 2.912330 1_555
Nd20 S10 2.919356 1_555
Nd21 S49 2.806095 1_565
Nd21 S55 2.823288 1_555
Nd21 S63 2.845142 1_555
Nd21 S14 2.872856 1_555
Nd21 S5 2.912330 1_555
Nd21 S11 2.919356 1_555
Nd22 S50 2.806095 1_545
Nd22 S53 2.823288 1_545
Nd22 S61 2.845142 1_555
Nd22 S12 2.872856 1_545
Nd22 S6 2.912330 1_555
Nd22 S9 2.919356 1_545
Nd23 S51 2.806095 1_565
Nd23 S52 2.823288 1_565
Nd23 S60 2.845142 1_555
Nd23 S13 2.872856 1_564
Nd23 S7 2.912330 1_555
Nd23 S8 2.919356 1_565
Nd24 S59 2.823753 1_455
Nd24 S52 2.825368 1_555
Nd24 S24 2.907978 1_555
Nd24 S16 2.922114 1_445
Nd24 S44 2.927407 1_555
Nd24 S36 2.974630 1_555
Nd24 S8 3.174108 1_555
Nd25 S58 2.823753 1_655
Nd25 S53 2.825368 1_555
Nd25 S25 2.907978 1_555
Nd25 S17 2.922114 1_665
Nd25 S45 2.927407 1_555
Nd25 S37 2.974630 1_555
Nd25 S9 3.174108 1_555
Nd26 S56 2.823753 1_555
Nd26 S54 2.825368 1_555
Nd26 S26 2.907978 1_655
Nd26 S18 2.922114 1_555
Nd26 S46 2.927407 1_555
Nd26 S38 2.974630 1_555
Nd26 S10 3.174108 1_555
Nd27 S57 2.823753 1_555
Nd27 S55 2.825368 1_555
Nd27 S27 2.907978 1_455
Nd27 S19 2.922114 1_555
Nd27 S47 2.927407 1_555
Nd27 S39 2.974630 1_555
Nd27 S11 3.174108 1_555
Nd28 S54 2.823753 1_565
Nd28 S56 2.825368 1_555
Nd28 S28 2.907978 1_555
Nd28 S20 2.922114 1_665
Nd28 S48 2.927407 1_555
Nd28 S40 2.974630 1_555
Nd28 S12 3.174108 1_555
Nd29 S55 2.823753 1_545
Nd29 S57 2.825368 1_555
Nd29 S29 2.907978 1_555
Nd29 S21 2.922114 1_445
Nd29 S49 2.927407 1_555
Nd29 S41 2.974630 1_555
Nd29 S13 3.174108 1_555
Nd30 S53 2.823753 1_555
Nd30 S58 2.825368 1_555
Nd30 S30 2.907978 1_565
Nd30 S22 2.922114 1_555
Nd30 S50 2.927407 1_555
Nd30 S42 2.974630 1_555
Nd30 S14 3.174108 1_555
Nd31 S52 2.823753 1_555
Nd31 S59 2.825368 1_555
Nd31 S31 2.907978 1_545
Nd31 S23 2.922114 1_555
Nd31 S51 2.927407 1_555
Nd31 S43 2.974630 1_555
Nd31 S15 3.174108 1_555
In0 S39 2.474965 1_554
In0 S24 2.478211 1_555
In0 S32 2.495314 1_555
In0 S23 2.506578 1_555
In1 S38 2.474965 1_555
In1 S25 2.478211 1_555
In1 S33 2.495314 1_555
In1 S22 2.506578 1_555
In2 S36 2.474965 1_555
In2 S26 2.478211 1_555
In2 S34 2.495314 1_455
In2 S20 2.506578 1_555
In3 S37 2.474965 1_555
In3 S27 2.478211 1_555
In3 S35 2.495314 1_655
In3 S21 2.506578 1_555
In4 S42 2.474965 1_555
In4 S28 2.478211 1_555
In4 S33 2.495314 1_555
In4 S18 2.506578 1_555
In5 S43 2.474965 1_556
In5 S29 2.478211 1_555
In5 S32 2.495314 1_556
In5 S19 2.506578 1_555
In6 S41 2.474965 1_555
In6 S30 2.478211 1_555
In6 S35 2.495314 1_545
In6 S17 2.506578 1_555
In7 S40 2.474965 1_555
In7 S31 2.478211 1_555
In7 S34 2.495314 1_565
In7 S16 2.506578 1_555
S0 Sb0 2.503435 1_555
S0 Sb4 2.664936 1_555
S1 Sb1 2.503435 1_555
S1 Sb5 2.664936 1_555
S2 Sb2 2.503435 1_465
S2 Sb6 2.664936 1_555
S3 Sb3 2.503435 1_645
S3 Sb7 2.664936 1_556
S4 Sb4 2.503435 1_555
S4 Sb0 2.664936 1_555
S5 Sb5 2.503435 1_555
S5 Sb1 2.664936 1_555
S6 Sb6 2.503435 1_645
S6 Sb2 2.664936 1_555
S7 Sb7 2.503435 1_465
S7 Sb3 2.664936 1_554
S8 Sb7 2.473741 1_455
S9 Sb6 2.473741 1_655
S10 Sb4 2.473741 1_555
S11 Sb5 2.473741 1_555
S12 Sb2 2.473741 1_565
S13 Sb3 2.473741 1_545
S14 Sb1 2.473741 1_555
S15 Sb0 2.473741 1_555
S16 Sb7 2.950743 1_565
S17 Sb6 2.950743 1_545
S18 Sb4 2.950743 1_555
S19 Sb5 2.950743 1_555
S20 Sb2 2.950743 1_455
S21 Sb3 2.950743 1_655
S22 Sb1 2.950743 1_555
S23 Sb0 2.950743 1_555
