# generated using pymatgen
data_NaLi2(RuO2)6
_symmetry_space_group_name_H-M   'P 1'
_cell_length_a   5.62418863
_cell_length_b   9.51069038
_cell_length_c   9.87308851
_cell_angle_alpha   118.68144393
_cell_angle_beta   105.97454205
_cell_angle_gamma   90.67268446
_symmetry_Int_Tables_number   1
_chemical_formula_structural   NaLi2(RuO2)6
_chemical_formula_sum   'Na2 Li4 Ru12 O24'
_cell_volume   438.89723700
_cell_formula_units_Z   2
loop_
 _symmetry_equiv_pos_site_id
 _symmetry_equiv_pos_as_xyz
  1  'x, y, z'
loop_
 _atom_site_type_symbol
 _atom_site_label
 _atom_site_symmetry_multiplicity
 _atom_site_fract_x
 _atom_site_fract_y
 _atom_site_fract_z
 _atom_site_occupancy
  Na  Na0  1  0.75262300  0.98489400  0.00111000  1
  Na  Na1  1  0.24737700  0.01510600  0.99889000  1
  Li  Li0  1  0.96439700  0.32891400  0.66481300  1
  Li  Li1  1  0.03560300  0.67108600  0.33518700  1
  Li  Li2  1  0.47363200  0.33864800  0.66804100  1
  Li  Li3  1  0.52636800  0.66135200  0.33195900  1
  Ru  Ru0  1  0.82637800  0.33536100  0.35835100  1
  Ru  Ru1  1  0.17362200  0.66463900  0.64164900  1
  Ru  Ru2  1  0.28190700  0.34474900  0.36139100  1
  Ru  Ru3  1  0.71809300  0.65525100  0.63860900  1
  Ru  Ru4  1  0.86038500  0.36267000  0.01882200  1
  Ru  Ru5  1  0.13961500  0.63733000  0.98117800  1
  Ru  Ru6  1  0.40604200  0.35594400  0.02028000  1
  Ru  Ru7  1  0.59395800  0.64405600  0.97972000  1
  Ru  Ru8  1  0.52318500  0.98542000  0.34003200  1
  Ru  Ru9  1  0.47681500  0.01458000  0.65996800  1
  Ru  Ru10  1  0.06777100  0.97603200  0.34016900  1
  Ru  Ru11  1  0.93222900  0.02396800  0.65983100  1
  O  O0  1  0.18007400  0.12016800  0.59431700  1
  O  O1  1  0.81992600  0.87983200  0.40568300  1
  O  O2  1  0.66574000  0.14257700  0.59378100  1
  O  O3  1  0.33426000  0.85742300  0.40621900  1
  O  O4  1  0.42194200  0.82807300  0.09817300  1
  O  O5  1  0.57805800  0.17192700  0.90182700  1
  O  O6  1  0.92857600  0.79650200  0.09772900  1
  O  O7  1  0.07142400  0.20349800  0.90227100  1
  O  O8  1  0.74466300  0.89733300  0.72273900  1
  O  O9  1  0.25533700  0.10266700  0.27726100  1
  O  O10  1  0.21675100  0.90256300  0.69864200  1
  O  O11  1  0.78324900  0.09743700  0.30135800  1
  O  O12  1  0.47937100  0.29822400  0.20291500  1
  O  O13  1  0.52062900  0.70177600  0.79708500  1
  O  O14  1  0.95931400  0.27638600  0.17425400  1
  O  O15  1  0.04068600  0.72361400  0.82574600  1
  O  O16  1  0.14360900  0.41270400  0.55165700  1
  O  O17  1  0.85639100  0.58729600  0.44834300  1
  O  O18  1  0.63707400  0.40111700  0.52578700  1
  O  O19  1  0.36292600  0.59888300  0.47421300  1
  O  O20  1  0.31399700  0.44860100  0.86339700  1
  O  O21  1  0.68600300  0.55139900  0.13660300  1
  O  O22  1  0.80802500  0.47378400  0.87488400  1
  O  O23  1  0.19197500  0.52621600  0.12511600  1
loop_
_geom_bond_atom_site_label_1
_geom_bond_atom_site_label_2
_geom_bond_distance
_geom_bond_site_symmetry_2
Na0 O8 2.446135 1_554
Na0 O14 2.498147 1_565
Na0 O6 2.502448 1_555
Na0 O5 2.504778 1_564
Na0 O13 2.504982 1_554
Na0 O11 2.575235 1_565
Na1 O9 2.446135 1_556
Na1 O15 2.498147 1_545
Na1 O7 2.502448 1_555
Na1 O4 2.504778 1_546
Na1 O12 2.504982 1_556
Na1 O10 2.575235 1_545
Li0 O16 2.086770 1_655
Li0 O2 2.131346 1_555
Li0 O20 2.165442 1_655
Li0 O0 2.256589 1_655
Li0 O22 2.294114 1_555
Li0 O18 2.299616 1_555
Li1 O17 2.086770 1_455
Li1 O3 2.131346 1_555
Li1 O21 2.165442 1_455
Li1 O1 2.256589 1_455
Li1 O23 2.294114 1_555
Li1 O19 2.299616 1_555
Li2 O2 2.086449 1_555
Li2 O20 2.158453 1_555
Li2 O22 2.160830 1_555
Li2 O18 2.160856 1_555
Li2 O16 2.212507 1_555
Li2 O0 2.319384 1_555
Li3 O3 2.086449 1_555
Li3 O21 2.158453 1_555
Li3 O23 2.160830 1_555
Li3 O19 2.160856 1_555
Li3 O17 2.212507 1_555
Li3 O1 2.319384 1_555
O0 Ru11 2.057400 1_455
O0 Ru9 2.069450 1_555
O0 Ru10 2.092830 1_545
O1 Ru10 2.057400 1_655
O1 Ru8 2.069450 1_555
O1 Ru11 2.092830 1_565
O2 Ru11 2.037634 1_555
O2 Ru9 2.037975 1_555
O2 Ru8 2.103626 1_545
O3 Ru10 2.037634 1_555
O3 Ru8 2.037975 1_555
O3 Ru9 2.103626 1_565
O4 Ru5 2.014431 1_554
O4 Ru7 2.016061 1_554
O4 Ru8 2.016742 1_555
O5 Ru4 2.014431 1_556
O5 Ru6 2.016061 1_556
O5 Ru9 2.016742 1_555
O6 Ru7 2.027043 1_554
O6 Ru5 2.036294 1_654
O6 Ru10 2.066856 1_655
O7 Ru6 2.027043 1_556
O7 Ru4 2.036294 1_456
O7 Ru11 2.066856 1_455
O8 Ru11 1.999491 1_565
O8 Ru9 2.021330 1_565
O8 Ru3 2.025115 1_555
O9 Ru10 1.999491 1_545
O9 Ru8 2.021330 1_545
O9 Ru2 2.025115 1_555
O10 Ru9 2.020250 1_565
O10 Ru11 2.042368 1_465
O10 Ru1 2.045877 1_555
O11 Ru8 2.020250 1_545
O11 Ru10 2.042368 1_645
O11 Ru0 2.045877 1_555
O12 Ru0 2.025764 1_555
O12 Ru2 2.044680 1_555
O12 Ru6 2.066158 1_555
O13 Ru1 2.025764 1_555
O13 Ru3 2.044680 1_555
O13 Ru7 2.066158 1_555
O14 Ru0 1.989106 1_555
O14 Ru4 2.021760 1_555
O14 Ru2 2.025416 1_655
O15 Ru1 1.989106 1_555
O15 Ru5 2.021760 1_555
O15 Ru3 2.025416 1_455
O16 Ru0 2.028345 1_455
O16 Ru2 2.049922 1_555
O16 Ru1 2.103226 1_555
O17 Ru1 2.028345 1_655
O17 Ru3 2.049922 1_555
O17 Ru0 2.103226 1_555
O18 Ru0 2.061424 1_555
O18 Ru2 2.065677 1_555
O18 Ru3 2.097794 1_555
O19 Ru1 2.061424 1_555
O19 Ru3 2.065677 1_555
O19 Ru2 2.097794 1_555
O20 Ru7 2.034807 1_555
O20 Ru5 2.049758 1_555
O20 Ru6 2.079247 1_556
O21 Ru6 2.034807 1_555
O21 Ru4 2.049758 1_555
O21 Ru7 2.079247 1_554
O22 Ru7 2.065449 1_555
O22 Ru5 2.070373 1_655
O22 Ru4 2.107497 1_556
O23 Ru6 2.065449 1_555
O23 Ru4 2.070373 1_455
O23 Ru5 2.107497 1_554
