# generated using pymatgen
data_NaLa6Ga3S14
_symmetry_space_group_name_H-M   'P 1'
_cell_length_a   10.24047569
_cell_length_b   10.24047569
_cell_length_c   6.15078300
_cell_angle_alpha   90.00000000
_cell_angle_beta   90.00000000
_cell_angle_gamma   119.99999797
_symmetry_Int_Tables_number   1
_chemical_formula_structural   NaLa6Ga3S14
_chemical_formula_sum   'Na1 La6 Ga3 S14'
_cell_volume   558.60048372
_cell_formula_units_Z   1
loop_
 _symmetry_equiv_pos_site_id
 _symmetry_equiv_pos_as_xyz
  1  'x, y, z'
loop_
 _atom_site_type_symbol
 _atom_site_label
 _atom_site_symmetry_multiplicity
 _atom_site_fract_x
 _atom_site_fract_y
 _atom_site_fract_z
 _atom_site_occupancy
  Na  Na0  1  0.00000000  0.00000000  0.73837900  1
  La  La0  1  0.62384000  0.76552500  0.49878100  1
  La  La1  1  0.14168600  0.37616000  0.49878100  1
  La  La2  1  0.23447500  0.85831400  0.49878100  1
  La  La3  1  0.37381600  0.23350200  0.00811000  1
  La  La4  1  0.85968600  0.62618400  0.00811000  1
  La  La5  1  0.76649800  0.14031400  0.00811000  1
  Ga  Ga0  1  0.66666700  0.33333300  0.58287300  1
  Ga  Ga1  1  0.33333300  0.66666700  0.08560500  1
  Ga  Ga2  1  0.00000000  0.00000000  0.23329100  1
  S  S0  1  0.90152900  0.41919700  0.73276500  1
  S  S1  1  0.51766800  0.09847100  0.73276500  1
  S  S2  1  0.58080300  0.48233200  0.73276500  1
  S  S3  1  0.09847200  0.57939900  0.23678300  1
  S  S4  1  0.48092800  0.90152800  0.23678300  1
  S  S5  1  0.42060100  0.51907200  0.23678300  1
  S  S6  1  0.85685600  0.09155800  0.44813700  1
  S  S7  1  0.23470200  0.14314400  0.44813700  1
  S  S8  1  0.90844200  0.76529800  0.44813700  1
  S  S9  1  0.15152200  0.90908600  0.99553500  1
  S  S10  1  0.75756400  0.84847800  0.99553500  1
  S  S11  1  0.09091400  0.24243600  0.99553500  1
  S  S12  1  0.33333300  0.66666700  0.71806800  1
  S  S13  1  0.66666700  0.33333300  0.21497200  1
loop_
_geom_bond_atom_site_label_1
_geom_bond_atom_site_label_2
_geom_bond_distance
_geom_bond_site_symmetry_2
Na0 S9 2.687157 1_545
Na0 S11 2.687157 1_555
Na0 S10 2.687157 1_445
Na0 S6 2.754855 1_455
Na0 S8 2.754855 1_445
Na0 S7 2.754855 1_555
La0 S5 2.836447 1_555
La0 S8 2.932216 1_555
La0 S12 2.946627 1_555
La0 S4 2.952400 1_555
La0 S6 2.995201 1_565
La0 S2 3.065545 1_555
La0 S10 3.281649 1_555
La0 S10 3.318859 1_554
La1 S3 2.836447 1_555
La1 S6 2.932221 1_455
La1 S12 2.946624 1_555
La1 S5 2.952400 1_555
La1 S7 2.995194 1_555
La1 S0 3.065554 1_455
La1 S11 3.281648 1_555
La1 S11 3.318858 1_554
La2 S4 2.836447 1_555
La2 S7 2.932226 1_565
La2 S12 2.946610 1_555
La2 S3 2.952400 1_555
La2 S8 2.995203 1_455
La2 S1 3.065549 1_565
La2 S9 3.281652 1_555
La2 S9 3.318862 1_554
La3 S2 2.907403 1_554
La3 S13 2.931174 1_555
La3 S9 2.943165 1_544
La3 S11 2.944878 1_554
La3 S7 2.982059 1_555
La3 S1 2.997896 1_554
La3 S5 3.059202 1_555
La4 S0 2.907403 1_554
La4 S13 2.931173 1_555
La4 S10 2.943165 1_554
La4 S9 2.944878 1_654
La4 S8 2.982059 1_555
La4 S2 2.997896 1_554
La4 S3 3.059211 1_655
La5 S1 2.907403 1_554
La5 S13 2.931165 1_555
La5 S11 2.943165 1_654
La5 S10 2.944878 1_544
La5 S6 2.982059 1_555
La5 S0 2.997896 1_554
La5 S4 3.059205 1_545
Ga0 S13 2.262879 1_555
Ga0 S0 2.300624 1_555
Ga0 S1 2.300625 1_555
Ga0 S2 2.300633 1_555
Ga1 S12 2.260640 1_554
Ga1 S3 2.301823 1_555
Ga1 S4 2.301826 1_555
Ga1 S5 2.301840 1_555
Ga2 S6 2.479620 1_455
Ga2 S8 2.479620 1_445
Ga2 S7 2.479620 1_555
Ga2 S9 2.618697 1_544
Ga2 S11 2.618697 1_554
Ga2 S10 2.618697 1_444
