# generated using pymatgen
data_Cd2(GeO3)3
_symmetry_space_group_name_H-M   'P 1'
_cell_length_a   7.20101902
_cell_length_b   7.65797186
_cell_length_c   8.02539057
_cell_angle_alpha   104.13534393
_cell_angle_beta   114.22005921
_cell_angle_gamma   97.03576619
_symmetry_Int_Tables_number   1
_chemical_formula_structural   Cd2(GeO3)3
_chemical_formula_sum   'Cd4 Ge6 O18'
_cell_volume   378.77550870
_cell_formula_units_Z   2
loop_
 _symmetry_equiv_pos_site_id
 _symmetry_equiv_pos_as_xyz
  1  'x, y, z'
loop_
 _atom_site_type_symbol
 _atom_site_label
 _atom_site_symmetry_multiplicity
 _atom_site_fract_x
 _atom_site_fract_y
 _atom_site_fract_z
 _atom_site_occupancy
  Cd  Cd0  1  0.89278500  0.23037400  0.10502400  1
  Cd  Cd1  1  0.10721500  0.76962600  0.89497600  1
  Cd  Cd2  1  0.81234500  0.62613600  0.38700300  1
  Cd  Cd3  1  0.18765500  0.37386400  0.61299700  1
  Ge  Ge0  1  0.63181800  0.73574400  0.95264500  1
  Ge  Ge1  1  0.36818200  0.26425600  0.04735500  1
  Ge  Ge2  1  0.31652000  0.05353600  0.35032600  1
  Ge  Ge3  1  0.68348000  0.94646400  0.64967400  1
  Ge  Ge4  1  0.71930000  0.37802700  0.68911100  1
  Ge  Ge5  1  0.28070000  0.62197300  0.31088900  1
  O  O0  1  0.18916100  0.79554100  0.20613900  1
  O  O1  1  0.81083900  0.20445900  0.79386100  1
  O  O2  1  0.45253500  0.31403900  0.50460700  1
  O  O3  1  0.54746500  0.68596100  0.49539300  1
  O  O4  1  0.74925400  0.55098700  0.89961900  1
  O  O5  1  0.25074600  0.44901300  0.10038100  1
  O  O6  1  0.73449800  0.92105500  0.89065700  1
  O  O7  1  0.26550200  0.07894500  0.10934300  1
  O  O8  1  0.40829300  0.98686000  0.58064200  1
  O  O9  1  0.59170700  0.01314000  0.41935800  1
  O  O10  1  0.07128000  0.11461100  0.34285600  1
  O  O11  1  0.92872000  0.88538900  0.65714400  1
  O  O12  1  0.09101600  0.51523300  0.36640800  1
  O  O13  1  0.90898400  0.48476700  0.63359200  1
  O  O14  1  0.73876800  0.82023200  0.20854700  1
  O  O15  1  0.26123200  0.17976800  0.79145300  1
  O  O16  1  0.35783400  0.66187200  0.83331300  1
  O  O17  1  0.64216600  0.33812800  0.16668700  1
loop_
_geom_bond_atom_site_label_1
_geom_bond_atom_site_label_2
_geom_bond_distance
_geom_bond_site_symmetry_2
Cd0 O17 2.254095 1_555
Cd0 O1 2.268000 1_554
Cd0 O10 2.274600 1_655
Cd0 O6 2.368364 1_544
Cd0 O12 2.396240 1_655
Cd1 O16 2.254095 1_555
Cd1 O0 2.268000 1_556
Cd1 O11 2.274600 1_455
Cd1 O7 2.368364 1_566
Cd1 O13 2.396240 1_455
Cd2 O17 2.268887 1_555
Cd2 O14 2.269640 1_555
Cd2 O11 2.311605 1_555
Cd2 O12 2.323060 1_655
Cd2 O13 2.381947 1_555
Cd2 O3 2.446536 1_555
Cd3 O16 2.268887 1_555
Cd3 O15 2.269640 1_555
Cd3 O10 2.311605 1_555
Cd3 O13 2.323060 1_455
Cd3 O12 2.381947 1_555
Cd3 O2 2.446536 1_555
Ge0 O16 1.743974 1_555
Ge0 O14 1.777830 1_556
Ge0 O4 1.786723 1_555
Ge0 O6 1.788191 1_555
Ge1 O17 1.743974 1_555
Ge1 O15 1.777830 1_554
Ge1 O5 1.786723 1_555
Ge1 O7 1.788191 1_555
Ge2 O10 1.862847 1_555
Ge2 O7 1.879222 1_555
Ge2 O0 1.911099 1_545
Ge2 O8 1.911895 1_545
Ge2 O9 1.913790 1_555
Ge2 O2 1.947299 1_555
Ge3 O11 1.862847 1_555
Ge3 O6 1.879222 1_555
Ge3 O1 1.911099 1_565
Ge3 O9 1.911895 1_565
Ge3 O8 1.913790 1_555
Ge3 O3 1.947299 1_555
Ge4 O13 1.770913 1_555
Ge4 O4 1.786919 1_555
Ge4 O2 1.789973 1_555
Ge4 O1 1.792672 1_555
Ge5 O12 1.770913 1_555
Ge5 O5 1.786919 1_555
Ge5 O3 1.789973 1_555
Ge5 O0 1.792672 1_555
