# generated using pymatgen
data_Sr4La4Mn7CuO24
_symmetry_space_group_name_H-M   'P 1'
_cell_length_a   5.45798800
_cell_length_b   5.55202998
_cell_length_c   18.19424486
_cell_angle_alpha   97.41998097
_cell_angle_beta   90.03037952
_cell_angle_gamma   119.41839319
_symmetry_Int_Tables_number   1
_chemical_formula_structural   Sr4La4Mn7CuO24
_chemical_formula_sum   'Sr4 La4 Mn7 Cu1 O24'
_cell_volume   474.91791722
_cell_formula_units_Z   1
loop_
 _symmetry_equiv_pos_site_id
 _symmetry_equiv_pos_as_xyz
  1  'x, y, z'
loop_
 _atom_site_type_symbol
 _atom_site_label
 _atom_site_symmetry_multiplicity
 _atom_site_fract_x
 _atom_site_fract_y
 _atom_site_fract_z
 _atom_site_occupancy
  Sr  Sr0  1  0.37637700  0.68669500  0.43855800  1
  Sr  Sr1  1  0.87735700  0.43861000  0.18712600  1
  Sr  Sr2  1  0.62362300  0.31330500  0.56144200  1
  Sr  Sr3  1  0.12264300  0.56139000  0.81287400  1
  La  La0  1  0.87166900  0.93735600  0.68503900  1
  La  La1  1  0.37301400  0.18658800  0.93893600  1
  La  La2  1  0.62698600  0.81341200  0.06106400  1
  La  La3  1  0.12833100  0.06264400  0.31496100  1
  Mn  Mn0  1  0.75105700  0.87376500  0.87458300  1
  Mn  Mn1  1  0.24939500  0.62391100  0.62439600  1
  Mn  Mn2  1  0.75060500  0.37608900  0.37560400  1
  Mn  Mn3  1  0.24894300  0.12623500  0.12541700  1
  Mn  Mn4  1  0.49868600  0.24883900  0.74962100  1
  Mn  Mn5  1  0.00000000  0.00000000  0.50000000  1
  Mn  Mn6  1  0.50131400  0.75116100  0.25037900  1
  Cu  Cu0  1  0.00000000  0.50000000  0.00000000  1
  O  O0  1  0.62012200  0.55805100  0.81286100  1
  O  O1  1  0.11953100  0.30632500  0.56595100  1
  O  O2  1  0.62656400  0.06015400  0.31094900  1
  O  O3  1  0.14241400  0.83926700  0.06335800  1
  O  O4  1  0.88812800  0.39798100  0.69725900  1
  O  O5  1  0.38973100  0.16269100  0.44342500  1
  O  O6  1  0.90280900  0.91542000  0.20020100  1
  O  O7  1  0.40031400  0.65061400  0.94852100  1
  O  O8  1  0.56163900  0.03710500  0.82484500  1
  O  O9  1  0.07143100  0.79077900  0.57434500  1
  O  O10  1  0.56124800  0.52569600  0.31991700  1
  O  O11  1  0.06023000  0.26967300  0.07084000  1
  O  O12  1  0.37343600  0.93984600  0.68905100  1
  O  O13  1  0.88046900  0.69367500  0.43404900  1
  O  O14  1  0.37987800  0.44194900  0.18713900  1
  O  O15  1  0.85758600  0.16073300  0.93664200  1
  O  O16  1  0.43875200  0.47430400  0.68008300  1
  O  O17  1  0.92856900  0.20922100  0.42565500  1
  O  O18  1  0.43836100  0.96289500  0.17515500  1
  O  O19  1  0.93977000  0.73032700  0.92916000  1
  O  O20  1  0.61026900  0.83730900  0.55657500  1
  O  O21  1  0.09719100  0.08458000  0.79979900  1
  O  O22  1  0.59968600  0.34938600  0.05147900  1
  O  O23  1  0.11187200  0.60201900  0.30274100  1
loop_
_geom_bond_atom_site_label_1
_geom_bond_atom_site_label_2
_geom_bond_distance
_geom_bond_site_symmetry_2
La0 O21 2.260739 1_665
La0 O16 2.484559 1_555
La0 O4 2.495045 1_565
La0 O9 2.521475 1_655
La0 O20 2.586442 1_555
La0 O12 2.727135 1_555
La0 O12 2.732763 1_655
La0 O4 3.075956 1_555
La1 O22 2.227363 1_556
La1 O19 2.457416 1_445
La1 O7 2.489315 1_555
La1 O8 2.540531 1_555
La1 O21 2.789917 1_555
La1 O7 3.078514 1_545
La2 O7 2.227363 1_554
La2 O11 2.457416 1_665
La2 O22 2.489315 1_555
La2 O18 2.540531 1_555
La2 O6 2.789917 1_555
La2 O22 3.078514 1_565
La3 O6 2.260739 1_445
La3 O10 2.484559 1_555
La3 O23 2.495045 1_545
La3 O17 2.521475 1_455
La3 O5 2.586442 1_555
La3 O2 2.727135 1_555
La3 O2 2.732763 1_455
La3 O23 3.075956 1_555
Mn0 O15 1.666149 1_565
Mn0 O0 1.761950 1_555
Mn0 O19 1.920957 1_555
Mn0 O8 1.960143 1_565
Mn0 O21 2.243254 1_665
Mn0 O7 2.261120 1_555
Mn1 O1 1.740504 1_555
Mn1 O12 1.794034 1_555
Mn1 O9 1.931851 1_555
Mn1 O16 1.960659 1_555
Mn1 O20 2.212145 1_555
Mn1 O4 2.285034 1_455
Mn2 O13 1.740504 1_555
Mn2 O2 1.794034 1_555
Mn2 O17 1.931851 1_555
Mn2 O10 1.960659 1_555
Mn2 O5 2.212145 1_555
Mn2 O23 2.285034 1_655
Mn3 O3 1.666149 1_545
Mn3 O14 1.761950 1_555
Mn3 O11 1.920957 1_555
Mn3 O18 1.960143 1_545
Mn3 O6 2.243254 1_445
Mn3 O22 2.261120 1_555
Mn4 O12 1.727331 1_545
Mn4 O0 1.755461 1_555
Mn4 O16 2.021280 1_555
Mn4 O8 2.045732 1_555
Mn4 O4 2.142005 1_555
Mn4 O21 2.172822 1_555
Mn5 O1 1.772008 1_555
Mn5 O13 1.772008 1_445
Mn5 O17 2.044782 1_455
Mn5 O9 2.044782 1_545
Mn5 O20 2.180630 1_445
Mn5 O5 2.180630 1_555
Mn6 O2 1.727331 1_565
Mn6 O14 1.755461 1_555
Mn6 O10 2.021280 1_555
Mn6 O18 2.045732 1_555
Mn6 O23 2.142005 1_555
Mn6 O6 2.172822 1_555
Cu0 O15 1.865735 1_454
Cu0 O3 1.865735 1_555
Cu0 O19 2.059802 1_454
Cu0 O11 2.059802 1_555
Cu0 O7 2.181735 1_554
Cu0 O22 2.181735 1_455
O0 Sr3 2.724388 1_555
O0 Sr3 2.733695 1_655
O1 Sr2 2.727245 1_455
O1 Sr2 2.733927 1_555
O1 Sr0 3.186961 1_555
O2 Sr1 3.124832 1_555
O2 Sr0 3.165392 1_545
O3 Sr1 3.201235 1_455
O4 Sr3 2.291228 1_655
O4 Sr2 2.727800 1_555
O5 Sr2 2.328985 1_555
O5 Sr0 2.597610 1_545
O5 Sr0 2.958367 1_555
O6 Sr1 2.561238 1_555
O6 Sr1 3.014698 1_565
O7 Sr3 2.752446 1_555
O8 Sr3 2.529498 1_545
O8 Sr3 3.050371 1_655
O9 Sr2 2.555398 1_455
O9 Sr2 3.023591 1_565
O9 Sr0 3.128609 1_555
O10 Sr0 2.620421 1_555
O10 Sr1 3.093527 1_555
O11 Sr1 2.600323 1_455
O12 Sr3 3.124832 1_555
O12 Sr2 3.165392 1_565
O13 Sr0 2.727245 1_655
O13 Sr0 2.733927 1_555
O13 Sr2 3.186961 1_555
O14 Sr1 2.724388 1_555
O14 Sr1 2.733695 1_455
O15 Sr3 3.201235 1_655
O16 Sr2 2.620421 1_555
O16 Sr3 3.093527 1_555
O17 Sr0 2.555398 1_655
O17 Sr0 3.023591 1_545
O17 Sr2 3.128609 1_555
O18 Sr1 2.529498 1_565
O18 Sr1 3.050371 1_455
O19 Sr3 2.600323 1_655
O20 Sr0 2.328985 1_555
O20 Sr2 2.597610 1_565
O20 Sr2 2.958367 1_555
O21 Sr3 2.561238 1_555
O21 Sr3 3.014698 1_545
O22 Sr1 2.752446 1_555
O23 Sr1 2.291228 1_455
O23 Sr0 2.727800 1_555
