# generated using pymatgen
data_ThFe2
_symmetry_space_group_name_H-M   'P 1'
_cell_length_a   3.54446600
_cell_length_b   3.54446600
_cell_length_c   5.23969995
_cell_angle_alpha   109.76918065
_cell_angle_beta   109.76918065
_cell_angle_gamma   90.00000000
_symmetry_Int_Tables_number   1
_chemical_formula_structural   ThFe2
_chemical_formula_sum   'Th1 Fe2'
_cell_volume   57.80842615
_cell_formula_units_Z   1
loop_
 _symmetry_equiv_pos_site_id
 _symmetry_equiv_pos_as_xyz
  1  'x, y, z'
loop_
 _atom_site_type_symbol
 _atom_site_label
 _atom_site_symmetry_multiplicity
 _atom_site_fract_x
 _atom_site_fract_y
 _atom_site_fract_z
 _atom_site_occupancy
  Th  Th0  1  0.00000000  0.00000000  0.00000000  1
  Fe  Fe0  1  0.25000000  0.75000000  0.50000000  1
  Fe  Fe1  1  0.75000000  0.25000000  0.50000000  1
loop_
_geom_bond_atom_site_label_1
_geom_bond_atom_site_label_2
_geom_bond_distance
_geom_bond_site_symmetry_2
Fe0 Fe1 2.506316 1_555
Fe0 Fe1 2.506316 1_565
Fe0 Fe1 2.506316 1_465
Fe0 Fe1 2.506316 1_455
Fe0 Th0 2.904138 1_666
Fe0 Th0 2.904138 1_565
Fe0 Th0 2.904138 1_555
Fe0 Th0 2.904138 1_566
Fe1 Th0 2.904138 1_666
Fe1 Th0 2.904138 1_656
Fe1 Th0 2.904138 1_555
Fe1 Th0 2.904138 1_655
