# generated using pymatgen
data_MgZn
_symmetry_space_group_name_H-M   'P 1'
_cell_length_a   9.54661543
_cell_length_b   9.54661543
_cell_length_c   9.54661475
_cell_angle_alpha   38.72613670
_cell_angle_beta   38.72613670
_cell_angle_gamma   38.72613969
_symmetry_Int_Tables_number   1
_chemical_formula_structural   MgZn
_chemical_formula_sum   'Mg8 Zn8'
_cell_volume   306.07580799
_cell_formula_units_Z   8
loop_
 _symmetry_equiv_pos_site_id
 _symmetry_equiv_pos_as_xyz
  1  'x, y, z'
loop_
 _atom_site_type_symbol
 _atom_site_label
 _atom_site_symmetry_multiplicity
 _atom_site_fract_x
 _atom_site_fract_y
 _atom_site_fract_z
 _atom_site_occupancy
  Mg  Mg0_0  1  0.00000000  0.00000000  0.00000000  1
  Mg  Mg0_1  1  0.00000000  0.00000000  0.50000000  1
  Mg  Mg0_2  1  0.00000000  0.50000000  0.00000000  1
  Mg  Mg0_3  1  0.00000000  0.50000000  0.50000000  1
  Mg  Mg0_4  1  0.50000000  0.00000000  0.00000000  1
  Mg  Mg0_5  1  0.50000000  0.00000000  0.50000000  1
  Mg  Mg0_6  1  0.50000000  0.50000000  0.00000000  1
  Mg  Mg0_7  1  0.50000000  0.50000000  0.50000000  1
  Zn  Zn0_0  1  0.25000000  0.25000000  0.25000000  1
  Zn  Zn0_1  1  0.25000000  0.25000000  0.75000000  1
  Zn  Zn0_2  1  0.25000000  0.75000000  0.25000000  1
  Zn  Zn0_3  1  0.25000000  0.75000000  0.75000000  1
  Zn  Zn0_4  1  0.75000000  0.25000000  0.25000000  1
  Zn  Zn0_5  1  0.75000000  0.25000000  0.75000000  1
  Zn  Zn0_6  1  0.75000000  0.75000000  0.25000000  1
  Zn  Zn0_7  1  0.75000000  0.75000000  0.75000000  1
loop_
_geom_bond_atom_site_label_1
_geom_bond_atom_site_label_2
_geom_bond_distance
_geom_bond_site_symmetry_2
Mg0_0 Zn0_4 2.863696 1_455
Mg0_0 Zn0_3 2.863696 1_544
Mg0_0 Zn0_2 2.863696 1_545
Mg0_0 Zn0_5 2.863696 1_454
Mg0_0 Zn0_6 2.863696 1_445
Mg0_0 Zn0_1 2.863696 1_554
Mg0_0 Mg0_3 3.165210 1_545
Mg0_0 Mg0_5 3.165210 1_455
Mg0_0 Mg0_5 3.165210 1_554
Mg0_0 Mg0_3 3.165210 1_554
Mg0_0 Mg0_6 3.165210 1_545
Mg0_0 Mg0_6 3.165210 1_455
Mg0_1 Zn0_5 2.863696 1_455
Mg0_1 Zn0_2 2.863696 1_545
Mg0_1 Zn0_4 2.863696 1_455
Mg0_1 Zn0_3 2.863696 1_545
Mg0_1 Zn0_7 2.863696 1_445
Mg0_1 Zn0_0 2.863696 1_555
Mg0_1 Mg0_2 3.165210 1_555
Mg0_1 Mg0_4 3.165210 1_456
Mg0_1 Mg0_2 3.165210 1_546
Mg0_1 Mg0_4 3.165210 1_555
Mg0_1 Mg0_7 3.165210 1_455
Mg0_1 Mg0_7 3.165210 1_545
Mg0_2 Zn0_7 2.863696 1_454
Mg0_2 Zn0_1 2.863696 1_554
Mg0_2 Zn0_6 2.863696 1_455
Mg0_2 Zn0_0 2.863696 1_555
Mg0_2 Zn0_3 2.863696 1_554
Mg0_2 Zn0_4 2.863696 1_455
Mg0_2 Mg0_7 3.165210 1_455
Mg0_2 Mg0_7 3.165210 1_554
Mg0_2 Mg0_4 3.165210 1_555
Mg0_2 Mg0_4 3.165210 1_465
Mg0_3 Zn0_0 2.863696 1_555
Mg0_3 Zn0_1 2.863696 1_555
Mg0_3 Zn0_6 2.863696 1_455
Mg0_3 Zn0_7 2.863696 1_455
Mg0_3 Zn0_2 2.863696 1_555
Mg0_3 Zn0_5 2.863696 1_455
Mg0_3 Mg0_6 3.165210 1_555
Mg0_3 Mg0_6 3.165210 1_456
Mg0_3 Mg0_5 3.165210 1_555
Mg0_3 Mg0_5 3.165210 1_465
Mg0_4 Zn0_7 2.863696 1_544
Mg0_4 Zn0_6 2.863696 1_545
Mg0_4 Zn0_1 2.863696 1_554
Mg0_4 Zn0_0 2.863696 1_555
Mg0_4 Zn0_5 2.863696 1_554
Mg0_4 Zn0_2 2.863696 1_545
Mg0_4 Mg0_7 3.165210 1_554
Mg0_4 Mg0_7 3.165210 1_545
Mg0_5 Zn0_0 2.863696 1_555
Mg0_5 Zn0_6 2.863696 1_545
Mg0_5 Zn0_1 2.863696 1_555
Mg0_5 Zn0_7 2.863696 1_545
Mg0_5 Zn0_4 2.863696 1_555
Mg0_5 Zn0_3 2.863696 1_545
Mg0_5 Mg0_6 3.165210 1_555
Mg0_5 Mg0_6 3.165210 1_546
Mg0_6 Zn0_4 2.863696 1_555
Mg0_6 Zn0_3 2.863696 1_554
Mg0_6 Zn0_2 2.863696 1_555
Mg0_6 Zn0_5 2.863696 1_554
Mg0_6 Zn0_0 2.863696 1_555
Mg0_6 Zn0_7 2.863696 1_554
Mg0_7 Zn0_5 2.863696 1_555
Mg0_7 Zn0_2 2.863696 1_555
Mg0_7 Zn0_3 2.863696 1_555
Mg0_7 Zn0_4 2.863696 1_555
Mg0_7 Zn0_6 2.863696 1_555
Mg0_7 Zn0_1 2.863696 1_555
