# generated using pymatgen
data_Cd(N2Cl3)2
_symmetry_space_group_name_H-M   'P 1'
_cell_length_a   9.88750618
_cell_length_b   9.88750618
_cell_length_c   9.88750633
_cell_angle_alpha   113.06709006
_cell_angle_beta   113.06709006
_cell_angle_gamma   113.06709251
_symmetry_Int_Tables_number   1
_chemical_formula_structural   Cd(N2Cl3)2
_chemical_formula_sum   'Cd2 N8 Cl12'
_cell_volume   625.82220831
_cell_formula_units_Z   2
loop_
 _symmetry_equiv_pos_site_id
 _symmetry_equiv_pos_as_xyz
  1  'x, y, z'
loop_
 _atom_site_type_symbol
 _atom_site_label
 _atom_site_symmetry_multiplicity
 _atom_site_fract_x
 _atom_site_fract_y
 _atom_site_fract_z
 _atom_site_occupancy
  Cd  Cd0  1  0.50000000  0.50000000  0.50000000  1
  Cd  Cd1  1  0.00000000  0.00000000  0.00000000  1
  N  N0  1  0.25000000  0.25000000  0.25000000  1
  N  N1  1  0.75000000  0.75000000  0.75000000  1
  N  N2  1  0.98960500  0.51039500  0.25000000  1
  N  N3  1  0.25000000  0.98960500  0.51039500  1
  N  N4  1  0.51039500  0.25000000  0.98960500  1
  N  N5  1  0.75000000  0.01039500  0.48960500  1
  N  N6  1  0.48960500  0.75000000  0.01039500  1
  N  N7  1  0.01039500  0.48960500  0.75000000  1
  Cl  Cl0  1  0.45261200  0.17162500  0.57635900  1
  Cl  Cl1  1  0.57635900  0.45261200  0.17162500  1
  Cl  Cl2  1  0.17162500  0.57635900  0.45261200  1
  Cl  Cl3  1  0.07635900  0.67162500  0.95261200  1
  Cl  Cl4  1  0.95261200  0.07635900  0.67162500  1
  Cl  Cl5  1  0.67162500  0.95261200  0.07635900  1
  Cl  Cl6  1  0.54738800  0.82837500  0.42364100  1
  Cl  Cl7  1  0.42364100  0.54738800  0.82837500  1
  Cl  Cl8  1  0.82837500  0.42364100  0.54738800  1
  Cl  Cl9  1  0.92364100  0.32837500  0.04738800  1
  Cl  Cl10  1  0.04738800  0.92364100  0.32837500  1
  Cl  Cl11  1  0.32837500  0.04738800  0.92364100  1
loop_
_geom_bond_atom_site_label_1
_geom_bond_atom_site_label_2
_geom_bond_distance
_geom_bond_site_symmetry_2
Cd0 N0 1.991583 1_555
Cd0 N1 1.991583 1_555
Cd1 N0 1.991583 1_555
Cd1 N1 1.991583 1_444
Cl0 N3 1.705500 1_545
Cl1 N4 1.705500 1_554
Cl2 N2 1.705500 1_455
Cl3 N7 1.705500 1_555
Cl4 N5 1.705500 1_555
Cl5 N6 1.705500 1_555
Cl6 N5 1.705500 1_565
Cl7 N6 1.705500 1_556
Cl8 N7 1.705500 1_655
Cl9 N2 1.705500 1_555
Cl10 N3 1.705500 1_555
Cl11 N4 1.705500 1_555
