# generated using pymatgen
data_YMg
_symmetry_space_group_name_H-M   'P 1'
_cell_length_a   12.91345696
_cell_length_b   12.91345696
_cell_length_c   11.51713943
_cell_angle_alpha   66.55994884
_cell_angle_beta   66.55994884
_cell_angle_gamma   31.07887781
_symmetry_Int_Tables_number   1
_chemical_formula_structural   YMg
_chemical_formula_sum   'Y16 Mg16'
_cell_volume   902.98015595
_cell_formula_units_Z   16
loop_
 _symmetry_equiv_pos_site_id
 _symmetry_equiv_pos_as_xyz
  1  'x, y, z'
loop_
 _atom_site_type_symbol
 _atom_site_label
 _atom_site_symmetry_multiplicity
 _atom_site_fract_x
 _atom_site_fract_y
 _atom_site_fract_z
 _atom_site_occupancy
  Y  Y0_0  1  0.43968300  0.43968300  0.40106100  1
  Y  Y0_1  1  0.43968300  0.43968300  0.90106100  1
  Y  Y0_2  1  0.43968300  0.93968300  0.40106100  1
  Y  Y0_3  1  0.43968300  0.93968300  0.90106100  1
  Y  Y0_4  1  0.93968300  0.43968300  0.40106100  1
  Y  Y0_5  1  0.93968300  0.43968300  0.90106100  1
  Y  Y0_6  1  0.93968300  0.93968300  0.40106100  1
  Y  Y0_7  1  0.93968300  0.93968300  0.90106100  1
  Y  Y1_0  1  0.06031700  0.06031700  0.09893900  1
  Y  Y1_1  1  0.06031700  0.06031700  0.59893900  1
  Y  Y1_2  1  0.06031700  0.56031700  0.09893900  1
  Y  Y1_3  1  0.06031700  0.56031700  0.59893900  1
  Y  Y1_4  1  0.56031700  0.06031700  0.09893900  1
  Y  Y1_5  1  0.56031700  0.06031700  0.59893900  1
  Y  Y1_6  1  0.56031700  0.56031700  0.09893900  1
  Y  Y1_7  1  0.56031700  0.56031700  0.59893900  1
  Mg  Mg0_0  1  0.31621950  0.31621950  0.34844500  1
  Mg  Mg0_1  1  0.31621950  0.31621950  0.84844500  1
  Mg  Mg0_2  1  0.31621950  0.81621950  0.34844500  1
  Mg  Mg0_3  1  0.31621950  0.81621950  0.84844500  1
  Mg  Mg0_4  1  0.81621950  0.31621950  0.34844500  1
  Mg  Mg0_5  1  0.81621950  0.31621950  0.84844500  1
  Mg  Mg0_6  1  0.81621950  0.81621950  0.34844500  1
  Mg  Mg0_7  1  0.81621950  0.81621950  0.84844500  1
  Mg  Mg1_0  1  0.18378050  0.18378050  0.15155500  1
  Mg  Mg1_1  1  0.18378050  0.18378050  0.65155500  1
  Mg  Mg1_2  1  0.18378050  0.68378050  0.15155500  1
  Mg  Mg1_3  1  0.18378050  0.68378050  0.65155500  1
  Mg  Mg1_4  1  0.68378050  0.18378050  0.15155500  1
  Mg  Mg1_5  1  0.68378050  0.18378050  0.65155500  1
  Mg  Mg1_6  1  0.68378050  0.68378050  0.15155500  1
  Mg  Mg1_7  1  0.68378050  0.68378050  0.65155500  1
loop_
_geom_bond_atom_site_label_1
_geom_bond_atom_site_label_2
_geom_bond_distance
_geom_bond_site_symmetry_2
Y0_0 Y0_6 3.459536 1_455
Y0_0 Y0_6 3.459536 1_545
Y0_0 Y1_3 3.534115 1_555
Y0_0 Y1_5 3.534115 1_555
Y0_0 Y1_6 3.534533 1_555
Y0_1 Y0_7 3.459536 1_455
Y0_1 Y0_7 3.459536 1_545
Y0_1 Y1_2 3.534115 1_556
Y0_1 Y1_4 3.534115 1_556
Y0_1 Y1_7 3.534533 1_555
Y0_2 Y0_4 3.459536 1_555
Y0_2 Y0_4 3.459536 1_465
Y0_2 Y1_7 3.534115 1_555
Y0_2 Y1_1 3.534115 1_565
Y0_2 Y1_4 3.534533 1_565
Y0_3 Y0_5 3.459536 1_555
Y0_3 Y0_5 3.459536 1_465
Y0_3 Y1_6 3.534115 1_556
Y0_3 Y1_0 3.534115 1_566
Y0_3 Y1_5 3.534533 1_565
Y0_4 Y1_7 3.534115 1_555
Y0_4 Y1_1 3.534115 1_655
Y0_4 Y1_2 3.534533 1_655
Y0_5 Y1_6 3.534115 1_556
Y0_5 Y1_0 3.534115 1_656
Y0_5 Y1_3 3.534533 1_655
Y0_6 Y1_3 3.534115 1_655
Y0_6 Y1_5 3.534115 1_565
Y0_6 Y1_0 3.534533 1_665
Y0_7 Y1_2 3.534115 1_656
Y0_7 Y1_4 3.534115 1_566
Y0_7 Y1_1 3.534533 1_665
Y1_0 Y1_6 3.459536 1_545
Y1_0 Y1_6 3.459536 1_455
Y1_1 Y1_7 3.459536 1_455
Y1_1 Y1_7 3.459536 1_545
Y1_2 Y1_4 3.459536 1_555
Y1_2 Y1_4 3.459536 1_465
Y1_3 Y1_5 3.459536 1_555
Y1_3 Y1_5 3.459536 1_465
Mg0_0 Y1_5 3.314642 1_555
Mg0_0 Y1_3 3.314642 1_555
Mg0_0 Mg1_4 3.348685 1_555
Mg0_0 Mg1_2 3.348685 1_555
Mg0_0 Y0_0 3.367856 1_555
Mg0_0 Y1_2 3.408773 1_555
Mg0_0 Y1_4 3.408773 1_555
Mg0_0 Y0_2 3.420141 1_545
Mg0_0 Y0_4 3.420141 1_455
Mg0_0 Mg0_6 3.459536 1_455
Mg0_0 Mg0_6 3.459536 1_545
Mg0_1 Y1_4 3.314642 1_556
Mg0_1 Y1_2 3.314642 1_556
Mg0_1 Mg1_5 3.348685 1_555
Mg0_1 Mg1_3 3.348685 1_555
Mg0_1 Y0_1 3.367856 1_555
Mg0_1 Y1_3 3.408773 1_555
Mg0_1 Y1_5 3.408773 1_555
Mg0_1 Y0_3 3.420141 1_545
Mg0_1 Y0_5 3.420141 1_455
Mg0_1 Mg0_7 3.459536 1_455
Mg0_1 Mg0_7 3.459536 1_545
Mg0_2 Y1_1 3.314642 1_565
Mg0_2 Y1_7 3.314642 1_555
Mg0_2 Mg1_0 3.348685 1_565
Mg0_2 Mg1_6 3.348685 1_555
Mg0_2 Y0_2 3.367856 1_555
Mg0_2 Y1_6 3.408773 1_555
Mg0_2 Y1_0 3.408773 1_565
Mg0_2 Y0_6 3.420141 1_455
Mg0_2 Y0_0 3.420141 1_555
Mg0_2 Mg0_4 3.459536 1_555
Mg0_2 Mg0_4 3.459536 1_465
Mg0_3 Y1_0 3.314642 1_566
Mg0_3 Y1_6 3.314642 1_556
Mg0_3 Mg1_1 3.348685 1_565
Mg0_3 Mg1_7 3.348685 1_555
Mg0_3 Y0_3 3.367856 1_555
Mg0_3 Y1_7 3.408773 1_555
Mg0_3 Y1_1 3.408773 1_565
Mg0_3 Y0_7 3.420141 1_455
Mg0_3 Y0_1 3.420141 1_555
Mg0_3 Mg0_5 3.459536 1_555
Mg0_3 Mg0_5 3.459536 1_465
Mg0_4 Y1_1 3.314642 1_655
Mg0_4 Y1_7 3.314642 1_555
Mg0_4 Mg1_6 3.348685 1_555
Mg0_4 Mg1_0 3.348685 1_655
Mg0_4 Y0_4 3.367856 1_555
Mg0_4 Y1_6 3.408773 1_555
Mg0_4 Y1_0 3.408773 1_655
Mg0_4 Y0_6 3.420141 1_545
Mg0_4 Y0_0 3.420141 1_555
Mg0_5 Y1_0 3.314642 1_656
Mg0_5 Y1_6 3.314642 1_556
Mg0_5 Mg1_1 3.348685 1_655
Mg0_5 Mg1_7 3.348685 1_555
Mg0_5 Y0_5 3.367856 1_555
Mg0_5 Y1_7 3.408773 1_555
Mg0_5 Y1_1 3.408773 1_655
Mg0_5 Y0_7 3.420141 1_545
Mg0_5 Y0_1 3.420141 1_555
Mg0_6 Y1_5 3.314642 1_565
Mg0_6 Y1_3 3.314642 1_655
Mg0_6 Mg1_2 3.348685 1_655
Mg0_6 Mg1_4 3.348685 1_565
Mg0_6 Y0_6 3.367856 1_555
Mg0_6 Y1_2 3.408773 1_655
Mg0_6 Y1_4 3.408773 1_565
Mg0_6 Y0_4 3.420141 1_555
Mg0_6 Y0_2 3.420141 1_555
Mg0_7 Y1_4 3.314642 1_566
Mg0_7 Y1_2 3.314642 1_656
Mg0_7 Mg1_5 3.348685 1_565
Mg0_7 Mg1_3 3.348685 1_655
Mg0_7 Y0_7 3.367856 1_555
Mg0_7 Y1_3 3.408773 1_655
Mg0_7 Y1_5 3.408773 1_565
Mg0_7 Y0_3 3.420141 1_555
Mg0_7 Y0_5 3.420141 1_555
Mg1_0 Y0_3 3.314642 1_544
Mg1_0 Y0_5 3.314642 1_454
Mg1_0 Y1_0 3.367856 1_555
Mg1_0 Y0_2 3.408773 1_545
Mg1_0 Y0_4 3.408773 1_455
Mg1_0 Y1_4 3.420141 1_555
Mg1_0 Y1_2 3.420141 1_555
Mg1_0 Mg1_6 3.459536 1_545
Mg1_0 Mg1_6 3.459536 1_455
Mg1_1 Y0_2 3.314642 1_545
Mg1_1 Y0_4 3.314642 1_455
Mg1_1 Y1_1 3.367856 1_555
Mg1_1 Y0_5 3.408773 1_455
Mg1_1 Y0_3 3.408773 1_545
Mg1_1 Y1_3 3.420141 1_555
Mg1_1 Y1_5 3.420141 1_555
Mg1_1 Mg1_7 3.459536 1_455
Mg1_1 Mg1_7 3.459536 1_545
Mg1_2 Y0_7 3.314642 1_454
Mg1_2 Y0_1 3.314642 1_554
Mg1_2 Y1_2 3.367856 1_555
Mg1_2 Y0_0 3.408773 1_555
Mg1_2 Y0_6 3.408773 1_455
Mg1_2 Y1_0 3.420141 1_565
Mg1_2 Y1_6 3.420141 1_555
Mg1_2 Mg1_4 3.459536 1_555
Mg1_2 Mg1_4 3.459536 1_465
Mg1_3 Y0_6 3.314642 1_455
Mg1_3 Y0_0 3.314642 1_555
Mg1_3 Y1_3 3.367856 1_555
Mg1_3 Y0_1 3.408773 1_555
Mg1_3 Y0_7 3.408773 1_455
Mg1_3 Y1_1 3.420141 1_565
Mg1_3 Y1_7 3.420141 1_555
Mg1_3 Mg1_5 3.459536 1_555
Mg1_3 Mg1_5 3.459536 1_465
Mg1_4 Y0_7 3.314642 1_544
Mg1_4 Y0_1 3.314642 1_554
Mg1_4 Y1_4 3.367856 1_555
Mg1_4 Y0_0 3.408773 1_555
Mg1_4 Y0_6 3.408773 1_545
Mg1_4 Y1_0 3.420141 1_655
Mg1_4 Y1_6 3.420141 1_555
Mg1_5 Y0_6 3.314642 1_545
Mg1_5 Y0_0 3.314642 1_555
Mg1_5 Y1_5 3.367856 1_555
Mg1_5 Y0_1 3.408773 1_555
Mg1_5 Y0_7 3.408773 1_545
Mg1_5 Y1_1 3.420141 1_655
Mg1_5 Y1_7 3.420141 1_555
Mg1_6 Y0_3 3.314642 1_554
Mg1_6 Y0_5 3.314642 1_554
Mg1_6 Y1_6 3.367856 1_555
Mg1_6 Y0_2 3.408773 1_555
Mg1_6 Y0_4 3.408773 1_555
Mg1_6 Y1_4 3.420141 1_565
Mg1_6 Y1_2 3.420141 1_655
Mg1_7 Y0_4 3.314642 1_555
Mg1_7 Y0_2 3.314642 1_555
Mg1_7 Y1_7 3.367856 1_555
Mg1_7 Y0_5 3.408773 1_555
Mg1_7 Y0_3 3.408773 1_555
Mg1_7 Y1_5 3.420141 1_565
Mg1_7 Y1_3 3.420141 1_655
