# generated using pymatgen
data_Co2Mo3
_symmetry_space_group_name_H-M   'P 1'
_cell_length_a   4.29848900
_cell_length_b   4.83138100
_cell_length_c   7.01771373
_cell_angle_alpha   72.46957472
_cell_angle_beta   90.00000000
_cell_angle_gamma   90.00000000
_symmetry_Int_Tables_number   1
_chemical_formula_structural   Co2Mo3
_chemical_formula_sum   'Co4 Mo6'
_cell_volume   138.97269362
_cell_formula_units_Z   2
loop_
 _symmetry_equiv_pos_site_id
 _symmetry_equiv_pos_as_xyz
  1  'x, y, z'
loop_
 _atom_site_type_symbol
 _atom_site_label
 _atom_site_symmetry_multiplicity
 _atom_site_fract_x
 _atom_site_fract_y
 _atom_site_fract_z
 _atom_site_occupancy
  Co  Co0  1  0.75000000  0.12395100  0.90889300  1
  Co  Co1  1  0.25000000  0.87604900  0.09110700  1
  Co  Co2  1  0.25000000  0.67156200  0.48190900  1
  Co  Co3  1  0.75000000  0.32843800  0.51809100  1
  Mo  Mo0  1  0.75000000  0.72430200  0.72144500  1
  Mo  Mo1  1  0.25000000  0.27569800  0.27855500  1
  Mo  Mo2  1  0.25000000  0.06577800  0.67229800  1
  Mo  Mo3  1  0.75000000  0.93422200  0.32770200  1
  Mo  Mo4  1  0.75000000  0.57659000  0.11196000  1
  Mo  Mo5  1  0.25000000  0.42341000  0.88804000  1
loop_
_geom_bond_atom_site_label_1
_geom_bond_atom_site_label_2
_geom_bond_distance
_geom_bond_site_symmetry_2
Co0 Mo5 2.570282 1_555
Co0 Mo5 2.570282 1_655
Co0 Mo4 2.598836 1_546
Co0 Co1 2.601204 1_546
Co0 Co1 2.601204 1_646
Co0 Co3 2.620170 1_555
Co0 Mo0 2.643627 1_545
Co0 Mo2 2.781393 1_555
Co0 Mo2 2.781393 1_655
Co0 Mo0 2.800876 1_555
Co0 Mo3 2.802758 1_546
Co0 Mo4 2.947989 1_556
Co1 Mo4 2.570282 1_555
Co1 Mo4 2.570282 1_455
Co1 Mo5 2.598836 1_564
Co1 Co2 2.620170 1_555
Co1 Mo1 2.643627 1_565
Co1 Mo3 2.781393 1_555
Co1 Mo3 2.781393 1_455
Co1 Mo1 2.800876 1_555
Co1 Mo2 2.802758 1_564
Co1 Mo5 2.947989 1_554
Co2 Mo3 2.563873 1_455
Co2 Mo3 2.563873 1_555
Co2 Mo2 2.635468 1_565
Co2 Co3 2.679239 1_455
Co2 Co3 2.679239 1_555
Co2 Mo1 2.709009 1_555
Co2 Mo5 2.738982 1_555
Co2 Mo0 2.787106 1_555
Co2 Mo0 2.787106 1_455
Co2 Mo2 2.827614 1_555
Co2 Mo1 2.836669 1_565
Co3 Mo2 2.563873 1_555
Co3 Mo2 2.563873 1_655
Co3 Mo3 2.635468 1_545
Co3 Mo0 2.709009 1_555
Co3 Mo4 2.738982 1_555
Co3 Mo1 2.787106 1_555
Co3 Mo1 2.787106 1_655
Co3 Mo3 2.827614 1_555
Co3 Mo0 2.836669 1_545
Mo0 Mo4 2.615636 1_556
Mo0 Mo3 2.641117 1_555
Mo0 Mo5 2.659988 1_655
Mo0 Mo5 2.659988 1_555
Mo0 Mo2 2.667820 1_665
Mo0 Mo2 2.667820 1_565
Mo1 Mo5 2.615636 1_554
Mo1 Mo2 2.641117 1_555
Mo1 Mo4 2.659988 1_455
Mo1 Mo4 2.659988 1_555
Mo1 Mo3 2.667820 1_445
Mo1 Mo3 2.667820 1_545
Mo2 Mo5 2.617952 1_555
Mo2 Mo5 3.015534 1_545
Mo3 Mo4 2.617952 1_555
Mo3 Mo4 3.015534 1_565
Mo4 Mo5 2.887363 1_554
Mo4 Mo5 2.887363 1_654
