# generated using pymatgen
data_Mg5In
_symmetry_space_group_name_H-M   'P 1'
_cell_length_a   16.78917303
_cell_length_b   16.78917303
_cell_length_c   10.15098672
_cell_angle_alpha   90.00000000
_cell_angle_beta   90.00000000
_cell_angle_gamma   157.76612941
_symmetry_Int_Tables_number   1
_chemical_formula_structural   Mg5In
_chemical_formula_sum   'Mg40 In8'
_cell_volume   1082.69039635
_cell_formula_units_Z   8
loop_
 _symmetry_equiv_pos_site_id
 _symmetry_equiv_pos_as_xyz
  1  'x, y, z'
loop_
 _atom_site_type_symbol
 _atom_site_label
 _atom_site_symmetry_multiplicity
 _atom_site_fract_x
 _atom_site_fract_y
 _atom_site_fract_z
 _atom_site_occupancy
  Mg  Mg0_0  1  0.00038206  0.49961794  0.00000000  1
  Mg  Mg0_1  1  0.00038206  0.49961794  0.50000000  1
  Mg  Mg0_2  1  0.00038206  0.99961794  0.00000000  1
  Mg  Mg0_3  1  0.00038206  0.99961794  0.50000000  1
  Mg  Mg0_4  1  0.50038206  0.49961794  0.00000000  1
  Mg  Mg0_5  1  0.50038206  0.49961794  0.50000000  1
  Mg  Mg0_6  1  0.50038206  0.99961794  0.00000000  1
  Mg  Mg0_7  1  0.50038206  0.99961794  0.50000000  1
  Mg  Mg1_0  1  0.16657059  0.33342941  0.00000000  1
  Mg  Mg1_1  1  0.16657059  0.33342941  0.50000000  1
  Mg  Mg1_2  1  0.16657059  0.83342941  0.00000000  1
  Mg  Mg1_3  1  0.16657059  0.83342941  0.50000000  1
  Mg  Mg1_4  1  0.66657059  0.33342941  0.00000000  1
  Mg  Mg1_5  1  0.66657059  0.33342941  0.50000000  1
  Mg  Mg1_6  1  0.66657059  0.83342941  0.00000000  1
  Mg  Mg1_7  1  0.66657059  0.83342941  0.50000000  1
  Mg  Mg2_0  1  0.33283059  0.16716941  0.00000000  1
  Mg  Mg2_1  1  0.33283059  0.16716941  0.50000000  1
  Mg  Mg2_2  1  0.33283059  0.66716942  0.00000000  1
  Mg  Mg2_3  1  0.33283059  0.66716942  0.50000000  1
  Mg  Mg2_4  1  0.83283059  0.16716941  0.00000000  1
  Mg  Mg2_5  1  0.83283059  0.16716941  0.50000000  1
  Mg  Mg2_6  1  0.83283059  0.66716942  0.00000000  1
  Mg  Mg2_7  1  0.83283059  0.66716942  0.50000000  1
  Mg  Mg3_0  1  0.22242530  0.27757470  0.25000000  1
  Mg  Mg3_1  1  0.22242530  0.27757470  0.75000000  1
  Mg  Mg3_2  1  0.22242530  0.77757470  0.25000000  1
  Mg  Mg3_3  1  0.22242530  0.77757470  0.75000000  1
  Mg  Mg3_4  1  0.72242530  0.27757470  0.25000000  1
  Mg  Mg3_5  1  0.72242530  0.27757470  0.75000000  1
  Mg  Mg3_6  1  0.72242530  0.77757470  0.25000000  1
  Mg  Mg3_7  1  0.72242530  0.77757470  0.75000000  1
  Mg  Mg4_0  1  0.05585682  0.44414318  0.25000000  1
  Mg  Mg4_1  1  0.05585682  0.44414318  0.75000000  1
  Mg  Mg4_2  1  0.05585682  0.94414318  0.25000000  1
  Mg  Mg4_3  1  0.05585682  0.94414318  0.75000000  1
  Mg  Mg4_4  1  0.55585682  0.44414318  0.25000000  1
  Mg  Mg4_5  1  0.55585682  0.44414318  0.75000000  1
  Mg  Mg4_6  1  0.55585683  0.94414318  0.25000000  1
  Mg  Mg4_7  1  0.55585683  0.94414318  0.75000000  1
  In  In0_0  1  0.38860364  0.11139636  0.25000000  1
  In  In0_1  1  0.38860364  0.11139636  0.75000000  1
  In  In0_2  1  0.38860364  0.61139636  0.25000000  1
  In  In0_3  1  0.38860364  0.61139636  0.75000000  1
  In  In0_4  1  0.88860364  0.11139636  0.25000000  1
  In  In0_5  1  0.88860364  0.11139636  0.75000000  1
  In  In0_6  1  0.88860365  0.61139636  0.25000000  1
  In  In0_7  1  0.88860365  0.61139636  0.75000000  1
loop_
_geom_bond_atom_site_label_1
_geom_bond_atom_site_label_2
_geom_bond_distance
_geom_bond_site_symmetry_2
Mg0_0 Mg4_0 3.127459 1_555
Mg0_0 Mg4_1 3.127459 1_554
Mg0_0 Mg3_4 3.147765 1_455
Mg0_0 Mg3_5 3.147765 1_454
Mg0_0 Mg3_2 3.147765 1_555
Mg0_0 Mg3_3 3.147765 1_554
Mg0_0 Mg2_2 3.162177 1_555
Mg0_0 Mg2_4 3.162177 1_455
Mg0_0 Mg1_4 3.200837 1_455
Mg0_0 Mg1_2 3.200837 1_555
Mg0_0 Mg0_6 3.237154 1_445
Mg0_0 Mg0_6 3.237154 1_555
Mg0_1 Mg4_0 3.127459 1_555
Mg0_1 Mg4_1 3.127459 1_555
Mg0_1 Mg3_4 3.147765 1_455
Mg0_1 Mg3_5 3.147765 1_455
Mg0_1 Mg3_2 3.147765 1_555
Mg0_1 Mg3_3 3.147765 1_555
Mg0_1 Mg2_3 3.162177 1_555
Mg0_1 Mg2_5 3.162177 1_455
Mg0_1 Mg1_5 3.200837 1_455
Mg0_1 Mg1_3 3.200837 1_555
Mg0_1 Mg0_7 3.237154 1_445
Mg0_1 Mg0_7 3.237154 1_555
Mg0_2 Mg4_2 3.127459 1_555
Mg0_2 Mg4_3 3.127459 1_554
Mg0_2 Mg3_0 3.147765 1_565
Mg0_2 Mg3_1 3.147765 1_564
Mg0_2 Mg3_6 3.147765 1_455
Mg0_2 Mg3_7 3.147765 1_454
Mg0_2 Mg2_0 3.162177 1_565
Mg0_2 Mg2_6 3.162177 1_455
Mg0_2 Mg1_0 3.200837 1_565
Mg0_2 Mg1_6 3.200837 1_455
Mg0_2 Mg0_4 3.237154 1_455
Mg0_2 Mg0_4 3.237154 1_565
Mg0_3 Mg4_2 3.127459 1_555
Mg0_3 Mg4_3 3.127459 1_555
Mg0_3 Mg3_0 3.147765 1_565
Mg0_3 Mg3_6 3.147765 1_455
Mg0_3 Mg3_7 3.147765 1_455
Mg0_3 Mg3_1 3.147765 1_565
Mg0_3 Mg2_1 3.162177 1_565
Mg0_3 Mg2_7 3.162177 1_455
Mg0_3 Mg1_1 3.200837 1_565
Mg0_3 Mg1_7 3.200837 1_455
Mg0_3 Mg0_5 3.237154 1_455
Mg0_3 Mg0_5 3.237154 1_565
Mg0_4 Mg4_4 3.127459 1_555
Mg0_4 Mg4_5 3.127459 1_554
Mg0_4 Mg3_1 3.147765 1_554
Mg0_4 Mg3_0 3.147765 1_555
Mg0_4 Mg3_6 3.147765 1_555
Mg0_4 Mg3_7 3.147765 1_554
Mg0_4 Mg2_0 3.162177 1_555
Mg0_4 Mg2_6 3.162177 1_555
Mg0_4 Mg1_0 3.200837 1_555
Mg0_4 Mg1_6 3.200837 1_555
Mg0_5 Mg4_4 3.127459 1_555
Mg0_5 Mg4_5 3.127459 1_555
Mg0_5 Mg3_0 3.147765 1_555
Mg0_5 Mg3_1 3.147765 1_555
Mg0_5 Mg3_6 3.147765 1_555
Mg0_5 Mg3_7 3.147765 1_555
Mg0_5 Mg2_1 3.162177 1_555
Mg0_5 Mg2_7 3.162177 1_555
Mg0_5 Mg1_1 3.200837 1_555
Mg0_5 Mg1_7 3.200837 1_555
Mg0_6 Mg4_6 3.127459 1_555
Mg0_6 Mg4_7 3.127459 1_554
Mg0_6 Mg3_4 3.147765 1_565
Mg0_6 Mg3_5 3.147765 1_564
Mg0_6 Mg3_2 3.147765 1_555
Mg0_6 Mg3_3 3.147765 1_554
Mg0_6 Mg2_2 3.162177 1_555
Mg0_6 Mg2_4 3.162177 1_565
Mg0_6 Mg1_4 3.200837 1_565
Mg0_6 Mg1_2 3.200837 1_555
Mg0_7 Mg4_6 3.127459 1_555
Mg0_7 Mg4_7 3.127459 1_555
Mg0_7 Mg3_4 3.147765 1_565
Mg0_7 Mg3_5 3.147765 1_565
Mg0_7 Mg3_2 3.147765 1_555
Mg0_7 Mg3_3 3.147765 1_555
Mg0_7 Mg2_3 3.162177 1_555
Mg0_7 Mg2_5 3.162177 1_565
Mg0_7 Mg1_5 3.200837 1_565
Mg0_7 Mg1_3 3.200837 1_555
Mg1_0 Mg3_0 3.134792 1_555
Mg1_0 Mg3_1 3.134792 1_554
Mg1_0 Mg2_4 3.198806 1_455
Mg1_0 Mg2_2 3.198806 1_555
Mg1_0 Mg1_6 3.237154 1_445
Mg1_0 Mg1_6 3.237154 1_555
Mg1_1 Mg3_0 3.134792 1_555
Mg1_1 Mg3_1 3.134792 1_555
Mg1_1 Mg2_5 3.198806 1_455
Mg1_1 Mg2_3 3.198806 1_555
Mg1_1 Mg1_7 3.237154 1_445
Mg1_1 Mg1_7 3.237154 1_555
Mg1_2 Mg3_3 3.134792 1_554
Mg1_2 Mg3_2 3.134792 1_555
Mg1_2 Mg2_6 3.198806 1_455
Mg1_2 Mg2_0 3.198806 1_565
Mg1_2 Mg1_4 3.237154 1_565
Mg1_2 Mg1_4 3.237154 1_455
Mg1_3 Mg3_2 3.134792 1_555
Mg1_3 Mg3_3 3.134792 1_555
Mg1_3 Mg2_7 3.198806 1_455
Mg1_3 Mg2_1 3.198806 1_565
Mg1_3 Mg1_5 3.237154 1_565
Mg1_3 Mg1_5 3.237154 1_455
Mg1_4 Mg3_4 3.134792 1_555
Mg1_4 Mg3_5 3.134792 1_554
Mg1_4 Mg2_6 3.198806 1_555
Mg1_4 Mg2_0 3.198806 1_555
Mg1_5 Mg3_4 3.134792 1_555
Mg1_5 Mg3_5 3.134792 1_555
Mg1_5 Mg2_7 3.198806 1_555
Mg1_5 Mg2_1 3.198806 1_555
Mg1_6 Mg3_6 3.134792 1_555
Mg1_6 Mg3_7 3.134792 1_554
Mg1_6 Mg2_4 3.198806 1_565
Mg1_6 Mg2_2 3.198806 1_555
Mg1_7 Mg3_6 3.134792 1_555
Mg1_7 Mg3_7 3.134792 1_555
Mg1_7 Mg2_5 3.198806 1_565
Mg1_7 Mg2_3 3.198806 1_555
Mg2_0 Mg4_4 3.138440 1_555
Mg2_0 Mg4_2 3.138440 1_545
Mg2_0 Mg4_3 3.138440 1_544
Mg2_0 Mg4_5 3.138440 1_554
Mg2_0 Mg2_6 3.237154 1_445
Mg2_0 Mg2_6 3.237154 1_555
Mg2_1 Mg4_4 3.138440 1_555
Mg2_1 Mg4_2 3.138440 1_545
Mg2_1 Mg4_3 3.138440 1_545
Mg2_1 Mg4_5 3.138440 1_555
Mg2_1 Mg2_7 3.237154 1_445
Mg2_1 Mg2_7 3.237154 1_555
Mg2_2 Mg4_0 3.138440 1_555
Mg2_2 Mg4_1 3.138440 1_554
Mg2_2 Mg4_6 3.138440 1_555
Mg2_2 Mg4_7 3.138440 1_554
Mg2_2 Mg2_4 3.237154 1_565
Mg2_2 Mg2_4 3.237154 1_455
Mg2_3 Mg4_0 3.138440 1_555
Mg2_3 Mg4_6 3.138440 1_555
Mg2_3 Mg4_7 3.138440 1_555
Mg2_3 Mg4_1 3.138440 1_555
Mg2_3 Mg2_5 3.237154 1_455
Mg2_3 Mg2_5 3.237154 1_565
Mg2_4 Mg4_6 3.138440 1_545
Mg2_4 Mg4_7 3.138440 1_544
Mg2_4 Mg4_0 3.138440 1_655
Mg2_4 Mg4_1 3.138440 1_654
Mg2_5 Mg4_6 3.138440 1_545
Mg2_5 Mg4_0 3.138440 1_655
Mg2_5 Mg4_7 3.138440 1_545
Mg2_5 Mg4_1 3.138440 1_655
Mg2_6 Mg4_2 3.138440 1_655
Mg2_6 Mg4_3 3.138440 1_654
Mg2_6 Mg4_4 3.138440 1_555
Mg2_6 Mg4_5 3.138440 1_554
Mg2_7 Mg4_2 3.138440 1_655
Mg2_7 Mg4_4 3.138440 1_555
Mg2_7 Mg4_3 3.138440 1_655
Mg2_7 Mg4_5 3.138440 1_555
Mg3_0 Mg4_2 3.190044 1_545
Mg3_0 Mg4_4 3.190044 1_555
Mg3_0 Mg3_6 3.237154 1_445
Mg3_0 Mg3_6 3.237154 1_555
Mg3_1 Mg4_3 3.190044 1_545
Mg3_1 Mg4_5 3.190044 1_555
Mg3_1 Mg3_7 3.237154 1_445
Mg3_1 Mg3_7 3.237154 1_555
Mg3_2 Mg4_0 3.190044 1_555
Mg3_2 Mg4_6 3.190044 1_555
Mg3_2 Mg3_4 3.237154 1_455
Mg3_2 Mg3_4 3.237154 1_565
Mg3_3 Mg4_1 3.190044 1_555
Mg3_3 Mg4_7 3.190044 1_555
Mg3_3 Mg3_5 3.237154 1_455
Mg3_3 Mg3_5 3.237154 1_565
Mg3_4 Mg4_6 3.190044 1_545
Mg3_4 Mg4_0 3.190044 1_655
Mg3_5 Mg4_1 3.190044 1_655
Mg3_5 Mg4_7 3.190044 1_545
Mg3_6 Mg4_2 3.190044 1_655
Mg3_6 Mg4_4 3.190044 1_555
Mg3_7 Mg4_3 3.190044 1_655
Mg3_7 Mg4_5 3.190044 1_555
Mg4_0 Mg4_6 3.237154 1_445
Mg4_0 Mg4_6 3.237154 1_555
Mg4_1 Mg4_7 3.237154 1_445
Mg4_1 Mg4_7 3.237154 1_555
Mg4_2 Mg4_4 3.237154 1_455
Mg4_2 Mg4_4 3.237154 1_565
Mg4_3 Mg4_5 3.237154 1_565
Mg4_3 Mg4_5 3.237154 1_455
In0_0 Mg2_0 3.133214 1_555
In0_0 Mg2_1 3.133214 1_555
In0_0 Mg1_3 3.147863 1_545
In0_0 Mg1_2 3.147863 1_545
In0_0 Mg1_4 3.147863 1_555
In0_0 Mg1_5 3.147863 1_555
In0_0 Mg4_2 3.170624 1_545
In0_0 Mg4_4 3.170624 1_555
In0_0 Mg3_2 3.201127 1_545
In0_0 Mg3_4 3.201127 1_555
In0_0 In0_6 3.237154 1_445
In0_0 In0_6 3.237154 1_555
In0_1 Mg2_0 3.133214 1_556
In0_1 Mg2_1 3.133214 1_555
In0_1 Mg1_2 3.147863 1_546
In0_1 Mg1_3 3.147863 1_545
In0_1 Mg1_5 3.147863 1_555
In0_1 Mg1_4 3.147863 1_556
In0_1 Mg4_3 3.170624 1_545
In0_1 Mg4_5 3.170624 1_555
In0_1 Mg3_3 3.201127 1_545
In0_1 Mg3_5 3.201127 1_555
In0_1 In0_7 3.237154 1_445
In0_1 In0_7 3.237154 1_555
In0_2 Mg2_3 3.133214 1_555
In0_2 Mg2_2 3.133214 1_555
In0_2 Mg1_6 3.147863 1_555
In0_2 Mg1_0 3.147863 1_555
In0_2 Mg1_7 3.147863 1_555
In0_2 Mg1_1 3.147863 1_555
In0_2 Mg4_0 3.170624 1_555
In0_2 Mg4_6 3.170624 1_555
In0_2 Mg3_6 3.201127 1_555
In0_2 Mg3_0 3.201127 1_555
In0_2 In0_4 3.237154 1_455
In0_2 In0_4 3.237154 1_565
In0_3 Mg2_2 3.133214 1_556
In0_3 Mg2_3 3.133214 1_555
In0_3 Mg1_6 3.147863 1_556
In0_3 Mg1_0 3.147863 1_556
In0_3 Mg1_1 3.147863 1_555
In0_3 Mg1_7 3.147863 1_555
In0_3 Mg4_1 3.170624 1_555
In0_3 Mg4_7 3.170624 1_555
In0_3 Mg3_7 3.201127 1_555
In0_3 Mg3_1 3.201127 1_555
In0_3 In0_5 3.237154 1_455
In0_3 In0_5 3.237154 1_565
In0_4 Mg2_4 3.133214 1_555
In0_4 Mg2_5 3.133214 1_555
In0_4 Mg1_7 3.147863 1_545
In0_4 Mg1_6 3.147863 1_545
In0_4 Mg1_0 3.147863 1_655
In0_4 Mg1_1 3.147863 1_655
In0_4 Mg4_6 3.170624 1_545
In0_4 Mg4_0 3.170624 1_655
In0_4 Mg3_6 3.201127 1_545
In0_4 Mg3_0 3.201127 1_655
In0_5 Mg2_4 3.133214 1_556
In0_5 Mg2_5 3.133214 1_555
In0_5 Mg1_6 3.147863 1_546
In0_5 Mg1_7 3.147863 1_545
In0_5 Mg1_0 3.147863 1_656
In0_5 Mg1_1 3.147863 1_655
In0_5 Mg4_7 3.170624 1_545
In0_5 Mg4_1 3.170624 1_655
In0_5 Mg3_7 3.201127 1_545
In0_5 Mg3_1 3.201127 1_655
In0_6 Mg2_7 3.133214 1_555
In0_6 Mg2_6 3.133214 1_555
In0_6 Mg1_3 3.147863 1_655
In0_6 Mg1_2 3.147863 1_655
In0_6 Mg1_5 3.147863 1_555
In0_6 Mg1_4 3.147863 1_555
In0_6 Mg4_2 3.170624 1_655
In0_6 Mg4_4 3.170624 1_555
In0_6 Mg3_2 3.201127 1_655
In0_6 Mg3_4 3.201127 1_555
In0_7 Mg2_6 3.133214 1_556
In0_7 Mg2_7 3.133214 1_555
In0_7 Mg1_2 3.147863 1_656
In0_7 Mg1_3 3.147863 1_655
In0_7 Mg1_4 3.147863 1_556
In0_7 Mg1_5 3.147863 1_555
In0_7 Mg4_3 3.170624 1_655
In0_7 Mg4_5 3.170624 1_555
In0_7 Mg3_3 3.201127 1_655
In0_7 Mg3_5 3.201127 1_555
