# generated using pymatgen
data_Li9Mn7O16
_symmetry_space_group_name_H-M   'P 1'
_cell_length_a   6.51841853
_cell_length_b   6.51841853
_cell_length_c   10.54974615
_cell_angle_alpha   60.74132206
_cell_angle_beta   60.74132206
_cell_angle_gamma   52.50345384
_symmetry_Int_Tables_number   1
_chemical_formula_structural   Li9Mn7O16
_chemical_formula_sum   'Li9 Mn7 O16'
_cell_volume   298.19222314
_cell_formula_units_Z   1
loop_
 _symmetry_equiv_pos_site_id
 _symmetry_equiv_pos_as_xyz
  1  'x, y, z'
loop_
 _atom_site_type_symbol
 _atom_site_label
 _atom_site_symmetry_multiplicity
 _atom_site_fract_x
 _atom_site_fract_y
 _atom_site_fract_z
 _atom_site_occupancy
  Li  Li0  1  0.25078100  0.74266200  0.75860600  1
  Li  Li1  1  0.25733800  0.74921900  0.24139400  1
  Li  Li2  1  0.75012600  0.75012600  0.50062300  1
  Li  Li3  1  0.74671900  0.74671900  0.00125400  1
  Li  Li4  1  0.25328100  0.25328100  0.99874600  1
  Li  Li5  1  0.24987400  0.24987400  0.49937700  1
  Li  Li6  1  0.74266200  0.25078100  0.75860600  1
  Li  Li7  1  0.74921900  0.25733800  0.24139400  1
  Li  Li8  1  0.50000000  0.50000000  0.00000000  1
  Mn  Mn0  1  0.00000000  0.00000000  0.00000000  1
  Mn  Mn1  1  0.00779400  0.50470400  0.24059500  1
  Mn  Mn2  1  0.00000000  0.00000000  0.50000000  1
  Mn  Mn3  1  0.49529600  0.99220600  0.75940500  1
  Mn  Mn4  1  0.50470400  0.00779400  0.24059500  1
  Mn  Mn5  1  0.99220600  0.49529600  0.75940500  1
  Mn  Mn6  1  0.50000000  0.50000000  0.50000000  1
  O  O0  1  0.11412200  0.63726700  0.01225200  1
  O  O1  1  0.13321700  0.63326500  0.50507500  1
  O  O2  1  0.63950800  0.63950800  0.74437600  1
  O  O3  1  0.63721700  0.63721700  0.24837600  1
  O  O4  1  0.13689900  0.13689900  0.24706200  1
  O  O5  1  0.13734500  0.13734500  0.74273100  1
  O  O6  1  0.63726700  0.11412200  0.01225200  1
  O  O7  1  0.63326500  0.13321700  0.50507500  1
  O  O8  1  0.36673500  0.86678300  0.49492500  1
  O  O9  1  0.36273300  0.88587800  0.98774800  1
  O  O10  1  0.86265500  0.86265500  0.25726900  1
  O  O11  1  0.86310100  0.86310100  0.75293800  1
  O  O12  1  0.36278300  0.36278300  0.75162400  1
  O  O13  1  0.36049200  0.36049200  0.25562400  1
  O  O14  1  0.86678300  0.36673500  0.49492500  1
  O  O15  1  0.88587800  0.36273300  0.98774800  1
loop_
_geom_bond_atom_site_label_1
_geom_bond_atom_site_label_2
_geom_bond_distance
_geom_bond_site_symmetry_2
Li0 O2 2.132565 1_555
Li0 O5 2.139524 1_565
Li0 O12 2.143569 1_555
Li0 O11 2.166215 1_455
Li0 O0 2.245865 1_556
Li0 O8 2.335233 1_555
Li1 O13 2.132565 1_555
Li1 O10 2.139524 1_455
Li1 O3 2.143569 1_555
Li1 O4 2.166215 1_565
Li1 O9 2.245865 1_554
Li1 O1 2.335233 1_555
Li2 O1 2.140583 1_655
Li2 O7 2.140583 1_565
Li2 O14 2.148482 1_555
Li2 O8 2.148482 1_555
Li2 O10 2.154215 1_555
Li2 O2 2.158835 1_555
Li3 O6 2.090099 1_565
Li3 O0 2.090099 1_655
Li3 O9 2.136870 1_554
Li3 O15 2.136870 1_554
Li3 O3 2.190438 1_555
Li3 O11 2.197510 1_554
Li4 O9 2.090099 1_545
Li4 O15 2.090099 1_455
Li4 O6 2.136870 1_556
Li4 O0 2.136870 1_556
Li4 O12 2.190438 1_555
Li4 O4 2.197510 1_556
Li5 O8 2.140583 1_545
Li5 O14 2.140583 1_455
Li5 O7 2.148482 1_555
Li5 O1 2.148482 1_555
Li5 O5 2.154215 1_555
Li5 O13 2.158835 1_555
Li6 O2 2.132565 1_555
Li6 O5 2.139524 1_655
Li6 O12 2.143569 1_555
Li6 O11 2.166215 1_545
Li6 O6 2.245865 1_556
Li6 O14 2.335233 1_555
Li7 O13 2.132565 1_555
Li7 O10 2.139524 1_545
Li7 O3 2.143569 1_555
Li7 O4 2.166215 1_655
Li7 O15 2.245865 1_554
Li7 O7 2.335233 1_555
Li8 O0 2.049245 1_555
Li8 O6 2.049245 1_555
Li8 O9 2.049245 1_554
Li8 O15 2.049245 1_554
Li8 O2 2.266898 1_554
Li8 O13 2.266898 1_555
Mn0 O0 1.953101 1_545
Mn0 O6 1.953101 1_455
Mn0 O9 1.953101 1_544
Mn0 O15 1.953101 1_454
Mn0 O5 2.279216 1_554
Mn0 O10 2.279216 1_445
Mn1 O13 1.942657 1_555
Mn1 O4 1.975048 1_555
Mn1 O10 1.980223 1_455
Mn1 O3 1.980696 1_455
Mn1 O0 2.022973 1_555
Mn1 O14 2.256027 1_455
Mn2 O8 1.965885 1_545
Mn2 O14 1.965885 1_455
Mn2 O1 1.965885 1_545
Mn2 O7 1.965885 1_455
Mn2 O4 2.242166 1_555
Mn2 O11 2.242166 1_445
Mn3 O2 1.942657 1_555
Mn3 O11 1.975048 1_555
Mn3 O5 1.980223 1_565
Mn3 O12 1.980696 1_565
Mn3 O9 2.022973 1_555
Mn3 O7 2.256027 1_565
Mn4 O13 1.942657 1_555
Mn4 O4 1.975048 1_555
Mn4 O10 1.980223 1_545
Mn4 O3 1.980696 1_545
Mn4 O6 2.022973 1_555
Mn4 O8 2.256027 1_545
Mn5 O2 1.942657 1_555
Mn5 O11 1.975048 1_555
Mn5 O5 1.980223 1_655
Mn5 O12 1.980696 1_655
Mn5 O15 2.022973 1_555
Mn5 O1 2.256027 1_655
Mn6 O7 1.966088 1_555
Mn6 O1 1.966088 1_555
Mn6 O14 1.966088 1_555
Mn6 O8 1.966088 1_555
Mn6 O12 2.231336 1_555
Mn6 O3 2.231336 1_555
