# generated using pymatgen
data_LiSn(SO4)2
_symmetry_space_group_name_H-M   'P 1'
_cell_length_a   9.84509711
_cell_length_b   9.47042011
_cell_length_c   14.82431787
_cell_angle_alpha   90.00000000
_cell_angle_beta   90.62511993
_cell_angle_gamma   90.00000000
_symmetry_Int_Tables_number   1
_chemical_formula_structural   LiSn(SO4)2
_chemical_formula_sum   'Li8 Sn8 S16 O64'
_cell_volume   1382.09571001
_cell_formula_units_Z   8
loop_
 _symmetry_equiv_pos_site_id
 _symmetry_equiv_pos_as_xyz
  1  'x, y, z'
loop_
 _atom_site_type_symbol
 _atom_site_label
 _atom_site_symmetry_multiplicity
 _atom_site_fract_x
 _atom_site_fract_y
 _atom_site_fract_z
 _atom_site_occupancy
  Li  Li0  1  0.20421530  0.96282659  0.36833401  1
  Li  Li1  1  0.20421530  0.53717341  0.86833401  1
  Li  Li2  1  0.29658828  0.03888741  0.86903737  1
  Li  Li3  1  0.29658828  0.46111259  0.36903737  1
  Li  Li4  1  0.77265143  0.44249398  0.12728478  1
  Li  Li5  1  0.77265143  0.05750602  0.62728478  1
  Li  Li6  1  0.95253738  0.76517617  0.62835250  1
  Li  Li7  1  0.95253738  0.73482383  0.12835250  1
  Sn  Sn0  1  0.15549429  0.11005203  0.12408628  1
  Sn  Sn1  1  0.15549429  0.38994797  0.62408628  1
  Sn  Sn2  1  0.36236944  0.60726957  0.12830775  1
  Sn  Sn3  1  0.36236944  0.89273043  0.62830775  1
  Sn  Sn4  1  0.64223377  0.10006512  0.37707834  1
  Sn  Sn5  1  0.64223377  0.39993488  0.87707834  1
  Sn  Sn6  1  0.85362371  0.59687279  0.38162130  1
  Sn  Sn7  1  0.85362371  0.90312721  0.88162130  1
  S  S0  1  0.05662193  0.06135629  0.73556181  1
  S  S1  1  0.05662193  0.43864371  0.23556181  1
  S  S2  1  0.14752139  0.68650009  0.48347130  1
  S  S3  1  0.14752139  0.81349991  0.98347130  1
  S  S4  1  0.35138166  0.18543313  0.47839945  1
  S  S5  1  0.35138166  0.31456687  0.97839945  1
  S  S6  1  0.43254024  0.93011423  0.23518959  1
  S  S7  1  0.43254024  0.56988577  0.73518959  1
  S  S8  1  0.59036812  0.41969610  0.27465398  1
  S  S9  1  0.59036812  0.08030390  0.77465398  1
  S  S10  1  0.67041390  0.68660909  0.00963643  1
  S  S11  1  0.67041390  0.81339091  0.50963643  1
  S  S12  1  0.84402454  0.19451510  0.00163555  1
  S  S13  1  0.84402454  0.30548490  0.50163555  1
  S  S14  1  0.90852995  0.58224713  0.77807698  1
  S  S15  1  0.90852995  0.91775287  0.27807698  1
  O  O0  1  0.99037817  0.68143582  0.47527386  1
  O  O1  1  0.99037817  0.81856418  0.97527386  1
  O  O2  1  0.00572867  0.97006514  0.34412761  1
  O  O3  1  0.00572867  0.52993486  0.84412761  1
  O  O4  1  0.00509635  0.47460116  0.33081313  1
  O  O5  1  0.00509635  0.02539884  0.83081313  1
  O  O6  1  0.04280124  0.21459447  0.72415688  1
  O  O7  1  0.04280124  0.28540553  0.22415688  1
  O  O8  1  0.16358828  0.75056226  0.07548239  1
  O  O9  1  0.16358828  0.74943774  0.57548239  1
  O  O10  1  0.20301927  0.95902132  0.98200395  1
  O  O11  1  0.20301927  0.54097868  0.48200395  1
  O  O12  1  0.20165385  0.01731229  0.73989784  1
  O  O13  1  0.20165385  0.48268771  0.23989784  1
  O  O14  1  0.20537611  0.76942406  0.41127713  1
  O  O15  1  0.20537611  0.73057594  0.91127713  1
  O  O16  1  0.29226392  0.26632504  0.40411782  1
  O  O17  1  0.29226392  0.23367496  0.90411782  1
  O  O18  1  0.28703440  0.97458800  0.24591977  1
  O  O19  1  0.28703440  0.52541200  0.74591977  1
  O  O20  1  0.29954941  0.03838758  0.47755818  1
  O  O21  1  0.29954941  0.46161242  0.97755818  1
  O  O22  1  0.32691825  0.25110825  0.06882267  1
  O  O23  1  0.32691825  0.24889175  0.56882267  1
  O  O24  1  0.43864879  0.77247201  0.23284269  1
  O  O25  1  0.43864879  0.72752799  0.73284269  1
  O  O26  1  0.49668830  0.53207108  0.82901376  1
  O  O27  1  0.49668830  0.96792892  0.32901376  1
  O  O28  1  0.49252721  0.47848107  0.33642327  1
  O  O29  1  0.49252721  0.02151893  0.83642327  1
  O  O30  1  0.50746584  0.18322463  0.47124167  1
  O  O31  1  0.50746584  0.31677537  0.97124167  1
  O  O32  1  0.52518256  0.70321201  0.02465518  1
  O  O33  1  0.52518256  0.79678799  0.52465518  1
  O  O34  1  0.49953313  0.50145928  0.66149219  1
  O  O35  1  0.49953313  0.99854072  0.16149219  1
  O  O36  1  0.56375574  0.44844744  0.17818514  1
  O  O37  1  0.56375574  0.05155256  0.67818514  1
  O  O38  1  0.60250999  0.26076194  0.28272181  1
  O  O39  1  0.60250999  0.23923806  0.78272181  1
  O  O40  1  0.70156128  0.72790908  0.42569840  1
  O  O41  1  0.70156128  0.77209092  0.92569840  1
  O  O42  1  0.70368451  0.53223402  0.98611296  1
  O  O43  1  0.70368451  0.96776598  0.48611296  1
  O  O44  1  0.73270849  0.48155343  0.29026075  1
  O  O45  1  0.73270849  0.01844657  0.79026075  1
  O  O46  1  0.75797084  0.71964217  0.08618527  1
  O  O47  1  0.75797084  0.78035783  0.58618527  1
  O  O48  1  0.77305046  0.24824244  0.07951126  1
  O  O49  1  0.77305046  0.25175756  0.57951126  1
  O  O50  1  0.77059450  0.51653811  0.79069193  1
  O  O51  1  0.77059450  0.98346189  0.29069193  1
  O  O52  1  0.79508620  0.45622638  0.48324887  1
  O  O53  1  0.79508620  0.04377362  0.98324887  1
  O  O54  1  0.80702510  0.22145309  0.41629801  1
  O  O55  1  0.80702510  0.27854691  0.91629801  1
  O  O56  1  0.89089926  0.74502132  0.78498853  1
  O  O57  1  0.89089926  0.75497868  0.28498853  1
  O  O58  1  0.94860383  0.56447137  0.68346539  1
  O  O59  1  0.94860383  0.93552863  0.18346539  1
  O  O60  1  0.97648987  0.98276572  0.66677852  1
  O  O61  1  0.97648987  0.51723428  0.16677852  1
  O  O62  1  0.99239086  0.19737074  0.00892774  1
  O  O63  1  0.99239086  0.30262926  0.50892774  1
loop_
_geom_bond_atom_site_label_1
_geom_bond_atom_site_label_2
_geom_bond_distance
_geom_bond_site_symmetry_2
Li0 O14 1.939073 1_555
Li0 O2 1.984125 1_555
Li0 O20 1.995384 1_565
Li0 O18 2.000668 1_555
Li1 O15 1.939073 1_555
Li1 O3 1.984125 1_555
Li1 O21 1.995384 1_555
Li1 O19 2.000668 1_555
Li2 O17 1.917220 1_555
Li2 O29 2.000587 1_555
Li2 O10 2.063689 1_545
Li2 O12 2.131010 1_555
Li3 O16 1.917220 1_555
Li3 O28 2.000587 1_555
Li3 O11 2.063689 1_555
Li3 O13 2.131010 1_555
Li4 O48 1.971275 1_555
Li4 O36 2.199091 1_555
Li4 O61 2.201234 1_555
Li4 O42 2.352024 1_554
Li4 O44 2.479777 1_555
Li5 O49 1.971275 1_555
Li5 O37 2.199091 1_555
Li5 O60 2.201234 1_545
Li5 O43 2.352024 1_545
Li5 O45 2.479777 1_555
Li6 O47 2.013588 1_555
Li6 O58 2.069440 1_555
Li6 O60 2.150234 1_555
Li6 O9 2.233687 1_655
Li6 O56 2.413962 1_555
Li6 O0 2.436357 1_555
Li7 O46 2.013588 1_555
Li7 O59 2.069440 1_555
Li7 O61 2.150234 1_555
Li7 O8 2.233687 1_655
Li7 O57 2.413962 1_555
Li7 O1 2.436357 1_554
O0 S2 1.551275 1_655
O0 Sn6 2.083443 1_555
O1 S3 1.551275 1_655
O1 Sn7 2.083443 1_555
O2 S15 1.448950 1_455
O3 S14 1.448950 1_455
O4 S1 1.543621 1_555
O4 Sn6 2.038764 1_455
O5 S0 1.543621 1_555
O5 Sn7 2.038764 1_445
O6 S0 1.467196 1_555
O6 Sn1 2.495072 1_555
O7 S1 1.467196 1_555
O7 Sn0 2.495072 1_555
O8 S3 1.495354 1_554
O8 Sn2 2.500259 1_555
O9 S2 1.495354 1_555
O9 Sn3 2.500259 1_555
O10 S3 1.482754 1_555
O10 Sn0 2.592805 1_566
O11 S2 1.482754 1_555
O11 Sn1 2.592805 1_555
O12 S0 1.488247 1_555
O12 Sn3 2.586353 1_545
O13 S1 1.488247 1_555
O13 Sn2 2.586353 1_555
O14 S2 1.449088 1_555
O15 S3 1.449088 1_555
O16 S4 1.457473 1_555
O17 S5 1.457473 1_555
O18 S6 1.503257 1_555
O18 Sn0 2.556146 1_565
O19 S7 1.503257 1_555
O19 Sn1 2.556146 1_555
O20 S4 1.483140 1_555
O20 Sn3 2.692459 1_545
O21 S5 1.483140 1_555
O21 Sn2 2.692459 1_556
O22 S5 1.490995 1_554
O22 Sn0 2.309576 1_555
O23 S4 1.490995 1_555
O23 Sn1 2.309576 1_555
O24 S6 1.494569 1_555
O24 Sn2 2.321162 1_555
O25 S7 1.494569 1_555
O25 Sn3 2.321162 1_555
O26 S7 1.562842 1_555
O26 Sn5 2.025983 1_555
O27 S6 1.562842 1_555
O27 Sn4 2.025983 1_565
O28 S8 1.447592 1_555
O29 S9 1.447592 1_555
O30 S4 1.541619 1_555
O30 Sn4 2.090364 1_555
O31 S5 1.541619 1_555
O31 Sn5 2.090364 1_555
O32 S10 1.457949 1_555
O32 Sn2 2.410337 1_555
O33 S11 1.457949 1_555
O33 Sn3 2.410337 1_555
O34 S7 1.436752 1_555
O35 S6 1.436752 1_555
O36 S8 1.476398 1_555
O36 Sn2 2.589990 1_555
O37 S9 1.476398 1_555
O37 Sn3 2.589990 1_545
O38 S8 1.514539 1_555
O38 Sn4 2.100869 1_555
O39 S9 1.514539 1_555
O39 Sn5 2.100869 1_555
O40 S11 1.518575 1_555
O40 Sn6 2.056578 1_555
O41 S10 1.518575 1_556
O41 Sn7 2.056578 1_555
O42 S10 1.539098 1_556
O42 Sn5 2.127707 1_555
O43 S11 1.539098 1_555
O43 Sn4 2.127707 1_565
O44 S8 1.534088 1_555
O44 Sn6 2.099748 1_555
O45 S9 1.534088 1_555
O45 Sn7 2.099748 1_545
O46 S10 1.451659 1_555
O47 S11 1.451659 1_555
O48 S12 1.448279 1_555
O49 S13 1.448279 1_555
O50 S14 1.507280 1_555
O50 Sn5 2.119371 1_555
O51 S15 1.507280 1_555
O51 Sn4 2.119371 1_565
O52 S13 1.530216 1_555
O52 Sn6 2.096418 1_555
O53 S12 1.530216 1_556
O53 Sn7 2.096418 1_545
O54 S13 1.535044 1_555
O54 Sn4 2.066678 1_555
O55 S12 1.535044 1_556
O55 Sn5 2.066678 1_555
O56 S14 1.554786 1_555
O56 Sn7 2.107188 1_555
O57 S15 1.554786 1_555
O57 Sn6 2.107188 1_555
O58 S14 1.470790 1_555
O58 Sn1 2.773903 1_655
O59 S15 1.470790 1_555
O59 Sn0 2.773903 1_665
O60 S0 1.482734 1_665
O61 S1 1.482734 1_655
O62 S12 1.463749 1_555
O62 Sn0 2.473230 1_655
O63 S13 1.463749 1_555
O63 Sn1 2.473230 1_655
