# generated using pymatgen
data_AlV3Se2ClO8
_symmetry_space_group_name_H-M   'P 1'
_cell_length_a   6.64995000
_cell_length_b   8.00421245
_cell_length_c   9.98110253
_cell_angle_alpha   90.95969209
_cell_angle_beta   104.33704289
_cell_angle_gamma   90.33209238
_symmetry_Int_Tables_number   1
_chemical_formula_structural   AlV3Se2ClO8
_chemical_formula_sum   'Al2 V6 Se4 Cl2 O16'
_cell_volume   514.62497621
_cell_formula_units_Z   2
loop_
 _symmetry_equiv_pos_site_id
 _symmetry_equiv_pos_as_xyz
  1  'x, y, z'
loop_
 _atom_site_type_symbol
 _atom_site_label
 _atom_site_symmetry_multiplicity
 _atom_site_fract_x
 _atom_site_fract_y
 _atom_site_fract_z
 _atom_site_occupancy
  Al  Al0  1  0.25213700  0.85808200  0.74645600  1
  Al  Al1  1  0.74786300  0.14191800  0.25354400  1
  V  V0  1  0.50000000  0.00000000  0.00000000  1
  V  V1  1  0.50000000  0.00000000  0.50000000  1
  V  V2  1  0.00000000  0.00000000  0.00000000  1
  V  V3  1  0.77950400  0.77900900  0.24859300  1
  V  V4  1  0.22049600  0.22099100  0.75140700  1
  V  V5  1  0.00000000  0.00000000  0.50000000  1
  Se  Se0  1  0.68825600  0.63099800  0.91735300  1
  Se  Se1  1  0.31174400  0.36900200  0.08264700  1
  Se  Se2  1  0.80757100  0.62718500  0.57352800  1
  Se  Se3  1  0.19242900  0.37281500  0.42647200  1
  Cl  Cl0  1  0.18373800  0.86623000  0.32249700  1
  Cl  Cl1  1  0.81626200  0.13377000  0.67750300  1
  O  O0  1  0.20864900  0.00096600  0.88007700  1
  O  O1  1  0.31738800  0.39189500  0.91288300  1
  O  O2  1  0.80090500  0.60041600  0.40293500  1
  O  O3  1  0.47640200  0.78049700  0.87039600  1
  O  O4  1  0.38954300  0.24327800  0.41789100  1
  O  O5  1  0.96504000  0.22750900  0.37752000  1
  O  O6  1  0.79135100  0.99903400  0.11992300  1
  O  O7  1  0.89839400  0.75481100  0.92329200  1
  O  O8  1  0.03496000  0.77249100  0.62248000  1
  O  O9  1  0.10160600  0.24518900  0.07670800  1
  O  O10  1  0.30011700  0.01921500  0.63797700  1
  O  O11  1  0.69988300  0.98078500  0.36202300  1
  O  O12  1  0.52359800  0.21950300  0.12960400  1
  O  O13  1  0.61045700  0.75672200  0.58210900  1
  O  O14  1  0.68261200  0.60810500  0.08711700  1
  O  O15  1  0.19909500  0.39958400  0.59706500  1
loop_
_geom_bond_atom_site_label_1
_geom_bond_atom_site_label_2
_geom_bond_distance
_geom_bond_site_symmetry_2
Al0 O10 1.775011 1_565
Al0 O8 1.778027 1_555
Al0 O3 1.806344 1_555
Al0 O0 1.820465 1_565
Al1 O11 1.775011 1_545
Al1 O5 1.778027 1_555
Al1 O12 1.806344 1_555
Al1 O6 1.820465 1_545
Cl0 V1 2.602584 1_565
Cl0 V5 2.608045 1_565
Cl0 V3 2.690084 1_455
Cl1 V1 2.602584 1_555
Cl1 V5 2.608045 1_655
Cl1 V4 2.690084 1_655
O0 V0 2.009609 1_556
O0 V2 2.044663 1_556
O0 V4 2.209385 1_555
O1 Se1 1.716946 1_556
O1 V4 2.070188 1_555
O2 Se2 1.702167 1_555
O2 V3 2.098669 1_555
O3 Se0 1.829660 1_555
O3 V0 2.145928 1_566
O4 Se3 1.693797 1_555
O4 V1 2.185147 1_555
O5 Se3 1.863501 1_655
O5 V5 2.191665 1_655
O6 V0 2.009609 1_565
O6 V2 2.044663 1_665
O6 V3 2.209385 1_555
O7 Se0 1.696864 1_555
O7 V2 2.138317 1_666
O8 Se2 1.863501 1_455
O8 V5 2.191665 1_565
O9 Se1 1.696864 1_555
O9 V2 2.138317 1_555
O10 V4 2.101446 1_555
O10 V5 2.128722 1_555
O10 V1 2.142169 1_555
O11 V3 2.101446 1_555
O11 V5 2.128722 1_665
O11 V1 2.142169 1_565
O12 Se1 1.829660 1_555
O12 V0 2.145928 1_555
O13 Se2 1.693797 1_555
O13 V1 2.185147 1_565
O14 Se0 1.716946 1_554
O14 V3 2.070188 1_555
O15 Se3 1.702167 1_555
O15 V4 2.098669 1_555
