# generated using pymatgen
data_Na2CoP4(H2O3)6
_symmetry_space_group_name_H-M   'P 1'
_cell_length_a   11.58173700
_cell_length_b   8.10536400
_cell_length_c   9.08680403
_cell_angle_alpha   67.59856666
_cell_angle_beta   90.00000000
_cell_angle_gamma   90.00000000
_symmetry_Int_Tables_number   1
_chemical_formula_structural   Na2CoP4(H2O3)6
_chemical_formula_sum   'Na4 Co2 P8 H24 O36'
_cell_volume   788.64480263
_cell_formula_units_Z   2
loop_
 _symmetry_equiv_pos_site_id
 _symmetry_equiv_pos_as_xyz
  1  'x, y, z'
loop_
 _atom_site_type_symbol
 _atom_site_label
 _atom_site_symmetry_multiplicity
 _atom_site_fract_x
 _atom_site_fract_y
 _atom_site_fract_z
 _atom_site_occupancy
  Na  Na0  1  0.25000000  0.98683000  0.55036300  1
  Na  Na1  1  0.75000000  0.01317000  0.44963700  1
  Na  Na2  1  0.25000000  0.24300700  0.09250600  1
  Na  Na3  1  0.75000000  0.75699300  0.90749400  1
  Co  Co0  1  0.25000000  0.52855000  0.73595400  1
  Co  Co1  1  0.75000000  0.47145000  0.26404600  1
  P  P0  1  0.00237200  0.30929400  0.83109800  1
  P  P1  1  0.50237200  0.69070600  0.16890200  1
  P  P2  1  0.99762800  0.69070600  0.16890200  1
  P  P3  1  0.49762800  0.30929400  0.83109800  1
  P  P4  1  0.51004600  0.70155000  0.64731300  1
  P  P5  1  0.01004600  0.29845000  0.35268700  1
  P  P6  1  0.48995400  0.29845000  0.35268700  1
  P  P7  1  0.98995400  0.70155000  0.64731300  1
  H  H0  1  0.01965200  0.17075400  0.66470800  1
  H  H1  1  0.51965200  0.82924600  0.33529200  1
  H  H2  1  0.98034800  0.82924600  0.33529200  1
  H  H3  1  0.48034800  0.17075400  0.66470800  1
  H  H4  1  0.50609300  0.74510900  0.87572700  1
  H  H5  1  0.00609300  0.25489100  0.12427300  1
  H  H6  1  0.49390700  0.25489100  0.12427300  1
  H  H7  1  0.99390700  0.74510900  0.87572700  1
  H  H8  1  0.18039700  0.62290300  0.97666400  1
  H  H9  1  0.68039700  0.37709700  0.02333600  1
  H  H10  1  0.81960300  0.37709700  0.02333600  1
  H  H11  1  0.31960300  0.62290300  0.97666400  1
  H  H12  1  0.18307400  0.41102700  0.51395800  1
  H  H13  1  0.68307400  0.58897300  0.48604200  1
  H  H14  1  0.81692600  0.58897300  0.48604200  1
  H  H15  1  0.31692600  0.41102700  0.51395800  1
  H  H16  1  0.25000000  0.10199600  0.83223800  1
  H  H17  1  0.75000000  0.89800400  0.16776200  1
  H  H18  1  0.18179900  0.88470700  0.29634300  1
  H  H19  1  0.68179900  0.11529300  0.70365700  1
  H  H20  1  0.81820100  0.11529300  0.70365700  1
  H  H21  1  0.31820100  0.88470700  0.29634300  1
  H  H22  1  0.25000000  0.89526000  0.88972000  1
  H  H23  1  0.75000000  0.10474000  0.11028000  1
  O  O0  1  0.97066600  0.16402800  0.76170700  1
  O  O1  1  0.47066600  0.83597200  0.23829300  1
  O  O2  1  0.02933400  0.83597200  0.23829300  1
  O  O3  1  0.52933400  0.16402800  0.76170700  1
  O  O4  1  0.93182200  0.27470200  0.98050700  1
  O  O5  1  0.43182200  0.72529800  0.01949300  1
  O  O6  1  0.06817800  0.72529800  0.01949300  1
  O  O7  1  0.56817800  0.27470200  0.98050700  1
  O  O8  1  0.13153800  0.32314500  0.85052400  1
  O  O9  1  0.63153800  0.67685500  0.14947600  1
  O  O10  1  0.86846200  0.67685500  0.14947600  1
  O  O11  1  0.36846200  0.32314500  0.85052400  1
  O  O12  1  0.58018000  0.79740500  0.49773900  1
  O  O13  1  0.08018000  0.20259500  0.50226100  1
  O  O14  1  0.41982000  0.20259500  0.50226100  1
  O  O15  1  0.91982000  0.79740500  0.49773900  1
  O  O16  1  0.56320100  0.74846600  0.78664400  1
  O  O17  1  0.06320100  0.25153400  0.21335600  1
  O  O18  1  0.43679900  0.25153400  0.21335600  1
  O  O19  1  0.93679900  0.74846600  0.78664400  1
  O  O20  1  0.38015500  0.72104000  0.63954200  1
  O  O21  1  0.88015500  0.27896000  0.36045800  1
  O  O22  1  0.61984500  0.27896000  0.36045800  1
  O  O23  1  0.11984500  0.72104000  0.63954200  1
  O  O24  1  0.54286300  0.49166400  0.69142900  1
  O  O25  1  0.04286300  0.50833600  0.30857100  1
  O  O26  1  0.45713700  0.50833600  0.30857100  1
  O  O27  1  0.95713700  0.49166400  0.69142900  1
  O  O28  1  0.25000000  0.56766700  0.94822500  1
  O  O29  1  0.75000000  0.43233300  0.05177500  1
  O  O30  1  0.25000000  0.47688400  0.53030400  1
  O  O31  1  0.75000000  0.52311600  0.46969600  1
  O  O32  1  0.25000000  0.00460100  0.79465700  1
  O  O33  1  0.75000000  0.99539900  0.20534300  1
  O  O34  1  0.75000000  0.04377800  0.70243800  1
  O  O35  1  0.25000000  0.95622200  0.29756200  1
loop_
_geom_bond_atom_site_label_1
_geom_bond_atom_site_label_2
_geom_bond_distance
_geom_bond_site_symmetry_2
Na0 O32 2.278639 1_565
Na0 O35 2.402671 1_555
Na0 O20 2.497900 1_555
Na0 O23 2.497900 1_555
Na0 O13 2.556415 1_565
Na0 O14 2.556415 1_565
Na1 O33 2.278639 1_545
Na1 O34 2.402671 1_555
Na1 O21 2.497900 1_555
Na1 O22 2.497900 1_555
Na1 O12 2.556415 1_545
Na1 O15 2.556415 1_545
Na2 O35 2.360925 1_545
Na2 O17 2.439074 1_555
Na2 O18 2.439074 1_555
Na2 O28 2.452351 1_554
Na2 O11 2.459797 1_554
Na2 O8 2.459797 1_554
Na3 O34 2.360925 1_565
Na3 O19 2.439074 1_555
Na3 O16 2.439074 1_555
Na3 O29 2.452351 1_556
Na3 O10 2.459797 1_556
Na3 O9 2.459797 1_556
Co0 O30 2.064914 1_555
Co0 O28 2.070548 1_555
Co0 O11 2.101659 1_555
Co0 O8 2.101659 1_555
Co0 O20 2.105293 1_555
Co0 O23 2.105293 1_555
Co1 O31 2.064914 1_555
Co1 O29 2.070548 1_555
Co1 O10 2.101659 1_555
Co1 O9 2.101659 1_555
Co1 O21 2.105293 1_555
Co1 O22 2.105293 1_555
H0 O0 1.032042 1_455
H0 O13 1.564165 1_555
H1 O1 1.032042 1_555
H1 O12 1.564165 1_555
H2 O2 1.032042 1_655
H2 O15 1.564165 1_555
H3 O3 1.032042 1_555
H3 O14 1.564165 1_555
H4 O16 1.037629 1_555
H4 O5 1.520669 1_556
H5 O17 1.037629 1_555
H5 O4 1.520669 1_454
H6 O18 1.037629 1_555
H6 O7 1.520669 1_554
H7 O19 1.037629 1_555
H7 O6 1.520669 1_656
H8 O28 1.002617 1_555
H8 O6 1.666030 1_556
H9 O29 1.002617 1_555
H9 O7 1.666030 1_554
H10 O29 1.002617 1_555
H10 O4 1.666030 1_554
H11 O28 1.002617 1_555
H11 O5 1.666030 1_556
H12 O30 0.983992 1_555
H13 O31 0.983992 1_555
H14 O31 0.983992 1_555
H15 O30 0.983992 1_555
H16 O32 0.972252 1_555
H17 O33 0.972252 1_555
H18 O35 0.982312 1_555
H19 O34 0.982312 1_555
H20 O34 0.982312 1_555
H21 O35 0.982312 1_555
H22 O32 0.973715 1_565
H23 O33 0.973715 1_545
O0 P0 1.576275 1_655
O1 P1 1.576275 1_555
O2 P2 1.576275 1_455
O3 P3 1.576275 1_555
O4 P0 1.516355 1_655
O5 P1 1.516355 1_555
O6 P2 1.516355 1_455
O7 P3 1.516355 1_555
O8 P0 1.515514 1_555
O9 P1 1.515514 1_555
O10 P2 1.515514 1_555
O11 P3 1.515514 1_555
O12 P4 1.518506 1_555
O13 P5 1.518506 1_555
O14 P6 1.518506 1_555
O15 P7 1.518506 1_555
O16 P4 1.579082 1_555
O17 P5 1.579082 1_555
O18 P6 1.579082 1_555
O19 P7 1.579082 1_555
O20 P4 1.511472 1_555
O21 P5 1.511472 1_655
O22 P6 1.511472 1_555
O23 P7 1.511472 1_455
O24 P3 1.624908 1_555
O24 P4 1.636906 1_555
O25 P2 1.624908 1_455
O25 P5 1.636906 1_555
O26 P1 1.624908 1_555
O26 P6 1.636906 1_555
O27 P0 1.624908 1_655
O27 P7 1.636906 1_555
