# generated using pymatgen
data_YbAlCu
_symmetry_space_group_name_H-M   'P 1'
_cell_length_a   6.88104749
_cell_length_b   6.88104749
_cell_length_c   3.95363050
_cell_angle_alpha   90.00000000
_cell_angle_beta   90.00000000
_cell_angle_gamma   119.99999782
_symmetry_Int_Tables_number   1
_chemical_formula_structural   YbAlCu
_chemical_formula_sum   'Yb3 Al3 Cu3'
_cell_volume   162.11971434
_cell_formula_units_Z   3
loop_
 _symmetry_equiv_pos_site_id
 _symmetry_equiv_pos_as_xyz
  1  'x, y, z'
loop_
 _atom_site_type_symbol
 _atom_site_label
 _atom_site_symmetry_multiplicity
 _atom_site_fract_x
 _atom_site_fract_y
 _atom_site_fract_z
 _atom_site_occupancy
  Yb  Yb0  1  0.41494231  0.00000000  0.50000000  1
  Yb  Yb1  1  0.00000000  0.41494231  0.50000000  1
  Yb  Yb2  1  0.58505769  0.58505769  0.50000000  1
  Al  Al0  1  0.76425661  0.00000000  0.00000000  1
  Al  Al1  1  0.00000000  0.76425661  0.00000000  1
  Al  Al2  1  0.23574339  0.23574339  0.00000000  1
  Cu  Cu0  1  0.33333300  0.66666700  0.00000000  1
  Cu  Cu1  1  0.66666700  0.33333300  0.00000000  1
  Cu  Cu2  1  0.00000000  0.00000000  0.50000000  1
loop_
_geom_bond_atom_site_label_1
_geom_bond_atom_site_label_2
_geom_bond_distance
_geom_bond_site_symmetry_2
Al0 Cu2 2.557187 1_654
Al0 Cu2 2.557187 1_655
Al0 Cu1 2.692983 1_555
Al0 Cu0 2.692987 1_545
Al0 Al1 2.809666 1_645
Al0 Al2 2.809666 1_655
Al0 Yb0 3.112125 1_554
Al0 Yb0 3.112125 1_555
Al0 Yb2 3.171740 1_545
Al0 Yb2 3.171740 1_544
Al0 Yb1 3.171740 1_655
Al0 Yb1 3.171740 1_654
Al1 Cu2 2.557187 1_564
Al1 Cu2 2.557187 1_565
Al1 Cu0 2.692983 1_555
Al1 Cu1 2.692987 1_455
Al1 Al2 2.809666 1_565
Al1 Yb1 3.112125 1_554
Al1 Yb1 3.112125 1_555
Al1 Yb2 3.171740 1_455
Al1 Yb2 3.171740 1_454
Al1 Yb0 3.171740 1_565
Al1 Yb0 3.171740 1_564
Al2 Cu2 2.557187 1_554
Al2 Cu2 2.557187 1_555
Al2 Cu1 2.692989 1_555
Al2 Cu0 2.692989 1_555
Al2 Yb2 3.112125 1_554
Al2 Yb2 3.112125 1_555
Al2 Yb0 3.171740 1_555
Al2 Yb0 3.171740 1_554
Al2 Yb1 3.171740 1_555
Al2 Yb1 3.171740 1_554
Cu0 Yb0 2.862880 1_564
Cu0 Yb0 2.862880 1_565
Cu0 Yb1 2.862881 1_554
Cu0 Yb1 2.862881 1_555
Cu0 Yb2 2.862885 1_555
Cu0 Yb2 2.862885 1_554
Cu1 Yb1 2.862880 1_654
Cu1 Yb1 2.862880 1_655
Cu1 Yb0 2.862881 1_555
Cu1 Yb0 2.862881 1_554
Cu1 Yb2 2.862885 1_555
Cu1 Yb2 2.862885 1_554
Cu2 Yb1 2.855238 1_555
Cu2 Yb0 2.855238 1_555
Cu2 Yb2 2.855238 1_445
