# generated using pymatgen
data_La2CeTe4
_symmetry_space_group_name_H-M   'P 1'
_cell_length_a   8.40513301
_cell_length_b   8.40720719
_cell_length_c   8.40530514
_cell_angle_alpha   109.47467680
_cell_angle_beta   109.48701941
_cell_angle_gamma   109.46659039
_symmetry_Int_Tables_number   1
_chemical_formula_structural   La2CeTe4
_chemical_formula_sum   'La4 Ce2 Te8'
_cell_volume   457.14030510
_cell_formula_units_Z   2
loop_
 _symmetry_equiv_pos_site_id
 _symmetry_equiv_pos_as_xyz
  1  'x, y, z'
loop_
 _atom_site_type_symbol
 _atom_site_label
 _atom_site_symmetry_multiplicity
 _atom_site_fract_x
 _atom_site_fract_y
 _atom_site_fract_z
 _atom_site_occupancy
  La  La0  1  0.00197336  0.87583688  0.62665371  1
  La  La1  1  0.24917927  0.37534277  0.37322926  1
  La  La2  1  0.12539849  0.75169916  0.12637041  1
  La  La3  1  0.62543132  0.99905339  0.87348837  1
  Ce  Ce0  1  0.49823208  0.49858829  0.00009852  1
  Ce  Ce1  1  0.74849208  0.24827449  0.50005352  1
  Te  Te0  1  0.02458978  0.27584795  0.89966438  1
  Te  Te1  1  0.37608334  0.12467231  0.10037952  1
  Te  Te2  1  0.22566244  0.62443151  0.75011623  1
  Te  Te3  1  0.87442327  0.47548028  0.24990076  1
  Te  Te4  1  0.37548249  0.12603748  0.60109519  1
  Te  Te5  1  0.52506166  0.77475770  0.39917558  1
  Te  Te6  1  0.72472254  0.62392775  0.74876519  1
  Te  Te7  1  0.87526788  0.97605004  0.25100935  1
loop_
_geom_bond_atom_site_label_1
_geom_bond_atom_site_label_2
_geom_bond_distance
_geom_bond_site_symmetry_2
La0 Te4 3.267482 1_565
La0 Te6 3.274896 1_455
La0 Te3 3.275572 1_455
La0 Te0 3.278535 1_565
La0 Te1 3.438974 1_566
La0 Te2 3.447987 1_555
La0 Te7 3.455652 1_455
La0 Te5 3.461030 1_455
La1 Te5 3.268777 1_555
La1 Te7 3.273548 1_445
La1 Te2 3.275677 1_555
La1 Te1 3.278159 1_555
La1 Te0 3.438234 1_554
La1 Te3 3.446142 1_455
La1 Te6 3.453027 1_555
La1 Te4 3.462877 1_555
La2 Te1 3.268020 1_565
La2 Te5 3.272653 1_555
La2 Te3 3.274869 1_455
La2 Te6 3.279201 1_454
La2 Te4 3.444741 1_565
La2 Te7 3.445301 1_455
La2 Te0 3.454573 1_554
La2 Te2 3.461146 1_554
La3 Te0 3.268335 1_665
La3 Te4 3.272744 1_565
La3 Te2 3.275545 1_555
La3 Te7 3.278754 1_556
La3 Te5 3.441615 1_555
La3 Te6 3.446035 1_555
La3 Te1 3.455966 1_566
La3 Te3 3.461015 1_566
Ce0 Te5 3.262936 1_555
Ce0 Te4 3.264312 1_554
Ce0 Te2 3.266345 1_554
Ce0 Te3 3.270495 1_555
Ce0 Te0 3.435522 1_554
Ce0 Te1 3.440884 1_555
Ce0 Te7 3.467164 1_555
Ce0 Te6 3.468088 1_554
Ce1 Te0 3.262321 1_655
Ce1 Te1 3.263703 1_555
Ce1 Te7 3.267173 1_545
Ce1 Te6 3.268221 1_555
Ce1 Te5 3.434774 1_545
Ce1 Te4 3.437707 1_555
Ce1 Te2 3.463267 1_655
Ce1 Te3 3.464872 1_555
