# generated using pymatgen
data_NdNiP
_symmetry_space_group_name_H-M   'P 1'
_cell_length_a   3.94807198
_cell_length_b   3.94807198
_cell_length_c   16.21993526
_cell_angle_alpha   90.00000000
_cell_angle_beta   90.00000000
_cell_angle_gamma   119.99998959
_symmetry_Int_Tables_number   1
_chemical_formula_structural   NdNiP
_chemical_formula_sum   'Nd4 Ni4 P4'
_cell_volume   218.95250456
_cell_formula_units_Z   4
loop_
 _symmetry_equiv_pos_site_id
 _symmetry_equiv_pos_as_xyz
  1  'x, y, z'
loop_
 _atom_site_type_symbol
 _atom_site_label
 _atom_site_symmetry_multiplicity
 _atom_site_fract_x
 _atom_site_fract_y
 _atom_site_fract_z
 _atom_site_occupancy
  Nd  Nd0  1  -0.00000000  0.00000000  0.50000000  1
  Nd  Nd1  1  -0.00000000  0.00000000  -0.00000000  1
  Nd  Nd2  1  -0.00000000  0.00000000  0.25000000  1
  Nd  Nd3  1  -0.00000000  0.00000000  0.75000000  1
  Ni  Ni0  1  0.33333300  0.66666700  0.37497471  1
  Ni  Ni1  1  0.66666700  0.33333300  0.62502529  1
  Ni  Ni2  1  0.66666700  0.33333300  0.87497471  1
  Ni  Ni3  1  0.33333300  0.66666700  0.12502529  1
  P  P0  1  0.33333300  0.66666700  0.87513889  1
  P  P1  1  0.66666700  0.33333300  0.12486111  1
  P  P2  1  0.66666700  0.33333300  0.37513889  1
  P  P3  1  0.33333300  0.66666700  0.62486111  1
loop_
_geom_bond_atom_site_label_1
_geom_bond_atom_site_label_2
_geom_bond_distance
_geom_bond_site_symmetry_2
Nd0 P3 3.049154 1_545
Nd0 P2 3.049154 1_455
Nd0 P3 3.049157 1_445
Nd0 P2 3.049157 1_555
Nd0 P2 3.049157 1_445
Nd0 P3 3.049157 1_555
Nd0 Ni1 3.050923 1_455
Nd0 Ni0 3.050923 1_545
Nd0 Ni1 3.050926 1_445
Nd0 Ni1 3.050926 1_555
Nd0 Ni0 3.050926 1_555
Nd0 Ni0 3.050926 1_445
Nd1 P1 3.049154 1_455
Nd1 P0 3.049154 1_544
Nd1 P0 3.049157 1_444
Nd1 P1 3.049157 1_555
Nd1 P1 3.049157 1_445
Nd1 P0 3.049157 1_554
Nd1 Ni2 3.050923 1_454
Nd1 Ni3 3.050923 1_545
Nd1 Ni2 3.050926 1_554
Nd1 Ni2 3.050926 1_444
Nd1 Ni3 3.050926 1_555
Nd1 Ni3 3.050926 1_445
Nd2 Ni0 3.050378 1_545
Nd2 Ni3 3.050378 1_545
Nd2 Ni3 3.050381 1_555
Nd2 Ni0 3.050381 1_555
Nd2 Ni3 3.050381 1_445
Nd2 Ni0 3.050381 1_445
Nd2 P1 3.052148 1_455
Nd2 P2 3.052148 1_455
Nd2 P1 3.052151 1_445
Nd2 P2 3.052151 1_555
Nd2 P1 3.052151 1_555
Nd2 P2 3.052151 1_445
Nd3 Ni2 3.050378 1_455
Nd3 Ni1 3.050378 1_455
Nd3 Ni1 3.050381 1_445
Nd3 Ni1 3.050381 1_555
Nd3 Ni2 3.050381 1_445
Nd3 Ni2 3.050381 1_555
Nd3 P3 3.052148 1_545
Nd3 P0 3.052148 1_545
Nd3 P3 3.052151 1_555
Nd3 P0 3.052151 1_555
Nd3 P3 3.052151 1_445
Nd3 P0 3.052151 1_445
Ni0 P2 2.279420 1_455
Ni0 P2 2.279420 1_565
Ni0 P2 2.279426 1_555
Ni1 P3 2.279420 1_545
Ni1 P3 2.279420 1_655
Ni1 P3 2.279426 1_555
Ni2 P0 2.279420 1_545
Ni2 P0 2.279420 1_655
Ni2 P0 2.279426 1_555
Ni3 P1 2.279420 1_455
Ni3 P1 2.279420 1_565
Ni3 P1 2.279426 1_555
