# generated using pymatgen
data_Tb3TlSe6
_symmetry_space_group_name_H-M   'P 1'
_cell_length_a   11.45859191
_cell_length_b   11.69134807
_cell_length_c   51.15999675
_cell_angle_alpha   90.00000000
_cell_angle_beta   90.00000000
_cell_angle_gamma   119.34359143
_symmetry_Int_Tables_number   1
_chemical_formula_structural   Tb3TlSe6
_chemical_formula_sum   'Tb3 Tl1 Se6'
_cell_volume   5974.36495189
_cell_formula_units_Z   1
loop_
 _symmetry_equiv_pos_site_id
 _symmetry_equiv_pos_as_xyz
  1  'x, y, z'
loop_
 _atom_site_type_symbol
 _atom_site_label
 _atom_site_symmetry_multiplicity
 _atom_site_fract_x
 _atom_site_fract_y
 _atom_site_fract_z
 _atom_site_occupancy
  Tb  Tb0  1  0.00000000  0.00000000  0.50000000  1
  Tb  Tb1  1  0.50000000  0.50000000  -0.00000000  1
  Tb  Tb2  1  0.00000000  0.50000000  -0.00000000  1
  Tl  Tl0  1  0.00000000  0.00000000  -0.00000000  1
  Se  Se0  1  0.00000000  0.00000000  0.76898306  1
  Se  Se1  1  0.00000000  0.00000000  0.23101694  1
  Se  Se2  1  0.72473527  0.71768926  0.00000000  1
  Se  Se3  1  0.27526473  0.28231074  0.00000000  1
  Se  Se4  1  0.00704601  0.28231074  -0.00000000  1
  Se  Se5  1  0.99295399  0.71768926  0.00000000  1
loop_
_geom_bond_atom_site_label_1
_geom_bond_atom_site_label_2
_geom_bond_distance
_geom_bond_site_symmetry_2
Se2 Tb1 2.585604 1_555
Se2 Tl0 3.261787 1_665
Se3 Tb1 2.585604 1_555
Se3 Tl0 3.261787 1_555
Se4 Tb2 2.585604 1_555
Se4 Tl0 3.261787 1_555
Se5 Tb2 2.585604 1_655
Se5 Tl0 3.261787 1_665
