# generated using pymatgen
data_AlTlSiO4
_symmetry_space_group_name_H-M   'P 1'
_cell_length_a   5.46397800
_cell_length_b   8.35242100
_cell_length_c   9.60303500
_cell_angle_alpha   90.00000000
_cell_angle_beta   90.00000000
_cell_angle_gamma   90.00000000
_symmetry_Int_Tables_number   1
_chemical_formula_structural   AlTlSiO4
_chemical_formula_sum   'Al4 Tl4 Si4 O16'
_cell_volume   438.25797772
_cell_formula_units_Z   4
loop_
 _symmetry_equiv_pos_site_id
 _symmetry_equiv_pos_as_xyz
  1  'x, y, z'
loop_
 _atom_site_type_symbol
 _atom_site_label
 _atom_site_symmetry_multiplicity
 _atom_site_fract_x
 _atom_site_fract_y
 _atom_site_fract_z
 _atom_site_occupancy
  Al  Al0  1  0.75000000  0.69321000  0.58414500  1
  Al  Al1  1  0.25000000  0.30679000  0.41585500  1
  Al  Al2  1  0.25000000  0.80679000  0.08414500  1
  Al  Al3  1  0.75000000  0.19321000  0.91585500  1
  Tl  Tl0  1  0.75000000  0.49772200  0.18308700  1
  Tl  Tl1  1  0.25000000  0.50227800  0.81691300  1
  Tl  Tl2  1  0.25000000  0.00227800  0.68308700  1
  Tl  Tl3  1  0.75000000  0.99772200  0.31691300  1
  Si  Si0  1  0.75000000  0.79554100  0.92280100  1
  Si  Si1  1  0.25000000  0.20445900  0.07719900  1
  Si  Si2  1  0.25000000  0.70445900  0.42280100  1
  Si  Si3  1  0.75000000  0.29554100  0.57719900  1
  O  O0  1  0.75000000  0.48743600  0.56347600  1
  O  O1  1  0.25000000  0.51256400  0.43652400  1
  O  O2  1  0.25000000  0.01256400  0.06347600  1
  O  O3  1  0.75000000  0.98743600  0.93652400  1
  O  O4  1  0.75000000  0.74094800  0.76045500  1
  O  O5  1  0.25000000  0.25905200  0.23954500  1
  O  O6  1  0.25000000  0.75905200  0.26045500  1
  O  O7  1  0.75000000  0.24094800  0.73954500  1
  O  O8  1  0.00905300  0.78264700  0.50272500  1
  O  O9  1  0.50905300  0.21735300  0.49727500  1
  O  O10  1  0.50905300  0.71735300  0.00272500  1
  O  O11  1  0.00905300  0.28264700  0.99727500  1
  O  O12  1  0.49094700  0.78264700  0.50272500  1
  O  O13  1  0.99094700  0.21735300  0.49727500  1
  O  O14  1  0.99094700  0.71735300  0.00272500  1
  O  O15  1  0.49094700  0.28264700  0.99727500  1
loop_
_geom_bond_atom_site_label_1
_geom_bond_atom_site_label_2
_geom_bond_distance
_geom_bond_site_symmetry_2
Al0 O0 1.730134 1_555
Al0 O4 1.739428 1_555
Al0 O8 1.781262 1_655
Al0 O12 1.781262 1_555
Al1 O1 1.730134 1_555
Al1 O5 1.739428 1_555
Al1 O9 1.781262 1_555
Al1 O13 1.781262 1_455
Al2 O2 1.730134 1_565
Al2 O6 1.739428 1_555
Al2 O10 1.781262 1_555
Al2 O14 1.781262 1_455
Al3 O3 1.730134 1_545
Al3 O7 1.739428 1_555
Al3 O11 1.781262 1_655
Al3 O15 1.781262 1_555
O0 Si3 1.608196 1_555
O1 Si2 1.608196 1_555
O2 Si1 1.608196 1_555
O3 Si0 1.608196 1_555
O4 Si0 1.624330 1_555
O5 Si1 1.624330 1_555
O6 Si2 1.624330 1_555
O7 Si3 1.624330 1_555
O8 Si2 1.657954 1_555
O8 Tl2 2.845762 1_565
O8 Tl3 2.900777 1_455
O9 Si3 1.657954 1_555
O9 Tl3 2.845762 1_545
O9 Tl2 2.900777 1_555
O10 Si0 1.657954 1_554
O10 Tl0 2.845762 1_555
O10 Tl1 2.900777 1_554
O11 Si1 1.657954 1_556
O11 Tl1 2.845762 1_555
O11 Tl0 2.900777 1_456
O12 Si2 1.657954 1_555
O12 Tl2 2.845762 1_565
O12 Tl3 2.900777 1_555
O13 Si3 1.657954 1_555
O13 Tl3 2.845762 1_545
O13 Tl2 2.900777 1_655
O14 Si0 1.657954 1_554
O14 Tl0 2.845762 1_555
O14 Tl1 2.900777 1_654
O15 Si1 1.657954 1_556
O15 Tl1 2.845762 1_555
O15 Tl0 2.900777 1_556
