# generated using pymatgen
data_PtN2(ClO)2
_symmetry_space_group_name_H-M   'P 1'
_cell_length_a   5.91464000
_cell_length_b   5.91464000
_cell_length_c   14.99418500
_cell_angle_alpha   90.00000000
_cell_angle_beta   90.00000000
_cell_angle_gamma   90.00000000
_symmetry_Int_Tables_number   1
_chemical_formula_structural   PtN2(ClO)2
_chemical_formula_sum   'Pt4 N8 Cl8 O8'
_cell_volume   524.54106899
_cell_formula_units_Z   4
loop_
 _symmetry_equiv_pos_site_id
 _symmetry_equiv_pos_as_xyz
  1  'x, y, z'
loop_
 _atom_site_type_symbol
 _atom_site_label
 _atom_site_symmetry_multiplicity
 _atom_site_fract_x
 _atom_site_fract_y
 _atom_site_fract_z
 _atom_site_occupancy
  Pt  Pt0  1  0.50000000  0.50000000  0.20680600  1
  Pt  Pt1  1  0.00000000  0.00000000  0.70680600  1
  Pt  Pt2  1  0.00000000  0.00000000  0.29319400  1
  Pt  Pt3  1  0.50000000  0.50000000  0.79319400  1
  N  N0  1  0.50000000  0.18364000  0.30408300  1
  N  N1  1  0.50000000  0.81636000  0.30408300  1
  N  N2  1  0.68364000  0.00000000  0.80408300  1
  N  N3  1  0.31636000  0.00000000  0.80408300  1
  N  N4  1  0.00000000  0.31636000  0.19591700  1
  N  N5  1  0.00000000  0.68364000  0.19591700  1
  N  N6  1  0.81636000  0.50000000  0.69591700  1
  N  N7  1  0.18364000  0.50000000  0.69591700  1
  Cl  Cl0  1  0.50000000  0.24060900  0.09266400  1
  Cl  Cl1  1  0.50000000  0.75939100  0.09266400  1
  Cl  Cl2  1  0.74060900  0.00000000  0.59266400  1
  Cl  Cl3  1  0.25939100  0.00000000  0.59266400  1
  Cl  Cl4  1  0.00000000  0.25939100  0.40733600  1
  Cl  Cl5  1  0.00000000  0.74060900  0.40733600  1
  Cl  Cl6  1  0.75939100  0.50000000  0.90733600  1
  Cl  Cl7  1  0.24060900  0.50000000  0.90733600  1
  O  O0  1  0.16510500  0.50000000  0.22923900  1
  O  O1  1  0.83489500  0.50000000  0.22923900  1
  O  O2  1  0.00000000  0.66510500  0.72923900  1
  O  O3  1  0.00000000  0.33489500  0.72923900  1
  O  O4  1  0.33489500  0.00000000  0.27076100  1
  O  O5  1  0.66510500  0.00000000  0.27076100  1
  O  O6  1  0.50000000  0.83489500  0.77076100  1
  O  O7  1  0.50000000  0.16510500  0.77076100  1
loop_
_geom_bond_atom_site_label_1
_geom_bond_atom_site_label_2
_geom_bond_distance
_geom_bond_site_symmetry_2
N0 O5 1.543701 1_555
N0 O4 1.543701 1_555
N0 Pt0 2.372489 1_555
N1 O5 1.543701 1_565
N1 O4 1.543701 1_565
N1 Pt0 2.372489 1_555
N2 O7 1.543701 1_555
N2 O6 1.543701 1_545
N2 Pt1 2.372489 1_655
N3 O7 1.543701 1_555
N3 O6 1.543701 1_545
N3 Pt1 2.372489 1_555
N4 O0 1.543701 1_555
N4 O1 1.543701 1_455
N4 Pt2 2.372489 1_555
N5 O0 1.543701 1_555
N5 O1 1.543701 1_455
N5 Pt2 2.372489 1_565
N6 O2 1.543701 1_655
N6 O3 1.543701 1_655
N6 Pt3 2.372489 1_555
N7 O2 1.543701 1_555
N7 O3 1.543701 1_555
N7 Pt3 2.372489 1_555
Cl0 Pt0 2.298456 1_555
Cl1 Pt0 2.298456 1_555
Cl2 Pt1 2.298456 1_655
Cl3 Pt1 2.298456 1_555
Cl4 Pt2 2.298456 1_555
Cl5 Pt2 2.298456 1_565
Cl6 Pt3 2.298456 1_555
Cl7 Pt3 2.298456 1_555
O0 Pt0 2.009140 1_555
O1 Pt0 2.009140 1_555
O2 Pt1 2.009140 1_565
O3 Pt1 2.009140 1_555
O4 Pt2 2.009140 1_555
O5 Pt2 2.009140 1_655
O6 Pt3 2.009140 1_555
O7 Pt3 2.009140 1_555
