# generated using pymatgen
data_Nd2Sb4Ir3
_symmetry_space_group_name_H-M   'P 1'
_cell_length_a   4.58540600
_cell_length_b   11.07275900
_cell_length_c   16.31671900
_cell_angle_alpha   90.00000000
_cell_angle_beta   90.00000000
_cell_angle_gamma   90.00000000
_symmetry_Int_Tables_number   1
_chemical_formula_structural   Nd2Sb4Ir3
_chemical_formula_sum   'Nd8 Sb16 Ir12'
_cell_volume   828.45033293
_cell_formula_units_Z   4
loop_
 _symmetry_equiv_pos_site_id
 _symmetry_equiv_pos_as_xyz
  1  'x, y, z'
loop_
 _atom_site_type_symbol
 _atom_site_label
 _atom_site_symmetry_multiplicity
 _atom_site_fract_x
 _atom_site_fract_y
 _atom_site_fract_z
 _atom_site_occupancy
  Nd  Nd0  1  0.25000000  0.74812200  0.50668000  1
  Nd  Nd1  1  0.25000000  0.75187800  0.00668000  1
  Nd  Nd2  1  0.75000000  0.25187800  0.49332000  1
  Nd  Nd3  1  0.75000000  0.24812200  0.99332000  1
  Nd  Nd4  1  0.25000000  0.58917300  0.75141000  1
  Nd  Nd5  1  0.25000000  0.91082700  0.25141000  1
  Nd  Nd6  1  0.75000000  0.41082700  0.24859000  1
  Nd  Nd7  1  0.75000000  0.08917300  0.74859000  1
  Sb  Sb0  1  0.25000000  0.27508700  0.64979000  1
  Sb  Sb1  1  0.25000000  0.22491300  0.14979000  1
  Sb  Sb2  1  0.75000000  0.72491300  0.35021000  1
  Sb  Sb3  1  0.75000000  0.77508700  0.85021000  1
  Sb  Sb4  1  0.25000000  0.88679400  0.71059700  1
  Sb  Sb5  1  0.25000000  0.61320600  0.21059700  1
  Sb  Sb6  1  0.75000000  0.11320600  0.28940300  1
  Sb  Sb7  1  0.75000000  0.38679400  0.78940300  1
  Sb  Sb8  1  0.25000000  0.06266600  0.89421600  1
  Sb  Sb9  1  0.25000000  0.43733400  0.39421600  1
  Sb  Sb10  1  0.75000000  0.93733400  0.10578400  1
  Sb  Sb11  1  0.75000000  0.56266600  0.60578400  1
  Sb  Sb12  1  0.25000000  0.44705900  0.93159800  1
  Sb  Sb13  1  0.25000000  0.05294100  0.43159800  1
  Sb  Sb14  1  0.75000000  0.55294100  0.06840200  1
  Sb  Sb15  1  0.75000000  0.94705900  0.56840200  1
  Ir  Ir0  1  0.25000000  0.46602300  0.55623300  1
  Ir  Ir1  1  0.25000000  0.03397700  0.05623300  1
  Ir  Ir2  1  0.75000000  0.53397700  0.44376700  1
  Ir  Ir3  1  0.75000000  0.96602300  0.94376700  1
  Ir  Ir4  1  0.25000000  0.05639400  0.59238700  1
  Ir  Ir5  1  0.25000000  0.44360600  0.09238700  1
  Ir  Ir6  1  0.75000000  0.94360600  0.40761300  1
  Ir  Ir7  1  0.75000000  0.55639400  0.90761300  1
  Ir  Ir8  1  0.25000000  0.27689200  0.81756400  1
  Ir  Ir9  1  0.25000000  0.22310800  0.31756400  1
  Ir  Ir10  1  0.75000000  0.72310800  0.18243600  1
  Ir  Ir11  1  0.75000000  0.77689200  0.68243600  1
loop_
_geom_bond_atom_site_label_1
_geom_bond_atom_site_label_2
_geom_bond_distance
_geom_bond_site_symmetry_2
Nd0 Sb15 3.335114 1_455
Nd0 Sb15 3.335114 1_555
Nd0 Sb2 3.441036 1_455
Nd0 Sb2 3.441036 1_555
Nd0 Sb11 3.476816 1_455
Nd0 Sb11 3.476816 1_555
Nd0 Sb13 3.590646 1_565
Nd0 Sb4 3.664470 1_555
Nd0 Sb9 3.899974 1_555
Nd1 Sb14 3.335114 1_455
Nd1 Sb14 3.335114 1_555
Nd1 Sb3 3.441036 1_454
Nd1 Sb3 3.441036 1_554
Nd1 Sb10 3.476816 1_455
Nd1 Sb10 3.476816 1_555
Nd1 Sb12 3.590646 1_554
Nd1 Sb5 3.664470 1_555
Nd1 Sb8 3.899974 1_564
Nd2 Sb13 3.335114 1_555
Nd2 Sb13 3.335114 1_655
Nd2 Sb0 3.441036 1_555
Nd2 Sb0 3.441036 1_655
Nd2 Sb9 3.476816 1_555
Nd2 Sb9 3.476816 1_655
Nd2 Sb15 3.590646 1_545
Nd2 Sb6 3.664470 1_555
Nd2 Sb11 3.899974 1_555
Nd3 Sb12 3.335114 1_555
Nd3 Sb12 3.335114 1_655
Nd3 Sb1 3.441036 1_556
Nd3 Sb1 3.441036 1_656
Nd3 Sb8 3.476816 1_555
Nd3 Sb8 3.476816 1_655
Nd3 Sb14 3.590646 1_556
Nd3 Sb7 3.664470 1_555
Nd3 Sb10 3.899974 1_546
Nd4 Sb7 3.265332 1_455
Nd4 Sb7 3.265332 1_555
Nd4 Sb11 3.314916 1_455
Nd4 Sb11 3.314916 1_555
Nd4 Sb12 3.334704 1_555
Nd4 Sb4 3.362097 1_555
Nd4 Sb3 3.477511 1_455
Nd4 Sb3 3.477511 1_555
Nd4 Sb0 3.852842 1_555
Nd5 Sb6 3.265332 1_565
Nd5 Sb6 3.265332 1_465
Nd5 Sb10 3.314916 1_455
Nd5 Sb10 3.314916 1_555
Nd5 Sb13 3.334704 1_565
Nd5 Sb5 3.362097 1_555
Nd5 Sb2 3.477511 1_455
Nd5 Sb2 3.477511 1_555
Nd5 Sb1 3.852842 1_565
Nd6 Sb5 3.265332 1_655
Nd6 Sb5 3.265332 1_555
Nd6 Sb9 3.314916 1_655
Nd6 Sb9 3.314916 1_555
Nd6 Sb14 3.334704 1_555
Nd6 Sb6 3.362097 1_555
Nd6 Sb1 3.477511 1_555
Nd6 Sb1 3.477511 1_655
Nd6 Sb2 3.852842 1_555
Nd7 Sb4 3.265332 1_645
Nd7 Sb4 3.265332 1_545
Nd7 Sb8 3.314916 1_555
Nd7 Sb8 3.314916 1_655
Nd7 Sb15 3.334704 1_545
Nd7 Sb7 3.362097 1_555
Nd7 Sb0 3.477511 1_555
Nd7 Sb0 3.477511 1_655
Nd7 Sb3 3.852842 1_545
Ir0 Sb0 2.607705 1_555
Ir0 Sb11 2.656181 1_455
Ir0 Sb11 2.656181 1_555
Ir0 Sb9 2.662604 1_555
Ir0 Ir2 3.031527 1_555
Ir0 Ir2 3.031527 1_455
Ir0 Nd0 3.226563 1_555
Ir0 Nd2 3.454379 1_555
Ir0 Nd2 3.454379 1_455
Ir0 Nd4 3.464306 1_555
Ir1 Sb1 2.607705 1_555
Ir1 Sb10 2.656181 1_545
Ir1 Sb10 2.656181 1_445
Ir1 Sb8 2.662604 1_554
Ir1 Ir3 3.031527 1_544
Ir1 Ir3 3.031527 1_444
Ir1 Nd1 3.226563 1_545
Ir1 Nd3 3.454379 1_554
Ir1 Nd3 3.454379 1_454
Ir1 Nd5 3.464306 1_545
Ir2 Sb2 2.607705 1_555
Ir2 Sb9 2.656181 1_655
Ir2 Sb9 2.656181 1_555
Ir2 Sb11 2.662604 1_555
Ir2 Nd2 3.226563 1_555
Ir2 Nd0 3.454379 1_655
Ir2 Nd0 3.454379 1_555
Ir2 Nd6 3.464306 1_555
Ir3 Sb3 2.607705 1_555
Ir3 Sb8 2.656181 1_565
Ir3 Sb8 2.656181 1_665
Ir3 Sb10 2.662604 1_556
Ir3 Nd3 3.226563 1_565
Ir3 Nd1 3.454379 1_656
Ir3 Nd1 3.454379 1_556
Ir3 Nd7 3.464306 1_565
Ir4 Sb0 2.596364 1_555
Ir4 Sb15 2.622079 1_545
Ir4 Sb15 2.622079 1_445
Ir4 Sb13 2.623828 1_555
Ir4 Sb4 2.692011 1_545
Ir4 Nd7 3.447347 1_455
Ir4 Nd7 3.447347 1_555
Ir4 Nd2 3.543255 1_555
Ir4 Nd2 3.543255 1_455
Ir4 Nd0 3.688784 1_545
Ir5 Sb1 2.596364 1_555
Ir5 Sb14 2.622079 1_455
Ir5 Sb14 2.622079 1_555
Ir5 Sb12 2.623828 1_554
Ir5 Sb5 2.692011 1_555
Ir5 Nd6 3.447347 1_555
Ir5 Nd6 3.447347 1_455
Ir5 Nd3 3.543255 1_554
Ir5 Nd3 3.543255 1_454
Ir5 Nd1 3.688784 1_555
Ir6 Sb2 2.596364 1_555
Ir6 Sb13 2.622079 1_565
Ir6 Sb13 2.622079 1_665
Ir6 Sb15 2.623828 1_555
Ir6 Sb6 2.692011 1_565
Ir6 Nd5 3.447347 1_655
Ir6 Nd5 3.447347 1_555
Ir6 Nd0 3.543255 1_555
Ir6 Nd0 3.543255 1_655
Ir6 Nd2 3.688784 1_565
Ir7 Sb3 2.596364 1_555
Ir7 Sb12 2.622079 1_655
Ir7 Sb12 2.622079 1_555
Ir7 Sb14 2.623828 1_556
Ir7 Sb7 2.692011 1_555
Ir7 Nd4 3.447347 1_655
Ir7 Nd4 3.447347 1_555
Ir7 Nd1 3.543255 1_656
Ir7 Nd1 3.543255 1_556
Ir7 Nd3 3.688784 1_555
Ir8 Sb7 2.636003 1_455
Ir8 Sb7 2.636003 1_555
Ir8 Sb12 2.648082 1_555
Ir8 Sb8 2.681605 1_555
Ir8 Sb0 2.737594 1_555
Ir8 Nd7 3.292950 1_455
Ir8 Nd7 3.292950 1_555
Ir8 Nd4 3.622376 1_555
Ir8 Nd3 3.685380 1_455
Ir8 Nd3 3.685380 1_555
Ir9 Sb6 2.636003 1_455
Ir9 Sb6 2.636003 1_555
Ir9 Sb13 2.648082 1_555
Ir9 Sb9 2.681605 1_555
Ir9 Sb1 2.737594 1_555
Ir9 Nd6 3.292950 1_455
Ir9 Nd6 3.292950 1_555
Ir9 Nd5 3.622376 1_545
Ir9 Nd2 3.685380 1_555
Ir9 Nd2 3.685380 1_455
Ir10 Sb5 2.636003 1_555
Ir10 Sb5 2.636003 1_655
Ir10 Sb14 2.648082 1_555
Ir10 Sb10 2.681605 1_555
Ir10 Sb2 2.737594 1_555
Ir10 Nd5 3.292950 1_655
Ir10 Nd5 3.292950 1_555
Ir10 Nd6 3.622376 1_555
Ir10 Nd1 3.685380 1_655
Ir10 Nd1 3.685380 1_555
Ir11 Sb4 2.636003 1_555
Ir11 Sb4 2.636003 1_655
Ir11 Sb15 2.648082 1_555
Ir11 Sb11 2.681605 1_555
Ir11 Sb3 2.737594 1_555
Ir11 Nd4 3.292950 1_655
Ir11 Nd4 3.292950 1_555
Ir11 Nd7 3.622376 1_565
Ir11 Nd0 3.685380 1_555
Ir11 Nd0 3.685380 1_655
