# generated using pymatgen
data_As8H2CS10(N10Cl)2
_symmetry_space_group_name_H-M   'P 1'
_cell_length_a   12.17331664
_cell_length_b   12.17331664
_cell_length_c   11.83429134
_cell_angle_alpha   85.13628338
_cell_angle_beta   85.13628338
_cell_angle_gamma   90.77673544
_symmetry_Int_Tables_number   1
_chemical_formula_structural   As8H2CS10(N10Cl)2
_chemical_formula_sum   'As16 H4 C2 S20 N40 Cl4'
_cell_volume   1740.73233096
_cell_formula_units_Z   2
loop_
 _symmetry_equiv_pos_site_id
 _symmetry_equiv_pos_as_xyz
  1  'x, y, z'
loop_
 _atom_site_type_symbol
 _atom_site_label
 _atom_site_symmetry_multiplicity
 _atom_site_fract_x
 _atom_site_fract_y
 _atom_site_fract_z
 _atom_site_occupancy
  As  As0  1  0.37420300  0.37064500  0.66971500  1
  As  As1  1  0.62935500  0.62579700  0.83028500  1
  As  As2  1  0.62579700  0.62935500  0.33028500  1
  As  As3  1  0.37064500  0.37420300  0.16971500  1
  As  As4  1  0.18117700  0.29559800  0.50615700  1
  As  As5  1  0.70440200  0.81882300  0.99384300  1
  As  As6  1  0.81882300  0.70440200  0.49384300  1
  As  As7  1  0.29559800  0.18117700  0.00615700  1
  As  As8  1  0.35280400  0.68103900  0.57935500  1
  As  As9  1  0.31896100  0.64719600  0.92064500  1
  As  As10  1  0.64719600  0.31896100  0.42064500  1
  As  As11  1  0.68103900  0.35280400  0.07935500  1
  As  As12  1  0.15309400  0.64438600  0.40325400  1
  As  As13  1  0.35561400  0.84690600  0.09674600  1
  As  As14  1  0.84690600  0.35561400  0.59674600  1
  As  As15  1  0.64438600  0.15309400  0.90325400  1
  H  H0  1  0.07858000  0.99802400  0.19067500  1
  H  H1  1  0.00197600  0.92142000  0.30932500  1
  H  H2  1  0.92142000  0.00197600  0.80932500  1
  H  H3  1  0.99802400  0.07858000  0.69067500  1
  C  C0  1  0.00453600  0.99546400  0.25000000  1
  C  C1  1  0.99546400  0.00453600  0.75000000  1
  S  S0  1  0.35922700  0.13732100  0.59592000  1
  S  S1  1  0.86267900  0.64077300  0.90408000  1
  S  S2  1  0.64077300  0.86267900  0.40408000  1
  S  S3  1  0.13732100  0.35922700  0.09592000  1
  S  S4  1  0.12959100  0.32085400  0.76145100  1
  S  S5  1  0.67914600  0.87040900  0.73854900  1
  S  S6  1  0.87040900  0.67914600  0.23854900  1
  S  S7  1  0.32085400  0.12959100  0.26145100  1
  S  S8  1  0.23441500  0.87437000  0.45901000  1
  S  S9  1  0.12563000  0.76558500  0.04099000  1
  S  S10  1  0.76558500  0.12563000  0.54099000  1
  S  S11  1  0.87437000  0.23441500  0.95901000  1
  S  S12  1  0.11415600  0.60247300  0.66577600  1
  S  S13  1  0.39752700  0.88584400  0.83422400  1
  S  S14  1  0.88584400  0.39752700  0.33422400  1
  S  S15  1  0.60247300  0.11415600  0.16577600  1
  S  S16  1  0.34849900  0.49030900  0.43278200  1
  S  S17  1  0.50969100  0.65150100  0.06721800  1
  S  S18  1  0.65150100  0.50969100  0.56721800  1
  S  S19  1  0.49030900  0.34849900  0.93278200  1
  N  N0  1  0.42598700  0.22505700  0.65049800  1
  N  N1  1  0.77494300  0.57401300  0.84950200  1
  N  N2  1  0.57401300  0.77494300  0.34950200  1
  N  N3  1  0.22505700  0.42598700  0.15049800  1
  N  N4  1  0.24531600  0.15786000  0.55098000  1
  N  N5  1  0.84214000  0.75468400  0.94902000  1
  N  N6  1  0.75468400  0.84214000  0.44902000  1
  N  N7  1  0.15786000  0.24531600  0.05098000  1
  N  N8  1  0.25300300  0.33274100  0.78070100  1
  N  N9  1  0.66725900  0.74699700  0.71929900  1
  N  N10  1  0.74699700  0.66725900  0.21929900  1
  N  N11  1  0.33274100  0.25300300  0.28070100  1
  N  N12  1  0.08694600  0.30371700  0.64463000  1
  N  N13  1  0.69628300  0.91305400  0.85537000  1
  N  N14  1  0.91305400  0.69628300  0.35537000  1
  N  N15  1  0.30371700  0.08694600  0.14463000  1
  N  N16  1  0.31313400  0.83020400  0.54660600  1
  N  N17  1  0.16979600  0.68686600  0.95339400  1
  N  N18  1  0.68686600  0.16979600  0.45339400  1
  N  N19  1  0.83020400  0.31313400  0.04660600  1
  N  N20  1  0.15925800  0.80130400  0.39629600  1
  N  N21  1  0.19869600  0.84074200  0.10370400  1
  N  N22  1  0.84074200  0.19869600  0.60370400  1
  N  N23  1  0.80130400  0.15925800  0.89629600  1
  N  N24  1  0.23366800  0.63097000  0.68937900  1
  N  N25  1  0.36903000  0.76633200  0.81062100  1
  N  N26  1  0.76633200  0.36903000  0.31062100  1
  N  N27  1  0.63097000  0.23366800  0.18937900  1
  N  N28  1  0.06872700  0.61856900  0.54757000  1
  N  N29  1  0.38143100  0.93127300  0.95243000  1
  N  N30  1  0.93127300  0.38143100  0.45243000  1
  N  N31  1  0.61856900  0.06872700  0.04757000  1
  N  N32  1  0.29447800  0.39596500  0.53742600  1
  N  N33  1  0.60403500  0.70552200  0.96257400  1
  N  N34  1  0.70552200  0.60403500  0.46257400  1
  N  N35  1  0.39596500  0.29447800  0.03742600  1
  N  N36  1  0.29836100  0.61651500  0.45048400  1
  N  N37  1  0.38348500  0.70163900  0.04951600  1
  N  N38  1  0.70163900  0.38348500  0.54951600  1
  N  N39  1  0.61651500  0.29836100  0.95048400  1
  Cl  Cl0  1  0.00764600  0.11240000  0.33051100  1
  Cl  Cl1  1  0.88760000  0.99235400  0.16948900  1
  Cl  Cl2  1  0.99235400  0.88760000  0.66948900  1
  Cl  Cl3  1  0.11240000  0.00764600  0.83051100  1
loop_
_geom_bond_atom_site_label_1
_geom_bond_atom_site_label_2
_geom_bond_distance
_geom_bond_site_symmetry_2
As0 N0 1.914272 1_555
As0 N8 1.914425 1_555
As0 N32 1.916188 1_555
As1 N1 1.914272 1_555
As1 N9 1.914425 1_555
As1 N33 1.916188 1_555
As2 N2 1.914272 1_555
As2 N10 1.914425 1_555
As2 N34 1.916188 1_555
As3 N3 1.914272 1_555
As3 N11 1.914425 1_555
As3 N35 1.916188 1_555
As4 N32 1.910388 1_555
As4 N4 1.912413 1_555
As4 N12 1.929463 1_555
As5 N33 1.910388 1_555
As5 N5 1.912413 1_555
As5 N13 1.929463 1_555
As6 N34 1.910388 1_555
As6 N6 1.912413 1_555
As6 N14 1.929463 1_555
As7 N35 1.910388 1_555
As7 N7 1.912413 1_555
As7 N15 1.929463 1_555
As8 N16 1.901798 1_555
As8 N24 1.921304 1_555
As8 N36 1.934565 1_555
As9 N17 1.901798 1_555
As9 N25 1.921304 1_555
As9 N37 1.934565 1_556
As10 N18 1.901798 1_555
As10 N26 1.921304 1_555
As10 N38 1.934565 1_555
As11 N19 1.901798 1_555
As11 N27 1.921304 1_555
As11 N39 1.934565 1_554
As12 N20 1.905181 1_555
As12 N28 1.916558 1_555
As12 N36 1.925203 1_555
As13 N21 1.905181 1_555
As13 N29 1.916558 1_554
As13 N37 1.925203 1_555
As14 N22 1.905181 1_555
As14 N30 1.916558 1_555
As14 N38 1.925203 1_555
As15 N23 1.905181 1_555
As15 N31 1.916558 1_556
As15 N39 1.925203 1_555
C0 H1 1.092952 1_555
C0 H0 1.092952 1_555
C0 Cl1 1.780516 1_455
C0 Cl0 1.780516 1_565
C1 H2 1.092952 1_555
C1 H3 1.092952 1_555
C1 Cl2 1.780516 1_545
C1 Cl3 1.780516 1_655
N0 S0 1.549452 1_555
N1 S1 1.549452 1_555
N2 S2 1.549452 1_555
N3 S3 1.549452 1_555
N4 S0 1.542768 1_555
N5 S1 1.542768 1_555
N6 S2 1.542768 1_555
N7 S3 1.542768 1_555
N8 S4 1.545178 1_555
N9 S5 1.545178 1_555
N10 S6 1.545178 1_555
N11 S7 1.545178 1_555
N12 S4 1.546602 1_555
N13 S5 1.546602 1_555
N14 S6 1.546602 1_555
N15 S7 1.546602 1_555
N16 S8 1.539439 1_555
N17 S9 1.539439 1_556
N18 S10 1.539439 1_555
N19 S11 1.539439 1_554
N20 S8 1.544032 1_555
N21 S9 1.544032 1_555
N22 S10 1.544032 1_555
N23 S11 1.544032 1_555
N24 S12 1.544873 1_555
N25 S13 1.544873 1_555
N26 S14 1.544873 1_555
N27 S15 1.544873 1_555
N28 S12 1.545556 1_555
N29 S13 1.545556 1_555
N30 S14 1.545556 1_555
N31 S15 1.545556 1_555
N32 S16 1.698622 1_555
N33 S17 1.698622 1_556
N34 S18 1.698622 1_555
N35 S19 1.698622 1_554
N36 S16 1.683771 1_555
N37 S17 1.683771 1_555
N38 S18 1.683771 1_555
N39 S19 1.683771 1_555
