# generated using pymatgen
data_Mg5Si6
_symmetry_space_group_name_H-M   'P 1'
_cell_length_a   13.67245500
_cell_length_b   5.26286300
_cell_length_c   5.50909404
_cell_angle_alpha   83.73531949
_cell_angle_beta   90.00000000
_cell_angle_gamma   90.00000000
_symmetry_Int_Tables_number   1
_chemical_formula_structural   Mg5Si6
_chemical_formula_sum   'Mg10 Si12'
_cell_volume   394.04656971
_cell_formula_units_Z   2
loop_
 _symmetry_equiv_pos_site_id
 _symmetry_equiv_pos_as_xyz
  1  'x, y, z'
loop_
 _atom_site_type_symbol
 _atom_site_label
 _atom_site_symmetry_multiplicity
 _atom_site_fract_x
 _atom_site_fract_y
 _atom_site_fract_z
 _atom_site_occupancy
  Mg  Mg0  1  0.99331800  0.98129900  0.70862300  1
  Mg  Mg1  1  0.49331800  0.01870100  0.29137700  1
  Mg  Mg2  1  0.35092900  0.46439400  0.45606300  1
  Mg  Mg3  1  0.61301600  0.82254400  0.77941300  1
  Mg  Mg4  1  0.85092900  0.53560600  0.54393700  1
  Mg  Mg5  1  0.19195000  0.70036100  0.00913100  1
  Mg  Mg6  1  0.39100500  0.84563400  0.82900000  1
  Mg  Mg7  1  0.69195000  0.29963900  0.99086900  1
  Mg  Mg8  1  0.89100500  0.15436600  0.17100000  1
  Mg  Mg9  1  0.11301600  0.17745600  0.22058700  1
  Si  Si0  1  0.00167700  0.69553400  0.22531700  1
  Si  Si1  1  0.01681200  0.46891900  0.85796500  1
  Si  Si2  1  0.50167700  0.30446600  0.77468300  1
  Si  Si3  1  0.51681200  0.53108100  0.14203500  1
  Si  Si4  1  0.14125500  0.60296300  0.52560600  1
  Si  Si5  1  0.78755800  0.04340900  0.62351300  1
  Si  Si6  1  0.64125500  0.39703700  0.47439400  1
  Si  Si7  1  0.19379800  0.15761900  0.69681700  1
  Si  Si8  1  0.28755800  0.95659100  0.37648700  1
  Si  Si9  1  0.82040900  0.71151000  0.99550600  1
  Si  Si10  1  0.69379800  0.84238100  0.30318300  1
  Si  Si11  1  0.32040900  0.28849000  0.00449400  1
loop_
_geom_bond_atom_site_label_1
_geom_bond_atom_site_label_2
_geom_bond_distance
_geom_bond_site_symmetry_2
Mg0 Si1 2.750903 1_655
Mg0 Si1 2.797616 1_665
Mg0 Si5 2.864889 1_565
Mg0 Si7 2.892321 1_665
Mg0 Si0 3.072988 1_656
Mg0 Si4 3.083907 1_655
Mg0 Si9 3.100493 1_555
Mg0 Si0 3.199711 1_655
Mg0 Mg9 3.219797 1_665
Mg1 Si3 2.750903 1_555
Mg1 Si3 2.797616 1_545
Mg1 Si8 2.864889 1_545
Mg1 Si10 2.892321 1_545
Mg1 Si2 3.072988 1_554
Mg1 Si6 3.083907 1_555
Mg1 Si11 3.100493 1_555
Mg1 Si2 3.199711 1_555
Mg1 Mg3 3.219797 1_545
Mg2 Si8 2.721224 1_555
Mg2 Si2 2.777626 1_555
Mg2 Si11 2.778958 1_555
Mg2 Si3 2.850886 1_555
Mg2 Si8 2.888051 1_545
Mg2 Si7 2.917869 1_555
Mg2 Si4 2.992974 1_555
Mg2 Si11 3.090198 1_556
Mg3 Si3 2.721246 1_556
Mg3 Si5 2.750617 1_565
Mg3 Si10 2.838005 1_555
Mg3 Si2 2.955731 1_565
Mg3 Si6 2.967969 1_555
Mg3 Mg6 3.051312 1_555
Mg3 Mg7 3.065209 1_555
Mg3 Mg7 3.076474 1_565
Mg3 Si10 3.102038 1_556
Mg3 Si9 3.106018 1_555
Mg3 Si2 3.125335 1_555
Mg4 Si5 2.721224 1_555
Mg4 Si0 2.777626 1_655
Mg4 Si9 2.778958 1_555
Mg4 Si1 2.850886 1_655
Mg4 Si5 2.888051 1_565
Mg4 Si10 2.917869 1_555
Mg4 Si6 2.992974 1_555
Mg4 Si9 3.090198 1_554
Mg5 Si11 2.792146 1_555
Mg5 Si7 2.801522 1_564
Mg5 Si1 2.851755 1_554
Mg5 Si4 2.852529 1_554
Mg5 Si0 2.860121 1_555
Mg5 Si8 2.866809 1_555
Mg5 Si4 2.919016 1_555
Mg5 Mg9 3.065209 1_555
Mg5 Mg9 3.076474 1_565
Mg6 Si11 2.791106 1_566
Mg6 Si3 2.837287 1_556
Mg6 Si2 2.837711 1_565
Mg6 Si8 2.870275 1_555
Mg6 Si11 3.137726 1_556
Mg6 Si2 3.267541 1_555
Mg7 Si9 2.792146 1_555
Mg7 Si10 2.801522 1_546
Mg7 Si3 2.851755 1_556
Mg7 Si6 2.852529 1_556
Mg7 Si2 2.860121 1_555
Mg7 Si5 2.866809 1_555
Mg7 Si6 2.919016 1_555
Mg8 Si9 2.791106 1_544
Mg8 Si1 2.837287 1_654
Mg8 Si0 2.837711 1_645
Mg8 Si5 2.870275 1_555
Mg8 Mg9 3.051312 1_655
Mg8 Si9 3.137726 1_554
Mg8 Si0 3.267541 1_655
Mg9 Si1 2.721246 1_554
Mg9 Si8 2.750617 1_545
Mg9 Si7 2.838005 1_555
Mg9 Si0 2.955731 1_545
Mg9 Si4 2.967969 1_555
Mg9 Si7 3.102038 1_554
Mg9 Si11 3.106018 1_555
Mg9 Si0 3.125335 1_555
Si0 Si1 2.467317 1_554
Si0 Si4 2.537740 1_555
Si0 Si9 2.780123 1_454
Si1 Si4 2.542286 1_555
Si2 Si3 2.467317 1_556
Si2 Si6 2.537740 1_555
Si3 Si6 2.542286 1_555
Si4 Si7 2.533101 1_555
Si4 Si8 2.793952 1_555
Si5 Si9 2.582907 1_545
Si5 Si6 2.793952 1_555
Si7 Si8 2.506872 1_545
Si10 Si5 2.506872 1_565
Si10 Si6 2.533101 1_555
Si10 Si9 2.568837 1_554
Si11 Si7 2.568837 1_554
Si11 Si8 2.582907 1_545
Si11 Si2 2.780123 1_554
