# generated using pymatgen
data_LiFePO4
_symmetry_space_group_name_H-M   'P 1'
_cell_length_a   5.60538999
_cell_length_b   6.31985773
_cell_length_c   9.20678282
_cell_angle_alpha   104.31935706
_cell_angle_beta   83.12747297
_cell_angle_gamma   103.60250904
_symmetry_Int_Tables_number   1
_chemical_formula_structural   LiFePO4
_chemical_formula_sum   'Li4 Fe4 P4 O16'
_cell_volume   306.50026431
_cell_formula_units_Z   4
loop_
 _symmetry_equiv_pos_site_id
 _symmetry_equiv_pos_as_xyz
  1  'x, y, z'
loop_
 _atom_site_type_symbol
 _atom_site_label
 _atom_site_symmetry_multiplicity
 _atom_site_fract_x
 _atom_site_fract_y
 _atom_site_fract_z
 _atom_site_occupancy
  Li  Li0  1  0.33328400  0.35919100  0.10078200  1
  Li  Li1  1  0.68006700  0.63686200  0.89708300  1
  Li  Li2  1  0.88313800  0.47522800  0.25473000  1
  Li  Li3  1  0.12376800  0.52108400  0.74453300  1
  Fe  Fe0  1  0.33162000  0.05021100  0.78919500  1
  Fe  Fe1  1  0.22388000  0.16978300  0.41367900  1
  Fe  Fe2  1  0.65485000  0.94290600  0.20342300  1
  Fe  Fe3  1  0.77368900  0.83122400  0.58693300  1
  P  P0  1  0.18346900  0.81574700  0.07460500  1
  P  P1  1  0.81466400  0.17771400  0.92497900  1
  P  P2  1  0.30367700  0.69969800  0.44896200  1
  P  P3  1  0.69576000  0.30847500  0.55215000  1
  O  O0  1  0.38301800  0.67930200  0.07817700  1
  O  O1  1  0.61951900  0.31586300  0.91932200  1
  O  O2  1  0.92609600  0.71571800  0.13930500  1
  O  O3  1  0.07616700  0.27537800  0.86182700  1
  O  O4  1  0.83833200  0.17537100  0.09146100  1
  O  O5  1  0.15777500  0.81860400  0.90911900  1
  O  O6  1  0.28672800  0.05653600  0.17130600  1
  O  O7  1  0.71221700  0.93762100  0.82985200  1
  O  O8  1  0.11256400  0.83873700  0.44172900  1
  O  O9  1  0.88145400  0.16382500  0.56008900  1
  O  O10  1  0.56460500  0.79659000  0.38358800  1
  O  O11  1  0.43108500  0.21456400  0.61504800  1
  O  O12  1  0.20481100  0.46071300  0.35595300  1
  O  O13  1  0.79905300  0.54470200  0.64898800  1
  O  O14  1  0.66241000  0.30481900  0.38689700  1
  O  O15  1  0.34229800  0.71353300  0.61628300  1
loop_
_geom_bond_atom_site_label_1
_geom_bond_atom_site_label_2
_geom_bond_distance
_geom_bond_site_symmetry_2
Li0 O0 2.035408 1_555
Li0 O6 2.118311 1_555
Li0 O1 2.186148 1_554
Li0 O12 2.348686 1_555
Li1 O1 2.034104 1_555
Li1 O7 2.103007 1_555
Li1 O0 2.224578 1_556
Li1 O13 2.271893 1_555
Li2 O14 1.957682 1_555
Li2 O2 2.015647 1_555
Li2 O4 2.090758 1_555
Li2 O12 2.156465 1_655
Li3 O15 2.009335 1_555
Li3 O3 2.052873 1_555
Li3 O5 2.087853 1_555
Li3 O13 2.164478 1_455
Fe0 O5 2.045032 1_545
Fe0 O11 2.073125 1_555
Fe0 O3 2.186579 1_555
Fe0 O1 2.247587 1_555
Fe0 O15 2.329557 1_545
Fe0 O7 2.496937 1_545
Fe1 O12 2.064915 1_555
Fe1 O8 2.108989 1_545
Fe1 O6 2.180891 1_555
Fe1 O9 2.207839 1_455
Fe1 O11 2.228777 1_555
Fe1 O14 2.409111 1_555
Fe2 O4 2.015788 1_565
Fe2 O10 2.049452 1_555
Fe2 O0 2.168644 1_555
Fe2 O2 2.261526 1_555
Fe2 O6 2.410208 1_565
Fe2 O14 2.479327 1_565
Fe3 O13 2.068290 1_555
Fe3 O9 2.113845 1_565
Fe3 O7 2.180248 1_555
Fe3 O8 2.186068 1_655
Fe3 O10 2.264551 1_555
Fe3 O15 2.360205 1_555
O0 P0 1.572368 1_555
O1 P1 1.564247 1_555
O2 P0 1.545123 1_655
O3 P1 1.554237 1_455
O4 P1 1.558204 1_554
O5 P0 1.552338 1_556
O6 P0 1.575515 1_545
O7 P1 1.565994 1_565
O8 P2 1.553368 1_555
O9 P3 1.556704 1_555
O10 P2 1.557818 1_555
O11 P3 1.561699 1_555
O12 P2 1.549732 1_555
O13 P3 1.554830 1_555
O14 P3 1.548849 1_555
O15 P2 1.559454 1_555
