# generated using pymatgen
data_Ho4ZrAl15
_symmetry_space_group_name_H-M   'P 1'
_cell_length_a   4.20775700
_cell_length_b   4.20775700
_cell_length_c   21.10191600
_cell_angle_alpha   90.00000000
_cell_angle_beta   90.00000000
_cell_angle_gamma   90.00000000
_symmetry_Int_Tables_number   1
_chemical_formula_structural   Ho4ZrAl15
_chemical_formula_sum   'Ho4 Zr1 Al15'
_cell_volume   373.61404349
_cell_formula_units_Z   1
loop_
 _symmetry_equiv_pos_site_id
 _symmetry_equiv_pos_as_xyz
  1  'x, y, z'
loop_
 _atom_site_type_symbol
 _atom_site_label
 _atom_site_symmetry_multiplicity
 _atom_site_fract_x
 _atom_site_fract_y
 _atom_site_fract_z
 _atom_site_occupancy
  Ho  Ho0  1  0.00000000  0.00000000  0.19781300  1
  Ho  Ho1  1  0.00000000  0.00000000  0.39962200  1
  Ho  Ho2  1  0.00000000  0.00000000  0.60037800  1
  Ho  Ho3  1  0.00000000  0.00000000  0.80218700  1
  Zr  Zr0  1  0.00000000  0.00000000  0.00000000  1
  Al  Al0  1  0.50000000  0.50000000  0.00000000  1
  Al  Al1  1  0.50000000  0.50000000  0.19837700  1
  Al  Al2  1  0.50000000  0.50000000  0.39949000  1
  Al  Al3  1  0.50000000  0.50000000  0.60051000  1
  Al  Al4  1  0.50000000  0.50000000  0.80162300  1
  Al  Al5  1  0.50000000  0.00000000  0.09656200  1
  Al  Al6  1  0.50000000  0.00000000  0.29915700  1
  Al  Al7  1  0.50000000  0.00000000  0.50000000  1
  Al  Al8  1  0.50000000  0.00000000  0.70084300  1
  Al  Al9  1  0.50000000  0.00000000  0.90343800  1
  Al  Al10  1  0.00000000  0.50000000  0.09656200  1
  Al  Al11  1  0.00000000  0.50000000  0.29915700  1
  Al  Al12  1  0.00000000  0.50000000  0.50000000  1
  Al  Al13  1  0.00000000  0.50000000  0.70084300  1
  Al  Al14  1  0.00000000  0.50000000  0.90343800  1
loop_
_geom_bond_atom_site_label_1
_geom_bond_atom_site_label_2
_geom_bond_distance
_geom_bond_site_symmetry_2
Al0 Al5 2.928873 1_555
Al0 Al10 2.928873 1_555
Al0 Al5 2.928873 1_565
Al0 Al10 2.928873 1_655
Al0 Al14 2.928873 1_654
Al0 Al14 2.928873 1_554
Al0 Al9 2.928873 1_564
Al0 Al9 2.928873 1_554
Al0 Zr0 2.975334 1_655
Al0 Zr0 2.975334 1_665
Al0 Zr0 2.975334 1_555
Al0 Zr0 2.975334 1_565
Al1 Ho0 2.975357 1_655
Al1 Ho0 2.975357 1_565
Al1 Ho0 2.975357 1_665
Al1 Ho0 2.975357 1_555
Al1 Al6 2.991480 1_555
Al1 Al11 2.991480 1_655
Al1 Al11 2.991480 1_555
Al1 Al6 2.991480 1_565
Al1 Al10 3.007045 1_555
Al1 Al10 3.007045 1_655
Al1 Al5 3.007045 1_565
Al1 Al5 3.007045 1_555
Al2 Ho1 2.975335 1_655
Al2 Ho1 2.975335 1_565
Al2 Ho1 2.975335 1_665
Al2 Ho1 2.975335 1_555
Al2 Al6 2.984781 1_565
Al2 Al6 2.984781 1_555
Al2 Al7 2.987432 1_565
Al2 Al7 2.987432 1_555
Al3 Ho2 2.975335 1_665
Al3 Ho2 2.975335 1_655
Al3 Ho2 2.975335 1_555
Al3 Ho2 2.975335 1_565
Al3 Al8 2.984781 1_555
Al3 Al8 2.984781 1_565
Al3 Al7 2.987432 1_565
Al3 Al7 2.987432 1_555
Al4 Ho3 2.975357 1_655
Al4 Ho3 2.975357 1_565
Al4 Ho3 2.975357 1_665
Al4 Ho3 2.975357 1_555
Al4 Al8 2.991480 1_555
Al4 Al8 2.991480 1_565
Al4 Al9 3.007045 1_565
Al4 Al9 3.007045 1_555
Al5 Zr0 2.928873 1_555
Al5 Zr0 2.928873 1_655
Al5 Ho0 2.998553 1_555
Al5 Ho0 2.998553 1_655
Al6 Ho1 2.986758 1_655
Al6 Ho1 2.986758 1_555
Al6 Ho0 2.999952 1_555
Al6 Ho0 2.999952 1_655
Al7 Ho2 2.985455 1_555
Al7 Ho2 2.985455 1_655
Al7 Ho1 2.985455 1_655
Al7 Ho1 2.985455 1_555
Al8 Ho2 2.986758 1_655
Al8 Ho2 2.986758 1_555
Al8 Ho3 2.999952 1_555
Al8 Ho3 2.999952 1_655
Al9 Zr0 2.928873 1_556
Al9 Zr0 2.928873 1_656
Al9 Ho3 2.998553 1_655
Al9 Ho3 2.998553 1_555
Al10 Zr0 2.928873 1_555
Al10 Zr0 2.928873 1_565
Al10 Al5 2.975334 1_565
Al10 Al5 2.975334 1_555
Al10 Al5 2.975334 1_465
Al10 Al5 2.975334 1_455
Al10 Ho0 2.998553 1_555
Al10 Ho0 2.998553 1_565
Al11 Al6 2.975334 1_565
Al11 Al6 2.975334 1_555
Al11 Al6 2.975334 1_455
Al11 Al6 2.975334 1_465
Al11 Al2 2.984781 1_455
Al11 Al2 2.984781 1_555
Al11 Ho1 2.986758 1_565
Al11 Ho1 2.986758 1_555
Al11 Ho0 2.999952 1_555
Al11 Ho0 2.999952 1_565
Al12 Al7 2.975334 1_555
Al12 Al7 2.975334 1_455
Al12 Al7 2.975334 1_465
Al12 Al7 2.975334 1_565
Al12 Ho2 2.985455 1_555
Al12 Ho2 2.985455 1_565
Al12 Ho1 2.985455 1_565
Al12 Ho1 2.985455 1_555
Al12 Al3 2.987432 1_455
Al12 Al2 2.987432 1_455
Al12 Al2 2.987432 1_555
Al12 Al3 2.987432 1_555
Al13 Al8 2.975334 1_555
Al13 Al8 2.975334 1_565
Al13 Al8 2.975334 1_465
Al13 Al8 2.975334 1_455
Al13 Al3 2.984781 1_555
Al13 Al3 2.984781 1_455
Al13 Ho2 2.986758 1_565
Al13 Ho2 2.986758 1_555
Al13 Al4 2.991480 1_455
Al13 Al4 2.991480 1_555
Al13 Ho3 2.999952 1_555
Al13 Ho3 2.999952 1_565
Al14 Zr0 2.928873 1_556
Al14 Zr0 2.928873 1_566
Al14 Al9 2.975334 1_465
Al14 Al9 2.975334 1_565
Al14 Al9 2.975334 1_555
Al14 Al9 2.975334 1_455
Al14 Ho3 2.998553 1_555
Al14 Ho3 2.998553 1_565
Al14 Al4 3.007045 1_555
Al14 Al4 3.007045 1_455
