# generated using pymatgen
data_Mg6VSi
_symmetry_space_group_name_H-M   'P 1'
_cell_length_a   4.96802700
_cell_length_b   5.90958600
_cell_length_c   10.78794000
_cell_angle_alpha   90.00000000
_cell_angle_beta   90.00000000
_cell_angle_gamma   90.00000000
_symmetry_Int_Tables_number   1
_chemical_formula_structural   Mg6VSi
_chemical_formula_sum   'Mg12 V2 Si2'
_cell_volume   316.72294498
_cell_formula_units_Z   2
loop_
 _symmetry_equiv_pos_site_id
 _symmetry_equiv_pos_as_xyz
  1  'x, y, z'
loop_
 _atom_site_type_symbol
 _atom_site_label
 _atom_site_symmetry_multiplicity
 _atom_site_fract_x
 _atom_site_fract_y
 _atom_site_fract_z
 _atom_site_occupancy
  Mg  Mg0  1  0.50000000  0.24932300  0.41813100  1
  Mg  Mg1  1  0.50000000  0.75067700  0.41813100  1
  Mg  Mg2  1  0.00000000  0.75320200  0.08479600  1
  Mg  Mg3  1  0.00000000  0.24679800  0.08479600  1
  Mg  Mg4  1  0.00000000  0.00000000  0.32755600  1
  Mg  Mg5  1  0.00000000  0.50000000  0.32961000  1
  Mg  Mg6  1  0.50000000  0.74932300  0.91813100  1
  Mg  Mg7  1  0.50000000  0.25067700  0.91813100  1
  Mg  Mg8  1  0.00000000  0.25320200  0.58479600  1
  Mg  Mg9  1  0.00000000  0.74679800  0.58479600  1
  Mg  Mg10  1  0.00000000  0.50000000  0.82755600  1
  Mg  Mg11  1  0.00000000  0.00000000  0.82961000  1
  V  V0  1  0.50000000  0.00000000  0.16905700  1
  V  V1  1  0.50000000  0.50000000  0.66905700  1
  Si  Si0  1  0.50000000  0.50000000  0.16791900  1
  Si  Si1  1  0.50000000  0.00000000  0.66791900  1
loop_
_geom_bond_atom_site_label_1
_geom_bond_atom_site_label_2
_geom_bond_distance
_geom_bond_site_symmetry_2
Mg0 Mg1 2.946791 1_545
Mg0 Mg1 2.962795 1_555
Mg0 Mg5 3.045785 1_655
Mg0 Mg5 3.045785 1_555
Mg0 Mg4 3.048930 1_655
Mg0 Mg4 3.048930 1_555
Mg0 V0 3.064448 1_555
Mg0 Mg8 3.066521 1_555
Mg0 Mg8 3.066521 1_655
Mg0 Si1 3.071204 1_555
Mg0 Si0 3.079060 1_555
Mg0 V1 3.085814 1_555
Mg1 Mg5 3.045785 1_655
Mg1 Mg5 3.045785 1_555
Mg1 Mg4 3.048930 1_565
Mg1 Mg4 3.048930 1_665
Mg1 V0 3.064448 1_565
Mg1 Mg9 3.066521 1_555
Mg1 Mg9 3.066521 1_655
Mg1 Si1 3.071204 1_565
Mg1 Si0 3.079060 1_555
Mg1 V1 3.085814 1_555
Mg2 Mg3 2.916948 1_565
Mg2 Mg3 2.992638 1_555
Mg2 Mg4 2.997612 1_565
Mg2 V0 3.020555 1_565
Mg2 V0 3.020555 1_465
Mg2 Si0 3.035360 1_555
Mg2 Si0 3.035360 1_455
Mg2 Mg5 3.035466 1_555
Mg2 Mg6 3.066521 1_454
Mg2 Mg6 3.066521 1_554
Mg3 Mg4 2.997612 1_555
Mg3 V0 3.020555 1_555
Mg3 V0 3.020555 1_455
Mg3 Si0 3.035360 1_555
Mg3 Si0 3.035360 1_455
Mg3 Mg5 3.035466 1_555
Mg3 Mg7 3.066521 1_554
Mg3 Mg7 3.066521 1_454
Mg4 Mg5 2.954876 1_545
Mg4 Mg5 2.954876 1_555
Mg4 V0 3.015627 1_455
Mg4 V0 3.015627 1_555
Mg4 Mg8 3.152791 1_555
Mg4 Mg9 3.152791 1_545
Mg5 Si0 3.035284 1_555
Mg5 Si0 3.035284 1_455
Mg5 Mg8 3.115410 1_555
Mg5 Mg9 3.115410 1_555
Mg6 Mg7 2.946791 1_555
Mg6 Mg7 2.962795 1_565
Mg6 V1 3.064448 1_555
Mg6 Si0 3.071204 1_556
Mg6 Si1 3.079060 1_565
Mg6 V0 3.085814 1_566
Mg7 V1 3.064448 1_555
Mg7 Si0 3.071204 1_556
Mg7 Si1 3.079060 1_555
Mg7 V0 3.085814 1_556
Mg8 Mg9 2.916948 1_555
Mg8 Mg9 2.992638 1_545
Mg8 V1 3.020555 1_555
Mg8 V1 3.020555 1_455
Mg8 Si1 3.035360 1_555
Mg8 Si1 3.035360 1_455
Mg9 V1 3.020555 1_555
Mg9 V1 3.020555 1_455
Mg9 Si1 3.035360 1_465
Mg9 Si1 3.035360 1_565
Mg10 Mg11 2.954876 1_555
Mg10 Mg11 2.954876 1_565
Mg10 Mg9 2.997612 1_555
Mg10 Mg8 2.997612 1_555
Mg10 V1 3.015627 1_455
Mg10 V1 3.015627 1_555
Mg10 Mg6 3.048930 1_455
Mg10 Mg6 3.048930 1_555
Mg10 Mg7 3.048930 1_455
Mg10 Mg7 3.048930 1_555
Mg10 Mg2 3.152791 1_556
Mg10 Mg3 3.152791 1_556
Mg11 Si1 3.035284 1_455
Mg11 Si1 3.035284 1_555
Mg11 Mg8 3.035466 1_555
Mg11 Mg9 3.035466 1_545
Mg11 Mg7 3.045785 1_555
Mg11 Mg7 3.045785 1_455
Mg11 Mg6 3.045785 1_545
Mg11 Mg6 3.045785 1_445
Mg11 Mg3 3.115410 1_556
Mg11 Mg2 3.115410 1_546
Si0 V0 2.954819 1_555
Si0 V0 2.954819 1_565
Si1 V1 2.954819 1_555
Si1 V1 2.954819 1_545
