# generated using pymatgen
data_Sr2AlCr2GaO7
_symmetry_space_group_name_H-M   'P 1'
_cell_length_a   5.47014000
_cell_length_b   5.87849489
_cell_length_c   11.50581908
_cell_angle_alpha   99.07677442
_cell_angle_beta   103.16192896
_cell_angle_gamma   89.92610069
_symmetry_Int_Tables_number   1
_chemical_formula_structural   Sr2AlCr2GaO7
_chemical_formula_sum   'Sr4 Al2 Cr4 Ga2 O14'
_cell_volume   355.52188556
_cell_formula_units_Z   2
loop_
 _symmetry_equiv_pos_site_id
 _symmetry_equiv_pos_as_xyz
  1  'x, y, z'
loop_
 _atom_site_type_symbol
 _atom_site_label
 _atom_site_symmetry_multiplicity
 _atom_site_fract_x
 _atom_site_fract_y
 _atom_site_fract_z
 _atom_site_occupancy
  Sr  Sr0  1  0.14311500  0.21892400  0.29820800  1
  Sr  Sr1  1  0.82589800  0.78668200  0.69681200  1
  Sr  Sr2  1  0.65581900  0.66380800  0.29599200  1
  Sr  Sr3  1  0.32807000  0.34470700  0.69181200  1
  Al  Al0  1  0.51618500  0.40605600  0.99163700  1
  Al  Al1  1  0.97687000  0.93363700  0.00077000  1
  Cr  Cr0  1  0.42621500  0.87481200  0.87928100  1
  Cr  Cr1  1  0.07741400  0.62833300  0.14021700  1
  Cr  Cr2  1  0.93873700  0.37672000  0.87797100  1
  Cr  Cr3  1  0.57120600  0.12603100  0.14549600  1
  Ga  Ga0  1  0.21345100  0.82478900  0.49884000  1
  Ga  Ga1  1  0.71467500  0.18139000  0.49934400  1
  O  O0  1  0.81925000  0.35184100  0.10194500  1
  O  O1  1  0.86899400  0.89083600  0.49846800  1
  O  O2  1  0.37092000  0.43147100  0.12010000  1
  O  O3  1  0.84175900  0.35789300  0.64906800  1
  O  O4  1  0.76414000  0.05888800  0.88567600  1
  O  O5  1  0.27600000  0.20317000  0.88694500  1
  O  O6  1  0.36845200  0.11498200  0.49566000  1
  O  O7  1  0.10007300  0.71117100  0.89662000  1
  O  O8  1  0.60491800  0.55527500  0.88340600  1
  O  O9  1  0.34285700  0.74713000  0.64954300  1
  O  O10  1  0.20383500  0.64551700  0.35025300  1
  O  O11  1  0.70970800  0.26633600  0.35064800  1
  O  O12  1  0.79184100  0.85627800  0.10933500  1
  O  O13  1  0.25204000  0.94488200  0.12895000  1
loop_
_geom_bond_atom_site_label_1
_geom_bond_atom_site_label_2
_geom_bond_distance
_geom_bond_site_symmetry_2
Al0 O8 1.782358 1_555
Al0 O2 1.817508 1_556
Al0 O5 1.851930 1_555
Al0 O0 1.904936 1_556
Al1 O4 1.803752 1_564
Al1 O13 1.844902 1_655
Al1 O7 1.863196 1_654
Al1 O12 1.883540 1_555
Cr0 O7 2.091661 1_555
Cr0 O5 2.093808 1_565
Cr0 O8 2.118598 1_555
Cr0 O4 2.123999 1_565
Cr0 O9 2.566015 1_555
Cr1 O2 2.012568 1_555
Cr1 O12 2.062538 1_455
Cr1 O0 2.080116 1_455
Cr1 O13 2.128157 1_555
Cr1 O10 2.343212 1_555
Cr2 O5 2.096829 1_655
Cr2 O8 2.113386 1_555
Cr2 O7 2.115528 1_655
Cr2 O4 2.122796 1_555
Cr2 O3 2.549909 1_555
Cr3 O13 2.001947 1_545
Cr3 O12 2.039578 1_545
Cr3 O0 2.092436 1_555
Cr3 O2 2.127039 1_555
Cr3 O11 2.323549 1_555
Ga0 O9 1.845551 1_555
Ga0 O10 1.851184 1_555
Ga0 O6 1.915170 1_565
Ga0 O1 1.922509 1_455
Ga1 O3 1.849330 1_555
Ga1 O11 1.850815 1_555
Ga1 O1 1.903875 1_545
Ga1 O6 1.923833 1_555
O0 Sr0 2.753108 1_655
O0 Sr2 2.959745 1_555
O1 Sr1 2.514897 1_555
O1 Sr2 2.520725 1_555
O2 Sr2 2.467157 1_555
O2 Sr0 3.047680 1_555
O3 Sr1 2.499429 1_555
O3 Sr3 2.596185 1_655
O3 Sr3 2.964059 1_555
O4 Sr1 2.575371 1_545
O5 Sr3 2.587546 1_555
O6 Sr0 2.492939 1_555
O6 Sr3 2.496131 1_555
O7 Sr1 2.545901 1_455
O8 Sr3 2.511719 1_555
O9 Sr3 2.494141 1_555
O9 Sr1 2.576596 1_555
O9 Sr1 3.000888 1_455
O10 Sr0 2.489048 1_555
O10 Sr2 2.690538 1_555
O10 Sr2 2.925017 1_455
O11 Sr2 2.513797 1_555
O11 Sr0 2.580520 1_655
O11 Sr0 3.024103 1_555
O12 Sr2 2.818281 1_555
O12 Sr0 3.099452 1_665
O13 Sr0 2.505767 1_565
O13 Sr2 3.218970 1_555
