# generated using pymatgen
data_Co2PO4F
_symmetry_space_group_name_H-M   'P 1'
_cell_length_a   7.33879709
_cell_length_b   7.33879709
_cell_length_c   9.85242345
_cell_angle_alpha   63.97921273
_cell_angle_beta   63.97921273
_cell_angle_gamma   52.39445102
_symmetry_Int_Tables_number   1
_chemical_formula_structural   Co2PO4F
_chemical_formula_sum   'Co8 P4 O16 F4'
_cell_volume   366.71171997
_cell_formula_units_Z   4
loop_
 _symmetry_equiv_pos_site_id
 _symmetry_equiv_pos_as_xyz
  1  'x, y, z'
loop_
 _atom_site_type_symbol
 _atom_site_label
 _atom_site_symmetry_multiplicity
 _atom_site_fract_x
 _atom_site_fract_y
 _atom_site_fract_z
 _atom_site_occupancy
  Co  Co0  1  0.55681600  0.75447900  0.64349900  1
  Co  Co1  1  0.44318400  0.24552100  0.35650100  1
  Co  Co2  1  0.24552100  0.44318400  0.85650100  1
  Co  Co3  1  0.75447900  0.55681600  0.14349900  1
  Co  Co4  1  0.72084500  0.16711000  0.00163400  1
  Co  Co5  1  0.27915500  0.83289000  0.99836600  1
  Co  Co6  1  0.83289000  0.27915500  0.49836600  1
  Co  Co7  1  0.16711000  0.72084500  0.50163400  1
  P  P0  1  0.72809900  0.91761300  0.80836200  1
  P  P1  1  0.27190100  0.08238700  0.19163800  1
  P  P2  1  0.08238700  0.27190100  0.69163800  1
  P  P3  1  0.91761300  0.72809900  0.30836200  1
  O  O0  1  0.58324700  0.15091200  0.86329300  1
  O  O1  1  0.41675300  0.84908800  0.13670700  1
  O  O2  1  0.84908800  0.41675300  0.63670700  1
  O  O3  1  0.15091200  0.58324700  0.36329300  1
  O  O4  1  0.28207100  0.10811700  0.57909200  1
  O  O5  1  0.71792900  0.89188300  0.42090800  1
  O  O6  1  0.89188300  0.71792900  0.92090800  1
  O  O7  1  0.10811700  0.28207100  0.07909200  1
  O  O8  1  0.55914000  0.85700100  0.80840900  1
  O  O9  1  0.44086000  0.14299900  0.19159100  1
  O  O10  1  0.14299900  0.44086000  0.69159100  1
  O  O11  1  0.85700100  0.55914000  0.30840900  1
  O  O12  1  0.88018600  0.95706800  0.63999900  1
  O  O13  1  0.11981400  0.04293200  0.36000100  1
  O  O14  1  0.04293200  0.11981400  0.86000100  1
  O  O15  1  0.95706800  0.88018600  0.13999900  1
  F  F0  1  0.40851200  0.61768200  0.60846600  1
  F  F1  1  0.59148800  0.38231800  0.39153400  1
  F  F2  1  0.38231800  0.59148800  0.89153400  1
  F  F3  1  0.61768200  0.40851200  0.10846600  1
loop_
_geom_bond_atom_site_label_1
_geom_bond_atom_site_label_2
_geom_bond_distance
_geom_bond_site_symmetry_2
Co0 F0 2.068503 1_555
Co0 O2 2.068723 1_555
Co0 O8 2.078168 1_555
Co0 O5 2.112834 1_555
Co0 O4 2.120103 1_565
Co0 F2 2.366774 1_555
Co1 F1 2.068503 1_555
Co1 O3 2.068723 1_555
Co1 O9 2.078168 1_555
Co1 O4 2.112834 1_555
Co1 O5 2.120103 1_545
Co1 F3 2.366774 1_555
Co2 F2 2.068503 1_555
Co2 O0 2.068723 1_555
Co2 O10 2.078168 1_555
Co2 O7 2.112834 1_556
Co2 O6 2.120103 1_455
Co2 F0 2.366774 1_555
Co3 F3 2.068503 1_555
Co3 O1 2.068723 1_555
Co3 O11 2.078168 1_555
Co3 O6 2.112834 1_554
Co3 O7 2.120103 1_655
Co3 F1 2.366774 1_555
Co4 F3 2.029678 1_555
Co4 O14 2.045622 1_654
Co4 O0 2.094721 1_554
Co4 O15 2.097017 1_545
Co4 O9 2.129573 1_555
Co5 F2 2.029678 1_555
Co5 O15 2.045622 1_456
Co5 O1 2.094721 1_556
Co5 O14 2.097017 1_565
Co5 O8 2.129573 1_555
Co6 F1 2.029678 1_555
Co6 O12 2.045622 1_545
Co6 O2 2.094721 1_555
Co6 O13 2.097017 1_655
Co6 O11 2.129573 1_555
Co7 F0 2.029678 1_555
Co7 O13 2.045622 1_565
Co7 O3 2.094721 1_555
Co7 O12 2.097017 1_455
Co7 O10 2.129573 1_555
O0 P0 1.562463 1_545
O1 P1 1.562463 1_565
O2 P2 1.562463 1_655
O3 P3 1.562463 1_455
O4 P2 1.554275 1_555
O5 P3 1.554275 1_555
O6 P0 1.554275 1_555
O7 P1 1.554275 1_555
O8 P0 1.551713 1_555
O9 P1 1.551713 1_555
O10 P2 1.551713 1_555
O11 P3 1.551713 1_555
O12 P0 1.558761 1_555
O13 P1 1.558761 1_555
O14 P2 1.558761 1_555
O15 P3 1.558761 1_555
