# generated using pymatgen
data_Fe7Ni5P4
_symmetry_space_group_name_H-M   'P 1'
_cell_length_a   4.39215500
_cell_length_b   6.70297164
_cell_length_c   6.71816807
_cell_angle_alpha   84.18162524
_cell_angle_beta   71.40874855
_cell_angle_gamma   71.61313857
_symmetry_Int_Tables_number   1
_chemical_formula_structural   Fe7Ni5P4
_chemical_formula_sum   'Fe7 Ni5 P4'
_cell_volume   177.89463543
_cell_formula_units_Z   1
loop_
 _symmetry_equiv_pos_site_id
 _symmetry_equiv_pos_as_xyz
  1  'x, y, z'
loop_
 _atom_site_type_symbol
 _atom_site_label
 _atom_site_symmetry_multiplicity
 _atom_site_fract_x
 _atom_site_fract_y
 _atom_site_fract_z
 _atom_site_occupancy
  Fe  Fe0  1  0.69718800  0.96785600  0.18417200  1
  Fe  Fe1  1  0.84525300  0.02994500  0.81513400  1
  Fe  Fe2  1  0.34072300  0.81466100  0.96852000  1
  Fe  Fe3  1  0.12455400  0.18309000  0.02638000  1
  Fe  Fe4  1  0.37776300  0.66833200  0.60674800  1
  Fe  Fe5  1  0.01087500  0.60546700  0.33118800  1
  Fe  Fe6  1  0.94868500  0.39505600  0.66980000  1
  Ni  Ni0  1  0.08187600  0.95397700  0.39019600  1
  Ni  Ni1  1  0.42125300  0.04882100  0.60925800  1
  Ni  Ni2  1  0.96450400  0.60935900  0.95455000  1
  Ni  Ni3  1  0.52820800  0.38978700  0.05060300  1
  Ni  Ni4  1  0.65976200  0.33115300  0.39436100  1
  P  P0  1  0.22760900  0.24433400  0.33711900  1
  P  P1  1  0.80715900  0.75379800  0.65891700  1
  P  P2  1  0.52654600  0.66458000  0.24667800  1
  P  P3  1  0.43804100  0.33978600  0.75637500  1
loop_
_geom_bond_atom_site_label_1
_geom_bond_atom_site_label_2
_geom_bond_distance
_geom_bond_site_symmetry_2
Fe0 P0 2.316790 1_565
Fe0 P2 2.336230 1_555
Fe0 Ni0 2.478924 1_655
Fe0 Ni0 2.641124 1_555
Fe0 Ni2 2.710987 1_554
Fe0 Ni1 2.758867 1_565
Fe0 Ni3 2.817911 1_565
Fe1 P1 2.292784 1_545
Fe1 P3 2.368254 1_555
Fe1 Ni1 2.502923 1_655
Fe1 Ni1 2.618262 1_555
Fe1 Ni3 2.740340 1_556
Fe1 Ni0 2.749251 1_645
Fe1 Ni2 2.818733 1_545
Fe2 P2 2.289890 1_556
Fe2 P1 2.370116 1_555
Fe2 Ni2 2.488500 1_455
Fe2 Ni2 2.625350 1_555
Fe2 Ni1 2.729807 1_565
Fe2 Ni3 2.753994 1_556
Fe2 Ni0 2.828926 1_556
Fe3 P3 2.285366 1_554
Fe3 P0 2.371697 1_555
Fe3 Ni3 2.508200 1_455
Fe3 Ni3 2.620793 1_555
Fe3 Ni0 2.737892 1_545
Fe3 Ni2 2.749661 1_454
Fe3 Ni1 2.793566 1_554
Fe4 P1 2.269736 1_555
Fe4 P2 2.296367 1_555
Fe4 P3 2.298572 1_555
Fe4 P1 2.303661 1_455
Fe4 Ni2 2.543933 1_455
Fe4 Ni0 2.557819 1_555
Fe4 Ni1 2.619056 1_565
Fe5 P2 2.279752 1_455
Fe5 P1 2.294180 1_455
Fe5 P2 2.304292 1_555
Fe5 P0 2.306145 1_555
Fe5 Ni0 2.537264 1_555
Fe5 Ni3 2.560349 1_555
Fe5 Ni2 2.599333 1_454
Fe6 P3 2.270361 1_555
Fe6 P1 2.285690 1_555
Fe6 P3 2.312191 1_655
Fe6 P0 2.334071 1_655
Fe6 Ni2 2.536275 1_555
Fe6 Ni1 2.544375 1_655
Fe6 Ni3 2.639518 1_556
Ni0 P0 2.196458 1_565
Ni0 P2 2.301173 1_555
Ni0 P1 2.378391 1_455
Ni0 Ni4 2.618035 1_465
Ni0 Ni1 2.641631 1_565
Ni0 Ni1 2.700420 1_465
Ni1 P1 2.237647 1_545
Ni1 P3 2.305232 1_555
Ni1 P0 2.363464 1_555
Ni1 Ni4 2.548629 1_555
Ni2 P2 2.231544 1_556
Ni2 P1 2.328693 1_555
Ni2 P3 2.390523 1_655
Ni2 Ni3 2.655731 1_556
Ni2 Ni3 2.690698 1_656
Ni3 P3 2.212150 1_554
Ni3 P0 2.282524 1_555
Ni3 P2 2.367545 1_555
Ni3 Ni4 2.518993 1_555
Ni4 P0 2.285850 1_655
Ni4 P0 2.301500 1_555
Ni4 P3 2.312892 1_555
Ni4 P2 2.327518 1_555
