# generated using pymatgen
data_VPNO5
_symmetry_space_group_name_H-M   'P 1'
_cell_length_a   6.34166600
_cell_length_b   10.57110700
_cell_length_c   12.74033600
_cell_angle_alpha   90.00000000
_cell_angle_beta   90.00000000
_cell_angle_gamma   90.00000000
_symmetry_Int_Tables_number   1
_chemical_formula_structural   VPNO5
_chemical_formula_sum   'V8 P8 N8 O40'
_cell_volume   854.09212113
_cell_formula_units_Z   8
loop_
 _symmetry_equiv_pos_site_id
 _symmetry_equiv_pos_as_xyz
  1  'x, y, z'
loop_
 _atom_site_type_symbol
 _atom_site_label
 _atom_site_symmetry_multiplicity
 _atom_site_fract_x
 _atom_site_fract_y
 _atom_site_fract_z
 _atom_site_occupancy
  V  V0  1  0.25205900  0.26121200  0.61868400  1
  V  V1  1  0.25205900  0.73878800  0.38131600  1
  V  V2  1  0.75205900  0.76121200  0.88131600  1
  V  V3  1  0.75205900  0.23878800  0.11868400  1
  V  V4  1  0.48555900  0.00399200  0.74409600  1
  V  V5  1  0.48555900  0.99600800  0.25590400  1
  V  V6  1  0.98555900  0.50399200  0.75590400  1
  V  V7  1  0.98555900  0.49600800  0.24409600  1
  P  P0  1  0.91069300  0.50000000  0.00000000  1
  P  P1  1  0.41069300  0.00000000  0.50000000  1
  P  P2  1  0.75806100  0.24279400  0.68528500  1
  P  P3  1  0.75806100  0.75720600  0.31471500  1
  P  P4  1  0.25806100  0.74279400  0.81471500  1
  P  P5  1  0.25806100  0.25720600  0.18528500  1
  P  P6  1  0.08516000  0.50000000  0.50000000  1
  P  P7  1  0.58516000  0.00000000  0.00000000  1
  N  N0  1  0.46942100  0.41972400  0.88475600  1
  N  N1  1  0.46942100  0.58027600  0.11524400  1
  N  N2  1  0.96942100  0.91972400  0.61524400  1
  N  N3  1  0.96942100  0.08027600  0.38475600  1
  N  N4  1  0.58423700  0.67109100  0.60002600  1
  N  N5  1  0.58423700  0.32890900  0.39997400  1
  N  N6  1  0.08423700  0.17109100  0.89997400  1
  N  N7  1  0.08423700  0.82890900  0.10002600  1
  O  O0  1  0.95228500  0.21759100  0.61404800  1
  O  O1  1  0.95228500  0.78240900  0.38595200  1
  O  O2  1  0.45228500  0.71759100  0.88595200  1
  O  O3  1  0.45228500  0.28240900  0.11404800  1
  O  O4  1  0.80576500  0.35872500  0.75633900  1
  O  O5  1  0.80576500  0.64127500  0.24366100  1
  O  O6  1  0.30576500  0.85872500  0.74366100  1
  O  O7  1  0.30576500  0.14127500  0.25633900  1
  O  O8  1  0.55958400  0.27100700  0.61859300  1
  O  O9  1  0.55958400  0.72899300  0.38140700  1
  O  O10  1  0.05958400  0.77100700  0.88140700  1
  O  O11  1  0.05958400  0.22899300  0.11859300  1
  O  O12  1  0.71303600  0.12365100  0.75403900  1
  O  O13  1  0.71303600  0.87634900  0.24596100  1
  O  O14  1  0.21303600  0.62365100  0.74596100  1
  O  O15  1  0.21303600  0.37634900  0.25403900  1
  O  O16  1  0.77984300  0.37986600  0.01606800  1
  O  O17  1  0.77984300  0.62013400  0.98393200  1
  O  O18  1  0.27984300  0.87986600  0.48393200  1
  O  O19  1  0.27984300  0.12013400  0.51606800  1
  O  O20  1  0.05181200  0.47872100  0.90002100  1
  O  O21  1  0.05181200  0.52127900  0.09997900  1
  O  O22  1  0.55181200  0.97872100  0.59997900  1
  O  O23  1  0.55181200  0.02127900  0.40002100  1
  O  O24  1  0.22860200  0.38003400  0.51106500  1
  O  O25  1  0.22860200  0.61996600  0.48893500  1
  O  O26  1  0.72860200  0.88003400  0.98893500  1
  O  O27  1  0.72860200  0.11996600  0.01106500  1
  O  O28  1  0.21179800  0.36335000  0.71721300  1
  O  O29  1  0.21179800  0.63665000  0.28278700  1
  O  O30  1  0.71179800  0.86335000  0.78278700  1
  O  O31  1  0.71179800  0.13665000  0.21721300  1
  O  O32  1  0.29936700  0.11255700  0.71820900  1
  O  O33  1  0.29936700  0.88744300  0.28179100  1
  O  O34  1  0.79936700  0.61255700  0.78179100  1
  O  O35  1  0.79936700  0.38744300  0.21820900  1
  O  O36  1  0.45259500  0.01378200  0.89964500  1
  O  O37  1  0.45259500  0.98621800  0.10035500  1
  O  O38  1  0.95259500  0.51378200  0.60035500  1
  O  O39  1  0.95259500  0.48621800  0.39964500  1
loop_
_geom_bond_atom_site_label_1
_geom_bond_atom_site_label_2
_geom_bond_distance
_geom_bond_site_symmetry_2
O0 P2 1.552992 1_555
O0 V0 1.957084 1_655
O1 P3 1.552992 1_555
O1 V1 1.957084 1_655
O2 P4 1.552992 1_555
O2 V2 1.957084 1_555
O3 P5 1.552992 1_555
O3 V3 1.957084 1_555
O4 P2 1.553351 1_555
O4 V6 1.912653 1_555
O5 P3 1.553351 1_555
O5 V7 1.912653 1_555
O6 P4 1.553351 1_555
O6 V4 1.912653 1_565
O7 P5 1.553351 1_555
O7 V5 1.912653 1_545
O8 P2 1.547632 1_555
O8 V0 1.952968 1_555
O9 P3 1.547632 1_555
O9 V1 1.952968 1_555
O10 P4 1.547632 1_555
O10 V2 1.952968 1_455
O11 P5 1.547632 1_555
O11 V3 1.952968 1_455
O12 P2 1.560477 1_555
O12 V4 1.922794 1_555
O13 P3 1.560477 1_555
O13 V5 1.922794 1_555
O14 P4 1.560477 1_555
O14 V6 1.922794 1_455
O15 P5 1.560477 1_555
O15 V7 1.922794 1_455
O16 P0 1.530770 1_555
O16 V3 1.991072 1_555
O17 P0 1.530770 1_556
O17 V2 1.991072 1_555
O18 P1 1.530770 1_565
O18 V1 1.991072 1_555
O19 P1 1.530770 1_555
O19 V0 1.991072 1_555
O20 P0 1.572888 1_456
O20 V6 1.902408 1_455
O21 P0 1.572888 1_455
O21 V7 1.902408 1_455
O22 P1 1.572888 1_565
O22 V4 1.902408 1_565
O23 P1 1.572888 1_555
O23 V5 1.902408 1_545
O24 P6 1.567042 1_555
O24 V0 1.865419 1_555
O25 P6 1.567042 1_555
O25 V1 1.865419 1_555
O26 P7 1.567042 1_566
O26 V2 1.865419 1_555
O27 P7 1.567042 1_555
O27 V3 1.865419 1_555
O28 V0 1.675329 1_555
O28 V6 2.124110 1_455
O29 V1 1.675329 1_555
O29 V7 2.124110 1_455
O30 V2 1.675329 1_555
O30 V4 2.124110 1_565
O31 V3 1.675329 1_555
O31 V5 2.124110 1_545
O32 V4 1.679313 1_555
O32 V0 2.041380 1_555
O33 V5 1.679313 1_555
O33 V1 2.041380 1_555
O34 V6 1.679313 1_555
O34 V2 2.041380 1_555
O35 V7 1.679313 1_555
O35 V3 2.041380 1_555
O36 P7 1.537101 1_556
O36 V4 1.995427 1_555
O37 P7 1.537101 1_565
O37 V5 1.995427 1_555
O38 P6 1.537101 1_655
O38 V6 1.995427 1_555
O39 P6 1.537101 1_655
O39 V7 1.995427 1_555
