# generated using pymatgen
data_CsLiMg6O7
_symmetry_space_group_name_H-M   'P 1'
_cell_length_a   4.51236400
_cell_length_b   4.51236400
_cell_length_c   9.52067400
_cell_angle_alpha   90.00000000
_cell_angle_beta   90.00000000
_cell_angle_gamma   90.00000000
_symmetry_Int_Tables_number   1
_chemical_formula_structural   CsLiMg6O7
_chemical_formula_sum   'Cs1 Li1 Mg6 O7'
_cell_volume   193.85452643
_cell_formula_units_Z   1
loop_
 _symmetry_equiv_pos_site_id
 _symmetry_equiv_pos_as_xyz
  1  'x, y, z'
loop_
 _atom_site_type_symbol
 _atom_site_label
 _atom_site_symmetry_multiplicity
 _atom_site_fract_x
 _atom_site_fract_y
 _atom_site_fract_z
 _atom_site_occupancy
  Cs  Cs0  1  0.00000000  0.00000000  0.50556000  1
  Li  Li0  1  0.00000000  0.00000000  0.00085000  1
  Mg  Mg0  1  0.50000000  0.50000000  0.98674700  1
  Mg  Mg1  1  0.50000000  0.50000000  0.52489200  1
  Mg  Mg2  1  0.00000000  0.50000000  0.21268800  1
  Mg  Mg3  1  0.00000000  0.50000000  0.79087400  1
  Mg  Mg4  1  0.50000000  0.00000000  0.21268800  1
  Mg  Mg5  1  0.50000000  0.00000000  0.79087400  1
  O  O0  1  0.00000000  0.00000000  0.21487800  1
  O  O1  1  0.00000000  0.00000000  0.78949700  1
  O  O2  1  0.50000000  0.50000000  0.75329100  1
  O  O3  1  0.00000000  0.50000000  0.00173400  1
  O  O4  1  0.00000000  0.50000000  0.48184700  1
  O  O5  1  0.50000000  0.00000000  0.00173400  1
  O  O6  1  0.50000000  0.00000000  0.48184700  1
loop_
_geom_bond_atom_site_label_1
_geom_bond_atom_site_label_2
_geom_bond_distance
_geom_bond_site_symmetry_2
Cs0 O6 2.267449 1_555
Cs0 O4 2.267449 1_555
Cs0 O6 2.267449 1_455
Cs0 O4 2.267449 1_545
Cs0 O1 2.703272 1_555
Cs0 O0 2.767489 1_555
Li0 O1 2.012223 1_554
Li0 O0 2.037691 1_555
Li0 O5 2.256198 1_455
Li0 O3 2.256198 1_545
Li0 O5 2.256198 1_555
Li0 O3 2.256198 1_555
Mg0 O2 2.222658 1_555
Mg0 O5 2.260689 1_566
Mg0 O3 2.260689 1_556
Mg0 O5 2.260689 1_556
Mg0 O3 2.260689 1_656
Mg1 O2 2.174512 1_555
Mg1 O6 2.293100 1_555
Mg1 O6 2.293100 1_565
Mg1 O4 2.293100 1_555
Mg1 O4 2.293100 1_655
Mg2 O3 2.008424 1_555
Mg2 O0 2.256278 1_565
Mg2 O0 2.256278 1_555
Mg2 O4 2.562575 1_555
Mg3 O3 2.007529 1_556
Mg3 O1 2.256220 1_555
Mg3 O1 2.256220 1_565
Mg3 O2 2.284379 1_455
Mg3 O2 2.284379 1_555
Mg4 O5 2.008424 1_555
Mg4 O0 2.256278 1_655
Mg4 O0 2.256278 1_555
Mg4 O6 2.562575 1_555
Mg5 O5 2.007529 1_556
Mg5 O1 2.256220 1_555
Mg5 O1 2.256220 1_655
Mg5 O2 2.284379 1_545
Mg5 O2 2.284379 1_555
