# generated using pymatgen
data_Sr2CrOsO6
_symmetry_space_group_name_H-M   'P 1'
_cell_length_a   5.60211782
_cell_length_b   5.60211711
_cell_length_c   5.60211782
_cell_angle_alpha   89.99977581
_cell_angle_beta   60.00010856
_cell_angle_gamma   119.99996242
_symmetry_Int_Tables_number   1
_chemical_formula_structural   Sr2CrOsO6
_chemical_formula_sum   'Sr2 Cr1 Os1 O6'
_cell_volume   124.32022065
_cell_formula_units_Z   1
loop_
 _symmetry_equiv_pos_site_id
 _symmetry_equiv_pos_as_xyz
  1  'x, y, z'
loop_
 _atom_site_type_symbol
 _atom_site_label
 _atom_site_symmetry_multiplicity
 _atom_site_fract_x
 _atom_site_fract_y
 _atom_site_fract_z
 _atom_site_occupancy
  Sr  Sr0  1  0.50000000  0.75000000  0.75000000  1
  Sr  Sr1  1  0.50000000  0.25000000  0.25000000  1
  Cr  Cr0  1  0.00000200  0.00000200  0.00000000  1
  Os  Os0  1  0.00000000  0.50000000  0.50000000  1
  O  O0  1  0.00000000  0.25126600  0.74873400  1
  O  O1  1  0.00000000  0.74873400  0.25126600  1
  O  O2  1  0.00000000  0.74873400  0.74873400  1
  O  O3  1  0.00000000  0.25126600  0.25126600  1
  O  O4  1  0.49746700  0.74873300  0.25126700  1
  O  O5  1  0.50253200  0.25126700  0.74873300  1
loop_
_geom_bond_atom_site_label_1
_geom_bond_atom_site_label_2
_geom_bond_distance
_geom_bond_site_symmetry_2
Cr0 O5 1.990670 1_554
Cr0 O3 1.990674 1_555
Cr0 O1 1.990674 1_545
Cr0 O0 1.990674 1_554
Cr0 O2 1.990689 1_544
Cr0 O4 1.990690 1_445
O0 Os0 1.970614 1_555
O0 Sr0 2.801078 1_445
O0 Sr0 2.801078 1_555
O0 Sr1 2.801081 1_456
O0 Sr1 2.801081 1_555
O1 Os0 1.970614 1_555
O1 Sr1 2.801078 1_565
O1 Sr1 2.801078 1_455
O1 Sr0 2.801081 1_554
O1 Sr0 2.801081 1_455
O2 Os0 1.970621 1_555
O2 Sr1 2.801072 1_565
O2 Sr1 2.801072 1_456
O2 Sr0 2.801077 1_555
O2 Sr0 2.801077 1_455
O3 Os0 1.970621 1_555
O3 Sr0 2.801072 1_445
O3 Sr0 2.801072 1_554
O3 Sr1 2.801077 1_455
O3 Sr1 2.801077 1_555
O4 Os0 1.970614 1_555
O4 Sr1 2.801074 1_555
O4 Sr0 2.801074 1_555
O4 Sr1 2.801079 1_565
O4 Sr0 2.801080 1_554
O5 Os0 1.970618 1_655
O5 Sr0 2.801071 1_555
O5 Sr1 2.801071 1_555
O5 Sr0 2.801082 1_545
O5 Sr1 2.801082 1_556
