# generated using pymatgen
data_Ba3Nd3(Cu3O7)2
_symmetry_space_group_name_H-M   'P 1'
_cell_length_a   12.31916890
_cell_length_b   12.28652759
_cell_length_c   5.54463013
_cell_angle_alpha   77.30601541
_cell_angle_beta   76.64875992
_cell_angle_gamma   26.04522467
_symmetry_Int_Tables_number   1
_chemical_formula_structural   Ba3Nd3(Cu3O7)2
_chemical_formula_sum   'Ba3 Nd3 Cu6 O14'
_cell_volume   358.38399022
_cell_formula_units_Z   1
loop_
 _symmetry_equiv_pos_site_id
 _symmetry_equiv_pos_as_xyz
  1  'x, y, z'
loop_
 _atom_site_type_symbol
 _atom_site_label
 _atom_site_symmetry_multiplicity
 _atom_site_fract_x
 _atom_site_fract_y
 _atom_site_fract_z
 _atom_site_occupancy
  Ba  Ba0  1  0.41107700  0.41107700  0.58892300  1
  Ba  Ba1  1  0.90904100  0.90904100  0.09095900  1
  Ba  Ba2  1  0.08991600  0.08991600  0.91008400  1
  Nd  Nd0  1  0.74956400  0.74956400  0.25043600  1
  Nd  Nd1  1  0.24867300  0.24867300  0.75132700  1
  Nd  Nd2  1  0.59356700  0.59356700  0.40643300  1
  Cu  Cu0  1  0.32404400  0.32404400  0.17595600  1
  Cu  Cu1  1  0.82404400  0.82404400  0.67595600  1
  Cu  Cu2  1  0.17447300  0.17447300  0.32552700  1
  Cu  Cu3  1  0.67447300  0.67447300  0.82552700  1
  Cu  Cu4  1  0.00237400  0.00237400  0.49762600  1
  Cu  Cu5  1  0.50237400  0.50237400  0.99762600  1
  O  O0  1  0.06263400  0.55901400  0.44098600  1
  O  O1  1  0.55901400  0.06263400  0.93736600  1
  O  O2  1  0.06426500  0.56284900  0.93573500  1
  O  O3  1  0.56284900  0.06426500  0.43715100  1
  O  O4  1  0.91996700  0.43894100  0.56105900  1
  O  O5  1  0.43894100  0.91996700  0.08003300  1
  O  O6  1  0.92513700  0.43507600  0.07486300  1
  O  O7  1  0.43507600  0.92513700  0.56492400  1
  O  O8  1  0.42202200  0.42202200  0.07797800  1
  O  O9  1  0.92202200  0.92202200  0.57797800  1
  O  O10  1  0.08226300  0.08226300  0.41773700  1
  O  O11  1  0.58226300  0.58226300  0.91773700  1
  O  O12  1  0.29793200  0.72199300  0.70206800  1
  O  O13  1  0.72199300  0.29793200  0.27800700  1
loop_
_geom_bond_atom_site_label_1
_geom_bond_atom_site_label_2
_geom_bond_distance
_geom_bond_site_symmetry_2
Ba0 O9 2.784043 1_455
Ba0 O9 2.784043 1_545
Ba0 O8 2.784043 1_556
Ba0 O8 2.784043 1_555
Ba0 O13 2.830368 1_555
Ba0 O12 2.830368 1_555
Ba0 O3 2.982348 1_555
Ba0 O2 2.982348 1_555
Ba0 O0 3.058346 1_555
Ba0 O1 3.058346 1_555
Ba1 O8 2.788797 1_655
Ba1 O9 2.788797 1_555
Ba1 O9 2.788797 1_554
Ba1 O8 2.788797 1_565
Ba1 O3 2.953480 1_565
Ba1 O2 2.953480 1_654
Ba1 O0 3.041032 1_655
Ba1 O1 3.041032 1_564
Ba1 O13 3.241275 1_565
Ba1 O12 3.241275 1_654
Ba2 O10 2.778055 1_556
Ba2 O11 2.778055 1_545
Ba2 O11 2.778055 1_455
Ba2 O10 2.778055 1_555
Ba2 O6 2.883998 1_456
Ba2 O7 2.883998 1_545
Ba2 O13 2.905661 1_456
Ba2 O12 2.905661 1_545
Ba2 O5 2.934133 1_546
Ba2 O4 2.934133 1_455
Nd0 O3 2.447703 1_565
Nd0 O2 2.447703 1_654
Nd0 O0 2.458031 1_655
Nd0 O1 2.458031 1_564
Nd0 O7 2.493871 1_555
Nd0 O6 2.493871 1_555
Nd0 O4 2.514643 1_555
Nd0 O5 2.514643 1_555
Nd1 O0 2.446943 1_555
Nd1 O1 2.446943 1_555
Nd1 O2 2.451799 1_555
Nd1 O3 2.451799 1_555
Nd1 O7 2.539698 1_545
Nd1 O6 2.539698 1_456
Nd1 O5 2.618101 1_546
Nd1 O4 2.618101 1_455
Nd2 O12 2.548351 1_555
Nd2 O13 2.548351 1_555
Nd2 O4 2.768066 1_555
Nd2 O5 2.768066 1_555
Nd2 O7 2.769277 1_555
Nd2 O6 2.769277 1_555
Nd2 O11 2.784823 1_555
Nd2 O10 2.784823 1_655
Nd2 O10 2.784823 1_565
Nd2 O11 2.784823 1_554
Cu0 O0 1.959016 1_555
Cu0 O1 1.959016 1_554
Cu0 O3 2.000778 1_555
Cu0 O2 2.000778 1_554
Cu0 O8 2.285127 1_555
Cu1 O1 1.959016 1_565
Cu1 O0 1.959016 1_655
Cu1 O2 2.000778 1_655
Cu1 O3 2.000778 1_565
Cu1 O9 2.285127 1_555
Cu2 O4 1.939496 1_455
Cu2 O5 1.939496 1_545
Cu2 O7 1.990478 1_545
Cu2 O6 1.990478 1_455
Cu2 O10 2.150600 1_555
Cu3 O5 1.939496 1_556
Cu3 O4 1.939496 1_555
Cu3 O6 1.990478 1_556
Cu3 O7 1.990478 1_555
Cu3 O11 2.150600 1_555
Cu4 O10 1.863239 1_555
Cu4 O9 1.874038 1_445
Cu4 O13 2.015170 1_455
Cu4 O12 2.015170 1_545
Cu5 O11 1.863239 1_555
Cu5 O8 1.874038 1_556
Cu5 O12 2.015170 1_555
Cu5 O13 2.015170 1_556
