# generated using pymatgen
data_TaV
_symmetry_space_group_name_H-M   'P 1'
_cell_length_a   5.62398803
_cell_length_b   5.62398803
_cell_length_c   8.68272200
_cell_angle_alpha   90.00000000
_cell_angle_beta   90.00000000
_cell_angle_gamma   110.30782406
_symmetry_Int_Tables_number   1
_chemical_formula_structural   TaV
_chemical_formula_sum   'Ta8 V8'
_cell_volume   257.55746458
_cell_formula_units_Z   8
loop_
 _symmetry_equiv_pos_site_id
 _symmetry_equiv_pos_as_xyz
  1  'x, y, z'
loop_
 _atom_site_type_symbol
 _atom_site_label
 _atom_site_symmetry_multiplicity
 _atom_site_fract_x
 _atom_site_fract_y
 _atom_site_fract_z
 _atom_site_occupancy
  Ta  Ta0_0  1  0.00000000  0.00000000  0.00000000  1
  Ta  Ta0_1  1  0.00000000  0.00000000  0.50000000  1
  Ta  Ta0_2  1  0.00000000  0.50000000  0.00000000  1
  Ta  Ta0_3  1  0.00000000  0.50000000  0.50000000  1
  Ta  Ta0_4  1  0.50000000  0.00000000  0.00000000  1
  Ta  Ta0_5  1  0.50000000  0.00000000  0.50000000  1
  Ta  Ta0_6  1  0.50000000  0.50000000  0.00000000  1
  Ta  Ta0_7  1  0.50000000  0.50000000  0.50000000  1
  V  V0_0  1  0.25000000  0.25000000  0.25000000  1
  V  V0_1  1  0.25000000  0.25000000  0.75000000  1
  V  V0_2  1  0.25000000  0.75000000  0.25000000  1
  V  V0_3  1  0.25000000  0.75000000  0.75000000  1
  V  V0_4  1  0.75000000  0.25000000  0.25000000  1
  V  V0_5  1  0.75000000  0.25000000  0.75000000  1
  V  V0_6  1  0.75000000  0.75000000  0.25000000  1
  V  V0_7  1  0.75000000  0.75000000  0.75000000  1
loop_
_geom_bond_atom_site_label_1
_geom_bond_atom_site_label_2
_geom_bond_distance
_geom_bond_site_symmetry_2
Ta0_0 V0_0 2.700618 1_555
Ta0_0 V0_6 2.700618 1_445
Ta0_0 V0_1 2.700618 1_554
Ta0_0 V0_7 2.700618 1_444
Ta0_0 Ta0_2 2.811994 1_555
Ta0_0 Ta0_4 2.811994 1_555
Ta0_0 Ta0_4 2.811994 1_455
Ta0_0 Ta0_2 2.811994 1_545
Ta0_1 V0_0 2.700618 1_555
Ta0_1 V0_7 2.700618 1_445
Ta0_1 V0_6 2.700618 1_445
Ta0_1 V0_1 2.700618 1_555
Ta0_1 Ta0_3 2.811994 1_555
Ta0_1 Ta0_5 2.811994 1_455
Ta0_1 Ta0_5 2.811994 1_555
Ta0_1 Ta0_3 2.811994 1_545
Ta0_2 V0_3 2.700618 1_554
Ta0_2 V0_2 2.700618 1_555
Ta0_2 V0_5 2.700618 1_454
Ta0_2 V0_4 2.700618 1_455
Ta0_2 Ta0_6 2.811994 1_455
Ta0_2 Ta0_6 2.811994 1_555
Ta0_3 V0_3 2.700618 1_555
Ta0_3 V0_2 2.700618 1_555
Ta0_3 V0_5 2.700618 1_455
Ta0_3 V0_4 2.700618 1_455
Ta0_3 Ta0_7 2.811994 1_555
Ta0_3 Ta0_7 2.811994 1_455
Ta0_4 V0_3 2.700618 1_544
Ta0_4 V0_4 2.700618 1_555
Ta0_4 V0_2 2.700618 1_545
Ta0_4 V0_5 2.700618 1_554
Ta0_4 Ta0_6 2.811994 1_555
Ta0_4 Ta0_6 2.811994 1_545
Ta0_5 V0_2 2.700618 1_545
Ta0_5 V0_4 2.700618 1_555
Ta0_5 V0_5 2.700618 1_555
Ta0_5 V0_3 2.700618 1_545
Ta0_5 Ta0_7 2.811994 1_555
Ta0_5 Ta0_7 2.811994 1_545
Ta0_6 V0_0 2.700618 1_555
Ta0_6 V0_1 2.700618 1_554
Ta0_6 V0_7 2.700618 1_554
Ta0_6 V0_6 2.700618 1_555
Ta0_7 V0_0 2.700618 1_555
Ta0_7 V0_7 2.700618 1_555
Ta0_7 V0_6 2.700618 1_555
Ta0_7 V0_1 2.700618 1_555
V0_0 V0_2 2.811994 1_555
V0_0 V0_4 2.811994 1_555
V0_0 V0_4 2.811994 1_455
V0_0 V0_2 2.811994 1_545
V0_1 V0_3 2.811994 1_555
V0_1 V0_5 2.811994 1_555
V0_1 V0_5 2.811994 1_455
V0_1 V0_3 2.811994 1_545
V0_2 V0_6 2.811994 1_455
V0_2 V0_6 2.811994 1_555
V0_3 V0_7 2.811994 1_455
V0_3 V0_7 2.811994 1_555
V0_4 V0_6 2.811994 1_555
V0_4 V0_6 2.811994 1_545
V0_5 V0_7 2.811994 1_555
V0_5 V0_7 2.811994 1_545
