# generated using pymatgen
data_LaCuNi4
_symmetry_space_group_name_H-M   'P 1'
_cell_length_a   4.99245571
_cell_length_b   4.99225925
_cell_length_c   3.93971824
_cell_angle_alpha   90.00000000
_cell_angle_beta   90.00000000
_cell_angle_gamma   119.99871810
_symmetry_Int_Tables_number   1
_chemical_formula_structural   LaCuNi4
_chemical_formula_sum   'La1 Cu1 Ni4'
_cell_volume   85.03794473
_cell_formula_units_Z   1
loop_
 _symmetry_equiv_pos_site_id
 _symmetry_equiv_pos_as_xyz
  1  'x, y, z'
loop_
 _atom_site_type_symbol
 _atom_site_label
 _atom_site_symmetry_multiplicity
 _atom_site_fract_x
 _atom_site_fract_y
 _atom_site_fract_z
 _atom_site_occupancy
  La  La0  1  0.33333238  0.66666619  0.00000000  1
  Cu  Cu0  1  0.66667059  0.33333479  0.00000000  1
  Ni  Ni0  1  0.99999579  0.99999840  0.00000000  1
  Ni  Ni1  1  0.33138268  0.16569184  0.50000000  1
  Ni  Ni2  1  0.83430878  0.16568894  0.50000000  1
  Ni  Ni3  1  0.83430878  0.66861984  0.50000000  1
loop_
_geom_bond_atom_site_label_1
_geom_bond_atom_site_label_2
_geom_bond_distance
_geom_bond_site_symmetry_2
La0 Ni0 2.882324 1_445
La0 Ni0 2.882330 1_455
La0 Ni0 2.882419 1_555
La0 Ni1 3.179790 1_555
La0 Ni1 3.179790 1_554
La0 Ni1 3.179794 1_564
La0 Ni1 3.179794 1_565
La0 Ni2 3.179868 1_565
La0 Ni2 3.179868 1_564
La0 Ni3 3.179868 1_554
La0 Ni3 3.179868 1_555
La0 Ni2 3.179870 1_455
La0 Ni2 3.179870 1_454
La0 Ni3 3.179871 1_455
La0 Ni3 3.179871 1_454
Cu0 Ni2 2.445745 1_555
Cu0 Ni2 2.445745 1_554
Cu0 Ni3 2.445747 1_554
Cu0 Ni3 2.445747 1_555
Cu0 Ni1 2.445788 1_555
Cu0 Ni1 2.445788 1_554
Cu0 Ni0 2.882298 1_545
Cu0 Ni0 2.882306 1_555
Cu0 La0 2.882328 1_545
Cu0 La0 2.882333 1_555
Cu0 La0 2.882412 1_655
Cu0 Ni0 2.882468 1_445
Ni0 Ni2 2.435772 1_564
Ni0 Ni2 2.435772 1_565
Ni0 Ni3 2.435775 1_554
Ni0 Ni3 2.435775 1_555
Ni0 Ni1 2.435829 1_664
Ni0 Ni1 2.435829 1_665
Ni1 Ni2 2.481612 1_455
Ni1 Ni3 2.481614 1_445
Ni1 Ni3 2.510840 1_555
Ni1 Ni2 2.510844 1_555
Ni2 Ni3 2.481498 1_545
Ni2 Ni3 2.510761 1_555
