# generated using pymatgen
data_Y2Co2O7
_symmetry_space_group_name_H-M   'P 1'
_cell_length_a   7.01087181
_cell_length_b   7.01087181
_cell_length_c   7.01087181
_cell_angle_alpha   60.00000000
_cell_angle_beta   60.00000000
_cell_angle_gamma   60.00000000
_symmetry_Int_Tables_number   1
_chemical_formula_structural   Y2Co2O7
_chemical_formula_sum   'Y4 Co4 O14'
_cell_volume   243.66944914
_cell_formula_units_Z   2
loop_
 _symmetry_equiv_pos_site_id
 _symmetry_equiv_pos_as_xyz
  1  'x, y, z'
loop_
 _atom_site_type_symbol
 _atom_site_label
 _atom_site_symmetry_multiplicity
 _atom_site_fract_x
 _atom_site_fract_y
 _atom_site_fract_z
 _atom_site_occupancy
  Y  Y0  1  0.62500000  0.62500000  0.12500000  1
  Y  Y1  1  0.62500000  0.12500000  0.62500000  1
  Y  Y2  1  0.12500000  0.62500000  0.62500000  1
  Y  Y3  1  0.62500000  0.62500000  0.62500000  1
  Co  Co0  1  0.12500000  0.12500000  0.62500000  1
  Co  Co1  1  0.12500000  0.62500000  0.12500000  1
  Co  Co2  1  0.62500000  0.12500000  0.12500000  1
  Co  Co3  1  0.12500000  0.12500000  0.12500000  1
  O  O0  1  0.75000000  0.75000000  0.75000000  1
  O  O1  1  0.50000000  0.50000000  0.50000000  1
  O  O2  1  0.04721400  0.45278600  0.04721400  1
  O  O3  1  0.79721400  0.20278600  0.79721400  1
  O  O4  1  0.04721400  0.04721400  0.45278600  1
  O  O5  1  0.45278600  0.04721400  0.04721400  1
  O  O6  1  0.04721400  0.45278600  0.45278600  1
  O  O7  1  0.45278600  0.45278600  0.04721400  1
  O  O8  1  0.45278600  0.04721400  0.45278600  1
  O  O9  1  0.20278600  0.79721400  0.79721400  1
  O  O10  1  0.79721400  0.20278600  0.20278600  1
  O  O11  1  0.20278600  0.79721400  0.20278600  1
  O  O12  1  0.79721400  0.79721400  0.20278600  1
  O  O13  1  0.20278600  0.20278600  0.79721400  1
loop_
_geom_bond_atom_site_label_1
_geom_bond_atom_site_label_2
_geom_bond_distance
_geom_bond_site_symmetry_2
Co0 O6 1.914896 1_555
Co0 O8 1.914896 1_555
Co0 O13 1.914896 1_555
Co0 O3 1.914896 1_455
Co0 O9 1.914896 1_545
Co0 O4 1.914896 1_555
Co1 O6 1.914896 1_555
Co1 O7 1.914896 1_555
Co1 O11 1.914896 1_555
Co1 O12 1.914896 1_455
Co1 O9 1.914896 1_554
Co1 O2 1.914896 1_555
Co2 O7 1.914896 1_555
Co2 O8 1.914896 1_555
Co2 O10 1.914896 1_555
Co2 O12 1.914896 1_545
Co2 O3 1.914896 1_554
Co2 O5 1.914896 1_555
Co3 O4 1.914896 1_555
Co3 O5 1.914896 1_555
Co3 O2 1.914896 1_555
Co3 O10 1.914896 1_455
Co3 O11 1.914896 1_545
Co3 O13 1.914896 1_554
O0 Y1 2.146632 1_565
O0 Y0 2.146632 1_556
O0 Y2 2.146632 1_655
O0 Y3 2.146632 1_555
O1 Y0 2.146632 1_555
O1 Y2 2.146632 1_555
O1 Y1 2.146632 1_555
O1 Y3 2.146632 1_555
O2 Y2 2.446938 1_554
O2 Y0 2.446938 1_455
O3 Y1 2.446938 1_555
O3 Y3 2.446938 1_555
O4 Y2 2.446938 1_545
O4 Y1 2.446938 1_455
O5 Y1 2.446938 1_554
O5 Y0 2.446938 1_545
O6 Y3 2.446938 1_455
O6 Y2 2.446938 1_555
O7 Y3 2.446938 1_554
O7 Y0 2.446938 1_555
O8 Y3 2.446938 1_545
O8 Y1 2.446938 1_555
O9 Y3 2.446938 1_555
O9 Y2 2.446938 1_555
O10 Y1 2.446938 1_555
O10 Y0 2.446938 1_555
O11 Y0 2.446938 1_555
O11 Y2 2.446938 1_555
O12 Y3 2.446938 1_555
O12 Y0 2.446938 1_555
O13 Y1 2.446938 1_555
O13 Y2 2.446938 1_555
