# generated using pymatgen
data_Sr6GaN5
_symmetry_space_group_name_H-M   'P 1'
_cell_length_a   6.71956476
_cell_length_b   6.71956476
_cell_length_c   13.09600700
_cell_angle_alpha   90.00000000
_cell_angle_beta   90.00000000
_cell_angle_gamma   120.00000745
_symmetry_Int_Tables_number   1
_chemical_formula_structural   Sr6GaN5
_chemical_formula_sum   'Sr12 Ga2 N10'
_cell_volume   512.09647317
_cell_formula_units_Z   2
loop_
 _symmetry_equiv_pos_site_id
 _symmetry_equiv_pos_as_xyz
  1  'x, y, z'
loop_
 _atom_site_type_symbol
 _atom_site_label
 _atom_site_symmetry_multiplicity
 _atom_site_fract_x
 _atom_site_fract_y
 _atom_site_fract_z
 _atom_site_occupancy
  Sr  Sr0  1  0.59236800  0.59236800  0.87636000  1
  Sr  Sr1  1  0.40763200  0.00000000  0.87636000  1
  Sr  Sr2  1  0.00000000  0.40763200  0.87636000  1
  Sr  Sr3  1  0.00000000  0.59236800  0.37636000  1
  Sr  Sr4  1  0.40763200  0.00000000  0.62364000  1
  Sr  Sr5  1  0.40763200  0.40763200  0.37636000  1
  Sr  Sr6  1  0.59236800  0.00000000  0.37636000  1
  Sr  Sr7  1  0.40763200  0.40763200  0.12364000  1
  Sr  Sr8  1  0.00000000  0.59236800  0.12364000  1
  Sr  Sr9  1  0.00000000  0.40763200  0.62364000  1
  Sr  Sr10  1  0.59236800  0.59236800  0.62364000  1
  Sr  Sr11  1  0.59236800  0.00000000  0.12364000  1
  Ga  Ga0  1  0.00000000  0.00000000  0.75000000  1
  Ga  Ga1  1  0.00000000  0.00000000  0.25000000  1
  N  N0  1  0.71501800  0.00000000  0.75000000  1
  N  N1  1  0.71501800  0.71501800  0.25000000  1
  N  N2  1  0.00000000  0.28498200  0.25000000  1
  N  N3  1  0.00000000  0.71501800  0.75000000  1
  N  N4  1  0.28498200  0.28498200  0.75000000  1
  N  N5  1  0.33333300  0.66666700  0.00000000  1
  N  N6  1  0.28498200  0.00000000  0.25000000  1
  N  N7  1  0.66666700  0.33333300  0.00000000  1
  N  N8  1  0.66666700  0.33333300  0.50000000  1
  N  N9  1  0.33333300  0.66666700  0.50000000  1
loop_
_geom_bond_atom_site_label_1
_geom_bond_atom_site_label_2
_geom_bond_distance
_geom_bond_site_symmetry_2
Ga0 N4 1.914955 1_555
Ga0 N3 1.914955 1_545
Ga0 N0 1.914955 1_455
Ga1 N1 1.914955 1_445
Ga1 N6 1.914955 1_555
Ga1 N2 1.914955 1_555
N0 Sr4 2.646638 1_555
N0 Sr1 2.646638 1_555
N0 Sr9 2.943281 1_655
N0 Sr2 2.943281 1_655
N0 Sr10 2.943281 1_545
N0 Sr0 2.943281 1_545
N1 Sr7 2.646638 1_555
N1 Sr5 2.646638 1_555
N1 Sr8 2.943281 1_655
N1 Sr11 2.943281 1_565
N1 Sr6 2.943281 1_565
N1 Sr3 2.943281 1_655
N2 Sr8 2.646638 1_555
N2 Sr3 2.646638 1_555
N2 Sr11 2.943281 1_455
N2 Sr6 2.943281 1_455
N2 Sr7 2.943281 1_555
N2 Sr5 2.943281 1_555
N3 Sr9 2.646638 1_555
N3 Sr2 2.646638 1_555
N3 Sr4 2.943281 1_565
N3 Sr1 2.943281 1_565
N3 Sr10 2.943281 1_455
N3 Sr0 2.943281 1_455
N4 Sr10 2.646638 1_555
N4 Sr0 2.646638 1_555
N4 Sr9 2.943281 1_555
N4 Sr4 2.943281 1_555
N4 Sr1 2.943281 1_555
N4 Sr2 2.943281 1_555
N5 Sr1 2.601867 1_564
N5 Sr8 2.601867 1_555
N5 Sr2 2.601869 1_554
N5 Sr11 2.601869 1_565
N5 Sr0 2.601872 1_554
N5 Sr7 2.601872 1_555
N6 Sr11 2.646638 1_555
N6 Sr6 2.646638 1_555
N6 Sr8 2.943281 1_545
N6 Sr3 2.943281 1_545
N6 Sr7 2.943281 1_555
N6 Sr5 2.943281 1_555
N7 Sr11 2.601867 1_555
N7 Sr2 2.601867 1_654
N7 Sr1 2.601869 1_554
N7 Sr8 2.601869 1_655
N7 Sr0 2.601872 1_554
N7 Sr7 2.601872 1_555
N8 Sr6 2.601867 1_555
N8 Sr9 2.601867 1_655
N8 Sr3 2.601869 1_655
N8 Sr4 2.601869 1_555
N8 Sr5 2.601872 1_555
N8 Sr10 2.601872 1_555
N9 Sr3 2.601867 1_555
N9 Sr4 2.601867 1_565
N9 Sr6 2.601869 1_565
N9 Sr9 2.601869 1_555
N9 Sr5 2.601872 1_555
N9 Sr10 2.601872 1_555
