# generated using pymatgen
data_Rb4BaV6O18
_symmetry_space_group_name_H-M   'P 1'
_cell_length_a   10.48209815
_cell_length_b   10.48209815
_cell_length_c   10.48209805
_cell_angle_alpha   83.92970425
_cell_angle_beta   83.92970425
_cell_angle_gamma   83.92970719
_symmetry_Int_Tables_number   1
_chemical_formula_structural   Rb4BaV6O18
_chemical_formula_sum   'Rb8 Ba2 V12 O36'
_cell_volume   1133.61479594
_cell_formula_units_Z   2
loop_
 _symmetry_equiv_pos_site_id
 _symmetry_equiv_pos_as_xyz
  1  'x, y, z'
loop_
 _atom_site_type_symbol
 _atom_site_label
 _atom_site_symmetry_multiplicity
 _atom_site_fract_x
 _atom_site_fract_y
 _atom_site_fract_z
 _atom_site_occupancy
  Rb  Rb0  1  0.49962400  0.49962400  0.49962400  1
  Rb  Rb1  1  0.99962400  0.99962400  0.99962400  1
  Rb  Rb2  1  0.91538600  0.08523500  0.49690100  1
  Rb  Rb3  1  0.49690100  0.91538600  0.08523500  1
  Rb  Rb4  1  0.08523500  0.49690100  0.91538600  1
  Rb  Rb5  1  0.99690100  0.58523500  0.41538600  1
  Rb  Rb6  1  0.41538600  0.99690100  0.58523500  1
  Rb  Rb7  1  0.58523500  0.41538600  0.99690100  1
  Ba  Ba0  1  0.26743300  0.26743300  0.26743300  1
  Ba  Ba1  1  0.76743300  0.76743300  0.76743300  1
  V  V0  1  0.79897500  0.66906000  0.10234600  1
  V  V1  1  0.10234600  0.79897500  0.66906000  1
  V  V2  1  0.66906000  0.10234600  0.79897500  1
  V  V3  1  0.60234600  0.16906000  0.29897500  1
  V  V4  1  0.29897500  0.60234600  0.16906000  1
  V  V5  1  0.16906000  0.29897500  0.60234600  1
  V  V6  1  0.70583600  0.83366800  0.38742500  1
  V  V7  1  0.38742500  0.70583600  0.83366800  1
  V  V8  1  0.83366800  0.38742500  0.70583600  1
  V  V9  1  0.88742500  0.33366800  0.20583600  1
  V  V10  1  0.20583600  0.88742500  0.33366800  1
  V  V11  1  0.33366800  0.20583600  0.88742500  1
  O  O0  1  0.00434100  0.34868600  0.65942400  1
  O  O1  1  0.65942400  0.00434100  0.34868600  1
  O  O2  1  0.34868600  0.65942400  0.00434100  1
  O  O3  1  0.15942400  0.84868600  0.50434100  1
  O  O4  1  0.50434100  0.15942400  0.84868600  1
  O  O5  1  0.84868600  0.50434100  0.15942400  1
  O  O6  1  0.17461900  0.16304600  0.52906000  1
  O  O7  1  0.52906000  0.17461900  0.16304600  1
  O  O8  1  0.16304600  0.52906000  0.17461900  1
  O  O9  1  0.02906000  0.66304600  0.67461900  1
  O  O10  1  0.67461900  0.02906000  0.66304600  1
  O  O11  1  0.66304600  0.67461900  0.02906000  1
  O  O12  1  0.77241700  0.76423600  0.23944600  1
  O  O13  1  0.23944600  0.77241700  0.76423600  1
  O  O14  1  0.76423600  0.23944600  0.77241700  1
  O  O15  1  0.73944600  0.26423600  0.27241700  1
  O  O16  1  0.27241700  0.73944600  0.26423600  1
  O  O17  1  0.26423600  0.27241700  0.73944600  1
  O  O18  1  0.91156500  0.72708000  0.99118300  1
  O  O19  1  0.99118300  0.91156500  0.72708000  1
  O  O20  1  0.72708000  0.99118300  0.91156500  1
  O  O21  1  0.49118300  0.22708000  0.41156500  1
  O  O22  1  0.41156500  0.49118300  0.22708000  1
  O  O23  1  0.22708000  0.41156500  0.49118300  1
  O  O24  1  0.99337400  0.31384100  0.31869600  1
  O  O25  1  0.31869600  0.99337400  0.31384100  1
  O  O26  1  0.31384100  0.31869600  0.99337400  1
  O  O27  1  0.81869600  0.81384100  0.49337400  1
  O  O28  1  0.49337400  0.81869600  0.81384100  1
  O  O29  1  0.81384100  0.49337400  0.81869600  1
  O  O30  1  0.57527900  0.76490400  0.45421600  1
  O  O31  1  0.45421600  0.57527900  0.76490400  1
  O  O32  1  0.76490400  0.45421600  0.57527900  1
  O  O33  1  0.95421600  0.26490400  0.07527900  1
  O  O34  1  0.07527900  0.95421600  0.26490400  1
  O  O35  1  0.26490400  0.07527900  0.95421600  1
loop_
_geom_bond_atom_site_label_1
_geom_bond_atom_site_label_2
_geom_bond_distance
_geom_bond_site_symmetry_2
Ba0 O26 2.865504 1_554
Ba0 O24 2.865504 1_455
Ba0 O25 2.865504 1_545
Ba0 O22 2.892517 1_555
Ba0 O23 2.892517 1_555
Ba0 O21 2.892517 1_555
Ba0 O6 2.948007 1_555
Ba0 O7 2.948007 1_555
Ba0 O8 2.948007 1_555
Ba1 O27 2.865504 1_555
Ba1 O29 2.865504 1_555
Ba1 O28 2.865504 1_555
Ba1 O19 2.892517 1_555
Ba1 O18 2.892517 1_555
Ba1 O20 2.892517 1_555
Ba1 O11 2.948007 1_556
Ba1 O10 2.948007 1_565
Ba1 O9 2.948007 1_655
O0 V5 1.807707 1_555
O0 V8 1.818293 1_455
O0 Rb5 3.370089 1_455
O0 Rb4 3.460152 1_555
O1 V3 1.807707 1_555
O1 V6 1.818293 1_545
O1 Rb6 3.370089 1_545
O1 Rb2 3.460152 1_555
O2 V4 1.807706 1_555
O2 V7 1.818293 1_554
O2 Rb7 3.370089 1_554
O2 Rb3 3.460152 1_555
O3 V1 1.807706 1_555
O3 V10 1.818293 1_555
O3 Rb2 3.370089 1_465
O3 Rb6 3.460152 1_555
O4 V2 1.807707 1_555
O4 V11 1.818293 1_555
O4 Rb3 3.370089 1_546
O4 Rb7 3.460152 1_555
O5 V0 1.807707 1_555
O5 V9 1.818293 1_555
O5 Rb4 3.370089 1_654
O5 Rb5 3.460152 1_555
O6 V5 1.681693 1_555
O6 Rb2 2.980477 1_455
O6 Rb6 2.986106 1_545
O7 V3 1.681693 1_555
O7 Rb3 2.980477 1_545
O7 Rb7 2.986106 1_554
O8 V4 1.681693 1_555
O8 Rb4 2.980477 1_554
O8 Rb5 2.986106 1_455
O9 V1 1.681693 1_555
O9 Rb5 2.980477 1_455
O9 Rb4 2.986106 1_555
O10 V2 1.681693 1_555
O10 Rb6 2.980477 1_545
O10 Rb2 2.986106 1_555
O11 V0 1.681693 1_555
O11 Rb7 2.980477 1_554
O11 Rb3 2.986106 1_555
O12 V0 1.816015 1_555
O12 V6 1.823497 1_555
O12 Rb5 3.422099 1_555
O13 V1 1.816015 1_555
O13 V7 1.823497 1_555
O13 Rb6 3.422099 1_555
O14 V2 1.816015 1_555
O14 V8 1.823497 1_555
O14 Rb7 3.422099 1_555
O15 V3 1.816015 1_555
O15 V9 1.823497 1_555
O15 Rb2 3.422099 1_555
O16 V4 1.816015 1_555
O16 V10 1.823497 1_555
O16 Rb3 3.422099 1_555
O17 V5 1.816015 1_555
O17 V11 1.823497 1_555
O17 Rb4 3.422099 1_555
O18 V0 1.682711 1_556
O18 Rb4 2.989514 1_655
O18 Rb1 3.106409 1_555
O19 V1 1.682711 1_655
O19 Rb2 2.989513 1_565
O19 Rb1 3.106409 1_555
O20 V2 1.682711 1_565
O20 Rb3 2.989513 1_556
O20 Rb1 3.106409 1_555
O21 V3 1.682711 1_555
O21 Rb6 2.989513 1_545
O21 Rb0 3.106409 1_555
O22 V4 1.682711 1_555
O22 Rb7 2.989513 1_554
O22 Rb0 3.106409 1_555
O23 V5 1.682711 1_555
O23 Rb5 2.989514 1_455
O23 Rb0 3.106409 1_555
O24 V9 1.689118 1_555
O24 Rb2 3.007377 1_555
O24 Rb5 3.124309 1_555
O25 V10 1.689118 1_555
O25 Rb3 3.007377 1_555
O25 Rb6 3.124309 1_555
O26 V11 1.689118 1_555
O26 Rb4 3.007377 1_555
O26 Rb7 3.124309 1_555
O27 V6 1.689118 1_555
O27 Rb5 3.007377 1_555
O27 Rb2 3.124309 1_565
O28 V7 1.689118 1_555
O28 Rb6 3.007377 1_555
O28 Rb3 3.124309 1_556
O29 V8 1.689118 1_555
O29 Rb7 3.007377 1_555
O29 Rb4 3.124309 1_655
O30 V6 1.667865 1_555
O30 Rb0 2.948611 1_555
O30 Rb6 3.156956 1_555
O31 V7 1.667865 1_555
O31 Rb0 2.948611 1_555
O31 Rb7 3.156956 1_555
O32 V8 1.667865 1_555
O32 Rb0 2.948611 1_555
O32 Rb5 3.156956 1_555
O33 V9 1.667865 1_555
O33 Rb1 2.948611 1_544
O33 Rb4 3.156956 1_654
O34 V10 1.667865 1_555
O34 Rb1 2.948611 1_454
O34 Rb2 3.156956 1_465
O35 V11 1.667865 1_555
O35 Rb1 2.948611 1_445
O35 Rb3 3.156956 1_546
