# generated using pymatgen
data_Li3V4O8
_symmetry_space_group_name_H-M   'P 1'
_cell_length_a   5.91341840
_cell_length_b   10.29679887
_cell_length_c   6.10938202
_cell_angle_alpha   73.86781464
_cell_angle_beta   119.03594559
_cell_angle_gamma   89.94773472
_symmetry_Int_Tables_number   1
_chemical_formula_structural   Li3V4O8
_chemical_formula_sum   'Li6 V8 O16'
_cell_volume   308.32545023
_cell_formula_units_Z   2
loop_
 _symmetry_equiv_pos_site_id
 _symmetry_equiv_pos_as_xyz
  1  'x, y, z'
loop_
 _atom_site_type_symbol
 _atom_site_label
 _atom_site_symmetry_multiplicity
 _atom_site_fract_x
 _atom_site_fract_y
 _atom_site_fract_z
 _atom_site_occupancy
  Li  Li0  1  0.49996200  0.99953400  0.50044600  1
  Li  Li1  1  0.99880700  0.50006700  0.49992300  1
  Li  Li2  1  0.28545700  0.07326400  0.06759500  1
  Li  Li3  1  0.78142100  0.57319900  0.06864100  1
  Li  Li4  1  0.21367500  0.42654900  0.93195300  1
  Li  Li5  1  0.71911300  0.92589500  0.93209400  1
  V  V0  1  0.25075200  0.74901700  0.50055300  1
  V  V1  1  0.25031100  0.24951200  0.49884900  1
  V  V2  1  0.49246500  0.50010100  0.49944700  1
  V  V3  1  0.75032500  0.25004700  0.99983100  1
  V  V4  1  0.24909500  0.74992700  0.00013800  1
  V  V5  1  0.75041300  0.25043100  0.50047300  1
  V  V6  1  0.75070200  0.75081200  0.50004000  1
  V  V7  1  0.00530500  0.00086500  0.49896600  1
  O  O0  1  0.11715700  0.13802900  0.70068300  1
  O  O1  1  0.58743100  0.63914300  0.70104500  1
  O  O2  1  0.38300800  0.36224700  0.29827900  1
  O  O3  1  0.91363700  0.86185600  0.30046400  1
  O  O4  1  0.65181000  0.12718100  0.26462700  1
  O  O5  1  0.14180900  0.62806300  0.27081800  1
  O  O6  1  0.88796700  0.36325500  0.26769000  1
  O  O7  1  0.37449300  0.86288500  0.26341500  1
  O  O8  1  0.12486900  0.13144600  0.26441100  1
  O  O9  1  0.61370600  0.62700700  0.26538400  1
  O  O10  1  0.61213000  0.13646400  0.73229000  1
  O  O11  1  0.12590400  0.63660600  0.73669100  1
  O  O12  1  0.37641000  0.37112700  0.73265100  1
  O  O13  1  0.88735300  0.87103500  0.73838200  1
  O  O14  1  0.84988000  0.37209800  0.73647900  1
  O  O15  1  0.35463100  0.87233800  0.72774200  1
loop_
_geom_bond_atom_site_label_1
_geom_bond_atom_site_label_2
_geom_bond_distance
_geom_bond_site_symmetry_2
Li0 O15 2.128865 1_555
Li0 O10 2.152592 1_565
Li0 O8 2.155323 1_565
Li0 O7 2.172219 1_555
Li0 O13 2.191958 1_555
Li0 O4 2.194338 1_565
Li1 O5 2.130042 1_655
Li1 O12 2.152663 1_655
Li1 O6 2.153317 1_555
Li1 O11 2.170385 1_655
Li1 O9 2.175734 1_555
Li1 O14 2.186280 1_555
Li2 O0 1.860778 1_554
Li2 O8 2.052852 1_555
Li2 O4 2.071869 1_555
Li2 O7 2.085025 1_545
Li3 O1 1.863040 1_554
Li3 O5 2.054561 1_655
Li3 O9 2.064359 1_555
Li3 O6 2.083711 1_555
Li4 O2 1.857353 1_556
Li4 O14 2.061289 1_455
Li4 O12 2.063215 1_555
Li4 O11 2.081766 1_555
Li5 O3 1.866494 1_556
Li5 O13 2.054954 1_555
Li5 O15 2.069046 1_555
Li5 O10 2.090075 1_565
O0 V1 1.901511 1_555
O0 V7 2.031902 1_555
O0 V5 2.042714 1_455
O1 V0 1.898062 1_555
O1 V6 2.032384 1_555
O1 V2 2.047434 1_555
O2 V1 1.899820 1_555
O2 V2 2.035485 1_555
O2 V5 2.042468 1_555
O3 V0 1.912927 1_655
O3 V6 2.022379 1_555
O3 V7 2.034993 1_665
O4 V7 2.041120 1_655
O4 V5 2.056364 1_555
O4 V3 2.082269 1_554
O5 V0 2.007786 1_555
O5 V2 2.036555 1_555
O5 V4 2.139736 1_555
O6 V1 2.023890 1_655
O6 V5 2.059205 1_555
O6 V3 2.113790 1_554
O7 V0 2.023793 1_555
O7 V6 2.077768 1_555
O7 V4 2.091227 1_555
O8 V1 2.004372 1_555
O8 V7 2.067783 1_555
O8 V3 2.105351 1_454
O9 V2 2.055458 1_555
O9 V6 2.055895 1_555
O9 V4 2.083345 1_555
O10 V1 2.019314 1_555
O10 V5 2.062506 1_555
O10 V3 2.115351 1_555
O11 V0 2.018308 1_555
O11 V6 2.081462 1_455
O11 V4 2.095168 1_556
O12 V1 2.031307 1_555
O12 V2 2.040548 1_555
O12 V3 2.113848 1_555
O13 V6 2.041329 1_555
O13 V4 2.062662 1_656
O13 V7 2.078102 1_665
O14 V5 2.043587 1_555
O14 V2 2.065073 1_555
O14 V3 2.076474 1_555
O15 V0 2.017292 1_555
O15 V7 2.033853 1_565
O15 V4 2.142802 1_556
