# generated using pymatgen
data_Re3Se2Cl5
_symmetry_space_group_name_H-M   'P 1'
_cell_length_a   9.48097700
_cell_length_b   9.50314958
_cell_length_c   12.65389862
_cell_angle_alpha   84.46159397
_cell_angle_beta   84.50367745
_cell_angle_gamma   82.38835939
_symmetry_Int_Tables_number   1
_chemical_formula_structural   Re3Se2Cl5
_chemical_formula_sum   'Re12 Se8 Cl20'
_cell_volume   1120.79666300
_cell_formula_units_Z   4
loop_
 _symmetry_equiv_pos_site_id
 _symmetry_equiv_pos_as_xyz
  1  'x, y, z'
loop_
 _atom_site_type_symbol
 _atom_site_label
 _atom_site_symmetry_multiplicity
 _atom_site_fract_x
 _atom_site_fract_y
 _atom_site_fract_z
 _atom_site_occupancy
  Re  Re0  1  0.01441400  0.00747900  0.85170100  1
  Re  Re1  1  0.08604900  0.16499000  0.99558800  1
  Re  Re2  1  0.17926600  0.89232900  0.00096300  1
  Re  Re3  1  0.31771000  0.52100000  0.57142800  1
  Re  Re4  1  0.42883600  0.43879500  0.38212300  1
  Re  Re5  1  0.47124000  0.68694600  0.44156300  1
  Re  Re6  1  0.53155100  0.31065600  0.55966500  1
  Re  Re7  1  0.57368100  0.55895100  0.61839400  1
  Re  Re8  1  0.68415200  0.47697200  0.42949300  1
  Re  Re9  1  0.82019200  0.10534300  0.00096700  1
  Re  Re10  1  0.91494700  0.83277100  0.00635700  1
  Re  Re11  1  0.98624800  0.98960900  0.14927300  1
  Se  Se0  1  0.24151400  0.05075500  0.13768000  1
  Se  Se1  1  0.10363700  0.74752100  0.86080500  1
  Se  Se2  1  0.36461200  0.75698400  0.62465800  1
  Se  Se3  1  0.42252600  0.40070900  0.73640200  1
  Se  Se4  1  0.57621900  0.59940000  0.26261300  1
  Se  Se5  1  0.63322600  0.24296100  0.37502100  1
  Se  Se6  1  0.72956100  0.93590000  0.14813500  1
  Se  Se7  1  0.77403900  0.35355900  0.60156900  1
  Cl  Cl0  1  0.02900900  0.02756500  0.66706500  1
  Cl  Cl1  1  0.07510400  0.73417300  0.14503600  1
  Cl  Cl2  1  0.07966800  0.54326300  0.64972200  1
  Cl  Cl3  1  0.23263300  0.64877400  0.39895200  1
  Cl  Cl4  1  0.18771100  0.37570500  0.98329600  1
  Cl  Cl5  1  0.28407900  0.28250300  0.51079100  1
  Cl  Cl6  1  0.26084700  0.06411200  0.85527800  1
  Cl  Cl7  1  0.32297600  0.36671600  0.23851200  1
  Cl  Cl8  1  0.40389100  0.75745000  0.00202500  1
  Cl  Cl9  1  0.43253400  0.92785100  0.36614800  1
  Cl  Cl10  1  0.56348100  0.06914800  0.63552000  1
  Cl  Cl11  1  0.59890800  0.24287000  0.99570400  1
  Cl  Cl12  1  0.67487200  0.63928000  0.76263600  1
  Cl  Cl13  1  0.71005100  0.72117000  0.48603500  1
  Cl  Cl14  1  0.81078200  0.62230200  0.01576700  1
  Cl  Cl15  1  0.89924900  0.24633700  0.13394400  1
  Cl  Cl16  1  0.76607800  0.95219500  0.86584400  1
  Cl  Cl17  1  0.92175700  0.45771300  0.34441200  1
  Cl  Cl18  1  0.92277300  0.27126800  0.85341200  1
  Cl  Cl19  1  0.96997700  0.97597200  0.33550200  1
loop_
_geom_bond_atom_site_label_1
_geom_bond_atom_site_label_2
_geom_bond_distance
_geom_bond_site_symmetry_2
Re0 Se1 2.498389 1_545
Re1 Se0 2.508177 1_556
Re2 Se1 2.555281 1_554
Re2 Se0 2.557657 1_565
Re3 Se3 2.507605 1_555
Re3 Se2 2.508740 1_555
Re4 Se5 2.504041 1_555
Re4 Se4 2.506712 1_555
Re5 Se2 2.550213 1_555
Re5 Se4 2.553997 1_555
Re6 Se7 2.501295 1_555
Re6 Se3 2.548455 1_555
Re6 Se5 2.548838 1_555
Re7 Se3 2.504501 1_555
Re7 Se7 2.546383 1_555
Re7 Se2 2.547052 1_555
Re8 Se5 2.509540 1_555
Re8 Se7 2.537860 1_555
Re8 Se4 2.546430 1_555
Re9 Se6 2.506070 1_545
Re10 Se1 2.553790 1_654
Re10 Se6 2.558787 1_555
Re11 Se0 2.550390 1_665
Re11 Se6 2.553534 1_555
Cl0 Re0 2.318010 1_555
Cl1 Re2 2.465213 1_555
Cl1 Re10 2.465603 1_455
Cl1 Re11 2.465725 1_455
Cl2 Re3 2.367573 1_555
Cl3 Re5 2.455364 1_555
Cl3 Re3 2.540580 1_555
Cl3 Re4 2.551535 1_555
Cl4 Re1 2.320670 1_555
Cl5 Re4 2.526985 1_555
Cl5 Re3 2.530080 1_555
Cl5 Re6 2.536783 1_555
Cl6 Re0 2.471571 1_555
Cl6 Re2 2.478331 1_546
Cl6 Re1 2.482300 1_555
Cl7 Re4 2.355985 1_555
Cl8 Re2 2.336151 1_555
Cl9 Re5 2.389417 1_555
Cl10 Re6 2.393068 1_555
Cl11 Re9 2.323287 1_556
Cl12 Re7 2.373401 1_555
Cl13 Re5 2.454257 1_555
Cl13 Re8 2.542189 1_555
Cl13 Re7 2.543248 1_555
Cl14 Re10 2.333402 1_555
Cl15 Re11 2.465041 1_545
Cl15 Re1 2.470605 1_654
Cl15 Re9 2.476159 1_555
Cl16 Re0 2.465844 1_665
Cl16 Re10 2.471523 1_556
Cl16 Re9 2.480142 1_566
Cl17 Re8 2.394070 1_555
Cl18 Re9 2.531513 1_556
Cl18 Re1 2.534104 1_655
Cl18 Re0 2.543505 1_655
Cl19 Re11 2.338910 1_555
