# generated using pymatgen
data_Nd2Zn17
_symmetry_space_group_name_H-M   'P 1'
_cell_length_a   9.08184300
_cell_length_b   9.08184347
_cell_length_c   8.75300300
_cell_angle_alpha   90.00000000
_cell_angle_beta   90.00000000
_cell_angle_gamma   120.00000195
_symmetry_Int_Tables_number   1
_chemical_formula_structural   Nd2Zn17
_chemical_formula_sum   'Nd4 Zn34'
_cell_volume   625.22408912
_cell_formula_units_Z   2
loop_
 _symmetry_equiv_pos_site_id
 _symmetry_equiv_pos_as_xyz
  1  'x, y, z'
loop_
 _atom_site_type_symbol
 _atom_site_label
 _atom_site_symmetry_multiplicity
 _atom_site_fract_x
 _atom_site_fract_y
 _atom_site_fract_z
 _atom_site_occupancy
  Nd  Nd0  1  0.00000000  0.00000000  0.25000000  1
  Nd  Nd1  1  0.00000000  0.00000000  0.75000000  1
  Nd  Nd2  1  0.33333300  0.66666700  0.75000000  1
  Nd  Nd3  1  0.66666700  0.33333300  0.25000000  1
  Zn  Zn0  1  0.33333300  0.66666700  0.40087300  1
  Zn  Zn1  1  0.66666700  0.33333300  0.59912700  1
  Zn  Zn2  1  0.66666700  0.33333300  0.90087300  1
  Zn  Zn3  1  0.33333300  0.66666700  0.09912700  1
  Zn  Zn4  1  0.50000000  0.50000000  0.50000000  1
  Zn  Zn5  1  0.50000000  0.00000000  0.50000000  1
  Zn  Zn6  1  0.00000000  0.50000000  0.50000000  1
  Zn  Zn7  1  0.50000000  0.50000000  0.00000000  1
  Zn  Zn8  1  0.50000000  0.00000000  0.00000000  1
  Zn  Zn9  1  0.00000000  0.50000000  0.00000000  1
  Zn  Zn10  1  0.32945200  0.36681500  0.25000000  1
  Zn  Zn11  1  0.63318500  0.96263700  0.25000000  1
  Zn  Zn12  1  0.03736300  0.67054800  0.25000000  1
  Zn  Zn13  1  0.63318500  0.67054800  0.25000000  1
  Zn  Zn14  1  0.03736300  0.36681500  0.25000000  1
  Zn  Zn15  1  0.32945200  0.96263700  0.25000000  1
  Zn  Zn16  1  0.67054800  0.63318500  0.75000000  1
  Zn  Zn17  1  0.36681500  0.03736300  0.75000000  1
  Zn  Zn18  1  0.96263700  0.32945200  0.75000000  1
  Zn  Zn19  1  0.36681500  0.32945200  0.75000000  1
  Zn  Zn20  1  0.96263700  0.63318500  0.75000000  1
  Zn  Zn21  1  0.67054800  0.03736300  0.75000000  1
  Zn  Zn22  1  0.16179600  0.83820400  0.51741800  1
  Zn  Zn23  1  0.16179600  0.32359300  0.51741800  1
  Zn  Zn24  1  0.67640700  0.83820400  0.51741800  1
  Zn  Zn25  1  0.83820400  0.16179600  0.48258200  1
  Zn  Zn26  1  0.83820400  0.67640700  0.48258200  1
  Zn  Zn27  1  0.32359300  0.16179600  0.48258200  1
  Zn  Zn28  1  0.83820400  0.16179600  0.01741800  1
  Zn  Zn29  1  0.83820400  0.67640700  0.01741800  1
  Zn  Zn30  1  0.32359300  0.16179600  0.01741800  1
  Zn  Zn31  1  0.16179600  0.83820400  0.98258200  1
  Zn  Zn32  1  0.16179600  0.32359300  0.98258200  1
  Zn  Zn33  1  0.67640700  0.83820400  0.98258200  1
loop_
_geom_bond_atom_site_label_1
_geom_bond_atom_site_label_2
_geom_bond_distance
_geom_bond_site_symmetry_2
Nd0 Zn13 3.175321 1_445
Nd0 Zn11 3.175321 1_445
Nd0 Zn10 3.175321 1_555
Nd0 Zn15 3.175321 1_545
Nd0 Zn14 3.175321 1_555
Nd0 Zn12 3.175321 1_545
Nd0 Zn25 3.259127 1_455
Nd0 Zn28 3.259127 1_455
Nd0 Zn27 3.259133 1_555
Nd0 Zn30 3.259133 1_555
Nd0 Zn26 3.259133 1_445
Nd0 Zn29 3.259133 1_445
Nd0 Zn22 3.457801 1_545
Nd0 Zn31 3.457801 1_544
Nd0 Zn24 3.457807 1_445
Nd0 Zn33 3.457807 1_444
Nd0 Zn23 3.457807 1_555
Nd0 Zn32 3.457807 1_554
Nd1 Zn19 3.175321 1_555
Nd1 Zn17 3.175321 1_555
Nd1 Zn16 3.175321 1_445
Nd1 Zn21 3.175321 1_455
Nd1 Zn20 3.175321 1_445
Nd1 Zn18 3.175321 1_455
Nd1 Zn31 3.259127 1_545
Nd1 Zn22 3.259127 1_545
Nd1 Zn33 3.259133 1_445
Nd1 Zn24 3.259133 1_445
Nd1 Zn32 3.259133 1_555
Nd1 Zn23 3.259133 1_555
Nd1 Zn28 3.457801 1_456
Nd1 Zn25 3.457801 1_455
Nd1 Zn30 3.457807 1_556
Nd1 Zn27 3.457807 1_555
Nd1 Zn29 3.457807 1_446
Nd1 Zn26 3.457807 1_445
Nd2 Zn3 3.055910 1_556
Nd2 Zn0 3.055910 1_555
Nd2 Zn20 3.225332 1_455
Nd2 Zn17 3.225332 1_565
Nd2 Zn18 3.225336 1_455
Nd2 Zn21 3.225336 1_565
Nd2 Zn16 3.225341 1_555
Nd2 Zn19 3.225341 1_555
Nd2 Zn33 3.380139 1_555
Nd2 Zn24 3.380139 1_555
Nd2 Zn32 3.380139 1_555
Nd2 Zn23 3.380139 1_555
Nd2 Zn31 3.380139 1_555
Nd2 Zn22 3.380139 1_555
Nd2 Zn6 3.414930 1_555
Nd2 Zn9 3.414930 1_556
Nd2 Zn8 3.414931 1_566
Nd2 Zn5 3.414931 1_565
Nd2 Zn7 3.414937 1_556
Nd2 Zn4 3.414937 1_555
Nd3 Zn1 3.055910 1_555
Nd3 Zn2 3.055910 1_554
Nd3 Zn14 3.225332 1_655
Nd3 Zn11 3.225332 1_545
Nd3 Zn12 3.225336 1_655
Nd3 Zn15 3.225336 1_545
Nd3 Zn10 3.225341 1_555
Nd3 Zn13 3.225341 1_555
Nd3 Zn27 3.380139 1_555
Nd3 Zn30 3.380139 1_555
Nd3 Zn26 3.380139 1_555
Nd3 Zn29 3.380139 1_555
Nd3 Zn25 3.380139 1_555
Nd3 Zn28 3.380139 1_555
Nd3 Zn9 3.414930 1_655
Nd3 Zn6 3.414930 1_655
Nd3 Zn8 3.414931 1_555
Nd3 Zn5 3.414931 1_555
Nd3 Zn7 3.414937 1_555
Nd3 Zn4 3.414937 1_555
Zn0 Zn3 2.641184 1_555
Zn0 Zn6 2.761547 1_555
Zn0 Zn5 2.761547 1_565
Zn0 Zn4 2.761554 1_555
Zn0 Zn24 2.884708 1_555
Zn0 Zn23 2.884708 1_555
Zn0 Zn22 2.884708 1_555
Zn0 Zn12 3.010820 1_555
Zn0 Zn15 3.010820 1_555
Zn0 Zn11 3.010824 1_555
Zn0 Zn14 3.010824 1_555
Zn0 Zn13 3.010828 1_555
Zn0 Zn10 3.010828 1_555
Zn1 Zn2 2.641184 1_555
Zn1 Zn6 2.761547 1_655
Zn1 Zn5 2.761547 1_555
Zn1 Zn4 2.761554 1_555
Zn1 Zn27 2.884708 1_555
Zn1 Zn26 2.884708 1_555
Zn1 Zn25 2.884708 1_555
Zn1 Zn18 3.010820 1_555
Zn1 Zn21 3.010820 1_555
Zn1 Zn17 3.010824 1_555
Zn1 Zn20 3.010824 1_555
Zn1 Zn19 3.010828 1_555
Zn1 Zn16 3.010828 1_555
Zn2 Zn9 2.761547 1_656
Zn2 Zn8 2.761547 1_556
Zn2 Zn7 2.761554 1_556
Zn2 Zn30 2.884708 1_556
Zn2 Zn29 2.884708 1_556
Zn2 Zn28 2.884708 1_556
Zn2 Zn21 3.010820 1_555
Zn2 Zn20 3.010824 1_555
Zn3 Zn9 2.761547 1_555
Zn3 Zn8 2.761547 1_565
Zn3 Zn7 2.761554 1_555
Zn3 Zn33 2.884708 1_554
Zn3 Zn32 2.884708 1_554
Zn3 Zn31 2.884708 1_554
Zn10 Zn7 2.603280 1_555
Zn10 Zn4 2.603280 1_555
Zn10 Zn14 2.652706 1_555
Zn10 Zn23 2.711773 1_555
Zn10 Zn32 2.711773 1_554
Zn10 Zn27 2.741361 1_555
Zn10 Zn30 2.741361 1_555
Zn10 Zn13 2.758455 1_555
Zn10 Zn3 3.010828 1_555
Zn11 Zn5 2.603280 1_565
Zn11 Zn8 2.603280 1_565
Zn11 Zn13 2.652707 1_555
Zn11 Zn24 2.711769 1_555
Zn11 Zn33 2.711769 1_554
Zn11 Zn25 2.741358 1_565
Zn11 Zn28 2.741358 1_565
Zn11 Zn15 2.758455 1_555
Zn11 Zn3 3.010824 1_555
Zn12 Zn9 2.603280 1_555
Zn12 Zn6 2.603280 1_555
Zn12 Zn15 2.652706 1_555
Zn12 Zn22 2.711772 1_555
Zn12 Zn31 2.711772 1_554
Zn12 Zn26 2.741355 1_455
Zn12 Zn29 2.741355 1_455
Zn12 Zn14 2.758456 1_555
Zn12 Zn3 3.010820 1_555
Zn13 Zn7 2.603280 1_555
Zn13 Zn4 2.603280 1_555
Zn13 Zn24 2.711773 1_555
Zn13 Zn33 2.711773 1_554
Zn13 Zn26 2.741361 1_555
Zn13 Zn29 2.741361 1_555
Zn13 Zn3 3.010828 1_555
Zn14 Zn9 2.603280 1_555
Zn14 Zn6 2.603280 1_555
Zn14 Zn23 2.711769 1_555
Zn14 Zn32 2.711769 1_554
Zn14 Zn25 2.741358 1_455
Zn14 Zn28 2.741358 1_455
Zn14 Zn3 3.010824 1_555
Zn15 Zn8 2.603280 1_565
Zn15 Zn5 2.603280 1_565
Zn15 Zn22 2.711772 1_555
Zn15 Zn31 2.711772 1_554
Zn15 Zn27 2.741355 1_565
Zn15 Zn30 2.741355 1_565
Zn15 Zn3 3.010820 1_555
Zn16 Zn7 2.603280 1_556
Zn16 Zn4 2.603280 1_555
Zn16 Zn20 2.652706 1_555
Zn16 Zn29 2.711773 1_556
Zn16 Zn26 2.711773 1_555
Zn16 Zn33 2.741361 1_555
Zn16 Zn24 2.741361 1_555
Zn16 Zn19 2.758455 1_555
Zn16 Zn2 3.010828 1_555
Zn17 Zn5 2.603280 1_555
Zn17 Zn8 2.603280 1_556
Zn17 Zn19 2.652707 1_555
Zn17 Zn30 2.711769 1_556
Zn17 Zn27 2.711769 1_555
Zn17 Zn31 2.741358 1_545
Zn17 Zn22 2.741358 1_545
Zn17 Zn21 2.758455 1_555
Zn17 Zn2 3.010824 1_555
Zn18 Zn9 2.603280 1_656
Zn18 Zn6 2.603280 1_655
Zn18 Zn21 2.652706 1_555
Zn18 Zn28 2.711772 1_556
Zn18 Zn25 2.711772 1_555
Zn18 Zn32 2.741355 1_655
Zn18 Zn23 2.741355 1_655
Zn18 Zn20 2.758456 1_555
Zn18 Zn2 3.010820 1_555
Zn19 Zn7 2.603280 1_556
Zn19 Zn4 2.603280 1_555
Zn19 Zn30 2.711773 1_556
Zn19 Zn27 2.711773 1_555
Zn19 Zn32 2.741361 1_555
Zn19 Zn23 2.741361 1_555
Zn19 Zn2 3.010828 1_555
Zn20 Zn9 2.603280 1_656
Zn20 Zn6 2.603280 1_655
Zn20 Zn29 2.711769 1_556
Zn20 Zn26 2.711769 1_555
Zn20 Zn31 2.741358 1_655
Zn20 Zn22 2.741358 1_655
Zn21 Zn5 2.603280 1_555
Zn21 Zn8 2.603280 1_556
Zn21 Zn28 2.711772 1_556
Zn21 Zn25 2.711772 1_555
Zn21 Zn33 2.741355 1_545
Zn21 Zn24 2.741355 1_545
Zn22 Zn26 2.563286 1_455
Zn22 Zn27 2.563286 1_565
Zn22 Zn5 2.665202 1_565
Zn22 Zn6 2.665202 1_555
Zn23 Zn25 2.563286 1_455
Zn23 Zn27 2.563302 1_555
Zn23 Zn6 2.665194 1_555
Zn23 Zn4 2.665202 1_555
Zn24 Zn25 2.563286 1_565
Zn24 Zn26 2.563302 1_555
Zn24 Zn5 2.665194 1_565
Zn24 Zn4 2.665202 1_555
Zn25 Zn5 2.665202 1_555
Zn25 Zn6 2.665202 1_655
Zn26 Zn6 2.665194 1_655
Zn26 Zn4 2.665202 1_555
Zn27 Zn5 2.665194 1_555
Zn27 Zn4 2.665202 1_555
Zn28 Zn32 2.563286 1_654
Zn28 Zn33 2.563286 1_544
Zn28 Zn8 2.665202 1_555
Zn28 Zn9 2.665202 1_655
Zn29 Zn31 2.563286 1_654
Zn29 Zn33 2.563302 1_554
Zn29 Zn9 2.665194 1_655
Zn29 Zn7 2.665202 1_555
Zn30 Zn31 2.563286 1_544
Zn30 Zn32 2.563302 1_554
Zn30 Zn8 2.665194 1_555
Zn30 Zn7 2.665202 1_555
Zn31 Zn8 2.665202 1_566
Zn31 Zn9 2.665202 1_556
Zn32 Zn9 2.665194 1_556
Zn32 Zn7 2.665202 1_556
Zn33 Zn8 2.665194 1_566
Zn33 Zn7 2.665202 1_556
