# generated using pymatgen
data_KCN
_symmetry_space_group_name_H-M   'P 1'
_cell_length_a   9.85512629
_cell_length_b   12.09975600
_cell_length_c   12.09975619
_cell_angle_alpha   23.18011311
_cell_angle_beta   40.88512692
_cell_angle_gamma   40.88512649
_symmetry_Int_Tables_number   1
_chemical_formula_structural   KCN
_chemical_formula_sum   'K8 C8 N8'
_cell_volume   361.15571824
_cell_formula_units_Z   8
loop_
 _symmetry_equiv_pos_site_id
 _symmetry_equiv_pos_as_xyz
  1  'x, y, z'
loop_
 _atom_site_type_symbol
 _atom_site_label
 _atom_site_symmetry_multiplicity
 _atom_site_fract_x
 _atom_site_fract_y
 _atom_site_fract_z
 _atom_site_occupancy
  K  K0_0  1  0.01593650  0.00114550  0.00114550  1
  K  K0_1  1  0.01593650  0.00114550  0.50114550  1
  K  K0_2  1  0.01593650  0.50114550  0.00114550  1
  K  K0_3  1  0.01593650  0.50114550  0.50114550  1
  K  K0_4  1  0.51593650  0.00114550  0.00114550  1
  K  K0_5  1  0.51593650  0.00114550  0.50114550  1
  K  K0_6  1  0.51593650  0.50114550  0.00114550  1
  K  K0_7  1  0.51593650  0.50114550  0.50114550  1
  C  C0_0  1  0.49569100  0.37064100  0.37064100  1
  C  C0_1  1  0.49569100  0.37064100  0.87064100  1
  C  C0_2  1  0.49569100  0.87064100  0.37064100  1
  C  C0_3  1  0.49569100  0.87064100  0.87064100  1
  C  C0_4  1  0.99569100  0.37064100  0.37064100  1
  C  C0_5  1  0.99569100  0.37064100  0.87064100  1
  C  C0_6  1  0.99569100  0.87064100  0.37064100  1
  C  C0_7  1  0.99569100  0.87064100  0.87064100  1
  N  N0_0  1  0.05637200  0.12871350  0.12871350  1
  N  N0_1  1  0.05637200  0.12871350  0.62871350  1
  N  N0_2  1  0.05637200  0.62871350  0.12871350  1
  N  N0_3  1  0.05637200  0.62871350  0.62871350  1
  N  N0_4  1  0.55637200  0.12871350  0.12871350  1
  N  N0_5  1  0.55637200  0.12871350  0.62871350  1
  N  N0_6  1  0.55637200  0.62871350  0.12871350  1
  N  N0_7  1  0.55637200  0.62871350  0.62871350  1
loop_
_geom_bond_atom_site_label_1
_geom_bond_atom_site_label_2
_geom_bond_distance
_geom_bond_site_symmetry_2
K0_0 K0_3 2.430937 1_554
K0_0 K0_3 2.430937 1_545
K0_0 N0_2 2.876591 1_545
K0_0 N0_1 2.876591 1_554
K0_0 N0_4 2.918392 1_455
K0_1 K0_2 2.430937 1_555
K0_1 K0_2 2.430937 1_546
K0_1 N0_3 2.876591 1_545
K0_1 N0_0 2.876591 1_555
K0_1 N0_5 2.918392 1_455
K0_2 N0_0 2.876591 1_555
K0_2 N0_3 2.876591 1_554
K0_2 N0_6 2.918392 1_455
K0_3 N0_1 2.876591 1_555
K0_3 N0_2 2.876591 1_555
K0_3 N0_7 2.918392 1_455
K0_4 K0_7 2.430937 1_554
K0_4 K0_7 2.430937 1_545
K0_4 N0_6 2.876591 1_545
K0_4 N0_5 2.876591 1_554
K0_4 N0_0 2.918392 1_555
K0_5 K0_6 2.430937 1_555
K0_5 K0_6 2.430937 1_546
K0_5 N0_7 2.876591 1_545
K0_5 N0_4 2.876591 1_555
K0_5 N0_1 2.918392 1_555
K0_6 N0_4 2.876591 1_555
K0_6 N0_7 2.876591 1_554
K0_6 N0_2 2.918392 1_555
K0_7 N0_5 2.876591 1_555
K0_7 N0_6 2.876591 1_555
K0_7 N0_3 2.918392 1_555
C0_0 N0_6 1.431172 1_555
C0_0 N0_5 1.431172 1_555
C0_0 K0_5 2.944379 1_555
C0_0 K0_6 2.944379 1_555
C0_0 K0_3 3.057454 1_555
C0_1 N0_7 1.431172 1_555
C0_1 N0_4 1.431172 1_556
C0_1 K0_4 2.944379 1_556
C0_1 K0_7 2.944379 1_555
C0_1 K0_2 3.057454 1_556
C0_2 N0_4 1.431172 1_565
C0_2 N0_7 1.431172 1_555
C0_2 K0_7 2.944379 1_555
C0_2 K0_4 2.944379 1_565
C0_2 K0_1 3.057454 1_565
C0_3 N0_5 1.431172 1_565
C0_3 N0_6 1.431172 1_556
C0_3 K0_6 2.944379 1_556
C0_3 K0_5 2.944379 1_565
C0_3 K0_0 3.057454 1_566
C0_4 N0_2 1.431172 1_655
C0_4 N0_1 1.431172 1_655
C0_4 K0_1 2.944379 1_655
C0_4 K0_2 2.944379 1_655
C0_4 K0_7 3.057454 1_555
C0_5 N0_3 1.431172 1_655
C0_5 N0_0 1.431172 1_656
C0_5 K0_0 2.944379 1_656
C0_5 K0_3 2.944379 1_655
C0_5 K0_6 3.057454 1_556
C0_6 N0_0 1.431172 1_665
C0_6 N0_3 1.431172 1_655
C0_6 K0_3 2.944379 1_655
C0_6 K0_0 2.944379 1_665
C0_6 K0_5 3.057454 1_565
C0_7 N0_1 1.431172 1_665
C0_7 N0_2 1.431172 1_656
C0_7 K0_2 2.944379 1_656
C0_7 K0_1 2.944379 1_665
C0_7 K0_4 3.057454 1_566
