# generated using pymatgen
data_LuB12
_symmetry_space_group_name_H-M   'P 1'
_cell_length_a   5.26282095
_cell_length_b   5.26282095
_cell_length_c   5.26282095
_cell_angle_alpha   60.00000000
_cell_angle_beta   60.00000000
_cell_angle_gamma   60.00000000
_symmetry_Int_Tables_number   1
_chemical_formula_structural   LuB12
_chemical_formula_sum   'Lu1 B12'
_cell_volume   103.07201967
_cell_formula_units_Z   1
loop_
 _symmetry_equiv_pos_site_id
 _symmetry_equiv_pos_as_xyz
  1  'x, y, z'
loop_
 _atom_site_type_symbol
 _atom_site_label
 _atom_site_symmetry_multiplicity
 _atom_site_fract_x
 _atom_site_fract_y
 _atom_site_fract_z
 _atom_site_occupancy
  Lu  Lu0  1  0.00000000  -0.00000000  -0.00000000  1
  B  B0  1  0.16163109  0.50000000  0.50000000  1
  B  B1  1  0.16163109  0.50000000  0.83836891  1
  B  B2  1  0.16163109  0.83836891  0.50000000  1
  B  B3  1  0.50000000  0.16163109  0.83836891  1
  B  B4  1  0.50000000  0.16163109  0.50000000  1
  B  B5  1  0.83836891  0.16163109  0.50000000  1
  B  B6  1  0.50000000  0.83836891  0.16163109  1
  B  B7  1  0.83836891  0.50000000  0.16163109  1
  B  B8  1  0.50000000  0.50000000  0.16163109  1
  B  B9  1  0.83836891  0.50000000  0.50000000  1
  B  B10  1  0.50000000  0.83836891  0.50000000  1
  B  B11  1  0.50000000  0.50000000  0.83836891  1
loop_
_geom_bond_atom_site_label_1
_geom_bond_atom_site_label_2
_geom_bond_distance
_geom_bond_site_symmetry_2
B0 B9 1.701271 1_455
B0 B1 1.780775 1_555
B0 B4 1.780775 1_555
B0 B2 1.780775 1_555
B0 B8 1.780775 1_555
B0 Lu0 2.765484 1_565
B0 Lu0 2.765484 1_556
B1 B7 1.701271 1_456
B1 B3 1.780775 1_555
B1 B2 1.780775 1_555
B1 B11 1.780775 1_555
B1 Lu0 2.765484 1_566
B1 Lu0 2.765484 1_556
B2 B5 1.701271 1_465
B2 B6 1.780775 1_555
B2 Lu0 2.765484 1_566
B2 Lu0 2.765484 1_565
B3 B6 1.701271 1_546
B3 B4 1.780775 1_555
B3 B5 1.780775 1_555
B3 Lu0 2.765484 1_656
B3 Lu0 2.765484 1_556
B4 B5 1.780775 1_555
B4 B8 1.780775 1_555
B4 Lu0 2.765484 1_655
B4 Lu0 2.765484 1_556
B5 B9 1.780775 1_555
B5 B7 1.780775 1_555
B5 Lu0 2.765484 1_656
B5 Lu0 2.765484 1_655
B6 B7 1.780775 1_555
B6 B8 1.780775 1_555
B6 Lu0 2.765484 1_565
B6 Lu0 2.765484 1_665
B7 B9 1.780775 1_555
B7 B8 1.780775 1_555
B7 Lu0 2.765484 1_655
B7 Lu0 2.765484 1_665
B8 Lu0 2.765484 1_655
B8 Lu0 2.765484 1_565
B9 Lu0 2.765484 1_656
B9 Lu0 2.765484 1_665
B10 B4 1.701271 1_565
B10 B9 1.780775 1_555
B10 B6 1.780775 1_555
B10 B2 1.780775 1_555
B10 B11 1.780775 1_555
B10 Lu0 2.765484 1_566
B10 Lu0 2.765484 1_665
B11 B8 1.701271 1_556
B11 B9 1.780775 1_555
B11 B3 1.780775 1_555
B11 Lu0 2.765484 1_656
B11 Lu0 2.765484 1_566
