# generated using pymatgen
data_Mn2NiSb2Pt
_symmetry_space_group_name_H-M   'P 1'
_cell_length_a   7.50401026
_cell_length_b   7.50401026
_cell_length_c   7.50400965
_cell_angle_alpha   33.60413676
_cell_angle_beta   33.60413676
_cell_angle_gamma   33.60413833
_symmetry_Int_Tables_number   1
_chemical_formula_structural   Mn2NiSb2Pt
_chemical_formula_sum   'Mn2 Ni1 Sb2 Pt1'
_cell_volume   115.29648261
_cell_formula_units_Z   1
loop_
 _symmetry_equiv_pos_site_id
 _symmetry_equiv_pos_as_xyz
  1  'x, y, z'
loop_
 _atom_site_type_symbol
 _atom_site_label
 _atom_site_symmetry_multiplicity
 _atom_site_fract_x
 _atom_site_fract_y
 _atom_site_fract_z
 _atom_site_occupancy
  Mn  Mn0  1  0.99897200  0.99897200  0.99897200  1
  Mn  Mn1  1  0.50065700  0.50065700  0.50065700  1
  Ni  Ni0  1  0.75037900  0.75037900  0.75037900  1
  Sb  Sb0  1  0.12161200  0.12161200  0.12161200  1
  Sb  Sb1  1  0.62906200  0.62906200  0.62906200  1
  Pt  Pt0  1  0.24931800  0.24931800  0.24931800  1
loop_
_geom_bond_atom_site_label_1
_geom_bond_atom_site_label_2
_geom_bond_distance
_geom_bond_site_symmetry_2
Mn0 Sb0 2.602537 1_666
Mn0 Sb1 2.622237 1_556
Mn0 Sb1 2.622237 1_565
Mn0 Sb1 2.622237 1_655
Mn0 Pt0 3.061865 1_665
Mn0 Pt0 3.061866 1_656
Mn0 Pt0 3.061866 1_566
Mn0 Ni0 3.083412 1_556
Mn0 Ni0 3.083412 1_655
Mn0 Ni0 3.083412 1_565
Mn1 Sb0 2.686009 1_565
Mn1 Sb0 2.686009 1_655
Mn1 Sb0 2.686009 1_556
Mn1 Sb1 2.724876 1_555
Mn1 Pt0 3.049794 1_556
Mn1 Pt0 3.049795 1_655
Mn1 Pt0 3.049795 1_565
Mn1 Ni0 3.069501 1_554
Mn1 Ni0 3.069501 1_545
Mn1 Ni0 3.069501 1_455
Ni0 Sb1 2.574462 1_555
Ni0 Sb0 2.630684 1_665
Ni0 Sb0 2.630684 1_566
Ni0 Sb0 2.630684 1_656
Pt0 Sb1 2.691401 1_455
Pt0 Sb1 2.691401 1_545
Pt0 Sb1 2.691401 1_554
Pt0 Sb0 2.710042 1_555
