# generated using pymatgen
data_CaHo(MoO3)2
_symmetry_space_group_name_H-M   'P 1'
_cell_length_a   5.79150200
_cell_length_b   5.47916900
_cell_length_c   9.66908196
_cell_angle_alpha   56.05920491
_cell_angle_beta   90.00000000
_cell_angle_gamma   90.00000000
_symmetry_Int_Tables_number   1
_chemical_formula_structural   CaHo(MoO3)2
_chemical_formula_sum   'Ca2 Ho2 Mo4 O12'
_cell_volume   254.54684632
_cell_formula_units_Z   2
loop_
 _symmetry_equiv_pos_site_id
 _symmetry_equiv_pos_as_xyz
  1  'x, y, z'
loop_
 _atom_site_type_symbol
 _atom_site_label
 _atom_site_symmetry_multiplicity
 _atom_site_fract_x
 _atom_site_fract_y
 _atom_site_fract_z
 _atom_site_occupancy
  Ca  Ca0  1  0.69553900  0.26349500  0.24923700  1
  Ca  Ca1  1  0.30446100  0.26349500  0.74923700  1
  Ho  Ho0  1  0.18476400  0.72571900  0.25102300  1
  Ho  Ho1  1  0.81523600  0.72571900  0.75102300  1
  Mo  Mo0  1  0.74807500  0.99949300  0.99997600  1
  Mo  Mo1  1  0.74720800  0.49897800  0.49952500  1
  Mo  Mo2  1  0.25192500  0.99949300  0.49997600  1
  Mo  Mo3  1  0.25279200  0.49897800  0.99952500  1
  O  O0  1  0.69843100  0.12009400  0.74513600  1
  O  O1  1  0.43454800  0.74401300  0.06486900  1
  O  O2  1  0.44041900  0.38799900  0.43766600  1
  O  O3  1  0.96011600  0.62715000  0.06591000  1
  O  O4  1  0.94935800  0.26987900  0.43649800  1
  O  O5  1  0.18766600  0.85991600  0.75405700  1
  O  O6  1  0.30156900  0.12009400  0.24513600  1
  O  O7  1  0.56545200  0.74401300  0.56486900  1
  O  O8  1  0.55958100  0.38799900  0.93766600  1
  O  O9  1  0.05064200  0.26987900  0.93649800  1
  O  O10  1  0.03988400  0.62715000  0.56591000  1
  O  O11  1  0.81233400  0.85991600  0.25405700  1
loop_
_geom_bond_atom_site_label_1
_geom_bond_atom_site_label_2
_geom_bond_distance
_geom_bond_site_symmetry_2
Ca0 O11 2.287877 1_545
Ca0 O4 2.347606 1_555
Ca0 O3 2.348656 1_555
Ca0 O6 2.420696 1_555
Ca0 O1 2.674583 1_555
Ca0 O2 2.712158 1_555
Ca0 O8 2.804683 1_554
Ca0 O7 2.878021 1_545
Ca1 O5 2.287877 1_545
Ca1 O9 2.347606 1_555
Ca1 O10 2.348656 1_555
Ca1 O0 2.420696 1_555
Ca1 O7 2.674583 1_555
Ca1 O8 2.712158 1_555
Ca1 O2 2.804683 1_555
Ca1 O1 2.878021 1_546
Ho0 O6 2.234451 1_565
Ho0 O1 2.267395 1_555
Ho0 O2 2.268068 1_555
Ho0 O11 2.284281 1_455
Ho0 O3 2.503499 1_455
Ho0 O4 2.512227 1_455
Ho0 O10 2.903365 1_555
Ho0 O9 2.935369 1_564
Ho1 O0 2.234451 1_565
Ho1 O7 2.267395 1_555
Ho1 O8 2.268068 1_555
Ho1 O5 2.284281 1_655
Ho1 O10 2.503499 1_655
Ho1 O9 2.512227 1_655
Ho1 O3 2.903365 1_556
Ho1 O4 2.935369 1_565
Mo0 O3 2.150410 1_556
Mo0 O9 2.150990 1_665
Mo0 O8 2.157292 1_565
Mo0 O11 2.158903 1_556
Mo0 O1 2.160901 1_556
Mo0 O0 2.184659 1_565
Mo1 O4 2.042544 1_555
Mo1 O7 2.063256 1_555
Mo1 O10 2.069230 1_655
Mo1 O2 2.071362 1_555
Mo1 O11 2.108346 1_555
Mo1 O0 2.126970 1_555
Mo2 O10 2.150410 1_555
Mo2 O4 2.150990 1_465
Mo2 O2 2.157292 1_565
Mo2 O5 2.158903 1_555
Mo2 O7 2.160901 1_555
Mo2 O6 2.184659 1_565
Mo3 O9 2.042544 1_555
Mo3 O1 2.063256 1_556
Mo3 O3 2.069230 1_456
Mo3 O8 2.071362 1_555
Mo3 O5 2.108346 1_555
Mo3 O6 2.126970 1_556
