# generated using pymatgen
data_LiPrNdO2
_symmetry_space_group_name_H-M   'P 1'
_cell_length_a   9.23344876
_cell_length_b   9.23344876
_cell_length_c   9.23344855
_cell_angle_alpha   22.09542944
_cell_angle_beta   22.09542944
_cell_angle_gamma   22.09543430
_symmetry_Int_Tables_number   1
_chemical_formula_structural   LiPrNdO2
_chemical_formula_sum   'Li1 Pr1 Nd1 O2'
_cell_volume   97.65453257
_cell_formula_units_Z   1
loop_
 _symmetry_equiv_pos_site_id
 _symmetry_equiv_pos_as_xyz
  1  'x, y, z'
loop_
 _atom_site_type_symbol
 _atom_site_label
 _atom_site_symmetry_multiplicity
 _atom_site_fract_x
 _atom_site_fract_y
 _atom_site_fract_z
 _atom_site_occupancy
  Li  Li0  1  0.40458800  0.40458800  0.40458800  1
  Pr  Pr0  1  0.53556200  0.53556200  0.53556200  1
  Nd  Nd0  1  0.97826000  0.97826000  0.97826000  1
  O  O0  1  0.26279800  0.26279800  0.26279800  1
  O  O1  1  0.69379200  0.69379200  0.69379200  1
loop_
_geom_bond_atom_site_label_1
_geom_bond_atom_site_label_2
_geom_bond_distance
_geom_bond_site_symmetry_2
Li0 O1 2.365446 1_554
Li0 O1 2.365446 1_545
Li0 O1 2.365446 1_455
Nd0 O0 2.431407 1_665
Nd0 O0 2.431408 1_656
Nd0 O0 2.431408 1_566
Nd0 O1 2.432433 1_556
Nd0 O1 2.432433 1_655
Nd0 O1 2.432433 1_565
O0 Pr0 2.617518 1_554
O0 Pr0 2.617518 1_455
O0 Pr0 2.617518 1_545
