# generated using pymatgen
data_Ho5Bi3
_symmetry_space_group_name_H-M   'P 1'
_cell_length_a   8.23384157
_cell_length_b   9.39869879
_cell_length_c   11.97685961
_cell_angle_alpha   90.00000825
_cell_angle_beta   89.99977273
_cell_angle_gamma   90.00001398
_symmetry_Int_Tables_number   1
_chemical_formula_structural   Ho5Bi3
_chemical_formula_sum   'Ho20 Bi12'
_cell_volume   926.85798707
_cell_formula_units_Z   4
loop_
 _symmetry_equiv_pos_site_id
 _symmetry_equiv_pos_as_xyz
  1  'x, y, z'
loop_
 _atom_site_type_symbol
 _atom_site_label
 _atom_site_symmetry_multiplicity
 _atom_site_fract_x
 _atom_site_fract_y
 _atom_site_fract_z
 _atom_site_occupancy
  Ho  Ho0  1  0.68897857  0.93681228  0.43504545  1
  Ho  Ho1  1  0.81102179  0.56317288  0.93505051  1
  Ho  Ho2  1  0.31102172  0.43681288  0.56495472  1
  Ho  Ho3  1  0.18897827  0.06317255  0.06494818  1
  Ho  Ho4  1  0.31102143  0.06318772  0.56495455  1
  Ho  Ho5  1  0.18897821  0.43682812  0.06494849  1
  Ho  Ho6  1  0.68897828  0.56318712  0.43504528  1
  Ho  Ho7  1  0.81102173  0.93682745  0.93505082  1
  Ho  Ho8  1  0.32898457  0.74999986  0.27351349  1
  Ho  Ho9  1  0.17101782  0.75000003  0.77352492  1
  Ho  Ho10  1  0.67101543  0.25000014  0.72648751  1
  Ho  Ho11  1  0.82898318  0.24999997  0.22647408  1
  Ho  Ho12  1  0.02113932  0.75000032  0.49502905  1
  Ho  Ho13  1  0.47886492  0.74999959  0.99502640  1
  Ho  Ho14  1  0.97886068  0.24999968  0.50497095  1
  Ho  Ho15  1  0.52113308  0.25000041  0.00497360  1
  Ho  Ho16  1  0.83999373  0.74999990  0.20902600  1
  Ho  Ho17  1  0.66000136  0.75000005  0.70903543  1
  Ho  Ho18  1  0.16000627  0.25000010  0.79097400  1
  Ho  Ho19  1  0.33999864  0.24999995  0.29096457  1
  Bi  Bi0  1  0.10084947  0.75000007  0.02796392  1
  Bi  Bi1  1  0.39915849  0.75000003  0.52796958  1
  Bi  Bi2  1  0.89914853  0.24999993  0.97203808  1
  Bi  Bi3  1  0.60084051  0.24999997  0.47203142  1
  Bi  Bi4  1  0.56213451  0.99218872  0.17519006  1
  Bi  Bi5  1  0.93786296  0.50780765  0.67522012  1
  Bi  Bi6  1  0.43786575  0.49218880  0.82480902  1
  Bi  Bi7  1  0.06213616  0.00780866  0.32477981  1
  Bi  Bi8  1  0.43786549  0.00781128  0.82480894  1
  Bi  Bi9  1  0.06213604  0.49219135  0.32477988  1
  Bi  Bi10  1  0.56213525  0.50781120  0.17518998  1
  Bi  Bi11  1  0.93786284  0.99219234  0.67522019  1
loop_
_geom_bond_atom_site_label_1
_geom_bond_atom_site_label_2
_geom_bond_distance
_geom_bond_site_symmetry_2
Bi0 Ho16 3.052185 1_455
Bi0 Ho5 3.063727 1_555
Bi0 Ho3 3.063731 1_565
Bi0 Ho9 3.101663 1_554
Bi0 Ho13 3.137417 1_554
Bi0 Ho1 3.164893 1_454
Bi0 Ho7 3.164894 1_454
Bi0 Ho8 3.489628 1_555
Bi1 Ho17 3.052154 1_555
Bi1 Ho2 3.063880 1_555
Bi1 Ho4 3.063885 1_565
Bi1 Ho8 3.101877 1_555
Bi1 Ho12 3.137455 1_555
Bi1 Ho0 3.164807 1_555
Bi1 Ho6 3.164809 1_555
Bi1 Ho9 3.489698 1_555
Bi2 Ho18 3.052213 1_655
Bi2 Ho7 3.063732 1_545
Bi2 Ho1 3.063737 1_555
Bi2 Ho11 3.101623 1_556
Bi2 Ho15 3.137414 1_556
Bi2 Ho3 3.164894 1_656
Bi2 Ho5 3.164898 1_656
Bi2 Ho10 3.489629 1_555
Bi3 Ho19 3.052157 1_555
Bi3 Ho6 3.063883 1_555
Bi3 Ho0 3.063889 1_545
Bi3 Ho10 3.101879 1_555
Bi3 Ho14 3.137462 1_555
Bi3 Ho4 3.164796 1_555
Bi3 Ho2 3.164799 1_555
Bi3 Ho11 3.489728 1_555
Bi4 Ho15 3.184572 1_565
Bi4 Ho8 3.202096 1_555
Bi4 Ho13 3.210537 1_554
Bi4 Ho16 3.252668 1_555
Bi4 Ho0 3.323826 1_555
Bi4 Ho11 3.328105 1_565
Bi4 Ho19 3.337575 1_565
Bi4 Ho3 3.410099 1_565
Bi4 Ho7 3.569642 1_554
Bi5 Ho14 3.184790 1_555
Bi5 Ho9 3.202067 1_655
Bi5 Ho12 3.210790 1_655
Bi5 Ho17 3.252672 1_555
Bi5 Ho1 3.323514 1_555
Bi5 Ho10 3.328034 1_555
Bi5 Ho18 3.337487 1_655
Bi5 Ho2 3.410237 1_655
Bi5 Ho6 3.570012 1_555
Bi6 Ho13 3.184570 1_555
Bi6 Ho10 3.202086 1_555
Bi6 Ho15 3.210536 1_556
Bi6 Ho18 3.252666 1_555
Bi6 Ho2 3.323813 1_555
Bi6 Ho9 3.328102 1_555
Bi6 Ho17 3.337569 1_555
Bi6 Ho1 3.410095 1_555
Bi6 Ho5 3.569645 1_556
Bi7 Ho12 3.184793 1_545
Bi7 Ho11 3.202056 1_455
Bi7 Ho14 3.210778 1_455
Bi7 Ho19 3.252669 1_555
Bi7 Ho3 3.323529 1_555
Bi7 Ho8 3.328046 1_545
Bi7 Ho16 3.337490 1_445
Bi7 Ho0 3.410232 1_445
Bi7 Ho4 3.570013 1_555
Bi8 Ho13 3.184578 1_545
Bi8 Ho10 3.202087 1_555
Bi8 Ho15 3.210541 1_556
Bi8 Ho18 3.252666 1_555
Bi8 Ho4 3.323815 1_555
Bi8 Ho9 3.328100 1_545
Bi8 Ho17 3.337570 1_545
Bi8 Ho7 3.410099 1_545
Bi8 Ho3 3.569642 1_556
Bi9 Ho12 3.184797 1_555
Bi9 Ho11 3.202055 1_455
Bi9 Ho14 3.210781 1_455
Bi9 Ho19 3.252671 1_555
Bi9 Ho5 3.323525 1_555
Bi9 Ho8 3.328044 1_555
Bi9 Ho16 3.337489 1_455
Bi9 Ho6 3.410231 1_455
Bi9 Ho2 3.570015 1_555
Bi10 Ho15 3.184565 1_555
Bi10 Ho8 3.202099 1_555
Bi10 Ho13 3.210533 1_554
Bi10 Ho16 3.252662 1_555
Bi10 Ho6 3.323822 1_555
Bi10 Ho11 3.328102 1_555
Bi10 Ho19 3.337578 1_555
Bi10 Ho5 3.410101 1_555
Bi10 Ho1 3.569642 1_554
Bi11 Ho14 3.184787 1_565
Bi11 Ho9 3.202068 1_655
Bi11 Ho12 3.210786 1_655
Bi11 Ho17 3.252670 1_555
Bi11 Ho7 3.323516 1_555
Bi11 Ho10 3.328035 1_565
Bi11 Ho18 3.337487 1_665
Bi11 Ho4 3.410238 1_665
Bi11 Ho0 3.570009 1_555
