# generated using pymatgen
data_La12Ge5S28
_symmetry_space_group_name_H-M   'P 1'
_cell_length_a   10.36528400
_cell_length_b   11.76867504
_cell_length_c   11.91311443
_cell_angle_alpha   119.59812388
_cell_angle_beta   115.77856523
_cell_angle_gamma   89.99554532
_symmetry_Int_Tables_number   1
_chemical_formula_structural   La12Ge5S28
_chemical_formula_sum   'La12 Ge5 S28'
_cell_volume   1094.22453280
_cell_formula_units_Z   1
loop_
 _symmetry_equiv_pos_site_id
 _symmetry_equiv_pos_as_xyz
  1  'x, y, z'
loop_
 _atom_site_type_symbol
 _atom_site_label
 _atom_site_symmetry_multiplicity
 _atom_site_fract_x
 _atom_site_fract_y
 _atom_site_fract_z
 _atom_site_occupancy
  La  La0  1  0.63706500  0.06041100  0.87140300  1
  La  La1  1  0.65373100  0.57819600  0.87792900  1
  La  La2  1  0.22321600  0.81220600  0.34576100  1
  La  La3  1  0.23576200  0.30631600  0.36405800  1
  La  La4  1  0.12632100  0.00592800  0.76287900  1
  La  La5  1  0.12369100  0.52827000  0.77780400  1
  La  La6  1  0.34477600  0.93478200  0.12134500  1
  La  La7  1  0.36569900  0.45425700  0.13075600  1
  La  La8  1  0.76626500  0.20565100  0.63343300  1
  La  La9  1  0.77613900  0.70183000  0.65577300  1
  La  La10  1  0.87877200  0.98642700  0.22420900  1
  La  La11  1  0.86838100  0.50547700  0.23359000  1
  Ge  Ge0  1  0.66737800  0.34030800  0.33476400  1
  Ge  Ge1  1  0.66616500  0.84046300  0.33220700  1
  Ge  Ge2  1  0.33505200  0.75471300  0.66658700  1
  Ge  Ge3  1  0.33149900  0.25539300  0.66673100  1
  Ge  Ge4  1  0.00022400  0.25008600  0.00026300  1
  S  S0  1  0.66966400  0.65732800  0.34075700  1
  S  S1  1  0.66351200  0.14919800  0.32603500  1
  S  S2  1  0.33401100  0.56912400  0.66851300  1
  S  S3  1  0.33264100  0.06746600  0.66495600  1
  S  S4  1  0.83307100  0.49447800  0.74091100  1
  S  S5  1  0.84768500  0.02119000  0.76678300  1
  S  S6  1  0.91936000  0.21403200  0.15267000  1
  S  S7  1  0.90770200  0.70708800  0.16670200  1
  S  S8  1  0.23290100  0.17811100  0.08055700  1
  S  S9  1  0.25871100  0.66957100  0.09220800  1
  S  S10  1  0.14650800  0.47432200  0.22997600  1
  S  S11  1  0.16810900  0.00687800  0.25929800  1
  S  S12  1  0.09000300  0.79232600  0.83163200  1
  S  S13  1  0.08384400  0.28647900  0.85332700  1
  S  S14  1  0.74136000  0.83145000  0.90918700  1
  S  S15  1  0.76990600  0.31774200  0.91610300  1
  S  S16  1  0.89349600  0.48744100  0.47758000  1
  S  S17  1  0.89300900  0.98903100  0.47987300  1
  S  S18  1  0.58602900  0.30109000  0.10674200  1
  S  S19  1  0.58538500  0.80378400  0.10710400  1
  S  S20  1  0.51982300  0.45573100  0.41252500  1
  S  S21  1  0.52265700  0.95636700  0.41625100  1
  S  S22  1  0.11034400  0.75423500  0.51400800  1
  S  S23  1  0.10412600  0.26146800  0.52623300  1
  S  S24  1  0.41135100  0.94417500  0.89382700  1
  S  S25  1  0.41511200  0.44431700  0.89237600  1
  S  S26  1  0.47419700  0.78772700  0.57867400  1
  S  S27  1  0.48534800  0.29514000  0.59569900  1
loop_
_geom_bond_atom_site_label_1
_geom_bond_atom_site_label_2
_geom_bond_distance
_geom_bond_site_symmetry_2
La0 S24 2.884685 1_545
La0 S5 2.886302 1_555
La0 S6 2.923496 1_556
La0 S15 3.020070 1_555
La0 S26 3.022420 1_545
La0 S14 3.066986 1_545
La0 S3 3.076377 1_555
La0 S18 3.099725 1_556
La1 S7 2.834529 1_556
La1 S4 2.853240 1_555
La1 S14 2.908043 1_555
La1 S25 3.044385 1_555
La1 S27 3.046400 1_555
La1 S19 3.086433 1_556
La1 S2 3.124691 1_555
La1 S15 3.457228 1_555
La2 S9 2.834605 1_555
La2 S7 2.846435 1_455
La2 S11 2.907794 1_565
La2 S26 3.010122 1_555
La2 S22 3.040100 1_555
La2 S21 3.089258 1_555
La2 S3 3.120194 1_565
La2 S10 3.460540 1_555
La3 S6 2.896953 1_455
La3 S27 2.911052 1_555
La3 S8 2.926292 1_555
La3 S10 3.025047 1_555
La3 S23 3.028733 1_555
La3 S11 3.059820 1_555
La3 S2 3.076472 1_555
La3 S20 3.100632 1_555
La4 S8 2.904763 1_556
La4 S5 2.912780 1_455
La4 S22 2.913667 1_545
La4 S24 2.966678 1_545
La4 S13 3.025604 1_555
La4 S12 3.071492 1_545
La4 S3 3.076293 1_555
La4 S17 3.082351 1_445
La5 S9 2.835708 1_556
La5 S4 2.846329 1_455
La5 S12 2.901092 1_555
La5 S23 3.009625 1_555
La5 S16 3.097738 1_455
La5 S25 3.115950 1_555
La5 S2 3.125094 1_555
La5 S13 3.453941 1_555
La6 S11 2.830914 1_565
La6 S12 2.837919 1_554
La6 S19 2.955424 1_555
La6 S21 3.048157 1_555
La6 S9 3.052699 1_555
La6 S24 3.123744 1_554
La6 S1 3.185036 1_565
La6 S8 3.265777 1_565
La7 S13 2.917754 1_554
La7 S9 2.927071 1_555
La7 S18 2.933429 1_555
La7 S10 2.945308 1_555
La7 S20 3.016354 1_555
La7 S0 3.022628 1_555
La7 S25 3.045931 1_554
La7 S8 3.190436 1_555
La8 S21 2.915062 1_545
La8 S15 2.929646 1_555
La8 S4 2.933059 1_555
La8 S13 2.939680 1_655
La8 S17 3.009080 1_545
La8 S27 3.019672 1_555
La8 S1 3.031627 1_555
La8 S5 3.191997 1_555
La9 S14 2.822824 1_555
La9 S12 2.824095 1_655
La9 S20 2.976295 1_555
La9 S4 3.042355 1_555
La9 S16 3.050698 1_555
La9 S0 3.167345 1_555
La9 S26 3.174435 1_555
La9 S5 3.265312 1_565
La10 S14 2.833556 1_554
La10 S11 2.835019 1_665
La10 S17 2.969208 1_555
La10 S19 3.027067 1_555
La10 S7 3.052925 1_555
La10 S23 3.172676 1_665
La10 S1 3.190221 1_565
La10 S6 3.262725 1_565
La11 S16 2.917690 1_555
La11 S10 2.922225 1_655
La11 S7 2.929342 1_555
La11 S15 2.935374 1_554
La11 S22 3.012221 1_655
La11 S0 3.016476 1_555
La11 S18 3.032887 1_555
La11 S6 3.185820 1_555
Ge0 S1 2.199153 1_555
Ge0 S16 2.237928 1_555
Ge0 S20 2.243113 1_555
Ge0 S18 2.252203 1_555
Ge1 S0 2.206910 1_555
Ge1 S19 2.232121 1_555
Ge1 S21 2.240917 1_555
Ge1 S17 2.246085 1_555
Ge2 S2 2.195636 1_555
Ge2 S22 2.244217 1_555
Ge2 S26 2.245858 1_555
Ge2 S24 2.258562 1_555
Ge3 S3 2.201365 1_555
Ge3 S25 2.233955 1_555
Ge3 S27 2.245613 1_555
Ge3 S23 2.246813 1_555
Ge4 S10 2.451489 1_555
Ge4 S15 2.458630 1_454
Ge4 S13 2.461527 1_554
Ge4 S8 2.498514 1_555
Ge4 S6 2.502774 1_455
Ge4 S5 2.503406 1_454
