# generated using pymatgen
data_Hg2BOF4
_symmetry_space_group_name_H-M   'P 1'
_cell_length_a   10.01370900
_cell_length_b   10.04013500
_cell_length_c   11.80886100
_cell_angle_alpha   90.00000000
_cell_angle_beta   90.00000000
_cell_angle_gamma   90.00000000
_symmetry_Int_Tables_number   1
_chemical_formula_structural   Hg2BOF4
_chemical_formula_sum   'Hg16 B8 O8 F32'
_cell_volume   1187.25096048
_cell_formula_units_Z   8
loop_
 _symmetry_equiv_pos_site_id
 _symmetry_equiv_pos_as_xyz
  1  'x, y, z'
loop_
 _atom_site_type_symbol
 _atom_site_label
 _atom_site_symmetry_multiplicity
 _atom_site_fract_x
 _atom_site_fract_y
 _atom_site_fract_z
 _atom_site_occupancy
  Hg  Hg0  1  0.46911200  0.31030000  0.04272900  1
  Hg  Hg1  1  0.03088800  0.81030000  0.95727100  1
  Hg  Hg2  1  0.96911200  0.68970000  0.45727100  1
  Hg  Hg3  1  0.53088800  0.18970000  0.54272900  1
  Hg  Hg4  1  0.53088800  0.68970000  0.95727100  1
  Hg  Hg5  1  0.96911200  0.18970000  0.04272900  1
  Hg  Hg6  1  0.03088800  0.31030000  0.54272900  1
  Hg  Hg7  1  0.46911200  0.81030000  0.45727100  1
  Hg  Hg8  1  0.50230100  0.17849500  0.22863700  1
  Hg  Hg9  1  0.99769900  0.67849500  0.77136300  1
  Hg  Hg10  1  0.00230100  0.82150500  0.27136300  1
  Hg  Hg11  1  0.49769900  0.32150500  0.72863700  1
  Hg  Hg12  1  0.49769900  0.82150500  0.77136300  1
  Hg  Hg13  1  0.00230100  0.32150500  0.22863700  1
  Hg  Hg14  1  0.99769900  0.17849500  0.72863700  1
  Hg  Hg15  1  0.50230100  0.67849500  0.27136300  1
  B  B0  1  0.71201100  0.92850000  0.11749100  1
  B  B1  1  0.78798900  0.42850000  0.88250900  1
  B  B2  1  0.21201100  0.07150000  0.38250900  1
  B  B3  1  0.28798900  0.57150000  0.61749100  1
  B  B4  1  0.28798900  0.07150000  0.88250900  1
  B  B5  1  0.21201100  0.57150000  0.11749100  1
  B  B6  1  0.78798900  0.92850000  0.61749100  1
  B  B7  1  0.71201100  0.42850000  0.38250900  1
  O  O0  1  0.53958300  0.07328600  0.38677200  1
  O  O1  1  0.96041700  0.57328600  0.61322800  1
  O  O2  1  0.03958300  0.92671400  0.11322800  1
  O  O3  1  0.46041700  0.42671400  0.88677200  1
  O  O4  1  0.46041700  0.92671400  0.61322800  1
  O  O5  1  0.03958300  0.42671400  0.38677200  1
  O  O6  1  0.96041700  0.07328600  0.88677200  1
  O  O7  1  0.53958300  0.57328600  0.11322800  1
  F  F0  1  0.57146600  0.40762900  0.36840500  1
  F  F1  1  0.92853400  0.90762900  0.63159500  1
  F  F2  1  0.07146600  0.59237100  0.13159500  1
  F  F3  1  0.42853400  0.09237100  0.86840500  1
  F  F4  1  0.42853400  0.59237100  0.63159500  1
  F  F5  1  0.07146600  0.09237100  0.36840500  1
  F  F6  1  0.92853400  0.40762900  0.86840500  1
  F  F7  1  0.57146600  0.90762900  0.13159500  1
  F  F8  1  0.26467600  0.00830500  0.28450000  1
  F  F9  1  0.23532400  0.50830500  0.71550000  1
  F  F10  1  0.76467600  0.99169500  0.21550000  1
  F  F11  1  0.73532400  0.49169500  0.78450000  1
  F  F12  1  0.73532400  0.99169500  0.71550000  1
  F  F13  1  0.76467600  0.49169500  0.28450000  1
  F  F14  1  0.23532400  0.00830500  0.78450000  1
  F  F15  1  0.26467600  0.50830500  0.21550000  1
  F  F16  1  0.27576300  0.19842700  0.39654100  1
  F  F17  1  0.22423700  0.69842700  0.60345900  1
  F  F18  1  0.77576300  0.80157300  0.10345900  1
  F  F19  1  0.72423700  0.30157300  0.89654100  1
  F  F20  1  0.72423700  0.80157300  0.60345900  1
  F  F21  1  0.77576300  0.30157300  0.39654100  1
  F  F22  1  0.22423700  0.19842700  0.89654100  1
  F  F23  1  0.27576300  0.69842700  0.10345900  1
  F  F24  1  0.23569400  0.49168400  0.02140200  1
  F  F25  1  0.26430600  0.99168400  0.97859800  1
  F  F26  1  0.73569400  0.50831600  0.47859800  1
  F  F27  1  0.76430600  0.00831600  0.52140200  1
  F  F28  1  0.76430600  0.50831600  0.97859800  1
  F  F29  1  0.73569400  0.00831600  0.02140200  1
  F  F30  1  0.26430600  0.49168400  0.52140200  1
  F  F31  1  0.23569400  0.99168400  0.47859800  1
loop_
_geom_bond_atom_site_label_1
_geom_bond_atom_site_label_2
_geom_bond_distance
_geom_bond_site_symmetry_2
Hg0 O3 2.182995 1_554
Hg1 O2 2.182995 1_556
Hg2 O1 2.182995 1_555
Hg3 O0 2.182995 1_555
Hg4 O7 2.182995 1_556
Hg5 O6 2.182995 1_554
Hg6 O5 2.182995 1_555
Hg7 O4 2.182995 1_555
Hg8 O0 2.177690 1_555
Hg9 O1 2.177690 1_555
Hg10 O2 2.177690 1_555
Hg11 O3 2.177690 1_555
Hg12 O4 2.177690 1_555
Hg13 O5 2.177690 1_555
Hg14 O6 2.177690 1_555
Hg15 O7 2.177690 1_555
B0 F29 1.409246 1_565
B0 F10 1.421341 1_555
B0 F7 1.432606 1_555
B0 F18 1.434924 1_555
B1 F28 1.409246 1_555
B1 F11 1.421341 1_555
B1 F6 1.432606 1_555
B1 F19 1.434924 1_555
B2 F31 1.409246 1_545
B2 F8 1.421341 1_555
B2 F5 1.432606 1_555
B2 F16 1.434924 1_555
B3 F30 1.409246 1_555
B3 F9 1.421341 1_555
B3 F4 1.432606 1_555
B3 F17 1.434924 1_555
B4 F25 1.409246 1_545
B4 F14 1.421341 1_555
B4 F3 1.432606 1_555
B4 F22 1.434924 1_555
B5 F24 1.409246 1_555
B5 F15 1.421341 1_555
B5 F2 1.432606 1_555
B5 F23 1.434924 1_555
B6 F27 1.409246 1_565
B6 F12 1.421341 1_555
B6 F1 1.432606 1_555
B6 F20 1.434924 1_555
B7 F26 1.409246 1_555
B7 F13 1.421341 1_555
B7 F0 1.432606 1_555
B7 F21 1.434924 1_555
