# generated using pymatgen
data_Na2U(MoO4)3
_symmetry_space_group_name_H-M   'P 1'
_cell_length_a   6.92206144
_cell_length_b   6.92206144
_cell_length_c   11.81333786
_cell_angle_alpha   80.16159783
_cell_angle_beta   80.16159783
_cell_angle_gamma   114.55440714
_symmetry_Int_Tables_number   1
_chemical_formula_structural   Na2U(MoO4)3
_chemical_formula_sum   'Na4 U2 Mo6 O24'
_cell_volume   488.45060941
_cell_formula_units_Z   2
loop_
 _symmetry_equiv_pos_site_id
 _symmetry_equiv_pos_as_xyz
  1  'x, y, z'
loop_
 _atom_site_type_symbol
 _atom_site_label
 _atom_site_symmetry_multiplicity
 _atom_site_fract_x
 _atom_site_fract_y
 _atom_site_fract_z
 _atom_site_occupancy
  Na  Na0  1  0.20868700  0.45958400  0.58014200  1
  Na  Na1  1  0.54041600  0.79131300  0.91985800  1
  Na  Na2  1  0.45958400  0.20868700  0.08014200  1
  Na  Na3  1  0.79131300  0.54041600  0.41985800  1
  U  U0  1  0.87736200  0.12263800  0.25000000  1
  U  U1  1  0.12263800  0.87736200  0.75000000  1
  Mo  Mo0  1  0.70723000  0.95735900  0.58632000  1
  Mo  Mo1  1  0.04264100  0.29277000  0.91368000  1
  Mo  Mo2  1  0.37445600  0.62554400  0.25000000  1
  Mo  Mo3  1  0.29277000  0.04264100  0.41368000  1
  Mo  Mo4  1  0.62554400  0.37445600  0.75000000  1
  Mo  Mo5  1  0.95735900  0.70723000  0.08632000  1
  O  O0  1  0.07095100  0.50380400  0.78718300  1
  O  O1  1  0.38473700  0.81170300  0.12361100  1
  O  O2  1  0.74733200  0.14388700  0.44397800  1
  O  O3  1  0.49619600  0.92904900  0.71281700  1
  O  O4  1  0.85611300  0.25266800  0.05602200  1
  O  O5  1  0.18829700  0.61526300  0.37638900  1
  O  O6  1  0.74853200  0.64977700  0.77962600  1
  O  O7  1  0.04333100  0.97349400  0.12060200  1
  O  O8  1  0.38640200  0.30695300  0.43811600  1
  O  O9  1  0.35022300  0.25146800  0.72037400  1
  O  O10  1  0.69304700  0.61359800  0.06188400  1
  O  O11  1  0.02650600  0.95666900  0.37939800  1
  O  O12  1  0.61526300  0.18829700  0.87638900  1
  O  O13  1  0.92904900  0.49619600  0.21281700  1
  O  O14  1  0.25266800  0.85611300  0.55602200  1
  O  O15  1  0.14388700  0.74733200  0.94397800  1
  O  O16  1  0.50380400  0.07095100  0.28718300  1
  O  O17  1  0.81170300  0.38473700  0.62361100  1
  O  O18  1  0.95666900  0.02650600  0.87939800  1
  O  O19  1  0.25146800  0.35022300  0.22037400  1
  O  O20  1  0.61359800  0.69304700  0.56188400  1
  O  O21  1  0.30695300  0.38640200  0.93811600  1
  O  O22  1  0.64977700  0.74853200  0.27962600  1
  O  O23  1  0.97349400  0.04333100  0.62060200  1
loop_
_geom_bond_atom_site_label_1
_geom_bond_atom_site_label_2
_geom_bond_distance
_geom_bond_site_symmetry_2
Na0 O17 2.515338 1_455
Na0 O5 2.516136 1_555
Na0 O20 2.534500 1_555
Na0 O8 2.534790 1_555
Na0 O23 2.558468 1_455
Na0 O0 2.585797 1_555
Na0 O9 2.586815 1_555
Na0 O14 2.591596 1_555
Na1 O12 2.515338 1_565
Na1 O1 2.516136 1_556
Na1 O21 2.534500 1_555
Na1 O10 2.534790 1_556
Na1 O18 2.558468 1_565
Na1 O3 2.585797 1_555
Na1 O6 2.586815 1_555
Na1 O15 2.591596 1_555
Na2 O1 2.515338 1_545
Na2 O12 2.516136 1_554
Na2 O10 2.534500 1_555
Na2 O21 2.534790 1_554
Na2 O7 2.558468 1_545
Na2 O16 2.585797 1_555
Na2 O19 2.586815 1_555
Na2 O4 2.591596 1_555
Na3 O5 2.515338 1_655
Na3 O17 2.516136 1_555
Na3 O8 2.534500 1_555
Na3 O20 2.534790 1_555
Na3 O11 2.558468 1_655
Na3 O13 2.585797 1_555
Na3 O22 2.586815 1_555
Na3 O2 2.591596 1_555
Mo0 O20 1.763425 1_555
Mo0 O3 1.822474 1_555
Mo0 O23 1.827844 1_565
Mo0 O2 1.836395 1_565
Mo1 O21 1.763425 1_555
Mo1 O0 1.822474 1_555
Mo1 O18 1.827844 1_455
Mo1 O4 1.836395 1_456
Mo2 O5 1.767713 1_555
Mo2 O1 1.767713 1_555
Mo2 O19 1.860267 1_555
Mo2 O22 1.860267 1_555
Mo3 O8 1.763425 1_555
Mo3 O16 1.822474 1_555
Mo3 O11 1.827844 1_545
Mo3 O14 1.836395 1_545
Mo4 O12 1.767713 1_555
Mo4 O17 1.767713 1_555
Mo4 O6 1.860267 1_555
Mo4 O9 1.860267 1_555
Mo5 O10 1.763425 1_555
Mo5 O13 1.822474 1_555
Mo5 O7 1.827844 1_655
Mo5 O15 1.836395 1_654
O0 U1 2.407593 1_555
O2 U0 2.367114 1_555
O3 U1 2.407593 1_555
O4 U0 2.367114 1_555
O6 U1 2.328411 1_655
O7 U0 2.376396 1_465
O9 U1 2.328411 1_545
O11 U0 2.376396 1_465
O13 U0 2.407593 1_555
O14 U1 2.367114 1_555
O15 U1 2.367114 1_555
O16 U0 2.407593 1_555
O18 U1 2.376396 1_645
O19 U0 2.328411 1_455
O22 U0 2.328411 1_565
O23 U1 2.376396 1_645
