# generated using pymatgen
data_MgSc4(FeO3)4
_symmetry_space_group_name_H-M   'P 1'
_cell_length_a   5.35146369
_cell_length_b   5.59932250
_cell_length_c   7.83558786
_cell_angle_alpha   89.95584894
_cell_angle_beta   90.09510833
_cell_angle_gamma   95.84690057
_symmetry_Int_Tables_number   1
_chemical_formula_structural   MgSc4(FeO3)4
_chemical_formula_sum   'Mg1 Sc4 Fe4 O12'
_cell_volume   233.56820532
_cell_formula_units_Z   1
loop_
 _symmetry_equiv_pos_site_id
 _symmetry_equiv_pos_as_xyz
  1  'x, y, z'
loop_
 _atom_site_type_symbol
 _atom_site_label
 _atom_site_symmetry_multiplicity
 _atom_site_fract_x
 _atom_site_fract_y
 _atom_site_fract_z
 _atom_site_occupancy
  Mg  Mg0  1  0.05569000  0.72941300  0.25413400  1
  Sc  Sc0  1  0.98752100  0.93469700  0.74998400  1
  Sc  Sc1  1  0.45629900  0.42073800  0.74977000  1
  Sc  Sc2  1  0.52402900  0.55532400  0.25068200  1
  Sc  Sc3  1  0.86694400  0.13679800  0.24927100  1
  Fe  Fe0  1  0.99292500  0.46097200  0.96271800  1
  Fe  Fe1  1  0.99159100  0.45687400  0.54056400  1
  Fe  Fe2  1  0.48304300  0.98074800  0.99045600  1
  Fe  Fe3  1  0.48472200  0.98023100  0.50971100  1
  O  O0  1  0.15166900  0.40919200  0.24776200  1
  O  O1  1  0.20100900  0.16014500  0.58346900  1
  O  O2  1  0.20078400  0.16206000  0.91522000  1
  O  O3  1  0.32005300  0.66214000  0.56759000  1
  O  O4  1  0.31979100  0.66576400  0.92626900  1
  O  O5  1  0.38087400  0.90835800  0.24924300  1
  O  O6  1  0.64842100  0.07290200  0.75002300  1
  O  O7  1  0.66635800  0.31223600  0.07678600  1
  O  O8  1  0.66769800  0.31205900  0.42308200  1
  O  O9  1  0.81013000  0.83002100  0.08202300  1
  O  O10  1  0.80869000  0.83235400  0.42097200  1
  O  O11  1  0.81926000  0.57947300  0.75027400  1
loop_
_geom_bond_atom_site_label_1
_geom_bond_atom_site_label_2
_geom_bond_distance
_geom_bond_site_symmetry_2
Mg0 O0 1.915486 1_555
Mg0 O5 1.917983 1_555
Mg0 O10 1.987590 1_455
Mg0 O9 2.001672 1_455
Fe0 O4 2.012140 1_655
Fe0 O11 2.047865 1_555
Fe0 O7 2.062547 1_556
Fe0 O2 2.135128 1_655
Fe0 O0 2.416006 1_656
Fe0 O9 2.553191 1_556
Fe1 O3 2.010739 1_655
Fe1 O11 2.039020 1_555
Fe1 O8 2.053955 1_555
Fe1 O1 2.122911 1_655
Fe1 O0 2.474450 1_655
Fe1 O10 2.582546 1_555
Fe2 O4 1.952639 1_555
Fe2 O2 1.992078 1_565
Fe2 O7 2.119867 1_566
Fe2 O6 2.123607 1_565
Fe2 O5 2.128911 1_556
Fe2 O9 2.141687 1_556
Fe3 O3 1.958271 1_555
Fe3 O1 1.992352 1_565
Fe3 O10 2.114750 1_555
Fe3 O6 2.117954 1_565
Fe3 O8 2.121641 1_565
Fe3 O5 2.141983 1_555
O0 Sc3 2.043192 1_455
O0 Sc2 2.075683 1_555
O1 Sc0 2.075985 1_445
O1 Sc1 2.298780 1_555
O2 Sc0 2.073919 1_445
O2 Sc1 2.290802 1_555
O3 Sc1 2.142605 1_555
O3 Sc2 2.803504 1_555
O4 Sc1 2.130511 1_555
O4 Sc2 2.857385 1_556
O5 Sc2 2.191584 1_555
O6 Sc0 2.044024 1_545
O6 Sc1 2.293110 1_555
O7 Sc3 2.037600 1_555
O7 Sc2 2.122959 1_555
O8 Sc3 2.043235 1_555
O8 Sc2 2.116218 1_555
O9 Sc3 2.157822 1_565
O9 Sc2 2.445446 1_555
O9 Sc0 2.811786 1_554
O10 Sc3 2.168582 1_565
O10 Sc2 2.454014 1_555
O10 Sc0 2.787956 1_555
O11 Sc1 2.052084 1_555
O11 Sc0 2.098113 1_555
