# generated using pymatgen
data_Cr2CuS4
_symmetry_space_group_name_H-M   'P 1'
_cell_length_a   6.91496253
_cell_length_b   5.90687124
_cell_length_c   5.66518518
_cell_angle_alpha   92.67308518
_cell_angle_beta   90.00414296
_cell_angle_gamma   90.00066340
_symmetry_Int_Tables_number   1
_chemical_formula_structural   Cr2CuS4
_chemical_formula_sum   'Cr4 Cu2 S8'
_cell_volume   231.14719530
_cell_formula_units_Z   2
loop_
 _symmetry_equiv_pos_site_id
 _symmetry_equiv_pos_as_xyz
  1  'x, y, z'
loop_
 _atom_site_type_symbol
 _atom_site_label
 _atom_site_symmetry_multiplicity
 _atom_site_fract_x
 _atom_site_fract_y
 _atom_site_fract_z
 _atom_site_occupancy
  Cr  Cr0  1  0.25001900  0.50001600  0.49999000  1
  Cr  Cr1  1  0.74997200  0.49998800  0.50000500  1
  Cr  Cr2  1  0.00003200  0.00000300  0.50000800  1
  Cr  Cr3  1  0.50003700  0.00003800  0.50000000  1
  Cu  Cu0  1  0.00003000  0.99999500  0.99998900  1
  Cu  Cu1  1  0.49998600  0.99998500  0.00001000  1
  S  S0  1  0.99996900  0.32639200  0.27016300  1
  S  S1  1  0.49997700  0.32644500  0.27016700  1
  S  S2  1  0.24995900  0.82391700  0.25998500  1
  S  S3  1  0.75004400  0.82387600  0.25997600  1
  S  S4  1  0.24995700  0.17607900  0.74000400  1
  S  S5  1  0.75003000  0.17611200  0.74003300  1
  S  S6  1  0.49999700  0.67353200  0.72985200  1
  S  S7  1  0.99999000  0.67362000  0.72981900  1
loop_
_geom_bond_atom_site_label_1
_geom_bond_atom_site_label_2
_geom_bond_distance
_geom_bond_site_symmetry_2
Cr0 S6 2.368419 1_555
Cr0 S1 2.368488 1_555
Cr0 S0 2.368937 1_455
Cr0 S7 2.368944 1_455
Cr0 S2 2.398301 1_555
Cr0 S4 2.398507 1_555
Cr1 S1 2.368498 1_555
Cr1 S6 2.368581 1_555
Cr1 S7 2.368756 1_555
Cr1 S0 2.368802 1_555
Cr1 S5 2.398258 1_555
Cr1 S3 2.398319 1_555
Cr2 S7 2.376116 1_445
Cr2 S0 2.376258 1_455
Cr2 S4 2.405154 1_555
Cr2 S2 2.405430 1_545
Cr2 S3 2.405700 1_445
Cr2 S5 2.405864 1_455
Cr3 S1 2.376307 1_555
Cr3 S6 2.376860 1_545
Cr3 S5 2.405601 1_555
Cr3 S3 2.406013 1_545
Cr3 S4 2.406023 1_555
Cr3 S2 2.406081 1_545
Cu0 S7 2.405000 1_455
Cu0 S0 2.405114 1_466
Cu0 S2 2.525998 1_556
Cu0 S4 2.526096 1_565
Cu0 S5 2.526299 1_465
Cu0 S3 2.526473 1_456
Cu1 S6 2.405315 1_554
Cu1 S1 2.405343 1_565
Cu1 S2 2.526494 1_555
Cu1 S4 2.526547 1_564
Cu1 S3 2.526587 1_555
Cu1 S5 2.526734 1_564
