# generated using pymatgen
data_Sm(PO3)3
_symmetry_space_group_name_H-M   'P 1'
_cell_length_a   6.98507434
_cell_length_b   6.98507434
_cell_length_c   7.22909774
_cell_angle_alpha   90.00000000
_cell_angle_beta   90.00000000
_cell_angle_gamma   105.21941348
_symmetry_Int_Tables_number   1
_chemical_formula_structural   Sm(PO3)3
_chemical_formula_sum   'Sm2 P6 O18'
_cell_volume   340.34618795
_cell_formula_units_Z   2
loop_
 _symmetry_equiv_pos_site_id
 _symmetry_equiv_pos_as_xyz
  1  'x, y, z'
loop_
 _atom_site_type_symbol
 _atom_site_label
 _atom_site_symmetry_multiplicity
 _atom_site_fract_x
 _atom_site_fract_y
 _atom_site_fract_z
 _atom_site_occupancy
  Sm  Sm0  1  0.62348658  0.62348658  0.50000000  1
  Sm  Sm1  1  0.37651342  0.37651342  0.00000000  1
  P  P0  1  0.83534920  0.18669898  0.95553974  1
  P  P1  1  0.16465080  0.81330102  0.45553974  1
  P  P2  1  0.81330102  0.16465080  0.54446026  1
  P  P3  1  0.18669898  0.83534920  0.04446026  1
  P  P4  1  0.24928803  0.24928803  0.50000000  1
  P  P5  1  0.75071197  0.75071197  0.00000000  1
  O  O0  1  0.32738939  0.36775149  0.66973447  1
  O  O1  1  0.67261061  0.63224851  0.16973447  1
  O  O2  1  0.63224851  0.67261061  0.83026553  1
  O  O3  1  0.36775149  0.32738939  0.33026553  1
  O  O4  1  0.87432586  0.12567414  0.75000000  1
  O  O5  1  0.12567414  0.87432586  0.25000000  1
  O  O6  1  0.71234069  0.32520749  0.53663486  1
  O  O7  1  0.28765931  0.67479251  0.03663486  1
  O  O8  1  0.67479251  0.28765931  0.96336514  1
  O  O9  1  0.32520749  0.71234069  0.46336514  1
  O  O10  1  0.97107876  0.75244528  0.95496794  1
  O  O11  1  0.02892124  0.24755472  0.45496794  1
  O  O12  1  0.24755472  0.02892124  0.54503206  1
  O  O13  1  0.75244528  0.97107876  0.04503206  1
  O  O14  1  0.96993067  0.71651244  0.53855623  1
  O  O15  1  0.03006933  0.28348756  0.03855623  1
  O  O16  1  0.28348756  0.03006933  0.96144377  1
  O  O17  1  0.71651244  0.96993067  0.46144377  1
loop_
_geom_bond_atom_site_label_1
_geom_bond_atom_site_label_2
_geom_bond_distance
_geom_bond_site_symmetry_2
O0 P4 1.500306 1_555
O0 Sm1 2.410544 1_556
O0 Sm0 2.652261 1_555
O1 P5 1.500306 1_555
O1 Sm0 2.410544 1_555
O1 Sm1 2.652261 1_555
O2 P5 1.500306 1_556
O2 Sm0 2.410544 1_555
O2 Sm1 2.652261 1_556
O3 P4 1.500306 1_555
O3 Sm1 2.410544 1_555
O3 Sm0 2.652261 1_555
O4 P0 1.588885 1_555
O4 P2 1.588885 1_555
O5 P3 1.588885 1_555
O5 P1 1.588885 1_555
O6 P2 1.474293 1_555
O6 Sm0 2.339928 1_555
O7 P3 1.474293 1_555
O7 Sm1 2.339928 1_555
O8 P0 1.474293 1_555
O8 Sm1 2.339928 1_556
O9 P1 1.474293 1_555
O9 Sm0 2.339928 1_555
O10 P5 1.570260 1_556
O10 P3 1.601366 1_656
O11 P4 1.570260 1_555
O11 P2 1.601366 1_455
O12 P4 1.570260 1_555
O12 P1 1.601366 1_545
O13 P5 1.570260 1_555
O13 P0 1.601366 1_564
O14 P1 1.477975 1_655
O14 Sm0 2.351686 1_555
O15 P0 1.477975 1_454
O15 Sm1 2.351686 1_555
O16 P3 1.477975 1_546
O16 Sm1 2.351686 1_556
O17 P2 1.477975 1_565
O17 Sm0 2.351686 1_555
