# generated using pymatgen
data_SrZnAsF
_symmetry_space_group_name_H-M   'P 1'
_cell_length_a   4.15393700
_cell_length_b   4.15393700
_cell_length_c   9.17486800
_cell_angle_alpha   90.00000000
_cell_angle_beta   90.00000000
_cell_angle_gamma   90.00000000
_symmetry_Int_Tables_number   1
_chemical_formula_structural   SrZnAsF
_chemical_formula_sum   'Sr2 Zn2 As2 F2'
_cell_volume   158.31411442
_cell_formula_units_Z   2
loop_
 _symmetry_equiv_pos_site_id
 _symmetry_equiv_pos_as_xyz
  1  'x, y, z'
loop_
 _atom_site_type_symbol
 _atom_site_label
 _atom_site_symmetry_multiplicity
 _atom_site_fract_x
 _atom_site_fract_y
 _atom_site_fract_z
 _atom_site_occupancy
  Sr  Sr0  1  0.00000000  0.50000000  0.84619000  1
  Sr  Sr1  1  0.50000000  0.00000000  0.15381000  1
  Zn  Zn0  1  0.50000000  0.50000000  0.50000000  1
  Zn  Zn1  1  0.00000000  0.00000000  0.50000000  1
  As  As0  1  0.00000000  0.50000000  0.32968900  1
  As  As1  1  0.50000000  0.00000000  0.67031100  1
  F  F0  1  0.50000000  0.50000000  0.00000000  1
  F  F1  1  0.00000000  0.00000000  0.00000000  1
loop_
_geom_bond_atom_site_label_1
_geom_bond_atom_site_label_2
_geom_bond_distance
_geom_bond_site_symmetry_2
As0 Zn1 2.599126 1_555
As0 Zn0 2.599126 1_455
As0 Zn1 2.599126 1_565
As0 Zn0 2.599126 1_555
As0 Sr1 3.351345 1_455
As0 Sr1 3.351345 1_565
As0 Sr1 3.351345 1_555
As0 Sr1 3.351345 1_465
As1 Zn1 2.599126 1_555
As1 Zn1 2.599126 1_655
As1 Zn0 2.599126 1_545
As1 Zn0 2.599126 1_555
As1 Sr0 3.351345 1_655
As1 Sr0 3.351345 1_555
As1 Sr0 3.351345 1_545
As1 Sr0 3.351345 1_645
F0 Sr1 2.511025 1_565
F0 Sr0 2.511025 1_554
F0 Sr1 2.511025 1_555
F0 Sr0 2.511025 1_654
F1 Sr1 2.511025 1_555
F1 Sr0 2.511025 1_554
F1 Sr1 2.511025 1_455
F1 Sr0 2.511025 1_544
