# generated using pymatgen
data_Na3PCO11
_symmetry_space_group_name_H-M   'P 1'
_cell_length_a   15.23715200
_cell_length_b   8.53761200
_cell_length_c   8.83282041
_cell_angle_alpha   74.67059107
_cell_angle_beta   90.00000000
_cell_angle_gamma   90.00000000
_symmetry_Int_Tables_number   1
_chemical_formula_structural   Na3PCO11
_chemical_formula_sum   'Na12 P4 C4 O44'
_cell_volume   1108.17068024
_cell_formula_units_Z   4
loop_
 _symmetry_equiv_pos_site_id
 _symmetry_equiv_pos_as_xyz
  1  'x, y, z'
loop_
 _atom_site_type_symbol
 _atom_site_label
 _atom_site_symmetry_multiplicity
 _atom_site_fract_x
 _atom_site_fract_y
 _atom_site_fract_z
 _atom_site_occupancy
  Na  Na0  1  0.20756300  0.46886200  0.19443300  1
  Na  Na1  1  0.79243700  0.53113800  0.80556700  1
  Na  Na2  1  0.70756300  0.53113800  0.30556700  1
  Na  Na3  1  0.29243700  0.46886200  0.69443300  1
  Na  Na4  1  0.26728200  0.00728800  0.83695600  1
  Na  Na5  1  0.73271800  0.99271200  0.16304400  1
  Na  Na6  1  0.76728200  0.99271200  0.66304400  1
  Na  Na7  1  0.23271800  0.00728800  0.33695600  1
  Na  Na8  1  0.61428300  0.75222800  0.91103300  1
  Na  Na9  1  0.38571700  0.24777200  0.08896700  1
  Na  Na10  1  0.11428300  0.24777200  0.58896700  1
  Na  Na11  1  0.88571700  0.75222800  0.41103300  1
  P  P0  1  0.37929500  0.29271200  0.42152200  1
  P  P1  1  0.62070500  0.70728800  0.57847800  1
  P  P2  1  0.87929500  0.70728800  0.07847800  1
  P  P3  1  0.12070500  0.29271200  0.92152200  1
  C  C0  1  0.42427500  0.68974700  0.16334200  1
  C  C1  1  0.57572500  0.31025300  0.83665800  1
  C  C2  1  0.92427500  0.31025300  0.33665800  1
  C  C3  1  0.07572500  0.68974700  0.66334200  1
  O  O0  1  0.10122200  0.87753100  0.91749400  1
  O  O1  1  0.89877800  0.12246900  0.08250600  1
  O  O2  1  0.60122200  0.12246900  0.58250600  1
  O  O3  1  0.39877800  0.87753100  0.41749400  1
  O  O4  1  0.38014100  0.29349700  0.58981900  1
  O  O5  1  0.61985900  0.70650300  0.41018100  1
  O  O6  1  0.88014100  0.70650300  0.91018100  1
  O  O7  1  0.11985900  0.29349700  0.08981900  1
  O  O8  1  0.12398900  0.73661900  0.98332500  1
  O  O9  1  0.87601100  0.26338100  0.01667500  1
  O  O10  1  0.62398900  0.26338100  0.51667500  1
  O  O11  1  0.37601100  0.73661900  0.48332500  1
  O  O12  1  0.92321300  0.09634500  0.68830700  1
  O  O13  1  0.07678700  0.90365500  0.31169300  1
  O  O14  1  0.42321300  0.90365500  0.81169300  1
  O  O15  1  0.57678700  0.09634500  0.18830700  1
  O  O16  1  0.49823300  0.72405700  0.13473700  1
  O  O17  1  0.50176700  0.27594300  0.86526300  1
  O  O18  1  0.99823300  0.27594300  0.36526300  1
  O  O19  1  0.00176700  0.72405700  0.63473700  1
  O  O20  1  0.95810200  0.66714300  0.18200300  1
  O  O21  1  0.04189800  0.33285700  0.81799700  1
  O  O22  1  0.45810200  0.33285700  0.31799700  1
  O  O23  1  0.54189800  0.66714300  0.68200300  1
  O  O24  1  0.35022400  0.65738900  0.19220400  1
  O  O25  1  0.64977600  0.34261100  0.80779600  1
  O  O26  1  0.85022400  0.34261100  0.30779600  1
  O  O27  1  0.14977600  0.65738900  0.69220400  1
  O  O28  1  0.39645100  0.76028600  0.84836300  1
  O  O29  1  0.60354900  0.23971400  0.15163700  1
  O  O30  1  0.89645100  0.23971400  0.65163700  1
  O  O31  1  0.10354900  0.76028600  0.34836300  1
  O  O32  1  0.29816600  0.24582400  0.34674900  1
  O  O33  1  0.70183400  0.75417600  0.65325100  1
  O  O34  1  0.79816600  0.75417600  0.15325100  1
  O  O35  1  0.20183400  0.24582400  0.84674900  1
  O  O36  1  0.19664400  0.01287700  0.59567800  1
  O  O37  1  0.80335600  0.98712300  0.40432200  1
  O  O38  1  0.69664400  0.98712300  0.90432200  1
  O  O39  1  0.30335600  0.01287700  0.09567800  1
  O  O40  1  0.20077700  0.47019500  0.46176900  1
  O  O41  1  0.79922300  0.52980500  0.53823100  1
  O  O42  1  0.70077700  0.52980500  0.03823100  1
  O  O43  1  0.29922300  0.47019500  0.96176900  1
loop_
_geom_bond_atom_site_label_1
_geom_bond_atom_site_label_2
_geom_bond_distance
_geom_bond_site_symmetry_2
Na0 O40 2.366625 1_555
Na0 O7 2.369133 1_555
Na0 O32 2.446911 1_555
Na0 O43 2.482279 1_554
Na0 O24 2.701764 1_555
Na0 O8 2.840888 1_554
Na1 O41 2.366625 1_555
Na1 O6 2.369133 1_555
Na1 O33 2.446911 1_555
Na1 O42 2.482279 1_556
Na1 O25 2.701764 1_555
Na1 O9 2.840888 1_556
Na2 O42 2.366625 1_555
Na2 O5 2.369133 1_555
Na2 O34 2.446911 1_555
Na2 O41 2.482279 1_555
Na2 O26 2.701764 1_555
Na2 O10 2.840888 1_555
Na3 O43 2.366625 1_555
Na3 O4 2.369133 1_555
Na3 O35 2.446911 1_555
Na3 O40 2.482279 1_555
Na3 O27 2.701764 1_555
Na3 O11 2.840888 1_555
Na4 O35 2.289664 1_555
Na4 O39 2.363135 1_556
Na4 O36 2.376729 1_555
Na4 O14 2.565566 1_545
Na4 O0 2.778300 1_545
Na4 O28 2.866803 1_545
Na5 O34 2.289664 1_555
Na5 O38 2.363135 1_554
Na5 O37 2.376729 1_555
Na5 O15 2.565566 1_565
Na5 O1 2.778300 1_565
Na5 O29 2.866803 1_565
Na6 O33 2.289664 1_555
Na6 O37 2.363135 1_555
Na6 O38 2.376729 1_555
Na6 O12 2.565566 1_565
Na6 O2 2.778300 1_565
Na6 O30 2.866803 1_565
Na7 O32 2.289664 1_555
Na7 O36 2.363135 1_555
Na7 O39 2.376729 1_555
Na7 O13 2.565566 1_545
Na7 O3 2.778300 1_545
Na7 O31 2.866803 1_545
Na8 O42 2.340341 1_556
Na8 O38 2.353158 1_555
Na8 O23 2.571696 1_555
Na8 O16 2.614896 1_556
Na8 O33 2.635213 1_555
Na9 O43 2.340341 1_554
Na9 O39 2.353158 1_555
Na9 O22 2.571696 1_555
Na9 O17 2.614896 1_554
Na9 O32 2.635213 1_555
Na10 O40 2.340341 1_555
Na10 O36 2.353158 1_555
Na10 O21 2.571696 1_555
Na10 O18 2.614896 1_455
Na10 O35 2.635213 1_555
Na11 O41 2.340341 1_555
Na11 O37 2.353158 1_555
Na11 O20 2.571696 1_555
Na11 O19 2.614896 1_655
Na11 O34 2.635213 1_555
C0 O24 1.173539 1_555
C0 O16 1.174920 1_555
C1 O25 1.173539 1_555
C1 O17 1.174920 1_555
C2 O26 1.173539 1_555
C2 O18 1.174920 1_555
C3 O27 1.173539 1_555
C3 O19 1.174920 1_555
O0 O8 1.239320 1_555
O1 O9 1.239320 1_555
O4 P0 1.488379 1_555
O5 P1 1.488379 1_555
O6 P2 1.488379 1_556
O7 P3 1.488379 1_554
O10 O2 1.239320 1_555
O11 O3 1.239320 1_555
O12 O30 1.248926 1_555
O13 O31 1.248926 1_555
O14 O28 1.248926 1_555
O15 O29 1.248926 1_555
O20 P2 1.493261 1_555
O21 P3 1.493261 1_555
O22 P0 1.493261 1_555
O23 P1 1.493261 1_555
O32 P0 1.504783 1_555
O33 P1 1.504783 1_555
O34 P2 1.504783 1_555
O35 P3 1.504783 1_555
