# generated using pymatgen
data_Yb4Al
_symmetry_space_group_name_H-M   'P 1'
_cell_length_a   8.58116364
_cell_length_b   8.58116364
_cell_length_c   8.58116364
_cell_angle_alpha   60.00000000
_cell_angle_beta   60.00000000
_cell_angle_gamma   60.00000000
_symmetry_Int_Tables_number   1
_chemical_formula_structural   Yb4Al
_chemical_formula_sum   'Yb8 Al2'
_cell_volume   446.81068866
_cell_formula_units_Z   2
loop_
 _symmetry_equiv_pos_site_id
 _symmetry_equiv_pos_as_xyz
  1  'x, y, z'
loop_
 _atom_site_type_symbol
 _atom_site_label
 _atom_site_symmetry_multiplicity
 _atom_site_fract_x
 _atom_site_fract_y
 _atom_site_fract_z
 _atom_site_occupancy
  Yb  Yb0  1  0.60953200  0.60953200  0.60953200  1
  Yb  Yb1  1  0.17140400  0.60953200  0.60953200  1
  Yb  Yb2  1  0.60953200  0.17140400  0.60953200  1
  Yb  Yb3  1  0.57859600  0.14046800  0.14046800  1
  Yb  Yb4  1  0.14046800  0.14046800  0.14046800  1
  Yb  Yb5  1  0.60953200  0.60953200  0.17140400  1
  Yb  Yb6  1  0.14046800  0.57859600  0.14046800  1
  Yb  Yb7  1  0.14046800  0.14046800  0.57859600  1
  Al  Al0  1  0.00000000  0.00000000  0.00000000  1
  Al  Al1  1  0.75000000  0.75000000  0.75000000  1
loop_
_geom_bond_atom_site_label_1
_geom_bond_atom_site_label_2
_geom_bond_distance
_geom_bond_site_symmetry_2
Al0 Yb3 2.952563 1_455
Al0 Yb6 2.952563 1_545
Al0 Yb7 2.952563 1_554
Al0 Yb4 2.952563 1_555
Al1 Yb2 2.952563 1_565
Al1 Yb5 2.952563 1_556
Al1 Yb1 2.952563 1_655
Al1 Yb0 2.952563 1_555
