# generated using pymatgen
data_LuCu(MoO4)2
_symmetry_space_group_name_H-M   'P 1'
_cell_length_a   5.06677140
_cell_length_b   7.63996784
_cell_length_c   7.63996784
_cell_angle_alpha   100.39286724
_cell_angle_beta   90.85759248
_cell_angle_gamma   90.85759248
_symmetry_Int_Tables_number   1
_chemical_formula_structural   LuCu(MoO4)2
_chemical_formula_sum   'Lu2 Cu2 Mo4 O16'
_cell_volume   290.81143404
_cell_formula_units_Z   2
loop_
 _symmetry_equiv_pos_site_id
 _symmetry_equiv_pos_as_xyz
  1  'x, y, z'
loop_
 _atom_site_type_symbol
 _atom_site_label
 _atom_site_symmetry_multiplicity
 _atom_site_fract_x
 _atom_site_fract_y
 _atom_site_fract_z
 _atom_site_occupancy
  Lu  Lu0  1  0.75000000  0.84245900  0.15754100  1
  Lu  Lu1  1  0.25000000  0.15754100  0.84245900  1
  Cu  Cu0  1  0.75000000  0.33901800  0.66098200  1
  Cu  Cu1  1  0.25000000  0.66098200  0.33901800  1
  Mo  Mo0  1  0.74368800  0.34827700  0.17159200  1
  Mo  Mo1  1  0.25631200  0.65172300  0.82840800  1
  Mo  Mo2  1  0.75631200  0.82840800  0.65172300  1
  Mo  Mo3  1  0.24368800  0.17159200  0.34827700  1
  O  O0  1  0.39448300  0.68641000  0.05537000  1
  O  O1  1  0.60551700  0.31359000  0.94463000  1
  O  O2  1  0.10551700  0.94463000  0.31359000  1
  O  O3  1  0.89448300  0.05537000  0.68641000  1
  O  O4  1  0.95218400  0.80466400  0.90655400  1
  O  O5  1  0.04781600  0.19533600  0.09344600  1
  O  O6  1  0.54781600  0.09344600  0.19533600  1
  O  O7  1  0.45218400  0.90655400  0.80466400  1
  O  O8  1  0.89768900  0.56904100  0.19624300  1
  O  O9  1  0.10231100  0.43095900  0.80375700  1
  O  O10  1  0.60231100  0.80375700  0.43095900  1
  O  O11  1  0.39768900  0.19624300  0.56904100  1
  O  O12  1  0.56899500  0.58813600  0.69700300  1
  O  O13  1  0.43100500  0.41186400  0.30299700  1
  O  O14  1  0.93100500  0.30299700  0.41186400  1
  O  O15  1  0.06899500  0.69700300  0.58813600  1
loop_
_geom_bond_atom_site_label_1
_geom_bond_atom_site_label_2
_geom_bond_distance
_geom_bond_site_symmetry_2
Lu0 O6 2.162784 1_565
Lu0 O4 2.162784 1_554
Lu0 O0 2.198477 1_555
Lu0 O2 2.198477 1_655
Lu0 O8 2.296503 1_555
Lu0 O10 2.296503 1_555
Lu1 O5 2.162784 1_556
Lu1 O7 2.162784 1_545
Lu1 O1 2.198477 1_555
Lu1 O3 2.198477 1_455
Lu1 O11 2.296503 1_555
Lu1 O9 2.296503 1_555
Cu0 O14 2.100008 1_555
Cu0 O12 2.100008 1_555
Cu0 O11 2.120727 1_555
Cu0 O9 2.120727 1_655
Cu0 O1 2.337720 1_555
Cu0 O3 2.337720 1_555
Cu1 O13 2.100008 1_555
Cu1 O15 2.100008 1_555
Cu1 O10 2.120727 1_555
Cu1 O8 2.120727 1_455
Cu1 O2 2.337720 1_555
Cu1 O0 2.337720 1_555
Mo0 O8 1.825004 1_555
Mo0 O1 1.832854 1_554
Mo0 O13 1.910118 1_555
Mo0 O5 1.981419 1_655
Mo0 O14 2.139375 1_555
Mo0 O6 2.209805 1_555
Mo1 O9 1.825004 1_555
Mo1 O0 1.832854 1_556
Mo1 O12 1.910118 1_555
Mo1 O4 1.981419 1_455
Mo1 O15 2.139375 1_555
Mo1 O7 2.209805 1_555
Mo2 O10 1.825004 1_555
Mo2 O3 1.832854 1_565
Mo2 O15 1.910118 1_655
Mo2 O7 1.981419 1_555
Mo2 O12 2.139375 1_555
Mo2 O4 2.209805 1_555
Mo3 O11 1.825004 1_555
Mo3 O2 1.832854 1_545
Mo3 O14 1.910118 1_455
Mo3 O6 1.981419 1_555
Mo3 O13 2.139375 1_555
Mo3 O5 2.209805 1_555
