# generated using pymatgen
data_Ca4Zn3Fe(SiO3)8
_symmetry_space_group_name_H-M   'P 1'
_cell_length_a   5.31873200
_cell_length_b   6.75535685
_cell_length_c   13.47387490
_cell_angle_alpha   90.55770385
_cell_angle_beta   101.14699595
_cell_angle_gamma   101.61969753
_symmetry_Int_Tables_number   1
_chemical_formula_structural   Ca4Zn3Fe(SiO3)8
_chemical_formula_sum   'Ca4 Zn3 Fe1 Si8 O24'
_cell_volume   464.65096824
_cell_formula_units_Z   1
loop_
 _symmetry_equiv_pos_site_id
 _symmetry_equiv_pos_as_xyz
  1  'x, y, z'
loop_
 _atom_site_type_symbol
 _atom_site_label
 _atom_site_symmetry_multiplicity
 _atom_site_fract_x
 _atom_site_fract_y
 _atom_site_fract_z
 _atom_site_occupancy
  Ca  Ca0  1  0.10072900  0.70146500  0.85068200  1
  Ca  Ca1  1  0.60067500  0.70110300  0.35069300  1
  Ca  Ca2  1  0.39979700  0.29846700  0.64900100  1
  Ca  Ca3  1  0.89928500  0.29850400  0.14928100  1
  Zn  Zn0  1  0.29737700  0.09468100  0.04735900  1
  Zn  Zn1  1  0.70255700  0.90526700  0.95263100  1
  Zn  Zn2  1  0.20255100  0.90536300  0.45286400  1
  Fe  Fe0  1  0.79707700  0.09371400  0.54713400  1
  Si  Si0  1  0.86736500  0.62147400  0.59699200  1
  Si  Si1  1  0.36730200  0.62115600  0.09695200  1
  Si  Si2  1  0.04046300  0.19420800  0.81093500  1
  Si  Si3  1  0.54006300  0.19408000  0.31041700  1
  Si  Si4  1  0.63274100  0.37885400  0.90305900  1
  Si  Si5  1  0.13327200  0.37935800  0.40288800  1
  Si  Si6  1  0.45914600  0.80546000  0.68954900  1
  Si  Si7  1  0.95981100  0.80606900  0.18942600  1
  O  O0  1  0.86845000  0.79262500  0.51336000  1
  O  O1  1  0.36875800  0.79378400  0.01379700  1
  O  O2  1  0.04192800  0.02746600  0.89695200  1
  O  O3  1  0.54245900  0.02750000  0.39656800  1
  O  O4  1  0.63122900  0.20624800  0.98619200  1
  O  O5  1  0.13337100  0.20700900  0.48567500  1
  O  O6  1  0.45564000  0.97165000  0.60380400  1
  O  O7  1  0.95810900  0.97241200  0.10309400  1
  O  O8  1  0.73467800  0.39283300  0.55756200  1
  O  O9  1  0.23442300  0.39182000  0.05721000  1
  O  O10  1  0.01791200  0.11507000  0.69611600  1
  O  O11  1  0.51863400  0.11436200  0.19575200  1
  O  O12  1  0.76558500  0.60816200  0.94278300  1
  O  O13  1  0.26581300  0.60863000  0.44271400  1
  O  O14  1  0.48134100  0.88559500  0.80430800  1
  O  O15  1  0.98135800  0.88561100  0.30413300  1
  O  O16  1  0.17143100  0.63169300  0.66566500  1
  O  O17  1  0.67169700  0.63203100  0.16555100  1
  O  O18  1  0.80988300  0.33108200  0.81603400  1
  O  O19  1  0.31004100  0.33115200  0.31583700  1
  O  O20  1  0.32838300  0.36798100  0.83446000  1
  O  O21  1  0.82833800  0.36794000  0.33446700  1
  O  O22  1  0.69022600  0.66919400  0.68411100  1
  O  O23  1  0.19010300  0.66892600  0.18399100  1
loop_
_geom_bond_atom_site_label_1
_geom_bond_atom_site_label_2
_geom_bond_distance
_geom_bond_site_symmetry_2
Ca0 O14 2.350654 1_555
Ca0 O12 2.352156 1_455
Ca0 O1 2.378074 1_556
Ca0 O2 2.379603 1_565
Ca0 O16 2.643688 1_555
Ca0 O18 2.647670 1_455
Ca0 O22 2.784915 1_455
Ca0 O20 2.789368 1_555
Ca1 O13 2.349548 1_555
Ca1 O15 2.352971 1_555
Ca1 O0 2.372004 1_555
Ca1 O3 2.379525 1_565
Ca1 O17 2.645003 1_555
Ca1 O19 2.645009 1_555
Ca1 O23 2.786349 1_555
Ca1 O21 2.787467 1_555
Ca2 O8 2.345879 1_555
Ca2 O10 2.358735 1_555
Ca2 O6 2.375124 1_545
Ca2 O5 2.376478 1_555
Ca2 O22 2.649138 1_555
Ca2 O20 2.650480 1_555
Ca2 O18 2.787431 1_555
Ca2 O16 2.791057 1_555
Ca3 O11 2.351422 1_555
Ca3 O9 2.351867 1_655
Ca3 O4 2.377788 1_554
Ca3 O7 2.379921 1_545
Ca3 O21 2.645916 1_555
Ca3 O23 2.647880 1_655
Ca3 O19 2.785385 1_655
Ca3 O17 2.789513 1_555
Fe0 O10 2.108171 1_655
Fe0 O8 2.120280 1_555
Fe0 O5 2.122351 1_655
Fe0 O6 2.122748 1_545
Fe0 O3 2.196759 1_555
Fe0 O0 2.201819 1_545
O0 Si0 1.622274 1_555
O0 Zn2 2.104544 1_655
O1 Si1 1.624959 1_555
O1 Zn1 2.106561 1_554
O1 Zn0 2.199937 1_565
O2 Si2 1.624050 1_555
O2 Zn1 2.106605 1_445
O2 Zn0 2.197285 1_556
O3 Si3 1.624621 1_555
O3 Zn2 2.113309 1_545
O4 Si4 1.624643 1_555
O4 Zn0 2.106916 1_556
O4 Zn1 2.200365 1_545
O5 Si5 1.620217 1_555
O5 Zn2 2.197852 1_545
O6 Si6 1.618905 1_555
O6 Zn2 2.197634 1_555
O7 Si7 1.625228 1_555
O7 Zn0 2.106643 1_665
O7 Zn1 2.198073 1_554
O8 Si0 1.601843 1_555
O9 Si1 1.607124 1_555
O9 Zn0 2.107522 1_555
O10 Si2 1.606206 1_555
O11 Si3 1.606536 1_555
O11 Zn0 2.102924 1_555
O12 Si4 1.606868 1_555
O12 Zn1 2.107435 1_555
O13 Si5 1.606693 1_555
O13 Zn2 2.105764 1_555
O14 Si6 1.607873 1_555
O14 Zn1 2.102055 1_555
O15 Si7 1.606587 1_555
O15 Zn2 2.106609 1_655
O16 Si0 1.688668 1_455
O16 Si6 1.703490 1_555
O17 Si1 1.689091 1_555
O17 Si7 1.705950 1_555
O18 Si2 1.688740 1_655
O18 Si4 1.705582 1_555
O19 Si3 1.687928 1_555
O19 Si5 1.705289 1_555
O20 Si4 1.688927 1_555
O20 Si2 1.704265 1_555
O21 Si5 1.690083 1_655
O21 Si3 1.705982 1_555
O22 Si6 1.688953 1_555
O22 Si0 1.706472 1_555
O23 Si7 1.689508 1_455
O23 Si1 1.705947 1_555
