# generated using pymatgen
data_P2H19S6N5O2
_symmetry_space_group_name_H-M   'P 1'
_cell_length_a   14.05483300
_cell_length_b   7.49093300
_cell_length_c   19.93827806
_cell_angle_alpha   80.97487247
_cell_angle_beta   90.00000000
_cell_angle_gamma   90.00000000
_symmetry_Int_Tables_number   1
_chemical_formula_structural   P2H19S6N5O2
_chemical_formula_sum   'P8 H76 S24 N20 O8'
_cell_volume   2073.18934703
_cell_formula_units_Z   4
loop_
 _symmetry_equiv_pos_site_id
 _symmetry_equiv_pos_as_xyz
  1  'x, y, z'
loop_
 _atom_site_type_symbol
 _atom_site_label
 _atom_site_symmetry_multiplicity
 _atom_site_fract_x
 _atom_site_fract_y
 _atom_site_fract_z
 _atom_site_occupancy
  P  P0  1  0.70674900  0.25893500  0.05191100  1
  P  P1  1  0.29325100  0.74106500  0.94808900  1
  P  P2  1  0.20674900  0.74106500  0.44808900  1
  P  P3  1  0.79325100  0.25893500  0.55191100  1
  P  P4  1  0.28147100  0.79239200  0.06046400  1
  P  P5  1  0.71852900  0.20760800  0.93953600  1
  P  P6  1  0.78147100  0.20760800  0.43953600  1
  P  P7  1  0.21852900  0.79239200  0.56046400  1
  H  H0  1  0.46155800  0.91197400  0.69301200  1
  H  H1  1  0.53844200  0.08802600  0.30698800  1
  H  H2  1  0.96155800  0.08802600  0.80698800  1
  H  H3  1  0.03844200  0.91197400  0.19301200  1
  H  H4  1  0.86940500  0.58817900  0.09568500  1
  H  H5  1  0.13059500  0.41182100  0.90431500  1
  H  H6  1  0.36940500  0.41182100  0.40431500  1
  H  H7  1  0.63059500  0.58817900  0.59568500  1
  H  H8  1  0.99821600  0.83598100  0.04779800  1
  H  H9  1  0.00178400  0.16401900  0.95220200  1
  H  H10  1  0.49821600  0.16401900  0.45220200  1
  H  H11  1  0.50178400  0.83598100  0.54779800  1
  H  H12  1  0.53179900  0.67681600  0.22253300  1
  H  H13  1  0.46820100  0.32318400  0.77746700  1
  H  H14  1  0.03179900  0.32318400  0.27746700  1
  H  H15  1  0.96820100  0.67681600  0.72253300  1
  H  H16  1  0.91218400  0.88491400  0.43247200  1
  H  H17  1  0.08781600  0.11508600  0.56752800  1
  H  H18  1  0.41218400  0.11508600  0.06752800  1
  H  H19  1  0.58781600  0.88491400  0.93247200  1
  H  H20  1  0.54027900  0.50806600  0.17315300  1
  H  H21  1  0.45972100  0.49193400  0.82684700  1
  H  H22  1  0.04027900  0.49193400  0.32684700  1
  H  H23  1  0.95972100  0.50806600  0.67315300  1
  H  H24  1  0.32524100  0.71746600  0.35415100  1
  H  H25  1  0.67475900  0.28253400  0.64584900  1
  H  H26  1  0.82524100  0.28253400  0.14584900  1
  H  H27  1  0.17475900  0.71746600  0.85415100  1
  H  H28  1  0.75890300  0.50686500  0.22917900  1
  H  H29  1  0.24109700  0.49313500  0.77082100  1
  H  H30  1  0.25890300  0.49313500  0.27082100  1
  H  H31  1  0.74109700  0.50686500  0.72917900  1
  H  H32  1  0.74430200  0.38304200  0.41626800  1
  H  H33  1  0.25569800  0.61695800  0.58373200  1
  H  H34  1  0.24430200  0.61695800  0.08373200  1
  H  H35  1  0.75569800  0.38304200  0.91626800  1
  H  H36  1  0.75210500  0.91543200  0.09646200  1
  H  H37  1  0.24789500  0.08456800  0.90353800  1
  H  H38  1  0.25210500  0.08456800  0.40353800  1
  H  H39  1  0.74789500  0.91543200  0.59646200  1
  H  H40  1  0.98172700  0.03963500  0.29448900  1
  H  H41  1  0.01827300  0.96036500  0.70551100  1
  H  H42  1  0.48172700  0.96036500  0.20551100  1
  H  H43  1  0.51827300  0.03963500  0.79448900  1
  H  H44  1  0.95974700  0.68831400  0.42518800  1
  H  H45  1  0.04025300  0.31168600  0.57481200  1
  H  H46  1  0.45974700  0.31168600  0.07481200  1
  H  H47  1  0.54025300  0.68831400  0.92518800  1
  H  H48  1  0.76960900  0.72153700  0.39880600  1
  H  H49  1  0.23039100  0.27846300  0.60119400  1
  H  H50  1  0.26960900  0.27846300  0.10119400  1
  H  H51  1  0.73039100  0.72153700  0.89880600  1
  H  H52  1  0.00803700  0.54275800  0.24606000  1
  H  H53  1  0.99196300  0.45724200  0.75394000  1
  H  H54  1  0.50803700  0.45724200  0.25394000  1
  H  H55  1  0.49196300  0.54275800  0.74606000  1
  H  H56  1  0.16762600  0.82110100  0.19258400  1
  H  H57  1  0.83237400  0.17889900  0.80741600  1
  H  H58  1  0.66762600  0.17889900  0.30741600  1
  H  H59  1  0.33237400  0.82110100  0.69258400  1
  H  H60  1  0.65147900  0.56720100  0.40416400  1
  H  H61  1  0.34852100  0.43279900  0.59583600  1
  H  H62  1  0.15147900  0.43279900  0.09583600  1
  H  H63  1  0.84852100  0.56720100  0.90416400  1
  H  H64  1  0.88430800  0.70296700  0.48626300  1
  H  H65  1  0.11569200  0.29703300  0.51373700  1
  H  H66  1  0.38430800  0.29703300  0.01373700  1
  H  H67  1  0.61569200  0.70296700  0.98626300  1
  H  H68  1  0.58205100  0.78685700  0.49258000  1
  H  H69  1  0.41794900  0.21314300  0.50742000  1
  H  H70  1  0.08205100  0.21314300  0.00742000  1
  H  H71  1  0.91794900  0.78685700  0.99258000  1
  H  H72  1  0.09149200  0.03445600  0.29157900  1
  H  H73  1  0.90850800  0.96554400  0.70842100  1
  H  H74  1  0.59149200  0.96554400  0.20842100  1
  H  H75  1  0.40850800  0.03445600  0.79157900  1
  S  S0  1  0.85257900  0.27301000  0.07921800  1
  S  S1  1  0.14742100  0.72699000  0.92078200  1
  S  S2  1  0.35257900  0.72699000  0.42078200  1
  S  S3  1  0.64742100  0.27301000  0.57921800  1
  S  S4  1  0.37795700  0.77677000  0.14676000  1
  S  S5  1  0.62204300  0.22323000  0.85324000  1
  S  S6  1  0.87795700  0.22323000  0.35324000  1
  S  S7  1  0.12204300  0.77677000  0.64676000  1
  S  S8  1  0.67573800  0.73703600  0.37627700  1
  S  S9  1  0.32426200  0.26296400  0.62372300  1
  S  S10  1  0.17573800  0.26296400  0.12372300  1
  S  S11  1  0.82426200  0.73703600  0.87627700  1
  S  S12  1  0.66461100  0.99295600  0.09946800  1
  S  S13  1  0.33538900  0.00704400  0.90053200  1
  S  S14  1  0.16461100  0.00704400  0.40053200  1
  S  S15  1  0.83538900  0.99295600  0.59946800  1
  S  S16  1  0.62843400  0.44780800  0.08427900  1
  S  S17  1  0.37156600  0.55219200  0.91572100  1
  S  S18  1  0.12843400  0.55219200  0.41572100  1
  S  S19  1  0.87156600  0.44780800  0.58427900  1
  S  S20  1  0.08262700  0.77445200  0.16843300  1
  S  S21  1  0.91737300  0.22554800  0.83156800  1
  S  S22  1  0.58262700  0.22554800  0.33156800  1
  S  S23  1  0.41737300  0.77445200  0.66843200  1
  N  N0  1  0.50150600  0.55676200  0.21117000  1
  N  N1  1  0.49849400  0.44323800  0.78883000  1
  N  N2  1  0.00150600  0.44323800  0.28883000  1
  N  N3  1  0.99849400  0.55676200  0.71117000  1
  N  N4  1  0.89886500  0.41897700  0.30516900  1
  N  N5  1  0.10113500  0.58102300  0.69483100  1
  N  N6  1  0.39886500  0.58102300  0.19483100  1
  N  N7  1  0.60113500  0.41897700  0.80516900  1
  N  N8  1  0.89761300  0.74991600  0.43603600  1
  N  N9  1  0.10238700  0.25008400  0.56396400  1
  N  N10  1  0.39761300  0.25008400  0.06396400  1
  N  N11  1  0.60238700  0.74991600  0.93603600  1
  N  N12  1  0.95463500  0.73525300  0.03609300  1
  N  N13  1  0.04536500  0.26474700  0.96390700  1
  N  N14  1  0.45463500  0.26474700  0.46390700  1
  N  N15  1  0.54536500  0.73525300  0.53609300  1
  N  N16  1  0.76792800  0.37896800  0.21546500  1
  N  N17  1  0.23207200  0.62103200  0.78453500  1
  N  N18  1  0.26792800  0.62103200  0.28453500  1
  N  N19  1  0.73207200  0.37896800  0.71546500  1
  O  O0  1  0.53546600  0.91763300  0.23500500  1
  O  O1  1  0.46453400  0.08236700  0.76499500  1
  O  O2  1  0.03546600  0.08236700  0.26499500  1
  O  O3  1  0.96453400  0.91763300  0.73500500  1
  O  O4  1  0.88352200  0.71819600  0.09027900  1
  O  O5  1  0.11647800  0.28180400  0.90972100  1
  O  O6  1  0.38352200  0.28180400  0.40972100  1
  O  O7  1  0.61647800  0.71819600  0.59027900  1
loop_
_geom_bond_atom_site_label_1
_geom_bond_atom_site_label_2
_geom_bond_distance
_geom_bond_site_symmetry_2
P0 S16 1.978956 1_555
P0 S0 2.127554 1_555
P0 S12 2.151024 1_545
P1 S17 1.978956 1_555
P1 S1 2.127554 1_555
P1 S13 2.151024 1_565
P2 S18 1.978956 1_555
P2 S2 2.127554 1_555
P2 S14 2.151024 1_565
P3 S19 1.978956 1_555
P3 S3 2.127554 1_555
P3 S15 2.151024 1_545
P4 S4 2.179440 1_555
P5 S5 2.179440 1_555
P6 S6 2.179440 1_555
P7 S7 2.179440 1_555
H0 S23 1.358484 1_555
H1 S22 1.358484 1_555
H2 S21 1.358484 1_555
H3 S20 1.358475 1_555
H4 O4 0.983171 1_555
H5 O5 0.983171 1_555
H6 O6 0.983171 1_555
H7 O7 0.983171 1_555
H8 N12 1.026761 1_555
H9 N13 1.026761 1_555
H10 N14 1.026761 1_555
H11 N15 1.026761 1_555
H12 N0 1.051331 1_555
H13 N1 1.051331 1_555
H14 N2 1.051331 1_555
H15 N3 1.051331 1_555
H16 N8 1.023276 1_555
H17 N9 1.023276 1_555
H18 N10 1.023276 1_555
H19 N11 1.023276 1_555
H20 N0 1.044669 1_555
H21 N1 1.044669 1_555
H22 N2 1.044669 1_555
H23 N3 1.044669 1_555
H24 S2 1.395490 1_555
H25 S3 1.395490 1_555
H26 S0 1.395490 1_555
H27 S1 1.395490 1_555
H28 N16 1.044480 1_555
H29 N17 1.044480 1_555
H30 N18 1.044480 1_555
H31 N19 1.044480 1_555
H32 P6 1.422633 1_555
H33 P7 1.422633 1_555
H34 P4 1.422633 1_555
H35 P5 1.422633 1_555
H36 S12 1.365266 1_555
H37 S13 1.365266 1_555
H38 S14 1.365266 1_555
H39 S15 1.365266 1_555
H40 O2 0.979637 1_655
H41 O3 0.979637 1_455
H42 O0 0.979637 1_555
H43 O1 0.979637 1_555
H44 N8 1.026480 1_555
H45 N9 1.026480 1_555
H46 N10 1.026480 1_555
H47 N11 1.026480 1_555
H48 S8 1.392677 1_555
H49 S9 1.392677 1_555
H50 S10 1.392677 1_555
H51 S11 1.392677 1_555
H52 N2 1.044960 1_555
H53 N3 1.044960 1_555
H54 N0 1.044960 1_555
H55 N1 1.044960 1_555
H56 S20 1.354236 1_555
H57 S21 1.354244 1_555
H58 S22 1.354244 1_555
H59 S23 1.354244 1_555
H60 S8 1.349825 1_555
H61 S9 1.349825 1_555
H62 S10 1.349825 1_555
H63 S11 1.349825 1_555
H64 N8 1.025203 1_555
H65 N9 1.025203 1_555
H66 N10 1.025203 1_555
H67 N11 1.025203 1_555
H68 N15 1.030901 1_555
H69 N14 1.030901 1_555
H70 N13 1.030901 1_554
H71 N12 1.030901 1_556
H72 O2 0.984948 1_555
H73 O3 0.984948 1_555
H74 O0 0.984948 1_555
H75 O1 0.984948 1_555
N0 N6 1.483807 1_555
N1 N7 1.483807 1_555
N2 N4 1.483807 1_455
N3 N5 1.483807 1_655
N4 S6 1.647476 1_555
N5 S7 1.647476 1_555
N6 S4 1.647476 1_555
N7 S5 1.647476 1_555
N12 O4 1.462597 1_555
N13 O5 1.462597 1_555
N14 O6 1.462597 1_555
N15 O7 1.462597 1_555
