# generated using pymatgen
data_Cs9Fe2Se7
_symmetry_space_group_name_H-M   'P 1'
_cell_length_a   14.34839800
_cell_length_b   14.34839800
_cell_length_c   14.34839800
_cell_angle_alpha   90.00000000
_cell_angle_beta   90.00000000
_cell_angle_gamma   90.00000000
_symmetry_Int_Tables_number   1
_chemical_formula_structural   Cs9Fe2Se7
_chemical_formula_sum   'Cs36 Fe8 Se28'
_cell_volume   2953.99832194
_cell_formula_units_Z   4
loop_
 _symmetry_equiv_pos_site_id
 _symmetry_equiv_pos_as_xyz
  1  'x, y, z'
loop_
 _atom_site_type_symbol
 _atom_site_label
 _atom_site_symmetry_multiplicity
 _atom_site_fract_x
 _atom_site_fract_y
 _atom_site_fract_z
 _atom_site_occupancy
  Cs  Cs0  1  0.20162100  0.16710800  0.50213100  1
  Cs  Cs1  1  0.49786900  0.70162100  0.33289200  1
  Cs  Cs2  1  0.66710800  0.99786900  0.79837900  1
  Cs  Cs3  1  0.70162100  0.33289200  0.49786900  1
  Cs  Cs4  1  0.99786900  0.79837900  0.66710800  1
  Cs  Cs5  1  0.16710800  0.50213100  0.20162100  1
  Cs  Cs6  1  0.79837900  0.66710800  0.99786900  1
  Cs  Cs7  1  0.50213100  0.20162100  0.16710800  1
  Cs  Cs8  1  0.33289200  0.49786900  0.70162100  1
  Cs  Cs9  1  0.29837900  0.83289200  0.00213100  1
  Cs  Cs10  1  0.00213100  0.29837900  0.83289200  1
  Cs  Cs11  1  0.83289200  0.00213100  0.29837900  1
  Cs  Cs12  1  0.70714700  0.82327000  0.54291500  1
  Cs  Cs13  1  0.45708500  0.20714700  0.67673000  1
  Cs  Cs14  1  0.32327000  0.95708500  0.29285300  1
  Cs  Cs15  1  0.20714700  0.67673000  0.45708500  1
  Cs  Cs16  1  0.95708500  0.29285300  0.32327000  1
  Cs  Cs17  1  0.82327000  0.54291500  0.70714700  1
  Cs  Cs18  1  0.29285300  0.32327000  0.95708500  1
  Cs  Cs19  1  0.54291500  0.70714700  0.82327000  1
  Cs  Cs20  1  0.67673000  0.45708500  0.20714700  1
  Cs  Cs21  1  0.79285300  0.17673000  0.04291500  1
  Cs  Cs22  1  0.04291500  0.79285300  0.17673000  1
  Cs  Cs23  1  0.17673000  0.04291500  0.79285300  1
  Cs  Cs24  1  0.08279400  0.58279400  0.91720600  1
  Cs  Cs25  1  0.58279400  0.91720600  0.08279400  1
  Cs  Cs26  1  0.91720600  0.08279400  0.58279400  1
  Cs  Cs27  1  0.41720600  0.41720600  0.41720600  1
  Cs  Cs28  1  0.26149800  0.76149800  0.73850200  1
  Cs  Cs29  1  0.76149800  0.73850200  0.26149800  1
  Cs  Cs30  1  0.73850200  0.26149800  0.76149800  1
  Cs  Cs31  1  0.23850200  0.23850200  0.23850200  1
  Cs  Cs32  1  0.44138600  0.94138600  0.55861400  1
  Cs  Cs33  1  0.94138600  0.55861400  0.44138600  1
  Cs  Cs34  1  0.55861400  0.44138600  0.94138600  1
  Cs  Cs35  1  0.05861400  0.05861400  0.05861400  1
  Fe  Fe0  1  0.92942900  0.42942900  0.07057100  1
  Fe  Fe1  1  0.42942900  0.07057100  0.92942900  1
  Fe  Fe2  1  0.07057100  0.92942900  0.42942900  1
  Fe  Fe3  1  0.57057100  0.57057100  0.57057100  1
  Fe  Fe4  1  0.60019000  0.10019000  0.39981000  1
  Fe  Fe5  1  0.10019000  0.39981000  0.60019000  1
  Fe  Fe6  1  0.39981000  0.60019000  0.10019000  1
  Fe  Fe7  1  0.89981000  0.89981000  0.89981000  1
  Se  Se0  1  0.66247200  0.08813300  0.55874000  1
  Se  Se1  1  0.44126000  0.16247200  0.41186700  1
  Se  Se2  1  0.58813300  0.94126000  0.33752800  1
  Se  Se3  1  0.16247200  0.41186700  0.44126000  1
  Se  Se4  1  0.94126000  0.33752800  0.58813300  1
  Se  Se5  1  0.08813300  0.55874000  0.66247200  1
  Se  Se6  1  0.33752800  0.58813300  0.94126000  1
  Se  Se7  1  0.55874000  0.66247200  0.08813300  1
  Se  Se8  1  0.41186700  0.44126000  0.16247200  1
  Se  Se9  1  0.83752800  0.91186700  0.05874000  1
  Se  Se10  1  0.05874000  0.83752800  0.91186700  1
  Se  Se11  1  0.91186700  0.05874000  0.83752800  1
  Se  Se12  1  0.18250600  0.92292000  0.55209800  1
  Se  Se13  1  0.44790200  0.68250600  0.57708000  1
  Se  Se14  1  0.42292000  0.94790200  0.81749400  1
  Se  Se15  1  0.68250600  0.57708000  0.44790200  1
  Se  Se16  1  0.94790200  0.81749400  0.42292000  1
  Se  Se17  1  0.92292000  0.55209800  0.18250600  1
  Se  Se18  1  0.81749400  0.42292000  0.94790200  1
  Se  Se19  1  0.55209800  0.18250600  0.92292000  1
  Se  Se20  1  0.57708000  0.44790200  0.68250600  1
  Se  Se21  1  0.31749400  0.07708000  0.05209800  1
  Se  Se22  1  0.05209800  0.31749400  0.07708000  1
  Se  Se23  1  0.07708000  0.05209800  0.31749400  1
  Se  Se24  1  0.70100200  0.20100200  0.29899800  1
  Se  Se25  1  0.20100200  0.29899800  0.70100200  1
  Se  Se26  1  0.29899800  0.70100200  0.20100200  1
  Se  Se27  1  0.79899800  0.79899800  0.79899800  1
loop_
_geom_bond_atom_site_label_1
_geom_bond_atom_site_label_2
_geom_bond_distance
_geom_bond_site_symmetry_2
Cs0 Se25 3.423981 1_555
Cs0 Se12 3.586809 1_545
Cs0 Se23 3.596516 1_555
Cs0 Se3 3.662213 1_555
Cs0 Se1 3.674869 1_555
Cs1 Se26 3.423981 1_555
Cs1 Se13 3.586809 1_555
Cs1 Se15 3.596516 1_555
Cs1 Se7 3.662213 1_555
Cs1 Se2 3.674869 1_555
Cs2 Se27 3.423981 1_555
Cs2 Se14 3.586809 1_555
Cs2 Se19 3.596516 1_565
Cs2 Se11 3.662213 1_565
Cs2 Se0 3.674869 1_565
Cs3 Se24 3.423981 1_555
Cs3 Se15 3.586809 1_555
Cs3 Se20 3.596516 1_555
Cs3 Se0 3.662213 1_555
Cs3 Se4 3.674869 1_555
Cs4 Se27 3.423981 1_555
Cs4 Se16 3.586809 1_555
Cs4 Se12 3.596516 1_655
Cs4 Se10 3.662213 1_655
Cs4 Se5 3.674869 1_655
Cs5 Se26 3.423981 1_555
Cs5 Se17 3.586809 1_455
Cs5 Se22 3.596516 1_555
Cs5 Se8 3.662213 1_555
Cs5 Se3 3.674869 1_555
Cs6 Se27 3.423981 1_555
Cs6 Se18 3.586809 1_555
Cs6 Se17 3.596516 1_556
Cs6 Se9 3.662213 1_556
Cs6 Se7 3.674869 1_556
Cs7 Se24 3.423981 1_555
Cs7 Se19 3.586809 1_554
Cs7 Se21 3.596516 1_555
Cs7 Se1 3.662213 1_555
Cs7 Se8 3.674869 1_555
Cs8 Se25 3.423981 1_555
Cs8 Se20 3.586809 1_555
Cs8 Se13 3.596516 1_555
Cs8 Se5 3.662213 1_555
Cs8 Se6 3.674869 1_555
Cs9 Se26 3.423981 1_555
Cs9 Se21 3.586809 1_565
Cs9 Se14 3.596516 1_554
Cs9 Se6 3.662213 1_554
Cs9 Se10 3.674869 1_554
Cs10 Se25 3.423981 1_555
Cs10 Se22 3.586809 1_556
Cs10 Se18 3.596516 1_455
Cs10 Se4 3.662213 1_455
Cs10 Se11 3.674869 1_455
Cs11 Se24 3.423981 1_555
Cs11 Se23 3.586809 1_655
Cs11 Se16 3.596516 1_545
Cs11 Se2 3.662213 1_545
Cs11 Se9 3.674869 1_545
Cs12 Se15 3.802844 1_555
Cs12 Se2 3.803538 1_555
Cs12 Se16 3.860629 1_555
Cs12 Se0 3.860724 1_565
Cs12 Se27 3.919089 1_555
Cs13 Se19 3.802844 1_555
Cs13 Se0 3.803538 1_555
Cs13 Se20 3.860629 1_555
Cs13 Se1 3.860724 1_555
Cs13 Se25 3.919089 1_555
Cs14 Se23 3.802844 1_565
Cs14 Se1 3.803538 1_565
Cs14 Se21 3.860629 1_565
Cs14 Se2 3.860724 1_555
Cs14 Se26 3.919089 1_555
Cs15 Se12 3.802844 1_555
Cs15 Se5 3.803538 1_555
Cs15 Se13 3.860629 1_555
Cs15 Se3 3.860724 1_555
Cs15 Se26 3.919089 1_555
Cs16 Se22 3.802844 1_655
Cs16 Se3 3.803538 1_655
Cs16 Se23 3.860629 1_655
Cs16 Se4 3.860724 1_555
Cs16 Se24 3.919089 1_555
Cs17 Se20 3.802844 1_555
Cs17 Se4 3.803538 1_555
Cs17 Se18 3.860629 1_555
Cs17 Se5 3.860724 1_655
Cs17 Se27 3.919089 1_555
Cs18 Se21 3.802844 1_556
Cs18 Se8 3.803538 1_556
Cs18 Se22 3.860629 1_556
Cs18 Se6 3.860724 1_555
Cs18 Se25 3.919089 1_555
Cs19 Se13 3.802844 1_555
Cs19 Se6 3.803538 1_555
Cs19 Se14 3.860629 1_555
Cs19 Se7 3.860724 1_556
Cs19 Se27 3.919089 1_555
Cs20 Se17 3.802844 1_555
Cs20 Se7 3.803538 1_555
Cs20 Se15 3.860629 1_555
Cs20 Se8 3.860724 1_555
Cs20 Se24 3.919089 1_555
Cs21 Se18 3.802844 1_554
Cs21 Se11 3.803538 1_554
Cs21 Se19 3.860629 1_554
Cs21 Se9 3.860724 1_545
Cs21 Se24 3.919089 1_555
Cs22 Se16 3.802844 1_455
Cs22 Se9 3.803538 1_455
Cs22 Se17 3.860629 1_455
Cs22 Se10 3.860724 1_554
Cs22 Se26 3.919089 1_555
Cs23 Se14 3.802844 1_545
Cs23 Se10 3.803538 1_545
Cs23 Se12 3.860629 1_545
Cs23 Se11 3.860724 1_455
Cs23 Se25 3.919089 1_555
Cs24 Se10 3.672083 1_555
Cs24 Se5 3.672083 1_555
Cs24 Se6 3.672083 1_555
Cs24 Fe0 3.811451 1_456
Cs25 Se7 3.672083 1_555
Cs25 Se9 3.672083 1_555
Cs25 Se2 3.672083 1_555
Cs25 Fe1 3.811451 1_564
Cs26 Se0 3.672083 1_555
Cs26 Se11 3.672083 1_555
Cs26 Se4 3.672083 1_555
Cs26 Fe2 3.811451 1_645
Cs27 Se3 3.672083 1_555
Cs27 Se8 3.672083 1_555
Cs27 Se1 3.672083 1_555
Cs27 Fe3 3.811451 1_555
Cs28 Se14 3.715189 1_555
Cs28 Se13 3.715189 1_555
Cs28 Se12 3.715189 1_555
Cs28 Se10 3.980143 1_555
Cs28 Se6 3.980143 1_555
Cs28 Se5 3.980143 1_555
Cs29 Se16 3.715189 1_555
Cs29 Se15 3.715189 1_555
Cs29 Se17 3.715189 1_555
Cs29 Se9 3.980143 1_555
Cs29 Se2 3.980143 1_555
Cs29 Se7 3.980143 1_555
Cs30 Se18 3.715189 1_555
Cs30 Se20 3.715189 1_555
Cs30 Se19 3.715189 1_555
Cs30 Se11 3.980143 1_555
Cs30 Se4 3.980143 1_555
Cs30 Se0 3.980143 1_555
Cs31 Se21 3.715189 1_555
Cs31 Se22 3.715189 1_555
Cs31 Se23 3.715189 1_555
Cs31 Se3 3.980143 1_555
Cs31 Se1 3.980143 1_555
Cs31 Se8 3.980143 1_555
Cs32 Se14 3.725124 1_555
Cs32 Se12 3.725124 1_555
Cs32 Se13 3.725124 1_555
Cs32 Se2 3.807431 1_555
Cs32 Se0 3.807431 1_565
Cs32 Se1 3.807431 1_565
Cs33 Se17 3.725124 1_555
Cs33 Se16 3.725124 1_555
Cs33 Se15 3.725124 1_555
Cs33 Se4 3.807431 1_555
Cs33 Se5 3.807431 1_655
Cs33 Se3 3.807431 1_655
Cs34 Se18 3.725124 1_555
Cs34 Se19 3.725124 1_555
Cs34 Se20 3.725124 1_555
Cs34 Se6 3.807431 1_555
Cs34 Se7 3.807431 1_556
Cs34 Se8 3.807431 1_556
Cs35 Se22 3.725124 1_555
Cs35 Se23 3.725124 1_555
Cs35 Se21 3.725124 1_555
Cs35 Se10 3.807431 1_544
Cs35 Se11 3.807431 1_454
Cs35 Se9 3.807431 1_445
Fe0 Se17 2.384577 1_555
Fe0 Se22 2.384577 1_655
Fe0 Se18 2.384577 1_554
Fe1 Se19 2.384577 1_555
Fe1 Se21 2.384577 1_556
Fe1 Se14 2.384577 1_545
Fe2 Se12 2.384577 1_555
Fe2 Se23 2.384577 1_565
Fe2 Se16 2.384577 1_455
Fe3 Se13 2.384577 1_555
Fe3 Se20 2.384577 1_555
Fe3 Se15 2.384577 1_555
Fe4 Se2 2.455344 1_545
Fe4 Se1 2.455344 1_555
Fe4 Se0 2.455344 1_555
Fe4 Se24 2.505395 1_555
Fe5 Se4 2.455344 1_455
Fe5 Se3 2.455344 1_555
Fe5 Se5 2.455344 1_555
Fe5 Se25 2.505395 1_555
Fe6 Se6 2.455344 1_554
Fe6 Se8 2.455344 1_555
Fe6 Se7 2.455344 1_555
Fe6 Se26 2.505395 1_555
Fe7 Se9 2.455344 1_556
Fe7 Se10 2.455344 1_655
Fe7 Se11 2.455344 1_565
Fe7 Se27 2.505395 1_555
