# generated using pymatgen
data_Nd2BiN
_symmetry_space_group_name_H-M   'P 1'
_cell_length_a   4.72524307
_cell_length_b   4.72524307
_cell_length_c   9.41295052
_cell_angle_alpha   90.00000000
_cell_angle_beta   90.00000000
_cell_angle_gamma   90.00000000
_symmetry_Int_Tables_number   1
_chemical_formula_structural   Nd2BiN
_chemical_formula_sum   'Nd4 Bi2 N2'
_cell_volume   210.17162566
_cell_formula_units_Z   2
loop_
 _symmetry_equiv_pos_site_id
 _symmetry_equiv_pos_as_xyz
  1  'x, y, z'
loop_
 _atom_site_type_symbol
 _atom_site_label
 _atom_site_symmetry_multiplicity
 _atom_site_fract_x
 _atom_site_fract_y
 _atom_site_fract_z
 _atom_site_occupancy
  Nd  Nd0  1  0.75000000  0.25000000  -0.00000000  1
  Nd  Nd1  1  0.25000000  0.75000000  -0.00000000  1
  Nd  Nd2  1  0.75000000  0.75000000  0.67579550  1
  Nd  Nd3  1  0.25000000  0.25000000  0.32420450  1
  Bi  Bi0  1  0.75000000  0.75000000  0.30606351  1
  Bi  Bi1  1  0.25000000  0.25000000  0.69393649  1
  N  N0  1  0.75000000  0.75000000  0.91757345  1
  N  N1  1  0.25000000  0.25000000  0.08242655  1
loop_
_geom_bond_atom_site_label_1
_geom_bond_atom_site_label_2
_geom_bond_distance
_geom_bond_site_symmetry_2
Bi0 Nd3 3.345612 1_555
Bi0 Nd3 3.345612 1_565
Bi0 Nd3 3.345612 1_655
Bi0 Nd3 3.345612 1_665
Bi0 Nd2 3.480269 1_555
Bi0 Nd1 3.725844 1_555
Bi0 Nd0 3.725844 1_555
Bi0 Nd1 3.725844 1_655
Bi0 Nd0 3.725844 1_565
Bi1 Nd2 3.345612 1_555
Bi1 Nd2 3.345612 1_545
Bi1 Nd2 3.345612 1_445
Bi1 Nd2 3.345612 1_455
Bi1 Nd3 3.480269 1_555
Bi1 Nd0 3.725844 1_456
Bi1 Nd1 3.725844 1_556
Bi1 Nd1 3.725844 1_546
Bi1 Nd0 3.725844 1_556
N0 Nd2 2.275844 1_555
N0 Nd0 2.486758 1_556
N0 Nd1 2.486758 1_656
N0 Nd1 2.486758 1_556
N0 Nd0 2.486758 1_566
N1 Nd3 2.275844 1_555
N1 Nd1 2.486758 1_555
N1 Nd1 2.486758 1_545
N1 Nd0 2.486758 1_455
N1 Nd0 2.486758 1_555
