# generated using pymatgen
data_Li7Mn2(CoO4)3
_symmetry_space_group_name_H-M   'P 1'
_cell_length_a   6.59090008
_cell_length_b   6.59090008
_cell_length_c   5.04855933
_cell_angle_alpha   82.83478496
_cell_angle_beta   82.83478496
_cell_angle_gamma   83.29670227
_symmetry_Int_Tables_number   1
_chemical_formula_structural   Li7Mn2(CoO4)3
_chemical_formula_sum   'Li7 Mn2 Co3 O12'
_cell_volume   214.75414563
_cell_formula_units_Z   1
loop_
 _symmetry_equiv_pos_site_id
 _symmetry_equiv_pos_as_xyz
  1  'x, y, z'
loop_
 _atom_site_type_symbol
 _atom_site_label
 _atom_site_symmetry_multiplicity
 _atom_site_fract_x
 _atom_site_fract_y
 _atom_site_fract_z
 _atom_site_occupancy
  Li  Li0  1  0.25979200  0.25396800  0.23993700  1
  Li  Li1  1  0.57897900  0.92040100  0.25103200  1
  Li  Li2  1  0.07959900  0.42102100  0.74896800  1
  Li  Li3  1  0.42072000  0.08965200  0.75391500  1
  Li  Li4  1  0.91034800  0.57928000  0.24608500  1
  Li  Li5  1  0.74603200  0.74020800  0.76006300  1
  Li  Li6  1  0.66572300  0.33427700  0.00000000  1
  Mn  Mn0  1  0.99708600  0.00291400  0.00000000  1
  Mn  Mn1  1  0.82936700  0.17063300  0.50000000  1
  Co  Co0  1  0.34295400  0.65704600  0.00000000  1
  Co  Co1  1  0.17571400  0.82428600  0.50000000  1
  Co  Co2  1  0.50483100  0.49516900  0.50000000  1
  O  O0  1  0.27141400  0.94996800  0.12129700  1
  O  O1  1  0.60741900  0.62684900  0.14244700  1
  O  O2  1  0.10330500  0.11585000  0.64140200  1
  O  O3  1  0.44567300  0.78922000  0.62436600  1
  O  O4  1  0.95534700  0.26569900  0.14362200  1
  O  O5  1  0.79080400  0.43946900  0.60937800  1
  O  O6  1  0.21078000  0.55432700  0.37563400  1
  O  O7  1  0.56053100  0.20919600  0.39062200  1
  O  O8  1  0.05003200  0.72858600  0.87870300  1
  O  O9  1  0.37315100  0.39258100  0.85755300  1
  O  O10  1  0.88415000  0.89669500  0.35859800  1
  O  O11  1  0.73430100  0.04465300  0.85637800  1
loop_
_geom_bond_atom_site_label_1
_geom_bond_atom_site_label_2
_geom_bond_distance
_geom_bond_site_symmetry_2
Li0 O4 2.113417 1_455
Li0 O9 2.116415 1_554
Li0 O6 2.150920 1_555
Li0 O0 2.152039 1_545
Li0 O7 2.185932 1_555
Li0 O2 2.288643 1_555
Li1 O1 2.057495 1_555
Li1 O7 2.096104 1_565
Li1 O3 2.104677 1_555
Li1 O10 2.131385 1_555
Li1 O0 2.187093 1_555
Li1 O11 2.228965 1_564
Li2 O9 2.057495 1_555
Li2 O5 2.096104 1_455
Li2 O6 2.104677 1_555
Li2 O2 2.131385 1_555
Li2 O8 2.187093 1_555
Li2 O4 2.228965 1_456
Li3 O7 2.054568 1_555
Li3 O9 2.105210 1_555
Li3 O0 2.141559 1_546
Li3 O3 2.143802 1_545
Li3 O11 2.170822 1_555
Li3 O2 2.217384 1_555
Li4 O5 2.054568 1_555
Li4 O1 2.105210 1_555
Li4 O8 2.141559 1_654
Li4 O6 2.143802 1_655
Li4 O4 2.170822 1_555
Li4 O10 2.217384 1_555
Li5 O11 2.113417 1_565
Li5 O1 2.116415 1_556
Li5 O3 2.150920 1_555
Li5 O8 2.152039 1_655
Li5 O5 2.185932 1_555
Li5 O10 2.288643 1_555
Li6 O4 2.106175 1_555
Li6 O11 2.106175 1_554
Li6 O5 2.106226 1_554
Li6 O7 2.106226 1_555
Li6 O9 2.118313 1_554
Li6 O1 2.118313 1_555
Mn0 O4 1.937396 1_555
Mn0 O11 1.937396 1_554
Mn0 O2 1.947059 1_654
Mn0 O10 1.947059 1_545
Mn0 O8 1.959972 1_644
Mn0 O0 1.959972 1_645
Mn1 O7 1.900786 1_555
Mn1 O5 1.900786 1_555
Mn1 O4 1.945941 1_555
Mn1 O11 1.945941 1_555
Mn1 O2 2.001213 1_655
Mn1 O10 2.001213 1_545
Co0 O9 1.947067 1_554
Co0 O1 1.947067 1_555
Co0 O3 2.053994 1_554
Co0 O6 2.053994 1_555
Co0 O8 2.082067 1_554
Co0 O0 2.082067 1_555
Co1 O3 1.939054 1_555
Co1 O6 1.939054 1_555
Co1 O8 2.040946 1_555
Co1 O0 2.040946 1_555
Co1 O10 2.115022 1_455
Co1 O2 2.115022 1_565
Co2 O1 1.977522 1_555
Co2 O9 1.977522 1_555
Co2 O5 2.009919 1_555
Co2 O7 2.009919 1_555
Co2 O3 2.090071 1_555
Co2 O6 2.090071 1_555
