# generated using pymatgen
data_Sm2FeGe4
_symmetry_space_group_name_H-M   'P 1'
_cell_length_a   4.22373700
_cell_length_b   4.26713900
_cell_length_c   8.18905715
_cell_angle_alpha   74.89794413
_cell_angle_beta   90.00000000
_cell_angle_gamma   90.00000000
_symmetry_Int_Tables_number   1
_chemical_formula_structural   Sm2FeGe4
_chemical_formula_sum   'Sm2 Fe1 Ge4'
_cell_volume   142.49621282
_cell_formula_units_Z   1
loop_
 _symmetry_equiv_pos_site_id
 _symmetry_equiv_pos_as_xyz
  1  'x, y, z'
loop_
 _atom_site_type_symbol
 _atom_site_label
 _atom_site_symmetry_multiplicity
 _atom_site_fract_x
 _atom_site_fract_y
 _atom_site_fract_z
 _atom_site_occupancy
  Sm  Sm0  1  0.25000000  0.89683400  0.20633200  1
  Sm  Sm1  1  0.75000000  0.10062300  0.79875300  1
  Fe  Fe0  1  0.25000000  0.69563300  0.60873400  1
  Ge  Ge0  1  0.25000000  0.54828700  0.90342500  1
  Ge  Ge1  1  0.75000000  0.44182900  0.11634300  1
  Ge  Ge2  1  0.25000000  0.25711800  0.48576500  1
  Ge  Ge3  1  0.75000000  0.75367600  0.49264800  1
loop_
_geom_bond_atom_site_label_1
_geom_bond_atom_site_label_2
_geom_bond_distance
_geom_bond_site_symmetry_2
Fe0 Ge3 2.302683 1_555
Fe0 Ge3 2.302683 1_455
Fe0 Ge0 2.329896 1_555
Fe0 Ge2 2.344637 1_555
Fe0 Ge2 2.344641 1_565
Fe0 Sm0 3.181484 1_555
Fe0 Sm1 3.356949 1_465
Fe0 Sm1 3.356949 1_565
Fe0 Sm1 3.356952 1_555
Fe0 Sm1 3.356952 1_455
Ge0 Ge1 2.700695 1_456
Ge0 Ge1 2.700695 1_556
Ge0 Sm1 3.113995 1_565
Ge0 Sm1 3.113995 1_465
Ge0 Sm1 3.113995 1_455
Ge0 Sm1 3.113995 1_555
Ge0 Sm0 3.207403 1_546
Ge0 Sm0 3.207406 1_556
Ge1 Sm0 3.085173 1_555
Ge1 Sm0 3.085173 1_655
Ge1 Sm0 3.085176 1_645
Ge1 Sm0 3.085176 1_545
Ge1 Sm1 3.294985 1_564
Ge1 Sm1 3.294990 1_554
Ge2 Sm0 3.071311 1_555
Ge2 Sm0 3.071314 1_545
Ge2 Sm1 3.253217 1_555
Ge2 Sm1 3.253217 1_455
Ge3 Sm0 3.095843 1_655
Ge3 Sm0 3.095843 1_555
Ge3 Sm1 3.226326 1_565
Ge3 Sm1 3.226328 1_555
