# generated using pymatgen
data_Sr2Cu2NiO7
_symmetry_space_group_name_H-M   'P 1'
_cell_length_a   13.07902448
_cell_length_b   13.07902448
_cell_length_c   13.07902448
_cell_angle_alpha   157.38031136
_cell_angle_beta   157.08732052
_cell_angle_gamma   32.41609454
_symmetry_Int_Tables_number   1
_chemical_formula_structural   Sr2Cu2NiO7
_chemical_formula_sum   'Sr4 Cu4 Ni2 O14'
_cell_volume   334.74021680
_cell_formula_units_Z   2
loop_
 _symmetry_equiv_pos_site_id
 _symmetry_equiv_pos_as_xyz
  1  'x, y, z'
loop_
 _atom_site_type_symbol
 _atom_site_label
 _atom_site_symmetry_multiplicity
 _atom_site_fract_x
 _atom_site_fract_y
 _atom_site_fract_z
 _atom_site_occupancy
  Sr  Sr0  1  0.14634000  0.62862100  0.47268000  1
  Sr  Sr1  1  0.85366000  0.32634000  0.48228200  1
  Sr  Sr2  1  0.65594100  0.12862100  0.48228200  1
  Sr  Sr3  1  0.34405900  0.82634000  0.47268000  1
  Cu  Cu0  1  0.06033700  0.03839100  0.97912400  1
  Cu  Cu1  1  0.93966300  0.91878700  0.97805400  1
  Cu  Cu2  1  0.55926700  0.53839100  0.97805400  1
  Cu  Cu3  1  0.44073300  0.41878700  0.97912400  1
  Ni  Ni0  1  0.67735000  0.78162300  0.95897300  1
  Ni  Ni1  1  0.32265000  0.28162300  0.10427300  1
  O  O0  1  0.33661600  0.64760000  0.48421600  1
  O  O1  1  0.66338400  0.14760000  0.31098400  1
  O  O2  1  0.82564700  0.30445000  0.97866100  1
  O  O3  1  0.17435300  0.15301400  0.47880400  1
  O  O4  1  0.82578900  0.80445000  0.47880400  1
  O  O5  1  0.17421100  0.65301400  0.97866100  1
  O  O6  1  0.32533800  0.80494100  0.97686600  1
  O  O7  1  0.67466200  0.65152800  0.47960300  1
  O  O8  1  0.32807500  0.30494100  0.47960300  1
  O  O9  1  0.67192500  0.15152800  0.97686600  1
  O  O10  1  0.69842900  0.64910000  0.98520400  1
  O  O11  1  0.30157100  0.28677600  0.95067200  1
  O  O12  1  0.16389600  0.14910000  0.95067200  1
  O  O13  1  0.83610400  0.78677600  0.98520400  1
loop_
_geom_bond_atom_site_label_1
_geom_bond_atom_site_label_2
_geom_bond_distance
_geom_bond_site_symmetry_2
Cu0 O6 1.868493 1_545
Cu0 O4 1.869782 1_445
Cu0 O2 1.871308 1_455
Cu0 O8 1.875846 1_556
Cu1 O7 1.868493 1_555
Cu1 O5 1.869789 1_655
Cu1 O3 1.871314 1_666
Cu1 O9 1.875846 1_565
Cu2 O8 1.868493 1_555
Cu2 O2 1.869789 1_555
Cu2 O4 1.871309 1_556
Cu2 O6 1.875846 1_555
Cu3 O9 1.868493 1_555
Cu3 O3 1.869788 1_555
Cu3 O5 1.871308 1_555
Cu3 O7 1.875846 1_556
Ni0 O10 1.820637 1_555
Ni0 O13 1.820648 1_555
Ni0 O1 1.878855 1_566
Ni0 O0 1.899120 1_555
Ni1 O11 1.820636 1_554
Ni1 O12 1.820648 1_554
Ni1 O0 1.878855 1_555
Ni1 O1 1.899120 1_555
O0 Sr3 2.561200 1_555
O0 Sr0 2.561200 1_555
O1 Sr1 2.561189 1_555
O1 Sr2 2.561213 1_555
O2 Sr0 2.615595 1_656
O2 Sr2 2.621513 1_555
O3 Sr1 2.615595 1_455
O3 Sr3 2.621516 1_545
O4 Sr2 2.615595 1_565
O4 Sr0 2.621534 1_655
O5 Sr3 2.615595 1_556
O5 Sr1 2.621531 1_455
O6 Sr0 2.623758 1_555
O6 Sr2 2.627143 1_566
O7 Sr1 2.623767 1_555
O7 Sr3 2.627149 1_555
O8 Sr2 2.623749 1_555
O8 Sr0 2.627149 1_555
O9 Sr3 2.623758 1_545
O9 Sr1 2.627161 1_556
O10 Sr0 2.595565 1_656
O10 Sr2 2.627412 1_555
O10 Sr2 2.721323 1_566
O10 Sr0 2.815723 1_555
O11 Sr1 2.595559 1_455
O11 Sr3 2.627416 1_545
O11 Sr3 2.721312 1_556
O11 Sr1 2.815722 1_556
O12 Sr2 2.595565 1_455
O12 Sr0 2.627410 1_545
O12 Sr0 2.721311 1_556
O12 Sr2 2.815723 1_556
O13 Sr3 2.595564 1_656
O13 Sr1 2.627404 1_555
O13 Sr1 2.721310 1_566
O13 Sr3 2.815717 1_555
