# generated using pymatgen
data_Li5Mn(CoO4)2
_symmetry_space_group_name_H-M   'P 1'
_cell_length_a   5.90796400
_cell_length_b   4.97136800
_cell_length_c   5.07106476
_cell_angle_alpha   71.59213750
_cell_angle_beta   90.00000000
_cell_angle_gamma   90.00000000
_symmetry_Int_Tables_number   1
_chemical_formula_structural   Li5Mn(CoO4)2
_chemical_formula_sum   'Li5 Mn1 Co2 O8'
_cell_volume   141.31964797
_cell_formula_units_Z   1
loop_
 _symmetry_equiv_pos_site_id
 _symmetry_equiv_pos_as_xyz
  1  'x, y, z'
loop_
 _atom_site_type_symbol
 _atom_site_label
 _atom_site_symmetry_multiplicity
 _atom_site_fract_x
 _atom_site_fract_y
 _atom_site_fract_z
 _atom_site_occupancy
  Li  Li0  1  0.00000000  0.50000000  0.50000000  1
  Li  Li1  1  0.73999600  0.00000000  0.50000000  1
  Li  Li2  1  0.50000000  0.50000000  0.50000000  1
  Li  Li3  1  0.26000400  0.00000000  0.50000000  1
  Li  Li4  1  0.50000000  0.00000000  0.00000000  1
  Mn  Mn0  1  0.00000000  0.00000000  0.00000000  1
  Co  Co0  1  0.74091900  0.50000000  0.00000000  1
  Co  Co1  1  0.25908100  0.50000000  0.00000000  1
  O  O0  1  0.00000000  0.75766700  0.77115400  1
  O  O1  1  0.76848100  0.24984100  0.77957900  1
  O  O2  1  0.50000000  0.72451900  0.76030500  1
  O  O3  1  0.23151900  0.24984100  0.77957900  1
  O  O4  1  0.00000000  0.24233300  0.22884600  1
  O  O5  1  0.76848100  0.75015900  0.22042100  1
  O  O6  1  0.50000000  0.27548100  0.23969500  1
  O  O7  1  0.23151900  0.75015900  0.22042100  1
loop_
_geom_bond_atom_site_label_1
_geom_bond_atom_site_label_2
_geom_bond_distance
_geom_bond_site_symmetry_2
Li0 O1 2.077021 1_455
Li0 O5 2.077021 1_455
Li0 O7 2.077021 1_555
Li0 O3 2.077021 1_555
Li0 O0 2.154992 1_555
Li0 O4 2.154992 1_555
Li1 O6 2.118187 1_555
Li1 O2 2.118187 1_545
Li1 O4 2.157656 1_655
Li1 O0 2.157656 1_645
Li1 O5 2.166379 1_545
Li1 O1 2.166379 1_555
Li2 O6 1.979598 1_555
Li2 O2 1.979598 1_555
Li2 O1 2.226899 1_555
Li2 O5 2.226899 1_555
Li2 O3 2.226899 1_555
Li2 O7 2.226899 1_555
Li3 O6 2.118187 1_555
Li3 O2 2.118187 1_545
Li3 O0 2.157656 1_545
Li3 O4 2.157656 1_555
Li3 O7 2.166379 1_545
Li3 O3 2.166379 1_555
Li4 O2 2.098659 1_544
Li4 O6 2.098659 1_555
Li4 O7 2.105052 1_545
Li4 O3 2.105052 1_554
Li4 O5 2.105052 1_545
Li4 O1 2.105052 1_554
Mn0 O4 1.918613 1_555
Mn0 O0 1.918613 1_544
Mn0 O7 1.945812 1_545
Mn0 O1 1.945812 1_454
Mn0 O3 1.945812 1_554
Mn0 O5 1.945812 1_445
Co0 O1 1.923661 1_554
Co0 O5 1.923661 1_555
Co0 O2 1.972903 1_554
Co0 O6 1.972903 1_555
Co0 O4 2.095619 1_655
Co0 O0 2.095619 1_654
Co1 O3 1.923661 1_554
Co1 O7 1.923661 1_555
Co1 O2 1.972903 1_554
Co1 O6 1.972903 1_555
Co1 O0 2.095619 1_554
Co1 O4 2.095619 1_555
