# generated using pymatgen
data_YLuTh2(BRh)16
_symmetry_space_group_name_H-M   'P 1'
_cell_length_a   5.35784800
_cell_length_b   5.35954900
_cell_length_c   15.04919600
_cell_angle_alpha   90.00000000
_cell_angle_beta   90.00000000
_cell_angle_gamma   90.00000000
_symmetry_Int_Tables_number   1
_chemical_formula_structural   YLuTh2(BRh)16
_chemical_formula_sum   'Y1 Lu1 Th2 B16 Rh16'
_cell_volume   432.14742842
_cell_formula_units_Z   1
loop_
 _symmetry_equiv_pos_site_id
 _symmetry_equiv_pos_as_xyz
  1  'x, y, z'
loop_
 _atom_site_type_symbol
 _atom_site_label
 _atom_site_symmetry_multiplicity
 _atom_site_fract_x
 _atom_site_fract_y
 _atom_site_fract_z
 _atom_site_occupancy
  Y  Y0  1  0.00000000  0.50000000  0.87515600  1
  Lu  Lu0  1  0.50000000  0.00000000  0.12488200  1
  Th  Th0  1  0.50000000  0.00000000  0.62500100  1
  Th  Th1  1  0.00000000  0.50000000  0.37496000  1
  B  B0  1  0.33125300  0.50000000  0.19822700  1
  B  B1  1  0.33323800  0.50000000  0.70210600  1
  B  B2  1  0.66874700  0.50000000  0.19822700  1
  B  B3  1  0.66676200  0.50000000  0.70210600  1
  B  B4  1  0.50000000  0.33450400  0.45004300  1
  B  B5  1  0.50000000  0.33124700  0.95137500  1
  B  B6  1  0.50000000  0.66549600  0.45004300  1
  B  B7  1  0.50000000  0.66875300  0.95137500  1
  B  B8  1  0.16661900  0.00000000  0.29785100  1
  B  B9  1  0.16860200  0.00000000  0.80147300  1
  B  B10  1  0.83338100  0.00000000  0.29785100  1
  B  B11  1  0.83139800  0.00000000  0.80147300  1
  B  B12  1  0.00000000  0.16916300  0.04932200  1
  B  B13  1  0.00000000  0.16552500  0.54963100  1
  B  B14  1  0.00000000  0.83083700  0.04932200  1
  B  B15  1  0.00000000  0.83447500  0.54963100  1
  Rh  Rh0  1  0.75142400  0.50000000  0.05288400  1
  Rh  Rh1  1  0.75061900  0.50000000  0.55341400  1
  Rh  Rh2  1  0.24857600  0.50000000  0.05288400  1
  Rh  Rh3  1  0.24938100  0.50000000  0.55341400  1
  Rh  Rh4  1  0.50000000  0.75191000  0.29942700  1
  Rh  Rh5  1  0.50000000  0.75076100  0.80448600  1
  Rh  Rh6  1  0.50000000  0.24809000  0.29942700  1
  Rh  Rh7  1  0.50000000  0.24923900  0.80448600  1
  Rh  Rh8  1  0.74949300  0.00000000  0.44629100  1
  Rh  Rh9  1  0.74744200  0.00000000  0.94892800  1
  Rh  Rh10  1  0.25050700  0.00000000  0.44629100  1
  Rh  Rh11  1  0.25255800  0.00000000  0.94892800  1
  Rh  Rh12  1  0.00000000  0.74971600  0.19529600  1
  Rh  Rh13  1  0.00000000  0.74868300  0.69924700  1
  Rh  Rh14  1  0.00000000  0.25028400  0.19529600  1
  Rh  Rh15  1  0.00000000  0.25131700  0.69924700  1
loop_
_geom_bond_atom_site_label_1
_geom_bond_atom_site_label_2
_geom_bond_distance
_geom_bond_site_symmetry_2
Lu0 Rh4 2.944121 1_545
Lu0 Rh6 2.944121 1_555
Lu0 Rh11 2.961310 1_554
Lu0 Rh9 2.961310 1_554
Lu0 Rh12 3.177880 1_645
Lu0 Rh14 3.177880 1_555
Lu0 Rh12 3.177880 1_545
Lu0 Rh14 3.177880 1_655
Lu0 Rh2 3.189019 1_555
Lu0 Rh0 3.189019 1_545
Lu0 Rh2 3.189019 1_545
Lu0 Rh0 3.189019 1_555
B0 B2 1.808242 1_555
B0 Rh14 2.223307 1_555
B0 Rh12 2.223307 1_555
B0 Rh4 2.227046 1_555
B0 Rh6 2.227046 1_555
B0 Rh2 2.231700 1_555
B0 Lu0 3.035945 1_565
B0 Lu0 3.035945 1_555
B0 Th1 3.197479 1_555
B1 B3 1.786971 1_555
B1 Rh13 2.228469 1_555
B1 Rh15 2.228469 1_555
B1 Rh5 2.231240 1_555
B1 Rh7 2.231240 1_555
B1 Rh3 2.282355 1_555
B1 Th0 3.053844 1_565
B1 Th0 3.053844 1_555
B1 Y0 3.157527 1_555
B2 Rh14 2.223307 1_655
B2 Rh12 2.223307 1_655
B2 Rh4 2.227046 1_555
B2 Rh6 2.227046 1_555
B2 Rh0 2.231700 1_555
B2 Lu0 3.035945 1_565
B2 Lu0 3.035945 1_555
B2 Th1 3.197479 1_655
B3 Rh15 2.228469 1_655
B3 Rh13 2.228469 1_655
B3 Rh5 2.231240 1_555
B3 Rh7 2.231240 1_555
B3 Rh1 2.282355 1_555
B3 Th0 3.053844 1_565
B3 Th0 3.053844 1_555
B3 Y0 3.157527 1_655
B4 B6 1.773968 1_555
B4 Rh8 2.237001 1_555
B4 Rh10 2.237001 1_555
B4 Rh3 2.238268 1_555
B4 Rh1 2.238268 1_555
B4 Rh6 2.313482 1_555
B4 Th1 3.039759 1_555
B4 Th1 3.039759 1_655
B4 Th0 3.185383 1_555
B5 B7 1.808880 1_555
B5 Rh11 2.216032 1_555
B5 Rh9 2.216032 1_555
B5 Rh0 2.228524 1_556
B5 Rh2 2.228524 1_556
B5 Rh7 2.253833 1_555
B5 Y0 3.051284 1_555
B5 Y0 3.051284 1_655
B5 Lu0 3.157510 1_556
B6 Rh10 2.237001 1_565
B6 Rh8 2.237001 1_565
B6 Rh3 2.238268 1_555
B6 Rh1 2.238268 1_555
B6 Rh4 2.313482 1_555
B6 Th1 3.039759 1_555
B6 Th1 3.039759 1_655
B6 Th0 3.185383 1_565
B7 Rh11 2.216032 1_565
B7 Rh9 2.216032 1_565
B7 Rh2 2.228524 1_556
B7 Rh0 2.228524 1_556
B7 Rh5 2.253833 1_555
B7 Y0 3.051284 1_555
B7 Y0 3.051284 1_655
B7 Lu0 3.157510 1_566
B8 Rh4 2.226895 1_545
B8 Rh6 2.226895 1_555
B8 Rh12 2.231215 1_545
B8 Rh14 2.231215 1_555
B8 Rh10 2.278669 1_555
B8 Th1 3.053643 1_545
B8 Th1 3.053643 1_555
B8 Lu0 3.156955 1_555
B9 Rh7 2.222414 1_555
B9 Rh5 2.222414 1_545
B9 Rh15 2.235403 1_555
B9 Rh13 2.235403 1_545
B9 Rh11 2.264211 1_555
B9 Y0 3.037567 1_555
B9 Y0 3.037567 1_545
B9 Th0 3.194645 1_555
B10 B8 1.785439 1_655
B10 Rh4 2.226895 1_545
B10 Rh6 2.226895 1_555
B10 Rh12 2.231215 1_645
B10 Rh14 2.231215 1_655
B10 Rh8 2.278669 1_555
B10 Th1 3.053643 1_645
B10 Th1 3.053643 1_655
B10 Lu0 3.156955 1_555
B11 B9 1.806688 1_655
B11 Rh7 2.222414 1_555
B11 Rh5 2.222414 1_545
B11 Rh13 2.235403 1_645
B11 Rh15 2.235403 1_655
B11 Rh9 2.264211 1_555
B11 Y0 3.037567 1_645
B11 Y0 3.037567 1_655
B11 Th0 3.194645 1_555
B12 B14 1.813275 1_545
B12 Rh0 2.218258 1_455
B12 Rh2 2.218258 1_555
B12 Rh9 2.221648 1_454
B12 Rh11 2.221648 1_554
B12 Rh14 2.239401 1_555
B12 Lu0 3.048223 1_555
B12 Lu0 3.048223 1_455
B12 Y0 3.164484 1_554
B13 B15 1.774279 1_545
B13 Rh1 2.236530 1_455
B13 Rh3 2.236530 1_555
B13 Rh10 2.237645 1_555
B13 Rh8 2.237645 1_455
B13 Rh15 2.298070 1_555
B13 Th0 3.041413 1_555
B13 Th0 3.041413 1_455
B13 Th1 3.181727 1_555
B14 Rh2 2.218258 1_555
B14 Rh0 2.218258 1_455
B14 Rh11 2.221648 1_564
B14 Rh9 2.221648 1_464
B14 Rh12 2.239401 1_555
B14 Lu0 3.048223 1_465
B14 Lu0 3.048223 1_565
B14 Y0 3.164484 1_554
B15 Rh1 2.236530 1_455
B15 Rh3 2.236530 1_555
B15 Rh10 2.237645 1_565
B15 Rh8 2.237645 1_465
B15 Rh13 2.298070 1_555
B15 Th0 3.041413 1_565
B15 Th0 3.041413 1_465
B15 Th1 3.181727 1_555
Rh0 Y0 2.987909 1_654
Rh1 Th1 2.999612 1_655
Rh1 Th0 3.185103 1_565
Rh1 Th0 3.185103 1_555
Rh2 Y0 2.987909 1_554
Rh3 Th1 2.999612 1_555
Rh3 Th0 3.185103 1_565
Rh3 Th0 3.185103 1_555
Rh4 Th1 3.208049 1_555
Rh4 Th1 3.208049 1_655
Rh5 Th0 3.013362 1_565
Rh5 Y0 3.180246 1_555
Rh5 Y0 3.180246 1_655
Rh6 Th1 3.208049 1_555
Rh6 Th1 3.208049 1_655
Rh7 Th0 3.013362 1_555
Rh7 Y0 3.180246 1_555
Rh7 Y0 3.180246 1_655
Rh8 Th0 3.003329 1_555
Rh8 Th1 3.183549 1_645
Rh8 Th1 3.183549 1_655
Rh9 Y0 3.200753 1_655
Rh9 Y0 3.200753 1_645
Rh10 Th0 3.003329 1_555
Rh10 Th1 3.183549 1_555
Rh10 Th1 3.183549 1_545
Rh11 Y0 3.200753 1_555
Rh11 Y0 3.200753 1_545
Rh12 Th1 3.016910 1_555
Rh13 Y0 2.963878 1_555
Rh13 Th0 3.199899 1_565
Rh13 Th0 3.199899 1_465
Rh14 Th1 3.016910 1_555
Rh15 Y0 2.963878 1_555
Rh15 Th0 3.199899 1_555
Rh15 Th0 3.199899 1_455
