# generated using pymatgen
data_CaNdMn2O6
_symmetry_space_group_name_H-M   'P 1'
_cell_length_a   5.46175200
_cell_length_b   5.51974000
_cell_length_c   7.67900100
_cell_angle_alpha   90.00000000
_cell_angle_beta   90.00000000
_cell_angle_gamma   90.00000000
_symmetry_Int_Tables_number   1
_chemical_formula_structural   CaNdMn2O6
_chemical_formula_sum   'Ca2 Nd2 Mn4 O12'
_cell_volume   231.50230626
_cell_formula_units_Z   2
loop_
 _symmetry_equiv_pos_site_id
 _symmetry_equiv_pos_as_xyz
  1  'x, y, z'
loop_
 _atom_site_type_symbol
 _atom_site_label
 _atom_site_symmetry_multiplicity
 _atom_site_fract_x
 _atom_site_fract_y
 _atom_site_fract_z
 _atom_site_occupancy
  Ca  Ca0  1  0.25854000  0.53819600  0.50000000  1
  Ca  Ca1  1  0.74146000  0.03819600  0.50000000  1
  Nd  Nd0  1  0.24209200  0.45630500  0.00000000  1
  Nd  Nd1  1  0.75790800  0.95630500  0.00000000  1
  Mn  Mn0  1  0.74906500  0.49889100  0.74383400  1
  Mn  Mn1  1  0.25093500  0.99889200  0.25616600  1
  Mn  Mn2  1  0.74906500  0.49889100  0.25616600  1
  Mn  Mn3  1  0.25093500  0.99889200  0.74383400  1
  O  O0  1  0.96854800  0.21722000  0.79669200  1
  O  O1  1  0.03145200  0.71722000  0.20330800  1
  O  O2  1  0.54333600  0.79339900  0.28592200  1
  O  O3  1  0.45666400  0.29339900  0.71407800  1
  O  O4  1  0.54333600  0.79339900  0.71407800  1
  O  O5  1  0.45666400  0.29339900  0.28592200  1
  O  O6  1  0.96854800  0.21722000  0.20330800  1
  O  O7  1  0.03145200  0.71722000  0.79669200  1
  O  O8  1  0.32496000  0.01297700  0.00000000  1
  O  O9  1  0.67504000  0.51297700  0.00000000  1
  O  O10  1  0.16584200  0.97350000  0.50000000  1
  O  O11  1  0.83415800  0.47350000  0.50000000  1
loop_
_geom_bond_atom_site_label_1
_geom_bond_atom_site_label_2
_geom_bond_distance
_geom_bond_site_symmetry_2
Ca0 O11 2.345217 1_455
Ca0 O5 2.387291 1_555
Ca0 O3 2.387291 1_555
Ca0 O10 2.455527 1_555
Ca0 O4 2.665758 1_555
Ca0 O2 2.665758 1_555
Ca0 O7 2.775870 1_555
Ca0 O1 2.775870 1_555
Ca1 O10 2.345217 1_645
Ca1 O2 2.387291 1_545
Ca1 O4 2.387291 1_545
Ca1 O11 2.455527 1_555
Ca1 O5 2.665758 1_555
Ca1 O3 2.665758 1_555
Ca1 O0 2.775870 1_555
Ca1 O6 2.775870 1_555
Nd0 O9 2.385256 1_555
Nd0 O1 2.415584 1_555
Nd0 O7 2.415584 1_554
Nd0 O8 2.488560 1_555
Nd0 O6 2.532005 1_455
Nd0 O0 2.532005 1_454
Nd0 O3 2.646250 1_554
Nd0 O5 2.646250 1_555
Nd1 O8 2.385256 1_565
Nd1 O6 2.415584 1_565
Nd1 O0 2.415584 1_564
Nd1 O9 2.488560 1_555
Nd1 O1 2.532005 1_655
Nd1 O7 2.532005 1_654
Nd1 O4 2.646250 1_554
Nd1 O2 2.646250 1_555
Mn0 O11 1.934303 1_555
Mn0 O3 1.972116 1_555
Mn0 O4 1.989316 1_555
Mn0 O7 1.998960 1_655
Mn0 O0 2.004752 1_555
Mn0 O9 2.009723 1_556
Mn1 O10 1.934304 1_555
Mn1 O2 1.972119 1_555
Mn1 O5 1.989312 1_565
Mn1 O6 1.998956 1_465
Mn1 O1 2.004756 1_555
Mn1 O8 2.009723 1_565
Mn2 O11 1.934303 1_555
Mn2 O5 1.972116 1_555
Mn2 O2 1.989316 1_555
Mn2 O1 1.998960 1_655
Mn2 O6 2.004752 1_555
Mn2 O9 2.009723 1_555
Mn3 O10 1.934304 1_555
Mn3 O4 1.972119 1_555
Mn3 O3 1.989312 1_565
Mn3 O0 1.998956 1_465
Mn3 O7 2.004756 1_555
Mn3 O8 2.009723 1_566
