# generated using pymatgen
data_Ho2Nb3Ge4
_symmetry_space_group_name_H-M   'P 1'
_cell_length_a   6.97562355
_cell_length_b   7.16149961
_cell_length_c   13.51697310
_cell_angle_alpha   90.00000000
_cell_angle_beta   90.00000000
_cell_angle_gamma   90.00000000
_symmetry_Int_Tables_number   1
_chemical_formula_structural   Ho2Nb3Ge4
_chemical_formula_sum   'Ho8 Nb12 Ge16'
_cell_volume   675.25289891
_cell_formula_units_Z   4
loop_
 _symmetry_equiv_pos_site_id
 _symmetry_equiv_pos_as_xyz
  1  'x, y, z'
loop_
 _atom_site_type_symbol
 _atom_site_label
 _atom_site_symmetry_multiplicity
 _atom_site_fract_x
 _atom_site_fract_y
 _atom_site_fract_z
 _atom_site_occupancy
  Ho  Ho0  1  0.49719743  0.32527168  0.09544726  1
  Ho  Ho1  1  0.99719743  0.17472832  0.40455274  1
  Ho  Ho2  1  0.50280257  0.67472832  0.59544726  1
  Ho  Ho3  1  0.00280257  0.82527168  0.90455274  1
  Ho  Ho4  1  0.50280257  0.67472832  0.90455274  1
  Ho  Ho5  1  0.00280257  0.82527168  0.59544726  1
  Ho  Ho6  1  0.49719743  0.32527168  0.40455274  1
  Ho  Ho7  1  0.99719743  0.17472832  0.09544726  1
  Nb  Nb0  1  0.66468294  0.01271733  0.75000000  1
  Nb  Nb1  1  0.16468294  0.48728267  0.75000000  1
  Nb  Nb2  1  0.33531706  0.98728267  0.25000000  1
  Nb  Nb3  1  0.83531706  0.51271733  0.25000000  1
  Nb  Nb4  1  0.84052521  0.32790208  0.62652025  1
  Nb  Nb5  1  0.34052521  0.17209792  0.87347975  1
  Nb  Nb6  1  0.15947479  0.67209792  0.12652025  1
  Nb  Nb7  1  0.65947479  0.82790208  0.37347975  1
  Nb  Nb8  1  0.15947479  0.67209792  0.37347975  1
  Nb  Nb9  1  0.65947479  0.82790208  0.12652025  1
  Nb  Nb10  1  0.84052521  0.32790208  0.87347975  1
  Nb  Nb11  1  0.34052521  0.17209792  0.62652025  1
  Ge  Ge0  1  0.80452268  0.63737409  0.75000000  1
  Ge  Ge1  1  0.30452268  0.86262591  0.75000000  1
  Ge  Ge2  1  0.19547732  0.36262591  0.25000000  1
  Ge  Ge3  1  0.69547732  0.13737409  0.25000000  1
  Ge  Ge4  1  0.54034536  0.38036057  0.75000000  1
  Ge  Ge5  1  0.04034536  0.11963943  0.75000000  1
  Ge  Ge6  1  0.45965464  0.61963943  0.25000000  1
  Ge  Ge7  1  0.95965464  0.88036057  0.25000000  1
  Ge  Ge8  1  0.67501096  0.03802303  0.54112149  1
  Ge  Ge9  1  0.17501096  0.46197697  0.95887851  1
  Ge  Ge10  1  0.32498904  0.96197697  0.04112149  1
  Ge  Ge11  1  0.82498904  0.53802303  0.45887851  1
  Ge  Ge12  1  0.32498904  0.96197697  0.45887851  1
  Ge  Ge13  1  0.82498904  0.53802303  0.04112149  1
  Ge  Ge14  1  0.67501096  0.03802303  0.95887851  1
  Ge  Ge15  1  0.17501096  0.46197697  0.54112149  1
loop_
_geom_bond_atom_site_label_1
_geom_bond_atom_site_label_2
_geom_bond_distance
_geom_bond_site_symmetry_2
Ge0 Ge4 2.604560 1_555
Ge0 Nb1 2.732623 1_655
Ge0 Nb10 2.785819 1_555
Ge0 Nb4 2.785819 1_555
Ge0 Ho5 2.843946 1_655
Ge0 Ho3 2.843946 1_655
Ge0 Nb0 2.859544 1_565
Ge0 Ho4 2.977506 1_555
Ge0 Ho2 2.977506 1_555
Ge1 Ge5 2.604560 1_565
Ge1 Nb0 2.732623 1_565
Ge1 Nb5 2.785819 1_565
Ge1 Nb11 2.785819 1_565
Ge1 Ho2 2.843946 1_555
Ge1 Ho4 2.843946 1_555
Ge1 Nb1 2.859544 1_555
Ge1 Ho3 2.977506 1_555
Ge1 Ho5 2.977506 1_555
Ge2 Ge6 2.604560 1_555
Ge2 Nb3 2.732623 1_455
Ge2 Nb6 2.785819 1_555
Ge2 Nb8 2.785819 1_555
Ge2 Ho7 2.843946 1_455
Ge2 Ho1 2.843946 1_455
Ge2 Nb2 2.859544 1_545
Ge2 Ho0 2.977506 1_555
Ge2 Ho6 2.977506 1_555
Ge3 Ge7 2.604560 1_545
Ge3 Nb2 2.732623 1_545
Ge3 Nb7 2.785819 1_545
Ge3 Nb9 2.785819 1_545
Ge3 Ho0 2.843946 1_555
Ge3 Ho6 2.843946 1_555
Ge3 Nb3 2.859544 1_555
Ge3 Ho7 2.977506 1_555
Ge3 Ho1 2.977506 1_555
Ge4 Nb11 2.636886 1_555
Ge4 Nb5 2.636886 1_555
Ge4 Nb10 2.703984 1_555
Ge4 Nb4 2.703984 1_555
Ge4 Nb1 2.730063 1_555
Ge4 Nb0 2.772058 1_555
Ge4 Ho4 2.979431 1_555
Ge4 Ho2 2.979431 1_555
Ge5 Nb10 2.636886 1_455
Ge5 Nb4 2.636886 1_455
Ge5 Nb5 2.703984 1_555
Ge5 Nb11 2.703984 1_555
Ge5 Nb0 2.730063 1_455
Ge5 Nb1 2.772058 1_555
Ge5 Ho5 2.979431 1_545
Ge5 Ho3 2.979431 1_545
Ge6 Nb7 2.636886 1_555
Ge6 Nb9 2.636886 1_555
Ge6 Nb6 2.703984 1_555
Ge6 Nb8 2.703984 1_555
Ge6 Nb3 2.730063 1_555
Ge6 Nb2 2.772058 1_555
Ge6 Ho6 2.979431 1_555
Ge6 Ho0 2.979431 1_555
Ge7 Nb8 2.636886 1_655
Ge7 Nb6 2.636886 1_655
Ge7 Nb9 2.703984 1_555
Ge7 Nb7 2.703984 1_555
Ge7 Nb2 2.730063 1_655
Ge7 Nb3 2.772058 1_555
Ge7 Ho7 2.979431 1_565
Ge7 Ho1 2.979431 1_565
Ge8 Nb4 2.641051 1_555
Ge8 Nb7 2.722298 1_545
Ge8 Nb11 2.774611 1_555
Ge8 Nb0 2.830133 1_555
Ge8 Ho5 2.844109 1_645
Ge8 Ho2 2.958256 1_545
Ge8 Ho6 3.029519 1_555
Ge8 Ho1 3.068747 1_555
Ge9 Nb5 2.641051 1_555
Ge9 Nb6 2.722298 1_556
Ge9 Nb10 2.774611 1_455
Ge9 Nb1 2.830133 1_555
Ge9 Ho4 2.844109 1_555
Ge9 Ho3 2.958256 1_555
Ge9 Ho7 3.029519 1_456
Ge9 Ho0 3.068747 1_556
Ge10 Nb6 2.641051 1_555
Ge10 Nb5 2.722298 1_564
Ge10 Ge14 2.737505 1_564
Ge10 Nb9 2.774611 1_555
Ge10 Nb2 2.830133 1_555
Ge10 Ho7 2.844109 1_465
Ge10 Ho0 2.958256 1_565
Ge10 Ho4 3.029519 1_554
Ge10 Ho3 3.068747 1_554
Ge11 Nb7 2.641051 1_555
Ge11 Nb4 2.722298 1_555
Ge11 Ge15 2.737505 1_655
Ge11 Nb8 2.774611 1_655
Ge11 Nb3 2.830133 1_555
Ge11 Ho6 2.844109 1_555
Ge11 Ho1 2.958256 1_555
Ge11 Ho5 3.029519 1_655
Ge11 Ho2 3.068747 1_555
Ge12 Nb8 2.641051 1_555
Ge12 Nb11 2.722298 1_565
Ge12 Ge8 2.737505 1_565
Ge12 Nb7 2.774611 1_555
Ge12 Nb2 2.830133 1_555
Ge12 Ho1 2.844109 1_465
Ge12 Ho6 2.958256 1_565
Ge12 Ho2 3.029519 1_555
Ge12 Ho5 3.068747 1_555
Ge13 Nb9 2.641051 1_555
Ge13 Nb10 2.722298 1_554
Ge13 Ge9 2.737505 1_654
Ge13 Nb6 2.774611 1_655
Ge13 Nb3 2.830133 1_555
Ge13 Ho0 2.844109 1_555
Ge13 Ho7 2.958256 1_555
Ge13 Ho3 3.029519 1_654
Ge13 Ho4 3.068747 1_554
Ge14 Nb10 2.641051 1_555
Ge14 Nb9 2.722298 1_546
Ge14 Nb5 2.774611 1_555
Ge14 Nb0 2.830133 1_555
Ge14 Ho3 2.844109 1_645
Ge14 Ho4 2.958256 1_545
Ge14 Ho0 3.029519 1_556
Ge14 Ho7 3.068747 1_556
Ge15 Nb11 2.641051 1_555
Ge15 Nb8 2.722298 1_555
Ge15 Nb4 2.774611 1_455
Ge15 Nb1 2.830133 1_555
Ge15 Ho2 2.844109 1_555
Ge15 Ho5 2.958256 1_555
Ge15 Ho1 3.029519 1_455
Ge15 Ho6 3.068747 1_555
