# generated using pymatgen
data_Li9Co7O16
_symmetry_space_group_name_H-M   'P 1'
_cell_length_a   5.89229200
_cell_length_b   7.63640399
_cell_length_c   7.70697299
_cell_angle_alpha   65.43367764
_cell_angle_beta   67.94429432
_cell_angle_gamma   68.71618695
_symmetry_Int_Tables_number   1
_chemical_formula_structural   Li9Co7O16
_chemical_formula_sum   'Li9 Co7 O16'
_cell_volume   283.37127748
_cell_formula_units_Z   1
loop_
 _symmetry_equiv_pos_site_id
 _symmetry_equiv_pos_as_xyz
  1  'x, y, z'
loop_
 _atom_site_type_symbol
 _atom_site_label
 _atom_site_symmetry_multiplicity
 _atom_site_fract_x
 _atom_site_fract_y
 _atom_site_fract_z
 _atom_site_occupancy
  Li  Li0  1  0.00000000  0.50000000  0.00000000  1
  Li  Li1  1  0.86562900  0.13345000  0.12590600  1
  Li  Li2  1  0.25000700  0.24844000  0.74941500  1
  Li  Li3  1  0.13437100  0.86655000  0.87409400  1
  Li  Li4  1  0.50000000  0.00000000  0.50000000  1
  Li  Li5  1  0.37919400  0.61867800  0.62866600  1
  Li  Li6  1  0.74999300  0.75156000  0.25058500  1
  Li  Li7  1  0.62080600  0.38132200  0.37133400  1
  Li  Li8  1  0.50000000  0.50000000  0.00000000  1
  Co  Co0  1  0.62483100  0.87124400  0.87965200  1
  Co  Co1  1  0.12872400  0.37679100  0.36919000  1
  Co  Co2  1  0.37516900  0.12875600  0.12034800  1
  Co  Co3  1  0.25433800  0.74270400  0.24797700  1
  Co  Co4  1  0.00000000  0.00000000  0.50000000  1
  Co  Co5  1  0.87127600  0.62320900  0.63081000  1
  Co  Co6  1  0.74566200  0.25729600  0.75202300  1
  O  O0  1  0.61727900  0.65046900  0.10710900  1
  O  O1  1  0.47669900  0.24026700  0.24587500  1
  O  O2  1  0.87352100  0.37207100  0.85983900  1
  O  O3  1  0.71735300  0.00572600  0.99766900  1
  O  O4  1  0.11448500  0.13006000  0.61081600  1
  O  O5  1  0.97365500  0.76022800  0.75627500  1
  O  O6  1  0.36162000  0.89138100  0.35377600  1
  O  O7  1  0.23956600  0.50577900  0.49896000  1
  O  O8  1  0.38272100  0.34953100  0.89289100  1
  O  O9  1  0.28264700  0.99427400  0.00233100  1
  O  O10  1  0.63838000  0.10861900  0.64622400  1
  O  O11  1  0.52330100  0.75973300  0.75412500  1
  O  O12  1  0.88551500  0.86994000  0.38918400  1
  O  O13  1  0.76043400  0.49422100  0.50104000  1
  O  O14  1  0.12647900  0.62792900  0.14016100  1
  O  O15  1  0.02634500  0.23977200  0.24372500  1
loop_
_geom_bond_atom_site_label_1
_geom_bond_atom_site_label_2
_geom_bond_distance
_geom_bond_site_symmetry_2
Li0 O15 2.095877 1_555
Li0 O5 2.095877 1_454
Li0 O0 2.143989 1_455
Li0 O8 2.143989 1_554
Li0 O14 2.165002 1_555
Li0 O2 2.165002 1_454
Li1 O15 2.048779 1_655
Li1 O2 2.100100 1_554
Li1 O1 2.109688 1_555
Li1 O3 2.181757 1_554
Li1 O12 2.189170 1_545
Li1 O9 2.294036 1_645
Li2 O8 2.056112 1_555
Li2 O2 2.065550 1_455
Li2 O7 2.106852 1_555
Li2 O9 2.113853 1_546
Li2 O4 2.136224 1_555
Li2 O10 2.138866 1_555
Li3 O5 2.048779 1_455
Li3 O14 2.100100 1_556
Li3 O11 2.109688 1_555
Li3 O9 2.181757 1_556
Li3 O4 2.189170 1_565
Li3 O3 2.294036 1_465
Li4 O11 2.062095 1_545
Li4 O1 2.062095 1_555
Li4 O12 2.118085 1_545
Li4 O4 2.118085 1_555
Li4 O6 2.140367 1_545
Li4 O10 2.140367 1_555
Li5 O7 2.066074 1_555
Li5 O13 2.117763 1_555
Li5 O8 2.211838 1_555
Li5 O11 2.227731 1_555
Li5 O5 2.255982 1_455
Li5 O6 2.274978 1_555
Li6 O0 2.056112 1_555
Li6 O14 2.065550 1_655
Li6 O13 2.106852 1_555
Li6 O3 2.113853 1_564
Li6 O12 2.136224 1_555
Li6 O6 2.138866 1_555
Li7 O13 2.066074 1_555
Li7 O7 2.117763 1_555
Li7 O0 2.211838 1_555
Li7 O1 2.227731 1_555
Li7 O15 2.255982 1_655
Li7 O10 2.274978 1_555
Li8 O0 2.067079 1_555
Li8 O8 2.067079 1_554
Li8 O1 2.102573 1_555
Li8 O11 2.102573 1_554
Li8 O14 2.120429 1_555
Li8 O2 2.120429 1_554
Co0 O0 1.858981 1_556
Co0 O11 1.873082 1_555
Co0 O3 1.932527 1_565
Co0 O9 1.942573 1_556
Co0 O5 1.945485 1_555
Co0 O10 1.953035 1_565
Co1 O14 1.994531 1_555
Co1 O1 2.000678 1_555
Co1 O4 2.026038 1_555
Co1 O15 2.032560 1_555
Co1 O7 2.042986 1_555
Co1 O13 2.057860 1_455
Co2 O8 1.858981 1_554
Co2 O1 1.873082 1_555
Co2 O9 1.932527 1_545
Co2 O3 1.942573 1_554
Co2 O15 1.945485 1_555
Co2 O6 1.953035 1_545
Co3 O14 1.892437 1_555
Co3 O6 2.007833 1_555
Co3 O0 2.011670 1_555
Co3 O7 2.024968 1_555
Co3 O9 2.067345 1_555
Co3 O12 2.102700 1_455
Co4 O4 1.948147 1_555
Co4 O12 1.948147 1_445
Co4 O10 2.046696 1_455
Co4 O6 2.046696 1_545
Co4 O5 2.060764 1_445
Co4 O15 2.060764 1_555
Co5 O2 1.994531 1_555
Co5 O11 2.000678 1_555
Co5 O12 2.026038 1_555
Co5 O5 2.032560 1_555
Co5 O13 2.042986 1_555
Co5 O7 2.057860 1_655
Co6 O2 1.892437 1_555
Co6 O10 2.007833 1_555
Co6 O8 2.011670 1_555
Co6 O13 2.024968 1_555
Co6 O3 2.067345 1_555
Co6 O4 2.102700 1_655
