# generated using pymatgen
data_Zr6SiI14
_symmetry_space_group_name_H-M   'P 1'
_cell_length_a   10.90297216
_cell_length_b   10.90379089
_cell_length_c   13.16733892
_cell_angle_alpha   90.00349827
_cell_angle_beta   90.00701736
_cell_angle_gamma   95.98873336
_symmetry_Int_Tables_number   1
_chemical_formula_structural   Zr6SiI14
_chemical_formula_sum   'Zr12 Si2 I28'
_cell_volume   1556.83914648
_cell_formula_units_Z   2
loop_
 _symmetry_equiv_pos_site_id
 _symmetry_equiv_pos_as_xyz
  1  'x, y, z'
loop_
 _atom_site_type_symbol
 _atom_site_label
 _atom_site_symmetry_multiplicity
 _atom_site_fract_x
 _atom_site_fract_y
 _atom_site_fract_z
 _atom_site_occupancy
  Zr  Zr0  1  0.95483555  0.17980747  0.11498179  1
  Zr  Zr1  1  0.04512534  0.82021700  0.88501315  1
  Zr  Zr2  1  0.54518900  0.32017689  0.61494912  1
  Zr  Zr3  1  0.67977462  0.45470493  0.38501404  1
  Zr  Zr4  1  0.45478272  0.67969184  0.38499403  1
  Zr  Zr5  1  0.32030156  0.54520000  0.61504228  1
  Zr  Zr6  1  0.82023502  0.04525863  0.88495595  1
  Zr  Zr7  1  0.17971176  0.95480194  0.11504781  1
  Zr  Zr8  1  0.35636105  0.35640263  0.39562357  1
  Zr  Zr9  1  0.64360909  0.64357599  0.60434722  1
  Zr  Zr10  1  0.14358293  0.14359221  0.89566795  1
  Zr  Zr11  1  0.85638709  0.85644697  0.10433418  1
  Si  Si0  1  -0.00003492  -0.00000153  -0.00000704  1
  Si  Si1  1  0.49998856  0.49995200  0.49999286  1
  I  I0  1  0.28636923  0.53499879  0.25044049  1
  I  I1  1  0.71356125  0.46496463  0.74949130  1
  I  I2  1  0.21351794  0.96501518  0.75051608  1
  I  I3  1  0.03488903  0.78648906  0.24956274  1
  I  I4  1  0.78644935  0.03498016  0.24953724  1
  I  I5  1  0.96500660  0.21355896  0.75036538  1
  I  I6  1  0.46520361  0.71345456  0.74967947  1
  I  I7  1  0.53483439  0.28648228  0.25038135  1
  I  I8  1  0.11696629  0.36650700  0.00897897  1
  I  I9  1  0.88296117  0.63352779  0.99097676  1
  I  I10  1  0.38302470  0.13350905  0.50899200  1
  I  I11  1  0.86652311  0.61695042  0.49102859  1
  I  I12  1  0.61694189  0.86649741  0.49099778  1
  I  I13  1  0.13345193  0.38310542  0.50896374  1
  I  I14  1  0.63346219  0.88308543  0.99098859  1
  I  I15  1  0.36655404  0.11694186  0.00900910  1
  I  I16  1  0.90283463  0.40288656  0.25005426  1
  I  I17  1  0.09724331  0.59705788  0.75008166  1
  I  I18  1  0.59720467  0.09708900  0.74992432  1
  I  I19  1  0.40271100  0.90270608  0.24990655  1
  I  I20  1  0.74910305  0.25106944  -0.00009733  1
  I  I21  1  0.25093770  0.74906981  -0.00000492  1
  I  I22  1  0.75109819  0.24892878  0.49997404  1
  I  I23  1  0.24931486  0.75116072  0.50014657  1
  I  I24  1  0.15520358  0.15521133  0.26545007  1
  I  I25  1  0.84475634  0.84485148  0.73449735  1
  I  I26  1  0.34476334  0.34477803  0.76548441  1
  I  I27  1  0.65526224  0.65529390  0.23471550  1
loop_
_geom_bond_atom_site_label_1
_geom_bond_atom_site_label_2
_geom_bond_distance
_geom_bond_site_symmetry_2
Si0 Zr11 2.505529 1_445
Si0 Zr10 2.505913 1_554
Si0 Zr1 2.564872 1_544
Si0 Zr6 2.564979 1_454
Si0 Zr7 2.565072 1_545
Si0 Zr0 2.565087 1_455
Si1 Zr8 2.505705 1_555
Si1 Zr9 2.506010 1_555
Si1 Zr2 2.564824 1_555
Si1 Zr4 2.564869 1_555
Si1 Zr5 2.564920 1_555
Si1 Zr3 2.565215 1_555
I0 Zr8 2.887787 1_555
I0 Zr4 2.897262 1_555
I1 Zr9 2.887419 1_555
I1 Zr2 2.897405 1_555
I2 Zr10 2.887127 1_565
I2 Zr1 2.897617 1_555
I3 Zr11 2.887111 1_455
I3 Zr7 2.897401 1_555
I4 Zr11 2.887248 1_545
I4 Zr0 2.898199 1_555
I5 Zr10 2.888358 1_655
I5 Zr6 2.897664 1_555
I6 Zr9 2.887243 1_555
I6 Zr5 2.898060 1_555
I7 Zr8 2.887129 1_555
I7 Zr3 2.898023 1_555
I8 Zr10 2.892238 1_554
I8 Zr0 2.909851 1_455
I9 Zr11 2.892506 1_556
I9 Zr1 2.909727 1_655
I10 Zr8 2.892644 1_555
I10 Zr2 2.909211 1_555
I11 Zr9 2.892352 1_555
I11 Zr3 2.910573 1_555
I12 Zr9 2.892780 1_555
I12 Zr4 2.910432 1_555
I13 Zr8 2.892611 1_555
I13 Zr5 2.910799 1_555
I14 Zr11 2.892374 1_556
I14 Zr6 2.910777 1_565
I15 Zr10 2.892796 1_554
I15 Zr7 2.911103 1_545
I16 Zr3 3.111200 1_555
I16 Zr0 3.112678 1_555
I17 Zr5 3.111897 1_555
I17 Zr1 3.112654 1_555
I18 Zr6 3.111215 1_555
I18 Zr2 3.112156 1_555
I19 Zr7 3.110407 1_555
I19 Zr4 3.112519 1_555
I20 Zr6 2.879478 1_554
I20 Zr0 2.879990 1_555
I21 Zr1 2.879581 1_554
I21 Zr7 2.879879 1_555
I22 Zr3 2.880042 1_555
I22 Zr2 2.881011 1_555
I23 Zr4 2.879203 1_555
I23 Zr5 2.879935 1_555
I24 Zr7 2.981613 1_545
I24 Zr0 2.981797 1_455
I24 Zr8 3.399309 1_555
I25 Zr6 2.982112 1_565
I25 Zr1 2.982290 1_655
I25 Zr9 3.399620 1_555
I26 Zr5 2.982114 1_555
I26 Zr2 2.983192 1_555
I26 Zr10 3.399891 1_555
I27 Zr4 2.981015 1_555
I27 Zr3 2.982302 1_555
I27 Zr11 3.400649 1_555
