# generated using pymatgen
data_Ba2LiTbIrO6
_symmetry_space_group_name_H-M   'P 1'
_cell_length_a   6.37021439
_cell_length_b   6.37155805
_cell_length_c   6.37155824
_cell_angle_alpha   55.05362590
_cell_angle_beta   55.05293550
_cell_angle_gamma   55.05293554
_symmetry_Int_Tables_number   1
_chemical_formula_structural   Ba2LiTbIrO6
_chemical_formula_sum   'Ba2 Li1 Tb1 Ir1 O6'
_cell_volume   161.82211655
_cell_formula_units_Z   1
loop_
 _symmetry_equiv_pos_site_id
 _symmetry_equiv_pos_as_xyz
  1  'x, y, z'
loop_
 _atom_site_type_symbol
 _atom_site_label
 _atom_site_symmetry_multiplicity
 _atom_site_fract_x
 _atom_site_fract_y
 _atom_site_fract_z
 _atom_site_occupancy
  Ba  Ba0  1  0.25263300  0.25286100  0.25286100  1
  Ba  Ba1  1  0.71165900  0.71162500  0.71162500  1
  Li  Li0  1  0.87051600  0.87167800  0.87167800  1
  Tb  Tb0  1  0.49521700  0.49540700  0.49540700  1
  Ir  Ir0  1  0.01040100  0.01050900  0.01050900  1
  O  O0  1  0.24391100  0.76692900  0.76692900  1
  O  O1  1  0.24161800  0.76629500  0.24142000  1
  O  O2  1  0.76658400  0.24448400  0.76700600  1
  O  O3  1  0.24161800  0.24142000  0.76629500  1
  O  O4  1  0.76644600  0.24157600  0.24157600  1
  O  O5  1  0.76658400  0.76700600  0.24448400  1
loop_
_geom_bond_atom_site_label_1
_geom_bond_atom_site_label_2
_geom_bond_distance
_geom_bond_site_symmetry_2
Ba0 O5 2.946656 1_545
Ba0 O2 2.946656 1_554
Ba0 O0 2.947579 1_554
Ba0 O0 2.947579 1_545
Ba0 O5 2.947866 1_455
Ba0 O2 2.947866 1_455
Ba0 O4 3.180980 1_455
Ba0 O1 3.183607 1_545
Ba0 O3 3.183607 1_554
Ba0 O1 3.190895 1_555
Ba0 O3 3.190895 1_555
Ba0 O4 3.192209 1_555
Ba1 Li0 2.580684 1_555
Ba1 O2 2.617470 1_555
Ba1 O5 2.617470 1_555
Ba1 O0 2.619771 1_555
Ba1 O3 3.009050 1_565
Ba1 O1 3.009050 1_556
Ba1 O3 3.009743 1_655
Ba1 O1 3.009743 1_655
Ba1 O4 3.010023 1_565
Ba1 O4 3.010023 1_556
Li0 O2 1.847900 1_565
Li0 O5 1.847900 1_556
Li0 O0 1.849735 1_655
Ir0 O3 1.997386 1_554
Ir0 O1 1.997386 1_545
Ir0 O4 1.997743 1_455
Ir0 O0 2.121267 1_544
Ir0 O5 2.121360 1_445
Ir0 O2 2.121360 1_454
Ir0 Li0 2.249769 1_444
O0 Tb0 2.373127 1_555
O1 Tb0 2.192824 1_555
O2 Tb0 2.372834 1_555
O3 Tb0 2.192824 1_555
O4 Tb0 2.193280 1_555
O5 Tb0 2.372834 1_555
