# generated using pymatgen
data_CsSrCl3
_symmetry_space_group_name_H-M   'P 1'
_cell_length_a   7.86750071
_cell_length_b   7.86750071
_cell_length_c   5.75739201
_cell_angle_alpha   90.00000000
_cell_angle_beta   90.00000000
_cell_angle_gamma   90.00000000
_symmetry_Int_Tables_number   1
_chemical_formula_structural   CsSrCl3
_chemical_formula_sum   'Cs2 Sr2 Cl6'
_cell_volume   356.36856011
_cell_formula_units_Z   2
loop_
 _symmetry_equiv_pos_site_id
 _symmetry_equiv_pos_as_xyz
  1  'x, y, z'
loop_
 _atom_site_type_symbol
 _atom_site_label
 _atom_site_symmetry_multiplicity
 _atom_site_fract_x
 _atom_site_fract_y
 _atom_site_fract_z
 _atom_site_occupancy
  Cs  Cs0  1  0.50000000  -0.00000000  0.00000000  1
  Cs  Cs1  1  -0.00000000  0.50000000  0.00000000  1
  Sr  Sr0  1  -0.00000000  -0.00000000  0.50000000  1
  Sr  Sr1  1  0.50000000  0.50000000  0.50000000  1
  Cl  Cl0  1  -0.00000000  -0.00000000  0.00000000  1
  Cl  Cl1  1  0.50000000  0.50000000  0.00000000  1
  Cl  Cl2  1  0.68777685  0.18777685  0.50000000  1
  Cl  Cl3  1  0.31222315  0.81222315  0.50000000  1
  Cl  Cl4  1  0.18777685  0.31222315  0.50000000  1
  Cl  Cl5  1  0.81222315  0.68777685  0.50000000  1
loop_
_geom_bond_atom_site_label_1
_geom_bond_atom_site_label_2
_geom_bond_distance
_geom_bond_site_symmetry_2
Cl0 Sr0 2.878696 1_555
Cl0 Sr0 2.878696 1_554
Cl0 Cs0 3.933750 1_555
Cl0 Cs1 3.933750 1_555
Cl0 Cs1 3.933750 1_545
Cl0 Cs0 3.933750 1_455
Cl1 Sr1 2.878696 1_554
Cl1 Sr1 2.878696 1_555
Cl1 Cs1 3.933750 1_655
Cl1 Cs0 3.933750 1_565
Cl1 Cs0 3.933750 1_555
Cl1 Cs1 3.933750 1_555
Cl2 Sr1 2.866443 1_555
Cl2 Sr0 2.866443 1_655
Cl2 Cs0 3.556954 1_555
Cl2 Cs0 3.556954 1_556
Cl3 Sr0 2.866443 1_565
Cl3 Sr1 2.866443 1_555
Cl3 Cs0 3.556954 1_565
Cl3 Cs0 3.556954 1_566
Cl4 Sr1 2.866443 1_555
Cl4 Sr0 2.866443 1_555
Cl4 Cs1 3.556954 1_555
Cl4 Cs1 3.556954 1_556
Cl5 Sr1 2.866443 1_555
Cl5 Sr0 2.866443 1_665
Cl5 Cs1 3.556954 1_656
Cl5 Cs1 3.556954 1_655
