# generated using pymatgen
data_Zn(CuO2)2
_symmetry_space_group_name_H-M   'P 1'
_cell_length_a   5.94035429
_cell_length_b   5.94035429
_cell_length_c   19.68024441
_cell_angle_alpha   81.18076690
_cell_angle_beta   81.18076690
_cell_angle_gamma   60.19865194
_symmetry_Int_Tables_number   1
_chemical_formula_structural   Zn(CuO2)2
_chemical_formula_sum   'Zn8 Cu16 O32'
_cell_volume   593.09311554
_cell_formula_units_Z   8
loop_
 _symmetry_equiv_pos_site_id
 _symmetry_equiv_pos_as_xyz
  1  'x, y, z'
loop_
 _atom_site_type_symbol
 _atom_site_label
 _atom_site_symmetry_multiplicity
 _atom_site_fract_x
 _atom_site_fract_y
 _atom_site_fract_z
 _atom_site_occupancy
  Zn  Zn0  1  0.64890200  0.64890200  0.02906500  1
  Zn  Zn1  1  0.12483000  0.12483000  0.12497200  1
  Zn  Zn2  1  0.89803500  0.89803500  0.28159100  1
  Zn  Zn3  1  0.37403300  0.37403300  0.37585500  1
  Zn  Zn4  1  0.62492700  0.62492700  0.62491000  1
  Zn  Zn5  1  0.50007900  0.50007900  0.49962300  1
  Zn  Zn6  1  0.87587200  0.87587200  0.87405800  1
  Zn  Zn7  1  0.74979700  0.74979700  0.75047700  1
  Cu  Cu0  1  0.62534500  0.12477100  0.12507000  1
  Cu  Cu1  1  0.25005800  0.25005800  0.24997500  1
  Cu  Cu2  1  0.12477100  0.62534500  0.12507000  1
  Cu  Cu3  1  0.15106600  0.15106600  0.53347800  1
  Cu  Cu4  1  0.87657400  0.37373600  0.37499800  1
  Cu  Cu5  1  0.59631400  0.59631400  0.21923100  1
  Cu  Cu6  1  0.40197300  0.40197300  0.78125200  1
  Cu  Cu7  1  0.37373600  0.87657400  0.37499800  1
  Cu  Cu8  1  0.12529400  0.62495000  0.62488100  1
  Cu  Cu9  1  0.84800400  0.84800400  0.46840100  1
  Cu  Cu10  1  0.62495000  0.12529400  0.62488100  1
  Cu  Cu11  1  0.87629000  0.37386600  0.87447600  1
  Cu  Cu12  1  0.37386600  0.87629000  0.87447600  1
  Cu  Cu13  1  0.09889900  0.09889900  0.71679100  1
  Cu  Cu14  1  0.99955500  0.99955500  0.00034800  1
  Cu  Cu15  1  0.34694800  0.34694800  0.96841100  1
  O  O0  1  0.27526000  0.81782700  0.06371600  1
  O  O1  1  0.93168400  0.93168400  0.17876900  1
  O  O2  1  0.81782700  0.27526000  0.06371600  1
  O  O3  1  0.81821800  0.81821800  0.06326200  1
  O  O4  1  0.43462000  0.43462000  0.18721400  1
  O  O5  1  0.52128700  0.06945700  0.31422000  1
  O  O6  1  0.43695900  0.97079700  0.18762100  1
  O  O7  1  0.18101900  0.18101900  0.43392000  1
  O  O8  1  0.06945700  0.52128700  0.31422000  1
  O  O9  1  0.32102100  0.32102100  0.07084900  1
  O  O10  1  0.06996300  0.06996300  0.31546200  1
  O  O11  1  0.97079700  0.43695900  0.18762100  1
  O  O12  1  0.78559900  0.30988100  0.56726500  1
  O  O13  1  0.68715200  0.68715200  0.43150200  1
  O  O14  1  0.69242800  0.21128700  0.43225300  1
  O  O15  1  0.43223400  0.43223400  0.68288100  1
  O  O16  1  0.30988100  0.78559900  0.56726500  1
  O  O17  1  0.56955900  0.56955900  0.31878300  1
  O  O18  1  0.31553600  0.31553600  0.56714600  1
  O  O19  1  0.21128700  0.69242800  0.43225300  1
  O  O20  1  0.93488200  0.93488200  0.68304800  1
  O  O21  1  0.04054500  0.55667200  0.81688500  1
  O  O22  1  0.94065600  0.46323000  0.68277000  1
  O  O23  1  0.68235000  0.68235000  0.92708300  1
  O  O24  1  0.55667200  0.04054500  0.81688500  1
  O  O25  1  0.81766400  0.81766400  0.56667400  1
  O  O26  1  0.56239900  0.56239900  0.81543800  1
  O  O27  1  0.46323000  0.94065600  0.68277000  1
  O  O28  1  0.18226900  0.18226900  0.93805900  1
  O  O29  1  0.18565000  0.72175100  0.93737400  1
  O  O30  1  0.06997400  0.06997400  0.81841400  1
  O  O31  1  0.72175100  0.18565000  0.93737400  1
loop_
_geom_bond_atom_site_label_1
_geom_bond_atom_site_label_2
_geom_bond_distance
_geom_bond_site_symmetry_2
Cu0 O2 1.956066 1_555
Cu0 O6 1.963184 1_545
Cu0 O9 1.970044 1_555
Cu0 O1 1.971619 1_545
Cu0 O3 2.070384 1_545
Cu0 O4 2.088009 1_555
Cu1 O8 1.958594 1_555
Cu1 O5 1.958594 1_555
Cu1 O11 1.966274 1_455
Cu1 O6 1.966274 1_545
Cu1 O10 2.059648 1_555
Cu1 O4 2.072182 1_555
Cu2 O0 1.956066 1_555
Cu2 O11 1.963184 1_455
Cu2 O9 1.970044 1_555
Cu2 O1 1.971619 1_455
Cu2 O3 2.070384 1_455
Cu2 O4 2.088009 1_555
Cu3 O18 1.921964 1_555
Cu3 O7 1.928716 1_555
Cu3 O12 1.938888 1_455
Cu3 O16 1.938888 1_545
Cu4 O14 1.932714 1_555
Cu4 O8 1.941224 1_655
Cu4 O17 2.004643 1_555
Cu4 O7 2.025836 1_655
Cu4 O10 2.030736 1_655
Cu4 O13 2.034163 1_555
Cu5 O4 1.878948 1_555
Cu5 O17 1.929549 1_555
Cu5 O6 1.973533 1_555
Cu5 O11 1.973533 1_555
Cu6 O26 1.888106 1_555
Cu6 O15 1.905593 1_555
Cu6 O24 1.928908 1_555
Cu6 O21 1.928908 1_555
Cu7 O19 1.932714 1_555
Cu7 O5 1.941224 1_565
Cu7 O17 2.004643 1_555
Cu7 O7 2.025836 1_565
Cu7 O10 2.030736 1_565
Cu7 O13 2.034163 1_555
Cu8 O16 1.930244 1_555
Cu8 O22 1.937116 1_455
Cu8 O15 2.025022 1_555
Cu8 O25 2.030423 1_455
Cu8 O18 2.031870 1_555
Cu8 O20 2.039304 1_455
Cu9 O25 1.903676 1_555
Cu9 O13 1.920008 1_555
Cu9 O19 1.940547 1_655
Cu9 O14 1.940547 1_565
Cu10 O12 1.930244 1_555
Cu10 O27 1.937116 1_545
Cu10 O15 2.025022 1_555
Cu10 O25 2.030423 1_545
Cu10 O18 2.031870 1_555
Cu10 O20 2.039304 1_545
Cu11 O21 1.937165 1_655
Cu11 O31 1.967868 1_555
Cu11 O23 1.968439 1_555
Cu11 O30 1.989190 1_655
Cu11 O26 2.066557 1_555
Cu11 O28 2.090308 1_655
Cu12 O24 1.937165 1_565
Cu12 O29 1.967868 1_555
Cu12 O23 1.968439 1_555
Cu12 O30 1.989190 1_565
Cu12 O26 2.066557 1_555
Cu12 O28 2.090308 1_565
Cu13 O20 1.918325 1_445
Cu13 O22 1.934520 1_455
Cu13 O27 1.934520 1_545
Cu13 O30 1.969139 1_555
Cu14 O0 1.964446 1_655
Cu14 O2 1.964446 1_565
Cu14 O29 1.968519 1_654
Cu14 O31 1.968519 1_564
Cu14 O3 2.046763 1_555
Cu14 O28 2.052771 1_664
Cu15 O28 1.892180 1_555
Cu15 O29 1.972376 1_555
Cu15 O31 1.972376 1_555
Cu15 O9 1.986172 1_556
O0 Zn0 1.982497 1_555
O0 Zn1 2.074051 1_565
O1 Zn2 1.991575 1_555
O1 Zn1 2.077816 1_665
O2 Zn0 1.982497 1_555
O2 Zn1 2.074051 1_655
O3 Zn0 1.974048 1_555
O5 Zn2 1.988106 1_545
O5 Zn3 2.069905 1_555
O6 Zn1 2.112815 1_565
O7 Zn3 2.106726 1_555
O8 Zn2 1.988106 1_455
O8 Zn3 2.069905 1_555
O9 Zn1 2.107099 1_555
O10 Zn2 1.996203 1_445
O11 Zn1 2.112815 1_655
O12 Zn4 2.060086 1_555
O12 Zn5 2.061973 1_555
O13 Zn5 2.140339 1_555
O14 Zn3 2.059379 1_555
O14 Zn5 2.071477 1_555
O15 Zn4 2.103241 1_555
O16 Zn4 2.060086 1_555
O16 Zn5 2.061973 1_555
O17 Zn3 2.121460 1_555
O18 Zn5 2.114372 1_555
O19 Zn3 2.059379 1_555
O19 Zn5 2.071477 1_555
O20 Zn7 2.117887 1_555
O21 Zn7 2.066423 1_455
O21 Zn6 2.071561 1_455
O22 Zn4 2.065361 1_555
O22 Zn7 2.067050 1_555
O23 Zn0 1.975300 1_556
O23 Zn6 2.076054 1_555
O24 Zn7 2.066423 1_545
O24 Zn6 2.071561 1_545
O25 Zn4 2.105587 1_555
O26 Zn7 2.114686 1_555
O27 Zn4 2.065361 1_555
O27 Zn7 2.067050 1_555
O29 Zn6 2.110895 1_455
O30 Zn6 2.098888 1_445
O31 Zn6 2.110895 1_545
