# generated using pymatgen
data_Li5Co3O8
_symmetry_space_group_name_H-M   'P 1'
_cell_length_a   5.83808615
_cell_length_b   5.83808615
_cell_length_c   5.83808661
_cell_angle_alpha   59.60851441
_cell_angle_beta   59.60851441
_cell_angle_gamma   59.60850964
_symmetry_Int_Tables_number   1
_chemical_formula_structural   Li5Co3O8
_chemical_formula_sum   'Li5 Co3 O8'
_cell_volume   139.44889219
_cell_formula_units_Z   1
loop_
 _symmetry_equiv_pos_site_id
 _symmetry_equiv_pos_as_xyz
  1  'x, y, z'
loop_
 _atom_site_type_symbol
 _atom_site_label
 _atom_site_symmetry_multiplicity
 _atom_site_fract_x
 _atom_site_fract_y
 _atom_site_fract_z
 _atom_site_occupancy
  Li  Li0  1  0.00000000  0.50000000  0.50000000  1
  Li  Li1  1  0.50000000  0.50000000  0.00000000  1
  Li  Li2  1  0.00000000  0.00000000  0.00000000  1
  Li  Li3  1  0.50000000  0.00000000  0.50000000  1
  Li  Li4  1  0.50000000  0.50000000  0.50000000  1
  Co  Co0  1  0.00000000  0.50000000  0.00000000  1
  Co  Co1  1  0.00000000  0.00000000  0.50000000  1
  Co  Co2  1  0.50000000  0.00000000  0.00000000  1
  O  O0  1  0.25114400  0.25114400  0.78922300  1
  O  O1  1  0.78922300  0.25114400  0.25114400  1
  O  O2  1  0.25114400  0.78922300  0.25114400  1
  O  O3  1  0.74574400  0.74574400  0.74574400  1
  O  O4  1  0.74885600  0.74885600  0.21077700  1
  O  O5  1  0.21077700  0.74885600  0.74885600  1
  O  O6  1  0.74885600  0.21077700  0.74885600  1
  O  O7  1  0.25425600  0.25425600  0.25425600  1
loop_
_geom_bond_atom_site_label_1
_geom_bond_atom_site_label_2
_geom_bond_distance
_geom_bond_site_symmetry_2
Li0 O3 2.023131 1_455
Li0 O7 2.023131 1_555
Li0 O0 2.231381 1_555
Li0 O4 2.231381 1_455
Li0 O2 2.231381 1_555
Li0 O6 2.231381 1_455
Li1 O3 2.023131 1_554
Li1 O7 2.023131 1_555
Li1 O1 2.231381 1_555
Li1 O2 2.231381 1_555
Li1 O5 2.231381 1_554
Li1 O6 2.231381 1_554
Li2 O2 2.082738 1_545
Li2 O1 2.082738 1_455
Li2 O5 2.082738 1_544
Li2 O6 2.082738 1_454
Li2 O0 2.082738 1_554
Li2 O4 2.082738 1_445
Li3 O3 2.023131 1_545
Li3 O7 2.023131 1_555
Li3 O0 2.231381 1_555
Li3 O4 2.231381 1_545
Li3 O1 2.231381 1_555
Li3 O5 2.231381 1_545
Li4 O5 2.060103 1_555
Li4 O6 2.060103 1_555
Li4 O2 2.060103 1_555
Li4 O1 2.060103 1_555
Li4 O4 2.060103 1_555
Li4 O0 2.060103 1_555
Co0 O4 1.898094 1_455
Co0 O0 1.898094 1_554
Co0 O5 1.898094 1_554
Co0 O1 1.898094 1_455
Co0 O7 2.094012 1_555
Co0 O3 2.094012 1_454
Co1 O6 1.898094 1_455
Co1 O5 1.898094 1_545
Co1 O2 1.898094 1_545
Co1 O1 1.898094 1_455
Co1 O7 2.094012 1_555
Co1 O3 2.094012 1_445
Co2 O4 1.898094 1_545
Co2 O0 1.898094 1_554
Co2 O6 1.898094 1_554
Co2 O2 1.898094 1_545
Co2 O7 2.094012 1_555
Co2 O3 2.094012 1_544
