# generated using pymatgen
data_Ce4C10O31
_symmetry_space_group_name_H-M   'P 1'
_cell_length_a   6.47238300
_cell_length_b   8.33297163
_cell_length_c   13.02896012
_cell_angle_alpha   106.78583300
_cell_angle_beta   90.93266489
_cell_angle_gamma   102.68083528
_symmetry_Int_Tables_number   1
_chemical_formula_structural   Ce4C10O31
_chemical_formula_sum   'Ce4 C10 O31'
_cell_volume   653.96239620
_cell_formula_units_Z   1
loop_
 _symmetry_equiv_pos_site_id
 _symmetry_equiv_pos_as_xyz
  1  'x, y, z'
loop_
 _atom_site_type_symbol
 _atom_site_label
 _atom_site_symmetry_multiplicity
 _atom_site_fract_x
 _atom_site_fract_y
 _atom_site_fract_z
 _atom_site_occupancy
  Ce  Ce0  1  0.90772600  0.97688900  0.73300900  1
  Ce  Ce1  1  0.09348500  0.02057000  0.26493000  1
  Ce  Ce2  1  0.68550500  0.31222100  0.90406400  1
  Ce  Ce3  1  0.31703500  0.68772100  0.09463500  1
  C  C0  1  0.95322700  0.69753000  0.86501600  1
  C  C1  1  0.04627500  0.30125000  0.13388100  1
  C  C2  1  0.90737400  0.92030800  0.47497000  1
  C  C3  1  0.09156200  0.08060100  0.52303900  1
  C  C4  1  0.22734600  0.29107700  0.87300500  1
  C  C5  1  0.77502500  0.70806000  0.12638900  1
  C  C6  1  0.56151500  0.94212100  0.96133700  1
  C  C7  1  0.43842900  0.05843300  0.03737700  1
  C  C8  1  0.76259000  0.60511100  0.77887700  1
  C  C9  1  0.23666900  0.39379800  0.21994000  1
  O  O0  1  0.34740900  0.43415900  0.92978200  1
  O  O1  1  0.65352500  0.56535000  0.07020200  1
  O  O2  1  0.02445900  0.27080300  0.85194600  1
  O  O3  1  0.97745500  0.72640300  0.14801400  1
  O  O4  1  0.68083800  0.10926800  0.74543000  1
  O  O5  1  0.32247700  0.89037200  0.25196900  1
  O  O6  1  0.05107700  0.84433900  0.86108300  1
  O  O7  1  0.94874400  0.15445900  0.13809200  1
  O  O8  1  0.81601100  0.84898800  0.54106100  1
  O  O9  1  0.18511100  0.15049400  0.45671300  1
  O  O10  1  0.24046000  0.61330600  0.64990800  1
  O  O11  1  0.77700100  0.39120700  0.33758300  1
  O  O12  1  0.99117600  0.61790300  0.93009200  1
  O  O13  1  0.00774000  0.38066600  0.06889600  1
  O  O14  1  0.18157600  0.74052800  0.64070500  1
  O  O15  1  0.77162000  0.24466000  0.34263700  1
  O  O16  1  0.66170500  0.45631800  0.77790400  1
  O  O17  1  0.33750700  0.54284000  0.22163400  1
  O  O18  1  0.72313600  0.68580100  0.71531600  1
  O  O19  1  0.27537300  0.31290200  0.28370700  1
  O  O20  1  0.30744600  0.16029300  0.83289900  1
  O  O21  1  0.69714500  0.84034700  0.16547200  1
  O  O22  1  0.86779300  0.87555700  0.37410300  1
  O  O23  1  0.13204500  0.12558900  0.62396100  1
  O  O24  1  0.51696500  0.78440500  0.95433100  1
  O  O25  1  0.48392200  0.21636000  0.04490400  1
  O  O26  1  0.69888700  0.01751500  0.91165300  1
  O  O27  1  0.30047700  0.98270100  0.08663300  1
  O  O28  1  0.36092300  0.57755400  0.49401000  1
  O  O29  1  0.30171600  0.70227700  0.48365100  1
  O  O30  1  0.81852000  0.28394500  0.56314100  1
loop_
_geom_bond_atom_site_label_1
_geom_bond_atom_site_label_2
_geom_bond_distance
_geom_bond_site_symmetry_2
Ce0 O4 2.003844 1_565
Ce0 O18 2.399989 1_555
Ce0 O8 2.424271 1_555
Ce0 O2 2.434744 1_665
Ce0 O23 2.440518 1_665
Ce0 O6 2.515831 1_655
Ce0 O26 2.684648 1_565
Ce0 O20 2.780003 1_665
Ce0 O14 2.949776 1_655
Ce1 O5 2.002649 1_545
Ce1 O19 2.401494 1_555
Ce1 O9 2.423807 1_555
Ce1 O3 2.427139 1_445
Ce1 O22 2.429553 1_445
Ce1 O7 2.515314 1_455
Ce1 O27 2.674776 1_545
Ce1 O21 2.755268 1_445
Ce1 O15 3.088112 1_455
Ce2 O4 2.255991 1_555
Ce2 O16 2.319563 1_555
Ce2 O2 2.374597 1_655
Ce2 O25 2.484877 1_556
Ce2 O26 2.506287 1_555
Ce2 O20 2.517553 1_555
Ce2 O0 2.595531 1_555
Ce2 O1 2.597434 1_556
Ce2 O12 2.790028 1_555
Ce2 O13 2.812781 1_656
Ce3 O5 2.242122 1_555
Ce3 O17 2.330224 1_555
Ce3 O3 2.376896 1_455
Ce3 O24 2.476929 1_554
Ce3 O27 2.515497 1_555
Ce3 O21 2.529106 1_555
Ce3 O0 2.586749 1_554
Ce3 O1 2.587369 1_555
Ce3 O13 2.810786 1_555
Ce3 O12 2.824248 1_454
C0 O6 1.263894 1_655
C0 O12 1.268546 1_555
C1 O7 1.264361 1_455
C1 O13 1.267379 1_555
C2 O22 1.263260 1_555
C2 O8 1.265795 1_555
C3 O23 1.264563 1_555
C3 O9 1.267084 1_555
C4 O0 1.279744 1_555
C4 O20 1.287434 1_555
C4 O2 1.300890 1_555
C5 O1 1.279206 1_555
C5 O21 1.287105 1_555
C5 O3 1.301755 1_555
C6 O24 1.257850 1_555
C6 O26 1.269911 1_565
C7 O25 1.258002 1_555
C7 O27 1.269851 1_545
C8 O18 1.262235 1_555
C8 O16 1.264536 1_555
C9 O17 1.263625 1_555
C9 O19 1.264229 1_555
O10 O14 1.238081 1_555
O11 O15 1.234770 1_555
O28 O29 1.224514 1_555
