# generated using pymatgen
data_Rb4Sn20Hg3
_symmetry_space_group_name_H-M   'P 1'
_cell_length_a   12.46567300
_cell_length_b   12.46567300
_cell_length_c   12.46567300
_cell_angle_alpha   90.00000000
_cell_angle_beta   90.00000000
_cell_angle_gamma   90.00000000
_symmetry_Int_Tables_number   1
_chemical_formula_structural   Rb4Sn20Hg3
_chemical_formula_sum   'Rb8 Sn40 Hg6'
_cell_volume   1937.07836616
_cell_formula_units_Z   2
loop_
 _symmetry_equiv_pos_site_id
 _symmetry_equiv_pos_as_xyz
  1  'x, y, z'
loop_
 _atom_site_type_symbol
 _atom_site_label
 _atom_site_symmetry_multiplicity
 _atom_site_fract_x
 _atom_site_fract_y
 _atom_site_fract_z
 _atom_site_occupancy
  Rb  Rb0  1  0.00000000  0.00000000  0.00000000  1
  Rb  Rb1  1  0.50000000  0.50000000  0.50000000  1
  Rb  Rb2  1  0.25000000  0.00000000  0.50000000  1
  Rb  Rb3  1  0.75000000  0.00000000  0.50000000  1
  Rb  Rb4  1  0.50000000  0.25000000  0.00000000  1
  Rb  Rb5  1  0.50000000  0.75000000  0.00000000  1
  Rb  Rb6  1  0.00000000  0.50000000  0.25000000  1
  Rb  Rb7  1  0.00000000  0.50000000  0.75000000  1
  Sn  Sn0  1  0.00000000  0.11691600  0.31194900  1
  Sn  Sn1  1  0.00000000  0.88308400  0.68805100  1
  Sn  Sn2  1  0.00000000  0.88308400  0.31194900  1
  Sn  Sn3  1  0.00000000  0.11691600  0.68805100  1
  Sn  Sn4  1  0.31194900  0.00000000  0.11691600  1
  Sn  Sn5  1  0.61691600  0.50000000  0.18805100  1
  Sn  Sn6  1  0.68805100  0.00000000  0.88308400  1
  Sn  Sn7  1  0.38308400  0.50000000  0.81194900  1
  Sn  Sn8  1  0.31194900  0.00000000  0.88308400  1
  Sn  Sn9  1  0.38308400  0.50000000  0.18805100  1
  Sn  Sn10  1  0.68805100  0.00000000  0.11691600  1
  Sn  Sn11  1  0.61691600  0.50000000  0.81194900  1
  Sn  Sn12  1  0.11691600  0.31194900  0.00000000  1
  Sn  Sn13  1  0.50000000  0.81194900  0.38308400  1
  Sn  Sn14  1  0.88308400  0.68805100  0.00000000  1
  Sn  Sn15  1  0.50000000  0.18805100  0.61691600  1
  Sn  Sn16  1  0.11691600  0.68805100  0.00000000  1
  Sn  Sn17  1  0.50000000  0.18805100  0.38308400  1
  Sn  Sn18  1  0.88308400  0.31194900  0.00000000  1
  Sn  Sn19  1  0.50000000  0.81194900  0.61691600  1
  Sn  Sn20  1  0.18805100  0.61691600  0.50000000  1
  Sn  Sn21  1  0.81194900  0.38308400  0.50000000  1
  Sn  Sn22  1  0.18805100  0.38308400  0.50000000  1
  Sn  Sn23  1  0.81194900  0.61691600  0.50000000  1
  Sn  Sn24  1  0.18289200  0.18289200  0.18289200  1
  Sn  Sn25  1  0.81710800  0.81710800  0.81710800  1
  Sn  Sn26  1  0.81710800  0.81710800  0.18289200  1
  Sn  Sn27  1  0.81710800  0.18289200  0.81710800  1
  Sn  Sn28  1  0.68289200  0.68289200  0.31710800  1
  Sn  Sn29  1  0.18289200  0.18289200  0.81710800  1
  Sn  Sn30  1  0.18289200  0.81710800  0.18289200  1
  Sn  Sn31  1  0.31710800  0.31710800  0.68289200  1
  Sn  Sn32  1  0.18289200  0.81710800  0.81710800  1
  Sn  Sn33  1  0.31710800  0.31710800  0.31710800  1
  Sn  Sn34  1  0.81710800  0.18289200  0.18289200  1
  Sn  Sn35  1  0.68289200  0.68289200  0.68289200  1
  Sn  Sn36  1  0.68289200  0.31710800  0.68289200  1
  Sn  Sn37  1  0.31710800  0.68289200  0.31710800  1
  Sn  Sn38  1  0.31710800  0.68289200  0.68289200  1
  Sn  Sn39  1  0.68289200  0.31710800  0.31710800  1
  Hg  Hg0  1  0.25000000  0.50000000  0.00000000  1
  Hg  Hg1  1  0.75000000  0.50000000  0.00000000  1
  Hg  Hg2  1  0.00000000  0.25000000  0.50000000  1
  Hg  Hg3  1  0.00000000  0.75000000  0.50000000  1
  Hg  Hg4  1  0.50000000  0.00000000  0.25000000  1
  Hg  Hg5  1  0.50000000  0.00000000  0.75000000  1
loop_
_geom_bond_atom_site_label_1
_geom_bond_atom_site_label_2
_geom_bond_distance
_geom_bond_site_symmetry_2
Rb0 Sn24 3.948854 1_555
Rb0 Sn32 3.948854 1_544
Rb0 Sn27 3.948854 1_454
Rb0 Sn30 3.948854 1_545
Rb0 Sn26 3.948854 1_445
Rb0 Sn34 3.948854 1_455
Rb0 Sn29 3.948854 1_554
Rb0 Sn25 3.948854 1_444
Rb0 Sn16 4.152801 1_545
Rb0 Sn12 4.152801 1_555
Rb0 Sn4 4.152801 1_555
Rb0 Sn3 4.152801 1_554
Rb0 Sn0 4.152801 1_555
Rb0 Sn10 4.152801 1_455
Rb0 Sn2 4.152801 1_545
Rb0 Sn8 4.152801 1_554
Rb0 Sn18 4.152801 1_455
Rb0 Sn6 4.152801 1_454
Rb0 Sn14 4.152801 1_445
Rb0 Sn1 4.152801 1_544
Rb1 Sn35 3.948854 1_555
Rb1 Sn36 3.948854 1_555
Rb1 Sn28 3.948854 1_555
Rb1 Sn38 3.948854 1_555
Rb1 Sn31 3.948854 1_555
Rb1 Sn39 3.948854 1_555
Rb1 Sn37 3.948854 1_555
Rb1 Sn33 3.948854 1_555
Rb1 Sn19 4.152801 1_555
Rb1 Sn13 4.152801 1_555
Rb1 Sn21 4.152801 1_555
Rb1 Sn23 4.152801 1_555
Rb1 Sn11 4.152801 1_555
Rb1 Sn7 4.152801 1_555
Rb1 Sn20 4.152801 1_555
Rb1 Sn5 4.152801 1_555
Rb1 Sn17 4.152801 1_555
Rb1 Sn15 4.152801 1_555
Rb1 Sn9 4.152801 1_555
Rb1 Sn22 4.152801 1_555
Rb2 Sn3 4.163097 1_555
Rb2 Sn0 4.163097 1_555
Rb2 Sn1 4.163097 1_545
Rb2 Sn2 4.163097 1_545
Rb2 Sn17 4.163097 1_555
Rb2 Sn15 4.163097 1_555
Rb2 Sn19 4.163097 1_545
Rb2 Sn13 4.163097 1_545
Rb3 Sn3 4.163097 1_655
Rb3 Sn0 4.163097 1_655
Rb3 Sn1 4.163097 1_645
Rb3 Sn17 4.163097 1_555
Rb3 Sn2 4.163097 1_645
Rb3 Sn15 4.163097 1_555
Rb3 Sn19 4.163097 1_545
Rb3 Sn13 4.163097 1_545
Rb4 Sn10 4.163097 1_555
Rb4 Sn4 4.163097 1_555
Rb4 Sn6 4.163097 1_554
Rb4 Sn5 4.163097 1_555
Rb4 Sn9 4.163097 1_555
Rb4 Sn8 4.163097 1_554
Rb4 Sn11 4.163097 1_554
Rb4 Sn7 4.163097 1_554
Rb5 Sn10 4.163097 1_565
Rb5 Sn4 4.163097 1_565
Rb5 Sn6 4.163097 1_564
Rb5 Sn5 4.163097 1_555
Rb5 Sn9 4.163097 1_555
Rb5 Sn8 4.163097 1_564
Rb5 Sn11 4.163097 1_554
Rb5 Sn7 4.163097 1_554
Rb6 Sn12 4.163097 1_555
Rb6 Sn16 4.163097 1_555
Rb6 Sn14 4.163097 1_455
Rb6 Sn22 4.163097 1_555
Rb6 Sn18 4.163097 1_455
Rb6 Sn20 4.163097 1_555
Rb6 Sn23 4.163097 1_455
Rb6 Sn21 4.163097 1_455
Rb7 Sn12 4.163097 1_556
Rb7 Sn16 4.163097 1_556
Rb7 Sn14 4.163097 1_456
Rb7 Sn22 4.163097 1_555
Rb7 Sn18 4.163097 1_456
Rb7 Sn20 4.163097 1_555
Rb7 Sn23 4.163097 1_455
Rb7 Sn21 4.163097 1_455
Sn0 Sn24 2.909020 1_555
Sn0 Sn34 2.909020 1_455
Sn0 Sn2 2.914873 1_545
Sn1 Sn32 2.909020 1_555
Sn1 Sn25 2.909020 1_455
Sn1 Sn3 2.914873 1_565
Sn2 Sn30 2.909020 1_555
Sn2 Sn26 2.909020 1_455
Sn4 Sn8 2.914873 1_554
Sn5 Sn9 2.914873 1_555
Sn10 Sn34 2.909020 1_555
Sn10 Sn26 2.909020 1_545
Sn10 Sn6 2.914873 1_554
Sn11 Sn35 2.909020 1_555
Sn11 Sn36 2.909020 1_555
Sn11 Sn7 2.914873 1_555
Sn12 Sn24 2.909020 1_555
Sn12 Sn29 2.909020 1_554
Sn12 Sn18 2.914873 1_455
Sn13 Sn28 2.909020 1_555
Sn13 Sn37 2.909020 1_555
Sn13 Sn19 2.914873 1_555
Sn14 Sn26 2.909020 1_555
Sn14 Sn25 2.909020 1_554
Sn14 Sn16 2.914873 1_655
Sn15 Sn36 2.909020 1_555
Sn15 Sn31 2.909020 1_555
Sn15 Sn17 2.914873 1_555
Sn16 Sn30 2.909020 1_555
Sn16 Sn32 2.909020 1_554
Sn17 Sn39 2.909020 1_555
Sn17 Sn33 2.909020 1_555
Sn18 Sn34 2.909020 1_555
Sn18 Sn27 2.909020 1_554
Sn19 Sn35 2.909020 1_555
Sn19 Sn38 2.909020 1_555
Sn20 Sn38 2.909020 1_555
Sn20 Sn37 2.909020 1_555
Sn20 Sn22 2.914873 1_555
Sn21 Sn36 2.909020 1_555
Sn21 Sn39 2.909020 1_555
Sn21 Sn23 2.914873 1_555
Sn22 Sn31 2.909020 1_555
Sn22 Sn33 2.909020 1_555
Sn23 Sn35 2.909020 1_555
Sn23 Sn28 2.909020 1_555
Sn24 Sn33 2.897882 1_555
Sn24 Sn4 2.909020 1_555
Sn25 Sn35 2.897882 1_555
Sn25 Sn6 2.909020 1_565
Sn26 Sn28 2.897882 1_555
Sn27 Sn36 2.897882 1_555
Sn27 Sn6 2.909020 1_555
Sn27 Sn3 2.909020 1_655
Sn28 Sn5 2.909020 1_555
Sn29 Sn31 2.897882 1_555
Sn29 Sn8 2.909020 1_555
Sn29 Sn3 2.909020 1_555
Sn30 Sn37 2.897882 1_555
Sn30 Sn4 2.909020 1_565
Sn31 Sn7 2.909020 1_555
Sn32 Sn38 2.897882 1_555
Sn32 Sn8 2.909020 1_565
Sn33 Sn9 2.909020 1_555
Sn34 Sn39 2.897882 1_555
Sn37 Sn9 2.909020 1_555
Sn38 Sn7 2.909020 1_555
Sn39 Sn5 2.909020 1_555
Hg0 Sn9 2.871831 1_555
Hg0 Sn16 2.871831 1_555
Hg0 Sn12 2.871831 1_555
Hg0 Sn7 2.871831 1_554
Hg1 Sn14 2.871831 1_555
Hg1 Sn18 2.871831 1_555
Hg1 Sn5 2.871831 1_555
Hg1 Sn11 2.871831 1_554
Hg2 Sn22 2.871831 1_555
Hg2 Sn0 2.871831 1_555
Hg2 Sn3 2.871831 1_555
Hg2 Sn21 2.871831 1_455
Hg3 Sn1 2.871831 1_555
Hg3 Sn20 2.871831 1_555
Hg3 Sn2 2.871831 1_555
Hg3 Sn23 2.871831 1_455
Hg4 Sn17 2.871831 1_555
Hg4 Sn10 2.871831 1_555
Hg4 Sn4 2.871831 1_555
Hg4 Sn13 2.871831 1_545
Hg5 Sn6 2.871831 1_555
Hg5 Sn15 2.871831 1_555
Hg5 Sn8 2.871831 1_555
Hg5 Sn19 2.871831 1_545
