# generated using pymatgen
data_EuCN2
_symmetry_space_group_name_H-M   'P 1'
_cell_length_a   3.89541796
_cell_length_b   12.22524718
_cell_length_c   5.41571080
_cell_angle_alpha   90.00000000
_cell_angle_beta   90.00000000
_cell_angle_gamma   90.00000000
_symmetry_Int_Tables_number   1
_chemical_formula_structural   EuCN2
_chemical_formula_sum   'Eu4 C4 N8'
_cell_volume   257.90940287
_cell_formula_units_Z   4
loop_
 _symmetry_equiv_pos_site_id
 _symmetry_equiv_pos_as_xyz
  1  'x, y, z'
loop_
 _atom_site_type_symbol
 _atom_site_label
 _atom_site_symmetry_multiplicity
 _atom_site_fract_x
 _atom_site_fract_y
 _atom_site_fract_z
 _atom_site_occupancy
  Eu  Eu0  1  0.75000000  0.63190586  0.61472717  1
  Eu  Eu1  1  0.25000000  0.36809414  0.38527283  1
  Eu  Eu2  1  0.25000000  0.86809414  0.11472717  1
  Eu  Eu3  1  0.75000000  0.13190586  0.88527283  1
  C  C0  1  0.75000000  0.87799584  0.61585784  1
  C  C1  1  0.25000000  0.12200416  0.38414216  1
  C  C2  1  0.25000000  0.62200416  0.11585784  1
  C  C3  1  0.75000000  0.37799584  0.88414216  1
  N  N0  1  0.75000000  0.92356339  0.81892052  1
  N  N1  1  0.25000000  0.07643661  0.18107948  1
  N  N2  1  0.25000000  0.57643661  0.31892052  1
  N  N3  1  0.75000000  0.42356339  0.68107948  1
  N  N4  1  0.75000000  0.82916450  0.41586268  1
  N  N5  1  0.25000000  0.17083550  0.58413732  1
  N  N6  1  0.25000000  0.67083550  0.91586268  1
  N  N7  1  0.75000000  0.32916450  0.08413732  1
loop_
_geom_bond_atom_site_label_1
_geom_bond_atom_site_label_2
_geom_bond_distance
_geom_bond_site_symmetry_2
Eu0 N3 2.572262 1_555
Eu0 N6 2.584529 1_655
Eu0 N6 2.584529 1_555
Eu0 N2 2.611482 1_655
Eu0 N2 2.611482 1_555
Eu0 N4 2.641101 1_555
Eu1 N2 2.572262 1_555
Eu1 N7 2.584529 1_555
Eu1 N7 2.584529 1_455
Eu1 N3 2.611482 1_555
Eu1 N3 2.611482 1_455
Eu1 N5 2.641101 1_555
Eu2 N1 2.572262 1_565
Eu2 N4 2.584529 1_555
Eu2 N4 2.584529 1_455
Eu2 N0 2.611482 1_454
Eu2 N0 2.611482 1_554
Eu2 N6 2.641101 1_554
Eu3 N0 2.572262 1_545
Eu3 N5 2.584529 1_555
Eu3 N5 2.584529 1_655
Eu3 N1 2.611482 1_556
Eu3 N1 2.611482 1_656
Eu3 N7 2.641101 1_556
C0 N0 1.232775 1_555
C0 N4 1.236737 1_555
C1 N1 1.232775 1_555
C1 N5 1.236737 1_555
C2 N2 1.232775 1_555
C2 N6 1.236737 1_554
C3 N3 1.232775 1_555
C3 N7 1.236737 1_556
