# generated using pymatgen
data_NdInNi
_symmetry_space_group_name_H-M   'P 1'
_cell_length_a   7.88484460
_cell_length_b   7.88180330
_cell_length_c   3.79397100
_cell_angle_alpha   89.99926783
_cell_angle_beta   89.99971664
_cell_angle_gamma   119.35560087
_symmetry_Int_Tables_number   1
_chemical_formula_structural   NdInNi
_chemical_formula_sum   'Nd3 In3 Ni3'
_cell_volume   205.50715531
_cell_formula_units_Z   3
loop_
 _symmetry_equiv_pos_site_id
 _symmetry_equiv_pos_as_xyz
  1  'x, y, z'
loop_
 _atom_site_type_symbol
 _atom_site_label
 _atom_site_symmetry_multiplicity
 _atom_site_fract_x
 _atom_site_fract_y
 _atom_site_fract_z
 _atom_site_occupancy
  Nd  Nd0  1  0.33127500  0.33134300  0.50000900  1
  Nd  Nd1  1  0.67129000  0.00139900  0.50000300  1
  Nd  Nd2  1  0.00140700  0.67138400  0.50000400  1
  In  In0  1  0.66400600  0.66400100  0.99994900  1
  In  In1  1  0.33646200  0.00015900  0.00002800  1
  In  In2  1  0.00014300  0.33646800  0.99998900  1
  Ni  Ni0  1  0.99854100  0.99849600  0.00001300  1
  Ni  Ni1  1  0.66510700  0.33182100  0.00000400  1
  Ni  Ni2  1  0.33187000  0.66502900  0.00000200  1
loop_
_geom_bond_atom_site_label_1
_geom_bond_atom_site_label_2
_geom_bond_distance
_geom_bond_site_symmetry_2
Nd0 Ni2 3.240926 1_555
Nd0 Ni2 3.240934 1_556
Nd0 Ni1 3.243050 1_556
Nd0 Ni1 3.243056 1_555
Nd0 Ni0 3.258170 1_446
Nd0 Ni0 3.258206 1_445
Nd1 Ni0 3.211673 1_545
Nd1 Ni0 3.211732 1_546
Nd1 Ni1 3.241568 1_555
Nd1 Ni1 3.241611 1_556
Nd1 Ni2 3.291352 1_546
Nd1 Ni2 3.291411 1_545
Nd2 Ni0 3.209862 1_455
Nd2 Ni0 3.209942 1_456
Nd2 Ni2 3.243211 1_555
Nd2 Ni2 3.243216 1_556
Nd2 Ni1 3.291585 1_456
Nd2 Ni1 3.291640 1_455
In0 Ni1 2.622444 1_556
In0 Ni2 2.622822 1_556
In0 Ni0 2.662734 1_556
In0 Nd1 3.243933 1_565
In0 Nd1 3.244212 1_566
In0 Nd2 3.244503 1_655
In0 Nd2 3.244763 1_656
In0 Nd0 3.257462 1_555
In0 Nd0 3.257673 1_556
In1 Ni2 2.623869 1_545
In1 Ni1 2.628088 1_555
In1 Ni0 2.658053 1_445
In1 Nd0 3.243233 1_555
In1 Nd0 3.243278 1_554
In1 Nd1 3.246998 1_555
In1 Nd1 3.247093 1_554
In1 Nd2 3.252741 1_545
In1 Nd2 3.252901 1_544
In2 Ni1 2.623946 1_456
In2 Ni2 2.628039 1_556
In2 Ni0 2.657659 1_446
In2 Nd0 3.243483 1_555
In2 Nd0 3.243586 1_556
In2 Nd2 3.246653 1_555
In2 Nd2 3.246758 1_556
In2 Nd1 3.253078 1_455
In2 Nd1 3.253086 1_456
