# generated using pymatgen
data_LuCuTe2
_symmetry_space_group_name_H-M   'P 1'
_cell_length_a   4.21823330
_cell_length_b   4.21823330
_cell_length_c   6.63649900
_cell_angle_alpha   90.00000000
_cell_angle_beta   90.00000000
_cell_angle_gamma   119.99998909
_symmetry_Int_Tables_number   1
_chemical_formula_structural   LuCuTe2
_chemical_formula_sum   'Lu1 Cu1 Te2'
_cell_volume   102.26591425
_cell_formula_units_Z   1
loop_
 _symmetry_equiv_pos_site_id
 _symmetry_equiv_pos_as_xyz
  1  'x, y, z'
loop_
 _atom_site_type_symbol
 _atom_site_label
 _atom_site_symmetry_multiplicity
 _atom_site_fract_x
 _atom_site_fract_y
 _atom_site_fract_z
 _atom_site_occupancy
  Lu  Lu0  1  0.00000000  0.00000000  0.00000000  1
  Cu  Cu0  1  0.00000000  0.00000000  0.50000000  1
  Te  Te0  1  0.66666700  0.33333300  0.72774700  1
  Te  Te1  1  0.33333300  0.66666700  0.27225300  1
loop_
_geom_bond_atom_site_label_1
_geom_bond_atom_site_label_2
_geom_bond_distance
_geom_bond_site_symmetry_2
Lu0 Te1 3.032442 1_545
Lu0 Te0 3.032442 1_454
Lu0 Te1 3.032445 1_555
Lu0 Te1 3.032445 1_445
Lu0 Te0 3.032445 1_554
Lu0 Te0 3.032445 1_444
Cu0 Te0 2.866289 1_455
Cu0 Te1 2.866289 1_545
Cu0 Te0 2.866292 1_445
Cu0 Te0 2.866292 1_555
Cu0 Te1 2.866292 1_555
Cu0 Te1 2.866292 1_445
Cu0 Lu0 3.318249 1_556
Cu0 Lu0 3.318249 1_555
