# generated using pymatgen
data_Na2P2S2O7
_symmetry_space_group_name_H-M   'P 1'
_cell_length_a   8.70415199
_cell_length_b   8.84319367
_cell_length_c   14.53770094
_cell_angle_alpha   82.50657542
_cell_angle_beta   88.61137126
_cell_angle_gamma   119.76957974
_symmetry_Int_Tables_number   1
_chemical_formula_structural   Na2P2S2O7
_chemical_formula_sum   'Na8 P8 S8 O28'
_cell_volume   957.87044792
_cell_formula_units_Z   4
loop_
 _symmetry_equiv_pos_site_id
 _symmetry_equiv_pos_as_xyz
  1  'x, y, z'
loop_
 _atom_site_type_symbol
 _atom_site_label
 _atom_site_symmetry_multiplicity
 _atom_site_fract_x
 _atom_site_fract_y
 _atom_site_fract_z
 _atom_site_occupancy
  Na  Na0  1  0.16897800  0.57817100  0.21082900  1
  Na  Na1  1  0.83102200  0.42182900  0.78917100  1
  Na  Na2  1  0.80156400  0.53329600  0.05126100  1
  Na  Na3  1  0.19843600  0.46670400  0.94873900  1
  Na  Na4  1  0.26239700  0.83722800  0.40931000  1
  Na  Na5  1  0.73760300  0.16277200  0.59069000  1
  Na  Na6  1  0.34781300  0.12298800  0.74012700  1
  Na  Na7  1  0.65218700  0.87701200  0.25987300  1
  P  P0  1  0.55854900  0.98084100  0.87994300  1
  P  P1  1  0.44145100  0.01915900  0.12005700  1
  P  P2  1  0.79693100  0.17641600  0.01879100  1
  P  P3  1  0.20306900  0.82358400  0.98120900  1
  P  P4  1  0.31677500  0.46183800  0.61718800  1
  P  P5  1  0.68322500  0.53816200  0.38281200  1
  P  P6  1  0.29110000  0.41824700  0.41132000  1
  P  P7  1  0.70890000  0.58175300  0.58868000  1
  S  S0  1  0.06179400  0.87661100  0.89660500  1
  S  S1  1  0.93820600  0.12338900  0.10339500  1
  S  S2  1  0.32917000  0.09265400  0.22182700  1
  S  S3  1  0.67083000  0.90734600  0.77817300  1
  S  S4  1  0.11472700  0.21772900  0.36050800  1
  S  S5  1  0.88527300  0.78227100  0.63949200  1
  S  S6  1  0.18673100  0.60786300  0.63712100  1
  S  S7  1  0.81326900  0.39213700  0.36287900  1
  O  O0  1  0.11436000  0.65474500  0.05066900  1
  O  O1  1  0.88564000  0.34525500  0.94933100  1
  O  O2  1  0.36901700  0.81332000  0.92386600  1
  O  O3  1  0.63098300  0.18668000  0.07613400  1
  O  O4  1  0.32256700  0.99284500  0.03328900  1
  O  O5  1  0.67743300  0.00715500  0.96671100  1
  O  O6  1  0.44853400  0.85686900  0.15599400  1
  O  O7  1  0.55146600  0.14313100  0.84400600  1
  O  O8  1  0.27943000  0.32722400  0.69953100  1
  O  O9  1  0.72057000  0.67277600  0.30046900  1
  O  O10  1  0.66597300  0.39620400  0.62716400  1
  O  O11  1  0.33402700  0.60379600  0.37283600  1
  O  O12  1  0.52440800  0.59376100  0.58488900  1
  O  O13  1  0.47559200  0.40623900  0.41511100  1
  O  O14  1  0.23523500  0.38196700  0.52534200  1
  O  O15  1  0.76476500  0.61803300  0.47465800  1
  O  O16  1  0.81793100  0.09978200  0.73335100  1
  O  O17  1  0.18206900  0.90021800  0.26664900  1
  O  O18  1  0.14740400  0.58951400  0.74331200  1
  O  O19  1  0.85259600  0.41048600  0.25668800  1
  O  O20  1  0.39517400  0.50702900  0.08817400  1
  O  O21  1  0.60482600  0.49297100  0.91182600  1
  O  O22  1  0.67112100  0.96935400  0.47071900  1
  O  O23  1  0.32887900  0.03064600  0.52928100  1
  O  O24  1  0.61336500  0.01622500  0.39817200  1
  O  O25  1  0.38663500  0.98377500  0.60182800  1
  O  O26  1  0.43768500  0.41149000  0.90925100  1
  O  O27  1  0.56231500  0.58851000  0.09074900  1
loop_
_geom_bond_atom_site_label_1
_geom_bond_atom_site_label_2
_geom_bond_distance
_geom_bond_site_symmetry_2
Na0 O19 2.413514 1_455
Na0 O0 2.463310 1_555
Na0 O6 2.463511 1_555
Na0 O11 2.764441 1_555
Na0 O20 2.967172 1_555
Na1 O18 2.413514 1_655
Na1 O1 2.463310 1_555
Na1 O7 2.463511 1_555
Na1 O10 2.764441 1_555
Na1 O21 2.967172 1_555
Na2 O0 2.378861 1_655
Na2 O27 2.435050 1_555
Na2 O3 2.626066 1_555
Na2 O21 2.630395 1_554
Na2 O1 2.700946 1_554
Na2 S0 3.247598 1_654
Na3 O1 2.378861 1_455
Na3 O26 2.435050 1_555
Na3 O2 2.626066 1_555
Na3 O20 2.630395 1_556
Na3 O0 2.700946 1_556
Na3 S1 3.247598 1_456
Na4 O17 2.292637 1_555
Na4 O23 2.479206 1_565
Na4 O11 2.545327 1_555
Na4 O24 2.640342 1_565
Na5 O16 2.292637 1_555
Na5 O22 2.479206 1_545
Na5 O10 2.545327 1_555
Na5 O25 2.640342 1_545
Na6 O8 2.184287 1_555
Na6 O7 2.311034 1_555
Na6 O25 2.588016 1_545
Na6 O10 2.881656 1_555
Na6 S0 3.027572 1_545
Na7 O9 2.184287 1_555
Na7 O6 2.311034 1_555
Na7 O24 2.588016 1_565
Na7 O11 2.881656 1_555
Na7 S1 3.027572 1_565
P0 S3 2.092355 1_555
P1 S2 2.092355 1_555
P2 S1 1.933974 1_555
P3 S0 1.933974 1_555
P4 S6 2.136806 1_555
P5 S7 2.136806 1_555
P6 S4 1.933940 1_555
P7 S5 1.933940 1_555
O0 P3 1.506417 1_554
O1 P2 1.506417 1_556
O2 P0 1.612216 1_555
O2 P3 1.697395 1_555
O3 P1 1.612216 1_555
O3 P2 1.697395 1_555
O4 P1 1.617648 1_565
O4 P3 1.638070 1_554
O5 P0 1.617648 1_545
O5 P2 1.638070 1_556
O6 P1 1.493418 1_565
O7 P0 1.493418 1_545
O8 P4 1.476806 1_555
O9 P5 1.476806 1_555
O10 P7 1.512152 1_555
O11 P6 1.512152 1_555
O12 P4 1.603123 1_555
O12 P7 1.662875 1_555
O13 P5 1.603123 1_555
O13 P6 1.662875 1_555
O14 P4 1.606100 1_555
O14 P6 1.659632 1_555
O15 P5 1.606100 1_555
O15 P7 1.659632 1_555
O16 S3 1.570533 1_545
O17 S2 1.570533 1_565
O18 S6 1.542930 1_555
O19 S7 1.542930 1_555
O20 O27 1.267206 1_555
O21 O26 1.267206 1_555
O22 O24 1.286640 1_565
O23 O25 1.286640 1_545
