# generated using pymatgen
data_Mg14WC
_symmetry_space_group_name_H-M   'P 1'
_cell_length_a   6.23874213
_cell_length_b   7.81139508
_cell_length_c   9.14181287
_cell_angle_alpha   90.00000000
_cell_angle_beta   90.00000000
_cell_angle_gamma   128.75851335
_symmetry_Int_Tables_number   1
_chemical_formula_structural   Mg14WC
_chemical_formula_sum   'Mg14 W1 C1'
_cell_volume   347.40530545
_cell_formula_units_Z   1
loop_
 _symmetry_equiv_pos_site_id
 _symmetry_equiv_pos_as_xyz
  1  'x, y, z'
loop_
 _atom_site_type_symbol
 _atom_site_label
 _atom_site_symmetry_multiplicity
 _atom_site_fract_x
 _atom_site_fract_y
 _atom_site_fract_z
 _atom_site_occupancy
  Mg  Mg0  1  0.28938539  0.39469219  0.62500000  1
  Mg  Mg1  1  0.19667468  0.84833684  0.62500000  1
  Mg  Mg2  1  0.81031128  0.38565914  0.12500000  1
  Mg  Mg3  1  0.73220348  0.33993605  0.62500000  1
  Mg  Mg4  1  0.81031128  0.92465114  0.12500000  1
  Mg  Mg5  1  0.73220348  0.89226643  0.62500000  1
  Mg  Mg6  1  0.29787407  0.10683551  0.33859923  1
  Mg  Mg7  1  0.29787407  0.10683551  0.91140077  1
  Mg  Mg8  1  0.29787407  0.69103956  0.33859923  1
  Mg  Mg9  1  0.29787407  0.69103956  0.91140077  1
  Mg  Mg10  1  0.88354976  0.19177538  0.37244203  1
  Mg  Mg11  1  0.88354976  0.19177538  0.87755797  1
  Mg  Mg12  1  0.73124062  0.61562081  0.37376385  1
  Mg  Mg13  1  0.73124062  0.61562081  0.87623615  1
  W  W0  1  0.30947705  0.40473803  0.12500000  1
  C  C0  1  0.69835630  0.59917765  0.12500000  1
loop_
_geom_bond_atom_site_label_1
_geom_bond_atom_site_label_2
_geom_bond_distance
_geom_bond_site_symmetry_2
Mg0 Mg10 3.037897 1_455
Mg0 Mg11 3.037897 1_455
Mg0 Mg5 3.048698 1_555
Mg0 Mg3 3.048698 1_555
Mg0 Mg12 3.145761 1_555
Mg0 Mg13 3.145761 1_555
Mg0 Mg5 3.225633 1_445
Mg0 Mg3 3.225634 1_455
Mg0 Mg7 3.473186 1_555
Mg0 Mg6 3.473186 1_555
Mg0 Mg9 3.473197 1_555
Mg0 Mg8 3.473197 1_555
Mg1 Mg9 3.120054 1_555
Mg1 Mg8 3.120054 1_555
Mg1 Mg7 3.120062 1_565
Mg1 Mg6 3.120062 1_565
Mg1 Mg3 3.124023 1_455
Mg1 Mg5 3.124023 1_455
Mg1 Mg3 3.137631 1_565
Mg1 Mg5 3.137631 1_555
Mg1 Mg13 3.225233 1_455
Mg1 Mg12 3.225233 1_455
Mg3 Mg7 3.366787 1_555
Mg3 Mg6 3.366787 1_555
Mg3 Mg5 3.496924 1_545
Mg5 Mg9 3.366788 1_555
Mg5 Mg8 3.366788 1_555
Mg6 W0 3.003730 1_555
Mg7 W0 3.003730 1_556
Mg8 W0 3.003742 1_555
Mg9 W0 3.003742 1_556
Mg10 Mg2 2.913054 1_555
Mg10 Mg4 2.913064 1_545
Mg10 Mg3 2.988301 1_555
Mg10 Mg5 2.988310 1_545
Mg10 Mg8 3.060203 1_655
Mg10 Mg6 3.060204 1_655
Mg10 W0 3.067663 1_655
Mg10 Mg8 3.294133 1_545
Mg10 Mg6 3.294133 1_555
Mg11 Mg2 2.913054 1_556
Mg11 Mg4 2.913064 1_546
Mg11 Mg3 2.988301 1_555
Mg11 Mg5 2.988310 1_545
Mg11 Mg9 3.060203 1_655
Mg11 Mg7 3.060204 1_655
Mg11 W0 3.067663 1_656
Mg11 Mg9 3.294133 1_545
Mg11 Mg7 3.294133 1_555
Mg12 Mg5 3.150989 1_555
Mg12 Mg3 3.151000 1_555
Mg13 Mg5 3.150989 1_555
Mg13 Mg3 3.151000 1_555
C0 W0 1.891866 1_555
C0 Mg4 2.174456 1_555
C0 Mg2 2.174456 1_555
C0 Mg12 2.279773 1_555
C0 Mg13 2.279773 1_554
