# generated using pymatgen
data_U2Si3Rh
_symmetry_space_group_name_H-M   'P 1'
_cell_length_a   3.72093400
_cell_length_b   4.17896100
_cell_length_c   7.10234300
_cell_angle_alpha   90.00000000
_cell_angle_beta   90.00000000
_cell_angle_gamma   90.00000000
_symmetry_Int_Tables_number   1
_chemical_formula_structural   U2Si3Rh
_chemical_formula_sum   'U2 Si3 Rh1'
_cell_volume   110.43886310
_cell_formula_units_Z   1
loop_
 _symmetry_equiv_pos_site_id
 _symmetry_equiv_pos_as_xyz
  1  'x, y, z'
loop_
 _atom_site_type_symbol
 _atom_site_label
 _atom_site_symmetry_multiplicity
 _atom_site_fract_x
 _atom_site_fract_y
 _atom_site_fract_z
 _atom_site_occupancy
  U  U0  1  0.00000000  0.50000000  0.99970400  1
  U  U1  1  0.00000000  0.00000000  0.50040500  1
  Si  Si0  1  0.50000000  0.00000000  0.83155200  1
  Si  Si1  1  0.50000000  0.00000000  0.15973200  1
  Si  Si2  1  0.50000000  0.50000000  0.67384400  1
  Rh  Rh0  1  0.50000000  0.50000000  0.33476200  1
loop_
_geom_bond_atom_site_label_1
_geom_bond_atom_site_label_2
_geom_bond_distance
_geom_bond_site_symmetry_2
Si0 Si1 2.330847 1_556
Si0 Si2 2.370769 1_545
Si0 Si2 2.370769 1_555
Si0 U1 2.998810 1_655
Si0 U1 2.998810 1_555
Si0 U0 3.041966 1_545
Si0 U0 3.041966 1_555
Si0 U0 3.041966 1_655
Si0 U0 3.041966 1_645
Si1 U0 3.019779 1_654
Si1 U0 3.019779 1_544
Si1 U0 3.019779 1_554
Si1 U0 3.019779 1_644
Si1 U1 3.052161 1_555
Si1 U1 3.052161 1_655
Si2 U0 2.969452 1_655
Si2 U0 2.969452 1_555
Si2 U1 3.056903 1_565
Si2 U1 3.056903 1_655
Si2 U1 3.056903 1_665
Si2 U1 3.056903 1_555
Rh0 Si2 2.408277 1_555
Rh0 Si1 2.431313 1_565
Rh0 Si1 2.431313 1_555
Rh0 U0 3.020645 1_654
Rh0 U0 3.020645 1_554
Rh0 U1 3.035014 1_565
Rh0 U1 3.035014 1_655
Rh0 U1 3.035014 1_665
Rh0 U1 3.035014 1_555
