# generated using pymatgen
data_Ti3NiSb2(PO4)6
_symmetry_space_group_name_H-M   'P 1'
_cell_length_a   8.87375605
_cell_length_b   8.87375605
_cell_length_c   8.87375539
_cell_angle_alpha   58.85274512
_cell_angle_beta   58.85274512
_cell_angle_gamma   58.85274292
_symmetry_Int_Tables_number   1
_chemical_formula_structural   Ti3NiSb2(PO4)6
_chemical_formula_sum   'Ti3 Ni1 Sb2 P6 O24'
_cell_volume   481.15039258
_cell_formula_units_Z   1
loop_
 _symmetry_equiv_pos_site_id
 _symmetry_equiv_pos_as_xyz
  1  'x, y, z'
loop_
 _atom_site_type_symbol
 _atom_site_label
 _atom_site_symmetry_multiplicity
 _atom_site_fract_x
 _atom_site_fract_y
 _atom_site_fract_z
 _atom_site_occupancy
  Ti  Ti0  1  0.14584700  0.14584700  0.14584700  1
  Ti  Ti1  1  0.35091400  0.35091400  0.35091400  1
  Ti  Ti2  1  0.64948900  0.64949000  0.64949000  1
  Ni  Ni0  1  0.85022400  0.85022400  0.85022400  1
  Sb  Sb0  1  0.99094700  0.99094700  0.99094700  1
  Sb  Sb1  1  0.49589900  0.49589900  0.49589900  1
  P  P0  1  0.04171100  0.46093500  0.75201400  1
  P  P1  1  0.46093500  0.75201400  0.04171100  1
  P  P2  1  0.25083200  0.95906300  0.54068000  1
  P  P3  1  0.54068000  0.25083200  0.95906300  1
  P  P4  1  0.95906300  0.54068000  0.25083200  1
  P  P5  1  0.75201400  0.04171100  0.46093500  1
  O  O0  1  0.11759400  0.50106400  0.30602500  1
  O  O1  1  0.30602500  0.11759400  0.50106400  1
  O  O2  1  0.06309500  0.26851700  0.91502300  1
  O  O3  1  0.50106400  0.30602500  0.11759400  1
  O  O4  1  0.01454700  0.61539100  0.79884600  1
  O  O5  1  0.23435500  0.43531400  0.58148100  1
  O  O6  1  0.26851700  0.91502300  0.06309500  1
  O  O7  1  0.43531400  0.58148100  0.23435500  1
  O  O8  1  0.19462800  0.99721100  0.38412200  1
  O  O9  1  0.58148100  0.23435500  0.43531400  1
  O  O10  1  0.08592000  0.94211700  0.73330900  1
  O  O11  1  0.38412200  0.19462800  0.99721100  1
  O  O12  1  0.61539100  0.79884600  0.01454700  1
  O  O13  1  0.91502300  0.06309500  0.26851700  1
  O  O14  1  0.41703900  0.76959900  0.56047300  1
  O  O15  1  0.79884600  0.01454700  0.61539100  1
  O  O16  1  0.56047300  0.41703900  0.76959900  1
  O  O17  1  0.73330900  0.08592000  0.94211700  1
  O  O18  1  0.76959900  0.56047300  0.41703900  1
  O  O19  1  0.99721100  0.38412200  0.19462800  1
  O  O20  1  0.49499100  0.69593800  0.88484600  1
  O  O21  1  0.94211700  0.73330900  0.08592000  1
  O  O22  1  0.69593800  0.88484600  0.49499100  1
  O  O23  1  0.88484600  0.49499100  0.69593800  1
loop_
_geom_bond_atom_site_label_1
_geom_bond_atom_site_label_2
_geom_bond_distance
_geom_bond_site_symmetry_2
Ni0 O15 1.956596 1_565
Ni0 O4 1.956596 1_655
Ni0 O12 1.956596 1_556
Ni0 O21 2.181772 1_556
Ni0 O17 2.181772 1_565
Ni0 O10 2.181772 1_655
O0 P4 1.538015 1_455
O0 Ti1 1.915982 1_555
O1 P2 1.538015 1_545
O1 Ti1 1.915982 1_555
O2 P0 1.561277 1_555
O2 Ti0 2.083777 1_556
O2 Sb0 2.529628 1_445
O3 P3 1.538015 1_554
O3 Ti1 1.915982 1_555
O4 P0 1.501065 1_555
O5 P0 1.594285 1_555
O5 Ti1 2.100350 1_555
O5 Sb1 2.301591 1_555
O6 P1 1.561277 1_555
O6 Ti0 2.083777 1_565
O6 Sb0 2.529628 1_454
O7 P1 1.594285 1_555
O7 Ti1 2.100350 1_555
O7 Sb1 2.301591 1_555
O8 P2 1.532640 1_555
O8 Ti0 1.966960 1_565
O9 P5 1.594285 1_555
O9 Ti1 2.100350 1_555
O9 Sb1 2.301591 1_555
O10 P2 1.568449 1_555
O10 Sb0 2.186009 1_455
O11 P3 1.532640 1_555
O11 Ti0 1.966960 1_556
O12 P1 1.501065 1_555
O13 P5 1.561277 1_555
O13 Ti0 2.083777 1_655
O13 Sb0 2.529628 1_544
O14 P2 1.558878 1_555
O14 Ti2 2.134250 1_555
O14 Sb1 2.446126 1_555
O15 P5 1.501065 1_555
O16 P3 1.558878 1_555
O16 Ti2 2.134252 1_555
O16 Sb1 2.446126 1_555
O17 P3 1.568449 1_555
O17 Sb0 2.186009 1_545
O18 P4 1.558878 1_555
O18 Ti2 2.134256 1_555
O18 Sb1 2.446126 1_555
O19 P4 1.532640 1_555
O19 Ti0 1.966960 1_655
O20 P1 1.549955 1_556
O20 Ti2 1.937833 1_555
O21 P4 1.568449 1_555
O21 Sb0 2.186009 1_554
O22 P5 1.549955 1_565
O22 Ti2 1.937837 1_555
O23 P0 1.549955 1_655
O23 Ti2 1.937840 1_555
