# generated using pymatgen
data_K3Co
_symmetry_space_group_name_H-M   'P 1'
_cell_length_a   9.80912100
_cell_length_b   6.93983100
_cell_length_c   8.20788423
_cell_angle_alpha   73.71523510
_cell_angle_beta   90.00000000
_cell_angle_gamma   90.00000000
_symmetry_Int_Tables_number   1
_chemical_formula_structural   K3Co
_chemical_formula_sum   'K6 Co2'
_cell_volume   536.32383860
_cell_formula_units_Z   2
loop_
 _symmetry_equiv_pos_site_id
 _symmetry_equiv_pos_as_xyz
  1  'x, y, z'
loop_
 _atom_site_type_symbol
 _atom_site_label
 _atom_site_symmetry_multiplicity
 _atom_site_fract_x
 _atom_site_fract_y
 _atom_site_fract_z
 _atom_site_occupancy
  K  K0  1  0.00000000  0.00000000  0.50000000  1
  K  K1  1  0.50000000  0.00000000  0.00000000  1
  K  K2  1  0.24752500  0.49847100  0.12546200  1
  K  K3  1  0.74752500  0.50152900  0.37453800  1
  K  K4  1  0.75247500  0.50152900  0.87453800  1
  K  K5  1  0.25247500  0.49847100  0.62546200  1
  Co  Co0  1  0.00000000  0.00000000  0.00000000  1
  Co  Co1  1  0.50000000  0.00000000  0.50000000  1
loop_
_geom_bond_atom_site_label_1
_geom_bond_atom_site_label_2
_geom_bond_distance
_geom_bond_site_symmetry_2
K0 K5 4.159058 1_545
K0 K3 4.159058 1_455
K0 K5 4.599826 1_555
K0 K3 4.599826 1_445
K0 K4 4.620435 1_445
K0 K2 4.620435 1_555
K1 K4 4.159058 1_554
K1 K2 4.159058 1_545
K1 K2 4.599826 1_555
K1 K4 4.599826 1_544
K1 K5 4.620435 1_554
K1 K3 4.620435 1_545
K2 K5 4.104229 1_555
K2 K5 4.104229 1_554
K3 K4 4.104229 1_555
K3 K4 4.104229 1_554
Co0 K0 4.103942 1_554
Co0 K0 4.103942 1_555
Co0 K4 4.130329 1_454
Co0 K2 4.130329 1_545
Co1 K1 4.103942 1_555
Co1 K1 4.103942 1_556
Co1 K3 4.130329 1_555
Co1 K5 4.130329 1_545
