# generated using pymatgen
data_Dy2B6Ru
_symmetry_space_group_name_H-M   'P 1'
_cell_length_a   3.65939447
_cell_length_b   9.13605387
_cell_length_c   11.49900063
_cell_angle_alpha   90.00030389
_cell_angle_beta   90.00000000
_cell_angle_gamma   90.00000000
_symmetry_Int_Tables_number   1
_chemical_formula_structural   Dy2B6Ru
_chemical_formula_sum   'Dy8 B24 Ru4'
_cell_volume   384.43947624
_cell_formula_units_Z   4
loop_
 _symmetry_equiv_pos_site_id
 _symmetry_equiv_pos_as_xyz
  1  'x, y, z'
loop_
 _atom_site_type_symbol
 _atom_site_label
 _atom_site_symmetry_multiplicity
 _atom_site_fract_x
 _atom_site_fract_y
 _atom_site_fract_z
 _atom_site_occupancy
  Dy  Dy0  1  0.00000000  0.32274890  0.41418236  1
  Dy  Dy1  1  0.00000000  0.67724850  0.58581240  1
  Dy  Dy2  1  -0.00000000  0.82275119  0.08581992  1
  Dy  Dy3  1  0.00000000  0.17723821  0.91418693  1
  Dy  Dy4  1  0.00000000  0.94387901  0.37270812  1
  Dy  Dy5  1  -0.00000000  0.05611940  0.62729335  1
  Dy  Dy6  1  -0.00000000  0.44388102  0.12729474  1
  Dy  Dy7  1  0.00000000  0.55611790  0.87270449  1
  B  B0  1  0.50000000  0.55394153  0.43259358  1
  B  B1  1  0.50000000  0.44606356  0.56739367  1
  B  B2  1  0.50000000  0.05393391  0.06741078  1
  B  B3  1  0.50000000  0.94606466  0.93260053  1
  B  B4  1  0.50000000  0.74721633  0.41980790  1
  B  B5  1  0.50000000  0.25278517  0.58018083  1
  B  B6  1  0.50000000  0.24721316  0.08020261  1
  B  B7  1  0.50000000  0.75279007  0.91981136  1
  B  B8  1  0.50000000  0.79039571  0.26664501  1
  B  B9  1  0.50000000  0.20961117  0.73334957  1
  B  B10  1  0.50000000  0.29038801  0.23336762  1
  B  B11  1  0.50000000  0.70961170  0.76664007  1
  B  B12  1  0.50000000  0.63223954  0.18562583  1
  B  B13  1  0.50000000  0.36776170  0.81437361  1
  B  B14  1  0.50000000  0.13223292  0.31438535  1
  B  B15  1  0.50000000  0.86775774  0.68561640  1
  B  B16  1  0.50000000  0.98399866  0.21285645  1
  B  B17  1  0.50000000  0.01599319  0.78714721  1
  B  B18  1  0.50000000  0.48401123  0.28715547  1
  B  B19  1  0.50000000  0.51599686  0.71284222  1
  B  B20  1  0.50000000  0.61124264  0.03072857  1
  B  B21  1  0.50000000  0.38876364  0.96928045  1
  B  B22  1  0.50000000  0.11123897  0.46927218  1
  B  B23  1  0.50000000  0.88875332  0.53072140  1
  Ru  Ru0  1  0.00000000  0.63764724  0.32126287  1
  Ru  Ru1  1  0.00000000  0.36236447  0.67872862  1
  Ru  Ru2  1  -0.00000000  0.13763588  0.17872376  1
  Ru  Ru3  1  -0.00000000  0.86236389  0.82127376  1
loop_
_geom_bond_atom_site_label_1
_geom_bond_atom_site_label_2
_geom_bond_distance
_geom_bond_site_symmetry_2
Dy0 Ru1 3.063471 1_555
Dy0 Ru0 3.068941 1_555
Dy0 Ru2 3.192316 1_555
Dy1 Ru0 3.063493 1_555
Dy1 Ru1 3.068806 1_555
Dy1 Ru3 3.192355 1_555
Dy2 Ru3 3.063470 1_554
Dy2 Ru2 3.068751 1_565
Dy2 Ru0 3.192135 1_555
Dy3 Ru2 3.063353 1_556
Dy3 Ru3 3.068700 1_545
Dy3 Ru1 3.192393 1_555
Dy4 Ru2 2.847674 1_565
Dy4 Ru0 2.859605 1_555
Dy5 Ru3 2.847631 1_545
Dy5 Ru1 2.859700 1_555
Dy6 Ru0 2.847566 1_555
Dy6 Ru2 2.859692 1_555
Dy7 Ru1 2.847564 1_555
Dy7 Ru3 2.859704 1_555
B0 B4 1.771880 1_555
B0 B18 1.790269 1_555
B0 B1 1.836869 1_555
B0 Ru0 2.360407 1_655
B0 Ru0 2.360407 1_555
B0 Dy1 2.778673 1_655
B0 Dy1 2.778673 1_555
B0 Dy0 2.802490 1_555
B0 Dy0 2.802490 1_655
B1 B5 1.771914 1_555
B1 B19 1.790391 1_555
B1 Ru1 2.360414 1_655
B1 Ru1 2.360414 1_555
B1 Dy0 2.778647 1_655
B1 Dy0 2.778647 1_555
B1 Dy1 2.802443 1_555
B1 Dy1 2.802443 1_655
B2 B6 1.771925 1_555
B2 B3 1.836916 1_544
B2 Ru2 2.360281 1_555
B2 Ru2 2.360281 1_655
B2 Dy3 2.778707 1_654
B2 Dy3 2.778707 1_554
B2 Dy2 2.802421 1_545
B2 Dy2 2.802421 1_645
B3 B7 1.771880 1_555
B3 Ru3 2.360363 1_655
B3 Ru3 2.360363 1_555
B3 Dy2 2.778709 1_556
B3 Dy2 2.778709 1_656
B3 Dy3 2.802362 1_565
B3 Dy3 2.802362 1_665
B4 B8 1.804862 1_555
B4 Ru0 2.373586 1_555
B4 Ru0 2.373586 1_655
B4 Dy4 2.620942 1_555
B4 Dy4 2.620942 1_655
B4 Dy1 2.720343 1_555
B4 Dy1 2.720343 1_655
B5 B9 1.804917 1_555
B5 Ru1 2.373641 1_555
B5 Ru1 2.373641 1_655
B5 Dy5 2.620992 1_655
B5 Dy5 2.620992 1_555
B5 Dy0 2.720285 1_555
B5 Dy0 2.720285 1_655
B6 Ru2 2.373492 1_655
B6 Ru2 2.373492 1_555
B6 Dy6 2.620953 1_555
B6 Dy6 2.620953 1_655
B6 Dy3 2.720444 1_654
B6 Dy3 2.720444 1_554
B7 Ru3 2.373569 1_655
B7 Ru3 2.373569 1_555
B7 Dy7 2.621015 1_555
B7 Dy7 2.621015 1_655
B7 Dy2 2.720356 1_556
B7 Dy2 2.720356 1_656
B8 Ru0 2.385313 1_555
B8 Ru0 2.385313 1_655
B8 Dy4 2.607969 1_555
B8 Dy4 2.607969 1_655
B8 Dy2 2.785444 1_555
B8 Dy2 2.785444 1_655
B9 Ru1 2.385349 1_555
B9 Ru1 2.385349 1_655
B9 Dy5 2.607973 1_655
B9 Dy5 2.607973 1_555
B9 Dy3 2.785567 1_555
B9 Dy3 2.785567 1_655
B10 B14 1.719218 1_555
B10 B6 1.804872 1_555
B10 B18 1.873961 1_555
B10 Ru2 2.385408 1_655
B10 Ru2 2.385408 1_555
B10 Dy6 2.608076 1_655
B10 Dy6 2.608076 1_555
B10 Dy0 2.785358 1_655
B10 Dy0 2.785358 1_555
B11 B15 1.719185 1_555
B11 B7 1.804950 1_555
B11 B19 1.873927 1_555
B11 Ru3 2.385377 1_655
B11 Ru3 2.385377 1_555
B11 Dy7 2.608034 1_655
B11 Dy7 2.608034 1_555
B11 Dy1 2.785472 1_655
B11 Dy1 2.785472 1_555
B12 B8 1.719227 1_555
B12 B18 1.788006 1_555
B12 B20 1.791463 1_555
B12 Ru0 2.404759 1_555
B12 Ru0 2.404759 1_655
B12 Dy6 2.599812 1_555
B12 Dy6 2.599812 1_655
B12 Dy2 2.773875 1_555
B12 Dy2 2.773875 1_655
B13 B9 1.719214 1_555
B13 B19 1.788066 1_555
B13 B21 1.791577 1_555
B13 Ru1 2.404816 1_555
B13 Ru1 2.404816 1_655
B13 Dy7 2.599797 1_655
B13 Dy7 2.599797 1_555
B13 Dy3 2.773978 1_555
B13 Dy3 2.773978 1_655
B14 B16 1.788032 1_545
B14 B22 1.791343 1_555
B14 Ru2 2.404942 1_555
B14 Ru2 2.404942 1_655
B14 Dy4 2.599764 1_645
B14 Dy4 2.599764 1_545
B14 Dy0 2.773850 1_655
B14 Dy0 2.773850 1_555
B15 B17 1.788055 1_565
B15 B23 1.791438 1_555
B15 Ru3 2.404908 1_555
B15 Ru3 2.404908 1_655
B15 Dy5 2.599812 1_565
B15 Dy5 2.599812 1_665
B15 Dy1 2.773844 1_655
B15 Dy1 2.773844 1_555
B16 B2 1.790373 1_565
B16 B8 1.873795 1_555
B16 Ru2 2.339241 1_665
B16 Ru2 2.339241 1_565
B16 Dy4 2.619329 1_655
B16 Dy4 2.619329 1_555
B16 Dy2 2.766207 1_555
B16 Dy2 2.766207 1_655
B17 B3 1.790433 1_545
B17 B9 1.873959 1_555
B17 Ru3 2.339185 1_545
B17 Ru3 2.339185 1_645
B17 Dy5 2.619355 1_655
B17 Dy5 2.619355 1_555
B17 Dy3 2.766215 1_655
B17 Dy3 2.766215 1_555
B18 Ru0 2.339183 1_555
B18 Ru0 2.339183 1_655
B18 Dy6 2.619413 1_555
B18 Dy6 2.619413 1_655
B18 Dy0 2.766229 1_655
B18 Dy0 2.766229 1_555
B19 Ru1 2.339175 1_555
B19 Ru1 2.339175 1_655
B19 Dy7 2.619414 1_555
B19 Dy7 2.619414 1_655
B19 Dy1 2.766195 1_555
B19 Dy1 2.766195 1_655
B20 B7 1.816338 1_554
B20 B21 2.151892 1_554
B20 Dy7 2.627421 1_554
B20 Dy7 2.627421 1_654
B20 Dy6 2.630351 1_555
B20 Dy6 2.630351 1_655
B20 Dy2 2.735523 1_655
B20 Dy2 2.735523 1_555
B21 B6 1.816398 1_556
B21 Dy6 2.627330 1_656
B21 Dy6 2.627330 1_556
B21 Dy7 2.630360 1_555
B21 Dy7 2.630360 1_655
B21 Dy3 2.735638 1_655
B21 Dy3 2.735638 1_555
B22 B5 1.816251 1_555
B22 B23 2.151961 1_545
B22 Dy5 2.627392 1_655
B22 Dy5 2.627392 1_555
B22 Dy4 2.630325 1_645
B22 Dy4 2.630325 1_545
B22 Dy0 2.735532 1_655
B22 Dy0 2.735532 1_555
B23 B4 1.816231 1_555
B23 Dy4 2.627340 1_555
B23 Dy4 2.627340 1_655
B23 Dy5 2.630396 1_565
B23 Dy5 2.630396 1_665
B23 Dy1 2.735503 1_655
B23 Dy1 2.735503 1_555
