# generated using pymatgen
data_Lu(CuS)3
_symmetry_space_group_name_H-M   'P 1'
_cell_length_a   7.32545602
_cell_length_b   7.32546896
_cell_length_c   7.32547957
_cell_angle_alpha   53.57083844
_cell_angle_beta   53.57112327
_cell_angle_gamma   53.57086482
_symmetry_Int_Tables_number   1
_chemical_formula_structural   Lu(CuS)3
_chemical_formula_sum   'Lu2 Cu6 S6'
_cell_volume   236.16009442
_cell_formula_units_Z   2
loop_
 _symmetry_equiv_pos_site_id
 _symmetry_equiv_pos_as_xyz
  1  'x, y, z'
loop_
 _atom_site_type_symbol
 _atom_site_label
 _atom_site_symmetry_multiplicity
 _atom_site_fract_x
 _atom_site_fract_y
 _atom_site_fract_z
 _atom_site_occupancy
  Lu  Lu0  1  0.83358248  0.83358050  0.83359322  1
  Lu  Lu1  1  0.16642275  0.16641304  0.16641539  1
  Cu  Cu0  1  0.28497527  0.96249463  0.62368064  1
  Cu  Cu1  1  0.62368534  0.28495946  0.96248311  1
  Cu  Cu2  1  0.96248779  0.62368432  0.28496510  1
  Cu  Cu3  1  0.03750148  0.37631016  0.71504442  1
  Cu  Cu4  1  0.37629136  0.71504428  0.03751531  1
  Cu  Cu5  1  0.71504811  0.03751670  0.37630029  1
  S  S0  1  0.08302098  0.75225207  0.41936395  1
  S  S1  1  0.75225142  0.41936275  0.08301997  1
  S  S2  1  0.41936122  0.08302240  0.75225157  1
  S  S3  1  0.58064179  0.91697695  0.24774759  1
  S  S4  1  0.24774662  0.58063997  0.91698024  1
  S  S5  1  0.91698240  0.24774278  0.58063918  1
loop_
_geom_bond_atom_site_label_1
_geom_bond_atom_site_label_2
_geom_bond_distance
_geom_bond_site_symmetry_2
Lu0 S1 2.677731 1_556
Lu0 S2 2.677771 1_565
Lu0 S0 2.677796 1_655
Lu0 S3 2.681681 1_556
Lu0 S4 2.681690 1_655
Lu0 S5 2.681720 1_565
Lu1 S3 2.677728 1_545
Lu1 S4 2.677756 1_554
Lu1 S5 2.677764 1_455
Lu1 S2 2.681722 1_554
Lu1 S0 2.681723 1_545
Lu1 S1 2.681757 1_455
Cu0 S5 2.295571 1_465
Cu0 S3 2.352690 1_555
Cu0 S4 2.363803 1_555
Cu0 S2 2.399339 1_565
Cu1 S3 2.295542 1_546
Cu1 S4 2.352686 1_555
Cu1 S5 2.363731 1_555
Cu1 S1 2.399475 1_556
Cu2 S4 2.295561 1_654
Cu2 S5 2.352704 1_555
Cu2 S3 2.363723 1_555
Cu2 S0 2.399435 1_655
Cu3 S1 2.295522 1_456
Cu3 S0 2.352743 1_555
Cu3 S2 2.363768 1_555
Cu3 S5 2.399385 1_455
Cu4 S2 2.295575 1_564
Cu4 S1 2.352801 1_555
Cu4 S0 2.363711 1_555
Cu4 S4 2.399337 1_554
Cu5 S0 2.295530 1_645
Cu5 S2 2.352780 1_555
Cu5 S1 2.363687 1_555
Cu5 S3 2.399428 1_545
