# generated using pymatgen
data_Sr2La2MnZnO8
_symmetry_space_group_name_H-M   'P 1'
_cell_length_a   5.48941003
_cell_length_b   5.48940932
_cell_length_c   13.25883972
_cell_angle_alpha   78.20446482
_cell_angle_beta   78.20416023
_cell_angle_gamma   90.70065120
_symmetry_Int_Tables_number   1
_chemical_formula_structural   Sr2La2MnZnO8
_chemical_formula_sum   'Sr4 La4 Mn2 Zn2 O16'
_cell_volume   382.23197907
_cell_formula_units_Z   2
loop_
 _symmetry_equiv_pos_site_id
 _symmetry_equiv_pos_as_xyz
  1  'x, y, z'
loop_
 _atom_site_type_symbol
 _atom_site_label
 _atom_site_symmetry_multiplicity
 _atom_site_fract_x
 _atom_site_fract_y
 _atom_site_fract_z
 _atom_site_occupancy
  Sr  Sr0  1  0.18113900  0.18115500  0.63752800  1
  Sr  Sr1  1  0.68114100  0.68112000  0.63753100  1
  Sr  Sr2  1  0.31884100  0.31883000  0.36247100  1
  Sr  Sr3  1  0.81882600  0.81883700  0.36247300  1
  La  La0  1  0.42792200  0.92789600  0.14560200  1
  La  La1  1  0.92851900  0.42854200  0.14459600  1
  La  La2  1  0.07210100  0.57214300  0.85440000  1
  La  La3  1  0.57151500  0.07147800  0.85541000  1
  Mn  Mn0  1  0.25002800  0.75005500  0.49996400  1
  Mn  Mn1  1  0.75001400  0.25002500  0.49999900  1
  Zn  Zn0  1  0.50002300  0.49998200  0.00000100  1
  Zn  Zn1  1  0.00001400  0.00004800  0.00000100  1
  O  O0  1  0.33300400  0.83300600  0.33324700  1
  O  O1  1  0.83087500  0.33087900  0.33746400  1
  O  O2  1  0.16691800  0.66693300  0.66675300  1
  O  O3  1  0.66912900  0.16912100  0.66254100  1
  O  O4  1  0.08724900  0.08708900  0.82572000  1
  O  O5  1  0.58712900  0.58727500  0.82572800  1
  O  O6  1  0.41279100  0.41291700  0.17427700  1
  O  O7  1  0.91289800  0.91276600  0.17428400  1
  O  O8  1  0.99071500  0.00924100  0.49999900  1
  O  O9  1  0.50924900  0.49070700  0.50000000  1
  O  O10  1  0.49999400  0.00000000  0.50001600  1
  O  O11  1  0.99989000  0.49989300  0.49998300  1
  O  O12  1  0.75001300  0.25003300  0.00000100  1
  O  O13  1  0.25002600  0.75000000  0.00000400  1
  O  O14  1  0.25003800  0.25002600  0.00000300  1
  O  O15  1  0.74999800  0.75000300  0.00000500  1
loop_
_geom_bond_atom_site_label_1
_geom_bond_atom_site_label_2
_geom_bond_distance
_geom_bond_site_symmetry_2
La0 O0 2.380389 1_555
La0 O12 2.666894 1_565
La0 O13 2.674345 1_555
La0 O15 2.687676 1_555
La0 O14 2.687831 1_565
La0 O7 2.765035 1_555
La0 O6 2.765248 1_565
La0 O6 2.772168 1_555
La0 O7 2.772404 1_455
La1 O1 2.446649 1_555
La1 O13 2.657335 1_655
La1 O12 2.666191 1_555
La1 O15 2.678971 1_555
La1 O14 2.679129 1_655
La1 O7 2.765386 1_555
La1 O6 2.765618 1_655
La1 O6 2.775209 1_555
La1 O7 2.775465 1_545
La2 O2 2.380412 1_555
La2 O12 2.666810 1_456
La2 O13 2.674387 1_556
La2 O15 2.687728 1_456
La2 O14 2.687980 1_556
La2 O5 2.764970 1_455
La2 O4 2.765450 1_555
La2 O4 2.771982 1_565
La2 O5 2.772436 1_555
La3 O3 2.446661 1_555
La3 O13 2.657353 1_546
La3 O12 2.666251 1_556
La3 O15 2.678937 1_546
La3 O14 2.679101 1_556
La3 O5 2.765244 1_545
La3 O4 2.765624 1_555
La3 O4 2.775233 1_655
La3 O5 2.775585 1_555
Mn0 O10 1.928754 1_565
Mn0 O11 1.929981 1_455
Mn0 O8 2.024873 1_465
Mn0 O9 2.025147 1_555
Mn0 O0 2.114893 1_555
Mn0 O2 2.115806 1_555
Mn1 O9 1.880175 1_555
Mn1 O8 1.880324 1_555
Mn1 O11 1.927847 1_555
Mn1 O10 1.929005 1_555
Mn1 O1 2.061843 1_555
Mn1 O3 2.061931 1_555
O0 Sr2 2.767309 1_555
O0 Sr3 2.767316 1_455
O0 Sr2 2.771949 1_565
O0 Sr3 2.771949 1_555
O1 Sr2 2.760465 1_555
O1 Sr3 2.760508 1_545
O1 Sr3 2.765453 1_555
O1 Sr2 2.765490 1_655
O2 Sr0 2.767554 1_565
O2 Sr1 2.767564 1_555
O2 Sr1 2.771688 1_455
O2 Sr0 2.771706 1_555
O3 Sr1 2.760275 1_555
O3 Sr0 2.760328 1_655
O3 Sr0 2.765645 1_555
O3 Sr1 2.765689 1_545
O4 Zn1 2.210845 1_556
O4 Sr0 2.387313 1_555
O5 Zn0 2.210743 1_556
O5 Sr1 2.387377 1_555
O6 Zn0 2.210781 1_555
O6 Sr2 2.387338 1_555
O7 Zn1 2.210870 1_665
O7 Sr3 2.387275 1_555
O8 Sr3 2.601194 1_545
O8 Sr0 2.601356 1_655
O8 Sr1 2.602446 1_545
O8 Sr2 2.602480 1_655
O9 Sr2 2.601207 1_555
O9 Sr1 2.601285 1_555
O9 Sr0 2.602330 1_555
O9 Sr3 2.602453 1_555
O10 Sr0 2.618370 1_555
O10 Sr1 2.618454 1_545
O10 Sr2 2.618580 1_555
O10 Sr3 2.618588 1_545
O11 Sr3 2.618357 1_555
O11 Sr2 2.618382 1_655
O11 Sr1 2.618575 1_555
O11 Sr0 2.618591 1_655
O12 Zn0 1.952392 1_555
O12 Zn1 1.952575 1_655
O13 Zn0 1.952688 1_555
O13 Zn1 1.952864 1_565
O14 Zn0 1.928661 1_555
O14 Zn1 1.928912 1_555
O15 Zn0 1.928897 1_555
O15 Zn1 1.929116 1_665
