# generated using pymatgen
data_Sr2ScCoPO3
_symmetry_space_group_name_H-M   'P 1'
_cell_length_a   4.04737200
_cell_length_b   4.04737200
_cell_length_c   15.35699700
_cell_angle_alpha   90.00000000
_cell_angle_beta   90.00000000
_cell_angle_gamma   90.00000000
_symmetry_Int_Tables_number   1
_chemical_formula_structural   Sr2ScCoPO3
_chemical_formula_sum   'Sr4 Sc2 Co2 P2 O6'
_cell_volume   251.56634803
_cell_formula_units_Z   2
loop_
 _symmetry_equiv_pos_site_id
 _symmetry_equiv_pos_as_xyz
  1  'x, y, z'
loop_
 _atom_site_type_symbol
 _atom_site_label
 _atom_site_symmetry_multiplicity
 _atom_site_fract_x
 _atom_site_fract_y
 _atom_site_fract_z
 _atom_site_occupancy
  Sr  Sr0  1  0.25000000  0.25000000  0.82409800  1
  Sr  Sr1  1  0.75000000  0.75000000  0.17590200  1
  Sr  Sr2  1  0.25000000  0.25000000  0.58834700  1
  Sr  Sr3  1  0.75000000  0.75000000  0.41165300  1
  Sc  Sc0  1  0.75000000  0.75000000  0.69807900  1
  Sc  Sc1  1  0.25000000  0.25000000  0.30192100  1
  Co  Co0  1  0.25000000  0.75000000  0.00000000  1
  Co  Co1  1  0.75000000  0.25000000  0.00000000  1
  P  P0  1  0.75000000  0.75000000  0.93754200  1
  P  P1  1  0.25000000  0.25000000  0.06245800  1
  O  O0  1  0.75000000  0.25000000  0.72079400  1
  O  O1  1  0.25000000  0.75000000  0.72079400  1
  O  O2  1  0.25000000  0.75000000  0.27920600  1
  O  O3  1  0.75000000  0.25000000  0.27920600  1
  O  O4  1  0.75000000  0.75000000  0.56826000  1
  O  O5  1  0.25000000  0.25000000  0.43173900  1
loop_
_geom_bond_atom_site_label_1
_geom_bond_atom_site_label_2
_geom_bond_distance
_geom_bond_site_symmetry_2
Co0 P0 2.239488 1_554
Co0 P1 2.239488 1_565
Co0 P0 2.239488 1_454
Co0 P1 2.239488 1_555
Co1 P0 2.239488 1_554
Co1 P1 2.239488 1_655
Co1 P0 2.239488 1_544
Co1 P1 2.239488 1_555
O0 Sc0 2.053531 1_555
O0 Sc0 2.053531 1_545
O0 Sr0 2.571399 1_555
O0 Sr0 2.571399 1_655
O0 Sr2 2.869218 1_555
O0 Sr2 2.869218 1_655
O1 Sc0 2.053531 1_555
O1 Sc0 2.053531 1_455
O1 Sr0 2.571399 1_555
O1 Sr0 2.571399 1_565
O1 Sr2 2.869218 1_565
O1 Sr2 2.869218 1_555
O2 Sc1 2.053531 1_565
O2 Sc1 2.053531 1_555
O2 Sr1 2.571399 1_555
O2 Sr1 2.571399 1_455
O2 Sr3 2.869218 1_455
O2 Sr3 2.869218 1_555
O3 Sc1 2.053531 1_655
O3 Sc1 2.053531 1_555
O3 Sr1 2.571399 1_555
O3 Sr1 2.571399 1_545
O3 Sr3 2.869218 1_555
O3 Sr3 2.869218 1_545
O4 Sc0 1.993630 1_555
O4 Sr3 2.405013 1_555
O4 Sr2 2.878501 1_565
O4 Sr2 2.878501 1_555
O4 Sr2 2.878501 1_655
O4 Sr2 2.878501 1_665
O5 Sc1 1.993615 1_555
O5 Sr2 2.405029 1_555
O5 Sr3 2.878499 1_545
O5 Sr3 2.878499 1_445
O5 Sr3 2.878499 1_555
O5 Sr3 2.878499 1_455
