# generated using pymatgen
data_Na2Zn2S3
_symmetry_space_group_name_H-M   'P 1'
_cell_length_a   9.78927997
_cell_length_b   9.78928041
_cell_length_c   6.66210105
_cell_angle_alpha   70.45202595
_cell_angle_beta   70.45204589
_cell_angle_gamma   83.47819312
_symmetry_Int_Tables_number   1
_chemical_formula_structural   Na2Zn2S3
_chemical_formula_sum   'Na8 Zn8 S12'
_cell_volume   566.95328761
_cell_formula_units_Z   4
loop_
 _symmetry_equiv_pos_site_id
 _symmetry_equiv_pos_as_xyz
  1  'x, y, z'
loop_
 _atom_site_type_symbol
 _atom_site_label
 _atom_site_symmetry_multiplicity
 _atom_site_fract_x
 _atom_site_fract_y
 _atom_site_fract_z
 _atom_site_occupancy
  Na  Na0  1  0.81217274  0.98429450  0.62736352  1
  Na  Na1  1  0.01570551  0.18782732  0.87263662  1
  Na  Na2  1  0.18782725  0.01570525  0.37263652  1
  Na  Na3  1  0.98429475  0.81217268  0.12736336  1
  Na  Na4  1  0.71782507  0.28217494  0.75000009  1
  Na  Na5  1  0.28217500  0.71782510  0.25000006  1
  Na  Na6  1  0.43061193  0.56938792  0.75000020  1
  Na  Na7  1  0.56938790  0.43061208  0.25000003  1
  Zn  Zn0  1  0.36208652  0.20940948  0.79830655  1
  Zn  Zn1  1  0.79059017  0.63791349  0.70169338  1
  Zn  Zn2  1  0.63791389  0.79059067  0.20169311  1
  Zn  Zn3  1  0.20940950  0.36208629  0.29830665  1
  Zn  Zn4  1  0.08356068  0.54988092  0.75952621  1
  Zn  Zn5  1  0.45011908  0.91643950  0.74047359  1
  Zn  Zn6  1  0.91643939  0.45011896  0.24047390  1
  Zn  Zn7  1  0.54988084  0.08356063  0.25952630  1
  S  S0  1  0.27350640  0.42217927  0.57186790  1
  S  S1  1  0.57782064  0.72649388  0.92813199  1
  S  S2  1  0.72649344  0.57782066  0.42813181  1
  S  S3  1  0.42217938  0.27350644  0.07186825  1
  S  S4  1  0.57844289  0.14628653  0.55510771  1
  S  S5  1  0.85371323  0.42155694  0.94489228  1
  S  S6  1  0.42155689  0.85371323  0.44489240  1
  S  S7  1  0.14628683  0.57844322  0.05510747  1
  S  S8  1  0.00499885  0.76825875  0.55692526  1
  S  S9  1  0.23174144  0.99500130  0.94307447  1
  S  S10  1  0.99500144  0.23174157  0.44307437  1
  S  S11  1  0.76825836  0.00499849  0.05692598  1
loop_
_geom_bond_atom_site_label_1
_geom_bond_atom_site_label_2
_geom_bond_distance
_geom_bond_site_symmetry_2
Na0 S4 2.717276 1_565
Na0 S8 2.724039 1_655
Na0 S11 2.821488 1_566
Na0 S10 2.846485 1_565
Na0 S1 3.240691 1_555
Na1 S5 2.717276 1_455
Na1 S9 2.724039 1_545
Na1 S10 2.821487 1_455
Na1 S11 2.846486 1_456
Na1 S0 3.240692 1_555
Na2 S6 2.717275 1_545
Na2 S10 2.724041 1_455
Na2 S9 2.821485 1_544
Na2 S8 2.846479 1_545
Na2 S3 3.240694 1_555
Na3 S7 2.717274 1_655
Na3 S11 2.724041 1_565
Na3 S8 2.821485 1_655
Na3 S9 2.846482 1_654
Na3 S2 3.240694 1_555
Na4 S5 2.840909 1_555
Na4 S4 2.840913 1_555
Na4 S10 2.906129 1_555
Na4 S11 2.906130 1_556
Na4 S3 2.960148 1_556
Na4 S2 2.960148 1_555
Na5 S6 2.840909 1_555
Na5 S7 2.840910 1_555
Na5 S8 2.906127 1_555
Na5 S9 2.906128 1_554
Na5 S1 2.960147 1_554
Na5 S0 2.960148 1_555
Na6 S7 2.857455 1_556
Na6 S6 2.857457 1_555
Na6 S0 2.952890 1_555
Na6 S1 2.952891 1_555
Na6 S3 2.962090 1_556
Na6 S2 2.962092 1_555
Na7 S5 2.857458 1_554
Na7 S4 2.857459 1_555
Na7 S2 2.952887 1_555
Na7 S3 2.952887 1_555
Na7 S0 2.962090 1_555
Na7 S1 2.962092 1_554
S0 Zn4 2.354876 1_555
S0 Zn3 2.372298 1_555
S0 Zn0 2.393409 1_555
S1 Zn5 2.354875 1_555
S1 Zn2 2.372298 1_556
S1 Zn1 2.393409 1_555
S2 Zn6 2.354876 1_555
S2 Zn1 2.372298 1_555
S2 Zn2 2.393408 1_555
S3 Zn7 2.354874 1_555
S3 Zn0 2.372300 1_554
S3 Zn3 2.393408 1_555
S4 Zn7 2.355751 1_555
S4 Zn0 2.359882 1_555
S4 Zn5 2.431101 1_545
S5 Zn6 2.355753 1_556
S5 Zn1 2.359883 1_555
S5 Zn4 2.431106 1_655
S6 Zn5 2.355752 1_555
S6 Zn2 2.359886 1_555
S6 Zn7 2.431105 1_565
S7 Zn4 2.355752 1_554
S7 Zn3 2.359885 1_555
S7 Zn6 2.431107 1_455
S8 Zn4 2.318096 1_555
S8 Zn1 2.322484 1_455
S9 Zn5 2.318095 1_555
S9 Zn0 2.322479 1_565
S10 Zn6 2.318092 1_555
S10 Zn3 2.322476 1_655
S11 Zn7 2.318094 1_555
S11 Zn2 2.322473 1_545
