# generated using pymatgen
data_Ca2TiSi2SnO10
_symmetry_space_group_name_H-M   'P 1'
_cell_length_a   5.56410500
_cell_length_b   5.56996511
_cell_length_c   7.22282097
_cell_angle_alpha   104.08396928
_cell_angle_beta   104.23013590
_cell_angle_gamma   105.66340598
_symmetry_Int_Tables_number   1
_chemical_formula_structural   Ca2TiSi2SnO10
_chemical_formula_sum   'Ca2 Ti1 Si2 Sn1 O10'
_cell_volume   197.08422800
_cell_formula_units_Z   1
loop_
 _symmetry_equiv_pos_site_id
 _symmetry_equiv_pos_as_xyz
  1  'x, y, z'
loop_
 _atom_site_type_symbol
 _atom_site_label
 _atom_site_symmetry_multiplicity
 _atom_site_fract_x
 _atom_site_fract_y
 _atom_site_fract_z
 _atom_site_occupancy
  Ca  Ca0  1  0.17282500  0.83795700  0.75525600  1
  Ca  Ca1  1  0.82717500  0.16204300  0.24474400  1
  Ti  Ti0  1  0.50000000  0.50000000  0.00000000  1
  Si  Si0  1  0.17614400  0.81451900  0.24648400  1
  Si  Si1  1  0.82385600  0.18548100  0.75351600  1
  Sn  Sn0  1  0.50000000  0.50000000  0.50000000  1
  O  O0  1  0.23781000  0.10916000  0.40655800  1
  O  O1  1  0.12143700  0.25135200  0.91284500  1
  O  O2  1  0.76219000  0.89084000  0.59344200  1
  O  O3  1  0.87856300  0.74864800  0.08715500  1
  O  O4  1  0.57725400  0.42171400  0.24085200  1
  O  O5  1  0.42274600  0.57828600  0.75914800  1
  O  O6  1  0.61038900  0.18935400  0.87828600  1
  O  O7  1  0.17345600  0.60717200  0.37674700  1
  O  O8  1  0.38961100  0.81064600  0.12171400  1
  O  O9  1  0.82654400  0.39282800  0.62325300  1
loop_
_geom_bond_atom_site_label_1
_geom_bond_atom_site_label_2
_geom_bond_distance
_geom_bond_site_symmetry_2
Ca0 O5 2.261212 1_555
Ca0 O2 2.427186 1_455
Ca0 O1 2.432948 1_565
Ca0 O6 2.462691 1_565
Ca0 O9 2.476986 1_455
Ca0 O8 2.685029 1_556
Ca0 O7 2.724597 1_555
Ca1 O4 2.261212 1_555
Ca1 O0 2.427186 1_655
Ca1 O3 2.432948 1_545
Ca1 O8 2.462691 1_545
Ca1 O7 2.476986 1_655
Ca1 O6 2.685029 1_554
Ca1 O9 2.724597 1_555
O0 Si0 1.650840 1_545
O0 Sn0 2.099743 1_555
O1 Si1 1.652339 1_455
O1 Ti0 2.024781 1_556
O2 Si1 1.650840 1_565
O2 Sn0 2.099743 1_555
O3 Si0 1.652339 1_655
O3 Ti0 2.024781 1_555
O4 Ti0 1.871894 1_555
O4 Sn0 1.994495 1_555
O5 Ti0 1.871894 1_556
O5 Sn0 1.994495 1_555
O6 Si1 1.659513 1_555
O6 Ti0 2.059860 1_556
O7 Si0 1.657021 1_555
O7 Sn0 2.121121 1_555
O8 Si0 1.659513 1_555
O8 Ti0 2.059860 1_555
O9 Si1 1.657021 1_555
O9 Sn0 2.121121 1_555
