# generated using pymatgen
data_Y6Ta4Al43
_symmetry_space_group_name_H-M   'P 1'
_cell_length_a   11.03351647
_cell_length_b   11.03359103
_cell_length_c   17.78130899
_cell_angle_alpha   90.00005847
_cell_angle_beta   90.00002517
_cell_angle_gamma   120.00001090
_symmetry_Int_Tables_number   1
_chemical_formula_structural   Y6Ta4Al43
_chemical_formula_sum   'Y12 Ta8 Al86'
_cell_volume   1874.67135211
_cell_formula_units_Z   2
loop_
 _symmetry_equiv_pos_site_id
 _symmetry_equiv_pos_as_xyz
  1  'x, y, z'
loop_
 _atom_site_type_symbol
 _atom_site_label
 _atom_site_symmetry_multiplicity
 _atom_site_fract_x
 _atom_site_fract_y
 _atom_site_fract_z
 _atom_site_occupancy
  Y  Y0  1  0.53123750  0.00000011  0.59648117  1
  Y  Y1  1  0.46875524  0.00000077  0.40351518  1
  Y  Y2  1  -0.00000012  0.53123821  0.59648232  1
  Y  Y3  1  0.46874994  -0.00000002  0.09649281  1
  Y  Y4  1  0.00000092  0.53124473  0.90351033  1
  Y  Y5  1  -0.00000005  0.46875451  0.40351503  1
  Y  Y6  1  0.53124390  0.00000040  0.90351090  1
  Y  Y7  1  0.00000012  0.46874767  0.09649439  1
  Y  Y8  1  0.46876215  0.46876287  0.59648161  1
  Y  Y9  1  0.53124611  0.53124607  0.40351436  1
  Y  Y10  1  0.53125200  0.53125170  0.09649324  1
  Y  Y11  1  0.46875537  0.46875528  0.90351042  1
  Ta  Ta0  1  -0.00000028  0.00000142  0.50000000  1
  Ta  Ta1  1  0.00000122  -0.00000026  -0.00000038  1
  Ta  Ta2  1  0.72646592  -0.00000022  0.74999363  1
  Ta  Ta3  1  0.27353230  0.00000243  0.25000467  1
  Ta  Ta4  1  0.00000718  0.72647551  0.74999414  1
  Ta  Ta5  1  -0.00000663  0.27351988  0.25000546  1
  Ta  Ta6  1  0.27353321  0.27352641  0.74999476  1
  Ta  Ta7  1  0.72646756  0.72647085  0.25000380  1
  Al  Al0  1  0.15346811  0.59733595  0.75000958  1
  Al  Al1  1  0.84652103  0.40266123  0.24999103  1
  Al  Al2  1  0.40265779  0.55613135  0.75000892  1
  Al  Al3  1  0.59733594  0.15347083  0.75000925  1
  Al  Al4  1  0.59733842  0.44385968  0.24999041  1
  Al  Al5  1  0.40266175  0.84651957  0.24999105  1
  Al  Al6  1  0.44386532  0.84652785  0.75000932  1
  Al  Al7  1  0.55613174  0.40266384  0.75000877  1
  Al  Al8  1  0.55614316  0.15348191  0.24999115  1
  Al  Al9  1  0.44386202  0.59734007  0.24999171  1
  Al  Al10  1  0.84652571  0.44386858  0.75000906  1
  Al  Al11  1  0.15348411  0.55613959  0.24999139  1
  Al  Al12  1  0.15897761  0.00000054  0.11530473  1
  Al  Al13  1  0.84100969  0.00000016  0.88470410  1
  Al  Al14  1  0.00000033  0.15898552  0.11529881  1
  Al  Al15  1  0.84102000  0.00000005  0.61528236  1
  Al  Al16  1  0.99999827  0.15897361  0.38471475  1
  Al  Al17  1  0.00000092  0.84100885  0.88470375  1
  Al  Al18  1  0.15897714  0.00000284  0.38471495  1
  Al  Al19  1  0.00000012  0.84101995  0.61528433  1
  Al  Al20  1  0.84101556  0.84101500  0.11529707  1
  Al  Al21  1  0.15899136  0.15899070  0.88470401  1
  Al  Al22  1  0.15898283  0.15898237  0.61528275  1
  Al  Al23  1  0.84102353  0.84102441  0.38471361  1
  Al  Al24  1  0.24738993  0.49478536  0.49999075  1
  Al  Al25  1  0.75260345  0.50521505  0.49999145  1
  Al  Al26  1  0.50521457  0.75260365  0.49999116  1
  Al  Al27  1  0.75260529  0.50521721  0.00001022  1
  Al  Al28  1  0.49478193  0.24738807  0.00000981  1
  Al  Al29  1  0.49478678  0.24739031  0.49999142  1
  Al  Al30  1  0.24738752  0.49478140  0.00000995  1
  Al  Al31  1  0.50520969  0.75260051  0.00000974  1
  Al  Al32  1  0.24739616  0.75260958  0.49999125  1
  Al  Al33  1  0.75261061  0.24739834  0.49999129  1
  Al  Al34  1  0.75261213  0.24739495  0.00001020  1
  Al  Al35  1  0.24739575  0.75261069  0.00000998  1
  Al  Al36  1  0.14794500  -0.00000024  0.75000816  1
  Al  Al37  1  0.85205338  0.00000142  0.24999006  1
  Al  Al38  1  -0.00000003  0.14794536  0.75000877  1
  Al  Al39  1  0.00000071  0.85205472  0.24999131  1
  Al  Al40  1  0.85205516  0.85205437  0.75000943  1
  Al  Al41  1  0.14794974  0.14795016  0.24999172  1
  Al  Al42  1  0.33333520  0.66666642  0.62473375  1
  Al  Al43  1  0.66666723  0.33333460  0.37525523  1
  Al  Al44  1  0.66666711  0.33333524  0.12473653  1
  Al  Al45  1  0.66666624  0.33333210  0.87527722  1
  Al  Al46  1  0.33333352  0.66666579  0.87527696  1
  Al  Al47  1  0.33333315  0.66666731  0.12473633  1
  Al  Al48  1  0.33333379  0.66666796  0.37525503  1
  Al  Al49  1  0.66666709  0.33333227  0.62473364  1
  Al  Al50  1  0.25469011  0.99999967  0.52968977  1
  Al  Al51  1  0.74530039  -0.00000593  0.47030235  1
  Al  Al52  1  0.00000101  0.25469334  0.52969312  1
  Al  Al53  1  0.74530602  -0.00000030  0.02969662  1
  Al  Al54  1  0.99999960  0.25469549  0.97030771  1
  Al  Al55  1  -0.00000034  0.74530760  0.47030162  1
  Al  Al56  1  0.25469543  0.99999936  0.97030686  1
  Al  Al57  1  0.00000123  0.74530422  0.02969540  1
  Al  Al58  1  0.74530974  0.74531067  0.52968931  1
  Al  Al59  1  0.25469392  0.25469965  0.47030108  1
  Al  Al60  1  0.25469467  0.25469478  0.02969704  1
  Al  Al61  1  0.74530510  0.74530350  0.97030717  1
  Al  Al62  1  0.15810537  0.39475600  0.66282059  1
  Al  Al63  1  0.84189216  0.60524274  0.33717705  1
  Al  Al64  1  0.60524927  0.76334642  0.66282182  1
  Al  Al65  1  0.84189875  0.60525928  0.16281354  1
  Al  Al66  1  0.39474100  0.15810447  0.83718770  1
  Al  Al67  1  0.39475522  0.23665363  0.33717575  1
  Al  Al68  1  0.15810255  0.39474223  0.83718927  1
  Al  Al69  1  0.60526179  0.84189678  0.16281243  1
  Al  Al70  1  0.23664608  0.84188798  0.66281992  1
  Al  Al71  1  0.39473801  0.23663785  0.16281184  1
  Al  Al72  1  0.76336125  0.60526032  0.83719001  1
  Al  Al73  1  0.76335009  0.15810253  0.33717625  1
  Al  Al74  1  0.60525797  0.76335978  0.83718940  1
  Al  Al75  1  0.23663883  0.39474075  0.16281103  1
  Al  Al76  1  0.60524457  0.84189145  0.33717568  1
  Al  Al77  1  0.39475401  0.15810602  0.66282193  1
  Al  Al78  1  0.76336591  0.15810437  0.16281213  1
  Al  Al79  1  0.23664961  0.39475926  0.33717965  1
  Al  Al80  1  0.23663712  0.84189696  0.83718774  1
  Al  Al81  1  0.76335073  0.60524100  0.66281807  1
  Al  Al82  1  0.84189830  0.23664048  0.83718905  1
  Al  Al83  1  0.15810183  0.76336081  0.16281390  1
  Al  Al84  1  0.15810125  0.76334760  0.33717799  1
  Al  Al85  1  0.84190231  0.23665388  0.66282216  1
loop_
_geom_bond_atom_site_label_1
_geom_bond_atom_site_label_2
_geom_bond_distance
_geom_bond_site_symmetry_2
Y0 Y1 3.499761 1_555
Y2 Y5 3.499786 1_555
Y3 Y6 3.500063 1_554
Y4 Y7 3.500108 1_556
Y8 Y9 3.499786 1_555
Y10 Y11 3.500084 1_554
Ta2 Y0 3.477206 1_555
Ta2 Y6 3.477232 1_555
Ta3 Y3 3.477133 1_555
Ta3 Y1 3.477146 1_555
Ta4 Y2 3.477240 1_555
Ta4 Y4 3.477263 1_555
Ta5 Y7 3.477170 1_555
Ta5 Y5 3.477193 1_555
Ta6 Y11 3.477232 1_555
Ta6 Y8 3.477251 1_555
Ta7 Y10 3.477105 1_555
Ta7 Y9 3.477150 1_555
Al0 Ta4 2.703674 1_555
Al0 Al62 2.741635 1_555
Al0 Al68 2.741656 1_555
Al0 Al46 2.822566 1_555
Al0 Al42 2.822697 1_555
Al0 Al80 2.837275 1_555
Al0 Al70 2.837297 1_555
Al0 Al10 2.932928 1_455
Al0 Al2 3.002681 1_555
Al0 Al6 3.002715 1_555
Al0 Y4 3.100656 1_555
Al0 Y2 3.101070 1_555
Al1 Ta5 2.703802 1_655
Al1 Al63 2.741579 1_555
Al1 Al65 2.741616 1_555
Al1 Al44 2.822317 1_555
Al1 Al43 2.822454 1_555
Al1 Al78 2.837269 1_555
Al1 Al73 2.837323 1_555
Al1 Al11 2.933126 1_655
Al1 Al8 3.002532 1_555
Al1 Al4 3.002563 1_555
Al1 Y7 3.100650 1_655
Al1 Y5 3.101072 1_655
Al2 Ta6 2.703736 1_555
Al2 Al64 2.741653 1_555
Al2 Al74 2.741684 1_555
Al2 Al46 2.822544 1_555
Al2 Al42 2.822641 1_555
Al2 Al68 2.837241 1_555
Al2 Al62 2.837272 1_555
Al2 Al7 2.932930 1_555
Al2 Al6 3.002713 1_555
Al2 Y11 3.100698 1_555
Al2 Y8 3.101094 1_555
Al3 Ta2 2.703686 1_555
Al3 Al77 2.741615 1_555
Al3 Al66 2.741637 1_555
Al3 Al45 2.822555 1_555
Al3 Al49 2.822667 1_555
Al3 Al82 2.837286 1_555
Al3 Al85 2.837372 1_555
Al3 Al6 2.932953 1_545
Al3 Al7 3.002732 1_555
Al3 Y6 3.100690 1_555
Al3 Y0 3.101099 1_555
Al4 Ta7 2.703794 1_555
Al4 Al67 2.741557 1_555
Al4 Al71 2.741635 1_555
Al4 Al44 2.822307 1_555
Al4 Al43 2.822466 1_555
Al4 Al65 2.837261 1_555
Al4 Al63 2.837278 1_555
Al4 Al9 2.933076 1_555
Al4 Al8 3.002560 1_555
Al4 Y10 3.100657 1_555
Al4 Y9 3.101074 1_555
Al5 Ta3 2.703797 1_565
Al5 Al76 2.741562 1_555
Al5 Al69 2.741635 1_555
Al5 Al83 2.837258 1_555
Al5 Al84 2.837338 1_555
Al5 Al8 2.933138 1_565
Al5 Al9 3.002557 1_555
Al5 Y3 3.100686 1_565
Al5 Y1 3.101089 1_565
Al6 Ta2 2.703673 1_565
Al6 Al70 2.741634 1_555
Al6 Al80 2.741646 1_555
Al6 Al74 2.837284 1_555
Al6 Al64 2.837374 1_555
Al6 Y6 3.100694 1_565
Al6 Y0 3.101110 1_565
Al7 Ta6 2.703647 1_555
Al7 Al81 2.741644 1_555
Al7 Al72 2.741680 1_555
Al7 Al77 2.837309 1_555
Al7 Y11 3.100673 1_555
Al7 Y8 3.101074 1_555
Al8 Ta3 2.703772 1_555
Al8 Y3 3.100690 1_555
Al8 Y1 3.101090 1_555
Al9 Ta7 2.703719 1_555
Al9 Y10 3.100675 1_555
Al9 Y9 3.101050 1_555
Al10 Ta4 2.703754 1_655
Al10 Al85 2.741652 1_555
Al10 Al82 2.741689 1_555
Al10 Al45 2.822550 1_555
Al10 Al49 2.822644 1_555
Al10 Al72 2.837264 1_555
Al10 Al81 2.837269 1_555
Al10 Al7 3.002674 1_555
Al10 Al3 3.002716 1_555
Al10 Y4 3.100696 1_655
Al10 Y2 3.101091 1_655
Al11 Ta5 2.703877 1_555
Al11 Al84 2.741616 1_555
Al11 Al83 2.741644 1_555
Al11 Al47 2.822302 1_555
Al11 Al48 2.822423 1_555
Al11 Al79 2.837244 1_555
Al11 Al75 2.837251 1_555
Al11 Al9 3.002516 1_555
Al11 Al5 3.002545 1_555
Al11 Y7 3.100674 1_555
Al11 Y5 3.101092 1_555
Al12 Ta1 2.698216 1_555
Al12 Ta3 2.708176 1_555
Al12 Al71 2.739611 1_555
Al12 Al83 2.739664 1_545
Al12 Al56 2.786172 1_544
Al12 Al60 2.891684 1_555
Al12 Al57 2.891708 1_545
Al12 Al39 2.934909 1_545
Al12 Al41 2.934928 1_555
Al12 Al20 3.038224 1_445
Al12 Al14 3.038237 1_555
Al12 Y3 3.434211 1_555
Al13 Ta1 2.698199 1_656
Al13 Ta2 2.708290 1_555
Al13 Al74 2.739624 1_545
Al13 Al82 2.739636 1_555
Al13 Al53 2.786021 1_556
Al13 Al54 2.891665 1_555
Al13 Al61 2.891679 1_545
Al13 Al40 2.935077 1_545
Al13 Al38 2.935081 1_655
Al13 Al21 3.038412 1_655
Al13 Al17 3.038431 1_645
Al13 Y6 3.434128 1_555
Al14 Ta1 2.698216 1_555
Al14 Ta5 2.708203 1_555
Al14 Al78 2.739586 1_455
Al14 Al75 2.739618 1_555
Al14 Al54 2.786030 1_454
Al14 Al60 2.891624 1_555
Al14 Al53 2.891628 1_455
Al14 Al37 2.935006 1_455
Al14 Al41 2.935034 1_555
Al14 Al20 3.038326 1_445
Al14 Y7 3.434107 1_555
Al15 Ta0 2.697932 1_655
Al15 Ta2 2.708357 1_555
Al15 Al64 2.739931 1_545
Al15 Al85 2.739945 1_555
Al15 Al51 2.785870 1_555
Al15 Al52 2.891508 1_655
Al15 Al58 2.891511 1_545
Al15 Al38 2.935492 1_655
Al15 Al40 2.935513 1_545
Al15 Al19 3.038217 1_645
Al15 Al22 3.038232 1_655
Al15 Y0 3.434301 1_555
Al16 Ta0 2.697935 1_655
Al16 Ta5 2.708303 1_655
Al16 Al73 2.739921 1_555
Al16 Al79 2.739973 1_655
Al16 Al52 2.785852 1_655
Al16 Al59 2.891466 1_655
Al16 Al51 2.891513 1_555
Al16 Al37 2.935440 1_555
Al16 Al41 2.935443 1_655
Al16 Al18 3.038116 1_655
Al16 Al23 3.038122 1_545
Al16 Y5 3.434295 1_655
Al17 Ta1 2.698204 1_566
Al17 Ta4 2.708243 1_555
Al17 Al80 2.739583 1_555
Al17 Al72 2.739598 1_455
Al17 Al57 2.786016 1_556
Al17 Al56 2.891644 1_555
Al17 Al61 2.891657 1_455
Al17 Al40 2.935067 1_455
Al17 Al36 2.935085 1_565
Al17 Al21 3.038434 1_565
Al17 Y4 3.434131 1_555
Al18 Ta0 2.697951 1_555
Al18 Ta3 2.708348 1_555
Al18 Al67 2.739953 1_555
Al18 Al84 2.739977 1_545
Al18 Al50 2.785776 1_545
Al18 Al55 2.891493 1_545
Al18 Al59 2.891502 1_555
Al18 Al41 2.935440 1_555
Al18 Al39 2.935448 1_545
Al18 Al23 3.038144 1_445
Al18 Y1 3.434262 1_555
Al19 Ta0 2.697986 1_565
Al19 Ta4 2.708308 1_555
Al19 Al70 2.739897 1_555
Al19 Al81 2.739920 1_455
Al19 Al55 2.785898 1_555
Al19 Al50 2.891520 1_555
Al19 Al58 2.891524 1_455
Al19 Al36 2.935454 1_565
Al19 Al40 2.935470 1_455
Al19 Al22 3.038248 1_565
Al19 Y2 3.434315 1_555
Al20 Ta1 2.698185 1_665
Al20 Ta7 2.708248 1_555
Al20 Al69 2.739606 1_555
Al20 Al65 2.739657 1_555
Al20 Al61 2.786009 1_554
Al20 Al53 2.891620 1_565
Al20 Al57 2.891644 1_655
Al20 Al39 2.935042 1_655
Al20 Al37 2.935044 1_565
Al20 Y10 3.434106 1_555
Al21 Ta1 2.698198 1_556
Al21 Ta6 2.708250 1_555
Al21 Al66 2.739591 1_555
Al21 Al68 2.739633 1_555
Al21 Al60 2.786030 1_556
Al21 Al56 2.891660 1_545
Al21 Al54 2.891672 1_455
Al21 Al38 2.935081 1_555
Al21 Al36 2.935090 1_555
Al21 Y11 3.434120 1_555
Al22 Ta0 2.697959 1_555
Al22 Ta6 2.708333 1_555
Al22 Al77 2.739890 1_555
Al22 Al62 2.739930 1_555
Al22 Al59 2.785890 1_555
Al22 Al52 2.891499 1_555
Al22 Al50 2.891515 1_545
Al22 Al36 2.935493 1_555
Al22 Al38 2.935498 1_555
Al22 Y8 3.434284 1_555
Al23 Ta0 2.697970 1_665
Al23 Ta7 2.708338 1_555
Al23 Al76 2.739916 1_555
Al23 Al63 2.739961 1_555
Al23 Al58 2.785790 1_555
Al23 Al55 2.891478 1_655
Al23 Al51 2.891479 1_565
Al23 Al39 2.935427 1_655
Al23 Al37 2.935453 1_565
Al23 Y9 3.434261 1_555
Al24 Al59 2.741517 1_555
Al24 Al52 2.741580 1_555
Al24 Al48 2.759866 1_555
Al24 Al42 2.759957 1_555
Al24 Al26 2.844687 1_555
Al24 Al32 2.844693 1_555
Al24 Al79 3.079331 1_555
Al24 Al62 3.079651 1_555
Al24 Y5 3.113189 1_555
Al24 Y8 3.113415 1_555
Al24 Y9 3.413759 1_555
Al24 Y2 3.413800 1_555
Al25 Al55 2.741581 1_655
Al25 Al58 2.741594 1_555
Al25 Al43 2.759857 1_555
Al25 Al49 2.759959 1_555
Al25 Al29 2.844678 1_555
Al25 Al33 2.844684 1_555
Al25 Al63 3.079396 1_555
Al25 Al81 3.079579 1_555
Al25 Y9 3.113189 1_555
Al25 Y2 3.113426 1_655
Al25 Y5 3.413770 1_655
Al25 Y8 3.413773 1_555
Al26 Al51 2.741511 1_565
Al26 Al58 2.741569 1_555
Al26 Al48 2.759851 1_555
Al26 Al42 2.759939 1_555
Al26 Al32 2.844676 1_555
Al26 Al76 3.079417 1_555
Al26 Al64 3.079684 1_555
Al26 Y9 3.113203 1_555
Al26 Y0 3.113434 1_565
Al26 Y1 3.413780 1_565
Al26 Y8 3.413790 1_555
Al27 Al57 2.741533 1_655
Al27 Al61 2.741548 1_554
Al27 Al44 2.759728 1_555
Al27 Al45 2.759838 1_554
Al27 Al28 2.844739 1_555
Al27 Al34 2.844743 1_555
Al27 Al65 3.079246 1_555
Al27 Al72 3.079525 1_554
Al27 Y10 3.113230 1_555
Al27 Y4 3.113492 1_654
Al27 Y7 3.413874 1_655
Al27 Y11 3.413902 1_554
Al28 Al60 2.741524 1_555
Al28 Al56 2.741552 1_544
Al28 Al44 2.759742 1_555
Al28 Al45 2.759824 1_554
Al28 Al34 2.844736 1_555
Al28 Al71 3.079230 1_555
Al28 Al66 3.079542 1_554
Al28 Y3 3.113257 1_555
Al28 Y11 3.113489 1_554
Al28 Y10 3.413874 1_555
Al28 Y6 3.413908 1_554
Al29 Al50 2.741601 1_545
Al29 Al59 2.741610 1_555
Al29 Al43 2.759853 1_555
Al29 Al49 2.759936 1_555
Al29 Al33 2.844659 1_555
Al29 Al67 3.079431 1_555
Al29 Al77 3.079669 1_555
Al29 Y1 3.113203 1_555
Al29 Y8 3.113435 1_555
Al29 Y9 3.413786 1_555
Al29 Y0 3.413788 1_555
Al30 Al60 2.741537 1_555
Al30 Al54 2.741541 1_454
Al30 Al47 2.759747 1_555
Al30 Al46 2.759837 1_554
Al30 Al31 2.844677 1_555
Al30 Al35 2.844738 1_555
Al30 Al75 3.079207 1_555
Al30 Al68 3.079517 1_554
Al30 Y7 3.113242 1_555
Al30 Y11 3.113480 1_554
Al30 Y10 3.413861 1_555
Al30 Y4 3.413898 1_554
Al31 Al53 2.741607 1_565
Al31 Al61 2.741610 1_554
Al31 Al47 2.759694 1_555
Al31 Al46 2.759777 1_554
Al31 Al35 2.844651 1_555
Al31 Al69 3.079262 1_555
Al31 Al74 3.079538 1_554
Al31 Y10 3.113249 1_555
Al31 Y6 3.113512 1_564
Al31 Y3 3.413866 1_565
Al31 Y11 3.413900 1_554
Al32 Al55 2.741583 1_555
Al32 Al50 2.741604 1_555
Al32 Al48 2.759849 1_555
Al32 Al42 2.759956 1_555
Al32 Al84 3.079395 1_555
Al32 Al70 3.079619 1_555
Al32 Y1 3.113211 1_565
Al32 Y2 3.113429 1_555
Al32 Y5 3.413762 1_555
Al32 Y0 3.413780 1_565
Al33 Al52 2.741595 1_655
Al33 Al51 2.741640 1_555
Al33 Al43 2.759849 1_555
Al33 Al49 2.759926 1_555
Al33 Al73 3.079433 1_555
Al33 Al85 3.079691 1_555
Al33 Y5 3.113189 1_655
Al33 Y0 3.113438 1_555
Al33 Y1 3.413763 1_555
Al33 Y2 3.413782 1_655
Al34 Al54 2.741537 1_554
Al34 Al53 2.741556 1_555
Al34 Al44 2.759742 1_555
Al34 Al45 2.759825 1_554
Al34 Al78 3.079227 1_555
Al34 Al82 3.079531 1_554
Al34 Y7 3.113242 1_655
Al34 Y6 3.113487 1_554
Al34 Y3 3.413855 1_555
Al34 Y4 3.413920 1_654
Al35 Al57 2.741524 1_555
Al35 Al56 2.741575 1_554
Al35 Al47 2.759717 1_555
Al35 Al46 2.759822 1_554
Al35 Al83 3.079262 1_555
Al35 Al80 3.079561 1_554
Al35 Y3 3.113244 1_565
Al35 Y4 3.113480 1_554
Al35 Y7 3.413883 1_555
Al35 Y6 3.413902 1_564
Al36 Ta4 2.616532 1_545
Al36 Ta6 2.616555 1_555
Al36 Al40 2.827318 1_445
Al36 Al38 2.827335 1_555
Al36 Al66 2.847949 1_555
Al36 Al80 2.847949 1_545
Al36 Al77 2.848113 1_555
Al36 Al70 2.848174 1_545
Al37 Ta5 2.616479 1_655
Al37 Ta7 2.616595 1_545
Al37 Al39 2.827368 1_645
Al37 Al41 2.827380 1_655
Al37 Al69 2.847899 1_545
Al37 Al78 2.847901 1_555
Al37 Al73 2.848077 1_555
Al37 Al76 2.848111 1_545
Al38 Ta6 2.616605 1_555
Al38 Ta2 2.616610 1_455
Al38 Al40 2.827348 1_445
Al38 Al82 2.847962 1_455
Al38 Al68 2.847972 1_555
Al38 Al85 2.848085 1_455
Al38 Al62 2.848153 1_555
Al39 Ta3 2.616588 1_565
Al39 Ta7 2.616603 1_455
Al39 Al41 2.827390 1_565
Al39 Al83 2.847921 1_555
Al39 Al65 2.847934 1_455
Al39 Al84 2.848101 1_555
Al39 Al63 2.848143 1_455
Al40 Ta4 2.616592 1_655
Al40 Ta2 2.616625 1_565
Al40 Al72 2.847955 1_555
Al40 Al74 2.847959 1_555
Al40 Al64 2.848086 1_555
Al40 Al81 2.848207 1_555
Al41 Ta5 2.616550 1_555
Al41 Ta3 2.616586 1_555
Al41 Al71 2.847891 1_555
Al41 Al75 2.847933 1_555
Al41 Al67 2.848055 1_555
Al41 Al79 2.848144 1_555
Al42 Al70 2.719739 1_555
Al42 Al62 2.719759 1_555
Al42 Al64 2.719784 1_555
Al42 Al6 2.822661 1_555
Al42 Y8 3.242830 1_555
Al42 Y2 3.242860 1_555
Al42 Y0 3.242865 1_565
Al43 Al63 2.719693 1_555
Al43 Al67 2.719724 1_555
Al43 Al73 2.719761 1_555
Al43 Al8 2.822447 1_555
Al43 Y5 3.242867 1_655
Al43 Y9 3.242877 1_555
Al43 Y1 3.242898 1_555
Al44 Al65 2.719829 1_555
Al44 Al71 2.719849 1_555
Al44 Al78 2.719866 1_555
Al44 Al8 2.822322 1_555
Al44 Y7 3.242831 1_655
Al44 Y10 3.242831 1_555
Al44 Y3 3.242871 1_555
Al45 Al82 2.719868 1_555
Al45 Al66 2.719874 1_555
Al45 Al72 2.719917 1_555
Al45 Al7 2.822589 1_555
Al45 Y6 3.242807 1_555
Al45 Y4 3.242813 1_655
Al45 Y11 3.242813 1_555
Al46 Al74 2.719863 1_555
Al46 Al68 2.719871 1_555
Al46 Al80 2.719910 1_555
Al46 Al6 2.822559 1_555
Al46 Y4 3.242792 1_555
Al46 Y11 3.242804 1_555
Al46 Y6 3.242830 1_565
Al47 Al83 2.719829 1_555
Al47 Al75 2.719846 1_555
Al47 Al69 2.719846 1_555
Al47 Al5 2.822315 1_555
Al47 Al9 2.822346 1_555
Al47 Y7 3.242831 1_555
Al47 Y3 3.242850 1_565
Al47 Y10 3.242853 1_555
Al48 Al79 2.719686 1_555
Al48 Al76 2.719704 1_555
Al48 Al84 2.719725 1_555
Al48 Al5 2.822445 1_555
Al48 Al9 2.822457 1_555
Al48 Y5 3.242882 1_555
Al48 Y9 3.242888 1_555
Al48 Y1 3.242890 1_565
Al49 Al81 2.719728 1_555
Al49 Al77 2.719768 1_555
Al49 Al85 2.719792 1_555
Al49 Al7 2.822687 1_555
Al49 Y2 3.242840 1_655
Al49 Y0 3.242853 1_555
Al49 Y8 3.242871 1_555
Al50 Ta0 2.859299 1_565
Al50 Al77 2.887815 1_565
Al50 Al70 2.887822 1_555
Al50 Al55 3.002010 1_555
Al50 Al59 3.002096 1_565
Al50 Y1 3.257609 1_565
Al50 Y0 3.274269 1_565
Al51 Ta0 2.859372 1_655
Al51 Al76 2.887701 1_545
Al51 Al73 2.887728 1_555
Al51 Al58 3.001981 1_545
Al51 Al52 3.002116 1_655
Al51 Y0 3.257672 1_555
Al51 Y1 3.274256 1_555
Al52 Ta0 2.859328 1_555
Al52 Al85 2.887728 1_455
Al52 Al62 2.887735 1_555
Al52 Al59 3.002012 1_555
Al52 Y5 3.257642 1_555
Al52 Y2 3.274256 1_555
Al53 Ta1 2.859365 1_655
Al53 Al69 2.887518 1_545
Al53 Al78 2.887521 1_555
Al53 Al54 3.002053 1_554
Al53 Al61 3.002074 1_544
Al53 Y6 3.257727 1_554
Al53 Y3 3.274394 1_555
Al54 Ta1 2.859383 1_656
Al54 Al82 2.887552 1_555
Al54 Al68 2.887561 1_655
Al54 Al60 3.002053 1_656
Al54 Y7 3.257665 1_656
Al54 Y4 3.274343 1_655
Al55 Ta0 2.859373 1_565
Al55 Al84 2.887666 1_555
Al55 Al63 2.887710 1_455
Al55 Al58 3.002003 1_455
Al55 Y2 3.257736 1_555
Al55 Y5 3.274319 1_555
Al56 Ta1 2.859343 1_566
Al56 Al80 2.887563 1_555
Al56 Al66 2.887578 1_565
Al56 Al57 3.002051 1_556
Al56 Al60 3.002079 1_566
Al56 Y3 3.257664 1_566
Al56 Y6 3.274308 1_565
Al57 Ta1 2.859384 1_565
Al57 Al83 2.887541 1_555
Al57 Al65 2.887550 1_455
Al57 Al61 3.002050 1_454
Al57 Y4 3.257705 1_554
Al57 Y7 3.274430 1_555
Al58 Ta0 2.859297 1_665
Al58 Al64 2.887773 1_555
Al58 Al81 2.887802 1_555
Al58 Y9 3.257613 1_555
Al58 Y8 3.274292 1_555
Al59 Ta0 2.859392 1_555
Al59 Al79 2.887644 1_555
Al59 Al67 2.887712 1_555
Al59 Y8 3.257694 1_555
Al59 Y9 3.274272 1_555
Al60 Ta1 2.859365 1_555
Al60 Al71 2.887485 1_555
Al60 Al75 2.887490 1_555
Al60 Y11 3.257732 1_554
Al60 Y10 3.274411 1_555
Al61 Ta1 2.859369 1_666
Al61 Al72 2.887520 1_555
Al61 Al74 2.887550 1_555
Al61 Y10 3.257660 1_556
Al61 Y11 3.274330 1_555
Al62 Ta6 2.741790 1_555
Al62 Al85 3.021417 1_455
Al62 Y2 3.054377 1_555
Al62 Al68 3.100503 1_555
Al62 Y8 3.317836 1_555
Al63 Ta7 2.741744 1_555
Al63 Al84 3.021474 1_655
Al63 Y5 3.054447 1_655
Al63 Al65 3.100411 1_555
Al63 Y9 3.317748 1_555
Al64 Ta2 2.741737 1_565
Al64 Al81 3.021464 1_555
Al64 Y8 3.054358 1_555
Al64 Al74 3.100484 1_555
Al64 Y0 3.317937 1_565
Al65 Ta7 2.741834 1_555
Al65 Al83 3.021417 1_655
Al65 Y7 3.054460 1_655
Al65 Y10 3.317613 1_555
Al66 Ta6 2.741759 1_555
Al66 Al7 2.837269 1_555
Al66 Al80 3.021479 1_545
Al66 Y6 3.054440 1_555
Al66 Al77 3.100452 1_555
Al66 Y11 3.317671 1_555
Al67 Ta3 2.741713 1_555
Al67 Al8 2.837312 1_555
Al67 Al79 3.021505 1_555
Al67 Y9 3.054426 1_555
Al67 Al71 3.100419 1_555
Al67 Y1 3.317838 1_555
Al68 Ta6 2.741907 1_555
Al68 Al82 3.021428 1_455
Al68 Y4 3.054397 1_555
Al68 Y11 3.317663 1_555
Al69 Ta7 2.741759 1_555
Al69 Al9 2.837269 1_555
Al69 Al78 3.021480 1_565
Al69 Y3 3.054485 1_565
Al69 Al76 3.100407 1_555
Al69 Y10 3.317605 1_555
Al70 Ta4 2.741640 1_555
Al70 Al77 3.021580 1_565
Al70 Y0 3.054408 1_565
Al70 Al80 3.100488 1_555
Al70 Y2 3.317780 1_555
Al71 Ta3 2.741810 1_555
Al71 Al8 2.837300 1_555
Al71 Al75 3.021418 1_555
Al71 Y10 3.054475 1_555
Al71 Y3 3.317641 1_555
Al72 Ta4 2.741911 1_655
Al72 Al74 3.021424 1_555
Al72 Y11 3.054400 1_555
Al72 Al81 3.100561 1_555
Al72 Y4 3.317681 1_655
Al73 Al8 2.741563 1_555
Al73 Ta5 2.741639 1_655
Al73 Al76 3.021514 1_545
Al73 Y1 3.054434 1_555
Al73 Al78 3.100422 1_555
Al73 Y5 3.317814 1_655
Al74 Ta2 2.741876 1_565
Al74 Y11 3.054412 1_555
Al74 Y6 3.317699 1_565
Al75 Al9 2.741657 1_555
Al75 Ta5 2.741894 1_555
Al75 Y10 3.054446 1_555
Al75 Al79 3.100502 1_555
Al75 Y7 3.317587 1_555
Al76 Ta7 2.741657 1_555
Al76 Al9 2.837244 1_555
Al76 Y1 3.054482 1_565
Al76 Y9 3.317768 1_555
Al77 Ta6 2.741648 1_555
Al77 Y0 3.054410 1_555
Al77 Y8 3.317865 1_555
Al78 Al8 2.741639 1_555
Al78 Ta5 2.741738 1_655
Al78 Y3 3.054480 1_555
Al78 Y7 3.317577 1_655
Al79 Al9 2.741602 1_555
Al79 Ta5 2.741774 1_555
Al79 Y9 3.054420 1_555
Al79 Y5 3.317733 1_555
Al80 Ta4 2.741759 1_555
Al80 Y6 3.054427 1_565
Al80 Y4 3.317676 1_555
Al81 Ta4 2.741794 1_655
Al81 Y8 3.054364 1_555
Al81 Y2 3.317784 1_655
Al82 Ta2 2.741874 1_555
Al82 Y4 3.054408 1_655
Al82 Al85 3.100472 1_555
Al82 Y6 3.317688 1_555
Al83 Ta3 2.741835 1_565
Al83 Y7 3.054472 1_555
Al83 Al84 3.100422 1_555
Al83 Y3 3.317636 1_565
Al84 Ta3 2.741768 1_565
Al84 Y5 3.054423 1_555
Al84 Y1 3.317818 1_565
Al85 Ta2 2.741743 1_555
Al85 Y2 3.054365 1_655
Al85 Y0 3.317921 1_555
