# generated using pymatgen
data_CaNdGa3O7
_symmetry_space_group_name_H-M   'P 1'
_cell_length_a   7.97461800
_cell_length_b   5.29260000
_cell_length_c   7.99480250
_cell_angle_alpha   89.72289406
_cell_angle_beta   90.00000000
_cell_angle_gamma   90.00000000
_symmetry_Int_Tables_number   1
_chemical_formula_structural   CaNdGa3O7
_chemical_formula_sum   'Ca2 Nd2 Ga6 O14'
_cell_volume   337.42839142
_cell_formula_units_Z   2
loop_
 _symmetry_equiv_pos_site_id
 _symmetry_equiv_pos_as_xyz
  1  'x, y, z'
loop_
 _atom_site_type_symbol
 _atom_site_label
 _atom_site_symmetry_multiplicity
 _atom_site_fract_x
 _atom_site_fract_y
 _atom_site_fract_z
 _atom_site_occupancy
  Ca  Ca0  1  0.33712500  0.48624200  0.92026700  1
  Ca  Ca1  1  0.83712500  0.51375800  0.07973300  1
  Nd  Nd0  1  0.65946000  0.48581700  0.59486400  1
  Nd  Nd1  1  0.15946000  0.51418300  0.40513600  1
  Ga  Ga0  1  0.49897100  0.00035300  0.25068500  1
  Ga  Ga1  1  0.99897100  0.99964700  0.74931500  1
  Ga  Ga2  1  0.14416400  0.03732000  0.10486900  1
  Ga  Ga3  1  0.64416400  0.96268000  0.89513100  1
  Ga  Ga4  1  0.85594800  0.03515400  0.39334400  1
  Ga  Ga5  1  0.35594800  0.96484600  0.60665600  1
  O  O0  1  0.49542300  0.79470300  0.75313400  1
  O  O1  1  0.99542300  0.20529700  0.24686600  1
  O  O2  1  0.41248400  0.78197100  0.41228400  1
  O  O3  1  0.91248400  0.21802900  0.58771600  1
  O  O4  1  0.59737900  0.79432900  0.09368300  1
  O  O5  1  0.09737900  0.20567100  0.90631700  1
  O  O6  1  0.33714700  0.21781100  0.16811800  1
  O  O7  1  0.83714700  0.78218900  0.83188200  1
  O  O8  1  0.65613200  0.20676100  0.35300300  1
  O  O9  1  0.15613200  0.79323900  0.64699700  1
  O  O10  1  0.14198800  0.69415200  0.12143900  1
  O  O11  1  0.64198800  0.30584800  0.87856100  1
  O  O12  1  0.86378000  0.69117600  0.40049300  1
  O  O13  1  0.36378000  0.30882400  0.59950700  1
loop_
_geom_bond_atom_site_label_1
_geom_bond_atom_site_label_2
_geom_bond_distance
_geom_bond_site_symmetry_2
Ca0 O5 2.423719 1_555
Ca0 O6 2.432606 1_556
Ca0 O0 2.454209 1_555
Ca0 O10 2.497253 1_556
Ca0 O11 2.633700 1_555
Ca0 O13 2.743431 1_555
Ca0 O4 2.985002 1_556
Ca0 O9 3.076041 1_555
Ca1 O4 2.423719 1_555
Ca1 O7 2.432606 1_554
Ca1 O1 2.454209 1_555
Ca1 O11 2.497253 1_554
Ca1 O10 2.633700 1_655
Ca1 O12 2.743431 1_555
Ca1 O5 2.985002 1_654
Ca1 O8 3.076041 1_555
Nd0 O8 2.438972 1_555
Nd0 O0 2.450490 1_555
Nd0 O11 2.459688 1_555
Nd0 O3 2.466611 1_555
Nd0 O12 2.496922 1_555
Nd0 O13 2.537401 1_555
Nd0 O7 2.843893 1_555
Nd0 O2 2.905937 1_555
Nd1 O9 2.438972 1_555
Nd1 O1 2.450490 1_455
Nd1 O10 2.459688 1_555
Nd1 O2 2.466611 1_555
Nd1 O13 2.496922 1_555
Nd1 O12 2.537401 1_455
Nd1 O6 2.843893 1_555
Nd1 O3 2.905937 1_455
Ga0 O4 1.842173 1_545
Ga0 O6 1.848880 1_555
Ga0 O8 1.855252 1_555
Ga0 O2 1.861794 1_545
Ga1 O5 1.842173 1_665
Ga1 O7 1.848880 1_555
Ga1 O9 1.855252 1_655
Ga1 O3 1.861794 1_565
Ga2 O10 1.820519 1_545
Ga2 O5 1.854511 1_554
Ga2 O1 1.869724 1_455
Ga2 O6 1.881839 1_555
Ga3 O11 1.820519 1_565
Ga3 O4 1.854511 1_556
Ga3 O0 1.869724 1_555
Ga3 O7 1.881839 1_555
Ga4 O12 1.822229 1_545
Ga4 O1 1.846404 1_555
Ga4 O8 1.861505 1_555
Ga4 O3 1.889293 1_555
Ga5 O13 1.822229 1_565
Ga5 O0 1.846404 1_555
Ga5 O9 1.861505 1_555
Ga5 O2 1.889293 1_555
