# generated using pymatgen
data_Be4NiGe
_symmetry_space_group_name_H-M   'P 1'
_cell_length_a   4.33584867
_cell_length_b   4.33584867
_cell_length_c   4.33584867
_cell_angle_alpha   60.00000000
_cell_angle_beta   60.00000000
_cell_angle_gamma   60.00000000
_symmetry_Int_Tables_number   1
_chemical_formula_structural   Be4NiGe
_chemical_formula_sum   'Be4 Ni1 Ge1'
_cell_volume   57.63779415
_cell_formula_units_Z   1
loop_
 _symmetry_equiv_pos_site_id
 _symmetry_equiv_pos_as_xyz
  1  'x, y, z'
loop_
 _atom_site_type_symbol
 _atom_site_label
 _atom_site_symmetry_multiplicity
 _atom_site_fract_x
 _atom_site_fract_y
 _atom_site_fract_z
 _atom_site_occupancy
  Be  Be0  1  0.62326400  0.62326400  0.13020800  1
  Be  Be1  1  0.62326400  0.13020800  0.62326400  1
  Be  Be2  1  0.13020800  0.62326400  0.62326400  1
  Be  Be3  1  0.62326400  0.62326400  0.62326400  1
  Ni  Ni0  1  0.25000000  0.25000000  0.25000000  1
  Ge  Ge0  1  0.00000000  0.00000000  0.00000000  1
loop_
_geom_bond_atom_site_label_1
_geom_bond_atom_site_label_2
_geom_bond_distance
_geom_bond_site_symmetry_2
Be0 Be1 2.137816 1_555
Be0 Be3 2.137816 1_555
Be0 Be2 2.137816 1_555
Be0 Be3 2.198032 1_554
Be0 Be2 2.198032 1_654
Be0 Be1 2.198032 1_564
Be0 Ni0 2.538972 1_555
Be0 Ni0 2.538972 1_655
Be0 Ni0 2.538972 1_565
Be0 Ge0 2.545391 1_655
Be0 Ge0 2.545391 1_565
Be0 Ge0 2.545391 1_665
Be1 Be3 2.137816 1_555
Be1 Be2 2.137816 1_555
Be1 Be3 2.198032 1_545
Be1 Be2 2.198032 1_645
Be1 Ni0 2.538972 1_555
Be1 Ni0 2.538972 1_655
Be1 Ni0 2.538972 1_556
Be1 Ge0 2.545391 1_655
Be1 Ge0 2.545391 1_556
Be1 Ge0 2.545391 1_656
Be2 Be3 2.137816 1_555
Be2 Be3 2.198032 1_455
Be2 Ni0 2.538972 1_555
Be2 Ni0 2.538972 1_556
Be2 Ni0 2.538972 1_565
Be2 Ge0 2.545391 1_556
Be2 Ge0 2.545391 1_565
Be2 Ge0 2.545391 1_566
Be3 Ni0 2.538972 1_556
Be3 Ni0 2.538972 1_565
Be3 Ni0 2.538972 1_655
Be3 Ge0 2.545391 1_656
Be3 Ge0 2.545391 1_566
Be3 Ge0 2.545391 1_665
Ge0 Ni0 2.655154 1_545
Ge0 Ni0 2.655154 1_554
Ge0 Ni0 2.655154 1_455
Ge0 Ni0 2.655154 1_555
