# generated using pymatgen
data_YNiSO7
_symmetry_space_group_name_H-M   'P 1'
_cell_length_a   15.79844111
_cell_length_b   6.13508901
_cell_length_c   6.66635401
_cell_angle_alpha   89.99544949
_cell_angle_beta   89.99223859
_cell_angle_gamma   89.99302033
_symmetry_Int_Tables_number   1
_chemical_formula_structural   YNiSO7
_chemical_formula_sum   'Y4 Ni4 S4 O28'
_cell_volume   646.13529954
_cell_formula_units_Z   4
loop_
 _symmetry_equiv_pos_site_id
 _symmetry_equiv_pos_as_xyz
  1  'x, y, z'
loop_
 _atom_site_type_symbol
 _atom_site_label
 _atom_site_symmetry_multiplicity
 _atom_site_fract_x
 _atom_site_fract_y
 _atom_site_fract_z
 _atom_site_occupancy
  Y  Y0  1  0.94044500  0.76699700  0.32482400  1
  Y  Y1  1  0.55952700  0.23328900  0.82476200  1
  Y  Y2  1  0.44042100  0.73333100  0.67532900  1
  Y  Y3  1  0.05962400  0.26694800  0.17524700  1
  Ni  Ni0  1  0.98224500  0.51912200  0.79914000  1
  Ni  Ni1  1  0.51793100  0.48130000  0.29919500  1
  Ni  Ni2  1  0.48197900  0.98132000  0.20091000  1
  Ni  Ni3  1  0.01779800  0.01920400  0.70098500  1
  S  S0  1  0.10884900  0.82596500  0.02921600  1
  S  S1  1  0.39099900  0.17413700  0.52924700  1
  S  S2  1  0.60890000  0.67406600  0.97086100  1
  S  S3  1  0.89128100  0.32595100  0.47078100  1
  O  O0  1  0.31020100  0.61415600  0.89474000  1
  O  O1  1  0.18984600  0.38510300  0.39524900  1
  O  O2  1  0.81028200  0.88616100  0.10502800  1
  O  O3  1  0.68975200  0.11527100  0.60396400  1
  O  O4  1  0.29210800  0.50358900  0.04323700  1
  O  O5  1  0.20732400  0.49648700  0.54364500  1
  O  O6  1  0.79243100  0.99468100  0.95509000  1
  O  O7  1  0.70802400  0.00189000  0.45742400  1
  O  O8  1  0.05819500  0.27957400  0.82286800  1
  O  O9  1  0.44191800  0.72076200  0.32288500  1
  O  O10  1  0.55798200  0.22074700  0.17723800  1
  O  O11  1  0.94188700  0.77953900  0.67724600  1
  O  O12  1  0.16692500  0.01435700  0.07686300  1
  O  O13  1  0.33301700  0.98562400  0.57728800  1
  O  O14  1  0.66690000  0.48552900  0.92290500  1
  O  O15  1  0.83317400  0.51439100  0.42338200  1
  O  O16  1  0.10623100  0.78412600  0.80259000  1
  O  O17  1  0.39348300  0.21566900  0.30257100  1
  O  O18  1  0.60640800  0.71566600  0.19751700  1
  O  O19  1  0.89392200  0.28381900  0.69739100  1
  O  O20  1  0.98541200  0.43844500  0.44825200  1
  O  O21  1  0.51471000  0.56193400  0.94835400  1
  O  O22  1  0.48520700  0.06200300  0.55175000  1
  O  O23  1  0.01469200  0.93840100  0.05181500  1
  O  O24  1  0.96759200  0.51944500  0.07664100  1
  O  O25  1  0.53240000  0.48076500  0.57670400  1
  O  O26  1  0.46753500  0.98078900  0.92340400  1
  O  O27  1  0.03244500  0.01944600  0.42346200  1
loop_
_geom_bond_atom_site_label_1
_geom_bond_atom_site_label_2
_geom_bond_distance
_geom_bond_site_symmetry_2
Ni0 O24 1.864318 1_556
Ni0 O11 1.902393 1_555
Ni0 O8 1.903736 1_655
Ni0 O19 2.119440 1_555
Ni0 O20 2.391491 1_555
Ni0 O16 2.545872 1_655
Ni1 O25 1.864076 1_555
Ni1 O10 1.901689 1_555
Ni1 O9 1.903928 1_555
Ni1 O18 2.116788 1_555
Ni1 O21 2.391084 1_554
Ni1 O17 2.553934 1_555
Ni2 O26 1.864008 1_554
Ni2 O9 1.901840 1_555
Ni2 O10 1.903859 1_565
Ni2 O17 2.116721 1_565
Ni2 O22 2.391222 1_565
Ni2 O18 2.553491 1_555
Ni3 O27 1.864451 1_555
Ni3 O8 1.902565 1_555
Ni3 O11 1.904153 1_445
Ni3 O16 2.119033 1_545
Ni3 O23 2.391178 1_546
Ni3 O19 2.542713 1_455
O0 O4 1.233564 1_556
O0 Y2 2.627878 1_555
O1 O5 1.233725 1_555
O1 Y3 2.628739 1_555
O2 O6 1.233613 1_554
O2 Y0 2.628755 1_555
O3 O7 1.233485 1_555
O3 Y1 2.631060 1_555
O8 Y3 2.350465 1_556
O9 Y2 2.350903 1_555
O10 Y1 2.351107 1_554
O11 Y0 2.350749 1_555
O12 S0 1.509632 1_545
O12 Y3 2.388412 1_555
O13 S1 1.509762 1_565
O13 Y2 2.387814 1_555
O14 S2 1.509795 1_555
O14 Y1 2.387776 1_555
O15 S3 1.509598 1_555
O15 Y0 2.388654 1_555
O16 S0 1.533005 1_556
O17 S1 1.532912 1_555
O18 S2 1.532892 1_554
O19 S3 1.533169 1_555
O20 S3 1.646386 1_555
O20 Y0 2.290039 1_555
O20 Y3 2.406918 1_655
O21 S2 1.646332 1_555
O21 Y1 2.290247 1_555
O21 Y2 2.407458 1_555
O22 S1 1.646430 1_555
O22 Y2 2.290247 1_545
O22 Y1 2.407585 1_555
O23 S0 1.646508 1_555
O23 Y3 2.290118 1_565
O23 Y0 2.406957 1_455
O24 Y3 2.223812 1_655
O24 Y0 2.286458 1_555
O25 Y2 2.223553 1_555
O25 Y1 2.285395 1_555
O26 Y1 2.223613 1_565
O26 Y2 2.285609 1_555
O27 Y0 2.223659 1_445
O27 Y3 2.286398 1_555
