# generated using pymatgen
data_KCa4Si8H16O28F
_symmetry_space_group_name_H-M   'P 1'
_cell_length_a   9.06671700
_cell_length_b   9.06671700
_cell_length_c   16.01284500
_cell_angle_alpha   90.00000000
_cell_angle_beta   90.00000000
_cell_angle_gamma   90.00000000
_symmetry_Int_Tables_number   1
_chemical_formula_structural   KCa4Si8H16O28F
_chemical_formula_sum   'K2 Ca8 Si16 H32 O56 F2'
_cell_volume   1316.34164234
_cell_formula_units_Z   2
loop_
 _symmetry_equiv_pos_site_id
 _symmetry_equiv_pos_as_xyz
  1  'x, y, z'
loop_
 _atom_site_type_symbol
 _atom_site_label
 _atom_site_symmetry_multiplicity
 _atom_site_fract_x
 _atom_site_fract_y
 _atom_site_fract_z
 _atom_site_occupancy
  K  K0  1  0.50000000  0.50000000  0.00000000  1
  K  K1  1  0.00000000  0.00000000  0.50000000  1
  Ca  Ca0  1  0.74574300  0.61003500  0.50000000  1
  Ca  Ca1  1  0.25425700  0.38996500  0.50000000  1
  Ca  Ca2  1  0.75425700  0.11003500  0.00000000  1
  Ca  Ca3  1  0.24574300  0.88996500  0.00000000  1
  Ca  Ca4  1  0.61003500  0.25425700  0.50000000  1
  Ca  Ca5  1  0.38996500  0.74574300  0.50000000  1
  Ca  Ca6  1  0.11003500  0.24574300  0.00000000  1
  Ca  Ca7  1  0.88996500  0.75425700  0.00000000  1
  Si  Si0  1  0.58667500  0.72580500  0.31025700  1
  Si  Si1  1  0.41332500  0.27419500  0.31025700  1
  Si  Si2  1  0.91332500  0.22580500  0.81025700  1
  Si  Si3  1  0.08667500  0.77419500  0.81025700  1
  Si  Si4  1  0.72580500  0.41332500  0.31025700  1
  Si  Si5  1  0.27419500  0.58667500  0.31025700  1
  Si  Si6  1  0.22580500  0.08667500  0.81025700  1
  Si  Si7  1  0.77419500  0.91332500  0.81025700  1
  Si  Si8  1  0.41332500  0.27419500  0.68974300  1
  Si  Si9  1  0.58667500  0.72580500  0.68974300  1
  Si  Si10  1  0.08667500  0.77419500  0.18974300  1
  Si  Si11  1  0.91332500  0.22580500  0.18974300  1
  Si  Si12  1  0.27419500  0.58667500  0.68974300  1
  Si  Si13  1  0.72580500  0.41332500  0.68974300  1
  Si  Si14  1  0.77419500  0.91332500  0.18974300  1
  Si  Si15  1  0.22580500  0.08667500  0.18974300  1
  H  H0  1  0.67122500  0.94852300  0.41129500  1
  H  H1  1  0.32877500  0.05147700  0.41129500  1
  H  H2  1  0.82877500  0.44852300  0.91129500  1
  H  H3  1  0.17122500  0.55147700  0.91129500  1
  H  H4  1  0.94852300  0.32877500  0.41129500  1
  H  H5  1  0.05147700  0.67122500  0.41129500  1
  H  H6  1  0.44852300  0.17122500  0.91129500  1
  H  H7  1  0.55147700  0.82877500  0.91129500  1
  H  H8  1  0.32877500  0.05147700  0.58870500  1
  H  H9  1  0.67122500  0.94852300  0.58870500  1
  H  H10  1  0.17122500  0.55147700  0.08870500  1
  H  H11  1  0.82877500  0.44852300  0.08870500  1
  H  H12  1  0.05147700  0.67122500  0.58870500  1
  H  H13  1  0.94852300  0.32877500  0.58870500  1
  H  H14  1  0.55147700  0.82877500  0.08870500  1
  H  H15  1  0.44852300  0.17122500  0.08870500  1
  H  H16  1  0.92583100  0.72187500  0.35120900  1
  H  H17  1  0.07416900  0.27812500  0.35120900  1
  H  H18  1  0.57416900  0.22187500  0.85120900  1
  H  H19  1  0.42583100  0.77812500  0.85120900  1
  H  H20  1  0.72187500  0.07416900  0.35120900  1
  H  H21  1  0.27812500  0.92583100  0.35120900  1
  H  H22  1  0.22187500  0.42583100  0.85120900  1
  H  H23  1  0.77812500  0.57416900  0.85120900  1
  H  H24  1  0.07416900  0.27812500  0.64879100  1
  H  H25  1  0.92583100  0.72187500  0.64879100  1
  H  H26  1  0.42583100  0.77812500  0.14879100  1
  H  H27  1  0.57416900  0.22187500  0.14879100  1
  H  H28  1  0.27812500  0.92583100  0.64879100  1
  H  H29  1  0.72187500  0.07416900  0.64879100  1
  H  H30  1  0.77812500  0.57416900  0.14879100  1
  H  H31  1  0.22187500  0.42583100  0.14879100  1
  O  O0  1  0.63724500  0.86275500  0.25000000  1
  O  O1  1  0.36275500  0.13724500  0.25000000  1
  O  O2  1  0.86275500  0.36275500  0.75000000  1
  O  O3  1  0.13724500  0.63724500  0.75000000  1
  O  O4  1  0.86275500  0.36275500  0.25000000  1
  O  O5  1  0.13724500  0.63724500  0.25000000  1
  O  O6  1  0.36275500  0.13724500  0.75000000  1
  O  O7  1  0.63724500  0.86275500  0.75000000  1
  O  O8  1  0.68990600  0.58416800  0.28218800  1
  O  O9  1  0.31009400  0.41583200  0.28218800  1
  O  O10  1  0.81009400  0.08416800  0.78218800  1
  O  O11  1  0.18990600  0.91583200  0.78218800  1
  O  O12  1  0.58416800  0.31009400  0.28218800  1
  O  O13  1  0.41583200  0.68990600  0.28218800  1
  O  O14  1  0.08416800  0.18990600  0.78218800  1
  O  O15  1  0.91583200  0.81009400  0.78218800  1
  O  O16  1  0.31009400  0.41583200  0.71781200  1
  O  O17  1  0.68990600  0.58416800  0.71781200  1
  O  O18  1  0.18990600  0.91583200  0.21781200  1
  O  O19  1  0.81009400  0.08416800  0.21781200  1
  O  O20  1  0.41583200  0.68990600  0.71781200  1
  O  O21  1  0.58416800  0.31009400  0.71781200  1
  O  O22  1  0.91583200  0.81009400  0.21781200  1
  O  O23  1  0.08416800  0.18990600  0.21781200  1
  O  O24  1  0.60170600  0.76512300  0.40807700  1
  O  O25  1  0.39829400  0.23487700  0.40807700  1
  O  O26  1  0.89829400  0.26512300  0.90807700  1
  O  O27  1  0.10170600  0.73487700  0.90807700  1
  O  O28  1  0.76512300  0.39829400  0.40807700  1
  O  O29  1  0.23487700  0.60170600  0.40807700  1
  O  O30  1  0.26512300  0.10170600  0.90807700  1
  O  O31  1  0.73487700  0.89829400  0.90807700  1
  O  O32  1  0.39829400  0.23487700  0.59192300  1
  O  O33  1  0.60170600  0.76512300  0.59192300  1
  O  O34  1  0.10170600  0.73487700  0.09192300  1
  O  O35  1  0.89829400  0.26512300  0.09192300  1
  O  O36  1  0.23487700  0.60170600  0.59192300  1
  O  O37  1  0.76512300  0.39829400  0.59192300  1
  O  O38  1  0.73487700  0.89829400  0.09192300  1
  O  O39  1  0.26512300  0.10170600  0.09192300  1
  O  O40  1  0.94963700  0.71385200  0.41079500  1
  O  O41  1  0.05036300  0.28614800  0.41079500  1
  O  O42  1  0.55036300  0.21385200  0.91079500  1
  O  O43  1  0.44963700  0.78614800  0.91079500  1
  O  O44  1  0.71385200  0.05036300  0.41079500  1
  O  O45  1  0.28614800  0.94963700  0.41079500  1
  O  O46  1  0.21385200  0.44963700  0.91079500  1
  O  O47  1  0.78614800  0.55036300  0.91079500  1
  O  O48  1  0.05036300  0.28614800  0.58920500  1
  O  O49  1  0.94963700  0.71385200  0.58920500  1
  O  O50  1  0.44963700  0.78614800  0.08920500  1
  O  O51  1  0.55036300  0.21385200  0.08920500  1
  O  O52  1  0.28614800  0.94963700  0.58920500  1
  O  O53  1  0.71385200  0.05036300  0.58920500  1
  O  O54  1  0.78614800  0.55036300  0.08920500  1
  O  O55  1  0.21385200  0.44963700  0.08920500  1
  F  F0  1  0.50000000  0.50000000  0.50000000  1
  F  F1  1  0.00000000  0.00000000  0.00000000  1
loop_
_geom_bond_atom_site_label_1
_geom_bond_atom_site_label_2
_geom_bond_distance
_geom_bond_site_symmetry_2
K0 O43 2.996655 1_554
K0 O50 2.996655 1_555
K0 O54 2.996655 1_555
K0 O47 2.996655 1_554
K0 O46 2.996655 1_554
K0 O42 2.996655 1_554
K0 O55 2.996655 1_555
K0 O51 2.996655 1_555
K1 O53 2.996655 1_455
K1 O44 2.996655 1_455
K1 O49 2.996655 1_445
K1 O40 2.996655 1_445
K1 O48 2.996655 1_555
K1 O45 2.996655 1_545
K1 O41 2.996655 1_555
K1 O52 2.996655 1_545
Ca0 O33 2.418542 1_555
Ca0 O24 2.418542 1_555
Ca0 O28 2.425515 1_555
Ca0 O37 2.425515 1_555
Ca0 F0 2.441243 1_555
Ca0 O40 2.518712 1_555
Ca0 O49 2.518712 1_555
Ca1 O25 2.418542 1_555
Ca1 O32 2.418542 1_555
Ca1 O36 2.425515 1_555
Ca1 O29 2.425515 1_555
Ca1 F0 2.441243 1_555
Ca1 O41 2.518712 1_555
Ca1 O48 2.518712 1_555
Ca2 O26 2.418542 1_554
Ca2 O35 2.418542 1_555
Ca2 O31 2.425515 1_544
Ca2 O38 2.425515 1_545
Ca2 F1 2.441243 1_655
Ca2 O51 2.518712 1_555
Ca2 O42 2.518712 1_554
Ca3 O27 2.418542 1_554
Ca3 O34 2.418542 1_555
Ca3 O30 2.425515 1_564
Ca3 O39 2.425515 1_565
Ca3 F1 2.441243 1_565
Ca3 O43 2.518712 1_554
Ca3 O50 2.518712 1_555
Ca4 O28 2.418542 1_555
Ca4 O37 2.418542 1_555
Ca4 O25 2.425515 1_555
Ca4 O32 2.425515 1_555
Ca4 F0 2.441243 1_555
Ca4 O44 2.518712 1_555
Ca4 O53 2.518712 1_555
Ca5 O36 2.418542 1_555
Ca5 O29 2.418542 1_555
Ca5 O24 2.425515 1_555
Ca5 O33 2.425515 1_555
Ca5 F0 2.441243 1_555
Ca5 O52 2.518712 1_555
Ca5 O45 2.518712 1_555
Ca6 O30 2.418542 1_554
Ca6 O39 2.418542 1_555
Ca6 O26 2.425515 1_454
Ca6 O35 2.425515 1_455
Ca6 F1 2.441243 1_555
Ca6 O46 2.518712 1_554
Ca6 O55 2.518712 1_555
Ca7 O31 2.418542 1_554
Ca7 O38 2.418542 1_555
Ca7 O27 2.425515 1_654
Ca7 O34 2.425515 1_655
Ca7 F1 2.441243 1_665
Ca7 O47 2.518712 1_554
Ca7 O54 2.518712 1_555
H0 O44 1.001009 1_565
H1 O45 1.001009 1_545
H2 O47 1.001009 1_555
H3 O46 1.001009 1_555
H4 O41 1.001009 1_655
H5 O40 1.001009 1_455
H6 O42 1.001009 1_555
H7 O43 1.001009 1_555
H8 O52 1.001009 1_545
H9 O53 1.001009 1_565
H10 O55 1.001009 1_555
H11 O54 1.001009 1_555
H12 O49 1.001009 1_455
H13 O48 1.001009 1_655
H14 O50 1.001009 1_555
H15 O51 1.001009 1_555
H16 O40 0.980951 1_555
H17 O41 0.980951 1_555
H18 O42 0.980951 1_555
H19 O43 0.980951 1_555
H20 O44 0.980951 1_555
H21 O45 0.980951 1_555
H22 O46 0.980951 1_555
H23 O47 0.980951 1_555
H24 O48 0.980951 1_555
H25 O49 0.980951 1_555
H26 O50 0.980951 1_555
H27 O51 0.980951 1_555
H28 O52 0.980951 1_555
H29 O53 0.980951 1_555
H30 O54 0.980951 1_555
H31 O55 0.980951 1_555
O0 Si14 1.637992 1_555
O0 Si0 1.637992 1_555
O1 Si15 1.637992 1_555
O1 Si1 1.637992 1_555
O2 Si2 1.637992 1_555
O2 Si13 1.637992 1_555
O3 Si3 1.637992 1_555
O3 Si12 1.637992 1_555
O4 Si4 1.637992 1_555
O4 Si11 1.637992 1_555
O5 Si5 1.637992 1_555
O5 Si10 1.637992 1_555
O6 Si8 1.637992 1_555
O6 Si6 1.637992 1_555
O7 Si7 1.637992 1_555
O7 Si9 1.637992 1_555
O8 Si4 1.645392 1_555
O8 Si0 1.651416 1_555
O9 Si5 1.645392 1_555
O9 Si1 1.651416 1_555
O10 Si7 1.645392 1_545
O10 Si2 1.651416 1_555
O11 Si6 1.645392 1_565
O11 Si3 1.651416 1_555
O12 Si1 1.645392 1_555
O12 Si4 1.651416 1_555
O13 Si0 1.645392 1_555
O13 Si5 1.651416 1_555
O14 Si2 1.645392 1_455
O14 Si6 1.651416 1_555
O15 Si3 1.645392 1_655
O15 Si7 1.651416 1_555
O16 Si12 1.645392 1_555
O16 Si8 1.651416 1_555
O17 Si13 1.645392 1_555
O17 Si9 1.651416 1_555
O18 Si15 1.645392 1_565
O18 Si10 1.651416 1_555
O19 Si14 1.645392 1_545
O19 Si11 1.651416 1_555
O20 Si9 1.645392 1_555
O20 Si12 1.651416 1_555
O21 Si8 1.645392 1_555
O21 Si13 1.651416 1_555
O22 Si10 1.645392 1_655
O22 Si14 1.651416 1_555
O23 Si11 1.645392 1_455
O23 Si15 1.651416 1_555
O24 Si0 1.612200 1_555
O25 Si1 1.612200 1_555
O26 Si2 1.612200 1_555
O27 Si3 1.612200 1_555
O28 Si4 1.612200 1_555
O29 Si5 1.612200 1_555
O30 Si6 1.612200 1_555
O31 Si7 1.612200 1_555
O32 Si8 1.612200 1_555
O33 Si9 1.612200 1_555
O34 Si10 1.612200 1_555
O35 Si11 1.612200 1_555
O36 Si12 1.612200 1_555
O37 Si13 1.612200 1_555
O38 Si14 1.612200 1_555
O39 Si15 1.612200 1_555
