# generated using pymatgen
data_MgTiMn5(PO4)6
_symmetry_space_group_name_H-M   'P 1'
_cell_length_a   8.79479279
_cell_length_b   8.73581424
_cell_length_c   8.68157690
_cell_angle_alpha   60.05703880
_cell_angle_beta   60.47036728
_cell_angle_gamma   62.27630373
_symmetry_Int_Tables_number   1
_chemical_formula_structural   MgTiMn5(PO4)6
_chemical_formula_sum   'Mg1 Ti1 Mn5 P6 O24'
_cell_volume   481.17299824
_cell_formula_units_Z   1
loop_
 _symmetry_equiv_pos_site_id
 _symmetry_equiv_pos_as_xyz
  1  'x, y, z'
loop_
 _atom_site_type_symbol
 _atom_site_label
 _atom_site_symmetry_multiplicity
 _atom_site_fract_x
 _atom_site_fract_y
 _atom_site_fract_z
 _atom_site_occupancy
  Mg  Mg0  1  0.75644100  0.74602300  0.75736800  1
  Ti  Ti0  1  0.55075800  0.15099500  0.15081600  1
  Mn  Mn0  1  0.97897000  0.01273300  0.00431300  1
  Mn  Mn1  1  0.11655000  0.62617600  0.62402300  1
  Mn  Mn2  1  0.51826400  0.49224000  0.49436500  1
  Mn  Mn3  1  0.39446000  0.87454900  0.86270800  1
  Mn  Mn4  1  0.94332500  0.34978200  0.34873100  1
  P  P0  1  0.24194300  0.24993400  0.53820200  1
  P  P1  1  0.25527900  0.95565000  0.24292800  1
  P  P2  1  0.25875400  0.53638200  0.95966100  1
  P  P3  1  0.75368400  0.44786900  0.05240100  1
  P  P4  1  0.75170600  0.04968000  0.75145000  1
  P  P5  1  0.73461600  0.75705600  0.45934100  1
  O  O0  1  0.08058300  0.08780000  0.32405700  1
  O  O1  1  0.08106800  0.48578900  0.09908800  1
  O  O2  1  0.07314300  0.34238000  0.47803900  1
  O  O3  1  0.19901500  0.09751700  0.73603800  1
  O  O4  1  0.40935900  0.15916600  0.39365500  1
  O  O5  1  0.29923300  0.39128100  0.53976400  1
  O  O6  1  0.22443300  0.95167600  0.07898700  1
  O  O7  1  0.30616800  0.75871000  0.38248000  1
  O  O8  1  0.58816600  0.61306500  0.00892700  1
  O  O9  1  0.30509000  0.54274500  0.76097900  1
  O  O10  1  0.75063600  0.25919800  0.07825900  1
  O  O11  1  0.58179500  0.99570400  0.80115800  1
  O  O12  1  0.42317300  0.02845100  0.15354200  1
  O  O13  1  0.22653900  0.73079400  0.95559800  1
  O  O14  1  0.75138800  0.42675200  0.24278800  1
  O  O15  1  0.42342200  0.39049200  0.02707200  1
  O  O16  1  0.74892400  0.23581100  0.58286900  1
  O  O17  1  0.74975400  0.07881700  0.91587600  1
  O  O18  1  0.72010000  0.59722000  0.44532500  1
  O  O19  1  0.57054600  0.80572300  0.63495200  1
  O  O20  1  0.73977600  0.92339300  0.26823800  1
  O  O21  1  0.90436300  0.71290700  0.50259400  1
  O  O22  1  0.92234600  0.49479000  0.87994000  1
  O  O23  1  0.91621800  0.88293400  0.71346600  1
loop_
_geom_bond_atom_site_label_1
_geom_bond_atom_site_label_2
_geom_bond_distance
_geom_bond_site_symmetry_2
Mg0 O21 2.029906 1_555
Mg0 O23 2.032502 1_555
Mg0 O8 2.046928 1_556
Mg0 O22 2.073102 1_555
Mg0 O11 2.096738 1_555
Mg0 O19 2.107253 1_555
Mn0 O3 2.210600 1_654
Mn0 O17 2.233173 1_554
Mn0 O10 2.273038 1_555
Mn0 O20 2.296849 1_545
Mn0 O6 2.308294 1_645
Mn0 O13 2.475563 1_644
Mn1 O7 2.108183 1_555
Mn1 O5 2.144673 1_555
Mn1 O9 2.156006 1_555
Mn1 O22 2.169895 1_455
Mn1 O21 2.234777 1_455
Mn1 O23 2.334818 1_455
Mn2 O18 2.133826 1_555
Mn2 O9 2.244838 1_555
Mn2 O14 2.245664 1_555
Mn2 O5 2.264785 1_555
Mn2 O16 2.305183 1_555
Mn2 O7 2.308805 1_555
Mn3 O6 1.942515 1_556
Mn3 O13 1.987219 1_555
Mn3 O19 1.992847 1_555
Mn3 O11 2.076110 1_555
Mn3 O3 2.137243 1_565
Mn3 O8 2.312561 1_556
Mn4 O2 1.920992 1_655
Mn4 O1 1.938263 1_655
Mn4 O14 2.001147 1_555
Mn4 O16 2.045464 1_555
Mn4 O0 2.098793 1_655
Mn4 O18 2.338413 1_555
O0 P1 1.511319 1_545
O1 P2 1.531836 1_554
O2 P0 1.535156 1_555
O3 P0 1.552705 1_555
O4 P0 1.567527 1_555
O4 Ti0 1.865330 1_555
O5 P0 1.543064 1_555
O6 P1 1.593481 1_555
O7 P1 1.537962 1_555
O8 P3 1.545117 1_555
O9 P2 1.541692 1_555
O10 P3 1.559959 1_555
O10 Ti0 2.059252 1_555
O11 P4 1.567918 1_565
O12 P1 1.561578 1_545
O12 Ti0 1.863279 1_555
O13 P2 1.571066 1_555
O14 P3 1.559668 1_555
O15 P2 1.561321 1_554
O15 Ti0 1.883548 1_555
O16 P4 1.552133 1_555
O17 P4 1.561175 1_555
O17 Ti0 2.087832 1_556
O18 P5 1.526935 1_555
O19 P5 1.579540 1_555
O20 P5 1.564151 1_555
O20 Ti0 2.080334 1_565
O21 P5 1.546216 1_555
O22 P3 1.540726 1_556
O23 P4 1.540217 1_565
