# generated using pymatgen
data_YMg14Zn
_symmetry_space_group_name_H-M   'P 1'
_cell_length_a   6.45234025
_cell_length_b   6.45233972
_cell_length_c   10.25770785
_cell_angle_alpha   90.00000000
_cell_angle_beta   90.00000000
_cell_angle_gamma   120.00000279
_symmetry_Int_Tables_number   1
_chemical_formula_structural   YMg14Zn
_chemical_formula_sum   'Y1 Mg14 Zn1'
_cell_volume   369.84132046
_cell_formula_units_Z   1
loop_
 _symmetry_equiv_pos_site_id
 _symmetry_equiv_pos_as_xyz
  1  'x, y, z'
loop_
 _atom_site_type_symbol
 _atom_site_label
 _atom_site_symmetry_multiplicity
 _atom_site_fract_x
 _atom_site_fract_y
 _atom_site_fract_z
 _atom_site_occupancy
  Y  Y0  1  0.16666700  0.33333300  0.12500000  1
  Mg  Mg0  1  0.17793952  0.83896926  0.12500000  1
  Mg  Mg1  1  0.16353820  0.83176860  0.62500000  1
  Mg  Mg2  1  0.66103074  0.32206048  0.12500000  1
  Mg  Mg3  1  0.66823140  0.33646180  0.62500000  1
  Mg  Mg4  1  0.66103074  0.83896926  0.12500000  1
  Mg  Mg5  1  0.66823140  0.83176860  0.62500000  1
  Mg  Mg6  1  0.33152808  0.16847192  0.38305976  1
  Mg  Mg7  1  0.33152808  0.16847192  0.86694024  1
  Mg  Mg8  1  0.33152808  0.66305716  0.38305976  1
  Mg  Mg9  1  0.33152808  0.66305716  0.86694024  1
  Mg  Mg10  1  0.83694284  0.16847192  0.38305976  1
  Mg  Mg11  1  0.83694284  0.16847192  0.86694024  1
  Mg  Mg12  1  0.83333300  0.66666700  0.37066318  1
  Mg  Mg13  1  0.83333300  0.66666700  0.87933682  1
  Zn  Zn0  1  0.16666700  0.33333300  0.62500000  1
loop_
_geom_bond_atom_site_label_1
_geom_bond_atom_site_label_2
_geom_bond_distance
_geom_bond_site_symmetry_2
Mg0 Mg2 3.117069 1_565
Mg0 Mg4 3.117069 1_555
Mg0 Mg12 3.171455 1_455
Mg0 Mg13 3.171455 1_454
Mg0 Mg8 3.225275 1_555
Mg0 Mg9 3.225275 1_554
Mg0 Mg7 3.225282 1_564
Mg0 Mg6 3.225282 1_565
Mg0 Y0 3.226785 1_555
Mg0 Y0 3.226785 1_565
Mg0 Mg2 3.335271 1_455
Mg0 Mg4 3.335271 1_455
Mg1 Mg8 3.114314 1_555
Mg1 Mg9 3.114314 1_555
Mg1 Mg6 3.114321 1_565
Mg1 Mg7 3.114321 1_565
Mg1 Mg12 3.195467 1_455
Mg1 Mg13 3.195467 1_455
Mg1 Mg3 3.195888 1_455
Mg1 Mg5 3.195888 1_455
Mg1 Zn0 3.226217 1_565
Mg1 Zn0 3.226217 1_555
Mg1 Mg3 3.256452 1_565
Mg1 Mg5 3.256452 1_555
Mg2 Mg4 3.117069 1_545
Mg2 Mg7 3.225282 1_554
Mg2 Mg6 3.225282 1_555
Mg2 Y0 3.226785 1_655
Mg2 Y0 3.226785 1_555
Mg2 Mg4 3.335271 1_555
Mg3 Mg6 3.114321 1_555
Mg3 Mg7 3.114321 1_555
Mg3 Mg5 3.195888 1_555
Mg3 Zn0 3.226217 1_555
Mg3 Zn0 3.226217 1_655
Mg3 Mg5 3.256452 1_545
Mg4 Mg9 3.225282 1_554
Mg4 Mg8 3.225282 1_555
Mg4 Y0 3.226785 1_555
Mg4 Y0 3.226785 1_665
Mg5 Mg8 3.114321 1_555
Mg5 Mg9 3.114321 1_555
Mg5 Zn0 3.226217 1_665
Mg5 Zn0 3.226217 1_555
Mg6 Zn0 3.090909 1_555
Mg6 Mg8 3.191232 1_555
Mg6 Y0 3.225178 1_555
Mg6 Mg8 3.261108 1_545
Mg7 Zn0 3.090909 1_555
Mg7 Mg9 3.191232 1_555
Mg7 Y0 3.225178 1_556
Mg7 Mg9 3.261108 1_545
Mg8 Zn0 3.090916 1_555
Mg8 Y0 3.225184 1_555
Mg9 Zn0 3.090916 1_555
Mg9 Y0 3.225184 1_556
Mg10 Zn0 3.090916 1_655
Mg10 Mg3 3.114314 1_555
Mg10 Mg5 3.114321 1_545
Mg10 Mg8 3.191232 1_655
Mg10 Mg6 3.191232 1_655
Mg10 Y0 3.225184 1_655
Mg10 Mg2 3.225275 1_555
Mg10 Mg4 3.225282 1_545
Mg10 Mg12 3.228738 1_545
Mg10 Mg12 3.228738 1_555
Mg10 Mg8 3.261108 1_545
Mg10 Mg6 3.261108 1_555
Mg11 Zn0 3.090916 1_655
Mg11 Mg3 3.114314 1_555
Mg11 Mg5 3.114321 1_545
Mg11 Mg9 3.191232 1_655
Mg11 Mg7 3.191232 1_655
Mg11 Y0 3.225184 1_656
Mg11 Mg2 3.225275 1_556
Mg11 Mg4 3.225282 1_546
Mg11 Mg13 3.228738 1_545
Mg11 Mg13 3.228738 1_555
Mg11 Mg9 3.261108 1_545
Mg11 Mg7 3.261108 1_555
Mg12 Mg4 3.171449 1_555
Mg12 Mg2 3.171455 1_555
Mg12 Mg5 3.195460 1_555
Mg12 Mg3 3.195466 1_555
Mg12 Mg6 3.228738 1_665
Mg12 Mg6 3.228738 1_555
Mg12 Mg8 3.228738 1_555
Mg12 Mg8 3.228738 1_655
Mg13 Mg4 3.171449 1_556
Mg13 Mg2 3.171455 1_556
Mg13 Mg5 3.195460 1_555
Mg13 Mg3 3.195466 1_555
Mg13 Mg7 3.228738 1_665
Mg13 Mg7 3.228738 1_555
Mg13 Mg9 3.228738 1_555
Mg13 Mg9 3.228738 1_655
