# generated using pymatgen
data_YHoC4
_symmetry_space_group_name_H-M   'P 1'
_cell_length_a   4.04071119
_cell_length_b   4.04071119
_cell_length_c   5.18121800
_cell_angle_alpha   90.00000000
_cell_angle_beta   90.00000000
_cell_angle_gamma   100.24108936
_symmetry_Int_Tables_number   1
_chemical_formula_structural   YHoC4
_chemical_formula_sum   'Y1 Ho1 C4'
_cell_volume   83.24779785
_cell_formula_units_Z   1
loop_
 _symmetry_equiv_pos_site_id
 _symmetry_equiv_pos_as_xyz
  1  'x, y, z'
loop_
 _atom_site_type_symbol
 _atom_site_label
 _atom_site_symmetry_multiplicity
 _atom_site_fract_x
 _atom_site_fract_y
 _atom_site_fract_z
 _atom_site_occupancy
  Y  Y0  1  0.00000000  0.00000000  0.00000000  1
  Ho  Ho0  1  0.50000000  0.50000000  0.50000000  1
  C  C0  1  0.60483700  0.39516300  0.00000000  1
  C  C1  1  0.10516900  0.89483100  0.50000000  1
  C  C2  1  0.89483100  0.10516900  0.50000000  1
  C  C3  1  0.39516300  0.60483700  0.00000000  1
loop_
_geom_bond_atom_site_label_1
_geom_bond_atom_site_label_2
_geom_bond_distance
_geom_bond_site_symmetry_2
C0 C3 1.300324 1_555
C0 Y0 2.450660 1_655
C0 Ho0 2.670948 1_555
C0 Ho0 2.670948 1_554
C0 Y0 2.671135 1_555
C0 Y0 2.671135 1_665
C1 C2 1.304441 1_465
C1 Ho0 2.448601 1_555
C1 Y0 2.671450 1_566
C1 Y0 2.671450 1_565
C1 Ho0 2.671637 1_455
C1 Ho0 2.671637 1_565
C2 Ho0 2.448601 1_555
C2 Y0 2.671450 1_655
C2 Y0 2.671450 1_656
C2 Ho0 2.671637 1_545
C2 Ho0 2.671637 1_655
C3 Y0 2.450660 1_565
C3 Ho0 2.670948 1_555
C3 Ho0 2.670948 1_554
C3 Y0 2.671135 1_555
C3 Y0 2.671135 1_665
