# generated using pymatgen
data_Co5B2P
_symmetry_space_group_name_H-M   'P 1'
_cell_length_a   5.36704400
_cell_length_b   5.36704400
_cell_length_c   6.37945505
_cell_angle_alpha   114.87567340
_cell_angle_beta   114.87567340
_cell_angle_gamma   90.00000000
_symmetry_Int_Tables_number   1
_chemical_formula_structural   Co5B2P
_chemical_formula_sum   'Co10 B4 P2'
_cell_volume   147.70860397
_cell_formula_units_Z   2
loop_
 _symmetry_equiv_pos_site_id
 _symmetry_equiv_pos_as_xyz
  1  'x, y, z'
loop_
 _atom_site_type_symbol
 _atom_site_label
 _atom_site_symmetry_multiplicity
 _atom_site_fract_x
 _atom_site_fract_y
 _atom_site_fract_z
 _atom_site_occupancy
  Co  Co0  1  0.50000000  0.50000000  0.00000000  1
  Co  Co1  1  0.00000000  0.00000000  0.00000000  1
  Co  Co2  1  0.03050100  0.53050100  0.72032300  1
  Co  Co3  1  0.68982100  0.18982100  0.72032300  1
  Co  Co4  1  0.18982100  0.03050100  0.72032300  1
  Co  Co5  1  0.53050100  0.68982100  0.72032300  1
  Co  Co6  1  0.96949900  0.46949900  0.27967700  1
  Co  Co7  1  0.31017900  0.81017900  0.27967700  1
  Co  Co8  1  0.81017900  0.96949900  0.27967700  1
  Co  Co9  1  0.46949900  0.31017900  0.27967700  1
  B  B0  1  0.37796800  0.87796800  0.00000000  1
  B  B1  1  0.62203200  0.12203200  0.00000000  1
  B  B2  1  0.12203200  0.37796800  0.00000000  1
  B  B3  1  0.87796800  0.62203200  0.00000000  1
  P  P0  1  0.25000000  0.25000000  0.50000000  1
  P  P1  1  0.75000000  0.75000000  0.50000000  1
loop_
_geom_bond_atom_site_label_1
_geom_bond_atom_site_label_2
_geom_bond_distance
_geom_bond_site_symmetry_2
Co0 P0 2.563926 1_554
Co0 P1 2.563926 1_555
Co1 P1 2.563926 1_444
Co1 P0 2.563926 1_555
Co2 P1 2.289681 1_455
Co2 P0 2.289681 1_555
Co3 P1 2.289679 1_545
Co3 P0 2.289679 1_555
Co4 P1 2.289677 1_445
Co4 P0 2.289683 1_555
Co5 P0 2.289677 1_555
Co5 P1 2.289683 1_555
Co6 P1 2.289681 1_555
Co6 P0 2.289681 1_655
Co7 P0 2.289679 1_565
Co7 P1 2.289679 1_555
Co8 P0 2.289677 1_665
Co8 P1 2.289683 1_555
Co9 P1 2.289677 1_555
Co9 P0 2.289683 1_555
B0 B1 1.852481 1_565
B0 Co7 2.130797 1_555
B0 Co2 2.130803 1_554
B0 Co1 2.131680 1_565
B0 Co0 2.131680 1_555
B0 Co5 2.141561 1_554
B0 Co4 2.141561 1_564
B0 Co8 2.141564 1_555
B0 Co9 2.141564 1_565
B1 Co3 2.130797 1_554
B1 Co6 2.130803 1_555
B1 Co1 2.131680 1_655
B1 Co0 2.131680 1_555
B1 Co8 2.141561 1_545
B1 Co9 2.141561 1_555
B1 Co5 2.141564 1_544
B1 Co4 2.141564 1_554
B2 B3 1.852481 1_455
B2 Co4 2.130800 1_554
B2 Co9 2.130800 1_555
B2 Co1 2.131680 1_555
B2 Co0 2.131680 1_555
B2 Co2 2.141560 1_554
B2 Co6 2.141560 1_455
B2 Co7 2.141565 1_555
B2 Co3 2.141565 1_454
B3 Co8 2.130800 1_555
B3 Co5 2.130800 1_554
B3 Co0 2.131680 1_555
B3 Co1 2.131680 1_665
B3 Co6 2.141560 1_555
B3 Co2 2.141560 1_654
B3 Co7 2.141565 1_655
B3 Co3 2.141565 1_554
