# generated using pymatgen
data_Mn2Pt2O5
_symmetry_space_group_name_H-M   'P 1'
_cell_length_a   3.56281600
_cell_length_b   3.56281600
_cell_length_c   8.68480700
_cell_angle_alpha   90.00000000
_cell_angle_beta   90.00000000
_cell_angle_gamma   90.00000000
_symmetry_Int_Tables_number   1
_chemical_formula_structural   Mn2Pt2O5
_chemical_formula_sum   'Mn2 Pt2 O5'
_cell_volume   110.24196855
_cell_formula_units_Z   1
loop_
 _symmetry_equiv_pos_site_id
 _symmetry_equiv_pos_as_xyz
  1  'x, y, z'
loop_
 _atom_site_type_symbol
 _atom_site_label
 _atom_site_symmetry_multiplicity
 _atom_site_fract_x
 _atom_site_fract_y
 _atom_site_fract_z
 _atom_site_occupancy
  Mn  Mn0  1  0.50000000  0.50000000  0.26352100  1
  Mn  Mn1  1  0.50000000  0.50000000  0.73647900  1
  Pt  Pt0  1  0.00000000  0.00000000  0.00000000  1
  Pt  Pt1  1  0.00000000  0.00000000  0.50000000  1
  O  O0  1  0.50000000  0.00000000  0.13973800  1
  O  O1  1  0.50000000  0.00000000  0.86026200  1
  O  O2  1  0.50000000  0.50000000  0.50000000  1
  O  O3  1  0.00000000  0.50000000  0.13973800  1
  O  O4  1  0.00000000  0.50000000  0.86026200  1
loop_
_geom_bond_atom_site_label_1
_geom_bond_atom_site_label_2
_geom_bond_distance
_geom_bond_site_symmetry_2
Mn0 O2 2.053774 1_555
Mn0 O0 2.080651 1_565
Mn0 O3 2.080651 1_655
Mn0 O3 2.080651 1_555
Mn0 O0 2.080651 1_555
Mn1 O2 2.053774 1_555
Mn1 O4 2.080651 1_555
Mn1 O1 2.080651 1_555
Mn1 O4 2.080651 1_655
Mn1 O1 2.080651 1_565
O0 Pt0 2.155512 1_555
O0 Pt0 2.155512 1_655
O1 Pt0 2.155512 1_556
O1 Pt0 2.155512 1_656
O2 Pt1 2.519291 1_665
O2 Pt1 2.519291 1_555
O2 Pt1 2.519291 1_655
O2 Pt1 2.519291 1_565
O3 Pt0 2.155512 1_555
O3 Pt0 2.155512 1_565
O4 Pt0 2.155512 1_566
O4 Pt0 2.155512 1_556
