# generated using pymatgen
data_PuB2Rh3
_symmetry_space_group_name_H-M   'P 1'
_cell_length_a   5.79253459
_cell_length_b   11.24043564
_cell_length_c   11.24144165
_cell_angle_alpha   120.00114986
_cell_angle_beta   90.00030813
_cell_angle_gamma   90.00036141
_symmetry_Int_Tables_number   1
_chemical_formula_structural   PuB2Rh3
_chemical_formula_sum   'Pu8 B16 Rh24'
_cell_volume   633.86882028
_cell_formula_units_Z   8
loop_
 _symmetry_equiv_pos_site_id
 _symmetry_equiv_pos_as_xyz
  1  'x, y, z'
loop_
 _atom_site_type_symbol
 _atom_site_label
 _atom_site_symmetry_multiplicity
 _atom_site_fract_x
 _atom_site_fract_y
 _atom_site_fract_z
 _atom_site_occupancy
  Pu  Pu0_0  1  0.25000000  0.25000000  0.25000000  1
  Pu  Pu0_1  1  0.25000000  0.25000000  0.75000000  1
  Pu  Pu0_2  1  0.25000000  0.75000000  0.25000000  1
  Pu  Pu0_3  1  0.25000000  0.75000000  0.75000000  1
  Pu  Pu0_4  1  0.75000000  0.25000000  0.25000000  1
  Pu  Pu0_5  1  0.75000000  0.25000000  0.75000000  1
  Pu  Pu0_6  1  0.75000000  0.75000000  0.25000000  1
  Pu  Pu0_7  1  0.75000000  0.75000000  0.75000000  1
  B  B0_0  1  0.24999999  0.41657847  0.08329711  1
  B  B0_1  1  0.24999999  0.41657847  0.58329711  1
  B  B0_2  1  0.24999999  0.91657847  0.08329711  1
  B  B0_3  1  0.24999999  0.91657847  0.58329711  1
  B  B0_4  1  0.74999999  0.41657847  0.08329711  1
  B  B0_5  1  0.74999999  0.41657847  0.58329711  1
  B  B0_6  1  0.74999999  0.91657847  0.08329711  1
  B  B0_7  1  0.74999999  0.91657847  0.58329711  1
  B  B1_0  1  0.25000001  0.08342153  0.41670289  1
  B  B1_1  1  0.25000001  0.08342153  0.91670289  1
  B  B1_2  1  0.25000001  0.58342153  0.41670289  1
  B  B1_3  1  0.25000001  0.58342153  0.91670289  1
  B  B1_4  1  0.75000001  0.08342153  0.41670289  1
  B  B1_5  1  0.75000001  0.08342153  0.91670289  1
  B  B1_6  1  0.75000001  0.58342153  0.41670289  1
  B  B1_7  1  0.75000001  0.58342153  0.91670289  1
  Rh  Rh0_0  1  0.00000000  0.25000000  0.00000000  1
  Rh  Rh0_1  1  0.00000000  0.25000000  0.50000000  1
  Rh  Rh0_2  1  0.00000000  0.75000000  0.00000000  1
  Rh  Rh0_3  1  0.00000000  0.75000000  0.50000000  1
  Rh  Rh0_4  1  0.50000000  0.25000000  0.00000000  1
  Rh  Rh0_5  1  0.50000000  0.25000000  0.50000000  1
  Rh  Rh0_6  1  0.50000000  0.75000000  0.00000000  1
  Rh  Rh0_7  1  0.50000000  0.75000000  0.50000000  1
  Rh  Rh1_0  1  0.00000000  0.00000000  0.25000000  1
  Rh  Rh1_1  1  0.00000000  0.00000000  0.75000000  1
  Rh  Rh1_2  1  0.00000000  0.50000000  0.25000000  1
  Rh  Rh1_3  1  0.00000000  0.50000000  0.75000000  1
  Rh  Rh1_4  1  0.50000000  0.00000000  0.25000000  1
  Rh  Rh1_5  1  0.50000000  0.00000000  0.75000000  1
  Rh  Rh1_6  1  0.50000000  0.50000000  0.25000000  1
  Rh  Rh1_7  1  0.50000000  0.50000000  0.75000000  1
  Rh  Rh2_0  1  0.00000000  0.00000000  0.00000000  1
  Rh  Rh2_1  1  0.00000000  0.00000000  0.50000000  1
  Rh  Rh2_2  1  0.00000000  0.50000000  0.00000000  1
  Rh  Rh2_3  1  0.00000000  0.50000000  0.50000000  1
  Rh  Rh2_4  1  0.50000000  0.00000000  0.00000000  1
  Rh  Rh2_5  1  0.50000000  0.00000000  0.50000000  1
  Rh  Rh2_6  1  0.50000000  0.50000000  0.00000000  1
  Rh  Rh2_7  1  0.50000000  0.50000000  0.50000000  1
loop_
_geom_bond_atom_site_label_1
_geom_bond_atom_site_label_2
_geom_bond_distance
_geom_bond_site_symmetry_2
Pu0_0 Pu0_4 2.896267 1_555
Pu0_0 Pu0_4 2.896267 1_455
Pu0_0 Rh1_0 3.161290 1_555
Pu0_0 Rh1_6 3.161290 1_555
Pu0_0 Rh1_4 3.161306 1_555
Pu0_0 Rh1_2 3.161306 1_555
Pu0_0 Rh2_7 3.161351 1_555
Pu0_0 Rh2_0 3.161351 1_555
Pu0_0 Rh2_4 3.161381 1_555
Pu0_0 Rh2_3 3.161381 1_555
Pu0_0 Rh0_5 3.161514 1_555
Pu0_0 Rh0_0 3.161514 1_555
Pu0_0 Rh0_1 3.161528 1_555
Pu0_0 Rh0_4 3.161528 1_555
Pu0_1 Pu0_5 2.896267 1_555
Pu0_1 Pu0_5 2.896267 1_455
Pu0_1 Rh1_1 3.161290 1_555
Pu0_1 Rh1_7 3.161290 1_555
Pu0_1 Rh1_3 3.161306 1_555
Pu0_1 Rh1_5 3.161306 1_555
Pu0_1 Rh2_6 3.161351 1_556
Pu0_1 Rh2_1 3.161351 1_555
Pu0_1 Rh2_2 3.161381 1_556
Pu0_1 Rh2_5 3.161381 1_555
Pu0_1 Rh0_4 3.161514 1_556
Pu0_1 Rh0_1 3.161514 1_555
Pu0_1 Rh0_0 3.161528 1_556
Pu0_1 Rh0_5 3.161528 1_555
Pu0_2 Pu0_6 2.896267 1_455
Pu0_2 Pu0_6 2.896267 1_555
Pu0_2 Rh1_4 3.161290 1_565
Pu0_2 Rh1_2 3.161290 1_555
Pu0_2 Rh1_0 3.161306 1_565
Pu0_2 Rh1_6 3.161306 1_555
Pu0_2 Rh2_5 3.161351 1_565
Pu0_2 Rh2_2 3.161351 1_555
Pu0_2 Rh2_1 3.161381 1_565
Pu0_2 Rh2_6 3.161381 1_555
Pu0_2 Rh0_2 3.161514 1_555
Pu0_2 Rh0_7 3.161514 1_555
Pu0_2 Rh0_3 3.161528 1_555
Pu0_2 Rh0_6 3.161528 1_555
Pu0_3 Pu0_7 2.896267 1_555
Pu0_3 Pu0_7 2.896267 1_455
Pu0_3 Rh1_5 3.161290 1_565
Pu0_3 Rh1_3 3.161290 1_555
Pu0_3 Rh1_1 3.161306 1_565
Pu0_3 Rh1_7 3.161306 1_555
Pu0_3 Rh2_4 3.161351 1_566
Pu0_3 Rh2_3 3.161351 1_555
Pu0_3 Rh2_0 3.161381 1_566
Pu0_3 Rh2_7 3.161381 1_555
Pu0_3 Rh0_6 3.161514 1_556
Pu0_3 Rh0_3 3.161514 1_555
Pu0_3 Rh0_2 3.161528 1_556
Pu0_3 Rh0_7 3.161528 1_555
Pu0_4 Rh1_2 3.161290 1_655
Pu0_4 Rh1_4 3.161290 1_555
Pu0_4 Rh1_6 3.161306 1_555
Pu0_4 Rh1_0 3.161306 1_655
Pu0_4 Rh2_3 3.161351 1_655
Pu0_4 Rh2_4 3.161351 1_555
Pu0_4 Rh2_7 3.161381 1_555
Pu0_4 Rh2_0 3.161381 1_655
Pu0_4 Rh0_4 3.161514 1_555
Pu0_4 Rh0_1 3.161514 1_655
Pu0_4 Rh0_5 3.161528 1_555
Pu0_4 Rh0_0 3.161528 1_655
Pu0_5 Rh1_3 3.161290 1_655
Pu0_5 Rh1_5 3.161290 1_555
Pu0_5 Rh1_7 3.161306 1_555
Pu0_5 Rh1_1 3.161306 1_655
Pu0_5 Rh2_2 3.161351 1_656
Pu0_5 Rh2_5 3.161351 1_555
Pu0_5 Rh2_6 3.161381 1_556
Pu0_5 Rh2_1 3.161381 1_655
Pu0_5 Rh0_0 3.161514 1_656
Pu0_5 Rh0_5 3.161514 1_555
Pu0_5 Rh0_4 3.161528 1_556
Pu0_5 Rh0_1 3.161528 1_655
Pu0_6 Rh1_0 3.161290 1_665
Pu0_6 Rh1_6 3.161290 1_555
Pu0_6 Rh1_4 3.161306 1_565
Pu0_6 Rh1_2 3.161306 1_655
Pu0_6 Rh2_1 3.161351 1_665
Pu0_6 Rh2_6 3.161351 1_555
Pu0_6 Rh2_5 3.161381 1_565
Pu0_6 Rh2_2 3.161381 1_655
Pu0_6 Rh0_3 3.161514 1_655
Pu0_6 Rh0_6 3.161514 1_555
Pu0_6 Rh0_2 3.161528 1_655
Pu0_6 Rh0_7 3.161528 1_555
Pu0_7 Rh1_1 3.161290 1_665
Pu0_7 Rh1_7 3.161290 1_555
Pu0_7 Rh1_5 3.161306 1_565
Pu0_7 Rh1_3 3.161306 1_655
Pu0_7 Rh2_0 3.161351 1_666
Pu0_7 Rh2_7 3.161351 1_555
Pu0_7 Rh2_4 3.161381 1_566
Pu0_7 Rh2_3 3.161381 1_655
Pu0_7 Rh0_7 3.161514 1_555
Pu0_7 Rh0_2 3.161514 1_656
Pu0_7 Rh0_6 3.161528 1_556
Pu0_7 Rh0_3 3.161528 1_655
B0_0 Rh0_0 2.174036 1_555
B0_0 Rh0_4 2.174059 1_555
B0_0 Rh1_6 2.175049 1_555
B0_0 Rh1_2 2.175070 1_555
B0_0 Rh2_6 2.175140 1_555
B0_0 Rh2_2 2.175141 1_555
B0_0 Pu0_0 3.244492 1_555
B0_0 Pu0_1 3.244735 1_554
B0_0 Pu0_2 3.245655 1_555
B0_1 Rh0_1 2.174036 1_555
B0_1 Rh0_5 2.174059 1_555
B0_1 Rh1_7 2.175049 1_555
B0_1 Rh1_3 2.175070 1_555
B0_1 Rh2_7 2.175140 1_555
B0_1 Rh2_3 2.175141 1_555
B0_1 Pu0_1 3.244492 1_555
B0_1 Pu0_0 3.244735 1_555
B0_1 Pu0_3 3.245655 1_555
B0_2 Rh0_2 2.174036 1_555
B0_2 Rh0_6 2.174059 1_555
B0_2 Rh1_4 2.175049 1_565
B0_2 Rh1_0 2.175070 1_565
B0_2 Rh2_4 2.175140 1_565
B0_2 Rh2_0 2.175141 1_565
B0_2 Pu0_2 3.244492 1_555
B0_2 Pu0_3 3.244735 1_554
B0_2 Pu0_0 3.245655 1_565
B0_3 Rh0_3 2.174036 1_555
B0_3 Rh0_7 2.174059 1_555
B0_3 Rh1_5 2.175049 1_565
B0_3 Rh1_1 2.175070 1_565
B0_3 Rh2_5 2.175140 1_565
B0_3 Rh2_1 2.175141 1_565
B0_3 Pu0_3 3.244492 1_555
B0_3 Pu0_2 3.244735 1_555
B0_3 Pu0_1 3.245655 1_565
B0_4 Rh0_4 2.174036 1_555
B0_4 Rh0_0 2.174059 1_655
B0_4 Rh1_2 2.175049 1_655
B0_4 Rh1_6 2.175070 1_555
B0_4 Rh2_2 2.175140 1_655
B0_4 Rh2_6 2.175141 1_555
B0_4 Pu0_4 3.244492 1_555
B0_4 Pu0_5 3.244735 1_554
B0_4 Pu0_6 3.245655 1_555
B0_5 Rh0_5 2.174036 1_555
B0_5 Rh0_1 2.174059 1_655
B0_5 Rh1_3 2.175049 1_655
B0_5 Rh1_7 2.175070 1_555
B0_5 Rh2_3 2.175140 1_655
B0_5 Rh2_7 2.175141 1_555
B0_5 Pu0_5 3.244492 1_555
B0_5 Pu0_4 3.244735 1_555
B0_5 Pu0_7 3.245655 1_555
B0_6 Rh0_6 2.174036 1_555
B0_6 Rh0_2 2.174059 1_655
B0_6 Rh1_0 2.175049 1_665
B0_6 Rh1_4 2.175070 1_565
B0_6 Rh2_0 2.175140 1_665
B0_6 Rh2_4 2.175141 1_565
B0_6 Pu0_6 3.244492 1_555
B0_6 Pu0_7 3.244735 1_554
B0_6 Pu0_4 3.245655 1_565
B0_7 Rh0_7 2.174036 1_555
B0_7 Rh0_3 2.174059 1_655
B0_7 Rh1_1 2.175049 1_665
B0_7 Rh1_5 2.175070 1_565
B0_7 Rh2_1 2.175140 1_665
B0_7 Rh2_5 2.175141 1_565
B0_7 Pu0_7 3.244492 1_555
B0_7 Pu0_6 3.244735 1_555
B0_7 Pu0_5 3.245655 1_565
B1_0 Rh0_5 2.174036 1_555
B1_0 Rh0_1 2.174059 1_555
B1_0 Rh1_0 2.175049 1_555
B1_0 Rh1_4 2.175070 1_555
B1_0 Rh2_1 2.175140 1_555
B1_0 Rh2_5 2.175141 1_555
B1_0 Pu0_0 3.244492 1_555
B1_0 Pu0_1 3.244735 1_555
B1_0 Pu0_2 3.245655 1_545
B1_1 Rh0_4 2.174036 1_556
B1_1 Rh0_0 2.174059 1_556
B1_1 Rh1_1 2.175049 1_555
B1_1 Rh1_5 2.175070 1_555
B1_1 Rh2_0 2.175140 1_556
B1_1 Rh2_4 2.175141 1_556
B1_1 Pu0_1 3.244492 1_555
B1_1 Pu0_0 3.244735 1_556
B1_1 Pu0_3 3.245655 1_545
B1_2 Rh0_7 2.174036 1_555
B1_2 Rh0_3 2.174059 1_555
B1_2 Rh1_2 2.175049 1_555
B1_2 Rh1_6 2.175070 1_555
B1_2 Rh2_3 2.175140 1_555
B1_2 Rh2_7 2.175141 1_555
B1_2 Pu0_2 3.244492 1_555
B1_2 Pu0_3 3.244735 1_555
B1_2 Pu0_0 3.245655 1_555
B1_3 Rh0_6 2.174036 1_556
B1_3 Rh0_2 2.174059 1_556
B1_3 Rh1_3 2.175049 1_555
B1_3 Rh1_7 2.175070 1_555
B1_3 Rh2_2 2.175140 1_556
B1_3 Rh2_6 2.175141 1_556
B1_3 Pu0_3 3.244492 1_555
B1_3 Pu0_2 3.244735 1_556
B1_3 Pu0_1 3.245655 1_555
B1_4 Rh0_1 2.174036 1_655
B1_4 Rh0_5 2.174059 1_555
B1_4 Rh1_4 2.175049 1_555
B1_4 Rh1_0 2.175070 1_655
B1_4 Rh2_5 2.175140 1_555
B1_4 Rh2_1 2.175141 1_655
B1_4 Pu0_4 3.244492 1_555
B1_4 Pu0_5 3.244735 1_555
B1_4 Pu0_6 3.245655 1_545
B1_5 Rh0_0 2.174036 1_656
B1_5 Rh0_4 2.174059 1_556
B1_5 Rh1_5 2.175049 1_555
B1_5 Rh1_1 2.175070 1_655
B1_5 Rh2_4 2.175140 1_556
B1_5 Rh2_0 2.175141 1_656
B1_5 Pu0_5 3.244492 1_555
B1_5 Pu0_4 3.244735 1_556
B1_5 Pu0_7 3.245655 1_545
B1_6 Rh0_3 2.174036 1_655
B1_6 Rh0_7 2.174059 1_555
B1_6 Rh1_6 2.175049 1_555
B1_6 Rh1_2 2.175070 1_655
B1_6 Rh2_7 2.175140 1_555
B1_6 Rh2_3 2.175141 1_655
B1_6 Pu0_6 3.244492 1_555
B1_6 Pu0_7 3.244735 1_555
B1_6 Pu0_4 3.245655 1_555
B1_7 Rh0_2 2.174036 1_656
B1_7 Rh0_6 2.174059 1_556
B1_7 Rh1_7 2.175049 1_555
B1_7 Rh1_3 2.175070 1_655
B1_7 Rh2_6 2.175140 1_556
B1_7 Rh2_2 2.175141 1_656
B1_7 Pu0_7 3.244492 1_555
B1_7 Pu0_6 3.244735 1_556
B1_7 Pu0_5 3.245655 1_555
