# generated using pymatgen
data_KLu(CO3)2
_symmetry_space_group_name_H-M   'P 1'
_cell_length_a   6.32374371
_cell_length_b   6.32374371
_cell_length_c   6.86245442
_cell_angle_alpha   76.27405687
_cell_angle_beta   76.27405687
_cell_angle_gamma   96.01366562
_symmetry_Int_Tables_number   1
_chemical_formula_structural   KLu(CO3)2
_chemical_formula_sum   'K2 Lu2 C4 O12'
_cell_volume   255.17730528
_cell_formula_units_Z   2
loop_
 _symmetry_equiv_pos_site_id
 _symmetry_equiv_pos_as_xyz
  1  'x, y, z'
loop_
 _atom_site_type_symbol
 _atom_site_label
 _atom_site_symmetry_multiplicity
 _atom_site_fract_x
 _atom_site_fract_y
 _atom_site_fract_z
 _atom_site_occupancy
  K  K0  1  0.62031800  0.37968200  0.75000000  1
  K  K1  1  0.37968200  0.62031800  0.25000000  1
  Lu  Lu0  1  0.09547900  0.90452100  0.75000000  1
  Lu  Lu1  1  0.90452100  0.09547900  0.25000000  1
  C  C0  1  0.64567200  0.89052200  0.75595100  1
  C  C1  1  0.35432800  0.10947800  0.24404900  1
  C  C2  1  0.10947800  0.35432800  0.74404900  1
  C  C3  1  0.89052200  0.64567200  0.25595100  1
  O  O0  1  0.43974700  0.89528000  0.77878700  1
  O  O1  1  0.56025300  0.10472000  0.22121300  1
  O  O2  1  0.10472000  0.56025300  0.72121300  1
  O  O3  1  0.89528000  0.43974700  0.27878700  1
  O  O4  1  0.71865700  0.75011300  0.88350700  1
  O  O5  1  0.28134300  0.24988700  0.11649300  1
  O  O6  1  0.24988700  0.28134300  0.61649300  1
  O  O7  1  0.75011300  0.71865700  0.38350700  1
  O  O8  1  0.79898300  0.03468100  0.60434800  1
  O  O9  1  0.20101700  0.96531900  0.39565200  1
  O  O10  1  0.96531900  0.20101700  0.89565200  1
  O  O11  1  0.03468100  0.79898300  0.10434800  1
loop_
_geom_bond_atom_site_label_1
_geom_bond_atom_site_label_2
_geom_bond_distance
_geom_bond_site_symmetry_2
K0 O5 2.772613 1_556
K0 O7 2.772613 1_555
K0 O6 2.774365 1_555
K0 O4 2.774365 1_555
K0 O8 2.837394 1_555
K0 O10 2.837394 1_555
K1 O6 2.772613 1_555
K1 O4 2.772613 1_554
K1 O5 2.774365 1_555
K1 O7 2.774365 1_555
K1 O11 2.837394 1_555
K1 O9 2.837394 1_555
Lu0 O2 2.237703 1_555
Lu0 O0 2.237703 1_555
Lu0 O11 2.288841 1_556
Lu0 O9 2.288841 1_555
Lu0 O4 2.350115 1_455
Lu0 O6 2.350115 1_565
Lu0 O8 2.452416 1_465
Lu0 O10 2.452416 1_465
Lu1 O1 2.237703 1_555
Lu1 O3 2.237703 1_555
Lu1 O8 2.288841 1_555
Lu1 O10 2.288841 1_554
Lu1 O7 2.350115 1_545
Lu1 O5 2.350115 1_655
Lu1 O11 2.452416 1_645
Lu1 O9 2.452416 1_645
C0 O0 1.278607 1_555
C0 O4 1.294754 1_555
C0 O8 1.318875 1_565
C1 O1 1.278607 1_555
C1 O5 1.294754 1_555
C1 O9 1.318875 1_545
C2 O2 1.278607 1_555
C2 O6 1.294754 1_555
C2 O10 1.318875 1_455
C3 O3 1.278607 1_555
C3 O7 1.294754 1_555
C3 O11 1.318875 1_655
