# generated using pymatgen
data_K7Nb(SO4)6
_symmetry_space_group_name_H-M   'P 1'
_cell_length_a   9.46463485
_cell_length_b   9.46463485
_cell_length_c   9.46463507
_cell_angle_alpha   109.44686849
_cell_angle_beta   109.44686849
_cell_angle_gamma   109.44687765
_symmetry_Int_Tables_number   1
_chemical_formula_structural   K7Nb(SO4)6
_chemical_formula_sum   'K7 Nb1 S6 O24'
_cell_volume   653.25179168
_cell_formula_units_Z   1
loop_
 _symmetry_equiv_pos_site_id
 _symmetry_equiv_pos_as_xyz
  1  'x, y, z'
loop_
 _atom_site_type_symbol
 _atom_site_label
 _atom_site_symmetry_multiplicity
 _atom_site_fract_x
 _atom_site_fract_y
 _atom_site_fract_z
 _atom_site_occupancy
  K  K0  1  0.50000000  0.50000000  0.50000000  1
  K  K1  1  0.83748900  0.33518600  0.67771500  1
  K  K2  1  0.33518600  0.67771500  0.83748900  1
  K  K3  1  0.67771500  0.83748900  0.33518600  1
  K  K4  1  0.16251100  0.66481400  0.32228500  1
  K  K5  1  0.66481400  0.32228500  0.16251100  1
  K  K6  1  0.32228500  0.16251100  0.66481400  1
  Nb  Nb0  1  0.00000000  0.00000000  0.00000000  1
  S  S0  1  0.96815300  0.74474600  0.61752500  1
  S  S1  1  0.74474600  0.61752500  0.96815300  1
  S  S2  1  0.61752500  0.96815300  0.74474600  1
  S  S3  1  0.03184700  0.25525400  0.38247500  1
  S  S4  1  0.25525400  0.38247500  0.03184700  1
  S  S5  1  0.38247500  0.03184700  0.25525400  1
  O  O0  1  0.42779300  0.90977000  0.16635100  1
  O  O1  1  0.90977000  0.16635100  0.42779300  1
  O  O2  1  0.16635100  0.42779300  0.90977000  1
  O  O3  1  0.57220700  0.09023000  0.83364900  1
  O  O4  1  0.09023000  0.83364900  0.57220700  1
  O  O5  1  0.83364900  0.57220700  0.09023000  1
  O  O6  1  0.31419800  0.98496200  0.36091700  1
  O  O7  1  0.98496200  0.36091700  0.31419800  1
  O  O8  1  0.36091700  0.31419800  0.98496200  1
  O  O9  1  0.68580200  0.01503800  0.63908300  1
  O  O10  1  0.01503800  0.63908300  0.68580200  1
  O  O11  1  0.63908300  0.68580200  0.01503800  1
  O  O12  1  0.76690000  0.97772000  0.89231100  1
  O  O13  1  0.97772000  0.89231100  0.76690000  1
  O  O14  1  0.64745100  0.47537400  0.78734300  1
  O  O15  1  0.78734300  0.64745100  0.47537400  1
  O  O16  1  0.47537400  0.78734300  0.64745100  1
  O  O17  1  0.35254900  0.52462600  0.21265700  1
  O  O18  1  0.21265700  0.35254900  0.52462600  1
  O  O19  1  0.52462600  0.21265700  0.35254900  1
  O  O20  1  0.10768900  0.23310000  0.02228000  1
  O  O21  1  0.02228000  0.10768900  0.23310000  1
  O  O22  1  0.23310000  0.02228000  0.10768900  1
  O  O23  1  0.89231100  0.76690000  0.97772000  1
loop_
_geom_bond_atom_site_label_1
_geom_bond_atom_site_label_2
_geom_bond_distance
_geom_bond_site_symmetry_2
K0 O18 2.740363 1_555
K0 O15 2.740363 1_555
K0 O16 2.740363 1_555
K0 O19 2.740363 1_555
K0 O14 2.740364 1_555
K0 O17 2.740364 1_555
K1 O9 2.718885 1_555
K1 O2 2.762192 1_655
K1 O10 2.766234 1_655
K1 O1 2.811630 1_555
K1 O14 2.826167 1_555
K1 O19 2.975481 1_555
K2 O10 2.718886 1_555
K2 O0 2.762192 1_556
K2 O11 2.766234 1_556
K2 O2 2.811630 1_555
K2 O16 2.826167 1_555
K2 O18 2.975481 1_555
K3 O11 2.718886 1_555
K3 O1 2.762192 1_565
K3 O9 2.766234 1_565
K3 O0 2.811630 1_555
K3 O15 2.826167 1_555
K3 O17 2.975481 1_555
K4 O6 2.718885 1_555
K4 O5 2.762192 1_455
K4 O7 2.766234 1_455
K4 O4 2.811630 1_555
K4 O17 2.826167 1_555
K4 O16 2.975481 1_555
K5 O7 2.718886 1_555
K5 O3 2.762192 1_554
K5 O8 2.766234 1_554
K5 O5 2.811630 1_555
K5 O19 2.826167 1_555
K5 O15 2.975481 1_555
K6 O8 2.718886 1_555
K6 O4 2.762192 1_545
K6 O6 2.766234 1_545
K6 O3 2.811630 1_555
K6 O18 2.826167 1_555
K6 O14 2.975481 1_555
Nb0 O23 2.000117 1_444
Nb0 O20 2.000117 1_555
Nb0 O22 2.000117 1_555
Nb0 O12 2.000117 1_444
Nb0 O13 2.000117 1_444
Nb0 O21 2.000117 1_555
O0 S5 1.466257 1_565
O1 S3 1.466257 1_655
O2 S4 1.466257 1_556
O3 S2 1.466257 1_545
O4 S0 1.466257 1_455
O5 S1 1.466257 1_554
O6 S5 1.466119 1_565
O7 S3 1.466119 1_655
O8 S4 1.466119 1_556
O9 S2 1.466119 1_545
O10 S0 1.466119 1_455
O11 S1 1.466119 1_554
O12 S2 1.572694 1_555
O13 S0 1.572694 1_555
O14 S1 1.476242 1_555
O15 S0 1.476242 1_555
O16 S2 1.476242 1_555
O17 S4 1.476242 1_555
O18 S3 1.476242 1_555
O19 S5 1.476242 1_555
O20 S4 1.572693 1_555
O21 S3 1.572694 1_555
O22 S5 1.572694 1_555
O23 S1 1.572693 1_555
