# generated using pymatgen
data_Tb2(GeIr)3
_symmetry_space_group_name_H-M   'P 1'
_cell_length_a   5.57438400
_cell_length_b   5.57438400
_cell_length_c   42.46339400
_cell_angle_alpha   90.00000000
_cell_angle_beta   90.00000000
_cell_angle_gamma   90.00000000
_symmetry_Int_Tables_number   1
_chemical_formula_structural   Tb2(GeIr)3
_chemical_formula_sum   'Tb16 Ge24 Ir24'
_cell_volume   1319.49718568
_cell_formula_units_Z   8
loop_
 _symmetry_equiv_pos_site_id
 _symmetry_equiv_pos_as_xyz
  1  'x, y, z'
loop_
 _atom_site_type_symbol
 _atom_site_label
 _atom_site_symmetry_multiplicity
 _atom_site_fract_x
 _atom_site_fract_y
 _atom_site_fract_z
 _atom_site_occupancy
  Tb  Tb0_0  1  0.25000000  0.25000000  0.37875850  1
  Tb  Tb0_1  1  0.25000000  0.25000000  0.87875850  1
  Tb  Tb0_2  1  0.25000000  0.75000000  0.37875850  1
  Tb  Tb0_3  1  0.25000000  0.75000000  0.87875850  1
  Tb  Tb0_4  1  0.75000000  0.25000000  0.37875850  1
  Tb  Tb0_5  1  0.75000000  0.25000000  0.87875850  1
  Tb  Tb0_6  1  0.75000000  0.75000000  0.37875850  1
  Tb  Tb0_7  1  0.75000000  0.75000000  0.87875850  1
  Tb  Tb1_0  1  0.25000000  0.25000000  0.12124150  1
  Tb  Tb1_1  1  0.25000000  0.25000000  0.62124150  1
  Tb  Tb1_2  1  0.25000000  0.75000000  0.12124150  1
  Tb  Tb1_3  1  0.25000000  0.75000000  0.62124150  1
  Tb  Tb1_4  1  0.75000000  0.25000000  0.12124150  1
  Tb  Tb1_5  1  0.75000000  0.25000000  0.62124150  1
  Tb  Tb1_6  1  0.75000000  0.75000000  0.12124150  1
  Tb  Tb1_7  1  0.75000000  0.75000000  0.62124150  1
  Ge  Ge0_0  1  0.25000000  0.25000000  0.19367250  1
  Ge  Ge0_1  1  0.25000000  0.25000000  0.69367250  1
  Ge  Ge0_2  1  0.25000000  0.75000000  0.19367250  1
  Ge  Ge0_3  1  0.25000000  0.75000000  0.69367250  1
  Ge  Ge0_4  1  0.75000000  0.25000000  0.19367250  1
  Ge  Ge0_5  1  0.75000000  0.25000000  0.69367250  1
  Ge  Ge0_6  1  0.75000000  0.75000000  0.19367250  1
  Ge  Ge0_7  1  0.75000000  0.75000000  0.69367250  1
  Ge  Ge1_0  1  0.25000000  0.25000000  0.30632750  1
  Ge  Ge1_1  1  0.25000000  0.25000000  0.80632750  1
  Ge  Ge1_2  1  0.25000000  0.75000000  0.30632750  1
  Ge  Ge1_3  1  0.25000000  0.75000000  0.80632750  1
  Ge  Ge1_4  1  0.75000000  0.25000000  0.30632750  1
  Ge  Ge1_5  1  0.75000000  0.25000000  0.80632750  1
  Ge  Ge1_6  1  0.75000000  0.75000000  0.30632750  1
  Ge  Ge1_7  1  0.75000000  0.75000000  0.80632750  1
  Ge  Ge2_0  1  0.25000000  0.25000000  0.00000000  1
  Ge  Ge2_1  1  0.25000000  0.25000000  0.50000000  1
  Ge  Ge2_2  1  0.25000000  0.75000000  0.00000000  1
  Ge  Ge2_3  1  0.25000000  0.75000000  0.50000000  1
  Ge  Ge2_4  1  0.75000000  0.25000000  0.00000000  1
  Ge  Ge2_5  1  0.75000000  0.25000000  0.50000000  1
  Ge  Ge2_6  1  0.75000000  0.75000000  0.00000000  1
  Ge  Ge2_7  1  0.75000000  0.75000000  0.50000000  1
  Ir  Ir0_0  1  0.25000000  0.25000000  0.05909350  1
  Ir  Ir0_1  1  0.25000000  0.25000000  0.55909350  1
  Ir  Ir0_2  1  0.25000000  0.75000000  0.05909350  1
  Ir  Ir0_3  1  0.25000000  0.75000000  0.55909350  1
  Ir  Ir0_4  1  0.75000000  0.25000000  0.05909350  1
  Ir  Ir0_5  1  0.75000000  0.25000000  0.55909350  1
  Ir  Ir0_6  1  0.75000000  0.75000000  0.05909350  1
  Ir  Ir0_7  1  0.75000000  0.75000000  0.55909350  1
  Ir  Ir1_0  1  0.25000000  0.25000000  0.44090650  1
  Ir  Ir1_1  1  0.25000000  0.25000000  0.94090650  1
  Ir  Ir1_2  1  0.25000000  0.75000000  0.44090650  1
  Ir  Ir1_3  1  0.25000000  0.75000000  0.94090650  1
  Ir  Ir1_4  1  0.75000000  0.25000000  0.44090650  1
  Ir  Ir1_5  1  0.75000000  0.25000000  0.94090650  1
  Ir  Ir1_6  1  0.75000000  0.75000000  0.44090650  1
  Ir  Ir1_7  1  0.75000000  0.75000000  0.94090650  1
  Ir  Ir2_0  1  0.25000000  0.25000000  0.25000000  1
  Ir  Ir2_1  1  0.25000000  0.25000000  0.75000000  1
  Ir  Ir2_2  1  0.25000000  0.75000000  0.25000000  1
  Ir  Ir2_3  1  0.25000000  0.75000000  0.75000000  1
  Ir  Ir2_4  1  0.75000000  0.25000000  0.25000000  1
  Ir  Ir2_5  1  0.75000000  0.25000000  0.75000000  1
  Ir  Ir2_6  1  0.75000000  0.75000000  0.25000000  1
  Ir  Ir2_7  1  0.75000000  0.75000000  0.75000000  1
loop_
_geom_bond_atom_site_label_1
_geom_bond_atom_site_label_2
_geom_bond_distance
_geom_bond_site_symmetry_2
Tb0_0 Tb0_4 2.787192 1_555
Tb0_0 Tb0_2 2.787192 1_555
Tb0_0 Tb0_2 2.787192 1_545
Tb0_0 Tb0_4 2.787192 1_455
Tb0_1 Tb0_3 2.787192 1_555
Tb0_1 Tb0_5 2.787192 1_555
Tb0_1 Tb0_5 2.787192 1_455
Tb0_1 Tb0_3 2.787192 1_545
Tb0_2 Tb0_6 2.787192 1_555
Tb0_2 Tb0_6 2.787192 1_455
Tb0_3 Tb0_7 2.787192 1_555
Tb0_3 Tb0_7 2.787192 1_455
Tb0_4 Tb0_6 2.787192 1_555
Tb0_4 Tb0_6 2.787192 1_545
Tb0_5 Tb0_7 2.787192 1_555
Tb0_5 Tb0_7 2.787192 1_545
Tb1_0 Tb1_4 2.787192 1_555
Tb1_0 Tb1_2 2.787192 1_555
Tb1_0 Tb1_2 2.787192 1_545
Tb1_0 Tb1_4 2.787192 1_455
Tb1_1 Tb1_3 2.787192 1_555
Tb1_1 Tb1_5 2.787192 1_555
Tb1_1 Tb1_3 2.787192 1_545
Tb1_1 Tb1_5 2.787192 1_455
Tb1_2 Tb1_6 2.787192 1_555
Tb1_2 Tb1_6 2.787192 1_455
Tb1_3 Tb1_7 2.787192 1_555
Tb1_3 Tb1_7 2.787192 1_455
Tb1_4 Tb1_6 2.787192 1_555
Tb1_4 Tb1_6 2.787192 1_545
Tb1_5 Tb1_7 2.787192 1_555
Tb1_5 Tb1_7 2.787192 1_545
Ge0_0 Ir2_0 2.391857 1_555
Ge0_0 Ge0_2 2.787192 1_555
Ge0_0 Ge0_4 2.787192 1_555
Ge0_0 Ge0_4 2.787192 1_455
Ge0_0 Ge0_2 2.787192 1_545
Ge0_0 Tb1_0 3.075666 1_555
Ge0_1 Ir2_1 2.391857 1_555
Ge0_1 Ge0_5 2.787192 1_555
Ge0_1 Ge0_3 2.787192 1_555
Ge0_1 Ge0_3 2.787192 1_545
Ge0_1 Ge0_5 2.787192 1_455
Ge0_1 Tb1_1 3.075666 1_555
Ge0_2 Ir2_2 2.391857 1_555
Ge0_2 Ge0_6 2.787192 1_555
Ge0_2 Ge0_6 2.787192 1_455
Ge0_2 Tb1_2 3.075666 1_555
Ge0_3 Ir2_3 2.391857 1_555
Ge0_3 Ge0_7 2.787192 1_555
Ge0_3 Ge0_7 2.787192 1_455
Ge0_3 Tb1_3 3.075666 1_555
Ge0_4 Ir2_4 2.391857 1_555
Ge0_4 Ge0_6 2.787192 1_555
Ge0_4 Ge0_6 2.787192 1_545
Ge0_4 Tb1_4 3.075666 1_555
Ge0_5 Ir2_5 2.391857 1_555
Ge0_5 Ge0_7 2.787192 1_555
Ge0_5 Ge0_7 2.787192 1_545
Ge0_5 Tb1_5 3.075666 1_555
Ge0_6 Ir2_6 2.391857 1_555
Ge0_6 Tb1_6 3.075666 1_555
Ge0_7 Ir2_7 2.391857 1_555
Ge0_7 Tb1_7 3.075666 1_555
Ge1_0 Ir2_0 2.391857 1_555
Ge1_0 Ge1_4 2.787192 1_555
Ge1_0 Ge1_2 2.787192 1_555
Ge1_0 Ge1_4 2.787192 1_455
Ge1_0 Ge1_2 2.787192 1_545
Ge1_0 Tb0_0 3.075666 1_555
Ge1_1 Ir2_1 2.391857 1_555
Ge1_1 Ge1_3 2.787192 1_555
Ge1_1 Ge1_5 2.787192 1_555
Ge1_1 Ge1_5 2.787192 1_455
Ge1_1 Ge1_3 2.787192 1_545
Ge1_1 Tb0_1 3.075666 1_555
Ge1_2 Ir2_2 2.391857 1_555
Ge1_2 Ge1_6 2.787192 1_555
Ge1_2 Ge1_6 2.787192 1_455
Ge1_2 Tb0_2 3.075666 1_555
Ge1_3 Ir2_3 2.391857 1_555
Ge1_3 Ge1_7 2.787192 1_555
Ge1_3 Ge1_7 2.787192 1_455
Ge1_3 Tb0_3 3.075666 1_555
Ge1_4 Ir2_4 2.391857 1_555
Ge1_4 Ge1_6 2.787192 1_555
Ge1_4 Ge1_6 2.787192 1_545
Ge1_4 Tb0_4 3.075666 1_555
Ge1_5 Ir2_5 2.391857 1_555
Ge1_5 Ge1_7 2.787192 1_555
Ge1_5 Ge1_7 2.787192 1_545
Ge1_5 Tb0_5 3.075666 1_555
Ge1_6 Ir2_6 2.391857 1_555
Ge1_6 Tb0_6 3.075666 1_555
Ge1_7 Ir2_7 2.391857 1_555
Ge1_7 Tb0_7 3.075666 1_555
Ge2_0 Ir1_1 2.509311 1_554
Ge2_0 Ir0_0 2.509311 1_555
Ge2_0 Ge2_4 2.787192 1_555
Ge2_0 Ge2_2 2.787192 1_555
Ge2_0 Ge2_2 2.787192 1_545
Ge2_0 Ge2_4 2.787192 1_455
Ge2_1 Ir1_0 2.509311 1_555
Ge2_1 Ir0_1 2.509311 1_555
Ge2_1 Ge2_5 2.787192 1_555
Ge2_1 Ge2_3 2.787192 1_555
Ge2_1 Ge2_3 2.787192 1_545
Ge2_1 Ge2_5 2.787192 1_455
Ge2_2 Ir1_3 2.509311 1_554
Ge2_2 Ir0_2 2.509311 1_555
Ge2_2 Ge2_6 2.787192 1_555
Ge2_2 Ge2_6 2.787192 1_455
Ge2_3 Ir1_2 2.509311 1_555
Ge2_3 Ir0_3 2.509311 1_555
Ge2_3 Ge2_7 2.787192 1_555
Ge2_3 Ge2_7 2.787192 1_455
Ge2_4 Ir1_5 2.509311 1_554
Ge2_4 Ir0_4 2.509311 1_555
Ge2_4 Ge2_6 2.787192 1_555
Ge2_4 Ge2_6 2.787192 1_545
Ge2_5 Ir1_4 2.509311 1_555
Ge2_5 Ir0_5 2.509311 1_555
Ge2_5 Ge2_7 2.787192 1_555
Ge2_5 Ge2_7 2.787192 1_545
Ge2_6 Ir1_7 2.509311 1_554
Ge2_6 Ir0_6 2.509311 1_555
Ge2_7 Ir1_6 2.509311 1_555
Ge2_7 Ir0_7 2.509311 1_555
Ir0_0 Tb1_0 2.639015 1_555
Ir0_1 Tb1_1 2.639015 1_555
Ir0_2 Tb1_2 2.639015 1_555
Ir0_3 Tb1_3 2.639015 1_555
Ir0_4 Tb1_4 2.639015 1_555
Ir0_5 Tb1_5 2.639015 1_555
Ir0_6 Tb1_6 2.639015 1_555
Ir0_7 Tb1_7 2.639015 1_555
Ir1_0 Tb0_0 2.639015 1_555
Ir1_1 Tb0_1 2.639015 1_555
Ir1_2 Tb0_2 2.639015 1_555
Ir1_3 Tb0_3 2.639015 1_555
Ir1_4 Tb0_4 2.639015 1_555
Ir1_5 Tb0_5 2.639015 1_555
Ir1_6 Tb0_6 2.639015 1_555
Ir1_7 Tb0_7 2.639015 1_555
Ir2_0 Ir2_4 2.787192 1_555
Ir2_0 Ir2_2 2.787192 1_555
Ir2_0 Ir2_4 2.787192 1_455
Ir2_0 Ir2_2 2.787192 1_545
Ir2_1 Ir2_3 2.787192 1_555
Ir2_1 Ir2_5 2.787192 1_555
Ir2_1 Ir2_3 2.787192 1_545
Ir2_1 Ir2_5 2.787192 1_455
Ir2_2 Ir2_6 2.787192 1_555
Ir2_2 Ir2_6 2.787192 1_455
Ir2_3 Ir2_7 2.787192 1_555
Ir2_3 Ir2_7 2.787192 1_455
Ir2_4 Ir2_6 2.787192 1_555
Ir2_4 Ir2_6 2.787192 1_545
Ir2_5 Ir2_7 2.787192 1_555
Ir2_5 Ir2_7 2.787192 1_545
