# generated using pymatgen
data_Mg6CrGa
_symmetry_space_group_name_H-M   'P 1'
_cell_length_a   4.98719900
_cell_length_b   6.15321000
_cell_length_c   10.72945300
_cell_angle_alpha   90.00000000
_cell_angle_beta   90.00000000
_cell_angle_gamma   90.00000000
_symmetry_Int_Tables_number   1
_chemical_formula_structural   Mg6CrGa
_chemical_formula_sum   'Mg12 Cr2 Ga2'
_cell_volume   329.25775806
_cell_formula_units_Z   2
loop_
 _symmetry_equiv_pos_site_id
 _symmetry_equiv_pos_as_xyz
  1  'x, y, z'
loop_
 _atom_site_type_symbol
 _atom_site_label
 _atom_site_symmetry_multiplicity
 _atom_site_fract_x
 _atom_site_fract_y
 _atom_site_fract_z
 _atom_site_occupancy
  Mg  Mg0  1  0.50000000  0.24900700  0.41649600  1
  Mg  Mg1  1  0.50000000  0.75099300  0.41649600  1
  Mg  Mg2  1  0.00000000  0.75241000  0.08572400  1
  Mg  Mg3  1  0.00000000  0.24759000  0.08572400  1
  Mg  Mg4  1  0.00000000  0.00000000  0.33015500  1
  Mg  Mg5  1  0.00000000  0.50000000  0.33166500  1
  Mg  Mg6  1  0.50000000  0.74900700  0.91649600  1
  Mg  Mg7  1  0.50000000  0.25099300  0.91649600  1
  Mg  Mg8  1  0.00000000  0.25241000  0.58572400  1
  Mg  Mg9  1  0.00000000  0.74759000  0.58572400  1
  Mg  Mg10  1  0.00000000  0.50000000  0.83015500  1
  Mg  Mg11  1  0.00000000  0.00000000  0.83166500  1
  Cr  Cr0  1  0.50000000  0.00000000  0.16708500  1
  Cr  Cr1  1  0.50000000  0.50000000  0.66708500  1
  Ga  Ga0  1  0.50000000  0.50000000  0.16665000  1
  Ga  Ga1  1  0.50000000  0.00000000  0.66665000  1
loop_
_geom_bond_atom_site_label_1
_geom_bond_atom_site_label_2
_geom_bond_distance
_geom_bond_site_symmetry_2
Mg0 Mg1 3.064385 1_545
Mg0 Mg4 3.069830 1_655
Mg0 Mg4 3.069830 1_555
Mg0 Mg5 3.071106 1_655
Mg0 Mg5 3.071106 1_555
Mg0 Mg8 3.084693 1_555
Mg0 Mg8 3.084693 1_655
Mg0 Mg1 3.088825 1_555
Mg1 Mg4 3.069830 1_565
Mg1 Mg4 3.069830 1_665
Mg1 Mg5 3.071106 1_655
Mg1 Mg5 3.071106 1_555
Mg1 Mg9 3.084693 1_655
Mg1 Mg9 3.084693 1_555
Mg2 Mg4 3.032995 1_565
Mg2 Mg3 3.046947 1_565
Mg2 Mg5 3.061952 1_555
Mg2 Mg6 3.084693 1_554
Mg2 Mg6 3.084693 1_454
Mg2 Mg3 3.106263 1_555
Mg3 Mg4 3.032995 1_555
Mg3 Mg5 3.061952 1_555
Mg3 Mg7 3.084693 1_454
Mg3 Mg7 3.084693 1_554
Mg4 Mg5 3.076648 1_545
Mg4 Mg5 3.076648 1_555
Mg4 Mg9 3.151415 1_545
Mg4 Mg8 3.151415 1_555
Mg5 Mg8 3.122752 1_555
Mg5 Mg9 3.122752 1_555
Mg6 Mg7 3.064385 1_555
Mg6 Mg7 3.088825 1_565
Mg8 Mg9 3.046947 1_555
Mg8 Mg9 3.106263 1_545
Mg10 Mg9 3.032995 1_555
Mg10 Mg8 3.032995 1_555
Mg10 Mg6 3.069830 1_555
Mg10 Mg6 3.069830 1_455
Mg10 Mg7 3.069830 1_555
Mg10 Mg7 3.069830 1_455
Mg10 Mg11 3.076648 1_555
Mg10 Mg11 3.076648 1_565
Mg10 Mg3 3.151415 1_556
Mg10 Mg2 3.151415 1_556
Mg11 Mg9 3.061952 1_545
Mg11 Mg8 3.061952 1_555
Mg11 Mg7 3.071106 1_455
Mg11 Mg7 3.071106 1_555
Mg11 Mg6 3.071106 1_545
Mg11 Mg6 3.071106 1_445
Mg11 Mg2 3.122752 1_546
Mg11 Mg3 3.122752 1_556
Cr0 Mg4 3.046198 1_655
Cr0 Mg4 3.046198 1_555
Cr0 Mg2 3.049765 1_545
Cr0 Mg2 3.049765 1_645
Cr0 Mg3 3.049765 1_555
Cr0 Mg3 3.049765 1_655
Cr0 Ga0 3.076609 1_545
Cr0 Ga0 3.076609 1_555
Cr0 Mg0 3.083638 1_555
Cr0 Mg1 3.083638 1_545
Cr0 Mg7 3.100682 1_554
Cr0 Mg6 3.100682 1_544
Cr1 Mg10 3.046198 1_555
Cr1 Mg10 3.046198 1_655
Cr1 Mg8 3.049765 1_655
Cr1 Mg8 3.049765 1_555
Cr1 Mg9 3.049765 1_555
Cr1 Mg9 3.049765 1_655
Cr1 Ga1 3.076609 1_555
Cr1 Ga1 3.076609 1_565
Cr1 Mg6 3.083638 1_555
Cr1 Mg7 3.083638 1_555
Cr1 Mg1 3.100682 1_555
Cr1 Mg0 3.100682 1_555
Ga0 Mg5 3.058232 1_555
Ga0 Mg5 3.058232 1_655
Ga0 Mg3 3.063362 1_555
Ga0 Mg3 3.063362 1_655
Ga0 Mg2 3.063362 1_555
Ga0 Mg2 3.063362 1_655
Ga0 Mg6 3.090559 1_554
Ga0 Mg7 3.090559 1_554
Ga0 Mg1 3.093771 1_555
Ga0 Mg0 3.093771 1_555
Ga1 Mg11 3.058232 1_655
Ga1 Mg11 3.058232 1_555
Ga1 Mg9 3.063362 1_545
Ga1 Mg9 3.063362 1_645
Ga1 Mg8 3.063362 1_655
Ga1 Mg8 3.063362 1_555
Ga1 Mg0 3.090559 1_555
Ga1 Mg1 3.090559 1_545
Ga1 Mg7 3.093771 1_555
Ga1 Mg6 3.093771 1_545
