# generated using pymatgen
data_Ba3(OsN2)2
_symmetry_space_group_name_H-M   'P 1'
_cell_length_a   6.48364760
_cell_length_b   10.83467092
_cell_length_c   9.79439592
_cell_angle_alpha   90.00000000
_cell_angle_beta   90.00000000
_cell_angle_gamma   90.00000000
_symmetry_Int_Tables_number   1
_chemical_formula_structural   Ba3(OsN2)2
_chemical_formula_sum   'Ba12 Os8 N16'
_cell_volume   688.03856699
_cell_formula_units_Z   4
loop_
 _symmetry_equiv_pos_site_id
 _symmetry_equiv_pos_as_xyz
  1  'x, y, z'
loop_
 _atom_site_type_symbol
 _atom_site_label
 _atom_site_symmetry_multiplicity
 _atom_site_fract_x
 _atom_site_fract_y
 _atom_site_fract_z
 _atom_site_occupancy
  Ba  Ba0  1  0.63599183  0.15876929  0.42354238  1
  Ba  Ba1  1  0.86400817  0.84123071  0.42354238  1
  Ba  Ba2  1  0.63599183  0.34123071  0.07645762  1
  Ba  Ba3  1  0.86400817  0.65876929  0.07645762  1
  Ba  Ba4  1  0.36400817  0.84123071  0.57645762  1
  Ba  Ba5  1  0.13599183  0.15876929  0.57645762  1
  Ba  Ba6  1  0.36400817  0.65876929  0.92354238  1
  Ba  Ba7  1  0.13599183  0.34123071  0.92354238  1
  Ba  Ba8  1  0.75000000  0.50000000  0.40891227  1
  Ba  Ba9  1  0.75000000  -0.00000000  0.09108773  1
  Ba  Ba10  1  0.25000000  0.50000000  0.59108773  1
  Ba  Ba11  1  0.25000000  -0.00000000  0.90891227  1
  Os  Os0  1  0.75000000  0.50000000  0.74219460  1
  Os  Os1  1  0.75000000  -0.00000000  0.75780540  1
  Os  Os2  1  0.25000000  0.50000000  0.25780540  1
  Os  Os3  1  0.25000000  -0.00000000  0.24219460  1
  Os  Os4  1  0.70038439  0.25000000  0.75000000  1
  Os  Os5  1  0.79961561  0.75000000  0.75000000  1
  Os  Os6  1  0.29961561  0.75000000  0.25000000  1
  Os  Os7  1  0.20038439  0.25000000  0.25000000  1
  N  N0  1  0.89722070  0.35796305  0.65768322  1
  N  N1  1  0.60277930  0.64203695  0.65768322  1
  N  N2  1  0.89722070  0.14203695  0.84231678  1
  N  N3  1  0.60277930  0.85796305  0.84231678  1
  N  N4  1  0.10277930  0.64203695  0.34231678  1
  N  N5  1  0.39722070  0.35796305  0.34231678  1
  N  N6  1  0.10277930  0.85796305  0.15768322  1
  N  N7  1  0.39722070  0.14203695  0.15768322  1
  N  N8  1  0.49220055  0.39171005  0.79121319  1
  N  N9  1  0.00779945  0.60828995  0.79121319  1
  N  N10  1  0.49220055  0.10828995  0.70878681  1
  N  N11  1  0.00779945  0.89171005  0.70878681  1
  N  N12  1  0.50779945  0.60828995  0.20878681  1
  N  N13  1  0.99220055  0.39171005  0.20878681  1
  N  N14  1  0.50779945  0.89171005  0.29121319  1
  N  N15  1  0.99220055  0.10828995  0.29121319  1
loop_
_geom_bond_atom_site_label_1
_geom_bond_atom_site_label_2
_geom_bond_distance
_geom_bond_site_symmetry_2
Ba0 N15 2.704238 1_555
Ba0 N5 2.772611 1_555
Ba0 N10 2.995597 1_555
Ba0 N7 3.034791 1_555
Ba0 N14 3.277650 1_545
Ba1 N14 2.704238 1_555
Ba1 N4 2.772611 1_655
Ba1 N11 2.995597 1_655
Ba1 N6 3.034791 1_655
Ba1 N15 3.277650 1_565
Ba2 N13 2.704238 1_555
Ba2 N7 2.772611 1_555
Ba2 N8 2.995597 1_554
Ba2 N5 3.034791 1_555
Ba2 N12 3.277650 1_555
Ba3 N12 2.704238 1_555
Ba3 N6 2.772611 1_655
Ba3 N9 2.995597 1_654
Ba3 N4 3.034791 1_655
Ba3 N13 3.277650 1_555
Ba4 N11 2.704238 1_555
Ba4 N1 2.772611 1_555
Ba4 N14 2.995597 1_555
Ba4 N3 3.034791 1_555
Ba4 N10 3.277650 1_565
Ba5 N10 2.704238 1_555
Ba5 N0 2.772611 1_455
Ba5 N15 2.995597 1_455
Ba5 N2 3.034791 1_455
Ba5 N11 3.277650 1_545
Ba6 N9 2.704238 1_555
Ba6 N3 2.772611 1_555
Ba6 N12 2.995597 1_556
Ba6 N1 3.034791 1_555
Ba6 N8 3.277650 1_555
Ba7 N8 2.704238 1_555
Ba7 N2 2.772611 1_455
Ba7 N13 2.995597 1_456
Ba7 N0 3.034791 1_455
Ba7 N9 3.277650 1_555
Ba8 N12 2.772111 1_555
Ba8 N13 2.772111 1_555
Ba8 N4 2.832924 1_655
Ba8 N5 2.832924 1_555
Ba8 N0 3.035826 1_555
Ba8 N1 3.035826 1_555
Ba9 N14 2.772111 1_545
Ba9 N15 2.772111 1_555
Ba9 N6 2.832924 1_645
Ba9 N7 2.832924 1_555
Ba9 N2 3.035826 1_554
Ba9 N3 3.035826 1_544
Ba10 N9 2.772111 1_555
Ba10 N8 2.772111 1_555
Ba10 N0 2.832924 1_455
Ba10 N1 2.832924 1_555
Ba10 N5 3.035826 1_555
Ba10 N4 3.035826 1_555
Ba11 N11 2.772111 1_545
Ba11 N10 2.772111 1_555
Ba11 N2 2.832924 1_455
Ba11 N3 2.832924 1_545
Ba11 N7 3.035826 1_556
Ba11 N6 3.035826 1_546
N0 Os4 1.953097 1_555
N0 Os0 1.991120 1_555
N1 Os5 1.953097 1_555
N1 Os0 1.991120 1_555
N2 Os4 1.953097 1_555
N2 Os1 1.991120 1_555
N3 Os5 1.953097 1_555
N3 Os1 1.991120 1_565
N4 Os6 1.953097 1_555
N4 Os2 1.991120 1_555
N5 Os7 1.953097 1_555
N5 Os2 1.991120 1_555
N6 Os6 1.953097 1_555
N6 Os3 1.991120 1_565
N7 Os7 1.953097 1_555
N7 Os3 1.991120 1_555
N8 Os4 2.083812 1_555
N8 Os0 2.097844 1_555
N9 Os5 2.083812 1_455
N9 Os0 2.097844 1_455
N10 Os4 2.083812 1_555
N10 Os1 2.097844 1_555
N11 Os5 2.083812 1_455
N11 Os1 2.097844 1_465
N12 Os6 2.083812 1_555
N12 Os2 2.097844 1_555
N13 Os7 2.083812 1_655
N13 Os2 2.097844 1_655
N14 Os6 2.083812 1_555
N14 Os3 2.097844 1_565
N15 Os7 2.083812 1_655
N15 Os3 2.097844 1_655
