# generated using pymatgen
data_Mg9Si5
_symmetry_space_group_name_H-M   'P 1'
_cell_length_a   7.13361900
_cell_length_b   7.14752378
_cell_length_c   12.49592353
_cell_angle_alpha   93.66852604
_cell_angle_beta   90.10927813
_cell_angle_gamma   119.21827138
_symmetry_Int_Tables_number   1
_chemical_formula_structural   Mg9Si5
_chemical_formula_sum   'Mg18 Si10'
_cell_volume   554.53185468
_cell_formula_units_Z   2
loop_
 _symmetry_equiv_pos_site_id
 _symmetry_equiv_pos_as_xyz
  1  'x, y, z'
loop_
 _atom_site_type_symbol
 _atom_site_label
 _atom_site_symmetry_multiplicity
 _atom_site_fract_x
 _atom_site_fract_y
 _atom_site_fract_z
 _atom_site_occupancy
  Mg  Mg0  1  0.56724300  0.43920100  0.35218200  1
  Mg  Mg1  1  0.89093800  0.22929700  0.35373400  1
  Mg  Mg2  1  0.10746000  0.76011000  0.35592100  1
  Mg  Mg3  1  0.54033100  0.09431600  0.51584200  1
  Mg  Mg4  1  0.79014700  0.81148300  0.18336000  1
  Mg  Mg5  1  0.78657700  0.83545400  0.51195700  1
  Mg  Mg6  1  0.82317300  0.80058700  0.85960700  1
  Mg  Mg7  1  0.56985400  0.41463800  0.02375400  1
  Mg  Mg8  1  0.19840200  0.32800500  0.87739900  1
  Mg  Mg9  1  0.15345500  0.91621200  0.65850200  1
  Mg  Mg10  1  0.41197700  0.00831800  0.87756000  1
  Mg  Mg11  1  0.81497700  0.15522200  0.01977200  1
  Mg  Mg12  1  0.94390900  0.24666700  0.65930400  1
  Mg  Mg13  1  0.06710400  0.65861500  0.01013100  1
  Mg  Mg14  1  0.53487000  0.44947200  0.67672400  1
  Mg  Mg15  1  0.24897800  0.48847700  0.17895000  1
  Mg  Mg16  1  0.28939000  0.59074000  0.52511100  1
  Mg  Mg17  1  0.46498600  0.02071000  0.18166800  1
  Si  Si0  1  0.14886000  0.07425800  0.04099700  1
  Si  Si1  1  0.57146500  0.86324000  0.69135700  1
  Si  Si2  1  0.20644600  0.17496000  0.49687700  1
  Si  Si3  1  0.17871200  0.12538500  0.26879600  1
  Si  Si4  1  0.78609700  0.38627800  0.84382000  1
  Si  Si5  1  0.51950200  0.80918000  0.34946000  1
  Si  Si6  1  0.48456900  0.74138300  0.01623200  1
  Si  Si7  1  0.83741300  0.44094500  0.18587400  1
  Si  Si8  1  0.87104300  0.50790800  0.51833700  1
  Si  Si9  1  0.19198500  0.62910300  0.76701900  1
loop_
_geom_bond_atom_site_label_1
_geom_bond_atom_site_label_2
_geom_bond_distance
_geom_bond_site_symmetry_2
Mg0 Si3 2.723849 1_555
Mg0 Si5 2.828582 1_555
Mg0 Si7 2.833468 1_555
Mg0 Si8 2.839380 1_555
Mg0 Si2 3.028153 1_555
Mg1 Si3 2.699700 1_655
Mg1 Si7 2.793014 1_555
Mg1 Si8 2.822996 1_555
Mg1 Si5 2.872577 1_545
Mg1 Si2 3.056621 1_655
Mg2 Si3 2.707447 1_565
Mg2 Si8 2.779567 1_455
Mg2 Si5 2.787002 1_555
Mg2 Si7 2.916165 1_455
Mg2 Si2 3.110624 1_565
Mg3 Si2 2.723428 1_555
Mg3 Si8 2.735842 1_555
Mg3 Si5 2.767523 1_545
Mg3 Si1 2.899519 1_545
Mg4 Si3 2.732690 1_665
Mg4 Si7 2.830418 1_555
Mg4 Si5 2.832741 1_555
Mg4 Si6 2.854266 1_555
Mg4 Si0 2.998863 1_665
Mg5 Si8 2.692816 1_555
Mg5 Si5 2.715764 1_555
Mg5 Si1 2.770094 1_555
Mg5 Si2 2.803581 1_665
Mg6 Si4 2.835221 1_555
Mg6 Si1 2.955676 1_555
Mg6 Si6 2.995034 1_556
Mg6 Si0 3.055726 1_666
Mg7 Si6 2.692241 1_555
Mg7 Si7 2.714500 1_555
Mg7 Si4 2.781431 1_554
Mg7 Si0 2.814433 1_555
Mg8 Si9 2.648003 1_555
Mg8 Si0 2.728539 1_556
Mg8 Si6 3.057598 1_556
Mg8 Si4 3.195934 1_455
Mg9 Si9 2.651578 1_555
Mg9 Si2 2.727742 1_565
Mg9 Si8 3.039042 1_455
Mg9 Si1 3.212667 1_555
Mg10 Si9 2.660319 1_545
Mg10 Si4 2.776634 1_555
Mg10 Si6 2.880152 1_546
Mg10 Si1 2.938826 1_545
Mg10 Si0 2.944697 1_556
Mg11 Si0 2.727825 1_655
Mg11 Si6 2.735537 1_545
Mg11 Si7 2.764335 1_555
Mg11 Si4 2.898125 1_554
Mg12 Si9 2.685669 1_655
Mg12 Si1 2.786755 1_545
Mg12 Si8 2.867860 1_555
Mg12 Si4 2.896817 1_555
Mg12 Si2 2.950980 1_655
Mg13 Si0 2.734164 1_565
Mg13 Si6 2.738226 1_555
Mg13 Si4 2.789866 1_454
Mg13 Si7 2.808954 1_455
Mg14 Si1 2.832805 1_555
Mg14 Si4 2.944887 1_555
Mg14 Si8 2.998116 1_555
Mg14 Si2 3.052401 1_555
Mg15 Si3 2.711429 1_555
Mg15 Si6 2.782790 1_555
Mg15 Si7 2.788125 1_455
Mg15 Si5 2.925575 1_555
Mg15 Si0 3.086259 1_555
Mg16 Si2 2.730296 1_555
Mg16 Si8 2.744373 1_455
Mg16 Si1 2.792524 1_555
Mg16 Si5 2.810718 1_555
Mg17 Si3 2.703970 1_555
Mg17 Si5 2.794626 1_545
Mg17 Si6 2.832732 1_545
Mg17 Si7 2.876039 1_555
Mg17 Si0 3.039011 1_555
Si0 Si3 2.840842 1_555
Si1 Si9 2.610011 1_555
Si2 Si3 2.843913 1_555
Si4 Si9 2.763076 1_655
