# generated using pymatgen
data_Gd3(SiNi3)2
_symmetry_space_group_name_H-M   'P 1'
_cell_length_a   7.64572433
_cell_length_b   7.64572433
_cell_length_c   7.64572433
_cell_angle_alpha   109.47122063
_cell_angle_beta   109.47122063
_cell_angle_gamma   109.47122063
_symmetry_Int_Tables_number   1
_chemical_formula_structural   Gd3(SiNi3)2
_chemical_formula_sum   'Gd6 Si4 Ni12'
_cell_volume   344.05986538
_cell_formula_units_Z   2
loop_
 _symmetry_equiv_pos_site_id
 _symmetry_equiv_pos_as_xyz
  1  'x, y, z'
loop_
 _atom_site_type_symbol
 _atom_site_label
 _atom_site_symmetry_multiplicity
 _atom_site_fract_x
 _atom_site_fract_y
 _atom_site_fract_z
 _atom_site_occupancy
  Gd  Gd0  1  0.71557500  0.71557500  0.00000000  1
  Gd  Gd1  1  0.28442500  0.00000000  0.28442500  1
  Gd  Gd2  1  0.00000000  0.28442500  0.28442500  1
  Gd  Gd3  1  0.28442500  0.28442500  0.00000000  1
  Gd  Gd4  1  0.71557500  0.00000000  0.71557500  1
  Gd  Gd5  1  0.00000000  0.71557500  0.71557500  1
  Si  Si0  1  0.00000000  0.00000000  0.50000000  1
  Si  Si1  1  0.00000000  0.50000000  0.00000000  1
  Si  Si2  1  0.50000000  0.00000000  0.00000000  1
  Si  Si3  1  0.50000000  0.50000000  0.50000000  1
  Ni  Ni0  1  0.33092000  0.33092000  0.66184000  1
  Ni  Ni1  1  0.66908000  0.00000000  0.33092000  1
  Ni  Ni2  1  0.00000000  0.66908000  0.33092000  1
  Ni  Ni3  1  0.66908000  0.33092000  0.00000000  1
  Ni  Ni4  1  0.33092000  0.66184000  0.33092000  1
  Ni  Ni5  1  0.00000000  0.33092000  0.66908000  1
  Ni  Ni6  1  0.33092000  0.66908000  0.00000000  1
  Ni  Ni7  1  0.33092000  0.00000000  0.66908000  1
  Ni  Ni8  1  0.66184000  0.33092000  0.33092000  1
  Ni  Ni9  1  0.66908000  0.66908000  0.33816000  1
  Ni  Ni10  1  0.66908000  0.33816000  0.66908000  1
  Ni  Ni11  1  0.33816000  0.66908000  0.66908000  1
loop_
_geom_bond_atom_site_label_1
_geom_bond_atom_site_label_2
_geom_bond_distance
_geom_bond_site_symmetry_2
Gd0 Ni0 2.842300 1_554
Gd0 Ni6 2.842300 1_555
Gd0 Ni3 2.842300 1_555
Gd0 Ni9 2.842300 1_555
Gd0 Ni11 2.950230 1_554
Gd0 Ni10 2.950230 1_554
Gd0 Ni1 2.950230 1_565
Gd0 Ni2 2.950230 1_655
Gd0 Si0 3.136115 1_665
Gd0 Si3 3.136115 1_554
Gd0 Si1 3.136115 1_655
Gd0 Si2 3.136115 1_565
Gd1 Ni7 2.842300 1_555
Gd1 Ni10 2.842300 1_555
Gd1 Ni4 2.842300 1_545
Gd1 Ni1 2.842300 1_555
Gd1 Ni6 2.950230 1_545
Gd1 Ni8 2.950230 1_555
Gd1 Ni0 2.950230 1_555
Gd1 Ni2 2.950230 1_545
Gd1 Si1 3.136115 1_545
Gd1 Si2 3.136115 1_555
Gd1 Si3 3.136115 1_555
Gd1 Si0 3.136115 1_555
Gd2 Ni11 2.842300 1_555
Gd2 Ni5 2.842300 1_555
Gd2 Ni8 2.842300 1_455
Gd2 Ni2 2.842300 1_555
Gd2 Ni0 2.950230 1_555
Gd2 Ni1 2.950230 1_455
Gd2 Ni4 2.950230 1_555
Gd2 Ni3 2.950230 1_455
Gd2 Si3 3.136115 1_555
Gd2 Si0 3.136115 1_555
Gd2 Si2 3.136115 1_455
Gd2 Si1 3.136115 1_555
Gd3 Ni0 2.842300 1_554
Gd3 Ni9 2.842300 1_555
Gd3 Ni6 2.842300 1_555
Gd3 Ni3 2.842300 1_555
Gd3 Ni8 2.950230 1_555
Gd3 Ni7 2.950230 1_554
Gd3 Ni5 2.950230 1_554
Gd3 Ni4 2.950230 1_555
Gd3 Si3 3.136115 1_555
Gd3 Si1 3.136115 1_555
Gd3 Si0 3.136115 1_554
Gd3 Si2 3.136115 1_555
Gd4 Ni7 2.842300 1_555
Gd4 Ni1 2.842300 1_555
Gd4 Ni4 2.842300 1_545
Gd4 Ni10 2.842300 1_555
Gd4 Ni5 2.950230 1_655
Gd4 Ni3 2.950230 1_556
Gd4 Ni11 2.950230 1_545
Gd4 Ni9 2.950230 1_545
Gd4 Si3 3.136115 1_545
Gd4 Si2 3.136115 1_556
Gd4 Si0 3.136115 1_655
Gd4 Si1 3.136115 1_656
Gd5 Ni8 2.842300 1_455
Gd5 Ni5 2.842300 1_555
Gd5 Ni2 2.842300 1_555
Gd5 Ni11 2.842300 1_555
Gd5 Ni7 2.950230 1_565
Gd5 Ni9 2.950230 1_455
Gd5 Ni6 2.950230 1_556
Gd5 Ni10 2.950230 1_455
Gd5 Si1 3.136115 1_556
Gd5 Si0 3.136115 1_565
Gd5 Si2 3.136115 1_566
Gd5 Si3 3.136115 1_455
Ni0 Si0 2.427379 1_555
Ni0 Si3 2.427379 1_555
Ni0 Ni10 2.549109 1_555
Ni0 Ni7 2.549109 1_555
Ni0 Ni11 2.549109 1_555
Ni0 Ni5 2.549109 1_555
Ni1 Si2 2.427379 1_555
Ni1 Si0 2.427379 1_655
Ni1 Ni6 2.549109 1_545
Ni1 Ni9 2.549109 1_545
Ni1 Ni5 2.549109 1_655
Ni1 Ni8 2.549109 1_555
Ni2 Si1 2.427379 1_555
Ni2 Si0 2.427379 1_565
Ni2 Ni7 2.549109 1_565
Ni2 Ni4 2.549109 1_555
Ni2 Ni9 2.549109 1_455
Ni2 Ni3 2.549109 1_455
Ni3 Si1 2.427379 1_655
Ni3 Si2 2.427379 1_555
Ni3 Ni7 2.549109 1_554
Ni3 Ni8 2.549109 1_555
Ni4 Si1 2.427379 1_555
Ni4 Si3 2.427379 1_555
Ni4 Ni9 2.549109 1_555
Ni4 Ni6 2.549109 1_555
Ni5 Si1 2.427379 1_556
Ni5 Si0 2.427379 1_555
Ni5 Ni6 2.549109 1_556
Ni6 Si1 2.427379 1_555
Ni6 Si2 2.427379 1_565
Ni7 Si0 2.427379 1_555
Ni7 Si2 2.427379 1_556
Ni8 Si2 2.427379 1_555
Ni8 Si3 2.427379 1_555
Ni8 Ni9 2.549109 1_555
Ni9 Si3 2.427379 1_555
Ni9 Si0 2.427379 1_665
Ni10 Si3 2.427379 1_555
Ni10 Si1 2.427379 1_656
Ni10 Ni3 2.549109 1_556
Ni10 Ni5 2.549109 1_655
Ni10 Ni8 2.549109 1_555
Ni11 Si2 2.427379 1_566
Ni11 Si3 2.427379 1_555
Ni11 Ni6 2.549109 1_556
Ni11 Ni7 2.549109 1_565
Ni11 Ni4 2.549109 1_555
