# generated using pymatgen
data_BaSrBi3
_symmetry_space_group_name_H-M   'P 1'
_cell_length_a   6.84803675
_cell_length_b   7.01213743
_cell_length_c   15.74091666
_cell_angle_alpha   90.00000000
_cell_angle_beta   90.00000000
_cell_angle_gamma   90.00000000
_symmetry_Int_Tables_number   1
_chemical_formula_structural   BaSrBi3
_chemical_formula_sum   'Ba4 Sr4 Bi12'
_cell_volume   755.86897705
_cell_formula_units_Z   4
loop_
 _symmetry_equiv_pos_site_id
 _symmetry_equiv_pos_as_xyz
  1  'x, y, z'
loop_
 _atom_site_type_symbol
 _atom_site_label
 _atom_site_symmetry_multiplicity
 _atom_site_fract_x
 _atom_site_fract_y
 _atom_site_fract_z
 _atom_site_occupancy
  Ba  Ba0  1  0.54872732  0.50000000  0.25000000  1
  Ba  Ba1  1  0.45127268  0.50000000  0.75000000  1
  Ba  Ba2  1  0.95127268  -0.00000000  0.25000000  1
  Ba  Ba3  1  0.04872732  -0.00000000  0.75000000  1
  Sr  Sr0  1  0.75000000  0.75000000  -0.00071489  1
  Sr  Sr1  1  0.25000000  0.25000000  0.00071489  1
  Sr  Sr2  1  0.75000000  0.25000000  0.50071489  1
  Sr  Sr3  1  0.25000000  0.75000000  0.49928511  1
  Bi  Bi0  1  0.75000000  0.75000000  0.43603540  1
  Bi  Bi1  1  0.25000000  0.25000000  0.56396460  1
  Bi  Bi2  1  0.75000000  0.25000000  0.06396460  1
  Bi  Bi3  1  0.25000000  0.75000000  0.93603540  1
  Bi  Bi4  1  0.06598730  0.55213047  0.15226164  1
  Bi  Bi5  1  0.93401270  0.44786953  0.84773836  1
  Bi  Bi6  1  0.06598730  0.44786953  0.34773836  1
  Bi  Bi7  1  0.43401270  0.05213047  0.34773836  1
  Bi  Bi8  1  0.93401270  0.55213047  0.65226164  1
  Bi  Bi9  1  0.56598730  0.94786953  0.65226164  1
  Bi  Bi10  1  0.43401270  0.94786953  0.15226164  1
  Bi  Bi11  1  0.56598730  0.05213047  0.84773836  1
loop_
_geom_bond_atom_site_label_1
_geom_bond_atom_site_label_2
_geom_bond_distance
_geom_bond_site_symmetry_2
Ba0 Bi7 3.584265 1_555
Ba0 Bi10 3.584265 1_555
Ba0 Bi4 3.664565 1_555
Ba0 Bi6 3.664565 1_555
Ba0 Bi0 3.680793 1_555
Ba0 Bi2 3.680793 1_555
Ba0 Bi4 3.879158 1_655
Ba0 Bi6 3.879158 1_655
Ba0 Bi10 4.239514 1_545
Ba0 Bi7 4.239514 1_565
Ba1 Bi11 3.584265 1_555
Ba1 Bi9 3.584265 1_555
Ba1 Bi5 3.664565 1_555
Ba1 Bi8 3.664565 1_555
Ba1 Bi3 3.680793 1_555
Ba1 Bi1 3.680793 1_555
Ba1 Bi5 3.879158 1_455
Ba1 Bi8 3.879158 1_455
Ba1 Bi9 4.239514 1_545
Ba1 Bi11 4.239514 1_565
Ba2 Bi4 3.584265 1_645
Ba2 Bi6 3.584265 1_655
Ba2 Bi10 3.664565 1_645
Ba2 Bi7 3.664565 1_655
Ba2 Bi0 3.680793 1_545
Ba2 Bi2 3.680793 1_555
Ba2 Bi10 3.879158 1_545
Ba2 Bi7 3.879158 1_555
Ba2 Bi4 4.239514 1_655
Ba2 Bi6 4.239514 1_645
Ba3 Bi8 3.584265 1_445
Ba3 Bi5 3.584265 1_455
Ba3 Bi9 3.664565 1_445
Ba3 Bi11 3.664565 1_455
Ba3 Bi3 3.680793 1_545
Ba3 Bi1 3.680793 1_555
Ba3 Bi11 3.879158 1_555
Ba3 Bi9 3.879158 1_545
Ba3 Bi8 4.239514 1_455
Ba3 Bi5 4.239514 1_445
Bi0 Bi6 3.332052 1_655
Bi0 Bi7 3.332052 1_565
Bi0 Sr3 3.565829 1_655
Bi0 Sr3 3.565829 1_555
Bi0 Sr2 3.650901 1_555
Bi0 Sr2 3.650901 1_565
Bi1 Bi9 3.332052 1_545
Bi1 Bi8 3.332052 1_455
Bi1 Sr2 3.565829 1_555
Bi1 Sr2 3.565829 1_455
Bi1 Sr3 3.650901 1_545
Bi1 Sr3 3.650901 1_555
Bi2 Bi4 3.332052 1_655
Bi2 Sr1 3.565829 1_555
Bi2 Sr1 3.565829 1_655
Bi2 Sr0 3.650901 1_545
Bi2 Sr0 3.650901 1_555
Bi3 Bi5 3.332052 1_455
Bi3 Sr0 3.565829 1_456
Bi3 Sr0 3.565829 1_556
Bi3 Sr1 3.650901 1_566
Bi3 Sr1 3.650901 1_556
Bi4 Bi6 3.162644 1_555
Bi4 Sr1 3.430282 1_555
Bi4 Sr0 3.522212 1_455
Bi5 Bi8 3.162644 1_555
Bi5 Sr0 3.430282 1_556
Bi5 Sr1 3.522212 1_656
Bi6 Sr3 3.430282 1_555
Bi6 Sr2 3.522212 1_455
Bi7 Sr3 3.430282 1_545
Bi7 Sr2 3.522212 1_555
Bi8 Sr2 3.430282 1_555
Bi8 Sr3 3.522212 1_655
Bi9 Sr2 3.430282 1_565
Bi9 Sr3 3.522212 1_555
Bi10 Bi7 3.162644 1_565
Bi10 Bi2 3.332052 1_565
Bi10 Sr1 3.430282 1_565
Bi10 Sr0 3.522212 1_555
Bi11 Bi9 3.162644 1_545
Bi11 Bi3 3.332052 1_545
Bi11 Sr0 3.430282 1_546
Bi11 Sr1 3.522212 1_556
