# generated using pymatgen
data_CoAg(N3O4)2
_symmetry_space_group_name_H-M   'P 1'
_cell_length_a   7.04460400
_cell_length_b   7.04460400
_cell_length_c   10.83362700
_cell_angle_alpha   90.00000000
_cell_angle_beta   90.00000000
_cell_angle_gamma   90.00000000
_symmetry_Int_Tables_number   1
_chemical_formula_structural   CoAg(N3O4)2
_chemical_formula_sum   'Co2 Ag2 N12 O16'
_cell_volume   537.63440007
_cell_formula_units_Z   2
loop_
 _symmetry_equiv_pos_site_id
 _symmetry_equiv_pos_as_xyz
  1  'x, y, z'
loop_
 _atom_site_type_symbol
 _atom_site_label
 _atom_site_symmetry_multiplicity
 _atom_site_fract_x
 _atom_site_fract_y
 _atom_site_fract_z
 _atom_site_occupancy
  Co  Co0  1  0.00000000  0.00000000  0.50000000  1
  Co  Co1  1  0.50000000  0.50000000  0.00000000  1
  Ag  Ag0  1  0.50000000  0.50000000  0.50000000  1
  Ag  Ag1  1  0.00000000  0.00000000  0.00000000  1
  N  N0  1  0.73102400  0.73102400  0.50000000  1
  N  N1  1  0.26897600  0.26897600  0.50000000  1
  N  N2  1  0.23102400  0.23102400  0.00000000  1
  N  N3  1  0.76897600  0.76897600  0.00000000  1
  N  N4  1  0.73102400  0.26897600  0.50000000  1
  N  N5  1  0.26897600  0.73102400  0.50000000  1
  N  N6  1  0.23102400  0.76897600  0.00000000  1
  N  N7  1  0.76897600  0.23102400  0.00000000  1
  N  N8  1  0.50000000  0.50000000  0.73006900  1
  N  N9  1  0.00000000  0.00000000  0.76993100  1
  N  N10  1  0.50000000  0.50000000  0.26993100  1
  N  N11  1  0.00000000  0.00000000  0.23006900  1
  O  O0  1  0.75279700  0.83960700  0.59058300  1
  O  O1  1  0.24720300  0.16039300  0.59058300  1
  O  O2  1  0.25279700  0.33960700  0.90941700  1
  O  O3  1  0.74720300  0.66039300  0.90941700  1
  O  O4  1  0.75279700  0.16039300  0.40941700  1
  O  O5  1  0.24720300  0.83960700  0.40941700  1
  O  O6  1  0.25279700  0.66039300  0.09058300  1
  O  O7  1  0.74720300  0.33960700  0.09058300  1
  O  O8  1  0.83960700  0.24720300  0.59058300  1
  O  O9  1  0.16039300  0.75279700  0.59058300  1
  O  O10  1  0.33960700  0.74720300  0.90941700  1
  O  O11  1  0.66039300  0.25279700  0.90941700  1
  O  O12  1  0.16039300  0.24720300  0.40941700  1
  O  O13  1  0.83960700  0.75279700  0.40941700  1
  O  O14  1  0.66039300  0.74720300  0.09058300  1
  O  O15  1  0.33960700  0.25279700  0.09058300  1
loop_
_geom_bond_atom_site_label_1
_geom_bond_atom_site_label_2
_geom_bond_distance
_geom_bond_site_symmetry_2
Co0 O12 2.296161 1_555
Co0 O1 2.296161 1_555
Co0 O8 2.296161 1_455
Co0 O5 2.296161 1_545
Co0 O9 2.296161 1_545
Co0 O4 2.296161 1_455
Co0 O0 2.296161 1_445
Co0 O13 2.296161 1_445
Co1 O7 2.296161 1_555
Co1 O14 2.296161 1_555
Co1 O6 2.296161 1_555
Co1 O15 2.296161 1_555
Co1 O3 2.296161 1_554
Co1 O10 2.296161 1_554
Co1 O11 2.296161 1_554
Co1 O2 2.296161 1_554
Ag0 N0 2.301594 1_555
Ag0 N4 2.301594 1_555
Ag0 N1 2.301594 1_555
Ag0 N5 2.301594 1_555
Ag0 N8 2.492482 1_555
Ag0 N10 2.492482 1_555
Ag1 N2 2.301594 1_555
Ag1 N6 2.301594 1_545
Ag1 N7 2.301594 1_455
Ag1 N3 2.301594 1_445
Ag1 N11 2.492482 1_555
Ag1 N9 2.492482 1_554
N0 O0 1.253662 1_555
N0 O13 1.253662 1_555
N1 O1 1.253662 1_555
N1 O12 1.253662 1_555
N2 O15 1.253662 1_555
N2 O2 1.253662 1_554
N3 O14 1.253662 1_555
N3 O3 1.253662 1_554
N4 O8 1.253662 1_555
N4 O4 1.253662 1_555
N5 O5 1.253662 1_555
N5 O9 1.253662 1_555
N6 O6 1.253662 1_555
N6 O10 1.253662 1_554
N7 O7 1.253662 1_555
N7 O11 1.253662 1_554
