# generated using pymatgen
data_TaV(Cu3Se4)2
_symmetry_space_group_name_H-M   'P 1'
_cell_length_a   7.99832100
_cell_length_b   7.99832100
_cell_length_c   5.65562800
_cell_angle_alpha   90.00000000
_cell_angle_beta   90.00000000
_cell_angle_gamma   90.00000000
_symmetry_Int_Tables_number   1
_chemical_formula_structural   TaV(Cu3Se4)2
_chemical_formula_sum   'Ta1 V1 Cu6 Se8'
_cell_volume   361.80827515
_cell_formula_units_Z   1
loop_
 _symmetry_equiv_pos_site_id
 _symmetry_equiv_pos_as_xyz
  1  'x, y, z'
loop_
 _atom_site_type_symbol
 _atom_site_label
 _atom_site_symmetry_multiplicity
 _atom_site_fract_x
 _atom_site_fract_y
 _atom_site_fract_z
 _atom_site_occupancy
  Ta  Ta0  1  0.00000000  0.00000000  0.00000000  1
  V  V0  1  0.50000000  0.50000000  0.00000000  1
  Cu  Cu0  1  0.25206200  0.74793800  0.00000000  1
  Cu  Cu1  1  0.74793800  0.25206200  0.00000000  1
  Cu  Cu2  1  0.25206200  0.25206200  0.00000000  1
  Cu  Cu3  1  0.74793800  0.74793800  0.00000000  1
  Cu  Cu4  1  0.00000000  0.00000000  0.50000000  1
  Cu  Cu5  1  0.50000000  0.50000000  0.50000000  1
  Se  Se0  1  0.50000000  0.25864800  0.75827200  1
  Se  Se1  1  0.00000000  0.74839400  0.74880700  1
  Se  Se2  1  0.50000000  0.74135200  0.75827200  1
  Se  Se3  1  0.00000000  0.25160600  0.74880700  1
  Se  Se4  1  0.74839400  0.00000000  0.25119300  1
  Se  Se5  1  0.25864800  0.50000000  0.24172800  1
  Se  Se6  1  0.25160600  0.00000000  0.25119300  1
  Se  Se7  1  0.74135200  0.50000000  0.24172800  1
loop_
_geom_bond_atom_site_label_1
_geom_bond_atom_site_label_2
_geom_bond_distance
_geom_bond_site_symmetry_2
Cu0 Se2 2.409240 1_554
Cu0 Se5 2.409240 1_555
Cu0 Se1 2.466338 1_554
Cu0 Se6 2.466338 1_565
Cu1 Se7 2.409240 1_555
Cu1 Se0 2.409240 1_554
Cu1 Se4 2.466338 1_555
Cu1 Se3 2.466338 1_654
Cu2 Se0 2.409240 1_554
Cu2 Se5 2.409240 1_555
Cu2 Se3 2.466338 1_554
Cu2 Se6 2.466338 1_555
Cu3 Se7 2.409240 1_555
Cu3 Se2 2.409240 1_554
Cu3 Se1 2.466338 1_654
Cu3 Se4 2.466338 1_565
Cu4 Se3 2.455597 1_555
Cu4 Se1 2.455597 1_545
Cu4 Se6 2.455597 1_555
Cu4 Se4 2.455597 1_455
Cu4 Ta0 2.827814 1_556
Cu4 Ta0 2.827814 1_555
Cu5 Se0 2.420765 1_555
Cu5 Se5 2.420765 1_555
Cu5 Se2 2.420765 1_555
Cu5 Se7 2.420765 1_555
Se0 V0 2.365484 1_556
Se1 Ta0 2.463354 1_566
Se2 V0 2.365484 1_556
Se3 Ta0 2.463354 1_556
Se4 Ta0 2.463354 1_655
Se5 V0 2.365484 1_555
Se6 Ta0 2.463354 1_555
Se7 V0 2.365484 1_555
