# generated using pymatgen
data_Li2TiCrO4
_symmetry_space_group_name_H-M   'P 1'
_cell_length_a   5.71666408
_cell_length_b   9.32320945
_cell_length_c   5.71666866
_cell_angle_alpha   72.12595464
_cell_angle_beta   90.01480045
_cell_angle_gamma   107.87426902
_symmetry_Int_Tables_number   1
_chemical_formula_structural   Li2TiCrO4
_chemical_formula_sum   'Li8 Ti4 Cr4 O16'
_cell_volume   274.49396173
_cell_formula_units_Z   4
loop_
 _symmetry_equiv_pos_site_id
 _symmetry_equiv_pos_as_xyz
  1  'x, y, z'
loop_
 _atom_site_type_symbol
 _atom_site_label
 _atom_site_symmetry_multiplicity
 _atom_site_fract_x
 _atom_site_fract_y
 _atom_site_fract_z
 _atom_site_occupancy
  Li  Li0  1  0.37497192  0.24991764  0.62504562  1
  Li  Li1  1  0.87499162  0.24997674  0.12498739  1
  Li  Li2  1  0.12496427  0.74999541  0.37496740  1
  Li  Li3  1  0.62502382  0.75000112  0.87505094  1
  Li  Li4  1  0.50000297  0.00004890  -0.00000629  1
  Li  Li5  1  -0.00001604  0.00002150  0.50000873  1
  Li  Li6  1  0.25000512  0.50006755  0.75000004  1
  Li  Li7  1  0.75000940  0.50006418  0.24998714  1
  Ti  Ti0  1  0.87498233  0.25004379  0.62495216  1
  Ti  Ti1  1  0.37502641  0.25001850  0.12503821  1
  Ti  Ti2  1  0.62498497  0.74998580  0.37499930  1
  Ti  Ti3  1  0.12501915  0.75000210  0.87499499  1
  Cr  Cr0  1  0.75000863  0.50004153  0.74996359  1
  Cr  Cr1  1  0.49996812  -0.00011840  0.50002102  1
  Cr  Cr2  1  0.25000893  0.49999483  0.25001564  1
  Cr  Cr3  1  0.00002199  -0.00000636  -0.00000351  1
  O  O0  1  0.99646333  0.49296150  0.50350980  1
  O  O1  1  0.49650776  0.49294809  0.00351661  1
  O  O2  1  0.74648754  0.99286871  0.25349857  1
  O  O3  1  0.24647525  0.99287365  0.75353682  1
  O  O4  1  0.75352454  0.00707266  0.74648149  1
  O  O5  1  0.25351260  0.00704657  0.24648121  1
  O  O6  1  0.50353157  0.50710199  0.49648934  1
  O  O7  1  0.00348269  0.50709986  0.99649960  1
  O  O8  1  0.87925914  0.75851184  0.12075159  1
  O  O9  1  0.37916413  0.75833458  0.62082418  1
  O  O10  1  0.62916968  0.25839629  0.87082557  1
  O  O11  1  0.12919397  0.25841581  0.37080969  1
  O  O12  1  0.37079637  0.74152415  0.12920253  1
  O  O13  1  0.87083410  0.74160776  0.62916853  1
  O  O14  1  0.12077649  0.24159498  0.87915784  1
  O  O15  1  0.62084822  0.24158673  0.37922127  1
loop_
_geom_bond_atom_site_label_1
_geom_bond_atom_site_label_2
_geom_bond_distance
_geom_bond_site_symmetry_2
Li0 O10 2.022050 1_555
Li0 O11 2.022202 1_555
Li0 O14 2.022526 1_555
Li0 O15 2.022775 1_555
Li0 O3 2.159010 1_545
Li0 O6 2.160189 1_555
Li1 O10 2.022057 1_554
Li1 O11 2.022228 1_655
Li1 O15 2.022555 1_555
Li1 O14 2.022647 1_654
Li1 O2 2.159548 1_545
Li1 O7 2.159675 1_654
Li2 O8 2.021832 1_455
Li2 O9 2.022328 1_555
Li2 O13 2.022378 1_455
Li2 O12 2.022965 1_555
Li2 O0 2.158925 1_455
Li2 O5 2.159070 1_565
Li3 O8 2.021891 1_556
Li3 O12 2.022236 1_556
Li3 O9 2.022447 1_555
Li3 O13 2.023014 1_555
Li3 O1 2.159086 1_556
Li3 O4 2.159241 1_565
Li4 O3 2.021722 1_544
Li4 O2 2.021743 1_545
Li4 O5 2.022188 1_555
Li4 O4 2.022284 1_554
Li4 O10 2.169958 1_554
Li4 O12 2.171447 1_545
Li5 O2 2.021805 1_445
Li5 O3 2.021856 1_545
Li5 O4 2.022233 1_455
Li5 O5 2.022370 1_555
Li5 O11 2.170352 1_555
Li5 O13 2.170515 1_445
Li6 O1 2.021848 1_556
Li6 O0 2.021896 1_455
Li6 O6 2.022257 1_555
Li6 O7 2.022515 1_555
Li6 O9 2.169282 1_555
Li6 O14 2.171009 1_555
Li7 O1 2.021657 1_555
Li7 O0 2.021672 1_555
Li7 O7 2.021944 1_654
Li7 O6 2.022369 1_555
Li7 O8 2.170800 1_555
Li7 O15 2.171050 1_555
Cr0 O6 2.021559 1_555
Cr0 O7 2.021796 1_655
Cr0 O1 2.022101 1_556
Cr0 O0 2.022261 1_555
Cr0 O13 2.029006 1_555
Cr0 O10 2.029670 1_555
Cr1 O5 2.021763 1_555
Cr1 O4 2.021856 1_555
Cr1 O3 2.022243 1_545
Cr1 O2 2.022512 1_545
Cr1 O9 2.028845 1_545
Cr1 O15 2.030173 1_555
Cr2 O6 2.021752 1_555
Cr2 O7 2.021938 1_554
Cr2 O0 2.022272 1_455
Cr2 O1 2.022479 1_555
Cr2 O12 2.028696 1_555
Cr2 O11 2.029114 1_555
Cr3 O5 2.021654 1_555
Cr3 O4 2.021811 1_454
Cr3 O2 2.021911 1_445
Cr3 O3 2.022450 1_544
Cr3 O8 2.028297 1_445
Cr3 O14 2.029301 1_554
O0 Ti0 2.040358 1_555
O1 Ti1 2.040457 1_555
O2 Ti2 2.040065 1_555
O3 Ti3 2.039970 1_555
O4 Ti0 2.040806 1_555
O5 Ti1 2.040813 1_555
O6 Ti2 2.040073 1_555
O7 Ti3 2.040228 1_555
O8 Ti2 2.022629 1_555
O8 Ti3 2.022807 1_654
O9 Ti3 2.022522 1_555
O9 Ti2 2.022631 1_555
O10 Ti1 2.022515 1_556
O10 Ti0 2.022810 1_555
O11 Ti0 2.022529 1_455
O11 Ti1 2.022672 1_555
O12 Ti2 2.022076 1_555
O12 Ti3 2.022079 1_554
O13 Ti3 2.022162 1_655
O13 Ti2 2.022185 1_555
O14 Ti0 2.022131 1_455
O14 Ti1 2.022650 1_556
O15 Ti0 2.021588 1_555
O15 Ti1 2.022146 1_555
