# generated using pymatgen
data_Hf(AlNi4)3
_symmetry_space_group_name_H-M   'P 1'
_cell_length_a   3.62116900
_cell_length_b   3.62116900
_cell_length_c   14.27295900
_cell_angle_alpha   90.00000000
_cell_angle_beta   90.00000000
_cell_angle_gamma   90.00000000
_symmetry_Int_Tables_number   1
_chemical_formula_structural   Hf(AlNi4)3
_chemical_formula_sum   'Hf1 Al3 Ni12'
_cell_volume   187.15938347
_cell_formula_units_Z   1
loop_
 _symmetry_equiv_pos_site_id
 _symmetry_equiv_pos_as_xyz
  1  'x, y, z'
loop_
 _atom_site_type_symbol
 _atom_site_label
 _atom_site_symmetry_multiplicity
 _atom_site_fract_x
 _atom_site_fract_y
 _atom_site_fract_z
 _atom_site_occupancy
  Hf  Hf0  1  0.00000000  0.00000000  0.00000000  1
  Al  Al0  1  0.00000000  0.00000000  0.25518500  1
  Al  Al1  1  0.00000000  0.00000000  0.50000000  1
  Al  Al2  1  0.00000000  0.00000000  0.74481500  1
  Ni  Ni0  1  0.50000000  0.50000000  0.00000000  1
  Ni  Ni1  1  0.50000000  0.50000000  0.25495100  1
  Ni  Ni2  1  0.50000000  0.50000000  0.50000000  1
  Ni  Ni3  1  0.50000000  0.50000000  0.74504900  1
  Ni  Ni4  1  0.50000000  0.00000000  0.13315400  1
  Ni  Ni5  1  0.50000000  0.00000000  0.37686900  1
  Ni  Ni6  1  0.50000000  0.00000000  0.62313100  1
  Ni  Ni7  1  0.50000000  0.00000000  0.86684600  1
  Ni  Ni8  1  0.00000000  0.50000000  0.13315400  1
  Ni  Ni9  1  0.00000000  0.50000000  0.37686900  1
  Ni  Ni10  1  0.00000000  0.50000000  0.62313100  1
  Ni  Ni11  1  0.00000000  0.50000000  0.86684600  1
loop_
_geom_bond_atom_site_label_1
_geom_bond_atom_site_label_2
_geom_bond_distance
_geom_bond_site_symmetry_2
Hf0 Ni0 2.560553 1_545
Hf0 Ni0 2.560553 1_445
Hf0 Ni0 2.560553 1_455
Hf0 Ni0 2.560553 1_555
Hf0 Ni11 2.624904 1_544
Hf0 Ni8 2.624904 1_545
Hf0 Ni8 2.624904 1_555
Hf0 Ni4 2.624904 1_555
Hf0 Ni11 2.624904 1_554
Hf0 Ni7 2.624904 1_554
Hf0 Ni7 2.624904 1_454
Hf0 Ni4 2.624904 1_455
Al0 Ni5 2.508916 1_555
Al0 Ni9 2.508916 1_555
Al0 Ni9 2.508916 1_545
Al0 Ni5 2.508916 1_455
Al0 Ni4 2.512347 1_455
Al0 Ni4 2.512347 1_555
Al0 Ni8 2.512347 1_555
Al0 Ni8 2.512347 1_545
Al0 Ni1 2.560555 1_455
Al0 Ni1 2.560555 1_445
Al0 Ni1 2.560555 1_555
Al0 Ni1 2.560555 1_545
Al1 Ni9 2.523257 1_545
Al1 Ni6 2.523257 1_555
Al1 Ni10 2.523257 1_545
Al1 Ni10 2.523257 1_555
Al1 Ni6 2.523257 1_455
Al1 Ni5 2.523257 1_555
Al1 Ni5 2.523257 1_455
Al1 Ni9 2.523257 1_555
Al1 Ni2 2.560553 1_455
Al1 Ni2 2.560553 1_445
Al1 Ni2 2.560553 1_545
Al1 Ni2 2.560553 1_555
Al2 Ni6 2.508916 1_555
Al2 Ni10 2.508916 1_545
Al2 Ni10 2.508916 1_555
Al2 Ni6 2.508916 1_455
Al2 Ni7 2.512347 1_455
Al2 Ni7 2.512347 1_555
Al2 Ni11 2.512347 1_545
Al2 Ni11 2.512347 1_555
Al2 Ni3 2.560555 1_555
Al2 Ni3 2.560555 1_455
Al2 Ni3 2.560555 1_445
Al2 Ni3 2.560555 1_545
Ni0 Ni4 2.624904 1_565
Ni0 Ni7 2.624904 1_564
Ni0 Ni4 2.624904 1_555
Ni0 Ni8 2.624904 1_555
Ni0 Ni7 2.624904 1_554
Ni0 Ni11 2.624904 1_654
Ni0 Ni11 2.624904 1_554
Ni0 Ni8 2.624904 1_655
Ni1 Ni8 2.510033 1_655
Ni1 Ni4 2.510033 1_565
Ni1 Ni4 2.510033 1_555
Ni1 Ni8 2.510033 1_555
Ni1 Ni9 2.511229 1_655
Ni1 Ni5 2.511229 1_565
Ni1 Ni5 2.511229 1_555
Ni1 Ni9 2.511229 1_555
Ni2 Ni6 2.523257 1_565
Ni2 Ni6 2.523257 1_555
Ni2 Ni9 2.523257 1_655
Ni2 Ni5 2.523257 1_565
Ni2 Ni5 2.523257 1_555
Ni2 Ni9 2.523257 1_555
Ni3 Ni7 2.510033 1_565
Ni3 Ni7 2.510033 1_555
Ni3 Ni6 2.511229 1_565
Ni3 Ni6 2.511229 1_555
Ni4 Ni8 2.560553 1_655
Ni4 Ni8 2.560553 1_555
Ni4 Ni8 2.560553 1_545
Ni4 Ni8 2.560553 1_645
Ni5 Ni9 2.560553 1_655
Ni5 Ni9 2.560553 1_645
Ni5 Ni9 2.560553 1_555
Ni5 Ni9 2.560553 1_545
Ni10 Ni3 2.511229 1_455
Ni10 Ni3 2.511229 1_555
Ni10 Ni2 2.523257 1_455
Ni10 Ni2 2.523257 1_555
Ni10 Ni6 2.560553 1_565
Ni10 Ni6 2.560553 1_555
Ni10 Ni6 2.560553 1_455
Ni10 Ni6 2.560553 1_465
Ni11 Ni3 2.510033 1_455
Ni11 Ni3 2.510033 1_555
Ni11 Ni7 2.560553 1_565
Ni11 Ni7 2.560553 1_555
Ni11 Ni7 2.560553 1_465
Ni11 Ni7 2.560553 1_455
