# generated using pymatgen
data_Al3(PO8)2
_symmetry_space_group_name_H-M   'P 1'
_cell_length_a   7.16821300
_cell_length_b   9.95116700
_cell_length_c   17.51765400
_cell_angle_alpha   90.00000000
_cell_angle_beta   90.00000000
_cell_angle_gamma   90.00000000
_symmetry_Int_Tables_number   1
_chemical_formula_structural   Al3(PO8)2
_chemical_formula_sum   'Al12 P8 O64'
_cell_volume   1249.57077808
_cell_formula_units_Z   4
loop_
 _symmetry_equiv_pos_site_id
 _symmetry_equiv_pos_as_xyz
  1  'x, y, z'
loop_
 _atom_site_type_symbol
 _atom_site_label
 _atom_site_symmetry_multiplicity
 _atom_site_fract_x
 _atom_site_fract_y
 _atom_site_fract_z
 _atom_site_occupancy
  Al  Al0  1  0.84637200  0.78820600  0.25000000  1
  Al  Al1  1  0.34637200  0.71179400  0.25000000  1
  Al  Al2  1  0.15362800  0.21179400  0.75000000  1
  Al  Al3  1  0.65362800  0.28820600  0.75000000  1
  Al  Al4  1  0.86279900  0.22981600  0.01800600  1
  Al  Al5  1  0.36279900  0.27018400  0.48199400  1
  Al  Al6  1  0.13720100  0.77018400  0.51800600  1
  Al  Al7  1  0.63720100  0.72981600  0.98199400  1
  Al  Al8  1  0.13720100  0.77018400  0.98199400  1
  Al  Al9  1  0.63720100  0.72981600  0.51800600  1
  Al  Al10  1  0.86279900  0.22981600  0.48199400  1
  Al  Al11  1  0.36279900  0.27018400  0.01800600  1
  P  P0  1  0.89010700  0.93117200  0.08908700  1
  P  P1  1  0.39010700  0.56882800  0.41091300  1
  P  P2  1  0.10989300  0.06882800  0.58908700  1
  P  P3  1  0.60989300  0.43117200  0.91091300  1
  P  P4  1  0.10989300  0.06882800  0.91091300  1
  P  P5  1  0.60989300  0.43117200  0.58908700  1
  P  P6  1  0.89010700  0.93117200  0.41091300  1
  P  P7  1  0.39010700  0.56882800  0.08908700  1
  O  O0  1  0.60691000  0.20260500  0.02611700  1
  O  O1  1  0.10691000  0.29739500  0.47388300  1
  O  O2  1  0.39309000  0.79739500  0.52611700  1
  O  O3  1  0.89309000  0.70260500  0.97388300  1
  O  O4  1  0.39309000  0.79739500  0.97388300  1
  O  O5  1  0.89309000  0.70260500  0.52611700  1
  O  O6  1  0.60691000  0.20260500  0.47388300  1
  O  O7  1  0.10691000  0.29739500  0.02611700  1
  O  O8  1  0.78624700  0.29753800  0.11886200  1
  O  O9  1  0.28624700  0.20246200  0.38113800  1
  O  O10  1  0.21375300  0.70246200  0.61886200  1
  O  O11  1  0.71375300  0.79753800  0.88113800  1
  O  O12  1  0.21375300  0.70246200  0.88113800  1
  O  O13  1  0.71375300  0.79753800  0.61886200  1
  O  O14  1  0.78624700  0.29753800  0.38113800  1
  O  O15  1  0.28624700  0.20246200  0.11886200  1
  O  O16  1  0.91580800  0.08489400  0.08083400  1
  O  O17  1  0.41580800  0.41510600  0.41916600  1
  O  O18  1  0.08419200  0.91510600  0.58083400  1
  O  O19  1  0.58419200  0.58489400  0.91916600  1
  O  O20  1  0.08419200  0.91510600  0.91916600  1
  O  O21  1  0.58419200  0.58489400  0.58083400  1
  O  O22  1  0.91580800  0.08489400  0.41916600  1
  O  O23  1  0.41580800  0.41510600  0.08083400  1
  O  O24  1  0.60131600  0.73522900  0.25000000  1
  O  O25  1  0.10131600  0.76477100  0.25000000  1
  O  O26  1  0.39868400  0.26477100  0.75000000  1
  O  O27  1  0.89868400  0.23522900  0.75000000  1
  O  O28  1  0.82995700  0.90541500  0.17108300  1
  O  O29  1  0.32995700  0.59458500  0.32891700  1
  O  O30  1  0.17004300  0.09458500  0.67108300  1
  O  O31  1  0.67004300  0.40541500  0.82891700  1
  O  O32  1  0.17004300  0.09458500  0.82891700  1
  O  O33  1  0.67004300  0.40541500  0.67108300  1
  O  O34  1  0.82995700  0.90541500  0.32891700  1
  O  O35  1  0.32995700  0.59458500  0.17108300  1
  O  O36  1  0.57659400  0.63830900  0.07012600  1
  O  O37  1  0.07659400  0.86169100  0.42987400  1
  O  O38  1  0.42340600  0.36169100  0.57012600  1
  O  O39  1  0.92340600  0.13830900  0.92987400  1
  O  O40  1  0.42340600  0.36169100  0.92987400  1
  O  O41  1  0.92340600  0.13830900  0.57012600  1
  O  O42  1  0.57659400  0.63830900  0.42987400  1
  O  O43  1  0.07659400  0.86169100  0.07012600  1
  O  O44  1  0.73670500  0.88150300  0.03168200  1
  O  O45  1  0.23670500  0.61849700  0.46831800  1
  O  O46  1  0.26329500  0.11849700  0.53168200  1
  O  O47  1  0.76329500  0.38150300  0.96831800  1
  O  O48  1  0.26329500  0.11849700  0.96831800  1
  O  O49  1  0.76329500  0.38150300  0.53168200  1
  O  O50  1  0.73670500  0.88150300  0.46831800  1
  O  O51  1  0.23670500  0.61849700  0.03168200  1
  O  O52  1  0.90158600  0.64723500  0.17648300  1
  O  O53  1  0.40158600  0.85276500  0.32351700  1
  O  O54  1  0.09841400  0.35276500  0.67648300  1
  O  O55  1  0.59841400  0.14723500  0.82351700  1
  O  O56  1  0.09841400  0.35276500  0.82351700  1
  O  O57  1  0.59841400  0.14723500  0.67648300  1
  O  O58  1  0.90158600  0.64723500  0.32351700  1
  O  O59  1  0.40158600  0.85276500  0.17648300  1
  O  O60  1  0.75235300  0.23987400  0.25000000  1
  O  O61  1  0.25235300  0.26012600  0.25000000  1
  O  O62  1  0.24764700  0.76012600  0.75000000  1
  O  O63  1  0.74764700  0.73987400  0.75000000  1
loop_
_geom_bond_atom_site_label_1
_geom_bond_atom_site_label_2
_geom_bond_distance
_geom_bond_site_symmetry_2
Al0 O34 1.812567 1_555
Al0 O28 1.812567 1_555
Al0 O24 1.834016 1_555
Al0 O25 1.842312 1_655
Al0 O58 1.945023 1_555
Al0 O52 1.945023 1_555
Al1 O29 1.812567 1_555
Al1 O35 1.812567 1_555
Al1 O25 1.834016 1_555
Al1 O24 1.842312 1_555
Al1 O59 1.945023 1_555
Al1 O53 1.945023 1_555
Al2 O32 1.812567 1_555
Al2 O30 1.812567 1_555
Al2 O26 1.834016 1_555
Al2 O27 1.842312 1_455
Al2 O56 1.945023 1_555
Al2 O54 1.945023 1_555
Al3 O31 1.812567 1_555
Al3 O33 1.812567 1_555
Al3 O27 1.834016 1_555
Al3 O26 1.842312 1_555
Al3 O55 1.945023 1_555
Al3 O57 1.945023 1_555
Al4 O39 1.844304 1_554
Al4 O16 1.853505 1_555
Al4 O0 1.859582 1_555
Al4 O7 1.879992 1_655
Al4 O47 1.882778 1_554
Al4 O8 1.968938 1_555
Al5 O38 1.844304 1_555
Al5 O17 1.853505 1_555
Al5 O1 1.859582 1_555
Al5 O6 1.879992 1_555
Al5 O46 1.882778 1_555
Al5 O9 1.968938 1_555
Al6 O37 1.844304 1_555
Al6 O18 1.853505 1_555
Al6 O2 1.859582 1_555
Al6 O5 1.879992 1_455
Al6 O45 1.882778 1_555
Al6 O10 1.968938 1_555
Al7 O36 1.844304 1_556
Al7 O19 1.853505 1_555
Al7 O3 1.859582 1_555
Al7 O4 1.879992 1_555
Al7 O44 1.882778 1_556
Al7 O11 1.968938 1_555
Al8 O43 1.844304 1_556
Al8 O20 1.853505 1_555
Al8 O4 1.859582 1_555
Al8 O3 1.879992 1_455
Al8 O51 1.882778 1_556
Al8 O12 1.968938 1_555
Al9 O42 1.844304 1_555
Al9 O21 1.853505 1_555
Al9 O5 1.859582 1_555
Al9 O2 1.879992 1_555
Al9 O50 1.882778 1_555
Al9 O13 1.968938 1_555
Al10 O41 1.844304 1_555
Al10 O22 1.853505 1_555
Al10 O6 1.859582 1_555
Al10 O1 1.879992 1_655
Al10 O49 1.882778 1_555
Al10 O14 1.968938 1_555
Al11 O40 1.844304 1_554
Al11 O23 1.853505 1_555
Al11 O7 1.859582 1_555
Al11 O0 1.879992 1_555
Al11 O48 1.882778 1_554
Al11 O15 1.968938 1_555
O16 P0 1.547535 1_545
O17 P1 1.547535 1_555
O18 P2 1.547535 1_565
O19 P3 1.547535 1_555
O20 P4 1.547535 1_565
O21 P5 1.547535 1_555
O22 P6 1.547535 1_545
O23 P7 1.547535 1_555
O28 P0 1.521441 1_555
O29 P1 1.521441 1_555
O30 P2 1.521441 1_555
O31 P3 1.521441 1_555
O32 P4 1.521441 1_555
O33 P5 1.521441 1_555
O34 P6 1.521441 1_555
O35 P7 1.521441 1_555
O36 P7 1.541220 1_555
O37 P6 1.541220 1_455
O38 P5 1.541220 1_555
O39 P4 1.541220 1_655
O40 P3 1.541220 1_555
O41 P2 1.541220 1_655
O42 P1 1.541220 1_555
O43 P0 1.541220 1_455
O44 P0 1.569933 1_555
O45 P1 1.569933 1_555
O46 P2 1.569933 1_555
O47 P3 1.569933 1_555
O48 P4 1.569933 1_555
O49 P5 1.569933 1_555
O50 P6 1.569933 1_555
O51 P7 1.569933 1_555
