# generated using pymatgen
data_Ta2Zn(CuO4)2
_symmetry_space_group_name_H-M   'P 1'
_cell_length_a   8.68392800
_cell_length_b   6.65667800
_cell_length_c   12.27046827
_cell_angle_alpha   88.07146132
_cell_angle_beta   90.00000000
_cell_angle_gamma   90.00000000
_symmetry_Int_Tables_number   1
_chemical_formula_structural   Ta2Zn(CuO4)2
_chemical_formula_sum   'Ta8 Zn4 Cu8 O32'
_cell_volume   708.90630080
_cell_formula_units_Z   4
loop_
 _symmetry_equiv_pos_site_id
 _symmetry_equiv_pos_as_xyz
  1  'x, y, z'
loop_
 _atom_site_type_symbol
 _atom_site_label
 _atom_site_symmetry_multiplicity
 _atom_site_fract_x
 _atom_site_fract_y
 _atom_site_fract_z
 _atom_site_occupancy
  Ta  Ta0  1  0.54533800  0.90270600  0.84422700  1
  Ta  Ta1  1  0.95466200  0.90270600  0.34422700  1
  Ta  Ta2  1  0.91173000  0.38825500  0.13570400  1
  Ta  Ta3  1  0.04533800  0.09729400  0.65577300  1
  Ta  Ta4  1  0.08827000  0.61174500  0.86429600  1
  Ta  Ta5  1  0.41173000  0.61174500  0.36429600  1
  Ta  Ta6  1  0.58827000  0.38825500  0.63570400  1
  Ta  Ta7  1  0.45466200  0.09729400  0.15577300  1
  Zn  Zn0  1  0.83662000  0.89138000  0.05246900  1
  Zn  Zn1  1  0.16338000  0.10862000  0.94753100  1
  Zn  Zn2  1  0.33662000  0.10862000  0.44753100  1
  Zn  Zn3  1  0.66338000  0.89138000  0.55246900  1
  Cu  Cu0  1  0.81559200  0.23472800  0.87721500  1
  Cu  Cu1  1  0.94113200  0.62445000  0.62397200  1
  Cu  Cu2  1  0.05886800  0.37555000  0.37602800  1
  Cu  Cu3  1  0.18440800  0.76527200  0.12278500  1
  Cu  Cu4  1  0.68440800  0.23472800  0.37721500  1
  Cu  Cu5  1  0.55886800  0.62445000  0.12397200  1
  Cu  Cu6  1  0.31559200  0.76527200  0.62278500  1
  Cu  Cu7  1  0.44113200  0.37555000  0.87602800  1
  O  O0  1  0.75667000  0.96253600  0.40041300  1
  O  O1  1  0.98406700  0.34650600  0.60154400  1
  O  O2  1  0.41999900  0.81122200  0.47212600  1
  O  O3  1  0.91999900  0.18877800  0.02787400  1
  O  O4  1  0.74333000  0.96253600  0.90041300  1
  O  O5  1  0.24333000  0.03746400  0.59958700  1
  O  O6  1  0.89299100  0.91088000  0.61310100  1
  O  O7  1  0.10229500  0.50054800  0.13839500  1
  O  O8  1  0.39770500  0.50054800  0.63839500  1
  O  O9  1  0.12753200  0.70039600  0.71622100  1
  O  O10  1  0.62753200  0.29960400  0.78377900  1
  O  O11  1  0.89770500  0.49945200  0.86160500  1
  O  O12  1  0.10700900  0.08912000  0.38689900  1
  O  O13  1  0.45617100  0.11732400  0.30534200  1
  O  O14  1  0.72251300  0.58937600  0.58645700  1
  O  O15  1  0.77748700  0.58937600  0.08645700  1
  O  O16  1  0.95617100  0.88267600  0.19465800  1
  O  O17  1  0.60229500  0.49945200  0.36160500  1
  O  O18  1  0.54382900  0.88267600  0.69465800  1
  O  O19  1  0.58000100  0.18877800  0.52787400  1
  O  O20  1  0.51593300  0.34650600  0.10154400  1
  O  O21  1  0.87246800  0.29960400  0.28377900  1
  O  O22  1  0.25667000  0.03746400  0.09958700  1
  O  O23  1  0.60700900  0.91088000  0.11310100  1
  O  O24  1  0.08000100  0.81122200  0.97212600  1
  O  O25  1  0.22251300  0.41062400  0.91354300  1
  O  O26  1  0.01593300  0.65349400  0.39845600  1
  O  O27  1  0.48406700  0.65349400  0.89845600  1
  O  O28  1  0.39299100  0.08912000  0.88689900  1
  O  O29  1  0.27748700  0.41062400  0.41354300  1
  O  O30  1  0.37246800  0.70039600  0.21622100  1
  O  O31  1  0.04382900  0.11732400  0.80534200  1
loop_
_geom_bond_atom_site_label_1
_geom_bond_atom_site_label_2
_geom_bond_distance
_geom_bond_site_symmetry_2
Cu0 O11 1.904657 1_555
Cu0 O4 1.929521 1_545
Cu0 O10 2.033387 1_555
Cu0 O3 2.072455 1_556
Cu0 O31 2.315867 1_655
Cu1 O1 1.916298 1_555
Cu1 O6 1.952138 1_555
Cu1 O14 1.969223 1_555
Cu1 O9 2.048296 1_655
Cu2 O26 1.916298 1_555
Cu2 O12 1.952138 1_555
Cu2 O29 1.969223 1_555
Cu2 O21 2.048296 1_455
Cu3 O7 1.904657 1_555
Cu3 O22 1.929521 1_565
Cu3 O30 2.033387 1_555
Cu3 O24 2.072455 1_554
Cu3 O16 2.315867 1_455
Cu4 O17 1.904657 1_555
Cu4 O0 1.929521 1_545
Cu4 O21 2.033387 1_555
Cu4 O19 2.072455 1_555
Cu4 O13 2.315867 1_555
Cu5 O20 1.916298 1_555
Cu5 O23 1.952138 1_555
Cu5 O15 1.969223 1_555
Cu5 O30 2.048296 1_555
Cu6 O8 1.904657 1_555
Cu6 O5 1.929521 1_565
Cu6 O9 2.033387 1_555
Cu6 O2 2.072455 1_555
Cu6 O18 2.315867 1_555
Cu7 O27 1.916298 1_555
Cu7 O28 1.952138 1_555
Cu7 O25 1.969223 1_555
Cu7 O10 2.048296 1_555
O0 Ta1 1.899623 1_555
O0 Zn3 2.074217 1_555
O1 Ta3 1.844888 1_655
O2 Ta5 1.907161 1_555
O2 Zn2 2.119969 1_565
O2 Zn3 2.399772 1_555
O3 Ta2 1.907161 1_555
O3 Zn0 2.119969 1_545
O3 Zn1 2.399772 1_654
O4 Ta0 1.899623 1_555
O4 Zn0 2.074217 1_556
O5 Ta3 1.899623 1_555
O5 Zn2 2.074217 1_555
O6 Ta3 1.899466 1_665
O6 Zn3 2.133682 1_555
O7 Ta2 1.816602 1_455
O8 Ta6 1.816602 1_555
O9 Ta4 1.921881 1_555
O10 Ta6 1.921881 1_555
O11 Ta4 1.816602 1_655
O12 Ta1 1.899466 1_445
O12 Zn2 2.133682 1_555
O13 Ta7 1.844635 1_555
O13 Zn2 2.029390 1_555
O14 Ta6 1.860665 1_555
O14 Zn3 2.103014 1_555
O15 Ta2 1.860665 1_555
O15 Zn0 2.103014 1_555
O16 Ta1 1.844635 1_555
O16 Zn0 2.029390 1_555
O17 Ta5 1.816602 1_555
O18 Ta0 1.844635 1_555
O18 Zn3 2.029390 1_555
O19 Ta6 1.907161 1_555
O19 Zn3 2.119969 1_545
O19 Zn2 2.399772 1_555
O20 Ta7 1.844888 1_555
O21 Ta2 1.921881 1_555
O22 Ta7 1.899623 1_555
O22 Zn1 2.074217 1_554
O23 Ta7 1.899466 1_565
O23 Zn0 2.133682 1_555
O24 Ta4 1.907161 1_555
O24 Zn1 2.119969 1_565
O24 Zn0 2.399772 1_456
O25 Ta4 1.860665 1_555
O25 Zn1 2.103014 1_555
O26 Ta1 1.844888 1_455
O27 Ta0 1.844888 1_555
O28 Ta0 1.899466 1_545
O28 Zn1 2.133682 1_555
O29 Ta5 1.860665 1_555
O29 Zn2 2.103014 1_555
O30 Ta5 1.921881 1_555
O31 Ta3 1.844635 1_555
O31 Zn1 2.029390 1_555
