# generated using pymatgen
data_CrFe11Si4
_symmetry_space_group_name_H-M   'P 1'
_cell_length_a   13.13160165
_cell_length_b   13.13160165
_cell_length_c   13.13160133
_cell_angle_alpha   17.29729461
_cell_angle_beta   17.29729461
_cell_angle_gamma   17.29729502
_symmetry_Int_Tables_number   1
_chemical_formula_structural   CrFe11Si4
_chemical_formula_sum   'Cr1 Fe11 Si4'
_cell_volume   174.68117217
_cell_formula_units_Z   1
loop_
 _symmetry_equiv_pos_site_id
 _symmetry_equiv_pos_as_xyz
  1  'x, y, z'
loop_
 _atom_site_type_symbol
 _atom_site_label
 _atom_site_symmetry_multiplicity
 _atom_site_fract_x
 _atom_site_fract_y
 _atom_site_fract_z
 _atom_site_occupancy
  Cr  Cr0  1  0.00000000  0.00000000  0.00000000  1
  Fe  Fe0  1  0.56276300  0.56276300  0.56276300  1
  Fe  Fe1  1  0.81239700  0.81239700  0.81239700  1
  Fe  Fe2  1  0.06148500  0.06148500  0.06148500  1
  Fe  Fe3  1  0.31332900  0.31332900  0.31332900  1
  Fe  Fe4  1  0.18760300  0.18760300  0.18760300  1
  Fe  Fe5  1  0.43723700  0.43723700  0.43723700  1
  Fe  Fe6  1  0.68667100  0.68667100  0.68667100  1
  Fe  Fe7  1  0.93851500  0.93851500  0.93851500  1
  Fe  Fe8  1  0.24945800  0.24945800  0.24945800  1
  Fe  Fe9  1  0.50000000  0.50000000  0.50000000  1
  Fe  Fe10  1  0.75054200  0.75054200  0.75054200  1
  Si  Si0  1  0.87489400  0.87489400  0.87489400  1
  Si  Si1  1  0.12510600  0.12510600  0.12510600  1
  Si  Si2  1  0.37530200  0.37530200  0.37530200  1
  Si  Si3  1  0.62469800  0.62469800  0.62469800  1
loop_
_geom_bond_atom_site_label_1
_geom_bond_atom_site_label_2
_geom_bond_distance
_geom_bond_site_symmetry_2
Cr0 Fe2 2.385395 1_555
Cr0 Fe7 2.385395 1_444
Cr0 Fe6 2.408605 1_445
Cr0 Fe3 2.408605 1_554
Cr0 Fe6 2.408605 1_454
Cr0 Fe6 2.408605 1_544
Cr0 Fe3 2.408605 1_545
Cr0 Fe3 2.408605 1_455
Fe0 Si3 2.402854 1_555
Fe0 Fe8 2.408905 1_556
Fe0 Fe8 2.408905 1_565
Fe0 Fe8 2.408905 1_655
Fe0 Si0 2.423980 1_554
Fe0 Si0 2.423980 1_545
Fe0 Si0 2.423980 1_455
Fe0 Fe9 2.434977 1_555
Fe1 Fe10 2.399750 1_555
Fe1 Si1 2.416463 1_665
Fe1 Si1 2.416463 1_656
Fe1 Si1 2.416463 1_566
Fe1 Fe9 2.420498 1_556
Fe1 Fe9 2.420498 1_565
Fe1 Fe9 2.420498 1_655
Fe1 Si0 2.424657 1_555
Fe2 Si2 2.402571 1_554
Fe2 Si2 2.402571 1_545
Fe2 Si2 2.402571 1_455
Fe2 Si1 2.468265 1_555
Fe3 Si2 2.404328 1_555
Fe3 Si3 2.434171 1_554
Fe3 Si3 2.434171 1_545
Fe3 Si3 2.434171 1_455
Fe3 Fe8 2.477964 1_555
Fe4 Fe8 2.399750 1_555
Fe4 Si0 2.416463 1_445
Fe4 Si0 2.416463 1_454
Fe4 Si0 2.416463 1_544
Fe4 Fe9 2.420498 1_554
Fe4 Fe9 2.420498 1_545
Fe4 Fe9 2.420498 1_455
Fe4 Si1 2.424657 1_555
Fe5 Si2 2.402854 1_555
Fe5 Si1 2.423980 1_556
Fe5 Si1 2.423980 1_655
Fe5 Si1 2.423980 1_565
Fe5 Fe9 2.434977 1_555
Fe6 Si3 2.404328 1_555
Fe6 Si2 2.434171 1_556
Fe6 Si2 2.434171 1_655
Fe6 Si2 2.434171 1_565
Fe7 Si3 2.402571 1_556
Fe7 Si3 2.402571 1_655
Fe7 Si3 2.402571 1_565
Fe7 Fe8 2.440006 1_665
Fe7 Fe8 2.440006 1_656
Fe7 Fe8 2.440006 1_566
Fe7 Si0 2.468265 1_555
Fe8 Si0 2.785278 1_544
Fe8 Si0 2.785278 1_454
Fe8 Si0 2.785278 1_445
Fe8 Si3 2.800423 1_455
Fe8 Si3 2.800423 1_545
Fe8 Si3 2.800423 1_554
Fe9 Si0 2.792651 1_545
Fe9 Si0 2.792651 1_455
Fe9 Si1 2.792651 1_655
Fe9 Si1 2.792651 1_565
Fe9 Si0 2.792651 1_554
Fe9 Si1 2.792651 1_556
Fe10 Fe5 2.408905 1_556
Fe10 Fe5 2.408905 1_655
Fe10 Fe5 2.408905 1_565
Fe10 Fe2 2.440006 1_665
Fe10 Fe2 2.440006 1_566
Fe10 Fe2 2.440006 1_656
Fe10 Fe6 2.477964 1_555
Fe10 Si1 2.785278 1_656
Fe10 Si1 2.785278 1_566
Fe10 Si1 2.785278 1_665
Fe10 Si2 2.800423 1_655
Fe10 Si2 2.800423 1_565
Fe10 Si2 2.800423 1_556
