# generated using pymatgen
data_MgNiP2O7
_symmetry_space_group_name_H-M   'P 1'
_cell_length_a   6.53948208
_cell_length_b   11.08814770
_cell_length_c   7.17083943
_cell_angle_alpha   83.31485263
_cell_angle_beta   88.30279504
_cell_angle_gamma   77.98683394
_symmetry_Int_Tables_number   1
_chemical_formula_structural   MgNiP2O7
_chemical_formula_sum   'Mg4 Ni4 P8 O28'
_cell_volume   505.10995936
_cell_formula_units_Z   4
loop_
 _symmetry_equiv_pos_site_id
 _symmetry_equiv_pos_as_xyz
  1  'x, y, z'
loop_
 _atom_site_type_symbol
 _atom_site_label
 _atom_site_symmetry_multiplicity
 _atom_site_fract_x
 _atom_site_fract_y
 _atom_site_fract_z
 _atom_site_occupancy
  Mg  Mg0  1  0.84535500  0.21255100  0.91288400  1
  Mg  Mg1  1  0.84531900  0.71249400  0.41280700  1
  Mg  Mg2  1  0.15453500  0.78741300  0.08704700  1
  Mg  Mg3  1  0.15476700  0.28744600  0.58713000  1
  Ni  Ni0  1  0.68376100  0.94907200  0.86215900  1
  Ni  Ni1  1  0.31612800  0.05085800  0.13857700  1
  Ni  Ni2  1  0.68410500  0.44878900  0.36124200  1
  Ni  Ni3  1  0.31645300  0.55113100  0.63873800  1
  P  P0  1  0.17194500  0.49334300  0.26116500  1
  P  P1  1  0.17188700  0.99338300  0.76116200  1
  P  P2  1  0.82816200  0.50663800  0.73878200  1
  P  P3  1  0.82800300  0.00672300  0.23884700  1
  P  P4  1  0.62945900  0.66996600  0.02793300  1
  P  P5  1  0.62952100  0.16991600  0.52798000  1
  P  P6  1  0.37050800  0.32997900  0.97205700  1
  P  P7  1  0.37049400  0.83003500  0.47203900  1
  O  O0  1  0.75948100  0.54541900  0.94099300  1
  O  O1  1  0.75947800  0.04545200  0.44109500  1
  O  O2  1  0.24055400  0.45455200  0.05895600  1
  O  O3  1  0.24055300  0.95453900  0.55896800  1
  O  O4  1  0.01896000  0.41447400  0.35346600  1
  O  O5  1  0.01907100  0.91449500  0.85378000  1
  O  O6  1  0.98099200  0.58549500  0.64625000  1
  O  O7  1  0.98097900  0.08548700  0.14631200  1
  O  O8  1  0.59588400  0.31178100  0.03485400  1
  O  O9  1  0.59584800  0.81175200  0.53463900  1
  O  O10  1  0.40413000  0.68822100  0.96510500  1
  O  O11  1  0.40421200  0.18819700  0.46519000  1
  O  O12  1  0.33992300  0.37239700  0.75866500  1
  O  O13  1  0.33962200  0.87242800  0.25869300  1
  O  O14  1  0.66010100  0.62759000  0.24130000  1
  O  O15  1  0.66035300  0.12754000  0.74132700  1
  O  O16  1  0.92529500  0.36821600  0.77072900  1
  O  O17  1  0.92491200  0.86825900  0.27049300  1
  O  O18  1  0.07474100  0.63176300  0.22925600  1
  O  O19  1  0.07474600  0.13177700  0.72926000  1
  O  O20  1  0.63434700  0.53169300  0.61192500  1
  O  O21  1  0.63393400  0.03219500  0.11210700  1
  O  O22  1  0.36572800  0.46829200  0.38805300  1
  O  O23  1  0.36573000  0.96828600  0.88807100  1
  O  O24  1  0.25622700  0.22672800  0.03633100  1
  O  O25  1  0.25616100  0.72677800  0.53632700  1
  O  O26  1  0.74378300  0.77324200  0.96365100  1
  O  O27  1  0.74385100  0.27321500  0.46365700  1
loop_
_geom_bond_atom_site_label_1
_geom_bond_atom_site_label_2
_geom_bond_distance
_geom_bond_site_symmetry_2
Mg0 O8 2.007339 1_556
Mg0 O16 2.055722 1_555
Mg0 O19 2.093931 1_655
Mg0 O7 2.142936 1_556
Mg0 O15 2.167592 1_555
Mg1 O9 2.007002 1_555
Mg1 O17 2.056155 1_555
Mg1 O18 2.093543 1_655
Mg1 O6 2.142763 1_555
Mg1 O14 2.167573 1_555
Mg2 O10 2.007618 1_554
Mg2 O18 2.055339 1_555
Mg2 O17 2.094298 1_455
Mg2 O5 2.141890 1_554
Mg2 O13 2.168394 1_555
Mg3 O11 2.007210 1_555
Mg3 O19 2.055909 1_555
Mg3 O16 2.094120 1_455
Mg3 O4 2.144317 1_555
Mg3 O12 2.167752 1_555
Ni0 O26 1.962854 1_555
Ni0 O15 2.042721 1_565
Ni0 O23 2.051143 1_555
Ni0 O21 2.095984 1_566
Ni0 O5 2.146246 1_655
Ni1 O24 1.964672 1_555
Ni1 O13 2.040671 1_545
Ni1 O21 2.050579 1_555
Ni1 O23 2.096449 1_544
Ni1 O7 2.145112 1_455
Ni2 O27 1.962010 1_555
Ni2 O14 2.043628 1_555
Ni2 O22 2.053554 1_555
Ni2 O20 2.099493 1_555
Ni2 O4 2.143335 1_655
Ni3 O25 1.962753 1_555
Ni3 O12 2.043318 1_555
Ni3 O20 2.050499 1_555
Ni3 O22 2.099022 1_555
Ni3 O6 2.147186 1_455
O0 P2 1.586001 1_555
O0 P4 1.642876 1_556
O1 P3 1.585862 1_555
O1 P5 1.641838 1_555
O2 P0 1.585929 1_555
O2 P6 1.642817 1_554
O3 P1 1.586089 1_555
O3 P7 1.642294 1_555
O4 P0 1.547237 1_555
O5 P1 1.547325 1_555
O6 P2 1.546958 1_555
O7 P3 1.547013 1_555
O8 P6 1.519889 1_554
O9 P7 1.519219 1_555
O10 P4 1.519601 1_556
O11 P5 1.519362 1_555
O12 P6 1.553748 1_555
O13 P7 1.553569 1_555
O14 P4 1.553538 1_555
O15 P5 1.553520 1_555
O16 P2 1.527292 1_555
O17 P3 1.527307 1_565
O18 P0 1.527358 1_555
O19 P1 1.527009 1_545
O20 P2 1.540776 1_555
O21 P3 1.541342 1_555
O22 P0 1.540743 1_555
O23 P1 1.541117 1_555
O24 P6 1.514780 1_554
O25 P7 1.515073 1_555
O26 P4 1.515200 1_556
O27 P5 1.515494 1_555
