# generated using pymatgen
data_YbV4O8
_symmetry_space_group_name_H-M   'P 1'
_cell_length_a   5.05023000
_cell_length_b   8.18131325
_cell_length_c   8.17071972
_cell_angle_alpha   85.99744341
_cell_angle_beta   90.00000000
_cell_angle_gamma   90.00000000
_symmetry_Int_Tables_number   1
_chemical_formula_structural   YbV4O8
_chemical_formula_sum   'Yb2 V8 O16'
_cell_volume   336.77041094
_cell_formula_units_Z   2
loop_
 _symmetry_equiv_pos_site_id
 _symmetry_equiv_pos_as_xyz
  1  'x, y, z'
loop_
 _atom_site_type_symbol
 _atom_site_label
 _atom_site_symmetry_multiplicity
 _atom_site_fract_x
 _atom_site_fract_y
 _atom_site_fract_z
 _atom_site_occupancy
  Yb  Yb0  1  0.37335600  0.30757200  0.37918500  1
  Yb  Yb1  1  0.87335600  0.69242800  0.62081500  1
  V  V0  1  0.37651600  0.13385500  0.04566100  1
  V  V1  1  0.38367200  0.99499900  0.64726700  1
  V  V2  1  0.37970500  0.67353200  0.40098200  1
  V  V3  1  0.33729200  0.49945700  0.80130000  1
  V  V4  1  0.83729200  0.50054300  0.19870000  1
  V  V5  1  0.87970500  0.32646800  0.59901800  1
  V  V6  1  0.88367200  0.00500100  0.35273300  1
  V  V7  1  0.87651600  0.86614500  0.95433900  1
  O  O0  1  0.18480000  0.98879100  0.91624700  1
  O  O1  1  0.17260400  0.18055500  0.60746300  1
  O  O2  1  0.18303400  0.54470100  0.25338100  1
  O  O3  1  0.18334100  0.85618100  0.50210300  1
  O  O4  1  0.18717800  0.10611500  0.23758000  1
  O  O5  1  0.19277000  0.49624000  0.58310900  1
  O  O6  1  0.16845200  0.67735100  0.84177200  1
  O  O7  1  0.25103100  0.31962000  0.93814400  1
  O  O8  1  0.68717800  0.89388500  0.76242000  1
  O  O9  1  0.68334100  0.14381900  0.49789700  1
  O  O10  1  0.66845200  0.32264900  0.15822800  1
  O  O11  1  0.69277000  0.50376000  0.41689100  1
  O  O12  1  0.68303400  0.45529900  0.74661900  1
  O  O13  1  0.67260400  0.81944500  0.39253700  1
  O  O14  1  0.75103100  0.68038000  0.06185600  1
  O  O15  1  0.68480000  0.01120900  0.08375300  1
loop_
_geom_bond_atom_site_label_1
_geom_bond_atom_site_label_2
_geom_bond_distance
_geom_bond_site_symmetry_2
O0 V7 1.866560 1_455
O0 V0 1.907684 1_566
O0 V1 2.413683 1_555
O1 V1 1.864855 1_545
O1 V5 1.899047 1_455
O1 Yb0 2.305670 1_555
O2 V4 1.844302 1_455
O2 V2 1.931152 1_555
O2 Yb0 2.337896 1_555
O3 V1 1.976940 1_555
O3 V2 2.017774 1_555
O3 Yb1 2.237192 1_455
O3 V6 2.248302 1_465
O4 V0 1.837153 1_555
O4 V6 1.952008 1_455
O4 Yb0 2.281548 1_555
O5 V3 1.928276 1_555
O5 V5 2.102526 1_455
O5 V2 2.215467 1_555
O5 Yb1 2.311353 1_455
O5 Yb0 2.519837 1_555
O6 V3 1.738336 1_555
O6 Yb1 2.337631 1_455
O6 V7 2.367213 1_455
O7 V0 1.815700 1_556
O7 V3 1.837127 1_555
O8 V7 1.837153 1_555
O8 V1 1.952008 1_555
O8 Yb1 2.281548 1_555
O9 V6 1.976940 1_555
O9 V5 2.017774 1_555
O9 Yb0 2.237192 1_555
O9 V1 2.248302 1_545
O10 V4 1.738336 1_555
O10 Yb0 2.337631 1_555
O10 V0 2.367213 1_555
O11 V4 1.928276 1_555
O11 V2 2.102526 1_555
O11 V5 2.215467 1_555
O11 Yb0 2.311353 1_555
O11 Yb1 2.519837 1_555
O12 V3 1.844302 1_555
O12 V5 1.931152 1_555
O12 Yb1 2.337896 1_555
O13 V6 1.864855 1_565
O13 V2 1.899047 1_555
O13 Yb1 2.305670 1_555
O14 V7 1.815700 1_554
O14 V4 1.837127 1_555
O15 V0 1.866560 1_555
O15 V7 1.907684 1_544
O15 V6 2.413683 1_555
