# generated using pymatgen
data_ErIn5Rh
_symmetry_space_group_name_H-M   'P 1'
_cell_length_a   4.62375538
_cell_length_b   4.62375538
_cell_length_c   7.39713888
_cell_angle_alpha   90.00000000
_cell_angle_beta   90.00000000
_cell_angle_gamma   90.00000000
_symmetry_Int_Tables_number   1
_chemical_formula_structural   ErIn5Rh
_chemical_formula_sum   'Er1 In5 Rh1'
_cell_volume   158.14427401
_cell_formula_units_Z   1
loop_
 _symmetry_equiv_pos_site_id
 _symmetry_equiv_pos_as_xyz
  1  'x, y, z'
loop_
 _atom_site_type_symbol
 _atom_site_label
 _atom_site_symmetry_multiplicity
 _atom_site_fract_x
 _atom_site_fract_y
 _atom_site_fract_z
 _atom_site_occupancy
  Er  Er0  1  0.00000000  0.00000000  0.00000000  1
  In  In0  1  -0.00000000  0.50000000  0.29937976  1
  In  In1  1  0.00000000  0.50000000  0.70062024  1
  In  In2  1  0.50000000  -0.00000000  0.29937976  1
  In  In3  1  0.50000000  -0.00000000  0.70062024  1
  In  In4  1  0.50000000  0.50000000  0.00000000  1
  Rh  Rh0  1  0.00000000  0.00000000  0.50000000  1
loop_
_geom_bond_atom_site_label_1
_geom_bond_atom_site_label_2
_geom_bond_distance
_geom_bond_site_symmetry_2
Er0 In1 3.201410 1_544
Er0 In1 3.201410 1_554
Er0 In0 3.201410 1_545
Er0 In2 3.201410 1_455
Er0 In3 3.201410 1_554
Er0 In2 3.201410 1_555
Er0 In3 3.201410 1_454
Er0 In0 3.201410 1_555
Er0 In4 3.269489 1_455
Er0 In4 3.269489 1_545
Er0 In4 3.269489 1_555
Er0 In4 3.269489 1_445
In0 Rh0 2.747195 1_555
In0 Rh0 2.747195 1_565
In0 In4 3.201410 1_455
In0 In4 3.201410 1_555
In1 Rh0 2.747195 1_555
In1 Rh0 2.747195 1_565
In1 In4 3.201410 1_556
In1 In4 3.201410 1_456
In2 Rh0 2.747195 1_555
In2 Rh0 2.747195 1_655
In2 In4 3.201410 1_555
In2 In4 3.201410 1_545
In3 Rh0 2.747195 1_555
In3 Rh0 2.747195 1_655
In3 In4 3.201410 1_556
In3 In4 3.201410 1_546
