# generated using pymatgen
data_LaGd(ClO)2
_symmetry_space_group_name_H-M   'P 1'
_cell_length_a   4.04593600
_cell_length_b   4.04593600
_cell_length_c   6.91765200
_cell_angle_alpha   90.00000000
_cell_angle_beta   90.00000000
_cell_angle_gamma   90.00000000
_symmetry_Int_Tables_number   1
_chemical_formula_structural   LaGd(ClO)2
_chemical_formula_sum   'La1 Gd1 Cl2 O2'
_cell_volume   113.23918315
_cell_formula_units_Z   1
loop_
 _symmetry_equiv_pos_site_id
 _symmetry_equiv_pos_as_xyz
  1  'x, y, z'
loop_
 _atom_site_type_symbol
 _atom_site_label
 _atom_site_symmetry_multiplicity
 _atom_site_fract_x
 _atom_site_fract_y
 _atom_site_fract_z
 _atom_site_occupancy
  La  La0  1  0.00000000  0.00000000  0.17470100  1
  Gd  Gd0  1  0.50000000  0.50000000  0.83264300  1
  Cl  Cl0  1  0.00000000  0.00000000  0.63212700  1
  Cl  Cl1  1  0.50000000  0.50000000  0.37102800  1
  O  O0  1  0.50000000  0.00000000  0.99405000  1
  O  O1  1  0.00000000  0.50000000  0.99405000  1
loop_
_geom_bond_atom_site_label_1
_geom_bond_atom_site_label_2
_geom_bond_distance
_geom_bond_site_symmetry_2
La0 O1 2.377835 1_544
La0 O0 2.377835 1_554
La0 O0 2.377835 1_454
La0 O1 2.377835 1_554
Gd0 O0 2.310649 1_555
Gd0 O1 2.310649 1_555
Gd0 O0 2.310649 1_565
Gd0 O1 2.310649 1_655
Cl0 La0 3.164314 1_555
Cl0 Gd0 3.179441 1_555
Cl0 Gd0 3.179441 1_445
Cl0 Gd0 3.179441 1_545
Cl0 Gd0 3.179441 1_455
Cl1 La0 3.166906 1_555
Cl1 La0 3.166906 1_655
Cl1 La0 3.166906 1_565
Cl1 La0 3.166906 1_665
Cl1 Gd0 3.193292 1_555
