# generated using pymatgen
data_DyCrS3
_symmetry_space_group_name_H-M   'P 1'
_cell_length_a   3.70122000
_cell_length_b   12.99148800
_cell_length_c   16.20422000
_cell_angle_alpha   90.00000000
_cell_angle_beta   90.00000000
_cell_angle_gamma   90.00000000
_symmetry_Int_Tables_number   1
_chemical_formula_structural   DyCrS3
_chemical_formula_sum   'Dy8 Cr8 S24'
_cell_volume   779.16947047
_cell_formula_units_Z   8
loop_
 _symmetry_equiv_pos_site_id
 _symmetry_equiv_pos_as_xyz
  1  'x, y, z'
loop_
 _atom_site_type_symbol
 _atom_site_label
 _atom_site_symmetry_multiplicity
 _atom_site_fract_x
 _atom_site_fract_y
 _atom_site_fract_z
 _atom_site_occupancy
  Dy  Dy0  1  0.50000000  0.25841200  0.89431200  1
  Dy  Dy1  1  0.50000000  0.74158800  0.10568800  1
  Dy  Dy2  1  0.00000000  0.24158800  0.39431200  1
  Dy  Dy3  1  0.00000000  0.75841200  0.60568800  1
  Dy  Dy4  1  0.50000000  0.67052200  0.84627600  1
  Dy  Dy5  1  0.50000000  0.32947800  0.15372400  1
  Dy  Dy6  1  0.00000000  0.82947800  0.34627600  1
  Dy  Dy7  1  0.00000000  0.17052200  0.65372400  1
  Cr  Cr0  1  0.50000000  0.00000000  0.00000000  1
  Cr  Cr1  1  0.00000000  0.50000000  0.50000000  1
  Cr  Cr2  1  0.50000000  0.00000000  0.50000000  1
  Cr  Cr3  1  0.00000000  0.50000000  0.00000000  1
  Cr  Cr4  1  0.50000000  0.52146200  0.31637100  1
  Cr  Cr5  1  0.50000000  0.47853800  0.68362900  1
  Cr  Cr6  1  0.00000000  0.97853800  0.81637100  1
  Cr  Cr7  1  0.00000000  0.02146200  0.18362900  1
  S  S0  1  0.50000000  0.89081500  0.88404200  1
  S  S1  1  0.50000000  0.10918500  0.11595800  1
  S  S2  1  0.00000000  0.60918500  0.38404200  1
  S  S3  1  0.00000000  0.39081500  0.61595800  1
  S  S4  1  0.50000000  0.52710200  0.09517000  1
  S  S5  1  0.50000000  0.47289800  0.90483000  1
  S  S6  1  0.00000000  0.97289800  0.59517000  1
  S  S7  1  0.00000000  0.02710200  0.40483000  1
  S  S8  1  0.50000000  0.80338400  0.71408000  1
  S  S9  1  0.50000000  0.19661600  0.28592000  1
  S  S10  1  0.00000000  0.69661600  0.21408000  1
  S  S11  1  0.00000000  0.30338400  0.78592000  1
  S  S12  1  0.50000000  0.91570600  0.23681100  1
  S  S13  1  0.50000000  0.08429400  0.76318900  1
  S  S14  1  0.00000000  0.58429400  0.73681100  1
  S  S15  1  0.00000000  0.41570600  0.26318900  1
  S  S16  1  0.50000000  0.58668800  0.56880000  1
  S  S17  1  0.50000000  0.41331200  0.43120000  1
  S  S18  1  0.00000000  0.91331200  0.06880000  1
  S  S19  1  0.00000000  0.08668800  0.93120000  1
  S  S20  1  0.50000000  0.81545900  0.47150000  1
  S  S21  1  0.50000000  0.18454100  0.52850000  1
  S  S22  1  0.00000000  0.68454100  0.97150000  1
  S  S23  1  0.00000000  0.31545900  0.02850000  1
loop_
_geom_bond_atom_site_label_1
_geom_bond_atom_site_label_2
_geom_bond_distance
_geom_bond_site_symmetry_2
Dy0 S11 2.617456 1_555
Dy0 S11 2.617456 1_655
Dy0 S5 2.791700 1_555
Dy0 S23 2.949931 1_556
Dy0 S23 2.949931 1_656
Dy0 S19 2.959593 1_555
Dy0 S19 2.959593 1_655
Dy0 S13 3.103454 1_555
Dy1 S10 2.617456 1_555
Dy1 S10 2.617456 1_655
Dy1 S4 2.791700 1_555
Dy1 S22 2.949931 1_554
Dy1 S22 2.949931 1_654
Dy1 S18 2.959593 1_655
Dy1 S18 2.959593 1_555
Dy1 S12 3.103454 1_555
Dy2 S9 2.617456 1_555
Dy2 S9 2.617456 1_455
Dy2 S7 2.791700 1_555
Dy2 S21 2.949931 1_455
Dy2 S21 2.949931 1_555
Dy2 S17 2.959593 1_455
Dy2 S17 2.959593 1_555
Dy2 S15 3.103454 1_555
Dy3 S8 2.617456 1_455
Dy3 S8 2.617456 1_555
Dy3 S6 2.791700 1_555
Dy3 S20 2.949931 1_555
Dy3 S20 2.949931 1_455
Dy3 S16 2.959593 1_555
Dy3 S16 2.959593 1_455
Dy3 S14 3.103454 1_555
Dy4 S5 2.737144 1_555
Dy4 S8 2.751012 1_555
Dy4 S22 2.752346 1_555
Dy4 S22 2.752346 1_655
Dy4 S14 2.797503 1_655
Dy4 S14 2.797503 1_555
Dy4 S0 2.926631 1_555
Dy5 S4 2.737144 1_555
Dy5 S9 2.751012 1_555
Dy5 S23 2.752346 1_555
Dy5 S23 2.752346 1_655
Dy5 S15 2.797503 1_655
Dy5 S15 2.797503 1_555
Dy5 S1 2.926631 1_555
Dy6 S7 2.737144 1_565
Dy6 S10 2.751012 1_555
Dy6 S20 2.752346 1_455
Dy6 S20 2.752346 1_555
Dy6 S12 2.797503 1_455
Dy6 S12 2.797503 1_555
Dy6 S2 2.926631 1_555
Dy7 S6 2.737144 1_545
Dy7 S11 2.751012 1_555
Dy7 S21 2.752346 1_555
Dy7 S21 2.752346 1_455
Dy7 S13 2.797503 1_455
Dy7 S13 2.797503 1_555
Dy7 S3 2.926631 1_555
Cr0 S1 2.354304 1_555
Cr0 S0 2.354304 1_544
Cr0 S18 2.436388 1_645
Cr0 S19 2.436388 1_554
Cr0 S19 2.436388 1_654
Cr0 S18 2.436388 1_545
Cr1 S2 2.354304 1_555
Cr1 S3 2.354304 1_555
Cr1 S16 2.436388 1_455
Cr1 S16 2.436388 1_555
Cr1 S17 2.436388 1_455
Cr1 S17 2.436388 1_555
Cr2 S7 2.434537 1_555
Cr2 S7 2.434537 1_655
Cr2 S6 2.434537 1_545
Cr2 S6 2.434537 1_645
Cr2 S21 2.441537 1_555
Cr2 S20 2.441537 1_545
Cr3 S4 2.434537 1_455
Cr3 S5 2.434537 1_454
Cr3 S4 2.434537 1_555
Cr3 S5 2.434537 1_554
Cr3 S22 2.441537 1_554
Cr3 S23 2.441537 1_555
Cr4 S17 2.331602 1_555
Cr4 S2 2.434338 1_555
Cr4 S2 2.434338 1_655
Cr4 S15 2.460709 1_555
Cr4 S15 2.460709 1_655
Cr5 S16 2.331602 1_555
Cr5 S3 2.434338 1_555
Cr5 S3 2.434338 1_655
Cr5 S14 2.460709 1_655
Cr5 S14 2.460709 1_555
Cr6 S19 2.331602 1_565
Cr6 S0 2.434338 1_555
Cr6 S0 2.434338 1_455
Cr6 S13 2.460709 1_465
Cr6 S13 2.460709 1_565
Cr7 S18 2.331602 1_545
Cr7 S1 2.434338 1_555
Cr7 S1 2.434338 1_455
Cr7 S12 2.460709 1_545
Cr7 S12 2.460709 1_445
