# generated using pymatgen
data_MnSb2H8(SN)4
_symmetry_space_group_name_H-M   'P 1'
_cell_length_a   4.54927500
_cell_length_b   9.97509829
_cell_length_c   12.50443310
_cell_angle_alpha   95.06162029
_cell_angle_beta   90.00000000
_cell_angle_gamma   103.18121368
_symmetry_Int_Tables_number   1
_chemical_formula_structural   MnSb2H8(SN)4
_chemical_formula_sum   'Mn2 Sb4 H16 S8 N8'
_cell_volume   550.22150373
_cell_formula_units_Z   2
loop_
 _symmetry_equiv_pos_site_id
 _symmetry_equiv_pos_as_xyz
  1  'x, y, z'
loop_
 _atom_site_type_symbol
 _atom_site_label
 _atom_site_symmetry_multiplicity
 _atom_site_fract_x
 _atom_site_fract_y
 _atom_site_fract_z
 _atom_site_occupancy
  Mn  Mn0  1  0.00000000  0.00000000  0.50000000  1
  Mn  Mn1  1  0.00000000  0.00000000  0.00000000  1
  Sb  Sb0  1  0.06986800  0.39471100  0.64563100  1
  Sb  Sb1  1  0.67515700  0.60528900  0.85436900  1
  Sb  Sb2  1  0.93013200  0.60528900  0.35436900  1
  Sb  Sb3  1  0.32484300  0.39471100  0.14563100  1
  H  H0  1  0.33865400  0.79264800  0.50897800  1
  H  H1  1  0.54600600  0.20735200  0.99102200  1
  H  H2  1  0.66134600  0.20735200  0.49102200  1
  H  H3  1  0.45399400  0.79264800  0.00897800  1
  H  H4  1  0.18121400  0.80958300  0.62738800  1
  H  H5  1  0.37163000  0.19041700  0.87261200  1
  H  H6  1  0.81878600  0.19041700  0.37261200  1
  H  H7  1  0.62837000  0.80958300  0.12738800  1
  H  H8  1  0.41475000  0.98017900  0.34348000  1
  H  H9  1  0.43457100  0.01982100  0.15652000  1
  H  H10  1  0.58525000  0.01982100  0.65652000  1
  H  H11  1  0.56542900  0.98017900  0.84348000  1
  H  H12  1  0.33551800  0.13382900  0.33366500  1
  H  H13  1  0.20168900  0.86617100  0.16633500  1
  H  H14  1  0.66448200  0.86617100  0.66633500  1
  H  H15  1  0.79831100  0.13382900  0.83366500  1
  S  S0  1  0.96997900  0.41562300  0.83955200  1
  S  S1  1  0.55435600  0.58437700  0.66044800  1
  S  S2  1  0.03002100  0.58437700  0.16044800  1
  S  S3  1  0.44564400  0.41562300  0.33955200  1
  S  S4  1  0.24681800  0.18359400  0.64963800  1
  S  S5  1  0.06322300  0.81640600  0.85036200  1
  S  S6  1  0.75318200  0.81640600  0.35036200  1
  S  S7  1  0.93677700  0.18359400  0.14963800  1
  N  N0  1  0.39790600  0.07062400  0.38637400  1
  N  N1  1  0.32728200  0.92937600  0.11362600  1
  N  N2  1  0.60209400  0.92937600  0.61362600  1
  N  N3  1  0.67271800  0.07062400  0.88637400  1
  N  N4  1  0.30415400  0.86417700  0.56940400  1
  N  N5  1  0.43997700  0.13582300  0.93059600  1
  N  N6  1  0.69584600  0.13582300  0.43059600  1
  N  N7  1  0.56002300  0.86417700  0.06940400  1
loop_
_geom_bond_atom_site_label_1
_geom_bond_atom_site_label_2
_geom_bond_distance
_geom_bond_site_symmetry_2
Mn0 N2 2.320958 1_445
Mn0 N0 2.320958 1_555
Mn0 N6 2.359197 1_455
Mn0 N4 2.359197 1_545
Mn0 S6 2.563857 1_445
Mn0 S4 2.563857 1_555
Mn1 N3 2.320958 1_454
Mn1 N1 2.320958 1_545
Mn1 N5 2.359197 1_554
Mn1 N7 2.359197 1_445
Mn1 S7 2.563855 1_455
Mn1 S5 2.563855 1_544
H0 N4 1.029850 1_555
H1 N5 1.029850 1_555
H2 N6 1.029850 1_555
H3 N7 1.029850 1_555
H4 N4 1.032398 1_555
H5 N5 1.032400 1_555
H6 N6 1.032398 1_555
H7 N7 1.032400 1_555
H8 N0 1.026480 1_565
H9 N1 1.026480 1_545
H10 N2 1.026480 1_545
H11 N3 1.026480 1_565
H12 N0 1.033148 1_555
H13 N1 1.033148 1_555
H14 N2 1.033148 1_555
H15 N3 1.033148 1_555
S0 Sb0 2.466575 1_655
S0 Sb1 2.551089 1_555
S1 Sb1 2.466575 1_555
S1 Sb0 2.551089 1_555
S2 Sb2 2.466575 1_455
S2 Sb3 2.551089 1_555
S3 Sb3 2.466575 1_555
S3 Sb2 2.551089 1_555
S4 Sb0 2.424284 1_555
S5 Sb1 2.424282 1_455
S6 Sb2 2.424284 1_555
S7 Sb3 2.424282 1_655
