# generated using pymatgen
data_Li10Co4O9
_symmetry_space_group_name_H-M   'P 1'
_cell_length_a   9.56489841
_cell_length_b   9.56491499
_cell_length_c   4.59545245
_cell_angle_alpha   90.00000000
_cell_angle_beta   90.00000000
_cell_angle_gamma   90.00000000
_symmetry_Int_Tables_number   1
_chemical_formula_structural   Li10Co4O9
_chemical_formula_sum   'Li20 Co8 O18'
_cell_volume   420.42618112
_cell_formula_units_Z   2
loop_
 _symmetry_equiv_pos_site_id
 _symmetry_equiv_pos_as_xyz
  1  'x, y, z'
loop_
 _atom_site_type_symbol
 _atom_site_label
 _atom_site_symmetry_multiplicity
 _atom_site_fract_x
 _atom_site_fract_y
 _atom_site_fract_z
 _atom_site_occupancy
  Li  Li0  1  0.50000000  0.00000000  0.85490054  1
  Li  Li1  1  0.00000000  0.50000000  0.64509946  1
  Li  Li2  1  0.00000000  0.50000000  0.14509917  1
  Li  Li3  1  0.50000000  0.00000000  0.35490083  1
  Li  Li4  1  0.68601989  0.14429633  0.79857509  1
  Li  Li5  1  0.31398011  0.85570367  0.79857509  1
  Li  Li6  1  0.81398011  0.64429633  0.70142491  1
  Li  Li7  1  0.18601989  0.35570367  0.70142491  1
  Li  Li8  1  0.85570803  0.31398165  0.20142291  1
  Li  Li9  1  0.14429197  0.68601835  0.20142291  1
  Li  Li10  1  0.35570803  0.18601835  0.29857709  1
  Li  Li11  1  0.64429197  0.81398165  0.29857709  1
  Li  Li12  1  0.81398011  0.35570367  0.70142491  1
  Li  Li13  1  0.18601989  0.64429633  0.70142491  1
  Li  Li14  1  0.68601989  0.85570367  0.79857509  1
  Li  Li15  1  0.31398011  0.14429633  0.79857509  1
  Li  Li16  1  0.64429197  0.18601835  0.29857709  1
  Li  Li17  1  0.35570803  0.81398165  0.29857709  1
  Li  Li18  1  0.14429197  0.31398165  0.20142291  1
  Li  Li19  1  0.85570803  0.68601835  0.20142291  1
  Co  Co0  1  0.50000000  0.35164668  0.79868054  1
  Co  Co1  1  0.50000000  0.64835332  0.79868054  1
  Co  Co2  1  0.00000000  0.85164668  0.70131946  1
  Co  Co3  1  0.00000000  0.14835332  0.70131946  1
  Co  Co4  1  0.64835216  0.50000000  0.20132543  1
  Co  Co5  1  0.35164784  0.50000000  0.20132543  1
  Co  Co6  1  0.14835216  0.00000000  0.29867457  1
  Co  Co7  1  0.85164784  0.00000000  0.29867457  1
  O  O0  1  0.67688738  0.32310732  -0.00000663  1
  O  O1  1  0.32311262  0.67689268  -0.00000663  1
  O  O2  1  0.82311262  0.82310732  0.50000663  1
  O  O3  1  0.17688738  0.17689268  0.50000663  1
  O  O4  1  0.82311262  0.17689268  0.50000663  1
  O  O5  1  0.17688738  0.82310732  0.50000663  1
  O  O6  1  0.67688738  0.67689268  -0.00000663  1
  O  O7  1  0.32311262  0.32310732  -0.00000663  1
  O  O8  1  0.00000000  0.00000000  -0.00002527  1
  O  O9  1  0.50000000  0.50000000  0.50002527  1
  O  O10  1  0.00000000  0.33825793  0.90992403  1
  O  O11  1  0.00000000  0.66174207  0.90992403  1
  O  O12  1  0.50000000  0.83825793  0.59007597  1
  O  O13  1  0.50000000  0.16174207  0.59007597  1
  O  O14  1  0.66173436  0.00000000  0.09005711  1
  O  O15  1  0.33826564  0.00000000  0.09005711  1
  O  O16  1  0.16173436  0.50000000  0.40994289  1
  O  O17  1  0.83826564  0.50000000  0.40994289  1
loop_
_geom_bond_atom_site_label_1
_geom_bond_atom_site_label_2
_geom_bond_distance
_geom_bond_site_symmetry_2
Li0 O14 1.887043 1_556
Li0 O15 1.887043 1_556
Li0 O13 1.968355 1_555
Li0 O12 1.968355 1_545
Li1 O17 1.887043 1_455
Li1 O16 1.887043 1_555
Li1 O11 1.968355 1_555
Li1 O10 1.968355 1_555
Li2 O11 1.887154 1_554
Li2 O10 1.887154 1_554
Li2 O17 1.968350 1_455
Li2 O16 1.968350 1_555
Li3 O13 1.887154 1_555
Li3 O12 1.887154 1_545
Li3 O14 1.968350 1_555
Li3 O15 1.968350 1_555
Li4 O4 1.923330 1_555
Li4 O14 1.937292 1_556
Li4 O0 1.946676 1_556
Li4 O13 2.027724 1_555
Li5 O5 1.923330 1_555
Li5 O15 1.937292 1_566
Li5 O1 1.946676 1_556
Li5 O12 2.027724 1_555
Li6 O6 1.923330 1_556
Li6 O17 1.937292 1_555
Li6 O2 1.946676 1_555
Li6 O11 2.027724 1_655
Li7 O7 1.923330 1_556
Li7 O16 1.937292 1_555
Li7 O3 1.946676 1_555
Li7 O10 2.027724 1_555
Li8 O4 1.923356 1_555
Li8 O10 1.937303 1_654
Li8 O0 1.946776 1_555
Li8 O17 2.027756 1_555
Li9 O5 1.923356 1_555
Li9 O11 1.937303 1_554
Li9 O1 1.946776 1_555
Li9 O16 2.027756 1_555
Li10 O7 1.923356 1_555
Li10 O13 1.937303 1_555
Li10 O3 1.946776 1_555
Li10 O15 2.027756 1_555
Li11 O6 1.923356 1_555
Li11 O12 1.937303 1_555
Li11 O2 1.946776 1_555
Li11 O14 2.027756 1_565
Li12 O0 1.923330 1_556
Li12 O17 1.937292 1_555
Li12 O4 1.946676 1_555
Li12 O10 2.027724 1_655
Li13 O1 1.923330 1_556
Li13 O16 1.937292 1_555
Li13 O5 1.946676 1_555
Li13 O11 2.027724 1_555
Li14 O2 1.923330 1_555
Li14 O14 1.937292 1_566
Li14 O6 1.946676 1_556
Li14 O12 2.027724 1_555
Li15 O3 1.923330 1_555
Li15 O15 1.937292 1_556
Li15 O7 1.946676 1_556
Li15 O13 2.027724 1_555
Li16 O0 1.923356 1_555
Li16 O13 1.937303 1_555
Li16 O4 1.946776 1_555
Li16 O14 2.027756 1_555
Li17 O1 1.923356 1_555
Li17 O12 1.937303 1_555
Li17 O5 1.946776 1_555
Li17 O15 2.027756 1_565
Li18 O3 1.923356 1_555
Li18 O10 1.937303 1_554
Li18 O7 1.946776 1_555
Li18 O16 2.027756 1_555
Li19 O2 1.923356 1_555
Li19 O11 1.937303 1_654
Li19 O6 1.946776 1_555
Li19 O17 2.027756 1_555
Co0 O7 1.947544 1_556
Co0 O0 1.947544 1_556
Co0 O9 1.974122 1_555
Co0 O13 2.053865 1_555
Co1 O1 1.947544 1_556
Co1 O6 1.947544 1_556
Co1 O9 1.974122 1_555
Co1 O12 2.053865 1_555
Co2 O5 1.947544 1_555
Co2 O2 1.947544 1_455
Co2 O8 1.974122 1_566
Co2 O11 2.053865 1_555
Co3 O3 1.947544 1_555
Co3 O4 1.947544 1_455
Co3 O8 1.974122 1_556
Co3 O10 2.053865 1_555
Co4 O0 1.947627 1_555
Co4 O6 1.947627 1_555
Co4 O9 1.974255 1_555
Co4 O17 2.053965 1_555
Co5 O7 1.947627 1_555
Co5 O1 1.947627 1_555
Co5 O9 1.974255 1_555
Co5 O16 2.053965 1_555
Co6 O3 1.947627 1_555
Co6 O5 1.947627 1_545
Co6 O8 1.974255 1_555
Co6 O15 2.053965 1_555
Co7 O4 1.947627 1_555
Co7 O2 1.947627 1_545
Co7 O8 1.974255 1_655
Co7 O14 2.053965 1_555
