# generated using pymatgen
data_CrSe2
_symmetry_space_group_name_H-M   'P 1'
_cell_length_a   7.11201604
_cell_length_b   7.11207903
_cell_length_c   7.11207903
_cell_angle_alpha   60.00000000
_cell_angle_beta   59.99970702
_cell_angle_gamma   59.99970702
_symmetry_Int_Tables_number   1
_chemical_formula_structural   CrSe2
_chemical_formula_sum   'Cr4 Se8'
_cell_volume   254.37179471
_cell_formula_units_Z   4
loop_
 _symmetry_equiv_pos_site_id
 _symmetry_equiv_pos_as_xyz
  1  'x, y, z'
loop_
 _atom_site_type_symbol
 _atom_site_label
 _atom_site_symmetry_multiplicity
 _atom_site_fract_x
 _atom_site_fract_y
 _atom_site_fract_z
 _atom_site_occupancy
  Cr  Cr0  1  0.62500000  0.62500000  0.12500000  1
  Cr  Cr1  1  0.62500000  0.12500000  0.62500000  1
  Cr  Cr2  1  0.62500000  0.62500000  0.62500000  1
  Cr  Cr3  1  0.12500000  0.62500000  0.62500000  1
  Se  Se0  1  0.37686127  0.37689092  0.37689092  1
  Se  Se1  1  0.38062678  0.87312441  0.87312441  1
  Se  Se2  1  0.87313873  0.38064211  0.87310908  1
  Se  Se3  1  0.87313873  0.87310908  0.38064211  1
  Se  Se4  1  0.37686127  0.86935789  0.37689092  1
  Se  Se5  1  0.37686127  0.37689092  0.86935789  1
  Se  Se6  1  0.86937322  0.37687559  0.37687559  1
  Se  Se7  1  0.87313873  0.87310908  0.87310908  1
loop_
_geom_bond_atom_site_label_1
_geom_bond_atom_site_label_2
_geom_bond_distance
_geom_bond_site_symmetry_2
Cr0 Se7 2.495763 1_554
Cr0 Se0 2.495763 1_555
Cr0 Se6 2.495767 1_555
Cr0 Se1 2.495767 1_554
Cr0 Se2 2.495768 1_554
Cr0 Se4 2.495768 1_555
Cr1 Se7 2.495763 1_545
Cr1 Se0 2.495763 1_555
Cr1 Se6 2.495767 1_555
Cr1 Se1 2.495767 1_545
Cr1 Se3 2.495768 1_545
Cr1 Se5 2.495768 1_555
Cr2 Se2 2.495763 1_555
Cr2 Se3 2.495763 1_555
Cr2 Se4 2.495763 1_555
Cr2 Se5 2.495763 1_555
Cr2 Se1 2.495767 1_555
Cr2 Se6 2.495767 1_555
Cr3 Se7 2.495612 1_455
Cr3 Se0 2.495612 1_555
Cr3 Se4 2.495617 1_555
Cr3 Se2 2.495617 1_455
Cr3 Se3 2.495617 1_455
Cr3 Se5 2.495617 1_555
