# generated using pymatgen
data_Pr2CrSe4
_symmetry_space_group_name_H-M   'P 1'
_cell_length_a   4.17694400
_cell_length_b   7.46080798
_cell_length_c   7.52169978
_cell_angle_alpha   119.20029728
_cell_angle_beta   106.12057066
_cell_angle_gamma   90.00000000
_symmetry_Int_Tables_number   1
_chemical_formula_structural   Pr2CrSe4
_chemical_formula_sum   'Pr2 Cr1 Se4'
_cell_volume   193.98676158
_cell_formula_units_Z   1
loop_
 _symmetry_equiv_pos_site_id
 _symmetry_equiv_pos_as_xyz
  1  'x, y, z'
loop_
 _atom_site_type_symbol
 _atom_site_label
 _atom_site_symmetry_multiplicity
 _atom_site_fract_x
 _atom_site_fract_y
 _atom_site_fract_z
 _atom_site_occupancy
  Pr  Pr0  1  0.71863500  0.71221800  0.43727000  1
  Pr  Pr1  1  0.28136500  0.28778200  0.56273000  1
  Cr  Cr0  1  0.00000000  0.00000000  0.00000000  1
  Se  Se0  1  0.62581200  0.99462000  0.25162400  1
  Se  Se1  1  0.37418800  0.00538000  0.74837600  1
  Se  Se2  1  0.89242000  0.60004500  0.78484000  1
  Se  Se3  1  0.10758000  0.39995500  0.21516000  1
loop_
_geom_bond_atom_site_label_1
_geom_bond_atom_site_label_2
_geom_bond_distance
_geom_bond_site_symmetry_2
Pr0 Se3 2.927040 1_555
Pr0 Se3 2.927040 1_655
Pr0 Se0 3.018184 1_555
Pr0 Se2 3.023733 1_555
Pr0 Se1 3.034032 1_565
Pr0 Se1 3.034032 1_665
Pr1 Se2 2.927040 1_455
Pr1 Se2 2.927040 1_555
Pr1 Se1 3.018184 1_555
Pr1 Se3 3.023733 1_555
Pr1 Se0 3.034032 1_445
Pr1 Se0 3.034032 1_545
Cr0 Se2 2.570875 1_444
Cr0 Se3 2.570875 1_555
Cr0 Se0 2.782693 1_545
Cr0 Se1 2.782693 1_554
Cr0 Se0 2.782693 1_445
Cr0 Se1 2.782693 1_454
