# generated using pymatgen
data_Ca(AgO2)2
_symmetry_space_group_name_H-M   'P 1'
_cell_length_a   6.55870735
_cell_length_b   6.55870735
_cell_length_c   6.55870735
_cell_angle_alpha   126.11290442
_cell_angle_beta   126.11290442
_cell_angle_gamma   79.70265383
_symmetry_Int_Tables_number   1
_chemical_formula_structural   Ca(AgO2)2
_chemical_formula_sum   'Ca2 Ag4 O8'
_cell_volume   177.87860175
_cell_formula_units_Z   2
loop_
 _symmetry_equiv_pos_site_id
 _symmetry_equiv_pos_as_xyz
  1  'x, y, z'
loop_
 _atom_site_type_symbol
 _atom_site_label
 _atom_site_symmetry_multiplicity
 _atom_site_fract_x
 _atom_site_fract_y
 _atom_site_fract_z
 _atom_site_occupancy
  Ca  Ca0  1  0.75000000  0.25000000  0.50000000  1
  Ca  Ca1  1  0.00000000  0.00000000  0.00000000  1
  Ag  Ag0  1  0.37500000  0.12500000  0.75000000  1
  Ag  Ag1  1  0.37500000  0.62500000  0.25000000  1
  Ag  Ag2  1  0.87500000  0.62500000  0.25000000  1
  Ag  Ag3  1  0.37500000  0.62500000  0.75000000  1
  O  O0  1  0.04930698  0.99380274  0.64594346  1
  O  O1  1  0.59663648  0.95069302  0.94449576  1
  O  O2  1  0.00619726  0.65214072  0.05550424  1
  O  O3  1  0.40214072  0.84663648  0.14594346  1
  O  O4  1  0.74380274  0.59785928  0.44449576  1
  O  O5  1  0.15336352  0.29930698  0.55550424  1
  O  O6  1  0.34785928  0.40336352  0.35405654  1
  O  O7  1  0.70069302  0.25619726  0.85405654  1
loop_
_geom_bond_atom_site_label_1
_geom_bond_atom_site_label_2
_geom_bond_distance
_geom_bond_site_symmetry_2
Ca0 O0 2.468813 1_645
Ca0 O6 2.468813 1_555
Ca0 O1 2.468813 1_544
Ca0 O2 2.468813 1_656
Ca0 O7 2.503572 1_555
Ca0 O4 2.503572 1_555
Ca0 O3 2.503572 1_545
Ca0 O5 2.503572 1_655
Ca1 O5 2.468813 1_555
Ca1 O4 2.468813 1_444
Ca1 O3 2.468813 1_545
Ca1 O7 2.468813 1_454
Ca1 O2 2.503572 1_545
Ca1 O0 2.503572 1_544
Ca1 O1 2.503572 1_444
Ca1 O6 2.503572 1_555
Ag0 O1 1.996602 1_545
Ag0 O5 1.996602 1_555
Ag0 O7 2.003919 1_555
Ag0 O0 2.003919 1_545
Ag1 O4 1.996602 1_555
Ag1 O2 1.996602 1_555
Ag1 O3 2.003919 1_555
Ag1 O6 2.003919 1_555
Ag2 O7 1.996602 1_554
Ag2 O0 1.996602 1_655
Ag2 O2 2.003919 1_655
Ag2 O4 2.003919 1_555
Ag3 O6 1.996602 1_555
Ag3 O3 1.996602 1_556
Ag3 O5 2.003919 1_555
Ag3 O1 2.003919 1_555
