# generated using pymatgen
data_Re2W3C
_symmetry_space_group_name_H-M   'P 1'
_cell_length_a   6.95722500
_cell_length_b   6.95722500
_cell_length_c   6.95722500
_cell_angle_alpha   90.00000000
_cell_angle_beta   90.00000000
_cell_angle_gamma   90.00000000
_symmetry_Int_Tables_number   1
_chemical_formula_structural   Re2W3C
_chemical_formula_sum   'Re8 W12 C4'
_cell_volume   336.75042045
_cell_formula_units_Z   4
loop_
 _symmetry_equiv_pos_site_id
 _symmetry_equiv_pos_as_xyz
  1  'x, y, z'
loop_
 _atom_site_type_symbol
 _atom_site_label
 _atom_site_symmetry_multiplicity
 _atom_site_fract_x
 _atom_site_fract_y
 _atom_site_fract_z
 _atom_site_occupancy
  Re  Re0  1  0.68183300  0.68183300  0.68183300  1
  Re  Re1  1  0.93183300  0.56816700  0.43183300  1
  Re  Re2  1  0.56816700  0.43183300  0.93183300  1
  Re  Re3  1  0.43183300  0.93183300  0.56816700  1
  Re  Re4  1  0.18183300  0.81816700  0.31816700  1
  Re  Re5  1  0.81816700  0.31816700  0.18183300  1
  Re  Re6  1  0.31816700  0.18183300  0.81816700  1
  Re  Re7  1  0.06816700  0.06816700  0.06816700  1
  W  W0  1  0.62500000  0.29453800  0.54453800  1
  W  W1  1  0.70546200  0.04453800  0.87500000  1
  W  W2  1  0.54453800  0.62500000  0.29453800  1
  W  W3  1  0.95546200  0.37500000  0.79453800  1
  W  W4  1  0.12500000  0.20546200  0.45546200  1
  W  W5  1  0.37500000  0.79453800  0.95546200  1
  W  W6  1  0.87500000  0.70546200  0.04453800  1
  W  W7  1  0.20546200  0.45546200  0.12500000  1
  W  W8  1  0.79453800  0.95546200  0.37500000  1
  W  W9  1  0.04453800  0.87500000  0.70546200  1
  W  W10  1  0.45546200  0.12500000  0.20546200  1
  W  W11  1  0.29453800  0.54453800  0.62500000  1
  C  C0  1  0.87500000  0.12500000  0.62500000  1
  C  C1  1  0.12500000  0.62500000  0.87500000  1
  C  C2  1  0.62500000  0.87500000  0.12500000  1
  C  C3  1  0.37500000  0.37500000  0.37500000  1
loop_
_geom_bond_atom_site_label_1
_geom_bond_atom_site_label_2
_geom_bond_distance
_geom_bond_site_symmetry_2
Re0 Re3 2.583745 1_555
Re0 Re1 2.583745 1_555
Re0 Re2 2.583745 1_555
Re0 W6 2.863697 1_556
Re0 W9 2.863697 1_655
Re0 W1 2.863697 1_565
Re0 W2 2.886010 1_555
Re0 W0 2.886010 1_555
Re0 W11 2.886010 1_555
Re0 W8 2.965784 1_555
Re0 W3 2.965784 1_555
Re0 W5 2.965784 1_555
Re1 Re5 2.583745 1_555
Re1 Re4 2.583745 1_655
Re1 W11 2.863697 1_655
Re1 W3 2.863697 1_555
Re1 W4 2.863697 1_655
Re1 W6 2.886010 1_555
Re1 W8 2.886010 1_555
Re1 W2 2.886010 1_555
Re1 W7 2.965784 1_655
Re1 W0 2.965784 1_555
Re1 W9 2.965784 1_655
Re2 Re6 2.583745 1_555
Re2 Re5 2.583745 1_556
Re2 W2 2.863697 1_556
Re2 W5 2.863697 1_555
Re2 W7 2.863697 1_556
Re2 W1 2.886010 1_555
Re2 W3 2.886010 1_555
Re2 W0 2.886010 1_555
Re2 W10 2.965784 1_556
Re2 W11 2.965784 1_555
Re2 W6 2.965784 1_556
Re3 Re4 2.583745 1_555
Re3 Re6 2.583745 1_565
Re3 W0 2.863697 1_565
Re3 W8 2.863697 1_555
Re3 W10 2.863697 1_565
Re3 W9 2.886010 1_555
Re3 W5 2.886010 1_555
Re3 W11 2.886010 1_555
Re3 W4 2.965784 1_565
Re3 W2 2.965784 1_555
Re3 W1 2.965784 1_565
Re4 Re7 2.583745 1_565
Re4 W7 2.863697 1_555
Re4 W2 2.863697 1_555
Re4 W5 2.863697 1_554
Re4 W4 2.886010 1_565
Re4 W9 2.886010 1_555
Re4 W8 2.886010 1_455
Re4 W11 2.965784 1_555
Re4 W6 2.965784 1_455
Re4 W10 2.965784 1_565
Re5 Re7 2.583745 1_655
Re5 W10 2.863697 1_555
Re5 W0 2.863697 1_555
Re5 W8 2.863697 1_545
Re5 W7 2.886010 1_655
Re5 W6 2.886010 1_555
Re5 W3 2.886010 1_554
Re5 W2 2.965784 1_555
Re5 W1 2.965784 1_554
Re5 W4 2.965784 1_655
Re6 Re7 2.583745 1_556
Re6 W4 2.863697 1_555
Re6 W11 2.863697 1_555
Re6 W3 2.863697 1_455
Re6 W10 2.886010 1_556
Re6 W1 2.886010 1_555
Re6 W5 2.886010 1_545
Re6 W0 2.965784 1_555
Re6 W9 2.965784 1_545
Re6 W7 2.965784 1_556
Re7 W1 2.863697 1_454
Re7 W9 2.863697 1_544
Re7 W6 2.863697 1_445
Re7 W7 2.886010 1_555
Re7 W10 2.886010 1_555
Re7 W4 2.886010 1_555
Re7 W5 2.965784 1_544
Re7 W8 2.965784 1_445
Re7 W3 2.965784 1_454
C0 W0 2.174812 1_555
C0 W9 2.174812 1_645
C0 W3 2.174812 1_555
C0 W4 2.174812 1_655
C0 W1 2.174812 1_555
C0 W8 2.174812 1_545
C1 W11 2.174812 1_555
C1 W5 2.174812 1_555
C1 W6 2.174812 1_456
C1 W7 2.174812 1_556
C1 W9 2.174812 1_555
C1 W3 2.174812 1_455
C2 W2 2.174812 1_555
C2 W8 2.174812 1_555
C2 W1 2.174812 1_564
C2 W10 2.174812 1_565
C2 W6 2.174812 1_555
C2 W5 2.174812 1_554
C3 W0 2.174812 1_555
C3 W11 2.174812 1_555
C3 W2 2.174812 1_555
C3 W10 2.174812 1_555
C3 W4 2.174812 1_555
C3 W7 2.174812 1_555
