# generated using pymatgen
data_Ba4Nd(RuO4)3
_symmetry_space_group_name_H-M   'P 1'
_cell_length_a   5.99302937
_cell_length_b   5.99302937
_cell_length_c   10.64501129
_cell_angle_alpha   72.59212353
_cell_angle_beta   72.59212353
_cell_angle_gamma   59.97569973
_symmetry_Int_Tables_number   1
_chemical_formula_structural   Ba4Nd(RuO4)3
_chemical_formula_sum   'Ba4 Nd1 Ru3 O12'
_cell_volume   310.65252230
_cell_formula_units_Z   1
loop_
 _symmetry_equiv_pos_site_id
 _symmetry_equiv_pos_as_xyz
  1  'x, y, z'
loop_
 _atom_site_type_symbol
 _atom_site_label
 _atom_site_symmetry_multiplicity
 _atom_site_fract_x
 _atom_site_fract_y
 _atom_site_fract_z
 _atom_site_occupancy
  Ba  Ba0  1  0.86956100  0.86956100  0.39215900  1
  Ba  Ba1  1  0.13043900  0.13043900  0.60784100  1
  Ba  Ba2  1  0.27963600  0.27963600  0.15312400  1
  Ba  Ba3  1  0.72036400  0.72036400  0.84687600  1
  Nd  Nd0  1  0.00000000  0.00000000  0.00000000  1
  Ru  Ru0  1  0.50000000  0.50000000  0.50000000  1
  Ru  Ru1  1  0.57966900  0.57966900  0.24451700  1
  Ru  Ru2  1  0.42033100  0.42033100  0.75548300  1
  O  O0  1  0.76932400  0.76932400  0.12539000  1
  O  O1  1  0.23067600  0.23067600  0.87461000  1
  O  O2  1  0.29778300  0.76535900  0.14232800  1
  O  O3  1  0.70221700  0.23464100  0.85767200  1
  O  O4  1  0.23464100  0.70221700  0.85767200  1
  O  O5  1  0.76535900  0.29778300  0.14232800  1
  O  O6  1  0.61779600  0.61779600  0.61749000  1
  O  O7  1  0.38220400  0.38220400  0.38251000  1
  O  O8  1  0.14994700  0.61338100  0.62845200  1
  O  O9  1  0.85005300  0.38661900  0.37154800  1
  O  O10  1  0.38661900  0.85005300  0.37154800  1
  O  O11  1  0.61338100  0.14994700  0.62845200  1
loop_
_geom_bond_atom_site_label_1
_geom_bond_atom_site_label_2
_geom_bond_distance
_geom_bond_site_symmetry_2
Ba0 O6 2.872966 1_555
Ba0 O9 2.984966 1_565
Ba0 O10 2.984966 1_655
Ba0 O7 2.998494 1_565
Ba0 O7 2.998494 1_655
Ba0 O11 3.023950 1_565
Ba0 O8 3.023950 1_655
Ba0 O10 3.028635 1_555
Ba0 O9 3.028635 1_555
Ba0 O2 3.058589 1_655
Ba0 O5 3.058589 1_565
Ba0 O0 3.344928 1_555
Ba1 O7 2.872966 1_555
Ba1 O8 2.984966 1_545
Ba1 O11 2.984966 1_455
Ba1 O6 2.998494 1_545
Ba1 O6 2.998494 1_455
Ba1 O9 3.023950 1_455
Ba1 O10 3.023950 1_545
Ba1 O11 3.028635 1_555
Ba1 O8 3.028635 1_555
Ba1 O3 3.058589 1_455
Ba1 O4 3.058589 1_545
Ba1 O1 3.344928 1_555
Ba2 O9 2.846712 1_455
Ba2 O10 2.846712 1_545
Ba2 O2 2.933913 1_555
Ba2 O5 2.933913 1_555
Ba2 O7 2.982026 1_555
Ba2 O0 3.015453 1_455
Ba2 O0 3.015453 1_545
Ba2 O5 3.064841 1_455
Ba2 O2 3.064841 1_545
Ba2 O1 3.176369 1_554
Ba2 O4 3.381753 1_554
Ba2 O3 3.381753 1_554
Ba3 O8 2.846712 1_655
Ba3 O11 2.846712 1_565
Ba3 O3 2.933913 1_555
Ba3 O4 2.933913 1_555
Ba3 O6 2.982026 1_555
Ba3 O1 3.015453 1_565
Ba3 O1 3.015453 1_655
Ba3 O3 3.064841 1_565
Ba3 O4 3.064841 1_655
Ba3 O0 3.176369 1_556
Ba3 O2 3.381753 1_556
Ba3 O5 3.381753 1_556
Nd0 O5 2.299876 1_455
Nd0 O2 2.299876 1_545
Nd0 O4 2.299876 1_544
Nd0 O3 2.299876 1_454
Nd0 O1 2.303980 1_554
Nd0 O0 2.303980 1_445
O0 Ru1 1.939032 1_555
O1 Ru2 1.939032 1_555
O2 Ru1 1.941524 1_555
O3 Ru2 1.941524 1_555
O4 Ru2 1.941524 1_555
O5 Ru1 1.941524 1_555
O6 Ru0 2.028861 1_555
O6 Ru2 2.068800 1_555
O7 Ru0 2.028861 1_555
O7 Ru1 2.068800 1_555
O8 Ru0 2.036052 1_555
O8 Ru2 2.071651 1_555
O9 Ru0 2.036052 1_555
O9 Ru1 2.071651 1_555
O10 Ru0 2.036052 1_555
O10 Ru1 2.071651 1_555
O11 Ru0 2.036052 1_555
O11 Ru2 2.071651 1_555
