# generated using pymatgen
data_Ce2Mn17C2
_symmetry_space_group_name_H-M   'P 1'
_cell_length_a   6.42074636
_cell_length_b   6.42582894
_cell_length_c   6.42074636
_cell_angle_alpha   83.64344178
_cell_angle_beta   84.46341195
_cell_angle_gamma   83.64344178
_symmetry_Int_Tables_number   1
_chemical_formula_structural   Ce2Mn17C2
_chemical_formula_sum   'Ce2 Mn17 C2'
_cell_volume   260.71088289
_cell_formula_units_Z   1
loop_
 _symmetry_equiv_pos_site_id
 _symmetry_equiv_pos_as_xyz
  1  'x, y, z'
loop_
 _atom_site_type_symbol
 _atom_site_label
 _atom_site_symmetry_multiplicity
 _atom_site_fract_x
 _atom_site_fract_y
 _atom_site_fract_z
 _atom_site_occupancy
  Ce  Ce0  1  0.64423700  0.65910700  0.64423700  1
  Ce  Ce1  1  0.35576300  0.34089300  0.35576300  1
  Mn  Mn0  1  0.90352900  0.90271700  0.90352900  1
  Mn  Mn1  1  0.09647100  0.09728300  0.09647100  1
  Mn  Mn2  1  0.72920900  0.00000000  0.27079100  1
  Mn  Mn3  1  0.99577900  0.27897500  0.72159000  1
  Mn  Mn4  1  0.27841000  0.72102500  0.00422100  1
  Mn  Mn5  1  0.00422100  0.72102500  0.27841000  1
  Mn  Mn6  1  0.72159000  0.27897500  0.99577900  1
  Mn  Mn7  1  0.27079100  0.00000000  0.72920900  1
  Mn  Mn8  1  0.33907400  0.34020900  0.86089000  1
  Mn  Mn9  1  0.34970500  0.86545500  0.34970500  1
  Mn  Mn10  1  0.86089000  0.34020900  0.33907400  1
  Mn  Mn11  1  0.66092600  0.65979100  0.13911000  1
  Mn  Mn12  1  0.65029500  0.13454500  0.65029500  1
  Mn  Mn13  1  0.13911000  0.65979100  0.66092600  1
  Mn  Mn14  1  0.00000000  0.50000000  0.00000000  1
  Mn  Mn15  1  0.50000000  0.00000000  0.00000000  1
  Mn  Mn16  1  0.00000000  0.00000000  0.50000000  1
  C  C0  1  0.00000000  0.50000000  0.50000000  1
  C  C1  1  0.50000000  0.50000000  0.00000000  1
loop_
_geom_bond_atom_site_label_1
_geom_bond_atom_site_label_2
_geom_bond_distance
_geom_bond_site_symmetry_2
Ce0 Mn9 2.913829 1_555
Ce0 Mn12 3.064226 1_565
Ce0 Mn0 3.111737 1_555
Ce0 Mn7 3.113622 1_565
Ce0 Mn2 3.113622 1_565
Ce0 Mn16 3.335338 1_665
Ce0 Mn15 3.335338 1_566
Ce0 Mn12 3.362615 1_555
Ce0 Mn14 3.384317 1_656
Ce1 Mn12 2.913829 1_555
Ce1 Mn9 3.064226 1_545
Ce1 Mn1 3.111737 1_555
Ce1 Mn2 3.113622 1_555
Ce1 Mn7 3.113622 1_555
Ce1 Mn15 3.335338 1_555
Ce1 Mn16 3.335338 1_555
Ce1 Mn9 3.362615 1_555
Ce1 Mn14 3.384317 1_555
Mn0 Mn1 2.369513 1_666
Mn0 Mn13 2.590760 1_655
Mn0 Mn11 2.590760 1_556
Mn0 Mn14 2.613078 1_656
Mn0 Mn2 2.620370 1_566
Mn0 Mn7 2.620370 1_665
Mn0 Mn16 2.627723 1_665
Mn0 Mn15 2.627723 1_566
Mn0 Mn12 2.635159 1_565
Mn0 Mn4 2.661895 1_656
Mn0 Mn5 2.661895 1_656
Mn0 Mn6 2.668198 1_565
Mn0 Mn3 2.668198 1_565
Mn1 Mn10 2.590760 1_455
Mn1 Mn8 2.590760 1_554
Mn1 Mn14 2.613078 1_555
Mn1 Mn2 2.620370 1_455
Mn1 Mn7 2.620370 1_554
Mn1 Mn15 2.627723 1_555
Mn1 Mn16 2.627723 1_555
Mn1 Mn9 2.635159 1_545
Mn1 Mn3 2.661895 1_454
Mn1 Mn6 2.661895 1_454
Mn1 Mn5 2.668198 1_545
Mn1 Mn4 2.668198 1_545
Mn2 Mn6 2.372822 1_554
Mn2 Mn5 2.372822 1_645
Mn2 Mn9 2.659501 1_545
Mn3 Mn7 2.372822 1_655
Mn4 Mn7 2.372822 1_564
Mn4 Mn9 2.595664 1_555
Mn5 Mn9 2.595664 1_555
Mn7 Mn8 2.525719 1_555
Mn7 Mn9 2.659501 1_545
Mn10 Mn16 2.426953 1_655
Mn10 Mn14 2.434079 1_655
Mn10 Mn2 2.525719 1_555
Mn10 Mn12 2.618690 1_555
Mn11 Mn15 2.426953 1_565
Mn11 Mn14 2.434079 1_655
Mn11 Mn2 2.525719 1_565
Mn11 Mn9 2.618690 1_555
Mn12 Mn15 2.461129 1_556
Mn12 Mn16 2.461129 1_655
Mn12 Mn3 2.595664 1_555
Mn12 Mn6 2.595664 1_555
Mn12 Mn8 2.618690 1_555
Mn12 Mn7 2.659501 1_555
Mn12 Mn2 2.659501 1_555
Mn13 Mn16 2.426953 1_565
Mn13 Mn14 2.434079 1_556
Mn13 Mn7 2.525719 1_565
Mn13 Mn9 2.618690 1_555
Mn14 Mn5 2.406962 1_555
Mn14 Mn4 2.406962 1_555
Mn14 Mn6 2.406962 1_454
Mn14 Mn3 2.406962 1_454
Mn14 Mn8 2.434079 1_554
Mn15 Mn7 2.383829 1_554
Mn15 Mn2 2.383829 1_555
Mn15 Mn6 2.405237 1_554
Mn15 Mn4 2.405237 1_545
Mn15 Mn8 2.426953 1_554
Mn15 Mn9 2.461129 1_545
Mn16 Mn7 2.383829 1_555
Mn16 Mn2 2.383829 1_455
Mn16 Mn3 2.405237 1_455
Mn16 Mn5 2.405237 1_545
Mn16 Mn9 2.461129 1_545
C0 Mn10 1.880376 1_455
C0 Mn13 1.880376 1_555
C0 Mn5 1.896263 1_555
C0 Mn3 1.896263 1_455
C0 Ce1 2.530840 1_555
C0 Ce0 2.530840 1_455
C1 Mn8 1.880376 1_554
C1 Mn11 1.880376 1_555
C1 Mn4 1.896263 1_555
C1 Mn6 1.896263 1_554
C1 Ce1 2.530840 1_555
C1 Ce0 2.530840 1_554
