# generated using pymatgen
data_Li14Be6(BO3)9
_symmetry_space_group_name_H-M   'P 1'
_cell_length_a   7.82895842
_cell_length_b   7.82895842
_cell_length_c   19.13956600
_cell_angle_alpha   90.00000000
_cell_angle_beta   90.00000000
_cell_angle_gamma   120.00000356
_symmetry_Int_Tables_number   1
_chemical_formula_structural   Li14Be6(BO3)9
_chemical_formula_sum   'Li28 Be12 B18 O54'
_cell_volume   1015.94611753
_cell_formula_units_Z   2
loop_
 _symmetry_equiv_pos_site_id
 _symmetry_equiv_pos_as_xyz
  1  'x, y, z'
loop_
 _atom_site_type_symbol
 _atom_site_label
 _atom_site_symmetry_multiplicity
 _atom_site_fract_x
 _atom_site_fract_y
 _atom_site_fract_z
 _atom_site_occupancy
  Li  Li0  1  0.69764400  0.02351400  0.83051000  1
  Li  Li1  1  0.30235600  0.97648600  0.16949000  1
  Li  Li2  1  0.32587000  0.30235600  0.83051000  1
  Li  Li3  1  0.30235600  0.97648600  0.33051000  1
  Li  Li4  1  0.67413000  0.69764400  0.16949000  1
  Li  Li5  1  0.69764400  0.02351400  0.66949000  1
  Li  Li6  1  0.97648600  0.67413000  0.83051000  1
  Li  Li7  1  0.67413000  0.69764400  0.33051000  1
  Li  Li8  1  0.02351400  0.32587000  0.16949000  1
  Li  Li9  1  0.32587000  0.30235600  0.66949000  1
  Li  Li10  1  0.02351400  0.32587000  0.33051000  1
  Li  Li11  1  0.97648600  0.67413000  0.66949000  1
  Li  Li12  1  0.66666700  0.33333300  0.75000000  1
  Li  Li13  1  0.33333300  0.66666700  0.25000000  1
  Li  Li14  1  0.33333300  0.66666700  0.75000000  1
  Li  Li15  1  0.66666700  0.33333300  0.25000000  1
  Li  Li16  1  0.67642400  0.02764400  0.96401800  1
  Li  Li17  1  0.32357600  0.97235600  0.03598200  1
  Li  Li18  1  0.35122000  0.32357600  0.96401800  1
  Li  Li19  1  0.32357600  0.97235600  0.46401800  1
  Li  Li20  1  0.64878000  0.67642400  0.03598200  1
  Li  Li21  1  0.67642400  0.02764400  0.53598200  1
  Li  Li22  1  0.97235600  0.64878000  0.96401800  1
  Li  Li23  1  0.64878000  0.67642400  0.46401800  1
  Li  Li24  1  0.02764400  0.35122000  0.03598200  1
  Li  Li25  1  0.35122000  0.32357600  0.53598200  1
  Li  Li26  1  0.02764400  0.35122000  0.46401800  1
  Li  Li27  1  0.97235600  0.64878000  0.53598200  1
  Be  Be0  1  0.65015600  0.67540200  0.88940800  1
  Be  Be1  1  0.34984400  0.32459800  0.11059200  1
  Be  Be2  1  0.02524600  0.34984400  0.88940800  1
  Be  Be3  1  0.34984400  0.32459800  0.38940700  1
  Be  Be4  1  0.97475400  0.65015600  0.11059200  1
  Be  Be5  1  0.65015600  0.67540200  0.61059200  1
  Be  Be6  1  0.32459800  0.97475400  0.88940800  1
  Be  Be7  1  0.97475400  0.65015600  0.38940700  1
  Be  Be8  1  0.67540200  0.02524600  0.11059200  1
  Be  Be9  1  0.02524600  0.34984400  0.61059200  1
  Be  Be10  1  0.67540200  0.02524600  0.38940700  1
  Be  Be11  1  0.32459800  0.97475400  0.61059200  1
  B  B0  1  0.66666700  0.33333300  0.89283200  1
  B  B1  1  0.33333300  0.66666700  0.10716800  1
  B  B2  1  0.33333300  0.66666700  0.39283200  1
  B  B3  1  0.66666700  0.33333300  0.60716800  1
  B  B4  1  0.00000000  0.00000000  0.90707900  1
  B  B5  1  0.00000000  0.00000000  0.09292100  1
  B  B6  1  0.00000000  0.00000000  0.40707900  1
  B  B7  1  0.00000000  0.00000000  0.59292100  1
  B  B8  1  0.67758400  0.69918500  0.75000000  1
  B  B9  1  0.32241600  0.30081500  0.25000000  1
  B  B10  1  0.02160100  0.32241600  0.75000000  1
  B  B11  1  0.97839900  0.67758400  0.25000000  1
  B  B12  1  0.30081500  0.97839900  0.75000000  1
  B  B13  1  0.69918500  0.02160100  0.25000000  1
  B  B14  1  0.66666700  0.33333300  0.44862500  1
  B  B15  1  0.33333300  0.66666700  0.55137500  1
  B  B16  1  0.33333300  0.66666700  0.94862500  1
  B  B17  1  0.66666700  0.33333300  0.05137500  1
  O  O0  1  0.82104700  0.20030300  0.75000000  1
  O  O1  1  0.17895300  0.79969700  0.25000000  1
  O  O2  1  0.37925600  0.17895300  0.75000000  1
  O  O3  1  0.62074400  0.82104700  0.25000000  1
  O  O4  1  0.79969700  0.62074400  0.75000000  1
  O  O5  1  0.20030300  0.37925600  0.25000000  1
  O  O6  1  0.91058100  0.11369500  0.90665000  1
  O  O7  1  0.08941900  0.88630500  0.09335000  1
  O  O8  1  0.20311400  0.08941900  0.90665000  1
  O  O9  1  0.08941900  0.88630500  0.40665000  1
  O  O10  1  0.79688600  0.91058100  0.09335000  1
  O  O11  1  0.91058100  0.11369500  0.59335000  1
  O  O12  1  0.88630500  0.79688600  0.90665000  1
  O  O13  1  0.79688600  0.91058100  0.40665000  1
  O  O14  1  0.11369500  0.20311400  0.09335000  1
  O  O15  1  0.20311400  0.08941900  0.59335000  1
  O  O16  1  0.11369500  0.20311400  0.40665000  1
  O  O17  1  0.88630500  0.79688600  0.59335000  1
  O  O18  1  0.60797600  0.73865700  0.81151700  1
  O  O19  1  0.39202400  0.26134300  0.18848300  1
  O  O20  1  0.13068100  0.39202400  0.81151700  1
  O  O21  1  0.39202400  0.26134300  0.31151700  1
  O  O22  1  0.86931900  0.60797600  0.18848300  1
  O  O23  1  0.60797600  0.73865700  0.68848300  1
  O  O24  1  0.26134300  0.86931900  0.81151700  1
  O  O25  1  0.86931900  0.60797600  0.31151700  1
  O  O26  1  0.73865700  0.13068100  0.18848300  1
  O  O27  1  0.13068100  0.39202400  0.68848300  1
  O  O28  1  0.73865700  0.13068100  0.31151700  1
  O  O29  1  0.26134300  0.86931900  0.68848300  1
  O  O30  1  0.87113000  0.43244900  0.89230500  1
  O  O31  1  0.12887000  0.56755100  0.10769500  1
  O  O32  1  0.56131900  0.12887000  0.89230500  1
  O  O33  1  0.12887000  0.56755100  0.39230500  1
  O  O34  1  0.43868100  0.87113000  0.10769500  1
  O  O35  1  0.87113000  0.43244900  0.60769500  1
  O  O36  1  0.56755100  0.43868100  0.89230500  1
  O  O37  1  0.43868100  0.87113000  0.39230500  1
  O  O38  1  0.43244900  0.56131900  0.10769500  1
  O  O39  1  0.56131900  0.12887000  0.60769500  1
  O  O40  1  0.43244900  0.56131900  0.39230500  1
  O  O41  1  0.56755100  0.43868100  0.60769500  1
  O  O42  1  0.53441100  0.73323100  0.94977900  1
  O  O43  1  0.46558900  0.26676900  0.05022100  1
  O  O44  1  0.19882000  0.46558900  0.94977900  1
  O  O45  1  0.46558900  0.26676900  0.44977900  1
  O  O46  1  0.80118000  0.53441100  0.05022100  1
  O  O47  1  0.53441100  0.73323100  0.55022100  1
  O  O48  1  0.26676900  0.80118000  0.94977900  1
  O  O49  1  0.80118000  0.53441100  0.44977900  1
  O  O50  1  0.73323100  0.19882000  0.05022100  1
  O  O51  1  0.19882000  0.46558900  0.55022100  1
  O  O52  1  0.73323100  0.19882000  0.44977900  1
  O  O53  1  0.26676900  0.80118000  0.55022100  1
loop_
_geom_bond_atom_site_label_1
_geom_bond_atom_site_label_2
_geom_bond_distance
_geom_bond_site_symmetry_2
Li0 O0 1.971375 1_555
Li0 O18 2.008204 1_545
Li0 O32 2.024502 1_555
Li0 O6 2.055310 1_555
Li1 O1 1.971375 1_555
Li1 O19 2.008204 1_565
Li1 O34 2.024502 1_555
Li1 O7 2.055310 1_555
Li2 O2 1.971375 1_555
Li2 O20 2.008205 1_555
Li2 O36 2.024502 1_555
Li2 O8 2.055310 1_555
Li3 O1 1.971375 1_555
Li3 O21 2.008204 1_565
Li3 O37 2.024502 1_555
Li3 O9 2.055310 1_555
Li4 O3 1.971375 1_555
Li4 O22 2.008205 1_555
Li4 O38 2.024502 1_555
Li4 O10 2.055310 1_555
Li5 O0 1.971375 1_555
Li5 O23 2.008204 1_545
Li5 O39 2.024502 1_555
Li5 O11 2.055310 1_555
Li6 O4 1.971375 1_555
Li6 O24 2.008204 1_655
Li6 O30 2.024502 1_555
Li6 O12 2.055310 1_555
Li7 O3 1.971375 1_555
Li7 O25 2.008205 1_555
Li7 O40 2.024502 1_555
Li7 O13 2.055310 1_555
Li8 O5 1.971375 1_555
Li8 O26 2.008204 1_455
Li8 O31 2.024502 1_555
Li8 O14 2.055310 1_555
Li9 O2 1.971375 1_555
Li9 O27 2.008205 1_555
Li9 O41 2.024502 1_555
Li9 O15 2.055310 1_555
Li10 O5 1.971375 1_555
Li10 O28 2.008204 1_455
Li10 O33 2.024502 1_555
Li10 O16 2.055310 1_555
Li11 O4 1.971375 1_555
Li11 O29 2.008204 1_655
Li11 O35 2.024502 1_555
Li11 O17 2.055310 1_555
Li12 O0 1.950453 1_555
Li12 O2 1.950460 1_555
Li12 O4 1.950460 1_555
Li13 O1 1.950453 1_555
Li13 O3 1.950460 1_555
Li13 O5 1.950460 1_555
Li14 O29 2.261701 1_555
Li14 O24 2.261701 1_555
Li14 O27 2.261705 1_555
Li14 O20 2.261705 1_555
Li14 O18 2.261707 1_555
Li14 O23 2.261707 1_555
Li15 O26 2.261701 1_555
Li15 O28 2.261701 1_555
Li15 O25 2.261705 1_555
Li15 O22 2.261705 1_555
Li15 O21 2.261707 1_555
Li15 O19 2.261707 1_555
Li16 O6 1.945531 1_555
Li16 O32 2.009525 1_555
Li16 O42 2.015071 1_545
Li16 O50 2.029744 1_556
Li17 O7 1.945531 1_555
Li17 O34 2.009525 1_555
Li17 O43 2.015071 1_565
Li17 O48 2.029744 1_554
Li18 O8 1.945531 1_555
Li18 O36 2.009525 1_555
Li18 O44 2.015071 1_555
Li18 O43 2.029745 1_556
Li19 O9 1.945531 1_555
Li19 O37 2.009525 1_555
Li19 O45 2.015071 1_565
Li19 O53 2.029744 1_555
Li20 O10 1.945531 1_555
Li20 O38 2.009525 1_555
Li20 O46 2.015071 1_555
Li20 O42 2.029745 1_554
Li21 O11 1.945531 1_555
Li21 O39 2.009525 1_555
Li21 O47 2.015071 1_545
Li21 O52 2.029744 1_555
Li22 O12 1.945531 1_555
Li22 O30 2.009525 1_555
Li22 O48 2.015071 1_655
Li22 O46 2.029744 1_556
Li23 O13 1.945531 1_555
Li23 O40 2.009525 1_555
Li23 O49 2.015071 1_555
Li23 O47 2.029745 1_555
Li24 O14 1.945531 1_555
Li24 O31 2.009525 1_555
Li24 O50 2.015071 1_455
Li24 O44 2.029744 1_554
Li25 O15 1.945531 1_555
Li25 O41 2.009525 1_555
Li25 O51 2.015071 1_555
Li25 O45 2.029745 1_555
Li26 O16 1.945531 1_555
Li26 O33 2.009525 1_555
Li26 O52 2.015071 1_455
Li26 O51 2.029744 1_555
Li27 O17 1.945531 1_555
Li27 O35 2.009525 1_555
Li27 O53 2.015071 1_655
Li27 O49 2.029744 1_555
Be0 O36 1.630158 1_555
Be0 O12 1.634981 1_555
Be0 O18 1.655389 1_555
Be0 O42 1.664777 1_555
Be1 O38 1.630158 1_555
Be1 O14 1.634981 1_555
Be1 O19 1.655389 1_555
Be1 O43 1.664777 1_555
Be2 O30 1.630158 1_455
Be2 O6 1.634981 1_455
Be2 O20 1.655389 1_555
Be2 O44 1.664777 1_555
Be3 O40 1.630159 1_555
Be3 O16 1.634985 1_555
Be3 O21 1.655371 1_555
Be3 O45 1.664791 1_555
Be4 O31 1.630158 1_655
Be4 O7 1.634981 1_655
Be4 O22 1.655389 1_555
Be4 O46 1.664777 1_555
Be5 O41 1.630158 1_555
Be5 O17 1.634981 1_555
Be5 O23 1.655389 1_555
Be5 O47 1.664777 1_555
Be6 O32 1.630158 1_565
Be6 O8 1.634981 1_565
Be6 O24 1.655389 1_555
Be6 O48 1.664777 1_555
Be7 O33 1.630159 1_655
Be7 O9 1.634985 1_655
Be7 O25 1.655371 1_555
Be7 O49 1.664791 1_555
Be8 O34 1.630158 1_545
Be8 O10 1.634981 1_545
Be8 O26 1.655389 1_555
Be8 O50 1.664777 1_555
Be9 O35 1.630158 1_455
Be9 O11 1.634981 1_455
Be9 O27 1.655389 1_555
Be9 O51 1.664777 1_555
Be10 O37 1.630159 1_545
Be10 O13 1.634985 1_545
Be10 O28 1.655371 1_555
Be10 O52 1.664791 1_555
Be11 O39 1.630158 1_565
Be11 O15 1.634981 1_565
Be11 O29 1.655389 1_555
Be11 O53 1.664777 1_555
B0 O30 1.386526 1_555
B0 O32 1.386526 1_555
B0 O36 1.386533 1_555
B1 O31 1.386526 1_555
B1 O34 1.386526 1_555
B1 O38 1.386533 1_555
B2 O33 1.386526 1_555
B2 O37 1.386526 1_555
B2 O40 1.386533 1_555
B3 O35 1.386526 1_555
B3 O39 1.386526 1_555
B3 O41 1.386533 1_555
B4 O12 1.380428 1_445
B4 O8 1.380428 1_555
B4 O6 1.380428 1_455
B5 O14 1.380428 1_555
B5 O10 1.380428 1_445
B5 O7 1.380428 1_545
B6 O16 1.380428 1_555
B6 O13 1.380428 1_445
B6 O9 1.380428 1_545
B7 O17 1.380428 1_445
B7 O15 1.380428 1_555
B7 O11 1.380428 1_455
B8 O4 1.370476 1_555
B8 O23 1.395411 1_555
B8 O18 1.395411 1_555
B9 O5 1.370476 1_555
B9 O19 1.395411 1_555
B9 O21 1.395411 1_555
B10 O0 1.370476 1_455
B10 O20 1.395411 1_555
B10 O27 1.395411 1_555
B11 O1 1.370476 1_655
B11 O25 1.395411 1_555
B11 O22 1.395411 1_555
B12 O2 1.370476 1_565
B12 O29 1.395411 1_555
B12 O24 1.395411 1_555
B13 O3 1.370476 1_545
B13 O26 1.395411 1_555
B13 O28 1.395411 1_555
B14 O52 1.389198 1_555
B14 O49 1.389204 1_555
B14 O45 1.389205 1_555
B15 O53 1.389198 1_555
B15 O51 1.389204 1_555
B15 O47 1.389205 1_555
B16 O48 1.389198 1_555
B16 O44 1.389204 1_555
B16 O42 1.389205 1_555
B17 O50 1.389198 1_555
B17 O46 1.389204 1_555
B17 O43 1.389205 1_555
