# generated using pymatgen
data_AlH15(OF)6
_symmetry_space_group_name_H-M   'P 1'
_cell_length_a   8.18362000
_cell_length_b   8.19439418
_cell_length_c   8.19790169
_cell_angle_alpha   74.31289527
_cell_angle_beta   74.77228215
_cell_angle_gamma   75.24037420
_symmetry_Int_Tables_number   1
_chemical_formula_structural   AlH15(OF)6
_chemical_formula_sum   'Al2 H30 O12 F12'
_cell_volume   500.59993399
_cell_formula_units_Z   2
loop_
 _symmetry_equiv_pos_site_id
 _symmetry_equiv_pos_as_xyz
  1  'x, y, z'
loop_
 _atom_site_type_symbol
 _atom_site_label
 _atom_site_symmetry_multiplicity
 _atom_site_fract_x
 _atom_site_fract_y
 _atom_site_fract_z
 _atom_site_occupancy
  Al  Al0  1  0.50000000  0.50000000  0.50000000  1
  Al  Al1  1  0.00000000  0.00000000  0.00000000  1
  H  H0  1  0.81331300  0.71019400  0.05053700  1
  H  H1  1  0.71192400  0.05184600  0.81127700  1
  H  H2  1  0.04784900  0.81210200  0.70332100  1
  H  H3  1  0.21147400  0.31268000  0.54975100  1
  H  H4  1  0.31310700  0.54565200  0.20288500  1
  H  H5  1  0.54611800  0.20454500  0.31123700  1
  H  H6  1  0.18668700  0.28980600  0.94946300  1
  H  H7  1  0.28807600  0.94815400  0.18872300  1
  H  H8  1  0.95215100  0.18789800  0.29667900  1
  H  H9  1  0.78852600  0.68732000  0.45024900  1
  H  H10  1  0.68689300  0.45434800  0.79711500  1
  H  H11  1  0.45388200  0.79545500  0.68876300  1
  H  H12  1  0.62697000  0.63865000  0.13086900  1
  H  H13  1  0.64058800  0.13298500  0.62576200  1
  H  H14  1  0.12215600  0.63197200  0.63679800  1
  H  H15  1  0.13953700  0.12627200  0.63191900  1
  H  H16  1  0.13229600  0.62119300  0.13567100  1
  H  H17  1  0.62313300  0.13711900  0.13121900  1
  H  H18  1  0.37303000  0.36135000  0.86913100  1
  H  H19  1  0.35941200  0.86701500  0.37423800  1
  H  H20  1  0.87784400  0.36802800  0.36320200  1
  H  H21  1  0.86046300  0.87372800  0.36808100  1
  H  H22  1  0.86770400  0.37880700  0.86432900  1
  H  H23  1  0.37686700  0.86288100  0.86878100  1
  H  H24  1  0.74547500  0.59178500  0.93098900  1
  H  H25  1  0.59085900  0.93185600  0.74551600  1
  H  H26  1  0.09179600  0.24552400  0.43154900  1
  H  H27  1  0.25452500  0.40821500  0.06901100  1
  H  H28  1  0.40914100  0.06814400  0.25448400  1
  H  H29  1  0.90820400  0.75447600  0.56845100  1
  O  O0  1  0.71186600  0.68153900  0.02370200  1
  O  O1  1  0.68219100  0.02547500  0.71056400  1
  O  O2  1  0.01645800  0.71653900  0.67313300  1
  O  O3  1  0.18192200  0.21121700  0.52392500  1
  O  O4  1  0.21685900  0.51500600  0.17251900  1
  O  O5  1  0.51633900  0.17304100  0.21545200  1
  O  O6  1  0.28813400  0.31846100  0.97629800  1
  O  O7  1  0.31780900  0.97452500  0.28943600  1
  O  O8  1  0.98354200  0.28346100  0.32686700  1
  O  O9  1  0.81807800  0.78878300  0.47607500  1
  O  O10  1  0.78314100  0.48499400  0.82748100  1
  O  O11  1  0.48366100  0.82695900  0.78454800  1
  F  F0  1  0.47265600  0.57539400  0.27481300  1
  F  F1  1  0.57707100  0.27652100  0.47098600  1
  F  F2  1  0.27602600  0.46597400  0.57359000  1
  F  F3  1  0.07825500  0.97169500  0.77614700  1
  F  F4  1  0.96652600  0.77586100  0.07463500  1
  F  F5  1  0.77725100  0.07642700  0.96511100  1
  F  F6  1  0.52734400  0.42460600  0.72518700  1
  F  F7  1  0.42292900  0.72347900  0.52901400  1
  F  F8  1  0.72397400  0.53402600  0.42641000  1
  F  F9  1  0.92174500  0.02830500  0.22385300  1
  F  F10  1  0.03347400  0.22413900  0.92536500  1
  F  F11  1  0.22274900  0.92357400  0.03488900  1
loop_
_geom_bond_atom_site_label_1
_geom_bond_atom_site_label_2
_geom_bond_distance
_geom_bond_site_symmetry_2
Al0 F6 1.835624 1_555
Al0 F0 1.835624 1_555
Al0 F7 1.837436 1_555
Al0 F1 1.837436 1_555
Al0 F2 1.841153 1_555
Al0 F8 1.841153 1_555
Al1 F9 1.835410 1_455
Al1 F3 1.835410 1_544
Al1 F10 1.839409 1_554
Al1 F4 1.839409 1_445
Al1 F11 1.841817 1_545
Al1 F5 1.841817 1_454
H0 O0 1.007955 1_555
H1 O1 1.008158 1_555
H2 O2 0.990530 1_555
H3 O3 1.009518 1_555
H4 O4 0.991479 1_555
H5 O5 0.992387 1_555
H6 O6 1.007955 1_555
H7 O7 1.008158 1_555
H8 O8 0.990530 1_555
H9 O9 1.009518 1_555
H10 O10 0.991479 1_555
H11 O11 0.992387 1_555
H12 O0 1.007398 1_555
H13 O1 1.007796 1_555
H14 O2 0.993985 1_555
H15 O3 1.008508 1_555
H16 O4 0.994059 1_555
H17 O5 0.994538 1_555
H18 O6 1.007398 1_555
H19 O7 1.007796 1_555
H20 O8 0.993985 1_555
H21 O9 1.008508 1_555
H22 O10 0.994059 1_555
H23 O11 0.994538 1_555
H24 O0 1.132988 1_556
H24 O10 1.306727 1_555
H25 O1 1.135806 1_565
H25 O11 1.303406 1_555
H26 O3 1.126563 1_555
H26 O8 1.316328 1_455
H27 O6 1.132988 1_554
H27 O4 1.306727 1_555
H28 O7 1.135806 1_545
H28 O5 1.303406 1_555
H29 O9 1.126563 1_555
H29 O2 1.316328 1_655
F0 H12 1.573497 1_555
F0 H4 1.660186 1_555
F1 H13 1.578441 1_555
F1 H5 1.671878 1_555
F2 H3 1.555725 1_555
F3 H15 1.567239 1_565
F3 H2 1.671725 1_555
F4 H0 1.559509 1_555
F5 H1 1.569458 1_555
F6 H18 1.573497 1_555
F6 H10 1.660186 1_555
F7 H19 1.578441 1_555
F7 H11 1.671878 1_555
F8 H9 1.555725 1_555
F9 H21 1.567239 1_545
F9 H8 1.671725 1_555
F10 H6 1.559509 1_555
F11 H7 1.569455 1_555
