# generated using pymatgen
data_Na2Ga2Si3(HO3)4
_symmetry_space_group_name_H-M   'P 1'
_cell_length_a   17.71550642
_cell_length_b   9.00309780
_cell_length_c   7.98757356
_cell_angle_alpha   87.19950081
_cell_angle_beta   78.07900685
_cell_angle_gamma   70.27608409
_symmetry_Int_Tables_number   1
_chemical_formula_structural   Na2Ga2Si3(HO3)4
_chemical_formula_sum   'Na8 Ga8 Si12 H16 O48'
_cell_volume   1173.06506016
_cell_formula_units_Z   4
loop_
 _symmetry_equiv_pos_site_id
 _symmetry_equiv_pos_as_xyz
  1  'x, y, z'
loop_
 _atom_site_type_symbol
 _atom_site_label
 _atom_site_symmetry_multiplicity
 _atom_site_fract_x
 _atom_site_fract_y
 _atom_site_fract_z
 _atom_site_occupancy
  Na  Na0  1  0.24021000  0.42762300  0.85875700  1
  Na  Na1  1  0.07211500  0.06106800  0.32979600  1
  Na  Na2  1  0.21579700  0.20024600  0.55921800  1
  Na  Na3  1  0.42818800  0.58254100  0.98532500  1
  Na  Na4  1  0.71581500  0.63281800  0.03762000  1
  Na  Na5  1  0.61083200  0.11467400  0.28952200  1
  Na  Na6  1  0.74075900  0.25712300  0.52424600  1
  Na  Na7  1  0.96665400  0.45322500  0.02965100  1
  Ga  Ga0  1  0.37881600  0.00308100  0.90440200  1
  Ga  Ga1  1  0.06382700  0.71141200  0.07304100  1
  Ga  Ga2  1  0.25604400  0.50381200  0.40276600  1
  Ga  Ga3  1  0.17224000  0.07394700  0.93728400  1
  Ga  Ga4  1  0.96829800  0.82108200  0.87826400  1
  Ga  Ga5  1  0.84760000  0.66150100  0.77880800  1
  Ga  Ga6  1  0.71486200  0.69456100  0.42246400  1
  Ga  Ga7  1  0.75553900  0.18026400  0.96853200  1
  Si  Si0  1  0.93020400  0.87779700  0.40062300  1
  Si  Si1  1  0.97365000  0.42181700  0.54840000  1
  Si  Si2  1  0.21026200  0.82466200  0.52787300  1
  Si  Si3  1  0.21711600  0.75624400  0.13990200  1
  Si  Si4  1  0.44652300  0.05315500  0.19795300  1
  Si  Si5  1  0.40134600  0.20179700  0.54317800  1
  Si  Si6  1  0.58161100  0.56939300  0.28458700  1
  Si  Si7  1  0.47730300  0.44536600  0.59786900  1
  Si  Si8  1  0.66398100  0.96391300  0.81615700  1
  Si  Si9  1  0.52917000  0.82624500  0.02758000  1
  Si  Si10  1  0.90889000  0.13803100  0.65752400  1
  Si  Si11  1  0.09022900  0.42724800  0.33798100  1
  H  H0  1  0.98298900  0.05455400  0.15639000  1
  H  H1  1  0.08042700  0.96228200  0.69529600  1
  H  H2  1  0.27674400  0.89291000  0.50887700  1
  H  H3  1  0.25926700  0.13796000  0.21607200  1
  H  H4  1  0.39981600  0.74172200  0.33320100  1
  H  H5  1  0.33713000  0.59359700  0.65074500  1
  H  H6  1  0.36944700  0.72445800  0.29115000  1
  H  H7  1  0.55019400  0.29018800  0.78017400  1
  H  H8  1  0.51893600  0.17630600  0.02820800  1
  H  H9  1  0.52522700  0.09318300  0.76917100  1
  H  H10  1  0.80395000  0.53065700  0.80451100  1
  H  H11  1  0.85951700  0.14685900  0.11858100  1
  H  H12  1  0.86391700  0.82745800  0.36937300  1
  H  H13  1  0.75863700  0.52186900  0.64611200  1
  H  H14  1  0.90279600  0.52163300  0.46970200  1
  H  H15  1  0.99956700  0.12705100  0.88839000  1
  O  O0  1  0.02066900  0.18240300  0.96785200  1
  O  O1  1  0.20609800  0.13540200  0.29156200  1
  O  O2  1  0.17495400  0.64245300  0.05599600  1
  O  O3  1  0.04455800  0.53505000  0.19307900  1
  O  O4  1  0.14786900  0.92995200  0.07504400  1
  O  O5  1  0.15983500  0.45743200  0.42066500  1
  O  O6  1  0.14069800  0.25111800  0.21568300  1
  O  O7  1  0.18381500  0.23887300  0.83307400  1
  O  O8  1  0.96964300  0.02195400  0.77871200  1
  O  O9  1  0.38616900  0.55042200  0.70322000  1
  O  O10  1  0.17555600  0.82524900  0.35223500  1
  O  O11  1  0.38643900  0.15023100  0.74144600  1
  O  O12  1  0.36031300  0.09897500  0.12274600  1
  O  O13  1  0.13877100  0.95605400  0.66723900  1
  O  O14  1  0.24132700  0.64229800  0.59173900  1
  O  O15  1  0.29232100  0.59039300  0.20377300  1
  O  O16  1  0.51356200  0.54390200  0.44342100  1
  O  O17  1  0.53524100  0.40443100  0.74031400  1
  O  O18  1  0.29208900  0.92611600  0.89953500  1
  O  O19  1  0.30420800  0.79312200  0.02298500  1
  O  O20  1  0.49205600  0.18890500  0.15437200  1
  O  O21  1  0.47493700  0.28256900  0.51461200  1
  O  O22  1  0.31680900  0.32305300  0.49952100  1
  O  O23  1  0.68133200  0.08759800  0.94517000  1
  O  O24  1  0.64151500  0.37895900  0.23221200  1
  O  O25  1  0.62003900  0.83654700  0.93767200  1
  O  O26  1  0.47260800  0.82881200  0.88737100  1
  O  O27  1  0.80715000  0.77496800  0.13101900  1
  O  O28  1  0.63082900  0.68147300  0.32053900  1
  O  O29  1  0.43141700  0.04807000  0.40994900  1
  O  O30  1  0.69868000  0.38878700  0.06734500  1
  O  O31  1  0.70461500  0.90620100  0.44880900  1
  O  O32  1  0.54093700  0.64979300  0.11940800  1
  O  O33  1  0.81708400  0.22931800  0.76300000  1
  O  O34  1  0.64558200  0.99700400  0.60212900  1
  O  O35  1  0.75764900  0.83527800  0.75665800  1
  O  O36  1  0.00034200  0.88318000  0.23410100  1
  O  O37  1  0.55879100  0.11895600  0.83860900  1
  O  O38  1  0.73101600  0.51815200  0.55208800  1
  O  O39  1  0.80590800  0.63060500  0.22652200  1
  O  O40  1  0.95888200  0.49029000  0.74089600  1
  O  O41  1  0.82442000  0.08364300  0.11632600  1
  O  O42  1  0.91866300  0.79580500  0.69007000  1
  O  O43  1  0.87704900  0.71909300  0.99028600  1
  O  O44  1  0.96811600  0.17349200  0.13466500  1
  O  O45  1  0.96625000  0.24015000  0.55704100  1
  O  O46  1  0.89427600  0.05505400  0.49131200  1
  O  O47  1  0.98447400  0.75108000  0.53270300  1
loop_
_geom_bond_atom_site_label_1
_geom_bond_atom_site_label_2
_geom_bond_distance
_geom_bond_site_symmetry_2
Na0 O7 2.278735 1_555
Na0 O2 2.365484 1_556
Na1 O10 2.317373 1_545
Na1 O4 2.317835 1_545
Na1 O6 2.455184 1_555
Na1 O45 2.500032 1_455
Na1 O44 2.573262 1_455
Na1 O36 2.580994 1_545
Na1 O1 2.632064 1_555
Na2 O7 2.157822 1_555
Na2 O1 2.298365 1_555
Na2 O22 2.362939 1_555
Na2 O5 2.494492 1_555
Na3 O19 2.341160 1_556
Na3 O9 2.572386 1_555
Na3 O17 2.592049 1_555
Na3 O26 2.627014 1_555
Na3 O15 2.646723 1_556
Na3 O32 2.695682 1_556
Na4 O25 2.279558 1_554
Na4 O30 2.311902 1_555
Na4 O39 2.407266 1_555
Na4 O28 2.410699 1_555
Na4 O27 2.608102 1_555
Na5 O20 2.440963 1_555
Na5 O31 2.537123 1_545
Na5 O24 2.613471 1_555
Na5 O21 2.708195 1_555
Na5 O23 2.761442 1_554
Na5 O34 2.769930 1_545
Na6 O38 2.315923 1_555
Na6 O33 2.513565 1_555
Na6 O46 2.680837 1_555
Na7 O0 2.334946 1_654
Na7 O40 2.339873 1_554
Na7 O3 2.382424 1_655
Na7 O43 2.432318 1_554
Na7 O44 2.608725 1_555
Na7 O39 2.908320 1_555
Ga0 O11 1.829538 1_555
Ga0 O26 1.846299 1_545
Ga0 O18 1.894233 1_545
Ga0 O12 1.901163 1_556
Ga1 O2 1.830901 1_555
Ga1 O3 1.907573 1_555
Ga1 O36 1.932387 1_555
Ga2 O15 1.828144 1_555
Ga2 O22 1.855487 1_555
Ga2 O5 1.863765 1_555
Ga2 O14 1.924265 1_555
Ga3 O7 1.718692 1_555
Ga3 O4 1.766353 1_546
Ga3 O18 2.058542 1_545
Ga4 O8 1.945296 1_565
Ga4 O42 1.949149 1_555
Ga4 O43 2.140313 1_555
Ga5 H10 1.597948 1_555
Ga5 O35 1.850680 1_555
Ga5 O43 2.006652 1_555
Ga5 O40 2.025353 1_555
Ga5 O42 2.030861 1_555
Ga6 O38 1.825189 1_555
Ga6 O31 1.870234 1_555
Ga6 O28 1.876530 1_555
Ga6 O39 1.949595 1_555
Ga7 O23 1.820962 1_555
Ga7 O41 1.848690 1_556
Ga7 O33 1.895700 1_555
Ga7 O30 1.924053 1_556
H0 O44 1.027845 1_555
H0 O36 1.589160 1_645
H0 Na1 2.321380 1_655
H1 O13 0.994032 1_555
H2 Si2 1.480949 1_555
H3 O1 1.014874 1_555
H3 O12 1.712740 1_555
H4 H6 0.750082 1_555
H5 O9 0.994025 1_555
H6 Na3 2.653305 1_554
H7 O17 1.023902 1_555
H7 O37 1.555063 1_555
H8 O20 1.015694 1_555
H8 O37 1.564360 1_554
H9 O37 0.978248 1_555
H10 Na4 2.178931 1_556
H11 O41 0.977401 1_555
H12 Si0 1.462216 1_555
H13 O38 0.984845 1_555
H14 Si1 1.512508 1_555
H15 O0 1.022558 1_655
H15 O8 1.598509 1_555
O1 O6 1.486177 1_555
O2 Si3 1.687305 1_555
O3 Si11 1.638069 1_555
O4 Si3 1.762819 1_555
O5 Si11 1.615782 1_555
O6 Si11 1.761173 1_555
O8 Si10 1.661289 1_555
O9 Si7 1.641668 1_555
O10 Si2 1.643066 1_555
O10 Si3 1.755815 1_555
O11 Si5 1.622173 1_555
O12 Si4 1.671257 1_555
O13 Si2 1.666598 1_555
O14 Si2 1.637987 1_555
O15 Si3 1.768744 1_555
O16 Si6 1.625419 1_555
O16 Si7 1.634579 1_555
O17 Si7 1.634028 1_555
O18 O19 1.500220 1_556
O19 Si3 1.755863 1_555
O20 Si4 1.665352 1_555
O21 Si7 1.655430 1_555
O21 Si5 1.667730 1_555
O22 Si5 1.622110 1_555
O23 Si8 1.694235 1_545
O24 O30 1.505238 1_555
O24 Si6 1.702731 1_555
O25 Si9 1.653007 1_556
O25 Si8 1.744872 1_555
O26 Si9 1.644469 1_556
O27 O43 1.452516 1_554
O27 O39 1.478900 1_555
O28 Si6 1.608276 1_555
O29 Si5 1.656451 1_555
O29 Si4 1.659691 1_555
O31 O34 1.501149 1_555
O32 Si6 1.652667 1_555
O32 Si9 1.682536 1_555
O33 Si10 1.621657 1_555
O34 Si8 1.797916 1_555
O35 Si8 1.658756 1_555
O36 Si0 1.633092 1_455
O37 Si8 1.893112 1_545
O40 Si1 1.621788 1_555
O42 O47 1.492837 1_555
O45 Si10 1.656380 1_555
O45 Si1 1.681363 1_555
O46 Si0 1.647273 1_545
O46 Si10 1.660474 1_555
O47 Si0 1.702928 1_555
