# generated using pymatgen
data_Sr2YCoO6
_symmetry_space_group_name_H-M   'P 1'
_cell_length_a   5.79042501
_cell_length_b   9.98599162
_cell_length_c   9.85399759
_cell_angle_alpha   79.16929852
_cell_angle_beta   90.00567993
_cell_angle_gamma   106.85789574
_symmetry_Int_Tables_number   1
_chemical_formula_structural   Sr2YCoO6
_chemical_formula_sum   'Sr8 Y4 Co4 O24'
_cell_volume   534.69232295
_cell_formula_units_Z   4
loop_
 _symmetry_equiv_pos_site_id
 _symmetry_equiv_pos_as_xyz
  1  'x, y, z'
loop_
 _atom_site_type_symbol
 _atom_site_label
 _atom_site_symmetry_multiplicity
 _atom_site_fract_x
 _atom_site_fract_y
 _atom_site_fract_z
 _atom_site_occupancy
  Sr  Sr0  1  0.68725500  0.37479400  0.43751700  1
  Sr  Sr1  1  0.43753200  0.87513100  0.18746000  1
  Sr  Sr2  1  0.18744100  0.37488600  0.93751900  1
  Sr  Sr3  1  0.93750000  0.87513900  0.68752600  1
  Sr  Sr4  1  0.31244200  0.62487100  0.56251000  1
  Sr  Sr5  1  0.06265000  0.12516500  0.31248800  1
  Sr  Sr6  1  0.81256700  0.62482800  0.06246400  1
  Sr  Sr7  1  0.56261300  0.12518800  0.81251600  1
  Y  Y0  1  0.12499700  0.24999700  0.62500400  1
  Y  Y1  1  0.87500000  0.74999900  0.37502200  1
  Y  Y2  1  0.62502200  0.25005400  0.12500500  1
  Y  Y3  1  0.37497300  0.74993500  0.87498800  1
  Co  Co0  1  0.49991200  0.99982000  0.49996400  1
  Co  Co1  1  0.25007000  0.50014900  0.25010500  1
  Co  Co2  1  0.75011300  0.50021700  0.74994500  1
  Co  Co3  1  0.99990700  0.99981800  0.99997500  1
  O  O0  1  0.80585600  0.61168400  0.58213900  1
  O  O1  1  0.55590100  0.11199400  0.33230700  1
  O  O2  1  0.30565900  0.61168400  0.08212100  1
  O  O3  1  0.05590800  0.11187300  0.83233300  1
  O  O4  1  0.19422900  0.38811100  0.41772400  1
  O  O5  1  0.94418900  0.88833500  0.16782800  1
  O  O6  1  0.69403700  0.38811200  0.91769700  1
  O  O7  1  0.44422500  0.88821400  0.66783900  1
  O  O8  1  0.79105000  0.11636900  0.55819000  1
  O  O9  1  0.54097300  0.61641300  0.30826100  1
  O  O10  1  0.29103300  0.11635600  0.05821500  1
  O  O11  1  0.04102600  0.61647300  0.80820100  1
  O  O12  1  0.45894100  0.38365400  0.69177400  1
  O  O13  1  0.20898900  0.88351700  0.44181600  1
  O  O14  1  0.95895500  0.38368600  0.19173300  1
  O  O15  1  0.70902300  0.88353300  0.94181300  1
  O  O16  1  0.32530300  0.11637600  0.55816700  1
  O  O17  1  0.07546800  0.61649000  0.30816700  1
  O  O18  1  0.82528600  0.11636100  0.05822400  1
  O  O19  1  0.57545500  0.61649200  0.80820300  1
  O  O20  1  0.92471800  0.38363600  0.69177000  1
  O  O21  1  0.67451800  0.88349300  0.44183700  1
  O  O22  1  0.42471500  0.38361900  0.19182700  1
  O  O23  1  0.17454900  0.88353700  0.94180600  1
loop_
_geom_bond_atom_site_label_1
_geom_bond_atom_site_label_2
_geom_bond_distance
_geom_bond_site_symmetry_2
Co0 O7 1.783645 1_555
Co0 O1 1.784173 1_565
Co0 O13 1.905282 1_555
Co0 O21 1.905533 1_555
Co0 O8 1.907489 1_565
Co0 O16 1.907732 1_565
Co1 O4 1.783326 1_555
Co1 O2 1.784233 1_555
Co1 O9 1.905073 1_555
Co1 O17 1.905366 1_555
Co1 O14 1.907640 1_455
Co1 O22 1.907973 1_555
Co2 O0 1.782542 1_555
Co2 O6 1.784653 1_555
Co2 O11 1.905491 1_655
Co2 O19 1.905857 1_555
Co2 O12 1.907460 1_555
Co2 O20 1.907806 1_555
Co3 O5 1.782980 1_556
Co3 O3 1.783577 1_665
Co3 O15 1.905106 1_555
Co3 O23 1.905476 1_655
Co3 O10 1.907452 1_666
Co3 O18 1.907863 1_566
O0 Y1 2.203057 1_555
O0 Sr0 2.902247 1_555
O0 Sr4 2.902720 1_655
O0 Sr4 2.902787 1_555
O0 Sr3 2.905923 1_555
O1 Y2 2.203514 1_555
O1 Sr0 2.899141 1_555
O1 Sr5 2.901904 1_555
O1 Sr1 2.903450 1_545
O1 Sr5 2.903813 1_655
O2 Y3 2.202929 1_554
O2 Sr6 2.900807 1_455
O2 Sr2 2.901350 1_554
O2 Sr6 2.904708 1_555
O2 Sr1 2.905602 1_555
O3 Y0 2.203985 1_555
O3 Sr2 2.900922 1_555
O3 Sr3 2.902115 1_445
O3 Sr7 2.902615 1_455
O3 Sr7 2.903183 1_555
O4 Y0 2.203554 1_555
O4 Sr5 2.900583 1_555
O4 Sr0 2.901054 1_555
O4 Sr4 2.902200 1_555
O4 Sr0 2.904718 1_455
O5 Y1 2.203754 1_555
O5 Sr5 2.901986 1_665
O5 Sr1 2.902433 1_655
O5 Sr1 2.903088 1_555
O5 Sr6 2.906269 1_555
O6 Y2 2.203554 1_556
O6 Sr7 2.900100 1_555
O6 Sr6 2.901711 1_556
O6 Sr2 2.902788 1_555
O6 Sr2 2.902965 1_655
O7 Y3 2.203168 1_555
O7 Sr3 2.901662 1_555
O7 Sr7 2.903300 1_565
O7 Sr3 2.903848 1_455
O7 Sr4 2.904619 1_555
O8 Y0 2.187835 1_655
O8 Sr3 2.859564 1_545
O8 Sr0 2.860253 1_555
O8 Sr5 2.860717 1_655
O8 Sr7 2.861688 1_555
O9 Y1 2.187774 1_555
O9 Sr4 2.860090 1_555
O9 Sr0 2.862094 1_555
O9 Sr1 2.862187 1_555
O9 Sr6 2.862582 1_555
O10 Y2 2.188196 1_555
O10 Sr1 2.859418 1_545
O10 Sr7 2.860526 1_554
O10 Sr2 2.860683 1_554
O10 Sr5 2.861047 1_555
O11 Y3 2.187045 1_555
O11 Sr6 2.859678 1_456
O11 Sr4 2.861195 1_555
O11 Sr3 2.861654 1_455
O11 Sr2 2.862416 1_555
O12 Y0 2.187762 1_555
O12 Sr4 2.859404 1_555
O12 Sr7 2.860447 1_555
O12 Sr2 2.860840 1_555
O12 Sr0 2.860888 1_555
O13 Y1 2.187475 1_455
O13 Sr1 2.860817 1_555
O13 Sr4 2.861324 1_555
O13 Sr3 2.861639 1_455
O13 Sr5 2.862721 1_565
O14 Y2 2.187442 1_555
O14 Sr6 2.858438 1_555
O14 Sr2 2.860786 1_654
O14 Sr5 2.861027 1_655
O14 Sr0 2.861433 1_555
O15 Y3 2.188179 1_555
O15 Sr3 2.860063 1_555
O15 Sr1 2.861054 1_556
O15 Sr6 2.861990 1_556
O15 Sr7 2.862915 1_565
O16 Y0 2.188046 1_555
O16 Sr0 2.859360 1_555
O16 Sr5 2.859799 1_555
O16 Sr3 2.860002 1_445
O16 Sr7 2.861791 1_555
O17 Y1 2.187866 1_455
O17 Sr4 2.860584 1_555
O17 Sr6 2.860661 1_455
O17 Sr1 2.861166 1_555
O17 Sr0 2.863695 1_455
O18 Y2 2.188235 1_555
O18 Sr1 2.859463 1_545
O18 Sr7 2.860111 1_554
O18 Sr2 2.860701 1_654
O18 Sr5 2.861196 1_655
O19 Y3 2.187097 1_555
O19 Sr6 2.860224 1_556
O19 Sr4 2.860938 1_555
O19 Sr3 2.861078 1_555
O19 Sr2 2.862498 1_555
O20 Y0 2.187792 1_655
O20 Sr4 2.859463 1_655
O20 Sr7 2.860194 1_555
O20 Sr2 2.860588 1_655
O20 Sr0 2.861392 1_555
O21 Y1 2.187637 1_555
O21 Sr3 2.860802 1_555
O21 Sr1 2.860902 1_555
O21 Sr4 2.861000 1_555
O21 Sr5 2.863311 1_665
O22 Y2 2.187530 1_555
O22 Sr0 2.859545 1_555
O22 Sr5 2.859915 1_555
O22 Sr6 2.860018 1_555
O22 Sr2 2.861293 1_554
O23 Y3 2.188296 1_555
O23 Sr3 2.860251 1_455
O23 Sr1 2.860528 1_556
O23 Sr6 2.861240 1_456
O23 Sr7 2.862820 1_565
