# generated using pymatgen
data_La2Cu(SeO3)4
_symmetry_space_group_name_H-M   'P 1'
_cell_length_a   7.21315000
_cell_length_b   8.46058100
_cell_length_c   10.89703203
_cell_angle_alpha   69.63773090
_cell_angle_beta   90.00000000
_cell_angle_gamma   90.00000000
_symmetry_Int_Tables_number   1
_chemical_formula_structural   La2Cu(SeO3)4
_chemical_formula_sum   'La4 Cu2 Se8 O24'
_cell_volume   623.46187890
_cell_formula_units_Z   2
loop_
 _symmetry_equiv_pos_site_id
 _symmetry_equiv_pos_as_xyz
  1  'x, y, z'
loop_
 _atom_site_type_symbol
 _atom_site_label
 _atom_site_symmetry_multiplicity
 _atom_site_fract_x
 _atom_site_fract_y
 _atom_site_fract_z
 _atom_site_occupancy
  La  La0  1  0.66624500  0.23991400  0.41378500  1
  La  La1  1  0.16624500  0.26008600  0.58621500  1
  La  La2  1  0.33375500  0.76008600  0.58621500  1
  La  La3  1  0.83375500  0.73991400  0.41378500  1
  Cu  Cu0  1  0.50000000  0.50000000  0.00000000  1
  Cu  Cu1  1  0.00000000  0.00000000  0.00000000  1
  Se  Se0  1  0.82128000  0.86767700  0.68382800  1
  Se  Se1  1  0.32128000  0.63232300  0.31617200  1
  Se  Se2  1  0.67524900  0.13031800  0.12779200  1
  Se  Se3  1  0.17524900  0.36968200  0.87220800  1
  Se  Se4  1  0.32475100  0.86968200  0.87220800  1
  Se  Se5  1  0.82475100  0.63031800  0.12779200  1
  Se  Se6  1  0.17872000  0.13232300  0.31617200  1
  Se  Se7  1  0.67872000  0.36767700  0.68382800  1
  O  O0  1  0.34321000  0.09053500  0.44282500  1
  O  O1  1  0.84321000  0.40946500  0.55717500  1
  O  O2  1  0.65679000  0.90946500  0.55717500  1
  O  O3  1  0.15679000  0.59053500  0.44282500  1
  O  O4  1  0.11438700  0.92803200  0.34595300  1
  O  O5  1  0.61438700  0.57196800  0.65404700  1
  O  O6  1  0.88561300  0.07196800  0.65404700  1
  O  O7  1  0.38561300  0.42803200  0.34595300  1
  O  O8  1  0.01058200  0.21904900  0.38767000  1
  O  O9  1  0.51058200  0.28095100  0.61233000  1
  O  O10  1  0.98941800  0.78095100  0.61233000  1
  O  O11  1  0.48941800  0.71904900  0.38767000  1
  O  O12  1  0.71875200  0.03368800  0.29277300  1
  O  O13  1  0.21875200  0.46631200  0.70722700  1
  O  O14  1  0.60755200  0.67415400  0.05572300  1
  O  O15  1  0.10755200  0.82584600  0.94427700  1
  O  O16  1  0.39244800  0.32584600  0.94427700  1
  O  O17  1  0.89244800  0.17415400  0.05572300  1
  O  O18  1  0.87084600  0.82688400  0.14342700  1
  O  O19  1  0.37084600  0.67311600  0.85657300  1
  O  O20  1  0.12915400  0.17311600  0.85657300  1
  O  O21  1  0.62915400  0.32688400  0.14342700  1
  O  O22  1  0.78124800  0.53368800  0.29277300  1
  O  O23  1  0.28124800  0.96631200  0.70722700  1
loop_
_geom_bond_atom_site_label_1
_geom_bond_atom_site_label_2
_geom_bond_distance
_geom_bond_site_symmetry_2
La0 O8 2.513194 1_655
La0 O22 2.514725 1_555
La0 O7 2.521580 1_555
La0 O12 2.554954 1_555
La0 O9 2.566121 1_555
La0 O0 2.616956 1_555
La0 O2 2.687472 1_545
La0 O1 2.772815 1_555
La0 O21 2.789968 1_555
La0 O6 2.964551 1_555
La1 O9 2.513194 1_555
La1 O23 2.514725 1_545
La1 O6 2.521580 1_455
La1 O13 2.554954 1_555
La1 O8 2.566121 1_555
La1 O1 2.616956 1_455
La1 O3 2.687472 1_555
La1 O0 2.772815 1_555
La1 O20 2.789968 1_555
La1 O7 2.964551 1_555
La2 O10 2.513194 1_455
La2 O13 2.514725 1_555
La2 O5 2.521580 1_555
La2 O23 2.554954 1_555
La2 O11 2.566121 1_555
La2 O2 2.616956 1_555
La2 O0 2.687472 1_565
La2 O3 2.772815 1_555
La2 O19 2.789968 1_555
La2 O4 2.964551 1_555
La3 O11 2.513194 1_555
La3 O12 2.514725 1_565
La3 O4 2.521580 1_655
La3 O22 2.554954 1_555
La3 O10 2.566121 1_555
La3 O3 2.616956 1_655
La3 O1 2.687472 1_555
La3 O2 2.772815 1_555
La3 O18 2.789968 1_555
La3 O5 2.964551 1_555
Cu0 O14 1.940161 1_555
Cu0 O16 1.940161 1_554
Cu0 O21 1.965407 1_555
Cu0 O19 1.965407 1_554
Cu1 O17 1.940161 1_455
Cu1 O15 1.940161 1_544
Cu1 O18 1.965407 1_445
Cu1 O20 1.965407 1_554
O0 Se6 1.760108 1_555
O1 Se7 1.760108 1_555
O2 Se0 1.760108 1_555
O3 Se1 1.760108 1_555
O4 Se6 1.708141 1_565
O5 Se7 1.708141 1_555
O6 Se0 1.708141 1_545
O7 Se1 1.708141 1_555
O8 Se6 1.736129 1_555
O9 Se7 1.736129 1_555
O10 Se0 1.736129 1_555
O11 Se1 1.736129 1_555
O12 Se2 1.725139 1_555
O13 Se3 1.725139 1_555
O14 Se5 1.733819 1_555
O15 Se4 1.733819 1_555
O16 Se3 1.733819 1_555
O17 Se2 1.733819 1_555
O18 Se5 1.761402 1_555
O19 Se4 1.761402 1_555
O20 Se3 1.761402 1_555
O21 Se2 1.761402 1_555
O22 Se5 1.725139 1_555
O23 Se4 1.725139 1_555
