# generated using pymatgen
data_La4Ga3FeO12
_symmetry_space_group_name_H-M   'P 1'
_cell_length_a   5.59778976
_cell_length_b   9.65745735
_cell_length_c   18.49520892
_cell_angle_alpha   99.97140533
_cell_angle_beta   90.03870674
_cell_angle_gamma   90.03928744
_symmetry_Int_Tables_number   1
_chemical_formula_structural   La4Ga3FeO12
_chemical_formula_sum   'La16 Ga12 Fe4 O48'
_cell_volume   984.75456193
_cell_formula_units_Z   4
loop_
 _symmetry_equiv_pos_site_id
 _symmetry_equiv_pos_as_xyz
  1  'x, y, z'
loop_
 _atom_site_type_symbol
 _atom_site_label
 _atom_site_symmetry_multiplicity
 _atom_site_fract_x
 _atom_site_fract_y
 _atom_site_fract_z
 _atom_site_occupancy
  La  La0  1  0.53175000  0.68579300  0.56487800  1
  La  La1  1  0.53157300  0.93595900  0.31494600  1
  La  La2  1  0.53164400  0.43594400  0.81494800  1
  La  La3  1  0.53151300  0.18582900  0.06492300  1
  La  La4  1  0.46836600  0.81406900  0.93513700  1
  La  La5  1  0.46850100  0.06412400  0.68505300  1
  La  La6  1  0.46851400  0.56424200  0.18510100  1
  La  La7  1  0.46855700  0.31409200  0.43504600  1
  La  La8  1  0.03225200  0.56467400  0.68576800  1
  La  La9  1  0.03216800  0.81474100  0.43581800  1
  La  La10  1  0.03222700  0.31470100  0.93579600  1
  La  La11  1  0.03223200  0.06473800  0.18578500  1
  La  La12  1  0.96769600  0.93521600  0.81423500  1
  La  La13  1  0.96766700  0.18525100  0.56418100  1
  La  La14  1  0.96760300  0.68531500  0.06425700  1
  La  La15  1  0.96772100  0.43532000  0.31422500  1
  Ga  Ga0  1  0.50014100  0.37505600  0.62494600  1
  Ga  Ga1  1  0.50016500  0.62494400  0.37500000  1
  Ga  Ga2  1  0.49993700  0.12503000  0.87494500  1
  Ga  Ga3  1  0.49996200  0.87507200  0.12498800  1
  Ga  Ga4  1  0.00006300  0.62495000  0.87506800  1
  Ga  Ga5  1  0.00002900  0.87495900  0.62504400  1
  Ga  Ga6  1  0.00007700  0.37496000  0.12503000  1
  Ga  Ga7  1  0.99989200  0.12506300  0.37499400  1
  Ga  Ga8  1  0.50000900  0.75003900  0.74997700  1
  Ga  Ga9  1  0.50003400  0.00007300  0.49993000  1
  Ga  Ga10  1  0.50005000  0.50001900  0.99996300  1
  Ga  Ga11  1  0.50003100  0.24989800  0.25005400  1
  Fe  Fe0  1  0.99979300  0.25000400  0.75000100  1
  Fe  Fe1  1  0.00009300  0.49986800  0.49993400  1
  Fe  Fe2  1  0.00033000  0.99980600  0.00002500  1
  Fe  Fe3  1  0.00004000  0.75025500  0.24997700  1
  O  O0  1  0.51636800  0.95691800  0.79208500  1
  O  O1  1  0.51647200  0.20694500  0.54208700  1
  O  O2  1  0.51633500  0.70694500  0.04211800  1
  O  O3  1  0.51637900  0.45691100  0.29211700  1
  O  O4  1  0.48369200  0.54305600  0.70786000  1
  O  O5  1  0.48368600  0.79307600  0.45788000  1
  O  O6  1  0.48367900  0.29308000  0.95786800  1
  O  O7  1  0.48361900  0.04304300  0.20792300  1
  O  O8  1  0.01606000  0.04122600  0.70652600  1
  O  O9  1  0.01614700  0.29121300  0.45650500  1
  O  O10  1  0.01604300  0.79122400  0.95655500  1
  O  O11  1  0.01609200  0.54136000  0.20647800  1
  O  O12  1  0.98375300  0.45872200  0.79351200  1
  O  O13  1  0.98388700  0.70864100  0.54350100  1
  O  O14  1  0.98376500  0.20868000  0.04354400  1
  O  O15  1  0.98375500  0.95886100  0.29347100  1
  O  O16  1  0.21785900  0.03955400  0.91824000  1
  O  O17  1  0.21792300  0.28952500  0.66818200  1
  O  O18  1  0.21790700  0.78961400  0.16820400  1
  O  O19  1  0.21809600  0.53948200  0.41820100  1
  O  O20  1  0.78219000  0.46041200  0.58177600  1
  O  O21  1  0.78201300  0.71053700  0.33179800  1
  O  O22  1  0.78200800  0.21046600  0.83179700  1
  O  O23  1  0.78188000  0.96047000  0.08181400  1
  O  O24  1  0.71792200  0.71234200  0.83110900  1
  O  O25  1  0.71802600  0.96234500  0.58105600  1
  O  O26  1  0.71801700  0.46240100  0.08109200  1
  O  O27  1  0.71794900  0.21240500  0.33112500  1
  O  O28  1  0.28203400  0.78758500  0.66889200  1
  O  O29  1  0.28199700  0.03768100  0.41889000  1
  O  O30  1  0.28206000  0.53765800  0.91891300  1
  O  O31  1  0.28201300  0.28758300  0.16892000  1
  O  O32  1  0.78188600  0.77208800  0.68454800  1
  O  O33  1  0.78185700  0.02220200  0.43454000  1
  O  O34  1  0.78187100  0.52215800  0.93456400  1
  O  O35  1  0.78187200  0.27215800  0.18459800  1
  O  O36  1  0.21812300  0.72777700  0.81545000  1
  O  O37  1  0.21813800  0.97783700  0.56541900  1
  O  O38  1  0.21816100  0.47782600  0.06541100  1
  O  O39  1  0.21811700  0.22787400  0.31545200  1
  O  O40  1  0.28517100  0.47706000  0.56540800  1
  O  O41  1  0.28475600  0.72710400  0.31547900  1
  O  O42  1  0.28478000  0.22711200  0.81549300  1
  O  O43  1  0.28486100  0.97709800  0.06548000  1
  O  O44  1  0.71499900  0.02294200  0.93454800  1
  O  O45  1  0.71494700  0.27291600  0.68453600  1
  O  O46  1  0.71491700  0.77297900  0.18455100  1
  O  O47  1  0.71529000  0.52290400  0.43451000  1
loop_
_geom_bond_atom_site_label_1
_geom_bond_atom_site_label_2
_geom_bond_distance
_geom_bond_site_symmetry_2
La0 O5 2.402462 1_555
La0 O28 2.443734 1_555
La0 O40 2.443754 1_555
La0 O13 2.577131 1_555
La0 O32 2.628561 1_555
La0 O20 2.653267 1_555
La0 O25 2.833539 1_555
La0 O47 2.834785 1_555
La1 O7 2.401706 1_565
La1 O29 2.442176 1_565
La1 O41 2.445486 1_555
La1 O15 2.577743 1_555
La1 O33 2.627810 1_565
La1 O21 2.653379 1_555
La1 O27 2.832798 1_565
La1 O46 2.835122 1_555
La2 O4 2.402941 1_555
La2 O30 2.442460 1_555
La2 O42 2.445484 1_555
La2 O12 2.577086 1_555
La2 O34 2.627913 1_555
La2 O22 2.653595 1_555
La2 O24 2.832187 1_555
La2 O45 2.835466 1_555
La3 O6 2.403089 1_554
La3 O31 2.442718 1_555
La3 O43 2.444042 1_545
La3 O14 2.577773 1_555
La3 O35 2.629354 1_555
La3 O23 2.652838 1_545
La3 O26 2.834196 1_555
La3 O44 2.834765 1_554
La4 O2 2.401239 1_556
La4 O24 2.443240 1_555
La4 O44 2.445201 1_565
La4 O10 2.578278 1_555
La4 O36 2.629122 1_555
La4 O16 2.654305 1_565
La4 O30 2.832294 1_555
La4 O43 2.834917 1_556
La5 O0 2.402478 1_545
La5 O25 2.442863 1_545
La5 O45 2.443769 1_555
La5 O8 2.579157 1_555
La5 O37 2.628700 1_545
La5 O17 2.653708 1_555
La5 O28 2.833834 1_545
La5 O42 2.836549 1_555
La6 O3 2.402903 1_555
La6 O26 2.443111 1_555
La6 O46 2.443285 1_555
La6 O11 2.578734 1_555
La6 O38 2.629698 1_555
La6 O18 2.653683 1_555
La6 O31 2.834954 1_555
La6 O41 2.835262 1_555
La7 O1 2.402330 1_555
La7 O27 2.441190 1_555
La7 O47 2.444886 1_555
La7 O9 2.578922 1_555
La7 O39 2.628234 1_555
La7 O19 2.653148 1_555
La7 O29 2.832889 1_555
La7 O40 2.834700 1_555
La8 O12 2.407953 1_455
La8 O20 2.448739 1_455
La8 O32 2.448783 1_455
La8 O4 2.573999 1_555
La8 O28 2.629823 1_555
La8 O40 2.651308 1_555
La8 O17 2.819909 1_555
La8 O36 2.828867 1_555
La9 O13 2.407611 1_455
La9 O33 2.449140 1_465
La9 O21 2.449252 1_455
La9 O5 2.574382 1_555
La9 O29 2.630448 1_565
La9 O41 2.650052 1_555
La9 O19 2.821394 1_555
La9 O37 2.827917 1_555
La10 O14 2.408375 1_456
La10 O34 2.449125 1_455
La10 O22 2.449261 1_455
La10 O6 2.574005 1_555
La10 O30 2.630381 1_555
La10 O42 2.649344 1_555
La10 O16 2.819837 1_555
La10 O38 2.828152 1_556
La11 O15 2.406561 1_445
La11 O35 2.448719 1_455
La11 O23 2.449404 1_445
La11 O7 2.573936 1_555
La11 O31 2.629232 1_555
La11 O43 2.649686 1_545
La11 O18 2.819699 1_545
La11 O39 2.828818 1_555
La12 O8 2.407602 1_665
La12 O36 2.449163 1_655
La12 O16 2.449435 1_665
La12 O0 2.573657 1_555
La12 O24 2.629490 1_555
La12 O44 2.650150 1_565
La12 O22 2.820866 1_565
La12 O32 2.828910 1_555
La13 O9 2.406862 1_655
La13 O37 2.449170 1_645
La13 O17 2.449509 1_655
La13 O1 2.572740 1_555
La13 O25 2.629358 1_545
La13 O45 2.650726 1_555
La13 O20 2.819607 1_555
La13 O33 2.827958 1_555
La14 O10 2.406979 1_654
La14 O18 2.449016 1_655
La14 O38 2.449809 1_655
La14 O2 2.573217 1_555
La14 O26 2.629067 1_555
La14 O46 2.649737 1_555
La14 O23 2.820096 1_555
La14 O34 2.828948 1_554
La15 O11 2.408405 1_655
La15 O39 2.449152 1_655
La15 O19 2.449263 1_655
La15 O3 2.573483 1_555
La15 O27 2.629941 1_555
La15 O47 2.648709 1_555
La15 O21 2.820603 1_555
La15 O35 2.828291 1_555
Ga0 O40 2.001640 1_555
Ga0 O45 2.002471 1_555
Ga0 O20 2.009386 1_555
Ga0 O17 2.011511 1_555
Ga0 O4 2.032545 1_555
Ga0 O1 2.032604 1_555
Ga1 O47 2.002037 1_555
Ga1 O41 2.003804 1_555
Ga1 O21 2.009876 1_555
Ga1 O19 2.010233 1_555
Ga1 O3 2.032344 1_555
Ga1 O5 2.033017 1_555
Ga2 O42 2.001703 1_555
Ga2 O44 2.003189 1_555
Ga2 O22 2.009662 1_555
Ga2 O16 2.011153 1_555
Ga2 O0 2.032648 1_545
Ga2 O6 2.032921 1_555
Ga3 O43 2.001853 1_555
Ga3 O46 2.002388 1_555
Ga3 O23 2.009039 1_555
Ga3 O18 2.010283 1_555
Ga3 O7 2.032570 1_565
Ga3 O2 2.032844 1_555
Ga4 O10 2.004858 1_555
Ga4 O12 2.005425 1_455
Ga4 O34 2.016578 1_455
Ga4 O36 2.017755 1_555
Ga4 O30 2.024097 1_555
Ga4 O24 2.026192 1_455
Ga5 O8 2.004769 1_565
Ga5 O13 2.005818 1_455
Ga5 O32 2.016953 1_455
Ga5 O37 2.018291 1_555
Ga5 O28 2.024544 1_555
Ga5 O25 2.025816 1_455
Ga6 O14 2.004968 1_455
Ga6 O11 2.005242 1_555
Ga6 O35 2.017520 1_455
Ga6 O38 2.018068 1_555
Ga6 O31 2.024624 1_555
Ga6 O26 2.025885 1_455
Ga7 O9 2.004395 1_655
Ga7 O15 2.004839 1_545
Ga7 O33 2.017021 1_555
Ga7 O39 2.017335 1_655
Ga7 O27 2.024306 1_555
Ga7 O29 2.025437 1_655
Ga8 O28 2.013906 1_555
Ga8 O24 2.014822 1_555
Ga8 O0 2.016782 1_555
Ga8 O4 2.017736 1_555
Ga8 O32 2.022580 1_555
Ga8 O36 2.023551 1_555
Ga9 O29 2.013657 1_555
Ga9 O25 2.015097 1_545
Ga9 O1 2.016934 1_555
Ga9 O5 2.017603 1_545
Ga9 O33 2.022060 1_555
Ga9 O37 2.023725 1_545
Ga10 O30 2.013733 1_555
Ga10 O26 2.014726 1_556
Ga10 O6 2.017269 1_555
Ga10 O2 2.017370 1_556
Ga10 O34 2.022174 1_555
Ga10 O38 2.023139 1_556
Ga11 O27 2.013354 1_555
Ga11 O31 2.015171 1_555
Ga11 O7 2.016673 1_555
Ga11 O3 2.017797 1_555
Ga11 O39 2.022337 1_555
Ga11 O35 2.023156 1_555
Fe0 O22 2.030421 1_555
Fe0 O17 2.031861 1_655
Fe0 O45 2.036685 1_555
Fe0 O42 2.037567 1_655
Fe0 O12 2.038934 1_555
Fe0 O8 2.039376 1_655
Fe1 O19 2.030481 1_555
Fe1 O20 2.031229 1_455
Fe1 O47 2.036286 1_455
Fe1 O40 2.037590 1_555
Fe1 O9 2.038038 1_555
Fe1 O13 2.039696 1_455
Fe2 O16 2.030046 1_564
Fe2 O23 2.031943 1_455
Fe2 O43 2.034774 1_555
Fe2 O10 2.037474 1_554
Fe2 O44 2.039405 1_464
Fe2 O14 2.040487 1_465
Fe3 O18 2.029819 1_555
Fe3 O21 2.032146 1_455
Fe3 O41 2.037026 1_555
Fe3 O46 2.037072 1_455
Fe3 O15 2.037930 1_455
Fe3 O11 2.040460 1_555
