# generated using pymatgen
data_Te2MoWS2
_symmetry_space_group_name_H-M   'P 1'
_cell_length_a   3.35229420
_cell_length_b   3.35229420
_cell_length_c   39.91731200
_cell_angle_alpha   90.00000000
_cell_angle_beta   90.00000000
_cell_angle_gamma   120.00000402
_symmetry_Int_Tables_number   1
_chemical_formula_structural   Te2MoWS2
_chemical_formula_sum   'Te4 Mo2 W2 S4'
_cell_volume   388.48669979
_cell_formula_units_Z   2
loop_
 _symmetry_equiv_pos_site_id
 _symmetry_equiv_pos_as_xyz
  1  'x, y, z'
loop_
 _atom_site_type_symbol
 _atom_site_label
 _atom_site_symmetry_multiplicity
 _atom_site_fract_x
 _atom_site_fract_y
 _atom_site_fract_z
 _atom_site_occupancy
  Te  Te0  1  0.00000000  0.00000000  0.33072300  1
  Te  Te1  1  0.33333300  0.66666700  0.04481900  1
  Te  Te2  1  0.33333300  0.66666700  0.13959300  1
  Te  Te3  1  0.00000000  0.00000000  0.23593700  1
  Mo  Mo0  1  0.00000000  0.00000000  0.09218600  1
  Mo  Mo1  1  0.33333300  0.66666700  0.28335600  1
  W  W0  1  0.00000000  0.00000000  0.46987300  1
  W  W1  1  0.33333300  0.66666700  0.65752200  1
  S  S0  1  0.00000000  0.00000000  0.69556500  1
  S  S1  1  0.33333300  0.66666700  0.43179700  1
  S  S2  1  0.33333300  0.66666700  0.50791000  1
  S  S3  1  0.00000000  0.00000000  0.61946800  1
loop_
_geom_bond_atom_site_label_1
_geom_bond_atom_site_label_2
_geom_bond_distance
_geom_bond_site_symmetry_2
Mo0 Te1 2.705723 1_545
Mo0 Te1 2.705725 1_555
Mo0 Te1 2.705725 1_445
Mo0 Te2 2.706839 1_545
Mo0 Te2 2.706841 1_555
Mo0 Te2 2.706841 1_445
Mo1 Te0 2.705723 1_565
Mo1 Te0 2.705725 1_665
Mo1 Te0 2.705725 1_555
Mo1 Te3 2.707174 1_565
Mo1 Te3 2.707176 1_555
Mo1 Te3 2.707176 1_665
S0 W1 2.460085 1_545
S0 W1 2.460087 1_555
S0 W1 2.460087 1_445
S1 W0 2.460899 1_565
S1 W0 2.460901 1_665
S1 W0 2.460901 1_555
S2 W0 2.459937 1_565
S2 W0 2.459940 1_665
S2 W0 2.459940 1_555
S3 W1 2.460356 1_545
S3 W1 2.460358 1_445
S3 W1 2.460358 1_555
