# generated using pymatgen
data_HoAs3
_symmetry_space_group_name_H-M   'P 1'
_cell_length_a   5.98887708
_cell_length_b   5.98887708
_cell_length_c   5.46634800
_cell_angle_alpha   90.00000000
_cell_angle_beta   90.00000000
_cell_angle_gamma   120.00001190
_symmetry_Int_Tables_number   1
_chemical_formula_structural   HoAs3
_chemical_formula_sum   'Ho2 As6'
_cell_volume   169.79255925
_cell_formula_units_Z   2
loop_
 _symmetry_equiv_pos_site_id
 _symmetry_equiv_pos_as_xyz
  1  'x, y, z'
loop_
 _atom_site_type_symbol
 _atom_site_label
 _atom_site_symmetry_multiplicity
 _atom_site_fract_x
 _atom_site_fract_y
 _atom_site_fract_z
 _atom_site_occupancy
  Ho  Ho0  1  0.33333300  0.66666700  0.75000000  1
  Ho  Ho1  1  0.66666700  0.33333300  0.25000000  1
  As  As0  1  0.18019700  0.36039500  0.25000000  1
  As  As1  1  0.63960500  0.81980200  0.25000000  1
  As  As2  1  0.18019700  0.81980200  0.25000000  1
  As  As3  1  0.81980200  0.63960500  0.75000000  1
  As  As4  1  0.36039500  0.18019700  0.75000000  1
  As  As5  1  0.81980200  0.18019700  0.75000000  1
loop_
_geom_bond_atom_site_label_1
_geom_bond_atom_site_label_2
_geom_bond_distance
_geom_bond_site_symmetry_2
As0 As2 2.751332 1_555
As0 As1 2.751335 1_555
As0 Ho1 2.997720 1_455
As0 Ho1 2.997732 1_555
As0 Ho0 3.161254 1_554
As0 Ho0 3.161254 1_555
As1 As2 2.751338 1_555
As1 Ho1 2.997726 1_565
As1 Ho1 2.997726 1_555
As1 Ho0 3.161254 1_554
As1 Ho0 3.161254 1_555
As2 Ho1 2.997722 1_455
As2 Ho1 2.997728 1_565
As2 Ho0 3.161251 1_555
As2 Ho0 3.161251 1_554
As3 As4 2.751335 1_555
As3 As5 2.751338 1_555
As3 Ho0 2.997726 1_655
As3 Ho0 2.997726 1_555
As3 Ho1 3.161254 1_555
As3 Ho1 3.161254 1_556
As4 As5 2.751332 1_555
As4 Ho0 2.997720 1_545
As4 Ho0 2.997732 1_555
As4 Ho1 3.161254 1_555
As4 Ho1 3.161254 1_556
As5 Ho0 2.997722 1_545
As5 Ho0 2.997728 1_655
As5 Ho1 3.161251 1_555
As5 Ho1 3.161251 1_556
