# generated using pymatgen
data_Na3Pr(AsO4)2
_symmetry_space_group_name_H-M   'P 1'
_cell_length_a   5.62412746
_cell_length_b   14.39927698
_cell_length_c   19.57540436
_cell_angle_alpha   90.00000000
_cell_angle_beta   90.00000000
_cell_angle_gamma   90.00000000
_symmetry_Int_Tables_number   1
_chemical_formula_structural   Na3Pr(AsO4)2
_chemical_formula_sum   'Na24 Pr8 As16 O64'
_cell_volume   1585.28219593
_cell_formula_units_Z   8
loop_
 _symmetry_equiv_pos_site_id
 _symmetry_equiv_pos_as_xyz
  1  'x, y, z'
loop_
 _atom_site_type_symbol
 _atom_site_label
 _atom_site_symmetry_multiplicity
 _atom_site_fract_x
 _atom_site_fract_y
 _atom_site_fract_z
 _atom_site_occupancy
  Na  Na0  1  0.97828384  0.21651017  0.99392573  1
  Na  Na1  1  0.02171616  0.78348983  0.49392573  1
  Na  Na2  1  0.02171616  0.71651017  0.99392573  1
  Na  Na3  1  0.97828384  0.28348983  0.49392573  1
  Na  Na4  1  0.98366789  0.95264452  0.64729642  1
  Na  Na5  1  0.01633211  0.04735548  0.14729642  1
  Na  Na6  1  0.01633211  0.45264452  0.64729642  1
  Na  Na7  1  0.98366789  0.54735548  0.14729642  1
  Na  Na8  1  0.98747949  0.86202202  0.82745718  1
  Na  Na9  1  0.01252051  0.13797798  0.32745718  1
  Na  Na10  1  0.01252051  0.36202202  0.82745718  1
  Na  Na11  1  0.98747949  0.63797798  0.32745718  1
  Na  Na12  1  0.46984566  0.79727322  0.73245599  1
  Na  Na13  1  0.53015434  0.20272678  0.23245599  1
  Na  Na14  1  0.53015434  0.29727322  0.73245599  1
  Na  Na15  1  0.46984566  0.70272678  0.23245599  1
  Na  Na16  1  0.54263264  0.96706821  0.88790164  1
  Na  Na17  1  0.45736736  0.03293179  0.38790164  1
  Na  Na18  1  0.45736736  0.46706821  0.88790164  1
  Na  Na19  1  0.54263264  0.53293179  0.38790164  1
  Na  Na20  1  0.49407657  0.88376807  0.55193407  1
  Na  Na21  1  0.50592343  0.11623193  0.05193407  1
  Na  Na22  1  0.50592343  0.38376807  0.55193407  1
  Na  Na23  1  0.49407657  0.61623193  0.05193407  1
  Pr  Pr0  1  0.92762484  0.61217411  0.80321173  1
  Pr  Pr1  1  0.07237516  0.38782589  0.30321173  1
  Pr  Pr2  1  0.07237516  0.11217411  0.80321173  1
  Pr  Pr3  1  0.92762484  0.88782589  0.30321173  1
  Pr  Pr4  1  0.55984248  0.63681806  0.57421164  1
  Pr  Pr5  1  0.44015752  0.36318194  0.07421164  1
  Pr  Pr6  1  0.44015752  0.13681806  0.57421164  1
  Pr  Pr7  1  0.55984248  0.86318194  0.07421164  1
  As  As0  1  0.96543847  0.47545711  0.98113738  1
  As  As1  1  0.03456153  0.52454289  0.48113738  1
  As  As2  1  0.03456153  0.97545711  0.98113738  1
  As  As3  1  0.96543847  0.02454289  0.48113738  1
  As  As4  1  0.98519025  0.22663333  0.65281627  1
  As  As5  1  0.01480975  0.77336667  0.15281627  1
  As  As6  1  0.01480975  0.72663333  0.65281627  1
  As  As7  1  0.98519025  0.27336667  0.15281627  1
  As  As8  1  0.47372870  0.52262688  0.72381033  1
  As  As9  1  0.52627130  0.47737312  0.22381033  1
  As  As10  1  0.52627130  0.02262688  0.72381033  1
  As  As11  1  0.47372870  0.97737312  0.22381033  1
  As  As12  1  0.45876245  0.72658255  0.89598697  1
  As  As13  1  0.54123755  0.27341745  0.39598697  1
  As  As14  1  0.54123755  0.22658255  0.89598697  1
  As  As15  1  0.45876245  0.77341745  0.39598697  1
  O  O0  1  0.58735771  0.81122021  0.84722849  1
  O  O1  1  0.41264229  0.18877979  0.34722849  1
  O  O2  1  0.41264229  0.31122021  0.84722849  1
  O  O3  1  0.58735771  0.68877979  0.34722849  1
  O  O4  1  0.70380209  0.46725178  0.76555445  1
  O  O5  1  0.29619791  0.53274822  0.26555445  1
  O  O6  1  0.29619791  0.96725178  0.76555445  1
  O  O7  1  0.70380209  0.03274822  0.26555445  1
  O  O8  1  0.89173440  0.87113915  0.99700029  1
  O  O9  1  0.10826560  0.12886085  0.49700029  1
  O  O10  1  0.10826560  0.37113915  0.99700029  1
  O  O11  1  0.89173440  0.62886085  0.49700029  1
  O  O12  1  0.79389459  0.78295130  0.60802660  1
  O  O13  1  0.20610541  0.21704870  0.10802660  1
  O  O14  1  0.20610541  0.28295130  0.60802660  1
  O  O15  1  0.79389459  0.71704870  0.10802660  1
  O  O16  1  0.66370943  0.46494419  0.99748844  1
  O  O17  1  0.33629057  0.53505581  0.49748844  1
  O  O18  1  0.33629057  0.96494419  0.99748844  1
  O  O19  1  0.66370943  0.03505581  0.49748844  1
  O  O20  1  0.90852686  0.43955431  0.53049266  1
  O  O21  1  0.09147314  0.56044569  0.03049266  1
  O  O22  1  0.09147314  0.93955431  0.53049266  1
  O  O23  1  0.90852686  0.06044569  0.03049266  1
  O  O24  1  0.79109839  0.99235845  0.76163562  1
  O  O25  1  0.20890161  0.00764155  0.26163562  1
  O  O26  1  0.20890161  0.49235845  0.76163562  1
  O  O27  1  0.79109839  0.50764155  0.26163562  1
  O  O28  1  0.60503987  0.62265902  0.88207344  1
  O  O29  1  0.39496013  0.37734098  0.38207344  1
  O  O30  1  0.39496013  0.12265902  0.88207344  1
  O  O31  1  0.60503987  0.87734098  0.38207344  1
  O  O32  1  0.53036885  0.63972046  0.72688451  1
  O  O33  1  0.46963115  0.36027954  0.22688451  1
  O  O34  1  0.46963115  0.13972046  0.72688451  1
  O  O35  1  0.53036885  0.86027954  0.22688451  1
  O  O36  1  0.95165722  0.61006249  0.64961719  1
  O  O37  1  0.04834278  0.38993751  0.14961719  1
  O  O38  1  0.04834278  0.11006249  0.64961719  1
  O  O39  1  0.95165722  0.88993751  0.14961719  1
  O  O40  1  0.84061298  0.21540963  0.87618665  1
  O  O41  1  0.15938702  0.78459037  0.37618665  1
  O  O42  1  0.15938702  0.71540963  0.87618665  1
  O  O43  1  0.84061298  0.28459037  0.37618665  1
  O  O44  1  0.98514088  0.25853189  0.73753802  1
  O  O45  1  0.01485912  0.74146811  0.23753802  1
  O  O46  1  0.01485912  0.75853189  0.73753802  1
  O  O47  1  0.98514088  0.24146811  0.23753802  1
  O  O48  1  0.53398815  0.99090190  0.63905589  1
  O  O49  1  0.46601185  0.00909810  0.13905589  1
  O  O50  1  0.46601185  0.49090190  0.63905589  1
  O  O51  1  0.53398815  0.50909810  0.13905589  1
  O  O52  1  0.98578663  0.99645722  0.89522165  1
  O  O53  1  0.01421337  0.00354278  0.39522165  1
  O  O54  1  0.01421337  0.49645722  0.89522165  1
  O  O55  1  0.98578663  0.50354278  0.39522165  1
  O  O56  1  0.28491610  0.75598426  0.61768429  1
  O  O57  1  0.71508390  0.24401574  0.11768429  1
  O  O58  1  0.71508390  0.25598426  0.61768429  1
  O  O59  1  0.28491610  0.74401574  0.11768429  1
  O  O60  1  0.46748289  0.74785579  0.98276646  1
  O  O61  1  0.53251711  0.25214421  0.48276646  1
  O  O62  1  0.53251711  0.24785579  0.98276646  1
  O  O63  1  0.46748289  0.75214421  0.48276646  1
loop_
_geom_bond_atom_site_label_1
_geom_bond_atom_site_label_2
_geom_bond_distance
_geom_bond_site_symmetry_2
Na0 O10 2.344256 1_655
Na0 O23 2.390875 1_556
Na0 O40 2.431423 1_555
Na0 O62 2.556704 1_555
Na0 O13 2.574999 1_656
Na0 O57 2.866561 1_556
Na1 O11 2.344256 1_455
Na1 O22 2.390875 1_555
Na1 O41 2.431423 1_555
Na1 O63 2.556704 1_555
Na1 O12 2.574999 1_455
Na1 O56 2.866561 1_555
Na2 O8 2.344256 1_455
Na2 O21 2.390875 1_556
Na2 O42 2.431423 1_555
Na2 O60 2.556704 1_555
Na2 O15 2.574999 1_456
Na2 O59 2.866561 1_556
Na3 O9 2.344256 1_655
Na3 O20 2.390875 1_555
Na3 O43 2.431423 1_555
Na3 O61 2.556704 1_555
Na3 O14 2.574999 1_655
Na3 O58 2.866561 1_555
Na4 O38 2.296154 1_665
Na4 O22 2.373001 1_655
Na4 O24 2.551408 1_555
Na4 O48 2.593379 1_555
Na4 O12 2.774992 1_555
Na4 O6 2.914235 1_655
Na5 O39 2.296154 1_445
Na5 O23 2.373001 1_455
Na5 O25 2.551408 1_555
Na5 O49 2.593379 1_555
Na5 O13 2.774992 1_555
Na5 O7 2.914235 1_455
Na6 O36 2.296154 1_455
Na6 O20 2.373001 1_455
Na6 O26 2.551408 1_555
Na6 O50 2.593379 1_555
Na6 O14 2.774992 1_555
Na6 O4 2.914235 1_455
Na7 O37 2.296154 1_655
Na7 O21 2.373001 1_655
Na7 O27 2.551408 1_555
Na7 O51 2.593379 1_555
Na7 O15 2.774992 1_555
Na7 O5 2.914235 1_655
Na8 O46 2.311423 1_655
Na8 O52 2.346687 1_555
Na8 O0 2.397689 1_555
Na8 O42 2.510275 1_655
Na8 O24 2.530265 1_555
Na8 O6 2.603643 1_655
Na9 O47 2.311423 1_455
Na9 O53 2.346687 1_555
Na9 O1 2.397689 1_555
Na9 O43 2.510275 1_455
Na9 O25 2.530265 1_555
Na9 O7 2.603643 1_455
Na10 O44 2.311423 1_455
Na10 O54 2.346687 1_555
Na10 O2 2.397689 1_555
Na10 O40 2.510275 1_455
Na10 O26 2.530265 1_555
Na10 O4 2.603643 1_455
Na11 O45 2.311423 1_655
Na11 O55 2.346687 1_555
Na11 O3 2.397689 1_555
Na11 O41 2.510275 1_655
Na11 O27 2.530265 1_555
Na11 O5 2.603643 1_655
Na12 O32 2.296631 1_555
Na12 O0 2.350503 1_555
Na12 O56 2.546150 1_555
Na12 O46 2.620891 1_555
Na12 O6 2.713700 1_555
Na13 O33 2.296631 1_555
Na13 O1 2.350503 1_555
Na13 O57 2.546150 1_555
Na13 O47 2.620891 1_555
Na13 O7 2.713700 1_555
Na14 O34 2.296631 1_555
Na14 O2 2.350503 1_555
Na14 O58 2.546150 1_555
Na14 O44 2.620891 1_555
Na14 O4 2.713700 1_555
Na15 O35 2.296631 1_555
Na15 O3 2.350503 1_555
Na15 O59 2.546150 1_555
Na15 O45 2.620891 1_555
Na15 O5 2.713700 1_555
Na16 O30 2.392105 1_565
Na16 O0 2.394405 1_555
Na16 O18 2.439178 1_555
Na16 O52 2.532083 1_555
Na16 O6 2.767120 1_555
Na16 O24 2.862637 1_555
Na17 O31 2.392105 1_545
Na17 O1 2.394405 1_555
Na17 O19 2.439178 1_555
Na17 O53 2.532083 1_555
Na17 O7 2.767120 1_555
Na17 O25 2.862637 1_555
Na18 O28 2.392105 1_555
Na18 O2 2.394405 1_555
Na18 O16 2.439178 1_555
Na18 O54 2.532083 1_555
Na18 O4 2.767120 1_555
Na18 O26 2.862637 1_555
Na19 O29 2.392105 1_555
Na19 O3 2.394405 1_555
Na19 O17 2.439178 1_555
Na19 O55 2.532083 1_555
Na19 O5 2.767120 1_555
Na19 O27 2.862637 1_555
Na20 O48 2.310562 1_555
Na20 O63 2.334044 1_555
Na20 O22 2.438945 1_555
Na20 O12 2.481209 1_555
Na20 O56 2.534948 1_555
Na20 O19 2.606085 1_565
Na21 O49 2.310562 1_555
Na21 O62 2.334044 1_554
Na21 O23 2.438945 1_555
Na21 O13 2.481209 1_555
Na21 O57 2.534948 1_555
Na21 O18 2.606085 1_544
Na22 O50 2.310562 1_555
Na22 O61 2.334044 1_555
Na22 O20 2.438945 1_555
Na22 O14 2.481209 1_555
Na22 O58 2.534948 1_555
Na22 O17 2.606085 1_555
Na23 O51 2.310562 1_555
Na23 O60 2.334044 1_554
Na23 O21 2.438945 1_555
Na23 O15 2.481209 1_555
Na23 O59 2.534948 1_555
Na23 O16 2.606085 1_554
As0 O21 1.712751 1_656
As0 O54 1.730681 1_655
As0 O10 1.731472 1_655
As0 O16 1.733507 1_555
As1 O20 1.712751 1_455
As1 O55 1.730681 1_455
As1 O11 1.731472 1_455
As1 O17 1.733507 1_555
As2 O23 1.712751 1_466
As2 O52 1.730681 1_455
As2 O8 1.731472 1_455
As2 O18 1.733507 1_555
As3 O22 1.712751 1_645
As3 O53 1.730681 1_655
As3 O9 1.731472 1_655
As3 O19 1.733507 1_555
As4 O38 1.716845 1_655
As4 O58 1.720257 1_555
As4 O44 1.720892 1_555
As4 O14 1.723384 1_655
As5 O39 1.716845 1_455
As5 O59 1.720257 1_555
As5 O45 1.720892 1_555
As5 O15 1.723384 1_455
As6 O36 1.716845 1_455
As6 O56 1.720257 1_555
As6 O46 1.720892 1_555
As6 O12 1.723384 1_455
As7 O37 1.716845 1_655
As7 O57 1.720257 1_555
As7 O47 1.720892 1_555
As7 O13 1.723384 1_655
As8 O32 1.716946 1_555
As8 O26 1.719475 1_555
As8 O50 1.721391 1_555
As8 O4 1.725651 1_555
As9 O33 1.716946 1_555
As9 O27 1.719475 1_555
As9 O51 1.721391 1_555
As9 O5 1.725651 1_555
As10 O34 1.716946 1_555
As10 O24 1.719475 1_545
As10 O48 1.721391 1_545
As10 O6 1.725651 1_545
As11 O35 1.716946 1_555
As11 O25 1.719475 1_565
As11 O49 1.721391 1_565
As11 O7 1.725651 1_565
As12 O0 1.708613 1_555
As12 O60 1.726837 1_555
As12 O28 1.729240 1_555
As12 O42 1.735237 1_555
As13 O1 1.708613 1_555
As13 O61 1.726837 1_555
As13 O29 1.729240 1_555
As13 O43 1.735237 1_555
As14 O2 1.708613 1_555
As14 O62 1.726837 1_555
As14 O30 1.729240 1_555
As14 O40 1.735237 1_555
As15 O3 1.708613 1_555
As15 O63 1.726837 1_555
As15 O31 1.729240 1_555
As15 O41 1.735237 1_555
O4 Pr0 2.546102 1_555
O5 Pr1 2.546102 1_555
O6 Pr2 2.546102 1_565
O7 Pr3 2.546102 1_545
O8 Pr7 2.404536 1_556
O9 Pr6 2.404536 1_555
O10 Pr5 2.404536 1_556
O11 Pr4 2.404536 1_555
O12 Pr4 2.568779 1_555
O13 Pr5 2.568779 1_555
O14 Pr6 2.568779 1_555
O15 Pr7 2.568779 1_555
O16 Pr5 2.446128 1_556
O17 Pr4 2.446128 1_555
O18 Pr7 2.446128 1_556
O19 Pr6 2.446128 1_555
O24 Pr2 2.478190 1_665
O25 Pr3 2.478190 1_445
O26 Pr0 2.478190 1_455
O27 Pr1 2.478190 1_655
O28 Pr0 2.386942 1_555
O29 Pr1 2.386942 1_555
O30 Pr2 2.386942 1_555
O31 Pr3 2.386942 1_555
O32 Pr0 2.716892 1_555
O32 Pr4 2.993518 1_555
O33 Pr1 2.716892 1_555
O33 Pr5 2.993518 1_555
O34 Pr2 2.716892 1_555
O34 Pr6 2.993518 1_555
O35 Pr3 2.716892 1_555
O35 Pr7 2.993518 1_555
O36 Pr4 2.680150 1_555
O36 Pr0 3.009865 1_555
O37 Pr5 2.680150 1_555
O37 Pr1 3.009865 1_555
O38 Pr6 2.680150 1_555
O38 Pr2 3.009865 1_555
O39 Pr7 2.680150 1_555
O39 Pr3 3.009865 1_555
O40 Pr2 2.439137 1_655
O41 Pr3 2.439137 1_455
O42 Pr0 2.439137 1_455
O43 Pr1 2.439137 1_655
O44 Pr2 2.516898 1_655
O45 Pr3 2.516898 1_455
O46 Pr0 2.516898 1_455
O47 Pr1 2.516898 1_655
O48 Pr6 2.510838 1_565
O49 Pr7 2.510838 1_545
O50 Pr4 2.510838 1_555
O51 Pr5 2.510838 1_555
O52 Pr2 2.501516 1_665
O53 Pr3 2.501516 1_445
O54 Pr0 2.501516 1_455
O55 Pr1 2.501516 1_655
O56 Pr4 2.461570 1_555
O57 Pr5 2.461570 1_555
O58 Pr6 2.461570 1_555
O59 Pr7 2.461570 1_555
O60 Pr7 2.496363 1_556
O61 Pr6 2.496363 1_555
O62 Pr5 2.496363 1_556
O63 Pr4 2.496363 1_555
