# generated using pymatgen
data_SrZrO3
_symmetry_space_group_name_H-M   'P 1'
_cell_length_a   5.78296588
_cell_length_b   5.78296588
_cell_length_c   4.18518549
_cell_angle_alpha   90.00000000
_cell_angle_beta   90.00000000
_cell_angle_gamma   90.00000000
_symmetry_Int_Tables_number   1
_chemical_formula_structural   SrZrO3
_chemical_formula_sum   'Sr2 Zr2 O6'
_cell_volume   139.96387922
_cell_formula_units_Z   2
loop_
 _symmetry_equiv_pos_site_id
 _symmetry_equiv_pos_as_xyz
  1  'x, y, z'
loop_
 _atom_site_type_symbol
 _atom_site_label
 _atom_site_symmetry_multiplicity
 _atom_site_fract_x
 _atom_site_fract_y
 _atom_site_fract_z
 _atom_site_occupancy
  Sr  Sr0  1  0.00000000  0.50000000  0.00000000  1
  Sr  Sr1  1  0.50000000  0.00000000  0.00000000  1
  Zr  Zr0  1  0.50000000  0.50000000  0.50000000  1
  Zr  Zr1  1  -0.00000000  0.00000000  0.50000000  1
  O  O0  1  0.50000000  0.50000000  0.00000000  1
  O  O1  1  -0.00000000  0.00000000  0.00000000  1
  O  O2  1  0.80427465  0.69572535  0.50000000  1
  O  O3  1  0.19572535  0.30427465  0.50000000  1
  O  O4  1  0.30427465  0.80427465  0.50000000  1
  O  O5  1  0.69572535  0.19572535  0.50000000  1
loop_
_geom_bond_atom_site_label_1
_geom_bond_atom_site_label_2
_geom_bond_distance
_geom_bond_site_symmetry_2
O0 Zr0 2.092593 1_554
O0 Zr0 2.092593 1_555
O0 Sr1 2.891483 1_565
O0 Sr1 2.891483 1_555
O0 Sr0 2.891483 1_655
O0 Sr0 2.891483 1_555
O1 Zr1 2.092593 1_554
O1 Zr1 2.092593 1_555
O1 Sr1 2.891483 1_555
O1 Sr0 2.891483 1_545
O1 Sr0 2.891483 1_555
O1 Sr1 2.891483 1_455
O2 Zr0 2.092215 1_555
O2 Zr1 2.092215 1_665
O2 Sr0 2.634619 1_655
O2 Sr0 2.634619 1_656
O3 Zr1 2.092215 1_555
O3 Zr0 2.092215 1_555
O3 Sr0 2.634619 1_555
O3 Sr0 2.634619 1_556
O4 Zr1 2.092215 1_565
O4 Zr0 2.092215 1_555
O4 Sr1 2.634619 1_565
O4 Sr1 2.634619 1_566
O5 Zr1 2.092215 1_655
O5 Zr0 2.092215 1_555
O5 Sr1 2.634619 1_555
O5 Sr1 2.634619 1_556
