# generated using pymatgen
data_Li2VFeP2(O4F)2
_symmetry_space_group_name_H-M   'P 1'
_cell_length_a   6.97643500
_cell_length_b   7.42031151
_cell_length_c   7.98712301
_cell_angle_alpha   90.85495306
_cell_angle_beta   91.61388218
_cell_angle_gamma   117.64144766
_symmetry_Int_Tables_number   1
_chemical_formula_structural   Li2VFeP2(O4F)2
_chemical_formula_sum   'Li4 V2 Fe2 P4 O16 F4'
_cell_volume   365.95344756
_cell_formula_units_Z   2
loop_
 _symmetry_equiv_pos_site_id
 _symmetry_equiv_pos_as_xyz
  1  'x, y, z'
loop_
 _atom_site_type_symbol
 _atom_site_label
 _atom_site_symmetry_multiplicity
 _atom_site_fract_x
 _atom_site_fract_y
 _atom_site_fract_z
 _atom_site_occupancy
  Li  Li0  1  0.44232900  0.18861400  0.82740200  1
  Li  Li1  1  0.94421300  0.18832400  0.32710000  1
  Li  Li2  1  0.05578700  0.81167600  0.67290000  1
  Li  Li3  1  0.55767100  0.81138600  0.17259800  1
  V  V0  1  0.00000000  0.50000000  0.00000000  1
  V  V1  1  0.50000000  0.00000000  0.50000000  1
  Fe  Fe0  1  0.00000000  0.00000000  0.00000000  1
  Fe  Fe1  1  0.50000000  0.50000000  0.50000000  1
  P  P0  1  0.48341100  0.76301800  0.84074200  1
  P  P1  1  0.98095100  0.76205500  0.34087800  1
  P  P2  1  0.01904900  0.23794500  0.65912200  1
  P  P3  1  0.51658900  0.23698200  0.15925800  1
  O  O0  1  0.98196000  0.39043400  0.76744300  1
  O  O1  1  0.80812900  0.08723400  0.56041500  1
  O  O2  1  0.69449300  0.91322500  0.93918500  1
  O  O3  1  0.32570700  0.65652500  0.98299600  1
  O  O4  1  0.51918500  0.61194000  0.73000100  1
  O  O5  1  0.82325200  0.65829700  0.48332800  1
  O  O6  1  0.10269800  0.11309600  0.76919700  1
  O  O7  1  0.60036900  0.11030700  0.26737800  1
  O  O8  1  0.39963100  0.88969300  0.73262200  1
  O  O9  1  0.89730200  0.88690400  0.23080300  1
  O  O10  1  0.17674800  0.34170300  0.51667200  1
  O  O11  1  0.48081500  0.38806000  0.26999900  1
  O  O12  1  0.67429300  0.34347500  0.01700400  1
  O  O13  1  0.30550700  0.08677500  0.06081500  1
  O  O14  1  0.19187100  0.91276600  0.43958500  1
  O  O15  1  0.01804000  0.60956600  0.23255700  1
  F  F0  1  0.97353200  0.73966600  0.89942100  1
  F  F1  1  0.52747700  0.26530000  0.60171600  1
  F  F2  1  0.47252300  0.73470000  0.39828400  1
  F  F3  1  0.02646800  0.26033400  0.10057900  1
loop_
_geom_bond_atom_site_label_1
_geom_bond_atom_site_label_2
_geom_bond_distance
_geom_bond_site_symmetry_2
Li0 O12 2.077786 1_556
Li0 O13 2.104940 1_556
Li0 O6 2.200559 1_555
Li0 O8 2.214913 1_545
Li1 O10 2.077671 1_655
Li1 O1 2.101732 1_555
Li1 O7 2.226143 1_555
Li1 O9 2.226317 1_545
Li2 O5 2.077671 1_455
Li2 O14 2.101732 1_555
Li2 O8 2.226143 1_555
Li2 O6 2.226317 1_565
Li3 O3 2.077786 1_554
Li3 O2 2.104940 1_554
Li3 O9 2.200559 1_555
Li3 O7 2.214913 1_565
Fe0 O2 1.962692 1_444
Fe0 O13 1.962692 1_555
Fe0 O9 2.044156 1_445
Fe0 O6 2.044156 1_554
Fe1 O11 1.979913 1_555
Fe1 O4 1.979913 1_555
Fe1 O10 2.011678 1_555
Fe1 O5 2.011678 1_555
O0 P2 1.533252 1_655
O0 V0 1.993444 1_656
O1 P2 1.555273 1_655
O1 V1 1.978371 1_555
O2 P0 1.553947 1_555
O3 P0 1.554466 1_555
O3 V0 2.025821 1_556
O4 P0 1.530955 1_555
O5 P1 1.551892 1_555
O6 P2 1.571246 1_555
O7 P3 1.573683 1_555
O7 V1 2.049201 1_555
O8 P0 1.573683 1_555
O8 V1 2.049201 1_565
O9 P1 1.571246 1_555
O10 P2 1.551892 1_555
O11 P3 1.530955 1_555
O12 P3 1.554466 1_555
O12 V0 2.025821 1_655
O13 P3 1.553947 1_555
O14 P1 1.555273 1_455
O14 V1 1.978371 1_565
O15 P1 1.533252 1_455
O15 V0 1.993444 1_555
F0 Li2 1.921204 1_655
F0 Fe0 2.006364 1_666
F0 V0 2.044778 1_656
F1 Li0 1.924384 1_555
F1 Fe1 2.018159 1_555
F1 V1 2.040966 1_555
F2 Li3 1.924384 1_555
F2 Fe1 2.018159 1_555
F2 V1 2.040966 1_565
F3 Li1 1.921204 1_455
F3 Fe0 2.006364 1_555
F3 V0 2.044778 1_555
