# generated using pymatgen
data_BaTbFe2O5
_symmetry_space_group_name_H-M   'P 1'
_cell_length_a   3.97899700
_cell_length_b   3.97899700
_cell_length_c   7.60776800
_cell_angle_alpha   90.00000000
_cell_angle_beta   90.00000000
_cell_angle_gamma   90.00000000
_symmetry_Int_Tables_number   1
_chemical_formula_structural   BaTbFe2O5
_chemical_formula_sum   'Ba1 Tb1 Fe2 O5'
_cell_volume   120.44935637
_cell_formula_units_Z   1
loop_
 _symmetry_equiv_pos_site_id
 _symmetry_equiv_pos_as_xyz
  1  'x, y, z'
loop_
 _atom_site_type_symbol
 _atom_site_label
 _atom_site_symmetry_multiplicity
 _atom_site_fract_x
 _atom_site_fract_y
 _atom_site_fract_z
 _atom_site_occupancy
  Ba  Ba0  1  0.00000000  0.00000000  0.00000000  1
  Tb  Tb0  1  0.00000000  0.00000000  0.50000000  1
  Fe  Fe0  1  0.50000000  0.50000000  0.26769000  1
  Fe  Fe1  1  0.50000000  0.50000000  0.73231000  1
  O  O0  1  0.50000000  0.00000000  0.31488200  1
  O  O1  1  0.50000000  0.00000000  0.68511800  1
  O  O2  1  0.00000000  0.50000000  0.31488200  1
  O  O3  1  0.00000000  0.50000000  0.68511800  1
  O  O4  1  0.50000000  0.50000000  0.00000000  1
loop_
_geom_bond_atom_site_label_1
_geom_bond_atom_site_label_2
_geom_bond_distance
_geom_bond_site_symmetry_2
Ba0 O4 2.813576 1_445
Ba0 O4 2.813576 1_545
Ba0 O4 2.813576 1_455
Ba0 O4 2.813576 1_555
Ba0 O3 3.113962 1_544
Ba0 O1 3.113962 1_454
Ba0 O0 3.113962 1_555
Ba0 O0 3.113962 1_455
Ba0 O2 3.113962 1_545
Ba0 O2 3.113962 1_555
Ba0 O1 3.113962 1_554
Ba0 O3 3.113962 1_554
Fe0 O0 2.021634 1_555
Fe0 O2 2.021634 1_555
Fe0 O0 2.021634 1_565
Fe0 O2 2.021634 1_655
Fe0 O4 2.036523 1_555
Fe1 O1 2.021634 1_565
Fe1 O3 2.021634 1_555
Fe1 O1 2.021634 1_555
Fe1 O3 2.021634 1_655
Fe1 O4 2.036523 1_556
O0 Tb0 2.437522 1_555
O0 Tb0 2.437522 1_655
O1 Tb0 2.437522 1_555
O1 Tb0 2.437522 1_655
O2 Tb0 2.437522 1_555
O2 Tb0 2.437522 1_565
O3 Tb0 2.437522 1_555
O3 Tb0 2.437522 1_565
