# generated using pymatgen
data_Li7Mn4CoO12
_symmetry_space_group_name_H-M   'P 1'
_cell_length_a   2.88815100
_cell_length_b   7.91730551
_cell_length_c   19.60815976
_cell_angle_alpha   80.86159286
_cell_angle_beta   89.99884109
_cell_angle_gamma   100.50854329
_symmetry_Int_Tables_number   1
_chemical_formula_structural   Li7Mn4CoO12
_chemical_formula_sum   'Li14 Mn8 Co2 O24'
_cell_volume   435.05786421
_cell_formula_units_Z   2
loop_
 _symmetry_equiv_pos_site_id
 _symmetry_equiv_pos_as_xyz
  1  'x, y, z'
loop_
 _atom_site_type_symbol
 _atom_site_label
 _atom_site_symmetry_multiplicity
 _atom_site_fract_x
 _atom_site_fract_y
 _atom_site_fract_z
 _atom_site_occupancy
  Li  Li0  1  0.66606600  0.33207900  0.99979400  1
  Li  Li1  1  0.66793000  0.33583500  0.49938300  1
  Li  Li2  1  0.41760100  0.83532000  0.12638100  1
  Li  Li3  1  0.42123100  0.84232600  0.62649600  1
  Li  Li4  1  0.91516400  0.83032200  0.37552700  1
  Li  Li5  1  0.91264400  0.82512900  0.87335100  1
  Li  Li6  1  0.24017200  0.48031200  0.37790800  1
  Li  Li7  1  0.23834100  0.47673800  0.88038100  1
  Li  Li8  1  0.10093400  0.20201600  0.11937200  1
  Li  Li9  1  0.09537800  0.19050500  0.61976000  1
  Li  Li10  1  0.74408200  0.48810600  0.12246700  1
  Li  Li11  1  0.75155200  0.50302700  0.62332900  1
  Li  Li12  1  0.58532800  0.17049600  0.37590100  1
  Li  Li13  1  0.58184300  0.16362300  0.87714400  1
  Mn  Mn0  1  0.00436000  0.00853400  0.99845800  1
  Mn  Mn1  1  0.32912300  0.65843200  0.50231600  1
  Mn  Mn2  1  0.83063000  0.66181800  0.75218800  1
  Mn  Mn3  1  0.50281800  0.00492400  0.74777900  1
  Mn  Mn4  1  0.00612900  0.01177700  0.49765800  1
  Mn  Mn5  1  0.32869400  0.65733700  0.00165100  1
  Mn  Mn6  1  0.82911500  0.65771600  0.25435800  1
  Mn  Mn7  1  0.50282000  0.00770600  0.24842900  1
  Co  Co0  1  0.16672100  0.33329300  0.75006100  1
  Co  Co1  1  0.16626100  0.33270700  0.24647100  1
  O  O0  1  0.53381400  0.06770900  0.05593900  1
  O  O1  1  0.53698800  0.07371300  0.55457800  1
  O  O2  1  0.79907400  0.59810700  0.44522700  1
  O  O3  1  0.79765600  0.59524300  0.94461600  1
  O  O4  1  0.36476100  0.72922500  0.31014800  1
  O  O5  1  0.36481200  0.72995500  0.81045300  1
  O  O6  1  0.94985000  0.90001900  0.19909300  1
  O  O7  1  0.96887800  0.93726000  0.68934500  1
  O  O8  1  0.22334800  0.44663000  0.05731800  1
  O  O9  1  0.22364500  0.44726900  0.55799500  1
  O  O10  1  0.11130500  0.22240800  0.44119000  1
  O  O11  1  0.11002000  0.22004100  0.94259000  1
  O  O12  1  0.87735500  0.75469400  0.05337400  1
  O  O13  1  0.87891600  0.75779000  0.55334900  1
  O  O14  1  0.45639000  0.91260100  0.44649800  1
  O  O15  1  0.45543000  0.91085500  0.94677400  1
  O  O16  1  0.71497800  0.42989800  0.30762100  1
  O  O17  1  0.69757000  0.39490500  0.80805300  1
  O  O18  1  0.62563000  0.25148600  0.18435700  1
  O  O19  1  0.63595100  0.27181500  0.69200400  1
  O  O20  1  0.03440800  0.07034800  0.30756900  1
  O  O21  1  0.03418300  0.06781500  0.80668900  1
  O  O22  1  0.30079300  0.60117700  0.19536600  1
  O  O23  1  0.29930900  0.59896000  0.69329100  1
loop_
_geom_bond_atom_site_label_1
_geom_bond_atom_site_label_2
_geom_bond_distance
_geom_bond_site_symmetry_2
Li0 O11 2.102350 1_655
Li0 O11 2.102504 1_555
Li0 O8 2.116025 1_556
Li0 O8 2.116098 1_656
Li0 O3 2.156689 1_555
Li0 O0 2.171488 1_556
Li1 O9 2.116759 1_555
Li1 O9 2.116798 1_655
Li1 O10 2.119403 1_555
Li1 O10 2.119704 1_655
Li1 O2 2.143732 1_555
Li1 O1 2.149762 1_555
Li2 O22 2.086958 1_555
Li2 O0 2.091215 1_565
Li2 O6 2.145467 1_555
Li2 O6 2.145810 1_455
Li2 O12 2.195081 1_455
Li2 O12 2.195287 1_555
Li3 O1 2.100583 1_565
Li3 O7 2.107799 1_455
Li3 O7 2.108558 1_555
Li3 O23 2.121993 1_555
Li3 O13 2.209071 1_555
Li3 O13 2.209297 1_455
Li4 O2 2.082643 1_555
Li4 O20 2.112465 1_665
Li4 O4 2.161704 1_555
Li4 O4 2.162217 1_655
Li4 O14 2.172397 1_555
Li4 O14 2.172778 1_655
Li5 O3 2.085010 1_555
Li5 O5 2.109119 1_655
Li5 O5 2.110135 1_555
Li5 O21 2.116561 1_665
Li5 O15 2.216586 1_655
Li5 O15 2.216826 1_555
Li6 O16 2.076903 1_455
Li6 O16 2.076909 1_555
Li6 O4 2.165210 1_555
Li6 O10 2.183017 1_555
Li6 O2 2.249333 1_455
Li6 O2 2.249399 1_555
Li7 O11 2.166449 1_555
Li7 O17 2.189354 1_455
Li7 O17 2.189860 1_555
Li7 O5 2.211881 1_555
Li7 O3 2.213037 1_455
Li7 O3 2.213321 1_555
Li8 O18 2.003903 1_555
Li8 O18 2.004021 1_455
Li8 O8 2.087574 1_555
Li8 O0 2.268360 1_455
Li8 O0 2.268434 1_555
Li8 O6 2.604427 1_445
Li9 O9 2.163294 1_555
Li9 O19 2.186724 1_555
Li9 O19 2.186988 1_455
Li9 O7 2.208860 1_445
Li9 O1 2.218294 1_555
Li9 O1 2.218320 1_455
Li10 O8 1.988637 1_655
Li10 O8 1.988664 1_555
Li10 O18 2.035536 1_555
Li10 O12 2.287757 1_555
Li10 O22 2.303960 1_555
Li10 O22 2.304646 1_655
Li11 O9 2.023421 1_655
Li11 O9 2.023582 1_555
Li11 O19 2.066358 1_555
Li11 O23 2.203245 1_655
Li11 O23 2.203989 1_555
Li11 O13 2.221895 1_555
Li12 O10 2.013562 1_555
Li12 O10 2.013694 1_655
Li12 O20 2.195149 1_655
Li12 O20 2.198410 1_555
Li12 O16 2.235336 1_555
Li12 O14 2.246956 1_545
Li13 O11 2.026558 1_655
Li13 O11 2.026645 1_555
Li13 O17 2.070954 1_555
Li13 O15 2.206337 1_545
Li13 O21 2.209313 1_555
Li13 O21 2.210185 1_655
Mn0 O11 1.824347 1_555
Mn0 O0 1.932512 1_556
Mn0 O0 1.933045 1_456
Mn0 O15 1.984612 1_545
Mn0 O15 1.985036 1_445
Mn0 O12 2.092068 1_446
Mn1 O9 1.820506 1_555
Mn1 O2 1.930783 1_455
Mn1 O2 1.931230 1_555
Mn1 O13 1.983410 1_455
Mn1 O13 1.983934 1_555
Mn1 O14 2.100734 1_555
Mn2 O23 1.959653 1_555
Mn2 O23 1.960069 1_655
Mn2 O5 1.966384 1_555
Mn2 O5 1.966910 1_655
Mn2 O17 2.186737 1_555
Mn2 O7 2.293979 1_555
Mn3 O21 1.959961 1_655
Mn3 O21 1.960260 1_555
Mn3 O7 1.967132 1_545
Mn3 O7 1.967634 1_445
Mn3 O19 2.185976 1_555
Mn3 O5 2.289577 1_545
Mn4 O10 1.824261 1_555
Mn4 O1 1.933005 1_555
Mn4 O1 1.933432 1_455
Mn4 O14 1.984079 1_545
Mn4 O14 1.984758 1_445
Mn4 O13 2.098601 1_445
Mn5 O8 1.817539 1_555
Mn5 O3 1.935031 1_554
Mn5 O3 1.935036 1_454
Mn5 O12 1.984081 1_555
Mn5 O12 1.984111 1_455
Mn5 O15 2.089632 1_554
Mn6 O16 1.907225 1_555
Mn6 O22 1.944488 1_655
Mn6 O22 1.944756 1_555
Mn6 O4 1.946238 1_655
Mn6 O4 1.946660 1_555
Mn6 O6 2.017855 1_555
Mn7 O20 1.961696 1_555
Mn7 O20 1.962875 1_655
Mn7 O6 1.994674 1_445
Mn7 O6 1.998280 1_545
Mn7 O18 2.099867 1_555
Mn7 O4 2.305764 1_545
Co0 O17 1.945295 1_455
Co0 O17 1.945523 1_555
Co0 O19 1.945762 1_555
Co0 O19 1.945938 1_455
Co0 O21 2.182313 1_555
Co0 O23 2.184576 1_555
Co1 O18 2.053536 1_555
Co1 O18 2.053665 1_455
Co1 O16 2.094620 1_455
Co1 O16 2.095151 1_555
Co1 O22 2.166863 1_555
Co1 O20 2.194523 1_555
