# generated using pymatgen
data_NbRh3
_symmetry_space_group_name_H-M   'P 1'
_cell_length_a   5.49440441
_cell_length_b   5.49440441
_cell_length_c   13.40002064
_cell_angle_alpha   89.99999853
_cell_angle_beta   90.00000147
_cell_angle_gamma   120.00001582
_symmetry_Int_Tables_number   1
_chemical_formula_structural   NbRh3
_chemical_formula_sum   'Nb6 Rh18'
_cell_volume   350.32995594
_cell_formula_units_Z   6
loop_
 _symmetry_equiv_pos_site_id
 _symmetry_equiv_pos_as_xyz
  1  'x, y, z'
loop_
 _atom_site_type_symbol
 _atom_site_label
 _atom_site_symmetry_multiplicity
 _atom_site_fract_x
 _atom_site_fract_y
 _atom_site_fract_z
 _atom_site_occupancy
  Nb  Nb0  1  0.00000016  -0.00000016  0.75000527  1
  Nb  Nb1  1  -0.00000012  0.00000012  0.24999573  1
  Nb  Nb2  1  0.66667783  0.33332217  0.58909757  1
  Nb  Nb3  1  0.33332225  0.66667775  0.41090536  1
  Nb  Nb4  1  0.33332224  0.66667776  0.08908978  1
  Nb  Nb5  1  0.66667776  0.33332224  0.91090730  1
  Rh  Rh0  1  0.49538146  0.99075838  0.75001123  1
  Rh  Rh1  1  0.49538620  0.50461380  0.75001121  1
  Rh  Rh2  1  0.00924262  0.50461854  0.75001123  1
  Rh  Rh3  1  0.50461964  0.00924393  0.24998997  1
  Rh  Rh4  1  0.50461412  0.49538588  0.24999000  1
  Rh  Rh5  1  0.99075607  0.49538036  0.24998997  1
  Rh  Rh6  1  0.83401198  0.16598802  0.08249846  1
  Rh  Rh7  1  0.33196777  0.16599222  0.08250125  1
  Rh  Rh8  1  0.83400778  0.66803223  0.08250125  1
  Rh  Rh9  1  0.16598803  0.83401197  0.91749163  1
  Rh  Rh10  1  0.66803249  0.83400809  0.91748899  1
  Rh  Rh11  1  0.16599191  0.33196751  0.91748899  1
  Rh  Rh12  1  0.16598829  0.83401171  0.58251911  1
  Rh  Rh13  1  0.66803208  0.83400710  0.58252091  1
  Rh  Rh14  1  0.16599290  0.33196792  0.58252091  1
  Rh  Rh15  1  0.83401174  0.16598826  0.41748962  1
  Rh  Rh16  1  0.33196931  0.16599252  0.41748762  1
  Rh  Rh17  1  0.83400748  0.66803069  0.41748762  1
loop_
_geom_bond_atom_site_label_1
_geom_bond_atom_site_label_2
_geom_bond_distance
_geom_bond_site_symmetry_2
Nb0 Rh11 2.744440 1_555
Nb0 Rh10 2.744440 1_445
Nb0 Rh13 2.744448 1_445
Nb0 Rh14 2.744448 1_555
Nb0 Rh12 2.744491 1_545
Nb0 Rh9 2.744491 1_545
Nb0 Rh2 2.747540 1_555
Nb0 Rh0 2.747543 1_445
Nb0 Rh1 2.747552 1_445
Nb0 Rh1 2.747552 1_555
Nb0 Rh0 2.747565 1_545
Nb0 Rh2 2.747568 1_545
Nb1 Rh16 2.744534 1_555
Nb1 Rh17 2.744534 1_445
Nb1 Rh8 2.744559 1_445
Nb1 Rh7 2.744559 1_555
Nb1 Rh15 2.744575 1_455
Nb1 Rh6 2.744611 1_455
Nb1 Rh5 2.747543 1_445
Nb1 Rh3 2.747543 1_555
Nb1 Rh4 2.747552 1_445
Nb1 Rh4 2.747552 1_555
Nb1 Rh3 2.747566 1_455
Nb1 Rh5 2.747566 1_455
Nb2 Rh0 2.703028 1_545
Nb2 Rh2 2.703031 1_655
Nb2 Rh1 2.703084 1_555
Nb2 Rh14 2.748580 1_655
Nb2 Rh13 2.748580 1_545
Nb2 Rh12 2.748623 1_545
Nb2 Rh12 2.748623 1_655
Nb2 Rh13 2.748666 1_555
Nb2 Rh14 2.748666 1_555
Nb2 Rh15 2.797109 1_555
Nb2 Rh17 2.797241 1_555
Nb2 Rh16 2.797241 1_555
Nb3 Rh3 2.703053 1_565
Nb3 Rh5 2.703053 1_455
Nb3 Rh4 2.703104 1_555
Nb3 Rh17 2.748577 1_455
Nb3 Rh16 2.748577 1_565
Nb3 Rh15 2.748626 1_455
Nb3 Rh15 2.748626 1_565
Nb3 Rh17 2.748673 1_555
Nb3 Rh16 2.748673 1_555
Nb3 Rh12 2.797174 1_555
Nb3 Rh13 2.797307 1_555
Nb3 Rh14 2.797307 1_555
Nb4 Rh3 2.702891 1_565
Nb4 Rh5 2.702891 1_455
Nb4 Rh4 2.702942 1_555
Nb4 Rh7 2.748582 1_565
Nb4 Rh8 2.748582 1_455
Nb4 Rh6 2.748629 1_565
Nb4 Rh6 2.748629 1_455
Nb4 Rh7 2.748674 1_555
Nb4 Rh8 2.748674 1_555
Nb4 Rh9 2.797003 1_554
Nb4 Rh10 2.797145 1_554
Nb4 Rh11 2.797145 1_554
Nb5 Rh0 2.702840 1_545
Nb5 Rh2 2.702843 1_655
Nb5 Rh1 2.702896 1_555
Nb5 Rh10 2.748578 1_545
Nb5 Rh11 2.748578 1_655
Nb5 Rh9 2.748626 1_545
Nb5 Rh9 2.748626 1_655
Nb5 Rh11 2.748672 1_555
Nb5 Rh10 2.748672 1_555
Nb5 Rh6 2.796926 1_556
Nb5 Rh7 2.797069 1_556
Nb5 Rh8 2.797069 1_556
Rh0 Rh2 2.671045 1_555
Rh0 Rh1 2.671088 1_555
Rh0 Rh10 2.737713 1_555
Rh0 Rh9 2.737720 1_555
Rh0 Rh12 2.737848 1_555
Rh0 Rh13 2.737853 1_555
Rh0 Rh1 2.823316 1_565
Rh0 Rh2 2.823358 1_665
Rh1 Rh2 2.671082 1_555
Rh1 Rh10 2.737694 1_555
Rh1 Rh11 2.737694 1_555
Rh1 Rh14 2.737829 1_555
Rh1 Rh13 2.737829 1_555
Rh1 Rh2 2.823322 1_655
Rh2 Rh9 2.737720 1_555
Rh3 Rh5 2.671030 1_555
Rh3 Rh4 2.671076 1_555
Rh3 Rh7 2.737830 1_555
Rh3 Rh6 2.737840 1_555
Rh3 Rh4 2.823329 1_545
Rh3 Rh5 2.823374 1_445
Rh4 Rh5 2.671076 1_555
Rh4 Rh8 2.737813 1_555
Rh4 Rh7 2.737813 1_555
Rh4 Rh5 2.823329 1_455
Rh5 Rh8 2.737830 1_555
Rh5 Rh6 2.737840 1_555
Rh6 Rh7 2.735959 1_655
Rh6 Rh8 2.735959 1_545
Rh6 Rh7 2.758445 1_555
Rh6 Rh8 2.758445 1_555
Rh7 Rh9 2.717431 1_544
Rh7 Rh8 2.735993 1_445
Rh7 Rh8 2.758410 1_555
Rh8 Rh9 2.717431 1_654
Rh10 Rh8 2.717379 1_556
Rh10 Rh6 2.717428 1_566
Rh10 Rh9 2.735958 1_655
Rh10 Rh11 2.735990 1_665
Rh10 Rh11 2.758413 1_555
Rh10 Rh9 2.758446 1_555
Rh11 Rh7 2.717379 1_556
Rh11 Rh6 2.717428 1_456
Rh11 Rh9 2.735958 1_545
Rh11 Rh2 2.737710 1_555
Rh11 Rh9 2.758446 1_555
Rh12 Rh17 2.717671 1_455
Rh12 Rh16 2.717671 1_565
Rh12 Rh13 2.735960 1_455
Rh12 Rh14 2.735960 1_565
Rh12 Rh2 2.737848 1_555
Rh12 Rh13 2.758444 1_555
Rh12 Rh14 2.758444 1_555
Rh13 Rh17 2.717610 1_555
Rh13 Rh15 2.717669 1_565
Rh13 Rh14 2.735997 1_665
Rh13 Rh14 2.758406 1_555
Rh14 Rh16 2.717610 1_555
Rh14 Rh15 2.717669 1_455
Rh14 Rh2 2.737850 1_555
Rh15 Rh17 2.735969 1_545
Rh15 Rh16 2.735969 1_655
Rh15 Rh3 2.737928 1_555
Rh15 Rh5 2.737928 1_555
Rh15 Rh16 2.758436 1_555
Rh15 Rh17 2.758436 1_555
Rh16 Rh17 2.736003 1_445
Rh16 Rh4 2.737909 1_555
Rh16 Rh3 2.737925 1_555
Rh16 Rh17 2.758400 1_555
Rh17 Rh4 2.737909 1_555
Rh17 Rh5 2.737925 1_555
