# generated using pymatgen
data_Gd3Zn5Ge
_symmetry_space_group_name_H-M   'P 1'
_cell_length_a   7.10405380
_cell_length_b   7.10405380
_cell_length_c   4.27374200
_cell_angle_alpha   90.00000000
_cell_angle_beta   90.00000000
_cell_angle_gamma   119.99999811
_symmetry_Int_Tables_number   1
_chemical_formula_structural   Gd3Zn5Ge
_chemical_formula_sum   'Gd3 Zn5 Ge1'
_cell_volume   186.78905460
_cell_formula_units_Z   1
loop_
 _symmetry_equiv_pos_site_id
 _symmetry_equiv_pos_as_xyz
  1  'x, y, z'
loop_
 _atom_site_type_symbol
 _atom_site_label
 _atom_site_symmetry_multiplicity
 _atom_site_fract_x
 _atom_site_fract_y
 _atom_site_fract_z
 _atom_site_occupancy
  Gd  Gd0  1  0.57804400  0.00000000  0.00000000  1
  Gd  Gd1  1  0.00000000  0.57804400  0.00000000  1
  Gd  Gd2  1  0.42195600  0.42195600  0.00000000  1
  Zn  Zn0  1  0.24539900  0.00000000  0.50000000  1
  Zn  Zn1  1  0.00000000  0.24539900  0.50000000  1
  Zn  Zn2  1  0.75460100  0.75460100  0.50000000  1
  Zn  Zn3  1  0.33333300  0.66666700  0.50000000  1
  Zn  Zn4  1  0.66666700  0.33333300  0.50000000  1
  Ge  Ge0  1  0.00000000  0.00000000  0.00000000  1
loop_
_geom_bond_atom_site_label_1
_geom_bond_atom_site_label_2
_geom_bond_distance
_geom_bond_site_symmetry_2
Gd0 Ge0 2.997598 1_655
Gd0 Zn4 3.013176 1_555
Gd0 Zn4 3.013176 1_554
Gd0 Zn3 3.013177 1_544
Gd0 Zn3 3.013177 1_545
Gd0 Zn0 3.185999 1_554
Gd0 Zn0 3.185999 1_555
Gd0 Zn2 3.371232 1_544
Gd0 Zn2 3.371232 1_545
Gd0 Zn1 3.371232 1_654
Gd0 Zn1 3.371232 1_655
Gd1 Ge0 2.997598 1_565
Gd1 Zn3 3.013176 1_555
Gd1 Zn3 3.013176 1_554
Gd1 Zn4 3.013177 1_455
Gd1 Zn4 3.013177 1_454
Gd1 Zn1 3.185999 1_555
Gd1 Zn1 3.185999 1_554
Gd1 Zn2 3.371232 1_454
Gd1 Zn2 3.371232 1_455
Gd1 Zn0 3.371232 1_565
Gd1 Zn0 3.371232 1_564
Gd2 Ge0 2.997598 1_555
Gd2 Zn4 3.013181 1_555
Gd2 Zn3 3.013181 1_554
Gd2 Zn3 3.013181 1_555
Gd2 Zn4 3.013181 1_554
Gd2 Zn2 3.185999 1_555
Gd2 Zn2 3.185999 1_554
Gd2 Zn1 3.371232 1_555
Gd2 Zn0 3.371232 1_554
Gd2 Zn1 3.371232 1_554
Gd2 Zn0 3.371232 1_555
Zn0 Zn3 2.734411 1_545
Zn0 Zn4 2.734416 1_555
Zn0 Zn1 3.019532 1_555
Zn0 Zn2 3.019532 1_445
Zn1 Zn4 2.734411 1_455
Zn1 Zn3 2.734416 1_555
Zn1 Zn2 3.019532 1_445
Zn2 Zn4 2.734418 1_555
Zn2 Zn3 2.734418 1_555
Ge0 Zn1 2.757791 1_555
Ge0 Zn0 2.757791 1_554
Ge0 Zn1 2.757791 1_554
Ge0 Zn0 2.757791 1_555
Ge0 Zn2 2.757791 1_444
Ge0 Zn2 2.757791 1_445
