# generated using pymatgen
data_Lu5BiPd2
_symmetry_space_group_name_H-M   'P 1'
_cell_length_a   8.62653028
_cell_length_b   8.62653028
_cell_length_c   8.62653028
_cell_angle_alpha   127.86408643
_cell_angle_beta   127.86408643
_cell_angle_gamma   76.84530629
_symmetry_Int_Tables_number   1
_chemical_formula_structural   Lu5BiPd2
_chemical_formula_sum   'Lu10 Bi2 Pd4'
_cell_volume   388.48253836
_cell_formula_units_Z   2
loop_
 _symmetry_equiv_pos_site_id
 _symmetry_equiv_pos_as_xyz
  1  'x, y, z'
loop_
 _atom_site_type_symbol
 _atom_site_label
 _atom_site_symmetry_multiplicity
 _atom_site_fract_x
 _atom_site_fract_y
 _atom_site_fract_z
 _atom_site_occupancy
  Lu  Lu0  1  0.00000000  0.00000000  0.00000000  1
  Lu  Lu1  1  0.50000000  0.50000000  0.00000000  1
  Lu  Lu2  1  0.79362296  0.29362296  0.80683666  1
  Lu  Lu3  1  0.20637704  0.70637704  0.19316334  1
  Lu  Lu4  1  0.48678730  0.98678730  0.19316334  1
  Lu  Lu5  1  0.29362296  0.48678730  0.50000000  1
  Lu  Lu6  1  0.01321270  0.20637704  0.50000000  1
  Lu  Lu7  1  0.51321270  0.01321270  0.80683666  1
  Lu  Lu8  1  0.70637704  0.51321270  0.50000000  1
  Lu  Lu9  1  0.98678730  0.79362296  0.50000000  1
  Bi  Bi0  1  0.25000000  0.25000000  0.00000000  1
  Bi  Bi1  1  0.75000000  0.75000000  0.00000000  1
  Pd  Pd0  1  0.13911175  0.63911175  0.77822250  1
  Pd  Pd1  1  0.86088825  0.36088825  0.22177750  1
  Pd  Pd2  1  0.63911175  0.86088825  0.50000000  1
  Pd  Pd3  1  0.36088825  0.13911175  0.50000000  1
loop_
_geom_bond_atom_site_label_1
_geom_bond_atom_site_label_2
_geom_bond_distance
_geom_bond_site_symmetry_2
Lu0 Pd2 2.932361 1_444
Lu0 Pd3 2.932361 1_555
Lu0 Pd1 2.932363 1_455
Lu0 Pd0 2.932363 1_544
Lu1 Pd2 2.932361 1_555
Lu1 Pd3 2.932361 1_554
Lu1 Pd0 2.932363 1_554
Lu1 Pd1 2.932363 1_555
Lu2 Pd2 2.919273 1_545
Lu2 Pd3 2.919273 1_555
Lu2 Pd1 2.922322 1_556
Lu3 Pd2 2.919273 1_555
Lu3 Pd3 2.919273 1_565
Lu3 Pd0 2.922322 1_554
Lu4 Pd3 2.919282 1_565
Lu4 Pd2 2.919282 1_555
Lu4 Pd0 2.922322 1_554
Lu5 Pd0 2.919268 1_555
Lu5 Pd1 2.919276 1_455
Lu5 Pd3 2.922322 1_555
Lu6 Pd1 2.919268 1_455
Lu6 Pd0 2.919276 1_555
Lu6 Pd3 2.922322 1_555
Lu7 Pd3 2.919282 1_555
Lu7 Pd2 2.919282 1_545
Lu7 Pd1 2.922322 1_556
Lu8 Pd1 2.919268 1_555
Lu8 Pd0 2.919276 1_655
Lu8 Pd2 2.922322 1_555
Lu9 Pd0 2.919268 1_655
Lu9 Pd1 2.919276 1_555
Lu9 Pd2 2.922322 1_555
Bi0 Lu4 3.234191 1_545
Bi0 Lu7 3.234191 1_554
Bi0 Lu5 3.234196 1_555
Bi0 Lu8 3.234196 1_555
Bi0 Lu6 3.234196 1_554
Bi0 Lu9 3.234196 1_444
Bi0 Lu3 3.234198 1_555
Bi0 Lu2 3.234198 1_454
Bi0 Lu1 3.379218 1_555
Bi0 Lu0 3.379218 1_555
Bi1 Lu7 3.234191 1_564
Bi1 Lu4 3.234191 1_555
Bi1 Lu5 3.234196 1_554
Bi1 Lu9 3.234196 1_555
Bi1 Lu8 3.234196 1_554
Bi1 Lu6 3.234196 1_665
Bi1 Lu3 3.234198 1_655
Bi1 Lu2 3.234198 1_554
Bi1 Lu1 3.379218 1_555
Bi1 Lu0 3.379218 1_665
