# generated using pymatgen
data_HfTi4(PbO3)5
_symmetry_space_group_name_H-M   'P 1'
_cell_length_a   5.55422477
_cell_length_b   11.98278691
_cell_length_c   5.98019358
_cell_angle_alpha   98.50573014
_cell_angle_beta   62.32957801
_cell_angle_gamma   90.00000000
_symmetry_Int_Tables_number   1
_chemical_formula_structural   HfTi4(PbO3)5
_chemical_formula_sum   'Hf1 Ti4 Pb5 O15'
_cell_volume   347.54244119
_cell_formula_units_Z   1
loop_
 _symmetry_equiv_pos_site_id
 _symmetry_equiv_pos_as_xyz
  1  'x, y, z'
loop_
 _atom_site_type_symbol
 _atom_site_label
 _atom_site_symmetry_multiplicity
 _atom_site_fract_x
 _atom_site_fract_y
 _atom_site_fract_z
 _atom_site_occupancy
  Hf  Hf0  1  0.69229700  0.90481400  0.61540500  1
  Ti  Ti0  1  0.30146300  0.10418500  0.39707300  1
  Ti  Ti1  1  0.89603600  0.30392800  0.20792700  1
  Ti  Ti2  1  0.49454000  0.49979100  0.01092100  1
  Ti  Ti3  1  0.08655500  0.70344400  0.82689000  1
  Pb  Pb0  1  0.01360300  0.99311100  0.97279300  1
  Pb  Pb1  1  0.61869600  0.20050400  0.76260700  1
  Pb  Pb2  1  0.21615700  0.39510900  0.56768600  1
  Pb  Pb3  1  0.81399400  0.59319200  0.37201200  1
  Pb  Pb4  1  0.40882400  0.78365600  0.18235200  1
  O  O0  1  0.34545700  0.82021000  0.79822300  1
  O  O1  1  0.75002100  0.61870200  0.99525700  1
  O  O2  1  0.15495300  0.42258100  0.19292000  1
  O  O3  1  0.55826800  0.22329300  0.38400100  1
  O  O4  1  0.96714000  0.02741200  0.58307200  1
  O  O5  1  0.85632000  0.82021000  0.79822300  1
  O  O6  1  0.25472200  0.61870200  0.99525700  1
  O  O7  1  0.65212700  0.42258100  0.19292000  1
  O  O8  1  0.05773100  0.22329300  0.38400100  1
  O  O9  1  0.44978700  0.02741200  0.58307200  1
  O  O10  1  0.24425600  0.62597800  0.51148800  1
  O  O11  1  0.65019700  0.42052000  0.69960600  1
  O  O12  1  0.05220800  0.22943300  0.89558300  1
  O  O13  1  0.45912700  0.02504800  0.08174500  1
  O  O14  1  0.86151800  0.81488900  0.27696400  1
loop_
_geom_bond_atom_site_label_1
_geom_bond_atom_site_label_2
_geom_bond_distance
_geom_bond_site_symmetry_2
Hf0 O14 1.931042 1_555
Hf0 O0 2.075073 1_555
Hf0 O5 2.075077 1_555
Hf0 O9 2.082246 1_565
Hf0 O4 2.082246 1_565
Hf0 O13 2.643360 1_566
O0 Ti3 1.974066 1_555
O0 Pb0 2.520462 1_555
O0 Pb4 2.577065 1_556
O1 Ti2 1.992149 1_556
O1 Ti3 2.023178 1_655
O1 Pb4 2.475209 1_556
O1 Pb3 2.498656 1_556
O2 Ti2 1.997336 1_555
O2 Ti1 2.003874 1_455
O2 Pb2 2.484477 1_555
O2 Pb3 2.526158 1_455
O3 Ti0 2.001766 1_555
O3 Ti1 2.007020 1_555
O3 Pb1 2.490425 1_555
O3 Pb2 2.539379 1_555
O4 Ti0 1.978893 1_655
O4 Pb0 2.551322 1_645
O4 Pb1 2.571308 1_555
O5 Ti3 1.974066 1_655
O5 Pb0 2.520459 1_655
O5 Pb4 2.577065 1_556
O6 Ti2 1.992153 1_556
O6 Ti3 2.023178 1_555
O6 Pb4 2.475209 1_556
O6 Pb3 2.498656 1_456
O7 Ti2 1.997331 1_555
O7 Ti1 2.003871 1_555
O7 Pb2 2.484478 1_555
O7 Pb3 2.526158 1_555
O8 Ti0 2.001762 1_555
O8 Ti1 2.007024 1_455
O8 Pb1 2.490429 1_455
O8 Pb2 2.539379 1_555
O9 Ti0 1.978893 1_555
O9 Pb0 2.551323 1_545
O9 Pb1 2.571308 1_555
O10 Ti3 1.770350 1_555
O10 Pb4 2.776464 1_555
O11 Ti2 1.760032 1_556
O11 Pb1 2.712157 1_555
O12 Ti1 1.743605 1_456
O13 Ti0 1.777458 1_555
O14 Ti3 2.530248 1_654
O14 Pb4 2.835643 1_555
O14 Pb4 2.835643 1_655
