# generated using pymatgen
data_BaSr3Co2Cu4(SO)4
_symmetry_space_group_name_H-M   'P 1'
_cell_length_a   3.94166800
_cell_length_b   3.94166800
_cell_length_c   18.95503300
_cell_angle_alpha   90.00000000
_cell_angle_beta   90.00000000
_cell_angle_gamma   90.00000000
_symmetry_Int_Tables_number   1
_chemical_formula_structural   BaSr3Co2Cu4(SO)4
_chemical_formula_sum   'Ba1 Sr3 Co2 Cu4 S4 O4'
_cell_volume   294.49954494
_cell_formula_units_Z   1
loop_
 _symmetry_equiv_pos_site_id
 _symmetry_equiv_pos_as_xyz
  1  'x, y, z'
loop_
 _atom_site_type_symbol
 _atom_site_label
 _atom_site_symmetry_multiplicity
 _atom_site_fract_x
 _atom_site_fract_y
 _atom_site_fract_z
 _atom_site_occupancy
  Ba  Ba0  1  0.50000000  0.50000000  0.09669500  1
  Sr  Sr0  1  0.00000000  0.00000000  0.59383500  1
  Sr  Sr1  1  0.00000000  0.00000000  0.40789500  1
  Sr  Sr2  1  0.50000000  0.50000000  0.90364600  1
  Co  Co0  1  0.00000000  0.00000000  0.99350900  1
  Co  Co1  1  0.50000000  0.50000000  0.50040100  1
  Cu  Cu0  1  0.50000000  0.00000000  0.25402800  1
  Cu  Cu1  1  0.00000000  0.50000000  0.75011900  1
  Cu  Cu2  1  0.00000000  0.50000000  0.25402800  1
  Cu  Cu3  1  0.50000000  0.00000000  0.75011900  1
  S  S0  1  0.50000000  0.50000000  0.32828100  1
  S  S1  1  0.00000000  0.00000000  0.82397200  1
  S  S2  1  0.00000000  0.00000000  0.18180600  1
  S  S3  1  0.50000000  0.50000000  0.67452700  1
  O  O0  1  0.00000000  0.50000000  0.99314100  1
  O  O1  1  0.50000000  0.00000000  0.50043000  1
  O  O2  1  0.50000000  0.00000000  0.99314100  1
  O  O3  1  0.00000000  0.50000000  0.50043000  1
loop_
_geom_bond_atom_site_label_1
_geom_bond_atom_site_label_2
_geom_bond_distance
_geom_bond_site_symmetry_2
Ba0 O0 2.781554 1_654
Ba0 O2 2.781554 1_554
Ba0 O2 2.781554 1_564
Ba0 O0 2.781554 1_554
Ba0 S2 3.220412 1_655
Ba0 S2 3.220412 1_555
Ba0 S2 3.220412 1_565
Ba0 S2 3.220412 1_665
Co0 O2 1.970846 1_555
Co0 O0 1.970846 1_545
Co0 O2 1.970846 1_455
Co0 O0 1.970846 1_555
Co1 O1 1.970834 1_555
Co1 O3 1.970834 1_655
Co1 O3 1.970834 1_555
Co1 O1 1.970834 1_565
Cu0 S2 2.399639 1_655
Cu0 S2 2.399639 1_555
Cu0 S0 2.421808 1_545
Cu0 S0 2.421808 1_555
Cu1 S1 2.417409 1_565
Cu1 S1 2.417409 1_555
Cu1 S3 2.436646 1_555
Cu1 S3 2.436646 1_455
Cu2 S2 2.399639 1_565
Cu2 S2 2.399639 1_555
Cu2 S0 2.421808 1_555
Cu2 S0 2.421808 1_455
Cu3 S1 2.417409 1_555
Cu3 S1 2.417409 1_655
Cu3 S3 2.436646 1_555
Cu3 S3 2.436646 1_545
S0 Sr1 3.169497 1_555
S0 Sr1 3.169497 1_565
S0 Sr1 3.169497 1_655
S0 Sr1 3.169497 1_665
S1 Sr2 3.170039 1_555
S1 Sr2 3.170039 1_545
S1 Sr2 3.170039 1_445
S1 Sr2 3.170039 1_455
S3 Sr0 3.179277 1_655
S3 Sr0 3.179277 1_565
S3 Sr0 3.179277 1_555
S3 Sr0 3.179277 1_665
O0 Sr2 2.600364 1_555
O0 Sr2 2.600364 1_455
O1 Sr1 2.638317 1_655
O1 Sr1 2.638317 1_555
O1 Sr0 2.649309 1_655
O1 Sr0 2.649309 1_555
O2 Sr2 2.600364 1_555
O2 Sr2 2.600364 1_545
O3 Sr1 2.638317 1_565
O3 Sr1 2.638317 1_555
O3 Sr0 2.649309 1_555
O3 Sr0 2.649309 1_565
