# generated using pymatgen
data_Sr2TiMnO6
_symmetry_space_group_name_H-M   'P 1'
_cell_length_a   7.83290100
_cell_length_b   7.83290100
_cell_length_c   7.83290100
_cell_angle_alpha   90.00000000
_cell_angle_beta   90.00000000
_cell_angle_gamma   90.00000000
_symmetry_Int_Tables_number   1
_chemical_formula_structural   Sr2TiMnO6
_chemical_formula_sum   'Sr8 Ti4 Mn4 O24'
_cell_volume   480.58245607
_cell_formula_units_Z   4
loop_
 _symmetry_equiv_pos_site_id
 _symmetry_equiv_pos_as_xyz
  1  'x, y, z'
loop_
 _atom_site_type_symbol
 _atom_site_label
 _atom_site_symmetry_multiplicity
 _atom_site_fract_x
 _atom_site_fract_y
 _atom_site_fract_z
 _atom_site_occupancy
  Sr  Sr0  1  0.24804600  0.24804600  0.24804600  1
  Sr  Sr1  1  0.24804600  0.24804600  0.75195400  1
  Sr  Sr2  1  0.24804600  0.75195400  0.24804600  1
  Sr  Sr3  1  0.24804600  0.75195400  0.75195400  1
  Sr  Sr4  1  0.75195400  0.24804600  0.24804600  1
  Sr  Sr5  1  0.75195400  0.24804600  0.75195400  1
  Sr  Sr6  1  0.75195400  0.75195400  0.24804600  1
  Sr  Sr7  1  0.75195400  0.75195400  0.75195400  1
  Ti  Ti0  1  0.00000000  0.50000000  0.50000000  1
  Ti  Ti1  1  0.50000000  0.00000000  0.50000000  1
  Ti  Ti2  1  0.50000000  0.50000000  0.00000000  1
  Ti  Ti3  1  0.50000000  0.50000000  0.50000000  1
  Mn  Mn0  1  0.00000000  0.00000000  0.00000000  1
  Mn  Mn1  1  0.00000000  0.00000000  0.50000000  1
  Mn  Mn2  1  0.00000000  0.50000000  0.00000000  1
  Mn  Mn3  1  0.50000000  0.00000000  0.00000000  1
  O  O0  1  0.25117400  0.00000000  0.00000000  1
  O  O1  1  0.24758900  0.00000000  0.50000000  1
  O  O2  1  0.24758900  0.50000000  0.00000000  1
  O  O3  1  0.24966200  0.50000000  0.50000000  1
  O  O4  1  0.74882600  0.00000000  0.00000000  1
  O  O5  1  0.75241100  0.00000000  0.50000000  1
  O  O6  1  0.75241100  0.50000000  0.00000000  1
  O  O7  1  0.75033800  0.50000000  0.50000000  1
  O  O8  1  0.00000000  0.25117400  0.00000000  1
  O  O9  1  0.00000000  0.24758900  0.50000000  1
  O  O10  1  0.00000000  0.74882600  0.00000000  1
  O  O11  1  0.00000000  0.75241100  0.50000000  1
  O  O12  1  0.50000000  0.24758900  0.00000000  1
  O  O13  1  0.50000000  0.24966200  0.50000000  1
  O  O14  1  0.50000000  0.75241100  0.00000000  1
  O  O15  1  0.50000000  0.75033800  0.50000000  1
  O  O16  1  0.00000000  0.00000000  0.25117400  1
  O  O17  1  0.00000000  0.00000000  0.74882600  1
  O  O18  1  0.00000000  0.50000000  0.24758900  1
  O  O19  1  0.00000000  0.50000000  0.75241100  1
  O  O20  1  0.50000000  0.00000000  0.24758900  1
  O  O21  1  0.50000000  0.00000000  0.75241100  1
  O  O22  1  0.50000000  0.50000000  0.24966200  1
  O  O23  1  0.50000000  0.50000000  0.75033800  1
loop_
_geom_bond_atom_site_label_1
_geom_bond_atom_site_label_2
_geom_bond_distance
_geom_bond_site_symmetry_2
Mn0 O8 1.967421 1_555
Mn0 O10 1.967421 1_545
Mn0 O4 1.967421 1_455
Mn0 O0 1.967421 1_555
Mn0 O16 1.967421 1_555
Mn0 O17 1.967421 1_554
Mn1 O11 1.939340 1_545
Mn1 O5 1.939340 1_455
Mn1 O1 1.939340 1_555
Mn1 O9 1.939340 1_555
Mn1 O16 1.949029 1_555
Mn1 O17 1.949029 1_555
Mn2 O19 1.939340 1_554
Mn2 O6 1.939340 1_455
Mn2 O18 1.939340 1_555
Mn2 O2 1.939340 1_555
Mn2 O8 1.949029 1_555
Mn2 O10 1.949029 1_555
Mn3 O14 1.939340 1_545
Mn3 O21 1.939340 1_554
Mn3 O12 1.939340 1_555
Mn3 O20 1.939340 1_555
Mn3 O0 1.949029 1_555
Mn3 O4 1.949029 1_555
O0 Sr1 2.747813 1_554
O0 Sr3 2.747813 1_544
O0 Sr2 2.747813 1_545
O0 Sr0 2.747813 1_555
O1 Ti1 1.977110 1_555
O1 Sr1 2.769436 1_555
O1 Sr2 2.769436 1_545
O1 Sr0 2.769436 1_555
O1 Sr3 2.769436 1_545
O2 Ti2 1.977110 1_555
O2 Sr2 2.769436 1_555
O2 Sr3 2.769436 1_554
O2 Sr0 2.769436 1_555
O2 Sr1 2.769436 1_554
O3 Ti0 1.955578 1_555
O3 Ti3 1.960873 1_555
O3 Sr1 2.791023 1_555
O3 Sr2 2.791023 1_555
O3 Sr3 2.791023 1_555
O3 Sr0 2.791023 1_555
O4 Sr4 2.747813 1_555
O4 Sr6 2.747813 1_545
O4 Sr7 2.747813 1_544
O4 Sr5 2.747813 1_554
O5 Ti1 1.977110 1_555
O5 Sr6 2.769436 1_545
O5 Sr5 2.769436 1_555
O5 Sr7 2.769436 1_545
O5 Sr4 2.769436 1_555
O6 Ti2 1.977110 1_555
O6 Sr5 2.769436 1_554
O6 Sr7 2.769436 1_554
O6 Sr6 2.769436 1_555
O6 Sr4 2.769436 1_555
O7 Ti0 1.955578 1_655
O7 Ti3 1.960873 1_555
O7 Sr7 2.791023 1_555
O7 Sr5 2.791023 1_555
O7 Sr6 2.791023 1_555
O7 Sr4 2.791023 1_555
O8 Sr1 2.747813 1_554
O8 Sr5 2.747813 1_454
O8 Sr4 2.747813 1_455
O8 Sr0 2.747813 1_555
O9 Ti0 1.977110 1_555
O9 Sr1 2.769436 1_555
O9 Sr5 2.769436 1_455
O9 Sr4 2.769436 1_455
O9 Sr0 2.769436 1_555
O10 Sr7 2.747813 1_454
O10 Sr3 2.747813 1_554
O10 Sr2 2.747813 1_555
O10 Sr6 2.747813 1_455
O11 Ti0 1.977110 1_555
O11 Sr2 2.769436 1_555
O11 Sr6 2.769436 1_455
O11 Sr3 2.769436 1_555
O11 Sr7 2.769436 1_455
O12 Ti2 1.977110 1_555
O12 Sr5 2.769436 1_554
O12 Sr0 2.769436 1_555
O12 Sr1 2.769436 1_554
O12 Sr4 2.769436 1_555
O13 Ti1 1.955578 1_555
O13 Ti3 1.960873 1_555
O13 Sr1 2.791023 1_555
O13 Sr4 2.791023 1_555
O13 Sr5 2.791023 1_555
O13 Sr0 2.791023 1_555
O14 Ti2 1.977110 1_555
O14 Sr2 2.769436 1_555
O14 Sr3 2.769436 1_554
O14 Sr7 2.769436 1_554
O14 Sr6 2.769436 1_555
O15 Ti1 1.955578 1_565
O15 Ti3 1.960873 1_555
O15 Sr7 2.791023 1_555
O15 Sr2 2.791023 1_555
O15 Sr3 2.791023 1_555
O15 Sr6 2.791023 1_555
O16 Sr2 2.747813 1_545
O16 Sr4 2.747813 1_455
O16 Sr0 2.747813 1_555
O16 Sr6 2.747813 1_445
O17 Sr1 2.747813 1_555
O17 Sr3 2.747813 1_545
O17 Sr5 2.747813 1_455
O17 Sr7 2.747813 1_445
O18 Ti0 1.977110 1_555
O18 Sr2 2.769436 1_555
O18 Sr4 2.769436 1_455
O18 Sr6 2.769436 1_455
O18 Sr0 2.769436 1_555
O19 Ti0 1.977110 1_555
O19 Sr1 2.769436 1_555
O19 Sr5 2.769436 1_455
O19 Sr3 2.769436 1_555
O19 Sr7 2.769436 1_455
O20 Ti1 1.977110 1_555
O20 Sr6 2.769436 1_545
O20 Sr2 2.769436 1_545
O20 Sr0 2.769436 1_555
O20 Sr4 2.769436 1_555
O21 Ti1 1.977110 1_555
O21 Sr1 2.769436 1_555
O21 Sr5 2.769436 1_555
O21 Sr3 2.769436 1_545
O21 Sr7 2.769436 1_545
O22 Ti2 1.955578 1_555
O22 Ti3 1.960873 1_555
O22 Sr6 2.791023 1_555
O22 Sr2 2.791023 1_555
O22 Sr0 2.791023 1_555
O22 Sr4 2.791023 1_555
O23 Ti2 1.955578 1_556
O23 Ti3 1.960873 1_555
O23 Sr7 2.791023 1_555
O23 Sr1 2.791023 1_555
O23 Sr5 2.791023 1_555
O23 Sr3 2.791023 1_555
