# generated using pymatgen
data_Sc3BPb
_symmetry_space_group_name_H-M   'P 1'
_cell_length_a   4.67792943
_cell_length_b   4.67792943
_cell_length_c   4.67792943
_cell_angle_alpha   90.00000000
_cell_angle_beta   90.00000000
_cell_angle_gamma   90.00000000
_symmetry_Int_Tables_number   1
_chemical_formula_structural   Sc3BPb
_chemical_formula_sum   'Sc3 B1 Pb1'
_cell_volume   102.36724083
_cell_formula_units_Z   1
loop_
 _symmetry_equiv_pos_site_id
 _symmetry_equiv_pos_as_xyz
  1  'x, y, z'
loop_
 _atom_site_type_symbol
 _atom_site_label
 _atom_site_symmetry_multiplicity
 _atom_site_fract_x
 _atom_site_fract_y
 _atom_site_fract_z
 _atom_site_occupancy
  Sc  Sc0  1  0.50000000  -0.00000000  0.50000000  1
  Sc  Sc1  1  -0.00000000  0.50000000  0.50000000  1
  Sc  Sc2  1  0.50000000  0.50000000  -0.00000000  1
  B  B0  1  0.50000000  0.50000000  0.50000000  1
  Pb  Pb0  1  -0.00000000  -0.00000000  -0.00000000  1
loop_
_geom_bond_atom_site_label_1
_geom_bond_atom_site_label_2
_geom_bond_distance
_geom_bond_site_symmetry_2
B0 Sc0 2.338965 1_555
B0 Sc2 2.338965 1_555
B0 Sc1 2.338965 1_655
B0 Sc1 2.338965 1_555
B0 Sc0 2.338965 1_565
B0 Sc2 2.338965 1_556
Pb0 Sc1 3.307796 1_554
Pb0 Sc0 3.307796 1_454
Pb0 Sc1 3.307796 1_555
Pb0 Sc2 3.307796 1_455
Pb0 Sc1 3.307796 1_545
Pb0 Sc1 3.307796 1_544
Pb0 Sc0 3.307796 1_455
Pb0 Sc2 3.307796 1_445
Pb0 Sc2 3.307796 1_555
Pb0 Sc0 3.307796 1_554
Pb0 Sc0 3.307796 1_555
Pb0 Sc2 3.307796 1_545
