# generated using pymatgen
data_CaV4O6
_symmetry_space_group_name_H-M   'P 1'
_cell_length_a   3.09723000
_cell_length_b   5.33661696
_cell_length_c   15.36745982
_cell_angle_alpha   89.41359309
_cell_angle_beta   89.99916391
_cell_angle_gamma   73.13068463
_symmetry_Int_Tables_number   1
_chemical_formula_structural   CaV4O6
_chemical_formula_sum   'Ca2 V8 O12'
_cell_volume   243.06066792
_cell_formula_units_Z   2
loop_
 _symmetry_equiv_pos_site_id
 _symmetry_equiv_pos_as_xyz
  1  'x, y, z'
loop_
 _atom_site_type_symbol
 _atom_site_label
 _atom_site_symmetry_multiplicity
 _atom_site_fract_x
 _atom_site_fract_y
 _atom_site_fract_z
 _atom_site_occupancy
  Ca  Ca0  1  0.34874200  0.30232300  0.74877500  1
  Ca  Ca1  1  0.65129200  0.69755900  0.25118100  1
  V  V0  1  0.86314400  0.27367800  0.54060300  1
  V  V1  1  0.59753500  0.80478500  0.63500200  1
  V  V2  1  0.40128200  0.19753600  0.13283400  1
  V  V3  1  0.59869800  0.80242500  0.86696300  1
  V  V4  1  0.13655900  0.72702500  0.04533000  1
  V  V5  1  0.86354600  0.27293400  0.95474400  1
  V  V6  1  0.13678900  0.72650700  0.45934300  1
  V  V7  1  0.40251200  0.19502900  0.36525500  1
  O  O0  1  0.49997600  0.00007300  0.49997800  1
  O  O1  1  0.49998900  0.00008500  0.00013200  1
  O  O2  1  0.67905800  0.64158600  0.75107400  1
  O  O3  1  0.32117500  0.35785600  0.24886000  1
  O  O4  1  0.97225800  0.05510100  0.83996400  1
  O  O5  1  0.02749100  0.94512000  0.15996400  1
  O  O6  1  0.02877600  0.94268400  0.34245500  1
  O  O7  1  0.97125000  0.05741600  0.65752500  1
  O  O8  1  0.22283100  0.55434500  0.91405800  1
  O  O9  1  0.77719900  0.44587500  0.08591100  1
  O  O10  1  0.77492500  0.45018600  0.41023600  1
  O  O11  1  0.22496300  0.54987200  0.58981600  1
loop_
_geom_bond_atom_site_label_1
_geom_bond_atom_site_label_2
_geom_bond_distance
_geom_bond_site_symmetry_2
Ca0 O2 2.324266 1_555
Ca0 O2 2.324475 1_455
Ca0 O4 2.432557 1_555
Ca0 O4 2.432911 1_455
Ca0 O7 2.442537 1_455
Ca0 O7 2.442720 1_555
Ca0 O11 2.738520 1_555
Ca0 O8 2.859711 1_555
Ca1 O3 2.325993 1_555
Ca1 O3 2.326115 1_655
Ca1 O5 2.433817 1_655
Ca1 O5 2.433918 1_555
Ca1 O6 2.443313 1_555
Ca1 O6 2.443526 1_655
Ca1 O10 2.739423 1_555
Ca1 O9 2.858739 1_555
O0 V6 2.181384 1_545
O0 V0 2.181469 1_555
O0 V6 2.181497 1_645
O0 V0 2.181579 1_455
O0 V7 2.287699 1_555
O0 V1 2.292586 1_545
O1 V4 2.191848 1_545
O1 V4 2.192031 1_645
O1 V5 2.192121 1_554
O1 V5 2.192210 1_454
O1 V2 2.284624 1_555
O1 V3 2.291546 1_544
O2 V1 1.960755 1_555
O2 V3 1.969175 1_555
O3 V7 1.964462 1_555
O3 V2 1.969960 1_555
O4 V3 2.055014 1_545
O4 V3 2.055493 1_645
O4 V5 2.095424 1_555
O5 V2 2.054813 1_565
O5 V2 2.054821 1_465
O5 V4 2.094246 1_555
O6 V7 2.047090 1_565
O6 V7 2.047505 1_465
O6 V6 2.098340 1_555
O7 V1 2.047389 1_645
O7 V1 2.047546 1_545
O7 V0 2.099009 1_555
O8 V3 2.122878 1_555
O8 V3 2.123308 1_455
O8 V5 2.198919 1_455
O8 V5 2.198967 1_555
O8 V4 2.210273 1_556
O9 V2 2.122805 1_655
O9 V2 2.123186 1_555
O9 V4 2.197484 1_655
O9 V4 2.197774 1_555
O9 V5 2.209339 1_554
O10 V7 2.143191 1_555
O10 V7 2.143208 1_655
O10 V0 2.188059 1_555
O10 V6 2.231945 1_555
O10 V6 2.232072 1_655
O11 V1 2.143403 1_455
O11 V1 2.143551 1_555
O11 V6 2.189804 1_555
O11 V0 2.231989 1_455
O11 V0 2.232328 1_555
