# generated using pymatgen
data_LiZn(CoO2)4
_symmetry_space_group_name_H-M   'P 1'
_cell_length_a   2.96695075
_cell_length_b   7.06980218
_cell_length_c   7.52789859
_cell_angle_alpha   74.51421187
_cell_angle_beta   78.76488200
_cell_angle_gamma   78.00326374
_symmetry_Int_Tables_number   1
_chemical_formula_structural   LiZn(CoO2)4
_chemical_formula_sum   'Li1 Zn1 Co4 O8'
_cell_volume   147.21234937
_cell_formula_units_Z   1
loop_
 _symmetry_equiv_pos_site_id
 _symmetry_equiv_pos_as_xyz
  1  'x, y, z'
loop_
 _atom_site_type_symbol
 _atom_site_label
 _atom_site_symmetry_multiplicity
 _atom_site_fract_x
 _atom_site_fract_y
 _atom_site_fract_z
 _atom_site_occupancy
  Li  Li0  1  0.51580100  0.08206000  0.88234700  1
  Zn  Zn0  1  0.32313000  0.14768500  0.20882400  1
  Co  Co0  1  0.61922500  0.21916700  0.54675000  1
  Co  Co1  1  0.05585700  0.60558600  0.21884300  1
  Co  Co2  1  0.85050600  0.45394500  0.85199900  1
  Co  Co3  1  0.31036200  0.83224400  0.54757500  1
  O  O0  1  0.81513000  0.69362100  0.67832600  1
  O  O1  1  0.45813100  0.36998200  0.71967300  1
  O  O2  1  0.48115300  0.73830900  0.28324500  1
  O  O3  1  0.13228100  0.34641800  0.39386900  1
  O  O4  1  0.13041200  0.06685700  0.67771900  1
  O  O5  1  0.89449200  0.19166000  0.02291400  1
  O  O6  1  0.78613800  0.01936100  0.40856800  1
  O  O7  1  0.23608700  0.54278000  0.99556900  1
loop_
_geom_bond_atom_site_label_1
_geom_bond_atom_site_label_2
_geom_bond_distance
_geom_bond_site_symmetry_2
Li0 O5 2.049921 1_456
Li0 O5 2.060473 1_556
Li0 O1 2.068363 1_555
Li0 O4 2.125495 1_555
Li0 O4 2.149889 1_655
Co0 O1 1.829402 1_555
Co0 O6 1.901532 1_555
Co0 O4 1.939066 1_555
Co0 O4 1.941305 1_655
Co0 O3 1.943151 1_555
Co0 O3 1.945441 1_655
Co1 O7 1.804919 1_554
Co1 O2 1.810691 1_455
Co1 O2 1.918653 1_555
Co1 O3 1.949148 1_555
Co2 O0 1.840665 1_555
Co2 O1 1.937739 1_555
Co2 O1 1.940572 1_655
Co2 O5 1.949796 1_556
Co2 O7 2.001116 1_555
Co2 O7 2.003549 1_655
Co3 O0 1.899517 1_455
Co3 O0 1.902970 1_555
Co3 O4 2.071679 1_565
Co3 O6 2.073435 1_565
Co3 O6 2.074557 1_465
Co3 O2 2.197762 1_555
O3 Zn0 2.154564 1_555
O5 Zn0 1.992353 1_655
O5 Zn0 1.997817 1_555
O6 Zn0 2.128262 1_555
O6 Zn0 2.135722 1_655
