# generated using pymatgen
data_Na3Li(MoO7)2
_symmetry_space_group_name_H-M   'P 1'
_cell_length_a   8.22908998
_cell_length_b   8.22908998
_cell_length_c   11.18278131
_cell_angle_alpha   68.44780871
_cell_angle_beta   68.44780871
_cell_angle_gamma   60.67510476
_symmetry_Int_Tables_number   1
_chemical_formula_structural   Na3Li(MoO7)2
_chemical_formula_sum   'Na6 Li2 Mo4 O28'
_cell_volume   597.44393156
_cell_formula_units_Z   2
loop_
 _symmetry_equiv_pos_site_id
 _symmetry_equiv_pos_as_xyz
  1  'x, y, z'
loop_
 _atom_site_type_symbol
 _atom_site_label
 _atom_site_symmetry_multiplicity
 _atom_site_fract_x
 _atom_site_fract_y
 _atom_site_fract_z
 _atom_site_occupancy
  Na  Na0  1  0.45265500  0.48830100  0.53979800  1
  Na  Na1  1  0.48830100  0.45265500  0.03979800  1
  Na  Na2  1  0.67573900  0.95103500  0.53809500  1
  Na  Na3  1  0.95103500  0.67573900  0.03809500  1
  Na  Na4  1  0.99532900  0.17614500  0.53814800  1
  Na  Na5  1  0.17614500  0.99532900  0.03814800  1
  Li  Li0  1  0.95843400  0.45783300  0.78354000  1
  Li  Li1  1  0.45783300  0.95843400  0.28354000  1
  Mo  Mo0  1  0.30455900  0.80033900  0.75303300  1
  Mo  Mo1  1  0.80033900  0.30455900  0.25303300  1
  Mo  Mo2  1  0.07714000  0.57995600  0.42262000  1
  Mo  Mo3  1  0.57995600  0.07714000  0.92262000  1
  O  O0  1  0.24280200  0.74460000  0.93083400  1
  O  O1  1  0.74460000  0.24280200  0.43083400  1
  O  O2  1  0.56012100  0.72210600  0.69168700  1
  O  O3  1  0.72210600  0.56012100  0.19168700  1
  O  O4  1  0.19267200  0.05550700  0.68700100  1
  O  O5  1  0.05550700  0.19267200  0.18700100  1
  O  O6  1  0.22642800  0.68146800  0.69217000  1
  O  O7  1  0.68146800  0.22642800  0.19217000  1
  O  O8  1  0.27851300  0.64678400  0.37095900  1
  O  O9  1  0.64678400  0.27851300  0.87095900  1
  O  O10  1  0.14290500  0.36750300  0.37064700  1
  O  O11  1  0.36750300  0.14290500  0.87064700  1
  O  O12  1  0.86315900  0.77740100  0.37133000  1
  O  O13  1  0.77740100  0.86315900  0.87133000  1
  O  O14  1  0.02028400  0.52082400  0.59502200  1
  O  O15  1  0.52082400  0.02028400  0.09502200  1
  O  O16  1  0.69996800  0.63242700  0.88344500  1
  O  O17  1  0.63242700  0.69996800  0.38344500  1
  O  O18  1  0.13932100  0.44352600  0.88013300  1
  O  O19  1  0.44352600  0.13932100  0.38013300  1
  O  O20  1  0.93503700  0.20000900  0.88663200  1
  O  O21  1  0.20000900  0.93503700  0.38663200  1
  O  O22  1  0.41880700  0.18647000  0.64413300  1
  O  O23  1  0.18647000  0.41880700  0.14413300  1
  O  O24  1  0.69348600  0.39174800  0.64733600  1
  O  O25  1  0.39174800  0.69348600  0.14733600  1
  O  O26  1  0.89014800  0.92911100  0.64733600  1
  O  O27  1  0.92911100  0.89014800  0.14733600  1
loop_
_geom_bond_atom_site_label_1
_geom_bond_atom_site_label_2
_geom_bond_distance
_geom_bond_site_symmetry_2
Na0 O24 2.347698 1_555
Na0 O6 2.378381 1_555
Na0 O8 2.380635 1_555
Na0 O22 2.432673 1_555
Na0 O1 2.498317 1_555
Na0 O17 2.581802 1_555
Na1 O25 2.347698 1_555
Na1 O7 2.378381 1_555
Na1 O9 2.380635 1_554
Na1 O23 2.432673 1_555
Na1 O0 2.498317 1_554
Na1 O16 2.581802 1_554
Na2 O22 2.337411 1_565
Na2 O2 2.362647 1_555
Na2 O12 2.363072 1_555
Na2 O26 2.397462 1_555
Na2 O1 2.498397 1_565
Na2 O19 2.596456 1_565
Na3 O23 2.337411 1_655
Na3 O3 2.362647 1_555
Na3 O13 2.363072 1_554
Na3 O27 2.397462 1_555
Na3 O0 2.498397 1_654
Na3 O18 2.596456 1_654
Na4 O26 2.344354 1_545
Na4 O10 2.344771 1_655
Na4 O4 2.363561 1_655
Na4 O24 2.419734 1_555
Na4 O1 2.495012 1_555
Na4 O21 2.596966 1_645
Na5 O27 2.344354 1_455
Na5 O11 2.344771 1_564
Na5 O5 2.363561 1_565
Na5 O25 2.419734 1_555
Na5 O0 2.495012 1_554
Na5 O20 2.596966 1_464
Li0 O14 1.907697 1_655
Li0 O16 2.067963 1_555
Li0 O20 2.075472 1_555
Li0 O18 2.076679 1_655
Li1 O15 1.907697 1_565
Li1 O17 2.067963 1_555
Li1 O21 2.075472 1_555
Li1 O19 2.076679 1_565
Mo0 O0 1.799426 1_555
Mo0 O2 1.801721 1_555
Mo0 O6 1.805602 1_555
Mo0 O4 1.807968 1_565
Mo1 O1 1.799426 1_555
Mo1 O3 1.801721 1_555
Mo1 O7 1.805602 1_555
Mo1 O5 1.807968 1_655
Mo2 O14 1.744608 1_555
Mo2 O10 1.809939 1_555
Mo2 O12 1.823313 1_455
Mo2 O8 1.827043 1_555
Mo3 O15 1.744608 1_556
Mo3 O11 1.809939 1_555
Mo3 O13 1.823313 1_545
Mo3 O9 1.827043 1_555
