# generated using pymatgen
data_Ca6Si6O19
_symmetry_space_group_name_H-M   'P 1'
_cell_length_a   7.95629217
_cell_length_b   7.95629217
_cell_length_c   17.37403461
_cell_angle_alpha   89.53804112
_cell_angle_beta   89.53804112
_cell_angle_gamma   55.58674084
_symmetry_Int_Tables_number   1
_chemical_formula_structural   Ca6Si6O19
_chemical_formula_sum   'Ca12 Si12 O38'
_cell_volume   907.29590181
_cell_formula_units_Z   2
loop_
 _symmetry_equiv_pos_site_id
 _symmetry_equiv_pos_as_xyz
  1  'x, y, z'
loop_
 _atom_site_type_symbol
 _atom_site_label
 _atom_site_symmetry_multiplicity
 _atom_site_fract_x
 _atom_site_fract_y
 _atom_site_fract_z
 _atom_site_occupancy
  Ca  Ca0  1  0.12502300  0.37206900  0.25170300  1
  Ca  Ca1  1  0.62793100  0.87497700  0.24829700  1
  Ca  Ca2  1  0.87497700  0.62793100  0.74829700  1
  Ca  Ca3  1  0.37206900  0.12502300  0.75170300  1
  Ca  Ca4  1  0.80001200  0.53790200  0.06694200  1
  Ca  Ca5  1  0.46209800  0.19998800  0.43305800  1
  Ca  Ca6  1  0.19998800  0.46209800  0.93305800  1
  Ca  Ca7  1  0.53790200  0.80001200  0.56694200  1
  Ca  Ca8  1  0.28953300  0.05131700  0.06827400  1
  Ca  Ca9  1  0.94868300  0.71046700  0.43172600  1
  Ca  Ca10  1  0.71046700  0.94868300  0.93172600  1
  Ca  Ca11  1  0.05131700  0.28953300  0.56827400  1
  Si  Si0  1  0.78030700  0.45111000  0.39523200  1
  Si  Si1  1  0.54889000  0.21969300  0.10476800  1
  Si  Si2  1  0.21969300  0.54889000  0.60476800  1
  Si  Si3  1  0.45111000  0.78030700  0.89523200  1
  Si  Si4  1  0.20537200  0.02667800  0.39465900  1
  Si  Si5  1  0.97332200  0.79462800  0.10534100  1
  Si  Si6  1  0.79462800  0.97332200  0.60534100  1
  Si  Si7  1  0.02667800  0.20537200  0.89465900  1
  Si  Si8  1  0.40541600  0.65102000  0.15935700  1
  Si  Si9  1  0.34898000  0.59458400  0.34064300  1
  Si  Si10  1  0.59458400  0.34898000  0.84064300  1
  Si  Si11  1  0.65102000  0.40541600  0.65935700  1
  O  O0  1  0.37631400  0.62368600  0.25000000  1
  O  O1  1  0.62368600  0.37631400  0.75000000  1
  O  O2  1  0.95889100  0.20453200  0.39163500  1
  O  O3  1  0.79546800  0.04110900  0.10836500  1
  O  O4  1  0.04110900  0.79546800  0.60836500  1
  O  O5  1  0.20453200  0.95889100  0.89163500  1
  O  O6  1  0.32834200  0.05851500  0.32759400  1
  O  O7  1  0.94148500  0.67165800  0.17240600  1
  O  O8  1  0.67165800  0.94148500  0.67240600  1
  O  O9  1  0.05851500  0.32834200  0.82759400  1
  O  O10  1  0.81191000  0.57428500  0.32798500  1
  O  O11  1  0.42571500  0.18809000  0.17201500  1
  O  O12  1  0.18809000  0.42571500  0.67201500  1
  O  O13  1  0.57428500  0.81191000  0.82798500  1
  O  O14  1  0.57017300  0.45487800  0.38451000  1
  O  O15  1  0.54512200  0.42982700  0.11549000  1
  O  O16  1  0.42982700  0.54512200  0.61549000  1
  O  O17  1  0.45487800  0.57017300  0.88451000  1
  O  O18  1  0.21213700  0.81492500  0.38536000  1
  O  O19  1  0.18507500  0.78786300  0.11464000  1
  O  O20  1  0.78786300  0.18507500  0.61464000  1
  O  O21  1  0.81492500  0.21213700  0.88536000  1
  O  O22  1  0.29255600  0.03614500  0.47806300  1
  O  O23  1  0.96385500  0.70744400  0.02193700  1
  O  O24  1  0.70744400  0.96385500  0.52193700  1
  O  O25  1  0.03614500  0.29255600  0.97806300  1
  O  O26  1  0.78754200  0.54011900  0.47851300  1
  O  O27  1  0.45988100  0.21245800  0.02148700  1
  O  O28  1  0.21245800  0.45988100  0.52148700  1
  O  O29  1  0.54011900  0.78754200  0.97851300  1
  O  O30  1  0.51704400  0.76571700  0.14728200  1
  O  O31  1  0.23428300  0.48295600  0.35271800  1
  O  O32  1  0.48295600  0.23428300  0.85271800  1
  O  O33  1  0.76571700  0.51704400  0.64728200  1
  O  O34  1  0.02110300  0.27061200  0.14882100  1
  O  O35  1  0.72938800  0.97889700  0.35117900  1
  O  O36  1  0.97889700  0.72938800  0.85117900  1
  O  O37  1  0.27061200  0.02110300  0.64882100  1
loop_
_geom_bond_atom_site_label_1
_geom_bond_atom_site_label_2
_geom_bond_distance
_geom_bond_site_symmetry_2
Ca0 O34 2.309070 1_555
Ca0 O31 2.351738 1_555
Ca0 O7 2.399432 1_455
Ca0 O11 2.409153 1_555
Ca0 O6 2.449254 1_555
Ca0 O10 2.449880 1_455
Ca1 O35 2.309070 1_555
Ca1 O30 2.351738 1_555
Ca1 O6 2.399432 1_565
Ca1 O10 2.409153 1_555
Ca1 O7 2.449254 1_555
Ca1 O11 2.449880 1_565
Ca2 O36 2.309070 1_555
Ca2 O33 2.351738 1_555
Ca2 O9 2.399432 1_655
Ca2 O13 2.409153 1_555
Ca2 O8 2.449254 1_555
Ca2 O12 2.449880 1_655
Ca3 O37 2.309070 1_555
Ca3 O32 2.351738 1_555
Ca3 O8 2.399432 1_545
Ca3 O12 2.409153 1_555
Ca3 O9 2.449254 1_555
Ca3 O13 2.449880 1_545
Ca4 O34 2.324602 1_655
Ca4 O25 2.362453 1_654
Ca4 O30 2.383274 1_555
Ca4 O29 2.437405 1_554
Ca4 O23 2.466672 1_555
Ca4 O7 2.678735 1_555
Ca4 O15 2.737757 1_555
Ca5 O35 2.324602 1_545
Ca5 O24 2.362453 1_545
Ca5 O31 2.383274 1_555
Ca5 O28 2.437405 1_555
Ca5 O22 2.466672 1_555
Ca5 O6 2.678735 1_555
Ca5 O14 2.737757 1_555
Ca6 O36 2.324602 1_455
Ca6 O23 2.362453 1_456
Ca6 O32 2.383274 1_555
Ca6 O27 2.437405 1_556
Ca6 O25 2.466672 1_555
Ca6 O9 2.678735 1_555
Ca6 O17 2.737757 1_555
Ca7 O37 2.324602 1_565
Ca7 O22 2.362453 1_565
Ca7 O33 2.383274 1_555
Ca7 O26 2.437405 1_555
Ca7 O24 2.466672 1_555
Ca7 O8 2.678735 1_555
Ca7 O16 2.737757 1_555
Ca8 O34 2.311521 1_555
Ca8 O30 2.380094 1_545
Ca8 O25 2.415274 1_554
Ca8 O27 2.463938 1_555
Ca8 O29 2.466709 1_544
Ca8 O11 2.646255 1_555
Ca8 O19 2.768473 1_545
Ca9 O35 2.311521 1_555
Ca9 O31 2.380094 1_655
Ca9 O24 2.415274 1_555
Ca9 O26 2.463938 1_555
Ca9 O28 2.466709 1_655
Ca9 O10 2.646255 1_555
Ca9 O18 2.768473 1_655
Ca10 O36 2.311521 1_555
Ca10 O32 2.380094 1_565
Ca10 O23 2.415274 1_556
Ca10 O29 2.463938 1_555
Ca10 O27 2.466709 1_566
Ca10 O13 2.646255 1_555
Ca10 O21 2.768473 1_565
Ca11 O37 2.311521 1_555
Ca11 O33 2.380094 1_455
Ca11 O22 2.415274 1_555
Ca11 O28 2.463938 1_555
Ca11 O26 2.466709 1_455
Ca11 O12 2.646255 1_555
Ca11 O20 2.768473 1_455
O0 Si9 1.620657 1_555
O0 Si8 1.620657 1_555
O1 Si10 1.620657 1_555
O1 Si11 1.620657 1_555
O2 Si4 1.647653 1_655
O2 Si0 1.649659 1_555
O3 Si5 1.647653 1_545
O3 Si1 1.649659 1_555
O4 Si6 1.647653 1_455
O4 Si2 1.649659 1_555
O5 Si7 1.647653 1_565
O5 Si3 1.649659 1_555
O6 Si4 1.623592 1_555
O7 Si5 1.623592 1_555
O8 Si6 1.623592 1_555
O9 Si7 1.623592 1_555
O10 Si0 1.626048 1_555
O11 Si1 1.626048 1_555
O12 Si2 1.626048 1_555
O13 Si3 1.626048 1_555
O14 Si9 1.646338 1_555
O14 Si0 1.667059 1_555
O15 Si8 1.646338 1_555
O15 Si1 1.667059 1_555
O16 Si11 1.646338 1_555
O16 Si2 1.667059 1_555
O17 Si10 1.646338 1_555
O17 Si3 1.667059 1_555
O18 Si9 1.647189 1_555
O18 Si4 1.664090 1_565
O19 Si8 1.647189 1_555
O19 Si5 1.664090 1_455
O20 Si11 1.647189 1_555
O20 Si6 1.664090 1_545
O21 Si10 1.647189 1_555
O21 Si7 1.664090 1_655
O22 Si4 1.632070 1_555
O23 Si5 1.632070 1_555
O24 Si6 1.632070 1_555
O25 Si7 1.632070 1_555
O26 Si0 1.631679 1_555
O27 Si1 1.631679 1_555
O28 Si2 1.631679 1_555
O29 Si3 1.631679 1_555
O30 Si8 1.604868 1_555
O31 Si9 1.604868 1_555
O32 Si10 1.604868 1_555
O33 Si11 1.604868 1_555
