# generated using pymatgen
data_Ba6Lu2(WO6)3
_symmetry_space_group_name_H-M   'P 1'
_cell_length_a   14.84230675
_cell_length_b   14.84230675
_cell_length_c   14.84230671
_cell_angle_alpha   23.02531590
_cell_angle_beta   23.02531590
_cell_angle_gamma   23.02531476
_symmetry_Int_Tables_number   1
_chemical_formula_structural   Ba6Lu2(WO6)3
_chemical_formula_sum   'Ba6 Lu2 W3 O18'
_cell_volume   439.03324014
_cell_formula_units_Z   1
loop_
 _symmetry_equiv_pos_site_id
 _symmetry_equiv_pos_as_xyz
  1  'x, y, z'
loop_
 _atom_site_type_symbol
 _atom_site_label
 _atom_site_symmetry_multiplicity
 _atom_site_fract_x
 _atom_site_fract_y
 _atom_site_fract_z
 _atom_site_occupancy
  Ba  Ba0  1  0.63672800  0.63672800  0.63672800  1
  Ba  Ba1  1  0.36327200  0.36327200  0.36327200  1
  Ba  Ba2  1  0.81328200  0.81328200  0.81328200  1
  Ba  Ba3  1  0.18671800  0.18671800  0.18671800  1
  Ba  Ba4  1  0.91221800  0.91221800  0.91221800  1
  Ba  Ba5  1  0.08778200  0.08778200  0.08778200  1
  Lu  Lu0  1  0.72439900  0.72439900  0.72439900  1
  Lu  Lu1  1  0.27560100  0.27560100  0.27560100  1
  W  W0  1  0.55258500  0.55258500  0.55258500  1
  W  W1  1  0.44741500  0.44741500  0.44741500  1
  W  W2  1  0.00000000  0.00000000  0.00000000  1
  O  O0  1  0.13122500  0.13122500  0.65988100  1
  O  O1  1  0.65988100  0.13122500  0.13122500  1
  O  O2  1  0.13122500  0.65988100  0.13122500  1
  O  O3  1  0.86877500  0.34011900  0.86877500  1
  O  O4  1  0.86877500  0.86877500  0.34011900  1
  O  O5  1  0.34011900  0.86877500  0.86877500  1
  O  O6  1  0.57334500  0.57334500  0.10514600  1
  O  O7  1  0.10514600  0.57334500  0.57334500  1
  O  O8  1  0.57334500  0.10514600  0.57334500  1
  O  O9  1  0.42665500  0.89485400  0.42665500  1
  O  O10  1  0.42665500  0.42665500  0.89485400  1
  O  O11  1  0.78702100  0.31015800  0.31015800  1
  O  O12  1  0.31015800  0.31015800  0.78702100  1
  O  O13  1  0.31015800  0.78702100  0.31015800  1
  O  O14  1  0.68984200  0.21297900  0.68984200  1
  O  O15  1  0.21297900  0.68984200  0.68984200  1
  O  O16  1  0.68984200  0.68984200  0.21297900  1
  O  O17  1  0.89485400  0.42665500  0.42665500  1
loop_
_geom_bond_atom_site_label_1
_geom_bond_atom_site_label_2
_geom_bond_distance
_geom_bond_site_symmetry_2
Ba0 O17 2.835578 1_555
Ba0 O9 2.835578 1_555
Ba0 O10 2.835578 1_555
Ba0 O0 2.969102 1_655
Ba0 O0 2.969102 1_565
Ba0 O2 2.969102 1_556
Ba0 O1 2.969102 1_556
Ba0 O1 2.969102 1_565
Ba0 O2 2.969102 1_655
Ba0 O5 3.020143 1_555
Ba0 O3 3.020143 1_555
Ba0 O4 3.020143 1_555
Ba1 O7 2.835578 1_555
Ba1 O8 2.835578 1_555
Ba1 O6 2.835578 1_555
Ba1 O4 2.969102 1_455
Ba1 O4 2.969102 1_545
Ba1 O5 2.969102 1_554
Ba1 O3 2.969102 1_554
Ba1 O3 2.969102 1_455
Ba1 O5 2.969102 1_545
Ba1 O1 3.020143 1_555
Ba1 O2 3.020143 1_555
Ba1 O0 3.020143 1_555
Ba2 O14 2.841361 1_565
Ba2 O15 2.841361 1_655
Ba2 O16 2.841361 1_556
Ba2 O12 3.000315 1_565
Ba2 O12 3.000315 1_655
Ba2 O13 3.000316 1_655
Ba2 O11 3.000316 1_565
Ba2 O11 3.000316 1_556
Ba2 O13 3.000316 1_556
Ba2 O8 3.268378 1_565
Ba2 O7 3.268378 1_655
Ba2 O6 3.268378 1_556
Ba3 O11 2.841361 1_455
Ba3 O13 2.841361 1_545
Ba3 O12 2.841361 1_554
Ba3 O16 3.000315 1_545
Ba3 O16 3.000315 1_455
Ba3 O14 3.000316 1_455
Ba3 O15 3.000316 1_545
Ba3 O14 3.000316 1_554
Ba3 O15 3.000316 1_554
Ba3 O17 3.268378 1_455
Ba3 O9 3.268378 1_545
Ba3 O10 3.268378 1_554
Ba4 O15 2.743518 1_655
Ba4 O14 2.743518 1_565
Ba4 O16 2.743518 1_556
Ba4 O10 2.968947 1_655
Ba4 O10 2.968947 1_565
Ba4 O17 2.968947 1_565
Ba4 O9 2.968947 1_655
Ba4 O17 2.968947 1_556
Ba4 O9 2.968947 1_556
Ba4 O2 3.129034 1_656
Ba4 O1 3.129034 1_566
Ba4 O0 3.129034 1_665
Ba5 O11 2.743518 1_455
Ba5 O13 2.743518 1_545
Ba5 O12 2.743518 1_554
Ba5 O6 2.968947 1_545
Ba5 O6 2.968947 1_455
Ba5 O8 2.968947 1_455
Ba5 O7 2.968947 1_545
Ba5 O7 2.968947 1_554
Ba5 O8 2.968947 1_554
Ba5 O5 3.129034 1_544
Ba5 O3 3.129034 1_454
Ba5 O4 3.129034 1_445
Lu0 O7 2.144513 1_655
Lu0 O8 2.144513 1_565
Lu0 O6 2.144513 1_556
Lu0 O3 2.274532 1_555
Lu0 O5 2.274532 1_555
Lu0 O4 2.274532 1_555
Lu1 O9 2.144513 1_545
Lu1 O17 2.144513 1_455
Lu1 O10 2.144513 1_554
Lu1 O1 2.274532 1_555
Lu1 O2 2.274532 1_555
Lu1 O0 2.274532 1_555
O0 W2 1.964109 1_556
O1 W2 1.964109 1_655
O2 W2 1.964109 1_565
O3 W2 1.964109 1_656
O4 W2 1.964109 1_665
O5 W2 1.964109 1_566
O6 W1 2.066353 1_555
O7 W1 2.066353 1_555
O8 W1 2.066353 1_555
O9 W0 2.066353 1_555
O10 W0 2.066353 1_555
O11 W1 1.882663 1_555
O12 W1 1.882663 1_555
O13 W1 1.882663 1_555
O14 W0 1.882663 1_555
O15 W0 1.882663 1_555
O16 W0 1.882663 1_555
O17 W0 2.066353 1_555
