# generated using pymatgen
data_Hf2InCu2
_symmetry_space_group_name_H-M   'P 1'
_cell_length_a   7.16054193
_cell_length_b   7.16053865
_cell_length_c   6.71602901
_cell_angle_alpha   90.00000000
_cell_angle_beta   90.00000000
_cell_angle_gamma   90.00000000
_symmetry_Int_Tables_number   1
_chemical_formula_structural   Hf2InCu2
_chemical_formula_sum   'Hf8 In4 Cu8'
_cell_volume   344.35322037
_cell_formula_units_Z   4
loop_
 _symmetry_equiv_pos_site_id
 _symmetry_equiv_pos_as_xyz
  1  'x, y, z'
loop_
 _atom_site_type_symbol
 _atom_site_label
 _atom_site_symmetry_multiplicity
 _atom_site_fract_x
 _atom_site_fract_y
 _atom_site_fract_z
 _atom_site_occupancy
  Hf  Hf0  1  0.15003875  0.15005444  -0.00000000  1
  Hf  Hf1  1  0.84991737  0.84993319  -0.00000000  1
  Hf  Hf2  1  0.65003875  0.34994556  0.50000000  1
  Hf  Hf3  1  0.34991737  0.65006681  0.50000000  1
  Hf  Hf4  1  0.69289848  0.30708566  -0.00000000  1
  Hf  Hf5  1  0.30711944  0.69286305  -0.00000000  1
  Hf  Hf6  1  0.80711944  0.80713695  0.50000000  1
  Hf  Hf7  1  0.19289848  0.19291434  0.50000000  1
  In  In0  1  0.49999301  -0.00007360  0.24999956  1
  In  In1  1  0.49999301  -0.00007360  0.75000044  1
  In  In2  1  -0.00000699  0.50007360  0.25000044  1
  In  In3  1  -0.00000699  0.50007360  0.74999956  1
  Cu  Cu0  1  0.37669765  0.37668464  0.20152235  1
  Cu  Cu1  1  0.62332283  0.62330925  0.79847116  1
  Cu  Cu2  1  0.62332283  0.62330925  0.20152884  1
  Cu  Cu3  1  0.87669765  0.12331536  0.70152235  1
  Cu  Cu4  1  0.87669765  0.12331536  0.29847765  1
  Cu  Cu5  1  0.37669765  0.37668464  0.79847765  1
  Cu  Cu6  1  0.12332283  0.87669075  0.29847116  1
  Cu  Cu7  1  0.12332283  0.87669075  0.70152884  1
loop_
_geom_bond_atom_site_label_1
_geom_bond_atom_site_label_2
_geom_bond_distance
_geom_bond_site_symmetry_2
Hf0 In0 3.202190 1_555
Hf0 In1 3.202190 1_554
Hf0 In2 3.202358 1_555
Hf0 In3 3.202358 1_554
Hf1 In3 3.201536 1_654
Hf1 In2 3.201536 1_655
Hf1 In1 3.201698 1_564
Hf1 In0 3.201698 1_565
Hf2 In2 3.202190 1_655
Hf2 In3 3.202190 1_655
Hf2 In0 3.202358 1_555
Hf2 In1 3.202358 1_555
Hf3 In0 3.201536 1_565
Hf3 In1 3.201536 1_565
Hf3 In2 3.201698 1_555
Hf3 In3 3.201698 1_555
Hf4 In2 3.092597 1_655
Hf4 In3 3.092597 1_654
Hf4 In0 3.092659 1_555
Hf4 In1 3.092659 1_554
Hf5 In1 3.092069 1_564
Hf5 In0 3.092069 1_565
Hf5 In3 3.092125 1_554
Hf5 In2 3.092125 1_555
Hf6 In2 3.092069 1_655
Hf6 In3 3.092069 1_655
Hf6 In1 3.092125 1_565
Hf6 In0 3.092125 1_565
Hf7 In0 3.092597 1_555
Hf7 In1 3.092597 1_555
Hf7 In2 3.092659 1_555
Hf7 In3 3.092659 1_555
In0 In1 3.358009 1_554
In0 In1 3.358020 1_555
In2 In3 3.358009 1_555
In2 In3 3.358020 1_554
Cu0 Cu2 2.497455 1_555
Cu0 Hf0 2.664463 1_555
Cu0 Hf5 2.684348 1_555
Cu0 Hf4 2.684512 1_555
Cu0 Cu5 2.706860 1_554
Cu0 Hf7 2.735336 1_555
Cu0 Hf2 2.808189 1_555
Cu0 Hf3 2.808414 1_555
Cu0 In2 2.857035 1_555
Cu0 In0 2.857188 1_555
Cu1 Cu5 2.497455 1_555
Cu1 Hf1 2.664177 1_556
Cu1 Hf5 2.684489 1_556
Cu1 Hf4 2.684639 1_556
Cu1 Cu2 2.706947 1_556
Cu1 Hf6 2.735493 1_555
Cu1 Hf2 2.808259 1_555
Cu1 Hf3 2.808488 1_555
Cu1 In1 2.856306 1_565
Cu1 In3 2.856457 1_655
Cu2 Hf1 2.664177 1_555
Cu2 Hf5 2.684489 1_555
Cu2 Hf4 2.684639 1_555
Cu2 Hf6 2.735493 1_555
Cu2 Hf2 2.808259 1_555
Cu2 Hf3 2.808488 1_555
Cu2 In0 2.856306 1_565
Cu2 In2 2.856457 1_655
Cu3 Cu7 2.497455 1_645
Cu3 Hf2 2.664463 1_555
Cu3 Hf6 2.684348 1_545
Cu3 Hf7 2.684512 1_655
Cu3 Cu4 2.706860 1_555
Cu3 Hf4 2.735336 1_556
Cu3 Hf0 2.808189 1_656
Cu3 Hf1 2.808414 1_546
Cu3 In1 2.857035 1_555
Cu3 In3 2.857188 1_655
Cu4 Cu6 2.497455 1_645
Cu4 Hf2 2.664463 1_555
Cu4 Hf6 2.684348 1_545
Cu4 Hf7 2.684512 1_655
Cu4 Hf4 2.735336 1_555
Cu4 Hf0 2.808189 1_655
Cu4 Hf1 2.808414 1_545
Cu4 In0 2.857035 1_555
Cu4 In2 2.857188 1_655
Cu5 Hf0 2.664463 1_556
Cu5 Hf5 2.684348 1_556
Cu5 Hf4 2.684512 1_556
Cu5 Hf7 2.735336 1_555
Cu5 Hf2 2.808189 1_555
Cu5 Hf3 2.808414 1_555
Cu5 In3 2.857035 1_555
Cu5 In1 2.857188 1_555
Cu6 Hf3 2.664177 1_555
Cu6 Hf6 2.684489 1_455
Cu6 Hf7 2.684639 1_565
Cu6 Cu7 2.706947 1_555
Cu6 Hf5 2.735493 1_555
Cu6 Hf0 2.808259 1_565
Cu6 Hf1 2.808488 1_455
Cu6 In2 2.856306 1_555
Cu6 In0 2.856457 1_565
Cu7 Hf3 2.664177 1_555
Cu7 Hf6 2.684489 1_455
Cu7 Hf7 2.684639 1_565
Cu7 Hf5 2.735493 1_556
Cu7 Hf0 2.808259 1_566
Cu7 Hf1 2.808488 1_456
Cu7 In3 2.856306 1_555
Cu7 In1 2.856457 1_565
