# generated using pymatgen
data_Ba10PrY4(CuO2)20
_symmetry_space_group_name_H-M   'P 1'
_cell_length_a   16.86542100
_cell_length_b   16.86542100
_cell_length_c   3.90584400
_cell_angle_alpha   90.00000000
_cell_angle_beta   90.00000000
_cell_angle_gamma   109.48493683
_symmetry_Int_Tables_number   1
_chemical_formula_structural   Ba10PrY4(CuO2)20
_chemical_formula_sum   'Ba10 Pr1 Y4 Cu20 O40'
_cell_volume   1047.36060347
_cell_formula_units_Z   1
loop_
 _symmetry_equiv_pos_site_id
 _symmetry_equiv_pos_as_xyz
  1  'x, y, z'
loop_
 _atom_site_type_symbol
 _atom_site_label
 _atom_site_symmetry_multiplicity
 _atom_site_fract_x
 _atom_site_fract_y
 _atom_site_fract_z
 _atom_site_occupancy
  Ba  Ba0  1  0.56425000  0.83649000  0.50000000  1
  Ba  Ba1  1  0.76421700  0.03595700  0.50000000  1
  Ba  Ba2  1  0.36305300  0.63694700  0.50000000  1
  Ba  Ba3  1  0.16351000  0.43575000  0.50000000  1
  Ba  Ba4  1  0.96404300  0.23578300  0.50000000  1
  Ba  Ba5  1  0.43575000  0.16351000  0.50000000  1
  Ba  Ba6  1  0.63694700  0.36305300  0.50000000  1
  Ba  Ba7  1  0.23578300  0.96404300  0.50000000  1
  Ba  Ba8  1  0.03595700  0.76421700  0.50000000  1
  Ba  Ba9  1  0.83649000  0.56425000  0.50000000  1
  Pr  Pr0  1  0.50000000  0.50000000  0.50000000  1
  Y  Y0  1  0.09978400  0.09978400  0.50000000  1
  Y  Y1  1  0.70099600  0.70099600  0.50000000  1
  Y  Y2  1  0.29900400  0.29900400  0.50000000  1
  Y  Y3  1  0.90021600  0.90021600  0.50000000  1
  Cu  Cu0  1  0.73880000  0.86217700  0.00000000  1
  Cu  Cu1  1  0.93838100  0.06161900  0.00000000  1
  Cu  Cu2  1  0.53824000  0.66422200  0.00000000  1
  Cu  Cu3  1  0.33577800  0.46176000  0.00000000  1
  Cu  Cu4  1  0.13782300  0.26120000  0.00000000  1
  Cu  Cu5  1  0.26120000  0.13782300  0.00000000  1
  Cu  Cu6  1  0.46176000  0.33577800  0.00000000  1
  Cu  Cu7  1  0.06161900  0.93838100  0.00000000  1
  Cu  Cu8  1  0.86217700  0.73880000  0.00000000  1
  Cu  Cu9  1  0.66422200  0.53824000  0.00000000  1
  Cu  Cu10  1  0.58746800  0.01272400  0.00000000  1
  Cu  Cu11  1  0.78743900  0.21256100  0.00000000  1
  Cu  Cu12  1  0.38717800  0.81308900  0.00000000  1
  Cu  Cu13  1  0.18691100  0.61282200  0.00000000  1
  Cu  Cu14  1  0.98727600  0.41253200  0.00000000  1
  Cu  Cu15  1  0.41253200  0.98727600  0.00000000  1
  Cu  Cu16  1  0.61282200  0.18691100  0.00000000  1
  Cu  Cu17  1  0.21256100  0.78743900  0.00000000  1
  Cu  Cu18  1  0.01272400  0.58746800  0.00000000  1
  Cu  Cu19  1  0.81308900  0.38717800  0.00000000  1
  O  O0  1  0.64929100  0.75296200  0.00000000  1
  O  O1  1  0.84827900  0.95227600  0.00000000  1
  O  O2  1  0.44390200  0.55609800  0.00000000  1
  O  O3  1  0.24703800  0.35070900  0.00000000  1
  O  O4  1  0.04772400  0.15172100  0.00000000  1
  O  O5  1  0.35070900  0.24703800  0.00000000  1
  O  O6  1  0.55609800  0.44390200  0.00000000  1
  O  O7  1  0.15172100  0.04772400  0.00000000  1
  O  O8  1  0.95227600  0.84827900  0.00000000  1
  O  O9  1  0.75296200  0.64929100  0.00000000  1
  O  O10  1  0.65481300  0.94549800  0.00000000  1
  O  O11  1  0.85483000  0.14517000  0.00000000  1
  O  O12  1  0.45480700  0.74604700  0.00000000  1
  O  O13  1  0.25395300  0.54519300  0.00000000  1
  O  O14  1  0.05450200  0.34518700  0.00000000  1
  O  O15  1  0.34518700  0.05450200  0.00000000  1
  O  O16  1  0.54519300  0.25395300  0.00000000  1
  O  O17  1  0.14517000  0.85483000  0.00000000  1
  O  O18  1  0.94549800  0.65481300  0.00000000  1
  O  O19  1  0.74604700  0.45480700  0.00000000  1
  O  O20  1  0.74821300  0.85313900  0.50000000  1
  O  O21  1  0.94754700  0.05245300  0.50000000  1
  O  O22  1  0.54982800  0.65804700  0.50000000  1
  O  O23  1  0.34195300  0.45017200  0.50000000  1
  O  O24  1  0.14686100  0.25178700  0.50000000  1
  O  O25  1  0.25178700  0.14686100  0.50000000  1
  O  O26  1  0.45017200  0.34195300  0.50000000  1
  O  O27  1  0.05245300  0.94754700  0.50000000  1
  O  O28  1  0.85313900  0.74821300  0.50000000  1
  O  O29  1  0.65804700  0.54982800  0.50000000  1
  O  O30  1  0.48134400  0.91878800  0.00000000  1
  O  O31  1  0.68142100  0.11823300  0.00000000  1
  O  O32  1  0.28144800  0.71855200  0.00000000  1
  O  O33  1  0.08121200  0.51865600  0.00000000  1
  O  O34  1  0.88176700  0.31857900  0.00000000  1
  O  O35  1  0.51865600  0.08121200  0.00000000  1
  O  O36  1  0.71855200  0.28144800  0.00000000  1
  O  O37  1  0.31857900  0.88176700  0.00000000  1
  O  O38  1  0.11823300  0.68142100  0.00000000  1
  O  O39  1  0.91878800  0.48134400  0.00000000  1
loop_
_geom_bond_atom_site_label_1
_geom_bond_atom_site_label_2
_geom_bond_distance
_geom_bond_site_symmetry_2
Ba0 O10 2.766490 1_555
Ba0 O10 2.766490 1_556
Ba0 O12 2.769356 1_556
Ba0 O12 2.769356 1_555
Ba0 O22 2.937348 1_555
Ba0 O30 2.998369 1_556
Ba0 O30 2.998369 1_555
Ba0 O20 3.020574 1_555
Ba0 O0 3.033713 1_556
Ba0 O0 3.033713 1_555
Ba1 O11 2.768430 1_556
Ba1 O11 2.768430 1_555
Ba1 O10 2.769127 1_545
Ba1 O10 2.769127 1_546
Ba1 O31 2.996989 1_555
Ba1 O31 2.996989 1_556
Ba1 O20 3.004066 1_545
Ba1 O21 3.010584 1_555
Ba1 O1 3.024984 1_545
Ba1 O1 3.024984 1_546
Ba2 O13 2.773932 1_556
Ba2 O13 2.773932 1_555
Ba2 O12 2.773932 1_556
Ba2 O12 2.773932 1_555
Ba2 O2 2.961893 1_555
Ba2 O2 2.961893 1_556
Ba2 O32 2.977580 1_555
Ba2 O32 2.977580 1_556
Ba2 O23 3.049846 1_555
Ba2 O22 3.049846 1_555
Ba3 O14 2.766490 1_555
Ba3 O14 2.766490 1_556
Ba3 O13 2.769356 1_556
Ba3 O13 2.769356 1_555
Ba3 O23 2.937348 1_555
Ba3 O33 2.998369 1_556
Ba3 O33 2.998369 1_555
Ba3 O24 3.020574 1_555
Ba3 O3 3.033713 1_555
Ba3 O3 3.033713 1_556
Ba4 O11 2.768430 1_555
Ba4 O11 2.768430 1_556
Ba4 O14 2.769127 1_656
Ba4 O14 2.769127 1_655
Ba4 O34 2.996989 1_555
Ba4 O34 2.996989 1_556
Ba4 O24 3.004066 1_655
Ba4 O21 3.010584 1_555
Ba4 O4 3.024984 1_655
Ba4 O4 3.024984 1_656
Ba5 O15 2.766490 1_556
Ba5 O15 2.766490 1_555
Ba5 O16 2.769356 1_555
Ba5 O16 2.769356 1_556
Ba5 O26 2.937348 1_555
Ba5 O35 2.998369 1_556
Ba5 O35 2.998369 1_555
Ba5 O25 3.020574 1_555
Ba5 O5 3.033713 1_556
Ba5 O5 3.033713 1_555
Ba6 O16 2.773932 1_556
Ba6 O16 2.773932 1_555
Ba6 O19 2.773932 1_556
Ba6 O19 2.773932 1_555
Ba6 O6 2.961893 1_555
Ba6 O6 2.961893 1_556
Ba6 O36 2.977580 1_556
Ba6 O36 2.977580 1_555
Ba6 O26 3.049846 1_555
Ba6 O29 3.049846 1_555
Ba7 O17 2.768430 1_555
Ba7 O17 2.768430 1_556
Ba7 O15 2.769127 1_565
Ba7 O15 2.769127 1_566
Ba7 O37 2.996989 1_555
Ba7 O37 2.996989 1_556
Ba7 O25 3.004066 1_565
Ba7 O27 3.010584 1_555
Ba7 O7 3.024984 1_566
Ba7 O7 3.024984 1_565
Ba8 O17 2.768430 1_556
Ba8 O17 2.768430 1_555
Ba8 O18 2.769127 1_455
Ba8 O18 2.769127 1_456
Ba8 O38 2.996989 1_556
Ba8 O38 2.996989 1_555
Ba8 O28 3.004066 1_455
Ba8 O27 3.010584 1_555
Ba8 O8 3.024984 1_455
Ba8 O8 3.024984 1_456
Ba9 O18 2.766490 1_555
Ba9 O18 2.766490 1_556
Ba9 O19 2.769356 1_555
Ba9 O19 2.769356 1_556
Ba9 O29 2.937348 1_555
Ba9 O39 2.998369 1_555
Ba9 O39 2.998369 1_556
Ba9 O28 3.020574 1_555
Ba9 O9 3.033713 1_555
Ba9 O9 3.033713 1_556
Cu0 O0 1.953640 1_555
Cu0 O1 1.961258 1_555
Cu0 O20 1.969387 1_554
Cu0 O20 1.969387 1_555
Cu0 O10 2.304129 1_555
Cu1 O1 1.959715 1_545
Cu1 O4 1.959715 1_655
Cu1 O21 1.969173 1_554
Cu1 O21 1.969173 1_555
Cu1 O11 2.301283 1_555
Cu2 O22 1.968889 1_555
Cu2 O22 1.968889 1_554
Cu2 O0 1.969206 1_555
Cu2 O2 1.980213 1_555
Cu2 O12 2.275941 1_555
Cu3 O23 1.968889 1_554
Cu3 O23 1.968889 1_555
Cu3 O3 1.969206 1_555
Cu3 O2 1.980213 1_555
Cu3 O13 2.275941 1_555
Cu4 O3 1.953640 1_555
Cu4 O4 1.961258 1_555
Cu4 O24 1.969387 1_555
Cu4 O24 1.969387 1_554
Cu4 O14 2.304129 1_555
Cu5 O5 1.953640 1_555
Cu5 O7 1.961258 1_555
Cu5 O25 1.969387 1_554
Cu5 O25 1.969387 1_555
Cu5 O15 2.304129 1_555
Cu6 O26 1.968889 1_554
Cu6 O26 1.968889 1_555
Cu6 O5 1.969206 1_555
Cu6 O6 1.980213 1_555
Cu6 O16 2.275941 1_555
Cu7 O8 1.959715 1_455
Cu7 O7 1.959715 1_565
Cu7 O27 1.969173 1_555
Cu7 O27 1.969173 1_554
Cu7 O17 2.301283 1_555
Cu8 O9 1.953640 1_555
Cu8 O8 1.961258 1_555
Cu8 O28 1.969387 1_554
Cu8 O28 1.969387 1_555
Cu8 O18 2.304129 1_555
Cu9 O29 1.968889 1_555
Cu9 O29 1.968889 1_554
Cu9 O9 1.969206 1_555
Cu9 O6 1.980213 1_555
Cu9 O19 2.275941 1_555
Cu10 O10 1.853275 1_545
Cu10 O35 1.890860 1_555
Cu10 O31 1.948394 1_555
Cu10 O30 1.954925 1_545
Cu11 O11 1.856181 1_555
Cu11 O36 1.897386 1_555
Cu11 O34 1.957123 1_555
Cu11 O31 1.957123 1_555
Cu12 O12 1.854661 1_555
Cu12 O37 1.890541 1_555
Cu12 O30 1.952279 1_555
Cu12 O32 1.955805 1_555
Cu13 O13 1.854661 1_555
Cu13 O38 1.890541 1_555
Cu13 O33 1.952279 1_555
Cu13 O32 1.955805 1_555
Cu14 O14 1.853275 1_655
Cu14 O39 1.890860 1_555
Cu14 O34 1.948394 1_555
Cu14 O33 1.954925 1_655
Cu15 O15 1.853275 1_565
Cu15 O30 1.890860 1_555
Cu15 O37 1.948394 1_555
Cu15 O35 1.954925 1_565
Cu16 O16 1.854661 1_555
Cu16 O31 1.890541 1_555
Cu16 O35 1.952279 1_555
Cu16 O36 1.955805 1_555
Cu17 O17 1.856181 1_555
Cu17 O32 1.897386 1_555
Cu17 O37 1.957123 1_555
Cu17 O38 1.957123 1_555
Cu18 O18 1.853275 1_455
Cu18 O33 1.890860 1_555
Cu18 O38 1.948394 1_555
Cu18 O39 1.954925 1_455
Cu19 O19 1.854661 1_555
Cu19 O34 1.890541 1_555
Cu19 O39 1.952279 1_555
Cu19 O36 1.955805 1_555
O0 Y1 2.419157 1_554
O0 Y1 2.419157 1_555
O1 Y3 2.421808 1_554
O1 Y3 2.421808 1_555
O2 Pr0 2.490249 1_555
O2 Pr0 2.490249 1_554
O3 Y2 2.419157 1_554
O3 Y2 2.419157 1_555
O4 Y0 2.421808 1_554
O4 Y0 2.421808 1_555
O5 Y2 2.419157 1_554
O5 Y2 2.419157 1_555
O6 Pr0 2.490249 1_555
O6 Pr0 2.490249 1_554
O7 Y0 2.421808 1_554
O7 Y0 2.421808 1_555
O8 Y3 2.421808 1_554
O8 Y3 2.421808 1_555
O9 Y1 2.419157 1_554
O9 Y1 2.419157 1_555
O20 Y3 2.417549 1_555
O20 Y1 2.419735 1_555
O21 Y3 2.421195 1_545
O21 Y0 2.421195 1_655
O22 Y1 2.406803 1_555
O22 Pr0 2.513345 1_555
O23 Y2 2.406803 1_555
O23 Pr0 2.513345 1_555
O24 Y0 2.417549 1_555
O24 Y2 2.419735 1_555
O25 Y0 2.417549 1_555
O25 Y2 2.419735 1_555
O26 Y2 2.406803 1_555
O26 Pr0 2.513345 1_555
O27 Y3 2.421195 1_455
O27 Y0 2.421195 1_565
O28 Y3 2.417549 1_555
O28 Y1 2.419735 1_555
O29 Y1 2.406803 1_555
O29 Pr0 2.513345 1_555
