# generated using pymatgen
data_Mn3CrP4
_symmetry_space_group_name_H-M   'P 1'
_cell_length_a   3.17057631
_cell_length_b   5.23033070
_cell_length_c   5.88513912
_cell_angle_alpha   89.74671358
_cell_angle_beta   90.00000000
_cell_angle_gamma   90.00000000
_symmetry_Int_Tables_number   1
_chemical_formula_structural   Mn3CrP4
_chemical_formula_sum   'Mn3 Cr1 P4'
_cell_volume   97.59326538
_cell_formula_units_Z   1
loop_
 _symmetry_equiv_pos_site_id
 _symmetry_equiv_pos_as_xyz
  1  'x, y, z'
loop_
 _atom_site_type_symbol
 _atom_site_label
 _atom_site_symmetry_multiplicity
 _atom_site_fract_x
 _atom_site_fract_y
 _atom_site_fract_z
 _atom_site_occupancy
  Mn  Mn0  1  0.50000000  0.00380268  0.19510975  1
  Mn  Mn1  1  -0.00000000  0.49772979  0.69765018  1
  Mn  Mn2  1  -0.00000000  0.99688282  0.80315122  1
  Cr  Cr0  1  0.50000000  0.50371114  0.30404921  1
  P  P0  1  0.50000000  0.68862090  0.92984284  1
  P  P1  1  0.50000000  0.18889971  0.57167203  1
  P  P2  1  -0.00000000  0.30976510  0.06976180  1
  P  P3  1  -0.00000000  0.81058887  0.42876399  1
loop_
_geom_bond_atom_site_label_1
_geom_bond_atom_site_label_2
_geom_bond_distance
_geom_bond_site_symmetry_2
Mn0 P0 2.275403 1_544
Mn0 P3 2.326580 1_645
Mn0 P3 2.326580 1_545
Mn0 P2 2.368079 1_555
Mn0 P2 2.368079 1_655
Mn0 P1 2.422275 1_555
Mn1 P3 2.271313 1_555
Mn1 P0 2.321494 1_455
Mn1 P0 2.321494 1_555
Mn1 P1 2.383808 1_555
Mn1 P1 2.383808 1_455
Mn1 P2 2.396513 1_556
Mn2 P2 2.272146 1_566
Mn2 P1 2.316357 1_565
Mn2 P1 2.316357 1_465
Mn2 P0 2.378650 1_455
Mn2 P0 2.378650 1_555
Mn2 P3 2.413093 1_555
Cr0 P1 2.273516 1_555
Cr0 P2 2.335732 1_555
Cr0 P2 2.335732 1_655
Cr0 P3 2.374555 1_655
Cr0 P3 2.374555 1_555
Cr0 P0 2.401346 1_554
