# generated using pymatgen
data_NdEu2NbO6
_symmetry_space_group_name_H-M   'P 1'
_cell_length_a   8.49812323
_cell_length_b   8.49812323
_cell_length_c   8.49812323
_cell_angle_alpha   90.00000000
_cell_angle_beta   90.00000000
_cell_angle_gamma   90.00000000
_symmetry_Int_Tables_number   1
_chemical_formula_structural   NdEu2NbO6
_chemical_formula_sum   'Nd4 Eu8 Nb4 O24'
_cell_volume   613.71829991
_cell_formula_units_Z   4
loop_
 _symmetry_equiv_pos_site_id
 _symmetry_equiv_pos_as_xyz
  1  'x, y, z'
loop_
 _atom_site_type_symbol
 _atom_site_label
 _atom_site_symmetry_multiplicity
 _atom_site_fract_x
 _atom_site_fract_y
 _atom_site_fract_z
 _atom_site_occupancy
  Nd  Nd0  1  0.25000000  0.25000000  0.25000000  1
  Nd  Nd1  1  0.25000000  0.75000000  0.75000000  1
  Nd  Nd2  1  0.75000000  0.25000000  0.75000000  1
  Nd  Nd3  1  0.75000000  0.75000000  0.25000000  1
  Eu  Eu0  1  0.50000000  0.50000000  0.50000000  1
  Eu  Eu1  1  0.00000000  0.00000000  0.00000000  1
  Eu  Eu2  1  0.00000000  -0.00000000  0.50000000  1
  Eu  Eu3  1  0.00000000  0.50000000  0.00000000  1
  Eu  Eu4  1  0.50000000  0.00000000  0.00000000  1
  Eu  Eu5  1  0.50000000  0.50000000  0.00000000  1
  Eu  Eu6  1  0.50000000  -0.00000000  0.50000000  1
  Eu  Eu7  1  0.00000000  0.50000000  0.50000000  1
  Nb  Nb0  1  0.75000000  0.75000000  0.75000000  1
  Nb  Nb1  1  0.75000000  0.25000000  0.25000000  1
  Nb  Nb2  1  0.25000000  0.75000000  0.25000000  1
  Nb  Nb3  1  0.25000000  0.25000000  0.75000000  1
  O  O0  1  0.20995666  0.29877466  0.51809848  1
  O  O1  1  0.20995666  0.70122534  0.48190152  1
  O  O2  1  0.79004334  0.29877466  0.48190152  1
  O  O3  1  0.79004334  0.70122534  0.51809848  1
  O  O4  1  0.29877466  0.51809848  0.20995666  1
  O  O5  1  0.70122534  0.48190152  0.20995666  1
  O  O6  1  0.29877466  0.48190152  0.79004334  1
  O  O7  1  0.70122534  0.51809848  0.79004334  1
  O  O8  1  0.51809848  0.20995666  0.29877466  1
  O  O9  1  0.48190152  0.20995666  0.70122534  1
  O  O10  1  0.48190152  0.79004334  0.29877466  1
  O  O11  1  0.51809848  0.79004334  0.70122534  1
  O  O12  1  0.29004334  0.20122534  0.98190152  1
  O  O13  1  0.29004334  0.79877466  0.01809848  1
  O  O14  1  0.70995666  0.20122534  0.01809848  1
  O  O15  1  0.70995666  0.79877466  0.98190152  1
  O  O16  1  0.20122534  0.98190152  0.29004334  1
  O  O17  1  0.79877466  0.01809848  0.29004334  1
  O  O18  1  0.20122534  0.01809848  0.70995666  1
  O  O19  1  0.79877466  0.98190152  0.70995666  1
  O  O20  1  0.98190152  0.29004334  0.20122534  1
  O  O21  1  0.01809848  0.29004334  0.79877466  1
  O  O22  1  0.01809848  0.70995666  0.20122534  1
  O  O23  1  0.98190152  0.70995666  0.79877466  1
loop_
_geom_bond_atom_site_label_1
_geom_bond_atom_site_label_2
_geom_bond_distance
_geom_bond_site_symmetry_2
Nd0 O8 2.340600 1_555
Nd0 O12 2.340600 1_554
Nd0 O16 2.340600 1_545
Nd0 O0 2.340600 1_555
Nd0 O20 2.340600 1_455
Nd0 O4 2.340600 1_555
Nd1 O13 2.340600 1_556
Nd1 O18 2.340600 1_565
Nd1 O1 2.340600 1_555
Nd1 O6 2.340600 1_555
Nd1 O23 2.340600 1_455
Nd1 O11 2.340600 1_555
Nd2 O14 2.340600 1_556
Nd2 O21 2.340600 1_655
Nd2 O9 2.340600 1_555
Nd2 O2 2.340600 1_555
Nd2 O7 2.340600 1_555
Nd2 O19 2.340600 1_545
Nd3 O17 2.340600 1_565
Nd3 O22 2.340600 1_655
Nd3 O10 2.340600 1_555
Nd3 O5 2.340600 1_555
Nd3 O15 2.340600 1_554
Nd3 O3 2.340600 1_555
Eu0 O8 3.003871 1_555
Eu0 O6 3.003871 1_555
Eu0 O10 3.003871 1_555
Eu0 O3 3.003871 1_555
Eu0 O4 3.003871 1_555
Eu0 O1 3.003871 1_555
Eu0 O11 3.003871 1_555
Eu0 O5 3.003871 1_555
Eu0 O7 3.003871 1_555
Eu0 O2 3.003871 1_555
Eu0 O9 3.003871 1_555
Eu0 O0 3.003871 1_555
Eu1 O14 3.003871 1_455
Eu1 O16 3.003871 1_545
Eu1 O22 3.003871 1_545
Eu1 O21 3.003871 1_554
Eu1 O23 3.003871 1_444
Eu1 O18 3.003871 1_554
Eu1 O12 3.003871 1_554
Eu1 O13 3.003871 1_545
Eu1 O15 3.003871 1_444
Eu1 O19 3.003871 1_444
Eu1 O20 3.003871 1_455
Eu1 O17 3.003871 1_455
Eu2 O16 2.476164 1_545
Eu2 O17 2.476164 1_455
Eu2 O18 2.476164 1_555
Eu2 O19 2.476164 1_445
Eu3 O22 2.476164 1_555
Eu3 O21 2.476164 1_554
Eu3 O23 2.476164 1_454
Eu3 O20 2.476164 1_455
Eu4 O12 2.476164 1_554
Eu4 O14 2.476164 1_555
Eu4 O13 2.476164 1_545
Eu4 O15 2.476164 1_544
Eu5 O5 2.476164 1_555
Eu5 O4 2.476164 1_555
Eu5 O6 2.476164 1_554
Eu5 O7 2.476164 1_554
Eu6 O9 2.476164 1_555
Eu6 O8 2.476164 1_555
Eu6 O11 2.476164 1_545
Eu6 O10 2.476164 1_545
Eu7 O0 2.476164 1_555
Eu7 O1 2.476164 1_555
Eu7 O3 2.476164 1_455
Eu7 O2 2.476164 1_455
Nb0 O23 2.042394 1_555
Nb0 O11 2.042394 1_555
Nb0 O15 2.042394 1_555
Nb0 O7 2.042394 1_555
Nb0 O19 2.042394 1_555
Nb0 O3 2.042394 1_555
Nb1 O20 2.042394 1_555
Nb1 O17 2.042394 1_555
Nb1 O8 2.042394 1_555
Nb1 O14 2.042394 1_555
Nb1 O5 2.042394 1_555
Nb1 O2 2.042394 1_555
Nb2 O4 2.042394 1_555
Nb2 O22 2.042394 1_555
Nb2 O16 2.042394 1_555
Nb2 O13 2.042394 1_555
Nb2 O10 2.042394 1_555
Nb2 O1 2.042394 1_555
Nb3 O12 2.042394 1_555
Nb3 O21 2.042394 1_555
Nb3 O18 2.042394 1_555
Nb3 O0 2.042394 1_555
Nb3 O6 2.042394 1_555
Nb3 O9 2.042394 1_555
