# generated using pymatgen
data_KMg6B
_symmetry_space_group_name_H-M   'P 1'
_cell_length_a   4.52689400
_cell_length_b   6.17944300
_cell_length_c   14.38933500
_cell_angle_alpha   90.00000000
_cell_angle_beta   90.00000000
_cell_angle_gamma   90.00000000
_symmetry_Int_Tables_number   1
_chemical_formula_structural   KMg6B
_chemical_formula_sum   'K2 Mg12 B2'
_cell_volume   402.52270220
_cell_formula_units_Z   2
loop_
 _symmetry_equiv_pos_site_id
 _symmetry_equiv_pos_as_xyz
  1  'x, y, z'
loop_
 _atom_site_type_symbol
 _atom_site_label
 _atom_site_symmetry_multiplicity
 _atom_site_fract_x
 _atom_site_fract_y
 _atom_site_fract_z
 _atom_site_occupancy
  K  K0  1  0.50000000  0.00000000  0.20391700  1
  K  K1  1  0.50000000  0.50000000  0.70391700  1
  Mg  Mg0  1  0.50000000  0.26648800  0.44208500  1
  Mg  Mg1  1  0.50000000  0.73351200  0.44208500  1
  Mg  Mg2  1  0.00000000  0.72595200  0.07975200  1
  Mg  Mg3  1  0.00000000  0.27404800  0.07975200  1
  Mg  Mg4  1  0.00000000  0.00000000  0.37400400  1
  Mg  Mg5  1  0.00000000  0.50000000  0.31749000  1
  Mg  Mg6  1  0.50000000  0.76648800  0.94208500  1
  Mg  Mg7  1  0.50000000  0.23351200  0.94208500  1
  Mg  Mg8  1  0.00000000  0.22595200  0.57975200  1
  Mg  Mg9  1  0.00000000  0.77404800  0.57975200  1
  Mg  Mg10  1  0.00000000  0.50000000  0.87400400  1
  Mg  Mg11  1  0.00000000  0.00000000  0.81749000  1
  B  B0  1  0.50000000  0.50000000  0.06091200  1
  B  B1  1  0.50000000  0.00000000  0.56091200  1
loop_
_geom_bond_atom_site_label_1
_geom_bond_atom_site_label_2
_geom_bond_distance
_geom_bond_site_symmetry_2
K0 Mg4 3.333639 1_555
K0 Mg4 3.333639 1_655
K0 Mg3 3.344120 1_655
K0 Mg3 3.344120 1_555
K0 Mg2 3.344120 1_545
K0 Mg2 3.344120 1_645
K1 Mg10 3.333639 1_655
K1 Mg10 3.333639 1_555
K1 Mg9 3.344120 1_555
K1 Mg9 3.344120 1_655
K1 Mg8 3.344120 1_555
K1 Mg8 3.344120 1_655
Mg0 Mg4 2.965580 1_555
Mg0 Mg4 2.965580 1_655
Mg0 Mg5 3.227947 1_555
Mg0 Mg5 3.227947 1_655
Mg1 Mg4 2.965580 1_565
Mg1 Mg4 2.965580 1_665
Mg1 Mg5 3.227947 1_655
Mg1 Mg5 3.227947 1_555
Mg4 Mg5 3.194945 1_555
Mg4 Mg5 3.194945 1_545
Mg4 Mg9 3.273309 1_545
Mg4 Mg8 3.273309 1_555
Mg10 Mg6 2.965580 1_455
Mg10 Mg6 2.965580 1_555
Mg10 Mg7 2.965580 1_555
Mg10 Mg7 2.965580 1_455
Mg10 Mg11 3.194945 1_565
Mg10 Mg11 3.194945 1_555
Mg10 Mg2 3.273309 1_556
Mg10 Mg3 3.273309 1_556
Mg11 Mg7 3.227947 1_555
Mg11 Mg7 3.227947 1_455
Mg11 Mg6 3.227947 1_545
Mg11 Mg6 3.227947 1_445
B0 Mg6 2.373886 1_554
B0 Mg7 2.373886 1_554
B0 Mg2 2.673241 1_555
B0 Mg2 2.673241 1_655
B0 Mg3 2.673241 1_655
B0 Mg3 2.673241 1_555
B1 Mg0 2.373886 1_555
B1 Mg1 2.373886 1_545
B1 Mg9 2.673241 1_545
B1 Mg8 2.673241 1_555
B1 Mg8 2.673241 1_655
B1 Mg9 2.673241 1_645
