# generated using pymatgen
data_HoCu(WO4)2
_symmetry_space_group_name_H-M   'P 1'
_cell_length_a   5.99657700
_cell_length_b   5.08136900
_cell_length_c   10.99776050
_cell_angle_alpha   65.61083791
_cell_angle_beta   90.00000000
_cell_angle_gamma   90.00000000
_symmetry_Int_Tables_number   1
_chemical_formula_structural   HoCu(WO4)2
_chemical_formula_sum   'Ho2 Cu2 W4 O16'
_cell_volume   305.20609795
_cell_formula_units_Z   2
loop_
 _symmetry_equiv_pos_site_id
 _symmetry_equiv_pos_as_xyz
  1  'x, y, z'
loop_
 _atom_site_type_symbol
 _atom_site_label
 _atom_site_symmetry_multiplicity
 _atom_site_fract_x
 _atom_site_fract_y
 _atom_site_fract_z
 _atom_site_occupancy
  Ho  Ho0  1  0.33082100  0.00000000  0.25000000  1
  Ho  Ho1  1  0.66917900  0.00000000  0.75000000  1
  Cu  Cu0  1  0.72082100  0.50000000  0.25000000  1
  Cu  Cu1  1  0.27917900  0.50000000  0.75000000  1
  W  W0  1  0.16933100  0.76278900  0.98766100  1
  W  W1  1  0.83066900  0.23721100  0.01233900  1
  W  W2  1  0.16933100  0.23721100  0.51233900  1
  W  W3  1  0.83066900  0.76278900  0.48766100  1
  O  O0  1  0.36078500  0.73050500  0.86262100  1
  O  O1  1  0.36078500  0.26949500  0.63737900  1
  O  O2  1  0.63921500  0.26949500  0.13737900  1
  O  O3  1  0.63921500  0.73050500  0.36262100  1
  O  O4  1  0.91255500  0.15981800  0.38871600  1
  O  O5  1  0.91255500  0.84018200  0.11128400  1
  O  O6  1  0.08744500  0.84018200  0.61128400  1
  O  O7  1  0.08744500  0.15981800  0.88871600  1
  O  O8  1  0.63430400  0.21487700  0.88951700  1
  O  O9  1  0.63430400  0.78512300  0.61048300  1
  O  O10  1  0.36569600  0.78512300  0.11048300  1
  O  O11  1  0.36569600  0.21487700  0.38951700  1
  O  O12  1  0.11441300  0.65843000  0.40362800  1
  O  O13  1  0.11441300  0.34157000  0.09637200  1
  O  O14  1  0.88558700  0.34157000  0.59637200  1
  O  O15  1  0.88558700  0.65843000  0.90362800  1
loop_
_geom_bond_atom_site_label_1
_geom_bond_atom_site_label_2
_geom_bond_distance
_geom_bond_site_symmetry_2
Ho0 O11 2.230206 1_555
Ho0 O10 2.230206 1_545
Ho0 O13 2.264795 1_555
Ho0 O12 2.264795 1_545
Ho0 O3 2.329919 1_545
Ho0 O2 2.329919 1_555
Ho1 O8 2.230206 1_555
Ho1 O9 2.230206 1_545
Ho1 O15 2.264795 1_545
Ho1 O14 2.264795 1_555
Ho1 O0 2.329919 1_545
Ho1 O1 2.329919 1_555
Cu0 O3 2.084118 1_555
Cu0 O2 2.084118 1_555
Cu0 O5 2.111735 1_555
Cu0 O4 2.111735 1_555
Cu1 O0 2.084118 1_555
Cu1 O1 2.084118 1_555
Cu1 O7 2.111735 1_555
Cu1 O6 2.111735 1_555
O0 W0 1.849958 1_555
O1 W2 1.849958 1_555
O2 W1 1.849958 1_555
O3 W3 1.849958 1_555
O4 W3 1.918931 1_545
O4 W2 2.194443 1_655
O5 W1 1.918931 1_565
O5 W0 2.194443 1_654
O6 W2 1.918931 1_565
O6 W3 2.194443 1_455
O7 W0 1.918931 1_545
O7 W1 2.194443 1_456
O8 W1 1.830464 1_556
O9 W3 1.830464 1_555
O10 W0 1.830464 1_554
O11 W2 1.830464 1_555
O12 W2 2.001417 1_555
O12 W3 2.105972 1_455
O13 W0 2.001417 1_554
O13 W1 2.105972 1_455
O14 W3 2.001417 1_555
O14 W2 2.105972 1_655
O15 W1 2.001417 1_556
O15 W0 2.105972 1_655
