# generated using pymatgen
data_ZnFeAs2O7
_symmetry_space_group_name_H-M   'P 1'
_cell_length_a   8.57151274
_cell_length_b   7.26418963
_cell_length_c   9.59053405
_cell_angle_alpha   65.23905847
_cell_angle_beta   90.00000000
_cell_angle_gamma   90.00000000
_symmetry_Int_Tables_number   1
_chemical_formula_structural   ZnFeAs2O7
_chemical_formula_sum   'Zn4 Fe4 As8 O28'
_cell_volume   542.25494238
_cell_formula_units_Z   4
loop_
 _symmetry_equiv_pos_site_id
 _symmetry_equiv_pos_as_xyz
  1  'x, y, z'
loop_
 _atom_site_type_symbol
 _atom_site_label
 _atom_site_symmetry_multiplicity
 _atom_site_fract_x
 _atom_site_fract_y
 _atom_site_fract_z
 _atom_site_occupancy
  Zn  Zn0  1  0.06505906  0.73185375  0.88578266  1
  Zn  Zn1  1  0.56505906  0.26814625  0.61421734  1
  Zn  Zn2  1  0.93494094  0.26814625  0.11421734  1
  Zn  Zn3  1  0.43494094  0.73185375  0.38578266  1
  Fe  Fe0  1  0.93870812  0.19876472  0.67056480  1
  Fe  Fe1  1  0.43870812  0.80123528  0.82943520  1
  Fe  Fe2  1  0.06129188  0.80123528  0.32943520  1
  Fe  Fe3  1  0.56129188  0.19876472  0.17056480  1
  As  As0  1  0.76107418  0.54968288  0.76796249  1
  As  As1  1  0.26107418  0.45031712  0.73203751  1
  As  As2  1  0.23892582  0.45031712  0.23203751  1
  As  As3  1  0.73892582  0.54968288  0.26796249  1
  As  As4  1  0.72890678  0.98040455  0.96273387  1
  As  As5  1  0.22890678  0.01959545  0.53726613  1
  As  As6  1  0.27109322  0.01959545  0.03726613  1
  As  As7  1  0.77109322  0.98040455  0.46273387  1
  O  O0  1  0.73916350  0.14029640  0.05052060  1
  O  O1  1  0.23916350  0.85970360  0.44947940  1
  O  O2  1  0.26083650  0.85970360  0.94947940  1
  O  O3  1  0.76083650  0.14029640  0.55052060  1
  O  O4  1  0.59051243  0.60659724  0.82308845  1
  O  O5  1  0.09051243  0.39340276  0.67691155  1
  O  O6  1  0.40948757  0.39340276  0.17691155  1
  O  O7  1  0.90948757  0.60659724  0.32308845  1
  O  O8  1  0.90644546  0.51865538  0.89463374  1
  O  O9  1  0.40644546  0.48134462  0.60536626  1
  O  O10  1  0.09355454  0.48134462  0.10536626  1
  O  O11  1  0.59355454  0.51865538  0.39463374  1
  O  O12  1  0.83137009  0.74571438  0.60040931  1
  O  O13  1  0.33137009  0.25428562  0.89959069  1
  O  O14  1  0.16862991  0.25428562  0.39959069  1
  O  O15  1  0.66862991  0.74571438  0.10040931  1
  O  O16  1  0.92100084  0.02272857  0.33897615  1
  O  O17  1  0.42100084  0.97727143  0.16102385  1
  O  O18  1  0.07899916  0.97727143  0.66102385  1
  O  O19  1  0.57899916  0.02272857  0.83897615  1
  O  O20  1  0.74980195  0.35666050  0.21503284  1
  O  O21  1  0.24980195  0.64333950  0.28496716  1
  O  O22  1  0.25019805  0.64333950  0.78496716  1
  O  O23  1  0.75019805  0.35666050  0.71503284  1
  O  O24  1  0.59850074  0.95443805  0.38713861  1
  O  O25  1  0.09850074  0.04556195  0.11286139  1
  O  O26  1  0.40149926  0.04556195  0.61286139  1
  O  O27  1  0.90149926  0.95443805  0.88713861  1
loop_
_geom_bond_atom_site_label_1
_geom_bond_atom_site_label_2
_geom_bond_distance
_geom_bond_site_symmetry_2
Fe0 O5 1.941128 1_655
Fe0 O18 2.041201 1_645
Fe0 O3 2.059114 1_555
Fe0 O27 2.116112 1_545
Fe0 O23 2.125574 1_555
Fe1 O4 1.941128 1_555
Fe1 O19 2.041201 1_565
Fe1 O2 2.059114 1_555
Fe1 O26 2.116112 1_565
Fe1 O22 2.125574 1_555
Fe2 O7 1.941128 1_455
Fe2 O16 2.041201 1_465
Fe2 O1 2.059114 1_555
Fe2 O25 2.116112 1_565
Fe2 O21 2.125574 1_555
Fe3 O6 1.941128 1_555
Fe3 O17 2.041201 1_545
Fe3 O0 2.059114 1_555
Fe3 O24 2.116112 1_545
Fe3 O20 2.125574 1_555
As0 O4 1.664602 1_555
As0 O23 1.681851 1_555
As0 O8 1.688173 1_555
As0 O12 1.748215 1_555
As1 O5 1.664602 1_555
As1 O22 1.681851 1_555
As1 O9 1.688173 1_555
As1 O13 1.748215 1_555
As2 O6 1.664602 1_555
As2 O21 1.681851 1_555
As2 O10 1.688173 1_555
As2 O14 1.748215 1_555
As3 O7 1.664602 1_555
As3 O20 1.681851 1_555
As3 O11 1.688173 1_555
As3 O15 1.748215 1_555
As4 O19 1.687793 1_565
As4 O27 1.692430 1_555
As4 O0 1.698454 1_566
As4 O15 1.741032 1_556
As5 O18 1.687793 1_545
As5 O26 1.692430 1_555
As5 O1 1.698454 1_545
As5 O14 1.741032 1_555
As6 O17 1.687793 1_545
As6 O25 1.692430 1_555
As6 O2 1.698454 1_544
As6 O13 1.741032 1_554
As7 O16 1.687793 1_565
As7 O24 1.692430 1_555
As7 O3 1.698454 1_565
As7 O12 1.741032 1_555
O0 Zn2 2.127677 1_555
O1 Zn3 2.127677 1_555
O2 Zn0 2.127677 1_555
O3 Zn1 2.127677 1_555
O8 Zn0 2.035680 1_655
O8 Zn2 2.143806 1_556
O9 Zn1 2.035680 1_555
O9 Zn3 2.143806 1_555
O10 Zn2 2.035680 1_455
O10 Zn0 2.143806 1_554
O11 Zn3 2.035680 1_555
O11 Zn1 2.143806 1_555
O16 Zn2 2.149400 1_555
O17 Zn3 2.149400 1_555
O18 Zn0 2.149400 1_555
O19 Zn1 2.149400 1_555
O20 Zn2 2.094602 1_555
O21 Zn3 2.094602 1_555
O22 Zn0 2.094602 1_555
O23 Zn1 2.094602 1_555
O24 Zn3 2.144203 1_555
O25 Zn2 2.144203 1_455
O26 Zn1 2.144203 1_555
O27 Zn0 2.144203 1_655
