# generated using pymatgen
data_KCd4Ga5S12
_symmetry_space_group_name_H-M   'P 1'
_cell_length_a   8.60008900
_cell_length_b   8.66146732
_cell_length_c   8.92792359
_cell_angle_alpha   108.62259873
_cell_angle_beta   106.24461857
_cell_angle_gamma   108.35357781
_symmetry_Int_Tables_number   1
_chemical_formula_structural   KCd4Ga5S12
_chemical_formula_sum   'K1 Cd4 Ga5 S12'
_cell_volume   542.06178556
_cell_formula_units_Z   1
loop_
 _symmetry_equiv_pos_site_id
 _symmetry_equiv_pos_as_xyz
  1  'x, y, z'
loop_
 _atom_site_type_symbol
 _atom_site_label
 _atom_site_symmetry_multiplicity
 _atom_site_fract_x
 _atom_site_fract_y
 _atom_site_fract_z
 _atom_site_occupancy
  K  K0  1  0.99792400  0.00178500  0.00451200  1
  Cd  Cd0  1  0.48835500  0.33824000  0.93678000  1
  Cd  Cd1  1  0.62723800  0.70869100  0.40257700  1
  Cd  Cd2  1  0.40716200  0.64151700  0.71684100  1
  Cd  Cd3  1  0.71467700  0.40162500  0.63604900  1
  Ga  Ga0  1  0.18758900  0.55551500  0.02707800  1
  Ga  Ga1  1  0.02195500  0.18424700  0.55342200  1
  Ga  Ga2  1  0.56251800  0.02325700  0.19133100  1
  Ga  Ga3  1  0.93748100  0.47109700  0.33359200  1
  Ga  Ga4  1  0.32135400  0.93036900  0.46992700  1
  S  S0  1  0.87384300  0.63041900  0.54207100  1
  S  S1  1  0.54319200  0.88646600  0.62979400  1
  S  S2  1  0.65862300  0.58581900  0.87508700  1
  S  S3  1  0.35065300  0.43281400  0.14705100  1
  S  S4  1  0.14358600  0.36928100  0.43990200  1
  S  S5  1  0.43302500  0.13525900  0.36614100  1
  S  S6  1  0.07073200  0.67381400  0.22662100  1
  S  S7  1  0.21182000  0.06679200  0.65825200  1
  S  S8  1  0.69963900  0.21814600  0.08867900  1
  S  S9  1  0.78128200  0.94043900  0.30274100  1
  S  S10  1  0.30254600  0.78481900  0.95278700  1
  S  S11  1  0.94600600  0.30078900  0.77996700  1
loop_
_geom_bond_atom_site_label_1
_geom_bond_atom_site_label_2
_geom_bond_distance
_geom_bond_site_symmetry_2
K0 S2 3.415351 1_544
K0 S3 3.526084 1_655
K0 S4 3.697734 1_655
K0 S10 3.719016 1_644
K0 S8 3.723409 1_555
K0 S5 3.727596 1_655
K0 S9 3.728056 1_545
K0 S11 3.803773 1_554
Cd0 S2 2.504819 1_555
Cd0 S3 2.543669 1_556
Cd0 S7 2.608329 1_555
Cd0 S8 2.633515 1_556
Cd1 S3 2.544641 1_555
Cd1 S0 2.544701 1_555
Cd1 S1 2.556333 1_555
Cd1 S9 2.589853 1_555
Cd2 S2 2.507685 1_555
Cd2 S1 2.544099 1_555
Cd2 S4 2.566385 1_555
Cd2 S10 2.623202 1_555
Cd3 S2 2.493498 1_555
Cd3 S0 2.549699 1_555
Cd3 S5 2.580916 1_555
Cd3 S11 2.598551 1_555
Ga0 S3 2.251358 1_555
Ga0 S10 2.309456 1_554
Ga0 S11 2.343433 1_454
Ga0 S6 2.391230 1_555
Ga1 S4 2.294487 1_555
Ga1 S7 2.318695 1_555
Ga1 S11 2.320946 1_455
Ga1 S9 2.321568 1_445
Ga2 S9 2.302639 1_545
Ga2 S5 2.302799 1_555
Ga2 S10 2.327793 1_544
Ga2 S8 2.327888 1_555
Ga3 S0 2.252406 1_555
Ga3 S8 2.319702 1_555
Ga3 S4 2.323386 1_655
Ga3 S6 2.392565 1_655
Ga4 S1 2.258668 1_555
Ga4 S5 2.324873 1_565
Ga4 S7 2.329977 1_565
Ga4 S6 2.362952 1_555
