# generated using pymatgen
data_CeMg6Zn
_symmetry_space_group_name_H-M   'P 1'
_cell_length_a   6.66563512
_cell_length_b   6.66563453
_cell_length_c   5.05959432
_cell_angle_alpha   90.00000000
_cell_angle_beta   90.00000000
_cell_angle_gamma   119.85132241
_symmetry_Int_Tables_number   1
_chemical_formula_structural   CeMg6Zn
_chemical_formula_sum   'Ce1 Mg6 Zn1'
_cell_volume   194.97461162
_cell_formula_units_Z   1
loop_
 _symmetry_equiv_pos_site_id
 _symmetry_equiv_pos_as_xyz
  1  'x, y, z'
loop_
 _atom_site_type_symbol
 _atom_site_label
 _atom_site_symmetry_multiplicity
 _atom_site_fract_x
 _atom_site_fract_y
 _atom_site_fract_z
 _atom_site_occupancy
  Ce  Ce0  1  0.32574555  0.17425445  0.75000000  1
  Mg  Mg0  1  0.16224152  0.82048867  0.25000000  1
  Mg  Mg1  1  0.67951133  0.33775848  0.25000000  1
  Mg  Mg2  1  0.66782299  0.83217701  0.25000000  1
  Mg  Mg3  1  0.31977375  0.66064031  0.75000000  1
  Mg  Mg4  1  0.83935969  0.18022625  0.75000000  1
  Mg  Mg5  1  0.83715040  0.66284960  0.75000000  1
  Zn  Zn0  1  0.16839477  0.33160524  0.25000000  1
loop_
_geom_bond_atom_site_label_1
_geom_bond_atom_site_label_2
_geom_bond_distance
_geom_bond_site_symmetry_2
Ce0 Zn0 3.113702 1_556
Ce0 Zn0 3.113702 1_555
Ce0 Mg0 3.254192 1_545
Ce0 Mg0 3.254192 1_546
Ce0 Mg1 3.254193 1_556
Ce0 Mg1 3.254193 1_555
Ce0 Mg3 3.262066 1_555
Ce0 Mg4 3.262067 1_455
Ce0 Mg5 3.342895 1_445
Ce0 Mg5 3.342895 1_555
Ce0 Mg3 3.403926 1_545
Ce0 Mg4 3.403926 1_555
Mg0 Mg3 3.122746 1_555
Mg0 Mg3 3.122746 1_554
Mg0 Mg5 3.151651 1_455
Mg0 Mg5 3.151651 1_454
Mg0 Mg1 3.224931 1_455
Mg0 Zn0 3.279327 1_555
Mg0 Mg2 3.331927 1_555
Mg0 Mg2 3.335078 1_455
Mg0 Zn0 3.386688 1_565
Mg0 Mg1 3.455677 1_565
Mg1 Mg4 3.122746 1_555
Mg1 Mg4 3.122746 1_554
Mg1 Mg5 3.151651 1_555
Mg1 Mg5 3.151651 1_554
Mg1 Zn0 3.279327 1_655
Mg1 Mg2 3.331927 1_545
Mg1 Mg2 3.335078 1_555
Mg1 Zn0 3.386688 1_555
Mg2 Mg5 3.196226 1_554
Mg2 Mg5 3.196226 1_555
Mg2 Mg4 3.232456 1_564
Mg2 Mg4 3.232456 1_565
Mg2 Mg3 3.232456 1_555
Mg2 Mg3 3.232456 1_554
Mg2 Zn0 3.340311 1_555
Mg2 Zn0 3.340311 1_665
Mg3 Zn0 3.166257 1_555
Mg3 Zn0 3.166257 1_556
Mg3 Mg4 3.209458 1_455
Mg3 Mg5 3.224346 1_455
Mg3 Mg5 3.441338 1_555
Mg3 Mg4 3.471150 1_565
Mg4 Zn0 3.166257 1_655
Mg4 Zn0 3.166257 1_656
Mg4 Mg5 3.224346 1_555
Mg4 Mg5 3.441337 1_545
