# generated using pymatgen
data_Li9Mn2Co5O16
_symmetry_space_group_name_H-M   'P 1'
_cell_length_a   2.90720200
_cell_length_b   5.90688000
_cell_length_c   17.14257474
_cell_angle_alpha   89.80259616
_cell_angle_beta   90.00000000
_cell_angle_gamma   90.00000000
_symmetry_Int_Tables_number   1
_chemical_formula_structural   Li9Mn2Co5O16
_chemical_formula_sum   'Li9 Mn2 Co5 O16'
_cell_volume   294.37900359
_cell_formula_units_Z   1
loop_
 _symmetry_equiv_pos_site_id
 _symmetry_equiv_pos_as_xyz
  1  'x, y, z'
loop_
 _atom_site_type_symbol
 _atom_site_label
 _atom_site_symmetry_multiplicity
 _atom_site_fract_x
 _atom_site_fract_y
 _atom_site_fract_z
 _atom_site_occupancy
  Li  Li0  1  0.50000000  0.99781500  0.74242300  1
  Li  Li1  1  0.50000000  0.50000000  0.50000000  1
  Li  Li2  1  0.50000000  0.00218500  0.25757700  1
  Li  Li3  1  0.00000000  0.24561900  0.61333100  1
  Li  Li4  1  0.00000000  0.75438100  0.38666900  1
  Li  Li5  1  0.00000000  0.24723100  0.12896600  1
  Li  Li6  1  0.50000000  0.50000000  0.00000000  1
  Li  Li7  1  0.00000000  0.75276900  0.87103400  1
  Li  Li8  1  0.50000000  0.00000000  0.50000000  1
  Mn  Mn0  1  0.00000000  0.25246300  0.87492800  1
  Mn  Mn1  1  0.00000000  0.74753700  0.12507200  1
  Co  Co0  1  0.00000000  0.76083800  0.60964800  1
  Co  Co1  1  0.00000000  0.23916200  0.39035200  1
  Co  Co2  1  0.50000000  0.48757700  0.25608400  1
  Co  Co3  1  0.50000000  0.00000000  0.00000000  1
  Co  Co4  1  0.50000000  0.51242300  0.74391600  1
  O  O0  1  0.50000000  0.02836900  0.87354900  1
  O  O1  1  0.50000000  0.51917200  0.62984500  1
  O  O2  1  0.50000000  0.01963000  0.37409200  1
  O  O3  1  0.00000000  0.26838200  0.76117400  1
  O  O4  1  0.00000000  0.74671000  0.50562900  1
  O  O5  1  0.00000000  0.27126500  0.24676000  1
  O  O6  1  0.50000000  0.52573900  0.12391500  1
  O  O7  1  0.00000000  0.75811700  0.01032500  1
  O  O8  1  0.50000000  0.98037000  0.62590800  1
  O  O9  1  0.50000000  0.48082800  0.37015500  1
  O  O10  1  0.50000000  0.97163100  0.12645100  1
  O  O11  1  0.00000000  0.25329000  0.49437100  1
  O  O12  1  0.00000000  0.73161800  0.23882600  1
  O  O13  1  0.00000000  0.24188300  0.98967500  1
  O  O14  1  0.50000000  0.47426100  0.87608500  1
  O  O15  1  0.00000000  0.72873500  0.75324000  1
loop_
_geom_bond_atom_site_label_1
_geom_bond_atom_site_label_2
_geom_bond_distance
_geom_bond_site_symmetry_2
Li0 O8 2.000378 1_555
Li0 O15 2.161383 1_655
Li0 O15 2.161383 1_555
Li0 O3 2.184968 1_665
Li0 O3 2.184968 1_565
Li0 O0 2.255691 1_565
Li1 O4 2.060806 1_555
Li1 O11 2.060806 1_555
Li1 O4 2.060806 1_655
Li1 O11 2.060806 1_655
Li1 O9 2.229146 1_555
Li1 O1 2.229146 1_555
Li2 O2 2.000378 1_555
Li2 O5 2.161383 1_555
Li2 O5 2.161383 1_655
Li2 O12 2.184968 1_545
Li2 O12 2.184968 1_645
Li2 O10 2.255691 1_545
Li3 O11 2.039628 1_555
Li3 O8 2.147546 1_545
Li3 O8 2.147546 1_445
Li3 O1 2.192534 1_455
Li3 O1 2.192534 1_555
Li3 O3 2.538436 1_555
Li4 O4 2.039628 1_555
Li4 O2 2.147546 1_565
Li4 O2 2.147546 1_465
Li4 O9 2.192534 1_455
Li4 O9 2.192534 1_555
Li4 O12 2.538436 1_555
Li5 O5 2.024765 1_555
Li5 O10 2.182997 1_545
Li5 O10 2.182997 1_445
Li5 O6 2.196786 1_455
Li5 O6 2.196786 1_555
Li5 O13 2.388124 1_554
Li6 O7 2.114415 1_655
Li6 O13 2.114415 1_654
Li6 O7 2.114415 1_555
Li6 O13 2.114415 1_554
Li6 O14 2.130179 1_554
Li6 O6 2.130179 1_555
Li7 O15 2.024765 1_555
Li7 O0 2.182997 1_565
Li7 O0 2.182997 1_465
Li7 O14 2.196786 1_555
Li7 O14 2.196786 1_455
Li7 O7 2.388124 1_556
Li8 O4 2.088001 1_645
Li8 O11 2.088001 1_555
Li8 O11 2.088001 1_655
Li8 O4 2.088001 1_545
Li8 O2 2.161101 1_555
Li8 O8 2.161101 1_545
Mn0 O3 1.951979 1_555
Mn0 O14 1.957033 1_555
Mn0 O14 1.957033 1_455
Mn0 O0 1.966190 1_455
Mn0 O0 1.966190 1_555
Mn0 O13 1.967836 1_555
Mn1 O12 1.951979 1_555
Mn1 O6 1.957033 1_455
Mn1 O6 1.957033 1_555
Mn1 O10 1.966190 1_455
Mn1 O10 1.966190 1_555
Mn1 O7 1.967836 1_555
Co0 O4 1.785392 1_555
Co0 O8 1.968426 1_455
Co0 O8 1.968426 1_555
Co0 O1 2.065710 1_555
Co0 O1 2.065710 1_455
Co0 O15 2.468178 1_555
Co1 O11 1.785392 1_555
Co1 O2 1.968426 1_455
Co1 O2 1.968426 1_555
Co1 O9 2.065710 1_455
Co1 O9 2.065710 1_555
Co1 O5 2.468178 1_555
Co2 O5 1.942293 1_555
Co2 O5 1.942293 1_655
Co2 O9 1.955740 1_555
Co2 O12 2.067734 1_655
Co2 O12 2.067734 1_555
Co2 O6 2.276130 1_555
Co3 O7 2.045467 1_545
Co3 O7 2.045467 1_645
Co3 O13 2.045467 1_654
Co3 O13 2.045467 1_554
Co3 O0 2.173587 1_554
Co3 O10 2.173587 1_545
Co4 O15 1.942293 1_555
Co4 O15 1.942293 1_655
Co4 O1 1.955740 1_555
Co4 O3 2.067734 1_655
Co4 O3 2.067734 1_555
Co4 O14 2.276130 1_555
