# generated using pymatgen
data_FeP2CO8
_symmetry_space_group_name_H-M   'P 1'
_cell_length_a   8.47167400
_cell_length_b   9.81378537
_cell_length_c   10.69373735
_cell_angle_alpha   113.58922933
_cell_angle_beta   93.23663329
_cell_angle_gamma   95.90147384
_symmetry_Int_Tables_number   1
_chemical_formula_structural   FeP2CO8
_chemical_formula_sum   'Fe4 P8 C4 O32'
_cell_volume   805.79895862
_cell_formula_units_Z   4
loop_
 _symmetry_equiv_pos_site_id
 _symmetry_equiv_pos_as_xyz
  1  'x, y, z'
loop_
 _atom_site_type_symbol
 _atom_site_label
 _atom_site_symmetry_multiplicity
 _atom_site_fract_x
 _atom_site_fract_y
 _atom_site_fract_z
 _atom_site_occupancy
  Fe  Fe0  1  0.24357500  0.86639200  0.39847400  1
  Fe  Fe1  1  0.75642500  0.13360800  0.60152600  1
  Fe  Fe2  1  0.27365200  0.90951200  0.89953600  1
  Fe  Fe3  1  0.72634800  0.09048800  0.10046400  1
  P  P0  1  0.98943200  0.65762700  0.28284400  1
  P  P1  1  0.01056800  0.34237300  0.71715600  1
  P  P2  1  0.08621400  0.98549400  0.17865000  1
  P  P3  1  0.91378600  0.01450600  0.82134900  1
  P  P4  1  0.59125200  0.99222300  0.31198900  1
  P  P5  1  0.40874800  0.00777700  0.68801100  1
  P  P6  1  0.58861100  0.30444800  0.26769100  1
  P  P7  1  0.41138900  0.69555200  0.73230900  1
  C  C0  1  0.97966800  0.78177700  0.06207300  1
  C  C1  1  0.02033200  0.21822300  0.93792700  1
  C  C2  1  0.40967500  0.79673800  0.61425400  1
  C  C3  1  0.59032500  0.20326200  0.38574600  1
  O  O0  1  0.57055000  0.08716700  0.68244500  1
  O  O1  1  0.42945000  0.91283300  0.31755500  1
  O  O2  1  0.12000100  0.98779700  0.31799100  1
  O  O3  1  0.87999900  0.01220300  0.68200900  1
  O  O4  1  0.52296900  0.17939100  0.12195400  1
  O  O5  1  0.47703100  0.82060900  0.87804600  1
  O  O6  1  0.22324100  0.96783800  0.09056600  1
  O  O7  1  0.77675900  0.03216200  0.90943400  1
  O  O8  1  0.95906100  0.07037800  0.15615500  1
  O  O9  1  0.04093900  0.92962200  0.84384500  1
  O  O10  1  0.92915600  0.67934400  0.96562900  1
  O  O11  1  0.07084400  0.32065600  0.03437100  1
  O  O12  1  0.63691600  0.26591500  0.51002700  1
  O  O13  1  0.36308400  0.73408500  0.48997300  1
  O  O14  1  0.64168800  0.94259300  0.16616600  1
  O  O15  1  0.35831200  0.05740700  0.83383400  1
  O  O16  1  0.27773100  0.01523400  0.58580300  1
  O  O17  1  0.72226900  0.98476600  0.41419700  1
  O  O18  1  0.84764300  0.56125800  0.19526700  1
  O  O19  1  0.15235700  0.43874200  0.80473300  1
  O  O20  1  0.22671700  0.70813300  0.74215400  1
  O  O21  1  0.77328300  0.29186700  0.25784600  1
  O  O22  1  0.14933000  0.67261900  0.22563000  1
  O  O23  1  0.85067000  0.32738100  0.77437000  1
  O  O24  1  0.00631700  0.76982000  0.43045400  1
  O  O25  1  0.99368300  0.23018000  0.56954600  1
  O  O26  1  0.47256700  0.54870600  0.68065200  1
  O  O27  1  0.52743300  0.45129400  0.31934800  1
  O  O28  1  0.50556900  0.58839500  0.08505800  1
  O  O29  1  0.49443100  0.41160500  0.91494200  1
  O  O30  1  0.73293200  0.64886500  0.65205300  1
  O  O31  1  0.26706800  0.35113500  0.34794700  1
loop_
_geom_bond_atom_site_label_1
_geom_bond_atom_site_label_2
_geom_bond_distance
_geom_bond_site_symmetry_2
Fe0 O16 1.932888 1_565
Fe0 O1 1.938565 1_555
Fe0 O2 2.057107 1_555
Fe0 O22 2.092388 1_555
Fe0 O13 2.200830 1_555
Fe0 O24 2.236169 1_555
Fe1 O17 1.932888 1_545
Fe1 O0 1.938565 1_555
Fe1 O3 2.057107 1_555
Fe1 O23 2.092388 1_555
Fe1 O12 2.200830 1_555
Fe1 O25 2.236169 1_555
Fe2 O15 1.942586 1_565
Fe2 O6 1.973848 1_556
Fe2 O5 1.993985 1_555
Fe2 O20 1.999277 1_555
Fe2 O9 2.078896 1_555
Fe3 O14 1.942586 1_545
Fe3 O7 1.973848 1_554
Fe3 O4 1.993985 1_555
Fe3 O21 1.999277 1_555
Fe3 O8 2.078896 1_555
C0 O10 1.135455 1_554
C0 P2 1.967968 1_655
C1 O11 1.135455 1_556
C1 P3 1.967970 1_455
C2 O13 1.239757 1_555
C2 P7 1.893230 1_555
C2 P5 1.899531 1_565
C3 O12 1.239757 1_555
C3 P6 1.893230 1_555
C3 P4 1.899531 1_545
O0 P5 1.521905 1_555
O1 P4 1.521905 1_555
O2 P2 1.492086 1_555
O3 P3 1.492076 1_555
O4 P6 1.573300 1_555
O5 P7 1.573300 1_555
O6 P2 1.516266 1_555
O7 P3 1.516273 1_555
O8 P2 1.492588 1_645
O9 P3 1.492591 1_465
O14 P4 1.536766 1_555
O15 P5 1.536766 1_555
O16 P5 1.541317 1_555
O17 P4 1.541317 1_555
O18 P0 1.464531 1_555
O19 P1 1.464531 1_555
O20 P7 1.588032 1_555
O21 P6 1.588032 1_555
O22 P0 1.534792 1_455
O23 P1 1.534792 1_655
O24 P0 1.508484 1_455
O25 P1 1.508484 1_655
O26 P7 1.483021 1_555
O27 P6 1.483021 1_555
O28 O29 1.936313 1_554
