# generated using pymatgen
data_SrCa7TiMn7O20
_symmetry_space_group_name_H-M   'P 1'
_cell_length_a   10.90412937
_cell_length_b   11.16223264
_cell_length_c   17.25334452
_cell_angle_alpha   108.80160099
_cell_angle_beta   108.29550752
_cell_angle_gamma   90.14158676
_symmetry_Int_Tables_number   1
_chemical_formula_structural   SrCa7TiMn7O20
_chemical_formula_sum   'Sr4 Ca28 Ti4 Mn28 O80'
_cell_volume   1874.84569843
_cell_formula_units_Z   4
loop_
 _symmetry_equiv_pos_site_id
 _symmetry_equiv_pos_as_xyz
  1  'x, y, z'
loop_
 _atom_site_type_symbol
 _atom_site_label
 _atom_site_symmetry_multiplicity
 _atom_site_fract_x
 _atom_site_fract_y
 _atom_site_fract_z
 _atom_site_occupancy
  Sr  Sr0  1  0.30978100  0.56161800  0.60973200  1
  Sr  Sr1  1  0.05724900  0.29726400  0.60991700  1
  Sr  Sr2  1  0.56145300  0.30012900  0.61116600  1
  Sr  Sr3  1  0.44666900  0.20200100  0.88802900  1
  Ca  Ca0  1  0.30583200  0.06652800  0.11243800  1
  Ca  Ca1  1  0.30432000  0.05965900  0.60347000  1
  Ca  Ca2  1  0.31070400  0.56569500  0.11105300  1
  Ca  Ca3  1  0.80737800  0.06910600  0.11297000  1
  Ca  Ca4  1  0.80543800  0.06193500  0.60491600  1
  Ca  Ca5  1  0.80441100  0.56286700  0.11208800  1
  Ca  Ca6  1  0.80517500  0.56500600  0.60614100  1
  Ca  Ca7  1  0.19961700  0.43540900  0.39233700  1
  Ca  Ca8  1  0.19996800  0.43656600  0.89308900  1
  Ca  Ca9  1  0.19655500  0.93428700  0.39151600  1
  Ca  Ca10  1  0.19326000  0.93616700  0.88925400  1
  Ca  Ca11  1  0.69987300  0.43540100  0.39283100  1
  Ca  Ca12  1  0.69489700  0.43266300  0.89156500  1
  Ca  Ca13  1  0.70028100  0.93520300  0.39097300  1
  Ca  Ca14  1  0.69656800  0.93806700  0.88943300  1
  Ca  Ca15  1  0.05795800  0.29573800  0.11158000  1
  Ca  Ca16  1  0.06052300  0.79468100  0.11132400  1
  Ca  Ca17  1  0.05533200  0.79599300  0.60669200  1
  Ca  Ca18  1  0.55682400  0.29816100  0.11140200  1
  Ca  Ca19  1  0.55217600  0.79368400  0.11257800  1
  Ca  Ca20  1  0.55661300  0.79484500  0.60687200  1
  Ca  Ca21  1  0.44863400  0.20607000  0.39218900  1
  Ca  Ca22  1  0.44923400  0.70547600  0.39207600  1
  Ca  Ca23  1  0.44124700  0.70258200  0.89136800  1
  Ca  Ca24  1  0.94738500  0.20430500  0.39077800  1
  Ca  Ca25  1  0.94857800  0.20520900  0.88892400  1
  Ca  Ca26  1  0.94913100  0.70509500  0.39168100  1
  Ca  Ca27  1  0.94835400  0.70559900  0.88966200  1
  Ti  Ti0  1  0.00646100  0.00133100  0.00069900  1
  Ti  Ti1  1  0.00586700  0.50018900  0.00003300  1
  Ti  Ti2  1  0.50567900  0.00096500  0.00229300  1
  Ti  Ti3  1  0.75562200  0.75106900  0.00217100  1
  Mn  Mn0  1  0.00519500  0.99610200  0.49742000  1
  Mn  Mn1  1  0.00381500  0.49992200  0.49763900  1
  Mn  Mn2  1  0.50593000  0.99813900  0.49813200  1
  Mn  Mn3  1  0.50702000  0.50178900  0.00157500  1
  Mn  Mn4  1  0.50662500  0.50122100  0.49826800  1
  Mn  Mn5  1  0.25559500  0.25108000  0.00163200  1
  Mn  Mn6  1  0.25437700  0.24825300  0.49631000  1
  Mn  Mn7  1  0.25486000  0.75133900  0.00062100  1
  Mn  Mn8  1  0.25652300  0.74952300  0.49828400  1
  Mn  Mn9  1  0.75719800  0.24968100  0.00110900  1
  Mn  Mn10  1  0.75533800  0.24864200  0.49758700  1
  Mn  Mn11  1  0.75678600  0.74974200  0.49903700  1
  Mn  Mn12  1  0.10929400  0.09371100  0.24974800  1
  Mn  Mn13  1  0.10288500  0.09314300  0.74713900  1
  Mn  Mn14  1  0.11186400  0.59509200  0.25057700  1
  Mn  Mn15  1  0.10654600  0.59913100  0.74909800  1
  Mn  Mn16  1  0.61010700  0.09501500  0.25069600  1
  Mn  Mn17  1  0.60912000  0.09261600  0.74560400  1
  Mn  Mn18  1  0.61274200  0.59567800  0.25198100  1
  Mn  Mn19  1  0.61587500  0.60192800  0.75369300  1
  Mn  Mn20  1  0.35907500  0.40459200  0.25230200  1
  Mn  Mn21  1  0.36355500  0.40426400  0.75194200  1
  Mn  Mn22  1  0.35963400  0.90477100  0.25296900  1
  Mn  Mn23  1  0.36160200  0.90432400  0.74847300  1
  Mn  Mn24  1  0.85890400  0.40339600  0.25215100  1
  Mn  Mn25  1  0.86233500  0.40474500  0.75104900  1
  Mn  Mn26  1  0.85760200  0.90422200  0.24984300  1
  Mn  Mn27  1  0.86080600  0.90418400  0.74868300  1
  O  O0  1  0.12335900  0.11718300  0.48603800  1
  O  O1  1  0.12248000  0.11965200  0.98500600  1
  O  O2  1  0.12128500  0.62040300  0.48531500  1
  O  O3  1  0.12264900  0.62049200  0.98599500  1
  O  O4  1  0.62182100  0.11700700  0.48387100  1
  O  O5  1  0.62801300  0.11681600  0.98931600  1
  O  O6  1  0.62282000  0.61967300  0.48457100  1
  O  O7  1  0.62459000  0.62156700  0.98634400  1
  O  O8  1  0.14033400  0.38032200  0.01721300  1
  O  O9  1  0.13035000  0.37724400  0.50482000  1
  O  O10  1  0.13858100  0.88307000  0.01535400  1
  O  O11  1  0.13675300  0.87993400  0.51300900  1
  O  O12  1  0.64091800  0.37602900  0.01409100  1
  O  O13  1  0.63608500  0.38073700  0.50795900  1
  O  O14  1  0.63927700  0.88082800  0.01751100  1
  O  O15  1  0.63644900  0.87837000  0.51167700  1
  O  O16  1  0.37292300  0.11423300  0.48663100  1
  O  O17  1  0.37096200  0.11638900  0.98973600  1
  O  O18  1  0.37370400  0.61653600  0.48362500  1
  O  O19  1  0.37021200  0.62362600  0.98923800  1
  O  O20  1  0.87235100  0.11393300  0.48455000  1
  O  O21  1  0.87481600  0.11693000  0.98682000  1
  O  O22  1  0.87256800  0.61728000  0.48469700  1
  O  O23  1  0.87388400  0.61468700  0.98419600  1
  O  O24  1  0.38555000  0.38391200  0.01434400  1
  O  O25  1  0.38462300  0.38001000  0.50654700  1
  O  O26  1  0.38798400  0.88344100  0.01424500  1
  O  O27  1  0.38769700  0.88236800  0.51209500  1
  O  O28  1  0.88696600  0.38311500  0.01284200  1
  O  O29  1  0.88262900  0.38494200  0.51021300  1
  O  O30  1  0.89003300  0.88657600  0.01724300  1
  O  O31  1  0.88772000  0.88219800  0.51382700  1
  O  O32  1  0.08142900  0.09604000  0.12803900  1
  O  O33  1  0.07617000  0.08344700  0.63093800  1
  O  O34  1  0.07844600  0.59403700  0.12740100  1
  O  O35  1  0.07348500  0.58904000  0.63135800  1
  O  O36  1  0.57842400  0.09503400  0.12801300  1
  O  O37  1  0.58062500  0.08377600  0.62961200  1
  O  O38  1  0.57976400  0.59351400  0.12954000  1
  O  O39  1  0.57839900  0.59193200  0.62921000  1
  O  O40  1  0.44629400  0.40899600  0.36689300  1
  O  O41  1  0.44879200  0.41399300  0.87077300  1
  O  O42  1  0.44586500  0.90733700  0.36790000  1
  O  O43  1  0.45361200  0.90724600  0.87316600  1
  O  O44  1  0.94403300  0.40914000  0.36708400  1
  O  O45  1  0.95774900  0.40508100  0.87394200  1
  O  O46  1  0.94975600  0.90312600  0.37046000  1
  O  O47  1  0.95230400  0.90538500  0.87253100  1
  O  O48  1  0.33436100  0.29016400  0.14028300  1
  O  O49  1  0.32196700  0.29353500  0.63175400  1
  O  O50  1  0.33112700  0.79229500  0.13959900  1
  O  O51  1  0.32798600  0.78906000  0.62669700  1
  O  O52  1  0.83603100  0.29184700  0.13927700  1
  O  O53  1  0.82147300  0.28424000  0.62707500  1
  O  O54  1  0.83376200  0.77954700  0.12744200  1
  O  O55  1  0.82875900  0.78354500  0.62715400  1
  O  O56  1  0.19917400  0.21213200  0.36938100  1
  O  O57  1  0.18738700  0.20846700  0.85997300  1
  O  O58  1  0.20035100  0.71592500  0.37109300  1
  O  O59  1  0.19274700  0.71385400  0.86188000  1
  O  O60  1  0.70003700  0.21490200  0.37078600  1
  O  O61  1  0.69305300  0.20507400  0.85999100  1
  O  O62  1  0.69963700  0.71623200  0.37187700  1
  O  O63  1  0.70783000  0.72434300  0.87495300  1
  O  O64  1  0.41920100  0.07131100  0.25052300  1
  O  O65  1  0.42504900  0.07574400  0.74177900  1
  O  O66  1  0.42161900  0.57017500  0.25005500  1
  O  O67  1  0.43154000  0.57323500  0.75730300  1
  O  O68  1  0.91989700  0.07891600  0.24988300  1
  O  O69  1  0.92115600  0.08238000  0.74818000  1
  O  O70  1  0.92117200  0.56867200  0.25004700  1
  O  O71  1  0.92663900  0.58124500  0.74943500  1
  O  O72  1  0.17628100  0.41897100  0.25068400  1
  O  O73  1  0.18092800  0.43852900  0.75776800  1
  O  O74  1  0.17533500  0.91830800  0.25052200  1
  O  O75  1  0.17173400  0.93019000  0.75075300  1
  O  O76  1  0.67533600  0.41917600  0.25050500  1
  O  O77  1  0.67951100  0.43205400  0.75945000  1
  O  O78  1  0.66791500  0.91909500  0.24946900  1
  O  O79  1  0.67121700  0.92739700  0.74983200  1
loop_
_geom_bond_atom_site_label_1
_geom_bond_atom_site_label_2
_geom_bond_distance
_geom_bond_site_symmetry_2
Ca0 O64 2.296868 1_555
Ca0 O48 2.385012 1_555
Ca0 O10 2.485520 1_545
Ca0 O32 2.555138 1_555
Ca0 O26 2.565014 1_545
Ca0 O17 2.645253 1_554
Ca0 O1 2.696150 1_554
Ca0 O36 2.906411 1_555
Ca1 O65 2.282547 1_555
Ca1 O11 2.443824 1_545
Ca1 O27 2.475081 1_545
Ca1 O49 2.491522 1_555
Ca1 O16 2.594309 1_555
Ca1 O0 2.597256 1_555
Ca1 O33 2.673294 1_555
Ca1 O37 2.901347 1_555
Ca2 O66 2.306116 1_555
Ca2 O50 2.411473 1_555
Ca2 O24 2.499640 1_555
Ca2 O8 2.507428 1_555
Ca2 O19 2.643213 1_554
Ca2 O34 2.643574 1_555
Ca2 O3 2.704362 1_554
Ca2 O38 2.854795 1_555
Ca3 O68 2.260605 1_555
Ca3 O52 2.380120 1_555
Ca3 O14 2.518658 1_545
Ca3 O30 2.542810 1_545
Ca3 O36 2.597272 1_555
Ca3 O5 2.603498 1_554
Ca3 O21 2.704577 1_554
Ca3 O32 2.923224 1_655
Ca4 O69 2.330398 1_555
Ca4 O53 2.382973 1_555
Ca4 O31 2.482293 1_545
Ca4 O15 2.485416 1_545
Ca4 O37 2.615736 1_555
Ca4 O20 2.628338 1_555
Ca4 O4 2.637524 1_555
Ca4 O33 2.840595 1_655
Ca5 O70 2.299634 1_555
Ca5 O54 2.356340 1_555
Ca5 O12 2.490507 1_555
Ca5 O28 2.555442 1_555
Ca5 O38 2.570789 1_555
Ca5 O7 2.689353 1_554
Ca5 O23 2.765391 1_554
Ca5 O34 2.925685 1_655
Ca6 O55 2.348716 1_555
Ca6 O71 2.356575 1_555
Ca6 O29 2.496815 1_555
Ca6 O13 2.504824 1_555
Ca6 O39 2.628299 1_555
Ca6 O6 2.634032 1_555
Ca6 O22 2.650190 1_555
Ca6 O35 2.818265 1_655
Ca7 O72 2.322017 1_555
Ca7 O56 2.393902 1_555
Ca7 O18 2.494605 1_555
Ca7 O2 2.510124 1_555
Ca7 O9 2.547232 1_555
Ca7 O25 2.575024 1_555
Ca7 O44 2.682163 1_455
Ca7 O40 2.859457 1_555
Ca8 O73 2.285446 1_555
Ca8 O57 2.416450 1_555
Ca8 O3 2.496182 1_555
Ca8 O19 2.524381 1_555
Ca8 O45 2.565403 1_455
Ca8 O24 2.637730 1_556
Ca8 O8 2.672480 1_556
Ca8 O41 2.858313 1_555
Ca9 O74 2.317264 1_555
Ca9 O58 2.350081 1_555
Ca9 O0 2.478636 1_565
Ca9 O16 2.510134 1_565
Ca9 O46 2.606770 1_455
Ca9 O11 2.619764 1_555
Ca9 O27 2.658708 1_555
Ca9 O42 2.875286 1_555
Ca10 O75 2.305378 1_555
Ca10 O59 2.371455 1_555
Ca10 O1 2.479309 1_565
Ca10 O17 2.535877 1_565
Ca10 O47 2.561309 1_455
Ca10 O10 2.661585 1_556
Ca10 O26 2.730345 1_556
Ca10 O43 2.946555 1_555
Ca11 O76 2.331300 1_555
Ca11 O60 2.366327 1_555
Ca11 O6 2.487360 1_555
Ca11 O22 2.492570 1_555
Ca11 O13 2.539337 1_555
Ca11 O29 2.568458 1_555
Ca11 O40 2.658336 1_555
Ca11 O44 2.834401 1_555
Ca12 O77 2.230220 1_555
Ca12 O61 2.419015 1_555
Ca12 O7 2.506080 1_555
Ca12 O23 2.533871 1_555
Ca12 O41 2.591961 1_555
Ca12 O12 2.618352 1_556
Ca12 O28 2.659091 1_556
Ca12 O45 2.982171 1_555
Ca13 O78 2.300689 1_555
Ca13 O62 2.358415 1_555
Ca13 O20 2.471963 1_565
Ca13 O4 2.488382 1_565
Ca13 O15 2.642606 1_555
Ca13 O31 2.667340 1_555
Ca13 O42 2.678411 1_555
Ca13 O46 2.860266 1_555
Ca14 O79 2.299737 1_555
Ca14 O63 2.324929 1_555
Ca14 O5 2.471723 1_565
Ca14 O21 2.520936 1_565
Ca14 O43 2.584948 1_555
Ca14 O14 2.730635 1_556
Ca14 O30 2.746929 1_556
Ca14 O47 2.905391 1_555
Ca15 O72 2.288224 1_555
Ca15 O32 2.340967 1_555
Ca15 O8 2.500792 1_555
Ca15 O28 2.532898 1_455
Ca15 O52 2.612498 1_455
Ca15 O21 2.667809 1_454
Ca15 O1 2.707770 1_554
Ca15 O48 2.901140 1_555
Ca16 O74 2.281874 1_555
Ca16 O34 2.345137 1_555
Ca16 O30 2.516174 1_455
Ca16 O10 2.524535 1_555
Ca16 O54 2.584512 1_455
Ca16 O3 2.670438 1_554
Ca16 O23 2.706661 1_454
Ca16 O50 2.837313 1_555
Ca17 O75 2.375444 1_555
Ca17 O31 2.448950 1_455
Ca17 O35 2.477845 1_555
Ca17 O11 2.480276 1_555
Ca17 O55 2.612516 1_455
Ca17 O22 2.649821 1_455
Ca17 O2 2.655374 1_555
Ca17 O51 2.887606 1_555
Ca18 O76 2.282340 1_555
Ca18 O36 2.378573 1_555
Ca18 O24 2.507347 1_555
Ca18 O12 2.513650 1_555
Ca18 O48 2.631938 1_555
Ca18 O17 2.682140 1_554
Ca18 O5 2.724494 1_554
Ca18 O52 2.934097 1_555
Ca19 O78 2.262588 1_555
Ca19 O38 2.353288 1_555
Ca19 O26 2.506997 1_555
Ca19 O14 2.557436 1_555
Ca19 O50 2.595638 1_555
Ca19 O19 2.606782 1_554
Ca19 O7 2.729122 1_554
Ca19 O54 3.008727 1_555
Ca20 O79 2.353274 1_555
Ca20 O39 2.417204 1_555
Ca20 O27 2.483662 1_555
Ca20 O15 2.491058 1_555
Ca20 O51 2.623912 1_555
Ca20 O18 2.655293 1_555
Ca20 O6 2.664741 1_555
Ca20 O55 2.884934 1_555
Ca21 O64 2.339883 1_555
Ca21 O40 2.439746 1_555
Ca21 O4 2.490820 1_555
Ca21 O16 2.510884 1_555
Ca21 O25 2.559657 1_555
Ca21 O13 2.622142 1_555
Ca21 O56 2.627669 1_555
Ca21 O60 2.884210 1_555
Ca22 O66 2.350498 1_555
Ca22 O42 2.418458 1_555
Ca22 O18 2.445867 1_555
Ca22 O6 2.478796 1_555
Ca22 O27 2.623028 1_555
Ca22 O15 2.630351 1_555
Ca22 O58 2.630894 1_555
Ca22 O62 2.865985 1_555
Ca23 O67 2.266920 1_555
Ca23 O43 2.413149 1_555
Ca23 O19 2.450526 1_555
Ca23 O7 2.531219 1_555
Ca23 O59 2.606614 1_555
Ca23 O26 2.632009 1_556
Ca23 O14 2.755915 1_556
Ca24 O68 2.303361 1_555
Ca24 O44 2.447380 1_555
Ca24 O20 2.486670 1_555
Ca24 O0 2.527526 1_655
Ca24 O9 2.578038 1_655
Ca24 O60 2.617477 1_555
Ca24 O29 2.655704 1_555
Ca24 O56 2.887537 1_655
Ca25 O69 2.293887 1_555
Ca25 O45 2.332619 1_555
Ca25 O1 2.512314 1_655
Ca25 O21 2.528352 1_555
Ca25 O28 2.671627 1_556
Ca25 O61 2.671850 1_555
Ca25 O8 2.716103 1_656
Ca25 O57 2.803486 1_655
Ca26 O70 2.348331 1_555
Ca26 O46 2.354451 1_555
Ca26 O22 2.466660 1_555
Ca26 O2 2.473173 1_655
Ca26 O62 2.641750 1_555
Ca26 O31 2.646658 1_555
Ca26 O11 2.652238 1_655
Ca26 O58 2.877795 1_655
Ca27 O71 2.304396 1_555
Ca27 O47 2.344090 1_555
Ca27 O23 2.498752 1_555
Ca27 O3 2.514047 1_655
Ca27 O63 2.570178 1_555
Ca27 O10 2.704826 1_656
Ca27 O30 2.710996 1_556
Ca27 O59 2.858171 1_655
Mn0 O31 1.946565 1_455
Mn0 O11 1.950226 1_555
Mn0 O0 1.961303 1_565
Mn0 O20 1.968051 1_465
Mn0 O46 1.985173 1_455
Mn0 O33 2.070137 1_565
Mn1 O29 1.947181 1_455
Mn1 O9 1.950792 1_555
Mn1 O22 1.952236 1_455
Mn1 O2 1.959931 1_555
Mn1 O44 2.032030 1_455
Mn1 O35 2.075072 1_555
Mn2 O27 1.943585 1_555
Mn2 O4 1.953279 1_565
Mn2 O16 1.953573 1_565
Mn2 O15 1.967066 1_555
Mn2 O42 2.027260 1_555
Mn2 O37 2.039973 1_565
Mn3 O24 1.973726 1_555
Mn3 O7 1.982329 1_554
Mn3 O38 1.997836 1_555
Mn3 O19 2.029157 1_554
Mn3 O41 2.031815 1_554
Mn3 O12 2.038744 1_555
Mn4 O6 1.946906 1_555
Mn4 O18 1.952000 1_555
Mn4 O13 1.958449 1_555
Mn4 O25 1.963599 1_555
Mn4 O39 2.037935 1_555
Mn4 O40 2.046132 1_555
Mn5 O8 1.924617 1_555
Mn5 O1 1.948879 1_554
Mn5 O24 1.959439 1_555
Mn5 O17 1.964064 1_554
Mn5 O48 2.164734 1_555
Mn5 O57 2.204680 1_554
Mn6 O25 1.968740 1_555
Mn6 O0 1.968872 1_555
Mn6 O16 1.980093 1_555
Mn6 O9 1.980325 1_555
Mn6 O56 1.980607 1_555
Mn6 O49 2.101207 1_555
Mn7 O19 1.906930 1_554
Mn7 O3 1.949059 1_554
Mn7 O10 1.950638 1_555
Mn7 O26 1.971924 1_555
Mn7 O50 2.165588 1_555
Mn7 O59 2.167700 1_554
Mn8 O27 1.961952 1_555
Mn8 O11 1.966843 1_555
Mn8 O18 1.967342 1_555
Mn8 O2 1.968851 1_555
Mn8 O58 1.988969 1_555
Mn8 O51 1.998694 1_555
Mn9 O12 1.905351 1_555
Mn9 O5 1.959696 1_554
Mn9 O21 1.968196 1_554
Mn9 O28 1.969009 1_555
Mn9 O52 2.152084 1_555
Mn9 O61 2.193819 1_554
Mn10 O29 1.968447 1_555
Mn10 O13 1.970407 1_555
Mn10 O4 1.970674 1_555
Mn10 O20 1.977678 1_555
Mn10 O60 1.982724 1_555
Mn10 O53 2.020892 1_555
Mn11 O31 1.951185 1_555
Mn11 O22 1.952136 1_555
Mn11 O15 1.953956 1_555
Mn11 O6 1.957324 1_555
Mn11 O62 1.988243 1_555
Mn11 O55 2.004031 1_555
Mn12 O56 1.983190 1_555
Mn12 O32 2.034003 1_555
Mn12 O68 2.072185 1_455
Mn12 O74 2.090422 1_545
Mn13 O57 1.883765 1_555
Mn13 O33 1.899823 1_555
Mn13 O75 1.981522 1_545
Mn13 O69 1.990990 1_455
Mn14 O58 1.999971 1_555
Mn14 O34 2.036426 1_555
Mn14 O72 2.089620 1_555
Mn14 O70 2.096178 1_455
Mn15 O59 1.883957 1_555
Mn15 O35 1.913583 1_555
Mn15 O71 1.973385 1_455
Mn15 O73 1.999442 1_555
Mn16 O60 1.994000 1_555
Mn16 O36 2.034924 1_555
Mn16 O78 2.059477 1_545
Mn16 O64 2.096714 1_555
Mn17 O61 1.889898 1_555
Mn17 O37 1.895638 1_555
Mn17 O79 1.981616 1_545
Mn17 O65 1.993832 1_555
Mn18 O62 1.989104 1_555
Mn18 O38 2.020581 1_555
Mn18 O76 2.081642 1_555
Mn18 O66 2.091127 1_555
Mn19 O63 2.020649 1_555
Mn19 O39 2.021519 1_555
Mn19 O77 2.042416 1_555
Mn19 O67 2.057884 1_555
Mn20 O48 1.876026 1_555
Mn20 O40 1.890066 1_555
Mn20 O66 1.984765 1_555
Mn20 O72 1.992225 1_555
Mn21 O41 1.933572 1_555
Mn21 O49 1.946299 1_555
Mn21 O67 1.988227 1_555
Mn21 O73 2.055888 1_555
Mn22 O50 1.879428 1_555
Mn22 O42 1.899909 1_555
Mn22 O64 1.985246 1_565
Mn22 O74 2.003879 1_555
Mn23 O51 1.993939 1_555
Mn23 O43 2.058035 1_555
Mn23 O65 2.083088 1_565
Mn23 O75 2.101905 1_555
Mn24 O52 1.880331 1_555
Mn24 O44 1.886813 1_555
Mn24 O70 1.979457 1_555
Mn24 O76 2.001926 1_555
Mn25 O53 2.031535 1_555
Mn25 O45 2.046473 1_555
Mn25 O77 2.060111 1_555
Mn25 O71 2.101107 1_555
Mn26 O46 2.011023 1_555
Mn26 O54 2.055052 1_555
Mn26 O68 2.063033 1_565
Mn26 O78 2.073589 1_555
Mn27 O55 2.012359 1_555
Mn27 O47 2.050480 1_555
Mn27 O79 2.089579 1_555
Mn27 O69 2.097081 1_565
O0 Sr1 2.708052 1_555
O1 Ti0 1.963509 1_556
O2 Sr0 2.721693 1_555
O3 Ti1 1.969341 1_556
O4 Sr2 2.730500 1_555
O5 Ti2 1.966573 1_556
O5 Sr3 2.603643 1_555
O7 Ti3 1.922490 1_556
O8 Ti1 2.005095 1_555
O9 Sr1 2.582198 1_555
O9 Sr0 2.587533 1_555
O10 Ti0 1.969215 1_565
O12 Sr3 2.711898 1_554
O13 Sr2 2.565450 1_555
O14 Ti3 1.936531 1_555
O14 Ti2 1.996461 1_565
O16 Sr2 2.735021 1_555
O17 Ti2 1.963219 1_556
O17 Sr3 2.580788 1_555
O18 Sr0 2.721277 1_555
O20 Sr1 2.705483 1_655
O21 Ti0 1.943044 1_656
O23 Ti1 1.940764 1_656
O23 Ti3 2.008247 1_556
O24 Sr3 2.717156 1_554
O25 Sr0 2.557118 1_555
O25 Sr2 2.575234 1_555
O26 Ti2 1.934591 1_565
O28 Ti1 1.948128 1_655
O29 Sr1 2.565244 1_655
O30 Ti0 1.946571 1_665
O30 Ti3 1.999943 1_555
O32 Ti0 1.995954 1_555
O33 Sr1 2.526605 1_555
O34 Ti1 1.993230 1_555
O35 Sr0 2.721335 1_555
O35 Sr1 3.155128 1_555
O36 Ti2 1.970849 1_555
O37 Sr2 2.536389 1_555
O39 Sr0 2.847901 1_555
O39 Sr2 3.169783 1_555
O41 Sr3 2.479262 1_555
O43 Ti2 2.020091 1_566
O45 Ti1 1.981666 1_656
O47 Ti0 2.009013 1_666
O49 Sr2 2.747583 1_555
O49 Sr1 2.793490 1_555
O49 Sr0 3.133632 1_555
O51 Sr0 2.460167 1_555
O53 Sr1 2.687413 1_655
O53 Sr2 2.773253 1_555
O54 Ti3 1.974345 1_555
O57 Sr3 2.719767 1_555
O61 Sr3 2.877365 1_555
O63 Ti3 2.009310 1_556
O65 Sr3 2.396132 1_555
O67 Sr0 2.434366 1_555
O73 Sr1 2.459514 1_555
O77 Sr2 2.421880 1_555
