# generated using pymatgen
data_Mg(TiS2)2
_symmetry_space_group_name_H-M   'P 1'
_cell_length_a   7.08970011
_cell_length_b   7.08970011
_cell_length_c   7.08970011
_cell_angle_alpha   119.62658354
_cell_angle_beta   119.58873348
_cell_angle_gamma   90.68091250
_symmetry_Int_Tables_number   1
_chemical_formula_structural   Mg(TiS2)2
_chemical_formula_sum   'Mg2 Ti4 S8'
_cell_volume   253.45636335
_cell_formula_units_Z   2
loop_
 _symmetry_equiv_pos_site_id
 _symmetry_equiv_pos_as_xyz
  1  'x, y, z'
loop_
 _atom_site_type_symbol
 _atom_site_label
 _atom_site_symmetry_multiplicity
 _atom_site_fract_x
 _atom_site_fract_y
 _atom_site_fract_z
 _atom_site_occupancy
  Mg  Mg0  1  0.50000000  0.50000000  0.00000000  1
  Mg  Mg1  1  0.00000000  0.50000000  0.50000000  1
  Ti  Ti0  1  0.00000000  0.50000000  0.00000000  1
  Ti  Ti1  1  0.50000000  0.00000000  0.50000000  1
  Ti  Ti2  1  0.00000000  0.00000000  0.50000000  1
  Ti  Ti3  1  0.00000000  0.00000000  0.00000000  1
  S  S0  1  0.76097100  0.75312700  0.00784400  1
  S  S1  1  0.25051400  0.75621500  0.00570000  1
  S  S2  1  0.24528200  0.75312700  0.49215600  1
  S  S3  1  0.74948600  0.75518600  0.50570000  1
  S  S4  1  0.75471800  0.24687300  0.50784400  1
  S  S5  1  0.74948600  0.24378500  0.99430000  1
  S  S6  1  0.25051400  0.24481400  0.49430000  1
  S  S7  1  0.23902900  0.24687300  0.99215600  1
loop_
_geom_bond_atom_site_label_1
_geom_bond_atom_site_label_2
_geom_bond_distance
_geom_bond_site_symmetry_2
Mg0 S0 2.523435 1_555
Mg0 S7 2.523435 1_554
Mg0 S3 2.550333 1_555
Mg0 S6 2.550333 1_554
Mg0 S1 2.550338 1_555
Mg0 S5 2.550338 1_554
Mg1 S2 2.523430 1_555
Mg1 S4 2.523430 1_455
Mg1 S3 2.550333 1_455
Mg1 S6 2.550333 1_555
Mg1 S5 2.550333 1_454
Mg1 S1 2.550333 1_556
S0 Ti3 2.461120 1_665
S0 Ti0 2.482370 1_655
S0 Ti2 2.482370 1_665
S1 Ti3 2.492875 1_565
S1 Ti1 2.492881 1_565
S1 Ti0 2.497108 1_555
S2 Ti1 2.461125 1_565
S2 Ti2 2.482365 1_565
S2 Ti0 2.482370 1_555
S3 Ti3 2.492880 1_666
S3 Ti1 2.492880 1_565
S3 Ti2 2.497103 1_665
S4 Ti1 2.461125 1_555
S4 Ti2 2.482365 1_655
S4 Ti0 2.482370 1_656
S5 Ti3 2.492875 1_656
S5 Ti1 2.492881 1_555
S5 Ti0 2.497108 1_656
S6 Ti1 2.492880 1_555
S6 Ti3 2.492880 1_555
S6 Ti2 2.497103 1_555
S7 Ti3 2.461120 1_556
S7 Ti2 2.482370 1_555
S7 Ti0 2.482370 1_556
