# generated using pymatgen
data_NbInNi
_symmetry_space_group_name_H-M   'P 1'
_cell_length_a   11.78547222
_cell_length_b   11.78417778
_cell_length_c   11.79835267
_cell_angle_alpha   29.81797747
_cell_angle_beta   29.83293598
_cell_angle_gamma   42.65827245
_symmetry_Int_Tables_number   1
_chemical_formula_structural   NbInNi
_chemical_formula_sum   'Nb8 In8 Ni8'
_cell_volume   404.34575440
_cell_formula_units_Z   8
loop_
 _symmetry_equiv_pos_site_id
 _symmetry_equiv_pos_as_xyz
  1  'x, y, z'
loop_
 _atom_site_type_symbol
 _atom_site_label
 _atom_site_symmetry_multiplicity
 _atom_site_fract_x
 _atom_site_fract_y
 _atom_site_fract_z
 _atom_site_occupancy
  Nb  Nb0_0  1  0.13661350  0.13642350  0.12578750  1
  Nb  Nb0_1  1  0.13661350  0.13642350  0.62578750  1
  Nb  Nb0_2  1  0.13661350  0.63642350  0.12578750  1
  Nb  Nb0_3  1  0.13661350  0.63642350  0.62578750  1
  Nb  Nb0_4  1  0.63661350  0.13642350  0.12578750  1
  Nb  Nb0_5  1  0.63661350  0.13642350  0.62578750  1
  Nb  Nb0_6  1  0.63661350  0.63642350  0.12578750  1
  Nb  Nb0_7  1  0.63661350  0.63642350  0.62578750  1
  In  In0_0  1  0.28568700  0.28504900  0.12446700  1
  In  In0_1  1  0.28568700  0.28504900  0.62446700  1
  In  In0_2  1  0.28568700  0.78504900  0.12446700  1
  In  In0_3  1  0.28568700  0.78504900  0.62446700  1
  In  In0_4  1  0.78568700  0.28504900  0.12446700  1
  In  In0_5  1  0.78568700  0.28504900  0.62446700  1
  In  In0_6  1  0.78568700  0.78504900  0.12446700  1
  In  In0_7  1  0.78568700  0.78504900  0.62446700  1
  Ni  Ni0_0  1  0.45269850  0.45352750  0.12474550  1
  Ni  Ni0_1  1  0.45269850  0.45352750  0.62474550  1
  Ni  Ni0_2  1  0.45269850  0.95352750  0.12474550  1
  Ni  Ni0_3  1  0.45269850  0.95352750  0.62474550  1
  Ni  Ni0_4  1  0.95269850  0.45352750  0.12474550  1
  Ni  Ni0_5  1  0.95269850  0.45352750  0.62474550  1
  Ni  Ni0_6  1  0.95269850  0.95352750  0.12474550  1
  Ni  Ni0_7  1  0.95269850  0.95352750  0.62474550  1
loop_
_geom_bond_atom_site_label_1
_geom_bond_atom_site_label_2
_geom_bond_distance
_geom_bond_site_symmetry_2
Nb0_0 Ni0_2 2.584590 1_545
Nb0_0 Ni0_4 2.591430 1_455
Nb0_0 Ni0_7 2.591451 1_445
Nb0_0 Ni0_1 2.592947 1_554
Nb0_1 Ni0_3 2.584590 1_545
Nb0_1 Ni0_5 2.591430 1_455
Nb0_1 Ni0_6 2.591451 1_446
Nb0_1 Ni0_0 2.592947 1_555
Nb0_2 Ni0_0 2.584590 1_555
Nb0_2 Ni0_6 2.591430 1_455
Nb0_2 Ni0_5 2.591451 1_455
Nb0_2 Ni0_3 2.592947 1_554
Nb0_3 Ni0_1 2.584590 1_555
Nb0_3 Ni0_7 2.591430 1_455
Nb0_3 Ni0_4 2.591451 1_456
Nb0_3 Ni0_2 2.592947 1_555
Nb0_4 Ni0_6 2.584590 1_545
Nb0_4 Ni0_0 2.591430 1_555
Nb0_4 Ni0_3 2.591451 1_545
Nb0_4 Ni0_5 2.592947 1_554
Nb0_5 Ni0_7 2.584590 1_545
Nb0_5 Ni0_1 2.591430 1_555
Nb0_5 Ni0_2 2.591451 1_546
Nb0_5 Ni0_4 2.592947 1_555
Nb0_6 Ni0_4 2.584590 1_555
Nb0_6 Ni0_2 2.591430 1_555
Nb0_6 Ni0_1 2.591451 1_555
Nb0_6 Ni0_7 2.592947 1_554
Nb0_7 Ni0_5 2.584590 1_555
Nb0_7 Ni0_3 2.591430 1_555
Nb0_7 Ni0_0 2.591451 1_556
Nb0_7 Ni0_6 2.592947 1_555
In0_0 Ni0_2 2.795633 1_545
In0_0 Ni0_7 2.802060 1_445
In0_0 Ni0_4 2.805705 1_455
In0_0 Ni0_1 2.807023 1_554
In0_0 In0_3 3.033716 1_545
In0_0 In0_3 3.033716 1_554
In0_0 In0_5 3.035369 1_455
In0_0 In0_5 3.035369 1_554
In0_0 Nb0_7 3.092511 1_554
In0_0 Nb0_4 3.095687 1_555
In0_0 Nb0_2 3.097848 1_555
In0_0 Nb0_1 3.108004 1_555
In0_0 Nb0_0 3.253528 1_555
In0_1 Ni0_3 2.795633 1_545
In0_1 Ni0_6 2.802060 1_446
In0_1 Ni0_5 2.805705 1_455
In0_1 Ni0_0 2.807023 1_555
In0_1 In0_2 3.033716 1_555
In0_1 In0_2 3.033716 1_546
In0_1 In0_4 3.035369 1_555
In0_1 In0_4 3.035369 1_456
In0_1 Nb0_6 3.092511 1_555
In0_1 Nb0_5 3.095687 1_555
In0_1 Nb0_3 3.097848 1_555
In0_1 Nb0_0 3.108004 1_556
In0_1 Nb0_1 3.253528 1_555
In0_2 Ni0_0 2.795633 1_555
In0_2 Ni0_5 2.802060 1_455
In0_2 Ni0_6 2.805705 1_455
In0_2 Ni0_3 2.807023 1_554
In0_2 In0_7 3.035369 1_554
In0_2 In0_7 3.035369 1_455
In0_2 Nb0_5 3.092511 1_564
In0_2 Nb0_6 3.095687 1_555
In0_2 Nb0_0 3.097848 1_565
In0_2 Nb0_3 3.108004 1_555
In0_2 Nb0_2 3.253528 1_555
In0_3 Ni0_1 2.795633 1_555
In0_3 Ni0_4 2.802060 1_456
In0_3 Ni0_7 2.805705 1_455
In0_3 Ni0_2 2.807023 1_555
In0_3 In0_6 3.035369 1_456
In0_3 In0_6 3.035369 1_555
In0_3 Nb0_4 3.092511 1_565
In0_3 Nb0_7 3.095687 1_555
In0_3 Nb0_1 3.097848 1_565
In0_3 Nb0_2 3.108004 1_556
In0_3 Nb0_3 3.253528 1_555
In0_4 Ni0_6 2.795633 1_545
In0_4 Ni0_3 2.802060 1_545
In0_4 Ni0_0 2.805705 1_555
In0_4 Ni0_5 2.807023 1_554
In0_4 In0_7 3.033716 1_554
In0_4 In0_7 3.033716 1_545
In0_4 Nb0_3 3.092511 1_654
In0_4 Nb0_0 3.095687 1_655
In0_4 Nb0_6 3.097848 1_555
In0_4 Nb0_5 3.108004 1_555
In0_4 Nb0_4 3.253528 1_555
In0_5 Ni0_7 2.795633 1_545
In0_5 Ni0_2 2.802060 1_546
In0_5 Ni0_1 2.805705 1_555
In0_5 Ni0_4 2.807023 1_555
In0_5 In0_6 3.033716 1_546
In0_5 In0_6 3.033716 1_555
In0_5 Nb0_2 3.092511 1_655
In0_5 Nb0_1 3.095687 1_655
In0_5 Nb0_7 3.097848 1_555
In0_5 Nb0_4 3.108004 1_556
In0_5 Nb0_5 3.253528 1_555
In0_6 Ni0_4 2.795633 1_555
In0_6 Ni0_1 2.802060 1_555
In0_6 Ni0_2 2.805705 1_555
In0_6 Ni0_7 2.807023 1_554
In0_6 Nb0_1 3.092511 1_664
In0_6 Nb0_2 3.095687 1_655
In0_6 Nb0_4 3.097848 1_565
In0_6 Nb0_7 3.108004 1_555
In0_6 Nb0_6 3.253528 1_555
In0_7 Ni0_5 2.795633 1_555
In0_7 Ni0_0 2.802060 1_556
In0_7 Ni0_3 2.805705 1_555
In0_7 Ni0_6 2.807023 1_555
In0_7 Nb0_0 3.092511 1_665
In0_7 Nb0_3 3.095687 1_655
In0_7 Nb0_5 3.097848 1_565
In0_7 Nb0_6 3.108004 1_556
In0_7 Nb0_7 3.253528 1_555
