# generated using pymatgen
data_Mg2Cu2CO11
_symmetry_space_group_name_H-M   'P 1'
_cell_length_a   7.76390631
_cell_length_b   7.76390631
_cell_length_c   7.39982454
_cell_angle_alpha   83.11583374
_cell_angle_beta   83.11583374
_cell_angle_gamma   92.35753457
_symmetry_Int_Tables_number   1
_chemical_formula_structural   Mg2Cu2CO11
_chemical_formula_sum   'Mg4 Cu4 C2 O22'
_cell_volume   438.94243232
_cell_formula_units_Z   2
loop_
 _symmetry_equiv_pos_site_id
 _symmetry_equiv_pos_as_xyz
  1  'x, y, z'
loop_
 _atom_site_type_symbol
 _atom_site_label
 _atom_site_symmetry_multiplicity
 _atom_site_fract_x
 _atom_site_fract_y
 _atom_site_fract_z
 _atom_site_occupancy
  Mg  Mg0  1  0.14501600  0.49251900  0.31411500  1
  Mg  Mg1  1  0.50748100  0.85498400  0.18588500  1
  Mg  Mg2  1  0.85498400  0.50748100  0.68588500  1
  Mg  Mg3  1  0.49251900  0.14501600  0.81411500  1
  Cu  Cu0  1  0.04733600  0.83152300  0.47254300  1
  Cu  Cu1  1  0.16847700  0.95266400  0.02745700  1
  Cu  Cu2  1  0.95266400  0.16847700  0.52745700  1
  Cu  Cu3  1  0.83152300  0.04733600  0.97254300  1
  C  C0  1  0.54139900  0.45860100  0.25000000  1
  C  C1  1  0.45860100  0.54139800  0.75000000  1
  O  O0  1  0.38319300  0.40733300  0.25021100  1
  O  O1  1  0.59266700  0.61680700  0.24978900  1
  O  O2  1  0.61680700  0.59266700  0.74978900  1
  O  O3  1  0.40733300  0.38319300  0.75021100  1
  O  O4  1  0.24011500  0.73621800  0.15577200  1
  O  O5  1  0.26378200  0.75988500  0.34422800  1
  O  O6  1  0.75988500  0.26378200  0.84422800  1
  O  O7  1  0.73621800  0.24011500  0.65577200  1
  O  O8  1  0.84851300  0.95513400  0.50781200  1
  O  O9  1  0.04486600  0.15148700  0.99218800  1
  O  O10  1  0.15148700  0.04486600  0.49218800  1
  O  O11  1  0.95513400  0.84851300  0.00781200  1
  O  O12  1  0.94075900  0.62831300  0.42724300  1
  O  O13  1  0.37168700  0.05924100  0.07275700  1
  O  O14  1  0.05924100  0.37168700  0.57275700  1
  O  O15  1  0.62831300  0.94075900  0.92724300  1
  O  O16  1  0.98264500  0.29172300  0.26466800  1
  O  O17  1  0.70827700  0.01735500  0.23533200  1
  O  O18  1  0.01735500  0.70827700  0.73533200  1
  O  O19  1  0.29172300  0.98264500  0.76466800  1
  O  O20  1  0.65590600  0.34409400  0.25000000  1
  O  O21  1  0.34409400  0.65590600  0.75000000  1
loop_
_geom_bond_atom_site_label_1
_geom_bond_atom_site_label_2
_geom_bond_distance
_geom_bond_site_symmetry_2
Mg0 O0 2.011586 1_555
Mg0 O14 2.049205 1_555
Mg0 O16 2.058902 1_455
Mg0 O12 2.087596 1_455
Mg0 O4 2.155029 1_555
Mg0 O5 2.282879 1_555
Mg1 O1 2.011586 1_555
Mg1 O15 2.049205 1_554
Mg1 O17 2.058902 1_565
Mg1 O13 2.087596 1_565
Mg1 O5 2.155029 1_555
Mg1 O4 2.282879 1_555
Mg2 O2 2.011586 1_555
Mg2 O12 2.049205 1_555
Mg2 O18 2.058902 1_655
Mg2 O14 2.087596 1_655
Mg2 O6 2.155029 1_555
Mg2 O7 2.282879 1_555
Mg3 O3 2.011586 1_555
Mg3 O13 2.049205 1_556
Mg3 O19 2.058902 1_545
Mg3 O15 2.087596 1_545
Mg3 O7 2.155029 1_555
Mg3 O6 2.282879 1_555
Cu0 O12 1.836319 1_455
Cu0 O10 1.842359 1_565
Cu0 O8 1.859388 1_455
Cu0 O5 1.963636 1_555
Cu0 O18 2.044096 1_555
Cu1 O13 1.836319 1_565
Cu1 O11 1.842359 1_455
Cu1 O9 1.859388 1_564
Cu1 O4 1.963636 1_555
Cu1 O19 2.044096 1_554
Cu2 O14 1.836319 1_655
Cu2 O8 1.842359 1_545
Cu2 O10 1.859388 1_655
Cu2 O7 1.963636 1_555
Cu2 O16 2.044096 1_555
Cu3 O15 1.836319 1_545
Cu3 O9 1.842359 1_655
Cu3 O11 1.859388 1_546
Cu3 O6 1.963636 1_555
Cu3 O17 2.044096 1_556
C0 O0 1.275272 1_555
C0 O1 1.275272 1_555
C0 O20 1.282865 1_555
C1 O3 1.275265 1_555
C1 O2 1.275274 1_555
C1 O21 1.282870 1_555
O4 O5 1.460257 1_555
O6 O7 1.460257 1_555
