# generated using pymatgen
data_Rb2ErTi(PO4)3
_symmetry_space_group_name_H-M   'P 1'
_cell_length_a   10.32263400
_cell_length_b   10.32263400
_cell_length_c   10.32263400
_cell_angle_alpha   90.00000000
_cell_angle_beta   90.00000000
_cell_angle_gamma   90.00000000
_symmetry_Int_Tables_number   1
_chemical_formula_structural   Rb2ErTi(PO4)3
_chemical_formula_sum   'Rb8 Er4 Ti4 P12 O48'
_cell_volume   1099.94656478
_cell_formula_units_Z   4
loop_
 _symmetry_equiv_pos_site_id
 _symmetry_equiv_pos_as_xyz
  1  'x, y, z'
loop_
 _atom_site_type_symbol
 _atom_site_label
 _atom_site_symmetry_multiplicity
 _atom_site_fract_x
 _atom_site_fract_y
 _atom_site_fract_z
 _atom_site_occupancy
  Rb  Rb0  1  0.32139400  0.82139400  0.67860600  1
  Rb  Rb1  1  0.82139400  0.67860600  0.32139400  1
  Rb  Rb2  1  0.67860600  0.32139400  0.82139400  1
  Rb  Rb3  1  0.17860600  0.17860600  0.17860600  1
  Rb  Rb4  1  0.54212900  0.04212900  0.45787100  1
  Rb  Rb5  1  0.04212900  0.45787100  0.54212900  1
  Rb  Rb6  1  0.45787100  0.54212900  0.04212900  1
  Rb  Rb7  1  0.95787100  0.95787100  0.95787100  1
  Er  Er0  1  0.83505800  0.33505800  0.16494200  1
  Er  Er1  1  0.33505800  0.16494200  0.83505800  1
  Er  Er2  1  0.16494200  0.83505800  0.33505800  1
  Er  Er3  1  0.66494200  0.66494200  0.66494200  1
  Ti  Ti0  1  0.10671700  0.60671700  0.89328300  1
  Ti  Ti1  1  0.60671700  0.89328300  0.10671700  1
  Ti  Ti2  1  0.89328300  0.10671700  0.60671700  1
  Ti  Ti3  1  0.39328300  0.39328300  0.39328300  1
  P  P0  1  0.13452300  0.51278300  0.20355000  1
  P  P1  1  0.79645000  0.63452300  0.98721700  1
  P  P2  1  0.01278300  0.29645000  0.86547700  1
  P  P3  1  0.63452300  0.98721700  0.79645000  1
  P  P4  1  0.29645000  0.86547700  0.01278300  1
  P  P5  1  0.51278300  0.20355000  0.13452300  1
  P  P6  1  0.86547700  0.01278300  0.29645000  1
  P  P7  1  0.20355000  0.13452300  0.51278300  1
  P  P8  1  0.98721700  0.79645000  0.63452300  1
  P  P9  1  0.36547700  0.48721700  0.70355000  1
  P  P10  1  0.70355000  0.36547700  0.48721700  1
  P  P11  1  0.48721700  0.70355000  0.36547700  1
  O  O0  1  0.16440300  0.51537600  0.05466600  1
  O  O1  1  0.94533400  0.66440300  0.98462400  1
  O  O2  1  0.01537600  0.44533400  0.83559700  1
  O  O3  1  0.66440300  0.98462400  0.94533400  1
  O  O4  1  0.44533400  0.83559700  0.01537600  1
  O  O5  1  0.51537600  0.05466600  0.16440300  1
  O  O6  1  0.83559700  0.01537600  0.44533400  1
  O  O7  1  0.05466600  0.16440300  0.51537600  1
  O  O8  1  0.98462400  0.94533400  0.66440300  1
  O  O9  1  0.33559700  0.48462400  0.55466600  1
  O  O10  1  0.55466600  0.33559700  0.48462400  1
  O  O11  1  0.48462400  0.55466600  0.33559700  1
  O  O12  1  0.24391100  0.54476200  0.77459300  1
  O  O13  1  0.22540700  0.74391100  0.95523800  1
  O  O14  1  0.04476200  0.72540700  0.75608900  1
  O  O15  1  0.74391100  0.95523800  0.22540700  1
  O  O16  1  0.72540700  0.75608900  0.04476200  1
  O  O17  1  0.54476200  0.77459300  0.24391100  1
  O  O18  1  0.75608900  0.04476200  0.72540700  1
  O  O19  1  0.77459300  0.24391100  0.54476200  1
  O  O20  1  0.95523800  0.22540700  0.74391100  1
  O  O21  1  0.25608900  0.45523800  0.27459300  1
  O  O22  1  0.27459300  0.25608900  0.45523800  1
  O  O23  1  0.45523800  0.27459300  0.25608900  1
  O  O24  1  0.75618000  0.39644200  0.35276600  1
  O  O25  1  0.64723400  0.25618000  0.10355800  1
  O  O26  1  0.89644200  0.14723400  0.24382000  1
  O  O27  1  0.25618000  0.10355800  0.64723400  1
  O  O28  1  0.14723400  0.24382000  0.89644200  1
  O  O29  1  0.39644200  0.35276600  0.75618000  1
  O  O30  1  0.24382000  0.89644200  0.14723400  1
  O  O31  1  0.35276600  0.75618000  0.39644200  1
  O  O32  1  0.10355800  0.64723400  0.25618000  1
  O  O33  1  0.74382000  0.60355800  0.85276600  1
  O  O34  1  0.85276600  0.74382000  0.60355800  1
  O  O35  1  0.60355800  0.85276600  0.74382000  1
  O  O36  1  0.02059900  0.42065600  0.23126200  1
  O  O37  1  0.76873800  0.52059900  0.07934400  1
  O  O38  1  0.92065600  0.26873800  0.97940100  1
  O  O39  1  0.52059900  0.07934400  0.76873800  1
  O  O40  1  0.26873800  0.97940100  0.92065600  1
  O  O41  1  0.42065600  0.23126200  0.02059900  1
  O  O42  1  0.97940100  0.92065600  0.26873800  1
  O  O43  1  0.23126200  0.02059900  0.42065600  1
  O  O44  1  0.07934400  0.76873800  0.52059900  1
  O  O45  1  0.47940100  0.57934400  0.73126200  1
  O  O46  1  0.73126200  0.47940100  0.57934400  1
  O  O47  1  0.57934400  0.73126200  0.47940100  1
loop_
_geom_bond_atom_site_label_1
_geom_bond_atom_site_label_2
_geom_bond_distance
_geom_bond_site_symmetry_2
Er0 O24 2.196262 1_555
Er0 O26 2.196262 1_555
Er0 O25 2.196262 1_555
Er0 O38 2.217585 1_554
Er0 O37 2.217585 1_555
Er0 O36 2.217585 1_655
Er1 O29 2.196262 1_555
Er1 O28 2.196262 1_555
Er1 O27 2.196262 1_555
Er1 O40 2.217585 1_545
Er1 O39 2.217585 1_555
Er1 O41 2.217585 1_556
Er2 O31 2.196262 1_555
Er2 O30 2.196262 1_555
Er2 O32 2.196262 1_555
Er2 O42 2.217585 1_455
Er2 O44 2.217585 1_555
Er2 O43 2.217585 1_565
Er3 O34 2.196262 1_555
Er3 O35 2.196262 1_555
Er3 O33 2.196262 1_555
Er3 O46 2.217585 1_555
Er3 O47 2.217585 1_555
Er3 O45 2.217585 1_555
O0 P0 1.567749 1_555
O0 Ti0 2.004700 1_554
O0 Rb6 3.044676 1_555
O1 P1 1.567749 1_555
O1 Ti0 2.004700 1_655
O1 Rb7 3.044676 1_555
O2 P2 1.567749 1_555
O2 Ti0 2.004700 1_555
O2 Rb5 3.044676 1_555
O3 P3 1.567749 1_555
O3 Ti1 2.004700 1_556
O3 Rb7 3.044676 1_555
O4 P4 1.567749 1_555
O4 Ti1 2.004700 1_555
O4 Rb6 3.044676 1_555
O5 P5 1.567749 1_555
O5 Ti1 2.004700 1_545
O5 Rb4 3.044676 1_555
O6 P6 1.567749 1_555
O6 Ti2 2.004700 1_555
O6 Rb4 3.044676 1_555
O7 P7 1.567749 1_555
O7 Ti2 2.004700 1_455
O7 Rb5 3.044676 1_555
O8 P8 1.567749 1_555
O8 Ti2 2.004700 1_565
O8 Rb7 3.044676 1_555
O9 P9 1.567749 1_555
O9 Ti3 2.004700 1_555
O9 Rb5 3.044676 1_555
O10 P10 1.567749 1_555
O10 Ti3 2.004700 1_555
O10 Rb4 3.044676 1_555
O11 P11 1.567749 1_555
O11 Ti3 2.004700 1_555
O11 Rb6 3.044676 1_555
O12 P9 1.570155 1_555
O12 Ti0 1.978823 1_555
O12 Rb0 3.126623 1_555
O12 Rb5 3.301719 1_555
O13 P4 1.570155 1_556
O13 Ti0 1.978823 1_555
O13 Rb0 3.126623 1_555
O13 Rb6 3.301719 1_556
O14 P8 1.570155 1_455
O14 Ti0 1.978823 1_555
O14 Rb0 3.126623 1_555
O14 Rb7 3.301719 1_455
O15 P6 1.570155 1_565
O15 Ti1 1.978823 1_555
O15 Rb1 3.126623 1_555
O15 Rb4 3.301719 1_565
O16 P1 1.570155 1_554
O16 Ti1 1.978823 1_555
O16 Rb1 3.126623 1_555
O16 Rb7 3.301719 1_554
O17 P11 1.570155 1_555
O17 Ti1 1.978823 1_555
O17 Rb1 3.126623 1_555
O17 Rb6 3.301719 1_555
O18 P3 1.570155 1_545
O18 Ti2 1.978823 1_555
O18 Rb2 3.126623 1_555
O18 Rb7 3.301719 1_545
O19 P10 1.570155 1_555
O19 Ti2 1.978823 1_555
O19 Rb2 3.126623 1_555
O19 Rb4 3.301719 1_555
O20 P2 1.570155 1_655
O20 Ti2 1.978823 1_555
O20 Rb2 3.126623 1_555
O20 Rb5 3.301719 1_655
O21 P0 1.570155 1_555
O21 Ti3 1.978823 1_555
O21 Rb3 3.126623 1_555
O21 Rb6 3.301719 1_555
O22 P7 1.570155 1_555
O22 Ti3 1.978823 1_555
O22 Rb3 3.126623 1_555
O22 Rb5 3.301719 1_555
O23 P5 1.570155 1_555
O23 Ti3 1.978823 1_555
O23 Rb3 3.126623 1_555
O23 Rb4 3.301719 1_555
O24 P10 1.524322 1_555
O24 Rb1 3.006946 1_555
O25 P5 1.524322 1_555
O25 Rb2 3.006946 1_554
O26 P6 1.524322 1_555
O26 Rb3 3.006946 1_655
O27 P7 1.524322 1_555
O27 Rb0 3.006946 1_545
O28 P2 1.524322 1_555
O28 Rb3 3.006946 1_556
O29 P9 1.524322 1_555
O29 Rb2 3.006946 1_555
O30 P4 1.524322 1_555
O30 Rb3 3.006946 1_565
O31 P11 1.524322 1_555
O31 Rb0 3.006946 1_555
O32 P0 1.524322 1_555
O32 Rb1 3.006946 1_455
O33 P1 1.524322 1_555
O33 Rb2 3.006946 1_555
O34 P8 1.524322 1_555
O34 Rb1 3.006946 1_555
O35 P3 1.524322 1_555
O35 Rb0 3.006946 1_555
O36 P0 1.539216 1_555
O36 Rb3 3.032941 1_555
O36 Rb5 3.239511 1_555
O37 P1 1.539216 1_554
O37 Rb1 3.032941 1_555
O37 Rb6 3.239511 1_555
O38 P2 1.539216 1_655
O38 Rb2 3.032941 1_555
O38 Rb7 3.239511 1_545
O39 P3 1.539216 1_545
O39 Rb2 3.032941 1_555
O39 Rb4 3.239511 1_555
O40 P4 1.539216 1_556
O40 Rb0 3.032941 1_555
O40 Rb7 3.239511 1_455
O41 P5 1.539216 1_555
O41 Rb3 3.032941 1_555
O41 Rb6 3.239511 1_555
O42 P6 1.539216 1_565
O42 Rb1 3.032941 1_555
O42 Rb7 3.239511 1_554
O43 P7 1.539216 1_555
O43 Rb3 3.032941 1_555
O43 Rb4 3.239511 1_555
O44 P8 1.539216 1_455
O44 Rb0 3.032941 1_555
O44 Rb5 3.239511 1_555
O45 P9 1.539216 1_555
O45 Rb0 3.032941 1_555
O45 Rb6 3.239511 1_556
O46 P10 1.539216 1_555
O46 Rb2 3.032941 1_555
O46 Rb5 3.239511 1_655
O47 P11 1.539216 1_555
O47 Rb1 3.032941 1_555
O47 Rb4 3.239511 1_565
