# generated using pymatgen
data_Ca3(NiN2)2
_symmetry_space_group_name_H-M   'P 1'
_cell_length_a   6.69312658
_cell_length_b   8.34550746
_cell_length_c   5.41638694
_cell_angle_alpha   89.99999860
_cell_angle_beta   91.66132898
_cell_angle_gamma   128.56768621
_symmetry_Int_Tables_number   1
_chemical_formula_structural   Ca3(NiN2)2
_chemical_formula_sum   'Ca6 Ni4 N8'
_cell_volume   236.38966377
_cell_formula_units_Z   2
loop_
 _symmetry_equiv_pos_site_id
 _symmetry_equiv_pos_as_xyz
  1  'x, y, z'
loop_
 _atom_site_type_symbol
 _atom_site_label
 _atom_site_symmetry_multiplicity
 _atom_site_fract_x
 _atom_site_fract_y
 _atom_site_fract_z
 _atom_site_occupancy
  Ca  Ca0  1  0.24487800  0.98930200  0.04902900  1
  Ca  Ca1  1  0.75512200  0.74442500  0.45097100  1
  Ca  Ca2  1  0.75512200  0.01069800  0.95097100  1
  Ca  Ca3  1  0.24487800  0.25557500  0.54902900  1
  Ca  Ca4  1  0.00000000  0.59607000  0.75000000  1
  Ca  Ca5  1  0.00000000  0.40393000  0.25000000  1
  Ni  Ni0  1  0.58737600  0.16486200  0.58762700  1
  Ni  Ni1  1  0.41262400  0.57748600  0.91237300  1
  Ni  Ni2  1  0.41262400  0.83513800  0.41237300  1
  Ni  Ni3  1  0.58737600  0.42251400  0.08762700  1
  N  N0  1  0.23273800  0.94153400  0.52062600  1
  N  N1  1  0.76726200  0.70879600  0.97937400  1
  N  N2  1  0.76726200  0.05846600  0.47937400  1
  N  N3  1  0.23273800  0.29120400  0.02062600  1
  N  N4  1  0.67225900  0.26555000  0.91908300  1
  N  N5  1  0.32774100  0.59329100  0.58091700  1
  N  N6  1  0.32774100  0.73445000  0.08091700  1
  N  N7  1  0.67225900  0.40670900  0.41908300  1
loop_
_geom_bond_atom_site_label_1
_geom_bond_atom_site_label_2
_geom_bond_distance
_geom_bond_site_symmetry_2
Ca0 N4 2.426289 1_564
Ca0 N6 2.515203 1_555
Ca0 N1 2.537860 1_454
Ca0 N3 2.575426 1_565
Ca0 N0 2.581062 1_555
Ca0 N0 2.881474 1_554
Ca1 N5 2.426287 1_555
Ca1 N7 2.515211 1_555
Ca1 N0 2.537861 1_655
Ca1 N2 2.575417 1_565
Ca1 N1 2.581063 1_554
Ca1 N1 2.881475 1_555
Ca2 N6 2.426289 1_546
Ca2 N4 2.515203 1_555
Ca2 N3 2.537860 1_656
Ca2 N1 2.575426 1_545
Ca2 N2 2.581062 1_555
Ca2 N2 2.881474 1_556
Ca3 N7 2.426287 1_555
Ca3 N5 2.515211 1_555
Ca3 N2 2.537861 1_455
Ca3 N0 2.575417 1_545
Ca3 N3 2.581063 1_556
Ca3 N3 2.881475 1_555
Ca4 N4 2.414770 1_455
Ca4 N5 2.414770 1_555
Ca4 N7 2.443673 1_455
Ca4 N6 2.443673 1_556
Ca4 N0 2.606637 1_555
Ca4 N1 2.606637 1_455
Ca5 N6 2.414770 1_555
Ca5 N7 2.414770 1_455
Ca5 N5 2.443673 1_555
Ca5 N4 2.443673 1_454
Ca5 N2 2.606637 1_455
Ca5 N3 2.606637 1_555
N0 Ni0 1.916632 1_565
N0 Ni2 1.988908 1_555
N1 Ni1 1.916632 1_555
N1 Ni3 1.988908 1_556
N2 Ni2 1.916632 1_545
N2 Ni0 1.988908 1_555
N3 Ni3 1.916632 1_555
N3 Ni1 1.988908 1_554
N4 Ni0 1.896721 1_555
N4 Ni3 1.957075 1_556
N5 Ni1 1.896721 1_555
N5 Ni2 1.957074 1_555
N6 Ni2 1.896721 1_555
N6 Ni1 1.957075 1_554
N7 Ni3 1.896721 1_555
N7 Ni0 1.957074 1_555
