# generated using pymatgen
data_Mg2TiV3S8
_symmetry_space_group_name_H-M   'P 1'
_cell_length_a   7.32010727
_cell_length_b   7.23321378
_cell_length_c   7.33995323
_cell_angle_alpha   59.43104185
_cell_angle_beta   59.84017521
_cell_angle_gamma   59.44015075
_symmetry_Int_Tables_number   1
_chemical_formula_structural   Mg2TiV3S8
_chemical_formula_sum   'Mg2 Ti1 V3 S8'
_cell_volume   272.11390234
_cell_formula_units_Z   1
loop_
 _symmetry_equiv_pos_site_id
 _symmetry_equiv_pos_as_xyz
  1  'x, y, z'
loop_
 _atom_site_type_symbol
 _atom_site_label
 _atom_site_symmetry_multiplicity
 _atom_site_fract_x
 _atom_site_fract_y
 _atom_site_fract_z
 _atom_site_occupancy
  Mg  Mg0  1  0.87437734  0.87590058  0.87462481  1
  Mg  Mg1  1  0.12563631  0.12410305  0.12537376  1
  Ti  Ti0  1  0.49999123  0.99999237  0.50000661  1
  V  V0  1  0.49997008  0.50004468  0.49995183  1
  V  V1  1  0.50004644  0.49998776  0.99999173  1
  V  V2  1  0.99997136  0.49997612  0.50006101  1
  S  S0  1  0.74020090  0.73853194  0.74011137  1
  S  S1  1  0.25907842  0.26247779  0.71843704  1
  S  S2  1  0.26288244  0.71294192  0.26257048  1
  S  S3  1  0.71839680  0.26256158  0.25914528  1
  S  S4  1  0.73707488  0.28706595  0.73740712  1
  S  S5  1  0.28162437  0.73741697  0.74085419  1
  S  S6  1  0.25981190  0.26147051  0.25990364  1
  S  S7  1  0.74094154  0.73752379  0.28156213  1
loop_
_geom_bond_atom_site_label_1
_geom_bond_atom_site_label_2
_geom_bond_distance
_geom_bond_site_symmetry_2
Mg0 S4 2.408394 1_565
Mg0 S5 2.424264 1_655
Mg0 S0 2.427224 1_555
Mg0 S7 2.428816 1_556
Mg1 S2 2.408370 1_545
Mg1 S3 2.424221 1_455
Mg1 S6 2.427310 1_555
Mg1 S1 2.428812 1_554
S0 V1 2.464415 1_555
S0 V2 2.467205 1_555
S0 Ti0 2.473162 1_555
S1 V2 2.461408 1_455
S1 V0 2.463890 1_555
S1 Ti0 2.477015 1_545
S2 V0 2.451714 1_555
S2 V2 2.455152 1_455
S2 V1 2.457519 1_554
S3 V1 2.462381 1_554
S3 V0 2.467169 1_555
S3 Ti0 2.474034 1_545
S4 V0 2.452158 1_555
S4 V2 2.454808 1_555
S4 V1 2.457402 1_555
S5 V1 2.462651 1_555
S5 V0 2.467146 1_555
S5 Ti0 2.473875 1_555
S6 V1 2.464698 1_554
S6 V2 2.467526 1_455
S6 Ti0 2.473007 1_545
S7 V2 2.461596 1_555
S7 V0 2.463906 1_555
S7 Ti0 2.476995 1_555
