# generated using pymatgen
data_Mn9Al4V3
_symmetry_space_group_name_H-M   'P 1'
_cell_length_a   4.10889003
_cell_length_b   4.10889003
_cell_length_c   13.62111708
_cell_angle_alpha   90.00000000
_cell_angle_beta   81.32508714
_cell_angle_gamma   120.00000000
_symmetry_Int_Tables_number   1
_chemical_formula_structural   Mn9Al4V3
_chemical_formula_sum   'Mn9 Al4 V3'
_cell_volume   196.11187856
_cell_formula_units_Z   1
loop_
 _symmetry_equiv_pos_site_id
 _symmetry_equiv_pos_as_xyz
  1  'x, y, z'
loop_
 _atom_site_type_symbol
 _atom_site_label
 _atom_site_symmetry_multiplicity
 _atom_site_fract_x
 _atom_site_fract_y
 _atom_site_fract_z
 _atom_site_occupancy
  Mn  Mn0  1  0.99994100  0.49997000  0.50008900  1
  Mn  Mn1  1  0.49990200  0.74995100  0.75014700  1
  Mn  Mn2  1  0.99950000  0.99975000  0.00075000  1
  Mn  Mn3  1  0.50042400  0.25021200  0.24936400  1
  Mn  Mn4  1  0.25009800  0.12504900  0.62485300  1
  Mn  Mn5  1  0.75005900  0.37503000  0.87491100  1
  Mn  Mn6  1  0.24957600  0.62478800  0.12563600  1
  Mn  Mn7  1  0.75050000  0.87525000  0.37425000  1
  Mn  Mn8  1  0.87500000  0.93750000  0.18750000  1
  Al  Al0  1  0.62508700  0.81254300  0.56237000  1
  Al  Al1  1  0.12491300  0.06245700  0.81263000  1
  Al  Al2  1  0.62397700  0.31198900  0.06403400  1
  Al  Al3  1  0.12602300  0.56301100  0.31096600  1
  V  V0  1  0.37573600  0.18786800  0.43639600  1
  V  V1  1  0.87500000  0.43750000  0.68750000  1
  V  V2  1  0.37426400  0.68713200  0.93860400  1
loop_
_geom_bond_atom_site_label_1
_geom_bond_atom_site_label_2
_geom_bond_distance
_geom_bond_site_symmetry_2
Mn0 V1 2.513734 1_555
Mn0 V0 2.521407 1_655
Mn0 V0 2.521411 1_665
Mn0 V0 2.521411 1_555
Mn1 V1 2.516690 1_565
Mn1 V1 2.516690 1_555
Mn1 V1 2.516691 1_455
Mn1 V2 2.527764 1_555
Mn2 Mn8 2.504868 1_555
Mn2 V2 2.514455 1_664
Mn2 V2 2.514455 1_654
Mn2 V2 2.514455 1_554
Mn3 V0 2.508650 1_555
Mn3 Mn8 2.513203 1_555
Mn3 Mn8 2.513203 1_545
Mn3 Mn8 2.513204 1_445
Mn4 V1 2.516690 1_445
Mn4 V1 2.516690 1_455
Mn4 V1 2.516691 1_555
Mn4 V0 2.527764 1_555
Mn5 V1 2.513734 1_555
Mn5 V2 2.521407 1_555
Mn5 V2 2.521411 1_545
Mn5 V2 2.521411 1_655
Mn6 V2 2.508650 1_554
Mn6 Mn8 2.513203 1_455
Mn6 Mn8 2.513203 1_445
Mn6 Mn8 2.513204 1_555
Mn7 Mn8 2.504868 1_555
Mn7 V0 2.514455 1_565
Mn7 V0 2.514455 1_555
Mn7 V0 2.514455 1_665
Al0 Mn0 2.515056 1_565
Al0 Mn0 2.515056 1_555
Al0 Mn0 2.515056 1_455
Al0 Mn4 2.515956 1_555
Al0 Mn4 2.515956 1_665
Al0 Mn4 2.515959 1_565
Al0 Mn1 2.518643 1_555
Al0 Mn7 2.523244 1_555
Al1 Mn5 2.515056 1_455
Al1 Mn5 2.515056 1_445
Al1 Mn5 2.515056 1_555
Al1 Mn1 2.515956 1_555
Al1 Mn1 2.515956 1_445
Al1 Mn1 2.515959 1_545
Al1 Mn4 2.518643 1_555
Al1 Mn2 2.523244 1_446
Al2 Mn3 2.485822 1_555
Al2 Mn6 2.512043 1_555
Al2 Mn6 2.512046 1_545
Al2 Mn6 2.512047 1_655
Al2 Mn2 2.519555 1_555
Al2 Mn2 2.519555 1_445
Al2 Mn2 2.519558 1_545
Al2 Mn5 2.536697 1_554
Al2 Mn8 2.893118 1_445
Al2 Mn8 2.893118 1_555
Al2 Mn8 2.893121 1_545
Al3 Mn6 2.485822 1_555
Al3 Mn3 2.512043 1_555
Al3 Mn3 2.512046 1_565
Al3 Mn3 2.512047 1_455
Al3 Mn7 2.519555 1_445
Al3 Mn7 2.519555 1_555
Al3 Mn7 2.519558 1_455
Al3 Mn0 2.536697 1_455
Al3 Mn8 2.893118 1_555
Al3 Mn8 2.893118 1_445
Al3 Mn8 2.893121 1_455
