# generated using pymatgen
data_Hf2GaSb3
_symmetry_space_group_name_H-M   'P 1'
_cell_length_a   3.90756442
_cell_length_b   3.90756442
_cell_length_c   8.68030201
_cell_angle_alpha   90.00000000
_cell_angle_beta   90.00000000
_cell_angle_gamma   90.00000000
_symmetry_Int_Tables_number   1
_chemical_formula_structural   Hf2GaSb3
_chemical_formula_sum   'Hf2 Ga1 Sb3'
_cell_volume   132.54004957
_cell_formula_units_Z   1
loop_
 _symmetry_equiv_pos_site_id
 _symmetry_equiv_pos_as_xyz
  1  'x, y, z'
loop_
 _atom_site_type_symbol
 _atom_site_label
 _atom_site_symmetry_multiplicity
 _atom_site_fract_x
 _atom_site_fract_y
 _atom_site_fract_z
 _atom_site_occupancy
  Hf  Hf0  1  0.50000000  -0.00000000  0.73987491  1
  Hf  Hf1  1  -0.00000000  0.50000000  0.26012509  1
  Ga  Ga0  1  0.50000000  0.50000000  0.00000000  1
  Sb  Sb0  1  0.50000000  -0.00000000  0.38354135  1
  Sb  Sb1  1  -0.00000000  0.50000000  0.61645865  1
  Sb  Sb2  1  0.00000000  0.00000000  0.00000000  1
loop_
_geom_bond_atom_site_label_1
_geom_bond_atom_site_label_2
_geom_bond_distance
_geom_bond_site_symmetry_2
Hf0 Sb1 2.963477 1_655
Hf0 Sb1 2.963477 1_545
Hf0 Sb1 2.963477 1_645
Hf0 Sb1 2.963477 1_555
Hf0 Sb2 2.985912 1_556
Hf0 Sb2 2.985912 1_656
Hf0 Sb0 3.093083 1_555
Hf1 Sb0 2.963477 1_465
Hf1 Sb0 2.963477 1_565
Hf1 Sb0 2.963477 1_455
Hf1 Sb0 2.963477 1_555
Hf1 Sb2 2.985912 1_565
Hf1 Sb2 2.985912 1_555
Hf1 Sb1 3.093083 1_555
Ga0 Sb2 2.763065 1_565
Ga0 Sb2 2.763065 1_655
Ga0 Sb2 2.763065 1_555
Ga0 Sb2 2.763065 1_665
Ga0 Hf0 2.985912 1_564
Ga0 Hf0 2.985912 1_554
Ga0 Hf1 2.985912 1_655
Ga0 Hf1 2.985912 1_555
