# generated using pymatgen
data_Ta4Be
_symmetry_space_group_name_H-M   'P 1'
_cell_length_a   6.38558436
_cell_length_b   6.38558436
_cell_length_c   6.38558436
_cell_angle_alpha   60.00000000
_cell_angle_beta   60.00000000
_cell_angle_gamma   60.00000000
_symmetry_Int_Tables_number   1
_chemical_formula_structural   Ta4Be
_chemical_formula_sum   'Ta8 Be2'
_cell_volume   184.11405432
_cell_formula_units_Z   2
loop_
 _symmetry_equiv_pos_site_id
 _symmetry_equiv_pos_as_xyz
  1  'x, y, z'
loop_
 _atom_site_type_symbol
 _atom_site_label
 _atom_site_symmetry_multiplicity
 _atom_site_fract_x
 _atom_site_fract_y
 _atom_site_fract_z
 _atom_site_occupancy
  Ta  Ta0  1  0.61079300  0.61079300  0.61079300  1
  Ta  Ta1  1  0.16762000  0.61079300  0.61079300  1
  Ta  Ta2  1  0.61079300  0.16762000  0.61079300  1
  Ta  Ta3  1  0.58238000  0.13920700  0.13920700  1
  Ta  Ta4  1  0.13920700  0.13920700  0.13920700  1
  Ta  Ta5  1  0.61079300  0.61079300  0.16762000  1
  Ta  Ta6  1  0.13920700  0.58238000  0.13920700  1
  Ta  Ta7  1  0.13920700  0.13920700  0.58238000  1
  Be  Be0  1  0.00000000  0.00000000  0.00000000  1
  Be  Be1  1  0.75000000  0.75000000  0.75000000  1
loop_
_geom_bond_atom_site_label_1
_geom_bond_atom_site_label_2
_geom_bond_distance
_geom_bond_site_symmetry_2
Be0 Ta7 2.177390 1_554
Be0 Ta6 2.177390 1_545
Be0 Ta3 2.177390 1_455
Be0 Ta4 2.177396 1_555
Be1 Ta1 2.177390 1_655
Be1 Ta2 2.177390 1_565
Be1 Ta5 2.177390 1_556
Be1 Ta0 2.177396 1_555
