# generated using pymatgen
data_Ho(CuS)3
_symmetry_space_group_name_H-M   'P 1'
_cell_length_a   3.88810054
_cell_length_b   3.88810054
_cell_length_c   19.97411300
_cell_angle_alpha   90.00000000
_cell_angle_beta   90.00000000
_cell_angle_gamma   120.00000925
_symmetry_Int_Tables_number   1
_chemical_formula_structural   Ho(CuS)3
_chemical_formula_sum   'Ho2 Cu6 S6'
_cell_volume   261.50082756
_cell_formula_units_Z   2
loop_
 _symmetry_equiv_pos_site_id
 _symmetry_equiv_pos_as_xyz
  1  'x, y, z'
loop_
 _atom_site_type_symbol
 _atom_site_label
 _atom_site_symmetry_multiplicity
 _atom_site_fract_x
 _atom_site_fract_y
 _atom_site_fract_z
 _atom_site_occupancy
  Ho  Ho0  1  0.00000000  0.00000000  0.16504700  1
  Ho  Ho1  1  0.00000000  0.00000000  0.83495300  1
  Cu  Cu0  1  0.66666700  0.33333300  0.95398200  1
  Cu  Cu1  1  0.66666700  0.33333300  0.59184200  1
  Cu  Cu2  1  0.66666700  0.33333300  0.28823400  1
  Cu  Cu3  1  0.33333300  0.66666700  0.04601800  1
  Cu  Cu4  1  0.33333300  0.66666700  0.71176600  1
  Cu  Cu5  1  0.33333300  0.66666700  0.40815800  1
  S  S0  1  0.66666700  0.33333300  0.07831200  1
  S  S1  1  0.66666700  0.33333300  0.75806900  1
  S  S2  1  0.66666700  0.33333300  0.40187200  1
  S  S3  1  0.33333300  0.66666700  0.92168800  1
  S  S4  1  0.33333300  0.66666700  0.59812800  1
  S  S5  1  0.33333300  0.66666700  0.24193100  1
loop_
_geom_bond_atom_site_label_1
_geom_bond_atom_site_label_2
_geom_bond_distance
_geom_bond_site_symmetry_2
Ho0 S5 2.719824 1_545
Ho0 S5 2.719826 1_555
Ho0 S5 2.719826 1_445
Ho0 S0 2.835577 1_455
Ho0 S0 2.835580 1_555
Ho0 S0 2.835580 1_445
Ho1 S1 2.719824 1_455
Ho1 S1 2.719826 1_445
Ho1 S1 2.719826 1_555
Ho1 S3 2.835577 1_545
Ho1 S3 2.835580 1_445
Ho1 S3 2.835580 1_555
Cu0 S3 2.335633 1_545
Cu0 S3 2.335633 1_655
Cu0 S3 2.335639 1_555
Cu0 S0 2.483381 1_556
Cu1 S4 2.248302 1_545
Cu1 S4 2.248302 1_655
Cu1 S4 2.248309 1_555
Cu2 S2 2.269818 1_555
Cu2 S5 2.427852 1_545
Cu2 S5 2.427852 1_655
Cu2 S5 2.427859 1_555
Cu3 S0 2.335633 1_455
Cu3 S0 2.335633 1_565
Cu3 S0 2.335639 1_555
Cu3 S3 2.483381 1_554
Cu4 S4 2.269818 1_555
Cu4 S1 2.427852 1_455
Cu4 S1 2.427852 1_565
Cu4 S1 2.427859 1_555
Cu5 S2 2.248302 1_455
Cu5 S2 2.248302 1_565
Cu5 S2 2.248309 1_555
