# generated using pymatgen
data_V2O3
_symmetry_space_group_name_H-M   'P 1'
_cell_length_a   5.25582191
_cell_length_b   5.25582191
_cell_length_c   15.82206000
_cell_angle_alpha   90.00000000
_cell_angle_beta   90.00000000
_cell_angle_gamma   146.25165338
_symmetry_Int_Tables_number   1
_chemical_formula_structural   V2O3
_chemical_formula_sum   'V8 O12'
_cell_volume   242.80885546
_cell_formula_units_Z   4
loop_
 _symmetry_equiv_pos_site_id
 _symmetry_equiv_pos_as_xyz
  1  'x, y, z'
loop_
 _atom_site_type_symbol
 _atom_site_label
 _atom_site_symmetry_multiplicity
 _atom_site_fract_x
 _atom_site_fract_y
 _atom_site_fract_z
 _atom_site_occupancy
  V  V0  1  0.63341100  0.36658900  0.04772700  1
  V  V1  1  0.36658900  0.63341100  0.95227300  1
  V  V2  1  0.63341100  0.36658900  0.45227300  1
  V  V3  1  0.36658900  0.63341100  0.54772700  1
  V  V4  1  0.10343400  0.89656600  0.64088900  1
  V  V5  1  0.89656600  0.10343400  0.35911100  1
  V  V6  1  0.89656600  0.10343400  0.14088900  1
  V  V7  1  0.10343400  0.89656600  0.85911100  1
  O  O0  1  0.00000000  0.00000000  0.50000000  1
  O  O1  1  0.00000000  0.00000000  0.00000000  1
  O  O2  1  0.47900000  0.52100000  0.85682300  1
  O  O3  1  0.52100000  0.47900000  0.14317700  1
  O  O4  1  0.52100000  0.47900000  0.35682300  1
  O  O5  1  0.47900000  0.52100000  0.64317700  1
  O  O6  1  0.72800600  0.27199400  0.92575500  1
  O  O7  1  0.27199400  0.72800600  0.07424500  1
  O  O8  1  0.27199400  0.72800600  0.42575500  1
  O  O9  1  0.72800600  0.27199400  0.57424500  1
  O  O10  1  0.15372500  0.84627500  0.75000000  1
  O  O11  1  0.84627500  0.15372500  0.25000000  1
loop_
_geom_bond_atom_site_label_1
_geom_bond_atom_site_label_2
_geom_bond_distance
_geom_bond_site_symmetry_2
O0 V3 2.167640 1_445
O0 V3 2.167640 1_555
O0 V2 2.167640 1_445
O0 V2 2.167640 1_555
O0 V4 2.460013 1_545
O0 V5 2.460013 1_455
O1 V0 2.167640 1_445
O1 V0 2.167640 1_555
O1 V1 2.167640 1_444
O1 V1 2.167640 1_554
O1 V6 2.460013 1_455
O1 V7 2.460013 1_544
O2 V1 1.886623 1_555
O2 V7 1.973709 1_655
O2 V7 1.973709 1_545
O3 V0 1.886623 1_555
O3 V6 1.973709 1_565
O3 V6 1.973709 1_455
O4 V2 1.886623 1_555
O4 V5 1.973709 1_565
O4 V5 1.973709 1_455
O5 V3 1.886623 1_555
O5 V4 1.973709 1_655
O5 V4 1.973709 1_545
O6 V1 2.108745 1_545
O6 V1 2.108745 1_655
O6 V0 2.151682 1_556
O6 V7 2.238202 1_545
O6 V7 2.238202 1_655
O7 V0 2.108745 1_455
O7 V0 2.108745 1_565
O7 V1 2.151682 1_554
O7 V6 2.238202 1_455
O7 V6 2.238202 1_565
O8 V2 2.108745 1_455
O8 V2 2.108745 1_565
O8 V3 2.151682 1_555
O8 V5 2.238202 1_455
O8 V5 2.238202 1_565
O9 V3 2.108745 1_545
O9 V3 2.108745 1_655
O9 V2 2.151682 1_555
O9 V4 2.238202 1_545
O9 V4 2.238202 1_655
O10 V7 1.798954 1_555
O10 V4 1.798954 1_555
O11 V5 1.798954 1_555
O11 V6 1.798954 1_555
