# generated using pymatgen
data_LiDy2Pt
_symmetry_space_group_name_H-M   'P 1'
_cell_length_a   4.96994527
_cell_length_b   4.96994527
_cell_length_c   4.96994527
_cell_angle_alpha   60.00000000
_cell_angle_beta   60.00000000
_cell_angle_gamma   60.00000000
_symmetry_Int_Tables_number   1
_chemical_formula_structural   LiDy2Pt
_chemical_formula_sum   'Li1 Dy2 Pt1'
_cell_volume   86.80401631
_cell_formula_units_Z   1
loop_
 _symmetry_equiv_pos_site_id
 _symmetry_equiv_pos_as_xyz
  1  'x, y, z'
loop_
 _atom_site_type_symbol
 _atom_site_label
 _atom_site_symmetry_multiplicity
 _atom_site_fract_x
 _atom_site_fract_y
 _atom_site_fract_z
 _atom_site_occupancy
  Li  Li0  1  0.50000000  0.50000000  0.50000000  1
  Dy  Dy0  1  0.75000000  0.75000000  0.75000000  1
  Dy  Dy1  1  0.25000000  0.25000000  0.25000000  1
  Pt  Pt0  1  0.00000000  0.00000000  0.00000000  1
loop_
_geom_bond_atom_site_label_1
_geom_bond_atom_site_label_2
_geom_bond_distance
_geom_bond_site_symmetry_2
Dy0 Li0 3.043457 1_555
Dy0 Pt0 3.043457 1_666
Dy0 Pt0 3.043457 1_665
Dy0 Li0 3.043457 1_565
Dy0 Li0 3.043457 1_655
Dy0 Pt0 3.043457 1_566
Dy0 Pt0 3.043457 1_656
Dy0 Li0 3.043457 1_556
Dy1 Li0 3.043457 1_555
Dy1 Li0 3.043457 1_554
Dy1 Li0 3.043457 1_545
Dy1 Pt0 3.043457 1_655
Dy1 Li0 3.043457 1_455
Dy1 Pt0 3.043457 1_555
Dy1 Pt0 3.043457 1_556
Dy1 Pt0 3.043457 1_565
