# generated using pymatgen
data_Eu5B3O9F
_symmetry_space_group_name_H-M   'P 1'
_cell_length_a   7.22991658
_cell_length_b   9.86746490
_cell_length_c   14.16036770
_cell_angle_alpha   90.00000000
_cell_angle_beta   90.00000000
_cell_angle_gamma   90.00000000
_symmetry_Int_Tables_number   1
_chemical_formula_structural   Eu5B3O9F
_chemical_formula_sum   'Eu20 B12 O36 F4'
_cell_volume   1010.21405692
_cell_formula_units_Z   4
loop_
 _symmetry_equiv_pos_site_id
 _symmetry_equiv_pos_as_xyz
  1  'x, y, z'
loop_
 _atom_site_type_symbol
 _atom_site_label
 _atom_site_symmetry_multiplicity
 _atom_site_fract_x
 _atom_site_fract_y
 _atom_site_fract_z
 _atom_site_occupancy
  Eu  Eu0  1  0.28689403  0.98041222  0.75000000  1
  Eu  Eu1  1  0.78689403  0.51958778  0.75000000  1
  Eu  Eu2  1  0.71310597  0.01958778  0.25000000  1
  Eu  Eu3  1  0.21310597  0.48041222  0.25000000  1
  Eu  Eu4  1  0.52885854  0.25292052  0.61198846  1
  Eu  Eu5  1  0.02885854  0.24707948  0.88801154  1
  Eu  Eu6  1  0.47114146  0.74707948  0.11198846  1
  Eu  Eu7  1  0.97114146  0.75292052  0.38801154  1
  Eu  Eu8  1  0.47114146  0.74707948  0.38801154  1
  Eu  Eu9  1  0.97114146  0.75292052  0.11198846  1
  Eu  Eu10  1  0.52885854  0.25292052  0.88801154  1
  Eu  Eu11  1  0.02885854  0.24707948  0.61198846  1
  Eu  Eu12  1  0.25098311  0.62648278  0.61981711  1
  Eu  Eu13  1  0.75098311  0.87351722  0.88018289  1
  Eu  Eu14  1  0.74901689  0.37351722  0.11981711  1
  Eu  Eu15  1  0.24901689  0.12648278  0.38018289  1
  Eu  Eu16  1  0.74901689  0.37351722  0.38018289  1
  Eu  Eu17  1  0.24901689  0.12648278  0.11981711  1
  Eu  Eu18  1  0.25098311  0.62648278  0.88018289  1
  Eu  Eu19  1  0.75098311  0.87351722  0.61981711  1
  B  B0  1  0.28218771  0.38849852  0.75000000  1
  B  B1  1  0.78218771  0.11150148  0.75000000  1
  B  B2  1  0.71781229  0.61150148  0.25000000  1
  B  B3  1  0.21781229  0.88849852  0.25000000  1
  B  B4  1  0.19960331  0.43892158  0.46129760  1
  B  B5  1  0.69960331  0.06107842  0.03870240  1
  B  B6  1  0.80039669  0.56107842  0.96129760  1
  B  B7  1  0.30039669  0.93892158  0.53870240  1
  B  B8  1  0.80039669  0.56107842  0.53870240  1
  B  B9  1  0.30039669  0.93892158  0.96129760  1
  B  B10  1  0.19960331  0.43892158  0.03870240  1
  B  B11  1  0.69960331  0.06107842  0.46129760  1
  O  O0  1  0.11389267  0.45564571  0.75000000  1
  O  O1  1  0.61389267  0.04435429  0.75000000  1
  O  O2  1  0.88610733  0.54435429  0.25000000  1
  O  O3  1  0.38610733  0.95564571  0.25000000  1
  O  O4  1  0.28409655  0.24672646  0.75000000  1
  O  O5  1  0.78409655  0.25327354  0.75000000  1
  O  O6  1  0.71590345  0.75327354  0.25000000  1
  O  O7  1  0.21590345  0.74672646  0.25000000  1
  O  O8  1  0.44532930  0.46202026  0.75000000  1
  O  O9  1  0.94532930  0.03797974  0.75000000  1
  O  O10  1  0.55467070  0.53797974  0.25000000  1
  O  O11  1  0.05467070  0.96202026  0.25000000  1
  O  O12  1  0.28261140  0.39649669  0.54473062  1
  O  O13  1  0.78261140  0.10350331  0.95526938  1
  O  O14  1  0.71738860  0.60350331  0.04473062  1
  O  O15  1  0.21738860  0.89649669  0.45526938  1
  O  O16  1  0.71738860  0.60350331  0.45526938  1
  O  O17  1  0.21738860  0.89649669  0.04473062  1
  O  O18  1  0.28261140  0.39649669  0.95526938  1
  O  O19  1  0.78261140  0.10350331  0.54473062  1
  O  O20  1  0.09064364  0.34847046  0.40973883  1
  O  O21  1  0.59064364  0.15152954  0.09026117  1
  O  O22  1  0.90935636  0.65152954  0.90973883  1
  O  O23  1  0.40935636  0.84847046  0.59026117  1
  O  O24  1  0.90935636  0.65152954  0.59026117  1
  O  O25  1  0.40935636  0.84847046  0.90973883  1
  O  O26  1  0.09064364  0.34847046  0.09026117  1
  O  O27  1  0.59064364  0.15152954  0.40973883  1
  O  O28  1  0.22170939  0.57262808  0.43127716  1
  O  O29  1  0.72170939  0.92737192  0.06872284  1
  O  O30  1  0.77829061  0.42737192  0.93127716  1
  O  O31  1  0.27829061  0.07262808  0.56872284  1
  O  O32  1  0.77829061  0.42737192  0.56872284  1
  O  O33  1  0.27829061  0.07262808  0.93127716  1
  O  O34  1  0.22170939  0.57262808  0.06872284  1
  O  O35  1  0.72170939  0.92737192  0.43127716  1
  F  F0  1  0.12398643  0.76475875  0.75000000  1
  F  F1  1  0.62398643  0.73524125  0.75000000  1
  F  F2  1  0.87601357  0.23524125  0.25000000  1
  F  F3  1  0.37601357  0.26475875  0.25000000  1
loop_
_geom_bond_atom_site_label_1
_geom_bond_atom_site_label_2
_geom_bond_distance
_geom_bond_site_symmetry_2
Eu0 F0 2.432163 1_555
Eu0 O1 2.446918 1_565
Eu0 O9 2.533975 1_465
Eu0 O4 2.627924 1_565
Eu0 O31 2.724168 1_565
Eu0 O33 2.724168 1_565
Eu0 O23 2.755977 1_555
Eu0 O25 2.755977 1_555
Eu1 F1 2.432163 1_555
Eu1 O0 2.446918 1_655
Eu1 O8 2.533975 1_555
Eu1 O5 2.627924 1_555
Eu1 O32 2.724168 1_555
Eu1 O30 2.724168 1_555
Eu1 O24 2.755977 1_555
Eu1 O22 2.755977 1_555
Eu2 F2 2.432163 1_555
Eu2 O3 2.446918 1_545
Eu2 O11 2.533975 1_645
Eu2 O6 2.627924 1_545
Eu2 O29 2.724168 1_545
Eu2 O35 2.724168 1_545
Eu2 O27 2.755977 1_555
Eu2 O21 2.755977 1_555
Eu3 F3 2.432163 1_555
Eu3 O2 2.446918 1_455
Eu3 O10 2.533975 1_555
Eu3 O7 2.627924 1_555
Eu3 O28 2.724168 1_555
Eu3 O34 2.724168 1_555
Eu3 O26 2.755977 1_555
Eu3 O20 2.755977 1_555
Eu4 O12 2.466541 1_555
Eu4 O19 2.539020 1_555
Eu4 O32 2.567235 1_555
Eu4 O31 2.611922 1_555
Eu4 O4 2.637142 1_555
Eu4 O5 2.687860 1_555
Eu4 O1 2.903907 1_555
Eu4 O8 2.905360 1_555
Eu4 O27 3.066362 1_555
Eu5 O13 2.466541 1_455
Eu5 O18 2.539020 1_555
Eu5 O33 2.567235 1_555
Eu5 O30 2.611922 1_455
Eu5 O5 2.637142 1_455
Eu5 O4 2.687860 1_555
Eu5 O0 2.903907 1_555
Eu5 O9 2.905360 1_455
Eu5 O26 3.066362 1_556
Eu6 O14 2.466541 1_555
Eu6 O17 2.539020 1_555
Eu6 O34 2.567235 1_555
Eu6 O29 2.611922 1_555
Eu6 O6 2.637142 1_555
Eu6 O7 2.687860 1_555
Eu6 O3 2.903907 1_555
Eu6 O10 2.905360 1_555
Eu6 O25 3.066362 1_554
Eu7 O15 2.466541 1_655
Eu7 O16 2.539020 1_555
Eu7 O35 2.567235 1_555
Eu7 O28 2.611922 1_655
Eu7 O7 2.637142 1_655
Eu7 O6 2.687860 1_555
Eu7 O2 2.903907 1_555
Eu7 O11 2.905360 1_655
Eu7 O24 3.066362 1_555
Eu8 O16 2.466541 1_555
Eu8 O15 2.539020 1_555
Eu8 O28 2.567235 1_555
Eu8 O35 2.611922 1_555
Eu8 O6 2.637142 1_555
Eu8 O7 2.687860 1_555
Eu8 O3 2.903907 1_555
Eu8 O10 2.905360 1_555
Eu8 O23 3.066362 1_555
Eu9 O17 2.466541 1_655
Eu9 O14 2.539020 1_555
Eu9 O29 2.567235 1_555
Eu9 O34 2.611922 1_655
Eu9 O7 2.637142 1_655
Eu9 O6 2.687860 1_555
Eu9 O2 2.903907 1_555
Eu9 O11 2.905360 1_655
Eu9 O22 3.066362 1_554
Eu10 O18 2.466541 1_555
Eu10 O13 2.539020 1_555
Eu10 O30 2.567235 1_555
Eu10 O33 2.611922 1_555
Eu10 O4 2.637142 1_555
Eu10 O5 2.687860 1_555
Eu10 O1 2.903907 1_555
Eu10 O8 2.905360 1_555
Eu10 O21 3.066362 1_556
Eu11 O19 2.466541 1_455
Eu11 O12 2.539020 1_555
Eu11 O31 2.567235 1_555
Eu11 O32 2.611922 1_455
Eu11 O5 2.637142 1_455
Eu11 O4 2.687860 1_555
Eu11 O0 2.903907 1_555
Eu11 O9 2.905360 1_455
Eu11 O20 3.066362 1_555
Eu12 F0 2.470422 1_555
Eu12 O23 2.506859 1_555
Eu12 O12 2.516521 1_555
Eu12 O24 2.517303 1_455
Eu12 O0 2.687439 1_555
Eu12 O28 2.730384 1_555
Eu12 O8 2.829516 1_555
Eu13 F1 2.470422 1_555
Eu13 O22 2.506859 1_555
Eu13 O13 2.516521 1_565
Eu13 O25 2.517303 1_555
Eu13 O1 2.687439 1_565
Eu13 O29 2.730384 1_556
Eu13 O9 2.829516 1_565
Eu14 F2 2.470422 1_555
Eu14 O21 2.506859 1_555
Eu14 O14 2.516521 1_555
Eu14 O26 2.517303 1_655
Eu14 O2 2.687439 1_555
Eu14 O30 2.730384 1_554
Eu14 O10 2.829516 1_555
Eu15 F3 2.470422 1_555
Eu15 O20 2.506859 1_555
Eu15 O15 2.516521 1_545
Eu15 O27 2.517303 1_555
Eu15 O3 2.687439 1_545
Eu15 O31 2.730384 1_555
Eu15 O11 2.829516 1_545
Eu16 F2 2.470422 1_555
Eu16 O27 2.506859 1_555
Eu16 O16 2.516521 1_555
Eu16 O20 2.517303 1_655
Eu16 O2 2.687439 1_555
Eu16 O32 2.730384 1_555
Eu16 O10 2.829516 1_555
Eu17 F3 2.470422 1_555
Eu17 O26 2.506859 1_555
Eu17 O17 2.516521 1_545
Eu17 O21 2.517303 1_555
Eu17 O3 2.687439 1_545
Eu17 O33 2.730384 1_554
Eu17 O11 2.829516 1_545
Eu18 F0 2.470422 1_555
Eu18 O25 2.506859 1_555
Eu18 O18 2.516521 1_555
Eu18 O22 2.517303 1_455
Eu18 O0 2.687439 1_555
Eu18 O34 2.730384 1_556
Eu18 O8 2.829516 1_555
Eu19 F1 2.470422 1_555
Eu19 O24 2.506859 1_555
Eu19 O19 2.516521 1_565
Eu19 O23 2.517303 1_555
Eu19 O1 2.687439 1_565
Eu19 O35 2.730384 1_555
Eu19 O9 2.829516 1_565
B0 O8 1.384750 1_555
B0 O0 1.385462 1_555
B0 O4 1.398999 1_555
B1 O9 1.384750 1_555
B1 O1 1.385462 1_555
B1 O5 1.398999 1_555
B2 O10 1.384750 1_555
B2 O2 1.385462 1_555
B2 O6 1.398999 1_555
B3 O11 1.384750 1_555
B3 O3 1.385462 1_555
B3 O7 1.398999 1_555
B4 O12 1.389685 1_555
B4 O28 1.395322 1_555
B4 O20 1.396500 1_555
B5 O13 1.389685 1_554
B5 O29 1.395322 1_545
B5 O21 1.396500 1_555
B6 O14 1.389685 1_556
B6 O30 1.395322 1_555
B6 O22 1.396500 1_555
B7 O15 1.389685 1_555
B7 O31 1.395322 1_565
B7 O23 1.396500 1_555
B8 O16 1.389685 1_555
B8 O32 1.395322 1_555
B8 O24 1.396500 1_555
B9 O17 1.389685 1_556
B9 O33 1.395322 1_565
B9 O25 1.396500 1_555
B10 O18 1.389685 1_554
B10 O34 1.395322 1_555
B10 O26 1.396500 1_555
B11 O19 1.389685 1_555
B11 O35 1.395322 1_545
B11 O27 1.396500 1_555
