# generated using pymatgen
data_Mg5Si9
_symmetry_space_group_name_H-M   'P 1'
_cell_length_a   5.59498800
_cell_length_b   7.34827214
_cell_length_c   13.24162102
_cell_angle_alpha   76.52252494
_cell_angle_beta   78.26013338
_cell_angle_gamma   69.26604953
_symmetry_Int_Tables_number   1
_chemical_formula_structural   Mg5Si9
_chemical_formula_sum   'Mg10 Si18'
_cell_volume   490.73068226
_cell_formula_units_Z   2
loop_
 _symmetry_equiv_pos_site_id
 _symmetry_equiv_pos_as_xyz
  1  'x, y, z'
loop_
 _atom_site_type_symbol
 _atom_site_label
 _atom_site_symmetry_multiplicity
 _atom_site_fract_x
 _atom_site_fract_y
 _atom_site_fract_z
 _atom_site_occupancy
  Mg  Mg0  1  0.51251700  0.21097900  0.32583600  1
  Mg  Mg1  1  0.80581400  0.54826100  0.61836200  1
  Mg  Mg2  1  0.64861200  0.41029400  0.46371600  1
  Mg  Mg3  1  0.22224200  0.70512900  0.59996600  1
  Mg  Mg4  1  0.07571900  0.97599400  0.37477500  1
  Mg  Mg5  1  0.18383500  0.15776900  0.54173200  1
  Mg  Mg6  1  0.39857800  0.51895400  0.82359900  1
  Mg  Mg7  1  0.23300400  0.62452700  0.05664900  1
  Mg  Mg8  1  0.42078000  0.98524600  0.90015400  1
  Mg  Mg9  1  0.45505900  0.65734000  0.24163300  1
  Si  Si0  1  0.99773300  0.90802300  0.86066400  1
  Si  Si1  1  0.70360100  0.32128100  0.12105000  1
  Si  Si2  1  0.37448300  0.26369200  0.69363500  1
  Si  Si3  1  0.86326500  0.73695300  0.29187000  1
  Si  Si4  1  0.82313000  0.16124400  0.71591600  1
  Si  Si5  1  0.03107400  0.96760200  0.14829400  1
  Si  Si6  1  0.82715400  0.70231800  0.78694900  1
  Si  Si7  1  0.31855400  0.17610800  0.16152800  1
  Si  Si8  1  0.97101700  0.32491400  0.82717600  1
  Si  Si9  1  0.14917700  0.51702000  0.41810400  1
  Si  Si10  1  0.69956700  0.87587400  0.08380800  1
  Si  Si11  1  0.66697100  0.19987000  0.96820300  1
  Si  Si12  1  0.40934900  0.89478800  0.71292600  1
  Si  Si13  1  0.96709100  0.38553000  0.27191500  1
  Si  Si14  1  0.76960600  0.61385200  0.98525600  1
  Si  Si15  1  0.15914700  0.31177700  0.99427600  1
  Si  Si16  1  0.56750900  0.84373900  0.44876100  1
  Si  Si17  1  0.74529300  0.00097200  0.56344200  1
loop_
_geom_bond_atom_site_label_1
_geom_bond_atom_site_label_2
_geom_bond_distance
_geom_bond_site_symmetry_2
Mg0 Si7 2.719309 1_555
Mg0 Si1 2.750014 1_555
Mg0 Si16 2.755887 1_545
Mg0 Si9 2.777728 1_555
Mg0 Si13 3.025867 1_455
Mg0 Si13 3.125302 1_555
Mg1 Si6 2.767922 1_555
Mg1 Si4 2.812349 1_555
Mg1 Si16 2.903694 1_555
Mg1 Si9 2.945085 1_655
Mg1 Si8 3.007321 1_555
Mg1 Si12 3.054342 1_555
Mg1 Si17 3.144047 1_565
Mg2 Si9 2.775330 1_555
Mg2 Si13 2.793352 1_555
Mg2 Si17 2.893196 1_555
Mg2 Si16 3.018115 1_555
Mg2 Si9 3.077266 1_655
Mg3 Si16 2.765247 1_555
Mg3 Si12 2.813806 1_555
Mg3 Si17 2.829919 1_465
Mg3 Si6 2.966215 1_455
Mg3 Si2 3.063386 1_555
Mg3 Si9 3.198327 1_555
Mg4 Si17 2.790479 1_465
Mg4 Si16 2.869690 1_555
Mg4 Si13 2.900366 1_465
Mg4 Si3 2.934587 1_455
Mg4 Si5 3.076037 1_555
Mg4 Si7 3.146381 1_565
Mg4 Si9 3.175764 1_555
Mg5 Si9 2.727407 1_555
Mg5 Si4 2.736812 1_455
Mg5 Si12 2.803699 1_545
Mg5 Si2 2.824935 1_555
Mg5 Si16 2.861810 1_545
Mg5 Si17 2.988076 1_555
Mg5 Si17 2.998466 1_455
Mg6 Si15 2.797898 1_555
Mg6 Si12 2.823793 1_555
Mg6 Si11 2.829028 1_555
Mg6 Si2 2.876854 1_555
Mg6 Si8 3.014950 1_555
Mg6 Si0 3.018380 1_455
Mg6 Si6 3.051257 1_555
Mg6 Si6 3.090138 1_455
Mg7 Si15 2.798314 1_554
Mg7 Si5 2.820632 1_555
Mg7 Si10 2.901383 1_455
Mg7 Si1 2.915297 1_555
Mg7 Si14 2.937070 1_554
Mg7 Si14 2.966138 1_454
Mg7 Si0 3.120232 1_454
Mg8 Si12 2.730412 1_555
Mg8 Si15 2.760073 1_565
Mg8 Si0 2.791211 1_455
Mg8 Si11 2.811091 1_565
Mg8 Si14 2.866539 1_555
Mg8 Si6 2.908211 1_555
Mg8 Si10 2.955996 1_556
Mg8 Si8 2.985648 1_465
Mg8 Si2 3.006118 1_565
Mg8 Si0 3.028222 1_555
Mg9 Si10 2.765046 1_555
Mg9 Si3 2.783292 1_555
Mg9 Si9 2.819843 1_555
Mg9 Si13 2.898263 1_555
Mg9 Si5 2.898794 1_555
Mg9 Si1 3.014026 1_555
Mg9 Si3 3.108305 1_455
Si0 Si4 2.429582 1_565
Si0 Si6 2.497361 1_555
Si0 Si12 2.690167 1_655
Si0 Si11 2.755480 1_565
Si1 Si11 2.464595 1_554
Si1 Si14 2.545916 1_554
Si1 Si5 2.588802 1_645
Si1 Si7 2.637664 1_555
Si1 Si15 2.739822 1_654
Si1 Si13 2.918547 1_555
Si2 Si4 2.411345 1_555
Si2 Si8 2.540163 1_455
Si3 Si9 2.441980 1_655
Si3 Si5 2.503389 1_655
Si4 Si8 2.515592 1_555
Si5 Si7 2.636306 1_565
Si6 Si8 2.554990 1_555
Si10 Si14 2.447984 1_554
Si10 Si11 2.480366 1_564
Si10 Si5 2.534103 1_655
Si10 Si7 2.703028 1_565
Si11 Si8 2.497927 1_555
Si11 Si15 2.635724 1_555
Si12 Si6 2.524043 1_555
Si12 Si2 2.602855 1_565
Si12 Si17 2.619980 1_565
Si13 Si7 2.471390 1_655
Si13 Si3 2.503847 1_555
Si13 Si9 2.844305 1_655
Si14 Si15 2.499691 1_655
Si14 Si6 2.535764 1_555
Si15 Si7 2.416452 1_556
Si15 Si8 2.605656 1_455
Si16 Si3 2.472136 1_555
Si16 Si17 2.622337 1_565
Si17 Si4 2.735396 1_555
Si17 Si2 2.874587 1_555
