# generated using pymatgen
data_Na2ZnGaF7
_symmetry_space_group_name_H-M   'P 1'
_cell_length_a   7.36000701
_cell_length_b   7.36000701
_cell_length_c   24.78614647
_cell_angle_alpha   81.83945302
_cell_angle_beta   81.83945302
_cell_angle_gamma   60.58485571
_symmetry_Int_Tables_number   1
_chemical_formula_structural   Na2ZnGaF7
_chemical_formula_sum   'Na16 Zn8 Ga8 F56'
_cell_volume   1153.65599567
_cell_formula_units_Z   8
loop_
 _symmetry_equiv_pos_site_id
 _symmetry_equiv_pos_as_xyz
  1  'x, y, z'
loop_
 _atom_site_type_symbol
 _atom_site_label
 _atom_site_symmetry_multiplicity
 _atom_site_fract_x
 _atom_site_fract_y
 _atom_site_fract_z
 _atom_site_occupancy
  Na  Na0  1  0.00000000  0.00000000  0.50000000  1
  Na  Na1  1  0.00000000  0.00000000  0.00000000  1
  Na  Na2  1  0.50000000  0.50000000  0.50000000  1
  Na  Na3  1  0.50000000  0.50000000  0.00000000  1
  Na  Na4  1  0.00000000  0.50000000  0.00000000  1
  Na  Na5  1  0.50000000  0.00000000  0.50000000  1
  Na  Na6  1  0.21236500  0.78763500  0.25000000  1
  Na  Na7  1  0.78763500  0.21236500  0.75000000  1
  Na  Na8  1  0.20439900  0.30064400  0.24982700  1
  Na  Na9  1  0.69935600  0.79560100  0.25017300  1
  Na  Na10  1  0.79560100  0.69935600  0.75017300  1
  Na  Na11  1  0.30064400  0.20439900  0.74982700  1
  Na  Na12  1  0.86541200  0.88222300  0.37823000  1
  Na  Na13  1  0.11777700  0.13458800  0.12177000  1
  Na  Na14  1  0.13458800  0.11777700  0.62177000  1
  Na  Na15  1  0.88222300  0.86541200  0.87823000  1
  Zn  Zn0  1  0.36912500  0.38629800  0.37216000  1
  Zn  Zn1  1  0.61370200  0.63087500  0.12784000  1
  Zn  Zn2  1  0.63087500  0.61370200  0.62784000  1
  Zn  Zn3  1  0.38629800  0.36912500  0.87216000  1
  Zn  Zn4  1  0.86516500  0.38771800  0.37419600  1
  Zn  Zn5  1  0.61228200  0.13483500  0.12580400  1
  Zn  Zn6  1  0.13483500  0.61228200  0.62580400  1
  Zn  Zn7  1  0.38771800  0.86516500  0.87419600  1
  Ga  Ga0  1  0.00000000  0.50000000  0.50000000  1
  Ga  Ga1  1  0.50000000  0.00000000  0.00000000  1
  Ga  Ga2  1  0.75139200  0.24860800  0.25000000  1
  Ga  Ga3  1  0.24860800  0.75139200  0.75000000  1
  Ga  Ga4  1  0.36305200  0.88955200  0.37476900  1
  Ga  Ga5  1  0.11044800  0.63694800  0.12523100  1
  Ga  Ga6  1  0.63694800  0.11044800  0.62523100  1
  Ga  Ga7  1  0.88955200  0.36305200  0.87476900  1
  F  F0  1  0.81293000  0.36488400  0.95313100  1
  F  F1  1  0.63511600  0.18707000  0.54686900  1
  F  F2  1  0.18707000  0.63511600  0.04686900  1
  F  F3  1  0.36488400  0.81293000  0.45313100  1
  F  F4  1  0.97279900  0.35761800  0.79683100  1
  F  F5  1  0.64238200  0.02720100  0.70316900  1
  F  F6  1  0.02720100  0.64238200  0.20316900  1
  F  F7  1  0.35761800  0.97279900  0.29683100  1
  F  F8  1  0.14217400  0.02031100  0.70953700  1
  F  F9  1  0.97968900  0.85782600  0.79046300  1
  F  F10  1  0.85782600  0.97968900  0.29046300  1
  F  F11  1  0.02031100  0.14217400  0.20953700  1
  F  F12  1  0.78970700  0.86934500  0.96830800  1
  F  F13  1  0.13065500  0.21029300  0.53169200  1
  F  F14  1  0.21029300  0.13065500  0.03169200  1
  F  F15  1  0.86934500  0.78970700  0.46830800  1
  F  F16  1  0.30457800  0.64296200  0.90153200  1
  F  F17  1  0.35703800  0.69542200  0.59846800  1
  F  F18  1  0.69542200  0.35703800  0.09846800  1
  F  F19  1  0.64296200  0.30457800  0.40153200  1
  F  F20  1  0.46512400  0.09125300  0.84505300  1
  F  F21  1  0.36380700  0.85865700  0.79348000  1
  F  F22  1  0.90874700  0.53487600  0.65494700  1
  F  F23  1  0.09125300  0.46512400  0.34505300  1
  F  F24  1  0.70139800  0.65686200  0.85936800  1
  F  F25  1  0.34313800  0.29860200  0.64063200  1
  F  F26  1  0.29860200  0.34313800  0.14063200  1
  F  F27  1  0.65686200  0.70139800  0.35936800  1
  F  F28  1  0.07406100  0.06913400  0.89089000  1
  F  F29  1  0.93086600  0.92593900  0.60911000  1
  F  F30  1  0.92593900  0.93086600  0.10911000  1
  F  F31  1  0.06913400  0.07406100  0.39089000  1
  F  F32  1  0.25249000  0.42115200  0.45324200  1
  F  F33  1  0.57884900  0.74751000  0.04675800  1
  F  F34  1  0.74751000  0.57884900  0.54675800  1
  F  F35  1  0.42115100  0.25249000  0.95324200  1
  F  F36  1  0.47716600  0.36274200  0.29035500  1
  F  F37  1  0.63725800  0.52283400  0.20964500  1
  F  F38  1  0.52283400  0.63725800  0.70964500  1
  F  F39  1  0.36274200  0.47716600  0.79035500  1
  F  F40  1  0.27144700  0.70107600  0.35865600  1
  F  F41  1  0.29892400  0.72855300  0.14134400  1
  F  F42  1  0.72855300  0.29892400  0.64134400  1
  F  F43  1  0.70107600  0.27144700  0.85865600  1
  F  F44  1  0.45945000  0.07483100  0.39010800  1
  F  F45  1  0.92516900  0.54055000  0.10989200  1
  F  F46  1  0.54055000  0.92516900  0.60989200  1
  F  F47  1  0.07483100  0.45945000  0.89010800  1
  F  F48  1  0.86576700  0.41852900  0.45492600  1
  F  F49  1  0.58147100  0.13423300  0.04507400  1
  F  F50  1  0.13423300  0.58147100  0.54507400  1
  F  F51  1  0.41852900  0.86576700  0.95492600  1
  F  F52  1  0.85865700  0.36380700  0.29348000  1
  F  F53  1  0.63619300  0.14134300  0.20652000  1
  F  F54  1  0.14134300  0.63619300  0.70652000  1
  F  F55  1  0.53487600  0.90874700  0.15494700  1
loop_
_geom_bond_atom_site_label_1
_geom_bond_atom_site_label_2
_geom_bond_distance
_geom_bond_site_symmetry_2
F0 Ga7 1.944148 1_555
F0 Na3 2.227481 1_556
F0 Na4 2.522132 1_656
F0 Na1 2.528595 1_656
F1 Ga6 1.944148 1_555
F1 Na2 2.227481 1_555
F1 Na5 2.522132 1_555
F1 Na0 2.528595 1_655
F2 Ga5 1.944148 1_555
F2 Na3 2.227481 1_555
F2 Na4 2.522132 1_555
F2 Na1 2.528595 1_565
F3 Ga4 1.944148 1_555
F3 Na2 2.227481 1_555
F3 Na5 2.522132 1_565
F3 Na0 2.528595 1_565
F4 Ga7 1.941811 1_555
F4 Na11 2.313744 1_655
F4 Na10 2.396835 1_555
F4 Na7 2.565148 1_555
F5 Ga6 1.941811 1_555
F5 Na10 2.313744 1_545
F5 Na11 2.396835 1_555
F5 Na7 2.565148 1_555
F6 Ga5 1.941811 1_555
F6 Na9 2.313744 1_455
F6 Na8 2.396835 1_555
F6 Na6 2.565148 1_555
F7 Ga4 1.941811 1_555
F7 Na8 2.313744 1_565
F7 Na9 2.396835 1_555
F7 Na6 2.565148 1_555
F8 Ga3 1.916625 1_545
F8 Na14 2.191395 1_555
F8 Na7 2.418545 1_455
F8 Na11 2.541726 1_555
F9 Ga3 1.916625 1_655
F9 Na15 2.191395 1_555
F9 Na7 2.418545 1_565
F9 Na10 2.541726 1_555
F10 Ga2 1.916625 1_565
F10 Na12 2.191395 1_555
F10 Na6 2.418545 1_655
F10 Na9 2.541726 1_555
F11 Ga2 1.916625 1_455
F11 Na13 2.191395 1_555
F11 Na6 2.418545 1_545
F11 Na8 2.541726 1_555
F12 Ga1 1.952722 1_566
F12 Na15 2.239814 1_555
F12 Na1 2.441084 1_666
F12 Na4 2.451194 1_656
F13 Ga0 1.952722 1_555
F13 Na14 2.239814 1_555
F13 Na0 2.441084 1_555
F13 Na5 2.451194 1_555
F14 Ga1 1.952722 1_555
F14 Na13 2.239814 1_555
F14 Na1 2.441084 1_555
F14 Na4 2.451194 1_555
F15 Ga0 1.952722 1_655
F15 Na12 2.239814 1_555
F15 Na0 2.441084 1_665
F15 Na5 2.451194 1_565
F16 Zn3 2.013778 1_555
F16 Zn7 2.014646 1_555
F16 Na3 2.813106 1_556
F16 Na15 2.814108 1_455
F17 Zn2 2.013778 1_555
F17 Zn6 2.014646 1_555
F17 Na2 2.813106 1_555
F17 Na14 2.814108 1_565
F18 Zn1 2.013778 1_555
F18 Zn5 2.014646 1_555
F18 Na3 2.813106 1_555
F18 Na13 2.814108 1_655
F19 Zn0 2.013778 1_555
F19 Zn4 2.014646 1_555
F19 Na2 2.813106 1_555
F19 Na12 2.814108 1_545
F20 Zn3 2.021031 1_555
F20 Zn7 2.021979 1_545
F20 Na11 2.644399 1_555
F20 Na15 2.859986 1_545
F21 Ga3 1.913642 1_555
F21 Zn7 2.042366 1_555
F21 Na11 2.461969 1_565
F21 Na10 2.890576 1_555
F22 Zn2 2.021031 1_555
F22 Zn6 2.021979 1_655
F22 Na10 2.644399 1_555
F22 Na14 2.859986 1_655
F23 Zn0 2.021031 1_555
F23 Zn4 2.021979 1_455
F23 Na8 2.644399 1_555
F23 Na12 2.859986 1_455
F24 Ga7 1.927132 1_555
F24 Zn7 2.063470 1_555
F24 Na15 2.594753 1_555
F24 Na10 2.709935 1_555
F25 Ga6 1.927132 1_555
F25 Zn6 2.063470 1_555
F25 Na14 2.594753 1_555
F25 Na11 2.709935 1_555
F26 Ga5 1.927132 1_555
F26 Zn5 2.063470 1_555
F26 Na13 2.594753 1_555
F26 Na8 2.709935 1_555
F27 Ga4 1.927132 1_555
F27 Zn4 2.063470 1_555
F27 Na12 2.594753 1_555
F27 Na9 2.709935 1_555
F28 Ga7 1.925224 1_455
F28 Zn7 2.062801 1_545
F28 Na15 2.584386 1_445
F28 Na1 2.707982 1_556
F29 Ga6 1.925224 1_565
F29 Zn6 2.062801 1_655
F29 Na14 2.584386 1_665
F29 Na0 2.707982 1_665
F30 Ga5 1.925224 1_655
F30 Zn5 2.062801 1_565
F30 Na13 2.584386 1_665
F30 Na1 2.707982 1_665
F31 Ga4 1.925224 1_545
F31 Zn4 2.062801 1_455
F31 Na12 2.584386 1_445
F31 Na0 2.707982 1_555
F32 Ga0 1.911420 1_555
F32 Zn0 2.069282 1_555
F32 Na2 2.612883 1_555
F32 Na5 2.881443 1_555
F33 Ga1 1.911420 1_565
F33 Zn1 2.069282 1_555
F33 Na3 2.612888 1_555
F33 Na4 2.881438 1_655
F34 Ga0 1.911420 1_655
F34 Zn2 2.069282 1_555
F34 Na2 2.612888 1_555
F34 Na5 2.881438 1_565
F35 Ga1 1.911420 1_556
F35 Zn3 2.069282 1_555
F35 Na3 2.612888 1_556
F35 Na4 2.881438 1_556
F36 Ga2 1.944154 1_555
F36 Zn0 2.068890 1_555
F36 Na8 2.617715 1_555
F36 Na6 2.873510 1_555
F37 Ga2 1.944154 1_555
F37 Zn1 2.068890 1_555
F37 Na9 2.617715 1_555
F37 Na6 2.873510 1_555
F38 Ga3 1.944154 1_555
F38 Zn2 2.068890 1_555
F38 Na10 2.617715 1_555
F38 Na7 2.873510 1_555
F39 Ga3 1.944154 1_555
F39 Zn3 2.068890 1_555
F39 Na11 2.617715 1_555
F39 Na7 2.873510 1_555
F40 Ga4 1.921132 1_555
F40 Zn0 2.051446 1_555
F40 Na12 2.608057 1_455
F40 Na6 2.724215 1_555
F41 Ga5 1.921132 1_555
F41 Zn1 2.051446 1_555
F41 Na13 2.608057 1_565
F41 Na6 2.724215 1_555
F42 Ga6 1.921132 1_555
F42 Zn2 2.051446 1_555
F42 Na14 2.608057 1_655
F42 Na7 2.724215 1_555
F43 Ga7 1.921132 1_555
F43 Zn3 2.051446 1_555
F43 Na15 2.608057 1_545
F43 Na7 2.724215 1_555
F44 Ga4 1.918746 1_545
F44 Zn0 2.047545 1_555
F44 Na12 2.594600 1_545
F44 Na5 2.730371 1_555
F45 Ga5 1.918746 1_655
F45 Zn1 2.047545 1_555
F45 Na13 2.594600 1_655
F45 Na4 2.730371 1_655
F46 Ga6 1.918746 1_565
F46 Zn2 2.047545 1_555
F46 Na14 2.594600 1_565
F46 Na5 2.730371 1_565
F47 Ga7 1.918746 1_455
F47 Zn3 2.047545 1_555
F47 Na15 2.594600 1_455
F47 Na4 2.730371 1_556
F48 Ga0 1.915517 1_655
F48 Zn4 2.046390 1_555
F48 Na2 2.570132 1_555
F48 Na0 2.839008 1_655
F49 Ga1 1.915517 1_555
F49 Zn5 2.046390 1_555
F49 Na3 2.570132 1_555
F49 Na1 2.839008 1_655
F50 Ga0 1.915517 1_555
F50 Zn6 2.046390 1_555
F50 Na2 2.570132 1_555
F50 Na0 2.839008 1_565
F51 Ga1 1.915517 1_566
F51 Zn7 2.046390 1_555
F51 Na3 2.570132 1_556
F51 Na1 2.839008 1_566
F52 Ga2 1.913642 1_555
F52 Zn4 2.042366 1_555
F52 Na8 2.461969 1_655
F52 Na9 2.890576 1_555
F53 Ga2 1.913642 1_555
F53 Zn5 2.042366 1_555
F53 Na9 2.461969 1_545
F53 Na8 2.890576 1_555
F54 Ga3 1.913642 1_555
F54 Zn6 2.042366 1_555
F54 Na10 2.461969 1_455
F54 Na11 2.890576 1_555
F55 Zn1 2.021031 1_555
F55 Zn5 2.021979 1_565
F55 Na9 2.644399 1_555
F55 Na13 2.859986 1_565
