# generated using pymatgen
data_Fe3NiP4
_symmetry_space_group_name_H-M   'P 1'
_cell_length_a   3.22580099
_cell_length_b   5.00491810
_cell_length_c   5.59988752
_cell_angle_alpha   89.61220205
_cell_angle_beta   90.00000000
_cell_angle_gamma   90.00000000
_symmetry_Int_Tables_number   1
_chemical_formula_structural   Fe3NiP4
_chemical_formula_sum   'Fe3 Ni1 P4'
_cell_volume   90.40738391
_cell_formula_units_Z   1
loop_
 _symmetry_equiv_pos_site_id
 _symmetry_equiv_pos_as_xyz
  1  'x, y, z'
loop_
 _atom_site_type_symbol
 _atom_site_label
 _atom_site_symmetry_multiplicity
 _atom_site_fract_x
 _atom_site_fract_y
 _atom_site_fract_z
 _atom_site_occupancy
  Fe  Fe0  1  0.50000000  0.99730556  0.20075118  1
  Fe  Fe1  1  0.00000000  0.50156928  0.70546117  1
  Fe  Fe2  1  0.00000000  0.00003336  0.79872545  1
  Ni  Ni0  1  0.50000000  0.49764897  0.30109623  1
  P  P0  1  0.50000000  0.70079720  0.91329917  1
  P  P1  1  0.50000000  0.18345499  0.58081252  1
  P  P2  1  0.00000000  0.29880950  0.07255901  1
  P  P3  1  0.00000000  0.82038114  0.42729427  1
loop_
_geom_bond_atom_site_label_1
_geom_bond_atom_site_label_2
_geom_bond_distance
_geom_bond_site_symmetry_2
Fe0 P0 2.196753 1_554
Fe0 P3 2.231530 1_555
Fe0 P3 2.231530 1_655
Fe0 P2 2.319310 1_565
Fe0 P2 2.319310 1_665
Fe0 P1 2.329056 1_565
Fe1 P3 2.222346 1_555
Fe1 P0 2.228452 1_455
Fe1 P0 2.228452 1_555
Fe1 P2 2.286373 1_556
Fe1 P1 2.374578 1_455
Fe1 P1 2.374578 1_555
Fe2 P2 2.149079 1_556
Fe2 P1 2.217686 1_555
Fe2 P1 2.217686 1_455
Fe2 P3 2.271577 1_545
Fe2 P0 2.289772 1_445
Fe2 P0 2.289772 1_545
Ni0 P1 2.212014 1_555
Ni0 P2 2.290613 1_555
Ni0 P2 2.290613 1_655
Ni0 P0 2.391611 1_554
Ni0 P3 2.392769 1_555
Ni0 P3 2.392769 1_655
