# generated using pymatgen
data_TiGaPd
_symmetry_space_group_name_H-M   'P 1'
_cell_length_a   4.41026937
_cell_length_b   4.41026937
_cell_length_c   5.38318439
_cell_angle_alpha   90.00000000
_cell_angle_beta   90.00000000
_cell_angle_gamma   120.00000441
_symmetry_Int_Tables_number   1
_chemical_formula_structural   TiGaPd
_chemical_formula_sum   'Ti2 Ga2 Pd2'
_cell_volume   90.67761760
_cell_formula_units_Z   2
loop_
 _symmetry_equiv_pos_site_id
 _symmetry_equiv_pos_as_xyz
  1  'x, y, z'
loop_
 _atom_site_type_symbol
 _atom_site_label
 _atom_site_symmetry_multiplicity
 _atom_site_fract_x
 _atom_site_fract_y
 _atom_site_fract_z
 _atom_site_occupancy
  Ti  Ti0  1  0.00000000  0.00000000  0.00000000  1
  Ti  Ti1  1  0.00000000  0.00000000  0.50000000  1
  Ga  Ga0  1  0.66666700  0.33333300  0.25003806  1
  Ga  Ga1  1  0.33333300  0.66666700  0.74996194  1
  Pd  Pd0  1  0.66666700  0.33333300  0.75003652  1
  Pd  Pd1  1  0.33333300  0.66666700  0.24996348  1
loop_
_geom_bond_atom_site_label_1
_geom_bond_atom_site_label_2
_geom_bond_distance
_geom_bond_site_symmetry_2
Ti0 Ti1 2.691592 1_555
Ti0 Ti1 2.691592 1_554
Ga0 Pd1 2.546268 1_545
Ga0 Pd1 2.546268 1_655
Ga0 Pd1 2.546275 1_555
Ga0 Pd0 2.691584 1_555
Ga0 Pd0 2.691600 1_554
Ga0 Ti1 2.879947 1_655
Ga0 Ti1 2.879950 1_555
Ga0 Ti1 2.879950 1_665
Ga0 Ti0 2.880139 1_655
Ga0 Ti0 2.880142 1_665
Ga0 Ti0 2.880142 1_555
Ga1 Pd0 2.546268 1_565
Ga1 Pd0 2.546268 1_455
Ga1 Pd0 2.546275 1_555
Ga1 Pd1 2.691584 1_555
Ga1 Pd1 2.691600 1_556
Ga1 Ti1 2.879947 1_565
Ga1 Ti1 2.879950 1_555
Ga1 Ti1 2.879950 1_665
Ga1 Ti0 2.880139 1_566
Ga1 Ti0 2.880142 1_666
Ga1 Ti0 2.880142 1_556
Pd0 Ti0 2.879951 1_656
Pd0 Ti0 2.879954 1_666
Pd0 Ti0 2.879954 1_556
Pd0 Ti1 2.880135 1_655
Pd0 Ti1 2.880138 1_555
Pd0 Ti1 2.880138 1_665
Pd1 Ti0 2.879951 1_565
Pd1 Ti0 2.879954 1_555
Pd1 Ti0 2.879954 1_665
Pd1 Ti1 2.880135 1_565
Pd1 Ti1 2.880138 1_555
Pd1 Ti1 2.880138 1_665
