# generated using pymatgen
data_NaU(TeO4)2
_symmetry_space_group_name_H-M   'P 1'
_cell_length_a   7.88327300
_cell_length_b   5.99988900
_cell_length_c   7.90754500
_cell_angle_alpha   90.00000000
_cell_angle_beta   90.00000000
_cell_angle_gamma   90.00000000
_symmetry_Int_Tables_number   1
_chemical_formula_structural   NaU(TeO4)2
_chemical_formula_sum   'Na2 U2 Te4 O16'
_cell_volume   374.01709652
_cell_formula_units_Z   2
loop_
 _symmetry_equiv_pos_site_id
 _symmetry_equiv_pos_as_xyz
  1  'x, y, z'
loop_
 _atom_site_type_symbol
 _atom_site_label
 _atom_site_symmetry_multiplicity
 _atom_site_fract_x
 _atom_site_fract_y
 _atom_site_fract_z
 _atom_site_occupancy
  Na  Na0  1  0.50000000  0.98021000  0.49998900  1
  Na  Na1  1  0.00000000  0.01979000  0.99998900  1
  U  U0  1  0.00000000  0.99845800  0.49939500  1
  U  U1  1  0.50000000  0.00154200  0.99939500  1
  Te  Te0  1  0.25191700  0.56347300  0.73630800  1
  Te  Te1  1  0.74808300  0.56347300  0.73630800  1
  Te  Te2  1  0.24808300  0.43652700  0.23630800  1
  Te  Te3  1  0.75191700  0.43652700  0.23630800  1
  O  O0  1  0.00000000  0.11896000  0.71488700  1
  O  O1  1  0.50000000  0.88104000  0.21488700  1
  O  O2  1  0.00000000  0.88481700  0.28296100  1
  O  O3  1  0.50000000  0.11518300  0.78296100  1
  O  O4  1  0.29691600  0.74955500  0.92968200  1
  O  O5  1  0.70308400  0.74955500  0.92968200  1
  O  O6  1  0.20308400  0.25044500  0.42968200  1
  O  O7  1  0.79691600  0.25044500  0.42968200  1
  O  O8  1  0.22642900  0.76829300  0.55072700  1
  O  O9  1  0.77357100  0.76829300  0.55072700  1
  O  O10  1  0.27357100  0.23170700  0.05072700  1
  O  O11  1  0.72642900  0.23170700  0.05072700  1
  O  O12  1  0.50000000  0.59072000  0.66520800  1
  O  O13  1  0.00000000  0.40928000  0.16520800  1
  O  O14  1  0.00000000  0.64646000  0.78204500  1
  O  O15  1  0.50000000  0.35354000  0.28204500  1
loop_
_geom_bond_atom_site_label_1
_geom_bond_atom_site_label_2
_geom_bond_distance
_geom_bond_site_symmetry_2
Na0 O1 2.331654 1_555
Na0 O3 2.379649 1_565
Na0 O8 2.535489 1_555
Na0 O9 2.535489 1_555
Na0 O12 2.677306 1_555
Na0 O15 2.826206 1_565
Na0 O7 2.901154 1_565
Na0 O6 2.901154 1_565
Na1 O0 2.331654 1_555
Na1 O2 2.379649 1_546
Na1 O11 2.535489 1_456
Na1 O10 2.535489 1_556
Na1 O13 2.677306 1_556
Na1 O14 2.826206 1_545
Na1 O5 2.901154 1_445
Na1 O4 2.901154 1_545
O0 U0 1.851050 1_545
O1 U1 1.851050 1_564
O2 U0 1.842281 1_555
O3 U1 1.842281 1_555
O4 Te0 1.926275 1_555
O4 U1 2.269979 1_565
O5 Te1 1.926275 1_555
O5 U1 2.269979 1_565
O6 Te2 1.926275 1_555
O6 U0 2.269979 1_545
O7 Te3 1.926275 1_555
O7 U0 2.269979 1_645
O8 Te0 1.924601 1_555
O8 U0 2.293045 1_555
O9 Te1 1.924601 1_555
O9 U0 2.293045 1_655
O10 Te2 1.924601 1_555
O10 U1 2.293045 1_554
O11 Te3 1.924601 1_555
O11 U1 2.293045 1_554
O12 Te0 2.041473 1_555
O12 Te1 2.041473 1_555
O13 Te2 2.041473 1_555
O13 Te3 2.041473 1_455
O14 Te1 2.079096 1_455
O14 Te0 2.079096 1_555
O15 Te3 2.079096 1_555
O15 Te2 2.079096 1_555
