# generated using pymatgen
data_Li3Mn2CoO6
_symmetry_space_group_name_H-M   'P 1'
_cell_length_a   3.00513860
_cell_length_b   15.18817472
_cell_length_c   5.18556934
_cell_angle_alpha   81.26542228
_cell_angle_beta   107.12357302
_cell_angle_gamma   95.57011311
_symmetry_Int_Tables_number   1
_chemical_formula_structural   Li3Mn2CoO6
_chemical_formula_sum   'Li6 Mn4 Co2 O12'
_cell_volume   223.22413181
_cell_formula_units_Z   2
loop_
 _symmetry_equiv_pos_site_id
 _symmetry_equiv_pos_as_xyz
  1  'x, y, z'
loop_
 _atom_site_type_symbol
 _atom_site_label
 _atom_site_symmetry_multiplicity
 _atom_site_fract_x
 _atom_site_fract_y
 _atom_site_fract_z
 _atom_site_occupancy
  Li  Li0  1  0.25056900  0.25049200  0.25060800  1
  Li  Li1  1  0.75011900  0.74896200  0.75116800  1
  Li  Li2  1  0.75184900  0.08024600  0.42489900  1
  Li  Li3  1  0.25063900  0.57908100  0.92314200  1
  Li  Li4  1  0.74935300  0.42170400  0.07631600  1
  Li  Li5  1  0.24808900  0.92081400  0.57412100  1
  Mn  Mn0  1  0.00058600  0.66478300  0.33682200  1
  Mn  Mn1  1  0.49792800  0.83430800  0.16147700  1
  Mn  Mn2  1  0.50258300  0.16547000  0.83895300  1
  Mn  Mn3  1  0.99927500  0.33493200  0.66374100  1
  Co  Co0  1  0.49992300  0.49952400  0.50049400  1
  Co  Co1  1  0.99994100  0.99956000  0.00016000  1
  O  O0  1  0.11758600  0.13082000  0.10124100  1
  O  O1  1  0.61585800  0.63020500  0.59979700  1
  O  O2  1  0.38456900  0.37007600  0.40095500  1
  O  O3  1  0.88348800  0.86954800  0.89942400  1
  O  O4  1  0.61009000  0.28828800  0.93228600  1
  O  O5  1  0.10866300  0.78788800  0.42952300  1
  O  O6  1  0.89117500  0.21199400  0.57030800  1
  O  O7  1  0.38827100  0.71149400  0.06735200  1
  O  O8  1  0.11657200  0.44998700  0.78317700  1
  O  O9  1  0.61636600  0.94945200  0.28118700  1
  O  O10  1  0.38319100  0.05046600  0.71684600  1
  O  O11  1  0.88331500  0.54990600  0.21600300  1
loop_
_geom_bond_atom_site_label_1
_geom_bond_atom_site_label_2
_geom_bond_distance
_geom_bond_site_symmetry_2
Li0 O0 2.041470 1_555
Li0 O2 2.042549 1_555
Li0 O4 2.194234 1_454
Li0 O6 2.200243 1_555
Li0 O4 2.205350 1_554
Li0 O6 2.212263 1_455
Li1 O1 2.033347 1_555
Li1 O3 2.051754 1_555
Li1 O7 2.183281 1_656
Li1 O7 2.200214 1_556
Li1 O5 2.208120 1_555
Li1 O5 2.219805 1_655
Li2 O10 2.088866 1_655
Li2 O10 2.099117 1_555
Li2 O9 2.186628 1_545
Li2 O6 2.203999 1_555
Li2 O0 2.246949 1_555
Li2 O0 2.268415 1_655
Li3 O11 2.091985 1_556
Li3 O11 2.099758 1_456
Li3 O8 2.154094 1_555
Li3 O7 2.210886 1_556
Li3 O1 2.249868 1_455
Li3 O1 2.267539 1_555
Li4 O8 2.090298 1_554
Li4 O8 2.100117 1_654
Li4 O11 2.140712 1_555
Li4 O4 2.224862 1_554
Li4 O2 2.256124 1_655
Li4 O2 2.273647 1_555
Li5 O9 2.088565 1_455
Li5 O9 2.101745 1_555
Li5 O10 2.168121 1_565
Li5 O5 2.219079 1_555
Li5 O3 2.256287 1_555
Li5 O3 2.275127 1_455
Mn0 O11 1.908812 1_455
Mn0 O5 1.973739 1_555
Mn0 O1 2.010065 1_555
Mn0 O1 2.016226 1_455
Mn0 O7 2.068833 1_455
Mn0 O7 2.076146 1_555
Mn1 O9 1.910288 1_555
Mn1 O7 1.971984 1_555
Mn1 O3 2.008964 1_454
Mn1 O3 2.015302 1_554
Mn1 O5 2.061286 1_655
Mn1 O5 2.072984 1_555
Mn2 O10 1.913399 1_555
Mn2 O4 1.970633 1_555
Mn2 O0 2.008425 1_656
Mn2 O0 2.014074 1_556
Mn2 O6 2.064387 1_455
Mn2 O6 2.074241 1_555
Mn3 O8 1.908423 1_655
Mn3 O6 1.972574 1_555
Mn3 O2 2.010583 1_555
Mn3 O2 2.017604 1_655
Mn3 O4 2.063504 1_655
Mn3 O4 2.075467 1_555
Co0 O2 2.079088 1_555
Co0 O1 2.096791 1_555
Co0 O8 2.117775 1_655
Co0 O11 2.125593 1_455
Co0 O8 2.129135 1_555
Co0 O11 2.139214 1_555
Co1 O3 2.089509 1_554
Co1 O0 2.108459 1_665
Co1 O9 2.116977 1_655
Co1 O9 2.124530 1_555
Co1 O10 2.126285 1_564
Co1 O10 2.135689 1_664
