# generated using pymatgen
data_ZrAlCu2
_symmetry_space_group_name_H-M   'P 1'
_cell_length_a   6.11007000
_cell_length_b   6.11007000
_cell_length_c   13.14671400
_cell_angle_alpha   90.00000000
_cell_angle_beta   90.00000000
_cell_angle_gamma   90.00000000
_symmetry_Int_Tables_number   1
_chemical_formula_structural   ZrAlCu2
_chemical_formula_sum   'Zr8 Al8 Cu16'
_cell_volume   490.80568748
_cell_formula_units_Z   8
loop_
 _symmetry_equiv_pos_site_id
 _symmetry_equiv_pos_as_xyz
  1  'x, y, z'
loop_
 _atom_site_type_symbol
 _atom_site_label
 _atom_site_symmetry_multiplicity
 _atom_site_fract_x
 _atom_site_fract_y
 _atom_site_fract_z
 _atom_site_occupancy
  Zr  Zr0_0  1  0.25000000  0.25000000  0.37500000  1
  Zr  Zr0_1  1  0.25000000  0.25000000  0.87500000  1
  Zr  Zr0_2  1  0.25000000  0.75000000  0.37500000  1
  Zr  Zr0_3  1  0.25000000  0.75000000  0.87500000  1
  Zr  Zr0_4  1  0.75000000  0.25000000  0.37500000  1
  Zr  Zr0_5  1  0.75000000  0.25000000  0.87500000  1
  Zr  Zr0_6  1  0.75000000  0.75000000  0.37500000  1
  Zr  Zr0_7  1  0.75000000  0.75000000  0.87500000  1
  Al  Al0_0  1  0.25000000  0.25000000  0.12500000  1
  Al  Al0_1  1  0.25000000  0.25000000  0.62500000  1
  Al  Al0_2  1  0.25000000  0.75000000  0.12500000  1
  Al  Al0_3  1  0.25000000  0.75000000  0.62500000  1
  Al  Al0_4  1  0.75000000  0.25000000  0.12500000  1
  Al  Al0_5  1  0.75000000  0.25000000  0.62500000  1
  Al  Al0_6  1  0.75000000  0.75000000  0.12500000  1
  Al  Al0_7  1  0.75000000  0.75000000  0.62500000  1
  Cu  Cu0_0  1  0.00000000  0.00000000  0.01929050  1
  Cu  Cu0_1  1  0.00000000  0.00000000  0.51929050  1
  Cu  Cu0_2  1  0.00000000  0.50000000  0.01929050  1
  Cu  Cu0_3  1  0.00000000  0.50000000  0.51929050  1
  Cu  Cu0_4  1  0.50000000  0.00000000  0.01929050  1
  Cu  Cu0_5  1  0.50000000  0.00000000  0.51929050  1
  Cu  Cu0_6  1  0.50000000  0.50000000  0.01929050  1
  Cu  Cu0_7  1  0.50000000  0.50000000  0.51929050  1
  Cu  Cu1_0  1  0.00000000  0.00000000  0.23070950  1
  Cu  Cu1_1  1  0.00000000  0.00000000  0.73070950  1
  Cu  Cu1_2  1  0.00000000  0.50000000  0.23070950  1
  Cu  Cu1_3  1  0.00000000  0.50000000  0.73070950  1
  Cu  Cu1_4  1  0.50000000  0.00000000  0.23070950  1
  Cu  Cu1_5  1  0.50000000  0.00000000  0.73070950  1
  Cu  Cu1_6  1  0.50000000  0.50000000  0.23070950  1
  Cu  Cu1_7  1  0.50000000  0.50000000  0.73070950  1
loop_
_geom_bond_atom_site_label_1
_geom_bond_atom_site_label_2
_geom_bond_distance
_geom_bond_site_symmetry_2
Zr0_0 Zr0_2 3.055035 1_545
Zr0_0 Zr0_4 3.055035 1_455
Zr0_0 Zr0_4 3.055035 1_555
Zr0_0 Zr0_2 3.055035 1_555
Zr0_1 Zr0_3 3.055035 1_555
Zr0_1 Zr0_5 3.055035 1_455
Zr0_1 Zr0_3 3.055035 1_545
Zr0_1 Zr0_5 3.055035 1_555
Zr0_2 Zr0_6 3.055035 1_555
Zr0_2 Zr0_6 3.055035 1_455
Zr0_3 Zr0_7 3.055035 1_555
Zr0_3 Zr0_7 3.055035 1_455
Zr0_4 Zr0_6 3.055035 1_545
Zr0_4 Zr0_6 3.055035 1_555
Zr0_5 Zr0_7 3.055035 1_555
Zr0_5 Zr0_7 3.055035 1_545
Al0_0 Cu1_2 2.568653 1_555
Al0_0 Cu1_4 2.568653 1_555
Al0_0 Cu1_6 2.568653 1_555
Al0_0 Cu1_0 2.568653 1_555
Al0_0 Cu0_0 2.568653 1_555
Al0_0 Cu0_2 2.568653 1_555
Al0_0 Cu0_6 2.568653 1_555
Al0_0 Cu0_4 2.568653 1_555
Al0_1 Cu1_3 2.568653 1_555
Al0_1 Cu1_7 2.568653 1_555
Al0_1 Cu1_1 2.568653 1_555
Al0_1 Cu1_5 2.568653 1_555
Al0_1 Cu0_1 2.568653 1_555
Al0_1 Cu0_5 2.568653 1_555
Al0_1 Cu0_3 2.568653 1_555
Al0_1 Cu0_7 2.568653 1_555
Al0_2 Cu1_2 2.568653 1_555
Al0_2 Cu1_6 2.568653 1_555
Al0_2 Cu1_0 2.568653 1_565
Al0_2 Cu1_4 2.568653 1_565
Al0_2 Cu0_0 2.568653 1_565
Al0_2 Cu0_2 2.568653 1_555
Al0_2 Cu0_4 2.568653 1_565
Al0_2 Cu0_6 2.568653 1_555
Al0_3 Cu1_3 2.568653 1_555
Al0_3 Cu1_7 2.568653 1_555
Al0_3 Cu1_1 2.568653 1_565
Al0_3 Cu1_5 2.568653 1_565
Al0_3 Cu0_3 2.568653 1_555
Al0_3 Cu0_7 2.568653 1_555
Al0_3 Cu0_1 2.568653 1_565
Al0_3 Cu0_5 2.568653 1_565
Al0_4 Cu1_2 2.568653 1_655
Al0_4 Cu1_4 2.568653 1_555
Al0_4 Cu1_6 2.568653 1_555
Al0_4 Cu1_0 2.568653 1_655
Al0_4 Cu0_2 2.568653 1_655
Al0_4 Cu0_6 2.568653 1_555
Al0_4 Cu0_0 2.568653 1_655
Al0_4 Cu0_4 2.568653 1_555
Al0_5 Cu1_3 2.568653 1_655
Al0_5 Cu1_7 2.568653 1_555
Al0_5 Cu1_5 2.568653 1_555
Al0_5 Cu1_1 2.568653 1_655
Al0_5 Cu0_5 2.568653 1_555
Al0_5 Cu0_7 2.568653 1_555
Al0_5 Cu0_3 2.568653 1_655
Al0_5 Cu0_1 2.568653 1_655
Al0_6 Cu1_2 2.568653 1_655
Al0_6 Cu1_0 2.568653 1_665
Al0_6 Cu1_6 2.568653 1_555
Al0_6 Cu1_4 2.568653 1_565
Al0_6 Cu0_2 2.568653 1_655
Al0_6 Cu0_0 2.568653 1_665
Al0_6 Cu0_4 2.568653 1_565
Al0_6 Cu0_6 2.568653 1_555
Al0_7 Cu1_3 2.568653 1_655
Al0_7 Cu1_7 2.568653 1_555
Al0_7 Cu1_5 2.568653 1_565
Al0_7 Cu1_1 2.568653 1_665
Al0_7 Cu0_3 2.568653 1_655
Al0_7 Cu0_7 2.568653 1_555
Al0_7 Cu0_1 2.568653 1_665
Al0_7 Cu0_5 2.568653 1_565
Cu0_0 Cu1_0 2.779465 1_555
Cu0_0 Zr0_5 2.874895 1_454
Cu0_0 Zr0_3 2.874895 1_544
Cu0_0 Zr0_1 2.874895 1_554
Cu0_0 Zr0_7 2.874895 1_444
Cu0_0 Cu0_4 3.055035 1_555
Cu0_0 Cu0_4 3.055035 1_455
Cu0_0 Cu0_2 3.055035 1_545
Cu0_0 Cu0_2 3.055035 1_555
Cu0_1 Cu1_1 2.779465 1_555
Cu0_1 Zr0_4 2.874895 1_455
Cu0_1 Zr0_6 2.874895 1_445
Cu0_1 Zr0_0 2.874895 1_555
Cu0_1 Zr0_2 2.874895 1_545
Cu0_1 Cu0_3 3.055035 1_555
Cu0_1 Cu0_5 3.055035 1_455
Cu0_1 Cu0_5 3.055035 1_555
Cu0_1 Cu0_3 3.055035 1_545
Cu0_2 Cu1_2 2.779465 1_555
Cu0_2 Zr0_5 2.874895 1_454
Cu0_2 Zr0_3 2.874895 1_554
Cu0_2 Zr0_1 2.874895 1_554
Cu0_2 Zr0_7 2.874895 1_454
Cu0_2 Cu0_6 3.055035 1_555
Cu0_2 Cu0_6 3.055035 1_455
Cu0_3 Cu1_3 2.779465 1_555
Cu0_3 Zr0_4 2.874895 1_455
Cu0_3 Zr0_6 2.874895 1_455
Cu0_3 Zr0_2 2.874895 1_555
Cu0_3 Zr0_0 2.874895 1_555
Cu0_3 Cu0_7 3.055035 1_555
Cu0_3 Cu0_7 3.055035 1_455
Cu0_4 Cu1_4 2.779465 1_555
Cu0_4 Zr0_5 2.874895 1_554
Cu0_4 Zr0_7 2.874895 1_544
Cu0_4 Zr0_1 2.874895 1_554
Cu0_4 Zr0_3 2.874895 1_544
Cu0_4 Cu0_6 3.055035 1_555
Cu0_4 Cu0_6 3.055035 1_545
Cu0_5 Cu1_5 2.779465 1_555
Cu0_5 Zr0_4 2.874895 1_555
Cu0_5 Zr0_6 2.874895 1_545
Cu0_5 Zr0_2 2.874895 1_545
Cu0_5 Zr0_0 2.874895 1_555
Cu0_5 Cu0_7 3.055035 1_545
Cu0_5 Cu0_7 3.055035 1_555
Cu0_6 Cu1_6 2.779465 1_555
Cu0_6 Zr0_5 2.874895 1_554
Cu0_6 Zr0_3 2.874895 1_554
Cu0_6 Zr0_1 2.874895 1_554
Cu0_6 Zr0_7 2.874895 1_554
Cu0_7 Cu1_7 2.779465 1_555
Cu0_7 Zr0_4 2.874895 1_555
Cu0_7 Zr0_6 2.874895 1_555
Cu0_7 Zr0_2 2.874895 1_555
Cu0_7 Zr0_0 2.874895 1_555
Cu1_0 Zr0_0 2.874895 1_555
Cu1_0 Zr0_2 2.874895 1_545
Cu1_0 Zr0_4 2.874895 1_455
Cu1_0 Zr0_6 2.874895 1_445
Cu1_0 Cu1_2 3.055035 1_545
Cu1_0 Cu1_2 3.055035 1_555
Cu1_0 Cu1_4 3.055035 1_455
Cu1_0 Cu1_4 3.055035 1_555
Cu1_1 Zr0_1 2.874895 1_555
Cu1_1 Zr0_5 2.874895 1_455
Cu1_1 Zr0_3 2.874895 1_545
Cu1_1 Zr0_7 2.874895 1_445
Cu1_1 Cu1_5 3.055035 1_555
Cu1_1 Cu1_3 3.055035 1_545
Cu1_1 Cu1_3 3.055035 1_555
Cu1_1 Cu1_5 3.055035 1_455
Cu1_2 Zr0_6 2.874895 1_455
Cu1_2 Zr0_0 2.874895 1_555
Cu1_2 Zr0_2 2.874895 1_555
Cu1_2 Zr0_4 2.874895 1_455
Cu1_2 Cu1_6 3.055035 1_455
Cu1_2 Cu1_6 3.055035 1_555
Cu1_3 Zr0_3 2.874895 1_555
Cu1_3 Zr0_7 2.874895 1_455
Cu1_3 Zr0_1 2.874895 1_555
Cu1_3 Zr0_5 2.874895 1_455
Cu1_3 Cu1_7 3.055035 1_455
Cu1_3 Cu1_7 3.055035 1_555
Cu1_4 Zr0_6 2.874895 1_545
Cu1_4 Zr0_0 2.874895 1_555
Cu1_4 Zr0_2 2.874895 1_545
Cu1_4 Zr0_4 2.874895 1_555
Cu1_4 Cu1_6 3.055035 1_545
Cu1_4 Cu1_6 3.055035 1_555
Cu1_5 Zr0_7 2.874895 1_545
Cu1_5 Zr0_1 2.874895 1_555
Cu1_5 Zr0_3 2.874895 1_545
Cu1_5 Zr0_5 2.874895 1_555
Cu1_5 Cu1_7 3.055035 1_555
Cu1_5 Cu1_7 3.055035 1_545
Cu1_6 Zr0_0 2.874895 1_555
Cu1_6 Zr0_2 2.874895 1_555
Cu1_6 Zr0_6 2.874895 1_555
Cu1_6 Zr0_4 2.874895 1_555
Cu1_7 Zr0_3 2.874895 1_555
Cu1_7 Zr0_1 2.874895 1_555
Cu1_7 Zr0_7 2.874895 1_555
Cu1_7 Zr0_5 2.874895 1_555
