# generated using pymatgen
data_NaEuTi4O12
_symmetry_space_group_name_H-M   'P 1'
_cell_length_a   5.60332316
_cell_length_b   5.60332316
_cell_length_c   8.13923750
_cell_angle_alpha   90.00000000
_cell_angle_beta   90.00000000
_cell_angle_gamma   90.53593842
_symmetry_Int_Tables_number   1
_chemical_formula_structural   NaEuTi4O12
_chemical_formula_sum   'Na1 Eu1 Ti4 O12'
_cell_volume   255.53833575
_cell_formula_units_Z   1
loop_
 _symmetry_equiv_pos_site_id
 _symmetry_equiv_pos_as_xyz
  1  'x, y, z'
loop_
 _atom_site_type_symbol
 _atom_site_label
 _atom_site_symmetry_multiplicity
 _atom_site_fract_x
 _atom_site_fract_y
 _atom_site_fract_z
 _atom_site_occupancy
  Na  Na0  1  0.00975772  0.99024228  0.50000000  1
  Eu  Eu0  1  0.48375777  0.51624223  -0.00000000  1
  Ti  Ti0  1  0.50275888  0.01021023  0.26403159  1
  Ti  Ti1  1  0.50275888  0.01021023  0.73596841  1
  Ti  Ti2  1  0.98978977  0.49724112  0.73596841  1
  Ti  Ti3  1  0.98978977  0.49724112  0.26403159  1
  O  O0  1  0.28753334  0.29052007  0.23364114  1
  O  O1  1  0.70947993  0.71246666  0.23364114  1
  O  O2  1  0.70947993  0.71246666  0.76635886  1
  O  O3  1  0.28753334  0.29052007  0.76635886  1
  O  O4  1  0.23358608  0.76641392  0.20424818  1
  O  O5  1  0.78903549  0.21096451  0.28239652  1
  O  O6  1  0.78903549  0.21096451  0.71760348  1
  O  O7  1  0.23358608  0.76641392  0.79575182  1
  O  O8  1  0.53322637  0.04675237  -0.00000000  1
  O  O9  1  0.45214410  0.97510057  0.50000000  1
  O  O10  1  0.95324763  0.46677363  -0.00000000  1
  O  O11  1  0.02489943  0.54785590  0.50000000  1
loop_
_geom_bond_atom_site_label_1
_geom_bond_atom_site_label_2
_geom_bond_distance
_geom_bond_site_symmetry_2
Na0 O9 2.481078 1_555
Na0 O11 2.481078 1_555
Na0 O6 2.494944 1_465
Na0 O5 2.494944 1_465
Eu0 O0 2.529609 1_555
Eu0 O2 2.529609 1_554
Eu0 O1 2.529609 1_555
Eu0 O3 2.529609 1_554
Eu0 O7 2.594313 1_554
Eu0 O4 2.594313 1_555
Eu0 O10 2.647844 1_555
Eu0 O8 2.647844 1_555
Eu0 O8 2.982933 1_565
Eu0 O10 2.982933 1_455
O0 Ti0 2.004494 1_555
O0 Ti3 2.054862 1_455
O1 Ti3 2.004494 1_555
O1 Ti0 2.054862 1_565
O2 Ti2 2.004494 1_555
O2 Ti1 2.054862 1_565
O3 Ti1 2.004494 1_555
O3 Ti2 2.054862 1_455
O4 Ti3 2.083081 1_455
O4 Ti0 2.083081 1_565
O5 Ti3 1.956299 1_555
O5 Ti0 1.956299 1_555
O6 Ti2 1.956299 1_555
O6 Ti1 1.956299 1_555
O7 Ti2 2.083081 1_455
O7 Ti1 2.083081 1_565
O8 Ti0 2.165337 1_555
O8 Ti1 2.165337 1_554
O9 Ti0 1.951105 1_565
O9 Ti1 1.951105 1_565
O10 Ti3 2.165337 1_555
O10 Ti2 2.165337 1_554
O11 Ti3 1.951105 1_455
O11 Ti2 1.951105 1_455
