# generated using pymatgen
data_Li9Mn7O16
_symmetry_space_group_name_H-M   'P 1'
_cell_length_a   5.36353200
_cell_length_b   6.02884968
_cell_length_c   10.13292851
_cell_angle_alpha   86.89254313
_cell_angle_beta   102.08139181
_cell_angle_gamma   110.69581741
_symmetry_Int_Tables_number   1
_chemical_formula_structural   Li9Mn7O16
_chemical_formula_sum   'Li9 Mn7 O16'
_cell_volume   299.65501648
_cell_formula_units_Z   1
loop_
 _symmetry_equiv_pos_site_id
 _symmetry_equiv_pos_as_xyz
  1  'x, y, z'
loop_
 _atom_site_type_symbol
 _atom_site_label
 _atom_site_symmetry_multiplicity
 _atom_site_fract_x
 _atom_site_fract_y
 _atom_site_fract_z
 _atom_site_occupancy
  Li  Li0  1  0.98997700  0.86654400  0.12065400  1
  Li  Li1  1  0.00167300  0.62283400  0.37347000  1
  Li  Li2  1  0.50000000  0.00000000  0.00000000  1
  Li  Li3  1  0.49131300  0.75291800  0.24889400  1
  Li  Li4  1  0.01002300  0.13345600  0.87934600  1
  Li  Li5  1  0.50868700  0.24708200  0.75110600  1
  Li  Li6  1  0.99832700  0.37716600  0.62653000  1
  Li  Li7  1  0.50000000  0.50000000  0.50000000  1
  Li  Li8  1  0.50000000  0.50000000  0.00000000  1
  Mn  Mn0  1  0.99948500  0.37481200  0.12370800  1
  Mn  Mn1  1  0.00051500  0.62518800  0.87629200  1
  Mn  Mn2  1  0.99933400  0.12417700  0.37395400  1
  Mn  Mn3  1  0.00066600  0.87582300  0.62604600  1
  Mn  Mn4  1  0.49972600  0.25335300  0.24687900  1
  Mn  Mn5  1  0.50000000  0.00000000  0.50000000  1
  Mn  Mn6  1  0.50027400  0.74664700  0.75312100  1
  O  O0  1  0.21823100  0.67485500  0.05802600  1
  O  O1  1  0.22391100  0.42512200  0.30610800  1
  O  O2  1  0.76498700  0.78717700  0.92194600  1
  O  O3  1  0.76553600  0.52571600  0.18221200  1
  O  O4  1  0.22809400  0.92731700  0.81220500  1
  O  O5  1  0.72376200  0.04829600  0.68273000  1
  O  O6  1  0.22179500  0.17616900  0.55979300  1
  O  O7  1  0.72420500  0.29878300  0.43246100  1
  O  O8  1  0.77190600  0.07268300  0.18779500  1
  O  O9  1  0.77820500  0.82383100  0.44020700  1
  O  O10  1  0.23501300  0.21282300  0.07805400  1
  O  O11  1  0.27623800  0.95170400  0.31727000  1
  O  O12  1  0.78176900  0.32514500  0.94197400  1
  O  O13  1  0.23446400  0.47428400  0.81778800  1
  O  O14  1  0.77608900  0.57487800  0.69389200  1
  O  O15  1  0.27579500  0.70121700  0.56753900  1
loop_
_geom_bond_atom_site_label_1
_geom_bond_atom_site_label_2
_geom_bond_distance
_geom_bond_site_symmetry_2
Li0 O2 2.102037 1_554
Li0 O10 2.114810 1_665
Li0 O3 2.118355 1_555
Li0 O0 2.154486 1_655
Li0 O8 2.197176 1_565
Li0 O11 2.205326 1_655
Li1 O3 2.067408 1_455
Li1 O7 2.139997 1_455
Li1 O11 2.142187 1_555
Li1 O15 2.156719 1_555
Li1 O1 2.177285 1_555
Li1 O9 2.194771 1_455
Li2 O8 2.101661 1_555
Li2 O4 2.101661 1_544
Li2 O0 2.150660 1_545
Li2 O12 2.150660 1_554
Li2 O2 2.482207 1_544
Li2 O10 2.482207 1_555
Li3 O1 2.125811 1_555
Li3 O0 2.129085 1_555
Li3 O8 2.138844 1_565
Li3 O11 2.156103 1_555
Li3 O9 2.164430 1_555
Li3 O3 2.537008 1_555
Li4 O10 2.102037 1_556
Li4 O2 2.114810 1_445
Li4 O13 2.118355 1_555
Li4 O12 2.154486 1_455
Li4 O4 2.197176 1_545
Li4 O5 2.205326 1_455
Li5 O14 2.125811 1_555
Li5 O12 2.129085 1_555
Li5 O4 2.138844 1_545
Li5 O5 2.156103 1_555
Li5 O6 2.164430 1_555
Li5 O13 2.537008 1_555
Li6 O13 2.067408 1_655
Li6 O15 2.139997 1_655
Li6 O5 2.142187 1_555
Li6 O7 2.156719 1_555
Li6 O14 2.177285 1_555
Li6 O6 2.194771 1_655
Li7 O6 2.143908 1_555
Li7 O9 2.143908 1_555
Li7 O14 2.159265 1_555
Li7 O1 2.159265 1_555
Li7 O15 2.202652 1_555
Li7 O7 2.202652 1_555
Li8 O2 2.055709 1_554
Li8 O10 2.055709 1_555
Li8 O13 2.058059 1_554
Li8 O3 2.058059 1_555
Li8 O0 2.303515 1_555
Li8 O12 2.303515 1_554
Mn0 O12 1.938260 1_554
Mn0 O0 1.946256 1_655
Mn0 O1 1.956623 1_655
Mn0 O8 1.965078 1_555
Mn0 O10 1.982224 1_655
Mn0 O3 1.982517 1_555
Mn1 O0 1.938260 1_556
Mn1 O12 1.946256 1_455
Mn1 O14 1.956623 1_455
Mn1 O4 1.965078 1_555
Mn1 O2 1.982224 1_455
Mn1 O13 1.982517 1_555
Mn2 O9 1.954407 1_545
Mn2 O1 1.970304 1_655
Mn2 O6 1.981683 1_655
Mn2 O8 1.993797 1_555
Mn2 O11 2.265010 1_645
Mn2 O7 2.273543 1_555
Mn3 O6 1.954407 1_565
Mn3 O14 1.970304 1_455
Mn3 O9 1.981683 1_455
Mn3 O4 1.993797 1_555
Mn3 O5 2.265010 1_465
Mn3 O15 2.273543 1_555
Mn4 O3 1.943698 1_555
Mn4 O10 1.945607 1_555
Mn4 O11 1.982260 1_545
Mn4 O7 1.983903 1_555
Mn4 O1 2.267797 1_555
Mn4 O8 2.288336 1_555
Mn5 O5 1.958259 1_555
Mn5 O11 1.958259 1_545
Mn5 O15 1.959330 1_545
Mn5 O7 1.959330 1_555
Mn5 O6 2.300014 1_555
Mn5 O9 2.300014 1_545
Mn6 O13 1.943698 1_555
Mn6 O2 1.945607 1_555
Mn6 O5 1.982260 1_565
Mn6 O15 1.983903 1_555
Mn6 O14 2.267797 1_555
Mn6 O4 2.288336 1_555
