# generated using pymatgen
data_Ba2NaNb5O15
_symmetry_space_group_name_H-M   'P 1'
_cell_length_a   12.64543700
_cell_length_b   12.64543700
_cell_length_c   4.14390300
_cell_angle_alpha   90.00000000
_cell_angle_beta   90.00000000
_cell_angle_gamma   90.00000000
_symmetry_Int_Tables_number   1
_chemical_formula_structural   Ba2NaNb5O15
_chemical_formula_sum   'Ba4 Na2 Nb10 O30'
_cell_volume   662.63941577
_cell_formula_units_Z   2
loop_
 _symmetry_equiv_pos_site_id
 _symmetry_equiv_pos_as_xyz
  1  'x, y, z'
loop_
 _atom_site_type_symbol
 _atom_site_label
 _atom_site_symmetry_multiplicity
 _atom_site_fract_x
 _atom_site_fract_y
 _atom_site_fract_z
 _atom_site_occupancy
  Ba  Ba0  1  0.32943100  0.82943100  0.18301400  1
  Ba  Ba1  1  0.82943100  0.67056900  0.18301400  1
  Ba  Ba2  1  0.17056900  0.32943100  0.18301400  1
  Ba  Ba3  1  0.67056900  0.17056900  0.18301400  1
  Na  Na0  1  0.50000000  0.50000000  0.13578100  1
  Na  Na1  1  0.00000000  0.00000000  0.13578100  1
  Nb  Nb0  1  0.00000000  0.50000000  0.67161000  1
  Nb  Nb1  1  0.50000000  0.00000000  0.67161000  1
  Nb  Nb2  1  0.79173200  0.92422200  0.67733000  1
  Nb  Nb3  1  0.20826800  0.07577800  0.67733000  1
  Nb  Nb4  1  0.07577800  0.79173200  0.67733000  1
  Nb  Nb5  1  0.92422200  0.20826800  0.67733000  1
  Nb  Nb6  1  0.57577800  0.70826800  0.67733000  1
  Nb  Nb7  1  0.70826800  0.42422200  0.67733000  1
  Nb  Nb8  1  0.29173200  0.57577800  0.67733000  1
  Nb  Nb9  1  0.42422200  0.29173200  0.67733000  1
  O  O0  1  0.00000000  0.50000000  0.22498800  1
  O  O1  1  0.50000000  0.00000000  0.22498800  1
  O  O2  1  0.70423400  0.42208000  0.23126900  1
  O  O3  1  0.29576600  0.57792000  0.23126900  1
  O  O4  1  0.57792000  0.70423400  0.23126900  1
  O  O5  1  0.42208000  0.29576600  0.23126900  1
  O  O6  1  0.07792000  0.79576600  0.23126900  1
  O  O7  1  0.79576600  0.92208000  0.23126900  1
  O  O8  1  0.20423400  0.07792000  0.23126900  1
  O  O9  1  0.92208000  0.20423400  0.23126900  1
  O  O10  1  0.85861300  0.06834500  0.74202000  1
  O  O11  1  0.14138700  0.93165500  0.74202000  1
  O  O12  1  0.93165500  0.85861300  0.74202000  1
  O  O13  1  0.06834500  0.14138700  0.74202000  1
  O  O14  1  0.43165500  0.64138700  0.74202000  1
  O  O15  1  0.64138700  0.56834500  0.74202000  1
  O  O16  1  0.50598700  0.15676900  0.73127400  1
  O  O17  1  0.15676900  0.49401300  0.73127400  1
  O  O18  1  0.84323100  0.50598700  0.73127400  1
  O  O19  1  0.49401300  0.84323100  0.73127400  1
  O  O20  1  0.00598700  0.34323100  0.73127400  1
  O  O21  1  0.99401300  0.65676900  0.73127400  1
  O  O22  1  0.34323100  0.99401300  0.73127400  1
  O  O23  1  0.65676900  0.00598700  0.73127400  1
  O  O24  1  0.78119400  0.28119400  0.72356100  1
  O  O25  1  0.28119400  0.21880600  0.72356100  1
  O  O26  1  0.71880600  0.78119400  0.72356100  1
  O  O27  1  0.21880600  0.71880600  0.72356100  1
  O  O28  1  0.56834500  0.35861300  0.74202000  1
  O  O29  1  0.35861300  0.43165500  0.74202000  1
loop_
_geom_bond_atom_site_label_1
_geom_bond_atom_site_label_2
_geom_bond_distance
_geom_bond_site_symmetry_2
Ba0 O27 2.745687 1_554
Ba0 O22 2.804666 1_554
Ba0 O19 2.804666 1_554
Ba0 O27 2.988534 1_555
Ba0 O1 3.055300 1_565
Ba0 O22 3.086031 1_555
Ba0 O19 3.086031 1_555
Ba0 O3 3.215055 1_555
Ba0 O6 3.215055 1_555
Ba0 O14 3.265718 1_554
Ba0 O11 3.265718 1_554
Ba1 O26 2.745687 1_554
Ba1 O21 2.804666 1_554
Ba1 O18 2.804666 1_554
Ba1 O26 2.988534 1_555
Ba1 O0 3.055300 1_655
Ba1 O18 3.086031 1_555
Ba1 O21 3.086031 1_555
Ba1 O4 3.215055 1_555
Ba1 O7 3.215055 1_555
Ba1 O15 3.265718 1_554
Ba1 O12 3.265718 1_554
Ba2 O25 2.745687 1_554
Ba2 O17 2.804666 1_554
Ba2 O20 2.804666 1_554
Ba2 O25 2.988534 1_555
Ba2 O0 3.055300 1_555
Ba2 O20 3.086031 1_555
Ba2 O17 3.086031 1_555
Ba2 O8 3.215055 1_555
Ba2 O5 3.215055 1_555
Ba2 O29 3.265718 1_554
Ba2 O13 3.265718 1_554
Ba3 O24 2.745687 1_554
Ba3 O16 2.804666 1_554
Ba3 O23 2.804666 1_554
Ba3 O24 2.988534 1_555
Ba3 O1 3.055300 1_555
Ba3 O16 3.086031 1_555
Ba3 O23 3.086031 1_555
Ba3 O2 3.215055 1_555
Ba3 O9 3.215055 1_555
Ba3 O28 3.265718 1_554
Ba3 O10 3.265718 1_554
Na0 O15 2.570212 1_554
Na0 O14 2.570212 1_554
Na0 O28 2.570212 1_554
Na0 O29 2.570212 1_554
Na0 O2 2.792386 1_555
Na0 O4 2.792386 1_555
Na0 O5 2.792386 1_555
Na0 O3 2.792386 1_555
Na1 O11 2.570212 1_544
Na1 O13 2.570212 1_554
Na1 O12 2.570212 1_444
Na1 O10 2.570212 1_454
Na1 O9 2.792386 1_455
Na1 O7 2.792386 1_445
Na1 O8 2.792386 1_555
Na1 O6 2.792386 1_545
Nb0 O0 1.850758 1_555
Nb0 O21 1.999205 1_455
Nb0 O17 1.999205 1_555
Nb0 O20 1.999205 1_555
Nb0 O18 1.999205 1_455
Nb0 O0 2.293145 1_556
Nb1 O1 1.850758 1_555
Nb1 O23 1.999205 1_555
Nb1 O16 1.999205 1_555
Nb1 O22 1.999205 1_545
Nb1 O19 1.999205 1_545
Nb1 O1 2.293145 1_556
Nb2 O7 1.849336 1_555
Nb2 O12 1.972541 1_555
Nb2 O23 2.007919 1_565
Nb2 O10 2.026977 1_565
Nb2 O26 2.039201 1_555
Nb2 O7 2.296196 1_556
Nb3 O8 1.849336 1_555
Nb3 O13 1.972541 1_555
Nb3 O22 2.007919 1_545
Nb3 O11 2.026977 1_545
Nb3 O25 2.039201 1_555
Nb3 O8 2.296196 1_556
Nb4 O6 1.849336 1_555
Nb4 O11 1.972541 1_555
Nb4 O21 2.007919 1_455
Nb4 O12 2.026977 1_455
Nb4 O27 2.039201 1_555
Nb4 O6 2.296196 1_556
Nb5 O9 1.849336 1_555
Nb5 O10 1.972541 1_555
Nb5 O20 2.007919 1_655
Nb5 O13 2.026977 1_655
Nb5 O24 2.039201 1_555
Nb5 O9 2.296196 1_556
Nb6 O4 1.849336 1_555
Nb6 O15 1.972541 1_555
Nb6 O19 2.007919 1_555
Nb6 O14 2.026977 1_555
Nb6 O26 2.039201 1_555
Nb6 O4 2.296196 1_556
Nb7 O2 1.849336 1_555
Nb7 O28 1.972541 1_555
Nb7 O18 2.007919 1_555
Nb7 O15 2.026977 1_555
Nb7 O24 2.039201 1_555
Nb7 O2 2.296196 1_556
Nb8 O3 1.849336 1_555
Nb8 O14 1.972541 1_555
Nb8 O17 2.007919 1_555
Nb8 O29 2.026977 1_555
Nb8 O27 2.039201 1_555
Nb8 O3 2.296196 1_556
Nb9 O5 1.849336 1_555
Nb9 O29 1.972541 1_555
Nb9 O16 2.007919 1_555
Nb9 O28 2.026977 1_555
Nb9 O25 2.039201 1_555
Nb9 O5 2.296196 1_556
