# generated using pymatgen
data_Ce2Ni5C3
_symmetry_space_group_name_H-M   'P 1'
_cell_length_a   8.33211900
_cell_length_b   8.33211900
_cell_length_c   3.88225200
_cell_angle_alpha   90.00000000
_cell_angle_beta   90.00000000
_cell_angle_gamma   90.00000000
_symmetry_Int_Tables_number   1
_chemical_formula_structural   Ce2Ni5C3
_chemical_formula_sum   'Ce4 Ni10 C6'
_cell_volume   269.52226659
_cell_formula_units_Z   2
loop_
 _symmetry_equiv_pos_site_id
 _symmetry_equiv_pos_as_xyz
  1  'x, y, z'
loop_
 _atom_site_type_symbol
 _atom_site_label
 _atom_site_symmetry_multiplicity
 _atom_site_fract_x
 _atom_site_fract_y
 _atom_site_fract_z
 _atom_site_occupancy
  Ce  Ce0  1  0.34107700  0.84107700  0.00000000  1
  Ce  Ce1  1  0.65892300  0.15892300  0.00000000  1
  Ce  Ce2  1  0.15892300  0.34107700  0.00000000  1
  Ce  Ce3  1  0.84107700  0.65892300  0.00000000  1
  Ni  Ni0  1  0.57669500  0.71250300  0.50000000  1
  Ni  Ni1  1  0.42330500  0.28749700  0.50000000  1
  Ni  Ni2  1  0.92330500  0.21250300  0.50000000  1
  Ni  Ni3  1  0.07669500  0.78749700  0.50000000  1
  Ni  Ni4  1  0.71250300  0.42330500  0.50000000  1
  Ni  Ni5  1  0.28749700  0.57669500  0.50000000  1
  Ni  Ni6  1  0.21250300  0.07669500  0.50000000  1
  Ni  Ni7  1  0.78749700  0.92330500  0.50000000  1
  Ni  Ni8  1  0.50000000  0.50000000  0.00000000  1
  Ni  Ni9  1  0.00000000  0.00000000  0.00000000  1
  C  C0  1  0.50000000  0.50000000  0.50000000  1
  C  C1  1  0.00000000  0.00000000  0.50000000  1
  C  C2  1  0.05808500  0.55808500  0.50000000  1
  C  C3  1  0.94191500  0.44191500  0.50000000  1
  C  C4  1  0.44191500  0.05808500  0.50000000  1
  C  C5  1  0.55808500  0.94191500  0.50000000  1
loop_
_geom_bond_atom_site_label_1
_geom_bond_atom_site_label_2
_geom_bond_distance
_geom_bond_site_symmetry_2
Ce0 Ni6 2.961382 1_564
Ce0 Ni6 2.961382 1_565
Ce0 Ni0 2.961382 1_554
Ce0 Ni0 2.961382 1_555
Ce0 Ni3 2.969828 1_554
Ce0 Ni3 2.969828 1_555
Ce0 Ni5 2.969828 1_554
Ce0 Ni5 2.969828 1_555
Ce0 Ni9 3.135247 1_565
Ce0 Ni8 3.135247 1_555
Ce1 Ni1 2.961382 1_554
Ce1 Ni1 2.961382 1_555
Ce1 Ni7 2.961382 1_545
Ce1 Ni7 2.961382 1_544
Ce1 Ni2 2.969828 1_554
Ce1 Ni2 2.969828 1_555
Ce1 Ni4 2.969828 1_554
Ce1 Ni4 2.969828 1_555
Ce1 Ni9 3.135247 1_655
Ce1 Ni8 3.135247 1_555
Ce2 Ni2 2.961382 1_454
Ce2 Ni2 2.961382 1_455
Ce2 Ni5 2.961382 1_554
Ce2 Ni5 2.961382 1_555
Ce2 Ni6 2.969828 1_555
Ce2 Ni6 2.969828 1_554
Ce2 Ni1 2.969828 1_555
Ce2 Ni1 2.969828 1_554
Ce2 Ni9 3.135247 1_555
Ce2 Ni8 3.135247 1_555
Ce3 Ni4 2.961382 1_555
Ce3 Ni4 2.961382 1_554
Ce3 Ni3 2.961382 1_655
Ce3 Ni3 2.961382 1_654
Ce3 Ni7 2.969828 1_554
Ce3 Ni7 2.969828 1_555
Ce3 Ni0 2.969828 1_555
Ce3 Ni0 2.969828 1_554
Ce3 Ni8 3.135247 1_555
Ce3 Ni9 3.135247 1_665
C0 Ni5 1.882389 1_555
C0 Ni0 1.882389 1_555
C0 Ni1 1.882389 1_555
C0 Ni4 1.882389 1_555
C0 Ni8 1.941126 1_555
C0 Ni8 1.941126 1_556
C1 Ni6 1.882389 1_555
C1 Ni3 1.882389 1_545
C1 Ni7 1.882389 1_445
C1 Ni2 1.882389 1_455
C1 Ni9 1.941126 1_555
C1 Ni9 1.941126 1_556
C2 C3 1.368877 1_455
C2 Ni5 1.917767 1_555
C2 Ni3 1.917767 1_555
C2 Ce2 2.782670 1_556
C2 Ce2 2.782670 1_555
C2 Ce3 2.782670 1_455
C2 Ce3 2.782670 1_456
C3 Ni4 1.917767 1_555
C3 Ni2 1.917767 1_555
C3 Ce3 2.782670 1_555
C3 Ce3 2.782670 1_556
C3 Ce2 2.782670 1_656
C3 Ce2 2.782670 1_655
C4 C5 1.368877 1_545
C4 Ni1 1.917767 1_555
C4 Ni6 1.917767 1_555
C4 Ce1 2.782670 1_555
C4 Ce1 2.782670 1_556
C4 Ce0 2.782670 1_546
C4 Ce0 2.782670 1_545
C5 Ni0 1.917767 1_555
C5 Ni7 1.917767 1_555
C5 Ce1 2.782670 1_565
C5 Ce1 2.782670 1_566
C5 Ce0 2.782670 1_556
C5 Ce0 2.782670 1_555
