# generated using pymatgen
data_Zn(Cu2O3)2
_symmetry_space_group_name_H-M   'P 1'
_cell_length_a   5.12866634
_cell_length_b   5.12866634
_cell_length_c   14.78802600
_cell_angle_alpha   90.00000000
_cell_angle_beta   90.00000000
_cell_angle_gamma   146.68306449
_symmetry_Int_Tables_number   1
_chemical_formula_structural   Zn(Cu2O3)2
_chemical_formula_sum   'Zn2 Cu8 O12'
_cell_volume   213.65096139
_cell_formula_units_Z   2
loop_
 _symmetry_equiv_pos_site_id
 _symmetry_equiv_pos_as_xyz
  1  'x, y, z'
loop_
 _atom_site_type_symbol
 _atom_site_label
 _atom_site_symmetry_multiplicity
 _atom_site_fract_x
 _atom_site_fract_y
 _atom_site_fract_z
 _atom_site_occupancy
  Zn  Zn0  1  0.34014200  0.65985800  0.75000000  1
  Zn  Zn1  1  0.65985800  0.34014200  0.25000000  1
  Cu  Cu0  1  0.13753600  0.86246400  0.04446500  1
  Cu  Cu1  1  0.59386000  0.40614000  0.63514900  1
  Cu  Cu2  1  0.86246400  0.13753600  0.95553500  1
  Cu  Cu3  1  0.40614000  0.59386000  0.36485100  1
  Cu  Cu4  1  0.13753600  0.86246400  0.45553500  1
  Cu  Cu5  1  0.86246400  0.13753600  0.54446500  1
  Cu  Cu6  1  0.40614000  0.59386000  0.13514900  1
  Cu  Cu7  1  0.59386000  0.40614000  0.86485100  1
  O  O0  1  0.50000000  0.50000000  0.50000000  1
  O  O1  1  0.50000000  0.50000000  0.00000000  1
  O  O2  1  0.95189900  0.04810100  0.84126400  1
  O  O3  1  0.04810100  0.95189900  0.15873600  1
  O  O4  1  0.04810100  0.95189900  0.34126400  1
  O  O5  1  0.95189900  0.04810100  0.65873600  1
  O  O6  1  0.21461500  0.78538500  0.92279600  1
  O  O7  1  0.78538500  0.21461500  0.07720400  1
  O  O8  1  0.78538500  0.21461500  0.42279600  1
  O  O9  1  0.21461500  0.78538500  0.57720400  1
  O  O10  1  0.69773200  0.30226800  0.75000000  1
  O  O11  1  0.30226800  0.69773200  0.25000000  1
loop_
_geom_bond_atom_site_label_1
_geom_bond_atom_site_label_2
_geom_bond_distance
_geom_bond_site_symmetry_2
Cu0 O3 1.904723 1_555
Cu0 O6 1.952178 1_554
Cu0 O1 2.102516 1_455
Cu0 O1 2.102516 1_565
Cu0 O7 2.122926 1_565
Cu0 O7 2.122926 1_455
Cu1 O10 1.981546 1_555
Cu1 O5 2.056526 1_565
Cu1 O5 2.056526 1_455
Cu1 O9 2.074587 1_655
Cu1 O9 2.074587 1_545
Cu1 O0 2.201153 1_555
Cu2 O2 1.904723 1_555
Cu2 O7 1.952178 1_556
Cu2 O1 2.102516 1_546
Cu2 O1 2.102516 1_656
Cu2 O6 2.122926 1_545
Cu2 O6 2.122926 1_655
Cu3 O11 1.981546 1_555
Cu3 O4 2.056526 1_545
Cu3 O4 2.056526 1_655
Cu3 O8 2.074587 1_565
Cu3 O8 2.074587 1_455
Cu3 O0 2.201153 1_555
Cu4 O4 1.904723 1_555
Cu4 O9 1.952178 1_555
Cu4 O0 2.102516 1_455
Cu4 O0 2.102516 1_565
Cu4 O8 2.122926 1_565
Cu4 O8 2.122926 1_455
Cu5 O5 1.904723 1_555
Cu5 O8 1.952178 1_555
Cu5 O0 2.102516 1_545
Cu5 O0 2.102516 1_655
Cu5 O9 2.122926 1_545
Cu5 O9 2.122926 1_655
Cu6 O11 1.981546 1_555
Cu6 O3 2.056526 1_545
Cu6 O3 2.056526 1_655
Cu6 O7 2.074587 1_565
Cu6 O7 2.074587 1_455
Cu6 O1 2.201153 1_555
Cu7 O10 1.981546 1_555
Cu7 O2 2.056526 1_565
Cu7 O2 2.056526 1_455
Cu7 O6 2.074587 1_655
Cu7 O6 2.074587 1_545
Cu7 O1 2.201153 1_556
O2 Zn0 2.277954 1_655
O2 Zn0 2.277954 1_545
O3 Zn1 2.277954 1_565
O3 Zn1 2.277954 1_455
O4 Zn1 2.277954 1_565
O4 Zn1 2.277954 1_455
O5 Zn0 2.277954 1_655
O5 Zn0 2.277954 1_545
O10 Zn0 2.029770 1_655
O10 Zn0 2.029770 1_545
O11 Zn1 2.029770 1_565
O11 Zn1 2.029770 1_455
