# generated using pymatgen
data_Mg4Si3
_symmetry_space_group_name_H-M   'P 1'
_cell_length_a   6.24687800
_cell_length_b   6.76519275
_cell_length_c   13.20965475
_cell_angle_alpha   92.51114090
_cell_angle_beta   91.45531213
_cell_angle_gamma   104.67350300
_symmetry_Int_Tables_number   1
_chemical_formula_structural   Mg4Si3
_chemical_formula_sum   'Mg16 Si12'
_cell_volume   539.14663472
_cell_formula_units_Z   4
loop_
 _symmetry_equiv_pos_site_id
 _symmetry_equiv_pos_as_xyz
  1  'x, y, z'
loop_
 _atom_site_type_symbol
 _atom_site_label
 _atom_site_symmetry_multiplicity
 _atom_site_fract_x
 _atom_site_fract_y
 _atom_site_fract_z
 _atom_site_occupancy
  Mg  Mg0  1  0.79096700  0.98217600  0.00490800  1
  Mg  Mg1  1  0.71538600  0.55158300  0.87833700  1
  Mg  Mg2  1  0.97802900  0.72849000  0.43472100  1
  Mg  Mg3  1  0.18439400  0.57256200  0.25238100  1
  Mg  Mg4  1  0.08659500  0.94306900  0.82174000  1
  Mg  Mg5  1  0.11908700  0.37004000  0.92006300  1
  Mg  Mg6  1  0.52645800  0.80463800  0.40487600  1
  Mg  Mg7  1  0.32026100  0.16921400  0.37433600  1
  Mg  Mg8  1  0.27052800  0.84878300  0.62294800  1
  Mg  Mg9  1  0.40910800  0.30435500  0.70408700  1
  Mg  Mg10  1  0.89610700  0.87601700  0.22421700  1
  Mg  Mg11  1  0.84594000  0.23642600  0.36996500  1
  Mg  Mg12  1  0.95476200  0.43955800  0.68671400  1
  Mg  Mg13  1  0.72110900  0.79835100  0.66924800  1
  Mg  Mg14  1  0.50136000  0.53223000  0.08301100  1
  Mg  Mg15  1  0.44774200  0.00779500  0.16975000  1
  Si  Si0  1  0.63006900  0.11700900  0.54969400  1
  Si  Si1  1  0.22528400  0.46683000  0.50909600  1
  Si  Si2  1  0.44856900  0.17077600  0.93438000  1
  Si  Si3  1  0.00028200  0.68498100  0.05170600  1
  Si  Si4  1  0.36030600  0.66480300  0.79251800  1
  Si  Si5  1  0.73669600  0.14653100  0.81703500  1
  Si  Si6  1  0.66061300  0.50373000  0.27852300  1
  Si  Si7  1  0.13738400  0.21388500  0.13890600  1
  Si  Si8  1  0.61923700  0.47777000  0.52394500  1
  Si  Si9  1  0.01985400  0.10035500  0.55616000  1
  Si  Si10  1  0.34764500  0.79280200  0.96558500  1
  Si  Si11  1  0.82717600  0.35207900  0.12527600  1
loop_
_geom_bond_atom_site_label_1
_geom_bond_atom_site_label_2
_geom_bond_distance
_geom_bond_site_symmetry_2
Mg0 Si3 2.744825 1_655
Mg0 Si10 2.766181 1_554
Mg0 Si5 2.810748 1_564
Mg0 Si7 2.849051 1_665
Mg0 Si11 2.861460 1_565
Mg0 Si2 2.907999 1_564
Mg1 Si4 2.757007 1_555
Mg1 Si2 2.831525 1_555
Mg1 Si3 2.832798 1_656
Mg1 Si5 2.859772 1_555
Mg2 Si8 2.770026 1_555
Mg2 Si1 2.818686 1_655
Mg2 Si9 2.874479 1_665
Mg2 Si6 2.913910 1_555
Mg2 Mg3 3.033193 1_655
Mg3 Si7 2.742086 1_555
Mg3 Si11 2.815581 1_455
Mg3 Mg6 2.982190 1_555
Mg3 Si3 3.064823 1_555
Mg3 Si6 3.138430 1_555
Mg3 Si6 3.215839 1_455
Mg4 Si2 2.750201 1_565
Mg4 Si10 2.855708 1_555
Mg4 Si5 2.863731 1_465
Mg4 Si4 2.866534 1_555
Mg5 Si2 2.738176 1_555
Mg5 Si5 2.769363 1_455
Mg5 Si4 2.826103 1_555
Mg5 Si10 2.883921 1_555
Mg5 Si3 2.942174 1_556
Mg5 Si7 3.130182 1_556
Mg6 Si0 2.726576 1_565
Mg6 Si6 2.875735 1_555
Mg6 Si8 2.933861 1_555
Mg6 Si1 2.981062 1_555
Mg7 Si1 2.814173 1_555
Mg7 Si6 3.032133 1_555
Mg7 Si8 3.037625 1_555
Mg7 Si9 3.064565 1_555
Mg7 Si0 3.070228 1_555
Mg8 Si4 2.723100 1_555
Mg8 Si0 2.733710 1_565
Mg8 Si9 2.745664 1_565
Mg8 Si1 2.878644 1_555
Mg9 Si4 2.747523 1_555
Mg9 Si8 2.895701 1_555
Mg9 Si0 2.911001 1_555
Mg9 Si5 2.940288 1_555
Mg9 Si9 3.075387 1_555
Mg9 Si1 3.146222 1_555
Mg10 Si7 2.707940 1_665
Mg10 Si6 2.712361 1_555
Mg10 Si3 2.744105 1_655
Mg10 Mg3 3.082546 1_655
Mg11 Si6 2.692688 1_555
Mg11 Si0 2.808302 1_555
Mg11 Si9 2.940502 1_655
Mg11 Si1 3.013201 1_655
Mg11 Si8 3.136146 1_555
Mg11 Mg3 3.177178 1_655
Mg12 Si5 2.792689 1_555
Mg12 Si4 2.893304 1_655
Mg12 Si1 2.911397 1_655
Mg12 Si9 2.926952 1_655
Mg12 Si8 3.029406 1_555
Mg12 Si0 3.062162 1_555
Mg13 Si8 2.768881 1_555
Mg13 Si4 2.798486 1_555
Mg13 Si0 2.887692 1_565
Mg13 Si9 2.892415 1_665
Mg13 Si5 2.973252 1_565
Mg14 Si11 2.682959 1_555
Mg14 Si10 2.730788 1_554
Mg14 Si6 2.776191 1_555
Mg14 Si7 2.845523 1_555
Mg14 Si2 3.013460 1_554
Mg14 Si3 3.069845 1_655
Mg14 Mg3 3.073414 1_555
Mg15 Si7 2.692180 1_555
Mg15 Si11 2.963445 1_555
Mg15 Si10 2.981587 1_544
Mg15 Mg3 3.238257 1_545
Si0 Si9 2.465397 1_655
Si0 Si8 2.496423 1_555
Si1 Si8 2.445872 1_555
Si1 Si9 2.596895 1_555
Si2 Si5 2.436862 1_555
Si10 Si4 2.419301 1_555
Si10 Si3 2.435385 1_556
Si10 Si2 2.528796 1_565
Si11 Si7 2.361469 1_655
Si11 Si3 2.489444 1_655
Si11 Si6 2.588238 1_555
