# generated using pymatgen
data_La2ZnAs2O
_symmetry_space_group_name_H-M   'P 1'
_cell_length_a   3.50321700
_cell_length_b   3.50321700
_cell_length_c   14.93706500
_cell_angle_alpha   90.00000000
_cell_angle_beta   90.00000000
_cell_angle_gamma   90.00000000
_symmetry_Int_Tables_number   1
_chemical_formula_structural   La2ZnAs2O
_chemical_formula_sum   'La2 Zn1 As2 O1'
_cell_volume   183.31556860
_cell_formula_units_Z   1
loop_
 _symmetry_equiv_pos_site_id
 _symmetry_equiv_pos_as_xyz
  1  'x, y, z'
loop_
 _atom_site_type_symbol
 _atom_site_label
 _atom_site_symmetry_multiplicity
 _atom_site_fract_x
 _atom_site_fract_y
 _atom_site_fract_z
 _atom_site_occupancy
  La  La0  1  0.50000000  0.50000000  0.64085700  1
  La  La1  1  0.50000000  0.50000000  0.35914300  1
  Zn  Zn0  1  0.50000000  0.50000000  0.00000000  1
  As  As0  1  0.50000000  0.50000000  0.15611200  1
  As  As1  1  0.50000000  0.50000000  0.84388800  1
  O  O0  1  0.50000000  0.50000000  0.50000000  1
loop_
_geom_bond_atom_site_label_1
_geom_bond_atom_site_label_2
_geom_bond_distance
_geom_bond_site_symmetry_2
La0 O0 2.103990 1_555
La1 O0 2.103990 1_555
As0 Zn0 2.331855 1_555
As0 La1 3.032687 1_555
As1 Zn0 2.331855 1_556
As1 La0 3.032687 1_555
