# generated using pymatgen
data_SrCaU2O8
_symmetry_space_group_name_H-M   'P 1'
_cell_length_a   12.44045997
_cell_length_b   12.44045997
_cell_length_c   12.44046012
_cell_angle_alpha   18.09322201
_cell_angle_beta   18.09322201
_cell_angle_gamma   18.09322236
_symmetry_Int_Tables_number   1
_chemical_formula_structural   SrCaU2O8
_chemical_formula_sum   'Sr1 Ca1 U2 O8'
_cell_volume   162.15695592
_cell_formula_units_Z   1
loop_
 _symmetry_equiv_pos_site_id
 _symmetry_equiv_pos_as_xyz
  1  'x, y, z'
loop_
 _atom_site_type_symbol
 _atom_site_label
 _atom_site_symmetry_multiplicity
 _atom_site_fract_x
 _atom_site_fract_y
 _atom_site_fract_z
 _atom_site_occupancy
  Sr  Sr0  1  0.00000000  0.00000000  0.00000000  1
  Ca  Ca0  1  0.50000000  0.50000000  0.50000000  1
  U  U0  1  0.75198900  0.75198900  0.75198900  1
  U  U1  1  0.24801100  0.24801100  0.24801100  1
  O  O0  1  0.07150200  0.07150200  0.07150200  1
  O  O1  1  0.56724900  0.56724900  0.56724900  1
  O  O2  1  0.92849800  0.92849800  0.92849800  1
  O  O3  1  0.43275100  0.43275100  0.43275100  1
  O  O4  1  0.69779600  0.69779600  0.69779600  1
  O  O5  1  0.19376800  0.19376800  0.19376800  1
  O  O6  1  0.30220400  0.30220400  0.30220400  1
  O  O7  1  0.80623200  0.80623200  0.80623200  1
loop_
_geom_bond_atom_site_label_1
_geom_bond_atom_site_label_2
_geom_bond_distance
_geom_bond_site_symmetry_2
Ca0 O5 2.468027 1_565
Ca0 O5 2.468027 1_655
Ca0 O7 2.468027 1_545
Ca0 O7 2.468027 1_455
Ca0 O5 2.468027 1_556
Ca0 O7 2.468027 1_554
Ca0 O3 2.468111 1_555
Ca0 O1 2.468111 1_555
O0 U0 2.314974 1_544
O0 U0 2.314974 1_454
O0 U0 2.314974 1_445
O0 Sr0 2.624200 1_555
O1 U1 2.317206 1_655
O1 U1 2.317206 1_565
O1 U1 2.317206 1_556
O2 U1 2.314974 1_656
O2 U1 2.314974 1_566
O2 U1 2.314974 1_665
O2 Sr0 2.624200 1_666
O3 U0 2.317206 1_545
O3 U0 2.317206 1_455
O3 U0 2.317206 1_554
O4 U0 1.988941 1_555
O4 Sr0 2.531224 1_566
O4 Sr0 2.531224 1_656
O4 Sr0 2.531224 1_665
O5 U1 1.990776 1_555
O6 U1 1.988941 1_555
O6 Sr0 2.531224 1_655
O6 Sr0 2.531224 1_565
O6 Sr0 2.531224 1_556
O7 U0 1.990776 1_555
