# generated using pymatgen
data_Mn20(MoC2)3
_symmetry_space_group_name_H-M   'P 1'
_cell_length_a   7.44577501
_cell_length_b   7.44577501
_cell_length_c   7.44577501
_cell_angle_alpha   60.00000000
_cell_angle_beta   60.00000000
_cell_angle_gamma   60.00000000
_symmetry_Int_Tables_number   1
_chemical_formula_structural   Mn20(MoC2)3
_chemical_formula_sum   'Mn20 Mo3 C6'
_cell_volume   291.88698381
_cell_formula_units_Z   1
loop_
 _symmetry_equiv_pos_site_id
 _symmetry_equiv_pos_as_xyz
  1  'x, y, z'
loop_
 _atom_site_type_symbol
 _atom_site_label
 _atom_site_symmetry_multiplicity
 _atom_site_fract_x
 _atom_site_fract_y
 _atom_site_fract_z
 _atom_site_occupancy
  Mn  Mn0  1  0.84888300  0.38370600  0.38370600  1
  Mn  Mn1  1  0.38370600  0.84888300  0.38370600  1
  Mn  Mn2  1  0.38370600  0.38370600  0.84888300  1
  Mn  Mn3  1  0.38370600  0.38370600  0.38370600  1
  Mn  Mn4  1  0.15111700  0.61629400  0.61629400  1
  Mn  Mn5  1  0.61629400  0.15111700  0.61629400  1
  Mn  Mn6  1  0.61629400  0.61629400  0.15111700  1
  Mn  Mn7  1  0.61629400  0.61629400  0.61629400  1
  Mn  Mn8  1  0.65959800  0.00000000  0.00000000  1
  Mn  Mn9  1  0.65959800  0.00000000  0.34040200  1
  Mn  Mn10  1  0.65959800  0.34040200  0.00000000  1
  Mn  Mn11  1  0.00000000  0.65959800  0.34040200  1
  Mn  Mn12  1  0.00000000  0.65959800  0.00000000  1
  Mn  Mn13  1  0.34040200  0.65959800  0.00000000  1
  Mn  Mn14  1  0.00000000  0.34040200  0.65959800  1
  Mn  Mn15  1  0.34040200  0.00000000  0.65959800  1
  Mn  Mn16  1  0.00000000  0.00000000  0.65959800  1
  Mn  Mn17  1  0.34040200  0.00000000  0.00000000  1
  Mn  Mn18  1  0.00000000  0.34040200  0.00000000  1
  Mn  Mn19  1  0.00000000  0.00000000  0.34040200  1
  Mo  Mo0  1  0.00000000  0.00000000  0.00000000  1
  Mo  Mo1  1  0.25000000  0.25000000  0.25000000  1
  Mo  Mo2  1  0.75000000  0.75000000  0.75000000  1
  C  C0  1  0.72727800  0.27272200  0.27272200  1
  C  C1  1  0.72727800  0.27272200  0.72727800  1
  C  C2  1  0.72727800  0.72727800  0.27272200  1
  C  C3  1  0.27272200  0.72727800  0.72727800  1
  C  C4  1  0.27272200  0.72727800  0.27272200  1
  C  C5  1  0.27272200  0.27272200  0.72727800  1
loop_
_geom_bond_atom_site_label_1
_geom_bond_atom_site_label_2
_geom_bond_distance
_geom_bond_site_symmetry_2
Mn0 Mo1 2.438571 1_655
Mn1 Mo1 2.438571 1_565
Mn2 Mo1 2.438571 1_556
Mn3 Mo1 2.438577 1_555
Mn4 Mo2 2.438571 1_455
Mn5 Mo2 2.438571 1_545
Mn6 Mo2 2.438571 1_554
Mn7 Mo2 2.438577 1_555
Mn8 Mo0 2.534557 1_655
Mn9 Mo0 2.534557 1_655
Mn10 Mo0 2.534557 1_655
Mn11 Mo0 2.534557 1_565
Mn12 Mo0 2.534557 1_565
Mn13 Mo0 2.534557 1_565
Mn14 Mo0 2.534557 1_556
Mn15 Mo0 2.534557 1_556
Mn16 Mo0 2.534557 1_556
Mn17 Mo0 2.534557 1_555
Mn18 Mo0 2.534557 1_555
Mn19 Mo0 2.534557 1_555
C0 Mn3 2.089228 1_555
C0 Mn5 2.089228 1_555
C0 Mn6 2.089228 1_555
C0 Mn0 2.089234 1_555
C0 Mn9 2.092221 1_555
C0 Mn10 2.092221 1_555
C0 Mn18 2.092221 1_655
C0 Mn19 2.092221 1_655
C1 Mn7 2.089228 1_555
C1 Mn0 2.089228 1_555
C1 Mn2 2.089228 1_555
C1 Mn5 2.089234 1_555
C1 Mn16 2.092221 1_655
C1 Mn8 2.092221 1_556
C1 Mn14 2.092221 1_655
C1 Mn10 2.092221 1_556
C2 Mn7 2.089228 1_555
C2 Mn0 2.089228 1_555
C2 Mn1 2.089228 1_555
C2 Mn6 2.089234 1_555
C2 Mn8 2.092221 1_565
C2 Mn12 2.092221 1_655
C2 Mn9 2.092221 1_565
C2 Mn11 2.092221 1_655
C3 Mn7 2.089228 1_555
C3 Mn2 2.089228 1_555
C3 Mn1 2.089228 1_555
C3 Mn4 2.089234 1_555
C3 Mn16 2.092221 1_565
C3 Mn12 2.092221 1_556
C3 Mn15 2.092221 1_565
C3 Mn13 2.092221 1_556
C4 Mn3 2.089228 1_555
C4 Mn6 2.089228 1_555
C4 Mn4 2.089228 1_555
C4 Mn1 2.089234 1_555
C4 Mn13 2.092221 1_555
C4 Mn11 2.092221 1_555
C4 Mn17 2.092221 1_565
C4 Mn19 2.092221 1_565
C5 Mn3 2.089228 1_555
C5 Mn5 2.089228 1_555
C5 Mn4 2.089228 1_555
C5 Mn2 2.089234 1_555
C5 Mn14 2.092221 1_555
C5 Mn15 2.092221 1_555
C5 Mn17 2.092221 1_556
C5 Mn18 2.092221 1_556
