# generated using pymatgen
data_Mg6CuSb
_symmetry_space_group_name_H-M   'P 1'
_cell_length_a   4.97430100
_cell_length_b   6.14934500
_cell_length_c   11.28229200
_cell_angle_alpha   90.00000000
_cell_angle_beta   90.00000000
_cell_angle_gamma   90.00000000
_symmetry_Int_Tables_number   1
_chemical_formula_structural   Mg6CuSb
_chemical_formula_sum   'Mg12 Cu2 Sb2'
_cell_volume   345.11056613
_cell_formula_units_Z   2
loop_
 _symmetry_equiv_pos_site_id
 _symmetry_equiv_pos_as_xyz
  1  'x, y, z'
loop_
 _atom_site_type_symbol
 _atom_site_label
 _atom_site_symmetry_multiplicity
 _atom_site_fract_x
 _atom_site_fract_y
 _atom_site_fract_z
 _atom_site_occupancy
  Mg  Mg0  1  0.00000000  0.24623200  0.07708100  1
  Mg  Mg1  1  0.00000000  0.75376800  0.07708100  1
  Mg  Mg2  1  0.00000000  0.00000000  0.32861100  1
  Mg  Mg3  1  0.50000000  0.73856600  0.40592100  1
  Mg  Mg4  1  0.50000000  0.26143400  0.40592100  1
  Mg  Mg5  1  0.50000000  0.00000000  0.16593400  1
  Mg  Mg6  1  0.00000000  0.74623200  0.57708100  1
  Mg  Mg7  1  0.00000000  0.25376800  0.57708100  1
  Mg  Mg8  1  0.00000000  0.50000000  0.82861100  1
  Mg  Mg9  1  0.50000000  0.23856600  0.90592100  1
  Mg  Mg10  1  0.50000000  0.76143400  0.90592100  1
  Mg  Mg11  1  0.50000000  0.50000000  0.66593400  1
  Cu  Cu0  1  0.00000000  0.50000000  0.38038500  1
  Cu  Cu1  1  0.00000000  0.00000000  0.88038500  1
  Sb  Sb0  1  0.50000000  0.50000000  0.15906700  1
  Sb  Sb1  1  0.50000000  0.00000000  0.65906700  1
loop_
_geom_bond_atom_site_label_1
_geom_bond_atom_site_label_2
_geom_bond_distance
_geom_bond_site_symmetry_2
Mg0 Sb0 3.078426 1_455
Mg0 Sb0 3.078426 1_555
Mg0 Mg9 3.149158 1_454
Mg0 Mg9 3.149158 1_554
Mg0 Mg8 3.208385 1_554
Mg0 Mg2 3.216521 1_555
Mg1 Sb0 3.078426 1_455
Mg1 Sb0 3.078426 1_555
Mg1 Mg10 3.149158 1_554
Mg1 Mg10 3.149158 1_454
Mg1 Mg8 3.208385 1_554
Mg1 Mg2 3.216521 1_565
Mg2 Mg3 3.087271 1_545
Mg2 Mg4 3.087271 1_455
Mg2 Mg3 3.087271 1_445
Mg2 Mg4 3.087271 1_555
Mg2 Mg5 3.091035 1_455
Mg2 Mg5 3.091035 1_555
Mg2 Mg6 3.208385 1_545
Mg2 Mg7 3.208385 1_555
Mg3 Mg4 2.934049 1_555
Mg3 Sb0 3.147829 1_555
Mg3 Mg5 3.148912 1_565
Mg3 Mg6 3.149158 1_555
Mg3 Mg6 3.149158 1_655
Mg3 Mg4 3.215296 1_565
Mg3 Sb1 3.277446 1_565
Mg4 Sb0 3.147829 1_555
Mg4 Mg5 3.148912 1_555
Mg4 Mg7 3.149158 1_655
Mg4 Mg7 3.149158 1_555
Mg4 Sb1 3.277446 1_555
Mg5 Sb0 3.075648 1_545
Mg5 Sb0 3.075648 1_555
Mg5 Mg9 3.279914 1_554
Mg6 Sb1 3.078426 1_465
Mg6 Sb1 3.078426 1_565
Mg6 Mg8 3.216521 1_555
Mg7 Sb1 3.078426 1_455
Mg7 Sb1 3.078426 1_555
Mg7 Mg8 3.216521 1_555
Mg8 Mg9 3.087271 1_555
Mg8 Mg9 3.087271 1_455
Mg9 Sb1 3.147829 1_555
Mg9 Sb0 3.277446 1_556
Mg10 Mg9 2.934049 1_565
Mg10 Mg8 3.087271 1_655
Mg10 Mg8 3.087271 1_555
Mg10 Sb1 3.147829 1_565
Mg10 Mg11 3.148912 1_555
Mg10 Mg9 3.215296 1_555
Mg10 Sb0 3.277446 1_556
Mg10 Mg5 3.279914 1_566
Mg11 Sb1 3.075648 1_555
Mg11 Sb1 3.075648 1_565
Mg11 Mg8 3.091035 1_555
Mg11 Mg8 3.091035 1_655
Mg11 Mg9 3.148912 1_555
Mg11 Mg3 3.279914 1_555
Mg11 Mg4 3.279914 1_555
Cu0 Mg7 2.686534 1_555
Cu0 Mg6 2.686534 1_555
Cu0 Mg3 2.901910 1_455
Cu0 Mg3 2.901910 1_555
Cu0 Mg4 2.901910 1_555
Cu0 Mg4 2.901910 1_455
Cu0 Mg2 3.129667 1_555
Cu0 Mg2 3.129667 1_565
Cu1 Mg1 2.686534 1_546
Cu1 Mg0 2.686534 1_556
Cu1 Mg10 2.901910 1_545
Cu1 Mg10 2.901910 1_445
Cu1 Mg9 2.901910 1_455
Cu1 Mg9 2.901910 1_555
Cu1 Mg8 3.129667 1_555
Cu1 Mg8 3.129667 1_545
