# generated using pymatgen
data_Ti2H2Pd
_symmetry_space_group_name_H-M   'P 1'
_cell_length_a   13.16886642
_cell_length_b   13.16886642
_cell_length_c   13.16886642
_cell_angle_alpha   154.92216927
_cell_angle_beta   154.92216927
_cell_angle_gamma   35.76061454
_symmetry_Int_Tables_number   1
_chemical_formula_structural   Ti2H2Pd
_chemical_formula_sum   'Ti16 H16 Pd8'
_cell_volume   409.76564354
_cell_formula_units_Z   8
loop_
 _symmetry_equiv_pos_site_id
 _symmetry_equiv_pos_as_xyz
  1  'x, y, z'
loop_
 _atom_site_type_symbol
 _atom_site_label
 _atom_site_symmetry_multiplicity
 _atom_site_fract_x
 _atom_site_fract_y
 _atom_site_fract_z
 _atom_site_occupancy
  Ti  Ti0_0  1  0.32983850  0.32983850  0.00000000  1
  Ti  Ti0_1  1  0.32983850  0.32983850  0.50000000  1
  Ti  Ti0_2  1  0.32983850  0.82983850  0.00000000  1
  Ti  Ti0_3  1  0.32983850  0.82983850  0.50000000  1
  Ti  Ti0_4  1  0.82983850  0.32983850  0.00000000  1
  Ti  Ti0_5  1  0.82983850  0.32983850  0.50000000  1
  Ti  Ti0_6  1  0.82983850  0.82983850  0.00000000  1
  Ti  Ti0_7  1  0.82983850  0.82983850  0.50000000  1
  Ti  Ti1_0  1  0.17016150  0.17016150  0.00000000  1
  Ti  Ti1_1  1  0.17016150  0.17016150  0.50000000  1
  Ti  Ti1_2  1  0.17016150  0.67016150  0.00000000  1
  Ti  Ti1_3  1  0.17016150  0.67016150  0.50000000  1
  Ti  Ti1_4  1  0.67016150  0.17016150  0.00000000  1
  Ti  Ti1_5  1  0.67016150  0.17016150  0.50000000  1
  Ti  Ti1_6  1  0.67016150  0.67016150  0.00000000  1
  Ti  Ti1_7  1  0.67016150  0.67016150  0.50000000  1
  H  H0_0  1  0.09306600  0.09306600  0.00000000  1
  H  H0_1  1  0.09306600  0.09306600  0.50000000  1
  H  H0_2  1  0.09306600  0.59306600  0.00000000  1
  H  H0_3  1  0.09306600  0.59306600  0.50000000  1
  H  H0_4  1  0.59306600  0.09306600  0.00000000  1
  H  H0_5  1  0.59306600  0.09306600  0.50000000  1
  H  H0_6  1  0.59306600  0.59306600  0.00000000  1
  H  H0_7  1  0.59306600  0.59306600  0.50000000  1
  H  H1_0  1  0.40693400  0.40693400  0.00000000  1
  H  H1_1  1  0.40693400  0.40693400  0.50000000  1
  H  H1_2  1  0.40693400  0.90693400  0.00000000  1
  H  H1_3  1  0.40693400  0.90693400  0.50000000  1
  H  H1_4  1  0.90693400  0.40693400  0.00000000  1
  H  H1_5  1  0.90693400  0.40693400  0.50000000  1
  H  H1_6  1  0.90693400  0.90693400  0.00000000  1
  H  H1_7  1  0.90693400  0.90693400  0.50000000  1
  Pd  Pd0_0  1  0.00000000  0.00000000  0.00000000  1
  Pd  Pd0_1  1  0.00000000  0.00000000  0.50000000  1
  Pd  Pd0_2  1  0.00000000  0.50000000  0.00000000  1
  Pd  Pd0_3  1  0.00000000  0.50000000  0.50000000  1
  Pd  Pd0_4  1  0.50000000  0.00000000  0.00000000  1
  Pd  Pd0_5  1  0.50000000  0.00000000  0.50000000  1
  Pd  Pd0_6  1  0.50000000  0.50000000  0.00000000  1
  Pd  Pd0_7  1  0.50000000  0.50000000  0.50000000  1
loop_
_geom_bond_atom_site_label_1
_geom_bond_atom_site_label_2
_geom_bond_distance
_geom_bond_site_symmetry_2
H0_0 Ti1_0 1.932447 1_555
H0_0 Ti0_7 2.048623 1_444
H0_0 Ti0_4 2.048623 1_455
H0_0 Ti0_2 2.048623 1_545
H0_0 Ti0_1 2.048623 1_555
H0_0 Pd0_0 2.332757 1_555
H0_1 Ti1_1 1.932447 1_555
H0_1 Ti0_0 2.048623 1_556
H0_1 Ti0_6 2.048623 1_445
H0_1 Ti0_3 2.048623 1_545
H0_1 Ti0_5 2.048623 1_455
H0_1 Pd0_1 2.332757 1_555
H0_2 Ti1_2 1.932447 1_555
H0_2 Ti0_6 2.048623 1_455
H0_2 Ti0_5 2.048623 1_454
H0_2 Ti0_0 2.048623 1_555
H0_2 Ti0_3 2.048623 1_555
H0_2 Pd0_2 2.332757 1_555
H0_3 Ti1_3 1.932447 1_555
H0_3 Ti0_2 2.048623 1_556
H0_3 Ti0_4 2.048623 1_455
H0_3 Ti0_1 2.048623 1_555
H0_3 Ti0_7 2.048623 1_455
H0_3 Pd0_3 2.332757 1_555
H0_4 Ti1_4 1.932447 1_555
H0_4 Ti0_6 2.048623 1_545
H0_4 Ti0_3 2.048623 1_544
H0_4 Ti0_5 2.048623 1_555
H0_4 Ti0_0 2.048623 1_555
H0_4 Pd0_4 2.332757 1_555
H0_5 Ti1_5 1.932447 1_555
H0_5 Ti0_2 2.048623 1_545
H0_5 Ti0_4 2.048623 1_556
H0_5 Ti0_1 2.048623 1_555
H0_5 Ti0_7 2.048623 1_545
H0_5 Pd0_5 2.332757 1_555
H0_6 Ti1_6 1.932447 1_555
H0_6 Ti0_2 2.048623 1_555
H0_6 Ti0_1 2.048623 1_554
H0_6 Ti0_7 2.048623 1_555
H0_6 Ti0_4 2.048623 1_555
H0_6 Pd0_6 2.332757 1_555
H0_7 Ti1_7 1.932447 1_555
H0_7 Ti0_5 2.048623 1_555
H0_7 Ti0_6 2.048623 1_556
H0_7 Ti0_0 2.048623 1_555
H0_7 Ti0_3 2.048623 1_555
H0_7 Pd0_7 2.332757 1_555
H1_0 Ti0_0 1.932447 1_555
H1_0 Ti1_1 2.048623 1_554
H1_0 Ti1_7 2.048623 1_555
H1_0 Ti1_4 2.048623 1_555
H1_0 Ti1_2 2.048623 1_555
H1_0 Pd0_6 2.332757 1_555
H1_1 Ti0_1 1.932447 1_555
H1_1 Ti1_5 2.048623 1_555
H1_1 Ti1_6 2.048623 1_556
H1_1 Ti1_3 2.048623 1_555
H1_1 Ti1_0 2.048623 1_555
H1_1 Pd0_7 2.332757 1_555
H1_2 Ti0_2 1.932447 1_555
H1_2 Ti1_6 2.048623 1_555
H1_2 Ti1_3 2.048623 1_554
H1_2 Ti1_5 2.048623 1_565
H1_2 Ti1_0 2.048623 1_565
H1_2 Pd0_4 2.332757 1_565
H1_3 Ti0_3 1.932447 1_555
H1_3 Ti1_4 2.048623 1_566
H1_3 Ti1_2 2.048623 1_555
H1_3 Ti1_7 2.048623 1_555
H1_3 Ti1_1 2.048623 1_565
H1_3 Pd0_5 2.332757 1_565
H1_4 Ti0_4 1.932447 1_555
H1_4 Ti1_6 2.048623 1_555
H1_4 Ti1_5 2.048623 1_554
H1_4 Ti1_3 2.048623 1_655
H1_4 Ti1_0 2.048623 1_655
H1_4 Pd0_2 2.332757 1_655
H1_5 Ti0_5 1.932447 1_555
H1_5 Ti1_2 2.048623 1_656
H1_5 Ti1_4 2.048623 1_555
H1_5 Ti1_7 2.048623 1_555
H1_5 Ti1_1 2.048623 1_655
H1_5 Pd0_3 2.332757 1_655
H1_6 Ti0_6 1.932447 1_555
H1_6 Ti1_7 2.048623 1_554
H1_6 Ti1_1 2.048623 1_665
H1_6 Ti1_2 2.048623 1_655
H1_6 Ti1_4 2.048623 1_565
H1_6 Pd0_0 2.332757 1_665
H1_7 Ti0_7 1.932447 1_555
H1_7 Ti1_6 2.048623 1_555
H1_7 Ti1_3 2.048623 1_655
H1_7 Ti1_0 2.048623 1_666
H1_7 Ti1_5 2.048623 1_565
H1_7 Pd0_1 2.332757 1_665
Pd0_0 Ti1_7 2.844598 1_444
Pd0_0 Ti1_2 2.844598 1_545
Pd0_0 Ti1_4 2.844598 1_455
Pd0_0 Ti1_1 2.844598 1_555
Pd0_0 Ti0_1 2.844598 1_555
Pd0_0 Ti0_2 2.844598 1_545
Pd0_0 Ti0_4 2.844598 1_455
Pd0_0 Ti0_7 2.844598 1_444
Pd0_0 Pd0_5 2.858996 1_555
Pd0_0 Pd0_3 2.858996 1_555
Pd0_0 Pd0_5 2.858996 1_454
Pd0_0 Pd0_3 2.858996 1_544
Pd0_1 Ti0_5 2.844598 1_455
Pd0_1 Ti0_3 2.844598 1_545
Pd0_1 Ti0_0 2.844598 1_556
Pd0_1 Ti1_0 2.844598 1_556
Pd0_1 Ti1_3 2.844598 1_545
Pd0_1 Ti0_6 2.844598 1_445
Pd0_1 Ti1_5 2.844598 1_455
Pd0_1 Ti1_6 2.844598 1_445
Pd0_1 Pd0_4 2.858996 1_556
Pd0_1 Pd0_2 2.858996 1_556
Pd0_1 Pd0_4 2.858996 1_455
Pd0_1 Pd0_2 2.858996 1_545
Pd0_2 Ti0_5 2.844598 1_454
Pd0_2 Ti0_3 2.844598 1_555
Pd0_2 Ti0_0 2.844598 1_555
Pd0_2 Ti1_3 2.844598 1_555
Pd0_2 Ti1_0 2.844598 1_555
Pd0_2 Ti1_6 2.844598 1_455
Pd0_2 Ti0_6 2.844598 1_455
Pd0_2 Ti1_5 2.844598 1_454
Pd0_2 Pd0_7 2.858996 1_454
Pd0_2 Pd0_7 2.858996 1_555
Pd0_3 Ti1_4 2.844598 1_455
Pd0_3 Ti1_7 2.844598 1_455
Pd0_3 Ti1_2 2.844598 1_556
Pd0_3 Ti0_1 2.844598 1_555
Pd0_3 Ti0_7 2.844598 1_455
Pd0_3 Ti0_2 2.844598 1_556
Pd0_3 Ti1_1 2.844598 1_555
Pd0_3 Ti0_4 2.844598 1_455
Pd0_3 Pd0_6 2.858996 1_556
Pd0_3 Pd0_6 2.858996 1_455
Pd0_4 Ti1_3 2.844598 1_544
Pd0_4 Ti0_3 2.844598 1_544
Pd0_4 Ti0_5 2.844598 1_555
Pd0_4 Ti0_0 2.844598 1_555
Pd0_4 Ti1_5 2.844598 1_555
Pd0_4 Ti1_0 2.844598 1_555
Pd0_4 Ti0_6 2.844598 1_545
Pd0_4 Ti1_6 2.844598 1_545
Pd0_4 Pd0_7 2.858996 1_555
Pd0_4 Pd0_7 2.858996 1_544
Pd0_5 Ti1_7 2.844598 1_545
Pd0_5 Ti1_1 2.844598 1_555
Pd0_5 Ti1_4 2.844598 1_556
Pd0_5 Ti1_2 2.844598 1_545
Pd0_5 Ti0_1 2.844598 1_555
Pd0_5 Ti0_4 2.844598 1_556
Pd0_5 Ti0_7 2.844598 1_545
Pd0_5 Ti0_2 2.844598 1_545
Pd0_5 Pd0_6 2.858996 1_556
Pd0_5 Pd0_6 2.858996 1_545
Pd0_6 Ti1_7 2.844598 1_555
Pd0_6 Ti1_2 2.844598 1_555
Pd0_6 Ti1_1 2.844598 1_554
Pd0_6 Ti1_4 2.844598 1_555
Pd0_6 Ti0_1 2.844598 1_554
Pd0_6 Ti0_4 2.844598 1_555
Pd0_6 Ti0_7 2.844598 1_555
Pd0_6 Ti0_2 2.844598 1_555
Pd0_7 Ti0_5 2.844598 1_555
Pd0_7 Ti0_0 2.844598 1_555
Pd0_7 Ti0_3 2.844598 1_555
Pd0_7 Ti0_6 2.844598 1_556
Pd0_7 Ti1_0 2.844598 1_555
Pd0_7 Ti1_3 2.844598 1_555
Pd0_7 Ti1_5 2.844598 1_555
Pd0_7 Ti1_6 2.844598 1_556
