# generated using pymatgen
data_Te3MoWS
_symmetry_space_group_name_H-M   'P 1'
_cell_length_a   3.44873155
_cell_length_b   3.44873155
_cell_length_c   39.35916400
_cell_angle_alpha   90.00000000
_cell_angle_beta   90.00000000
_cell_angle_gamma   119.99999131
_symmetry_Int_Tables_number   1
_chemical_formula_structural   Te3MoWS
_chemical_formula_sum   'Te6 Mo2 W2 S2'
_cell_volume   405.41080054
_cell_formula_units_Z   2
loop_
 _symmetry_equiv_pos_site_id
 _symmetry_equiv_pos_as_xyz
  1  'x, y, z'
loop_
 _atom_site_type_symbol
 _atom_site_label
 _atom_site_symmetry_multiplicity
 _atom_site_fract_x
 _atom_site_fract_y
 _atom_site_fract_z
 _atom_site_occupancy
  Te  Te0  1  0.00000000  0.00000000  0.70485600  1
  Te  Te1  1  0.33333300  0.66666700  0.04687600  1
  Te  Te2  1  0.33333300  0.66666700  0.42256700  1
  Te  Te3  1  0.33333300  0.66666700  0.14099600  1
  Te  Te4  1  0.33333300  0.66666700  0.51666700  1
  Te  Te5  1  0.00000000  0.00000000  0.61026300  1
  Mo  Mo0  1  0.00000000  0.00000000  0.09391200  1
  Mo  Mo1  1  0.00000000  0.00000000  0.46961800  1
  W  W0  1  0.33333300  0.66666700  0.28178900  1
  W  W1  1  0.33333300  0.66666700  0.65760300  1
  S  S0  1  0.00000000  0.00000000  0.31973000  1
  S  S1  1  0.00000000  0.00000000  0.24387000  1
loop_
_geom_bond_atom_site_label_1
_geom_bond_atom_site_label_2
_geom_bond_distance
_geom_bond_site_symmetry_2
Te0 W1 2.724624 1_545
Te0 W1 2.724626 1_555
Te0 W1 2.724626 1_445
Te5 W1 2.726962 1_545
Te5 W1 2.726965 1_555
Te5 W1 2.726965 1_445
Mo0 Te1 2.718801 1_545
Mo0 Te1 2.718803 1_445
Mo0 Te1 2.718803 1_555
Mo0 Te3 2.720088 1_545
Mo0 Te3 2.720090 1_445
Mo0 Te3 2.720090 1_555
Mo1 Te4 2.719149 1_545
Mo1 Te4 2.719152 1_445
Mo1 Te4 2.719152 1_555
Mo1 Te2 2.719203 1_545
Mo1 Te2 2.719205 1_555
Mo1 Te2 2.719205 1_445
S0 W0 2.488895 1_545
S0 W0 2.488897 1_445
S0 W0 2.488897 1_555
S1 W0 2.488375 1_545
S1 W0 2.488378 1_555
S1 W0 2.488378 1_445
