# generated using pymatgen
data_Li7Mn5O12
_symmetry_space_group_name_H-M   'P 1'
_cell_length_a   6.47818429
_cell_length_b   9.35237779
_cell_length_c   7.80847612
_cell_angle_alpha   71.59737572
_cell_angle_beta   89.41798342
_cell_angle_gamma   81.76182565
_symmetry_Int_Tables_number   1
_chemical_formula_structural   Li7Mn5O12
_chemical_formula_sum   'Li14 Mn10 O24'
_cell_volume   443.95250930
_cell_formula_units_Z   2
loop_
 _symmetry_equiv_pos_site_id
 _symmetry_equiv_pos_as_xyz
  1  'x, y, z'
loop_
 _atom_site_type_symbol
 _atom_site_label
 _atom_site_symmetry_multiplicity
 _atom_site_fract_x
 _atom_site_fract_y
 _atom_site_fract_z
 _atom_site_occupancy
  Li  Li0  1  0.74959200  0.26577000  0.50365600  1
  Li  Li1  1  0.25052300  0.73430600  0.49649300  1
  Li  Li2  1  0.00014900  0.50003300  0.49985100  1
  Li  Li3  1  0.49995000  0.00000500  0.50001800  1
  Li  Li4  1  0.25314300  0.24483400  0.00026500  1
  Li  Li5  1  0.74684600  0.75501700  0.99974800  1
  Li  Li6  1  0.16217600  0.66763900  0.15927900  1
  Li  Li7  1  0.65716600  0.16553900  0.15699900  1
  Li  Li8  1  0.83754200  0.33223200  0.84054800  1
  Li  Li9  1  0.34271300  0.83436300  0.84311600  1
  Li  Li10  1  0.91749200  0.42634000  0.16061400  1
  Li  Li11  1  0.42084800  0.93742900  0.16980300  1
  Li  Li12  1  0.08250100  0.57281700  0.83931400  1
  Li  Li13  1  0.57897500  0.06251700  0.82980000  1
  Mn  Mn0  1  0.49997000  0.50012500  0.99984200  1
  Mn  Mn1  1  0.99994400  0.99998500  0.00007200  1
  Mn  Mn2  1  0.41716900  0.41574700  0.67040500  1
  Mn  Mn3  1  0.91352500  0.91678700  0.67285400  1
  Mn  Mn4  1  0.58298500  0.58415300  0.32985600  1
  Mn  Mn5  1  0.08618400  0.08351100  0.32720700  1
  Mn  Mn6  1  0.16574400  0.17229600  0.66822000  1
  Mn  Mn7  1  0.66730600  0.67206800  0.67387700  1
  Mn  Mn8  1  0.83424900  0.82780900  0.33179100  1
  Mn  Mn9  1  0.33320900  0.32808400  0.32590800  1
  O  O0  1  0.22330800  0.45805300  0.08864700  1
  O  O1  1  0.72738100  0.95513900  0.09411900  1
  O  O2  1  0.77666700  0.54208300  0.91132700  1
  O  O3  1  0.27258200  0.04488000  0.90582600  1
  O  O4  1  0.30988100  0.53882700  0.42593900  1
  O  O5  1  0.81571900  0.01337100  0.41400600  1
  O  O6  1  0.69038400  0.46092700  0.57435000  1
  O  O7  1  0.18396500  0.98677000  0.58600400  1
  O  O8  1  0.89200700  0.13020600  0.76087700  1
  O  O9  1  0.38726800  0.62741200  0.76240900  1
  O  O10  1  0.10788500  0.86978300  0.23927300  1
  O  O11  1  0.61304600  0.37278300  0.23728300  1
  O  O12  1  0.96794300  0.17667500  0.08483000  1
  O  O13  1  0.46854300  0.67723900  0.08524400  1
  O  O14  1  0.03187500  0.82347600  0.91525100  1
  O  O15  1  0.53140500  0.32276200  0.91492100  1
  O  O16  1  0.05255200  0.29115700  0.42325300  1
  O  O17  1  0.56110900  0.79184100  0.42474000  1
  O  O18  1  0.94776200  0.70897200  0.57683200  1
  O  O19  1  0.43898100  0.20817400  0.57520000  1
  O  O20  1  0.14224100  0.35517800  0.73743000  1
  O  O21  1  0.64053300  0.87950400  0.74583900  1
  O  O22  1  0.85771800  0.64494600  0.26275500  1
  O  O23  1  0.35934200  0.12044100  0.25410900  1
loop_
_geom_bond_atom_site_label_1
_geom_bond_atom_site_label_2
_geom_bond_distance
_geom_bond_site_symmetry_2
Li0 O6 2.052885 1_555
Li0 O16 2.077702 1_655
Li0 O11 2.140025 1_555
Li0 O8 2.141804 1_555
Li0 O19 2.179210 1_555
Li1 O4 2.055194 1_555
Li1 O18 2.076263 1_455
Li1 O9 2.137416 1_555
Li1 O10 2.142122 1_555
Li1 O17 2.179161 1_555
Li2 O22 2.051293 1_455
Li2 O20 2.052963 1_555
Li2 O4 2.131587 1_555
Li2 O6 2.133389 1_455
Li2 O16 2.198327 1_555
Li2 O18 2.200534 1_455
Li3 O21 2.039480 1_545
Li3 O23 2.039955 1_555
Li3 O5 2.154897 1_555
Li3 O7 2.156059 1_545
Li3 O19 2.188038 1_555
Li3 O17 2.188466 1_545
Li4 O23 2.024349 1_555
Li4 O15 2.066443 1_554
Li4 O20 2.067237 1_554
Li4 O12 2.074337 1_455
Li4 O3 2.204096 1_554
Li4 O0 2.290378 1_555
Li5 O21 2.025144 1_555
Li5 O13 2.066401 1_556
Li5 O22 2.067963 1_556
Li5 O14 2.074133 1_655
Li5 O1 2.205252 1_556
Li5 O2 2.288015 1_555
Li6 O13 2.067919 1_555
Li6 O14 2.096241 1_554
Li6 O22 2.137126 1_455
Li6 O10 2.153726 1_555
Li6 O0 2.181466 1_555
Li6 O4 2.197457 1_555
Li7 O15 2.081347 1_554
Li7 O12 2.093240 1_555
Li7 O23 2.115859 1_555
Li7 O1 2.160777 1_545
Li7 O11 2.199131 1_555
Li7 O5 2.219783 1_555
Li8 O15 2.067050 1_555
Li8 O12 2.096904 1_556
Li8 O20 2.137911 1_655
Li8 O8 2.151296 1_555
Li8 O2 2.184357 1_555
Li8 O6 2.193145 1_555
Li9 O13 2.081413 1_556
Li9 O14 2.093320 1_555
Li9 O21 2.116295 1_555
Li9 O3 2.161097 1_565
Li9 O9 2.198384 1_555
Li9 O7 2.221490 1_555
Li10 O2 2.053235 1_554
Li10 O0 2.090259 1_655
Li10 O11 2.137492 1_555
Li10 O16 2.156885 1_655
Li10 O22 2.400494 1_555
Li10 O12 2.561019 1_555
Li11 O23 2.008066 1_565
Li11 O1 2.080531 1_555
Li11 O17 2.147827 1_555
Li11 O3 2.153361 1_564
Li11 O10 2.221157 1_555
Li12 O0 2.051990 1_556
Li12 O2 2.088703 1_455
Li12 O9 2.142554 1_555
Li12 O18 2.157347 1_455
Li12 O20 2.390842 1_555
Li12 O14 2.570615 1_555
Li13 O21 2.006498 1_545
Li13 O3 2.080239 1_555
Li13 O19 2.145495 1_555
Li13 O1 2.155820 1_546
Li13 O8 2.221104 1_555
Mn0 O9 1.942264 1_555
Mn0 O11 1.943167 1_556
Mn0 O15 1.956429 1_555
Mn0 O13 1.956519 1_556
Mn0 O2 1.962114 1_555
Mn0 O0 1.962770 1_556
Mn1 O14 1.948387 1_654
Mn1 O12 1.949671 1_565
Mn1 O10 1.951129 1_655
Mn1 O8 1.951134 1_564
Mn1 O1 1.955598 1_555
Mn1 O3 1.956617 1_664
Mn2 O15 1.935270 1_555
Mn2 O20 1.962110 1_555
Mn2 O6 1.964951 1_555
Mn2 O4 1.965280 1_555
Mn2 O19 2.274142 1_555
Mn2 O9 2.292933 1_555
Mn3 O21 1.898607 1_555
Mn3 O14 1.930475 1_655
Mn3 O7 1.995464 1_655
Mn3 O5 2.002980 1_565
Mn3 O18 2.276398 1_555
Mn3 O8 2.293528 1_565
Mn4 O13 1.936423 1_555
Mn4 O22 1.961716 1_555
Mn4 O4 1.964657 1_555
Mn4 O6 1.965966 1_555
Mn4 O17 2.273643 1_555
Mn4 O11 2.292872 1_555
Mn5 O23 1.899109 1_555
Mn5 O12 1.929985 1_455
Mn5 O5 1.996032 1_455
Mn5 O7 2.002720 1_545
Mn5 O16 2.275133 1_555
Mn5 O10 2.295814 1_545
Mn6 O3 1.932648 1_555
Mn6 O20 1.935963 1_555
Mn6 O19 1.939989 1_555
Mn6 O8 1.953776 1_455
Mn6 O16 1.970952 1_555
Mn6 O7 2.019839 1_545
Mn7 O2 1.942748 1_555
Mn7 O17 1.985706 1_555
Mn7 O9 1.988158 1_555
Mn7 O18 1.995212 1_555
Mn7 O21 2.167807 1_555
Mn7 O6 2.325428 1_555
Mn8 O1 1.932888 1_555
Mn8 O22 1.935047 1_555
Mn8 O17 1.939386 1_555
Mn8 O10 1.952610 1_655
Mn8 O18 1.971993 1_555
Mn8 O5 2.020020 1_565
Mn9 O0 1.942584 1_555
Mn9 O19 1.986188 1_555
Mn9 O11 1.987226 1_555
Mn9 O16 1.997206 1_555
Mn9 O23 2.169203 1_555
Mn9 O4 2.324183 1_555
