# generated using pymatgen
data_Yb6Cu23
_symmetry_space_group_name_H-M   'P 1'
_cell_length_a   8.52749848
_cell_length_b   8.52749848
_cell_length_c   8.52749848
_cell_angle_alpha   60.00000000
_cell_angle_beta   60.00000000
_cell_angle_gamma   60.00000000
_symmetry_Int_Tables_number   1
_chemical_formula_structural   Yb6Cu23
_chemical_formula_sum   'Yb6 Cu23'
_cell_volume   438.48016631
_cell_formula_units_Z   1
loop_
 _symmetry_equiv_pos_site_id
 _symmetry_equiv_pos_as_xyz
  1  'x, y, z'
loop_
 _atom_site_type_symbol
 _atom_site_label
 _atom_site_symmetry_multiplicity
 _atom_site_fract_x
 _atom_site_fract_y
 _atom_site_fract_z
 _atom_site_occupancy
  Yb  Yb0  1  0.71760400  0.71760400  0.28239600  1
  Yb  Yb1  1  0.28239600  0.71760400  0.28239600  1
  Yb  Yb2  1  0.71760400  0.28239600  0.28239600  1
  Yb  Yb3  1  0.28239600  0.28239600  0.71760400  1
  Yb  Yb4  1  0.71760400  0.28239600  0.71760400  1
  Yb  Yb5  1  0.28239600  0.71760400  0.71760400  1
  Cu  Cu0  1  0.00000000  0.00000000  0.00000000  1
  Cu  Cu1  1  0.00000000  0.00000000  0.50000000  1
  Cu  Cu2  1  0.50000000  0.00000000  0.50000000  1
  Cu  Cu3  1  0.00000000  0.50000000  0.50000000  1
  Cu  Cu4  1  0.50000000  0.50000000  0.00000000  1
  Cu  Cu5  1  0.00000000  0.50000000  0.00000000  1
  Cu  Cu6  1  0.50000000  0.00000000  0.00000000  1
  Cu  Cu7  1  0.87797500  0.87797500  0.36607400  1
  Cu  Cu8  1  0.87797500  0.36607400  0.87797500  1
  Cu  Cu9  1  0.36607400  0.87797500  0.87797500  1
  Cu  Cu10  1  0.87797500  0.87797500  0.87797500  1
  Cu  Cu11  1  0.12202500  0.12202500  0.63392600  1
  Cu  Cu12  1  0.12202500  0.63392600  0.12202500  1
  Cu  Cu13  1  0.63392600  0.12202500  0.12202500  1
  Cu  Cu14  1  0.12202500  0.12202500  0.12202500  1
  Cu  Cu15  1  0.67411400  0.67411400  0.97765800  1
  Cu  Cu16  1  0.67411400  0.97765800  0.67411400  1
  Cu  Cu17  1  0.97765800  0.67411400  0.67411400  1
  Cu  Cu18  1  0.67411400  0.67411400  0.67411400  1
  Cu  Cu19  1  0.32588600  0.32588600  0.02234200  1
  Cu  Cu20  1  0.32588600  0.02234200  0.32588600  1
  Cu  Cu21  1  0.02234200  0.32588600  0.32588600  1
  Cu  Cu22  1  0.32588600  0.32588600  0.32588600  1
loop_
_geom_bond_atom_site_label_1
_geom_bond_atom_site_label_2
_geom_bond_distance
_geom_bond_site_symmetry_2
Cu0 Cu13 2.548854 1_455
Cu0 Cu7 2.548854 1_445
Cu0 Cu8 2.548854 1_454
Cu0 Cu9 2.548854 1_544
Cu0 Cu11 2.548854 1_554
Cu0 Cu12 2.548854 1_545
Cu0 Cu14 2.548861 1_555
Cu0 Cu10 2.548861 1_444
Cu1 Cu16 2.466587 1_445
Cu1 Cu20 2.466587 1_555
Cu1 Cu17 2.466587 1_445
Cu1 Cu21 2.466587 1_555
Cu1 Cu10 2.632369 1_445
Cu1 Cu14 2.632369 1_555
Cu1 Cu11 2.632376 1_555
Cu1 Cu7 2.632376 1_445
Cu1 Yb4 3.040134 1_455
Cu1 Yb1 3.040134 1_545
Cu1 Yb2 3.040134 1_455
Cu1 Yb5 3.040134 1_545
Cu2 Cu20 2.466587 1_555
Cu2 Cu22 2.466587 1_555
Cu2 Cu9 2.632369 1_545
Cu2 Cu7 2.632369 1_545
Cu2 Yb3 3.040134 1_555
Cu2 Yb5 3.040134 1_545
Cu2 Yb2 3.040134 1_555
Cu2 Yb0 3.040134 1_545
Cu3 Cu8 2.632369 1_455
Cu3 Cu7 2.632369 1_455
Cu3 Yb4 3.040134 1_455
Cu3 Yb1 3.040134 1_555
Cu3 Yb0 3.040134 1_455
Cu3 Yb3 3.040134 1_555
Cu4 Cu8 2.632369 1_554
Cu4 Cu9 2.632369 1_554
Cu4 Yb4 3.040134 1_554
Cu4 Yb1 3.040134 1_555
Cu4 Yb5 3.040134 1_554
Cu4 Yb2 3.040134 1_555
Cu5 Cu8 2.632376 1_454
Cu5 Yb0 3.040134 1_455
Cu5 Yb2 3.040134 1_455
Cu5 Yb5 3.040134 1_554
Cu5 Yb3 3.040134 1_554
Cu6 Cu9 2.632376 1_544
Cu6 Yb0 3.040134 1_545
Cu6 Yb4 3.040134 1_554
Cu6 Yb1 3.040134 1_545
Cu6 Yb3 3.040134 1_554
Cu7 Yb0 2.841048 1_555
Cu7 Yb2 2.841055 1_565
Cu7 Yb1 2.841055 1_655
Cu8 Yb4 2.841048 1_555
Cu8 Yb3 2.841055 1_655
Cu8 Yb2 2.841055 1_556
Cu9 Yb5 2.841048 1_555
Cu9 Yb3 2.841055 1_565
Cu9 Yb1 2.841055 1_556
Cu10 Cu15 2.614088 1_555
Cu10 Cu16 2.614088 1_555
Cu10 Cu17 2.614088 1_555
Cu10 Cu6 2.632369 1_566
Cu10 Cu5 2.632369 1_656
Cu10 Yb5 2.841054 1_655
Cu10 Yb0 2.841054 1_556
Cu10 Yb4 2.841054 1_565
Cu10 Cu13 2.943171 1_566
Cu10 Cu11 2.943171 1_665
Cu10 Cu12 2.943171 1_656
Cu11 Cu22 2.614090 1_555
Cu11 Cu21 2.614095 1_555
Cu11 Cu20 2.614095 1_555
Cu11 Cu3 2.632369 1_555
Cu11 Cu2 2.632369 1_555
Cu11 Yb3 2.841048 1_555
Cu11 Yb4 2.841055 1_455
Cu11 Yb5 2.841055 1_545
Cu11 Cu8 2.943159 1_455
Cu11 Cu9 2.943159 1_545
Cu12 Cu22 2.614090 1_555
Cu12 Cu21 2.614095 1_555
Cu12 Cu19 2.614095 1_555
Cu12 Cu3 2.632369 1_555
Cu12 Cu4 2.632369 1_555
Cu12 Cu5 2.632376 1_555
Cu12 Yb1 2.841048 1_555
Cu12 Yb5 2.841055 1_554
Cu12 Yb0 2.841055 1_455
Cu12 Cu9 2.943159 1_554
Cu12 Cu7 2.943159 1_455
Cu13 Cu22 2.614090 1_555
Cu13 Cu19 2.614095 1_555
Cu13 Cu20 2.614095 1_555
Cu13 Cu4 2.632369 1_555
Cu13 Cu2 2.632369 1_555
Cu13 Cu6 2.632376 1_555
Cu13 Yb2 2.841048 1_555
Cu13 Yb4 2.841055 1_554
Cu13 Yb0 2.841055 1_545
Cu13 Cu7 2.943159 1_545
Cu13 Cu8 2.943159 1_554
Cu14 Cu20 2.614088 1_555
Cu14 Cu21 2.614088 1_555
Cu14 Cu19 2.614088 1_555
Cu14 Cu6 2.632369 1_555
Cu14 Cu5 2.632369 1_555
Cu14 Yb3 2.841054 1_554
Cu14 Yb1 2.841054 1_545
Cu14 Yb2 2.841054 1_455
Cu14 Cu9 2.943171 1_544
Cu14 Cu7 2.943171 1_445
Cu14 Cu8 2.943171 1_454
Cu15 Cu5 2.466587 1_656
Cu15 Cu6 2.466587 1_566
Cu15 Cu4 2.466587 1_556
Cu15 Cu18 2.588471 1_555
Cu15 Cu16 2.588471 1_555
Cu15 Cu17 2.588471 1_555
Cu15 Cu8 2.614095 1_555
Cu15 Cu9 2.614095 1_555
Cu15 Yb0 3.015475 1_556
Cu15 Yb1 3.015475 1_556
Cu15 Yb2 3.015475 1_556
Cu16 Cu6 2.466587 1_566
Cu16 Cu2 2.466587 1_565
Cu16 Cu18 2.588471 1_555
Cu16 Cu17 2.588471 1_555
Cu16 Cu7 2.614095 1_555
Cu16 Cu9 2.614095 1_555
Cu16 Yb4 3.015475 1_565
Cu16 Yb3 3.015475 1_565
Cu16 Yb2 3.015475 1_565
Cu17 Cu5 2.466587 1_656
Cu17 Cu3 2.466587 1_655
Cu17 Cu18 2.588471 1_555
Cu17 Cu7 2.614095 1_555
Cu17 Cu8 2.614095 1_555
Cu17 Yb5 3.015475 1_655
Cu17 Yb1 3.015475 1_655
Cu17 Yb3 3.015475 1_655
Cu18 Cu2 2.466587 1_565
Cu18 Cu3 2.466587 1_655
Cu18 Cu4 2.466587 1_556
Cu18 Cu7 2.614090 1_555
Cu18 Cu8 2.614090 1_555
Cu18 Cu9 2.614090 1_555
Cu18 Yb5 3.015475 1_555
Cu18 Yb0 3.015475 1_555
Cu18 Yb4 3.015475 1_555
Cu19 Cu5 2.466587 1_555
Cu19 Cu4 2.466587 1_555
Cu19 Cu6 2.466587 1_555
Cu19 Cu21 2.588471 1_555
Cu19 Cu20 2.588471 1_555
Cu19 Cu22 2.588471 1_555
Cu19 Yb5 3.015475 1_554
Cu19 Yb3 3.015475 1_554
Cu19 Yb4 3.015475 1_554
Cu20 Cu6 2.466587 1_555
Cu20 Cu21 2.588471 1_555
Cu20 Cu22 2.588471 1_555
Cu20 Yb5 3.015475 1_545
Cu20 Yb0 3.015475 1_545
Cu20 Yb1 3.015475 1_545
Cu21 Cu3 2.466587 1_555
Cu21 Cu5 2.466587 1_555
Cu21 Cu22 2.588471 1_555
Cu21 Yb2 3.015475 1_455
Cu21 Yb0 3.015475 1_455
Cu21 Yb4 3.015475 1_455
Cu22 Cu3 2.466587 1_555
Cu22 Cu4 2.466587 1_555
Cu22 Yb2 3.015475 1_555
Cu22 Yb3 3.015475 1_555
Cu22 Yb1 3.015475 1_555
