# generated using pymatgen
data_Nd10Ti9GaO34
_symmetry_space_group_name_H-M   'P 1'
_cell_length_a   5.52184100
_cell_length_b   7.73793900
_cell_length_c   32.00899883
_cell_angle_alpha   82.98231461
_cell_angle_beta   90.00000000
_cell_angle_gamma   90.00000000
_symmetry_Int_Tables_number   1
_chemical_formula_structural   Nd10Ti9GaO34
_chemical_formula_sum   'Nd20 Ti18 Ga2 O68'
_cell_volume   1357.42398464
_cell_formula_units_Z   2
loop_
 _symmetry_equiv_pos_site_id
 _symmetry_equiv_pos_as_xyz
  1  'x, y, z'
loop_
 _atom_site_type_symbol
 _atom_site_label
 _atom_site_symmetry_multiplicity
 _atom_site_fract_x
 _atom_site_fract_y
 _atom_site_fract_z
 _atom_site_occupancy
  Nd  Nd0  1  0.99092600  0.74223800  0.50685500  1
  Nd  Nd1  1  0.00907400  0.25776200  0.49314500  1
  Nd  Nd2  1  0.49092600  0.25776200  0.99314500  1
  Nd  Nd3  1  0.50907400  0.74223800  0.00685500  1
  Nd  Nd4  1  0.98679500  0.78676400  0.91828400  1
  Nd  Nd5  1  0.01320500  0.21323600  0.08171600  1
  Nd  Nd6  1  0.48679500  0.21323600  0.58171600  1
  Nd  Nd7  1  0.51320500  0.78676400  0.41828400  1
  Nd  Nd8  1  0.00084600  0.69930500  0.09665100  1
  Nd  Nd9  1  0.99915400  0.30069500  0.90334900  1
  Nd  Nd10  1  0.50084600  0.30069500  0.40334900  1
  Nd  Nd11  1  0.49915400  0.69930500  0.59665100  1
  Nd  Nd12  1  0.37643100  0.85634300  0.77876600  1
  Nd  Nd13  1  0.62356900  0.14365700  0.22123400  1
  Nd  Nd14  1  0.87643100  0.14365700  0.72123400  1
  Nd  Nd15  1  0.12356900  0.85634300  0.27876600  1
  Nd  Nd16  1  0.92951600  0.64402100  0.70203800  1
  Nd  Nd17  1  0.07048400  0.35597900  0.29796200  1
  Nd  Nd18  1  0.42951600  0.35597900  0.79796200  1
  Nd  Nd19  1  0.57048400  0.64402100  0.20203800  1
  Ti  Ti0  1  0.44583900  0.92176000  0.67616500  1
  Ti  Ti1  1  0.55416100  0.07824000  0.32383500  1
  Ti  Ti2  1  0.94583900  0.07824000  0.82383500  1
  Ti  Ti3  1  0.05416100  0.92176000  0.17616500  1
  Ti  Ti4  1  0.48572500  0.54532200  0.90652400  1
  Ti  Ti5  1  0.51427500  0.45467800  0.09347600  1
  Ti  Ti6  1  0.98572500  0.45467800  0.59347600  1
  Ti  Ti7  1  0.01427500  0.54532200  0.40652400  1
  Ti  Ti8  1  0.43574900  0.40576700  0.67894300  1
  Ti  Ti9  1  0.56425100  0.59423300  0.32105700  1
  Ti  Ti10  1  0.93574900  0.59423300  0.82105700  1
  Ti  Ti11  1  0.06425100  0.40576700  0.17894300  1
  Ti  Ti12  1  0.50000000  0.00000000  0.50000000  1
  Ti  Ti13  1  0.00000000  0.00000000  0.00000000  1
  Ti  Ti14  1  0.98393000  0.95185000  0.59279900  1
  Ti  Ti15  1  0.01607000  0.04815000  0.40720100  1
  Ti  Ti16  1  0.48393000  0.04815000  0.90720100  1
  Ti  Ti17  1  0.51607000  0.95185000  0.09279900  1
  Ga  Ga0  1  0.50000000  0.50000000  0.50000000  1
  Ga  Ga1  1  0.00000000  0.50000000  0.00000000  1
  O  O0  1  0.30335000  0.41876500  0.61929200  1
  O  O1  1  0.69665000  0.58123500  0.38070800  1
  O  O2  1  0.80335000  0.58123500  0.88070800  1
  O  O3  1  0.19665000  0.41876500  0.11929200  1
  O  O4  1  0.21465700  0.48261100  0.94828000  1
  O  O5  1  0.78534300  0.51738900  0.05172000  1
  O  O6  1  0.71465700  0.51738900  0.55172000  1
  O  O7  1  0.28534300  0.48261100  0.44828000  1
  O  O8  1  0.66510200  0.87175400  0.72138600  1
  O  O9  1  0.33489800  0.12824600  0.27861400  1
  O  O10  1  0.16510200  0.12824600  0.77861400  1
  O  O11  1  0.83489800  0.87175400  0.22138600  1
  O  O12  1  0.41502100  0.75385100  0.49539100  1
  O  O13  1  0.58497900  0.24614900  0.50460900  1
  O  O14  1  0.91502100  0.24614900  0.00460900  1
  O  O15  1  0.08497900  0.75385100  0.99539100  1
  O  O16  1  0.71513900  0.97499100  0.96468500  1
  O  O17  1  0.28486100  0.02500900  0.03531500  1
  O  O18  1  0.21513900  0.02500900  0.53531500  1
  O  O19  1  0.78486100  0.97499100  0.46468500  1
  O  O20  1  0.07565100  0.70989500  0.58069500  1
  O  O21  1  0.92434900  0.29010500  0.41930500  1
  O  O22  1  0.57565100  0.29010500  0.91930500  1
  O  O23  1  0.42434900  0.70989500  0.08069500  1
  O  O24  1  0.17678200  0.91674200  0.71031200  1
  O  O25  1  0.82321800  0.08325800  0.28968800  1
  O  O26  1  0.67678200  0.08325800  0.78968800  1
  O  O27  1  0.32321800  0.91674200  0.21031200  1
  O  O28  1  0.71004500  0.93249200  0.55071000  1
  O  O29  1  0.28995500  0.06750800  0.44929000  1
  O  O30  1  0.21004500  0.06750800  0.94929000  1
  O  O31  1  0.78995500  0.93249200  0.05071000  1
  O  O32  1  0.21578100  0.43788100  0.53559400  1
  O  O33  1  0.78421900  0.56211900  0.46440600  1
  O  O34  1  0.71578100  0.56211900  0.96440600  1
  O  O35  1  0.28421900  0.43788100  0.03559400  1
  O  O36  1  0.04146600  0.83339400  0.82980900  1
  O  O37  1  0.95853400  0.16660600  0.17019100  1
  O  O38  1  0.54146600  0.16660600  0.67019100  1
  O  O39  1  0.45853400  0.83339400  0.32980900  1
  O  O40  1  0.29513200  0.50895800  0.86170100  1
  O  O41  1  0.70486800  0.49104200  0.13829900  1
  O  O42  1  0.79513200  0.49104200  0.63829900  1
  O  O43  1  0.20486800  0.50895800  0.36170100  1
  O  O44  1  0.78937200  0.87286900  0.63723100  1
  O  O45  1  0.21062800  0.12713100  0.36276900  1
  O  O46  1  0.28937200  0.12713100  0.86276900  1
  O  O47  1  0.71062800  0.87286900  0.13723100  1
  O  O48  1  0.42473800  0.79362100  0.91129300  1
  O  O49  1  0.57526200  0.20637900  0.08870700  1
  O  O50  1  0.92473800  0.20637900  0.58870700  1
  O  O51  1  0.07526200  0.79362100  0.41129300  1
  O  O52  1  0.15107800  0.37307800  0.70438200  1
  O  O53  1  0.84892200  0.62692200  0.29561800  1
  O  O54  1  0.65107800  0.62692200  0.79561800  1
  O  O55  1  0.34892200  0.37307800  0.20438200  1
  O  O56  1  0.41014700  0.66355200  0.67136200  1
  O  O57  1  0.58985300  0.33644800  0.32863800  1
  O  O58  1  0.91014700  0.33644800  0.82863800  1
  O  O59  1  0.08985300  0.66355200  0.17136200  1
  O  O60  1  0.14604700  0.59682700  0.77307100  1
  O  O61  1  0.85395300  0.40317300  0.22692900  1
  O  O62  1  0.64604700  0.40317300  0.72692900  1
  O  O63  1  0.35395300  0.59682700  0.27307100  1
  O  O64  1  0.30146000  0.96398200  0.61898700  1
  O  O65  1  0.69854000  0.03601800  0.38101300  1
  O  O66  1  0.80146000  0.03601800  0.88101300  1
  O  O67  1  0.19854000  0.96398200  0.11898700  1
loop_
_geom_bond_atom_site_label_1
_geom_bond_atom_site_label_2
_geom_bond_distance
_geom_bond_site_symmetry_2
Nd0 O33 2.356753 1_555
Nd0 O12 2.370365 1_655
Nd0 O20 2.392344 1_655
Nd0 O19 2.401334 1_555
Nd0 O6 2.608857 1_555
Nd0 O28 2.654870 1_555
Nd0 O32 2.721200 1_655
Nd0 O18 2.763581 1_665
Nd1 O32 2.356753 1_555
Nd1 O13 2.370365 1_455
Nd1 O21 2.392344 1_455
Nd1 O18 2.401334 1_555
Nd1 O7 2.608857 1_555
Nd1 O29 2.654870 1_555
Nd1 O33 2.721200 1_455
Nd1 O19 2.763581 1_445
Nd2 O35 2.356753 1_556
Nd2 O14 2.370365 1_556
Nd2 O22 2.392344 1_555
Nd2 O17 2.401334 1_556
Nd2 O4 2.608857 1_555
Nd2 O30 2.654870 1_555
Nd2 O34 2.721200 1_555
Nd2 O16 2.763581 1_545
Nd3 O34 2.356753 1_554
Nd3 O15 2.370365 1_554
Nd3 O23 2.392344 1_555
Nd3 O16 2.401334 1_554
Nd3 O5 2.608857 1_555
Nd3 O31 2.654870 1_555
Nd3 O35 2.721200 1_555
Nd3 O17 2.763581 1_565
Nd4 O2 2.338679 1_555
Nd4 O66 2.372400 1_565
Nd4 O48 2.428565 1_655
Nd4 O15 2.509344 1_655
Nd4 O34 2.610287 1_555
Nd4 O16 2.665716 1_555
Nd4 O4 2.737127 1_655
Nd4 O30 2.784014 1_665
Nd4 O36 2.826984 1_655
Nd5 O3 2.338679 1_555
Nd5 O67 2.372400 1_545
Nd5 O49 2.428565 1_455
Nd5 O14 2.509344 1_455
Nd5 O35 2.610287 1_555
Nd5 O17 2.665716 1_555
Nd5 O5 2.737127 1_455
Nd5 O31 2.784014 1_445
Nd5 O37 2.826984 1_455
Nd6 O0 2.338679 1_555
Nd6 O64 2.372400 1_545
Nd6 O50 2.428565 1_555
Nd6 O13 2.509344 1_555
Nd6 O32 2.610287 1_555
Nd6 O18 2.665716 1_555
Nd6 O6 2.737127 1_555
Nd6 O28 2.784014 1_545
Nd6 O38 2.826984 1_555
Nd7 O1 2.338679 1_555
Nd7 O65 2.372400 1_565
Nd7 O51 2.428565 1_555
Nd7 O12 2.509344 1_555
Nd7 O33 2.610287 1_555
Nd7 O19 2.665716 1_555
Nd7 O7 2.737127 1_555
Nd7 O29 2.784014 1_565
Nd7 O39 2.826984 1_555
Nd8 O23 2.392906 1_555
Nd8 O59 2.423910 1_555
Nd8 O5 2.441439 1_455
Nd8 O3 2.454010 1_555
Nd8 O31 2.475070 1_455
Nd8 O67 2.501029 1_555
Nd8 O47 2.546630 1_455
Nd8 O41 2.553494 1_455
Nd9 O22 2.392906 1_555
Nd9 O58 2.423910 1_555
Nd9 O4 2.441439 1_655
Nd9 O2 2.454010 1_555
Nd9 O30 2.475070 1_655
Nd9 O66 2.501029 1_555
Nd9 O46 2.546630 1_655
Nd9 O40 2.553494 1_655
Nd10 O21 2.392906 1_555
Nd10 O57 2.423910 1_555
Nd10 O7 2.441439 1_555
Nd10 O1 2.454010 1_555
Nd10 O29 2.475070 1_555
Nd10 O65 2.501029 1_555
Nd10 O45 2.546630 1_555
Nd10 O43 2.553494 1_555
Nd11 O20 2.392906 1_555
Nd11 O56 2.423910 1_555
Nd11 O6 2.441439 1_555
Nd11 O0 2.454010 1_555
Nd11 O28 2.475070 1_555
Nd11 O64 2.501029 1_555
Nd11 O44 2.546630 1_555
Nd11 O42 2.553494 1_555
Nd12 O54 2.347003 1_555
Nd12 O60 2.402825 1_555
Nd12 O10 2.405394 1_565
Nd12 O8 2.423820 1_555
Nd12 O24 2.446357 1_555
Nd12 O36 2.459911 1_555
Nd12 O26 2.470998 1_565
Nd13 O55 2.347003 1_555
Nd13 O61 2.402825 1_555
Nd13 O11 2.405394 1_545
Nd13 O9 2.423820 1_555
Nd13 O25 2.446357 1_555
Nd13 O37 2.459911 1_555
Nd13 O27 2.470998 1_545
Nd14 O52 2.347003 1_655
Nd14 O62 2.402825 1_555
Nd14 O8 2.405394 1_545
Nd14 O10 2.423820 1_655
Nd14 O26 2.446357 1_555
Nd14 O38 2.459911 1_555
Nd14 O24 2.470998 1_645
Nd15 O53 2.347003 1_455
Nd15 O63 2.402825 1_555
Nd15 O9 2.405394 1_565
Nd15 O11 2.423820 1_455
Nd15 O27 2.446357 1_555
Nd15 O39 2.459911 1_555
Nd15 O25 2.470998 1_465
Nd16 O52 2.420631 1_655
Nd16 O8 2.426368 1_555
Nd16 O62 2.489034 1_555
Nd16 O24 2.554268 1_655
Nd16 O60 2.555335 1_655
Nd16 O42 2.589308 1_555
Nd16 O44 2.672114 1_555
Nd16 O56 2.827414 1_655
Nd17 O53 2.420631 1_455
Nd17 O9 2.426368 1_555
Nd17 O63 2.489034 1_555
Nd17 O25 2.554268 1_455
Nd17 O61 2.555335 1_455
Nd17 O43 2.589308 1_555
Nd17 O45 2.672114 1_555
Nd17 O57 2.827414 1_455
Nd18 O54 2.420631 1_555
Nd18 O10 2.426368 1_555
Nd18 O60 2.489034 1_555
Nd18 O26 2.554268 1_555
Nd18 O62 2.555335 1_555
Nd18 O40 2.589308 1_555
Nd18 O46 2.672114 1_555
Nd18 O58 2.827414 1_555
Nd19 O55 2.420631 1_555
Nd19 O11 2.426368 1_555
Nd19 O61 2.489034 1_555
Nd19 O27 2.554268 1_555
Nd19 O63 2.555335 1_555
Nd19 O41 2.589308 1_555
Nd19 O47 2.672114 1_555
Nd19 O59 2.827414 1_555
Ga0 O33 1.964269 1_555
Ga0 O32 1.964269 1_555
Ga0 O12 2.007374 1_555
Ga0 O13 2.007374 1_555
Ga0 O6 2.053820 1_555
Ga0 O7 2.053820 1_555
Ga1 O34 1.964269 1_454
Ga1 O35 1.964269 1_555
Ga1 O15 2.007374 1_554
Ga1 O14 2.007374 1_455
Ga1 O4 2.053820 1_554
Ga1 O5 2.053820 1_455
O0 Ti6 1.944231 1_455
O0 Ti8 2.035526 1_555
O1 Ti7 1.944231 1_655
O1 Ti9 2.035526 1_555
O2 Ti4 1.944231 1_555
O2 Ti10 2.035526 1_555
O3 Ti5 1.944231 1_555
O3 Ti11 2.035526 1_555
O4 Ti4 2.025783 1_555
O5 Ti5 2.025783 1_555
O6 Ti6 2.025783 1_555
O7 Ti7 2.025783 1_555
O8 Ti0 1.890487 1_555
O9 Ti1 1.890487 1_555
O10 Ti2 1.890487 1_455
O11 Ti3 1.890487 1_655
O12 Ti12 1.984551 1_565
O13 Ti12 1.984551 1_555
O14 Ti13 1.984551 1_655
O15 Ti13 1.984551 1_566
O16 Ti13 1.960330 1_666
O16 Ti16 2.254224 1_565
O17 Ti13 1.960330 1_555
O17 Ti17 2.254224 1_545
O18 Ti12 1.960330 1_555
O18 Ti14 2.254224 1_445
O19 Ti12 1.960330 1_565
O19 Ti15 2.254224 1_665
O20 Ti14 2.022157 1_455
O20 Ti6 2.028932 1_455
O21 Ti15 2.022157 1_655
O21 Ti7 2.028932 1_655
O22 Ti16 2.022157 1_555
O22 Ti4 2.028932 1_555
O23 Ti17 2.022157 1_555
O23 Ti5 2.028932 1_555
O24 Ti0 1.842033 1_555
O25 Ti1 1.842033 1_555
O26 Ti2 1.842033 1_555
O27 Ti3 1.842033 1_555
O28 Ti12 2.011369 1_565
O28 Ti14 2.043029 1_555
O29 Ti12 2.011369 1_555
O29 Ti15 2.043029 1_555
O30 Ti13 2.011369 1_556
O30 Ti16 2.043029 1_555
O31 Ti13 2.011369 1_665
O31 Ti17 2.043029 1_555
O32 Ti6 2.263215 1_455
O33 Ti7 2.263215 1_655
O34 Ti4 2.263215 1_555
O35 Ti5 2.263215 1_555
O36 Ti2 1.953557 1_465
O36 Ti10 1.992661 1_455
O37 Ti3 1.953557 1_645
O37 Ti11 1.992661 1_655
O38 Ti0 1.953557 1_545
O38 Ti8 1.992661 1_555
O39 Ti1 1.953557 1_565
O39 Ti9 1.992661 1_555
O40 Ti4 1.828633 1_555
O40 Ti10 2.419967 1_455
O41 Ti5 1.828633 1_555
O41 Ti11 2.419967 1_655
O42 Ti6 1.828633 1_555
O42 Ti8 2.419967 1_555
O43 Ti7 1.828633 1_555
O43 Ti9 2.419967 1_555
O44 Ti14 1.827019 1_555
O44 Ti0 2.325897 1_555
O45 Ti15 1.827019 1_555
O45 Ti1 2.325897 1_555
O46 Ti16 1.827019 1_555
O46 Ti2 2.325897 1_455
O47 Ti17 1.827019 1_555
O47 Ti3 2.325897 1_655
O48 Ti4 1.974805 1_555
O48 Ti16 1.984943 1_565
O49 Ti5 1.974805 1_555
O49 Ti17 1.984943 1_545
O50 Ti6 1.974805 1_555
O50 Ti14 1.984943 1_545
O51 Ti7 1.974805 1_555
O51 Ti15 1.984943 1_565
O52 Ti8 1.774146 1_555
O53 Ti9 1.774146 1_555
O54 Ti10 1.774146 1_555
O55 Ti11 1.774146 1_555
O56 Ti8 1.984822 1_555
O56 Ti0 2.032125 1_555
O57 Ti9 1.984822 1_555
O57 Ti1 2.032125 1_555
O58 Ti10 1.984822 1_555
O58 Ti2 2.032125 1_555
O59 Ti11 1.984822 1_555
O59 Ti3 2.032125 1_555
O60 Ti10 1.923688 1_455
O61 Ti11 1.923688 1_655
O62 Ti8 1.923688 1_555
O63 Ti9 1.923688 1_555
O64 Ti14 1.950627 1_455
O64 Ti0 1.986426 1_555
O65 Ti15 1.950627 1_655
O65 Ti1 1.986426 1_555
O66 Ti16 1.950627 1_555
O66 Ti2 1.986426 1_555
O67 Ti17 1.950627 1_555
O67 Ti3 1.986426 1_555
