# generated using pymatgen
data_TbFe6(Sn2Ge)2
_symmetry_space_group_name_H-M   'P 1'
_cell_length_a   5.30236630
_cell_length_b   5.30236630
_cell_length_c   8.73625700
_cell_angle_alpha   90.00000000
_cell_angle_beta   90.00000000
_cell_angle_gamma   120.00000372
_symmetry_Int_Tables_number   1
_chemical_formula_structural   TbFe6(Sn2Ge)2
_chemical_formula_sum   'Tb1 Fe6 Sn4 Ge2'
_cell_volume   212.71370376
_cell_formula_units_Z   1
loop_
 _symmetry_equiv_pos_site_id
 _symmetry_equiv_pos_as_xyz
  1  'x, y, z'
loop_
 _atom_site_type_symbol
 _atom_site_label
 _atom_site_symmetry_multiplicity
 _atom_site_fract_x
 _atom_site_fract_y
 _atom_site_fract_z
 _atom_site_occupancy
  Tb  Tb0  1  0.00000000  0.00000000  0.00000000  1
  Fe  Fe0  1  0.50000000  0.50000000  0.76837600  1
  Fe  Fe1  1  0.50000000  0.50000000  0.23162400  1
  Fe  Fe2  1  0.00000000  0.50000000  0.76837600  1
  Fe  Fe3  1  0.00000000  0.50000000  0.23162400  1
  Fe  Fe4  1  0.50000000  0.00000000  0.76837600  1
  Fe  Fe5  1  0.50000000  0.00000000  0.23162400  1
  Sn  Sn0  1  0.66666700  0.33333300  0.50000000  1
  Sn  Sn1  1  0.33333300  0.66666700  0.50000000  1
  Sn  Sn2  1  0.00000000  0.00000000  0.66301100  1
  Sn  Sn3  1  0.00000000  0.00000000  0.33698900  1
  Ge  Ge0  1  0.66666700  0.33333300  0.00000000  1
  Ge  Ge1  1  0.33333300  0.66666700  0.00000000  1
loop_
_geom_bond_atom_site_label_1
_geom_bond_atom_site_label_2
_geom_bond_distance
_geom_bond_site_symmetry_2
Fe0 Ge0 2.537241 1_556
Fe0 Ge1 2.537241 1_556
Fe0 Fe4 2.651183 1_555
Fe0 Fe4 2.651183 1_565
Fe0 Fe2 2.651183 1_655
Fe0 Fe2 2.651183 1_555
Fe0 Sn0 2.800016 1_555
Fe0 Sn1 2.800016 1_555
Fe0 Sn2 2.806436 1_665
Fe0 Sn2 2.806436 1_555
Fe0 Tb0 3.335181 1_556
Fe0 Tb0 3.335181 1_666
Fe1 Ge0 2.537241 1_555
Fe1 Ge1 2.537241 1_555
Fe1 Fe5 2.651183 1_555
Fe1 Fe3 2.651183 1_555
Fe1 Fe5 2.651183 1_565
Fe1 Fe3 2.651183 1_655
Fe1 Sn0 2.800016 1_555
Fe1 Sn1 2.800016 1_555
Fe1 Sn3 2.806436 1_555
Fe1 Sn3 2.806436 1_665
Fe1 Tb0 3.335181 1_555
Fe1 Tb0 3.335181 1_665
Fe2 Ge1 2.537239 1_556
Fe2 Ge0 2.537239 1_456
Fe2 Fe4 2.651183 1_455
Fe2 Fe4 2.651183 1_565
Fe2 Sn1 2.800014 1_555
Fe2 Sn0 2.800014 1_455
Fe2 Sn2 2.806436 1_555
Fe2 Sn2 2.806436 1_565
Fe2 Tb0 3.335181 1_566
Fe2 Tb0 3.335181 1_556
Fe3 Ge0 2.537239 1_455
Fe3 Ge1 2.537239 1_555
Fe3 Fe5 2.651183 1_565
Fe3 Fe5 2.651183 1_455
Fe3 Sn0 2.800014 1_455
Fe3 Sn1 2.800014 1_555
Fe3 Sn3 2.806436 1_565
Fe3 Sn3 2.806436 1_555
Fe3 Tb0 3.335181 1_555
Fe3 Tb0 3.335181 1_565
Fe4 Ge0 2.537239 1_556
Fe4 Ge1 2.537239 1_546
Fe4 Sn1 2.800014 1_545
Fe4 Sn0 2.800014 1_555
Fe4 Sn2 2.806436 1_555
Fe4 Sn2 2.806436 1_655
Fe4 Tb0 3.335181 1_656
Fe4 Tb0 3.335181 1_556
Fe5 Ge1 2.537239 1_545
Fe5 Ge0 2.537239 1_555
Fe5 Sn1 2.800014 1_545
Fe5 Sn0 2.800014 1_555
Fe5 Sn3 2.806436 1_555
Fe5 Sn3 2.806436 1_655
Fe5 Tb0 3.335181 1_655
Fe5 Tb0 3.335181 1_555
Sn2 Sn3 2.848212 1_555
Sn2 Tb0 2.944023 1_556
Sn3 Tb0 2.944023 1_555
Ge0 Tb0 3.061320 1_655
Ge0 Tb0 3.061324 1_665
Ge0 Tb0 3.061324 1_555
Ge1 Tb0 3.061320 1_565
Ge1 Tb0 3.061324 1_665
Ge1 Tb0 3.061324 1_555
