# generated using pymatgen
data_Ca3(FeN2)2
_symmetry_space_group_name_H-M   'P 1'
_cell_length_a   6.38716077
_cell_length_b   6.38716077
_cell_length_c   6.38716077
_cell_angle_alpha   135.30107757
_cell_angle_beta   124.77236948
_cell_angle_gamma   73.67232925
_symmetry_Int_Tables_number   1
_chemical_formula_structural   Ca3(FeN2)2
_chemical_formula_sum   'Ca3 Fe2 N4'
_cell_volume   147.02751338
_cell_formula_units_Z   1
loop_
 _symmetry_equiv_pos_site_id
 _symmetry_equiv_pos_as_xyz
  1  'x, y, z'
loop_
 _atom_site_type_symbol
 _atom_site_label
 _atom_site_symmetry_multiplicity
 _atom_site_fract_x
 _atom_site_fract_y
 _atom_site_fract_z
 _atom_site_occupancy
  Ca  Ca0  1  0.83717300  0.80864300  0.02853000  1
  Ca  Ca1  1  0.21988600  0.19135700  0.02853000  1
  Ca  Ca2  1  0.80521400  0.50000000  0.30521400  1
  Fe  Fe0  1  0.61792000  0.11425600  0.50366300  1
  Fe  Fe1  1  0.38940700  0.88574400  0.50366300  1
  N  N0  1  0.73527900  0.27987000  0.45540900  1
  N  N1  1  0.17553900  0.72013000  0.45540900  1
  N  N2  1  0.28314900  0.00000000  0.28314900  1
  N  N3  1  0.73894000  0.00000000  0.73894000  1
loop_
_geom_bond_atom_site_label_1
_geom_bond_atom_site_label_2
_geom_bond_distance
_geom_bond_site_symmetry_2
Ca0 N2 2.469915 1_665
Ca0 N0 2.484512 1_565
Ca0 N0 2.484512 1_554
Ca0 N3 2.601480 1_564
Ca0 N1 2.684679 1_655
Ca1 N2 2.469913 1_555
Ca1 N1 2.484510 1_555
Ca1 N1 2.484515 1_544
Ca1 N3 2.601474 1_454
Ca1 N0 2.684683 1_555
Ca2 N0 2.419934 1_555
Ca2 N1 2.419934 1_655
Ca2 N3 2.460244 1_565
Ca2 N3 2.460244 1_554
Fe0 N0 1.717164 1_555
Fe0 N2 1.751960 1_555
Fe0 N3 1.818035 1_555
Fe1 N1 1.717168 1_555
Fe1 N2 1.751954 1_565
Fe1 N3 1.818034 1_565
