# generated using pymatgen
data_Pt(N2O3)2
_symmetry_space_group_name_H-M   'P 1'
_cell_length_a   9.59164500
_cell_length_b   10.03462100
_cell_length_c   13.65171000
_cell_angle_alpha   90.00000000
_cell_angle_beta   90.00000000
_cell_angle_gamma   90.00000000
_symmetry_Int_Tables_number   1
_chemical_formula_structural   Pt(N2O3)2
_chemical_formula_sum   'Pt8 N32 O48'
_cell_volume   1313.95691494
_cell_formula_units_Z   8
loop_
 _symmetry_equiv_pos_site_id
 _symmetry_equiv_pos_as_xyz
  1  'x, y, z'
loop_
 _atom_site_type_symbol
 _atom_site_label
 _atom_site_symmetry_multiplicity
 _atom_site_fract_x
 _atom_site_fract_y
 _atom_site_fract_z
 _atom_site_occupancy
  Pt  Pt0  1  0.61746200  0.11520500  0.41351000  1
  Pt  Pt1  1  0.11746200  0.38479500  0.58649000  1
  Pt  Pt2  1  0.38253800  0.61520500  0.08649000  1
  Pt  Pt3  1  0.88253800  0.88479500  0.91351000  1
  Pt  Pt4  1  0.38253800  0.88479500  0.58649000  1
  Pt  Pt5  1  0.88253800  0.61520500  0.41351000  1
  Pt  Pt6  1  0.61746200  0.38479500  0.91351000  1
  Pt  Pt7  1  0.11746200  0.11520500  0.08649000  1
  N  N0  1  0.54669400  0.19395500  0.52043400  1
  N  N1  1  0.04669400  0.30604500  0.47956600  1
  N  N2  1  0.45330600  0.69395500  0.97956600  1
  N  N3  1  0.95330600  0.80604500  0.02043400  1
  N  N4  1  0.45330600  0.80604500  0.47956600  1
  N  N5  1  0.95330600  0.69395500  0.52043400  1
  N  N6  1  0.54669400  0.30604500  0.02043400  1
  N  N7  1  0.04669400  0.19395500  0.97956600  1
  N  N8  1  0.51030800  0.13333000  0.30977700  1
  N  N9  1  0.01030800  0.36667000  0.69022200  1
  N  N10  1  0.48969200  0.63333000  0.19022300  1
  N  N11  1  0.98969200  0.86667000  0.80977800  1
  N  N12  1  0.48969200  0.86667000  0.69022200  1
  N  N13  1  0.98969200  0.63333000  0.30977700  1
  N  N14  1  0.51030800  0.36667000  0.80977800  1
  N  N15  1  0.01030800  0.13333000  0.19022300  1
  N  N16  1  0.74791600  0.91638000  0.28314200  1
  N  N17  1  0.24791600  0.58362000  0.71685800  1
  N  N18  1  0.25208400  0.41638000  0.21685800  1
  N  N19  1  0.75208400  0.08362000  0.78314200  1
  N  N20  1  0.25208400  0.08362000  0.71685800  1
  N  N21  1  0.75208400  0.41638000  0.28314200  1
  N  N22  1  0.74791600  0.58362000  0.78314200  1
  N  N23  1  0.24791600  0.91638000  0.21685800  1
  N  N24  1  0.82927600  0.00884900  0.55400500  1
  N  N25  1  0.32927600  0.49115100  0.44599500  1
  N  N26  1  0.17072400  0.50884900  0.94599500  1
  N  N27  1  0.67072400  0.99115100  0.05400500  1
  N  N28  1  0.17072400  0.99115100  0.44599500  1
  N  N29  1  0.67072400  0.50884900  0.55400500  1
  N  N30  1  0.82927600  0.49115100  0.05400500  1
  N  N31  1  0.32927600  0.00884900  0.94599500  1
  O  O0  1  0.76661800  0.04427300  0.31023200  1
  O  O1  1  0.26661800  0.45572700  0.68976800  1
  O  O2  1  0.23338200  0.54427300  0.18976800  1
  O  O3  1  0.73338200  0.95572700  0.81023200  1
  O  O4  1  0.23338200  0.95572700  0.68976800  1
  O  O5  1  0.73338200  0.54427300  0.31023200  1
  O  O6  1  0.76661800  0.45572700  0.81023200  1
  O  O7  1  0.26661800  0.04427300  0.18976800  1
  O  O8  1  0.65116800  0.85144500  0.31945600  1
  O  O9  1  0.15116800  0.64855500  0.68054400  1
  O  O10  1  0.34883200  0.35144500  0.18054400  1
  O  O11  1  0.84883200  0.14855500  0.81945600  1
  O  O12  1  0.34883200  0.14855500  0.68054400  1
  O  O13  1  0.84883200  0.35144500  0.31945600  1
  O  O14  1  0.65116800  0.64855500  0.81945600  1
  O  O15  1  0.15116800  0.85144500  0.18054400  1
  O  O16  1  0.83388900  0.87460800  0.22299600  1
  O  O17  1  0.33388900  0.62539200  0.77700400  1
  O  O18  1  0.16611100  0.37460800  0.27700400  1
  O  O19  1  0.66611100  0.12539200  0.72299600  1
  O  O20  1  0.16611100  0.12539200  0.77700400  1
  O  O21  1  0.66611100  0.37460800  0.22299600  1
  O  O22  1  0.83388900  0.62539200  0.72299600  1
  O  O23  1  0.33388900  0.87460800  0.27700400  1
  O  O24  1  0.80408500  0.12063500  0.50313400  1
  O  O25  1  0.30408500  0.37936500  0.49686600  1
  O  O26  1  0.19591500  0.62063500  0.99686600  1
  O  O27  1  0.69591500  0.87936500  0.00313400  1
  O  O28  1  0.19591500  0.87936500  0.49686600  1
  O  O29  1  0.69591500  0.62063500  0.50313400  1
  O  O30  1  0.80408500  0.37936500  0.00313400  1
  O  O31  1  0.30408500  0.12063500  0.99686600  1
  O  O32  1  0.93306600  0.01062500  0.60684900  1
  O  O33  1  0.43306600  0.48937500  0.39315100  1
  O  O34  1  0.06693400  0.51062500  0.89315100  1
  O  O35  1  0.56693400  0.98937500  0.10684900  1
  O  O36  1  0.06693400  0.98937500  0.39315100  1
  O  O37  1  0.56693400  0.51062500  0.60684900  1
  O  O38  1  0.93306600  0.48937500  0.10684900  1
  O  O39  1  0.43306600  0.01062500  0.89315100  1
  O  O40  1  0.74739100  0.91319300  0.54417200  1
  O  O41  1  0.24739100  0.58680700  0.45582800  1
  O  O42  1  0.25260900  0.41319300  0.95582800  1
  O  O43  1  0.75260900  0.08680700  0.04417200  1
  O  O44  1  0.25260900  0.08680700  0.45582800  1
  O  O45  1  0.75260900  0.41319300  0.54417200  1
  O  O46  1  0.74739100  0.58680700  0.04417200  1
  O  O47  1  0.24739100  0.91319300  0.95582800  1
loop_
_geom_bond_atom_site_label_1
_geom_bond_atom_site_label_2
_geom_bond_distance
_geom_bond_site_symmetry_2
N0 Pt0 1.793297 1_555
N1 Pt1 1.793297 1_555
N2 Pt2 1.793297 1_556
N3 Pt3 1.793297 1_554
N4 Pt4 1.793297 1_555
N5 Pt5 1.793297 1_555
N6 Pt6 1.793297 1_554
N7 Pt7 1.793297 1_556
N8 Pt0 1.759219 1_555
N9 Pt1 1.759208 1_555
N10 Pt2 1.759219 1_555
N11 Pt3 1.759208 1_555
N12 Pt4 1.759208 1_555
N13 Pt5 1.759219 1_555
N14 Pt6 1.759208 1_555
N15 Pt7 1.759219 1_555
N16 O16 1.236892 1_555
N16 O8 1.237530 1_555
N16 O0 1.347574 1_565
N17 O17 1.236892 1_555
N17 O9 1.237530 1_555
N17 O1 1.347574 1_555
N18 O18 1.236892 1_555
N18 O10 1.237530 1_555
N18 O2 1.347574 1_555
N19 O19 1.236892 1_555
N19 O11 1.237530 1_555
N19 O3 1.347574 1_545
N20 O20 1.236892 1_555
N20 O12 1.237530 1_555
N20 O4 1.347574 1_545
N21 O21 1.236892 1_555
N21 O13 1.237530 1_555
N21 O5 1.347574 1_555
N22 O22 1.236892 1_555
N22 O14 1.237530 1_555
N22 O6 1.347574 1_555
N23 O23 1.236892 1_555
N23 O15 1.237530 1_555
N23 O7 1.347574 1_565
N24 O32 1.229555 1_555
N24 O40 1.247496 1_545
N24 O24 1.341252 1_555
N25 O33 1.229555 1_555
N25 O41 1.247496 1_555
N25 O25 1.341252 1_555
N26 O34 1.229555 1_555
N26 O42 1.247496 1_555
N26 O26 1.341252 1_555
N27 O35 1.229555 1_555
N27 O43 1.247496 1_565
N27 O27 1.341252 1_555
N28 O36 1.229555 1_555
N28 O44 1.247496 1_565
N28 O28 1.341252 1_555
N29 O37 1.229555 1_555
N29 O45 1.247496 1_555
N29 O29 1.341252 1_555
N30 O38 1.229555 1_555
N30 O46 1.247496 1_555
N30 O30 1.341252 1_555
N31 O39 1.229555 1_555
N31 O47 1.247496 1_545
N31 O31 1.341252 1_555
O0 Pt0 2.131025 1_555
O1 Pt1 2.131025 1_555
O2 Pt2 2.131025 1_555
O3 Pt3 2.131025 1_555
O4 Pt4 2.131025 1_555
O5 Pt5 2.131025 1_555
O6 Pt6 2.131025 1_555
O7 Pt7 2.131025 1_555
O24 Pt0 2.168905 1_555
O25 Pt1 2.168905 1_555
O26 Pt2 2.168905 1_556
O27 Pt3 2.168905 1_554
O28 Pt4 2.168905 1_555
O29 Pt5 2.168905 1_555
O30 Pt6 2.168905 1_554
O31 Pt7 2.168905 1_556
