# generated using pymatgen
data_Li9Mn2Co5O16
_symmetry_space_group_name_H-M   'P 1'
_cell_length_a   5.11646400
_cell_length_b   5.87983902
_cell_length_c   10.12049802
_cell_angle_alpha   105.78506483
_cell_angle_beta   100.33700403
_cell_angle_gamma   90.48542543
_symmetry_Int_Tables_number   1
_chemical_formula_structural   Li9Mn2Co5O16
_chemical_formula_sum   'Li9 Mn2 Co5 O16'
_cell_volume   287.69972706
_cell_formula_units_Z   1
loop_
 _symmetry_equiv_pos_site_id
 _symmetry_equiv_pos_as_xyz
  1  'x, y, z'
loop_
 _atom_site_type_symbol
 _atom_site_label
 _atom_site_symmetry_multiplicity
 _atom_site_fract_x
 _atom_site_fract_y
 _atom_site_fract_z
 _atom_site_occupancy
  Li  Li0  1  0.50174500  0.74577100  0.99436200  1
  Li  Li1  1  0.25555000  0.38808900  0.75259500  1
  Li  Li2  1  0.50414200  0.24777100  0.99768900  1
  Li  Li3  1  0.24332400  0.86331000  0.74798700  1
  Li  Li4  1  0.75220200  0.12231400  0.24880000  1
  Li  Li5  1  0.74882100  0.62830400  0.25130100  1
  Li  Li6  1  0.99595000  0.50717500  0.50664800  1
  Li  Li7  1  0.99669300  0.99916900  0.50138500  1
  Li  Li8  1  0.74983800  0.62749500  0.75079200  1
  Mn  Mn0  1  0.00373000  0.99677800  0.99702700  1
  Mn  Mn1  1  0.50012100  0.74875100  0.50353100  1
  Co  Co0  1  0.50772800  0.26053800  0.50795400  1
  Co  Co1  1  0.25229000  0.87559700  0.25083100  1
  Co  Co2  1  0.98329200  0.49729900  0.98966500  1
  Co  Co3  1  0.74989600  0.11808400  0.74871600  1
  Co  Co4  1  0.24861700  0.37668300  0.24865700  1
  O  O0  1  0.35173100  0.06037500  0.12548200  1
  O  O1  1  0.12232700  0.70767700  0.88734900  1
  O  O2  1  0.35294300  0.55657100  0.12934700  1
  O  O3  1  0.11590800  0.18045100  0.88169500  1
  O  O4  1  0.61244000  0.45797000  0.38483000  1
  O  O5  1  0.60187100  0.93145400  0.37867800  1
  O  O6  1  0.84220800  0.81435900  0.61762900  1
  O  O7  1  0.85130800  0.29671500  0.62472800  1
  O  O8  1  0.64494200  0.43371600  0.87867800  1
  O  O9  1  0.38567400  0.04318400  0.61777600  1
  O  O10  1  0.66065700  0.95179000  0.87852600  1
  O  O11  1  0.37868100  0.56689400  0.61386100  1
  O  O12  1  0.89568100  0.81935000  0.11921000  1
  O  O13  1  0.89209100  0.29225400  0.11795900  1
  O  O14  1  0.14970200  0.19302300  0.37222500  1
  O  O15  1  0.14789600  0.69109100  0.37408800  1
loop_
_geom_bond_atom_site_label_1
_geom_bond_atom_site_label_2
_geom_bond_distance
_geom_bond_site_symmetry_2
Li0 O1 2.024305 1_555
Li0 O8 2.106184 1_555
Li0 O10 2.144947 1_555
Li0 O12 2.149421 1_556
Li0 O0 2.196807 1_566
Li0 O2 2.206634 1_556
Li1 O8 2.135851 1_555
Li1 O11 2.140777 1_555
Li1 O1 2.194691 1_555
Li1 O7 2.209860 1_455
Li1 O3 2.212733 1_555
Li1 O9 2.293711 1_555
Li2 O8 2.044390 1_555
Li2 O10 2.086322 1_545
Li2 O3 2.092251 1_555
Li2 O13 2.107331 1_556
Li2 O0 2.148858 1_556
Li2 O2 2.179012 1_556
Li3 O1 2.053259 1_555
Li3 O11 2.104881 1_555
Li3 O9 2.115494 1_565
Li3 O3 2.167421 1_565
Li3 O6 2.201590 1_455
Li3 O10 2.273821 1_555
Li4 O13 2.076545 1_555
Li4 O12 2.128118 1_545
Li4 O14 2.158911 1_655
Li4 O0 2.170475 1_555
Li4 O5 2.174733 1_545
Li4 O4 2.280508 1_555
Li5 O4 2.092640 1_555
Li5 O5 2.127142 1_555
Li5 O2 2.146859 1_555
Li5 O15 2.162572 1_655
Li5 O12 2.185578 1_555
Li5 O13 2.278496 1_555
Li6 O11 2.038093 1_655
Li6 O6 2.092858 1_555
Li6 O4 2.093344 1_555
Li6 O7 2.147915 1_555
Li6 O15 2.173243 1_655
Li6 O14 2.218812 1_655
Li7 O6 2.050434 1_555
Li7 O7 2.083145 1_565
Li7 O9 2.097505 1_665
Li7 O5 2.144428 1_555
Li7 O15 2.156695 1_655
Li7 O14 2.187124 1_665
Li8 O6 2.066925 1_555
Li8 O8 2.074276 1_555
Li8 O10 2.097757 1_555
Li8 O11 2.104547 1_555
Li8 O1 2.109380 1_655
Li8 O7 2.141222 1_555
Mn0 O10 1.911406 1_455
Mn0 O1 1.929374 1_555
Mn0 O3 1.942649 1_565
Mn0 O12 1.964805 1_456
Mn0 O0 1.973256 1_566
Mn0 O13 1.988320 1_466
Mn1 O6 1.888535 1_555
Mn1 O11 1.914039 1_555
Mn1 O4 1.960504 1_555
Mn1 O9 1.961623 1_565
Mn1 O15 1.994894 1_555
Mn1 O5 1.996697 1_555
Co0 O7 1.908798 1_555
Co0 O11 2.013267 1_555
Co0 O14 2.046473 1_555
Co0 O4 2.050219 1_555
Co0 O9 2.065668 1_555
Co0 O5 2.133650 1_545
Co1 O5 1.977235 1_555
Co1 O15 1.995958 1_555
Co1 O0 2.005177 1_565
Co1 O12 2.022555 1_455
Co1 O14 2.066126 1_565
Co1 O2 2.069874 1_555
Co2 O8 1.860396 1_555
Co2 O1 2.013639 1_655
Co2 O3 2.074892 1_655
Co2 O12 2.092883 1_556
Co2 O13 2.101593 1_556
Co2 O2 2.111443 1_656
Co3 O10 1.948595 1_545
Co3 O7 1.971916 1_555
Co3 O6 2.030408 1_545
Co3 O9 2.050639 1_555
Co3 O3 2.065923 1_655
Co3 O8 2.098781 1_555
Co4 O2 1.943776 1_555
Co4 O14 1.984650 1_555
Co4 O13 2.021157 1_455
Co4 O15 2.066090 1_555
Co4 O0 2.069446 1_555
Co4 O4 2.073342 1_555
