# generated using pymatgen
data_Ho(Al5Re)2
_symmetry_space_group_name_H-M   'P 1'
_cell_length_a   6.96761482
_cell_length_b   6.96761482
_cell_length_c   27.00917000
_cell_angle_alpha   90.00000000
_cell_angle_beta   90.00000000
_cell_angle_gamma   96.04432731
_symmetry_Int_Tables_number   1
_chemical_formula_structural   Ho(Al5Re)2
_chemical_formula_sum   'Ho6 Al60 Re12'
_cell_volume   1303.94240639
_cell_formula_units_Z   6
loop_
 _symmetry_equiv_pos_site_id
 _symmetry_equiv_pos_as_xyz
  1  'x, y, z'
loop_
 _atom_site_type_symbol
 _atom_site_label
 _atom_site_symmetry_multiplicity
 _atom_site_fract_x
 _atom_site_fract_y
 _atom_site_fract_z
 _atom_site_occupancy
  Ho  Ho0  1  0.87599900  0.12400100  0.58472000  1
  Ho  Ho1  1  0.12400100  0.87599900  0.41528000  1
  Ho  Ho2  1  0.12400100  0.87599900  0.08472000  1
  Ho  Ho3  1  0.87599900  0.12400100  0.91528000  1
  Ho  Ho4  1  0.61709200  0.38290800  0.75000000  1
  Ho  Ho5  1  0.38290800  0.61709200  0.25000000  1
  Al  Al0  1  0.59735600  0.40264400  0.63399600  1
  Al  Al1  1  0.40264400  0.59735600  0.36600400  1
  Al  Al2  1  0.40264400  0.59735600  0.13399600  1
  Al  Al3  1  0.59735600  0.40264400  0.86600400  1
  Al  Al4  1  0.18153700  0.40343000  0.75000000  1
  Al  Al5  1  0.81846300  0.59657000  0.25000000  1
  Al  Al6  1  0.59657000  0.81846300  0.75000000  1
  Al  Al7  1  0.40343000  0.18153700  0.25000000  1
  Al  Al8  1  0.87537100  0.12462900  0.14599500  1
  Al  Al9  1  0.12462900  0.87537100  0.85400500  1
  Al  Al10  1  0.12462900  0.87537100  0.64599500  1
  Al  Al11  1  0.87537100  0.12462900  0.35400500  1
  Al  Al12  1  0.37012400  0.62987600  0.67742000  1
  Al  Al13  1  0.62987600  0.37012400  0.32258000  1
  Al  Al14  1  0.62987600  0.37012400  0.17742000  1
  Al  Al15  1  0.37012400  0.62987600  0.82258000  1
  Al  Al16  1  0.22720900  0.47114000  0.58066900  1
  Al  Al17  1  0.77279100  0.52886000  0.41933100  1
  Al  Al18  1  0.77279100  0.52886000  0.08066900  1
  Al  Al19  1  0.52886000  0.77279100  0.91933100  1
  Al  Al20  1  0.22720900  0.47114000  0.91933100  1
  Al  Al21  1  0.47114000  0.22720900  0.08066900  1
  Al  Al22  1  0.47114000  0.22720900  0.41933100  1
  Al  Al23  1  0.52886000  0.77279100  0.58066900  1
  Al  Al24  1  0.96144400  0.73939400  0.75000000  1
  Al  Al25  1  0.03855700  0.26060600  0.25000000  1
  Al  Al26  1  0.26060600  0.03855700  0.75000000  1
  Al  Al27  1  0.73939400  0.96144300  0.25000000  1
  Al  Al28  1  0.62271000  0.37729000  0.52196000  1
  Al  Al29  1  0.37729000  0.62271000  0.47804000  1
  Al  Al30  1  0.37729000  0.62271000  0.02196000  1
  Al  Al31  1  0.62271000  0.37729000  0.97804000  1
  Al  Al32  1  0.96850300  0.47421200  0.67143800  1
  Al  Al33  1  0.03149700  0.52578800  0.32856200  1
  Al  Al34  1  0.03149700  0.52578800  0.17143800  1
  Al  Al35  1  0.52578800  0.03149700  0.82856200  1
  Al  Al36  1  0.96850300  0.47421200  0.82856200  1
  Al  Al37  1  0.47421200  0.96850300  0.17143800  1
  Al  Al38  1  0.47421200  0.96850300  0.32856200  1
  Al  Al39  1  0.52578800  0.03149700  0.67143800  1
  Al  Al40  1  0.90645100  0.09354900  0.69968400  1
  Al  Al41  1  0.09354900  0.90645100  0.30031600  1
  Al  Al42  1  0.09354900  0.90645100  0.19968400  1
  Al  Al43  1  0.90645100  0.09354900  0.80031600  1
  Al  Al44  1  0.87595900  0.61973300  0.58299800  1
  Al  Al45  1  0.12404100  0.38026700  0.41700200  1
  Al  Al46  1  0.12404100  0.38026700  0.08299800  1
  Al  Al47  1  0.38026700  0.12404100  0.91700200  1
  Al  Al48  1  0.87595900  0.61973300  0.91700200  1
  Al  Al49  1  0.61973300  0.87595900  0.08299800  1
  Al  Al50  1  0.61973300  0.87595900  0.41700200  1
  Al  Al51  1  0.38026700  0.12404100  0.58299800  1
  Al  Al52  1  0.20619000  0.20619000  0.50000000  1
  Al  Al53  1  0.79381000  0.79381000  0.50000000  1
  Al  Al54  1  0.79381000  0.79381000  0.00000000  1
  Al  Al55  1  0.20619000  0.20619000  0.00000000  1
  Al  Al56  1  0.83518800  0.16481200  0.03400400  1
  Al  Al57  1  0.16481200  0.83518800  0.96599600  1
  Al  Al58  1  0.16481200  0.83518800  0.53400400  1
  Al  Al59  1  0.83518800  0.16481200  0.46599600  1
  Re  Re0  1  0.24887300  0.25537000  0.66319100  1
  Re  Re1  1  0.75112700  0.74463000  0.33680900  1
  Re  Re2  1  0.75112700  0.74463000  0.16319100  1
  Re  Re3  1  0.74463000  0.75112700  0.83680900  1
  Re  Re4  1  0.24887300  0.25537000  0.83680900  1
  Re  Re5  1  0.25537000  0.24887300  0.16319100  1
  Re  Re6  1  0.25537000  0.24887300  0.33680900  1
  Re  Re7  1  0.74463000  0.75112700  0.66319100  1
  Re  Re8  1  0.00000000  0.50000000  0.50000000  1
  Re  Re9  1  0.00000000  0.50000000  0.00000000  1
  Re  Re10  1  0.50000000  0.00000000  0.00000000  1
  Re  Re11  1  0.50000000  0.00000000  0.50000000  1
loop_
_geom_bond_atom_site_label_1
_geom_bond_atom_site_label_2
_geom_bond_distance
_geom_bond_site_symmetry_2
Ho0 Re7 3.402771 1_545
Ho0 Re0 3.402771 1_655
Ho0 Re8 3.516983 1_655
Ho0 Re11 3.516983 1_555
Ho1 Re1 3.402771 1_455
Ho1 Re6 3.402771 1_565
Ho1 Re8 3.516983 1_555
Ho1 Re11 3.516983 1_565
Ho2 Re2 3.402771 1_455
Ho2 Re5 3.402771 1_565
Ho2 Re9 3.516983 1_555
Ho2 Re10 3.516983 1_565
Ho3 Re3 3.402771 1_545
Ho3 Re4 3.402771 1_655
Ho3 Re9 3.516983 1_656
Ho3 Re10 3.516983 1_556
Al0 Al12 2.630006 1_555
Al0 Re7 2.654373 1_555
Al0 Re0 2.654373 1_555
Al0 Al51 2.708338 1_555
Al0 Al44 2.708338 1_555
Al0 Al39 2.772583 1_555
Al0 Al32 2.772583 1_555
Al0 Al23 3.035285 1_555
Al0 Al16 3.035285 1_555
Al0 Al28 3.037377 1_555
Al0 Ho4 3.139836 1_555
Al0 Ho0 3.178644 1_555
Al1 Al13 2.630006 1_555
Al1 Re1 2.654373 1_555
Al1 Re6 2.654373 1_555
Al1 Al50 2.708338 1_555
Al1 Al45 2.708338 1_555
Al1 Al33 2.772583 1_555
Al1 Al38 2.772583 1_555
Al1 Al17 3.035285 1_555
Al1 Al22 3.035285 1_555
Al1 Al29 3.037377 1_555
Al1 Ho5 3.139836 1_555
Al1 Ho1 3.178644 1_555
Al2 Re2 2.654373 1_555
Al2 Re5 2.654373 1_555
Al2 Al46 2.708338 1_555
Al2 Al49 2.708338 1_555
Al2 Al34 2.772583 1_555
Al2 Al37 2.772583 1_555
Al2 Al21 3.035285 1_555
Al2 Al30 3.037377 1_555
Al2 Ho5 3.139836 1_555
Al2 Ho2 3.178644 1_555
Al3 Re3 2.654373 1_555
Al3 Re4 2.654373 1_555
Al3 Al47 2.708338 1_555
Al3 Al48 2.708338 1_555
Al3 Al36 2.772583 1_555
Al3 Al35 2.772583 1_555
Al3 Al31 3.037377 1_555
Al3 Ho4 3.139836 1_555
Al3 Ho3 3.178644 1_555
Al4 Re0 2.623668 1_555
Al4 Re4 2.623668 1_555
Al4 Al43 3.051376 1_455
Al4 Al40 3.051376 1_455
Al4 Ho4 3.053149 1_555
Al5 Re2 2.623668 1_555
Al5 Re1 2.623668 1_555
Al5 Ho5 3.053149 1_555
Al6 Re3 2.623668 1_555
Al6 Re7 2.623668 1_555
Al6 Ho4 3.053149 1_555
Al7 Re5 2.623668 1_555
Al7 Re6 2.623668 1_555
Al7 Ho5 3.053149 1_555
Al8 Re2 2.737274 1_545
Al8 Re5 2.737274 1_655
Al8 Ho2 3.061555 1_645
Al9 Re3 2.737274 1_455
Al9 Re4 2.737274 1_565
Al9 Ho3 3.061555 1_465
Al10 Al12 2.681099 1_555
Al10 Al40 2.685395 1_465
Al10 Re7 2.737274 1_455
Al10 Re0 2.737274 1_565
Al10 Al44 2.901692 1_455
Al10 Al51 2.901692 1_565
Al10 Al39 2.971189 1_565
Al10 Al32 2.971189 1_455
Al10 Al58 3.053294 1_555
Al10 Ho0 3.061555 1_465
Al10 Al24 3.139195 1_455
Al10 Al26 3.139197 1_565
Al11 Al13 2.681099 1_555
Al11 Al41 2.685395 1_645
Al11 Re1 2.737274 1_545
Al11 Re6 2.737274 1_655
Al11 Al50 2.901692 1_545
Al11 Al45 2.901692 1_655
Al11 Al38 2.971189 1_545
Al11 Al33 2.971189 1_655
Al11 Al59 3.053294 1_555
Al11 Ho1 3.061555 1_645
Al11 Al27 3.139197 1_545
Al11 Al25 3.139197 1_655
Al12 Re7 2.684439 1_555
Al12 Re0 2.684439 1_555
Al12 Al4 2.760848 1_555
Al12 Al6 2.760848 1_555
Al12 Al39 2.897241 1_565
Al12 Al32 2.897241 1_455
Al12 Al23 2.968421 1_555
Al12 Al16 2.968421 1_555
Al12 Ho4 3.223138 1_555
Al13 Re6 2.684439 1_555
Al13 Re1 2.684439 1_555
Al13 Al7 2.760848 1_555
Al13 Al5 2.760848 1_555
Al13 Al38 2.897241 1_545
Al13 Al33 2.897241 1_655
Al13 Al22 2.968421 1_555
Al13 Al17 2.968421 1_555
Al13 Ho5 3.223138 1_555
Al14 Al2 2.630006 1_555
Al14 Al8 2.681099 1_555
Al14 Re5 2.684439 1_555
Al14 Re2 2.684439 1_555
Al14 Al7 2.760848 1_555
Al14 Al5 2.760848 1_555
Al14 Al37 2.897241 1_545
Al14 Al34 2.897241 1_655
Al14 Al18 2.968421 1_555
Al14 Al21 2.968421 1_555
Al14 Ho5 3.223138 1_555
Al15 Al3 2.630006 1_555
Al15 Al9 2.681099 1_555
Al15 Re4 2.684439 1_555
Al15 Re3 2.684439 1_555
Al15 Al4 2.760848 1_555
Al15 Al6 2.760848 1_555
Al15 Al35 2.897241 1_565
Al15 Al36 2.897241 1_455
Al15 Al19 2.968421 1_555
Al15 Al20 2.968421 1_555
Al15 Ho4 3.223138 1_555
Al16 Re0 2.701587 1_555
Al16 Re8 2.713094 1_555
Al16 Al58 2.905837 1_555
Al16 Al29 3.108022 1_555
Al16 Ho0 3.256382 1_455
Al17 Re1 2.701587 1_555
Al17 Re8 2.713094 1_655
Al17 Al59 2.905837 1_555
Al17 Al28 3.108022 1_555
Al17 Ho1 3.256382 1_655
Al18 Re2 2.701587 1_555
Al18 Re9 2.713094 1_655
Al18 Al56 2.905837 1_555
Al18 Al2 3.035285 1_555
Al18 Al31 3.108022 1_554
Al18 Ho2 3.256382 1_655
Al19 Re3 2.701587 1_555
Al19 Re10 2.713094 1_566
Al19 Al57 2.905837 1_555
Al19 Al3 3.035285 1_555
Al19 Al30 3.108022 1_556
Al19 Ho3 3.256382 1_565
Al20 Re4 2.701587 1_555
Al20 Re9 2.713094 1_556
Al20 Al57 2.905837 1_555
Al20 Al3 3.035285 1_555
Al20 Al30 3.108022 1_556
Al20 Ho3 3.256382 1_455
Al21 Re5 2.701587 1_555
Al21 Re10 2.713094 1_555
Al21 Al56 2.905837 1_555
Al21 Al31 3.108022 1_554
Al21 Ho2 3.256382 1_545
Al22 Re6 2.701587 1_555
Al22 Re11 2.713094 1_555
Al22 Al59 2.905837 1_555
Al22 Al28 3.108022 1_555
Al22 Ho1 3.256382 1_545
Al23 Re7 2.701587 1_555
Al23 Re11 2.713094 1_565
Al23 Al58 2.905837 1_555
Al23 Al29 3.108022 1_555
Al23 Ho0 3.256382 1_565
Al24 Al6 2.657400 1_555
Al24 Al26 2.788339 1_665
Al24 Re3 2.795025 1_555
Al24 Re7 2.795025 1_555
Al24 Al32 2.817434 1_555
Al24 Al36 2.817434 1_555
Al24 Al43 2.877834 1_565
Al24 Al40 2.877834 1_565
Al24 Al4 2.930417 1_655
Al24 Al9 3.139195 1_655
Al24 Ho4 3.266679 1_555
Al25 Al7 2.657393 1_555
Al25 Al27 2.788343 1_445
Al25 Re5 2.795022 1_555
Al25 Re6 2.795022 1_555
Al25 Al34 2.817435 1_555
Al25 Al33 2.817435 1_555
Al25 Al41 2.877833 1_545
Al25 Al42 2.877833 1_545
Al25 Al5 2.930422 1_455
Al25 Al8 3.139197 1_455
Al25 Ho5 3.266674 1_555
Al26 Al4 2.657393 1_555
Al26 Re4 2.795022 1_555
Al26 Re0 2.795022 1_555
Al26 Al35 2.817435 1_555
Al26 Al39 2.817435 1_555
Al26 Al43 2.877833 1_455
Al26 Al40 2.877833 1_455
Al26 Al6 2.930422 1_545
Al26 Al9 3.139197 1_545
Al26 Ho4 3.266674 1_555
Al27 Al5 2.657393 1_555
Al27 Re2 2.795022 1_555
Al27 Re1 2.795022 1_555
Al27 Al37 2.817435 1_555
Al27 Al38 2.817435 1_555
Al27 Al42 2.877833 1_655
Al27 Al41 2.877833 1_655
Al27 Al7 2.930422 1_565
Al27 Al8 3.139197 1_565
Al27 Ho5 3.266674 1_555
Al28 Al59 2.670185 1_555
Al28 Re8 2.742284 1_655
Al28 Re11 2.742284 1_555
Al28 Al29 2.805551 1_555
Al28 Al51 2.838533 1_555
Al28 Al44 2.838533 1_555
Al28 Al52 3.076831 1_555
Al28 Al53 3.076831 1_555
Al28 Ho0 3.123852 1_555
Al29 Al58 2.670185 1_555
Al29 Re8 2.742284 1_555
Al29 Re11 2.742284 1_565
Al29 Al45 2.838533 1_555
Al29 Al50 2.838533 1_555
Al29 Al52 3.076831 1_555
Al29 Al53 3.076831 1_555
Al29 Ho1 3.123852 1_555
Al30 Al57 2.670185 1_554
Al30 Re9 2.742284 1_555
Al30 Re10 2.742284 1_565
Al30 Al31 2.805551 1_554
Al30 Al49 2.838533 1_555
Al30 Al46 2.838533 1_555
Al30 Al54 3.076831 1_555
Al30 Al55 3.076831 1_555
Al30 Ho2 3.123852 1_555
Al31 Al56 2.670185 1_556
Al31 Re10 2.742284 1_556
Al31 Re9 2.742284 1_656
Al31 Al48 2.838533 1_555
Al31 Al47 2.838533 1_555
Al31 Al55 3.076831 1_556
Al31 Al54 3.076831 1_556
Al31 Ho3 3.123852 1_555
Al32 Re0 2.611161 1_655
Al32 Re7 2.615211 1_555
Al32 Al4 2.665163 1_655
Al32 Al40 2.749948 1_555
Al32 Ho4 3.251807 1_555
Al32 Ho0 3.394743 1_555
Al33 Re1 2.611161 1_455
Al33 Re6 2.615211 1_555
Al33 Al5 2.665163 1_455
Al33 Al41 2.749948 1_555
Al33 Ho5 3.251807 1_555
Al33 Ho1 3.394743 1_555
Al34 Re2 2.611161 1_455
Al34 Re5 2.615211 1_555
Al34 Al5 2.665163 1_455
Al34 Al42 2.749948 1_555
Al34 Al8 2.971189 1_455
Al34 Ho5 3.251807 1_555
Al34 Ho2 3.394743 1_555
Al35 Re3 2.611161 1_545
Al35 Re4 2.615211 1_555
Al35 Al6 2.665163 1_545
Al35 Al43 2.749948 1_555
Al35 Al9 2.971189 1_545
Al35 Ho4 3.251807 1_555
Al35 Ho3 3.394743 1_555
Al36 Re4 2.611161 1_655
Al36 Re3 2.615211 1_555
Al36 Al4 2.665163 1_655
Al36 Al43 2.749948 1_555
Al36 Al9 2.971189 1_655
Al36 Ho4 3.251807 1_555
Al36 Ho3 3.394743 1_555
Al37 Re5 2.611161 1_565
Al37 Re2 2.615211 1_555
Al37 Al7 2.665163 1_565
Al37 Al42 2.749948 1_555
Al37 Al8 2.971189 1_565
Al37 Ho5 3.251807 1_555
Al37 Ho2 3.394743 1_555
Al38 Re6 2.611161 1_565
Al38 Re1 2.615211 1_555
Al38 Al7 2.665163 1_565
Al38 Al41 2.749948 1_555
Al38 Ho5 3.251807 1_555
Al38 Ho1 3.394743 1_555
Al39 Re7 2.611161 1_545
Al39 Re0 2.615211 1_555
Al39 Al6 2.665163 1_545
Al39 Al40 2.749948 1_555
Al39 Ho4 3.251807 1_555
Al39 Ho0 3.394743 1_555
Al40 Re7 2.714516 1_545
Al40 Re0 2.714516 1_655
Al40 Al43 2.717987 1_555
Al40 Al6 3.051376 1_545
Al40 Ho0 3.121066 1_555
Al40 Ho4 3.291285 1_555
Al41 Re1 2.714516 1_455
Al41 Re6 2.714516 1_565
Al41 Al42 2.717987 1_555
Al41 Al5 3.051376 1_455
Al41 Al7 3.051376 1_565
Al41 Ho1 3.121066 1_555
Al41 Ho5 3.291285 1_555
Al42 Al8 2.685395 1_465
Al42 Re2 2.714516 1_455
Al42 Re5 2.714516 1_565
Al42 Al5 3.051376 1_455
Al42 Al7 3.051376 1_565
Al42 Ho2 3.121066 1_555
Al42 Ho5 3.291285 1_555
Al43 Al9 2.685395 1_645
Al43 Re3 2.714516 1_545
Al43 Re4 2.714516 1_655
Al43 Al6 3.051376 1_545
Al43 Ho3 3.121066 1_555
Al43 Ho4 3.291285 1_555
Al44 Re7 2.557969 1_555
Al44 Re8 2.572943 1_655
Al44 Al58 2.723794 1_655
Al44 Ho0 3.454412 1_555
Al44 Ho0 3.513824 1_565
Al45 Re6 2.557969 1_555
Al45 Re8 2.572943 1_555
Al45 Al59 2.723794 1_455
Al45 Ho1 3.454412 1_555
Al45 Ho1 3.513824 1_545
Al46 Re5 2.557969 1_555
Al46 Re9 2.572943 1_555
Al46 Al56 2.723794 1_455
Al46 Al8 2.901692 1_455
Al46 Ho2 3.454412 1_555
Al46 Ho2 3.513824 1_545
Al47 Re4 2.557969 1_555
Al47 Re10 2.572943 1_556
Al47 Al57 2.723794 1_545
Al47 Al9 2.901692 1_545
Al47 Ho3 3.454412 1_555
Al47 Ho3 3.513824 1_455
Al48 Re3 2.557969 1_555
Al48 Re9 2.572943 1_656
Al48 Al57 2.723794 1_655
Al48 Al9 2.901692 1_655
Al48 Ho3 3.454412 1_555
Al48 Ho3 3.513824 1_565
Al49 Re2 2.557969 1_555
Al49 Re10 2.572943 1_565
Al49 Al56 2.723794 1_565
Al49 Al8 2.901692 1_565
Al49 Ho2 3.454412 1_555
Al49 Ho2 3.513824 1_655
Al50 Re1 2.557969 1_555
Al50 Re11 2.572943 1_565
Al50 Al59 2.723794 1_565
Al50 Ho1 3.454412 1_555
Al50 Ho1 3.513824 1_655
Al51 Re0 2.557969 1_555
Al51 Re11 2.572943 1_555
Al51 Al58 2.723794 1_545
Al51 Ho0 3.454412 1_555
Al51 Ho0 3.513824 1_455
Al52 Re11 2.621867 1_555
Al52 Re8 2.621867 1_555
Al52 Al59 2.729814 1_455
Al52 Al58 2.729814 1_545
Al52 Ho1 3.252596 1_545
Al52 Ho0 3.252596 1_455
Al53 Re11 2.621867 1_565
Al53 Re8 2.621867 1_655
Al53 Al59 2.729814 1_565
Al53 Al58 2.729814 1_655
Al53 Ho1 3.252596 1_655
Al53 Ho0 3.252596 1_565
Al54 Re9 2.621867 1_655
Al54 Re10 2.621867 1_565
Al54 Al56 2.729814 1_565
Al54 Al57 2.729814 1_654
Al54 Ho3 3.252596 1_564
Al54 Ho2 3.252596 1_655
Al55 Re10 2.621867 1_555
Al55 Re9 2.621867 1_555
Al55 Al56 2.729814 1_455
Al55 Al57 2.729814 1_544
Al55 Ho2 3.252596 1_545
Al55 Ho3 3.252596 1_454
Al56 Re10 2.655517 1_555
Al56 Re9 2.655517 1_655
Al56 Al8 3.053294 1_555
Al56 Ho3 3.234388 1_554
Al56 Ho2 3.290617 1_645
Al57 Re9 2.655517 1_556
Al57 Re10 2.655517 1_566
Al57 Al9 3.053294 1_555
Al57 Ho2 3.234388 1_556
Al57 Ho3 3.290617 1_465
Al58 Re8 2.655517 1_555
Al58 Re11 2.655517 1_565
Al58 Ho1 3.234388 1_555
Al58 Ho0 3.290617 1_465
Al59 Re11 2.655517 1_555
Al59 Re8 2.655517 1_655
Al59 Ho0 3.234388 1_555
Al59 Ho1 3.290617 1_645
