# generated using pymatgen
data_In2Pd8Se
_symmetry_space_group_name_H-M   'P 1'
_cell_length_a   4.03208522
_cell_length_b   4.03208522
_cell_length_c   11.06721924
_cell_angle_alpha   90.00000000
_cell_angle_beta   90.00000000
_cell_angle_gamma   90.00000000
_symmetry_Int_Tables_number   1
_chemical_formula_structural   In2Pd8Se
_chemical_formula_sum   'In2 Pd8 Se1'
_cell_volume   179.92765443
_cell_formula_units_Z   1
loop_
 _symmetry_equiv_pos_site_id
 _symmetry_equiv_pos_as_xyz
  1  'x, y, z'
loop_
 _atom_site_type_symbol
 _atom_site_label
 _atom_site_symmetry_multiplicity
 _atom_site_fract_x
 _atom_site_fract_y
 _atom_site_fract_z
 _atom_site_occupancy
  In  In0  1  0.50000000  0.50000000  0.82264889  1
  In  In1  1  0.50000000  0.50000000  0.17735111  1
  Pd  Pd0  1  0.50000000  -0.00000000  -0.00000000  1
  Pd  Pd1  1  -0.00000000  0.50000000  -0.00000000  1
  Pd  Pd2  1  0.50000000  0.00000000  0.64081913  1
  Pd  Pd3  1  -0.00000000  0.50000000  0.64081913  1
  Pd  Pd4  1  0.50000000  -0.00000000  0.35918087  1
  Pd  Pd5  1  0.00000000  0.50000000  0.35918087  1
  Pd  Pd6  1  0.00000000  -0.00000000  0.81992188  1
  Pd  Pd7  1  -0.00000000  0.00000000  0.18007812  1
  Se  Se0  1  -0.00000000  -0.00000000  0.50000000  1
loop_
_geom_bond_atom_site_label_1
_geom_bond_atom_site_label_2
_geom_bond_distance
_geom_bond_site_symmetry_2
In0 Pd1 2.813707 1_656
In0 Pd0 2.813707 1_566
In0 Pd1 2.813707 1_556
In0 Pd0 2.813707 1_556
In0 Pd2 2.848505 1_565
In0 Pd3 2.848505 1_655
In0 Pd3 2.848505 1_555
In0 Pd2 2.848505 1_555
In0 Pd6 2.851275 1_555
In0 Pd6 2.851275 1_665
In0 Pd6 2.851275 1_655
In0 Pd6 2.851275 1_565
In1 Pd0 2.813707 1_555
In1 Pd1 2.813707 1_555
In1 Pd1 2.813707 1_655
In1 Pd0 2.813707 1_565
In1 Pd4 2.848505 1_555
In1 Pd5 2.848505 1_655
In1 Pd4 2.848505 1_565
In1 Pd5 2.848505 1_555
In1 Pd7 2.851275 1_555
In1 Pd7 2.851275 1_565
In1 Pd7 2.851275 1_655
In1 Pd7 2.851275 1_665
Pd0 Pd6 2.834843 1_554
Pd0 Pd7 2.834843 1_655
Pd0 Pd6 2.834843 1_654
Pd0 Pd7 2.834843 1_555
Pd0 Pd1 2.851115 1_545
Pd0 Pd1 2.851115 1_655
Pd0 Pd1 2.851115 1_645
Pd0 Pd1 2.851115 1_555
Pd1 Pd6 2.834843 1_564
Pd1 Pd7 2.834843 1_565
Pd1 Pd6 2.834843 1_554
Pd1 Pd7 2.834843 1_555
Pd2 Se0 2.548191 1_555
Pd2 Se0 2.548191 1_655
Pd2 Pd6 2.827264 1_655
Pd2 Pd6 2.827264 1_555
Pd3 Se0 2.548191 1_555
Pd3 Se0 2.548191 1_565
Pd3 Pd6 2.827264 1_555
Pd3 Pd6 2.827264 1_565
Pd4 Se0 2.548191 1_555
Pd4 Se0 2.548191 1_655
Pd4 Pd7 2.827264 1_655
Pd4 Pd7 2.827264 1_555
Pd5 Se0 2.548191 1_555
Pd5 Se0 2.548191 1_565
Pd5 Pd7 2.827264 1_565
Pd5 Pd7 2.827264 1_555
