# generated using pymatgen
data_ScGaCu2
_symmetry_space_group_name_H-M   'P 1'
_cell_length_a   4.33695536
_cell_length_b   4.33695504
_cell_length_c   4.33695499
_cell_angle_alpha   60.00000811
_cell_angle_beta   60.00001049
_cell_angle_gamma   60.00000902
_symmetry_Int_Tables_number   1
_chemical_formula_structural   ScGaCu2
_chemical_formula_sum   'Sc1 Ga1 Cu2'
_cell_volume   57.68194282
_cell_formula_units_Z   1
loop_
 _symmetry_equiv_pos_site_id
 _symmetry_equiv_pos_as_xyz
  1  'x, y, z'
loop_
 _atom_site_type_symbol
 _atom_site_label
 _atom_site_symmetry_multiplicity
 _atom_site_fract_x
 _atom_site_fract_y
 _atom_site_fract_z
 _atom_site_occupancy
  Sc  Sc0  1  0.50000000  0.50000000  0.50000000  1
  Ga  Ga0  1  0.00000000  0.00000000  -0.00000000  1
  Cu  Cu0  1  0.75000000  0.75000000  0.75000000  1
  Cu  Cu1  1  0.25000000  0.25000000  0.25000000  1
loop_
_geom_bond_atom_site_label_1
_geom_bond_atom_site_label_2
_geom_bond_distance
_geom_bond_site_symmetry_2
Ga0 Sc0 3.066691 1_454
Ga0 Sc0 3.066691 1_544
Ga0 Sc0 3.066691 1_545
Ga0 Sc0 3.066691 1_455
Ga0 Sc0 3.066691 1_554
Ga0 Sc0 3.066691 1_445
Cu0 Sc0 2.655832 1_555
Cu0 Ga0 2.655832 1_666
Cu0 Ga0 2.655832 1_656
Cu0 Sc0 2.655832 1_565
Cu0 Ga0 2.655832 1_665
Cu0 Sc0 2.655832 1_556
Cu0 Ga0 2.655832 1_566
Cu0 Sc0 2.655832 1_655
Cu1 Sc0 2.655832 1_555
Cu1 Ga0 2.655832 1_555
Cu1 Ga0 2.655832 1_565
Cu1 Sc0 2.655832 1_545
Cu1 Sc0 2.655832 1_554
Cu1 Ga0 2.655832 1_556
Cu1 Ga0 2.655832 1_655
Cu1 Sc0 2.655832 1_455
