# generated using pymatgen
data_ErRe2SiC
_symmetry_space_group_name_H-M   'P 1'
_cell_length_a   5.79725439
_cell_length_b   5.79725439
_cell_length_c   7.30025300
_cell_angle_alpha   90.00000000
_cell_angle_beta   90.00000000
_cell_angle_gamma   140.36936590
_symmetry_Int_Tables_number   1
_chemical_formula_structural   ErRe2SiC
_chemical_formula_sum   'Er2 Re4 Si2 C2'
_cell_volume   156.49179214
_cell_formula_units_Z   2
loop_
 _symmetry_equiv_pos_site_id
 _symmetry_equiv_pos_as_xyz
  1  'x, y, z'
loop_
 _atom_site_type_symbol
 _atom_site_label
 _atom_site_symmetry_multiplicity
 _atom_site_fract_x
 _atom_site_fract_y
 _atom_site_fract_z
 _atom_site_occupancy
  Er  Er0  1  0.54310400  0.45689600  0.25000000  1
  Er  Er1  1  0.45689600  0.54310400  0.75000000  1
  Re  Re0  1  0.82629900  0.17370100  0.06059700  1
  Re  Re1  1  0.17370100  0.82629900  0.93940300  1
  Re  Re2  1  0.17370100  0.82629900  0.56059700  1
  Re  Re3  1  0.82629900  0.17370100  0.43940300  1
  Si  Si0  1  0.26523300  0.73476700  0.25000000  1
  Si  Si1  1  0.73476700  0.26523300  0.75000000  1
  C  C0  1  0.00000000  0.00000000  0.00000000  1
  C  C1  1  0.00000000  0.00000000  0.50000000  1
loop_
_geom_bond_atom_site_label_1
_geom_bond_atom_site_label_2
_geom_bond_distance
_geom_bond_site_symmetry_2
Er0 Si0 3.031017 1_555
Er0 Si0 3.119758 1_545
Er0 Si0 3.119758 1_655
Er1 Si1 3.031017 1_555
Er1 Si1 3.119758 1_455
Er1 Si1 3.119758 1_565
Re0 Si1 2.477526 1_554
Re0 Si0 2.493506 1_655
Re0 Si0 2.493506 1_545
Re1 Si0 2.477526 1_556
Re1 Si1 2.493506 1_565
Re1 Si1 2.493506 1_455
Re2 Si0 2.477526 1_555
Re2 Si1 2.493506 1_565
Re2 Si1 2.493506 1_455
Re3 Si1 2.477526 1_555
Re3 Si0 2.493506 1_545
Re3 Si0 2.493506 1_655
C0 Re1 1.945687 1_544
C0 Re0 1.945687 1_455
C0 Er0 2.722860 1_445
C0 Er1 2.722860 1_444
C0 Er0 2.722860 1_555
C0 Er1 2.722860 1_554
C1 Re3 1.945687 1_455
C1 Re2 1.945687 1_545
C1 Er0 2.722860 1_445
C1 Er1 2.722860 1_555
C1 Er0 2.722860 1_555
C1 Er1 2.722860 1_445
