# generated using pymatgen
data_NbCrNi
_symmetry_space_group_name_H-M   'P 1'
_cell_length_a   4.91615647
_cell_length_b   4.91615647
_cell_length_c   7.88458500
_cell_angle_alpha   90.00000000
_cell_angle_beta   90.00000000
_cell_angle_gamma   121.63744462
_symmetry_Int_Tables_number   1
_chemical_formula_structural   NbCrNi
_chemical_formula_sum   'Nb4 Cr4 Ni4'
_cell_volume   162.23922976
_cell_formula_units_Z   4
loop_
 _symmetry_equiv_pos_site_id
 _symmetry_equiv_pos_as_xyz
  1  'x, y, z'
loop_
 _atom_site_type_symbol
 _atom_site_label
 _atom_site_symmetry_multiplicity
 _atom_site_fract_x
 _atom_site_fract_y
 _atom_site_fract_z
 _atom_site_occupancy
  Nb  Nb0  1  0.33714000  0.66286000  0.18875000  1
  Nb  Nb1  1  0.66356300  0.33643700  0.31048600  1
  Nb  Nb2  1  0.66356300  0.33643700  0.68951400  1
  Nb  Nb3  1  0.33714000  0.66286000  0.81125000  1
  Cr  Cr0  1  0.00110200  0.99889800  0.24874300  1
  Cr  Cr1  1  0.00110200  0.99889800  0.75125700  1
  Cr  Cr2  1  0.83439300  0.66730100  0.00000000  1
  Cr  Cr3  1  0.33269900  0.16560700  0.00000000  1
  Ni  Ni0  1  0.82601300  0.17398700  0.00000000  1
  Ni  Ni1  1  0.16956400  0.33542900  0.50000000  1
  Ni  Ni2  1  0.66457100  0.83043600  0.50000000  1
  Ni  Ni3  1  0.16930300  0.83069700  0.50000000  1
loop_
_geom_bond_atom_site_label_1
_geom_bond_atom_site_label_2
_geom_bond_distance
_geom_bond_site_symmetry_2
Nb0 Ni2 2.810893 1_555
Nb0 Ni1 2.810893 1_555
Nb0 Ni0 2.823027 1_565
Nb0 Ni0 2.823027 1_455
Nb0 Ni3 2.845759 1_555
Nb0 Nb1 2.961980 1_555
Nb0 Nb3 2.976431 1_554
Nb0 Nb1 2.981128 1_565
Nb0 Nb1 2.981128 1_455
Nb1 Ni0 2.817392 1_555
Nb1 Ni3 2.825022 1_655
Nb1 Ni3 2.825022 1_545
Nb1 Ni2 2.849234 1_555
Nb1 Ni1 2.849234 1_555
Nb1 Ni1 2.904094 1_655
Nb1 Ni2 2.904094 1_545
Nb1 Nb2 2.988478 1_555
Nb2 Ni0 2.817392 1_556
Nb2 Ni3 2.825022 1_655
Nb2 Ni3 2.825022 1_545
Nb2 Ni2 2.849234 1_555
Nb2 Ni1 2.849234 1_555
Nb2 Ni1 2.904094 1_655
Nb2 Ni2 2.904094 1_545
Nb2 Nb3 2.961980 1_555
Nb2 Nb3 2.981128 1_655
Nb2 Nb3 2.981128 1_545
Nb3 Ni2 2.810893 1_555
Nb3 Ni1 2.810893 1_555
Nb3 Ni0 2.823027 1_566
Nb3 Ni0 2.823027 1_456
Nb3 Ni3 2.845759 1_555
Cr0 Cr3 2.402916 1_565
Cr0 Cr2 2.402916 1_455
Cr0 Ni1 2.431092 1_565
Cr0 Ni2 2.431092 1_455
Cr0 Ni3 2.451419 1_555
Cr0 Ni0 2.470943 1_465
Cr0 Nb1 2.815592 1_455
Cr0 Nb1 2.815592 1_565
Cr0 Nb0 2.819649 1_455
Cr0 Nb0 2.819649 1_565
Cr0 Nb0 2.923213 1_555
Cr0 Nb1 2.938183 1_465
Cr1 Cr3 2.402916 1_566
Cr1 Cr2 2.402916 1_456
Cr1 Ni1 2.431092 1_565
Cr1 Ni2 2.431092 1_455
Cr1 Ni3 2.451419 1_555
Cr1 Ni0 2.470943 1_466
Cr1 Nb2 2.815592 1_455
Cr1 Nb2 2.815592 1_565
Cr1 Nb3 2.819649 1_455
Cr1 Nb3 2.819649 1_565
Cr1 Nb3 2.923213 1_555
Cr1 Nb2 2.938183 1_465
Cr2 Cr3 2.388871 1_665
Cr2 Ni0 2.403855 1_555
Cr2 Cr3 2.405113 1_555
Cr2 Ni0 2.512802 1_565
Cr2 Nb1 2.812639 1_555
Cr2 Nb2 2.812639 1_554
Cr2 Nb3 2.852229 1_554
Cr2 Nb0 2.852229 1_555
Cr2 Nb0 2.894926 1_655
Cr2 Nb3 2.894926 1_654
Cr3 Ni0 2.403855 1_555
Cr3 Ni0 2.512802 1_455
Cr3 Nb1 2.812639 1_555
Cr3 Nb2 2.812639 1_554
Cr3 Nb3 2.852229 1_554
Cr3 Nb0 2.852229 1_555
Cr3 Nb0 2.894926 1_545
Cr3 Nb3 2.894926 1_544
Ni1 Ni2 2.373056 1_555
Ni1 Ni2 2.420928 1_445
Ni1 Ni3 2.435488 1_555
Ni1 Ni3 2.480669 1_545
Ni2 Ni3 2.435488 1_555
Ni2 Ni3 2.480669 1_655
