# generated using pymatgen
data_CsCdBO3
_symmetry_space_group_name_H-M   'P 1'
_cell_length_a   7.64178200
_cell_length_b   7.64178200
_cell_length_c   7.64178200
_cell_angle_alpha   90.00000000
_cell_angle_beta   90.00000000
_cell_angle_gamma   90.00000000
_symmetry_Int_Tables_number   1
_chemical_formula_structural   CsCdBO3
_chemical_formula_sum   'Cs4 Cd4 B4 O12'
_cell_volume   446.25586067
_cell_formula_units_Z   4
loop_
 _symmetry_equiv_pos_site_id
 _symmetry_equiv_pos_as_xyz
  1  'x, y, z'
loop_
 _atom_site_type_symbol
 _atom_site_label
 _atom_site_symmetry_multiplicity
 _atom_site_fract_x
 _atom_site_fract_y
 _atom_site_fract_z
 _atom_site_occupancy
  Cs  Cs0  1  0.63924000  0.13924000  0.36076000  1
  Cs  Cs1  1  0.13924000  0.36076000  0.63924000  1
  Cs  Cs2  1  0.36076000  0.63924000  0.13924000  1
  Cs  Cs3  1  0.86076000  0.86076000  0.86076000  1
  Cd  Cd0  1  0.64529400  0.35470600  0.85470600  1
  Cd  Cd1  1  0.14529400  0.14529400  0.14529400  1
  Cd  Cd2  1  0.85470600  0.64529400  0.35470600  1
  Cd  Cd3  1  0.35470600  0.85470600  0.64529400  1
  B  B0  1  0.59879300  0.59879300  0.59879300  1
  B  B1  1  0.40120700  0.09879300  0.90120700  1
  B  B2  1  0.09879300  0.90120700  0.40120700  1
  B  B3  1  0.90120700  0.40120700  0.09879300  1
  O  O0  1  0.52304400  0.08882100  0.76579800  1
  O  O1  1  0.23420200  0.02304400  0.41117900  1
  O  O2  1  0.58882100  0.73420200  0.47695600  1
  O  O3  1  0.02304400  0.41117900  0.23420200  1
  O  O4  1  0.73420200  0.47695600  0.58882100  1
  O  O5  1  0.08882100  0.76579800  0.52304400  1
  O  O6  1  0.47695600  0.58882100  0.73420200  1
  O  O7  1  0.76579800  0.52304400  0.08882100  1
  O  O8  1  0.41117900  0.23420200  0.02304400  1
  O  O9  1  0.97695600  0.91117900  0.26579800  1
  O  O10  1  0.26579800  0.97695600  0.91117900  1
  O  O11  1  0.91117900  0.26579800  0.97695600  1
loop_
_geom_bond_atom_site_label_1
_geom_bond_atom_site_label_2
_geom_bond_distance
_geom_bond_site_symmetry_2
Cs0 O9 3.197533 1_545
Cs0 O4 3.197533 1_555
Cs0 O8 3.197533 1_555
Cs0 O1 3.243028 1_555
Cs0 O0 3.243028 1_555
Cs0 O2 3.243028 1_545
Cs1 O11 3.197533 1_455
Cs1 O6 3.197533 1_555
Cs1 O1 3.197533 1_555
Cs1 O3 3.243028 1_555
Cs1 O5 3.243028 1_555
Cs1 O4 3.243028 1_455
Cs2 O10 3.197533 1_554
Cs2 O2 3.197533 1_555
Cs2 O3 3.197533 1_555
Cs2 O8 3.243028 1_555
Cs2 O7 3.243028 1_555
Cs2 O6 3.243028 1_554
Cs3 O0 3.197533 1_565
Cs3 O7 3.197533 1_556
Cs3 O5 3.197533 1_655
Cs3 O9 3.243028 1_556
Cs3 O10 3.243028 1_655
Cs3 O11 3.243028 1_565
Cd0 O0 2.337243 1_555
Cd0 O11 2.337243 1_555
Cd0 O4 2.337243 1_555
Cd0 O6 2.388209 1_555
Cd0 O8 2.388209 1_556
Cd0 O7 2.388209 1_556
Cd1 O3 2.337243 1_555
Cd1 O1 2.337243 1_555
Cd1 O8 2.337243 1_555
Cd1 O9 2.388209 1_445
Cd1 O10 2.388209 1_544
Cd1 O11 2.388209 1_454
Cd2 O7 2.337243 1_555
Cd2 O9 2.337243 1_555
Cd2 O2 2.337243 1_555
Cd2 O4 2.388209 1_555
Cd2 O3 2.388209 1_655
Cd2 O5 2.388209 1_655
Cd3 O5 2.337243 1_555
Cd3 O10 2.337243 1_555
Cd3 O6 2.337243 1_555
Cd3 O2 2.388209 1_555
Cd3 O1 2.388209 1_565
Cd3 O0 2.388209 1_565
B0 O2 1.394061 1_555
B0 O6 1.394061 1_555
B0 O4 1.394061 1_555
B1 O0 1.394061 1_555
B1 O10 1.394061 1_545
B1 O8 1.394061 1_556
B2 O5 1.394061 1_555
B2 O9 1.394061 1_455
B2 O1 1.394061 1_565
B3 O7 1.394061 1_555
B3 O11 1.394061 1_554
B3 O3 1.394061 1_655
