# generated using pymatgen
data_RbTlO
_symmetry_space_group_name_H-M   'P 1'
_cell_length_a   7.03799234
_cell_length_b   7.03799234
_cell_length_c   6.42810300
_cell_angle_alpha   73.78077719
_cell_angle_beta   73.78077719
_cell_angle_gamma   30.40857280
_symmetry_Int_Tables_number   1
_chemical_formula_structural   RbTlO
_chemical_formula_sum   'Rb2 Tl2 O2'
_cell_volume   154.26625493
_cell_formula_units_Z   2
loop_
 _symmetry_equiv_pos_site_id
 _symmetry_equiv_pos_as_xyz
  1  'x, y, z'
loop_
 _atom_site_type_symbol
 _atom_site_label
 _atom_site_symmetry_multiplicity
 _atom_site_fract_x
 _atom_site_fract_y
 _atom_site_fract_z
 _atom_site_occupancy
  Rb  Rb0  1  0.87466381  0.87466381  0.34451322  1
  Rb  Rb1  1  0.12533619  0.12533619  0.65548678  1
  Tl  Tl0  1  0.64360420  0.64360420  0.14679099  1
  Tl  Tl1  1  0.35639580  0.35639580  0.85320901  1
  O  O0  1  0.24922378  0.24922378  0.21028098  1
  O  O1  1  0.75077622  0.75077622  0.78971902  1
loop_
_geom_bond_atom_site_label_1
_geom_bond_atom_site_label_2
_geom_bond_distance
_geom_bond_site_symmetry_2
O0 Tl1 2.335230 1_554
O0 Tl0 2.443505 1_455
O0 Tl0 2.443505 1_545
O0 Rb0 2.811726 1_455
O0 Rb0 2.811726 1_545
O0 Rb1 2.869497 1_555
O1 Tl0 2.335230 1_556
O1 Tl1 2.443505 1_565
O1 Tl1 2.443505 1_655
O1 Rb1 2.811726 1_655
O1 Rb1 2.811726 1_565
O1 Rb0 2.869497 1_555
