# generated using pymatgen
data_Ba2V2CuClO8
_symmetry_space_group_name_H-M   'P 1'
_cell_length_a   6.16339700
_cell_length_b   9.69581900
_cell_length_c   15.20983800
_cell_angle_alpha   90.00000000
_cell_angle_beta   90.00000000
_cell_angle_gamma   90.00000000
_symmetry_Int_Tables_number   1
_chemical_formula_structural   Ba2V2CuClO8
_chemical_formula_sum   'Ba8 V8 Cu4 Cl4 O32'
_cell_volume   908.92747323
_cell_formula_units_Z   4
loop_
 _symmetry_equiv_pos_site_id
 _symmetry_equiv_pos_as_xyz
  1  'x, y, z'
loop_
 _atom_site_type_symbol
 _atom_site_label
 _atom_site_symmetry_multiplicity
 _atom_site_fract_x
 _atom_site_fract_y
 _atom_site_fract_z
 _atom_site_occupancy
  Ba  Ba0  1  0.75000000  0.13761500  0.53671500  1
  Ba  Ba1  1  0.75000000  0.36238500  0.03671500  1
  Ba  Ba2  1  0.25000000  0.86238500  0.46328500  1
  Ba  Ba3  1  0.25000000  0.63761500  0.96328500  1
  Ba  Ba4  1  0.75000000  0.45382800  0.75362300  1
  Ba  Ba5  1  0.75000000  0.04617200  0.25362300  1
  Ba  Ba6  1  0.25000000  0.54617200  0.24637700  1
  Ba  Ba7  1  0.25000000  0.95382800  0.74637700  1
  V  V0  1  0.25000000  0.28559100  0.63413800  1
  V  V1  1  0.25000000  0.21440900  0.13413800  1
  V  V2  1  0.75000000  0.71440900  0.36586200  1
  V  V3  1  0.75000000  0.78559100  0.86586200  1
  V  V4  1  0.25000000  0.28720900  0.87025600  1
  V  V5  1  0.25000000  0.21279100  0.37025600  1
  V  V6  1  0.75000000  0.71279100  0.12974400  1
  V  V7  1  0.75000000  0.78720900  0.62974400  1
  Cu  Cu0  1  0.00000000  0.50000000  0.50000000  1
  Cu  Cu1  1  0.50000000  0.00000000  0.00000000  1
  Cu  Cu2  1  0.50000000  0.50000000  0.50000000  1
  Cu  Cu3  1  0.00000000  0.00000000  0.00000000  1
  Cl  Cl0  1  0.25000000  0.61623600  0.75620300  1
  Cl  Cl1  1  0.25000000  0.88376400  0.25620300  1
  Cl  Cl2  1  0.75000000  0.38376400  0.24379700  1
  Cl  Cl3  1  0.75000000  0.11623600  0.74379700  1
  O  O0  1  0.25000000  0.12622400  0.58943900  1
  O  O1  1  0.25000000  0.37377600  0.08943900  1
  O  O2  1  0.75000000  0.87377600  0.41056100  1
  O  O3  1  0.75000000  0.62622400  0.91056100  1
  O  O4  1  0.01233000  0.36870000  0.60195300  1
  O  O5  1  0.48767000  0.13130000  0.10195300  1
  O  O6  1  0.51233000  0.63130000  0.39804700  1
  O  O7  1  0.98767000  0.86870000  0.89804700  1
  O  O8  1  0.98767000  0.63130000  0.39804700  1
  O  O9  1  0.51233000  0.86870000  0.89804700  1
  O  O10  1  0.48767000  0.36870000  0.60195300  1
  O  O11  1  0.01233000  0.13130000  0.10195300  1
  O  O12  1  0.47582400  0.38011700  0.89875700  1
  O  O13  1  0.02417600  0.11988300  0.39875700  1
  O  O14  1  0.97582400  0.61988300  0.10124300  1
  O  O15  1  0.52417600  0.88011700  0.60124300  1
  O  O16  1  0.52417600  0.61988300  0.10124300  1
  O  O17  1  0.97582400  0.88011700  0.60124300  1
  O  O18  1  0.02417600  0.38011700  0.89875700  1
  O  O19  1  0.47582400  0.11988300  0.39875700  1
  O  O20  1  0.25000000  0.25404200  0.75081100  1
  O  O21  1  0.25000000  0.24595800  0.25081100  1
  O  O22  1  0.75000000  0.74595800  0.24918900  1
  O  O23  1  0.75000000  0.75404200  0.74918900  1
  O  O24  1  0.75000000  0.62787200  0.58211000  1
  O  O25  1  0.75000000  0.87212800  0.08211000  1
  O  O26  1  0.25000000  0.37212800  0.41789000  1
  O  O27  1  0.25000000  0.12787200  0.91789000  1
  O  O28  1  0.25000000  0.58560200  0.53371500  1
  O  O29  1  0.25000000  0.91439800  0.03371500  1
  O  O30  1  0.75000000  0.41439800  0.46628500  1
  O  O31  1  0.75000000  0.08560200  0.96628500  1
loop_
_geom_bond_atom_site_label_1
_geom_bond_atom_site_label_2
_geom_bond_distance
_geom_bond_site_symmetry_2
Ba0 O13 2.699650 1_655
Ba0 O19 2.699650 1_555
Ba0 O30 2.889540 1_555
Ba0 O10 2.935790 1_555
Ba0 O4 2.935790 1_655
Ba0 O17 3.022213 1_545
Ba0 O15 3.022213 1_545
Ba0 Cl3 3.156497 1_555
Ba0 O0 3.186243 1_555
Ba0 O0 3.186243 1_655
Ba0 O2 3.197777 1_545
Ba1 O18 2.699650 1_654
Ba1 O12 2.699650 1_554
Ba1 O31 2.889540 1_554
Ba1 O5 2.935790 1_555
Ba1 O11 2.935790 1_655
Ba1 O14 3.022213 1_555
Ba1 O16 3.022213 1_555
Ba1 Cl2 3.156497 1_555
Ba1 O1 3.186243 1_555
Ba1 O1 3.186243 1_655
Ba1 O3 3.197777 1_554
Ba2 O15 2.699650 1_555
Ba2 O17 2.699650 1_455
Ba2 O28 2.889540 1_555
Ba2 O8 2.935790 1_455
Ba2 O6 2.935790 1_555
Ba2 O19 3.022213 1_565
Ba2 O13 3.022213 1_565
Ba2 Cl1 3.156497 1_555
Ba2 O2 3.186243 1_555
Ba2 O2 3.186243 1_455
Ba2 O0 3.197777 1_565
Ba3 O16 2.699650 1_556
Ba3 O14 2.699650 1_456
Ba3 O29 2.889540 1_556
Ba3 O7 2.935790 1_455
Ba3 O9 2.935790 1_555
Ba3 O12 3.022213 1_555
Ba3 O18 3.022213 1_555
Ba3 Cl0 3.156497 1_555
Ba3 O3 3.186243 1_555
Ba3 O3 3.186243 1_455
Ba3 O1 3.197777 1_556
Ba4 O18 2.870417 1_655
Ba4 O12 2.870417 1_555
Ba4 O23 2.911602 1_555
Ba4 O3 2.914062 1_555
Ba4 O10 2.935494 1_555
Ba4 O4 2.935494 1_655
Ba4 O24 3.106910 1_555
Ba4 Cl3 3.276641 1_555
Ba4 Cl0 3.460927 1_555
Ba4 Cl0 3.460927 1_655
Ba5 O13 2.870417 1_655
Ba5 O19 2.870417 1_555
Ba5 O22 2.911602 1_545
Ba5 O2 2.914062 1_545
Ba5 O5 2.935494 1_555
Ba5 O11 2.935494 1_655
Ba5 O25 3.106910 1_545
Ba5 Cl2 3.276641 1_555
Ba5 Cl1 3.460927 1_545
Ba5 Cl1 3.460927 1_645
Ba6 O16 2.870417 1_555
Ba6 O14 2.870417 1_455
Ba6 O21 2.911602 1_555
Ba6 O1 2.914062 1_555
Ba6 O6 2.935494 1_555
Ba6 O8 2.935494 1_455
Ba6 O26 3.106910 1_555
Ba6 Cl1 3.276641 1_555
Ba6 Cl2 3.460927 1_455
Ba6 Cl2 3.460927 1_555
Ba7 O15 2.870417 1_555
Ba7 O17 2.870417 1_455
Ba7 O20 2.911602 1_565
Ba7 O0 2.914062 1_565
Ba7 O9 2.935494 1_555
Ba7 O7 2.935494 1_455
Ba7 O27 3.106910 1_565
Ba7 Cl0 3.276641 1_555
Ba7 Cl3 3.460927 1_465
Ba7 Cl3 3.460927 1_565
Cu0 O28 1.823746 1_555
Cu0 O30 1.823746 1_455
Cu0 O4 2.007759 1_555
Cu0 O8 2.007759 1_455
Cu0 O24 2.339034 1_455
Cu0 O26 2.339034 1_555
Cu1 O31 1.823746 1_554
Cu1 O29 1.823746 1_545
Cu1 O5 2.007759 1_555
Cu1 O9 2.007759 1_544
Cu1 O27 2.339034 1_554
Cu1 O25 2.339034 1_545
Cu2 O28 1.823746 1_555
Cu2 O30 1.823746 1_555
Cu2 O10 2.007759 1_555
Cu2 O6 2.007759 1_555
Cu2 O24 2.339034 1_555
Cu2 O26 2.339034 1_555
Cu3 O31 1.823746 1_454
Cu3 O29 1.823746 1_545
Cu3 O11 2.007759 1_555
Cu3 O7 2.007759 1_444
Cu3 O27 2.339034 1_554
Cu3 O25 2.339034 1_445
O0 V0 1.688147 1_555
O1 V1 1.688147 1_555
O2 V2 1.688147 1_555
O3 V3 1.688147 1_555
O4 V0 1.742058 1_555
O5 V1 1.742058 1_555
O6 V2 1.742058 1_555
O7 V3 1.742058 1_555
O8 V2 1.742058 1_555
O9 V3 1.742058 1_555
O10 V0 1.742058 1_555
O11 V1 1.742058 1_555
O12 V4 1.713657 1_555
O13 V5 1.713657 1_555
O14 V6 1.713657 1_555
O15 V7 1.713657 1_555
O16 V6 1.713657 1_555
O17 V7 1.713657 1_555
O18 V4 1.713657 1_555
O19 V5 1.713657 1_555
O20 V0 1.800749 1_555
O20 V4 1.844981 1_555
O21 V1 1.800749 1_555
O21 V5 1.844981 1_555
O22 V2 1.800749 1_555
O22 V6 1.844981 1_555
O23 V3 1.800749 1_555
O23 V7 1.844981 1_555
O24 V7 1.706351 1_555
O25 V6 1.706351 1_555
O26 V5 1.706351 1_555
O27 V4 1.706351 1_555
