# generated using pymatgen
data_RuN7ClO6
_symmetry_space_group_name_H-M   'P 1'
_cell_length_a   7.21718281
_cell_length_b   7.21718281
_cell_length_c   7.21718281
_cell_angle_alpha   120.65575719
_cell_angle_beta   120.65575719
_cell_angle_gamma   88.86789894
_symmetry_Int_Tables_number   1
_chemical_formula_structural   RuN7ClO6
_chemical_formula_sum   'Ru1 N7 Cl1 O6'
_cell_volume   263.12982609
_cell_formula_units_Z   1
loop_
 _symmetry_equiv_pos_site_id
 _symmetry_equiv_pos_as_xyz
  1  'x, y, z'
loop_
 _atom_site_type_symbol
 _atom_site_label
 _atom_site_symmetry_multiplicity
 _atom_site_fract_x
 _atom_site_fract_y
 _atom_site_fract_z
 _atom_site_occupancy
  Ru  Ru0  1  0.15308700  0.15308700  0.00000000  1
  N  N0  1  0.38382300  0.38382300  0.37791600  1
  N  N1  1  0.00590600  0.00590600  0.62208400  1
  N  N2  1  0.38382300  0.00590600  0.00000000  1
  N  N3  1  0.00590600  0.38382300  0.00000000  1
  N  N4  1  0.98686400  0.98686400  0.00000000  1
  N  N5  1  0.93715400  0.43715400  0.50000000  1
  N  N6  1  0.43715400  0.93715400  0.50000000  1
  Cl  Cl0  1  0.41220600  0.41220600  0.00000000  1
  O  O0  1  0.55917200  0.05917200  0.50000000  1
  O  O1  1  0.05917200  0.55917200  0.50000000  1
  O  O2  1  0.87610900  0.52774500  0.65163700  1
  O  O3  1  0.87610900  0.22447200  0.34836300  1
  O  O4  1  0.52774500  0.87610900  0.65163700  1
  O  O5  1  0.22447200  0.87610900  0.34836300  1
loop_
_geom_bond_atom_site_label_1
_geom_bond_atom_site_label_2
_geom_bond_distance
_geom_bond_site_symmetry_2
N0 Ru0 1.957429 1_555
N1 Ru0 1.957427 1_556
N2 Ru0 1.957433 1_555
N3 Ru0 1.957433 1_555
N4 Ru0 1.713256 1_665
N5 O2 1.252960 1_555
N5 O3 1.252960 1_555
N5 O1 1.257636 1_655
N6 O4 1.252960 1_555
N6 O5 1.252960 1_555
N6 O0 1.257636 1_565
Cl0 Ru0 2.670733 1_555
