# generated using pymatgen
data_Mn10FeN9
_symmetry_space_group_name_H-M   'P 1'
_cell_length_a   6.73101129
_cell_length_b   7.17492800
_cell_length_c   16.56481970
_cell_angle_alpha   90.00000000
_cell_angle_beta   92.29886795
_cell_angle_gamma   90.00000000
_symmetry_Int_Tables_number   1
_chemical_formula_structural   Mn10FeN9
_chemical_formula_sum   'Mn40 Fe4 N36'
_cell_volume   799.34619682
_cell_formula_units_Z   4
loop_
 _symmetry_equiv_pos_site_id
 _symmetry_equiv_pos_as_xyz
  1  'x, y, z'
loop_
 _atom_site_type_symbol
 _atom_site_label
 _atom_site_symmetry_multiplicity
 _atom_site_fract_x
 _atom_site_fract_y
 _atom_site_fract_z
 _atom_site_occupancy
  Mn  Mn0  1  0.55657600  0.86272100  0.10472000  1
  Mn  Mn1  1  0.44342400  0.36272100  0.39528000  1
  Mn  Mn2  1  0.44342400  0.13727900  0.89528000  1
  Mn  Mn3  1  0.55657600  0.63727900  0.60472000  1
  Mn  Mn4  1  0.54367900  0.11643000  0.57313800  1
  Mn  Mn5  1  0.45632100  0.61643000  0.92686200  1
  Mn  Mn6  1  0.45632100  0.88357000  0.42686200  1
  Mn  Mn7  1  0.54367900  0.38357000  0.07313800  1
  Mn  Mn8  1  0.79964700  0.78929600  0.72088900  1
  Mn  Mn9  1  0.20035300  0.28929600  0.77911100  1
  Mn  Mn10  1  0.20035300  0.21070400  0.27911100  1
  Mn  Mn11  1  0.79964700  0.71070400  0.22088900  1
  Mn  Mn12  1  0.77095400  0.36280300  0.67638700  1
  Mn  Mn13  1  0.22904600  0.86280300  0.82361300  1
  Mn  Mn14  1  0.22904600  0.63719700  0.32361300  1
  Mn  Mn15  1  0.77095400  0.13719700  0.17638700  1
  Mn  Mn16  1  0.71511300  0.37312900  0.86644300  1
  Mn  Mn17  1  0.28488700  0.87312900  0.63355700  1
  Mn  Mn18  1  0.28488700  0.62687100  0.13355700  1
  Mn  Mn19  1  0.71511300  0.12687100  0.36644300  1
  Mn  Mn20  1  0.96842200  0.09419400  0.87587100  1
  Mn  Mn21  1  0.03157800  0.59419400  0.62412900  1
  Mn  Mn22  1  0.03157800  0.90580600  0.12412900  1
  Mn  Mn23  1  0.96842200  0.40580600  0.37587100  1
  Mn  Mn24  1  0.99775800  0.10449500  0.64314600  1
  Mn  Mn25  1  0.00224200  0.60449500  0.85685400  1
  Mn  Mn26  1  0.00224200  0.89550500  0.35685400  1
  Mn  Mn27  1  0.99775800  0.39550500  0.14314600  1
  Mn  Mn28  1  0.30525600  0.36686000  0.62229500  1
  Mn  Mn29  1  0.69474400  0.86686000  0.87770500  1
  Mn  Mn30  1  0.69474400  0.63314000  0.37770500  1
  Mn  Mn31  1  0.30525600  0.13314000  0.12229500  1
  Mn  Mn32  1  0.51332400  0.04248700  0.74122700  1
  Mn  Mn33  1  0.48667600  0.54248700  0.75877300  1
  Mn  Mn34  1  0.48667600  0.95751300  0.25877300  1
  Mn  Mn35  1  0.51332400  0.45751300  0.24122700  1
  Mn  Mn36  1  0.82976100  0.81261100  0.52326700  1
  Mn  Mn37  1  0.17023900  0.31261100  0.97673300  1
  Mn  Mn38  1  0.17023900  0.18738900  0.47673300  1
  Mn  Mn39  1  0.82976100  0.68738900  0.02326700  1
  Fe  Fe0  1  0.82122900  0.43762600  0.52289800  1
  Fe  Fe1  1  0.17877100  0.93762600  0.97710200  1
  Fe  Fe2  1  0.17877100  0.56237400  0.47710200  1
  Fe  Fe3  1  0.82122900  0.06237400  0.02289800  1
  N  N0  1  0.60004900  0.38283700  0.58411200  1
  N  N1  1  0.39995100  0.88283700  0.91588800  1
  N  N2  1  0.39995100  0.61716300  0.41588800  1
  N  N3  1  0.60004900  0.11716300  0.08411200  1
  N  N4  1  0.47945100  0.27229500  0.80015900  1
  N  N5  1  0.52054900  0.77229500  0.69984100  1
  N  N6  1  0.52054900  0.72770500  0.19984100  1
  N  N7  1  0.47945100  0.22770500  0.30015900  1
  N  N8  1  0.72030400  0.11194600  0.91976200  1
  N  N9  1  0.27969600  0.61194600  0.58023800  1
  N  N10  1  0.27969600  0.88805400  0.08023800  1
  N  N11  1  0.72030400  0.38805400  0.41976200  1
  N  N12  1  0.55880900  0.85954300  0.54398000  1
  N  N13  1  0.44119100  0.35954300  0.95602000  1
  N  N14  1  0.44119100  0.14045700  0.45602000  1
  N  N15  1  0.55880900  0.64045700  0.04398000  1
  N  N16  1  0.72587200  0.10022700  0.67558000  1
  N  N17  1  0.27412800  0.60022700  0.82442000  1
  N  N18  1  0.27412800  0.89977300  0.32442000  1
  N  N19  1  0.72587200  0.39977300  0.17558000  1
  N  N20  1  0.05820600  0.36393400  0.68167000  1
  N  N21  1  0.94179400  0.86393400  0.81833000  1
  N  N22  1  0.94179400  0.63606600  0.31833000  1
  N  N23  1  0.05820600  0.13606600  0.18167000  1
  N  N24  1  0.02314800  0.34096000  0.87347500  1
  N  N25  1  0.97685200  0.84096000  0.62652500  1
  N  N26  1  0.97685200  0.65904000  0.12652500  1
  N  N27  1  0.02314800  0.15904000  0.37347500  1
  N  N28  1  0.25407900  0.12356500  0.58327700  1
  N  N29  1  0.74592100  0.62356500  0.91672300  1
  N  N30  1  0.74592100  0.87643500  0.41672300  1
  N  N31  1  0.25407900  0.37643500  0.08327700  1
  N  N32  1  0.23211900  0.02705800  0.73626300  1
  N  N33  1  0.76788100  0.52705800  0.76373700  1
  N  N34  1  0.76788100  0.97294200  0.26373700  1
  N  N35  1  0.23211900  0.47294200  0.23626300  1
loop_
_geom_bond_atom_site_label_1
_geom_bond_atom_site_label_2
_geom_bond_distance
_geom_bond_site_symmetry_2
Mn0 N6 1.873662 1_555
Mn0 N3 1.882285 1_565
Mn0 N15 1.885982 1_555
Mn0 N10 1.900047 1_555
Mn1 N7 1.873662 1_555
Mn1 N2 1.882285 1_555
Mn1 N14 1.885982 1_555
Mn1 N11 1.900047 1_555
Mn2 N4 1.873662 1_555
Mn2 N1 1.882285 1_545
Mn2 N13 1.885982 1_555
Mn2 N8 1.900047 1_555
Mn3 N5 1.873662 1_555
Mn3 N0 1.882285 1_555
Mn3 N12 1.885982 1_555
Mn3 N9 1.900047 1_555
Mn4 N12 1.909133 1_545
Mn4 N0 1.955792 1_555
Mn4 N28 1.963891 1_555
Mn4 N14 2.040096 1_555
Mn4 N16 2.056713 1_555
Mn5 N13 1.909133 1_555
Mn5 N1 1.955792 1_555
Mn5 N29 1.963891 1_555
Mn5 N15 2.040096 1_556
Mn5 N17 2.056713 1_555
Mn6 N14 1.909133 1_565
Mn6 N2 1.955792 1_555
Mn6 N30 1.963891 1_555
Mn6 N12 2.040096 1_555
Mn6 N18 2.056713 1_555
Mn7 N15 1.909133 1_555
Mn7 N3 1.955792 1_555
Mn7 N31 1.963891 1_555
Mn7 N13 2.040096 1_554
Mn7 N19 2.056713 1_555
Mn8 N5 1.900810 1_555
Mn8 N21 1.919281 1_555
Mn8 N33 2.025303 1_555
Mn8 N25 2.037899 1_555
Mn8 N16 2.399363 1_565
Mn9 N4 1.900810 1_555
Mn9 N20 1.919281 1_555
Mn9 N32 2.025303 1_555
Mn9 N24 2.037899 1_555
Mn9 N17 2.399363 1_555
Mn10 N7 1.900810 1_555
Mn10 N23 1.919281 1_555
Mn10 N35 2.025303 1_555
Mn10 N27 2.037899 1_555
Mn10 N18 2.399363 1_545
Mn11 N6 1.900810 1_555
Mn11 N22 1.919281 1_555
Mn11 N34 2.025303 1_555
Mn11 N26 2.037899 1_555
Mn11 N19 2.399363 1_555
Mn12 N33 1.866912 1_555
Mn12 N0 1.881304 1_555
Mn12 N16 1.908207 1_555
Mn12 N20 1.931983 1_655
Mn13 N32 1.866912 1_565
Mn13 N1 1.881304 1_555
Mn13 N17 1.908207 1_555
Mn13 N21 1.931983 1_455
Mn14 N35 1.866912 1_555
Mn14 N2 1.881304 1_555
Mn14 N18 1.908207 1_555
Mn14 N22 1.931983 1_455
Mn15 N34 1.866912 1_545
Mn15 N3 1.881304 1_555
Mn15 N19 1.908207 1_555
Mn15 N23 1.931983 1_655
Mn16 N29 1.987848 1_555
Mn16 N4 2.026186 1_555
Mn16 N33 2.070951 1_555
Mn16 N8 2.071372 1_555
Mn16 N24 2.084802 1_655
Mn16 N13 2.414585 1_555
Mn17 N28 1.987848 1_565
Mn17 N5 2.026186 1_555
Mn17 N32 2.070951 1_565
Mn17 N9 2.071372 1_555
Mn17 N25 2.084802 1_455
Mn17 N12 2.414585 1_555
Mn18 N31 1.987848 1_555
Mn18 N6 2.026186 1_555
Mn18 N35 2.070951 1_555
Mn18 N10 2.071372 1_555
Mn18 N26 2.084802 1_455
Mn18 N15 2.414585 1_555
Mn19 N30 1.987848 1_545
Mn19 N7 2.026186 1_555
Mn19 N34 2.070951 1_545
Mn19 N11 2.071372 1_555
Mn19 N27 2.084802 1_655
Mn19 N14 2.414585 1_555
Mn20 N24 1.809201 1_655
Mn20 N8 1.852408 1_555
Mn20 N21 1.912160 1_545
Mn21 N25 1.809201 1_455
Mn21 N9 1.852408 1_555
Mn21 N20 1.912160 1_555
Mn22 N26 1.809201 1_455
Mn22 N10 1.852408 1_555
Mn22 N23 1.912160 1_565
Mn23 N27 1.809201 1_655
Mn23 N11 1.852408 1_555
Mn23 N22 1.912160 1_555
Mn24 N25 1.915148 1_545
Mn24 N16 1.928112 1_555
Mn24 N20 2.004237 1_655
Mn24 N28 2.028830 1_655
Mn24 N32 2.231851 1_655
Mn25 N24 1.915148 1_555
Mn25 N17 1.928112 1_555
Mn25 N21 2.004237 1_455
Mn25 N29 2.028830 1_455
Mn25 N33 2.231851 1_455
Mn26 N27 1.915148 1_565
Mn26 N18 1.928112 1_555
Mn26 N22 2.004237 1_455
Mn26 N30 2.028830 1_455
Mn26 N34 2.231851 1_455
Mn27 N26 1.915148 1_555
Mn27 N19 1.928112 1_555
Mn27 N23 2.004237 1_655
Mn27 N31 2.028830 1_655
Mn27 N35 2.231851 1_655
Mn28 N28 1.888317 1_555
Mn28 N9 1.896724 1_555
Mn28 N20 1.965761 1_555
Mn28 N0 2.109773 1_555
Mn29 N29 1.888317 1_555
Mn29 N8 1.896724 1_565
Mn29 N21 1.965761 1_555
Mn29 N1 2.109773 1_555
Mn30 N30 1.888317 1_555
Mn30 N11 1.896724 1_555
Mn30 N22 1.965761 1_555
Mn30 N2 2.109773 1_555
Mn31 N31 1.888317 1_555
Mn31 N10 1.896724 1_545
Mn31 N23 1.965761 1_555
Mn31 N3 2.109773 1_555
Mn32 N16 1.877695 1_555
Mn32 N32 1.894518 1_555
Mn32 N4 1.934303 1_555
Mn32 N5 2.057480 1_545
Mn33 N17 1.877695 1_555
Mn33 N33 1.894518 1_555
Mn33 N5 1.934303 1_555
Mn33 N4 2.057480 1_555
Mn34 N18 1.877695 1_555
Mn34 N34 1.894518 1_555
Mn34 N6 1.934303 1_555
Mn34 N7 2.057480 1_565
Mn35 N19 1.877695 1_555
Mn35 N35 1.894518 1_555
Mn35 N7 1.934303 1_555
Mn35 N6 2.057480 1_555
Mn36 N30 1.887611 1_555
Mn36 N12 1.899339 1_555
Mn36 N25 1.952280 1_555
Mn37 N31 1.887611 1_556
Mn37 N13 1.899339 1_555
Mn37 N24 1.952280 1_555
Mn38 N28 1.887611 1_555
Mn38 N14 1.899339 1_555
Mn38 N27 1.952280 1_555
Mn39 N29 1.887611 1_554
Mn39 N15 1.899339 1_555
Mn39 N26 1.952280 1_555
Fe0 N11 1.847597 1_555
Fe0 N0 1.876234 1_555
Fe1 N10 1.847597 1_556
Fe1 N1 1.876234 1_555
Fe2 N9 1.847597 1_555
Fe2 N2 1.876234 1_555
Fe3 N8 1.847597 1_554
Fe3 N3 1.876234 1_555
