# generated using pymatgen
data_HfNi(OF)6
_symmetry_space_group_name_H-M   'P 1'
_cell_length_a   5.90853855
_cell_length_b   5.90853855
_cell_length_c   5.90853892
_cell_angle_alpha   93.83852005
_cell_angle_beta   93.83852005
_cell_angle_gamma   93.83852546
_symmetry_Int_Tables_number   1
_chemical_formula_structural   HfNi(OF)6
_chemical_formula_sum   'Hf1 Ni1 O6 F6'
_cell_volume   204.81833508
_cell_formula_units_Z   1
loop_
 _symmetry_equiv_pos_site_id
 _symmetry_equiv_pos_as_xyz
  1  'x, y, z'
loop_
 _atom_site_type_symbol
 _atom_site_label
 _atom_site_symmetry_multiplicity
 _atom_site_fract_x
 _atom_site_fract_y
 _atom_site_fract_z
 _atom_site_occupancy
  Hf  Hf0  1  0.00000000  0.00000000  0.00000000  1
  Ni  Ni0  1  0.50000000  0.50000000  0.50000000  1
  O  O0  1  0.80639200  0.59245000  0.43485800  1
  O  O1  1  0.59245000  0.43485800  0.80639200  1
  O  O2  1  0.43485800  0.80639200  0.59245000  1
  O  O3  1  0.19360800  0.40755000  0.56514200  1
  O  O4  1  0.40755000  0.56514200  0.19360800  1
  O  O5  1  0.56514200  0.19360800  0.40755000  1
  F  F0  1  0.72870600  0.08305000  0.80945600  1
  F  F1  1  0.08305000  0.80945600  0.72870600  1
  F  F2  1  0.80945600  0.72870600  0.08305000  1
  F  F3  1  0.27129400  0.91695000  0.19054400  1
  F  F4  1  0.91695000  0.19054400  0.27129400  1
  F  F5  1  0.19054400  0.27129400  0.91695000  1
loop_
_geom_bond_atom_site_label_1
_geom_bond_atom_site_label_2
_geom_bond_distance
_geom_bond_site_symmetry_2
Ni0 O3 1.926878 1_555
Ni0 O0 1.926878 1_555
Ni0 O5 1.926878 1_555
Ni0 O2 1.926878 1_555
Ni0 O4 1.926878 1_555
Ni0 O1 1.926878 1_555
F0 Hf0 2.003848 1_656
F1 Hf0 2.003848 1_566
F2 Hf0 2.003848 1_665
F3 Hf0 2.003848 1_565
F4 Hf0 2.003848 1_655
F5 Hf0 2.003848 1_556
