# generated using pymatgen
data_Dy2MgSe4
_symmetry_space_group_name_H-M   'P 1'
_cell_length_a   8.21525697
_cell_length_b   8.21525697
_cell_length_c   8.21525697
_cell_angle_alpha   60.00000000
_cell_angle_beta   60.00000000
_cell_angle_gamma   60.00000000
_symmetry_Int_Tables_number   1
_chemical_formula_structural   Dy2MgSe4
_chemical_formula_sum   'Dy4 Mg2 Se8'
_cell_volume   392.05632006
_cell_formula_units_Z   2
loop_
 _symmetry_equiv_pos_site_id
 _symmetry_equiv_pos_as_xyz
  1  'x, y, z'
loop_
 _atom_site_type_symbol
 _atom_site_label
 _atom_site_symmetry_multiplicity
 _atom_site_fract_x
 _atom_site_fract_y
 _atom_site_fract_z
 _atom_site_occupancy
  Dy  Dy0  1  0.62500000  0.12500000  0.62500000  1
  Dy  Dy1  1  0.62500000  0.62500000  0.12500000  1
  Dy  Dy2  1  0.12500000  0.62500000  0.62500000  1
  Dy  Dy3  1  0.62500000  0.62500000  0.62500000  1
  Mg  Mg0  1  -0.00000000  0.00000000  -0.00000000  1
  Mg  Mg1  1  0.25000000  0.25000000  0.25000000  1
  Se  Se0  1  0.37954076  0.37954076  0.37954076  1
  Se  Se1  1  0.86137772  0.37954076  0.37954076  1
  Se  Se2  1  0.37954076  0.86137772  0.37954076  1
  Se  Se3  1  0.37954076  0.37954076  0.86137772  1
  Se  Se4  1  0.87045924  0.87045924  0.38862228  1
  Se  Se5  1  0.87045924  0.38862228  0.87045924  1
  Se  Se6  1  0.38862228  0.87045924  0.87045924  1
  Se  Se7  1  0.87045924  0.87045924  0.87045924  1
loop_
_geom_bond_atom_site_label_1
_geom_bond_atom_site_label_2
_geom_bond_distance
_geom_bond_site_symmetry_2
Dy0 Se7 2.852753 1_545
Dy0 Se4 2.852753 1_545
Dy0 Se3 2.852753 1_555
Dy0 Se6 2.852753 1_545
Dy0 Se1 2.852753 1_555
Dy0 Se0 2.852753 1_555
Dy1 Se2 2.852753 1_555
Dy1 Se7 2.852753 1_554
Dy1 Se5 2.852753 1_554
Dy1 Se1 2.852753 1_555
Dy1 Se6 2.852753 1_554
Dy1 Se0 2.852753 1_555
Dy2 Se7 2.852753 1_455
Dy2 Se0 2.852753 1_555
Dy2 Se4 2.852753 1_455
Dy2 Se5 2.852753 1_455
Dy2 Se2 2.852753 1_555
Dy2 Se3 2.852753 1_555
Dy3 Se5 2.852753 1_555
Dy3 Se6 2.852753 1_555
Dy3 Se4 2.852753 1_555
Dy3 Se1 2.852753 1_555
Dy3 Se2 2.852753 1_555
Dy3 Se3 2.852753 1_555
Mg0 Se6 2.606773 1_544
Mg0 Se5 2.606773 1_454
Mg0 Se4 2.606773 1_445
Mg0 Se7 2.606773 1_444
Mg1 Se0 2.606773 1_555
Mg1 Se1 2.606773 1_455
Mg1 Se3 2.606773 1_554
Mg1 Se2 2.606773 1_545
