# generated using pymatgen
data_Mn2V3Sn(PO4)6
_symmetry_space_group_name_H-M   'P 1'
_cell_length_a   8.71487334
_cell_length_b   8.71487334
_cell_length_c   8.71487412
_cell_angle_alpha   59.74041824
_cell_angle_beta   59.74041824
_cell_angle_gamma   59.74042180
_symmetry_Int_Tables_number   1
_chemical_formula_structural   Mn2V3Sn(PO4)6
_chemical_formula_sum   'Mn2 V3 Sn1 P6 O24'
_cell_volume   465.26522327
_cell_formula_units_Z   1
loop_
 _symmetry_equiv_pos_site_id
 _symmetry_equiv_pos_as_xyz
  1  'x, y, z'
loop_
 _atom_site_type_symbol
 _atom_site_label
 _atom_site_symmetry_multiplicity
 _atom_site_fract_x
 _atom_site_fract_y
 _atom_site_fract_z
 _atom_site_occupancy
  Mn  Mn0  1  0.00329800  0.00329800  0.00329800  1
  Mn  Mn1  1  0.49932400  0.49932400  0.49932400  1
  V  V0  1  0.35534600  0.35534600  0.35534600  1
  V  V1  1  0.14450000  0.14450000  0.14450000  1
  V  V2  1  0.64334100  0.64334100  0.64334100  1
  Sn  Sn0  1  0.85512300  0.85512300  0.85512300  1
  P  P0  1  0.45331200  0.74797300  0.04410200  1
  P  P1  1  0.74797300  0.04410200  0.45331200  1
  P  P2  1  0.04410200  0.45331200  0.74797300  1
  P  P3  1  0.95839600  0.53950000  0.25284000  1
  P  P4  1  0.25284000  0.95839600  0.53950000  1
  P  P5  1  0.53950000  0.25284000  0.95839600  1
  O  O0  1  0.69352700  0.88247400  0.49556900  1
  O  O1  1  0.88247400  0.49556900  0.69352700  1
  O  O2  1  0.49556900  0.69352700  0.88247400  1
  O  O3  1  0.26233500  0.91347600  0.06117600  1
  O  O4  1  0.60953900  0.80498000  0.01660200  1
  O  O5  1  0.43617500  0.58414800  0.23688400  1
  O  O6  1  0.91347600  0.06117600  0.26233500  1
  O  O7  1  0.58414800  0.23688400  0.43617500  1
  O  O8  1  0.99451200  0.38438000  0.19233100  1
  O  O9  1  0.23688400  0.43617500  0.58414800  1
  O  O10  1  0.94357400  0.73592300  0.08773300  1
  O  O11  1  0.19233100  0.99451200  0.38438000  1
  O  O12  1  0.80498000  0.01660200  0.60953900  1
  O  O13  1  0.06117600  0.26233500  0.91347600  1
  O  O14  1  0.76360100  0.56039400  0.41411300  1
  O  O15  1  0.01660200  0.60953900  0.80498000  1
  O  O16  1  0.41411300  0.76360100  0.56039400  1
  O  O17  1  0.08773300  0.94357400  0.73592300  1
  O  O18  1  0.56039400  0.41411300  0.76360100  1
  O  O19  1  0.38438000  0.19233100  0.99451200  1
  O  O20  1  0.73592300  0.08773300  0.94357400  1
  O  O21  1  0.50324200  0.30985300  0.11640100  1
  O  O22  1  0.11640100  0.50324200  0.30985300  1
  O  O23  1  0.30985300  0.11640100  0.50324200  1
loop_
_geom_bond_atom_site_label_1
_geom_bond_atom_site_label_2
_geom_bond_distance
_geom_bond_site_symmetry_2
Mn0 O13 2.220823 1_554
Mn0 O3 2.220823 1_545
Mn0 O6 2.220823 1_455
Mn0 O10 2.313046 1_445
Mn0 O20 2.313047 1_454
Mn0 O17 2.313047 1_544
Mn1 O9 2.287985 1_555
Mn1 O7 2.287985 1_555
Mn1 O5 2.287985 1_555
Mn1 O14 2.291834 1_555
Mn1 O16 2.291834 1_555
Mn1 O18 2.291834 1_555
O0 P1 1.522995 1_565
O0 V2 1.959329 1_555
O1 P2 1.522995 1_655
O1 V2 1.959329 1_555
O2 P0 1.522995 1_556
O2 V2 1.959329 1_555
O3 P0 1.555591 1_555
O3 V1 2.067268 1_565
O4 P0 1.546217 1_555
O4 Sn0 2.009797 1_554
O5 P0 1.558161 1_555
O5 V0 2.036163 1_555
O6 P1 1.555591 1_555
O6 V1 2.067268 1_655
O7 P1 1.558162 1_555
O7 V0 2.036163 1_555
O8 P3 1.525450 1_555
O8 V1 1.956462 1_655
O9 P2 1.558161 1_555
O9 V0 2.036163 1_555
O10 P3 1.580957 1_555
O10 Sn0 2.104332 1_554
O11 P4 1.525450 1_555
O11 V1 1.956462 1_565
O12 P1 1.546218 1_555
O12 Sn0 2.009798 1_545
O13 P2 1.555591 1_555
O13 V1 2.067268 1_556
O14 P3 1.559533 1_555
O14 V2 2.047802 1_555
O15 P2 1.546218 1_555
O15 Sn0 2.009798 1_455
O16 P4 1.559533 1_555
O16 V2 2.047802 1_555
O17 P4 1.580957 1_555
O17 Sn0 2.104332 1_455
O18 P5 1.559533 1_555
O18 V2 2.047801 1_555
O19 P5 1.525450 1_555
O19 V1 1.956462 1_556
O20 P5 1.580957 1_555
O20 Sn0 2.104332 1_545
O21 P5 1.528272 1_554
O21 V0 1.940819 1_555
O22 P3 1.528272 1_455
O22 V0 1.940819 1_555
O23 P4 1.528272 1_545
O23 V0 1.940819 1_555
