# generated using pymatgen
data_VNi(PO4)2
_symmetry_space_group_name_H-M   'P 1'
_cell_length_a   4.79813125
_cell_length_b   9.90764603
_cell_length_c   5.81880741
_cell_angle_alpha   90.04385989
_cell_angle_beta   89.99338993
_cell_angle_gamma   90.76101070
_symmetry_Int_Tables_number   1
_chemical_formula_structural   VNi(PO4)2
_chemical_formula_sum   'V2 Ni2 P4 O16'
_cell_volume   276.59106709
_cell_formula_units_Z   2
loop_
 _symmetry_equiv_pos_site_id
 _symmetry_equiv_pos_as_xyz
  1  'x, y, z'
loop_
 _atom_site_type_symbol
 _atom_site_label
 _atom_site_symmetry_multiplicity
 _atom_site_fract_x
 _atom_site_fract_y
 _atom_site_fract_z
 _atom_site_occupancy
  V  V0  1  0.55109100  0.77720300  0.24700400  1
  V  V1  1  0.44793500  0.22229500  0.74978000  1
  Ni  Ni0  1  0.94801000  0.27428500  0.25049100  1
  Ni  Ni1  1  0.05090500  0.72617500  0.75060500  1
  P  P0  1  0.42097900  0.08981400  0.24937500  1
  P  P1  1  0.57906300  0.91024600  0.74712500  1
  P  P2  1  0.88628200  0.40413400  0.75108100  1
  P  P3  1  0.11397200  0.59569100  0.25353900  1
  O  O0  1  0.67640400  0.05926900  0.74772600  1
  O  O1  1  0.32428200  0.94076800  0.25137700  1
  O  O2  1  0.73327600  0.10373300  0.24924100  1
  O  O3  1  0.26669100  0.89647000  0.74872700  1
  O  O4  1  0.20091300  0.37275900  0.74902600  1
  O  O5  1  0.80000900  0.62782500  0.25544400  1
  O  O6  1  0.16098400  0.44630200  0.24572900  1
  O  O7  1  0.83890200  0.55359600  0.75638200  1
  O  O8  1  0.27864900  0.16560700  0.03881900  1
  O  O9  1  0.27975800  0.16668200  0.46005200  1
  O  O10  1  0.71982100  0.83498900  0.53479600  1
  O  O11  1  0.72109700  0.83285000  0.95617700  1
  O  O12  1  0.73015000  0.32546300  0.95161200  1
  O  O13  1  0.73061800  0.32807200  0.54780100  1
  O  O14  1  0.27005800  0.67489400  0.05207800  1
  O  O15  1  0.27015100  0.67087700  0.45601300  1
loop_
_geom_bond_atom_site_label_1
_geom_bond_atom_site_label_2
_geom_bond_distance
_geom_bond_site_symmetry_2
Ni0 O2 1.967402 1_555
Ni0 O6 1.975699 1_655
Ni0 O13 2.092318 1_555
Ni0 O12 2.095277 1_554
Ni0 O9 2.281387 1_655
Ni0 O8 2.288258 1_655
Ni1 O3 1.967855 1_555
Ni1 O7 1.978215 1_455
Ni1 O15 2.087740 1_555
Ni1 O14 2.111182 1_556
Ni1 O11 2.257018 1_455
Ni1 O10 2.304521 1_455
O0 P1 1.542654 1_545
O0 V1 1.964112 1_555
O1 P0 1.542029 1_565
O1 V0 1.964153 1_555
O2 P0 1.502950 1_555
O3 P1 1.503226 1_555
O4 P2 1.545394 1_455
O4 V1 1.916791 1_555
O5 P3 1.543879 1_655
O5 V0 1.914757 1_555
O6 P3 1.500795 1_555
O7 P2 1.501440 1_555
O8 P0 1.595799 1_555
O8 V1 1.947531 1_554
O9 P0 1.598134 1_555
O9 V1 1.945246 1_555
O10 P1 1.596972 1_555
O10 V0 1.942693 1_555
O11 P1 1.596136 1_555
O11 V0 1.955065 1_556
O12 P2 1.586181 1_555
O12 V1 2.054123 1_555
O13 P2 1.583911 1_555
O13 V1 2.069547 1_555
O14 P3 1.592625 1_555
O14 V0 2.023492 1_555
O15 P3 1.577510 1_555
O15 V0 2.090399 1_555
