# generated using pymatgen
data_Rb3NiF7
_symmetry_space_group_name_H-M   'P 1'
_cell_length_a   7.90925437
_cell_length_b   7.90925437
_cell_length_c   5.83236495
_cell_angle_alpha   90.00000000
_cell_angle_beta   90.00000000
_cell_angle_gamma   90.00000000
_symmetry_Int_Tables_number   1
_chemical_formula_structural   Rb3NiF7
_chemical_formula_sum   'Rb6 Ni2 F14'
_cell_volume   364.85119887
_cell_formula_units_Z   2
loop_
 _symmetry_equiv_pos_site_id
 _symmetry_equiv_pos_as_xyz
  1  'x, y, z'
loop_
 _atom_site_type_symbol
 _atom_site_label
 _atom_site_symmetry_multiplicity
 _atom_site_fract_x
 _atom_site_fract_y
 _atom_site_fract_z
 _atom_site_occupancy
  Rb  Rb0  1  0.18951507  0.68951507  0.50000000  1
  Rb  Rb1  1  0.68951507  0.81048493  0.50000000  1
  Rb  Rb2  1  0.31048493  0.18951507  0.50000000  1
  Rb  Rb3  1  0.81048493  0.31048493  0.50000000  1
  Rb  Rb4  1  0.50000000  0.50000000  -0.00000000  1
  Rb  Rb5  1  0.00000000  0.00000000  -0.00000000  1
  Ni  Ni0  1  0.00000000  0.50000000  -0.00000000  1
  Ni  Ni1  1  0.50000000  0.00000000  -0.00000000  1
  F  F0  1  0.38831059  0.88831059  0.78186282  1
  F  F1  1  0.61168941  0.11168941  0.78186282  1
  F  F2  1  0.11168941  0.38831059  0.78186282  1
  F  F3  1  0.88831059  0.61168941  0.78186282  1
  F  F4  1  0.38831059  0.88831059  0.21813718  1
  F  F5  1  0.88831059  0.61168941  0.21813718  1
  F  F6  1  0.11168941  0.38831059  0.21813718  1
  F  F7  1  0.61168941  0.11168941  0.21813718  1
  F  F8  1  0.00000000  0.00000000  0.50000000  1
  F  F9  1  0.50000000  0.50000000  0.50000000  1
  F  F10  1  0.84059764  0.34059764  -0.00000000  1
  F  F11  1  0.34059764  0.15940236  -0.00000000  1
  F  F12  1  0.65940236  0.84059764  -0.00000000  1
  F  F13  1  0.15940236  0.65940236  -0.00000000  1
loop_
_geom_bond_atom_site_label_1
_geom_bond_atom_site_label_2
_geom_bond_distance
_geom_bond_site_symmetry_2
F0 Ni1 1.783075 1_566
F0 Rb0 2.765303 1_555
F0 Rb1 2.959182 1_555
F0 Rb2 2.959182 1_565
F1 Ni1 1.783075 1_556
F1 Rb3 2.765303 1_555
F1 Rb2 2.959182 1_555
F1 Rb1 2.959182 1_545
F2 Ni0 1.783075 1_556
F2 Rb2 2.765303 1_555
F2 Rb3 2.959182 1_455
F2 Rb0 2.959182 1_555
F3 Ni0 1.783075 1_656
F3 Rb1 2.765303 1_555
F3 Rb3 2.959182 1_555
F3 Rb0 2.959182 1_655
F4 Ni1 1.783075 1_565
F4 Rb0 2.765303 1_555
F4 Rb1 2.959182 1_555
F4 Rb2 2.959182 1_565
F5 Ni0 1.783075 1_655
F5 Rb1 2.765303 1_555
F5 Rb3 2.959182 1_555
F5 Rb0 2.959182 1_655
F6 Ni0 1.783075 1_555
F6 Rb2 2.765303 1_555
F6 Rb3 2.959182 1_455
F6 Rb0 2.959182 1_555
F7 Ni1 1.783075 1_555
F7 Rb3 2.765303 1_555
F7 Rb2 2.959182 1_555
F7 Rb1 2.959182 1_545
F8 Rb2 2.877022 1_555
F8 Rb0 2.877022 1_545
F8 Rb1 2.877022 1_445
F8 Rb3 2.877022 1_455
F8 Rb5 2.916182 1_555
F8 Rb5 2.916182 1_556
F9 Rb0 2.877022 1_555
F9 Rb1 2.877022 1_555
F9 Rb2 2.877022 1_555
F9 Rb3 2.877022 1_555
F9 Rb4 2.916182 1_555
F9 Rb4 2.916182 1_556
F10 Ni0 1.782975 1_655
F10 Rb3 2.935570 1_554
F10 Rb3 2.935570 1_555
F10 Rb5 2.974299 1_655
F10 Rb4 2.974299 1_555
F11 Ni1 1.782975 1_555
F11 Rb2 2.935570 1_555
F11 Rb2 2.935570 1_554
F11 Rb5 2.974299 1_555
F11 Rb4 2.974299 1_555
F12 Ni1 1.782975 1_565
F12 Rb1 2.935570 1_555
F12 Rb1 2.935570 1_554
F12 Rb5 2.974299 1_665
F12 Rb4 2.974299 1_555
F13 Ni0 1.782975 1_555
F13 Rb0 2.935570 1_554
F13 Rb0 2.935570 1_555
F13 Rb4 2.974299 1_555
F13 Rb5 2.974299 1_565
