# generated using pymatgen
data_ScMn2O4
_symmetry_space_group_name_H-M   'P 1'
_cell_length_a   6.01204281
_cell_length_b   6.29565855
_cell_length_c   6.23767700
_cell_angle_alpha   60.30404723
_cell_angle_beta   89.99994389
_cell_angle_gamma   61.52837589
_symmetry_Int_Tables_number   1
_chemical_formula_structural   ScMn2O4
_chemical_formula_sum   'Sc2 Mn4 O8'
_cell_volume   171.44383705
_cell_formula_units_Z   2
loop_
 _symmetry_equiv_pos_site_id
 _symmetry_equiv_pos_as_xyz
  1  'x, y, z'
loop_
 _atom_site_type_symbol
 _atom_site_label
 _atom_site_symmetry_multiplicity
 _atom_site_fract_x
 _atom_site_fract_y
 _atom_site_fract_z
 _atom_site_occupancy
  Sc  Sc0  1  0.37501100  0.24997800  0.62502000  1
  Sc  Sc1  1  0.37502300  0.24993500  0.12502800  1
  Mn  Mn0  1  0.74492000  0.50914200  0.24544800  1
  Mn  Mn1  1  0.00505900  0.99096600  0.00453400  1
  Mn  Mn2  1  0.37525400  0.75003500  0.62483300  1
  Mn  Mn3  1  0.87477000  0.74998700  0.62503100  1
  O  O0  1  0.13746800  0.72796000  0.42213000  1
  O  O1  1  0.13745100  0.72795200  0.84994900  1
  O  O2  1  0.61251300  0.77202900  0.40011900  1
  O  O3  1  0.61252900  0.77203200  0.82788500  1
  O  O4  1  0.14047500  0.25934200  0.87033000  1
  O  O5  1  0.60154200  0.25820900  0.87090200  1
  O  O6  1  0.14845700  0.24178700  0.37911400  1
  O  O7  1  0.60952800  0.24064500  0.37967600  1
loop_
_geom_bond_atom_site_label_1
_geom_bond_atom_site_label_2
_geom_bond_distance
_geom_bond_site_symmetry_2
Mn0 O6 2.032300 1_655
Mn0 O7 2.032371 1_555
Mn0 O2 2.151649 1_555
Mn0 O3 2.151670 1_554
Mn1 O4 2.031863 1_564
Mn1 O5 2.032165 1_464
Mn1 O0 2.151836 1_555
Mn1 O1 2.151855 1_554
Mn2 O2 2.003641 1_555
Mn2 O3 2.005107 1_555
Mn2 O0 2.006302 1_555
Mn2 O1 2.007780 1_555
Mn2 O6 2.250946 1_565
Mn2 O5 2.251450 1_555
Mn3 O3 2.017768 1_555
Mn3 O2 2.017908 1_555
Mn3 O1 2.019870 1_655
Mn3 O0 2.020019 1_655
Mn3 O7 2.246455 1_565
Mn3 O4 2.246550 1_655
O0 Sc0 2.196769 1_555
O1 Sc1 2.196907 1_556
O2 Sc1 2.196446 1_565
O3 Sc0 2.196609 1_565
O4 Sc1 2.084017 1_556
O4 Sc0 2.084037 1_555
O5 Sc1 2.087071 1_556
O5 Sc0 2.087072 1_555
O6 Sc0 2.087099 1_555
O6 Sc1 2.087105 1_555
O7 Sc0 2.084106 1_555
O7 Sc1 2.084107 1_555
