# generated using pymatgen
data_Co3TeO8
_symmetry_space_group_name_H-M   'P 1'
_cell_length_a   5.81425105
_cell_length_b   6.06219094
_cell_length_c   10.57944531
_cell_angle_alpha   104.52359240
_cell_angle_beta   105.99836387
_cell_angle_gamma   61.03540284
_symmetry_Int_Tables_number   1
_chemical_formula_structural   Co3TeO8
_chemical_formula_sum   'Co6 Te2 O16'
_cell_volume   310.55110111
_cell_formula_units_Z   2
loop_
 _symmetry_equiv_pos_site_id
 _symmetry_equiv_pos_as_xyz
  1  'x, y, z'
loop_
 _atom_site_type_symbol
 _atom_site_label
 _atom_site_symmetry_multiplicity
 _atom_site_fract_x
 _atom_site_fract_y
 _atom_site_fract_z
 _atom_site_occupancy
  Co  Co0  1  0.99999700  0.49999700  0.50000200  1
  Co  Co1  1  0.50000300  0.99999500  0.50000100  1
  Co  Co2  1  0.50001800  0.49997700  0.99999800  1
  Co  Co3  1  0.50002100  0.00000100  0.99999700  1
  Co  Co4  1  0.99999400  0.50001300  0.00000500  1
  Co  Co5  1  0.00000000  0.00000500  0.50000200  1
  Te  Te0  1  0.99993000  0.00001800  0.99999400  1
  Te  Te1  1  0.50002200  0.49999900  0.50000300  1
  O  O0  1  0.13227200  0.15366700  0.42078900  1
  O  O1  1  0.62508100  0.65457300  0.91831600  1
  O  O2  1  0.37492900  0.34542000  0.08168100  1
  O  O3  1  0.86773200  0.84633000  0.57921400  1
  O  O4  1  0.64720500  0.60869300  0.39505100  1
  O  O5  1  0.14182000  0.12345800  0.89787500  1
  O  O6  1  0.13815300  0.60642600  0.39449700  1
  O  O7  1  0.63824900  0.10431400  0.89416900  1
  O  O8  1  0.63353800  0.14296200  0.40887000  1
  O  O9  1  0.13955300  0.65030700  0.90539300  1
  O  O10  1  0.86046900  0.34969400  0.09461400  1
  O  O11  1  0.36646400  0.85703600  0.59113100  1
  O  O12  1  0.36171300  0.89570200  0.10579800  1
  O  O13  1  0.86185000  0.39357300  0.60550900  1
  O  O14  1  0.85819800  0.87652800  0.10214300  1
  O  O15  1  0.35279100  0.39131100  0.60494900  1
loop_
_geom_bond_atom_site_label_1
_geom_bond_atom_site_label_2
_geom_bond_distance
_geom_bond_site_symmetry_2
Co0 O0 1.900173 1_655
Co0 O3 1.900185 1_555
Co0 O13 1.914317 1_555
Co0 O6 1.914360 1_655
Co0 O15 1.917536 1_655
Co0 O4 1.917542 1_555
Co1 O3 1.901645 1_555
Co1 O0 1.901654 1_565
Co1 O11 1.940830 1_555
Co1 O8 1.940857 1_565
Co1 O4 2.197457 1_555
Co1 O15 2.197515 1_565
Co2 O2 1.888431 1_556
Co2 O1 1.888498 1_555
Co2 O10 1.917272 1_556
Co2 O9 1.917313 1_555
Co2 O7 2.221410 1_555
Co2 O12 2.221591 1_556
Co3 O2 1.903778 1_556
Co3 O1 1.903818 1_545
Co3 O7 1.908573 1_555
Co3 O12 1.908636 1_546
Co3 O14 1.928843 1_546
Co3 O5 1.928854 1_555
Co4 O1 1.940623 1_554
Co4 O2 1.940696 1_655
Co4 O10 2.027647 1_555
Co4 O9 2.027702 1_654
Co4 O14 2.118629 1_555
Co4 O5 2.118786 1_654
Co5 O0 1.897936 1_555
Co5 O3 1.897974 1_445
Co5 O8 1.928409 1_455
Co5 O11 1.928411 1_545
Co5 O13 2.210409 1_455
Co5 O6 2.210453 1_545
O4 Te1 1.958620 1_555
O5 Te0 1.975466 1_455
O6 Te1 1.959815 1_555
O7 Te0 1.960845 1_555
O8 Te1 1.988838 1_555
O9 Te0 1.967719 1_465
O10 Te0 1.967601 1_554
O11 Te1 1.988820 1_555
O12 Te0 1.961209 1_464
O13 Te1 1.959635 1_555
O14 Te0 1.975233 1_564
O15 Te1 1.958757 1_555
