# generated using pymatgen
data_Rb2PH6(SO)3
_symmetry_space_group_name_H-M   'P 1'
_cell_length_a   13.05399000
_cell_length_b   9.24739100
_cell_length_c   9.34421060
_cell_angle_alpha   64.49531481
_cell_angle_beta   90.00000000
_cell_angle_gamma   90.00000000
_symmetry_Int_Tables_number   1
_chemical_formula_structural   Rb2PH6(SO)3
_chemical_formula_sum   'Rb8 P4 H24 S12 O12'
_cell_volume   1018.06714560
_cell_formula_units_Z   4
loop_
 _symmetry_equiv_pos_site_id
 _symmetry_equiv_pos_as_xyz
  1  'x, y, z'
loop_
 _atom_site_type_symbol
 _atom_site_label
 _atom_site_symmetry_multiplicity
 _atom_site_fract_x
 _atom_site_fract_y
 _atom_site_fract_z
 _atom_site_occupancy
  Rb  Rb0  1  0.12767400  0.84642900  0.09895800  1
  Rb  Rb1  1  0.62767400  0.15357100  0.40104200  1
  Rb  Rb2  1  0.87232600  0.15357100  0.90104200  1
  Rb  Rb3  1  0.37232600  0.84642900  0.59895800  1
  Rb  Rb4  1  0.80983700  0.61102900  0.31743800  1
  Rb  Rb5  1  0.30983700  0.38897100  0.18256200  1
  Rb  Rb6  1  0.19016300  0.38897100  0.68256200  1
  Rb  Rb7  1  0.69016300  0.61102900  0.81743800  1
  P  P0  1  0.00003700  0.61227700  0.88164200  1
  P  P1  1  0.50003700  0.38772300  0.61835800  1
  P  P2  1  0.99996300  0.38772300  0.11835800  1
  P  P3  1  0.49996300  0.61227700  0.38164200  1
  H  H0  1  0.04905400  0.70705200  0.52491200  1
  H  H1  1  0.54905400  0.29294800  0.97508800  1
  H  H2  1  0.95094600  0.29294800  0.47508800  1
  H  H3  1  0.45094600  0.70705200  0.02491200  1
  H  H4  1  0.12654500  0.85366200  0.44767000  1
  H  H5  1  0.62654500  0.14633800  0.05233000  1
  H  H6  1  0.87345500  0.14633800  0.55233000  1
  H  H7  1  0.37345500  0.85366200  0.94767000  1
  H  H8  1  0.34339500  0.05710900  0.01558300  1
  H  H9  1  0.84339500  0.94289100  0.48441700  1
  H  H10  1  0.65660500  0.94289100  0.98441700  1
  H  H11  1  0.15660500  0.05710900  0.51558300  1
  H  H12  1  0.34150400  0.09971600  0.83187200  1
  H  H13  1  0.84150400  0.90028400  0.66812800  1
  H  H14  1  0.65849600  0.90028400  0.16812800  1
  H  H15  1  0.15849600  0.09971600  0.33187200  1
  H  H16  1  0.03035600  0.10757800  0.65895600  1
  H  H17  1  0.53035600  0.89242200  0.84104400  1
  H  H18  1  0.96964400  0.89242200  0.34104400  1
  H  H19  1  0.46964400  0.10757800  0.15895600  1
  H  H20  1  0.09991400  0.95226800  0.74610600  1
  H  H21  1  0.59991400  0.04773200  0.75389400  1
  H  H22  1  0.90008600  0.04773200  0.25389400  1
  H  H23  1  0.40008600  0.95226800  0.24610600  1
  S  S0  1  0.90588200  0.77047500  0.91724000  1
  S  S1  1  0.40588200  0.22952500  0.58276000  1
  S  S2  1  0.09411800  0.22952500  0.08276000  1
  S  S3  1  0.59411800  0.77047500  0.41724000  1
  S  S4  1  0.14851300  0.68488700  0.84216200  1
  S  S5  1  0.64851300  0.31511300  0.65783800  1
  S  S6  1  0.85148700  0.31511300  0.15783800  1
  S  S7  1  0.35148700  0.68488700  0.34216200  1
  S  S8  1  0.94418300  0.54428500  0.71662400  1
  S  S9  1  0.44418300  0.45571500  0.78337600  1
  S  S10  1  0.05581700  0.45571500  0.28337600  1
  S  S11  1  0.55581700  0.54428500  0.21662400  1
  O  O0  1  0.08340200  0.77768600  0.42385500  1
  O  O1  1  0.58340200  0.22231400  0.07614500  1
  O  O2  1  0.91659800  0.22231400  0.57614500  1
  O  O3  1  0.41659800  0.77768600  0.92385500  1
  O  O4  1  0.19033300  0.02920300  0.43576700  1
  O  O5  1  0.69033300  0.97079700  0.06423300  1
  O  O6  1  0.80966700  0.97079700  0.56423300  1
  O  O7  1  0.30966700  0.02920300  0.93576700  1
  O  O8  1  0.10176200  0.07108400  0.69399600  1
  O  O9  1  0.60176200  0.92891600  0.80600400  1
  O  O10  1  0.89823800  0.92891600  0.30600400  1
  O  O11  1  0.39823800  0.07108400  0.19399600  1
loop_
_geom_bond_atom_site_label_1
_geom_bond_atom_site_label_2
_geom_bond_distance
_geom_bond_site_symmetry_2
Rb0 S4 3.339213 1_554
Rb0 S10 3.397351 1_555
Rb0 S2 3.507608 1_565
Rb0 S0 3.575784 1_454
Rb0 S7 3.606740 1_555
Rb1 S5 3.339213 1_555
Rb1 S11 3.397351 1_555
Rb1 S3 3.507608 1_545
Rb1 S1 3.575784 1_555
Rb1 S6 3.606740 1_555
Rb2 S6 3.339213 1_556
Rb2 S8 3.397351 1_555
Rb2 S0 3.507608 1_545
Rb2 S2 3.575784 1_656
Rb2 S5 3.606740 1_555
Rb3 S7 3.339213 1_555
Rb3 S9 3.397351 1_555
Rb3 S1 3.507608 1_565
Rb3 S3 3.575784 1_555
Rb3 S4 3.606740 1_555
P0 S4 2.032305 1_555
P0 S8 2.034575 1_455
P0 S0 2.044632 1_455
P1 S5 2.032305 1_555
P1 S9 2.034575 1_555
P1 S1 2.044632 1_555
P2 S6 2.032305 1_555
P2 S10 2.034575 1_655
P2 S2 2.044632 1_655
P3 S7 2.032305 1_555
P3 S11 2.034575 1_555
P3 S3 2.044632 1_555
H0 O0 0.994092 1_555
H1 O1 0.994092 1_556
H2 O2 0.994092 1_555
H3 O3 0.994092 1_554
H4 O0 0.997477 1_555
H5 O1 0.997477 1_555
H6 O2 0.997477 1_555
H7 O3 0.997477 1_555
H8 O7 0.991177 1_554
H9 O6 0.991177 1_555
H10 O5 0.991177 1_556
H11 O4 0.991177 1_555
H12 O7 0.997619 1_555
H13 O6 0.997619 1_555
H14 O5 0.997619 1_555
H15 O4 0.997619 1_555
H16 O8 0.997402 1_555
H17 O9 0.997402 1_555
H18 O10 0.997402 1_555
H19 O11 0.997402 1_555
H20 O8 0.992056 1_565
H20 Rb0 3.030059 1_556
H21 O9 0.992056 1_545
H21 Rb1 3.030059 1_555
H22 O10 0.992056 1_545
H22 Rb2 3.030059 1_554
H23 O11 0.992056 1_565
H23 Rb3 3.030059 1_555
O0 Rb0 2.879732 1_555
O1 Rb1 2.879732 1_555
O2 Rb2 2.879732 1_555
O3 Rb3 2.879732 1_555
O4 Rb3 2.933700 1_545
O5 Rb2 2.933700 1_564
O6 Rb1 2.933700 1_565
O7 Rb0 2.933700 1_546
O8 Rb6 3.116733 1_555
O9 Rb7 3.116733 1_555
O10 Rb4 3.116733 1_555
O11 Rb5 3.116733 1_555
