# generated using pymatgen
data_Rb2TeH6SeO10
_symmetry_space_group_name_H-M   'P 1'
_cell_length_a   6.79686800
_cell_length_b   11.96142200
_cell_length_c   13.98501171
_cell_angle_alpha   73.17788203
_cell_angle_beta   90.00000000
_cell_angle_gamma   90.00000000
_symmetry_Int_Tables_number   1
_chemical_formula_structural   Rb2TeH6SeO10
_chemical_formula_sum   'Rb8 Te4 H24 Se4 O40'
_cell_volume   1088.33033524
_cell_formula_units_Z   4
loop_
 _symmetry_equiv_pos_site_id
 _symmetry_equiv_pos_as_xyz
  1  'x, y, z'
loop_
 _atom_site_type_symbol
 _atom_site_label
 _atom_site_symmetry_multiplicity
 _atom_site_fract_x
 _atom_site_fract_y
 _atom_site_fract_z
 _atom_site_occupancy
  Rb  Rb0  1  0.51292900  0.65853600  0.64557000  1
  Rb  Rb1  1  0.98707100  0.15853600  0.64557000  1
  Rb  Rb2  1  0.99971300  0.58972700  0.14542000  1
  Rb  Rb3  1  0.00028700  0.41027300  0.85458000  1
  Rb  Rb4  1  0.01292900  0.84146400  0.35443000  1
  Rb  Rb5  1  0.50028700  0.08972700  0.14542000  1
  Rb  Rb6  1  0.48707100  0.34146400  0.35443000  1
  Rb  Rb7  1  0.49971300  0.91027300  0.85458000  1
  Te  Te0  1  0.00000000  0.00000000  0.00000000  1
  Te  Te1  1  0.50000000  0.50000000  0.00000000  1
  Te  Te2  1  0.00000000  0.50000000  0.50000000  1
  Te  Te3  1  0.50000000  0.00000000  0.50000000  1
  H  H0  1  0.66849000  0.58093900  0.43996100  1
  H  H1  1  0.52909600  0.32730900  0.93223200  1
  H  H2  1  0.77697800  0.41296400  0.64014700  1
  H  H3  1  0.74817400  0.36753400  0.10687500  1
  H  H4  1  0.56358000  0.86832400  0.39501700  1
  H  H5  1  0.72302200  0.91296400  0.64014700  1
  H  H6  1  0.93642000  0.36832400  0.39501700  1
  H  H7  1  0.97090400  0.82730900  0.93223200  1
  H  H8  1  0.70090700  0.63006700  0.86491100  1
  H  H9  1  0.29909300  0.36993300  0.13508900  1
  H  H10  1  0.33151000  0.41906100  0.56003900  1
  H  H11  1  0.20090700  0.86993300  0.13508900  1
  H  H12  1  0.75182600  0.86753400  0.10687500  1
  H  H13  1  0.16849000  0.91906100  0.56003900  1
  H  H14  1  0.25182600  0.63246600  0.89312500  1
  H  H15  1  0.22302200  0.58703600  0.35985300  1
  H  H16  1  0.83151000  0.08093900  0.43996100  1
  H  H17  1  0.47090400  0.67269100  0.06776800  1
  H  H18  1  0.24817400  0.13246600  0.89312500  1
  H  H19  1  0.43642000  0.13167600  0.60498300  1
  H  H20  1  0.79909300  0.13006700  0.86491100  1
  H  H21  1  0.06358000  0.63167600  0.60498300  1
  H  H22  1  0.27697800  0.08703600  0.35985300  1
  H  H23  1  0.02909600  0.17269100  0.06776800  1
  Se  Se0  1  0.49789100  0.26797300  0.74792000  1
  Se  Se1  1  0.50210900  0.73202700  0.25208000  1
  Se  Se2  1  0.99789100  0.23202700  0.25208000  1
  Se  Se3  1  0.00210900  0.76797300  0.74792000  1
  O  O0  1  0.88195400  0.05954100  0.86749600  1
  O  O1  1  0.11804600  0.94045900  0.13250400  1
  O  O2  1  0.64243700  0.88827000  0.44899800  1
  O  O3  1  0.61804600  0.55954100  0.86749600  1
  O  O4  1  0.75978200  0.44040300  0.04922100  1
  O  O5  1  0.07542600  0.58862100  0.36431600  1
  O  O6  1  0.97426300  0.89993400  0.66375800  1
  O  O7  1  0.14243700  0.61173000  0.55100200  1
  O  O8  1  0.26240200  0.90418800  0.51060200  1
  O  O9  1  0.26535900  0.25095800  0.78833300  1
  O  O10  1  0.44289600  0.83842900  0.30285900  1
  O  O11  1  0.73759800  0.09581200  0.48939800  1
  O  O12  1  0.47426300  0.60006600  0.33624200  1
  O  O13  1  0.42930100  0.35319700  0.97344200  1
  O  O14  1  0.57069900  0.64680300  0.02655800  1
  O  O15  1  0.76535900  0.24904200  0.21166700  1
  O  O16  1  0.73464100  0.74904200  0.21166700  1
  O  O17  1  0.92930100  0.14680300  0.02655800  1
  O  O18  1  0.07069900  0.85319700  0.97344200  1
  O  O19  1  0.24021800  0.55959700  0.95077900  1
  O  O20  1  0.84607100  0.75692900  0.84416000  1
  O  O21  1  0.35756300  0.11173000  0.55100200  1
  O  O22  1  0.74021800  0.94040300  0.04922100  1
  O  O23  1  0.23759800  0.40418800  0.51060200  1
  O  O24  1  0.42457400  0.08862100  0.36431600  1
  O  O25  1  0.52573700  0.39993400  0.66375800  1
  O  O26  1  0.85756300  0.38827000  0.44899800  1
  O  O27  1  0.23464100  0.75095800  0.78833300  1
  O  O28  1  0.55710400  0.16157100  0.69714100  1
  O  O29  1  0.38195400  0.44045900  0.13250400  1
  O  O30  1  0.57542600  0.91137900  0.63568400  1
  O  O31  1  0.02573700  0.10006600  0.33624200  1
  O  O32  1  0.34607100  0.74307100  0.15584000  1
  O  O33  1  0.76240200  0.59581200  0.48939800  1
  O  O34  1  0.15392900  0.24307100  0.15584000  1
  O  O35  1  0.05710400  0.33842900  0.30285900  1
  O  O36  1  0.65392900  0.25692900  0.84416000  1
  O  O37  1  0.25978200  0.05959700  0.95077900  1
  O  O38  1  0.92457400  0.41137900  0.63568400  1
  O  O39  1  0.94289600  0.66157100  0.69714100  1
loop_
_geom_bond_atom_site_label_1
_geom_bond_atom_site_label_2
_geom_bond_distance
_geom_bond_site_symmetry_2
H0 O33 0.994122 1_555
H1 O13 0.995697 1_555
H2 O38 1.005650 1_555
H3 O4 1.004628 1_555
H4 O2 1.009137 1_555
H4 O10 1.651833 1_555
H5 O30 1.005650 1_555
H6 O26 1.009137 1_555
H6 O35 1.651833 1_655
H7 O18 0.995697 1_655
H8 O3 1.006226 1_555
H9 O29 1.006226 1_555
H10 O23 0.994122 1_555
H11 O1 1.006226 1_555
H12 O22 1.004628 1_555
H13 O8 0.994122 1_555
H14 O19 1.004628 1_555
H15 O5 1.005650 1_555
H16 O11 0.994122 1_555
H17 O14 0.995697 1_555
H18 O37 1.004628 1_555
H19 O21 1.009137 1_555
H19 O28 1.651833 1_555
H20 O0 1.006226 1_555
H21 O7 1.009137 1_555
H21 O39 1.651833 1_455
H22 O24 1.005650 1_555
H23 O17 0.995697 1_455
O0 Te0 1.954731 1_656
O0 Rb1 3.068880 1_555
O0 Rb7 3.187001 1_545
O1 Te0 1.954731 1_565
O1 Rb4 3.068880 1_555
O1 Rb5 3.187001 1_565
O2 Te3 1.945212 1_565
O2 Rb4 2.971931 1_655
O3 Te1 1.954731 1_556
O3 Rb0 3.068880 1_555
O3 Rb3 3.187001 1_655
O4 Te1 1.953382 1_555
O4 Rb2 3.008402 1_555
O4 Rb3 3.283212 1_654
O5 Te2 1.955229 1_555
O5 Rb4 3.017334 1_555
O5 Rb2 3.100466 1_455
O6 Se3 1.684435 1_655
O6 Rb1 3.030686 1_565
O7 Te2 1.945212 1_555
O7 Rb0 2.971931 1_555
O8 Te3 1.960875 1_565
O8 Rb4 3.026000 1_555
O9 Se0 1.670992 1_555
O9 Rb3 2.959330 1_555
O9 Rb1 3.172310 1_455
O10 Se1 1.676075 1_555
O10 Rb4 3.012843 1_555
O10 Rb5 3.194472 1_565
O11 Te3 1.960875 1_555
O11 Rb1 3.026000 1_555
O12 Se1 1.684435 1_555
O12 Rb6 3.030686 1_555
O13 Te1 1.956985 1_556
O13 Rb3 3.327943 1_555
O13 Rb5 3.400300 1_556
O14 Te1 1.956985 1_555
O14 Rb2 3.327943 1_555
O14 Rb7 3.400300 1_554
O15 Se2 1.670992 1_555
O15 Rb5 2.959330 1_555
O15 Rb6 3.172310 1_555
O16 Se1 1.670992 1_555
O16 Rb2 2.959330 1_555
O16 Rb4 3.172310 1_655
O17 Te0 1.956985 1_655
O17 Rb5 3.327943 1_555
O17 Rb3 3.400300 1_654
O18 Te0 1.956985 1_566
O18 Rb7 3.327943 1_555
O18 Rb2 3.400300 1_456
O19 Te1 1.953382 1_556
O19 Rb3 3.008402 1_555
O19 Rb2 3.283212 1_456
O20 Se3 1.688444 1_655
O20 Rb7 3.013685 1_555
O21 Te3 1.945212 1_555
O21 Rb1 2.971931 1_455
O22 Te0 1.953382 1_665
O22 Rb5 3.008402 1_565
O22 Rb7 3.283212 1_554
O23 Te2 1.960875 1_555
O23 Rb6 3.026000 1_555
O24 Te3 1.955229 1_555
O24 Rb6 3.017334 1_555
O24 Rb5 3.100466 1_555
O25 Se0 1.684435 1_555
O25 Rb0 3.030686 1_555
O26 Te2 1.945212 1_655
O26 Rb6 2.971931 1_555
O27 Se3 1.670992 1_555
O27 Rb7 2.959330 1_555
O27 Rb0 3.172310 1_555
O28 Se0 1.676075 1_555
O28 Rb1 3.012843 1_555
O28 Rb7 3.194472 1_545
O29 Te1 1.954731 1_555
O29 Rb6 3.068880 1_555
O29 Rb2 3.187001 1_455
O30 Te3 1.955229 1_565
O30 Rb0 3.017334 1_555
O30 Rb7 3.100466 1_555
O31 Se2 1.684435 1_455
O31 Rb4 3.030686 1_545
O32 Se1 1.688444 1_555
O32 Rb2 3.013685 1_455
O33 Te2 1.960875 1_655
O33 Rb0 3.026000 1_555
O34 Se2 1.688444 1_455
O34 Rb5 3.013685 1_555
O35 Se2 1.676075 1_455
O35 Rb6 3.012843 1_555
O35 Rb2 3.194472 1_455
O36 Se0 1.688444 1_555
O36 Rb3 3.013685 1_655
O37 Te0 1.953382 1_556
O37 Rb7 3.008402 1_545
O37 Rb5 3.283212 1_556
O38 Te2 1.955229 1_655
O38 Rb1 3.017334 1_555
O38 Rb3 3.100466 1_655
O39 Se3 1.676075 1_655
O39 Rb0 3.012843 1_555
O39 Rb3 3.194472 1_655
