# generated using pymatgen
data_Li2VOF4
_symmetry_space_group_name_H-M   'P 1'
_cell_length_a   3.70099193
_cell_length_b   11.52468270
_cell_length_c   9.99363121
_cell_angle_alpha   64.28790689
_cell_angle_beta   90.14719367
_cell_angle_gamma   99.10361112
_symmetry_Int_Tables_number   1
_chemical_formula_structural   Li2VOF4
_chemical_formula_sum   'Li8 V4 O4 F16'
_cell_volume   378.16547134
_cell_formula_units_Z   4
loop_
 _symmetry_equiv_pos_site_id
 _symmetry_equiv_pos_as_xyz
  1  'x, y, z'
loop_
 _atom_site_type_symbol
 _atom_site_label
 _atom_site_symmetry_multiplicity
 _atom_site_fract_x
 _atom_site_fract_y
 _atom_site_fract_z
 _atom_site_occupancy
  Li  Li0  1  0.96225900  0.92134200  0.90393400  1
  Li  Li1  1  0.45866400  0.92126600  0.40385900  1
  Li  Li2  1  0.20461800  0.42151500  0.92467600  1
  Li  Li3  1  0.70486600  0.42130900  0.42472400  1
  Li  Li4  1  0.61624300  0.24841600  0.19283000  1
  Li  Li5  1  0.12580700  0.24847900  0.69296400  1
  Li  Li6  1  0.37096900  0.74865400  0.80847500  1
  Li  Li7  1  0.87747500  0.74833700  0.30866100  1
  V  V0  1  0.31927400  0.55904100  0.58209500  1
  V  V1  1  0.57181200  0.05916500  0.60880400  1
  V  V2  1  0.81767400  0.55893000  0.08202300  1
  V  V3  1  0.98556800  0.05902200  0.10902100  1
  O  O0  1  0.28135500  0.56768000  0.05714200  1
  O  O1  1  0.78334800  0.56784800  0.55717900  1
  O  O2  1  0.53042400  0.06783200  0.12504100  1
  O  O3  1  0.03553100  0.06802800  0.62500900  1
  F  F0  1  0.55408900  0.12393200  0.39877500  1
  F  F1  1  0.06638300  0.12366600  0.89897700  1
  F  F2  1  0.30023700  0.62374300  0.72734200  1
  F  F3  1  0.79890500  0.62365500  0.22732400  1
  F  F4  1  0.69351800  0.39075400  0.25057600  1
  F  F5  1  0.19526900  0.39084900  0.75063600  1
  F  F6  1  0.44781200  0.89098600  0.60843500  1
  F  F7  1  0.94784200  0.89082400  0.10872000  1
  F  F8  1  0.47430700  0.95170300  0.82912400  1
  F  F9  1  0.97669600  0.95165500  0.32935600  1
  F  F10  1  0.71832900  0.45156900  0.96911700  1
  F  F11  1  0.21934800  0.45167100  0.46917000  1
  F  F12  1  0.86340200  0.73696500  0.90387900  1
  F  F13  1  0.36603400  0.73702800  0.40389100  1
  F  F14  1  0.11544800  0.23699000  0.10912200  1
  F  F15  1  0.61648600  0.23714200  0.60912500  1
loop_
_geom_bond_atom_site_label_1
_geom_bond_atom_site_label_2
_geom_bond_distance
_geom_bond_site_symmetry_2
Li0 O3 2.543890 1_665
Li1 O2 2.542770 1_565
Li2 O0 2.540144 1_556
Li3 O1 2.543855 1_555
Li4 O2 2.429858 1_555
Li5 O3 2.429437 1_555
Li6 O0 2.433859 1_556
Li7 O1 2.430820 1_555
O0 V2 1.715401 1_455
O0 V2 2.012690 1_555
O1 V0 1.716779 1_555
O1 V0 2.011379 1_655
O2 V3 1.715529 1_555
O2 V3 2.012437 1_455
O3 V1 1.714504 1_455
O3 V1 2.013985 1_555
F0 V1 1.903263 1_555
F0 Li4 1.919114 1_555
F0 Li1 2.284452 1_545
F1 V3 1.904335 1_456
F1 Li5 1.920610 1_555
F1 Li0 2.281098 1_445
F2 V0 1.903758 1_555
F2 Li6 1.921127 1_555
F2 Li2 2.280486 1_555
F3 V2 1.904354 1_555
F3 Li7 1.920954 1_555
F3 Li3 2.281644 1_555
F4 Li3 1.918689 1_555
F4 V2 1.922076 1_555
F4 Li4 1.943670 1_555
F5 Li2 1.918443 1_555
F5 V0 1.922087 1_555
F5 Li5 1.943375 1_555
F6 Li1 1.918365 1_555
F6 V1 1.921459 1_565
F6 Li6 1.943705 1_555
F7 Li0 1.919634 1_554
F7 V3 1.922608 1_565
F7 Li7 1.943502 1_555
F8 Li0 1.960405 1_455
F8 Li0 1.977044 1_555
F8 V1 2.002125 1_565
F8 Li6 2.408361 1_555
F9 Li1 1.955356 1_655
F9 Li1 1.980251 1_555
F9 V3 2.001024 1_565
F9 Li7 2.411621 1_555
F10 Li2 1.962826 1_555
F10 Li2 1.972604 1_655
F10 V2 2.001139 1_556
F10 Li4 2.409405 1_556
F11 Li3 1.965957 1_455
F11 Li3 1.971421 1_555
F11 V0 2.001566 1_555
F11 Li5 2.410096 1_555
F12 V2 2.032268 1_556
F12 Li6 2.050846 1_555
F12 Li6 2.067275 1_655
F12 Li0 2.098572 1_555
F13 V0 2.031911 1_555
F13 Li7 2.037211 1_455
F13 Li7 2.080651 1_555
F13 Li1 2.096410 1_555
F14 V3 2.031644 1_455
F14 Li4 2.040287 1_555
F14 Li4 2.076323 1_455
F14 Li2 2.099701 1_554
F15 V1 2.032945 1_555
F15 Li5 2.048124 1_555
F15 Li5 2.069109 1_655
F15 Li3 2.097004 1_555
