# generated using pymatgen
data_Yb2Mn(GeO3)4
_symmetry_space_group_name_H-M   'P 1'
_cell_length_a   4.89896100
_cell_length_b   9.96656274
_cell_length_c   9.96656274
_cell_angle_alpha   91.12434542
_cell_angle_beta   90.00000000
_cell_angle_gamma   90.00000000
_symmetry_Int_Tables_number   1
_chemical_formula_structural   Yb2Mn(GeO3)4
_chemical_formula_sum   'Yb4 Mn2 Ge8 O24'
_cell_volume   486.53172810
_cell_formula_units_Z   2
loop_
 _symmetry_equiv_pos_site_id
 _symmetry_equiv_pos_as_xyz
  1  'x, y, z'
loop_
 _atom_site_type_symbol
 _atom_site_label
 _atom_site_symmetry_multiplicity
 _atom_site_fract_x
 _atom_site_fract_y
 _atom_site_fract_z
 _atom_site_occupancy
  Yb  Yb0  1  0.50000000  0.00000000  0.50000000  1
  Yb  Yb1  1  0.50000000  0.50000000  0.00000000  1
  Yb  Yb2  1  0.50000000  0.75000000  0.75000000  1
  Yb  Yb3  1  0.50000000  0.25000000  0.25000000  1
  Mn  Mn0  1  0.50000000  0.50000000  0.50000000  1
  Mn  Mn1  1  0.50000000  0.00000000  0.00000000  1
  Ge  Ge0  1  0.98771200  0.74673300  0.47558500  1
  Ge  Ge1  1  0.01228800  0.25326700  0.52441500  1
  Ge  Ge2  1  0.01228800  0.24673300  0.97558500  1
  Ge  Ge3  1  0.98771200  0.75326700  0.02441500  1
  Ge  Ge4  1  0.01228800  0.47558500  0.74673300  1
  Ge  Ge5  1  0.98771200  0.52441500  0.25326700  1
  Ge  Ge6  1  0.98771200  0.97558500  0.24673300  1
  Ge  Ge7  1  0.01228800  0.02441500  0.75326700  1
  O  O0  1  0.28044500  0.55101800  0.65710100  1
  O  O1  1  0.23271400  0.07257200  0.32860300  1
  O  O2  1  0.23271400  0.42742800  0.17139700  1
  O  O3  1  0.28044500  0.94898200  0.84289900  1
  O  O4  1  0.71955500  0.44898200  0.34289900  1
  O  O5  1  0.76728600  0.92742800  0.67139700  1
  O  O6  1  0.76728600  0.57257200  0.82860300  1
  O  O7  1  0.71955500  0.05101800  0.15710100  1
  O  O8  1  0.71955500  0.65710100  0.55101800  1
  O  O9  1  0.76728600  0.32860300  0.07257200  1
  O  O10  1  0.76728600  0.17139700  0.42742800  1
  O  O11  1  0.71955500  0.84289900  0.94898200  1
  O  O12  1  0.28044500  0.34289900  0.44898200  1
  O  O13  1  0.23271400  0.67139700  0.92742800  1
  O  O14  1  0.23271400  0.82860300  0.57257200  1
  O  O15  1  0.28044500  0.15710100  0.05101800  1
  O  O16  1  0.82309800  0.36970300  0.63029700  1
  O  O17  1  0.82221500  0.86914200  0.36914200  1
  O  O18  1  0.82221500  0.63085800  0.13085800  1
  O  O19  1  0.82309800  0.13029700  0.86970300  1
  O  O20  1  0.17690200  0.63029700  0.36970300  1
  O  O21  1  0.17778500  0.13085800  0.63085800  1
  O  O22  1  0.17778500  0.36914200  0.86914200  1
  O  O23  1  0.17690200  0.86970300  0.13029700  1
loop_
_geom_bond_atom_site_label_1
_geom_bond_atom_site_label_2
_geom_bond_distance
_geom_bond_site_symmetry_2
Mn0 O4 1.958518 1_555
Mn0 O12 1.958518 1_555
Mn0 O8 1.958518 1_555
Mn0 O0 1.958518 1_555
Mn0 O16 2.438108 1_555
Mn0 O20 2.438108 1_555
Mn1 O7 1.958518 1_555
Mn1 O15 1.958518 1_555
Mn1 O11 1.958518 1_544
Mn1 O3 1.958518 1_544
Mn1 O19 2.438108 1_554
Mn1 O23 2.438108 1_545
Ge0 O14 1.734884 1_655
Ge0 O8 1.765044 1_555
Ge0 O20 1.808663 1_655
Ge0 O17 1.822627 1_555
Ge1 O10 1.734884 1_455
Ge1 O12 1.765044 1_555
Ge1 O16 1.808663 1_455
Ge1 O21 1.822627 1_555
Ge2 O9 1.734884 1_456
Ge2 O15 1.765044 1_556
Ge2 O19 1.808663 1_455
Ge2 O22 1.822627 1_555
Ge3 O13 1.734884 1_654
Ge3 O11 1.765044 1_554
Ge3 O23 1.808663 1_655
Ge3 O18 1.822627 1_555
Ge4 O6 1.734884 1_455
Ge4 O0 1.765044 1_555
Ge4 O16 1.808663 1_455
Ge4 O22 1.822627 1_555
Ge5 O2 1.734884 1_655
Ge5 O4 1.765044 1_555
Ge5 O20 1.808663 1_655
Ge5 O18 1.822627 1_555
Ge6 O1 1.734884 1_665
Ge6 O7 1.765044 1_565
Ge6 O23 1.808663 1_655
Ge6 O17 1.822627 1_555
Ge7 O5 1.734884 1_445
Ge7 O3 1.765044 1_545
Ge7 O19 1.808663 1_455
Ge7 O21 1.822627 1_555
O0 Yb2 2.423850 1_555
O1 Yb0 2.281296 1_555
O1 Yb3 2.347281 1_555
O2 Yb1 2.281296 1_555
O2 Yb3 2.347281 1_555
O3 Yb2 2.423850 1_555
O4 Yb3 2.423850 1_555
O5 Yb0 2.281296 1_565
O5 Yb2 2.347281 1_555
O6 Yb1 2.281296 1_556
O6 Yb2 2.347281 1_555
O7 Yb3 2.423850 1_555
O8 Yb2 2.423850 1_555
O9 Yb1 2.281296 1_555
O9 Yb3 2.347281 1_555
O10 Yb0 2.281296 1_555
O10 Yb3 2.347281 1_555
O11 Yb2 2.423850 1_555
O12 Yb3 2.423850 1_555
O13 Yb1 2.281296 1_556
O13 Yb2 2.347281 1_555
O14 Yb0 2.281296 1_565
O14 Yb2 2.347281 1_555
O15 Yb3 2.423850 1_555
O17 Yb0 2.413890 1_565
O18 Yb1 2.413890 1_555
O21 Yb0 2.413890 1_555
O22 Yb1 2.413890 1_556
