# generated using pymatgen
data_TbMn3
_symmetry_space_group_name_H-M   'P 1'
_cell_length_a   5.95107960
_cell_length_b   5.95107960
_cell_length_c   4.57960200
_cell_angle_alpha   90.00000000
_cell_angle_beta   90.00000000
_cell_angle_gamma   119.99999557
_symmetry_Int_Tables_number   1
_chemical_formula_structural   TbMn3
_chemical_formula_sum   'Tb2 Mn6'
_cell_volume   140.45910808
_cell_formula_units_Z   2
loop_
 _symmetry_equiv_pos_site_id
 _symmetry_equiv_pos_as_xyz
  1  'x, y, z'
loop_
 _atom_site_type_symbol
 _atom_site_label
 _atom_site_symmetry_multiplicity
 _atom_site_fract_x
 _atom_site_fract_y
 _atom_site_fract_z
 _atom_site_occupancy
  Tb  Tb0  1  0.33333300  0.66666700  0.75000000  1
  Tb  Tb1  1  0.66666700  0.33333300  0.25000000  1
  Mn  Mn0  1  0.14903000  0.29806000  0.25000000  1
  Mn  Mn1  1  0.70194000  0.85097000  0.25000000  1
  Mn  Mn2  1  0.14903000  0.85097000  0.25000000  1
  Mn  Mn3  1  0.85097000  0.70194000  0.75000000  1
  Mn  Mn4  1  0.29806000  0.14903000  0.75000000  1
  Mn  Mn5  1  0.85097000  0.14903000  0.75000000  1
loop_
_geom_bond_atom_site_label_1
_geom_bond_atom_site_label_2
_geom_bond_distance
_geom_bond_site_symmetry_2
Mn0 Mn2 2.660668 1_545
Mn0 Mn1 2.660668 1_445
Mn0 Mn4 2.757337 1_554
Mn0 Mn4 2.757337 1_555
Mn0 Mn5 2.757337 1_455
Mn0 Mn5 2.757337 1_454
Mn0 Tb0 2.975253 1_555
Mn0 Tb0 2.975253 1_554
Mn0 Tb1 2.981085 1_455
Mn0 Tb1 2.981091 1_555
Mn0 Mn2 3.290411 1_555
Mn0 Mn1 3.290412 1_555
Mn1 Mn2 2.660668 1_655
Mn1 Mn3 2.757337 1_555
Mn1 Mn3 2.757337 1_554
Mn1 Mn5 2.757337 1_564
Mn1 Mn5 2.757337 1_565
Mn1 Tb0 2.975253 1_555
Mn1 Tb0 2.975253 1_554
Mn1 Tb1 2.981085 1_565
Mn1 Tb1 2.981091 1_555
Mn1 Mn2 3.290411 1_555
Mn2 Mn3 2.757337 1_455
Mn2 Mn3 2.757337 1_454
Mn2 Mn4 2.757337 1_565
Mn2 Mn4 2.757337 1_564
Mn2 Tb0 2.975250 1_555
Mn2 Tb0 2.975250 1_554
Mn2 Tb1 2.981088 1_455
Mn2 Tb1 2.981088 1_565
Mn3 Mn5 2.660668 1_565
Mn3 Mn4 2.660668 1_665
Mn3 Tb1 2.975253 1_555
Mn3 Tb1 2.975253 1_556
Mn3 Tb0 2.981085 1_655
Mn3 Tb0 2.981091 1_555
Mn3 Mn5 3.290411 1_555
Mn3 Mn4 3.290412 1_555
Mn4 Mn5 2.660668 1_455
Mn4 Tb1 2.975253 1_555
Mn4 Tb1 2.975253 1_556
Mn4 Tb0 2.981085 1_545
Mn4 Tb0 2.981091 1_555
Mn4 Mn5 3.290411 1_555
Mn5 Tb1 2.975250 1_555
Mn5 Tb1 2.975250 1_556
Mn5 Tb0 2.981088 1_545
Mn5 Tb0 2.981088 1_655
