# generated using pymatgen
data_Na2CoSe2
_symmetry_space_group_name_H-M   'P 1'
_cell_length_a   7.44184719
_cell_length_b   7.44184719
_cell_length_c   7.44184719
_cell_angle_alpha   133.88223129
_cell_angle_beta   128.19976313
_cell_angle_gamma   71.84531558
_symmetry_Int_Tables_number   1
_chemical_formula_structural   Na2CoSe2
_chemical_formula_sum   'Na4 Co2 Se4'
_cell_volume   228.40177598
_cell_formula_units_Z   2
loop_
 _symmetry_equiv_pos_site_id
 _symmetry_equiv_pos_as_xyz
  1  'x, y, z'
loop_
 _atom_site_type_symbol
 _atom_site_label
 _atom_site_symmetry_multiplicity
 _atom_site_fract_x
 _atom_site_fract_y
 _atom_site_fract_z
 _atom_site_occupancy
  Na  Na0  1  0.81219000  0.64216500  0.17002600  1
  Na  Na1  1  0.18781000  0.35783500  0.82997400  1
  Na  Na2  1  0.47213900  0.14216500  0.32997400  1
  Na  Na3  1  0.52786100  0.85783500  0.67002600  1
  Co  Co0  1  0.00000000  0.75000000  0.75000000  1
  Co  Co1  1  0.00000000  0.25000000  0.25000000  1
  Se  Se0  1  0.67684000  0.38682500  0.29001500  1
  Se  Se1  1  0.32316000  0.61317500  0.70998500  1
  Se  Se2  1  0.09681100  0.88682500  0.20998500  1
  Se  Se3  1  0.90318900  0.11317500  0.79001500  1
loop_
_geom_bond_atom_site_label_1
_geom_bond_atom_site_label_2
_geom_bond_distance
_geom_bond_site_symmetry_2
Na0 Se2 2.960311 1_655
Na0 Se1 3.011180 1_554
Na0 Se3 3.037544 1_554
Na0 Se3 3.037544 1_565
Na0 Se0 3.174922 1_555
Na1 Se3 2.960311 1_455
Na1 Se0 3.011180 1_556
Na1 Se2 3.037544 1_545
Na1 Se2 3.037544 1_556
Na1 Se1 3.174922 1_555
Na2 Se0 2.960298 1_555
Na2 Se3 3.011182 1_555
Na2 Se1 3.037544 1_544
Na2 Se1 3.037544 1_555
Na2 Se2 3.174920 1_545
Na3 Se1 2.960298 1_555
Na3 Se2 3.011182 1_555
Na3 Se0 3.037544 1_566
Na3 Se0 3.037544 1_555
Na3 Se3 3.174920 1_565
Co0 Se2 2.418352 1_556
Co0 Se1 2.418355 1_555
Co0 Se0 2.418355 1_455
Co0 Se3 2.418356 1_465
Co0 Na0 3.108406 1_455
Co0 Na2 3.108408 1_566
Co0 Na3 3.108408 1_455
Co0 Na1 3.108408 1_555
Co1 Se3 2.418352 1_454
Co1 Se0 2.418355 1_455
Co1 Se1 2.418355 1_555
Co1 Se2 2.418356 1_545
Co1 Na1 3.108406 1_555
Co1 Na3 3.108408 1_444
Co1 Na2 3.108408 1_555
Co1 Na0 3.108408 1_455
