# generated using pymatgen
data_WN2
_symmetry_space_group_name_H-M   'P 1'
_cell_length_a   5.95328337
_cell_length_b   5.95328337
_cell_length_c   5.95328337
_cell_angle_alpha   142.85056937
_cell_angle_beta   142.85056937
_cell_angle_gamma   53.54961584
_symmetry_Int_Tables_number   1
_chemical_formula_structural   WN2
_chemical_formula_sum   'W2 N4'
_cell_volume   76.45515899
_cell_formula_units_Z   2
loop_
 _symmetry_equiv_pos_site_id
 _symmetry_equiv_pos_as_xyz
  1  'x, y, z'
loop_
 _atom_site_type_symbol
 _atom_site_label
 _atom_site_symmetry_multiplicity
 _atom_site_fract_x
 _atom_site_fract_y
 _atom_site_fract_z
 _atom_site_occupancy
  W  W0  1  0.00000000  0.00000000  0.00000000  1
  W  W1  1  0.75000000  0.25000000  0.50000000  1
  N  N0  1  0.80262400  0.80262400  0.00000000  1
  N  N1  1  0.94737600  0.44737600  0.50000000  1
  N  N2  1  0.55262400  0.05262400  0.50000000  1
  N  N3  1  0.19737600  0.19737600  0.00000000  1
loop_
_geom_bond_atom_site_label_1
_geom_bond_atom_site_label_2
_geom_bond_distance
_geom_bond_site_symmetry_2
N0 W1 1.977150 1_565
N0 W1 1.977150 1_554
N0 W0 2.098105 1_665
N1 W0 1.977150 1_655
N1 W0 1.977150 1_666
N1 W1 2.098105 1_555
N2 W0 1.977150 1_656
N2 W0 1.977150 1_555
N2 W1 2.098105 1_555
N3 W1 1.977150 1_454
N3 W1 1.977150 1_555
N3 W0 2.098105 1_555
