# generated using pymatgen
data_Li3CoRuO5
_symmetry_space_group_name_H-M   'P 1'
_cell_length_a   5.17928542
_cell_length_b   7.92676499
_cell_length_c   5.12686871
_cell_angle_alpha   96.19674536
_cell_angle_beta   70.70643902
_cell_angle_gamma   109.06835371
_symmetry_Int_Tables_number   1
_chemical_formula_structural   Li3CoRuO5
_chemical_formula_sum   'Li6 Co2 Ru2 O10'
_cell_volume   187.76162794
_cell_formula_units_Z   2
loop_
 _symmetry_equiv_pos_site_id
 _symmetry_equiv_pos_as_xyz
  1  'x, y, z'
loop_
 _atom_site_type_symbol
 _atom_site_label
 _atom_site_symmetry_multiplicity
 _atom_site_fract_x
 _atom_site_fract_y
 _atom_site_fract_z
 _atom_site_occupancy
  Li  Li0  1  0.00077400  0.00154700  0.00000000  1
  Li  Li1  1  0.60164400  0.20328900  0.00000000  1
  Li  Li2  1  0.20000000  0.40000000  0.00000000  1
  Li  Li3  1  0.79835600  0.59671100  0.00000000  1
  Li  Li4  1  0.39922600  0.79845300  0.00000000  1
  Li  Li5  1  0.70000000  0.40000000  0.50000000  1
  Co  Co0  1  0.89766200  0.79532400  0.50000000  1
  Co  Co1  1  0.50233800  0.00467600  0.50000000  1
  Ru  Ru0  1  0.30080100  0.60160300  0.50000000  1
  Ru  Ru1  1  0.09919900  0.19839700  0.50000000  1
  O  O0  1  0.86001300  0.19587400  0.27057000  1
  O  O1  1  0.42800300  0.40000000  0.26678700  1
  O  O2  1  0.06413900  0.60412600  0.27057000  1
  O  O3  1  0.63275500  0.78993000  0.26633500  1
  O  O4  1  0.24282500  0.01007000  0.26633500  1
  O  O5  1  0.53998700  0.60412600  0.72943000  1
  O  O6  1  0.15717500  0.78993000  0.73366500  1
  O  O7  1  0.76724500  0.01007000  0.73366500  1
  O  O8  1  0.33586100  0.19587400  0.72943000  1
  O  O9  1  0.97199700  0.40000000  0.73321300  1
loop_
_geom_bond_atom_site_label_1
_geom_bond_atom_site_label_2
_geom_bond_distance
_geom_bond_site_symmetry_2
Li0 O8 2.105399 1_554
Li0 O0 2.105401 1_455
Li0 O4 2.120528 1_555
Li0 O7 2.120532 1_454
Li0 O6 2.235373 1_544
Li0 O3 2.235375 1_445
Li1 O4 2.139823 1_555
Li1 O7 2.139826 1_554
Li1 O1 2.180357 1_555
Li1 O9 2.180359 1_554
Li1 O8 2.239204 1_554
Li1 O0 2.239209 1_555
Li2 O1 2.081511 1_555
Li2 O9 2.081511 1_454
Li2 O5 2.156816 1_554
Li2 O0 2.156816 1_455
Li2 O8 2.156816 1_554
Li2 O2 2.156816 1_555
Li3 O6 2.139823 1_654
Li3 O3 2.139826 1_555
Li3 O9 2.180357 1_554
Li3 O1 2.180359 1_555
Li3 O2 2.239204 1_655
Li3 O5 2.239209 1_554
Li4 O2 2.105399 1_555
Li4 O5 2.105401 1_554
Li4 O6 2.120528 1_554
Li4 O3 2.120532 1_555
Li4 O4 2.235373 1_565
Li4 O7 2.235375 1_564
Li5 O2 2.123591 1_655
Li5 O8 2.123591 1_555
Li5 O5 2.123591 1_555
Li5 O0 2.123591 1_555
Li5 O1 2.127728 1_555
Li5 O9 2.127728 1_555
Co0 O5 2.054942 1_555
Co0 O2 2.054942 1_655
Co0 O6 2.087148 1_655
Co0 O3 2.087148 1_555
Co0 O4 2.136661 1_665
Co0 O7 2.136661 1_565
Co1 O0 2.054942 1_555
Co1 O8 2.054942 1_555
Co1 O4 2.087148 1_555
Co1 O7 2.087148 1_555
Co1 O6 2.136661 1_545
Co1 O3 2.136661 1_545
O0 Ru1 1.964762 1_655
O1 Ru1 2.042617 1_555
O1 Ru0 2.042619 1_555
O2 Ru0 1.964758 1_555
O3 Ru0 1.991892 1_555
O4 Ru1 1.991890 1_555
O5 Ru0 1.964762 1_555
O6 Ru0 1.991890 1_555
O7 Ru1 1.991892 1_655
O8 Ru1 1.964758 1_555
O9 Ru0 2.042617 1_655
O9 Ru1 2.042619 1_655
