# generated using pymatgen
data_V2ZnO4
_symmetry_space_group_name_H-M   'P 1'
_cell_length_a   6.08459290
_cell_length_b   6.08459290
_cell_length_c   20.10180241
_cell_angle_alpha   81.96503642
_cell_angle_beta   81.96503642
_cell_angle_gamma   59.91904434
_symmetry_Int_Tables_number   1
_chemical_formula_structural   V2ZnO4
_chemical_formula_sum   'V16 Zn8 O32'
_cell_volume   635.54575756
_cell_formula_units_Z   8
loop_
 _symmetry_equiv_pos_site_id
 _symmetry_equiv_pos_as_xyz
  1  'x, y, z'
loop_
 _atom_site_type_symbol
 _atom_site_label
 _atom_site_symmetry_multiplicity
 _atom_site_fract_x
 _atom_site_fract_y
 _atom_site_fract_z
 _atom_site_occupancy
  V  V0  1  0.37604100  0.87052800  0.87484600  1
  V  V1  1  0.24945900  0.24945900  0.74879100  1
  V  V2  1  0.87052800  0.37604100  0.87484600  1
  V  V3  1  0.34773200  0.34773200  0.46743900  1
  V  V4  1  0.12333300  0.62276500  0.62507900  1
  V  V5  1  0.90291100  0.90291100  0.78100000  1
  V  V6  1  0.09834000  0.09834000  0.21841400  1
  V  V7  1  0.62276500  0.12333300  0.62507900  1
  V  V8  1  0.87457000  0.37522200  0.37554400  1
  V  V9  1  0.64983400  0.64983400  0.53415000  1
  V  V10  1  0.37522200  0.87457000  0.37554400  1
  V  V11  1  0.12460200  0.62795100  0.12518600  1
  V  V12  1  0.62795100  0.12460200  0.12518600  1
  V  V13  1  0.40159300  0.40159300  0.28287400  1
  V  V14  1  0.50205200  0.50205200  0.99847200  1
  V  V15  1  0.15440100  0.15440100  0.03029600  1
  Zn  Zn0  1  0.84775300  0.84775300  0.96887100  1
  Zn  Zn1  1  0.37549000  0.37549000  0.87467000  1
  Zn  Zn2  1  0.59934500  0.59934500  0.71790800  1
  Zn  Zn3  1  0.12439400  0.12439400  0.62568800  1
  Zn  Zn4  1  0.87444300  0.87444300  0.37564500  1
  Zn  Zn5  1  0.00091600  0.00091600  0.50008700  1
  Zn  Zn6  1  0.62756700  0.62756700  0.12498900  1
  Zn  Zn7  1  0.74842500  0.74842500  0.25037100  1
  O  O0  1  0.68497400  0.21511200  0.93561300  1
  O  O1  1  0.56622900  0.56622900  0.81973200  1
  O  O2  1  0.21511200  0.68497400  0.93561300  1
  O  O3  1  0.67451600  0.67451600  0.93743100  1
  O  O4  1  0.07279300  0.07279300  0.81184900  1
  O  O5  1  0.43133100  0.96591900  0.68524700  1
  O  O6  1  0.54086300  0.06078900  0.81405700  1
  O  O7  1  0.31572600  0.31572600  0.56539800  1
  O  O8  1  0.96591900  0.43133100  0.68524700  1
  O  O9  1  0.18298700  0.18298700  0.93134100  1
  O  O10  1  0.42308200  0.42308200  0.68549700  1
  O  O11  1  0.06078900  0.54086300  0.81405700  1
  O  O12  1  0.18480300  0.70679500  0.43467200  1
  O  O13  1  0.81454300  0.81454300  0.56918300  1
  O  O14  1  0.29452700  0.80993800  0.56602200  1
  O  O15  1  0.07020400  0.07020400  0.31772600  1
  O  O16  1  0.70679500  0.18480300  0.43467200  1
  O  O17  1  0.93335200  0.93335200  0.68341900  1
  O  O18  1  0.18320500  0.18320500  0.43315200  1
  O  O19  1  0.80993800  0.29452700  0.56602200  1
  O  O20  1  0.56647700  0.56647700  0.31652100  1
  O  O21  1  0.94054200  0.45296900  0.18444800  1
  O  O22  1  0.04429300  0.56492800  0.31510400  1
  O  O23  1  0.81766800  0.81766800  0.07079700  1
  O  O24  1  0.45296900  0.94054200  0.18444800  1
  O  O25  1  0.67912200  0.67912200  0.43338400  1
  O  O26  1  0.93559400  0.93559400  0.18267700  1
  O  O27  1  0.56492800  0.04429300  0.31510400  1
  O  O28  1  0.32425700  0.32425700  0.06295900  1
  O  O29  1  0.79374900  0.31581800  0.06276700  1
  O  O30  1  0.43316900  0.43316900  0.18210400  1
  O  O31  1  0.31581800  0.79374900  0.06276700  1
loop_
_geom_bond_atom_site_label_1
_geom_bond_atom_site_label_2
_geom_bond_distance
_geom_bond_site_symmetry_2
O0 Zn0 1.993052 1_545
O0 V2 2.028283 1_555
O0 V14 2.039419 1_555
O0 Zn1 2.113688 1_555
O1 V0 2.015423 1_555
O1 V2 2.015423 1_555
O1 Zn2 2.020120 1_555
O1 Zn1 2.132382 1_555
O2 Zn0 1.993052 1_455
O2 V0 2.028283 1_555
O2 V14 2.039419 1_555
O2 Zn1 2.113688 1_555
O3 V14 2.022855 1_555
O3 Zn0 2.026781 1_555
O3 V2 2.085994 1_555
O3 V0 2.085994 1_555
O4 V5 1.987694 1_445
O4 V1 2.077077 1_555
O4 V0 2.112811 1_545
O4 V2 2.112811 1_455
O5 Zn2 1.985839 1_555
O5 V7 2.034128 1_565
O5 V1 2.034622 1_565
O5 Zn3 2.085225 1_565
O6 V5 1.965979 1_545
O6 V0 2.065168 1_545
O6 V1 2.090869 1_555
O6 Zn1 2.131115 1_555
O7 V3 1.943456 1_555
O7 V4 2.083619 1_555
O7 V7 2.083619 1_555
O7 Zn3 2.179262 1_555
O8 Zn2 1.985839 1_555
O8 V4 2.034128 1_655
O8 V1 2.034622 1_655
O8 Zn3 2.085225 1_655
O9 V15 1.963212 1_556
O9 V2 2.067845 1_455
O9 V0 2.067845 1_545
O9 Zn1 2.161230 1_555
O10 V1 2.053809 1_555
O10 V7 2.064705 1_555
O10 V4 2.064705 1_555
O10 Zn2 2.066074 1_555
O11 V5 1.965979 1_455
O11 V2 2.065168 1_455
O11 V1 2.090869 1_555
O11 Zn1 2.131115 1_555
O12 V3 1.949069 1_555
O12 V10 2.063670 1_555
O12 Zn4 2.090827 1_455
O12 Zn5 2.103095 1_565
O13 V9 1.976393 1_555
O13 V4 2.044530 1_655
O13 V7 2.044530 1_565
O13 Zn5 2.215760 1_665
O14 V9 1.925967 1_555
O14 V4 2.063233 1_555
O14 Zn5 2.109256 1_565
O14 Zn3 2.116589 1_565
O15 V6 1.970362 1_555
O15 V8 2.052758 1_455
O15 V10 2.052758 1_545
O15 Zn4 2.199996 1_445
O16 V3 1.949069 1_555
O16 V8 2.063670 1_555
O16 Zn4 2.090827 1_545
O16 Zn5 2.103095 1_655
O17 V5 1.935862 1_555
O17 V7 2.081730 1_565
O17 V4 2.081730 1_655
O17 Zn3 2.156257 1_665
O18 V3 1.967167 1_555
O18 V10 2.064683 1_545
O18 V8 2.064683 1_455
O18 Zn5 2.160945 1_555
O19 V9 1.925967 1_555
O19 V7 2.063233 1_555
O19 Zn5 2.109256 1_655
O19 Zn3 2.116589 1_655
O20 V13 1.964400 1_555
O20 V10 2.079682 1_555
O20 V8 2.079682 1_555
O20 Zn7 2.150579 1_555
O21 V6 1.933549 1_655
O21 V11 2.067538 1_655
O21 Zn6 2.106406 1_555
O21 Zn7 2.116765 1_555
O22 V13 1.937571 1_555
O22 V8 2.080164 1_455
O22 Zn7 2.101075 1_455
O22 Zn4 2.105676 1_455
O23 V11 2.018060 1_655
O23 V12 2.018060 1_565
O23 Zn0 2.022099 1_554
O23 Zn6 2.121142 1_555
O24 V6 1.933549 1_565
O24 V12 2.067538 1_565
O24 Zn6 2.106406 1_555
O24 Zn7 2.116765 1_555
O25 V9 1.999124 1_555
O25 V10 2.048267 1_555
O25 V8 2.048267 1_555
O25 Zn4 2.194673 1_555
O26 V6 1.964165 1_665
O26 V12 2.058475 1_565
O26 V11 2.058475 1_655
O26 Zn7 2.208921 1_555
O27 V13 1.937571 1_555
O27 V10 2.080164 1_545
O27 Zn7 2.101075 1_545
O27 Zn4 2.105676 1_545
O28 V15 2.004374 1_555
O28 V14 2.100033 1_554
O28 V12 2.103831 1_555
O28 V11 2.103831 1_555
O29 V15 1.955613 1_655
O29 V14 2.078538 1_554
O29 V12 2.088147 1_555
O29 Zn6 2.138212 1_555
O30 V13 1.999131 1_555
O30 V11 2.056594 1_555
O30 V12 2.056594 1_555
O30 Zn6 2.181647 1_555
O31 V15 1.955613 1_565
O31 V14 2.078538 1_554
O31 V11 2.088147 1_555
O31 Zn6 2.138212 1_555
