# generated using pymatgen
data_KMg6BO7
_symmetry_space_group_name_H-M   'P 1'
_cell_length_a   8.57127060
_cell_length_b   4.45316620
_cell_length_c   4.45316620
_cell_angle_alpha   90.00000000
_cell_angle_beta   90.00000000
_cell_angle_gamma   90.00000000
_symmetry_Int_Tables_number   1
_chemical_formula_structural   KMg6BO7
_chemical_formula_sum   'K1 Mg6 B1 O7'
_cell_volume   169.97420336
_cell_formula_units_Z   1
loop_
 _symmetry_equiv_pos_site_id
 _symmetry_equiv_pos_as_xyz
  1  'x, y, z'
loop_
 _atom_site_type_symbol
 _atom_site_label
 _atom_site_symmetry_multiplicity
 _atom_site_fract_x
 _atom_site_fract_y
 _atom_site_fract_z
 _atom_site_occupancy
  K  K0  1  0.03658802  0.00000000  -0.00000000  1
  Mg  Mg0  1  0.50730976  0.00000000  -0.00000000  1
  Mg  Mg1  1  0.49284696  0.50000000  0.50000000  1
  Mg  Mg2  1  0.24339115  0.00000000  0.50000000  1
  Mg  Mg3  1  0.75730063  -0.00000000  0.50000000  1
  Mg  Mg4  1  0.24339115  0.50000000  0.00000000  1
  Mg  Mg5  1  0.75730063  0.50000000  0.00000000  1
  B  B0  1  0.94219631  0.50000000  0.50000000  1
  O  O0  1  0.73495432  0.00000000  -0.00000000  1
  O  O1  1  0.26328086  0.50000000  0.50000000  1
  O  O2  1  0.78078928  0.50000000  0.50000000  1
  O  O3  1  0.98899689  -0.00000000  0.50000000  1
  O  O4  1  0.50632858  -0.00000000  0.50000000  1
  O  O5  1  0.98899689  0.50000000  0.00000000  1
  O  O6  1  0.50632858  0.50000000  0.00000000  1
loop_
_geom_bond_atom_site_label_1
_geom_bond_atom_site_label_2
_geom_bond_distance
_geom_bond_site_symmetry_2
K0 O5 2.263640 1_445
K0 O5 2.263640 1_455
K0 O3 2.263640 1_454
K0 O3 2.263640 1_455
K0 O0 2.585384 1_455
Mg0 O0 1.951203 1_555
Mg0 O6 2.226599 1_555
Mg0 O4 2.226599 1_555
Mg0 O4 2.226599 1_554
Mg0 O6 2.226599 1_545
Mg1 O1 1.967673 1_555
Mg1 O6 2.229580 1_556
Mg1 O6 2.229580 1_555
Mg1 O4 2.229580 1_555
Mg1 O4 2.229580 1_565
Mg1 O2 2.468032 1_555
Mg2 O3 2.180482 1_455
Mg2 O1 2.233100 1_555
Mg2 O1 2.233100 1_545
Mg2 O4 2.253708 1_555
Mg3 O3 1.985931 1_555
Mg3 O4 2.151149 1_555
Mg3 O0 2.234806 1_555
Mg3 O0 2.234806 1_556
Mg3 O2 2.235667 1_555
Mg3 O2 2.235667 1_545
Mg4 O5 2.180482 1_455
Mg4 O1 2.233100 1_555
Mg4 O1 2.233100 1_554
Mg4 O6 2.253708 1_555
Mg5 O5 1.985931 1_555
Mg5 O6 2.151149 1_555
Mg5 O0 2.234806 1_565
Mg5 O0 2.234806 1_555
Mg5 O2 2.235667 1_554
Mg5 O2 2.235667 1_555
B0 O2 1.383463 1_555
