# generated using pymatgen
data_Ba2Ho2CuPtO8
_symmetry_space_group_name_H-M   'P 1'
_cell_length_a   5.73133400
_cell_length_b   10.42841500
_cell_length_c   13.36863500
_cell_angle_alpha   90.00000000
_cell_angle_beta   90.00000000
_cell_angle_gamma   90.00000000
_symmetry_Int_Tables_number   1
_chemical_formula_structural   Ba2Ho2CuPtO8
_chemical_formula_sum   'Ba8 Ho8 Cu4 Pt4 O32'
_cell_volume   799.02632851
_cell_formula_units_Z   4
loop_
 _symmetry_equiv_pos_site_id
 _symmetry_equiv_pos_as_xyz
  1  'x, y, z'
loop_
 _atom_site_type_symbol
 _atom_site_label
 _atom_site_symmetry_multiplicity
 _atom_site_fract_x
 _atom_site_fract_y
 _atom_site_fract_z
 _atom_site_occupancy
  Ba  Ba0  1  0.25000000  0.40817800  0.42286500  1
  Ba  Ba1  1  0.75000000  0.59182200  0.57713500  1
  Ba  Ba2  1  0.75000000  0.90817800  0.07713500  1
  Ba  Ba3  1  0.25000000  0.09182200  0.92286500  1
  Ba  Ba4  1  0.25000000  0.68545600  0.20748000  1
  Ba  Ba5  1  0.75000000  0.31454400  0.79252000  1
  Ba  Ba6  1  0.75000000  0.18545600  0.29252000  1
  Ba  Ba7  1  0.25000000  0.81454400  0.70748000  1
  Ho  Ho0  1  0.25000000  0.01342800  0.41717200  1
  Ho  Ho1  1  0.75000000  0.98657200  0.58282800  1
  Ho  Ho2  1  0.75000000  0.51342800  0.08282800  1
  Ho  Ho3  1  0.25000000  0.48657200  0.91717200  1
  Ho  Ho4  1  0.25000000  0.31196800  0.14167400  1
  Ho  Ho5  1  0.75000000  0.68803200  0.85832600  1
  Ho  Ho6  1  0.75000000  0.81196800  0.35832600  1
  Ho  Ho7  1  0.25000000  0.18803200  0.64167400  1
  Cu  Cu0  1  0.25000000  0.73320500  0.46082800  1
  Cu  Cu1  1  0.75000000  0.26679500  0.53917200  1
  Cu  Cu2  1  0.75000000  0.23320500  0.03917200  1
  Cu  Cu3  1  0.25000000  0.76679500  0.96082800  1
  Pt  Pt0  1  0.25000000  0.03198200  0.19386600  1
  Pt  Pt1  1  0.75000000  0.96801800  0.80613400  1
  Pt  Pt2  1  0.75000000  0.53198200  0.30613400  1
  Pt  Pt3  1  0.25000000  0.46801800  0.69386600  1
  O  O0  1  0.25000000  0.18565200  0.29633000  1
  O  O1  1  0.75000000  0.81434800  0.70367000  1
  O  O2  1  0.75000000  0.68565200  0.20367000  1
  O  O3  1  0.25000000  0.31434800  0.79633000  1
  O  O4  1  0.50914200  0.44322400  0.21574100  1
  O  O5  1  0.49085800  0.55677600  0.78425900  1
  O  O6  1  0.49085800  0.94322400  0.28425900  1
  O  O7  1  0.00914200  0.55677600  0.78425900  1
  O  O8  1  0.50914200  0.05677600  0.71574100  1
  O  O9  1  0.99085800  0.44322400  0.21574100  1
  O  O10  1  0.99085800  0.05677600  0.71574100  1
  O  O11  1  0.00914200  0.94322400  0.28425900  1
  O  O12  1  0.00812200  0.13878500  0.11384600  1
  O  O13  1  0.99187800  0.86121500  0.88615400  1
  O  O14  1  0.99187800  0.63878500  0.38615400  1
  O  O15  1  0.50812200  0.86121500  0.88615400  1
  O  O16  1  0.00812200  0.36121500  0.61384600  1
  O  O17  1  0.49187800  0.13878500  0.11384600  1
  O  O18  1  0.49187800  0.36121500  0.61384600  1
  O  O19  1  0.50812200  0.63878500  0.38615400  1
  O  O20  1  0.50540900  0.36433500  0.00821400  1
  O  O21  1  0.49459100  0.63566500  0.99178600  1
  O  O22  1  0.49459100  0.86433500  0.49178600  1
  O  O23  1  0.00540900  0.63566500  0.99178600  1
  O  O24  1  0.50540900  0.13566500  0.50821400  1
  O  O25  1  0.99459100  0.36433500  0.00821400  1
  O  O26  1  0.99459100  0.13566500  0.50821400  1
  O  O27  1  0.00540900  0.86433500  0.49178600  1
  O  O28  1  0.25000000  0.60970100  0.58914300  1
  O  O29  1  0.75000000  0.39029900  0.41085700  1
  O  O30  1  0.75000000  0.10970100  0.91085700  1
  O  O31  1  0.25000000  0.89029900  0.08914300  1
loop_
_geom_bond_atom_site_label_1
_geom_bond_atom_site_label_2
_geom_bond_distance
_geom_bond_site_symmetry_2
Ba0 O14 2.865801 1_455
Ba0 O19 2.865801 1_555
Ba0 O0 2.871701 1_555
Ba0 O29 2.876209 1_555
Ba0 O29 2.876209 1_455
Ba0 O18 2.946225 1_555
Ba0 O16 2.946225 1_555
Ba0 O28 3.059069 1_555
Ba0 O4 3.163328 1_555
Ba0 O9 3.163328 1_455
Ba0 O24 3.394255 1_555
Ba0 O26 3.394255 1_455
Ba1 O18 2.865801 1_555
Ba1 O16 2.865801 1_655
Ba1 O1 2.871701 1_555
Ba1 O28 2.876209 1_555
Ba1 O28 2.876209 1_655
Ba1 O14 2.946225 1_555
Ba1 O19 2.946225 1_555
Ba1 O29 3.059069 1_555
Ba1 O5 3.163328 1_555
Ba1 O7 3.163328 1_655
Ba1 O27 3.394255 1_655
Ba1 O22 3.394255 1_555
Ba2 O12 2.865801 1_665
Ba2 O17 2.865801 1_565
Ba2 O2 2.871701 1_555
Ba2 O31 2.876209 1_555
Ba2 O31 2.876209 1_655
Ba2 O13 2.946225 1_554
Ba2 O15 2.946225 1_554
Ba2 O30 3.059069 1_564
Ba2 O6 3.163328 1_555
Ba2 O11 3.163328 1_655
Ba2 O21 3.394255 1_554
Ba2 O23 3.394255 1_654
Ba3 O15 2.865801 1_545
Ba3 O13 2.865801 1_445
Ba3 O3 2.871701 1_555
Ba3 O30 2.876209 1_455
Ba3 O30 2.876209 1_555
Ba3 O12 2.946225 1_556
Ba3 O17 2.946225 1_556
Ba3 O31 3.059069 1_546
Ba3 O8 3.163328 1_555
Ba3 O10 3.163328 1_455
Ba3 O25 3.394255 1_456
Ba3 O20 3.394255 1_556
Ba4 O31 2.658202 1_555
Ba4 O19 2.851490 1_555
Ba4 O14 2.851490 1_455
Ba4 O2 2.866120 1_455
Ba4 O2 2.866120 1_555
Ba4 O9 2.932450 1_455
Ba4 O4 2.932450 1_555
Ba4 O6 3.191412 1_555
Ba4 O11 3.191412 1_555
Ba4 O21 3.248002 1_554
Ba4 O23 3.248002 1_554
Ba5 O30 2.658202 1_555
Ba5 O16 2.851490 1_655
Ba5 O18 2.851490 1_555
Ba5 O3 2.866120 1_555
Ba5 O3 2.866120 1_655
Ba5 O5 2.932450 1_555
Ba5 O7 2.932450 1_655
Ba5 O8 3.191412 1_555
Ba5 O10 3.191412 1_555
Ba5 O20 3.248002 1_556
Ba5 O25 3.248002 1_556
Ba6 O29 2.658202 1_555
Ba6 O12 2.851490 1_655
Ba6 O17 2.851490 1_555
Ba6 O0 2.866120 1_555
Ba6 O0 2.866120 1_655
Ba6 O6 2.932450 1_545
Ba6 O11 2.932450 1_645
Ba6 O9 3.191412 1_555
Ba6 O4 3.191412 1_555
Ba6 O24 3.248002 1_555
Ba6 O26 3.248002 1_555
Ba7 O28 2.658202 1_555
Ba7 O13 2.851490 1_455
Ba7 O15 2.851490 1_555
Ba7 O1 2.866120 1_455
Ba7 O1 2.866120 1_555
Ba7 O10 2.932450 1_465
Ba7 O8 2.932450 1_565
Ba7 O5 3.191412 1_555
Ba7 O7 3.191412 1_555
Ba7 O27 3.248002 1_555
Ba7 O22 3.248002 1_555
Ho0 O24 2.291095 1_555
Ho0 O26 2.291095 1_455
Ho0 O22 2.318950 1_545
Ho0 O27 2.318950 1_545
Ho0 O6 2.366190 1_545
Ho0 O11 2.366190 1_545
Ho0 O0 2.415681 1_555
Ho1 O27 2.291095 1_655
Ho1 O22 2.291095 1_555
Ho1 O26 2.318950 1_565
Ho1 O24 2.318950 1_565
Ho1 O10 2.366190 1_565
Ho1 O8 2.366190 1_565
Ho1 O1 2.415681 1_555
Ho2 O21 2.291095 1_554
Ho2 O23 2.291095 1_654
Ho2 O20 2.318950 1_555
Ho2 O25 2.318950 1_555
Ho2 O9 2.366190 1_555
Ho2 O4 2.366190 1_555
Ho2 O2 2.415681 1_555
Ho3 O20 2.291095 1_556
Ho3 O25 2.291095 1_456
Ho3 O23 2.318950 1_555
Ho3 O21 2.318950 1_555
Ho3 O7 2.366190 1_555
Ho3 O5 2.366190 1_555
Ho3 O3 2.415681 1_555
Ho4 O4 2.249432 1_555
Ho4 O9 2.249432 1_455
Ho4 O17 2.306926 1_555
Ho4 O12 2.306926 1_555
Ho4 O20 2.371568 1_555
Ho4 O25 2.371568 1_455
Ho4 O0 2.451517 1_555
Ho5 O5 2.249432 1_555
Ho5 O7 2.249432 1_655
Ho5 O15 2.306926 1_555
Ho5 O13 2.306926 1_555
Ho5 O23 2.371568 1_655
Ho5 O21 2.371568 1_555
Ho5 O1 2.451517 1_555
Ho6 O6 2.249432 1_555
Ho6 O11 2.249432 1_655
Ho6 O19 2.306926 1_555
Ho6 O14 2.306926 1_555
Ho6 O27 2.371568 1_655
Ho6 O22 2.371568 1_555
Ho6 O2 2.451517 1_555
Ho7 O10 2.249432 1_455
Ho7 O8 2.249432 1_555
Ho7 O18 2.306926 1_555
Ho7 O16 2.306926 1_555
Ho7 O24 2.371568 1_555
Ho7 O26 2.371568 1_455
Ho7 O3 2.451517 1_555
Cu0 O22 2.001603 1_555
Cu0 O27 2.001603 1_555
Cu0 O14 2.038307 1_455
Cu0 O19 2.038307 1_555
Cu0 O28 2.145088 1_555
Cu1 O24 2.001603 1_555
Cu1 O26 2.001603 1_555
Cu1 O18 2.038307 1_555
Cu1 O16 2.038307 1_655
Cu1 O29 2.145088 1_555
Cu2 O20 2.001603 1_555
Cu2 O25 2.001603 1_555
Cu2 O12 2.038307 1_655
Cu2 O17 2.038307 1_555
Cu2 O30 2.145088 1_554
Cu3 O23 2.001603 1_555
Cu3 O21 2.001603 1_555
Cu3 O15 2.038307 1_555
Cu3 O13 2.038307 1_455
Cu3 O31 2.145088 1_556
O0 Pt0 2.108193 1_555
O1 Pt1 2.108193 1_555
O2 Pt2 2.108193 1_555
O3 Pt3 2.108193 1_555
O4 Pt2 2.054911 1_555
O5 Pt3 2.054911 1_555
O6 Pt0 2.054911 1_565
O7 Pt3 2.054911 1_555
O8 Pt1 2.054911 1_545
O9 Pt2 2.054911 1_555
O10 Pt1 2.054911 1_545
O11 Pt0 2.054911 1_565
O12 Pt0 2.075255 1_555
O13 Pt1 2.075255 1_555
O14 Pt2 2.075255 1_555
O15 Pt1 2.075255 1_555
O16 Pt3 2.075255 1_555
O17 Pt0 2.075255 1_555
O18 Pt3 2.075255 1_555
O19 Pt2 2.075255 1_555
O28 Pt3 2.035461 1_555
O29 Pt2 2.035461 1_555
O30 Pt1 2.035461 1_545
O31 Pt0 2.035461 1_565
