# generated using pymatgen
data_CaCr2(SiO4)3
_symmetry_space_group_name_H-M   'P 1'
_cell_length_a   10.32649381
_cell_length_b   10.32649381
_cell_length_c   10.32649381
_cell_angle_alpha   110.34495073
_cell_angle_beta   110.34495073
_cell_angle_gamma   107.73754691
_symmetry_Int_Tables_number   1
_chemical_formula_structural   CaCr2(SiO4)3
_chemical_formula_sum   'Ca4 Cr8 Si12 O48'
_cell_volume   847.10952926
_cell_formula_units_Z   4
loop_
 _symmetry_equiv_pos_site_id
 _symmetry_equiv_pos_as_xyz
  1  'x, y, z'
loop_
 _atom_site_type_symbol
 _atom_site_label
 _atom_site_symmetry_multiplicity
 _atom_site_fract_x
 _atom_site_fract_y
 _atom_site_fract_z
 _atom_site_occupancy
  Ca  Ca0  1  0.50000000  0.00000000  0.50000000  1
  Ca  Ca1  1  0.75000000  0.75000000  0.00000000  1
  Ca  Ca2  1  0.00000000  0.50000000  0.50000000  1
  Ca  Ca3  1  0.25000000  0.25000000  0.00000000  1
  Cr  Cr0  1  0.37500000  0.62500000  0.75000000  1
  Cr  Cr1  1  0.37500000  0.62500000  0.25000000  1
  Cr  Cr2  1  0.87500000  0.62500000  0.75000000  1
  Cr  Cr3  1  0.87500000  0.62500000  0.25000000  1
  Cr  Cr4  1  0.87500000  0.12500000  0.75000000  1
  Cr  Cr5  1  0.37500000  0.12500000  0.25000000  1
  Cr  Cr6  1  0.87500000  0.12500000  0.25000000  1
  Cr  Cr7  1  0.37500000  0.12500000  0.75000000  1
  Si  Si0  1  0.24918300  0.87500000  0.87418300  1
  Si  Si1  1  0.50081700  0.37500000  0.62581700  1
  Si  Si2  1  0.00000000  0.00000000  0.00000000  1
  Si  Si3  1  0.62500000  0.25081700  0.12581700  1
  Si  Si4  1  0.25000000  0.75000000  0.50000000  1
  Si  Si5  1  0.12500000  0.49918300  0.87418300  1
  Si  Si6  1  0.00081700  0.37500000  0.12581700  1
  Si  Si7  1  0.12500000  0.99918300  0.37418300  1
  Si  Si8  1  0.62500000  0.75081700  0.62581700  1
  Si  Si9  1  0.50000000  0.50000000  0.00000000  1
  Si  Si10  1  0.75000000  0.25000000  0.50000000  1
  Si  Si11  1  0.74918300  0.87500000  0.37418300  1
  O  O0  1  0.76548300  0.92707200  0.24404900  1
  O  O1  1  0.26858700  0.62567300  0.06219700  1
  O  O2  1  0.29168500  0.73835700  0.35764000  1
  O  O3  1  0.56697700  0.82292800  0.33841100  1
  O  O4  1  0.37567300  0.81347600  0.85708600  1
  O  O5  1  0.56347600  0.20639000  0.93780300  1
  O  O6  1  0.87432700  0.23141300  0.93780300  1
  O  O7  1  0.95831500  0.81595500  0.94667100  1
  O  O8  1  0.95639000  0.51858700  0.14291400  1
  O  O9  1  0.67707200  0.93302300  0.66158900  1
  O  O10  1  0.68404500  0.54168500  0.05332900  1
  O  O11  1  0.48835700  0.63071600  0.94667100  1
  O  O12  1  0.97856600  0.81697700  0.24404900  1
  O  O13  1  0.76164300  0.20831500  0.64236000  1
  O  O14  1  0.57292800  0.73451700  0.75595100  1
  O  O15  1  0.56595500  0.11928400  0.35764000  1
  O  O16  1  0.27143400  0.01548300  0.33841100  1
  O  O17  1  0.68302300  0.52143400  0.75595100  1
  O  O18  1  0.48451700  0.22856600  0.66158900  1
  O  O19  1  0.79361000  0.73141300  0.35708600  1
  O  O20  1  0.68652400  0.12432700  0.14291400  1
  O  O21  1  0.86928400  0.01164300  0.05332900  1
  O  O22  1  0.38071600  0.93404500  0.64236000  1
  O  O23  1  0.29361000  0.93652400  0.06219700  1
  O  O24  1  0.98451700  0.32292800  0.25595100  1
  O  O25  1  0.48141300  0.62432700  0.43780300  1
  O  O26  1  0.45831500  0.51164300  0.14236000  1
  O  O27  1  0.18302300  0.42707200  0.16158900  1
  O  O28  1  0.37432700  0.43652400  0.64291400  1
  O  O29  1  0.18652400  0.04361000  0.56219700  1
  O  O30  1  0.87567300  0.01858700  0.56219700  1
  O  O31  1  0.79168500  0.43404500  0.55332900  1
  O  O32  1  0.45639000  0.31347600  0.43780300  1
  O  O33  1  0.36928400  0.31595500  0.85764000  1
  O  O34  1  0.88071600  0.23835700  0.44667100  1
  O  O35  1  0.06347600  0.12567300  0.35708600  1
  O  O36  1  0.76858700  0.70639000  0.64291400  1
  O  O37  1  0.26548300  0.02143400  0.83841100  1
  O  O38  1  0.06697700  0.72856600  0.74404900  1
  O  O39  1  0.47856600  0.23451700  0.16158900  1
  O  O40  1  0.18404500  0.13071600  0.14236000  1
  O  O41  1  0.17707200  0.51548300  0.74404900  1
  O  O42  1  0.98835700  0.04168500  0.85764000  1
  O  O43  1  0.77143400  0.43302300  0.25595100  1
  O  O44  1  0.26164300  0.61928400  0.55332900  1
  O  O45  1  0.06595500  0.70831500  0.44667100  1
  O  O46  1  0.07292800  0.31697700  0.83841100  1
  O  O47  1  0.98141300  0.54361000  0.85708600  1
loop_
_geom_bond_atom_site_label_1
_geom_bond_atom_site_label_2
_geom_bond_distance
_geom_bond_site_symmetry_2
Ca0 O13 2.363565 1_555
Ca0 O2 2.363565 1_545
Ca0 O15 2.363572 1_555
Ca0 O22 2.363572 1_545
Ca0 O16 2.461250 1_555
Ca0 O9 2.461250 1_545
Ca0 O3 2.461250 1_545
Ca0 O18 2.461250 1_555
Ca1 O11 2.363563 1_554
Ca1 O21 2.363563 1_565
Ca1 O10 2.363572 1_555
Ca1 O7 2.363572 1_554
Ca1 O14 2.461250 1_554
Ca1 O0 2.461250 1_555
Ca1 O17 2.461250 1_554
Ca1 O12 2.461250 1_555
Ca2 O34 2.363563 1_455
Ca2 O44 2.363563 1_555
Ca2 O45 2.363572 1_555
Ca2 O31 2.363572 1_455
Ca2 O41 2.461250 1_555
Ca2 O38 2.461250 1_555
Ca2 O24 2.461250 1_455
Ca2 O43 2.461250 1_455
Ca3 O42 2.363565 1_454
Ca3 O26 2.363565 1_555
Ca3 O40 2.363572 1_555
Ca3 O33 2.363572 1_554
Ca3 O39 2.461250 1_555
Ca3 O46 2.461250 1_554
Ca3 O37 2.461250 1_554
Ca3 O27 2.461250 1_555
Cr0 O28 1.871047 1_555
Cr0 O4 1.871047 1_555
Cr0 O11 1.928692 1_555
Cr0 O44 1.928692 1_555
Cr0 O14 1.978942 1_555
Cr0 O41 1.978942 1_555
Cr1 O25 1.871047 1_555
Cr1 O1 1.871047 1_555
Cr1 O26 1.928695 1_555
Cr1 O2 1.928695 1_555
Cr1 O27 1.978942 1_555
Cr1 O3 1.978942 1_555
Cr2 O36 1.871047 1_555
Cr2 O47 1.871047 1_555
Cr2 O31 1.928689 1_555
Cr2 O7 1.928689 1_555
Cr2 O17 1.978942 1_555
Cr2 O38 1.978942 1_655
Cr3 O8 1.871047 1_555
Cr3 O19 1.871047 1_555
Cr3 O10 1.928689 1_555
Cr3 O45 1.928689 1_655
Cr3 O12 1.978942 1_555
Cr3 O43 1.978942 1_555
Cr4 O30 1.871047 1_555
Cr4 O6 1.871047 1_555
Cr4 O13 1.928695 1_555
Cr4 O42 1.928695 1_555
Cr4 O9 1.978942 1_545
Cr4 O46 1.978942 1_655
Cr5 O32 1.871047 1_555
Cr5 O23 1.871047 1_545
Cr5 O15 1.928689 1_555
Cr5 O40 1.928689 1_555
Cr5 O39 1.978942 1_555
Cr5 O16 1.978942 1_555
Cr6 O20 1.871047 1_555
Cr6 O35 1.871047 1_655
Cr6 O34 1.928692 1_555
Cr6 O21 1.928692 1_555
Cr6 O0 1.978942 1_545
Cr6 O24 1.978942 1_555
Cr7 O5 1.871047 1_555
Cr7 O29 1.871047 1_555
Cr7 O33 1.928689 1_555
Cr7 O22 1.928689 1_545
Cr7 O18 1.978942 1_555
Cr7 O37 1.978942 1_555
O0 Si11 1.651648 1_555
O1 Si5 1.651960 1_554
O2 Si4 1.646068 1_555
O3 Si11 1.651648 1_555
O4 Si0 1.651960 1_555
O5 Si3 1.651960 1_556
O6 Si6 1.651960 1_656
O7 Si2 1.646066 1_666
O8 Si6 1.651960 1_655
O9 Si8 1.651648 1_555
O10 Si9 1.646066 1_555
O11 Si9 1.646064 1_556
O12 Si7 1.651648 1_655
O13 Si10 1.646068 1_555
O14 Si8 1.651648 1_555
O15 Si10 1.646066 1_555
O16 Si7 1.651648 1_545
O17 Si1 1.651648 1_555
O18 Si1 1.651648 1_555
O19 Si11 1.651960 1_555
O20 Si3 1.651960 1_555
O21 Si2 1.646064 1_655
O22 Si4 1.646066 1_555
O23 Si0 1.651960 1_554
O24 Si6 1.651648 1_655
O25 Si8 1.651960 1_555
O26 Si9 1.646068 1_555
O27 Si6 1.651648 1_555
O28 Si1 1.651960 1_555
O29 Si7 1.651960 1_545
O30 Si11 1.651960 1_545
O31 Si10 1.646066 1_555
O32 Si1 1.651960 1_555
O33 Si9 1.646066 1_556
O34 Si10 1.646064 1_555
O35 Si7 1.651960 1_545
O36 Si8 1.651960 1_555
O37 Si0 1.651648 1_545
O38 Si0 1.651648 1_555
O39 Si3 1.651648 1_555
O40 Si2 1.646066 1_555
O41 Si5 1.651648 1_555
O42 Si2 1.646068 1_656
O43 Si3 1.651648 1_555
O44 Si4 1.646064 1_555
O45 Si4 1.646066 1_555
O46 Si5 1.651648 1_555
O47 Si5 1.651960 1_655
