# generated using pymatgen
data_Li7V4(CO3)10
_symmetry_space_group_name_H-M   'P 1'
_cell_length_a   6.36293700
_cell_length_b   10.87516100
_cell_length_c   17.54134396
_cell_angle_alpha   84.33824346
_cell_angle_beta   90.00000000
_cell_angle_gamma   90.00000000
_symmetry_Int_Tables_number   1
_chemical_formula_structural   Li7V4(CO3)10
_chemical_formula_sum   'Li14 V8 C20 O60'
_cell_volume   1207.90381862
_cell_formula_units_Z   2
loop_
 _symmetry_equiv_pos_site_id
 _symmetry_equiv_pos_as_xyz
  1  'x, y, z'
loop_
 _atom_site_type_symbol
 _atom_site_label
 _atom_site_symmetry_multiplicity
 _atom_site_fract_x
 _atom_site_fract_y
 _atom_site_fract_z
 _atom_site_occupancy
  Li  Li0  1  0.21930700  0.32627700  0.50112600  1
  Li  Li1  1  0.80916900  0.96196100  0.49523200  1
  Li  Li2  1  0.84671900  0.70381100  0.70763500  1
  Li  Li3  1  0.33264900  0.64205500  0.77631600  1
  Li  Li4  1  0.71592400  0.16403600  0.72684000  1
  Li  Li5  1  0.29071700  0.30336300  0.77727600  1
  Li  Li6  1  0.27369500  0.46963200  0.94208300  1
  Li  Li7  1  0.77369500  0.53036800  0.05791700  1
  Li  Li8  1  0.79071700  0.69663700  0.22272400  1
  Li  Li9  1  0.21592400  0.83596400  0.27316000  1
  Li  Li10  1  0.83264900  0.35794500  0.22368400  1
  Li  Li11  1  0.34671900  0.29618900  0.29236500  1
  Li  Li12  1  0.30916900  0.03803900  0.50476800  1
  Li  Li13  1  0.71930700  0.67372300  0.49887400  1
  V  V0  1  0.40977200  0.81093700  0.58430200  1
  V  V1  1  0.93195800  0.42561100  0.63077500  1
  V  V2  1  0.54529300  0.99571500  0.85561900  1
  V  V3  1  0.00736400  0.26234700  0.92151600  1
  V  V4  1  0.50736400  0.73765300  0.07848400  1
  V  V5  1  0.04529300  0.00428500  0.14438100  1
  V  V6  1  0.43195800  0.57438900  0.36922500  1
  V  V7  1  0.90977200  0.18906300  0.41569800  1
  C  C0  1  0.32106000  0.55139600  0.54081100  1
  C  C1  1  0.01588100  0.80320000  0.58384700  1
  C  C2  1  0.97818800  0.16342300  0.58937400  1
  C  C3  1  0.48032900  0.94745400  0.68398400  1
  C  C4  1  0.60093100  0.45908500  0.69896400  1
  C  C5  1  0.02221100  0.48479000  0.79683000  1
  C  C6  1  0.04842000  0.04927600  0.82354200  1
  C  C7  1  0.54144200  0.27037100  0.88381400  1
  C  C8  1  0.50320500  0.69901900  0.91133500  1
  C  C9  1  0.86321000  0.00214000  0.98788900  1
  C  C10  1  0.36321000  0.99786000  0.01211100  1
  C  C11  1  0.00320500  0.30098100  0.08866500  1
  C  C12  1  0.04144200  0.72962900  0.11618600  1
  C  C13  1  0.54842000  0.95072400  0.17645800  1
  C  C14  1  0.52221100  0.51521000  0.20317000  1
  C  C15  1  0.10093100  0.54091500  0.30103600  1
  C  C16  1  0.98032900  0.05254600  0.31601600  1
  C  C17  1  0.47818800  0.83657700  0.41062600  1
  C  C18  1  0.51588100  0.19680000  0.41615300  1
  C  C19  1  0.82106000  0.44860400  0.45918900  1
  O  O0  1  0.02118000  0.11490100  0.52387000  1
  O  O1  1  0.13134000  0.85609800  0.52810600  1
  O  O2  1  0.82242200  0.50240900  0.52270900  1
  O  O3  1  0.44100300  0.64684900  0.54472000  1
  O  O4  1  0.81665800  0.79253500  0.57576500  1
  O  O5  1  0.20888600  0.51167800  0.59807600  1
  O  O6  1  0.07464100  0.26906800  0.59936500  1
  O  O7  1  0.41590600  0.98854000  0.61567600  1
  O  O8  1  0.11753400  0.76174800  0.64491600  1
  O  O9  1  0.85696900  0.11019700  0.63754700  1
  O  O10  1  0.65534300  0.35224300  0.67337200  1
  O  O11  1  0.72287000  0.55108900  0.67210900  1
  O  O12  1  0.51457800  0.82674700  0.69306100  1
  O  O13  1  0.50591200  0.01878700  0.73617300  1
  O  O14  1  0.45282200  0.46969600  0.74540800  1
  O  O15  1  0.03033300  0.40815800  0.74362400  1
  O  O16  1  0.87073000  0.02046500  0.79697200  1
  O  O17  1  0.02110400  0.60105100  0.78311100  1
  O  O18  1  0.20362400  0.97727300  0.83399800  1
  O  O19  1  0.55009600  0.19718200  0.82934500  1
  O  O20  1  0.07213800  0.17144600  0.83711100  1
  O  O21  1  0.52741800  0.80006200  0.86993800  1
  O  O22  1  0.02736400  0.43568000  0.86878100  1
  O  O23  1  0.40676700  0.60786300  0.88703600  1
  O  O24  1  0.36628700  0.31671300  0.90343100  1
  O  O25  1  0.71152000  0.30678900  0.91622600  1
  O  O26  1  0.41011400  0.06046800  0.94865900  1
  O  O27  1  0.77063900  0.95011200  0.93604800  1
  O  O28  1  0.58500700  0.67613100  0.98352300  1
  O  O29  1  0.91173300  0.11969300  0.98073500  1
  O  O30  1  0.41173300  0.88030700  0.01926500  1
  O  O31  1  0.08500700  0.32386900  0.01647700  1
  O  O32  1  0.27063900  0.04988800  0.06395200  1
  O  O33  1  0.91011400  0.93953200  0.05134100  1
  O  O34  1  0.21152000  0.69321100  0.08377400  1
  O  O35  1  0.86628700  0.68328700  0.09656900  1
  O  O36  1  0.90676700  0.39213700  0.11296400  1
  O  O37  1  0.52736400  0.56432000  0.13121900  1
  O  O38  1  0.02741800  0.19993800  0.13006200  1
  O  O39  1  0.57213800  0.82855400  0.16288900  1
  O  O40  1  0.05009600  0.80281800  0.17065500  1
  O  O41  1  0.70362400  0.02272700  0.16600200  1
  O  O42  1  0.52110400  0.39894900  0.21688900  1
  O  O43  1  0.37073000  0.97953500  0.20302800  1
  O  O44  1  0.53033300  0.59184200  0.25637600  1
  O  O45  1  0.95282200  0.53030400  0.25459200  1
  O  O46  1  0.00591200  0.98121300  0.26382700  1
  O  O47  1  0.01457800  0.17325300  0.30693900  1
  O  O48  1  0.22287000  0.44891100  0.32789100  1
  O  O49  1  0.15534300  0.64775700  0.32662800  1
  O  O50  1  0.35696900  0.88980300  0.36245300  1
  O  O51  1  0.61753400  0.23825200  0.35508400  1
  O  O52  1  0.91590600  0.01146000  0.38432400  1
  O  O53  1  0.57464100  0.73093200  0.40063500  1
  O  O54  1  0.70888600  0.48832200  0.40192400  1
  O  O55  1  0.31665800  0.20746500  0.42423500  1
  O  O56  1  0.94100300  0.35315100  0.45528000  1
  O  O57  1  0.32242200  0.49759100  0.47729100  1
  O  O58  1  0.63134000  0.14390200  0.47189400  1
  O  O59  1  0.52118000  0.88509900  0.47613000  1
loop_
_geom_bond_atom_site_label_1
_geom_bond_atom_site_label_2
_geom_bond_distance
_geom_bond_site_symmetry_2
Li0 O56 1.954897 1_455
Li0 O57 1.980560 1_555
Li0 O6 1.998106 1_555
Li0 O55 2.053357 1_555
Li1 O59 2.055271 1_555
Li1 O52 2.080691 1_565
Li1 O4 2.208898 1_555
Li1 O0 2.236837 1_665
Li1 O58 2.281030 1_565
Li1 O1 2.393593 1_655
Li2 O17 1.985196 1_655
Li2 O11 1.993010 1_555
Li2 O8 2.107119 1_655
Li2 O4 2.424457 1_555
Li2 O12 2.500355 1_555
Li3 O23 1.997559 1_555
Li3 O17 2.032793 1_555
Li3 O14 2.143048 1_555
Li3 O12 2.632175 1_555
Li4 O9 1.944881 1_555
Li4 O13 2.063156 1_555
Li4 O16 2.131320 1_555
Li4 O19 2.145751 1_555
Li4 O10 2.199724 1_555
Li5 O15 2.063869 1_555
Li5 O14 2.109266 1_555
Li5 O19 2.164116 1_555
Li5 O20 2.190205 1_555
Li5 O24 2.283142 1_555
Li6 O23 1.903361 1_555
Li6 O24 1.948052 1_555
Li6 O22 2.083276 1_555
Li6 O31 2.291090 1_556
Li7 O36 1.903361 1_555
Li7 O35 1.948052 1_555
Li7 O37 2.083276 1_555
Li7 O28 2.291090 1_554
Li8 O44 2.063869 1_555
Li8 O45 2.109266 1_555
Li8 O40 2.164116 1_655
Li8 O39 2.190205 1_555
Li8 O35 2.283142 1_555
Li9 O50 1.944881 1_555
Li9 O46 2.063156 1_555
Li9 O43 2.131320 1_555
Li9 O40 2.145751 1_555
Li9 O49 2.199724 1_555
Li10 O36 1.997559 1_555
Li10 O42 2.032793 1_555
Li10 O45 2.143048 1_555
Li10 O47 2.632175 1_655
Li11 O42 1.985196 1_555
Li11 O48 1.993010 1_555
Li11 O51 2.107119 1_555
Li11 O55 2.424457 1_555
Li11 O47 2.500355 1_555
Li12 O0 2.055271 1_555
Li12 O7 2.080691 1_545
Li12 O55 2.208898 1_555
Li12 O59 2.236837 1_545
Li12 O1 2.281030 1_545
Li12 O58 2.393593 1_555
Li13 O3 1.954897 1_555
Li13 O2 1.980560 1_555
Li13 O53 1.998106 1_555
Li13 O4 2.053357 1_555
C0 O5 1.272572 1_555
C0 O3 1.295680 1_555
C0 O57 1.308665 1_555
C1 O4 1.282074 1_455
C1 O8 1.293769 1_555
C1 O1 1.309854 1_555
C2 O9 1.243994 1_555
C2 O6 1.329318 1_655
C2 O0 1.339098 1_655
C3 O13 1.267478 1_565
C3 O7 1.302981 1_555
C3 O12 1.324690 1_555
C4 O14 1.258459 1_555
C4 O11 1.316067 1_555
C4 O10 1.332059 1_555
C5 O17 1.263537 1_555
C5 O15 1.312147 1_555
C5 O22 1.321459 1_555
C6 O18 1.262427 1_545
C6 O16 1.273788 1_455
C6 O20 1.380961 1_555
C7 O24 1.284030 1_555
C7 O25 1.302184 1_555
C7 O19 1.303653 1_555
C8 O21 1.265342 1_555
C8 O23 1.274495 1_555
C8 O28 1.368992 1_555
C9 O27 1.263152 1_545
C9 O33 1.281394 1_546
C9 O29 1.309101 1_555
C10 O32 1.263152 1_565
C10 O26 1.281394 1_564
C10 O30 1.309101 1_555
C11 O38 1.265342 1_555
C11 O36 1.274495 1_455
C11 O31 1.368992 1_555
C12 O35 1.284030 1_455
C12 O34 1.302184 1_555
C12 O40 1.303653 1_555
C13 O41 1.262427 1_565
C13 O43 1.273788 1_555
C13 O39 1.380961 1_555
C14 O42 1.263537 1_555
C14 O44 1.312147 1_555
C14 O37 1.321459 1_555
C15 O45 1.258459 1_455
C15 O48 1.316067 1_555
C15 O49 1.332059 1_555
C16 O46 1.267478 1_645
C16 O52 1.302981 1_555
C16 O47 1.324690 1_655
C17 O50 1.243994 1_555
C17 O53 1.329318 1_555
C17 O59 1.339098 1_555
C18 O55 1.282074 1_555
C18 O51 1.293769 1_555
C18 O58 1.309854 1_555
C19 O54 1.272572 1_555
C19 O56 1.295680 1_555
C19 O2 1.308665 1_555
O0 V7 2.109852 1_455
O1 V0 2.063037 1_555
O2 V1 2.112892 1_555
O3 V0 1.987567 1_555
O4 V0 2.602164 1_555
O5 V1 2.050381 1_455
O6 V1 2.052113 1_455
O7 V0 2.060261 1_555
O8 V0 2.182234 1_555
O10 V1 2.043332 1_555
O11 V1 2.086394 1_555
O12 V0 2.044169 1_555
O13 V2 2.100491 1_545
O15 V1 2.066935 1_455
O16 V2 2.316048 1_545
O18 V2 2.219330 1_555
O19 V2 2.194202 1_545
O20 V3 1.904738 1_555
O21 V2 2.120832 1_555
O22 V3 2.020188 1_555
O24 V3 2.372542 1_555
O25 V3 1.943430 1_655
O26 V2 2.031274 1_545
O27 V2 2.038213 1_555
O28 V4 1.919979 1_556
O29 V3 1.880997 1_655
O30 V4 1.880997 1_555
O31 V3 1.919979 1_554
O32 V5 2.038213 1_555
O33 V5 2.031274 1_665
O34 V4 1.943430 1_555
O35 V4 2.372542 1_555
O37 V4 2.020188 1_555
O38 V5 2.120832 1_555
O39 V4 1.904738 1_555
O40 V5 2.194202 1_565
O41 V5 2.219330 1_655
O43 V5 2.316048 1_565
O44 V6 2.066935 1_555
O46 V5 2.100491 1_565
O47 V7 2.044169 1_455
O48 V6 2.086394 1_555
O49 V6 2.043332 1_555
O51 V7 2.182234 1_555
O52 V7 2.060261 1_555
O53 V6 2.052113 1_555
O54 V6 2.050381 1_555
O55 V7 2.602164 1_455
O56 V7 1.987567 1_555
O57 V6 2.112892 1_555
O58 V7 2.063037 1_555
O59 V0 2.109852 1_555
