# generated using pymatgen
data_AlFeB2(PbO4)2
_symmetry_space_group_name_H-M   'P 1'
_cell_length_a   5.95394512
_cell_length_b   7.11524800
_cell_length_c   8.31136270
_cell_angle_alpha   89.99943228
_cell_angle_beta   90.87298099
_cell_angle_gamma   90.00085234
_symmetry_Int_Tables_number   1
_chemical_formula_structural   AlFeB2(PbO4)2
_chemical_formula_sum   'Al2 Fe2 B4 Pb4 O16'
_cell_volume   352.06000580
_cell_formula_units_Z   2
loop_
 _symmetry_equiv_pos_site_id
 _symmetry_equiv_pos_as_xyz
  1  'x, y, z'
loop_
 _atom_site_type_symbol
 _atom_site_label
 _atom_site_symmetry_multiplicity
 _atom_site_fract_x
 _atom_site_fract_y
 _atom_site_fract_z
 _atom_site_occupancy
  Al  Al0  1  0.99994400  0.49999800  0.50001700  1
  Al  Al1  1  0.50010100  0.00001100  0.99997200  1
  Fe  Fe0  1  0.00001500  0.00001900  0.99993600  1
  Fe  Fe1  1  0.49994600  0.49994800  0.49985300  1
  B  B0  1  0.24697500  0.77353800  0.73925600  1
  B  B1  1  0.25298800  0.27353000  0.76076900  1
  B  B2  1  0.75301400  0.22647600  0.26078900  1
  B  B3  1  0.74696000  0.72646900  0.23923100  1
  Pb  Pb0  1  0.24484800  0.56755000  0.14278400  1
  Pb  Pb1  1  0.25514700  0.06756000  0.35724900  1
  Pb  Pb2  1  0.75512100  0.43246600  0.85721200  1
  Pb  Pb3  1  0.74489100  0.93247100  0.64282500  1
  O  O0  1  0.24136300  0.67169400  0.59652600  1
  O  O1  1  0.25863100  0.17169900  0.90348100  1
  O  O2  1  0.75861300  0.32830700  0.40346100  1
  O  O3  1  0.74138300  0.82830900  0.09655800  1
  O  O4  1  0.04543600  0.82562500  0.80899800  1
  O  O5  1  0.45456000  0.32562300  0.69100700  1
  O  O6  1  0.95460300  0.17437600  0.19104800  1
  O  O7  1  0.54540800  0.67437700  0.30896500  1
  O  O8  1  0.55140900  0.17256000  0.18671500  1
  O  O9  1  0.94857600  0.67256600  0.31329900  1
  O  O10  1  0.44856900  0.82743500  0.81330800  1
  O  O11  1  0.05141900  0.32744100  0.68671000  1
  O  O12  1  0.26394900  0.90074300  0.11298200  1
  O  O13  1  0.23608400  0.40075300  0.38703300  1
  O  O14  1  0.73617200  0.09921800  0.88707900  1
  O  O15  1  0.76387700  0.59923800  0.61293800  1
loop_
_geom_bond_atom_site_label_1
_geom_bond_atom_site_label_2
_geom_bond_distance
_geom_bond_site_symmetry_2
Al0 O15 1.842604 1_555
Al0 O13 1.843225 1_655
Al0 O11 1.998640 1_655
Al0 O9 1.998758 1_555
Al0 O2 2.041034 1_555
Al0 O0 2.041272 1_655
Al1 O14 1.842388 1_555
Al1 O12 1.843432 1_546
Al1 O10 1.998597 1_545
Al1 O8 1.998799 1_556
Al1 O3 2.040989 1_546
Al1 O1 2.041409 1_555
Fe0 O14 1.949588 1_455
Fe0 O12 1.950956 1_546
Fe0 O4 2.035783 1_545
Fe0 O6 2.036745 1_456
Fe0 O1 2.131509 1_555
Fe0 O3 2.132238 1_446
Fe1 O13 1.949514 1_555
Fe1 O15 1.951119 1_555
Fe1 O7 2.035621 1_555
Fe1 O5 2.036833 1_555
Fe1 O2 2.131404 1_555
Fe1 O0 2.132373 1_555
B0 O0 1.390071 1_555
B0 O4 1.390844 1_555
B0 O10 1.394282 1_555
B1 O1 1.389886 1_555
B1 O5 1.391085 1_555
B1 O11 1.394214 1_555
B2 O2 1.389611 1_555
B2 O6 1.391123 1_555
B2 O8 1.394454 1_555
B3 O3 1.389638 1_555
B3 O7 1.390879 1_555
B3 O9 1.394470 1_555
O4 Pb3 2.369014 1_455
O5 Pb2 2.369222 1_555
O6 Pb1 2.369074 1_655
O7 Pb0 2.369067 1_555
O8 Pb1 2.398888 1_555
O9 Pb0 2.398897 1_655
O10 Pb3 2.398978 1_555
O11 Pb2 2.398967 1_455
O12 Pb1 2.352988 1_565
O12 Pb0 2.386542 1_555
O13 Pb0 2.352758 1_555
O13 Pb1 2.386524 1_555
O14 Pb3 2.352626 1_545
O14 Pb2 2.386943 1_555
O15 Pb2 2.352846 1_555
O15 Pb3 2.386874 1_555
