# generated using pymatgen
data_Ca3Cr2(GeO4)3
_symmetry_space_group_name_H-M   'P 1'
_cell_length_a   10.79575664
_cell_length_b   10.79575664
_cell_length_c   10.79575664
_cell_angle_alpha   109.47122063
_cell_angle_beta   109.47122063
_cell_angle_gamma   109.47122063
_symmetry_Int_Tables_number   1
_chemical_formula_structural   Ca3Cr2(GeO4)3
_chemical_formula_sum   'Ca12 Cr8 Ge12 O48'
_cell_volume   968.58417005
_cell_formula_units_Z   4
loop_
 _symmetry_equiv_pos_site_id
 _symmetry_equiv_pos_as_xyz
  1  'x, y, z'
loop_
 _atom_site_type_symbol
 _atom_site_label
 _atom_site_symmetry_multiplicity
 _atom_site_fract_x
 _atom_site_fract_y
 _atom_site_fract_z
 _atom_site_occupancy
  Ca  Ca0  1  0.75000000  0.62500000  0.87500000  1
  Ca  Ca1  1  0.25000000  0.87500000  0.62500000  1
  Ca  Ca2  1  0.62500000  0.25000000  0.87500000  1
  Ca  Ca3  1  0.87500000  0.75000000  0.62500000  1
  Ca  Ca4  1  0.87500000  0.62500000  0.25000000  1
  Ca  Ca5  1  0.62500000  0.87500000  0.75000000  1
  Ca  Ca6  1  0.25000000  0.37500000  0.12500000  1
  Ca  Ca7  1  0.75000000  0.12500000  0.37500000  1
  Ca  Ca8  1  0.37500000  0.75000000  0.12500000  1
  Ca  Ca9  1  0.12500000  0.25000000  0.37500000  1
  Ca  Ca10  1  0.12500000  0.37500000  0.75000000  1
  Ca  Ca11  1  0.37500000  0.12500000  0.25000000  1
  Cr  Cr0  1  0.50000000  0.00000000  0.50000000  1
  Cr  Cr1  1  0.00000000  0.50000000  0.00000000  1
  Cr  Cr2  1  0.50000000  0.50000000  0.50000000  1
  Cr  Cr3  1  0.00000000  0.00000000  0.50000000  1
  Cr  Cr4  1  0.00000000  0.00000000  0.00000000  1
  Cr  Cr5  1  0.00000000  0.50000000  0.50000000  1
  Cr  Cr6  1  0.50000000  0.50000000  0.00000000  1
  Cr  Cr7  1  0.50000000  0.00000000  0.00000000  1
  Ge  Ge0  1  0.37500000  0.62500000  0.75000000  1
  Ge  Ge1  1  0.62500000  0.37500000  0.25000000  1
  Ge  Ge2  1  0.62500000  0.75000000  0.37500000  1
  Ge  Ge3  1  0.25000000  0.12500000  0.87500000  1
  Ge  Ge4  1  0.87500000  0.25000000  0.12500000  1
  Ge  Ge5  1  0.75000000  0.37500000  0.62500000  1
  Ge  Ge6  1  0.25000000  0.62500000  0.37500000  1
  Ge  Ge7  1  0.75000000  0.87500000  0.12500000  1
  Ge  Ge8  1  0.12500000  0.75000000  0.87500000  1
  Ge  Ge9  1  0.37500000  0.25000000  0.62500000  1
  Ge  Ge10  1  0.87500000  0.12500000  0.75000000  1
  Ge  Ge11  1  0.12500000  0.87500000  0.25000000  1
  O  O0  1  0.51634600  0.39797400  0.81522300  1
  O  O1  1  0.81522300  0.51634600  0.39797400  1
  O  O2  1  0.79887700  0.88162800  0.98365400  1
  O  O3  1  0.41724800  0.10202600  0.61837200  1
  O  O4  1  0.88162800  0.39797400  0.08275100  1
  O  O5  1  0.68477700  0.08275100  0.70112300  1
  O  O6  1  0.81522300  0.79887700  0.41724800  1
  O  O7  1  0.39797400  0.81522300  0.51634600  1
  O  O8  1  0.61837200  0.70112300  0.51634600  1
  O  O9  1  0.41724900  0.81522300  0.79887700  1
  O  O10  1  0.39797400  0.08275100  0.88162800  1
  O  O11  1  0.10202600  0.98365400  0.68477700  1
  O  O12  1  0.98365400  0.68477700  0.10202600  1
  O  O13  1  0.79887700  0.41724800  0.81522300  1
  O  O14  1  0.51634600  0.61837200  0.70112300  1
  O  O15  1  0.70112300  0.51634600  0.61837200  1
  O  O16  1  0.08275100  0.88162800  0.39797400  1
  O  O17  1  0.98365400  0.79887700  0.88162800  1
  O  O18  1  0.08275100  0.70112300  0.68477700  1
  O  O19  1  0.38162800  0.29887700  0.48365400  1
  O  O20  1  0.61837200  0.41724800  0.10202600  1
  O  O21  1  0.10202600  0.61837200  0.41724800  1
  O  O22  1  0.70112300  0.68477700  0.08275100  1
  O  O23  1  0.68477700  0.10202600  0.98365400  1
  O  O24  1  0.48365400  0.60202600  0.18477700  1
  O  O25  1  0.18477700  0.48365400  0.60202600  1
  O  O26  1  0.20112300  0.11837200  0.01634600  1
  O  O27  1  0.58275100  0.89797400  0.38162800  1
  O  O28  1  0.11837200  0.60202600  0.91724900  1
  O  O29  1  0.31522300  0.91724800  0.29887700  1
  O  O30  1  0.18477700  0.20112300  0.58275100  1
  O  O31  1  0.60202600  0.18477700  0.48365400  1
  O  O32  1  0.31522300  0.89797400  0.01634600  1
  O  O33  1  0.29887700  0.31522300  0.91724800  1
  O  O34  1  0.89797400  0.38162800  0.58275200  1
  O  O35  1  0.11837200  0.01634600  0.20112300  1
  O  O36  1  0.38162800  0.58275100  0.89797400  1
  O  O37  1  0.91724800  0.29887700  0.31522300  1
  O  O38  1  0.01634600  0.20112300  0.11837200  1
  O  O39  1  0.91724900  0.11837200  0.60202600  1
  O  O40  1  0.29887700  0.48365400  0.38162800  1
  O  O41  1  0.48365400  0.38162800  0.29887700  1
  O  O42  1  0.20112300  0.58275100  0.18477700  1
  O  O43  1  0.01634600  0.31522300  0.89797400  1
  O  O44  1  0.89797400  0.01634600  0.31522300  1
  O  O45  1  0.60202600  0.91724800  0.11837200  1
  O  O46  1  0.58275200  0.18477700  0.20112300  1
  O  O47  1  0.88162800  0.98365400  0.79887700  1
loop_
_geom_bond_atom_site_label_1
_geom_bond_atom_site_label_2
_geom_bond_distance
_geom_bond_site_symmetry_2
Ca0 O2 2.403381 1_555
Ca0 O15 2.403381 1_555
Ca0 O22 2.403381 1_556
Ca0 O13 2.403391 1_555
Ca0 O12 2.554420 1_556
Ca0 O17 2.554420 1_555
Ca0 O14 2.554420 1_555
Ca0 O0 2.554420 1_555
Ca1 O10 2.403381 1_565
Ca1 O7 2.403381 1_555
Ca1 O11 2.403381 1_555
Ca1 O21 2.403384 1_555
Ca1 O3 2.554416 1_565
Ca1 O18 2.554420 1_555
Ca1 O9 2.554420 1_555
Ca1 O16 2.554420 1_555
Ca2 O23 2.403381 1_555
Ca2 O4 2.403381 1_556
Ca2 O0 2.403381 1_555
Ca2 O3 2.403384 1_555
Ca2 O13 2.554414 1_555
Ca2 O20 2.554416 1_556
Ca2 O5 2.554420 1_555
Ca2 O10 2.554420 1_555
Ca3 O8 2.403381 1_555
Ca3 O18 2.403381 1_655
Ca3 O17 2.403381 1_555
Ca3 O6 2.403391 1_555
Ca3 O47 2.554420 1_555
Ca3 O15 2.554420 1_555
Ca3 O1 2.554420 1_555
Ca3 O11 2.554420 1_655
Ca4 O16 2.403381 1_655
Ca4 O1 2.403381 1_555
Ca4 O12 2.403381 1_555
Ca4 O20 2.403384 1_555
Ca4 O6 2.554414 1_555
Ca4 O21 2.554416 1_655
Ca4 O22 2.554420 1_555
Ca4 O4 2.554420 1_555
Ca5 O14 2.403381 1_555
Ca5 O47 2.403381 1_555
Ca5 O9 2.403381 1_555
Ca5 O5 2.403381 1_565
Ca5 O8 2.554420 1_555
Ca5 O23 2.554420 1_565
Ca5 O2 2.554420 1_555
Ca5 O7 2.554420 1_555
Ca6 O26 2.403381 1_555
Ca6 O42 2.403381 1_555
Ca6 O40 2.403381 1_555
Ca6 O33 2.403391 1_554
Ca6 O43 2.554420 1_554
Ca6 O24 2.554420 1_555
Ca6 O41 2.554420 1_555
Ca6 O38 2.554420 1_555
Ca7 O31 2.403381 1_555
Ca7 O44 2.403381 1_555
Ca7 O45 2.403384 1_545
Ca7 O34 2.403384 1_555
Ca7 O37 2.554414 1_555
Ca7 O46 2.554414 1_555
Ca7 O39 2.554420 1_555
Ca7 O27 2.554420 1_545
Ca8 O28 2.403381 1_554
Ca8 O27 2.403381 1_555
Ca8 O24 2.403381 1_555
Ca8 O32 2.403381 1_555
Ca8 O29 2.554414 1_555
Ca8 O45 2.554416 1_555
Ca8 O36 2.554420 1_554
Ca8 O42 2.554420 1_555
Ca9 O38 2.403381 1_555
Ca9 O19 2.403381 1_555
Ca9 O30 2.403381 1_555
Ca9 O37 2.403391 1_455
Ca9 O25 2.554420 1_555
Ca9 O44 2.554420 1_455
Ca9 O40 2.554420 1_555
Ca9 O35 2.554420 1_555
Ca10 O39 2.403381 1_455
Ca10 O36 2.403381 1_555
Ca10 O25 2.403381 1_555
Ca10 O43 2.403381 1_555
Ca10 O33 2.554414 1_555
Ca10 O34 2.554416 1_455
Ca10 O28 2.554420 1_555
Ca10 O30 2.554420 1_555
Ca11 O35 2.403381 1_555
Ca11 O41 2.403381 1_555
Ca11 O29 2.403391 1_545
Ca11 O46 2.403391 1_555
Ca11 O31 2.554420 1_555
Ca11 O32 2.554420 1_545
Ca11 O26 2.554420 1_555
Ca11 O19 2.554420 1_555
Cr0 O29 2.030529 1_545
Cr0 O27 2.030532 1_545
Cr0 O7 2.030532 1_545
Cr0 O5 2.030532 1_555
Cr0 O31 2.030532 1_555
Cr0 O3 2.030541 1_555
Cr1 O13 2.030529 1_454
Cr1 O12 2.030532 1_455
Cr1 O42 2.030532 1_555
Cr1 O43 2.030532 1_554
Cr1 O28 2.030532 1_554
Cr1 O4 2.030532 1_455
Cr2 O40 2.030532 1_555
Cr2 O41 2.030532 1_555
Cr2 O19 2.030532 1_555
Cr2 O14 2.030532 1_555
Cr2 O8 2.030532 1_555
Cr2 O15 2.030532 1_555
Cr3 O6 2.030529 1_445
Cr3 O11 2.030532 1_545
Cr3 O30 2.030532 1_555
Cr3 O44 2.030532 1_455
Cr3 O39 2.030532 1_455
Cr3 O16 2.030532 1_545
Cr4 O38 2.030532 1_555
Cr4 O35 2.030532 1_555
Cr4 O26 2.030532 1_555
Cr4 O47 2.030532 1_444
Cr4 O17 2.030532 1_444
Cr4 O2 2.030532 1_444
Cr5 O37 2.030529 1_455
Cr5 O1 2.030532 1_455
Cr5 O25 2.030532 1_555
Cr5 O18 2.030532 1_555
Cr5 O21 2.030541 1_555
Cr5 O34 2.030541 1_455
Cr6 O33 2.030529 1_554
Cr6 O0 2.030532 1_554
Cr6 O36 2.030532 1_554
Cr6 O24 2.030532 1_555
Cr6 O22 2.030532 1_555
Cr6 O20 2.030541 1_555
Cr7 O46 2.030529 1_555
Cr7 O23 2.030532 1_554
Cr7 O9 2.030532 1_544
Cr7 O32 2.030532 1_545
Cr7 O10 2.030532 1_554
Cr7 O45 2.030541 1_545
Ge0 O14 1.787860 1_555
Ge0 O25 1.787860 1_555
Ge0 O36 1.787860 1_555
Ge0 O9 1.787860 1_555
Ge1 O20 1.787853 1_555
Ge1 O1 1.787860 1_555
Ge1 O41 1.787860 1_555
Ge1 O46 1.787862 1_555
Ge2 O8 1.787860 1_555
Ge2 O27 1.787860 1_555
Ge2 O24 1.787860 1_555
Ge2 O6 1.787862 1_555
Ge3 O26 1.787860 1_556
Ge3 O10 1.787860 1_555
Ge3 O11 1.787860 1_545
Ge3 O33 1.787862 1_555
Ge4 O4 1.787860 1_555
Ge4 O23 1.787860 1_554
Ge4 O38 1.787860 1_655
Ge4 O37 1.787862 1_555
Ge5 O34 1.787853 1_555
Ge5 O15 1.787860 1_555
Ge5 O31 1.787860 1_555
Ge5 O13 1.787862 1_555
Ge6 O21 1.787853 1_555
Ge6 O7 1.787860 1_555
Ge6 O42 1.787860 1_555
Ge6 O40 1.787860 1_555
Ge7 O45 1.787853 1_555
Ge7 O2 1.787860 1_554
Ge7 O44 1.787860 1_565
Ge7 O22 1.787860 1_555
Ge8 O17 1.787860 1_455
Ge8 O32 1.787860 1_556
Ge8 O18 1.787860 1_555
Ge8 O28 1.787860 1_555
Ge9 O3 1.787853 1_555
Ge9 O30 1.787860 1_555
Ge9 O0 1.787860 1_555
Ge9 O19 1.787860 1_555
Ge10 O47 1.787860 1_545
Ge10 O43 1.787860 1_655
Ge10 O39 1.787860 1_555
Ge10 O5 1.787860 1_555
Ge11 O35 1.787860 1_565
Ge11 O12 1.787860 1_455
Ge11 O16 1.787860 1_555
Ge11 O29 1.787862 1_555
