# generated using pymatgen
data_Mg3Si4
_symmetry_space_group_name_H-M   'P 1'
_cell_length_a   3.62562800
_cell_length_b   7.97972600
_cell_length_c   9.77050964
_cell_angle_alpha   66.88979642
_cell_angle_beta   90.00000000
_cell_angle_gamma   90.00000000
_symmetry_Int_Tables_number   1
_chemical_formula_structural   Mg3Si4
_chemical_formula_sum   'Mg6 Si8'
_cell_volume   259.99140864
_cell_formula_units_Z   2
loop_
 _symmetry_equiv_pos_site_id
 _symmetry_equiv_pos_as_xyz
  1  'x, y, z'
loop_
 _atom_site_type_symbol
 _atom_site_label
 _atom_site_symmetry_multiplicity
 _atom_site_fract_x
 _atom_site_fract_y
 _atom_site_fract_z
 _atom_site_occupancy
  Mg  Mg0  1  0.50000000  0.97499000  0.55024000  1
  Mg  Mg1  1  0.00000000  0.15798500  0.78311600  1
  Mg  Mg2  1  0.00000000  0.46412600  0.05908000  1
  Mg  Mg3  1  0.50000000  0.79327200  0.87175400  1
  Mg  Mg4  1  0.50000000  0.48711500  0.55154500  1
  Mg  Mg5  1  0.50000000  0.11200800  0.08071100  1
  Si  Si0  1  0.00000000  0.77300700  0.42886600  1
  Si  Si1  1  0.00000000  0.65738700  0.70640600  1
  Si  Si2  1  0.00000000  0.28156000  0.45876700  1
  Si  Si3  1  0.50000000  0.43018800  0.28785300  1
  Si  Si4  1  0.50000000  0.43741500  0.83600000  1
  Si  Si5  1  0.50000000  0.74188800  0.25811400  1
  Si  Si6  1  0.00000000  0.09880800  0.30994500  1
  Si  Si7  1  0.00000000  0.84368200  0.06429400  1
loop_
_geom_bond_atom_site_label_1
_geom_bond_atom_site_label_2
_geom_bond_distance
_geom_bond_site_symmetry_2
Mg0 Si6 2.820233 1_565
Mg0 Si6 2.820233 1_665
Mg0 Si2 2.890215 1_665
Mg0 Si2 2.890215 1_565
Mg0 Mg3 2.897410 1_555
Mg0 Si0 2.964937 1_555
Mg0 Si0 2.964937 1_655
Mg0 Si1 3.000319 1_655
Mg0 Si1 3.000319 1_555
Mg1 Si7 2.903250 1_546
Mg1 Si2 2.926119 1_555
Mg1 Si4 3.070765 1_455
Mg1 Si4 3.070765 1_555
Mg1 Mg3 3.244637 1_545
Mg1 Mg3 3.244637 1_445
Mg2 Si3 2.807257 1_555
Mg2 Si3 2.807257 1_455
Mg2 Si4 2.906389 1_554
Mg2 Si4 2.906389 1_454
Mg2 Si6 2.982749 1_555
Mg2 Si7 3.049108 1_555
Mg2 Mg3 3.124260 1_454
Mg2 Mg3 3.124260 1_554
Mg2 Si1 3.174956 1_554
Mg3 Si7 2.753381 1_656
Mg3 Si7 2.753381 1_556
Mg3 Si1 2.906397 1_655
Mg3 Si1 2.906397 1_555
Mg3 Si4 2.994045 1_555
Mg4 Si4 2.648843 1_555
Mg4 Si3 2.786208 1_555
Mg4 Si5 2.788767 1_555
Mg4 Si0 2.789435 1_555
Mg4 Si0 2.789435 1_655
Mg4 Si2 2.822361 1_655
Mg4 Si2 2.822361 1_555
Mg4 Si1 3.005936 1_555
Mg4 Si1 3.005936 1_655
Mg5 Si4 2.754199 1_554
Mg5 Si5 2.776446 1_545
Mg5 Si6 2.851070 1_655
Mg5 Si6 2.851070 1_555
Mg5 Si7 2.857662 1_645
Mg5 Si7 2.857662 1_545
Si0 Si6 2.395355 1_565
Si0 Si1 2.498121 1_555
Si0 Si5 2.540966 1_455
Si0 Si5 2.540966 1_555
Si1 Si4 2.495188 1_455
Si1 Si4 2.495188 1_555
Si2 Si6 2.430136 1_555
Si2 Si3 2.434504 1_555
Si2 Si3 2.434504 1_455
Si3 Si5 2.388233 1_555
Si5 Si7 2.514907 1_655
Si5 Si7 2.514907 1_555
