# generated using pymatgen
data_Ba3Pm
_symmetry_space_group_name_H-M   'P 1'
_cell_length_a   8.51846740
_cell_length_b   8.51846740
_cell_length_c   6.76276700
_cell_angle_alpha   90.00000000
_cell_angle_beta   90.00000000
_cell_angle_gamma   119.99999536
_symmetry_Int_Tables_number   1
_chemical_formula_structural   Ba3Pm
_chemical_formula_sum   'Ba6 Pm2'
_cell_volume   424.98931231
_cell_formula_units_Z   2
loop_
 _symmetry_equiv_pos_site_id
 _symmetry_equiv_pos_as_xyz
  1  'x, y, z'
loop_
 _atom_site_type_symbol
 _atom_site_label
 _atom_site_symmetry_multiplicity
 _atom_site_fract_x
 _atom_site_fract_y
 _atom_site_fract_z
 _atom_site_occupancy
  Ba  Ba0  1  0.82744400  0.17255600  0.75000000  1
  Ba  Ba1  1  0.34511200  0.17255600  0.75000000  1
  Ba  Ba2  1  0.82744400  0.65488800  0.75000000  1
  Ba  Ba3  1  0.17255600  0.82744400  0.25000000  1
  Ba  Ba4  1  0.65488800  0.82744400  0.25000000  1
  Ba  Ba5  1  0.17255600  0.34511200  0.25000000  1
  Pm  Pm0  1  0.66666700  0.33333300  0.25000000  1
  Pm  Pm1  1  0.33333300  0.66666700  0.75000000  1
loop_
_geom_bond_atom_site_label_1
_geom_bond_atom_site_label_2
_geom_bond_distance
_geom_bond_site_symmetry_2
Ba0 Ba1 4.108729 1_555
Ba0 Ba2 4.108729 1_555
Ba0 Pm0 4.130490 1_556
Ba0 Pm0 4.130490 1_555
Ba0 Ba4 4.232692 1_546
Ba0 Ba5 4.232692 1_655
Ba0 Ba5 4.232692 1_656
Ba0 Ba4 4.232692 1_545
Ba0 Pm1 4.260120 1_545
Ba0 Pm1 4.260120 1_655
Ba0 Ba1 4.409738 1_655
Ba0 Ba2 4.409738 1_545
Ba1 Ba2 4.108730 1_555
Ba1 Pm0 4.130495 1_556
Ba1 Pm0 4.130495 1_555
Ba1 Ba5 4.232692 1_555
Ba1 Ba5 4.232692 1_556
Ba1 Ba3 4.232692 1_545
Ba1 Ba3 4.232692 1_546
Ba1 Pm1 4.260116 1_545
Ba1 Pm1 4.260124 1_555
Ba1 Ba2 4.409738 1_445
Ba2 Pm0 4.130495 1_555
Ba2 Pm0 4.130495 1_556
Ba2 Ba4 4.232692 1_556
Ba2 Ba4 4.232692 1_555
Ba2 Ba3 4.232692 1_655
Ba2 Ba3 4.232692 1_656
Ba2 Pm1 4.260116 1_655
Ba2 Pm1 4.260124 1_555
Ba3 Ba5 4.108729 1_555
Ba3 Ba4 4.108729 1_555
Ba3 Pm1 4.130490 1_555
Ba3 Pm1 4.130490 1_554
Ba3 Pm0 4.260120 1_455
Ba3 Pm0 4.260120 1_565
Ba3 Ba5 4.409738 1_565
Ba3 Ba4 4.409738 1_455
Ba4 Ba5 4.108730 1_555
Ba4 Pm1 4.130495 1_554
Ba4 Pm1 4.130495 1_555
Ba4 Pm0 4.260116 1_565
Ba4 Pm0 4.260124 1_555
Ba4 Ba5 4.409738 1_665
Ba5 Pm1 4.130495 1_554
Ba5 Pm1 4.130495 1_555
Ba5 Pm0 4.260116 1_455
Ba5 Pm0 4.260124 1_555
