# generated using pymatgen
data_Li8Ni(O2F)2
_symmetry_space_group_name_H-M   'P 1'
_cell_length_a   5.46853503
_cell_length_b   6.06998192
_cell_length_c   16.36476869
_cell_angle_alpha   97.32648723
_cell_angle_beta   88.97346261
_cell_angle_gamma   90.40677918
_symmetry_Int_Tables_number   1
_chemical_formula_structural   Li8Ni(O2F)2
_chemical_formula_sum   'Li32 Ni4 O16 F8'
_cell_volume   538.68282702
_cell_formula_units_Z   4
loop_
 _symmetry_equiv_pos_site_id
 _symmetry_equiv_pos_as_xyz
  1  'x, y, z'
loop_
 _atom_site_type_symbol
 _atom_site_label
 _atom_site_symmetry_multiplicity
 _atom_site_fract_x
 _atom_site_fract_y
 _atom_site_fract_z
 _atom_site_occupancy
  Li  Li0  1  0.18031000  0.40128800  0.53166900  1
  Li  Li1  1  0.68050400  0.90111300  0.78181800  1
  Li  Li2  1  0.18054800  0.40101600  0.03175100  1
  Li  Li3  1  0.68031000  0.90099000  0.28169100  1
  Li  Li4  1  0.81952800  0.59911300  0.46823400  1
  Li  Li5  1  0.31970400  0.09880200  0.71829100  1
  Li  Li6  1  0.81977600  0.59902000  0.96835600  1
  Li  Li7  1  0.31960400  0.09890100  0.21826600  1
  Li  Li8  1  0.32662300  0.43036900  0.39141600  1
  Li  Li9  1  0.82648400  0.93022600  0.64136700  1
  Li  Li10  1  0.32679300  0.43052300  0.89140100  1
  Li  Li11  1  0.82677000  0.93030400  0.14130300  1
  Li  Li12  1  0.67326300  0.56960400  0.60854000  1
  Li  Li13  1  0.17345100  0.06977500  0.85867100  1
  Li  Li14  1  0.67329900  0.56941000  0.10864300  1
  Li  Li15  1  0.17316000  0.06953200  0.35869900  1
  Li  Li16  1  0.35541800  0.76642900  0.56523400  1
  Li  Li17  1  0.85550200  0.26628000  0.81529000  1
  Li  Li18  1  0.35548300  0.76629800  0.06525000  1
  Li  Li19  1  0.85547500  0.26620500  0.31531000  1
  Li  Li20  1  0.64448100  0.23363700  0.43473900  1
  Li  Li21  1  0.14439200  0.73372300  0.68469800  1
  Li  Li22  1  0.64457200  0.23375600  0.93477800  1
  Li  Li23  1  0.14455300  0.73368700  0.18474000  1
  Li  Li24  1  0.45098100  0.14659300  0.57152600  1
  Li  Li25  1  0.95120900  0.64632500  0.82150600  1
  Li  Li26  1  0.45120800  0.14617700  0.07154700  1
  Li  Li27  1  0.95105000  0.64657700  0.32158900  1
  Li  Li28  1  0.54885200  0.85356500  0.42841100  1
  Li  Li29  1  0.04907600  0.35318300  0.67839700  1
  Li  Li30  1  0.54908200  0.85346100  0.92846600  1
  Li  Li31  1  0.04882000  0.35347000  0.17846400  1
  Ni  Ni0  1  0.99992800  0.00008700  0.50015700  1
  Ni  Ni1  1  0.49998400  0.50010700  0.74993800  1
  Ni  Ni2  1  0.00006700  0.00000100  0.99982000  1
  Ni  Ni3  1  0.49989100  0.49992600  0.25004000  1
  O  O0  1  0.31716200  0.15804200  0.46084300  1
  O  O1  1  0.81702700  0.65786500  0.71074100  1
  O  O2  1  0.31752500  0.15766600  0.96080100  1
  O  O3  1  0.81706400  0.65782700  0.21069900  1
  O  O4  1  0.68252800  0.84235900  0.53919500  1
  O  O5  1  0.18300500  0.34219500  0.78928000  1
  O  O6  1  0.68273800  0.84215100  0.03915200  1
  O  O7  1  0.18293700  0.34218000  0.28928600  1
  O  O8  1  0.34324700  0.49778800  0.63071100  1
  O  O9  1  0.84365400  0.99788100  0.88082400  1
  O  O10  1  0.34334200  0.49757600  0.13074600  1
  O  O11  1  0.84331700  0.99755600  0.38078000  1
  O  O12  1  0.65655100  0.50248100  0.36926600  1
  O  O13  1  0.15636100  0.00217000  0.61921100  1
  O  O14  1  0.65681300  0.50251100  0.86931500  1
  O  O15  1  0.15646700  0.00213200  0.11911900  1
  F  F0  1  0.16728100  0.65667000  0.46618500  1
  F  F1  1  0.66853800  0.15529900  0.71648500  1
  F  F2  1  0.16768700  0.65626400  0.96635700  1
  F  F3  1  0.66833300  0.15546400  0.21645000  1
  F  F4  1  0.83233200  0.34374300  0.53363700  1
  F  F5  1  0.33159700  0.84466700  0.78356200  1
  F  F6  1  0.83273400  0.34345700  0.03378000  1
  F  F7  1  0.33161100  0.84458300  0.28356000  1
loop_
_geom_bond_atom_site_label_1
_geom_bond_atom_site_label_2
_geom_bond_distance
_geom_bond_site_symmetry_2
Li0 O8 1.888445 1_555
Li0 O0 1.905692 1_555
Li1 O9 1.888845 1_555
Li1 O1 1.907072 1_555
Li2 O10 1.887501 1_555
Li2 O2 1.907418 1_554
Li3 O11 1.889346 1_555
Li3 O3 1.906498 1_555
Li4 O12 1.887708 1_555
Li4 O4 1.907116 1_555
Li5 O13 1.890195 1_555
Li5 O5 1.907334 1_555
Li6 O14 1.888511 1_555
Li6 O6 1.905351 1_556
Li7 O15 1.890719 1_555
Li7 O7 1.907037 1_555
Li8 O7 1.873557 1_555
Li8 O12 1.893153 1_555
Li8 O0 2.121717 1_555
Li9 O4 1.874461 1_555
Li9 O13 1.892655 1_665
Li9 O1 2.121342 1_555
Li10 O5 1.873814 1_555
Li10 O14 1.893230 1_555
Li10 O2 2.124154 1_555
Li11 O6 1.874637 1_555
Li11 O15 1.891641 1_665
Li11 O3 2.122180 1_555
Li12 O1 1.874818 1_555
Li12 O8 1.893233 1_555
Li12 O4 2.123058 1_555
Li13 O2 1.874172 1_555
Li13 O9 1.892155 1_445
Li13 O5 2.121826 1_555
Li14 O3 1.872933 1_555
Li14 O10 1.892728 1_555
Li14 O6 2.124509 1_555
Li15 O0 1.874834 1_555
Li15 O11 1.892277 1_445
Li15 O7 2.123240 1_555
Li16 O4 1.898664 1_555
Li16 O13 1.917834 1_565
Li16 O8 2.062309 1_555
Li17 O5 1.900539 1_655
Li17 O14 1.919036 1_555
Li17 O9 2.061600 1_545
Li18 O6 1.899513 1_555
Li18 O15 1.917471 1_565
Li18 O10 2.062920 1_555
Li19 O7 1.900480 1_655
Li19 O12 1.919549 1_555
Li19 O11 2.062279 1_545
Li20 O0 1.899451 1_555
Li20 O11 1.918475 1_545
Li20 O12 2.063315 1_555
Li21 O1 1.899870 1_455
Li21 O8 1.918083 1_555
Li21 O13 2.061383 1_565
Li22 O2 1.898536 1_555
Li22 O9 1.918340 1_545
Li22 O14 2.062767 1_555
Li23 O3 1.900181 1_455
Li23 O10 1.918660 1_555
Li23 O15 2.062728 1_565
Li24 O0 1.975218 1_555
Li24 O13 2.020545 1_555
Li24 O4 2.248008 1_545
Li24 O8 2.302242 1_555
Li25 O1 1.977318 1_555
Li25 O14 2.018686 1_555
Li25 O5 2.248069 1_655
Li25 O9 2.304558 1_555
Li26 O2 1.975925 1_554
Li26 O15 2.019182 1_555
Li26 O6 2.247077 1_545
Li26 O10 2.303577 1_555
Li27 O3 1.978529 1_555
Li27 O12 2.019021 1_555
Li27 O7 2.249790 1_655
Li27 O11 2.301124 1_555
Li28 O4 1.976222 1_555
Li28 O11 2.018249 1_555
Li28 O0 2.249822 1_565
Li28 O12 2.301410 1_555
Li29 O5 1.978058 1_555
Li29 O8 2.019147 1_555
Li29 O1 2.251747 1_455
Li29 O13 2.300657 1_555
Li30 O6 1.974788 1_556
Li30 O9 2.020029 1_555
Li30 O2 2.247906 1_565
Li30 O14 2.300773 1_555
Li31 O7 1.977811 1_555
Li31 O10 2.019436 1_555
Li31 O3 2.249059 1_455
Li31 O15 2.303661 1_555
Ni0 O4 2.104785 1_545
Ni0 O0 2.106288 1_655
Ni0 O13 2.140348 1_655
Ni0 O11 2.145293 1_545
Ni1 O1 2.104186 1_555
Ni1 O5 2.105184 1_555
Ni1 O8 2.143474 1_555
Ni1 O14 2.145875 1_555
Ni2 O2 2.104750 1_555
Ni2 O6 2.106503 1_446
Ni2 O9 2.139408 1_445
Ni2 O15 2.143917 1_556
Ni3 O7 2.104033 1_555
Ni3 O3 2.106010 1_555
Ni3 O12 2.143123 1_555
Ni3 O10 2.144030 1_555
F0 Li8 1.921832 1_555
F0 Li4 1.931557 1_455
F0 Li16 1.975936 1_555
F0 Li0 1.996112 1_555
F0 Ni0 2.281490 1_465
F0 Li28 2.504266 1_555
F1 Li9 1.916777 1_545
F1 Li5 1.936165 1_555
F1 Li17 1.971099 1_555
F1 Li1 1.988116 1_545
F1 Ni1 2.290622 1_555
F1 Li29 2.504147 1_655
F2 Li10 1.920742 1_555
F2 Li6 1.932055 1_455
F2 Li18 1.973318 1_556
F2 Li2 1.994441 1_556
F2 Ni2 2.282816 1_565
F2 Li30 2.504956 1_555
F3 Li11 1.918563 1_545
F3 Li7 1.935672 1_555
F3 Li19 1.971984 1_555
F3 Li3 1.988637 1_545
F3 Ni3 2.288774 1_555
F3 Li31 2.503800 1_655
F4 Li12 1.920646 1_555
F4 Li0 1.932724 1_655
F4 Li20 1.973643 1_555
F4 Li4 1.995145 1_555
F4 Ni0 2.282360 1_555
F4 Li24 2.504604 1_555
F5 Li13 1.917318 1_565
F5 Li1 1.936484 1_555
F5 Li21 1.972505 1_555
F5 Li5 1.987189 1_565
F5 Ni1 2.289244 1_555
F5 Li25 2.504184 1_455
F6 Li14 1.921543 1_555
F6 Li2 1.931880 1_655
F6 Li22 1.975324 1_554
F6 Li6 1.996397 1_554
F6 Ni2 2.281632 1_654
F6 Li26 2.505205 1_555
F7 Li15 1.917715 1_565
F7 Li3 1.935366 1_555
F7 Li23 1.971444 1_555
F7 Li7 1.988397 1_565
F7 Ni3 2.289331 1_555
F7 Li27 2.504340 1_455
