# generated using pymatgen
data_K2VAgSe4
_symmetry_space_group_name_H-M   'P 1'
_cell_length_a   13.61488819
_cell_length_b   12.16199942
_cell_length_c   7.45776735
_cell_angle_alpha   84.25223614
_cell_angle_beta   62.72230309
_cell_angle_gamma   33.02546078
_symmetry_Int_Tables_number   1
_chemical_formula_structural   K2VAgSe4
_chemical_formula_sum   'K4 V2 Ag2 Se8'
_cell_volume   484.49727489
_cell_formula_units_Z   2
loop_
 _symmetry_equiv_pos_site_id
 _symmetry_equiv_pos_as_xyz
  1  'x, y, z'
loop_
 _atom_site_type_symbol
 _atom_site_label
 _atom_site_symmetry_multiplicity
 _atom_site_fract_x
 _atom_site_fract_y
 _atom_site_fract_z
 _atom_site_occupancy
  K  K0  1  0.68202100  0.68202100  0.31797900  1
  K  K1  1  0.31797900  0.31797900  0.68202100  1
  K  K2  1  0.56797900  0.56797900  0.93202100  1
  K  K3  1  0.93202100  0.93202100  0.56797900  1
  V  V0  1  0.50000000  0.50000000  0.50000000  1
  V  V1  1  0.75000000  0.75000000  0.75000000  1
  Ag  Ag0  1  0.00000000  0.00000000  0.00000000  1
  Ag  Ag1  1  0.25000000  0.25000000  0.25000000  1
  Se  Se0  1  0.38200200  0.00125800  0.91337700  1
  Se  Se1  1  0.24874200  0.86799800  0.54663700  1
  Se  Se2  1  0.00125800  0.38200200  0.70336300  1
  Se  Se3  1  0.70336300  0.91337700  0.00125800  1
  Se  Se4  1  0.91337700  0.70336300  0.38200200  1
  Se  Se5  1  0.54663700  0.33662300  0.24874200  1
  Se  Se6  1  0.86799800  0.24874200  0.33662300  1
  Se  Se7  1  0.33662300  0.54663700  0.86799800  1
loop_
_geom_bond_atom_site_label_1
_geom_bond_atom_site_label_2
_geom_bond_distance
_geom_bond_site_symmetry_2
K0 Se2 3.422042 1_654
K0 Se0 3.422042 1_565
K0 Se6 3.464205 1_555
K0 Se1 3.464205 1_555
K0 Se4 3.604370 1_555
K0 Se3 3.604370 1_555
K0 Se0 3.848647 1_654
K0 Se2 3.848647 1_565
K1 Se4 3.422042 1_545
K1 Se3 3.422042 1_456
K1 Se5 3.464205 1_555
K1 Se7 3.464205 1_555
K1 Se0 3.604370 1_555
K1 Se2 3.604370 1_555
K1 Se4 3.848647 1_456
K1 Se3 3.848647 1_545
K2 Se6 3.422042 1_555
K2 Se1 3.422042 1_556
K2 Se0 3.464205 1_565
K2 Se2 3.464205 1_655
K2 Se7 3.604370 1_555
K2 Se5 3.604370 1_556
K2 Se1 3.848647 1_645
K2 Se6 3.848647 1_466
K3 Se7 3.422042 1_565
K3 Se5 3.422042 1_655
K3 Se3 3.464205 1_556
K3 Se4 3.464205 1_555
K3 Se6 3.604370 1_565
K3 Se1 3.604370 1_655
K3 Se5 3.848647 1_566
K3 Se7 3.848647 1_654
Ag0 Se7 2.636844 1_544
Ag0 Se5 2.636844 1_455
Ag0 Se1 2.636844 1_544
Ag0 Se6 2.636844 1_455
Ag1 Se4 2.636844 1_455
Ag1 Se3 2.636844 1_545
Ag1 Se2 2.636844 1_555
Ag1 Se0 2.636844 1_554
Se0 V1 2.324240 1_545
Se1 V0 2.324240 1_555
Se2 V1 2.324240 1_455
Se3 V1 2.324240 1_554
Se4 V1 2.324240 1_555
Se5 V0 2.324240 1_555
Se6 V0 2.324240 1_555
Se7 V0 2.324240 1_555
