# generated using pymatgen
data_KV5Zn(H8O11)2
_symmetry_space_group_name_H-M   'P 1'
_cell_length_a   8.82360000
_cell_length_b   10.94255232
_cell_length_c   11.30392024
_cell_angle_alpha   64.47380926
_cell_angle_beta   75.21569825
_cell_angle_gamma   71.16611962
_symmetry_Int_Tables_number   1
_chemical_formula_structural   KV5Zn(H8O11)2
_chemical_formula_sum   'K2 V10 Zn2 H32 O44'
_cell_volume   923.50814449
_cell_formula_units_Z   2
loop_
 _symmetry_equiv_pos_site_id
 _symmetry_equiv_pos_as_xyz
  1  'x, y, z'
loop_
 _atom_site_type_symbol
 _atom_site_label
 _atom_site_symmetry_multiplicity
 _atom_site_fract_x
 _atom_site_fract_y
 _atom_site_fract_z
 _atom_site_occupancy
  K  K0  1  0.68361000  0.58334900  0.22553700  1
  K  K1  1  0.31639000  0.41665100  0.77446300  1
  V  V0  1  0.32497200  0.99668100  0.47803000  1
  V  V1  1  0.67502800  0.00331900  0.52197000  1
  V  V2  1  0.38450600  0.28233400  0.44610700  1
  V  V3  1  0.61549400  0.71766600  0.55389300  1
  V  V4  1  0.64807500  0.94849300  0.27428900  1
  V  V5  1  0.35192500  0.05150700  0.72571100  1
  V  V6  1  0.69723300  0.23592800  0.24268800  1
  V  V7  1  0.30276700  0.76407200  0.75731200  1
  V  V8  1  0.36272200  0.22808800  0.19678400  1
  V  V9  1  0.63727800  0.77191200  0.80321600  1
  Zn  Zn0  1  0.22838600  0.76953800  0.20812200  1
  Zn  Zn1  1  0.77161400  0.23046200  0.79187800  1
  H  H0  1  0.64499900  0.48589800  0.81233700  1
  H  H1  1  0.35500100  0.51410200  0.18766300  1
  H  H2  1  0.01464000  0.01523400  0.74800600  1
  H  H3  1  0.98536000  0.98476600  0.25199400  1
  H  H4  1  0.59829600  0.37348200  0.95529600  1
  H  H5  1  0.40170400  0.62651800  0.04470400  1
  H  H6  1  0.60114000  0.25566600  0.61056400  1
  H  H7  1  0.39886000  0.74433400  0.38943600  1
  H  H8  1  0.56515300  0.09684700  0.99904000  1
  H  H9  1  0.43484700  0.90315300  0.00096000  1
  H  H10  1  0.95269800  0.68562700  0.30720700  1
  H  H11  1  0.04730200  0.31437300  0.69279300  1
  H  H12  1  0.58657000  0.04634000  0.87976200  1
  H  H13  1  0.41343000  0.95366000  0.12023800  1
  H  H14  1  0.86098400  0.99738700  0.71288700  1
  H  H15  1  0.13901600  0.00261300  0.28711300  1
  H  H16  1  0.87906100  0.11271400  0.02991100  1
  H  H17  1  0.12093900  0.88728600  0.97008900  1
  H  H18  1  0.95809600  0.23771300  0.92723100  1
  H  H19  1  0.04190400  0.76228700  0.07276900  1
  H  H20  1  0.03614200  0.34985900  0.37510900  1
  H  H21  1  0.96385800  0.65014100  0.62489100  1
  H  H22  1  0.90778200  0.26413800  0.41714600  1
  H  H23  1  0.09221800  0.73586200  0.58285400  1
  H  H24  1  0.98016600  0.38992600  0.98674600  1
  H  H25  1  0.01983400  0.61007400  0.01325400  1
  H  H26  1  0.04994300  0.64691900  0.42289900  1
  H  H27  1  0.95005700  0.35308100  0.57710100  1
  H  H28  1  0.68326900  0.38469900  0.55229000  1
  H  H29  1  0.31673100  0.61530100  0.44771000  1
  H  H30  1  0.92044600  0.49601000  0.85365600  1
  H  H31  1  0.07955400  0.50399000  0.14634400  1
  O  O0  1  0.54386400  0.30243900  0.12884600  1
  O  O1  1  0.45613600  0.69756100  0.87115400  1
  O  O2  1  0.51538500  0.09618300  0.38037500  1
  O  O3  1  0.48461500  0.90381700  0.61962500  1
  O  O4  1  0.47635800  0.85616600  0.41072800  1
  O  O5  1  0.52364200  0.14383400  0.58927200  1
  O  O6  1  0.23429500  0.09560400  0.33347100  1
  O  O7  1  0.76570500  0.90439600  0.66652900  1
  O  O8  1  0.74011000  0.86431800  0.44786500  1
  O  O9  1  0.25989000  0.13568200  0.55213500  1
  O  O10  1  0.56448300  0.34036000  0.34250900  1
  O  O11  1  0.43551700  0.65964000  0.65749100  1
  O  O12  1  0.29369700  0.39868800  0.51243100  1
  O  O13  1  0.70630300  0.60131200  0.48756900  1
  O  O14  1  0.27751700  0.33754100  0.30134300  1
  O  O15  1  0.72248300  0.66245900  0.69865700  1
  O  O16  1  0.49366400  0.06229700  0.16202400  1
  O  O17  1  0.50633600  0.93770300  0.83797600  1
  O  O18  1  0.74370400  0.82303800  0.21973400  1
  O  O19  1  0.25629600  0.17696200  0.78026600  1
  O  O20  1  0.78226500  0.06951100  0.20355800  1
  O  O21  1  0.21773500  0.93048900  0.79644200  1
  O  O22  1  0.74753200  0.68877900  0.92347100  1
  O  O23  1  0.25246800  0.31122100  0.07652900  1
  O  O24  1  0.79564000  0.11326800  0.41235800  1
  O  O25  1  0.20436000  0.88673200  0.58764200  1
  O  O26  1  0.83318000  0.32521600  0.15657300  1
  O  O27  1  0.16682000  0.67478400  0.84342700  1
  O  O28  1  0.62886700  0.32452600  0.63293500  1
  O  O29  1  0.37113300  0.67547400  0.36706500  1
  O  O30  1  0.06143700  0.64608900  0.33384900  1
  O  O31  1  0.93856300  0.35391100  0.66615100  1
  O  O32  1  0.59471600  0.12234100  0.90159100  1
  O  O33  1  0.40528400  0.87765900  0.09840900  1
  O  O34  1  0.61603600  0.39518300  0.85867100  1
  O  O35  1  0.38396400  0.60481700  0.14132900  1
  O  O36  1  0.90251000  0.06181100  0.72942200  1
  O  O37  1  0.09749000  0.93818900  0.27057800  1
  O  O38  1  0.92292700  0.15639400  0.93594700  1
  O  O39  1  0.07707300  0.84360600  0.06405300  1
  O  O40  1  0.92261400  0.35096300  0.41334200  1
  O  O41  1  0.07738600  0.64903700  0.58665800  1
  O  O42  1  0.99851500  0.40749200  0.89228600  1
  O  O43  1  0.00148500  0.59250800  0.10771400  1
loop_
_geom_bond_atom_site_label_1
_geom_bond_atom_site_label_2
_geom_bond_distance
_geom_bond_site_symmetry_2
K0 O43 2.794773 1_655
K0 O18 2.810069 1_555
K0 O10 2.826342 1_555
K0 O29 2.919220 1_555
K0 O35 2.939809 1_555
K0 O26 3.048581 1_555
K0 O22 3.057826 1_554
K0 O40 3.096840 1_555
K0 O13 3.111589 1_555
K0 O33 3.342739 1_555
K1 O42 2.794773 1_455
K1 O19 2.810069 1_555
K1 O11 2.826342 1_555
K1 O28 2.919220 1_555
K1 O34 2.939809 1_555
K1 O27 3.048581 1_555
K1 O23 3.057826 1_556
K1 O41 3.096840 1_555
K1 O12 3.111589 1_555
K1 O32 3.342739 1_555
H0 O34 0.986097 1_555
H1 O35 0.986097 1_555
H2 O36 0.985398 1_455
H3 O37 0.985398 1_655
H4 O34 0.993524 1_555
H5 O35 0.993524 1_555
H6 O28 1.003191 1_555
H6 O5 1.703277 1_555
H7 O29 1.003191 1_555
H7 O4 1.703277 1_555
H8 O32 0.997387 1_555
H8 O16 1.701667 1_556
H9 O33 0.997387 1_555
H9 O17 1.701667 1_554
H10 O30 0.982660 1_655
H11 O31 0.982660 1_455
H12 O32 0.991057 1_555
H13 O33 0.991057 1_555
H14 O36 0.990683 1_565
H15 O37 0.990683 1_545
H16 O38 0.989212 1_554
H17 O39 0.989212 1_556
H18 O38 0.992440 1_555
H19 O39 0.992440 1_555
H20 O40 0.982913 1_455
H21 O41 0.982913 1_655
H22 O40 0.981753 1_555
H23 O41 0.981753 1_555
H24 O42 0.978910 1_555
H25 O43 0.978910 1_555
H26 O30 0.989354 1_555
H27 O31 0.989354 1_555
H28 O28 0.978988 1_555
H29 O29 0.978988 1_555
H30 O42 0.980610 1_555
H31 O43 0.980610 1_555
O0 V6 1.860838 1_555
O0 V8 1.865742 1_555
O1 V7 1.860838 1_555
O1 V9 1.865742 1_555
O2 V1 2.098429 1_555
O2 V0 2.103707 1_545
O2 V4 2.269952 1_545
O2 V2 2.320056 1_555
O2 V6 2.365118 1_555
O2 V8 2.407175 1_555
O3 V0 2.098429 1_555
O3 V1 2.103707 1_565
O3 V5 2.269952 1_565
O3 V3 2.320056 1_555
O3 V7 2.365118 1_555
O3 V9 2.407175 1_555
O4 V0 1.972483 1_555
O4 V3 2.030253 1_555
O4 V4 2.036636 1_555
O5 V1 1.972483 1_555
O5 V2 2.030253 1_555
O5 V5 2.036636 1_555
O6 V0 1.750921 1_545
O6 V8 2.002425 1_555
O7 V1 1.750921 1_565
O7 V9 2.002425 1_555
O8 V1 1.906211 1_565
O8 V3 2.007431 1_555
O8 V4 2.032325 1_555
O9 V0 1.906211 1_545
O9 V2 2.007431 1_555
O9 V5 2.032325 1_555
O10 V2 1.832351 1_555
O10 V6 1.877139 1_555
O11 V3 1.832351 1_555
O11 V7 1.877139 1_555
O12 V2 1.637859 1_555
O13 V3 1.637859 1_555
O14 V2 1.871404 1_555
O14 V8 1.892563 1_555
O15 V3 1.871404 1_555
O15 V9 1.892563 1_555
O16 V4 1.855393 1_545
O16 V8 1.951888 1_555
O17 V5 1.855393 1_565
O17 V9 1.951888 1_555
O18 V4 1.641044 1_555
O19 V5 1.641044 1_555
O20 V4 1.847032 1_545
O20 V6 1.928056 1_555
O21 V5 1.847032 1_565
O21 V7 1.928056 1_555
O22 V9 1.630818 1_555
O23 V8 1.630818 1_555
O24 V1 1.727502 1_555
O24 V6 2.028002 1_555
O25 V0 1.727502 1_555
O25 V7 2.028002 1_555
O26 V6 1.637730 1_555
O27 V7 1.637730 1_555
O28 Zn1 2.144300 1_555
O29 Zn0 2.144300 1_555
O30 Zn0 2.139236 1_555
O31 Zn1 2.139236 1_555
O32 Zn1 2.077010 1_555
O33 Zn0 2.077010 1_555
O34 Zn1 2.179396 1_555
O35 Zn0 2.179396 1_555
O36 Zn1 2.137458 1_555
O37 Zn0 2.137458 1_555
O38 Zn1 2.089273 1_555
O39 Zn0 2.089273 1_555
