# generated using pymatgen
data_Sr5NbN5
_symmetry_space_group_name_H-M   'P 1'
_cell_length_a   6.51228900
_cell_length_b   7.33445600
_cell_length_c   18.03005500
_cell_angle_alpha   90.00000000
_cell_angle_beta   90.00000000
_cell_angle_gamma   90.00000000
_symmetry_Int_Tables_number   1
_chemical_formula_structural   Sr5NbN5
_chemical_formula_sum   'Sr20 Nb4 N20'
_cell_volume   861.18929828
_cell_formula_units_Z   4
loop_
 _symmetry_equiv_pos_site_id
 _symmetry_equiv_pos_as_xyz
  1  'x, y, z'
loop_
 _atom_site_type_symbol
 _atom_site_label
 _atom_site_symmetry_multiplicity
 _atom_site_fract_x
 _atom_site_fract_y
 _atom_site_fract_z
 _atom_site_occupancy
  Sr  Sr0  1  0.53501700  0.00000000  0.25000000  1
  Sr  Sr1  1  0.46498300  0.50000000  0.75000000  1
  Sr  Sr2  1  0.46498300  0.00000000  0.75000000  1
  Sr  Sr3  1  0.53501700  0.50000000  0.25000000  1
  Sr  Sr4  1  0.00003800  0.25000000  0.73540100  1
  Sr  Sr5  1  0.00003800  0.75000000  0.76459900  1
  Sr  Sr6  1  0.32082100  0.75000000  0.91974900  1
  Sr  Sr7  1  0.32082100  0.25000000  0.58025100  1
  Sr  Sr8  1  0.67917900  0.25000000  0.08025100  1
  Sr  Sr9  1  0.67917900  0.75000000  0.41974900  1
  Sr  Sr10  1  0.79930100  0.49509600  0.57670900  1
  Sr  Sr11  1  0.79930100  0.50490400  0.92329100  1
  Sr  Sr12  1  0.20069900  0.99509600  0.42329100  1
  Sr  Sr13  1  0.20069900  0.00490400  0.07670900  1
  Sr  Sr14  1  0.20069900  0.50490400  0.42329100  1
  Sr  Sr15  1  0.20069900  0.49509600  0.07670900  1
  Sr  Sr16  1  0.79930100  0.00490400  0.57670900  1
  Sr  Sr17  1  0.79930100  0.99509600  0.92329100  1
  Sr  Sr18  1  0.99996200  0.75000000  0.26459900  1
  Sr  Sr19  1  0.99996200  0.25000000  0.23540100  1
  Nb  Nb0  1  0.22922400  0.75000000  0.59338000  1
  Nb  Nb1  1  0.22922400  0.25000000  0.90662000  1
  Nb  Nb2  1  0.77077600  0.25000000  0.40662000  1
  Nb  Nb3  1  0.77077600  0.75000000  0.09338000  1
  N  N0  1  0.35200300  0.75000000  0.32396500  1
  N  N1  1  0.35200300  0.25000000  0.17603500  1
  N  N2  1  0.64799700  0.25000000  0.67603500  1
  N  N3  1  0.64799700  0.75000000  0.82396500  1
  N  N4  1  0.96827200  0.25000000  0.48910500  1
  N  N5  1  0.96827200  0.75000000  0.01089500  1
  N  N6  1  0.51370700  0.75000000  0.55421600  1
  N  N7  1  0.51370700  0.25000000  0.94578400  1
  N  N8  1  0.48629300  0.25000000  0.44578400  1
  N  N9  1  0.48629300  0.75000000  0.05421600  1
  N  N10  1  0.84664500  0.46938200  0.34566400  1
  N  N11  1  0.84664500  0.53061800  0.15433600  1
  N  N12  1  0.15335500  0.96938200  0.65433600  1
  N  N13  1  0.15335500  0.03061800  0.84566400  1
  N  N14  1  0.15335500  0.53061800  0.65433600  1
  N  N15  1  0.15335500  0.46938200  0.84566400  1
  N  N16  1  0.84664500  0.03061800  0.34566400  1
  N  N17  1  0.84664500  0.96938200  0.15433600  1
  N  N18  1  0.03172800  0.75000000  0.51089500  1
  N  N19  1  0.03172800  0.25000000  0.98910500  1
loop_
_geom_bond_atom_site_label_1
_geom_bond_atom_site_label_2
_geom_bond_distance
_geom_bond_site_symmetry_2
N0 Sr18 2.530154 1_455
N0 Sr3 2.561463 1_555
N0 Sr0 2.561463 1_565
N0 Sr14 2.722053 1_555
N0 Sr12 2.722053 1_555
N0 Sr9 2.742668 1_555
N1 Sr19 2.530154 1_455
N1 Sr3 2.561463 1_555
N1 Sr0 2.561463 1_555
N1 Sr13 2.722053 1_555
N1 Sr15 2.722053 1_555
N1 Sr8 2.742668 1_555
N2 Sr4 2.530154 1_655
N2 Sr1 2.561463 1_555
N2 Sr2 2.561463 1_555
N2 Sr16 2.722053 1_555
N2 Sr10 2.722053 1_555
N2 Sr7 2.742668 1_555
N3 Sr5 2.530154 1_655
N3 Sr1 2.561463 1_555
N3 Sr2 2.561463 1_565
N3 Sr17 2.722053 1_555
N3 Sr11 2.722053 1_555
N3 Sr6 2.742668 1_555
N4 Nb2 1.966208 1_555
N4 Sr10 2.633860 1_555
N4 Sr16 2.633860 1_555
N4 Sr12 2.682258 1_645
N4 Sr14 2.682258 1_655
N4 Sr7 2.823441 1_655
N5 Nb3 1.966208 1_555
N5 Sr11 2.633860 1_554
N5 Sr17 2.633860 1_554
N5 Sr13 2.682258 1_665
N5 Sr15 2.682258 1_655
N5 Sr6 2.823441 1_654
N6 Nb0 1.982644 1_555
N6 Sr9 2.653143 1_555
N6 Sr10 2.668132 1_555
N6 Sr16 2.668132 1_565
N7 Nb1 1.982644 1_555
N7 Sr8 2.653143 1_556
N7 Sr11 2.668132 1_555
N7 Sr17 2.668132 1_545
N8 Nb2 1.982644 1_555
N8 Sr7 2.653143 1_555
N8 Sr12 2.668132 1_545
N8 Sr14 2.668132 1_555
N9 Nb3 1.982644 1_555
N9 Sr6 2.653143 1_554
N9 Sr15 2.668132 1_555
N9 Sr13 2.668132 1_565
N10 Nb2 2.010234 1_555
N10 Sr3 2.672821 1_555
N10 Sr9 2.685094 1_555
N10 Sr14 2.709811 1_655
N10 Sr18 2.714644 1_555
N10 Sr19 2.745589 1_555
N11 Nb3 2.010234 1_555
N11 Sr3 2.672821 1_555
N11 Sr8 2.685094 1_555
N11 Sr15 2.709811 1_655
N11 Sr19 2.714644 1_555
N11 Sr18 2.745589 1_555
N12 Nb0 2.010234 1_555
N12 Sr2 2.672821 1_565
N12 Sr7 2.685094 1_565
N12 Sr16 2.709811 1_465
N12 Sr4 2.714644 1_565
N12 Sr5 2.745589 1_555
N13 Nb1 2.010234 1_555
N13 Sr2 2.672821 1_555
N13 Sr6 2.685094 1_545
N13 Sr17 2.709811 1_445
N13 Sr5 2.714644 1_545
N13 Sr4 2.745589 1_555
N14 Nb0 2.010234 1_555
N14 Sr1 2.672821 1_555
N14 Sr7 2.685094 1_555
N14 Sr10 2.709811 1_455
N14 Sr4 2.714644 1_555
N14 Sr5 2.745589 1_555
N15 Nb1 2.010234 1_555
N15 Sr1 2.672821 1_555
N15 Sr6 2.685094 1_555
N15 Sr11 2.709811 1_455
N15 Sr5 2.714644 1_555
N15 Sr4 2.745589 1_555
N16 Nb2 2.010234 1_555
N16 Sr0 2.672821 1_555
N16 Sr9 2.685094 1_545
N16 Sr12 2.709811 1_645
N16 Sr18 2.714644 1_545
N16 Sr19 2.745589 1_555
N17 Nb3 2.010234 1_555
N17 Sr0 2.672821 1_565
N17 Sr8 2.685094 1_565
N17 Sr13 2.709811 1_665
N17 Sr19 2.714644 1_565
N17 Sr18 2.745589 1_555
N18 Nb0 1.966208 1_555
N18 Sr12 2.633860 1_555
N18 Sr14 2.633860 1_555
N18 Sr10 2.682258 1_455
N18 Sr16 2.682258 1_465
N18 Sr9 2.823441 1_455
N19 Nb1 1.966208 1_555
N19 Sr13 2.633860 1_556
N19 Sr15 2.633860 1_556
N19 Sr11 2.682258 1_455
N19 Sr17 2.682258 1_445
N19 Sr8 2.823441 1_456
