# generated using pymatgen
data_In2CuS4
_symmetry_space_group_name_H-M   'P 1'
_cell_length_a   7.49846295
_cell_length_b   7.49846295
_cell_length_c   7.49846295
_cell_angle_alpha   60.00000000
_cell_angle_beta   60.00000000
_cell_angle_gamma   60.00000000
_symmetry_Int_Tables_number   1
_chemical_formula_structural   In2CuS4
_chemical_formula_sum   'In4 Cu2 S8'
_cell_volume   298.12730346
_cell_formula_units_Z   2
loop_
 _symmetry_equiv_pos_site_id
 _symmetry_equiv_pos_as_xyz
  1  'x, y, z'
loop_
 _atom_site_type_symbol
 _atom_site_label
 _atom_site_symmetry_multiplicity
 _atom_site_fract_x
 _atom_site_fract_y
 _atom_site_fract_z
 _atom_site_occupancy
  In  In0  1  0.12500000  0.12500000  0.12500000  1
  In  In1  1  0.12500000  0.12500000  0.62500000  1
  In  In2  1  0.12500000  0.62500000  0.12500000  1
  In  In3  1  0.62500000  0.12500000  0.12500000  1
  Cu  Cu0  1  0.50000000  0.50000000  0.50000000  1
  Cu  Cu1  1  0.75000000  0.75000000  0.75000000  1
  S  S0  1  0.37357200  0.37357200  0.37357200  1
  S  S1  1  0.37357200  0.37357200  0.87928500  1
  S  S2  1  0.37357200  0.87928500  0.37357200  1
  S  S3  1  0.87928500  0.37357200  0.37357200  1
  S  S4  1  0.87642800  0.87642800  0.87642800  1
  S  S5  1  0.87642800  0.87642800  0.37071500  1
  S  S6  1  0.87642800  0.37071500  0.87642800  1
  S  S7  1  0.37071500  0.87642800  0.87642800  1
loop_
_geom_bond_atom_site_label_1
_geom_bond_atom_site_label_2
_geom_bond_distance
_geom_bond_site_symmetry_2
In0 S3 2.636051 1_455
In0 S2 2.636051 1_545
In0 S1 2.636051 1_554
In0 S7 2.636051 1_544
In0 S6 2.636051 1_454
In0 S5 2.636051 1_445
In1 S7 2.636046 1_545
In1 S6 2.636046 1_455
In1 S2 2.636046 1_545
In1 S3 2.636046 1_455
In1 S0 2.636051 1_555
In1 S4 2.636051 1_445
In2 S7 2.636046 1_554
In2 S5 2.636046 1_455
In2 S1 2.636046 1_554
In2 S3 2.636046 1_455
In2 S0 2.636051 1_555
In2 S4 2.636051 1_454
In3 S5 2.636046 1_545
In3 S6 2.636046 1_554
In3 S2 2.636046 1_545
In3 S1 2.636046 1_554
In3 S0 2.636051 1_555
In3 S4 2.636051 1_544
Cu0 S0 2.322155 1_555
Cu0 S3 2.322161 1_555
Cu0 S2 2.322161 1_555
Cu0 S1 2.322161 1_555
Cu1 S4 2.322155 1_555
Cu1 S6 2.322161 1_555
Cu1 S5 2.322161 1_555
Cu1 S7 2.322161 1_555
