# generated using pymatgen
data_Ba2NiRuO6
_symmetry_space_group_name_H-M   'P 1'
_cell_length_a   5.78271604
_cell_length_b   5.78271604
_cell_length_c   19.29759200
_cell_angle_alpha   90.00000000
_cell_angle_beta   90.00000000
_cell_angle_gamma   120.00000041
_symmetry_Int_Tables_number   1
_chemical_formula_structural   Ba2NiRuO6
_chemical_formula_sum   'Ba8 Ni4 Ru4 O24'
_cell_volume   558.85286661
_cell_formula_units_Z   4
loop_
 _symmetry_equiv_pos_site_id
 _symmetry_equiv_pos_as_xyz
  1  'x, y, z'
loop_
 _atom_site_type_symbol
 _atom_site_label
 _atom_site_symmetry_multiplicity
 _atom_site_fract_x
 _atom_site_fract_y
 _atom_site_fract_z
 _atom_site_occupancy
  Ba  Ba0  1  0.66666700  0.33333300  0.61821800  1
  Ba  Ba1  1  0.66666700  0.33333300  0.25000000  1
  Ba  Ba2  1  0.33333300  0.66666700  0.75000000  1
  Ba  Ba3  1  0.00000000  0.00000000  0.50000000  1
  Ba  Ba4  1  0.33333300  0.66666700  0.11821800  1
  Ba  Ba5  1  0.33333300  0.66666700  0.38178200  1
  Ba  Ba6  1  0.66666700  0.33333300  0.88178200  1
  Ba  Ba7  1  0.00000000  0.00000000  0.00000000  1
  Ni  Ni0  1  0.66666700  0.33333300  0.44393100  1
  Ni  Ni1  1  0.33333300  0.66666700  0.55606900  1
  Ni  Ni2  1  0.66666700  0.33333300  0.05606900  1
  Ni  Ni3  1  0.33333300  0.66666700  0.94393100  1
  Ru  Ru0  1  0.00000000  0.00000000  0.67748100  1
  Ru  Ru1  1  0.00000000  0.00000000  0.32251900  1
  Ru  Ru2  1  0.00000000  0.00000000  0.82251900  1
  Ru  Ru3  1  0.00000000  0.00000000  0.17748100  1
  O  O0  1  0.16683400  0.83316600  0.62816400  1
  O  O1  1  0.84925800  0.69851600  0.75000000  1
  O  O2  1  0.16683400  0.33366900  0.87183600  1
  O  O3  1  0.83316600  0.16683400  0.37183600  1
  O  O4  1  0.16683400  0.33366900  0.62816400  1
  O  O5  1  0.50000000  0.00000000  0.00000000  1
  O  O6  1  0.66633100  0.83316600  0.62816400  1
  O  O7  1  0.15074200  0.30148400  0.25000000  1
  O  O8  1  0.15074200  0.84925800  0.25000000  1
  O  O9  1  0.83316600  0.66633100  0.12816400  1
  O  O10  1  0.30148400  0.15074200  0.75000000  1
  O  O11  1  0.33366900  0.16683400  0.12816400  1
  O  O12  1  0.50000000  0.00000000  0.50000000  1
  O  O13  1  0.69851600  0.84925800  0.25000000  1
  O  O14  1  0.33366900  0.16683400  0.37183600  1
  O  O15  1  0.83316600  0.16683400  0.12816400  1
  O  O16  1  0.83316600  0.66633100  0.37183600  1
  O  O17  1  0.00000000  0.50000000  0.50000000  1
  O  O18  1  0.50000000  0.50000000  0.50000000  1
  O  O19  1  0.66633100  0.83316600  0.87183600  1
  O  O20  1  0.84925800  0.15074200  0.75000000  1
  O  O21  1  0.00000000  0.50000000  0.00000000  1
  O  O22  1  0.16683400  0.83316600  0.87183600  1
  O  O23  1  0.50000000  0.50000000  0.00000000  1
loop_
_geom_bond_atom_site_label_1
_geom_bond_atom_site_label_2
_geom_bond_distance
_geom_bond_site_symmetry_2
Ba0 O17 2.826850 1_655
Ba0 O12 2.826850 1_555
Ba0 O18 2.826852 1_555
Ba0 O4 2.897716 1_655
Ba0 O6 2.897716 1_545
Ba0 O0 2.897722 1_655
Ba0 O0 2.897722 1_545
Ba0 O6 2.897728 1_555
Ba0 O4 2.897728 1_555
Ba0 O20 3.132384 1_555
Ba0 O1 3.132387 1_555
Ba0 O10 3.132387 1_555
Ba1 O9 2.882518 1_555
Ba1 O11 2.882518 1_555
Ba1 O14 2.882518 1_555
Ba1 O16 2.882518 1_555
Ba1 O3 2.882518 1_555
Ba1 O15 2.882518 1_555
Ba1 O7 2.895751 1_655
Ba1 O13 2.895751 1_545
Ba1 O8 2.895754 1_655
Ba1 O8 2.895754 1_545
Ba1 O7 2.895757 1_555
Ba1 O13 2.895757 1_555
Ba2 O4 2.882518 1_555
Ba2 O6 2.882518 1_555
Ba2 O19 2.882518 1_555
Ba2 O2 2.882518 1_555
Ba2 O22 2.882518 1_555
Ba2 O0 2.882518 1_555
Ba2 O10 2.895751 1_565
Ba2 O1 2.895751 1_455
Ba2 O20 2.895754 1_565
Ba2 O20 2.895754 1_455
Ba2 O1 2.895757 1_555
Ba2 O10 2.895757 1_555
Ba3 O18 2.891358 1_445
Ba3 O18 2.891358 1_555
Ba3 O12 2.891358 1_555
Ba3 O17 2.891358 1_555
Ba3 O12 2.891358 1_455
Ba3 O17 2.891358 1_545
Ba3 O0 2.984836 1_545
Ba3 O3 2.984836 1_455
Ba3 O6 2.984839 1_445
Ba3 O4 2.984839 1_555
Ba3 O16 2.984839 1_445
Ba3 O14 2.984839 1_555
Ba4 O21 2.826850 1_555
Ba4 O5 2.826850 1_565
Ba4 O23 2.826852 1_555
Ba4 O11 2.897716 1_565
Ba4 O9 2.897716 1_455
Ba4 O15 2.897722 1_565
Ba4 O15 2.897722 1_455
Ba4 O9 2.897728 1_555
Ba4 O11 2.897728 1_555
Ba4 O8 3.132384 1_555
Ba4 O7 3.132387 1_555
Ba4 O13 3.132387 1_555
Ba5 O12 2.826850 1_565
Ba5 O17 2.826850 1_555
Ba5 O18 2.826852 1_555
Ba5 O14 2.897716 1_565
Ba5 O16 2.897716 1_455
Ba5 O3 2.897722 1_565
Ba5 O3 2.897722 1_455
Ba5 O14 2.897728 1_555
Ba5 O16 2.897728 1_555
Ba5 O8 3.132384 1_555
Ba5 O7 3.132387 1_555
Ba5 O13 3.132387 1_555
Ba6 O21 2.826850 1_656
Ba6 O5 2.826850 1_556
Ba6 O23 2.826852 1_556
Ba6 O2 2.897716 1_655
Ba6 O19 2.897716 1_545
Ba6 O22 2.897722 1_655
Ba6 O22 2.897722 1_545
Ba6 O19 2.897728 1_555
Ba6 O2 2.897728 1_555
Ba6 O20 3.132384 1_555
Ba6 O1 3.132387 1_555
Ba6 O10 3.132387 1_555
Ba7 O23 2.891358 1_555
Ba7 O23 2.891358 1_445
Ba7 O21 2.891358 1_545
Ba7 O5 2.891358 1_555
Ba7 O21 2.891358 1_555
Ba7 O5 2.891358 1_455
Ba7 O22 2.984836 1_544
Ba7 O15 2.984836 1_455
Ba7 O2 2.984839 1_554
Ba7 O19 2.984839 1_444
Ba7 O9 2.984839 1_445
Ba7 O11 2.984839 1_555
Ni0 O17 1.989312 1_655
Ni0 O12 1.989312 1_555
Ni0 O18 1.989316 1_555
Ni0 O14 2.171785 1_555
Ni0 O16 2.171785 1_555
Ni0 O3 2.171785 1_555
Ni1 O12 1.989312 1_565
Ni1 O17 1.989312 1_555
Ni1 O18 1.989316 1_555
Ni1 O6 2.171785 1_555
Ni1 O4 2.171785 1_555
Ni1 O0 2.171785 1_555
Ni2 O5 1.989312 1_555
Ni2 O21 1.989312 1_655
Ni2 O23 1.989316 1_555
Ni2 O9 2.171785 1_555
Ni2 O11 2.171785 1_555
Ni2 O15 2.171785 1_555
Ni3 O21 1.989312 1_556
Ni3 O5 1.989312 1_566
Ni3 O23 1.989316 1_556
Ni3 O19 2.171785 1_555
Ni3 O2 2.171785 1_555
Ni3 O22 2.171785 1_555
O0 Ru0 1.923013 1_565
O1 Ru2 2.058643 1_665
O1 Ru0 2.058643 1_665
O2 Ru2 1.923018 1_555
O3 Ru1 1.923013 1_655
O4 Ru0 1.923018 1_555
O6 Ru0 1.923018 1_665
O7 Ru1 2.058643 1_555
O7 Ru3 2.058643 1_555
O8 Ru1 2.058643 1_565
O8 Ru3 2.058643 1_565
O9 Ru3 1.923018 1_665
O10 Ru2 2.058643 1_555
O10 Ru0 2.058643 1_555
O11 Ru3 1.923018 1_555
O13 Ru1 2.058643 1_665
O13 Ru3 2.058643 1_665
O14 Ru1 1.923018 1_555
O15 Ru3 1.923013 1_655
O16 Ru1 1.923018 1_665
O19 Ru2 1.923018 1_665
O20 Ru2 2.058643 1_655
O20 Ru0 2.058643 1_655
O22 Ru2 1.923013 1_565
