# generated using pymatgen
data_CaMg14TiO16
_symmetry_space_group_name_H-M   'P 1'
_cell_length_a   8.62877500
_cell_length_b   8.62877500
_cell_length_c   4.31756900
_cell_angle_alpha   90.00000000
_cell_angle_beta   90.00000000
_cell_angle_gamma   90.00000000
_symmetry_Int_Tables_number   1
_chemical_formula_structural   CaMg14TiO16
_chemical_formula_sum   'Ca1 Mg14 Ti1 O16'
_cell_volume   321.46787262
_cell_formula_units_Z   1
loop_
 _symmetry_equiv_pos_site_id
 _symmetry_equiv_pos_as_xyz
  1  'x, y, z'
loop_
 _atom_site_type_symbol
 _atom_site_label
 _atom_site_symmetry_multiplicity
 _atom_site_fract_x
 _atom_site_fract_y
 _atom_site_fract_z
 _atom_site_occupancy
  Ca  Ca0  1  0.00000000  0.00000000  0.00000000  1
  Mg  Mg0  1  0.50000000  0.00000000  0.00000000  1
  Mg  Mg1  1  0.00000000  0.50000000  0.00000000  1
  Mg  Mg2  1  0.25522200  0.00000000  0.50000000  1
  Mg  Mg3  1  0.74477800  0.00000000  0.50000000  1
  Mg  Mg4  1  0.24769900  0.50000000  0.50000000  1
  Mg  Mg5  1  0.75230100  0.50000000  0.50000000  1
  Mg  Mg6  1  0.00000000  0.25522200  0.50000000  1
  Mg  Mg7  1  0.50000000  0.24769900  0.50000000  1
  Mg  Mg8  1  0.00000000  0.74477800  0.50000000  1
  Mg  Mg9  1  0.50000000  0.75230100  0.50000000  1
  Mg  Mg10  1  0.25223800  0.25223800  0.00000000  1
  Mg  Mg11  1  0.74776200  0.25223800  0.00000000  1
  Mg  Mg12  1  0.25223800  0.74776200  0.00000000  1
  Mg  Mg13  1  0.74776200  0.74776200  0.00000000  1
  Ti  Ti0  1  0.50000000  0.50000000  0.00000000  1
  O  O0  1  0.00000000  0.26270500  0.00000000  1
  O  O1  1  0.50000000  0.24567200  0.00000000  1
  O  O2  1  0.00000000  0.73729500  0.00000000  1
  O  O3  1  0.50000000  0.75432800  0.00000000  1
  O  O4  1  0.25010300  0.25010300  0.50000000  1
  O  O5  1  0.74989700  0.25010300  0.50000000  1
  O  O6  1  0.25010300  0.74989700  0.50000000  1
  O  O7  1  0.74989700  0.74989700  0.50000000  1
  O  O8  1  0.00000000  0.00000000  0.50000000  1
  O  O9  1  0.50000000  0.00000000  0.50000000  1
  O  O10  1  0.00000000  0.50000000  0.50000000  1
  O  O11  1  0.50000000  0.50000000  0.50000000  1
  O  O12  1  0.26270500  0.00000000  0.00000000  1
  O  O13  1  0.73729500  0.00000000  0.00000000  1
  O  O14  1  0.24567200  0.50000000  0.00000000  1
  O  O15  1  0.75432800  0.50000000  0.00000000  1
loop_
_geom_bond_atom_site_label_1
_geom_bond_atom_site_label_2
_geom_bond_distance
_geom_bond_site_symmetry_2
Ca0 O8 2.158784 1_554
Ca0 O8 2.158784 1_555
Ca0 O0 2.266822 1_555
Ca0 O12 2.266822 1_555
Ca0 O13 2.266822 1_455
Ca0 O2 2.266822 1_545
Mg0 O13 2.047565 1_555
Mg0 O12 2.047565 1_555
Mg0 O1 2.119848 1_555
Mg0 O3 2.119848 1_545
Mg0 O9 2.158784 1_554
Mg0 O9 2.158784 1_555
Mg1 O2 2.047565 1_555
Mg1 O0 2.047565 1_555
Mg1 O15 2.119848 1_455
Mg1 O14 2.119848 1_555
Mg1 O10 2.158784 1_555
Mg1 O10 2.158784 1_554
Mg2 O9 2.112134 1_555
Mg2 O4 2.158534 1_555
Mg2 O6 2.158534 1_545
Mg2 O12 2.159750 1_555
Mg2 O12 2.159750 1_556
Mg2 O8 2.202253 1_555
Mg3 O9 2.112134 1_555
Mg3 O5 2.158534 1_555
Mg3 O7 2.158534 1_545
Mg3 O13 2.159750 1_555
Mg3 O13 2.159750 1_556
Mg3 O8 2.202253 1_655
Mg4 O10 2.137339 1_555
Mg4 O6 2.156405 1_555
Mg4 O4 2.156405 1_555
Mg4 O14 2.158855 1_556
Mg4 O14 2.158855 1_555
Mg4 O11 2.177049 1_555
Mg5 O10 2.137339 1_655
Mg5 O7 2.156405 1_555
Mg5 O5 2.156405 1_555
Mg5 O15 2.158855 1_556
Mg5 O15 2.158855 1_555
Mg5 O11 2.177049 1_555
Mg6 O10 2.112134 1_555
Mg6 O4 2.158534 1_555
Mg6 O5 2.158534 1_455
Mg6 O0 2.159750 1_555
Mg6 O0 2.159750 1_556
Mg6 O8 2.202253 1_555
Mg7 O9 2.137339 1_555
Mg7 O5 2.156405 1_555
Mg7 O4 2.156405 1_555
Mg7 O1 2.158855 1_555
Mg7 O1 2.158855 1_556
Mg7 O11 2.177049 1_555
Mg8 O10 2.112134 1_555
Mg8 O6 2.158534 1_555
Mg8 O7 2.158534 1_455
Mg8 O2 2.159750 1_556
Mg8 O2 2.159750 1_555
Mg8 O8 2.202253 1_565
Mg9 O9 2.137339 1_565
Mg9 O7 2.156405 1_555
Mg9 O6 2.156405 1_555
Mg9 O3 2.158855 1_556
Mg9 O3 2.158855 1_555
Mg9 O11 2.177049 1_555
Mg10 O1 2.138633 1_555
Mg10 O14 2.138633 1_555
Mg10 O4 2.158942 1_554
Mg10 O4 2.158942 1_555
Mg10 O12 2.178378 1_555
Mg10 O0 2.178378 1_555
Mg11 O1 2.138633 1_555
Mg11 O15 2.138633 1_555
Mg11 O5 2.158942 1_555
Mg11 O5 2.158942 1_554
Mg11 O13 2.178378 1_555
Mg11 O0 2.178378 1_655
Mg12 O14 2.138633 1_555
Mg12 O3 2.138633 1_555
Mg12 O6 2.158942 1_555
Mg12 O6 2.158942 1_554
Mg12 O2 2.178378 1_555
Mg12 O12 2.178378 1_565
Mg13 O3 2.138633 1_555
Mg13 O15 2.138633 1_555
Mg13 O7 2.158942 1_555
Mg13 O7 2.158942 1_554
Mg13 O13 2.178378 1_565
Mg13 O2 2.178378 1_655
O1 Ti0 2.194539 1_555
O3 Ti0 2.194539 1_555
O11 Ti0 2.158784 1_556
O11 Ti0 2.158784 1_555
O14 Ti0 2.194539 1_555
O15 Ti0 2.194539 1_555
