# generated using pymatgen
data_EuCrHO5
_symmetry_space_group_name_H-M   'P 1'
_cell_length_a   11.69423300
_cell_length_b   8.53034900
_cell_length_c   11.64934201
_cell_angle_alpha   47.23587964
_cell_angle_beta   90.00000000
_cell_angle_gamma   90.00000000
_symmetry_Int_Tables_number   1
_chemical_formula_structural   EuCrHO5
_chemical_formula_sum   'Eu8 Cr8 H8 O40'
_cell_volume   853.15475708
_cell_formula_units_Z   8
loop_
 _symmetry_equiv_pos_site_id
 _symmetry_equiv_pos_as_xyz
  1  'x, y, z'
loop_
 _atom_site_type_symbol
 _atom_site_label
 _atom_site_symmetry_multiplicity
 _atom_site_fract_x
 _atom_site_fract_y
 _atom_site_fract_z
 _atom_site_occupancy
  Eu  Eu0  1  0.94240000  0.21689000  0.15489600  1
  Eu  Eu1  1  0.55760000  0.21689000  0.65489600  1
  Eu  Eu2  1  0.05760000  0.78311000  0.84510400  1
  Eu  Eu3  1  0.44240000  0.78311000  0.34510400  1
  Eu  Eu4  1  0.07500800  0.26171800  0.81704800  1
  Eu  Eu5  1  0.42499200  0.26171800  0.31704800  1
  Eu  Eu6  1  0.92499200  0.73828200  0.18295200  1
  Eu  Eu7  1  0.57500800  0.73828200  0.68295200  1
  Cr  Cr0  1  0.81151800  0.60218400  0.53745300  1
  Cr  Cr1  1  0.68848200  0.60218400  0.03745300  1
  Cr  Cr2  1  0.18848200  0.39781600  0.46254700  1
  Cr  Cr3  1  0.31151800  0.39781600  0.96254700  1
  Cr  Cr4  1  0.67645400  0.13819400  0.99621100  1
  Cr  Cr5  1  0.82354600  0.13819400  0.49621100  1
  Cr  Cr6  1  0.32354600  0.86180600  0.00378900  1
  Cr  Cr7  1  0.17645400  0.86180600  0.50378900  1
  H  H0  1  0.92194100  0.53037100  0.80716100  1
  H  H1  1  0.57805900  0.53037100  0.30716100  1
  H  H2  1  0.07805900  0.46962900  0.19283900  1
  H  H3  1  0.42194100  0.46962900  0.69283900  1
  H  H4  1  0.12652000  0.98250100  0.15067400  1
  H  H5  1  0.37348000  0.98250100  0.65067400  1
  H  H6  1  0.87348000  0.01749900  0.84932600  1
  H  H7  1  0.62652000  0.01749900  0.34932600  1
  O  O0  1  0.69994600  0.50848800  0.51194700  1
  O  O1  1  0.80005400  0.50848800  0.01194700  1
  O  O2  1  0.30005400  0.49151200  0.48805300  1
  O  O3  1  0.19994600  0.49151200  0.98805300  1
  O  O4  1  0.99086100  0.47875200  0.87251400  1
  O  O5  1  0.50913900  0.47875200  0.37251400  1
  O  O6  1  0.00913900  0.52124800  0.12748600  1
  O  O7  1  0.49086100  0.52124800  0.62748600  1
  O  O8  1  0.76158100  0.70214300  0.61058800  1
  O  O9  1  0.73841900  0.70214300  0.11058800  1
  O  O10  1  0.23841900  0.29785700  0.38941200  1
  O  O11  1  0.26158100  0.29785700  0.88941200  1
  O  O12  1  0.58975700  0.95632100  0.14395200  1
  O  O13  1  0.91024300  0.95632100  0.64395200  1
  O  O14  1  0.41024300  0.04367900  0.85604800  1
  O  O15  1  0.08975700  0.04367900  0.35604800  1
  O  O16  1  0.67252600  0.13426700  0.85530200  1
  O  O17  1  0.82747400  0.13426700  0.35530200  1
  O  O18  1  0.32747400  0.86573300  0.14469800  1
  O  O19  1  0.17252600  0.86573300  0.64469800  1
  O  O20  1  0.81274400  0.09561500  0.06102600  1
  O  O21  1  0.68725600  0.09561500  0.56102600  1
  O  O22  1  0.18725600  0.90438500  0.93897400  1
  O  O23  1  0.31274400  0.90438500  0.43897400  1
  O  O24  1  0.63343000  0.37711500  0.91785200  1
  O  O25  1  0.86657000  0.37711500  0.41785200  1
  O  O26  1  0.36657000  0.62288500  0.08214800  1
  O  O27  1  0.13343000  0.62288500  0.58214800  1
  O  O28  1  0.87900900  0.78925400  0.36585700  1
  O  O29  1  0.62099100  0.78925400  0.86585700  1
  O  O30  1  0.12099100  0.21074600  0.63414300  1
  O  O31  1  0.37900900  0.21074600  0.13414300  1
  O  O32  1  0.05257700  0.03411400  0.09680100  1
  O  O33  1  0.44742300  0.03411400  0.59680100  1
  O  O34  1  0.94742300  0.96588600  0.90319900  1
  O  O35  1  0.55257700  0.96588600  0.40319900  1
  O  O36  1  0.90261700  0.40752200  0.66640300  1
  O  O37  1  0.59738300  0.40752200  0.16640300  1
  O  O38  1  0.09738300  0.59247800  0.33359700  1
  O  O39  1  0.40261700  0.59247800  0.83359700  1
loop_
_geom_bond_atom_site_label_1
_geom_bond_atom_site_label_2
_geom_bond_distance
_geom_bond_site_symmetry_2
Eu0 O17 2.349238 1_555
Eu0 O15 2.437612 1_655
Eu0 O32 2.445793 1_655
Eu0 O20 2.470059 1_555
Eu0 O1 2.471115 1_555
Eu0 O4 2.480652 1_554
Eu0 O6 2.515149 1_655
Eu0 O28 2.778885 1_545
Eu1 O16 2.349238 1_555
Eu1 O14 2.437612 1_555
Eu1 O33 2.445793 1_555
Eu1 O21 2.470059 1_555
Eu1 O0 2.471115 1_555
Eu1 O5 2.480652 1_555
Eu1 O7 2.515149 1_555
Eu1 O29 2.778885 1_545
Eu2 O19 2.349238 1_555
Eu2 O13 2.437612 1_455
Eu2 O34 2.445793 1_455
Eu2 O22 2.470059 1_555
Eu2 O3 2.471115 1_555
Eu2 O6 2.480652 1_556
Eu2 O4 2.515149 1_455
Eu2 O30 2.778885 1_565
Eu3 O18 2.349238 1_555
Eu3 O12 2.437612 1_555
Eu3 O35 2.445793 1_555
Eu3 O23 2.470059 1_555
Eu3 O2 2.471115 1_555
Eu3 O7 2.480652 1_555
Eu3 O5 2.515149 1_555
Eu3 O31 2.778885 1_565
Eu4 O36 2.393079 1_455
Eu4 O32 2.422136 1_556
Eu4 O11 2.432889 1_555
Eu4 O27 2.449117 1_555
Eu4 O34 2.482414 1_445
Eu4 O30 2.505253 1_555
Eu4 O4 2.537298 1_455
Eu4 O22 2.674425 1_545
Eu5 O37 2.393079 1_555
Eu5 O33 2.422136 1_555
Eu5 O10 2.432889 1_555
Eu5 O26 2.449117 1_555
Eu5 O35 2.482414 1_545
Eu5 O31 2.505253 1_555
Eu5 O5 2.537298 1_555
Eu5 O23 2.674425 1_545
Eu6 O38 2.393079 1_655
Eu6 O34 2.422136 1_554
Eu6 O9 2.432889 1_555
Eu6 O25 2.449117 1_555
Eu6 O32 2.482414 1_665
Eu6 O28 2.505253 1_555
Eu6 O6 2.537298 1_655
Eu6 O20 2.674425 1_565
Eu7 O39 2.393079 1_555
Eu7 O35 2.422136 1_555
Eu7 O8 2.432889 1_555
Eu7 O24 2.449117 1_555
Eu7 O33 2.482414 1_565
Eu7 O29 2.505253 1_555
Eu7 O7 2.537298 1_555
Eu7 O21 2.674425 1_565
Cr0 O0 1.658904 1_555
Cr0 O36 1.661783 1_555
Cr0 O8 1.667475 1_555
Cr0 O28 1.683314 1_555
Cr1 O1 1.658904 1_555
Cr1 O37 1.661783 1_555
Cr1 O9 1.667475 1_555
Cr1 O29 1.683314 1_554
Cr2 O2 1.658904 1_555
Cr2 O38 1.661783 1_555
Cr2 O10 1.667475 1_555
Cr2 O30 1.683314 1_555
Cr3 O3 1.658904 1_555
Cr3 O39 1.661783 1_555
Cr3 O11 1.667475 1_555
Cr3 O31 1.683314 1_556
Cr4 O24 1.647357 1_555
Cr4 O12 1.664639 1_546
Cr4 O16 1.665058 1_555
Cr4 O20 1.694058 1_556
Cr5 O25 1.647357 1_555
Cr5 O13 1.664639 1_545
Cr5 O17 1.665058 1_555
Cr5 O21 1.694058 1_555
Cr6 O26 1.647357 1_555
Cr6 O14 1.664639 1_564
Cr6 O18 1.665058 1_555
Cr6 O22 1.694058 1_554
Cr7 O27 1.647357 1_555
Cr7 O15 1.664639 1_565
Cr7 O19 1.665058 1_555
Cr7 O23 1.694058 1_555
H0 O4 0.983792 1_555
H1 O5 0.983792 1_555
H2 O6 0.983792 1_555
H3 O7 0.983792 1_555
H4 O32 0.979900 1_565
H5 O33 0.979900 1_565
H6 O34 0.979900 1_545
H7 O35 0.979900 1_545
