# generated using pymatgen
data_Y2Sb2O7
_symmetry_space_group_name_H-M   'P 1'
_cell_length_a   7.54774405
_cell_length_b   7.54774405
_cell_length_c   7.54774405
_cell_angle_alpha   60.00000000
_cell_angle_beta   60.00000000
_cell_angle_gamma   60.00000000
_symmetry_Int_Tables_number   1
_chemical_formula_structural   Y2Sb2O7
_chemical_formula_sum   'Y4 Sb4 O14'
_cell_volume   304.04404061
_cell_formula_units_Z   2
loop_
 _symmetry_equiv_pos_site_id
 _symmetry_equiv_pos_as_xyz
  1  'x, y, z'
loop_
 _atom_site_type_symbol
 _atom_site_label
 _atom_site_symmetry_multiplicity
 _atom_site_fract_x
 _atom_site_fract_y
 _atom_site_fract_z
 _atom_site_occupancy
  Y  Y0  1  0.12500000  0.12500000  0.12500000  1
  Y  Y1  1  0.62500000  0.12500000  0.12500000  1
  Y  Y2  1  0.12500000  0.12500000  0.62500000  1
  Y  Y3  1  0.12500000  0.62500000  0.12500000  1
  Sb  Sb0  1  0.62500000  0.62500000  0.62500000  1
  Sb  Sb1  1  0.12500000  0.62500000  0.62500000  1
  Sb  Sb2  1  0.62500000  0.62500000  0.12500000  1
  Sb  Sb3  1  0.62500000  0.12500000  0.62500000  1
  O  O0  1  0.00000000  0.00000000  0.00000000  1
  O  O1  1  0.25000000  0.25000000  0.25000000  1
  O  O2  1  0.28201500  0.28201500  0.71798500  1
  O  O3  1  0.53201500  0.53201500  0.96798500  1
  O  O4  1  0.71798500  0.28201500  0.71798500  1
  O  O5  1  0.71798500  0.28201500  0.28201500  1
  O  O6  1  0.28201500  0.71798500  0.71798500  1
  O  O7  1  0.28201500  0.71798500  0.28201500  1
  O  O8  1  0.71798500  0.71798500  0.28201500  1
  O  O9  1  0.96798500  0.53201500  0.53201500  1
  O  O10  1  0.53201500  0.96798500  0.96798500  1
  O  O11  1  0.96798500  0.96798500  0.53201500  1
  O  O12  1  0.96798500  0.53201500  0.96798500  1
  O  O13  1  0.53201500  0.96798500  0.53201500  1
loop_
_geom_bond_atom_site_label_1
_geom_bond_atom_site_label_2
_geom_bond_distance
_geom_bond_site_symmetry_2
O0 Y3 2.311015 1_545
O0 Y1 2.311015 1_455
O0 Y2 2.311015 1_554
O0 Y0 2.311015 1_555
O1 Y1 2.311015 1_555
O1 Y3 2.311015 1_555
O1 Y0 2.311015 1_555
O1 Y2 2.311015 1_555
O2 Sb3 2.132053 1_555
O2 Sb1 2.132053 1_555
O2 Y0 2.523786 1_556
O2 Y2 2.523786 1_555
O3 Sb0 2.132053 1_555
O3 Sb2 2.132053 1_556
O3 Y3 2.523786 1_556
O3 Y1 2.523786 1_556
O4 Sb0 2.132053 1_555
O4 Sb3 2.132053 1_555
O4 Y2 2.523786 1_655
O4 Y1 2.523786 1_556
O5 Sb3 2.132053 1_555
O5 Sb2 2.132053 1_555
O5 Y1 2.523786 1_555
O5 Y0 2.523786 1_655
O6 Sb0 2.132053 1_555
O6 Sb1 2.132053 1_555
O6 Y3 2.523786 1_556
O6 Y2 2.523786 1_565
O7 Sb2 2.132053 1_555
O7 Sb1 2.132053 1_555
O7 Y3 2.523786 1_555
O7 Y0 2.523786 1_565
O8 Sb2 2.132053 1_555
O8 Sb0 2.132053 1_555
O8 Y1 2.523786 1_565
O8 Y3 2.523786 1_655
O9 Sb0 2.132053 1_555
O9 Sb1 2.132053 1_655
O9 Y3 2.523786 1_655
O9 Y2 2.523786 1_655
O10 Sb3 2.132053 1_565
O10 Sb2 2.132053 1_556
O10 Y1 2.523786 1_566
O10 Y0 2.523786 1_566
O11 Sb3 2.132053 1_565
O11 Sb1 2.132053 1_655
O11 Y2 2.523786 1_665
O11 Y0 2.523786 1_665
O12 Sb1 2.132053 1_655
O12 Sb2 2.132053 1_556
O12 Y0 2.523786 1_656
O12 Y3 2.523786 1_656
O13 Sb3 2.132053 1_565
O13 Sb0 2.132053 1_555
O13 Y1 2.523786 1_565
O13 Y2 2.523786 1_565
