# generated using pymatgen
data_DyHoMn4
_symmetry_space_group_name_H-M   'P 1'
_cell_length_a   5.12694277
_cell_length_b   5.12694277
_cell_length_c   5.12694277
_cell_angle_alpha   60.00000000
_cell_angle_beta   60.00000000
_cell_angle_gamma   60.00000000
_symmetry_Int_Tables_number   1
_chemical_formula_structural   DyHoMn4
_chemical_formula_sum   'Dy1 Ho1 Mn4'
_cell_volume   95.29287091
_cell_formula_units_Z   1
loop_
 _symmetry_equiv_pos_site_id
 _symmetry_equiv_pos_as_xyz
  1  'x, y, z'
loop_
 _atom_site_type_symbol
 _atom_site_label
 _atom_site_symmetry_multiplicity
 _atom_site_fract_x
 _atom_site_fract_y
 _atom_site_fract_z
 _atom_site_occupancy
  Dy  Dy0  1  0.25000000  0.25000000  0.25000000  1
  Ho  Ho0  1  0.00000000  0.00000000  0.00000000  1
  Mn  Mn0  1  0.62502800  0.62502800  0.12491500  1
  Mn  Mn1  1  0.62502800  0.12491500  0.62502800  1
  Mn  Mn2  1  0.12491500  0.62502800  0.62502800  1
  Mn  Mn3  1  0.62502800  0.62502800  0.62502800  1
loop_
_geom_bond_atom_site_label_1
_geom_bond_atom_site_label_2
_geom_bond_distance
_geom_bond_site_symmetry_2
Dy0 Mn0 3.005996 1_555
Dy0 Mn1 3.005996 1_555
Dy0 Mn2 3.005996 1_555
Dy0 Mn3 3.005998 1_455
Dy0 Mn3 3.005998 1_545
Dy0 Mn3 3.005998 1_554
Dy0 Mn1 3.006000 1_554
Dy0 Mn2 3.006000 1_545
Dy0 Mn0 3.006000 1_455
Dy0 Mn1 3.006000 1_455
Dy0 Mn2 3.006000 1_554
Dy0 Mn0 3.006000 1_545
Dy0 Ho0 3.139598 1_655
Dy0 Ho0 3.139598 1_555
Dy0 Ho0 3.139598 1_556
Dy0 Ho0 3.139598 1_565
Ho0 Mn0 3.005873 1_455
Ho0 Mn1 3.005873 1_554
Ho0 Mn2 3.005873 1_545
Ho0 Mn2 3.005873 1_554
Ho0 Mn1 3.005873 1_455
Ho0 Mn0 3.005873 1_545
Ho0 Mn3 3.005875 1_544
Ho0 Mn3 3.005875 1_454
Ho0 Mn3 3.005875 1_445
Ho0 Mn2 3.005878 1_544
Ho0 Mn0 3.005878 1_445
Ho0 Mn1 3.005878 1_454
Mn0 Mn3 2.562892 1_554
Mn0 Mn2 2.562892 1_654
Mn0 Mn1 2.562892 1_564
Mn0 Mn3 2.564051 1_555
Mn0 Mn1 2.564051 1_555
Mn0 Mn2 2.564051 1_555
Mn1 Mn3 2.562892 1_545
Mn1 Mn2 2.562892 1_645
Mn1 Mn3 2.564051 1_555
Mn1 Mn2 2.564051 1_555
Mn2 Mn3 2.562892 1_455
Mn2 Mn3 2.564051 1_555
