# generated using pymatgen
data_Dy2SiSeO4
_symmetry_space_group_name_H-M   'P 1'
_cell_length_a   6.06530200
_cell_length_b   6.98394400
_cell_length_c   10.85430200
_cell_angle_alpha   90.00000000
_cell_angle_beta   90.00000000
_cell_angle_gamma   90.00000000
_symmetry_Int_Tables_number   1
_chemical_formula_structural   Dy2SiSeO4
_chemical_formula_sum   'Dy8 Si4 Se4 O16'
_cell_volume   459.78529675
_cell_formula_units_Z   4
loop_
 _symmetry_equiv_pos_site_id
 _symmetry_equiv_pos_as_xyz
  1  'x, y, z'
loop_
 _atom_site_type_symbol
 _atom_site_label
 _atom_site_symmetry_multiplicity
 _atom_site_fract_x
 _atom_site_fract_y
 _atom_site_fract_z
 _atom_site_occupancy
  Dy  Dy0  1  0.60958400  0.25000000  0.50000000  1
  Dy  Dy1  1  0.60958400  0.25000000  0.00000000  1
  Dy  Dy2  1  0.39041600  0.75000000  0.50000000  1
  Dy  Dy3  1  0.39041600  0.75000000  0.00000000  1
  Dy  Dy4  1  0.86619700  0.52871900  0.75000000  1
  Dy  Dy5  1  0.86619700  0.97128100  0.25000000  1
  Dy  Dy6  1  0.13380300  0.02871900  0.75000000  1
  Dy  Dy7  1  0.13380300  0.47128100  0.25000000  1
  Si  Si0  1  0.11475000  0.25000000  0.50000000  1
  Si  Si1  1  0.88525000  0.75000000  0.50000000  1
  Si  Si2  1  0.88525000  0.75000000  0.00000000  1
  Si  Si3  1  0.11475000  0.25000000  0.00000000  1
  Se  Se0  1  0.57101600  0.86951100  0.75000000  1
  Se  Se1  1  0.57101600  0.63048900  0.25000000  1
  Se  Se2  1  0.42898400  0.36951100  0.75000000  1
  Se  Se3  1  0.42898400  0.13048900  0.25000000  1
  O  O0  1  0.27777500  0.43142700  0.03155200  1
  O  O1  1  0.27777500  0.06857300  0.96844800  1
  O  O2  1  0.72222500  0.93142700  0.46844800  1
  O  O3  1  0.72222500  0.56857300  0.53155200  1
  O  O4  1  0.72222500  0.56857300  0.96844800  1
  O  O5  1  0.72222500  0.93142700  0.03155200  1
  O  O6  1  0.27777500  0.06857300  0.53155200  1
  O  O7  1  0.27777500  0.43142700  0.46844800  1
  O  O8  1  0.05171300  0.73977200  0.12063700  1
  O  O9  1  0.05171300  0.73977200  0.37936300  1
  O  O10  1  0.94828700  0.23977200  0.37936300  1
  O  O11  1  0.94828700  0.26022800  0.62063700  1
  O  O12  1  0.94828700  0.26022800  0.87936300  1
  O  O13  1  0.94828700  0.23977200  0.12063700  1
  O  O14  1  0.05171300  0.76022800  0.62063700  1
  O  O15  1  0.05171300  0.76022800  0.87936300  1
loop_
_geom_bond_atom_site_label_1
_geom_bond_atom_site_label_2
_geom_bond_distance
_geom_bond_site_symmetry_2
Dy0 O3 2.352491 1_555
Dy0 O2 2.352491 1_545
Dy0 O7 2.402710 1_555
Dy0 O6 2.402710 1_555
Dy0 O10 2.437213 1_555
Dy0 O11 2.437213 1_555
Dy0 Se3 3.043030 1_555
Dy0 Se2 3.043030 1_555
Dy1 O5 2.352491 1_545
Dy1 O4 2.352491 1_554
Dy1 O0 2.402710 1_555
Dy1 O1 2.402710 1_554
Dy1 O12 2.437213 1_554
Dy1 O13 2.437213 1_555
Dy1 Se2 3.043030 1_554
Dy1 Se3 3.043030 1_555
Dy2 O6 2.352491 1_565
Dy2 O7 2.352491 1_555
Dy2 O2 2.402710 1_555
Dy2 O3 2.402710 1_555
Dy2 O14 2.437213 1_555
Dy2 O9 2.437213 1_555
Dy2 Se0 3.043030 1_555
Dy2 Se1 3.043030 1_555
Dy3 O0 2.352491 1_555
Dy3 O1 2.352491 1_564
Dy3 O5 2.402710 1_555
Dy3 O4 2.402710 1_554
Dy3 O8 2.437213 1_555
Dy3 O15 2.437213 1_554
Dy3 Se0 3.043030 1_554
Dy3 Se1 3.043030 1_555
Dy4 O11 2.394917 1_555
Dy4 O12 2.394917 1_555
Dy4 O14 2.419073 1_655
Dy4 O15 2.419073 1_655
Dy4 O3 2.542071 1_555
Dy4 O4 2.542071 1_555
Dy4 Se2 2.875503 1_555
Dy4 Se0 2.978278 1_555
Dy5 O13 2.394917 1_565
Dy5 O10 2.394917 1_565
Dy5 O9 2.419073 1_655
Dy5 O8 2.419073 1_655
Dy5 O2 2.542071 1_555
Dy5 O5 2.542071 1_555
Dy5 Se3 2.875503 1_565
Dy5 Se1 2.978278 1_555
Dy6 O14 2.394917 1_545
Dy6 O15 2.394917 1_545
Dy6 O11 2.419073 1_455
Dy6 O12 2.419073 1_455
Dy6 O1 2.542071 1_555
Dy6 O6 2.542071 1_555
Dy6 Se0 2.875503 1_545
Dy6 Se2 2.978278 1_555
Dy7 O8 2.394917 1_555
Dy7 O9 2.394917 1_555
Dy7 O10 2.419073 1_455
Dy7 O13 2.419073 1_455
Dy7 O7 2.542071 1_555
Dy7 O0 2.542071 1_555
Dy7 Se1 2.875503 1_555
Dy7 Se3 2.978278 1_555
O0 Si3 1.643316 1_555
O1 Si3 1.643316 1_556
O2 Si1 1.643316 1_555
O3 Si1 1.643316 1_555
O4 Si2 1.643316 1_556
O5 Si2 1.643316 1_555
O6 Si0 1.643316 1_555
O7 Si0 1.643316 1_555
O8 Si2 1.655023 1_455
O9 Si1 1.655023 1_455
O10 Si0 1.655023 1_655
O11 Si0 1.655023 1_655
O12 Si3 1.655023 1_656
O13 Si3 1.655023 1_655
O14 Si1 1.655023 1_455
O15 Si2 1.655023 1_456
