# generated using pymatgen
data_Th2Al8Si2Au5
_symmetry_space_group_name_H-M   'P 1'
_cell_length_a   18.01555842
_cell_length_b   18.01555842
_cell_length_c   4.29554700
_cell_angle_alpha   90.00000000
_cell_angle_beta   90.00000000
_cell_angle_gamma   166.29723716
_symmetry_Int_Tables_number   1
_chemical_formula_structural   Th2Al8Si2Au5
_chemical_formula_sum   'Th2 Al8 Si2 Au5'
_cell_volume   330.25658264
_cell_formula_units_Z   1
loop_
 _symmetry_equiv_pos_site_id
 _symmetry_equiv_pos_as_xyz
  1  'x, y, z'
loop_
 _atom_site_type_symbol
 _atom_site_label
 _atom_site_symmetry_multiplicity
 _atom_site_fract_x
 _atom_site_fract_y
 _atom_site_fract_z
 _atom_site_occupancy
  Th  Th0  1  0.70155100  0.29844900  0.50000000  1
  Th  Th1  1  0.29844900  0.70155100  0.50000000  1
  Al  Al0  1  0.62490500  0.37509500  0.00000000  1
  Al  Al1  1  0.37509500  0.62490500  0.00000000  1
  Al  Al2  1  0.87501800  0.12498200  0.50000000  1
  Al  Al3  1  0.12498200  0.87501800  0.50000000  1
  Al  Al4  1  0.95829000  0.04171000  0.50000000  1
  Al  Al5  1  0.04171000  0.95829000  0.50000000  1
  Al  Al6  1  0.54190000  0.45810000  0.00000000  1
  Al  Al7  1  0.45810000  0.54190000  0.00000000  1
  Si  Si0  1  0.76574800  0.23425200  0.00000000  1
  Si  Si1  1  0.23425200  0.76574800  0.00000000  1
  Au  Au0  1  0.83461500  0.16538500  0.00000000  1
  Au  Au1  1  0.16538500  0.83461500  0.00000000  1
  Au  Au2  1  0.00000000  0.00000000  0.00000000  1
  Au  Au3  1  0.58340400  0.41659600  0.50000000  1
  Au  Au4  1  0.41659600  0.58340400  0.50000000  1
loop_
_geom_bond_atom_site_label_1
_geom_bond_atom_site_label_2
_geom_bond_distance
_geom_bond_site_symmetry_2
Al0 Au1 2.591511 1_545
Al0 Au1 2.591511 1_655
Al0 Au3 2.610960 1_554
Al0 Au3 2.610960 1_555
Al0 Th0 3.482967 1_554
Al0 Th0 3.482967 1_555
Al1 Au0 2.591511 1_455
Al1 Au0 2.591511 1_565
Al1 Au4 2.610960 1_555
Al1 Au4 2.610960 1_554
Al1 Th1 3.482967 1_554
Al1 Th1 3.482967 1_555
Al2 Au0 2.588827 1_556
Al2 Au0 2.588827 1_555
Al2 Au4 2.613664 1_655
Al2 Au4 2.613664 1_545
Al2 Th1 3.481651 1_655
Al2 Th1 3.481651 1_545
Al3 Au1 2.588827 1_555
Al3 Au1 2.588827 1_556
Al3 Au3 2.613664 1_565
Al3 Au3 2.613664 1_455
Al3 Th0 3.481651 1_565
Al3 Th0 3.481651 1_455
Al4 Au2 2.615219 1_656
Al4 Au2 2.615219 1_655
Al4 Au4 2.616027 1_655
Al4 Au4 2.616027 1_545
Al5 Au2 2.615219 1_565
Al5 Au2 2.615219 1_566
Al5 Au3 2.616027 1_565
Al5 Au3 2.616027 1_455
Al6 Au3 2.611021 1_555
Al6 Au3 2.611021 1_554
Al6 Au2 2.620236 1_555
Al6 Au2 2.620236 1_665
Al7 Au4 2.611021 1_554
Al7 Au4 2.611021 1_555
Al7 Au2 2.620236 1_555
Al7 Au2 2.620236 1_665
Si0 Th0 3.144387 1_555
Si0 Th0 3.144387 1_554
Si0 Th1 3.255814 1_655
Si0 Th1 3.255814 1_654
Si0 Th1 3.255814 1_544
Si0 Th1 3.255814 1_545
Si1 Th1 3.144387 1_555
Si1 Th1 3.144387 1_554
Si1 Th0 3.255814 1_564
Si1 Th0 3.255814 1_565
Si1 Th0 3.255814 1_454
Si1 Th0 3.255814 1_455
Au0 Si0 2.463635 1_555
Au0 Th1 3.302379 1_655
Au0 Th1 3.302379 1_654
Au0 Th1 3.302379 1_544
Au0 Th1 3.302379 1_545
Au1 Si1 2.463635 1_555
Au1 Th0 3.302379 1_564
Au1 Th0 3.302379 1_565
Au1 Th0 3.302379 1_455
Au1 Th0 3.302379 1_454
