# generated using pymatgen
data_ScFe3
_symmetry_space_group_name_H-M   'P 1'
_cell_length_a   5.48698664
_cell_length_b   5.48698664
_cell_length_c   4.35195400
_cell_angle_alpha   90.00000000
_cell_angle_beta   90.00000000
_cell_angle_gamma   120.00000766
_symmetry_Int_Tables_number   1
_chemical_formula_structural   ScFe3
_chemical_formula_sum   'Sc2 Fe6'
_cell_volume   113.47042962
_cell_formula_units_Z   2
loop_
 _symmetry_equiv_pos_site_id
 _symmetry_equiv_pos_as_xyz
  1  'x, y, z'
loop_
 _atom_site_type_symbol
 _atom_site_label
 _atom_site_symmetry_multiplicity
 _atom_site_fract_x
 _atom_site_fract_y
 _atom_site_fract_z
 _atom_site_occupancy
  Sc  Sc0  1  0.33333300  0.66666700  0.75000000  1
  Sc  Sc1  1  0.66666700  0.33333300  0.25000000  1
  Fe  Fe0  1  0.14827300  0.29654600  0.25000000  1
  Fe  Fe1  1  0.70345400  0.85172700  0.25000000  1
  Fe  Fe2  1  0.14827300  0.85172700  0.25000000  1
  Fe  Fe3  1  0.85172700  0.70345400  0.75000000  1
  Fe  Fe4  1  0.29654600  0.14827300  0.75000000  1
  Fe  Fe5  1  0.85172700  0.14827300  0.75000000  1
loop_
_geom_bond_atom_site_label_1
_geom_bond_atom_site_label_2
_geom_bond_distance
_geom_bond_site_symmetry_2
Fe0 Fe1 2.440716 1_445
Fe0 Fe2 2.440716 1_545
Fe0 Fe5 2.592407 1_454
Fe0 Fe5 2.592407 1_455
Fe0 Fe4 2.592407 1_555
Fe0 Fe4 2.592407 1_554
Fe0 Sc1 2.749054 1_455
Fe0 Sc1 2.749059 1_555
Fe0 Sc0 2.797881 1_555
Fe0 Sc0 2.797881 1_554
Fe0 Fe1 3.046270 1_555
Fe0 Fe2 3.046271 1_555
Fe1 Fe2 2.440716 1_655
Fe1 Fe5 2.592407 1_565
Fe1 Fe5 2.592407 1_564
Fe1 Fe3 2.592407 1_554
Fe1 Fe3 2.592407 1_555
Fe1 Sc1 2.749054 1_565
Fe1 Sc1 2.749059 1_555
Fe1 Sc0 2.797881 1_555
Fe1 Sc0 2.797881 1_554
Fe1 Fe2 3.046271 1_555
Fe2 Fe3 2.592407 1_454
Fe2 Fe4 2.592407 1_564
Fe2 Fe3 2.592407 1_455
Fe2 Fe4 2.592407 1_565
Fe2 Sc1 2.749057 1_455
Fe2 Sc1 2.749057 1_565
Fe2 Sc0 2.797878 1_555
Fe2 Sc0 2.797878 1_554
Fe3 Fe4 2.440716 1_665
Fe3 Fe5 2.440716 1_565
Fe3 Sc0 2.749054 1_655
Fe3 Sc0 2.749059 1_555
Fe3 Sc1 2.797881 1_555
Fe3 Sc1 2.797881 1_556
Fe3 Fe4 3.046270 1_555
Fe3 Fe5 3.046271 1_555
Fe4 Fe5 2.440716 1_455
Fe4 Sc0 2.749054 1_545
Fe4 Sc0 2.749059 1_555
Fe4 Sc1 2.797881 1_555
Fe4 Sc1 2.797881 1_556
Fe4 Fe5 3.046271 1_555
Fe5 Sc0 2.749057 1_545
Fe5 Sc0 2.749057 1_655
Fe5 Sc1 2.797878 1_555
Fe5 Sc1 2.797878 1_556
