# generated using pymatgen
data_Dy2Fe17C2
_symmetry_space_group_name_H-M   'P 1'
_cell_length_a   6.45558214
_cell_length_b   6.47618507
_cell_length_c   6.45558214
_cell_angle_alpha   83.66789148
_cell_angle_beta   83.37710281
_cell_angle_gamma   83.66789148
_symmetry_Int_Tables_number   1
_chemical_formula_structural   Dy2Fe17C2
_chemical_formula_sum   'Dy2 Fe17 C2'
_cell_volume   265.15098004
_cell_formula_units_Z   1
loop_
 _symmetry_equiv_pos_site_id
 _symmetry_equiv_pos_as_xyz
  1  'x, y, z'
loop_
 _atom_site_type_symbol
 _atom_site_label
 _atom_site_symmetry_multiplicity
 _atom_site_fract_x
 _atom_site_fract_y
 _atom_site_fract_z
 _atom_site_occupancy
  Dy  Dy0  1  0.65324300  0.66324000  0.65324300  1
  Dy  Dy1  1  0.34675700  0.33676000  0.34675700  1
  Fe  Fe0  1  0.90351400  0.90364200  0.90351400  1
  Fe  Fe1  1  0.09648600  0.09635800  0.09648600  1
  Fe  Fe2  1  0.34502200  0.85459600  0.34502200  1
  Fe  Fe3  1  0.85259700  0.34201200  0.34359000  1
  Fe  Fe4  1  0.34359000  0.34201200  0.85259700  1
  Fe  Fe5  1  0.65497800  0.14540400  0.65497800  1
  Fe  Fe6  1  0.14740300  0.65798800  0.65641000  1
  Fe  Fe7  1  0.65641000  0.65798800  0.14740300  1
  Fe  Fe8  1  0.71426000  0.00000000  0.28574000  1
  Fe  Fe9  1  0.99851100  0.28541600  0.71491500  1
  Fe  Fe10  1  0.28508500  0.71458400  0.00148900  1
  Fe  Fe11  1  0.00148900  0.71458400  0.28508500  1
  Fe  Fe12  1  0.71491500  0.28541600  0.99851100  1
  Fe  Fe13  1  0.28574000  0.00000000  0.71426000  1
  Fe  Fe14  1  0.00000000  0.50000000  0.00000000  1
  Fe  Fe15  1  0.50000000  0.00000000  0.00000000  1
  Fe  Fe16  1  0.00000000  0.00000000  0.50000000  1
  C  C0  1  0.00000000  0.50000000  0.50000000  1
  C  C1  1  0.50000000  0.50000000  0.00000000  1
loop_
_geom_bond_atom_site_label_1
_geom_bond_atom_site_label_2
_geom_bond_distance
_geom_bond_site_symmetry_2
Dy0 Fe2 3.046202 1_555
Dy0 Fe0 3.058812 1_555
Dy0 Fe13 3.061484 1_565
Dy0 Fe8 3.061484 1_565
Dy0 Fe5 3.125098 1_565
Dy0 Fe15 3.291838 1_566
Dy0 Fe16 3.291838 1_665
Dy0 Fe5 3.351172 1_555
Dy0 Fe14 3.354310 1_656
Dy1 Fe5 3.046202 1_555
Dy1 Fe1 3.058812 1_555
Dy1 Fe13 3.061484 1_555
Dy1 Fe8 3.061484 1_555
Dy1 Fe2 3.125098 1_545
Dy1 Fe16 3.291838 1_555
Dy1 Fe15 3.291838 1_555
Dy1 Fe2 3.351172 1_555
Dy1 Fe14 3.354310 1_555
Fe0 Fe1 2.388580 1_666
Fe0 Fe16 2.629807 1_665
Fe0 Fe15 2.629807 1_566
Fe0 Fe14 2.642050 1_656
Fe0 Fe7 2.642433 1_556
Fe0 Fe6 2.642433 1_655
Fe0 Fe5 2.661850 1_565
Fe0 Fe13 2.728861 1_665
Fe0 Fe8 2.728861 1_566
Fe0 Fe12 2.733059 1_565
Fe0 Fe9 2.733059 1_565
Fe0 Fe10 2.736802 1_656
Fe0 Fe11 2.736802 1_656
Fe1 Fe15 2.629807 1_555
Fe1 Fe16 2.629807 1_555
Fe1 Fe14 2.642050 1_555
Fe1 Fe4 2.642433 1_554
Fe1 Fe3 2.642433 1_455
Fe1 Fe2 2.661850 1_545
Fe1 Fe13 2.728861 1_554
Fe1 Fe8 2.728861 1_455
Fe1 Fe10 2.733059 1_545
Fe1 Fe11 2.733059 1_545
Fe1 Fe12 2.736802 1_454
Fe1 Fe9 2.736802 1_454
Fe2 Fe6 2.547898 1_555
Fe2 Fe7 2.547898 1_555
Fe2 Fe8 2.630620 1_565
Fe3 Fe5 2.547898 1_555
Fe3 Fe8 2.557077 1_555
Fe4 Fe5 2.547898 1_555
Fe5 Fe9 2.570799 1_555
Fe5 Fe8 2.630620 1_555
Fe7 Fe8 2.557077 1_565
Fe10 Fe14 2.426836 1_555
Fe10 Fe15 2.429047 1_565
Fe10 Fe13 2.469553 1_564
Fe10 Fe2 2.570799 1_555
Fe11 Fe14 2.426836 1_555
Fe11 Fe16 2.429047 1_565
Fe11 Fe8 2.469553 1_465
Fe11 Fe2 2.570799 1_555
Fe12 Fe14 2.426836 1_656
Fe12 Fe15 2.429047 1_556
Fe12 Fe8 2.469553 1_556
Fe12 Fe5 2.570799 1_555
Fe13 Fe15 2.429880 1_556
Fe13 Fe16 2.429880 1_555
Fe13 Fe9 2.469553 1_455
Fe13 Fe6 2.557077 1_545
Fe13 Fe4 2.557077 1_555
Fe13 Fe2 2.630620 1_545
Fe13 Fe5 2.630620 1_555
Fe14 Fe9 2.426836 1_454
Fe14 Fe4 2.469716 1_554
Fe14 Fe3 2.469716 1_455
Fe14 Fe7 2.469716 1_455
Fe14 Fe6 2.469716 1_554
Fe15 Fe8 2.429880 1_555
Fe15 Fe2 2.465720 1_545
Fe15 Fe5 2.465720 1_554
Fe15 Fe4 2.468672 1_554
Fe15 Fe7 2.468672 1_545
Fe16 Fe9 2.429047 1_455
Fe16 Fe8 2.429880 1_455
Fe16 Fe5 2.465720 1_455
Fe16 Fe2 2.465720 1_545
Fe16 Fe6 2.468672 1_545
Fe16 Fe3 2.468672 1_455
C0 Fe9 1.852236 1_455
C0 Fe11 1.852236 1_555
C0 Fe3 1.906869 1_455
C0 Fe6 1.906869 1_555
C0 Dy1 2.510997 1_555
C0 Dy0 2.510997 1_455
C1 Fe12 1.852236 1_554
C1 Fe10 1.852236 1_555
C1 Fe4 1.906869 1_554
C1 Fe7 1.906869 1_555
C1 Dy1 2.510997 1_555
C1 Dy0 2.510997 1_554
