# generated using pymatgen
data_Mg14MnB
_symmetry_space_group_name_H-M   'P 1'
_cell_length_a   6.19194559
_cell_length_b   6.19194511
_cell_length_c   10.06840372
_cell_angle_alpha   90.00000000
_cell_angle_beta   90.00000000
_cell_angle_gamma   120.00000250
_symmetry_Int_Tables_number   1
_chemical_formula_structural   Mg14MnB
_chemical_formula_sum   'Mg14 Mn1 B1'
_cell_volume   334.30700092
_cell_formula_units_Z   1
loop_
 _symmetry_equiv_pos_site_id
 _symmetry_equiv_pos_as_xyz
  1  'x, y, z'
loop_
 _atom_site_type_symbol
 _atom_site_label
 _atom_site_symmetry_multiplicity
 _atom_site_fract_x
 _atom_site_fract_y
 _atom_site_fract_z
 _atom_site_occupancy
  Mg  Mg0  1  0.16870035  0.83434967  0.12500000  1
  Mg  Mg1  1  0.16457751  0.83228826  0.62500000  1
  Mg  Mg2  1  0.66565033  0.33129965  0.12500000  1
  Mg  Mg3  1  0.66771174  0.33542249  0.62500000  1
  Mg  Mg4  1  0.66565033  0.83434967  0.12500000  1
  Mg  Mg5  1  0.66771174  0.83228826  0.62500000  1
  Mg  Mg6  1  0.32719629  0.17280371  0.37830581  1
  Mg  Mg7  1  0.32719629  0.17280371  0.87169419  1
  Mg  Mg8  1  0.32719629  0.65439359  0.37830581  1
  Mg  Mg9  1  0.32719629  0.65439359  0.87169419  1
  Mg  Mg10  1  0.84560641  0.17280371  0.37830581  1
  Mg  Mg11  1  0.84560641  0.17280371  0.87169419  1
  Mg  Mg12  1  0.83333300  0.66666700  0.37294140  1
  Mg  Mg13  1  0.83333300  0.66666700  0.87705860  1
  Mn  Mn0  1  0.16666700  0.33333300  0.12500000  1
  B  B0  1  0.16666700  0.33333300  0.62500000  1
loop_
_geom_bond_atom_site_label_1
_geom_bond_atom_site_label_2
_geom_bond_distance
_geom_bond_site_symmetry_2
Mg0 Mg12 3.076688 1_455
Mg0 Mg13 3.076688 1_454
Mg0 Mg2 3.077087 1_565
Mg0 Mg4 3.077087 1_555
Mg0 Mn0 3.095992 1_555
Mg0 Mn0 3.095992 1_565
Mg0 Mg2 3.114858 1_455
Mg0 Mg4 3.114858 1_455
Mg0 Mg9 3.130938 1_554
Mg0 Mg8 3.130938 1_555
Mg0 Mg7 3.130944 1_564
Mg0 Mg6 3.130944 1_565
Mg1 Mg8 3.083135 1_555
Mg1 Mg9 3.083135 1_555
Mg1 Mg6 3.083142 1_565
Mg1 Mg7 3.083142 1_565
Mg1 Mg13 3.097688 1_455
Mg1 Mg12 3.097688 1_455
Mg2 Mg4 3.077087 1_545
Mg2 Mn0 3.095992 1_655
Mg2 Mn0 3.095992 1_555
Mg2 Mg4 3.114858 1_555
Mg2 Mg7 3.130945 1_554
Mg2 Mg6 3.130945 1_555
Mg3 Mg6 3.083142 1_555
Mg3 Mg7 3.083142 1_555
Mg4 Mn0 3.095992 1_555
Mg4 Mn0 3.095992 1_665
Mg4 Mg8 3.130944 1_555
Mg4 Mg9 3.130944 1_554
Mg5 Mg8 3.083142 1_555
Mg5 Mg9 3.083142 1_555
Mg6 Mg8 2.981978 1_555
Mg6 Mn0 3.077094 1_555
Mg6 Mg8 3.209967 1_545
Mg7 Mg9 2.981978 1_555
Mg7 Mn0 3.077094 1_556
Mg7 Mg9 3.209967 1_545
Mg8 Mn0 3.077099 1_555
Mg9 Mn0 3.077099 1_556
Mg10 Mg8 2.981978 1_655
Mg10 Mg6 2.981978 1_655
Mg10 Mn0 3.077100 1_655
Mg10 Mg3 3.083135 1_555
Mg10 Mg5 3.083142 1_545
Mg10 Mg12 3.097143 1_555
Mg10 Mg12 3.097143 1_545
Mg10 Mg2 3.130938 1_555
Mg10 Mg4 3.130944 1_545
Mg10 Mg8 3.209967 1_545
Mg10 Mg6 3.209967 1_555
Mg11 Mg9 2.981978 1_655
Mg11 Mg7 2.981978 1_655
Mg11 Mn0 3.077100 1_656
Mg11 Mg3 3.083135 1_555
Mg11 Mg5 3.083142 1_545
Mg11 Mg13 3.097143 1_555
Mg11 Mg13 3.097143 1_545
Mg11 Mg2 3.130938 1_556
Mg11 Mg4 3.130944 1_546
Mg11 Mg9 3.209967 1_545
Mg11 Mg7 3.209967 1_555
Mg12 Mg4 3.076682 1_555
Mg12 Mg2 3.076688 1_555
Mg12 Mg6 3.097143 1_665
Mg12 Mg6 3.097143 1_555
Mg12 Mg8 3.097143 1_655
Mg12 Mg8 3.097143 1_555
Mg12 Mg5 3.097681 1_555
Mg12 Mg3 3.097687 1_555
Mg13 Mg4 3.076682 1_556
Mg13 Mg2 3.076688 1_556
Mg13 Mg7 3.097143 1_665
Mg13 Mg7 3.097143 1_555
Mg13 Mg9 3.097143 1_655
Mg13 Mg9 3.097143 1_555
Mg13 Mg5 3.097681 1_555
Mg13 Mg3 3.097687 1_555
B0 Mg7 3.022149 1_555
B0 Mg6 3.022149 1_555
B0 Mg9 3.022155 1_555
B0 Mg8 3.022155 1_555
B0 Mg10 3.022155 1_455
B0 Mg11 3.022155 1_455
