# generated using pymatgen
data_Zn3Fe3(AsO4)4
_symmetry_space_group_name_H-M   'P 1'
_cell_length_a   5.28463900
_cell_length_b   8.62645600
_cell_length_c   16.19911865
_cell_angle_alpha   69.24523634
_cell_angle_beta   90.00000000
_cell_angle_gamma   90.00000000
_symmetry_Int_Tables_number   1
_chemical_formula_structural   Zn3Fe3(AsO4)4
_chemical_formula_sum   'Zn6 Fe6 As8 O32'
_cell_volume   690.55750737
_cell_formula_units_Z   2
loop_
 _symmetry_equiv_pos_site_id
 _symmetry_equiv_pos_as_xyz
  1  'x, y, z'
loop_
 _atom_site_type_symbol
 _atom_site_label
 _atom_site_symmetry_multiplicity
 _atom_site_fract_x
 _atom_site_fract_y
 _atom_site_fract_z
 _atom_site_occupancy
  Zn  Zn0  1  0.56017500  0.30797900  0.21520500  1
  Zn  Zn1  1  0.06017500  0.69202100  0.28479500  1
  Zn  Zn2  1  0.43982500  0.69202100  0.78479500  1
  Zn  Zn3  1  0.93982500  0.30797900  0.71520500  1
  Zn  Zn4  1  0.50000000  0.00000000  0.50000000  1
  Zn  Zn5  1  0.00000000  0.00000000  0.00000000  1
  Fe  Fe0  1  0.49578800  0.19919400  0.62460200  1
  Fe  Fe1  1  0.50421200  0.80080600  0.37539800  1
  Fe  Fe2  1  0.99578800  0.80080600  0.87539800  1
  Fe  Fe3  1  0.00421200  0.19919400  0.12460200  1
  Fe  Fe4  1  0.00000000  0.50000000  0.50000000  1
  Fe  Fe5  1  0.50000000  0.50000000  0.00000000  1
  As  As0  1  0.97860400  0.03102100  0.35192100  1
  As  As1  1  0.49530700  0.41502500  0.39426700  1
  As  As2  1  0.99530700  0.58497500  0.10573300  1
  As  As3  1  0.00469300  0.41502500  0.89426700  1
  As  As4  1  0.02139600  0.96897900  0.64807900  1
  As  As5  1  0.50469300  0.58497500  0.60573300  1
  As  As6  1  0.52139600  0.03102100  0.85192100  1
  As  As7  1  0.47860400  0.96897900  0.14807900  1
  O  O0  1  0.40113900  0.81794300  0.24895500  1
  O  O1  1  0.92983200  0.75185800  0.01161500  1
  O  O2  1  0.40899400  0.39258200  0.29880000  1
  O  O3  1  0.38457600  0.16135100  0.15402700  1
  O  O4  1  0.59100600  0.60741800  0.70120000  1
  O  O5  1  0.09886100  0.81794300  0.74895500  1
  O  O6  1  0.90899400  0.60741800  0.20120000  1
  O  O7  1  0.71038300  0.49974900  0.89529300  1
  O  O8  1  0.68930100  0.08138300  0.92740400  1
  O  O9  1  0.59886100  0.18205700  0.75104500  1
  O  O10  1  0.11542400  0.16135100  0.65402700  1
  O  O11  1  0.28961700  0.50025100  0.10470700  1
  O  O12  1  0.28570100  0.57172200  0.40226200  1
  O  O13  1  0.31069900  0.91861700  0.07259600  1
  O  O14  1  0.70068900  0.99033100  0.62774400  1
  O  O15  1  0.20068900  0.00966900  0.87225600  1
  O  O16  1  0.78570100  0.42827800  0.09773800  1
  O  O17  1  0.09100600  0.39258200  0.79880000  1
  O  O18  1  0.18930100  0.91861700  0.57259600  1
  O  O19  1  0.21038300  0.50025100  0.60470700  1
  O  O20  1  0.79931100  0.99033100  0.12774400  1
  O  O21  1  0.29931100  0.00966900  0.37225600  1
  O  O22  1  0.07016800  0.24814200  0.98838500  1
  O  O23  1  0.42983200  0.24814200  0.48838500  1
  O  O24  1  0.71429900  0.42827800  0.59773800  1
  O  O25  1  0.90113900  0.18205700  0.25104500  1
  O  O26  1  0.61542400  0.83864900  0.84597300  1
  O  O27  1  0.81069900  0.08138300  0.42740400  1
  O  O28  1  0.57016800  0.75185800  0.51161500  1
  O  O29  1  0.78961700  0.49974900  0.39529300  1
  O  O30  1  0.21429900  0.57172200  0.90226200  1
  O  O31  1  0.88457600  0.83864900  0.34597300  1
loop_
_geom_bond_atom_site_label_1
_geom_bond_atom_site_label_2
_geom_bond_distance
_geom_bond_site_symmetry_2
Fe0 O10 2.064930 1_555
Fe0 O9 2.073485 1_555
Fe0 O14 2.087201 1_545
Fe0 O23 2.123321 1_555
Fe0 O24 2.195137 1_555
Fe1 O31 2.064930 1_555
Fe1 O0 2.073485 1_555
Fe1 O21 2.087201 1_565
Fe1 O28 2.123321 1_555
Fe1 O12 2.195137 1_555
Fe2 O26 2.064930 1_555
Fe2 O5 2.073485 1_655
Fe2 O15 2.087201 1_665
Fe2 O1 2.123321 1_556
Fe2 O30 2.195137 1_655
Fe3 O3 2.064930 1_555
Fe3 O25 2.073485 1_455
Fe3 O20 2.087201 1_445
Fe3 O22 2.123321 1_554
Fe3 O16 2.195137 1_455
Fe4 O29 2.028710 1_455
Fe4 O19 2.028710 1_555
Fe4 O12 2.115385 1_555
Fe4 O24 2.115385 1_455
Fe5 O11 2.028710 1_555
Fe5 O7 2.028710 1_554
Fe5 O30 2.115385 1_554
Fe5 O16 2.115385 1_555
As0 O27 1.687516 1_555
As0 O21 1.723906 1_655
As0 O25 1.739678 1_555
As0 O31 1.767321 1_545
As1 O2 1.688000 1_555
As1 O23 1.720786 1_555
As1 O29 1.721069 1_555
As1 O12 1.787465 1_555
As2 O6 1.688000 1_555
As2 O1 1.720786 1_555
As2 O11 1.721069 1_655
As2 O16 1.787465 1_555
As3 O17 1.688000 1_555
As3 O22 1.720786 1_555
As3 O7 1.721069 1_455
As3 O30 1.787465 1_555
As4 O18 1.687516 1_555
As4 O14 1.723906 1_455
As4 O5 1.739678 1_555
As4 O10 1.767321 1_565
As5 O4 1.688000 1_555
As5 O28 1.720786 1_555
As5 O19 1.721069 1_555
As5 O24 1.787465 1_555
As6 O8 1.687516 1_555
As6 O15 1.723906 1_555
As6 O9 1.739678 1_555
As6 O26 1.767321 1_545
As7 O13 1.687516 1_555
As7 O20 1.723906 1_555
As7 O0 1.739678 1_555
As7 O3 1.767321 1_565
O0 Zn1 2.077692 1_555
O1 Zn5 2.114134 1_665
O2 Zn0 1.924878 1_555
O3 Zn0 2.081257 1_555
O4 Zn2 1.924878 1_555
O5 Zn2 2.077692 1_555
O6 Zn1 1.924878 1_655
O7 Zn2 2.428003 1_555
O8 Zn5 1.996655 1_656
O9 Zn3 2.077692 1_555
O10 Zn3 2.081257 1_455
O11 Zn0 2.428003 1_555
O12 Zn1 2.172260 1_555
O13 Zn5 1.996655 1_565
O14 Zn4 2.300348 1_565
O15 Zn5 2.300348 1_556
O16 Zn0 2.172260 1_555
O17 Zn3 1.924878 1_455
O18 Zn4 1.996655 1_565
O19 Zn3 2.428003 1_455
O20 Zn5 2.300348 1_665
O21 Zn4 2.300348 1_555
O22 Zn5 2.114134 1_556
O23 Zn4 2.114134 1_555
O24 Zn3 2.172260 1_555
O25 Zn0 2.077692 1_555
O26 Zn2 2.081257 1_555
O27 Zn4 1.996655 1_555
O28 Zn4 2.114134 1_565
O29 Zn1 2.428003 1_655
O30 Zn2 2.172260 1_555
O31 Zn1 2.081257 1_655
