# generated using pymatgen
data_TbSbIr
_symmetry_space_group_name_H-M   'P 1'
_cell_length_a   4.52263072
_cell_length_b   7.19018305
_cell_length_c   7.85276645
_cell_angle_alpha   89.99952260
_cell_angle_beta   90.00000000
_cell_angle_gamma   90.00000000
_symmetry_Int_Tables_number   1
_chemical_formula_structural   TbSbIr
_chemical_formula_sum   'Tb4 Sb4 Ir4'
_cell_volume   255.36052146
_cell_formula_units_Z   4
loop_
 _symmetry_equiv_pos_site_id
 _symmetry_equiv_pos_as_xyz
  1  'x, y, z'
loop_
 _atom_site_type_symbol
 _atom_site_label
 _atom_site_symmetry_multiplicity
 _atom_site_fract_x
 _atom_site_fract_y
 _atom_site_fract_z
 _atom_site_occupancy
  Tb  Tb0  1  0.25000000  0.51248045  0.19407230  1
  Tb  Tb1  1  0.75000000  0.48749788  0.80592582  1
  Tb  Tb2  1  0.75000000  0.98752710  0.69407993  1
  Tb  Tb3  1  0.25000000  0.01250272  0.30591622  1
  Sb  Sb0  1  0.25000000  0.67876735  0.58779819  1
  Sb  Sb1  1  0.75000000  0.32122403  0.41220312  1
  Sb  Sb2  1  0.75000000  0.82122046  0.08779511  1
  Sb  Sb3  1  0.25000000  0.17876947  0.91220512  1
  Ir  Ir0  1  0.25000000  0.79336640  0.91244388  1
  Ir  Ir1  1  0.75000000  0.20664772  0.08755939  1
  Ir  Ir2  1  0.75000000  0.70664045  0.41244190  1
  Ir  Ir3  1  0.25000000  0.29335696  0.58755901  1
loop_
_geom_bond_atom_site_label_1
_geom_bond_atom_site_label_2
_geom_bond_distance
_geom_bond_site_symmetry_2
Sb0 Tb1 3.152602 1_455
Sb0 Tb1 3.152602 1_555
Sb0 Tb3 3.264644 1_565
Sb0 Tb2 3.276998 1_455
Sb0 Tb2 3.276998 1_555
Sb0 Tb0 3.314975 1_555
Sb1 Tb0 3.152575 1_555
Sb1 Tb0 3.152575 1_655
Sb1 Tb2 3.264413 1_545
Sb1 Tb3 3.276821 1_555
Sb1 Tb3 3.276821 1_655
Sb1 Tb1 3.314918 1_555
Sb2 Tb3 3.152627 1_665
Sb2 Tb3 3.152627 1_565
Sb2 Tb1 3.264536 1_554
Sb2 Tb0 3.276884 1_655
Sb2 Tb0 3.276884 1_555
Sb2 Tb2 3.314929 1_554
Sb3 Tb2 3.152519 1_445
Sb3 Tb2 3.152519 1_545
Sb3 Tb0 3.264463 1_556
Sb3 Tb1 3.276831 1_455
Sb3 Tb1 3.276831 1_555
Sb3 Tb3 3.314796 1_556
Ir0 Sb2 2.655140 1_556
Ir0 Sb2 2.655140 1_456
Ir0 Sb0 2.679228 1_555
Ir0 Sb3 2.771119 1_565
Ir0 Tb0 2.994963 1_556
Ir0 Tb2 3.162732 1_455
Ir0 Tb2 3.162732 1_555
Ir0 Tb1 3.263426 1_455
Ir0 Tb1 3.263426 1_555
Ir0 Tb3 3.468406 1_566
Ir1 Sb3 2.655166 1_554
Ir1 Sb3 2.655166 1_654
Ir1 Sb1 2.679163 1_555
Ir1 Sb2 2.771293 1_545
Ir1 Tb1 2.994819 1_554
Ir1 Tb3 3.162651 1_555
Ir1 Tb3 3.162651 1_655
Ir1 Tb0 3.263242 1_555
Ir1 Tb0 3.263242 1_655
Ir1 Tb2 3.468405 1_544
Ir2 Sb0 2.655169 1_655
Ir2 Sb0 2.655169 1_555
Ir2 Sb2 2.679181 1_555
Ir2 Sb1 2.771215 1_555
Ir2 Tb2 2.995047 1_555
Ir2 Tb0 3.162766 1_655
Ir2 Tb0 3.162766 1_555
Ir2 Tb3 3.263402 1_565
Ir2 Tb3 3.263402 1_665
Ir2 Tb1 3.468484 1_555
Ir3 Sb1 2.655165 1_555
Ir3 Sb1 2.655165 1_455
Ir3 Sb3 2.679192 1_555
Ir3 Sb0 2.771172 1_555
Ir3 Tb3 2.994917 1_555
Ir3 Tb1 3.162694 1_455
Ir3 Tb1 3.162694 1_555
Ir3 Tb2 3.263235 1_545
Ir3 Tb2 3.263235 1_445
Ir3 Tb0 3.468442 1_555
