# generated using pymatgen
data_Sr(VN2)2
_symmetry_space_group_name_H-M   'P 1'
_cell_length_a   10.56917600
_cell_length_b   10.56917600
_cell_length_c   10.56917600
_cell_angle_alpha   90.00000000
_cell_angle_beta   90.00000000
_cell_angle_gamma   90.00000000
_symmetry_Int_Tables_number   1
_chemical_formula_structural   Sr(VN2)2
_chemical_formula_sum   'Sr12 V24 N48'
_cell_volume   1180.65603058
_cell_formula_units_Z   12
loop_
 _symmetry_equiv_pos_site_id
 _symmetry_equiv_pos_as_xyz
  1  'x, y, z'
loop_
 _atom_site_type_symbol
 _atom_site_label
 _atom_site_symmetry_multiplicity
 _atom_site_fract_x
 _atom_site_fract_y
 _atom_site_fract_z
 _atom_site_occupancy
  Sr  Sr0  1  0.50000000  0.50000000  0.00000000  1
  Sr  Sr1  1  0.50000000  0.00000000  0.50000000  1
  Sr  Sr2  1  0.00000000  0.50000000  0.50000000  1
  Sr  Sr3  1  0.00000000  0.00000000  0.00000000  1
  Sr  Sr4  1  0.12233100  0.87766800  0.37766900  1
  Sr  Sr5  1  0.87766800  0.37766900  0.12233100  1
  Sr  Sr6  1  0.37766900  0.12233100  0.87766800  1
  Sr  Sr7  1  0.62233200  0.62233200  0.62233200  1
  Sr  Sr8  1  0.87766800  0.12233100  0.62233200  1
  Sr  Sr9  1  0.12233100  0.62233200  0.87766800  1
  Sr  Sr10  1  0.62233200  0.87766800  0.12233100  1
  Sr  Sr11  1  0.37766900  0.37766900  0.37766900  1
  V  V0  1  0.38302300  0.70218700  0.35495800  1
  V  V1  1  0.61697700  0.20218700  0.14504200  1
  V  V2  1  0.11697700  0.29781300  0.85495800  1
  V  V3  1  0.88302300  0.79781300  0.64504200  1
  V  V4  1  0.35495800  0.38302300  0.70218700  1
  V  V5  1  0.14504200  0.61697700  0.20218700  1
  V  V6  1  0.85495800  0.11697700  0.29781300  1
  V  V7  1  0.64504200  0.88302300  0.79781300  1
  V  V8  1  0.70218700  0.35495800  0.38302300  1
  V  V9  1  0.20218700  0.14504200  0.61697700  1
  V  V10  1  0.29781300  0.85495800  0.11697700  1
  V  V11  1  0.79781300  0.64504200  0.88302300  1
  V  V12  1  0.61697700  0.29781300  0.64504200  1
  V  V13  1  0.38302300  0.79781300  0.85495800  1
  V  V14  1  0.88302300  0.70218700  0.14504200  1
  V  V15  1  0.11697700  0.20218700  0.35495800  1
  V  V16  1  0.64504200  0.61697700  0.29781300  1
  V  V17  1  0.85495800  0.38302300  0.79781300  1
  V  V18  1  0.14504200  0.88302300  0.70218700  1
  V  V19  1  0.35495800  0.11697700  0.20218700  1
  V  V20  1  0.29781300  0.64504200  0.61697700  1
  V  V21  1  0.79781300  0.85495800  0.38302300  1
  V  V22  1  0.70218700  0.14504200  0.88302300  1
  V  V23  1  0.20218700  0.35495800  0.11697700  1
  N  N0  1  0.36037600  0.85634800  0.27516800  1
  N  N1  1  0.63962400  0.35634800  0.22483200  1
  N  N2  1  0.13962400  0.14365200  0.77516800  1
  N  N3  1  0.86037600  0.64365200  0.72483200  1
  N  N4  1  0.27516800  0.36037600  0.85634800  1
  N  N5  1  0.22483200  0.63962400  0.35634800  1
  N  N6  1  0.77516800  0.13962400  0.14365200  1
  N  N7  1  0.72483200  0.86037600  0.64365200  1
  N  N8  1  0.85634800  0.27516800  0.36037600  1
  N  N9  1  0.35634800  0.22483200  0.63962400  1
  N  N10  1  0.14365200  0.77516800  0.13962400  1
  N  N11  1  0.64365200  0.72483200  0.86037600  1
  N  N12  1  0.63962400  0.14365200  0.72483200  1
  N  N13  1  0.36037600  0.64365200  0.77516800  1
  N  N14  1  0.86037600  0.85634800  0.22483200  1
  N  N15  1  0.13962400  0.35634800  0.27516800  1
  N  N16  1  0.72483200  0.63962400  0.14365200  1
  N  N17  1  0.77516800  0.36037600  0.64365200  1
  N  N18  1  0.22483200  0.86037600  0.85634800  1
  N  N19  1  0.27516800  0.13962400  0.35634800  1
  N  N20  1  0.14365200  0.72483200  0.63962400  1
  N  N21  1  0.64365200  0.77516800  0.36037600  1
  N  N22  1  0.85634800  0.22483200  0.86037600  1
  N  N23  1  0.35634800  0.27516800  0.13962400  1
  N  N24  1  0.41788800  0.72484000  0.52088600  1
  N  N25  1  0.58211200  0.22484000  0.97911400  1
  N  N26  1  0.08211200  0.27516000  0.02088600  1
  N  N27  1  0.91788800  0.77516000  0.47911400  1
  N  N28  1  0.52088600  0.41788800  0.72484000  1
  N  N29  1  0.97911400  0.58211200  0.22484000  1
  N  N30  1  0.02088600  0.08211200  0.27516000  1
  N  N31  1  0.47911400  0.91788800  0.77516000  1
  N  N32  1  0.72484000  0.52088600  0.41788800  1
  N  N33  1  0.22484000  0.97911400  0.58211200  1
  N  N34  1  0.27516000  0.02088600  0.08211200  1
  N  N35  1  0.77516000  0.47911400  0.91788800  1
  N  N36  1  0.58211200  0.27516000  0.47911400  1
  N  N37  1  0.41788800  0.77516000  0.02088600  1
  N  N38  1  0.91788800  0.72484000  0.97911400  1
  N  N39  1  0.08211200  0.22484000  0.52088600  1
  N  N40  1  0.47911400  0.58211200  0.27516000  1
  N  N41  1  0.02088600  0.41788800  0.77516000  1
  N  N42  1  0.97911400  0.91788800  0.72484000  1
  N  N43  1  0.52088600  0.08211200  0.22484000  1
  N  N44  1  0.27516000  0.47911400  0.58211200  1
  N  N45  1  0.77516000  0.02088600  0.41788800  1
  N  N46  1  0.72484000  0.97911400  0.91788800  1
  N  N47  1  0.22484000  0.52088600  0.08211200  1
loop_
_geom_bond_atom_site_label_1
_geom_bond_atom_site_label_2
_geom_bond_distance
_geom_bond_site_symmetry_2
N0 V10 1.798017 1_555
N0 V0 1.850208 1_555
N0 Sr4 2.748523 1_555
N0 Sr1 3.182712 1_565
N1 V8 1.798017 1_555
N1 V1 1.850208 1_555
N1 Sr5 2.748514 1_555
N1 Sr0 3.182712 1_555
N2 V9 1.798017 1_555
N2 V2 1.850208 1_555
N2 Sr6 2.748519 1_555
N2 Sr3 3.182712 1_556
N3 V11 1.798017 1_555
N3 V3 1.850208 1_555
N3 Sr7 2.748509 1_555
N3 Sr2 3.182712 1_655
N4 V2 1.798017 1_555
N4 V4 1.850208 1_555
N4 Sr6 2.748523 1_555
N4 Sr0 3.182712 1_556
N5 V0 1.798017 1_555
N5 V5 1.850208 1_555
N5 Sr4 2.748514 1_555
N5 Sr2 3.182712 1_555
N6 V1 1.798017 1_555
N6 V6 1.850208 1_555
N6 Sr5 2.748519 1_555
N6 Sr3 3.182712 1_655
N7 V3 1.798017 1_555
N7 V7 1.850208 1_555
N7 Sr7 2.748509 1_555
N7 Sr1 3.182712 1_565
N8 V6 1.798017 1_555
N8 V8 1.850208 1_555
N8 Sr5 2.748523 1_555
N8 Sr2 3.182712 1_655
N9 V4 1.798017 1_555
N9 V9 1.850208 1_555
N9 Sr6 2.748514 1_555
N9 Sr1 3.182712 1_555
N10 V5 1.798017 1_555
N10 V10 1.850208 1_555
N10 Sr4 2.748519 1_555
N10 Sr3 3.182712 1_565
N11 V7 1.798017 1_555
N11 V11 1.850208 1_555
N11 Sr7 2.748509 1_555
N11 Sr0 3.182712 1_556
N12 V22 1.798017 1_555
N12 V12 1.850208 1_555
N12 Sr8 2.748510 1_555
N12 Sr1 3.182712 1_555
N13 V20 1.798017 1_555
N13 V13 1.850208 1_555
N13 Sr9 2.748519 1_555
N13 Sr0 3.182712 1_556
N14 V21 1.798017 1_555
N14 V14 1.850208 1_555
N14 Sr10 2.748513 1_555
N14 Sr3 3.182712 1_665
N15 V23 1.798017 1_555
N15 V15 1.850208 1_555
N15 Sr11 2.748524 1_555
N15 Sr2 3.182712 1_555
N16 V14 1.798017 1_555
N16 V16 1.850208 1_555
N16 Sr10 2.748510 1_555
N16 Sr0 3.182712 1_555
N17 V12 1.798017 1_555
N17 V17 1.850208 1_555
N17 Sr8 2.748519 1_555
N17 Sr2 3.182712 1_655
N18 V13 1.798017 1_555
N18 V18 1.850208 1_555
N18 Sr9 2.748513 1_555
N18 Sr3 3.182712 1_566
N19 V15 1.798017 1_555
N19 V19 1.850208 1_555
N19 Sr11 2.748524 1_555
N19 Sr1 3.182712 1_555
N20 V18 1.798017 1_555
N20 V20 1.850208 1_555
N20 Sr9 2.748510 1_555
N20 Sr2 3.182712 1_555
N21 V16 1.798017 1_555
N21 V21 1.850208 1_555
N21 Sr10 2.748519 1_555
N21 Sr1 3.182712 1_565
N22 V17 1.798017 1_555
N22 V22 1.850208 1_555
N22 Sr8 2.748513 1_555
N22 Sr3 3.182712 1_656
N23 V19 1.798017 1_555
N23 V23 1.850208 1_555
N23 Sr11 2.748524 1_555
N23 Sr0 3.182712 1_555
N24 V0 1.807942 1_555
N24 V20 1.831221 1_555
N24 Sr7 2.644334 1_555
N24 Sr1 3.042962 1_565
N25 V1 1.807942 1_556
N25 V22 1.831221 1_555
N25 Sr6 2.644329 1_555
N25 Sr0 3.042962 1_556
N26 V2 1.807942 1_554
N26 V23 1.831221 1_555
N26 Sr5 2.644334 1_455
N26 Sr3 3.042962 1_555
N27 V3 1.807942 1_555
N27 V21 1.831221 1_555
N27 Sr4 2.644321 1_655
N27 Sr2 3.042962 1_655
N28 V4 1.807942 1_555
N28 V12 1.831221 1_555
N28 Sr7 2.644334 1_555
N28 Sr0 3.042962 1_556
N29 V5 1.807942 1_655
N29 V14 1.831221 1_555
N29 Sr5 2.644329 1_555
N29 Sr2 3.042962 1_655
N30 V6 1.807942 1_455
N30 V15 1.831221 1_555
N30 Sr4 2.644334 1_545
N30 Sr3 3.042962 1_555
N31 V7 1.807942 1_555
N31 V13 1.831221 1_555
N31 Sr6 2.644321 1_565
N31 Sr1 3.042962 1_565
N32 V8 1.807942 1_555
N32 V16 1.831221 1_555
N32 Sr7 2.644334 1_555
N32 Sr2 3.042962 1_655
N33 V9 1.807942 1_565
N33 V18 1.831221 1_555
N33 Sr4 2.644329 1_555
N33 Sr1 3.042962 1_565
N34 V10 1.807942 1_545
N34 V19 1.831221 1_555
N34 Sr6 2.644334 1_554
N34 Sr3 3.042962 1_555
N35 V11 1.807942 1_555
N35 V17 1.831221 1_555
N35 Sr5 2.644321 1_556
N35 Sr0 3.042962 1_556
N36 V12 1.807942 1_555
N36 V8 1.831221 1_555
N36 Sr11 2.644325 1_555
N36 Sr1 3.042962 1_555
N37 V13 1.807942 1_554
N37 V10 1.831221 1_555
N37 Sr10 2.644329 1_555
N37 Sr0 3.042962 1_555
N38 V14 1.807942 1_556
N38 V11 1.831221 1_555
N38 Sr9 2.644325 1_655
N38 Sr3 3.042962 1_666
N39 V15 1.807942 1_555
N39 V9 1.831221 1_555
N39 Sr8 2.644338 1_455
N39 Sr2 3.042962 1_555
N40 V16 1.807942 1_555
N40 V0 1.831221 1_555
N40 Sr11 2.644325 1_555
N40 Sr0 3.042962 1_555
N41 V17 1.807942 1_455
N41 V2 1.831221 1_555
N41 Sr9 2.644329 1_555
N41 Sr2 3.042962 1_555
N42 V18 1.807942 1_655
N42 V3 1.831221 1_555
N42 Sr8 2.644325 1_565
N42 Sr3 3.042962 1_666
N43 V19 1.807942 1_555
N43 V1 1.831221 1_555
N43 Sr10 2.644338 1_545
N43 Sr1 3.042962 1_555
N44 V20 1.807942 1_555
N44 V4 1.831221 1_555
N44 Sr11 2.644325 1_555
N44 Sr2 3.042962 1_555
N45 V21 1.807942 1_545
N45 V6 1.831221 1_555
N45 Sr8 2.644329 1_555
N45 Sr1 3.042962 1_555
N46 V22 1.807942 1_565
N46 V7 1.831221 1_555
N46 Sr10 2.644325 1_556
N46 Sr3 3.042962 1_666
N47 V23 1.807942 1_555
N47 V5 1.831221 1_555
N47 Sr9 2.644338 1_554
N47 Sr0 3.042962 1_555
