# generated using pymatgen
data_Y4AlSiNO8
_symmetry_space_group_name_H-M   'P 1'
_cell_length_a   10.49764700
_cell_length_b   7.66713500
_cell_length_c   10.99332744
_cell_angle_alpha   70.38549301
_cell_angle_beta   90.00000000
_cell_angle_gamma   90.00000000
_symmetry_Int_Tables_number   1
_chemical_formula_structural   Y4AlSiNO8
_chemical_formula_sum   'Y16 Al4 Si4 N4 O32'
_cell_volume   833.47476915
_cell_formula_units_Z   4
loop_
 _symmetry_equiv_pos_site_id
 _symmetry_equiv_pos_as_xyz
  1  'x, y, z'
loop_
 _atom_site_type_symbol
 _atom_site_label
 _atom_site_symmetry_multiplicity
 _atom_site_fract_x
 _atom_site_fract_y
 _atom_site_fract_z
 _atom_site_occupancy
  Y  Y0  1  0.62000600  0.17364700  0.93048600  1
  Y  Y1  1  0.12000600  0.82635300  0.56951400  1
  Y  Y2  1  0.37999400  0.82635300  0.06951400  1
  Y  Y3  1  0.87999400  0.17364700  0.43048600  1
  Y  Y4  1  0.62691000  0.65610500  0.91954700  1
  Y  Y5  1  0.12691000  0.34389500  0.58045300  1
  Y  Y6  1  0.37309000  0.34389500  0.08045300  1
  Y  Y7  1  0.87309000  0.65610500  0.41954700  1
  Y  Y8  1  0.90929100  0.47020100  0.80838600  1
  Y  Y9  1  0.40929100  0.52979900  0.69161400  1
  Y  Y10  1  0.09070900  0.52979900  0.19161400  1
  Y  Y11  1  0.59070900  0.47020100  0.30838600  1
  Y  Y12  1  0.89933200  0.97988300  0.78002700  1
  Y  Y13  1  0.39933200  0.02011700  0.71997300  1
  Y  Y14  1  0.10066800  0.02011700  0.21997300  1
  Y  Y15  1  0.60066800  0.97988300  0.28002700  1
  Al  Al0  1  0.68581800  0.26467300  0.63085500  1
  Al  Al1  1  0.18581800  0.73532700  0.86914500  1
  Al  Al2  1  0.31418200  0.73532700  0.36914500  1
  Al  Al3  1  0.81418200  0.26467300  0.13085500  1
  Si  Si0  1  0.68341000  0.84661200  0.61496900  1
  Si  Si1  1  0.18341000  0.15338800  0.88503100  1
  Si  Si2  1  0.31659000  0.15338800  0.38503100  1
  Si  Si3  1  0.81659000  0.84661200  0.11496900  1
  N  N0  1  0.74392000  0.05098000  0.61242300  1
  N  N1  1  0.24392000  0.94902000  0.88757700  1
  N  N2  1  0.25608000  0.94902000  0.38757700  1
  N  N3  1  0.75608000  0.05098000  0.11242300  1
  O  O0  1  0.52594300  0.28354000  0.67555700  1
  O  O1  1  0.02594300  0.71646000  0.82444300  1
  O  O2  1  0.47405700  0.71646000  0.32444300  1
  O  O3  1  0.97405700  0.28354000  0.17555700  1
  O  O4  1  0.53218500  0.80436900  0.66353400  1
  O  O5  1  0.03218500  0.19563100  0.83646600  1
  O  O6  1  0.46781500  0.19563100  0.33646600  1
  O  O7  1  0.96781500  0.80436900  0.16353400  1
  O  O8  1  0.77623400  0.25605400  0.77154300  1
  O  O9  1  0.27623400  0.74394600  0.72845700  1
  O  O10  1  0.22376600  0.74394600  0.22845700  1
  O  O11  1  0.72376600  0.25605400  0.27154300  1
  O  O12  1  0.76200500  0.69293700  0.73583800  1
  O  O13  1  0.26200500  0.30706300  0.76416200  1
  O  O14  1  0.23799500  0.30706300  0.26416200  1
  O  O15  1  0.73799500  0.69293700  0.23583800  1
  O  O16  1  0.73086900  0.42397000  0.47990500  1
  O  O17  1  0.23086900  0.57603000  0.02009500  1
  O  O18  1  0.26913100  0.57603000  0.52009500  1
  O  O19  1  0.76913100  0.42397000  0.97990500  1
  O  O20  1  0.70624600  0.82356200  0.47256200  1
  O  O21  1  0.20624600  0.17643800  0.02743800  1
  O  O22  1  0.29375400  0.17643800  0.52743800  1
  O  O23  1  0.79375400  0.82356200  0.97256200  1
  O  O24  1  0.99516500  0.56803100  0.60615500  1
  O  O25  1  0.49516500  0.43196900  0.89384500  1
  O  O26  1  0.00483500  0.43196900  0.39384500  1
  O  O27  1  0.50483500  0.56803100  0.10615500  1
  O  O28  1  0.02312200  0.07398100  0.60194800  1
  O  O29  1  0.52312200  0.92601900  0.89805200  1
  O  O30  1  0.97687800  0.92601900  0.39805200  1
  O  O31  1  0.47687800  0.07398100  0.10194800  1
loop_
_geom_bond_atom_site_label_1
_geom_bond_atom_site_label_2
_geom_bond_distance
_geom_bond_site_symmetry_2
Al0 O16 1.763061 1_555
Al0 O0 1.768298 1_555
Al0 O8 1.796860 1_555
Al0 N0 1.822187 1_555
Al1 O17 1.763061 1_556
Al1 O1 1.768298 1_555
Al1 O9 1.796860 1_555
Al1 N1 1.822187 1_555
Al2 O18 1.763061 1_555
Al2 O2 1.768298 1_555
Al2 O10 1.796860 1_555
Al2 N2 1.822187 1_555
Al3 O19 1.763061 1_554
Al3 O3 1.768298 1_555
Al3 O11 1.796860 1_555
Al3 N3 1.822187 1_555
N0 Si0 1.682279 1_545
N0 Y3 2.379596 1_555
N0 Y12 2.383147 1_545
N1 Si1 1.682279 1_565
N1 Y2 2.379596 1_556
N1 Y13 2.383147 1_565
N2 Si2 1.682279 1_565
N2 Y1 2.379596 1_555
N2 Y14 2.383147 1_565
N3 Si3 1.682279 1_545
N3 Y0 2.379596 1_554
N3 Y15 2.383147 1_545
O0 Y9 2.306387 1_555
O0 Y13 2.328531 1_555
O0 Y0 2.820236 1_555
O1 Y8 2.306387 1_455
O1 Y12 2.328531 1_455
O1 Y1 2.820236 1_555
O2 Y11 2.306387 1_555
O2 Y15 2.328531 1_555
O2 Y2 2.820236 1_555
O3 Y10 2.306387 1_655
O3 Y14 2.328531 1_655
O3 Y3 2.820236 1_555
O4 Si0 1.671533 1_555
O4 Y9 2.398972 1_555
O4 Y13 2.399026 1_565
O4 Y4 2.837976 1_555
O5 Si1 1.671533 1_555
O5 Y8 2.398972 1_455
O5 Y12 2.399026 1_445
O5 Y5 2.837976 1_555
O6 Si2 1.671533 1_555
O6 Y11 2.398972 1_555
O6 Y15 2.399026 1_545
O6 Y6 2.837976 1_555
O7 Si3 1.671533 1_555
O7 Y10 2.398972 1_655
O7 Y14 2.399026 1_665
O7 Y7 2.837976 1_555
O8 Y8 2.292891 1_555
O8 Y0 2.323960 1_555
O8 Y12 2.455513 1_545
O9 Y9 2.292891 1_555
O9 Y1 2.323960 1_555
O9 Y13 2.455513 1_565
O10 Y10 2.292891 1_555
O10 Y2 2.323960 1_555
O10 Y14 2.455513 1_565
O11 Y11 2.292891 1_555
O11 Y3 2.323960 1_555
O11 Y15 2.455513 1_545
O12 Si0 1.668372 1_555
O12 Y8 2.242466 1_555
O12 Y4 2.405568 1_555
O12 Y12 2.805709 1_555
O13 Si1 1.668372 1_555
O13 Y9 2.242466 1_555
O13 Y5 2.405568 1_555
O13 Y13 2.805709 1_555
O14 Si2 1.668372 1_555
O14 Y10 2.242466 1_555
O14 Y6 2.405568 1_555
O14 Y14 2.805709 1_555
O15 Si3 1.668372 1_555
O15 Y11 2.242466 1_555
O15 Y7 2.405568 1_555
O15 Y15 2.805709 1_555
O16 Y7 2.245915 1_555
O16 Y11 2.323176 1_555
O16 Y3 2.670099 1_555
O17 Y6 2.245915 1_555
O17 Y10 2.323176 1_555
O17 Y2 2.670099 1_555
O18 Y5 2.245915 1_555
O18 Y9 2.323176 1_555
O18 Y1 2.670099 1_555
O19 Y4 2.245915 1_555
O19 Y8 2.323176 1_555
O19 Y0 2.670099 1_555
O20 Si0 1.650856 1_555
O20 Y15 2.332742 1_555
O20 Y7 2.357569 1_555
O21 Si1 1.650856 1_554
O21 Y14 2.332742 1_555
O21 Y6 2.357569 1_555
O22 Si2 1.650856 1_555
O22 Y13 2.332742 1_555
O22 Y5 2.357569 1_555
O23 Si3 1.650856 1_556
O23 Y12 2.332742 1_555
O23 Y4 2.357569 1_555
O24 Y8 2.279974 1_555
O24 Y1 2.294967 1_655
O24 Y5 2.296025 1_655
O24 Y7 2.318750 1_555
O25 Y9 2.279974 1_555
O25 Y0 2.294967 1_555
O25 Y4 2.296025 1_555
O25 Y6 2.318750 1_556
O26 Y10 2.279974 1_555
O26 Y3 2.294967 1_455
O26 Y7 2.296025 1_455
O26 Y5 2.318750 1_555
O27 Y11 2.279974 1_555
O27 Y2 2.294967 1_555
O27 Y6 2.296025 1_555
O27 Y4 2.318750 1_554
O28 Y12 2.256874 1_445
O28 Y5 2.279757 1_555
O28 Y1 2.284885 1_545
O28 Y3 2.329679 1_455
O29 Y13 2.256874 1_565
O29 Y4 2.279757 1_555
O29 Y0 2.284885 1_565
O29 Y2 2.329679 1_556
O30 Y14 2.256874 1_665
O30 Y7 2.279757 1_555
O30 Y3 2.284885 1_565
O30 Y1 2.329679 1_655
O31 Y15 2.256874 1_545
O31 Y6 2.279757 1_555
O31 Y2 2.284885 1_545
O31 Y0 2.329679 1_554
