# generated using pymatgen
data_Pr3Zn22
_symmetry_space_group_name_H-M   'P 1'
_cell_length_a   8.80715165
_cell_length_b   8.80715165
_cell_length_c   12.24662880
_cell_angle_alpha   111.07407144
_cell_angle_beta   111.07407144
_cell_angle_gamma   90.00000000
_symmetry_Int_Tables_number   1
_chemical_formula_structural   Pr3Zn22
_chemical_formula_sum   'Pr6 Zn44'
_cell_volume   817.93234525
_cell_formula_units_Z   2
loop_
 _symmetry_equiv_pos_site_id
 _symmetry_equiv_pos_as_xyz
  1  'x, y, z'
loop_
 _atom_site_type_symbol
 _atom_site_label
 _atom_site_symmetry_multiplicity
 _atom_site_fract_x
 _atom_site_fract_y
 _atom_site_fract_z
 _atom_site_occupancy
  Pr  Pr0  1  0.49634818  0.74634818  0.99269436  1
  Pr  Pr1  1  0.74634818  0.49634818  0.49269436  1
  Pr  Pr2  1  0.50365182  0.25365182  0.00730564  1
  Pr  Pr3  1  0.25365182  0.50365182  0.50730564  1
  Pr  Pr4  1  0.12500000  0.87500000  0.25000000  1
  Pr  Pr5  1  0.87500000  0.12500000  0.75000000  1
  Zn  Zn0  1  0.42153084  0.19521304  0.37727662  1
  Zn  Zn1  1  0.42153084  0.68206158  0.37727662  1
  Zn  Zn2  1  0.19521304  0.42153084  0.87727662  1
  Zn  Zn3  1  0.19521304  0.95574578  0.87727662  1
  Zn  Zn4  1  0.95574578  0.19521304  0.37727662  1
  Zn  Zn5  1  0.95574578  0.68206158  0.37727662  1
  Zn  Zn6  1  0.68206158  0.42153084  0.87727662  1
  Zn  Zn7  1  0.68206158  0.95574578  0.87727662  1
  Zn  Zn8  1  0.57846916  0.80478696  0.62272338  1
  Zn  Zn9  1  0.57846916  0.31793842  0.62272338  1
  Zn  Zn10  1  0.80478696  0.57846916  0.12272338  1
  Zn  Zn11  1  0.80478696  0.04425422  0.12272338  1
  Zn  Zn12  1  0.04425422  0.80478696  0.62272338  1
  Zn  Zn13  1  0.04425422  0.31793842  0.62272338  1
  Zn  Zn14  1  0.31793842  0.57846916  0.12272338  1
  Zn  Zn15  1  0.31793842  0.04425422  0.12272338  1
  Zn  Zn16  1  0.14714516  0.62283961  0.74567722  1
  Zn  Zn17  1  0.62283961  0.14714516  0.24567722  1
  Zn  Zn18  1  0.62283961  0.59853106  0.24567722  1
  Zn  Zn19  1  0.59853106  0.62283961  0.74567722  1
  Zn  Zn20  1  0.85285484  0.37716039  0.25432278  1
  Zn  Zn21  1  0.37716039  0.85285484  0.75432278  1
  Zn  Zn22  1  0.37716039  0.40146894  0.75432278  1
  Zn  Zn23  1  0.40146894  0.37716039  0.25432278  1
  Zn  Zn24  1  0.48748098  0.88386176  0.26772453  1
  Zn  Zn25  1  0.88386176  0.48748098  0.76772453  1
  Zn  Zn26  1  0.88386176  0.78024255  0.76772453  1
  Zn  Zn27  1  0.78024255  0.88386176  0.26772453  1
  Zn  Zn28  1  0.51251902  0.11613824  0.73227547  1
  Zn  Zn29  1  0.11613824  0.51251902  0.23227547  1
  Zn  Zn30  1  0.11613824  0.21975745  0.23227547  1
  Zn  Zn31  1  0.21975745  0.11613824  0.73227547  1
  Zn  Zn32  1  0.83546735  0.73593154  0.97186208  1
  Zn  Zn33  1  0.73593154  0.83546735  0.47186208  1
  Zn  Zn34  1  0.73593154  0.13639373  0.47186208  1
  Zn  Zn35  1  0.13639373  0.73593154  0.97186208  1
  Zn  Zn36  1  0.16453265  0.26406846  0.02813792  1
  Zn  Zn37  1  0.26406846  0.16453265  0.52813792  1
  Zn  Zn38  1  0.26406846  0.86360627  0.52813792  1
  Zn  Zn39  1  0.86360627  0.26406846  0.02813792  1
  Zn  Zn40  1  0.50000000  -0.00000000  0.50000000  1
  Zn  Zn41  1  0.00000000  0.50000000  -0.00000000  1
  Zn  Zn42  1  0.00000000  -0.00000000  -0.00000000  1
  Zn  Zn43  1  0.00000000  -0.00000000  0.50000000  1
loop_
_geom_bond_atom_site_label_1
_geom_bond_atom_site_label_2
_geom_bond_distance
_geom_bond_site_symmetry_2
Pr0 Zn32 3.086239 1_555
Pr0 Zn35 3.086265 1_555
Pr0 Zn27 3.173816 1_556
Pr0 Zn24 3.173827 1_556
Pr0 Zn21 3.204576 1_555
Pr0 Zn22 3.204581 1_555
Pr0 Zn11 3.268535 1_566
Pr0 Zn15 3.268535 1_566
Pr0 Zn10 3.268546 1_556
Pr0 Zn14 3.268546 1_556
Pr0 Zn19 3.276569 1_555
Pr0 Zn16 3.276585 1_555
Pr0 Zn7 3.407552 1_555
Pr0 Zn6 3.407564 1_555
Pr0 Zn3 3.407574 1_555
Pr0 Zn2 3.407587 1_555
Pr0 Zn17 3.599024 1_566
Pr0 Zn18 3.599042 1_556
Pr1 Zn33 3.086239 1_555
Pr1 Zn34 3.086265 1_555
Pr1 Zn26 3.173816 1_555
Pr1 Zn25 3.173827 1_555
Pr1 Zn20 3.204576 1_555
Pr1 Zn23 3.204581 1_555
Pr1 Zn12 3.268535 1_655
Pr1 Zn13 3.268535 1_655
Pr1 Zn8 3.268546 1_555
Pr1 Zn9 3.268546 1_555
Pr1 Zn18 3.276569 1_555
Pr1 Zn17 3.276585 1_555
Pr1 Zn5 3.407552 1_555
Pr1 Zn1 3.407564 1_555
Pr1 Zn4 3.407574 1_555
Pr1 Zn0 3.407587 1_555
Pr1 Zn16 3.599024 1_655
Pr1 Zn19 3.599042 1_555
Pr2 Zn36 3.086239 1_555
Pr2 Zn39 3.086265 1_555
Pr2 Zn31 3.173816 1_554
Pr2 Zn28 3.173827 1_554
Pr2 Zn17 3.204576 1_555
Pr2 Zn18 3.204581 1_555
Pr2 Zn3 3.268535 1_544
Pr2 Zn7 3.268535 1_544
Pr2 Zn2 3.268546 1_554
Pr2 Zn6 3.268546 1_554
Pr2 Zn23 3.276569 1_555
Pr2 Zn20 3.276585 1_555
Pr2 Zn15 3.407552 1_555
Pr2 Zn14 3.407564 1_555
Pr2 Zn11 3.407574 1_555
Pr2 Zn10 3.407587 1_555
Pr2 Zn21 3.599024 1_544
Pr2 Zn22 3.599042 1_554
Pr3 Zn37 3.086239 1_555
Pr3 Zn38 3.086265 1_555
Pr3 Zn30 3.173816 1_555
Pr3 Zn29 3.173827 1_555
Pr3 Zn16 3.204576 1_555
Pr3 Zn19 3.204581 1_555
Pr3 Zn4 3.268535 1_455
Pr3 Zn5 3.268535 1_455
Pr3 Zn0 3.268546 1_555
Pr3 Zn1 3.268546 1_555
Pr3 Zn22 3.276569 1_555
Pr3 Zn21 3.276585 1_555
Pr3 Zn13 3.407552 1_555
Pr3 Zn9 3.407564 1_555
Pr3 Zn12 3.407574 1_555
Pr3 Zn8 3.407587 1_555
Pr3 Zn20 3.599024 1_455
Pr3 Zn23 3.599042 1_555
Pr4 Zn29 3.119977 1_555
Pr4 Zn24 3.119977 1_555
Pr4 Zn30 3.119986 1_565
Pr4 Zn27 3.119986 1_455
Pr4 Zn35 3.218430 1_554
Pr4 Zn38 3.218430 1_555
Pr4 Zn32 3.218433 1_454
Pr4 Zn37 3.218433 1_565
Pr4 Zn10 3.333860 1_455
Pr4 Zn0 3.333860 1_565
Pr4 Zn11 3.333860 1_465
Pr4 Zn4 3.333860 1_465
Pr4 Zn1 3.333872 1_555
Pr4 Zn14 3.333872 1_555
Pr4 Zn5 3.333872 1_455
Pr4 Zn15 3.333872 1_565
Pr4 Zn40 3.434775 1_565
Pr4 Zn41 3.434775 1_555
Pr4 Zn42 3.434775 1_565
Pr4 Zn43 3.434775 1_565
Pr5 Zn28 3.119977 1_555
Pr5 Zn25 3.119977 1_555
Pr5 Zn31 3.119986 1_655
Pr5 Zn26 3.119986 1_545
Pr5 Zn34 3.218430 1_555
Pr5 Zn39 3.218430 1_556
Pr5 Zn33 3.218433 1_545
Pr5 Zn36 3.218433 1_656
Pr5 Zn8 3.333860 1_545
Pr5 Zn2 3.333860 1_655
Pr5 Zn12 3.333860 1_645
Pr5 Zn3 3.333860 1_645
Pr5 Zn6 3.333872 1_555
Pr5 Zn9 3.333872 1_555
Pr5 Zn13 3.333872 1_655
Pr5 Zn7 3.333872 1_545
Pr5 Zn41 3.434775 1_656
Pr5 Zn40 3.434775 1_555
Pr5 Zn43 3.434775 1_655
Pr5 Zn42 3.434775 1_656
Zn0 Zn23 2.531852 1_555
Zn0 Zn9 2.605718 1_555
Zn0 Zn40 2.608381 1_555
Zn0 Zn30 2.697318 1_555
Zn0 Zn15 2.700422 1_555
Zn0 Zn34 2.720709 1_555
Zn0 Zn17 2.735733 1_555
Zn0 Zn24 2.751597 1_545
Zn0 Zn37 2.758843 1_555
Zn1 Zn23 2.531852 1_555
Zn1 Zn8 2.605718 1_555
Zn1 Zn40 2.608396 1_565
Zn1 Zn29 2.697309 1_555
Zn1 Zn14 2.700424 1_555
Zn1 Zn33 2.720712 1_555
Zn1 Zn18 2.735732 1_555
Zn1 Zn24 2.751604 1_555
Zn1 Zn38 2.758852 1_555
Zn2 Zn22 2.531852 1_555
Zn2 Zn41 2.608381 1_556
Zn2 Zn31 2.697318 1_555
Zn2 Zn35 2.720709 1_555
Zn2 Zn25 2.751597 1_455
Zn2 Zn36 2.758843 1_556
Zn3 Zn42 2.608381 1_566
Zn3 Zn31 2.697324 1_565
Zn3 Zn35 2.720701 1_555
Zn3 Zn36 2.758836 1_566
Zn4 Zn43 2.608381 1_655
Zn6 Zn9 2.700424 1_555
Zn7 Zn8 2.700422 1_555
Zn10 Zn18 2.531852 1_555
Zn10 Zn6 2.605718 1_554
Zn10 Zn41 2.608381 1_655
Zn10 Zn27 2.697318 1_555
Zn10 Zn5 2.700422 1_555
Zn10 Zn39 2.720709 1_555
Zn10 Zn20 2.735733 1_555
Zn10 Zn29 2.751597 1_655
Zn10 Zn32 2.758843 1_554
Zn11 Zn17 2.531851 1_555
Zn11 Zn7 2.605718 1_544
Zn11 Zn42 2.608381 1_655
Zn11 Zn27 2.697324 1_545
Zn11 Zn4 2.700421 1_555
Zn11 Zn39 2.720701 1_555
Zn11 Zn20 2.735717 1_555
Zn11 Zn30 2.751601 1_655
Zn11 Zn32 2.758836 1_544
Zn12 Zn16 2.531851 1_555
Zn12 Zn5 2.605718 1_455
Zn12 Zn43 2.608381 1_565
Zn12 Zn26 2.697324 1_455
Zn12 Zn3 2.700421 1_555
Zn12 Zn38 2.720701 1_555
Zn12 Zn21 2.735717 1_555
Zn12 Zn31 2.751601 1_565
Zn12 Zn33 2.758836 1_455
Zn13 Zn16 2.531851 1_555
Zn13 Zn4 2.605718 1_455
Zn13 Zn43 2.608396 1_555
Zn13 Zn25 2.697316 1_455
Zn13 Zn2 2.700422 1_555
Zn13 Zn37 2.720704 1_555
Zn13 Zn22 2.735717 1_555
Zn13 Zn31 2.751608 1_555
Zn13 Zn34 2.758845 1_455
Zn14 Zn18 2.531852 1_555
Zn14 Zn2 2.605718 1_554
Zn14 Zn41 2.608396 1_555
Zn14 Zn24 2.697309 1_555
Zn14 Zn36 2.720712 1_555
Zn14 Zn23 2.735732 1_555
Zn14 Zn29 2.751604 1_555
Zn14 Zn35 2.758852 1_554
Zn15 Zn17 2.531851 1_555
Zn15 Zn3 2.605718 1_544
Zn15 Zn42 2.608396 1_555
Zn15 Zn24 2.697316 1_545
Zn15 Zn36 2.720704 1_555
Zn15 Zn23 2.735717 1_555
Zn15 Zn30 2.751608 1_555
Zn15 Zn35 2.758845 1_544
Zn16 Zn35 2.622679 1_555
Zn16 Zn3 2.735717 1_555
Zn16 Zn2 2.735733 1_555
Zn16 Zn26 2.748171 1_455
Zn16 Zn25 2.748184 1_455
Zn16 Zn21 2.812521 1_555
Zn16 Zn22 2.812527 1_555
Zn17 Zn34 2.622679 1_555
Zn17 Zn4 2.735717 1_555
Zn17 Zn27 2.748171 1_545
Zn17 Zn24 2.748184 1_545
Zn17 Zn20 2.812521 1_555
Zn17 Zn23 2.812527 1_555
Zn18 Zn33 2.622678 1_555
Zn18 Zn5 2.735717 1_555
Zn18 Zn27 2.748171 1_555
Zn18 Zn24 2.748184 1_555
Zn18 Zn20 2.812527 1_555
Zn18 Zn23 2.812534 1_555
Zn19 Zn9 2.531852 1_555
Zn19 Zn8 2.531852 1_555
Zn19 Zn32 2.622678 1_555
Zn19 Zn7 2.735717 1_555
Zn19 Zn6 2.735732 1_555
Zn19 Zn26 2.748171 1_555
Zn19 Zn25 2.748184 1_555
Zn19 Zn21 2.812527 1_555
Zn19 Zn22 2.812534 1_555
Zn20 Zn5 2.531851 1_555
Zn20 Zn4 2.531851 1_555
Zn20 Zn39 2.622679 1_555
Zn20 Zn30 2.748171 1_655
Zn20 Zn29 2.748184 1_655
Zn21 Zn7 2.531851 1_555
Zn21 Zn3 2.531851 1_555
Zn21 Zn38 2.622679 1_555
Zn21 Zn8 2.735733 1_555
Zn21 Zn31 2.748171 1_565
Zn21 Zn28 2.748184 1_565
Zn22 Zn6 2.531852 1_555
Zn22 Zn37 2.622678 1_555
Zn22 Zn9 2.735732 1_555
Zn22 Zn31 2.748171 1_555
Zn22 Zn28 2.748184 1_555
Zn23 Zn36 2.622678 1_555
Zn23 Zn30 2.748171 1_555
Zn23 Zn29 2.748184 1_555
Zn24 Zn27 2.578396 1_555
Zn24 Zn40 2.613828 1_565
Zn24 Zn34 2.837586 1_565
Zn24 Zn33 2.837586 1_555
Zn25 Zn26 2.578396 1_555
Zn25 Zn41 2.613828 1_656
Zn25 Zn9 2.697309 1_555
Zn25 Zn6 2.751604 1_555
Zn25 Zn35 2.837586 1_655
Zn25 Zn32 2.837586 1_555
Zn26 Zn42 2.613831 1_666
Zn26 Zn8 2.697318 1_555
Zn26 Zn3 2.751601 1_655
Zn26 Zn7 2.751608 1_555
Zn26 Zn35 2.837578 1_655
Zn26 Zn32 2.837578 1_555
Zn27 Zn43 2.613831 1_665
Zn27 Zn4 2.751601 1_565
Zn27 Zn5 2.751608 1_555
Zn27 Zn34 2.837578 1_565
Zn27 Zn33 2.837578 1_555
Zn28 Zn31 2.578396 1_555
Zn28 Zn40 2.613828 1_555
Zn28 Zn6 2.697309 1_555
Zn28 Zn7 2.697316 1_545
Zn28 Zn8 2.751597 1_545
Zn28 Zn9 2.751604 1_555
Zn28 Zn38 2.837586 1_545
Zn28 Zn37 2.837586 1_555
Zn29 Zn30 2.578396 1_555
Zn29 Zn41 2.613828 1_555
Zn29 Zn5 2.697316 1_455
Zn29 Zn39 2.837586 1_455
Zn29 Zn36 2.837586 1_555
Zn30 Zn42 2.613831 1_555
Zn30 Zn4 2.697324 1_455
Zn30 Zn39 2.837578 1_455
Zn30 Zn36 2.837578 1_555
Zn31 Zn43 2.613831 1_555
Zn31 Zn38 2.837578 1_545
Zn31 Zn37 2.837578 1_555
Zn32 Zn42 2.586876 1_666
Zn32 Zn41 2.586884 1_656
Zn32 Zn35 2.650304 1_655
Zn32 Zn7 2.720704 1_555
Zn32 Zn6 2.720712 1_555
Zn33 Zn43 2.586876 1_665
Zn33 Zn40 2.586884 1_565
Zn33 Zn34 2.650304 1_565
Zn33 Zn5 2.720704 1_555
Zn33 Zn8 2.758843 1_555
Zn34 Zn43 2.586872 1_655
Zn34 Zn40 2.586879 1_555
Zn34 Zn4 2.720701 1_555
Zn34 Zn9 2.758852 1_555
Zn35 Zn42 2.586872 1_566
Zn35 Zn41 2.586879 1_556
Zn36 Zn42 2.586876 1_555
Zn36 Zn41 2.586884 1_555
Zn36 Zn39 2.650304 1_455
Zn37 Zn43 2.586876 1_555
Zn37 Zn40 2.586884 1_555
Zn37 Zn38 2.650304 1_545
Zn37 Zn9 2.720712 1_555
Zn37 Zn4 2.758836 1_455
Zn38 Zn43 2.586872 1_565
Zn38 Zn40 2.586879 1_565
Zn38 Zn8 2.720709 1_555
Zn38 Zn5 2.758845 1_455
Zn39 Zn42 2.586872 1_655
Zn39 Zn41 2.586879 1_655
Zn39 Zn7 2.758845 1_544
Zn39 Zn6 2.758852 1_554
Zn40 Zn8 2.608381 1_545
Zn40 Zn9 2.608396 1_555
Zn41 Zn6 2.608396 1_454
Zn42 Zn7 2.608396 1_444
Zn43 Zn5 2.608396 1_445
