# generated using pymatgen
data_MgTi
_symmetry_space_group_name_H-M   'P 1'
_cell_length_a   5.24229272
_cell_length_b   5.24229272
_cell_length_c   4.87896400
_cell_angle_alpha   90.00000000
_cell_angle_beta   90.00000000
_cell_angle_gamma   118.17683096
_symmetry_Int_Tables_number   1
_chemical_formula_structural   MgTi
_chemical_formula_sum   'Mg3 Ti3'
_cell_volume   118.19245130
_cell_formula_units_Z   3
loop_
 _symmetry_equiv_pos_site_id
 _symmetry_equiv_pos_as_xyz
  1  'x, y, z'
loop_
 _atom_site_type_symbol
 _atom_site_label
 _atom_site_symmetry_multiplicity
 _atom_site_fract_x
 _atom_site_fract_y
 _atom_site_fract_z
 _atom_site_occupancy
  Mg  Mg0  1  0.99508000  0.33230200  0.00000000  1
  Mg  Mg1  1  0.33230200  0.99508000  0.00000000  1
  Mg  Mg2  1  0.33887400  0.33887400  0.50000000  1
  Ti  Ti0  1  0.67393400  0.67393400  0.00000000  1
  Ti  Ti1  1  0.98738300  0.67242800  0.50000000  1
  Ti  Ti2  1  0.67242800  0.98738300  0.50000000  1
loop_
_geom_bond_atom_site_label_1
_geom_bond_atom_site_label_2
_geom_bond_distance
_geom_bond_site_symmetry_2
Mg0 Ti0 2.981476 1_555
Mg0 Mg2 3.023540 1_654
Mg0 Mg2 3.023540 1_655
Mg0 Ti2 3.032025 1_544
Mg0 Ti2 3.032025 1_545
Mg0 Ti1 3.033130 1_554
Mg0 Ti1 3.033130 1_555
Mg0 Mg1 3.033435 1_645
Mg0 Ti0 3.042829 1_545
Mg0 Mg1 3.065371 1_545
Mg0 Mg1 3.065371 1_655
Mg0 Ti0 3.138966 1_655
Mg1 Ti0 2.981476 1_555
Mg1 Mg2 3.023540 1_565
Mg1 Mg2 3.023540 1_564
Mg1 Ti1 3.032025 1_455
Mg1 Ti1 3.032025 1_454
Mg1 Ti2 3.033130 1_554
Mg1 Ti2 3.033130 1_555
Mg1 Ti0 3.042829 1_455
Mg1 Ti0 3.138966 1_565
Mg2 Ti2 3.000217 1_555
Mg2 Ti1 3.000217 1_555
Mg2 Ti0 3.034448 1_555
Mg2 Ti0 3.034448 1_556
Mg2 Ti2 3.081494 1_545
Mg2 Ti1 3.081494 1_455
Mg2 Ti1 3.085718 1_445
Mg2 Ti2 3.085718 1_445
Ti0 Ti1 2.943376 1_555
Ti0 Ti2 2.943376 1_554
Ti0 Ti2 2.943376 1_555
Ti0 Ti1 2.943376 1_554
Ti1 Ti2 2.833135 1_555
Ti1 Ti2 3.165944 1_545
Ti1 Ti2 3.165944 1_655
