# generated using pymatgen
data_ReRhBr6N5Cl
_symmetry_space_group_name_H-M   'P 1'
_cell_length_a   8.29398300
_cell_length_b   11.54604905
_cell_length_c   16.03169981
_cell_angle_alpha   75.92656806
_cell_angle_beta   89.42801552
_cell_angle_gamma   88.98769808
_symmetry_Int_Tables_number   1
_chemical_formula_structural   ReRhBr6N5Cl
_chemical_formula_sum   'Re4 Rh4 Br24 N20 Cl4'
_cell_volume   1488.90099281
_cell_formula_units_Z   4
loop_
 _symmetry_equiv_pos_site_id
 _symmetry_equiv_pos_as_xyz
  1  'x, y, z'
loop_
 _atom_site_type_symbol
 _atom_site_label
 _atom_site_symmetry_multiplicity
 _atom_site_fract_x
 _atom_site_fract_y
 _atom_site_fract_z
 _atom_site_occupancy
  Re  Re0  1  0.24625500  0.29745300  0.63694800  1
  Re  Re1  1  0.75374500  0.70254700  0.36305200  1
  Re  Re2  1  0.75205900  0.71665100  0.86004800  1
  Re  Re3  1  0.24794100  0.28334900  0.13995200  1
  Rh  Rh0  1  0.26662100  0.78021100  0.14235400  1
  Rh  Rh1  1  0.73337900  0.21978900  0.85764600  1
  Rh  Rh2  1  0.24245900  0.77882200  0.61802800  1
  Rh  Rh3  1  0.75754100  0.22117800  0.38197200  1
  Br  Br0  1  0.25590700  0.33930800  0.48055300  1
  Br  Br1  1  0.74409300  0.66069200  0.51944700  1
  Br  Br2  1  0.03025500  0.15739600  0.64043000  1
  Br  Br3  1  0.96974500  0.84260400  0.35957000  1
  Br  Br4  1  0.45048800  0.14157100  0.64727000  1
  Br  Br5  1  0.54951200  0.85842900  0.35273000  1
  Br  Br6  1  0.45817600  0.44738900  0.63384800  1
  Br  Br7  1  0.54182400  0.55261100  0.36615200  1
  Br  Br8  1  0.04439100  0.46216400  0.62701800  1
  Br  Br9  1  0.95560900  0.53783600  0.37298200  1
  Br  Br10  1  0.23733500  0.26252700  0.79515300  1
  Br  Br11  1  0.76266500  0.73747300  0.20484700  1
  Br  Br12  1  0.73920200  0.59147400  0.75353500  1
  Br  Br13  1  0.26079800  0.40852600  0.24646500  1
  Br  Br14  1  0.76618000  0.89589400  0.74116800  1
  Br  Br15  1  0.23382000  0.10410600  0.25883200  1
  Br  Br16  1  0.45901600  0.73166600  0.85782400  1
  Br  Br17  1  0.54098400  0.26833400  0.14217600  1
  Br  Br18  1  0.73852600  0.53066900  0.97533400  1
  Br  Br19  1  0.26147400  0.46933100  0.02466600  1
  Br  Br20  1  0.04558600  0.69598100  0.85666200  1
  Br  Br21  1  0.95441400  0.30401900  0.14333800  1
  Br  Br22  1  0.76634800  0.83577400  0.96453400  1
  Br  Br23  1  0.23365200  0.16422600  0.03546600  1
  N  N0  1  0.27209600  0.70322500  0.24702500  1
  N  N1  1  0.72790400  0.29677500  0.75297500  1
  N  N2  1  0.10711400  0.91219600  0.13501500  1
  N  N3  1  0.89288600  0.08780400  0.86498500  1
  N  N4  1  0.09534000  0.70386300  0.08730600  1
  N  N5  1  0.90466000  0.29613700  0.91269400  1
  N  N6  1  0.42178000  0.69887100  0.07809200  1
  N  N7  1  0.57822000  0.30112900  0.92190800  1
  N  N8  1  0.43321800  0.90519700  0.12668300  1
  N  N9  1  0.56678200  0.09480300  0.87331700  1
  N  N10  1  0.23525900  0.64949100  0.69567200  1
  N  N11  1  0.76474100  0.35050900  0.30432800  1
  N  N12  1  0.28533600  0.73772700  0.50676900  1
  N  N13  1  0.71466400  0.26227300  0.49323100  1
  N  N14  1  0.01684600  0.81445200  0.57543600  1
  N  N15  1  0.98315400  0.18554800  0.42456400  1
  N  N16  1  0.20478500  0.91034200  0.67857400  1
  N  N17  1  0.79521500  0.08965800  0.32142600  1
  N  N18  1  0.47333900  0.82723600  0.61239100  1
  N  N19  1  0.52666100  0.17276400  0.38760900  1
  Cl  Cl0  1  0.25068900  0.89776900  0.97622200  1
  Cl  Cl1  1  0.74931100  0.10223100  0.02377800  1
  Cl  Cl2  1  0.25614300  0.98220600  0.49930900  1
  Cl  Cl3  1  0.74385700  0.01779400  0.50069100  1
loop_
_geom_bond_atom_site_label_1
_geom_bond_atom_site_label_2
_geom_bond_distance
_geom_bond_site_symmetry_2
Br0 Re0 2.436079 1_555
Br1 Re1 2.436079 1_555
Br2 Re0 2.425713 1_555
Br3 Re1 2.425713 1_555
Br4 Re0 2.426743 1_555
Br5 Re1 2.426743 1_555
Br6 Re0 2.480473 1_555
Br7 Re1 2.480473 1_555
Br8 Re0 2.488122 1_555
Br9 Re1 2.488122 1_555
Br10 Re0 2.469976 1_555
Br11 Re1 2.469976 1_555
Br12 Re2 2.495083 1_555
Br13 Re3 2.495083 1_555
Br14 Re2 2.452531 1_555
Br15 Re3 2.452531 1_555
Br16 Re2 2.433611 1_555
Br17 Re3 2.433611 1_555
Br18 Re2 2.472634 1_555
Br19 Re3 2.472634 1_555
Br20 Re2 2.443331 1_455
Br21 Re3 2.443331 1_655
Br22 Re2 2.416998 1_555
Br23 Re3 2.416998 1_555
N0 Rh0 1.697860 1_555
N1 Rh1 1.697860 1_555
N2 Rh0 1.982674 1_555
N3 Rh1 1.982674 1_555
N4 Rh0 2.005401 1_555
N5 Rh1 2.005401 1_555
N6 Rh0 2.000208 1_555
N7 Rh1 2.000208 1_555
N8 Rh0 1.985468 1_555
N9 Rh1 1.985468 1_555
N10 Rh2 1.697213 1_555
N11 Rh3 1.697213 1_555
N12 Rh2 1.981427 1_555
N13 Rh3 1.981427 1_555
N14 Rh2 1.999671 1_555
N15 Rh3 1.999671 1_555
N16 Rh2 2.009920 1_555
N17 Rh3 2.009920 1_555
N18 Rh2 1.999334 1_555
N19 Rh3 1.999334 1_555
Cl0 Rh0 2.682528 1_556
Cl1 Rh1 2.682528 1_554
Cl2 Rh2 2.642202 1_555
Cl3 Rh3 2.642202 1_555
