# generated using pymatgen
data_Cr8CoCu3Se16
_symmetry_space_group_name_H-M   'P 1'
_cell_length_a   7.37270100
_cell_length_b   7.37270100
_cell_length_c   10.42238800
_cell_angle_alpha   90.00000000
_cell_angle_beta   90.00000000
_cell_angle_gamma   90.00000000
_symmetry_Int_Tables_number   1
_chemical_formula_structural   Cr8CoCu3Se16
_chemical_formula_sum   'Cr8 Co1 Cu3 Se16'
_cell_volume   566.52682662
_cell_formula_units_Z   1
loop_
 _symmetry_equiv_pos_site_id
 _symmetry_equiv_pos_as_xyz
  1  'x, y, z'
loop_
 _atom_site_type_symbol
 _atom_site_label
 _atom_site_symmetry_multiplicity
 _atom_site_fract_x
 _atom_site_fract_y
 _atom_site_fract_z
 _atom_site_occupancy
  Cr  Cr0  1  0.25049500  0.50000000  0.12356700  1
  Cr  Cr1  1  0.75293000  0.00000000  0.62466300  1
  Cr  Cr2  1  0.74950500  0.50000000  0.12356700  1
  Cr  Cr3  1  0.24707000  0.00000000  0.62466300  1
  Cr  Cr4  1  0.00000000  0.24707000  0.37533700  1
  Cr  Cr5  1  0.50000000  0.74950500  0.87643300  1
  Cr  Cr6  1  0.50000000  0.25049500  0.87643300  1
  Cr  Cr7  1  0.00000000  0.75293000  0.37533700  1
  Co  Co0  1  0.50000000  0.50000000  0.50000000  1
  Cu  Cu0  1  0.00000000  0.00000000  0.00000000  1
  Cu  Cu1  1  0.50000000  0.00000000  0.24989500  1
  Cu  Cu2  1  0.00000000  0.50000000  0.75010500  1
  Se  Se0  1  0.76227300  0.50000000  0.36868300  1
  Se  Se1  1  0.26594900  0.00000000  0.86676200  1
  Se  Se2  1  0.23772700  0.50000000  0.36868300  1
  Se  Se3  1  0.73405100  0.00000000  0.86676200  1
  Se  Se4  1  0.50000000  0.23772700  0.63131700  1
  Se  Se5  1  0.00000000  0.73405100  0.13323800  1
  Se  Se6  1  0.50000000  0.76227300  0.63131700  1
  Se  Se7  1  0.00000000  0.26594900  0.13323800  1
  Se  Se8  1  0.23458800  0.00000000  0.38262300  1
  Se  Se9  1  0.73479500  0.50000000  0.88288600  1
  Se  Se10  1  0.76541200  0.00000000  0.38262300  1
  Se  Se11  1  0.26520500  0.50000000  0.88288600  1
  Se  Se12  1  0.50000000  0.26520500  0.11711400  1
  Se  Se13  1  0.00000000  0.76541200  0.61737700  1
  Se  Se14  1  0.50000000  0.73479500  0.11711400  1
  Se  Se15  1  0.00000000  0.23458800  0.61737700  1
loop_
_geom_bond_atom_site_label_1
_geom_bond_atom_site_label_2
_geom_bond_distance
_geom_bond_site_symmetry_2
Cr0 Se11 2.510814 1_554
Cr0 Se14 2.526854 1_555
Cr0 Se12 2.526854 1_555
Cr0 Se7 2.529541 1_555
Cr0 Se5 2.529541 1_555
Cr0 Se2 2.556428 1_555
Cr1 Se15 2.513012 1_655
Cr1 Se13 2.513012 1_645
Cr1 Se10 2.524313 1_555
Cr1 Se3 2.527086 1_555
Cr1 Se4 2.560103 1_555
Cr1 Se6 2.560103 1_545
Cr2 Se9 2.510814 1_554
Cr2 Se14 2.526854 1_555
Cr2 Se12 2.526854 1_555
Cr2 Se5 2.529541 1_655
Cr2 Se7 2.529541 1_655
Cr2 Se0 2.556428 1_555
Cr3 Se13 2.513012 1_545
Cr3 Se15 2.513012 1_555
Cr3 Se8 2.524313 1_555
Cr3 Se1 2.527086 1_555
Cr3 Se4 2.560103 1_555
Cr3 Se6 2.560103 1_545
Cr4 Se8 2.513012 1_555
Cr4 Se10 2.513012 1_455
Cr4 Se15 2.524313 1_555
Cr4 Se7 2.527086 1_555
Cr4 Se2 2.560103 1_555
Cr4 Se0 2.560103 1_455
Cr5 Se14 2.510814 1_556
Cr5 Se9 2.526854 1_555
Cr5 Se11 2.526854 1_555
Cr5 Se1 2.529541 1_565
Cr5 Se3 2.529541 1_565
Cr5 Se6 2.556428 1_555
Cr6 Se12 2.510814 1_556
Cr6 Se9 2.526854 1_555
Cr6 Se11 2.526854 1_555
Cr6 Se1 2.529541 1_555
Cr6 Se3 2.529541 1_555
Cr6 Se4 2.556428 1_555
Cr7 Se8 2.513012 1_565
Cr7 Se10 2.513012 1_465
Cr7 Se13 2.524313 1_555
Cr7 Se5 2.527086 1_555
Cr7 Se2 2.560103 1_555
Cr7 Se0 2.560103 1_455
Co0 Se0 2.369010 1_555
Co0 Se4 2.369010 1_555
Co0 Se6 2.369010 1_555
Co0 Se2 2.369010 1_555
Cu0 Se5 2.402699 1_545
Cu0 Se7 2.402699 1_555
Cu0 Se3 2.402699 1_454
Cu0 Se1 2.402699 1_554
Cu1 Se12 2.395470 1_555
Cu1 Se14 2.395470 1_545
Cu1 Se10 2.396397 1_555
Cu1 Se8 2.396397 1_555
Cu2 Se11 2.395470 1_555
Cu2 Se9 2.395470 1_455
Cu2 Se15 2.396397 1_555
Cu2 Se13 2.396397 1_555
