# generated using pymatgen
data_Li7Mn2(CoO4)3
_symmetry_space_group_name_H-M   'P 1'
_cell_length_a   5.89186600
_cell_length_b   5.89389333
_cell_length_c   7.68448604
_cell_angle_alpha   100.97566996
_cell_angle_beta   100.20314233
_cell_angle_gamma   119.76588818
_symmetry_Int_Tables_number   1
_chemical_formula_structural   Li7Mn2(CoO4)3
_chemical_formula_sum   'Li7 Mn2 Co3 O12'
_cell_volume   215.54218550
_cell_formula_units_Z   1
loop_
 _symmetry_equiv_pos_site_id
 _symmetry_equiv_pos_as_xyz
  1  'x, y, z'
loop_
 _atom_site_type_symbol
 _atom_site_label
 _atom_site_symmetry_multiplicity
 _atom_site_fract_x
 _atom_site_fract_y
 _atom_site_fract_z
 _atom_site_occupancy
  Li  Li0  1  0.50000000  0.50000000  0.00000000  1
  Li  Li1  1  0.49499900  0.33070600  0.33130600  1
  Li  Li2  1  0.50000000  0.00000000  0.00000000  1
  Li  Li3  1  0.48675200  0.82067400  0.32384600  1
  Li  Li4  1  0.50500100  0.66929400  0.66869400  1
  Li  Li5  1  0.51324800  0.17932600  0.67615400  1
  Li  Li6  1  0.00000000  0.50000000  0.00000000  1
  Mn  Mn0  1  0.00358300  0.66718100  0.67130200  1
  Mn  Mn1  1  0.99641700  0.33281900  0.32869800  1
  Co  Co0  1  0.00422900  0.17513400  0.67572100  1
  Co  Co1  1  0.00000000  0.00000000  0.00000000  1
  Co  Co2  1  0.99577100  0.82486600  0.32427900  1
  O  O0  1  0.22495100  0.91859200  0.17218000  1
  O  O1  1  0.22249600  0.72158700  0.49358700  1
  O  O2  1  0.22769100  0.39835700  0.17507000  1
  O  O3  1  0.21449900  0.24230900  0.49339800  1
  O  O4  1  0.23614700  0.06135600  0.82261100  1
  O  O5  1  0.23179400  0.58466700  0.81936600  1
  O  O6  1  0.77504900  0.08140800  0.82782000  1
  O  O7  1  0.76385300  0.93864400  0.17738900  1
  O  O8  1  0.77230900  0.60164300  0.82493000  1
  O  O9  1  0.76820600  0.41533300  0.18063400  1
  O  O10  1  0.77750400  0.27841300  0.50641300  1
  O  O11  1  0.78550100  0.75769100  0.50660200  1
loop_
_geom_bond_atom_site_label_1
_geom_bond_atom_site_label_2
_geom_bond_distance
_geom_bond_site_symmetry_2
Li0 O8 2.204573 1_554
Li0 O2 2.204573 1_555
Li0 O7 2.208043 1_555
Li0 O4 2.208043 1_554
Li0 O5 2.223186 1_554
Li0 O9 2.223186 1_555
Li1 O2 2.053478 1_555
Li1 O9 2.064824 1_555
Li1 O0 2.066174 1_545
Li1 O10 2.133063 1_555
Li1 O3 2.162343 1_555
Li1 O11 2.166297 1_555
Li2 O7 2.097812 1_545
Li2 O4 2.097812 1_554
Li2 O5 2.122354 1_544
Li2 O9 2.122354 1_555
Li2 O6 2.199173 1_554
Li2 O0 2.199173 1_545
Li3 O7 2.058495 1_555
Li3 O2 2.087644 1_555
Li3 O1 2.138527 1_555
Li3 O0 2.138647 1_555
Li3 O11 2.275937 1_555
Li3 O10 2.302116 1_565
Li4 O8 2.053478 1_555
Li4 O5 2.064824 1_555
Li4 O6 2.066174 1_565
Li4 O1 2.133063 1_555
Li4 O11 2.162343 1_555
Li4 O3 2.166297 1_555
Li5 O4 2.058495 1_555
Li5 O8 2.087644 1_555
Li5 O10 2.138527 1_555
Li5 O6 2.138647 1_555
Li5 O3 2.275937 1_555
Li5 O1 2.302116 1_545
Li6 O9 2.073548 1_455
Li6 O5 2.073548 1_554
Li6 O2 2.105694 1_555
Li6 O8 2.105694 1_454
Li6 O0 2.117318 1_555
Li6 O6 2.117318 1_454
Mn0 O8 1.902793 1_455
Mn0 O5 1.912328 1_555
Mn0 O4 1.967996 1_565
Mn0 O10 1.973855 1_455
Mn0 O11 1.974574 1_455
Mn0 O1 2.002883 1_555
Mn1 O2 1.902793 1_655
Mn1 O9 1.912328 1_555
Mn1 O7 1.967996 1_545
Mn1 O1 1.973855 1_655
Mn1 O3 1.974574 1_655
Mn1 O10 2.002883 1_555
Co0 O6 1.886509 1_455
Co0 O3 1.998421 1_555
Co0 O5 2.022388 1_555
Co0 O4 2.059755 1_555
Co0 O10 2.083489 1_455
Co0 O11 2.108076 1_445
Co1 O6 1.997343 1_454
Co1 O0 1.997343 1_545
Co1 O2 2.037774 1_555
Co1 O8 2.037774 1_444
Co1 O7 2.069982 1_445
Co1 O4 2.069982 1_554
Co2 O0 1.886509 1_655
Co2 O11 1.998421 1_555
Co2 O9 2.022388 1_555
Co2 O7 2.059755 1_555
Co2 O1 2.083489 1_655
Co2 O3 2.108076 1_665
