# generated using pymatgen
data_CaNiF4
_symmetry_space_group_name_H-M   'P 1'
_cell_length_a   6.51738687
_cell_length_b   6.51738687
_cell_length_c   6.51738687
_cell_angle_alpha   131.00987910
_cell_angle_beta   131.00987910
_cell_angle_gamma   71.79738370
_symmetry_Int_Tables_number   1
_chemical_formula_structural   CaNiF4
_chemical_formula_sum   'Ca2 Ni2 F8'
_cell_volume   154.20008066
_cell_formula_units_Z   2
loop_
 _symmetry_equiv_pos_site_id
 _symmetry_equiv_pos_as_xyz
  1  'x, y, z'
loop_
 _atom_site_type_symbol
 _atom_site_label
 _atom_site_symmetry_multiplicity
 _atom_site_fract_x
 _atom_site_fract_y
 _atom_site_fract_z
 _atom_site_occupancy
  Ca  Ca0  1  0.25000000  0.25000000  0.00000000  1
  Ca  Ca1  1  0.75000000  0.75000000  0.00000000  1
  Ni  Ni0  1  0.50000000  0.00000000  0.50000000  1
  Ni  Ni1  1  0.00000000  0.50000000  0.50000000  1
  F  F0  1  0.42913500  0.92913500  0.11720700  1
  F  F1  1  0.18059400  0.68059400  0.12356000  1
  F  F2  1  0.57086500  0.07086500  0.88279300  1
  F  F3  1  0.07086500  0.18807200  0.50000000  1
  F  F4  1  0.81192800  0.31192800  0.88279300  1
  F  F5  1  0.31192800  0.42913500  0.50000000  1
  F  F6  1  0.92913500  0.81192800  0.50000000  1
  F  F7  1  0.68807200  0.57086500  0.50000000  1
loop_
_geom_bond_atom_site_label_1
_geom_bond_atom_site_label_2
_geom_bond_distance
_geom_bond_site_symmetry_2
Ca0 F1 2.334051 1_555
Ca0 F0 2.391732 1_545
Ca0 F2 2.391732 1_554
Ca0 F5 2.391732 1_555
Ca0 F3 2.391732 1_554
Ca0 F6 2.391732 1_444
Ca0 F7 2.391732 1_555
Ca0 F4 2.391732 1_454
Ca1 F1 2.334051 1_655
Ca1 F2 2.391732 1_564
Ca1 F6 2.391732 1_555
Ca1 F0 2.391732 1_555
Ca1 F7 2.391732 1_554
Ca1 F3 2.391732 1_665
Ca1 F5 2.391732 1_554
Ca1 F4 2.391732 1_554
F0 Ni0 1.938973 1_565
F1 Ni0 1.997043 1_565
F2 Ni0 1.938973 1_555
F3 Ni1 1.938973 1_555
F4 Ni0 1.938973 1_555
F5 Ni1 1.938973 1_555
F6 Ni1 1.938973 1_655
F7 Ni1 1.938973 1_655
