# generated using pymatgen
data_NdAlAu
_symmetry_space_group_name_H-M   'P 1'
_cell_length_a   4.56337847
_cell_length_b   7.48861268
_cell_length_c   7.78163837
_cell_angle_alpha   89.99989138
_cell_angle_beta   90.00000000
_cell_angle_gamma   90.00000000
_symmetry_Int_Tables_number   1
_chemical_formula_structural   NdAlAu
_chemical_formula_sum   'Nd4 Al4 Au4'
_cell_volume   265.92483737
_cell_formula_units_Z   4
loop_
 _symmetry_equiv_pos_site_id
 _symmetry_equiv_pos_as_xyz
  1  'x, y, z'
loop_
 _atom_site_type_symbol
 _atom_site_label
 _atom_site_symmetry_multiplicity
 _atom_site_fract_x
 _atom_site_fract_y
 _atom_site_fract_z
 _atom_site_occupancy
  Nd  Nd0  1  0.25000000  0.00991721  0.30532464  1
  Nd  Nd1  1  0.25000000  0.50991721  0.19467636  1
  Nd  Nd2  1  0.75000000  0.99009746  0.69469672  1
  Nd  Nd3  1  0.75000000  0.49009746  0.80530228  1
  Al  Al0  1  0.25000000  0.17182101  0.92023783  1
  Al  Al1  1  0.25000000  0.67182101  0.57976217  1
  Al  Al2  1  0.75000000  0.82817548  0.07974256  1
  Al  Al3  1  0.75000000  0.32817448  0.42025744  1
  Au  Au0  1  0.25000000  0.29740027  0.59303228  1
  Au  Au1  1  0.25000000  0.79740227  0.90696772  1
  Au  Au2  1  0.75000000  0.70258957  0.40707637  1
  Au  Au3  1  0.75000000  0.20258657  0.09292363  1
loop_
_geom_bond_atom_site_label_1
_geom_bond_atom_site_label_2
_geom_bond_distance
_geom_bond_site_symmetry_2
Al0 Au3 2.657993 1_456
Al0 Au3 2.657993 1_556
Al0 Au0 2.714310 1_555
Al0 Au1 2.805778 1_545
Al0 Nd2 3.184078 1_545
Al0 Nd2 3.184078 1_445
Al0 Nd0 3.232589 1_556
Al0 Nd1 3.312265 1_556
Al0 Nd3 3.418604 1_555
Al0 Nd3 3.418604 1_455
Al1 Au2 2.657995 1_555
Al1 Au2 2.657995 1_455
Al1 Au1 2.714319 1_555
Al1 Au0 2.805793 1_555
Al1 Nd3 3.184071 1_455
Al1 Nd3 3.184071 1_555
Al1 Nd1 3.232586 1_555
Al1 Nd0 3.312254 1_565
Al1 Nd2 3.418605 1_455
Al1 Nd2 3.418605 1_555
Al2 Au1 2.658348 1_554
Al2 Au1 2.658348 1_654
Al2 Au2 2.715264 1_555
Al2 Au3 2.805695 1_565
Al2 Nd0 3.184312 1_665
Al2 Nd0 3.184312 1_565
Al2 Nd2 3.232345 1_554
Al2 Nd3 3.312170 1_554
Al2 Nd1 3.418506 1_555
Al2 Nd1 3.418506 1_655
Al3 Au0 2.658349 1_655
Al3 Au0 2.658349 1_555
Al3 Au3 2.715272 1_555
Al3 Au2 2.805725 1_555
Al3 Nd1 3.184308 1_655
Al3 Nd1 3.184308 1_555
Al3 Nd3 3.232345 1_555
Al3 Nd2 3.312153 1_545
Al3 Nd0 3.418501 1_655
Al3 Nd0 3.418501 1_555
Au0 Nd0 3.105989 1_555
Au0 Nd3 3.164954 1_555
Au0 Nd3 3.164954 1_455
Au0 Nd2 3.335838 1_445
Au0 Nd2 3.335838 1_545
Au0 Nd1 3.484517 1_555
Au1 Nd1 3.105999 1_556
Au1 Nd2 3.164949 1_555
Au1 Nd2 3.164949 1_455
Au1 Nd3 3.335852 1_555
Au1 Nd3 3.335852 1_455
Au1 Nd0 3.484523 1_566
Au2 Nd2 3.105628 1_555
Au2 Nd1 3.165397 1_655
Au2 Nd1 3.165397 1_555
Au2 Nd0 3.336127 1_565
Au2 Nd0 3.336127 1_665
Au2 Nd3 3.483532 1_555
Au3 Nd3 3.105644 1_554
Au3 Nd0 3.165388 1_555
Au3 Nd0 3.165388 1_655
Au3 Nd1 3.336147 1_655
Au3 Nd1 3.336147 1_555
Au3 Nd2 3.483534 1_544
