# generated using pymatgen
data_LiDy2Mn4O8
_symmetry_space_group_name_H-M   'P 1'
_cell_length_a   6.20680923
_cell_length_b   6.65632087
_cell_length_c   6.62593124
_cell_angle_alpha   58.38994357
_cell_angle_beta   62.84449643
_cell_angle_gamma   62.59395466
_symmetry_Int_Tables_number   1
_chemical_formula_structural   LiDy2Mn4O8
_chemical_formula_sum   'Li1 Dy2 Mn4 O8'
_cell_volume   198.41032207
_cell_formula_units_Z   1
loop_
 _symmetry_equiv_pos_site_id
 _symmetry_equiv_pos_as_xyz
  1  'x, y, z'
loop_
 _atom_site_type_symbol
 _atom_site_label
 _atom_site_symmetry_multiplicity
 _atom_site_fract_x
 _atom_site_fract_y
 _atom_site_fract_z
 _atom_site_occupancy
  Li  Li0  1  0.89508400  0.35582500  0.34431400  1
  Dy  Dy0  1  0.18128700  0.08813300  0.08718200  1
  Dy  Dy1  1  0.86534400  0.88862800  0.88179300  1
  Mn  Mn0  1  0.49461300  0.01927000  0.49122000  1
  Mn  Mn1  1  0.96892700  0.54126500  0.54103300  1
  Mn  Mn2  1  0.49307800  0.49650700  0.01706900  1
  Mn  Mn3  1  0.46075600  0.52965900  0.52713900  1
  O  O0  1  0.72502000  0.75564200  0.75337700  1
  O  O1  1  0.28490800  0.27884600  0.68747600  1
  O  O2  1  0.27935600  0.68985300  0.27881400  1
  O  O3  1  0.78027700  0.22373500  0.22037000  1
  O  O4  1  0.72512600  0.29917800  0.70568100  1
  O  O5  1  0.26539300  0.75124800  0.74569900  1
  O  O6  1  0.25491700  0.25009900  0.24353500  1
  O  O7  1  0.72090900  0.71232800  0.29300100  1
loop_
_geom_bond_atom_site_label_1
_geom_bond_atom_site_label_2
_geom_bond_distance
_geom_bond_site_symmetry_2
Li0 O6 1.900954 1_655
Li0 O3 1.955288 1_555
Li0 O7 2.010855 1_555
Li0 O4 2.025399 1_555
Dy0 O6 2.121548 1_555
Dy0 O3 2.133163 1_455
Dy0 O2 2.168468 1_545
Dy0 O1 2.170656 1_554
Dy1 O0 2.107585 1_555
Dy1 O5 2.131915 1_655
Dy1 O4 2.231996 1_565
Dy1 O7 2.234183 1_556
Mn0 O6 2.179124 1_555
Mn0 O0 2.214450 1_545
Mn0 O3 2.230084 1_555
Mn0 O5 2.245783 1_545
Mn0 O1 2.260630 1_555
Mn0 O7 2.521762 1_545
Mn1 O0 2.116428 1_555
Mn1 O2 2.146291 1_655
Mn1 O1 2.155400 1_655
Mn1 O4 2.229731 1_555
Mn1 O7 2.258595 1_555
Mn2 O6 2.180419 1_555
Mn2 O0 2.220637 1_554
Mn2 O3 2.222003 1_555
Mn2 O5 2.241174 1_554
Mn2 O2 2.256519 1_555
Mn2 O4 2.538371 1_554
Mn3 O2 1.964339 1_555
Mn3 O1 1.966444 1_555
Mn3 O4 1.999405 1_555
Mn3 O7 2.008962 1_555
Mn3 O5 2.175490 1_555
