# generated using pymatgen
data_Fe21HO32
_symmetry_space_group_name_H-M   'P 1'
_cell_length_a   8.53120362
_cell_length_b   8.53120362
_cell_length_c   8.53120380
_cell_angle_alpha   89.29727530
_cell_angle_beta   89.29727530
_cell_angle_gamma   89.29727491
_symmetry_Int_Tables_number   1
_chemical_formula_structural   Fe21HO32
_chemical_formula_sum   'Fe21 H1 O32'
_cell_volume   620.77429058
_cell_formula_units_Z   1
loop_
 _symmetry_equiv_pos_site_id
 _symmetry_equiv_pos_as_xyz
  1  'x, y, z'
loop_
 _atom_site_type_symbol
 _atom_site_label
 _atom_site_symmetry_multiplicity
 _atom_site_fract_x
 _atom_site_fract_y
 _atom_site_fract_z
 _atom_site_occupancy
  Fe  Fe0  1  0.61623000  0.13332800  0.13332800  1
  Fe  Fe1  1  0.13332800  0.61623000  0.13332800  1
  Fe  Fe2  1  0.13332800  0.13332800  0.61623000  1
  Fe  Fe3  1  0.62405300  0.87654700  0.87654700  1
  Fe  Fe4  1  0.13085200  0.38013200  0.86513000  1
  Fe  Fe5  1  0.13085200  0.86513000  0.38013200  1
  Fe  Fe6  1  0.38013200  0.86513000  0.13085200  1
  Fe  Fe7  1  0.86513000  0.38013200  0.13085200  1
  Fe  Fe8  1  0.87654700  0.87654700  0.62405300  1
  Fe  Fe9  1  0.38013200  0.13085200  0.86513000  1
  Fe  Fe10  1  0.87654700  0.62405300  0.87654700  1
  Fe  Fe11  1  0.86513000  0.13085200  0.38013200  1
  Fe  Fe12  1  0.50078600  0.98069300  0.50078600  1
  Fe  Fe13  1  0.50078600  0.50078600  0.98069300  1
  Fe  Fe14  1  0.98069300  0.50078600  0.50078600  1
  Fe  Fe15  1  0.24887100  0.24887100  0.24887100  1
  Fe  Fe16  1  0.25781300  0.75006300  0.75006300  1
  Fe  Fe17  1  0.75006300  0.75006300  0.25781300  1
  Fe  Fe18  1  0.75006300  0.25781300  0.75006300  1
  Fe  Fe19  1  0.00186800  0.00186800  0.00186800  1
  Fe  Fe20  1  0.49304800  0.49304800  0.49304800  1
  H  H0  1  0.68934200  0.68934200  0.68934200  1
  O  O0  1  0.87181800  0.87181800  0.87181800  1
  O  O1  1  0.86568300  0.13191500  0.13191500  1
  O  O2  1  0.13191500  0.13191500  0.86568300  1
  O  O3  1  0.13191500  0.86568300  0.13191500  1
  O  O4  1  0.38615600  0.88703000  0.88703000  1
  O  O5  1  0.88703000  0.38615600  0.88703000  1
  O  O6  1  0.88703000  0.88703000  0.38615600  1
  O  O7  1  0.38182800  0.11168800  0.11168800  1
  O  O8  1  0.88242200  0.61891100  0.11439800  1
  O  O9  1  0.88242200  0.11439800  0.61891100  1
  O  O10  1  0.61891100  0.11439800  0.88242200  1
  O  O11  1  0.11439800  0.61891100  0.88242200  1
  O  O12  1  0.11168800  0.11168800  0.38182800  1
  O  O13  1  0.61891100  0.88242200  0.11439800  1
  O  O14  1  0.11168800  0.38182800  0.11168800  1
  O  O15  1  0.11439800  0.88242200  0.61891100  1
  O  O16  1  0.88258300  0.36035000  0.36035000  1
  O  O17  1  0.36035000  0.88258300  0.36034900  1
  O  O18  1  0.36035000  0.36035000  0.88258300  1
  O  O19  1  0.85879100  0.64203800  0.64203800  1
  O  O20  1  0.36298000  0.10047700  0.63508700  1
  O  O21  1  0.36298000  0.63508700  0.10047700  1
  O  O22  1  0.10047700  0.63508700  0.36298000  1
  O  O23  1  0.63508700  0.10047700  0.36298000  1
  O  O24  1  0.64203800  0.64203800  0.85879100  1
  O  O25  1  0.10047700  0.36298000  0.63508700  1
  O  O26  1  0.64203800  0.85879100  0.64203800  1
  O  O27  1  0.63508700  0.36298000  0.10047700  1
  O  O28  1  0.36837200  0.36837200  0.36837100  1
  O  O29  1  0.37568900  0.62694800  0.62694800  1
  O  O30  1  0.62694800  0.62694800  0.37568900  1
  O  O31  1  0.62694800  0.37568900  0.62694800  1
loop_
_geom_bond_atom_site_label_1
_geom_bond_atom_site_label_2
_geom_bond_distance
_geom_bond_site_symmetry_2
Fe0 O27 1.983955 1_555
Fe0 O23 1.983955 1_555
Fe0 O7 2.021395 1_555
Fe0 O1 2.127908 1_555
Fe0 O13 2.148409 1_545
Fe0 O10 2.148409 1_554
Fe1 O21 1.983955 1_555
Fe1 O22 1.983955 1_555
Fe1 O14 2.021395 1_555
Fe1 O3 2.127908 1_555
Fe1 O8 2.148409 1_455
Fe1 O11 2.148409 1_554
Fe2 O25 1.983955 1_555
Fe2 O20 1.983955 1_555
Fe2 O12 2.021395 1_555
Fe2 O2 2.127908 1_555
Fe2 O9 2.148409 1_455
Fe2 O15 2.148409 1_545
Fe3 O24 2.012063 1_555
Fe3 O26 2.012063 1_555
Fe3 O10 2.030312 1_565
Fe3 O13 2.030312 1_556
Fe3 O4 2.031342 1_555
Fe3 O0 2.113524 1_555
Fe4 O18 1.970388 1_555
Fe4 O25 1.990123 1_555
Fe4 O11 2.047188 1_555
Fe4 O5 2.086246 1_455
Fe4 O14 2.107994 1_556
Fe4 O2 2.117446 1_555
Fe5 O17 1.970389 1_555
Fe5 O22 1.990123 1_555
Fe5 O15 2.047188 1_555
Fe5 O6 2.086246 1_455
Fe5 O12 2.107994 1_565
Fe5 O3 2.117446 1_555
Fe6 O17 1.970380 1_555
Fe6 O21 1.990123 1_555
Fe6 O13 2.047188 1_555
Fe6 O4 2.086246 1_554
Fe6 O7 2.107994 1_565
Fe6 O3 2.117446 1_555
Fe7 O16 1.970388 1_555
Fe7 O27 1.990123 1_555
Fe7 O8 2.047188 1_555
Fe7 O5 2.086246 1_554
Fe7 O14 2.107994 1_655
Fe7 O1 2.117446 1_555
Fe8 O19 2.012063 1_555
Fe8 O26 2.012063 1_555
Fe8 O15 2.030312 1_655
Fe8 O9 2.030312 1_565
Fe8 O6 2.031343 1_555
Fe8 O0 2.113524 1_555
Fe9 O18 1.970388 1_555
Fe9 O20 1.990123 1_555
Fe9 O10 2.047188 1_555
Fe9 O4 2.086246 1_545
Fe9 O7 2.107994 1_556
Fe9 O2 2.117446 1_555
Fe10 O24 2.012063 1_555
Fe10 O19 2.012063 1_555
Fe10 O11 2.030312 1_655
Fe10 O8 2.030312 1_556
Fe10 O5 2.031342 1_555
Fe10 O0 2.113524 1_555
Fe11 O16 1.970388 1_555
Fe11 O23 1.990123 1_555
Fe11 O9 2.047188 1_555
Fe11 O6 2.086246 1_545
Fe11 O12 2.107994 1_655
Fe11 O1 2.117446 1_555
Fe12 O17 1.912020 1_555
Fe12 O20 1.924939 1_565
Fe12 O23 1.924939 1_565
Fe12 O26 1.989967 1_555
Fe13 O18 1.912014 1_555
Fe13 O27 1.924939 1_556
Fe13 O21 1.924939 1_556
Fe13 O24 1.989967 1_555
Fe14 O16 1.912014 1_555
Fe14 O25 1.924939 1_655
Fe14 O22 1.924939 1_655
Fe14 O19 1.989967 1_555
Fe15 O28 1.787325 1_555
Fe15 O14 1.998611 1_555
Fe15 O7 1.998611 1_555
Fe15 O12 1.998611 1_555
Fe16 O29 1.786859 1_555
Fe16 O15 1.998152 1_555
Fe16 O11 1.998152 1_555
Fe16 O4 2.006455 1_555
Fe17 O30 1.786859 1_555
Fe17 O13 1.998152 1_555
Fe17 O8 1.998152 1_555
Fe17 O6 2.006455 1_555
Fe18 O31 1.786859 1_555
Fe18 O9 1.998152 1_555
Fe18 O10 1.998152 1_555
Fe18 O5 2.006455 1_555
Fe19 O3 1.943857 1_545
Fe19 O1 1.943857 1_455
Fe19 O2 1.943857 1_554
Fe19 O0 1.945107 1_444
Fe20 O28 1.864735 1_555
Fe20 O29 1.894243 1_555
Fe20 O31 1.894243 1_555
Fe20 O30 1.894243 1_555
H0 O19 1.546243 1_555
H0 O26 1.546243 1_555
H0 O24 1.546243 1_555
