# generated using pymatgen
data_TeMo2Se2S
_symmetry_space_group_name_H-M   'P 1'
_cell_length_a   3.34361069
_cell_length_b   3.34361069
_cell_length_c   41.75879000
_cell_angle_alpha   90.00000000
_cell_angle_beta   90.00000000
_cell_angle_gamma   120.00001370
_symmetry_Int_Tables_number   1
_chemical_formula_structural   TeMo2Se2S
_chemical_formula_sum   'Te2 Mo4 Se4 S2'
_cell_volume   404.30572274
_cell_formula_units_Z   2
loop_
 _symmetry_equiv_pos_site_id
 _symmetry_equiv_pos_as_xyz
  1  'x, y, z'
loop_
 _atom_site_type_symbol
 _atom_site_label
 _atom_site_symmetry_multiplicity
 _atom_site_fract_x
 _atom_site_fract_y
 _atom_site_fract_z
 _atom_site_occupancy
  Te  Te0  1  0.66666700  0.33333300  0.42437000  1
  Te  Te1  1  0.66666700  0.33333300  0.51531400  1
  Mo  Mo0  1  0.33333300  0.66666700  0.09375100  1
  Mo  Mo1  1  0.33333300  0.66666700  0.46982400  1
  Mo  Mo2  1  0.66666700  0.33333300  0.27940600  1
  Mo  Mo3  1  0.66666700  0.33333300  0.65993700  1
  Se  Se0  1  0.33333300  0.66666700  0.31930400  1
  Se  Se1  1  0.33333300  0.66666700  0.69985000  1
  Se  Se2  1  0.33333300  0.66666700  0.23947700  1
  Se  Se3  1  0.33333300  0.66666700  0.62003300  1
  S  S0  1  0.66666700  0.33333300  0.05740300  1
  S  S1  1  0.66666700  0.33333300  0.13007800  1
loop_
_geom_bond_atom_site_label_1
_geom_bond_atom_site_label_2
_geom_bond_distance
_geom_bond_site_symmetry_2
Mo0 S1 2.455152 1_455
Mo0 S1 2.455152 1_565
Mo0 S1 2.455157 1_555
Mo0 S0 2.455694 1_455
Mo0 S0 2.455694 1_565
Mo0 S0 2.455699 1_555
Mo1 Te0 2.707281 1_455
Mo1 Te0 2.707281 1_565
Mo1 Te0 2.707285 1_555
Mo1 Te1 2.708335 1_455
Mo1 Te1 2.708335 1_565
Mo1 Te1 2.708339 1_555
Mo2 Se0 2.549987 1_545
Mo2 Se0 2.549987 1_655
Mo2 Se0 2.549991 1_555
Mo2 Se2 2.550833 1_545
Mo2 Se2 2.550833 1_655
Mo2 Se2 2.550837 1_555
Mo3 Se3 2.550150 1_545
Mo3 Se3 2.550150 1_655
Mo3 Se3 2.550155 1_555
Mo3 Se1 2.550396 1_545
Mo3 Se1 2.550396 1_655
Mo3 Se1 2.550401 1_555
