# generated using pymatgen
data_Na3Ni2P2(CO7)2
_symmetry_space_group_name_H-M   'P 1'
_cell_length_a   17.88137685
_cell_length_b   5.17771074
_cell_length_c   6.56469300
_cell_angle_alpha   90.00000000
_cell_angle_beta   90.00000000
_cell_angle_gamma   88.59882373
_symmetry_Int_Tables_number   1
_chemical_formula_structural   Na3Ni2P2(CO7)2
_chemical_formula_sum   'Na6 Ni4 P4 C4 O28'
_cell_volume   607.60771934
_cell_formula_units_Z   2
loop_
 _symmetry_equiv_pos_site_id
 _symmetry_equiv_pos_as_xyz
  1  'x, y, z'
loop_
 _atom_site_type_symbol
 _atom_site_label
 _atom_site_symmetry_multiplicity
 _atom_site_fract_x
 _atom_site_fract_y
 _atom_site_fract_z
 _atom_site_occupancy
  Na  Na0  1  0.12654100  0.24120200  0.02782400  1
  Na  Na1  1  0.37425500  0.75899000  0.51036900  1
  Na  Na2  1  0.37575400  0.75847500  0.98578800  1
  Na  Na3  1  0.62654100  0.24120200  0.47217600  1
  Na  Na4  1  0.87575400  0.75847500  0.51421200  1
  Na  Na5  1  0.87425500  0.75899000  0.98963100  1
  Ni  Ni0  1  0.17305000  0.78355400  0.73983900  1
  Ni  Ni1  1  0.32478800  0.22007200  0.24595000  1
  Ni  Ni2  1  0.67305000  0.78355400  0.76016100  1
  Ni  Ni3  1  0.82478800  0.22007200  0.25405000  1
  P  P0  1  0.21217000  0.71633800  0.24636100  1
  P  P1  1  0.28659900  0.28132600  0.74684500  1
  P  P2  1  0.71217000  0.71633800  0.25363900  1
  P  P3  1  0.78659900  0.28132600  0.75315500  1
  C  C0  1  0.03640800  0.71179400  0.75303000  1
  C  C1  1  0.46147200  0.28372100  0.24968000  1
  C  C2  1  0.53640800  0.71179400  0.74697000  1
  C  C3  1  0.96147200  0.28372100  0.25032000  1
  O  O0  1  0.03022400  0.31769200  0.24775500  1
  O  O1  1  0.06559200  0.93824200  0.75185300  1
  O  O2  1  0.08657200  0.52566900  0.75258400  1
  O  O3  1  0.16308800  0.79459200  0.06092600  1
  O  O4  1  0.16484400  0.78563300  0.43488100  1
  O  O5  1  0.21211600  0.13841700  0.75770800  1
  O  O6  1  0.23044700  0.42098900  0.23550400  1
  O  O7  1  0.27076100  0.58124500  0.74654700  1
  O  O8  1  0.28769300  0.85816700  0.24600700  1
  O  O9  1  0.33350300  0.20459700  0.55781500  1
  O  O10  1  0.33633200  0.21039800  0.93338700  1
  O  O11  1  0.41197800  0.47463400  0.24809800  1
  O  O12  1  0.43154100  0.05696200  0.24886000  1
  O  O13  1  0.46691400  0.67627600  0.74609300  1
  O  O14  1  0.53022400  0.31769200  0.25224500  1
  O  O15  1  0.56559200  0.93824200  0.74814700  1
  O  O16  1  0.58657300  0.52566900  0.74741600  1
  O  O17  1  0.66484400  0.78563300  0.06511900  1
  O  O18  1  0.66308800  0.79459200  0.43907400  1
  O  O19  1  0.71211600  0.13841700  0.74229200  1
  O  O20  1  0.73044700  0.42098900  0.26449600  1
  O  O21  1  0.77076100  0.58124500  0.75345300  1
  O  O22  1  0.78769300  0.85816700  0.25399300  1
  O  O23  1  0.83633200  0.21039800  0.56661300  1
  O  O24  1  0.83350300  0.20459700  0.94218500  1
  O  O25  1  0.91197800  0.47463400  0.25190200  1
  O  O26  1  0.93154100  0.05696200  0.25114000  1
  O  O27  1  0.96691400  0.67627600  0.75390700  1
loop_
_geom_bond_atom_site_label_1
_geom_bond_atom_site_label_2
_geom_bond_distance
_geom_bond_site_symmetry_2
Na0 O0 2.274696 1_555
Na0 O5 2.393585 1_554
Na0 O3 2.397429 1_545
Na0 O2 2.427649 1_554
Na0 O6 2.502393 1_555
Na0 O1 2.648423 1_544
Na1 O13 2.299685 1_555
Na1 O11 2.353399 1_555
Na1 O8 2.373280 1_555
Na1 O9 2.422618 1_565
Na1 O12 2.540474 1_565
Na1 O7 2.599788 1_555
Na2 O13 2.297891 1_555
Na2 O11 2.344802 1_556
Na2 O8 2.371574 1_556
Na2 O10 2.451496 1_565
Na2 O12 2.538009 1_566
Na2 O7 2.630141 1_555
Na3 O14 2.274696 1_555
Na3 O19 2.393585 1_555
Na3 O18 2.397429 1_545
Na3 O16 2.427644 1_555
Na3 O20 2.502393 1_555
Na3 O15 2.648423 1_545
Na4 O27 2.297891 1_555
Na4 O25 2.344802 1_555
Na4 O22 2.371574 1_555
Na4 O23 2.451496 1_565
Na4 O26 2.538009 1_565
Na4 O21 2.630141 1_555
Na5 O27 2.299685 1_555
Na5 O25 2.353399 1_556
Na5 O22 2.373280 1_556
Na5 O24 2.422618 1_565
Na5 O26 2.540474 1_566
Na5 O21 2.599788 1_555
Ni0 O5 1.985061 1_565
Ni0 O4 2.007336 1_555
Ni0 O7 2.015544 1_555
Ni0 O1 2.065090 1_555
Ni0 O2 2.069315 1_555
Ni0 O3 2.116006 1_556
Ni1 O6 1.961344 1_555
Ni1 O8 2.003008 1_545
Ni1 O9 2.054635 1_555
Ni1 O10 2.062723 1_554
Ni1 O11 2.066076 1_555
Ni1 O12 2.068485 1_555
Ni2 O19 1.985061 1_565
Ni2 O17 2.007336 1_556
Ni2 O21 2.015544 1_555
Ni2 O15 2.065090 1_555
Ni2 O16 2.069302 1_555
Ni2 O18 2.116006 1_555
Ni3 O20 1.961344 1_555
Ni3 O22 2.003008 1_545
Ni3 O24 2.054635 1_554
Ni3 O23 2.062723 1_555
Ni3 O25 2.066076 1_555
Ni3 O26 2.068485 1_555
C0 O27 1.260636 1_455
C0 O1 1.295000 1_555
C0 O2 1.300409 1_555
C1 O14 1.246264 1_555
C1 O12 1.302191 1_555
C1 O11 1.310612 1_555
C2 O13 1.260636 1_555
C2 O15 1.295000 1_555
C2 O16 1.300421 1_555
C3 O0 1.246264 1_655
C3 O26 1.302191 1_555
C3 O25 1.310612 1_555
O3 P0 1.548848 1_555
O4 P0 1.536757 1_555
O5 P1 1.540987 1_555
O6 P0 1.557561 1_555
O7 P1 1.571681 1_555
O8 P0 1.552902 1_555
O9 P1 1.544299 1_555
O10 P1 1.552213 1_555
O17 P2 1.536757 1_555
O18 P2 1.548848 1_555
O19 P3 1.540987 1_555
O20 P2 1.557561 1_555
O21 P3 1.571681 1_555
O22 P2 1.552902 1_555
O23 P3 1.552213 1_555
O24 P3 1.544299 1_555
