# generated using pymatgen
data_Tm3Ga5Ni
_symmetry_space_group_name_H-M   'P 1'
_cell_length_a   6.75914814
_cell_length_b   6.75914814
_cell_length_c   4.15905812
_cell_angle_alpha   90.00000000
_cell_angle_beta   90.00000000
_cell_angle_gamma   120.00000063
_symmetry_Int_Tables_number   1
_chemical_formula_structural   Tm3Ga5Ni
_chemical_formula_sum   'Tm3 Ga5 Ni1'
_cell_volume   164.55441876
_cell_formula_units_Z   1
loop_
 _symmetry_equiv_pos_site_id
 _symmetry_equiv_pos_as_xyz
  1  'x, y, z'
loop_
 _atom_site_type_symbol
 _atom_site_label
 _atom_site_symmetry_multiplicity
 _atom_site_fract_x
 _atom_site_fract_y
 _atom_site_fract_z
 _atom_site_occupancy
  Tm  Tm0  1  0.59419623  -0.00000000  0.00000000  1
  Tm  Tm1  1  -0.00000000  0.59419623  -0.00000000  1
  Tm  Tm2  1  0.40580377  0.40580377  -0.00000000  1
  Ga  Ga0  1  0.23523707  -0.00000000  0.50000000  1
  Ga  Ga1  1  -0.00000000  0.23523707  0.50000000  1
  Ga  Ga2  1  0.76476293  0.76476293  0.50000000  1
  Ga  Ga3  1  0.33333300  0.66666700  0.50000000  1
  Ga  Ga4  1  0.66666700  0.33333300  0.50000000  1
  Ni  Ni0  1  -0.00000000  -0.00000000  -0.00000000  1
loop_
_geom_bond_atom_site_label_1
_geom_bond_atom_site_label_2
_geom_bond_distance
_geom_bond_site_symmetry_2
Ga0 Ni0 2.617737 1_555
Ga0 Ni0 2.617737 1_556
Ga0 Ga3 2.647588 1_545
Ga0 Ga4 2.647592 1_555
Ga0 Ga2 2.753965 1_445
Ga0 Ga1 2.753965 1_555
Ga0 Tm1 3.164614 1_545
Ga0 Tm1 3.164614 1_546
Ga0 Tm2 3.164614 1_556
Ga0 Tm2 3.164614 1_555
Ga0 Tm0 3.195492 1_555
Ga0 Tm0 3.195492 1_556
Ga1 Ni0 2.617737 1_555
Ga1 Ni0 2.617737 1_556
Ga1 Ga4 2.647588 1_455
Ga1 Ga3 2.647592 1_555
Ga1 Ga2 2.753965 1_445
Ga1 Tm0 3.164614 1_456
Ga1 Tm0 3.164614 1_455
Ga1 Tm2 3.164614 1_556
Ga1 Tm2 3.164614 1_555
Ga1 Tm1 3.195492 1_555
Ga1 Tm1 3.195492 1_556
Ga2 Ni0 2.617737 1_665
Ga2 Ni0 2.617737 1_666
Ga2 Ga3 2.647594 1_555
Ga2 Ga4 2.647594 1_555
Ga2 Tm1 3.164614 1_656
Ga2 Tm1 3.164614 1_655
Ga2 Tm0 3.164614 1_565
Ga2 Tm0 3.164614 1_566
Ga2 Tm2 3.195492 1_556
Ga2 Tm2 3.195492 1_555
Ga3 Tm1 2.921810 1_555
Ga3 Tm1 2.921810 1_556
Ga3 Tm0 2.921811 1_565
Ga3 Tm0 2.921811 1_566
Ga3 Tm2 2.921814 1_556
Ga3 Tm2 2.921814 1_555
Ga4 Tm0 2.921810 1_555
Ga4 Tm0 2.921810 1_556
Ga4 Tm1 2.921811 1_656
Ga4 Tm1 2.921811 1_655
Ga4 Tm2 2.921814 1_555
Ga4 Tm2 2.921814 1_556
Ni0 Tm2 2.742888 1_555
Ni0 Tm0 2.742888 1_455
Ni0 Tm1 2.742888 1_545
