# generated using pymatgen
data_Pr3Co4Sn13
_symmetry_space_group_name_H-M   'P 1'
_cell_length_a   9.60409062
_cell_length_b   9.60409062
_cell_length_c   9.60409062
_cell_angle_alpha   90.00000000
_cell_angle_beta   90.00000000
_cell_angle_gamma   90.00000000
_symmetry_Int_Tables_number   1
_chemical_formula_structural   Pr3Co4Sn13
_chemical_formula_sum   'Pr6 Co8 Sn26'
_cell_volume   885.86745660
_cell_formula_units_Z   2
loop_
 _symmetry_equiv_pos_site_id
 _symmetry_equiv_pos_as_xyz
  1  'x, y, z'
loop_
 _atom_site_type_symbol
 _atom_site_label
 _atom_site_symmetry_multiplicity
 _atom_site_fract_x
 _atom_site_fract_y
 _atom_site_fract_z
 _atom_site_occupancy
  Pr  Pr0  1  -0.00000000  0.50000000  0.75000000  1
  Pr  Pr1  1  0.50000000  0.25000000  -0.00000000  1
  Pr  Pr2  1  0.75000000  0.00000000  0.50000000  1
  Pr  Pr3  1  -0.00000000  0.50000000  0.25000000  1
  Pr  Pr4  1  0.50000000  0.75000000  -0.00000000  1
  Pr  Pr5  1  0.25000000  0.00000000  0.50000000  1
  Co  Co0  1  0.75000000  0.25000000  0.75000000  1
  Co  Co1  1  0.25000000  0.75000000  0.25000000  1
  Co  Co2  1  0.75000000  0.75000000  0.25000000  1
  Co  Co3  1  0.25000000  0.25000000  0.75000000  1
  Co  Co4  1  0.25000000  0.75000000  0.75000000  1
  Co  Co5  1  0.75000000  0.25000000  0.25000000  1
  Co  Co6  1  0.25000000  0.25000000  0.25000000  1
  Co  Co7  1  0.75000000  0.75000000  0.75000000  1
  Sn  Sn0  1  0.50000000  0.50000000  0.50000000  1
  Sn  Sn1  1  -0.00000000  0.00000000  -0.00000000  1
  Sn  Sn2  1  0.80159331  0.34183613  0.50000000  1
  Sn  Sn3  1  0.65816387  0.50000000  0.80159331  1
  Sn  Sn4  1  0.50000000  0.19840669  0.65816387  1
  Sn  Sn5  1  0.19840669  0.65816387  0.50000000  1
  Sn  Sn6  1  0.34183613  0.50000000  0.19840669  1
  Sn  Sn7  1  0.50000000  0.80159331  0.34183613  1
  Sn  Sn8  1  0.80159331  0.65816387  0.50000000  1
  Sn  Sn9  1  0.65816387  0.50000000  0.19840669  1
  Sn  Sn10  1  0.19840669  0.34183613  0.50000000  1
  Sn  Sn11  1  0.34183613  0.50000000  0.80159331  1
  Sn  Sn12  1  0.50000000  0.80159331  0.65816387  1
  Sn  Sn13  1  0.50000000  0.19840669  0.34183613  1
  Sn  Sn14  1  0.30159331  0.00000000  0.84183613  1
  Sn  Sn15  1  0.15816387  0.30159331  -0.00000000  1
  Sn  Sn16  1  -0.00000000  0.15816387  0.69840669  1
  Sn  Sn17  1  0.69840669  0.00000000  0.15816387  1
  Sn  Sn18  1  0.84183613  0.69840669  -0.00000000  1
  Sn  Sn19  1  0.00000000  0.84183613  0.30159331  1
  Sn  Sn20  1  0.30159331  0.00000000  0.15816387  1
  Sn  Sn21  1  0.15816387  0.69840669  -0.00000000  1
  Sn  Sn22  1  0.69840669  0.00000000  0.84183613  1
  Sn  Sn23  1  0.84183613  0.30159331  -0.00000000  1
  Sn  Sn24  1  0.00000000  0.15816387  0.30159331  1
  Sn  Sn25  1  -0.00000000  0.84183613  0.69840669  1
loop_
_geom_bond_atom_site_label_1
_geom_bond_atom_site_label_2
_geom_bond_distance
_geom_bond_site_symmetry_2
Pr0 Sn25 3.320208 1_555
Pr0 Sn3 3.320208 1_455
Pr0 Sn11 3.320208 1_555
Pr0 Sn16 3.320208 1_555
Pr0 Sn15 3.421012 1_556
Pr0 Sn10 3.421012 1_555
Pr0 Sn21 3.421012 1_556
Pr0 Sn2 3.421012 1_455
Pr0 Sn5 3.421012 1_555
Pr0 Sn23 3.421012 1_456
Pr0 Sn8 3.421012 1_455
Pr0 Sn18 3.421012 1_456
Pr1 Sn23 3.320208 1_555
Pr1 Sn15 3.320208 1_555
Pr1 Sn4 3.320208 1_554
Pr1 Sn13 3.320208 1_555
Pr1 Sn20 3.421012 1_555
Pr1 Sn6 3.421012 1_555
Pr1 Sn17 3.421012 1_555
Pr1 Sn3 3.421012 1_554
Pr1 Sn11 3.421012 1_554
Pr1 Sn22 3.421012 1_554
Pr1 Sn9 3.421012 1_555
Pr1 Sn14 3.421012 1_554
Pr2 Sn22 3.320208 1_555
Pr2 Sn17 3.320208 1_555
Pr2 Sn2 3.320208 1_555
Pr2 Sn8 3.320208 1_545
Pr2 Sn19 3.421012 1_645
Pr2 Sn24 3.421012 1_655
Pr2 Sn4 3.421012 1_555
Pr2 Sn7 3.421012 1_545
Pr2 Sn16 3.421012 1_655
Pr2 Sn25 3.421012 1_645
Pr2 Sn12 3.421012 1_545
Pr2 Sn13 3.421012 1_555
Pr3 Sn6 3.320208 1_555
Pr3 Sn19 3.320208 1_555
Pr3 Sn24 3.320208 1_555
Pr3 Sn9 3.320208 1_455
Pr3 Sn23 3.421012 1_455
Pr3 Sn10 3.421012 1_555
Pr3 Sn2 3.421012 1_455
Pr3 Sn5 3.421012 1_555
Pr3 Sn21 3.421012 1_555
Pr3 Sn15 3.421012 1_555
Pr3 Sn18 3.421012 1_455
Pr3 Sn8 3.421012 1_455
Pr4 Sn7 3.320208 1_555
Pr4 Sn12 3.320208 1_554
Pr4 Sn21 3.320208 1_555
Pr4 Sn18 3.320208 1_555
Pr4 Sn6 3.421012 1_555
Pr4 Sn20 3.421012 1_565
Pr4 Sn22 3.421012 1_564
Pr4 Sn3 3.421012 1_554
Pr4 Sn17 3.421012 1_565
Pr4 Sn14 3.421012 1_564
Pr4 Sn9 3.421012 1_555
Pr4 Sn11 3.421012 1_554
Pr5 Sn20 3.320208 1_555
Pr5 Sn10 3.320208 1_555
Pr5 Sn14 3.320208 1_555
Pr5 Sn5 3.320208 1_545
Pr5 Sn25 3.421012 1_545
Pr5 Sn4 3.421012 1_555
Pr5 Sn16 3.421012 1_555
Pr5 Sn19 3.421012 1_545
Pr5 Sn7 3.421012 1_545
Pr5 Sn24 3.421012 1_555
Pr5 Sn12 3.421012 1_545
Pr5 Sn13 3.421012 1_555
Co0 Sn2 2.605449 1_555
Co0 Sn23 2.605449 1_556
Co0 Sn16 2.605449 1_655
Co0 Sn3 2.605449 1_555
Co0 Sn22 2.605449 1_555
Co0 Sn4 2.605449 1_555
Co0 Pr1 3.395559 1_556
Co0 Pr2 3.395559 1_555
Co0 Pr0 3.395559 1_655
Co1 Sn5 2.605449 1_555
Co1 Sn21 2.605449 1_555
Co1 Sn7 2.605449 1_555
Co1 Sn19 2.605449 1_555
Co1 Sn6 2.605449 1_555
Co1 Sn20 2.605449 1_565
Co1 Pr5 3.395559 1_565
Co1 Pr3 3.395559 1_555
Co1 Pr4 3.395559 1_555
Co2 Sn19 2.605449 1_655
Co2 Sn17 2.605449 1_565
Co2 Sn8 2.605449 1_555
Co2 Sn9 2.605449 1_555
Co2 Sn18 2.605449 1_555
Co2 Sn7 2.605449 1_555
Co2 Pr2 3.395559 1_565
Co2 Pr3 3.395559 1_655
Co2 Pr4 3.395559 1_555
Co3 Sn14 2.605449 1_555
Co3 Sn11 2.605449 1_555
Co3 Sn16 2.605449 1_555
Co3 Sn15 2.605449 1_556
Co3 Sn4 2.605449 1_555
Co3 Sn10 2.605449 1_555
Co3 Pr5 3.395559 1_555
Co3 Pr1 3.395559 1_556
Co3 Pr0 3.395559 1_555
Co4 Sn14 2.605449 1_565
Co4 Sn21 2.605449 1_556
Co4 Sn11 2.605449 1_555
Co4 Sn5 2.605449 1_555
Co4 Sn12 2.605449 1_555
Co4 Sn25 2.605449 1_555
Co4 Pr4 3.395559 1_556
Co4 Pr5 3.395559 1_565
Co4 Pr0 3.395559 1_555
Co5 Sn17 2.605449 1_555
Co5 Sn2 2.605449 1_555
Co5 Sn23 2.605449 1_555
Co5 Sn9 2.605449 1_555
Co5 Sn24 2.605449 1_655
Co5 Sn13 2.605449 1_555
Co5 Pr3 3.395559 1_655
Co5 Pr1 3.395559 1_555
Co5 Pr2 3.395559 1_555
Co6 Sn24 2.605449 1_555
Co6 Sn15 2.605449 1_555
Co6 Sn13 2.605449 1_555
Co6 Sn20 2.605449 1_555
Co6 Sn6 2.605449 1_555
Co6 Sn10 2.605449 1_555
Co6 Pr5 3.395559 1_555
Co6 Pr1 3.395559 1_555
Co6 Pr3 3.395559 1_555
Co7 Sn18 2.605449 1_556
Co7 Sn8 2.605449 1_555
Co7 Sn12 2.605449 1_555
Co7 Sn22 2.605449 1_565
Co7 Sn25 2.605449 1_655
Co7 Sn3 2.605449 1_555
Co7 Pr4 3.395559 1_556
Co7 Pr2 3.395559 1_565
Co7 Pr0 3.395559 1_655
Sn0 Sn12 3.270674 1_555
Sn0 Sn13 3.270674 1_555
Sn0 Sn6 3.270674 1_555
Sn0 Sn10 3.270674 1_555
Sn0 Sn3 3.270674 1_555
Sn0 Sn7 3.270674 1_555
Sn0 Sn4 3.270674 1_555
Sn0 Sn5 3.270674 1_555
Sn0 Sn8 3.270674 1_555
Sn0 Sn2 3.270674 1_555
Sn0 Sn11 3.270674 1_555
Sn0 Sn9 3.270674 1_555
Sn1 Sn21 3.270674 1_545
Sn1 Sn25 3.270674 1_544
Sn1 Sn16 3.270674 1_554
Sn1 Sn14 3.270674 1_554
Sn1 Sn19 3.270674 1_545
Sn1 Sn23 3.270674 1_455
Sn1 Sn24 3.270674 1_555
Sn1 Sn18 3.270674 1_445
Sn1 Sn22 3.270674 1_454
Sn1 Sn15 3.270674 1_555
Sn1 Sn20 3.270674 1_555
Sn1 Sn17 3.270674 1_455
Sn2 Sn8 3.038040 1_555
Sn2 Sn24 3.220822 1_655
Sn6 Sn9 3.038040 1_555
Sn10 Sn5 3.038040 1_555
Sn10 Sn16 3.220822 1_555
Sn10 Sn24 3.220822 1_555
Sn11 Sn3 3.038040 1_555
Sn11 Sn15 3.220822 1_556
Sn11 Sn21 3.220822 1_556
Sn12 Sn7 3.038040 1_555
Sn12 Sn14 3.220822 1_565
Sn12 Sn22 3.220822 1_565
Sn13 Sn4 3.038040 1_555
Sn13 Sn20 3.220822 1_555
Sn13 Sn17 3.220822 1_555
Sn14 Sn20 3.038040 1_556
Sn14 Sn4 3.220822 1_555
Sn15 Sn23 3.038040 1_455
Sn15 Sn6 3.220822 1_555
Sn16 Sn25 3.038040 1_545
Sn16 Sn2 3.220822 1_455
Sn17 Sn22 3.038040 1_554
Sn17 Sn7 3.220822 1_545
Sn18 Sn21 3.038040 1_655
Sn18 Sn3 3.220822 1_554
Sn18 Sn9 3.220822 1_555
Sn19 Sn24 3.038040 1_565
Sn19 Sn8 3.220822 1_455
Sn19 Sn5 3.220822 1_555
Sn20 Sn7 3.220822 1_545
Sn21 Sn6 3.220822 1_555
Sn22 Sn4 3.220822 1_555
Sn23 Sn3 3.220822 1_554
Sn23 Sn9 3.220822 1_555
Sn25 Sn8 3.220822 1_455
Sn25 Sn5 3.220822 1_555
