# generated using pymatgen
data_BaAg5
_symmetry_space_group_name_H-M   'P 1'
_cell_length_a   5.89040617
_cell_length_b   5.89036958
_cell_length_c   4.55902457
_cell_angle_alpha   90.00012706
_cell_angle_beta   90.00004640
_cell_angle_gamma   120.00577963
_symmetry_Int_Tables_number   1
_chemical_formula_structural   BaAg5
_chemical_formula_sum   'Ba1 Ag5'
_cell_volume   136.98248966
_cell_formula_units_Z   1
loop_
 _symmetry_equiv_pos_site_id
 _symmetry_equiv_pos_as_xyz
  1  'x, y, z'
loop_
 _atom_site_type_symbol
 _atom_site_label
 _atom_site_symmetry_multiplicity
 _atom_site_fract_x
 _atom_site_fract_y
 _atom_site_fract_z
 _atom_site_occupancy
  Ba  Ba0  1  0.00000000  0.00000000  -0.00000000  1
  Ag  Ag0  1  0.33333245  0.66666855  -0.00000000  1
  Ag  Ag1  1  0.66666755  0.33333145  0.00000000  1
  Ag  Ag2  1  0.50000000  0.00000000  0.50000000  1
  Ag  Ag3  1  0.50000000  0.50000000  0.50000000  1
  Ag  Ag4  1  0.00000000  0.50000000  0.50000000  1
loop_
_geom_bond_atom_site_label_1
_geom_bond_atom_site_label_2
_geom_bond_distance
_geom_bond_site_symmetry_2
Ag0 Ag2 2.843792 1_565
Ag0 Ag2 2.843801 1_564
Ag0 Ag4 2.843803 1_554
Ag0 Ag4 2.843809 1_555
Ag0 Ag3 2.843901 1_554
Ag0 Ag3 2.843904 1_555
Ag0 Ag1 3.400589 1_565
Ag0 Ba0 3.400618 1_555
Ag0 Ag1 3.400621 1_455
Ag0 Ba0 3.400634 1_665
Ag0 Ba0 3.400902 1_565
Ag0 Ag1 3.400944 1_555
Ag1 Ag2 2.843792 1_554
Ag1 Ag2 2.843801 1_555
Ag1 Ag4 2.843803 1_655
Ag1 Ag4 2.843809 1_654
Ag1 Ag3 2.843901 1_555
Ag1 Ag3 2.843904 1_554
Ag1 Ba0 3.400618 1_665
Ag1 Ba0 3.400634 1_555
Ag1 Ba0 3.400902 1_655
Ag2 Ag4 2.944937 1_655
Ag2 Ag4 2.944937 1_545
Ag2 Ag3 2.945185 1_555
Ag2 Ag3 2.945185 1_545
Ag2 Ba0 3.724297 1_656
Ag2 Ba0 3.724297 1_555
Ag2 Ba0 3.724300 1_655
Ag2 Ba0 3.724300 1_556
Ag3 Ag4 2.945203 1_655
Ag3 Ag4 2.945203 1_555
Ag3 Ba0 3.724082 1_555
Ag3 Ba0 3.724082 1_666
Ag3 Ba0 3.724093 1_665
Ag3 Ba0 3.724093 1_556
Ag4 Ba0 3.724280 1_555
Ag4 Ba0 3.724280 1_566
Ag4 Ba0 3.724288 1_565
Ag4 Ba0 3.724288 1_556
