# generated using pymatgen
data_Pu(CrSi)2
_symmetry_space_group_name_H-M   'P 1'
_cell_length_a   6.09463291
_cell_length_b   6.09463291
_cell_length_c   6.09463291
_cell_angle_alpha   144.76521234
_cell_angle_beta   144.76521234
_cell_angle_gamma   50.68454964
_symmetry_Int_Tables_number   1
_chemical_formula_structural   Pu(CrSi)2
_chemical_formula_sum   'Pu1 Cr2 Si2'
_cell_volume   74.96646135
_cell_formula_units_Z   1
loop_
 _symmetry_equiv_pos_site_id
 _symmetry_equiv_pos_as_xyz
  1  'x, y, z'
loop_
 _atom_site_type_symbol
 _atom_site_label
 _atom_site_symmetry_multiplicity
 _atom_site_fract_x
 _atom_site_fract_y
 _atom_site_fract_z
 _atom_site_occupancy
  Pu  Pu0  1  0.00000000  0.00000000  0.00000000  1
  Cr  Cr0  1  0.75000000  0.25000000  0.50000000  1
  Cr  Cr1  1  0.25000000  0.75000000  0.50000000  1
  Si  Si0  1  0.60872500  0.60872500  0.00000000  1
  Si  Si1  1  0.39127500  0.39127500  0.00000000  1
loop_
_geom_bond_atom_site_label_1
_geom_bond_atom_site_label_2
_geom_bond_distance
_geom_bond_site_symmetry_2
Pu0 Si0 2.870481 1_545
Pu0 Si0 2.870481 1_556
Pu0 Si1 2.870481 1_556
Pu0 Si1 2.870481 1_545
Pu0 Si0 2.870481 1_444
Pu0 Si0 2.870481 1_455
Pu0 Si1 2.870481 1_444
Pu0 Si1 2.870481 1_455
Cr0 Si1 2.413436 1_555
Cr0 Si1 2.413436 1_656
Cr0 Si0 2.413436 1_556
Cr0 Si0 2.413436 1_545
Cr1 Si1 2.413436 1_555
Cr1 Si1 2.413436 1_566
Cr1 Si0 2.413436 1_556
Cr1 Si0 2.413436 1_455
Si0 Si1 2.395485 1_555
