# generated using pymatgen
data_Mg30CoBO32
_symmetry_space_group_name_H-M   'P 1'
_cell_length_a   8.53780000
_cell_length_b   8.53780000
_cell_length_c   8.46335800
_cell_angle_alpha   90.00000000
_cell_angle_beta   90.00000000
_cell_angle_gamma   90.00000000
_symmetry_Int_Tables_number   1
_chemical_formula_structural   Mg30CoBO32
_chemical_formula_sum   'Mg30 Co1 B1 O32'
_cell_volume   616.92826214
_cell_formula_units_Z   1
loop_
 _symmetry_equiv_pos_site_id
 _symmetry_equiv_pos_as_xyz
  1  'x, y, z'
loop_
 _atom_site_type_symbol
 _atom_site_label
 _atom_site_symmetry_multiplicity
 _atom_site_fract_x
 _atom_site_fract_y
 _atom_site_fract_z
 _atom_site_occupancy
  Mg  Mg0  1  0.50000000  0.00000000  0.00000000  1
  Mg  Mg1  1  0.50000000  0.00000000  0.50000000  1
  Mg  Mg2  1  0.00000000  0.50000000  0.00000000  1
  Mg  Mg3  1  0.00000000  0.50000000  0.50000000  1
  Mg  Mg4  1  0.50000000  0.50000000  0.00000000  1
  Mg  Mg5  1  0.50000000  0.50000000  0.50000000  1
  Mg  Mg6  1  0.25216700  0.00000000  0.25487000  1
  Mg  Mg7  1  0.25216700  0.00000000  0.74513000  1
  Mg  Mg8  1  0.74783300  0.00000000  0.25487000  1
  Mg  Mg9  1  0.74783300  0.00000000  0.74513000  1
  Mg  Mg10  1  0.24964200  0.50000000  0.25046900  1
  Mg  Mg11  1  0.24964200  0.50000000  0.74953100  1
  Mg  Mg12  1  0.75035800  0.50000000  0.25046900  1
  Mg  Mg13  1  0.75035800  0.50000000  0.74953100  1
  Mg  Mg14  1  0.00000000  0.25216700  0.25487000  1
  Mg  Mg15  1  0.00000000  0.25216700  0.74513000  1
  Mg  Mg16  1  0.50000000  0.24964200  0.25046900  1
  Mg  Mg17  1  0.50000000  0.24964200  0.74953100  1
  Mg  Mg18  1  0.00000000  0.74783300  0.25487000  1
  Mg  Mg19  1  0.00000000  0.74783300  0.74513000  1
  Mg  Mg20  1  0.50000000  0.75035800  0.25046900  1
  Mg  Mg21  1  0.50000000  0.75035800  0.74953100  1
  Mg  Mg22  1  0.24799100  0.24799100  0.00000000  1
  Mg  Mg23  1  0.24835700  0.24835700  0.50000000  1
  Mg  Mg24  1  0.75200900  0.24799100  0.00000000  1
  Mg  Mg25  1  0.75164300  0.24835700  0.50000000  1
  Mg  Mg26  1  0.24799100  0.75200900  0.00000000  1
  Mg  Mg27  1  0.24835700  0.75164300  0.50000000  1
  Mg  Mg28  1  0.75200900  0.75200900  0.00000000  1
  Mg  Mg29  1  0.75164300  0.75164300  0.50000000  1
  Co  Co0  1  0.00000000  0.00000000  0.00000000  1
  B  B0  1  0.00000000  0.00000000  0.50000000  1
  O  O0  1  0.00000000  0.24724400  0.00000000  1
  O  O1  1  0.00000000  0.26357100  0.50000000  1
  O  O2  1  0.50000000  0.24949500  0.00000000  1
  O  O3  1  0.50000000  0.25193400  0.50000000  1
  O  O4  1  0.00000000  0.75275600  0.00000000  1
  O  O5  1  0.00000000  0.73642900  0.50000000  1
  O  O6  1  0.50000000  0.75050500  0.00000000  1
  O  O7  1  0.50000000  0.74806600  0.50000000  1
  O  O8  1  0.24736000  0.24736000  0.24978700  1
  O  O9  1  0.24736000  0.24736000  0.75021300  1
  O  O10  1  0.75264000  0.24736000  0.24978700  1
  O  O11  1  0.75264000  0.24736000  0.75021300  1
  O  O12  1  0.24736000  0.75264000  0.24978700  1
  O  O13  1  0.24736000  0.75264000  0.75021300  1
  O  O14  1  0.75264000  0.75264000  0.24978700  1
  O  O15  1  0.75264000  0.75264000  0.75021300  1
  O  O16  1  0.00000000  0.00000000  0.33944000  1
  O  O17  1  0.00000000  0.00000000  0.66056000  1
  O  O18  1  0.50000000  0.00000000  0.24676600  1
  O  O19  1  0.50000000  0.00000000  0.75323400  1
  O  O20  1  0.00000000  0.50000000  0.24676600  1
  O  O21  1  0.00000000  0.50000000  0.75323400  1
  O  O22  1  0.50000000  0.50000000  0.24891000  1
  O  O23  1  0.50000000  0.50000000  0.75109000  1
  O  O24  1  0.24724400  0.00000000  0.00000000  1
  O  O25  1  0.26357100  0.00000000  0.50000000  1
  O  O26  1  0.75275600  0.00000000  0.00000000  1
  O  O27  1  0.73642900  0.00000000  0.50000000  1
  O  O28  1  0.24949500  0.50000000  0.00000000  1
  O  O29  1  0.25193400  0.50000000  0.50000000  1
  O  O30  1  0.75050500  0.50000000  0.00000000  1
  O  O31  1  0.74806600  0.50000000  0.50000000  1
loop_
_geom_bond_atom_site_label_1
_geom_bond_atom_site_label_2
_geom_bond_distance
_geom_bond_site_symmetry_2
Mg0 O18 2.088469 1_555
Mg0 O19 2.088469 1_554
Mg0 O6 2.130138 1_545
Mg0 O2 2.130138 1_555
Mg0 O26 2.157980 1_555
Mg0 O24 2.157980 1_555
Mg1 O27 2.018584 1_555
Mg1 O25 2.018584 1_555
Mg1 O19 2.143210 1_555
Mg1 O18 2.143210 1_555
Mg1 O3 2.150962 1_555
Mg1 O7 2.150962 1_545
Mg2 O20 2.088469 1_555
Mg2 O21 2.088469 1_554
Mg2 O30 2.130138 1_455
Mg2 O28 2.130138 1_555
Mg2 O4 2.157980 1_555
Mg2 O0 2.157980 1_555
Mg3 O1 2.018584 1_555
Mg3 O5 2.018584 1_555
Mg3 O21 2.143210 1_555
Mg3 O20 2.143210 1_555
Mg3 O31 2.150962 1_455
Mg3 O29 2.150962 1_555
Mg4 O23 2.106614 1_554
Mg4 O22 2.106614 1_555
Mg4 O28 2.138762 1_555
Mg4 O6 2.138762 1_555
Mg4 O30 2.138762 1_555
Mg4 O2 2.138762 1_555
Mg5 O7 2.117938 1_555
Mg5 O29 2.117938 1_555
Mg5 O31 2.117938 1_555
Mg5 O3 2.117938 1_555
Mg5 O22 2.125065 1_555
Mg5 O23 2.125065 1_555
Mg6 O25 2.076906 1_555
Mg6 O12 2.112747 1_545
Mg6 O8 2.112747 1_555
Mg6 O18 2.117060 1_555
Mg6 O24 2.157466 1_555
Mg6 O16 2.268809 1_555
Mg7 O25 2.076906 1_555
Mg7 O13 2.112747 1_545
Mg7 O9 2.112747 1_555
Mg7 O19 2.117060 1_555
Mg7 O24 2.157466 1_556
Mg7 O17 2.268809 1_555
Mg8 O27 2.076906 1_555
Mg8 O14 2.112747 1_545
Mg8 O10 2.112747 1_555
Mg8 O18 2.117060 1_555
Mg8 O26 2.157466 1_555
Mg8 O16 2.268809 1_655
Mg9 O27 2.076906 1_555
Mg9 O15 2.112747 1_545
Mg9 O11 2.112747 1_555
Mg9 O19 2.117060 1_555
Mg9 O26 2.157466 1_556
Mg9 O17 2.268809 1_655
Mg10 O29 2.111961 1_555
Mg10 O28 2.119809 1_555
Mg10 O20 2.131624 1_555
Mg10 O22 2.137547 1_555
Mg10 O8 2.157086 1_555
Mg10 O12 2.157086 1_555
Mg11 O29 2.111961 1_555
Mg11 O28 2.119809 1_556
Mg11 O21 2.131624 1_555
Mg11 O23 2.137547 1_555
Mg11 O9 2.157086 1_555
Mg11 O13 2.157086 1_555
Mg12 O31 2.111961 1_555
Mg12 O30 2.119809 1_555
Mg12 O20 2.131624 1_655
Mg12 O22 2.137547 1_555
Mg12 O10 2.157086 1_555
Mg12 O14 2.157086 1_555
Mg13 O31 2.111961 1_555
Mg13 O30 2.119809 1_556
Mg13 O21 2.131624 1_655
Mg13 O23 2.137547 1_555
Mg13 O11 2.157086 1_555
Mg13 O15 2.157086 1_555
Mg14 O1 2.076906 1_555
Mg14 O10 2.112747 1_455
Mg14 O8 2.112747 1_555
Mg14 O20 2.117060 1_555
Mg14 O0 2.157466 1_555
Mg14 O16 2.268809 1_555
Mg15 O1 2.076906 1_555
Mg15 O11 2.112747 1_455
Mg15 O9 2.112747 1_555
Mg15 O21 2.117060 1_555
Mg15 O0 2.157466 1_556
Mg15 O17 2.268809 1_555
Mg16 O3 2.111961 1_555
Mg16 O2 2.119809 1_555
Mg16 O18 2.131624 1_555
Mg16 O22 2.137547 1_555
Mg16 O8 2.157086 1_555
Mg16 O10 2.157086 1_555
Mg17 O3 2.111961 1_555
Mg17 O2 2.119809 1_556
Mg17 O19 2.131624 1_555
Mg17 O23 2.137547 1_555
Mg17 O9 2.157086 1_555
Mg17 O11 2.157086 1_555
Mg18 O5 2.076906 1_555
Mg18 O14 2.112747 1_455
Mg18 O12 2.112747 1_555
Mg18 O20 2.117060 1_555
Mg18 O4 2.157466 1_555
Mg18 O16 2.268809 1_565
Mg19 O5 2.076906 1_555
Mg19 O15 2.112747 1_455
Mg19 O13 2.112747 1_555
Mg19 O21 2.117060 1_555
Mg19 O4 2.157466 1_556
Mg19 O17 2.268809 1_565
Mg20 O7 2.111961 1_555
Mg20 O6 2.119809 1_555
Mg20 O18 2.131624 1_565
Mg20 O22 2.137547 1_555
Mg20 O12 2.157086 1_555
Mg20 O14 2.157086 1_555
Mg21 O7 2.111961 1_555
Mg21 O6 2.119809 1_556
Mg21 O19 2.131624 1_565
Mg21 O23 2.137547 1_555
Mg21 O13 2.157086 1_555
Mg21 O15 2.157086 1_555
Mg22 O8 2.114051 1_555
Mg22 O9 2.114051 1_554
Mg22 O0 2.117307 1_555
Mg22 O24 2.117307 1_555
Mg22 O2 2.151641 1_555
Mg22 O28 2.151641 1_555
Mg23 O9 2.117676 1_555
Mg23 O8 2.117676 1_555
Mg23 O1 2.124397 1_555
Mg23 O25 2.124397 1_555
Mg23 O29 2.148695 1_555
Mg23 O3 2.148695 1_555
Mg24 O10 2.114051 1_555
Mg24 O11 2.114051 1_554
Mg24 O26 2.117307 1_555
Mg24 O0 2.117307 1_655
Mg24 O2 2.151641 1_555
Mg24 O30 2.151641 1_555
Mg25 O11 2.117676 1_555
Mg25 O10 2.117676 1_555
Mg25 O27 2.124397 1_555
Mg25 O1 2.124397 1_655
Mg25 O3 2.148695 1_555
Mg25 O31 2.148695 1_555
Mg26 O12 2.114051 1_555
Mg26 O13 2.114051 1_554
Mg26 O4 2.117307 1_555
Mg26 O24 2.117307 1_565
Mg26 O28 2.151641 1_555
Mg26 O6 2.151641 1_555
Mg27 O13 2.117676 1_555
Mg27 O12 2.117676 1_555
Mg27 O5 2.124397 1_555
Mg27 O25 2.124397 1_565
Mg27 O29 2.148695 1_555
Mg27 O7 2.148695 1_555
Mg28 O14 2.114051 1_555
Mg28 O15 2.114051 1_554
Mg28 O26 2.117307 1_565
Mg28 O4 2.117307 1_655
Mg28 O30 2.151641 1_555
Mg28 O6 2.151641 1_555
Mg29 O15 2.117676 1_555
Mg29 O14 2.117676 1_555
Mg29 O5 2.124397 1_655
Mg29 O27 2.124397 1_565
Mg29 O7 2.148695 1_555
Mg29 O31 2.148695 1_555
Co0 O0 2.110920 1_555
Co0 O26 2.110920 1_455
Co0 O24 2.110920 1_555
Co0 O4 2.110920 1_545
B0 O16 1.358877 1_555
B0 O17 1.358877 1_555
