# generated using pymatgen
data_TmAgTe2
_symmetry_space_group_name_H-M   'P 1'
_cell_length_a   4.45313472
_cell_length_b   4.45313472
_cell_length_c   7.39116600
_cell_angle_alpha   90.00000000
_cell_angle_beta   90.00000000
_cell_angle_gamma   120.00001067
_symmetry_Int_Tables_number   1
_chemical_formula_structural   TmAgTe2
_chemical_formula_sum   'Tm1 Ag1 Te2'
_cell_volume   126.93319419
_cell_formula_units_Z   1
loop_
 _symmetry_equiv_pos_site_id
 _symmetry_equiv_pos_as_xyz
  1  'x, y, z'
loop_
 _atom_site_type_symbol
 _atom_site_label
 _atom_site_symmetry_multiplicity
 _atom_site_fract_x
 _atom_site_fract_y
 _atom_site_fract_z
 _atom_site_occupancy
  Tm  Tm0  1  0.33333300  0.66666700  0.98126500  1
  Ag  Ag0  1  0.00000000  0.00000000  0.39067800  1
  Te  Te0  1  0.00000000  0.00000000  0.76521500  1
  Te  Te1  1  0.66666700  0.33333300  0.22284300  1
loop_
_geom_bond_atom_site_label_1
_geom_bond_atom_site_label_2
_geom_bond_distance
_geom_bond_site_symmetry_2
Ag0 Te0 2.768265 1_555
Ag0 Te1 2.854637 1_455
Ag0 Te1 2.854641 1_555
Ag0 Te1 2.854641 1_445
Te0 Tm0 3.026564 1_545
Te0 Tm0 3.026567 1_555
Te0 Tm0 3.026567 1_445
Te1 Tm0 3.130221 1_544
Te1 Tm0 3.130221 1_654
Te1 Tm0 3.130228 1_554
