# generated using pymatgen
data_La7Mo7O30
_symmetry_space_group_name_H-M   'P 1'
_cell_length_a   10.22988668
_cell_length_b   10.22988668
_cell_length_c   10.22988679
_cell_angle_alpha   115.04563296
_cell_angle_beta   115.04563296
_cell_angle_gamma   115.04563146
_symmetry_Int_Tables_number   1
_chemical_formula_structural   La7Mo7O30
_chemical_formula_sum   'La7 Mo7 O30'
_cell_volume   596.65141377
_cell_formula_units_Z   1
loop_
 _symmetry_equiv_pos_site_id
 _symmetry_equiv_pos_as_xyz
  1  'x, y, z'
loop_
 _atom_site_type_symbol
 _atom_site_label
 _atom_site_symmetry_multiplicity
 _atom_site_fract_x
 _atom_site_fract_y
 _atom_site_fract_z
 _atom_site_occupancy
  La  La0  1  0.89110100  0.66043400  0.46675200  1
  La  La1  1  0.46675200  0.89110100  0.66043400  1
  La  La2  1  0.33956600  0.53324800  0.10889900  1
  La  La3  1  0.10889900  0.33956600  0.53324800  1
  La  La4  1  0.53324800  0.10889900  0.33956600  1
  La  La5  1  0.66043400  0.46675200  0.89110100  1
  La  La6  1  0.00000000  0.00000000  0.00000000  1
  Mo  Mo0  1  0.83757600  0.01259200  0.63303100  1
  Mo  Mo1  1  0.63303100  0.83757600  0.01259200  1
  Mo  Mo2  1  0.01259200  0.63303100  0.83757600  1
  Mo  Mo3  1  0.16242400  0.98740800  0.36696900  1
  Mo  Mo4  1  0.36696900  0.16242400  0.98740800  1
  Mo  Mo5  1  0.98740800  0.36696900  0.16242400  1
  Mo  Mo6  1  0.50000000  0.50000000  0.50000000  1
  O  O0  1  0.80888800  0.62879600  0.65924800  1
  O  O1  1  0.65924800  0.80888800  0.62879600  1
  O  O2  1  0.62879600  0.65924800  0.80888800  1
  O  O3  1  0.19111200  0.37120400  0.34075200  1
  O  O4  1  0.34075200  0.19111200  0.37120400  1
  O  O5  1  0.37120400  0.34075200  0.19111200  1
  O  O6  1  0.62199800  0.97525600  0.48437100  1
  O  O7  1  0.48437100  0.62199800  0.97525600  1
  O  O8  1  0.97525600  0.48437100  0.62199800  1
  O  O9  1  0.37800200  0.02474400  0.51562900  1
  O  O10  1  0.51562900  0.37800200  0.02474400  1
  O  O11  1  0.02474400  0.51562900  0.37800200  1
  O  O12  1  0.07040100  0.01016100  0.78131300  1
  O  O13  1  0.78131300  0.07040100  0.01016100  1
  O  O14  1  0.22507700  0.60541400  0.27305700  1
  O  O15  1  0.60541400  0.27305700  0.22507700  1
  O  O16  1  0.27305700  0.22507700  0.60541400  1
  O  O17  1  0.77492300  0.39458600  0.72694300  1
  O  O18  1  0.39458600  0.72694300  0.77492300  1
  O  O19  1  0.72694300  0.77492300  0.39458600  1
  O  O20  1  0.76137300  0.29546500  0.95644900  1
  O  O21  1  0.29546500  0.95644900  0.76137300  1
  O  O22  1  0.95644900  0.76137300  0.29546500  1
  O  O23  1  0.23862700  0.70453500  0.04355100  1
  O  O24  1  0.70453500  0.04355100  0.23862700  1
  O  O25  1  0.04355100  0.23862700  0.70453500  1
  O  O26  1  0.98983900  0.21868700  0.92959900  1
  O  O27  1  0.21868700  0.92959900  0.98983900  1
  O  O28  1  0.92959900  0.98983900  0.21868700  1
  O  O29  1  0.01016100  0.78131300  0.07040100  1
loop_
_geom_bond_atom_site_label_1
_geom_bond_atom_site_label_2
_geom_bond_distance
_geom_bond_site_symmetry_2
La0 O19 2.466684 1_555
La0 O15 2.477675 1_555
La0 O12 2.493598 1_665
La0 O0 2.530075 1_555
La0 O21 2.544788 1_655
La0 O11 2.552390 1_655
La0 O22 2.553976 1_555
La1 O18 2.466684 1_555
La1 O14 2.477675 1_555
La1 O13 2.493598 1_566
La1 O1 2.530075 1_555
La1 O20 2.544788 1_565
La1 O9 2.552390 1_565
La1 O21 2.553976 1_555
La2 O14 2.466684 1_555
La2 O19 2.477675 1_555
La2 O26 2.493598 1_454
La2 O5 2.530075 1_555
La2 O25 2.544788 1_554
La2 O7 2.552390 1_554
La2 O23 2.553976 1_555
La3 O16 2.466684 1_555
La3 O18 2.477675 1_555
La3 O28 2.493598 1_445
La3 O3 2.530075 1_555
La3 O24 2.544788 1_455
La3 O8 2.552390 1_455
La3 O25 2.553976 1_555
La4 O15 2.466684 1_555
La4 O17 2.477675 1_555
La4 O27 2.493598 1_544
La4 O4 2.530075 1_555
La4 O23 2.544788 1_545
La4 O6 2.552390 1_545
La4 O24 2.553976 1_555
La5 O17 2.466684 1_555
La5 O16 2.477675 1_555
La5 O29 2.493598 1_656
La5 O2 2.530075 1_555
La5 O22 2.544788 1_556
La5 O10 2.552390 1_556
La5 O20 2.553976 1_555
La6 O13 2.651783 1_455
La6 O27 2.651783 1_544
La6 O29 2.651783 1_545
La6 O26 2.651783 1_454
La6 O12 2.651783 1_554
La6 O28 2.651783 1_445
La6 O3 2.670192 1_555
La6 O0 2.670192 1_444
La6 O4 2.670192 1_555
La6 O1 2.670192 1_444
La6 O5 2.670192 1_555
La6 O2 2.670192 1_444
Mo0 O6 1.810408 1_545
Mo0 O19 1.858410 1_545
Mo0 O25 1.859946 1_655
Mo0 O26 1.969336 1_555
Mo0 O1 2.076130 1_545
Mo0 O12 2.235524 1_655
Mo1 O7 1.810408 1_554
Mo1 O18 1.858410 1_554
Mo1 O24 1.859946 1_565
Mo1 O28 1.969336 1_555
Mo1 O2 2.076130 1_554
Mo1 O13 2.235524 1_565
Mo2 O8 1.810408 1_455
Mo2 O17 1.858410 1_455
Mo2 O23 1.859946 1_556
Mo2 O27 1.969336 1_555
Mo2 O0 2.076130 1_455
Mo2 O29 2.235524 1_556
Mo3 O9 1.810408 1_565
Mo3 O16 1.858410 1_565
Mo3 O22 1.859946 1_455
Mo3 O29 1.969336 1_555
Mo3 O4 2.076130 1_565
Mo3 O28 2.235524 1_455
Mo4 O10 1.810408 1_556
Mo4 O15 1.858410 1_556
Mo4 O21 1.859946 1_545
Mo4 O12 1.969336 1_555
Mo4 O5 2.076130 1_556
Mo4 O27 2.235524 1_545
Mo5 O11 1.810408 1_655
Mo5 O14 1.858410 1_655
Mo5 O20 1.859946 1_554
Mo5 O13 1.969336 1_555
Mo5 O3 2.076130 1_655
Mo5 O26 2.235524 1_554
Mo6 O3 2.161930 1_555
Mo6 O0 2.161930 1_555
Mo6 O4 2.161930 1_555
Mo6 O1 2.161930 1_555
Mo6 O5 2.161930 1_555
Mo6 O2 2.161930 1_555
