# generated using pymatgen
data_Ca2TaSnO6
_symmetry_space_group_name_H-M   'P 1'
_cell_length_a   7.98698900
_cell_length_b   5.66943600
_cell_length_c   5.90241954
_cell_angle_alpha   89.68440866
_cell_angle_beta   90.00000000
_cell_angle_gamma   90.00000000
_symmetry_Int_Tables_number   1
_chemical_formula_structural   Ca2TaSnO6
_chemical_formula_sum   'Ca4 Ta2 Sn2 O12'
_cell_volume   267.26767193
_cell_formula_units_Z   2
loop_
 _symmetry_equiv_pos_site_id
 _symmetry_equiv_pos_as_xyz
  1  'x, y, z'
loop_
 _atom_site_type_symbol
 _atom_site_label
 _atom_site_symmetry_multiplicity
 _atom_site_fract_x
 _atom_site_fract_y
 _atom_site_fract_z
 _atom_site_occupancy
  Ca  Ca0  1  0.75000000  0.98929600  0.05111500  1
  Ca  Ca1  1  0.75000000  0.51312700  0.55716200  1
  Ca  Ca2  1  0.25000000  0.48687300  0.44283800  1
  Ca  Ca3  1  0.25000000  0.01070400  0.94888500  1
  Ta  Ta0  1  0.00000000  0.00000000  0.50000000  1
  Ta  Ta1  1  0.50000000  0.00000000  0.50000000  1
  Sn  Sn0  1  0.00000000  0.50000000  0.00000000  1
  Sn  Sn1  1  0.50000000  0.50000000  0.00000000  1
  O  O0  1  0.44204000  0.16947200  0.21339000  1
  O  O1  1  0.55644600  0.71076300  0.32528100  1
  O  O2  1  0.55796000  0.83052800  0.78661000  1
  O  O3  1  0.05644600  0.28923700  0.67471900  1
  O  O4  1  0.25000000  0.89549600  0.54066900  1
  O  O5  1  0.44355400  0.28923700  0.67471900  1
  O  O6  1  0.94355400  0.71076300  0.32528100  1
  O  O7  1  0.05796000  0.16947200  0.21339000  1
  O  O8  1  0.75000000  0.39214600  0.95653600  1
  O  O9  1  0.94204000  0.83052800  0.78661000  1
  O  O10  1  0.25000000  0.60785400  0.04346400  1
  O  O11  1  0.75000000  0.10450400  0.45933100  1
loop_
_geom_bond_atom_site_label_1
_geom_bond_atom_site_label_2
_geom_bond_distance
_geom_bond_site_symmetry_2
Ca0 O8 2.348178 1_564
Ca0 O2 2.369751 1_554
Ca0 O9 2.369751 1_554
Ca0 O11 2.499894 1_565
Ca0 O6 2.733870 1_555
Ca0 O1 2.733870 1_555
Ca0 O0 2.832249 1_565
Ca0 O7 2.832249 1_665
Ca1 O6 2.345564 1_555
Ca1 O1 2.345564 1_555
Ca1 O11 2.390627 1_555
Ca1 O8 2.451403 1_555
Ca1 O2 2.729785 1_555
Ca1 O9 2.729785 1_555
Ca1 O3 2.841409 1_655
Ca1 O5 2.841409 1_555
Ca2 O5 2.345564 1_555
Ca2 O3 2.345564 1_555
Ca2 O4 2.390627 1_555
Ca2 O10 2.451403 1_555
Ca2 O0 2.729785 1_555
Ca2 O7 2.729785 1_555
Ca2 O6 2.841409 1_455
Ca2 O1 2.841409 1_555
Ca3 O10 2.348178 1_546
Ca3 O0 2.369751 1_556
Ca3 O7 2.369751 1_556
Ca3 O4 2.499894 1_545
Ca3 O5 2.733870 1_555
Ca3 O3 2.733870 1_555
Ca3 O9 2.832249 1_445
Ca3 O2 2.832249 1_545
O0 Ta1 1.995338 1_555
O0 Sn1 2.299176 1_555
O1 Ta1 1.993581 1_565
O1 Sn1 2.311388 1_555
O2 Ta1 1.995338 1_565
O2 Sn1 2.299176 1_556
O3 Ta0 1.993581 1_555
O3 Sn0 2.311388 1_556
O4 Ta0 2.096207 1_565
O4 Ta1 2.096207 1_565
O5 Ta1 1.993581 1_555
O5 Sn1 2.311388 1_556
O6 Ta0 1.993581 1_665
O6 Sn0 2.311388 1_655
O7 Ta0 1.995338 1_555
O7 Sn0 2.299176 1_555
O8 Sn0 2.104386 1_656
O8 Sn1 2.104386 1_556
O9 Ta0 1.995338 1_665
O9 Sn0 2.299176 1_656
O10 Sn1 2.104386 1_555
O10 Sn0 2.104386 1_555
O11 Ta0 2.096207 1_655
O11 Ta1 2.096207 1_555
