# generated using pymatgen
data_Ba36Al9Sn23
_symmetry_space_group_name_H-M   'P 1'
_cell_length_a   14.10308868
_cell_length_b   14.10308868
_cell_length_c   13.10981800
_cell_angle_alpha   90.00000000
_cell_angle_beta   90.00000000
_cell_angle_gamma   90.13716095
_symmetry_Int_Tables_number   1
_chemical_formula_structural   Ba36Al9Sn23
_chemical_formula_sum   'Ba36 Al9 Sn23'
_cell_volume   2607.49744669
_cell_formula_units_Z   1
loop_
 _symmetry_equiv_pos_site_id
 _symmetry_equiv_pos_as_xyz
  1  'x, y, z'
loop_
 _atom_site_type_symbol
 _atom_site_label
 _atom_site_symmetry_multiplicity
 _atom_site_fract_x
 _atom_site_fract_y
 _atom_site_fract_z
 _atom_site_occupancy
  Ba  Ba0  1  0.27585000  0.07521700  0.75019000  1
  Ba  Ba1  1  0.72480400  0.92531900  0.74955300  1
  Ba  Ba2  1  0.22430000  0.57538200  0.74937600  1
  Ba  Ba3  1  0.77557200  0.42437400  0.74891900  1
  Ba  Ba4  1  0.42437400  0.77557200  0.74891900  1
  Ba  Ba5  1  0.57538200  0.22430000  0.74937600  1
  Ba  Ba6  1  0.92531900  0.72480400  0.74955300  1
  Ba  Ba7  1  0.07521700  0.27585000  0.75019000  1
  Ba  Ba8  1  0.72480400  0.92531900  0.25044700  1
  Ba  Ba9  1  0.27585000  0.07521700  0.24981000  1
  Ba  Ba10  1  0.77557200  0.42437400  0.25108100  1
  Ba  Ba11  1  0.22430000  0.57538200  0.25062400  1
  Ba  Ba12  1  0.57538200  0.22430000  0.25062400  1
  Ba  Ba13  1  0.42437400  0.77557200  0.25108100  1
  Ba  Ba14  1  0.07521700  0.27585000  0.24981000  1
  Ba  Ba15  1  0.92531900  0.72480400  0.25044700  1
  Ba  Ba16  1  0.39149200  0.20324500  0.00000000  1
  Ba  Ba17  1  0.60833200  0.79660900  0.00000000  1
  Ba  Ba18  1  0.10902700  0.70357900  0.00000000  1
  Ba  Ba19  1  0.89157300  0.29655200  0.00000000  1
  Ba  Ba20  1  0.29655200  0.89157300  0.00000000  1
  Ba  Ba21  1  0.70357900  0.10902700  0.00000000  1
  Ba  Ba22  1  0.79660900  0.60833200  0.00000000  1
  Ba  Ba23  1  0.20324500  0.39149200  0.00000000  1
  Ba  Ba24  1  0.40671700  0.21301900  0.50000000  1
  Ba  Ba25  1  0.59246200  0.78643200  0.50000000  1
  Ba  Ba26  1  0.09268200  0.71394100  0.50000000  1
  Ba  Ba27  1  0.90693400  0.28621400  0.50000000  1
  Ba  Ba28  1  0.28621400  0.90693400  0.50000000  1
  Ba  Ba29  1  0.71394100  0.09268200  0.50000000  1
  Ba  Ba30  1  0.78643200  0.59246200  0.50000000  1
  Ba  Ba31  1  0.21301900  0.40671700  0.50000000  1
  Ba  Ba32  1  0.00039500  0.00039500  0.64857100  1
  Ba  Ba33  1  0.49997400  0.49997400  0.64800200  1
  Ba  Ba34  1  0.00039500  0.00039500  0.35142900  1
  Ba  Ba35  1  0.49997400  0.49997400  0.35199800  1
  Al  Al0  1  0.93502500  0.06967400  0.89923000  1
  Al  Al1  1  0.06967400  0.93502500  0.89923000  1
  Al  Al2  1  0.56713600  0.56713600  0.89826100  1
  Al  Al3  1  0.43290200  0.43290200  0.89834600  1
  Al  Al4  1  0.06967400  0.93502500  0.10077000  1
  Al  Al5  1  0.93502500  0.06967400  0.10077000  1
  Al  Al6  1  0.43290200  0.43290200  0.10165400  1
  Al  Al7  1  0.56713600  0.56713600  0.10173900  1
  Al  Al8  1  0.11565800  0.11565800  0.00000000  1
  Sn  Sn0  1  0.83110200  0.16793100  0.75581100  1
  Sn  Sn1  1  0.16793100  0.83110200  0.75581100  1
  Sn  Sn2  1  0.66897200  0.66897200  0.75598800  1
  Sn  Sn3  1  0.33148300  0.33148300  0.75593600  1
  Sn  Sn4  1  0.16793100  0.83110200  0.24418900  1
  Sn  Sn5  1  0.83110200  0.16793100  0.24418900  1
  Sn  Sn6  1  0.33148300  0.33148300  0.24406400  1
  Sn  Sn7  1  0.66897200  0.66897200  0.24401200  1
  Sn  Sn8  1  0.34981900  0.65036800  0.50000000  1
  Sn  Sn9  1  0.65036800  0.34981900  0.50000000  1
  Sn  Sn10  1  0.15051300  0.15051300  0.50000000  1
  Sn  Sn11  1  0.84952300  0.84952300  0.50000000  1
  Sn  Sn12  1  0.49991700  0.99990200  0.62730900  1
  Sn  Sn13  1  0.99990200  0.49991700  0.62730900  1
  Sn  Sn14  1  0.49991700  0.99990200  0.37269100  1
  Sn  Sn15  1  0.99990200  0.49991700  0.37269100  1
  Sn  Sn16  1  0.50013500  0.99999900  0.87018200  1
  Sn  Sn17  1  0.99999900  0.50013500  0.87018200  1
  Sn  Sn18  1  0.50013500  0.99999900  0.12981800  1
  Sn  Sn19  1  0.99999900  0.50013500  0.12981800  1
  Sn  Sn20  1  0.87563700  0.87563700  0.00000000  1
  Sn  Sn21  1  0.37457000  0.62437300  0.00000000  1
  Sn  Sn22  1  0.62437300  0.37457000  0.00000000  1
loop_
_geom_bond_atom_site_label_1
_geom_bond_atom_site_label_2
_geom_bond_distance
_geom_bond_site_symmetry_2
Ba0 Sn16 3.690692 1_545
Ba0 Sn3 3.697258 1_555
Ba0 Sn12 3.704763 1_545
Ba0 Sn1 3.761583 1_545
Ba0 Sn10 3.875464 1_555
Ba0 Ba7 4.006368 1_555
Ba0 Ba28 4.051378 1_545
Ba0 Ba16 4.078150 1_556
Ba0 Ba20 4.185938 1_546
Ba0 Ba24 4.233692 1_555
Ba0 Ba32 4.237930 1_555
Ba1 Sn16 3.696716 1_555
Ba1 Sn2 3.699159 1_555
Ba1 Sn12 3.708063 1_555
Ba1 Sn0 3.733197 1_565
Ba1 Sn11 3.866370 1_555
Ba1 Sn20 3.975331 1_556
Ba1 Ba6 4.004011 1_555
Ba1 Ba29 4.037290 1_565
Ba1 Ba17 4.093781 1_556
Ba1 Ba21 4.193564 1_566
Ba1 Ba32 4.237956 1_665
Ba1 Ba25 4.243352 1_555
Ba2 Sn17 3.691213 1_455
Ba2 Sn1 3.695843 1_555
Ba2 Sn13 3.700382 1_455
Ba2 Sn3 3.761515 1_555
Ba2 Sn8 3.864091 1_555
Ba2 Sn21 3.969518 1_556
Ba2 Ba4 3.986813 1_555
Ba2 Ba31 4.045968 1_555
Ba2 Ba23 4.195914 1_556
Ba2 Ba26 4.239059 1_555
Ba2 Ba33 4.246462 1_555
Ba3 Sn13 3.697290 1_555
Ba3 Sn17 3.697382 1_555
Ba3 Sn0 3.703392 1_555
Ba3 Sn2 3.767393 1_555
Ba3 Sn9 3.855334 1_555
Ba3 Sn22 3.983466 1_556
Ba3 Ba5 3.986813 1_555
Ba3 Ba30 4.036123 1_555
Ba3 Ba33 4.244294 1_555
Ba4 Sn12 3.697290 1_555
Ba4 Sn16 3.697382 1_555
Ba4 Sn1 3.703392 1_555
Ba4 Sn2 3.767393 1_555
Ba4 Sn8 3.855334 1_555
Ba4 Sn21 3.983466 1_556
Ba5 Sn16 3.691213 1_545
Ba5 Sn0 3.695843 1_555
Ba5 Sn12 3.700382 1_545
Ba5 Sn3 3.761515 1_555
Ba5 Sn9 3.864091 1_555
Ba5 Sn22 3.969518 1_556
Ba6 Sn17 3.696716 1_555
Ba6 Sn2 3.699159 1_555
Ba6 Sn13 3.708063 1_555
Ba6 Sn1 3.733197 1_655
Ba6 Sn11 3.866370 1_555
Ba6 Sn20 3.975331 1_556
Ba7 Sn17 3.690692 1_455
Ba7 Sn3 3.697258 1_555
Ba7 Sn13 3.704763 1_455
Ba7 Sn0 3.761583 1_455
Ba7 Sn10 3.875464 1_555
Ba8 Sn18 3.696716 1_555
Ba8 Sn7 3.699159 1_555
Ba8 Sn14 3.708063 1_555
Ba8 Sn5 3.733197 1_565
Ba8 Sn11 3.866370 1_555
Ba8 Sn20 3.975331 1_555
Ba9 Sn18 3.690692 1_545
Ba9 Sn6 3.697258 1_555
Ba9 Sn14 3.704763 1_545
Ba9 Sn4 3.761583 1_545
Ba9 Sn10 3.875464 1_555
Ba10 Sn15 3.697290 1_555
Ba10 Sn19 3.697382 1_555
Ba10 Sn5 3.703392 1_555
Ba10 Sn7 3.767393 1_555
Ba10 Sn9 3.855334 1_555
Ba10 Sn22 3.983466 1_555
Ba10 Ba12 3.986813 1_555
Ba10 Ba30 4.036123 1_555
Ba10 Ba19 4.095730 1_555
Ba10 Ba22 4.201182 1_555
Ba10 Ba27 4.230254 1_555
Ba10 Ba35 4.244294 1_555
Ba11 Sn19 3.691213 1_455
Ba11 Sn4 3.695843 1_555
Ba11 Sn15 3.700382 1_455
Ba11 Sn6 3.761515 1_555
Ba11 Sn8 3.864091 1_555
Ba11 Sn21 3.969518 1_555
Ba11 Ba13 3.986813 1_555
Ba11 Ba31 4.045968 1_555
Ba11 Ba18 4.089151 1_555
Ba11 Ba23 4.195914 1_555
Ba11 Ba26 4.239059 1_555
Ba11 Ba35 4.246462 1_555
Ba12 Sn18 3.691213 1_545
Ba12 Sn5 3.695843 1_555
Ba12 Sn14 3.700382 1_545
Ba12 Sn6 3.761515 1_555
Ba12 Sn9 3.864091 1_555
Ba12 Sn22 3.969518 1_555
Ba12 Ba24 4.045968 1_555
Ba12 Ba21 4.089151 1_555
Ba12 Ba16 4.195914 1_555
Ba12 Ba29 4.239059 1_555
Ba12 Ba35 4.246462 1_555
Ba13 Sn14 3.697290 1_555
Ba13 Sn18 3.697382 1_555
Ba13 Sn4 3.703392 1_555
Ba13 Sn7 3.767393 1_555
Ba13 Sn8 3.855334 1_555
Ba13 Sn21 3.983466 1_555
Ba13 Ba25 4.036123 1_555
Ba13 Ba20 4.095730 1_555
Ba13 Ba17 4.201182 1_555
Ba13 Ba28 4.230254 1_555
Ba13 Ba35 4.244294 1_555
Ba14 Sn19 3.690692 1_455
Ba14 Sn6 3.697258 1_555
Ba14 Sn15 3.704763 1_455
Ba14 Sn5 3.761583 1_455
Ba14 Sn10 3.875464 1_555
Ba14 Ba9 4.006368 1_555
Ba14 Ba27 4.051378 1_455
Ba14 Ba23 4.078150 1_555
Ba14 Ba19 4.185938 1_455
Ba14 Ba31 4.233692 1_555
Ba14 Ba34 4.237930 1_555
Ba15 Sn19 3.696716 1_555
Ba15 Sn7 3.699159 1_555
Ba15 Sn15 3.708063 1_555
Ba15 Sn4 3.733197 1_655
Ba15 Sn11 3.866370 1_555
Ba15 Sn20 3.975331 1_555
Ba15 Ba8 4.004011 1_555
Ba15 Ba26 4.037290 1_655
Ba15 Ba22 4.093781 1_555
Ba15 Ba18 4.193564 1_655
Ba15 Ba34 4.237956 1_665
Ba15 Ba30 4.243352 1_555
Ba16 Sn18 3.671693 1_545
Ba16 Sn16 3.671693 1_544
Ba16 Ba23 3.759036 1_555
Ba16 Sn6 3.772545 1_555
Ba16 Sn3 3.772545 1_554
Ba16 Sn22 4.072712 1_555
Ba16 Ba9 4.078150 1_555
Ba16 Ba5 4.195914 1_554
Ba16 Ba20 4.591879 1_545
Ba16 Ba21 4.600637 1_555
Ba17 Sn18 3.670650 1_555
Ba17 Sn16 3.670650 1_554
Ba17 Ba22 3.759635 1_555
Ba17 Sn7 3.769924 1_555
Ba17 Sn2 3.769924 1_554
Ba17 Sn20 3.928571 1_555
Ba17 Sn21 4.090313 1_555
Ba17 Ba8 4.093781 1_555
Ba17 Ba4 4.201182 1_554
Ba17 Ba20 4.599568 1_555
Ba18 Sn17 3.670404 1_454
Ba18 Sn19 3.670404 1_455
Ba18 Ba20 3.740340 1_555
Ba18 Sn1 3.763721 1_554
Ba18 Sn4 3.763721 1_555
Ba18 Sn21 3.910585 1_555
Ba18 Ba2 4.089151 1_554
Ba18 Sn20 4.093957 1_455
Ba18 Ba6 4.193564 1_454
Ba18 Ba23 4.600637 1_555
Ba19 Sn17 3.668403 1_554
Ba19 Sn19 3.668403 1_555
Ba19 Ba21 3.740340 1_555
Ba19 Sn0 3.776041 1_554
Ba19 Sn5 3.776041 1_555
Ba19 Sn22 3.928222 1_555
Ba19 Ba3 4.095730 1_554
Ba19 Ba7 4.185938 1_654
Ba19 Ba23 4.591879 1_655
Ba19 Ba22 4.599568 1_555
Ba20 Sn18 3.668403 1_555
Ba20 Sn16 3.668403 1_554
Ba20 Sn4 3.776041 1_555
Ba20 Sn1 3.776041 1_554
Ba20 Sn21 3.928222 1_555
Ba20 Ba4 4.095730 1_554
Ba20 Ba9 4.185938 1_565
Ba21 Sn18 3.670404 1_545
Ba21 Sn16 3.670404 1_544
Ba21 Sn0 3.763721 1_554
Ba21 Sn5 3.763721 1_555
Ba21 Sn22 3.910585 1_555
Ba21 Ba5 4.089151 1_554
Ba21 Sn20 4.093957 1_545
Ba21 Ba8 4.193564 1_545
Ba22 Sn17 3.670650 1_554
Ba22 Sn19 3.670650 1_555
Ba22 Sn7 3.769924 1_555
Ba22 Sn2 3.769924 1_554
Ba22 Sn20 3.928571 1_555
Ba22 Sn22 4.090313 1_555
Ba22 Ba6 4.093781 1_554
Ba22 Ba3 4.201182 1_554
Ba23 Sn19 3.671693 1_455
Ba23 Sn17 3.671693 1_454
Ba23 Sn6 3.772545 1_555
Ba23 Sn3 3.772545 1_554
Ba23 Sn21 4.072712 1_555
Ba23 Ba7 4.078150 1_554
Ba24 Sn12 3.683180 1_545
Ba24 Sn14 3.683180 1_545
Ba24 Sn10 3.717196 1_555
Ba24 Ba31 3.867885 1_555
Ba24 Sn3 3.896589 1_555
Ba24 Sn6 3.896589 1_555
Ba24 Sn9 3.936770 1_555
Ba24 Ba5 4.045968 1_555
Ba24 Ba9 4.233692 1_555
Ba25 Sn14 3.683947 1_555
Ba25 Sn12 3.683947 1_555
Ba25 Sn11 3.730878 1_555
Ba25 Ba30 3.873317 1_555
Ba25 Sn2 3.896082 1_555
Ba25 Sn7 3.896082 1_555
Ba25 Sn8 3.919313 1_555
Ba25 Ba4 4.036123 1_555
Ba25 Ba8 4.243352 1_555
Ba26 Sn13 3.686395 1_455
Ba26 Sn15 3.686395 1_455
Ba26 Sn8 3.737697 1_555
Ba26 Ba28 3.849965 1_555
Ba26 Sn1 3.885217 1_555
Ba26 Sn4 3.885217 1_555
Ba26 Sn11 3.930352 1_455
Ba26 Ba6 4.037290 1_455
Ba27 Sn13 3.683631 1_555
Ba27 Sn15 3.683631 1_555
Ba27 Sn9 3.729989 1_555
Ba27 Ba29 3.849965 1_555
Ba27 Sn0 3.894205 1_555
Ba27 Sn5 3.894205 1_555
Ba27 Sn10 3.936347 1_655
Ba27 Ba7 4.051378 1_655
Ba27 Ba3 4.230254 1_555
Ba28 Sn12 3.683631 1_555
Ba28 Sn14 3.683631 1_555
Ba28 Sn8 3.729989 1_555
Ba28 Sn4 3.894205 1_555
Ba28 Sn1 3.894205 1_555
Ba28 Sn10 3.936347 1_565
Ba28 Ba9 4.051378 1_565
Ba28 Ba4 4.230254 1_555
Ba29 Sn14 3.686395 1_545
Ba29 Sn12 3.686395 1_545
Ba29 Sn9 3.737697 1_555
Ba29 Sn5 3.885217 1_555
Ba29 Sn0 3.885217 1_555
Ba29 Sn11 3.930352 1_545
Ba29 Ba8 4.037290 1_545
Ba29 Ba5 4.239059 1_555
Ba30 Sn15 3.683947 1_555
Ba30 Sn13 3.683947 1_555
Ba30 Sn11 3.730878 1_555
Ba30 Sn2 3.896082 1_555
Ba30 Sn7 3.896082 1_555
Ba30 Sn9 3.919313 1_555
Ba30 Ba6 4.243352 1_555
Ba31 Sn15 3.683180 1_455
Ba31 Sn13 3.683180 1_455
Ba31 Sn10 3.717196 1_555
Ba31 Sn3 3.896589 1_555
Ba31 Sn6 3.896589 1_555
Ba31 Sn8 3.936770 1_555
Ba31 Ba7 4.233692 1_555
Ba32 Sn10 3.568849 1_555
Ba32 Sn11 3.581445 1_445
Ba32 Sn1 3.645089 1_545
Ba32 Sn0 3.645089 1_455
Ba32 Ba34 3.895478 1_555
Ba32 Ba7 4.237930 1_555
Ba32 Ba6 4.237956 1_445
Ba33 Sn9 3.573423 1_555
Ba33 Sn8 3.573423 1_555
Ba33 Sn3 3.642560 1_555
Ba33 Sn2 3.652133 1_555
Ba33 Ba35 3.880559 1_555
Ba33 Ba4 4.244294 1_555
Ba33 Ba5 4.246462 1_555
Ba34 Sn10 3.568849 1_555
Ba34 Sn11 3.581445 1_445
Ba34 Sn4 3.645089 1_545
Ba34 Sn5 3.645089 1_455
Ba34 Ba9 4.237930 1_555
Ba34 Ba8 4.237956 1_445
Ba35 Sn9 3.573423 1_555
Ba35 Sn8 3.573423 1_555
Ba35 Sn6 3.642560 1_555
Ba35 Sn7 3.652133 1_555
Al0 Al5 2.642153 1_556
Al0 Al1 2.688757 1_645
Al0 Sn0 2.759201 1_555
Al0 Al8 2.940676 1_656
Al0 Sn20 3.150288 1_546
Al0 Ba19 3.516834 1_556
Al0 Ba32 3.550674 1_655
Al0 Ba21 3.565994 1_556
Al0 Ba7 4.019211 1_655
Al1 Al4 2.642153 1_556
Al1 Sn1 2.759201 1_555
Al1 Al8 2.940676 1_566
Al1 Sn20 3.150288 1_456
Al1 Ba20 3.516834 1_556
Al1 Ba32 3.550674 1_565
Al1 Ba18 3.565994 1_556
Al1 Ba0 4.019211 1_565
Al2 Al7 2.667560 1_556
Al2 Al3 2.674061 1_555
Al2 Sn2 2.755785 1_555
Al2 Sn22 3.133130 1_556
Al2 Sn21 3.133130 1_556
Al2 Ba33 3.543166 1_555
Al2 Ba22 3.546972 1_556
Al2 Ba17 3.546972 1_556
Al3 Al6 2.665331 1_556
Al3 Sn3 2.750894 1_555
Al3 Sn21 3.123332 1_556
Al3 Sn22 3.123332 1_556
Al3 Ba33 3.543521 1_555
Al3 Ba23 3.549409 1_556
Al3 Ba16 3.549409 1_556
Al3 Ba2 4.066335 1_555
Al3 Ba5 4.066335 1_555
Al4 Al5 2.688757 1_465
Al4 Sn4 2.759201 1_555
Al4 Al8 2.940676 1_565
Al4 Sn20 3.150288 1_455
Al4 Ba20 3.516834 1_555
Al4 Ba34 3.550674 1_565
Al4 Ba18 3.565994 1_555
Al4 Ba9 4.019211 1_565
Al5 Sn5 2.759201 1_555
Al5 Al8 2.940676 1_655
Al5 Sn20 3.150288 1_545
Al5 Ba19 3.516834 1_555
Al5 Ba34 3.550674 1_655
Al5 Ba21 3.565994 1_555
Al5 Ba14 4.019211 1_655
Al6 Al7 2.674061 1_555
Al6 Sn6 2.750894 1_555
Al6 Sn22 3.123332 1_555
Al6 Sn21 3.123332 1_555
Al6 Ba35 3.543521 1_555
Al6 Ba16 3.549409 1_555
Al6 Ba23 3.549409 1_555
Al6 Ba12 4.066335 1_555
Al6 Ba11 4.066335 1_555
Al7 Sn7 2.755785 1_555
Al7 Sn22 3.133130 1_555
Al7 Sn21 3.133130 1_555
Al7 Ba35 3.543166 1_555
Al7 Ba22 3.546972 1_555
Al7 Ba17 3.546972 1_555
Al8 Ba0 4.020055 1_554
Al8 Ba7 4.020055 1_554
Al8 Ba14 4.020055 1_555
Al8 Ba9 4.020055 1_555
Al8 Ba20 4.066261 1_545
Al8 Ba19 4.066261 1_455
Al8 Ba16 4.078700 1_555
Al8 Ba23 4.078700 1_555
Sn12 Sn16 3.184023 1_555
Sn12 Sn14 3.337996 1_555
Sn13 Sn17 3.184023 1_555
Sn13 Sn15 3.337996 1_555
Sn14 Sn18 3.184023 1_555
Sn15 Sn19 3.184023 1_555
Sn16 Sn18 3.403781 1_556
Sn17 Sn19 3.403781 1_556
