# generated using pymatgen
data_ZrU4O10
_symmetry_space_group_name_H-M   'P 1'
_cell_length_a   15.61194877
_cell_length_b   15.61194877
_cell_length_c   15.61194846
_cell_angle_alpha   13.99654849
_cell_angle_beta   13.99654849
_cell_angle_gamma   13.99654689
_symmetry_Int_Tables_number   1
_chemical_formula_structural   ZrU4O10
_chemical_formula_sum   'Zr1 U4 O10'
_cell_volume   193.72989731
_cell_formula_units_Z   1
loop_
 _symmetry_equiv_pos_site_id
 _symmetry_equiv_pos_as_xyz
  1  'x, y, z'
loop_
 _atom_site_type_symbol
 _atom_site_label
 _atom_site_symmetry_multiplicity
 _atom_site_fract_x
 _atom_site_fract_y
 _atom_site_fract_z
 _atom_site_occupancy
  Zr  Zr0  1  0.00000000  0.00000000  0.00000000  1
  U  U0  1  0.60139100  0.60139100  0.60139100  1
  U  U1  1  0.20042900  0.20042900  0.20042900  1
  U  U2  1  0.79957100  0.79957100  0.79957100  1
  U  U3  1  0.39860900  0.39860900  0.39860900  1
  O  O0  1  0.04789000  0.04789000  0.04789000  1
  O  O1  1  0.85018300  0.85018300  0.85018300  1
  O  O2  1  0.44930300  0.44930300  0.44930300  1
  O  O3  1  0.65180700  0.65180700  0.65180700  1
  O  O4  1  0.25119300  0.25119300  0.25119300  1
  O  O5  1  0.34819400  0.34819400  0.34819400  1
  O  O6  1  0.14981700  0.14981700  0.14981700  1
  O  O7  1  0.74880700  0.74880700  0.74880700  1
  O  O8  1  0.95211000  0.95211000  0.95211000  1
  O  O9  1  0.55069700  0.55069700  0.55069700  1
loop_
_geom_bond_atom_site_label_1
_geom_bond_atom_site_label_2
_geom_bond_distance
_geom_bond_site_symmetry_2
O0 Zr0 2.220660 1_555
O0 U3 2.339691 1_455
O0 U3 2.339691 1_545
O0 U3 2.339691 1_554
O1 U1 2.332225 1_566
O1 U1 2.332225 1_656
O1 U1 2.332225 1_665
O1 U2 2.346879 1_555
O2 U2 2.332568 1_545
O2 U2 2.332568 1_455
O2 U2 2.332568 1_554
O2 U3 2.350682 1_555
O3 Zr0 2.301960 1_566
O3 Zr0 2.301960 1_656
O3 Zr0 2.301960 1_665
O3 U0 2.337791 1_555
O4 U0 2.331477 1_545
O4 U0 2.331477 1_455
O4 U0 2.331477 1_554
O4 U1 2.353927 1_555
O5 Zr0 2.301974 1_565
O5 Zr0 2.301974 1_655
O5 Zr0 2.301974 1_556
O5 U3 2.337744 1_555
O6 U2 2.332225 1_544
O6 U2 2.332225 1_454
O6 U2 2.332225 1_445
O6 U1 2.346879 1_555
O7 U3 2.331477 1_565
O7 U3 2.331477 1_655
O7 U3 2.331477 1_556
O7 U2 2.353927 1_555
O8 Zr0 2.220660 1_666
O8 U0 2.339691 1_565
O8 U0 2.339691 1_655
O8 U0 2.339691 1_556
O9 U1 2.332568 1_565
O9 U1 2.332568 1_655
O9 U1 2.332568 1_556
O9 U0 2.350682 1_555
