# generated using pymatgen
data_H9Rh(NCl)3
_symmetry_space_group_name_H-M   'P 1'
_cell_length_a   5.58884144
_cell_length_b   7.04632052
_cell_length_c   9.87035600
_cell_angle_alpha   90.00000000
_cell_angle_beta   90.00000000
_cell_angle_gamma   93.28575848
_symmetry_Int_Tables_number   1
_chemical_formula_structural   H9Rh(NCl)3
_chemical_formula_sum   'H18 Rh2 N6 Cl6'
_cell_volume   388.06321053
_cell_formula_units_Z   2
loop_
 _symmetry_equiv_pos_site_id
 _symmetry_equiv_pos_as_xyz
  1  'x, y, z'
loop_
 _atom_site_type_symbol
 _atom_site_label
 _atom_site_symmetry_multiplicity
 _atom_site_fract_x
 _atom_site_fract_y
 _atom_site_fract_z
 _atom_site_occupancy
  H  H0  1  0.08691800  0.15535800  0.38850400  1
  H  H1  1  0.91308200  0.84464200  0.88850400  1
  H  H2  1  0.91308200  0.84464200  0.61149600  1
  H  H3  1  0.08691800  0.15535800  0.11149600  1
  H  H4  1  0.32182000  0.16142500  0.49148600  1
  H  H5  1  0.67818000  0.83857500  0.99148600  1
  H  H6  1  0.67818000  0.83857500  0.50851400  1
  H  H7  1  0.32182000  0.16142500  0.00851400  1
  H  H8  1  0.25922800  0.96894300  0.39947100  1
  H  H9  1  0.74077200  0.03105700  0.89947100  1
  H  H10  1  0.74077200  0.03105700  0.60052900  1
  H  H11  1  0.25922800  0.96894300  0.10052900  1
  H  H12  1  0.38561300  0.55479000  0.33456600  1
  H  H13  1  0.61438700  0.44521000  0.83456600  1
  H  H14  1  0.61438700  0.44521000  0.66543400  1
  H  H15  1  0.38561300  0.55479000  0.16543400  1
  H  H16  1  0.14782400  0.46541000  0.25000000  1
  H  H17  1  0.85217600  0.53459000  0.75000000  1
  Rh  Rh0  1  0.49400400  0.22004000  0.25000000  1
  Rh  Rh1  1  0.50599600  0.77996000  0.75000000  1
  N  N0  1  0.26034600  0.11494100  0.39818700  1
  N  N1  1  0.73965400  0.88505900  0.89818700  1
  N  N2  1  0.73965400  0.88505900  0.60181300  1
  N  N3  1  0.26034600  0.11494100  0.10181300  1
  N  N4  1  0.33253600  0.47882600  0.25000000  1
  N  N5  1  0.66746400  0.52117400  0.75000000  1
  Cl  Cl0  1  0.66503100  0.91499200  0.25000000  1
  Cl  Cl1  1  0.33496900  0.08500800  0.75000000  1
  Cl  Cl2  1  0.75620800  0.34320400  0.42532400  1
  Cl  Cl3  1  0.24379200  0.65679600  0.92532400  1
  Cl  Cl4  1  0.24379200  0.65679600  0.57467600  1
  Cl  Cl5  1  0.75620800  0.34320400  0.07467600  1
loop_
_geom_bond_atom_site_label_1
_geom_bond_atom_site_label_2
_geom_bond_distance
_geom_bond_site_symmetry_2
H0 N0 1.030219 1_555
H1 N1 1.030219 1_555
H2 N2 1.030219 1_555
H3 N3 1.030219 1_555
H4 N0 1.029791 1_555
H5 N1 1.029791 1_555
H6 N2 1.029791 1_555
H7 N3 1.029791 1_555
H8 N0 1.028488 1_565
H9 N1 1.028488 1_545
H10 N2 1.028488 1_545
H11 N3 1.028488 1_565
H12 N4 1.026169 1_555
H13 N5 1.026169 1_555
H14 N5 1.026169 1_555
H15 N4 1.026169 1_555
H16 N4 1.031236 1_555
H17 N5 1.031236 1_555
N0 Rh0 2.069362 1_555
N1 Rh1 2.069362 1_555
N2 Rh1 2.069362 1_555
N3 Rh0 2.069362 1_555
N4 Rh0 2.080410 1_555
N5 Rh1 2.080410 1_555
Cl0 Rh0 2.401948 1_565
Cl1 Rh1 2.401948 1_545
Cl2 Rh0 2.397811 1_555
Cl3 Rh1 2.397811 1_555
Cl4 Rh1 2.397811 1_555
Cl5 Rh0 2.397811 1_555
