# generated using pymatgen
data_LiPrS2
_symmetry_space_group_name_H-M   'P 1'
_cell_length_a   7.01085323
_cell_length_b   7.01085323
_cell_length_c   7.01085323
_cell_angle_alpha   132.31498691
_cell_angle_beta   132.31498691
_cell_angle_gamma   69.73199198
_symmetry_Int_Tables_number   1
_chemical_formula_structural   LiPrS2
_chemical_formula_sum   'Li2 Pr2 S4'
_cell_volume   184.79521825
_cell_formula_units_Z   2
loop_
 _symmetry_equiv_pos_site_id
 _symmetry_equiv_pos_as_xyz
  1  'x, y, z'
loop_
 _atom_site_type_symbol
 _atom_site_label
 _atom_site_symmetry_multiplicity
 _atom_site_fract_x
 _atom_site_fract_y
 _atom_site_fract_z
 _atom_site_occupancy
  Li  Li0  1  0.25000000  0.75000000  0.50000000  1
  Li  Li1  1  0.50000000  0.50000000  0.00000000  1
  Pr  Pr0  1  -0.00000000  -0.00000000  0.00000000  1
  Pr  Pr1  1  0.75000000  0.25000000  0.50000000  1
  S  S0  1  0.50210265  0.00210265  0.50000000  1
  S  S1  1  0.99789735  0.49789735  0.50000000  1
  S  S2  1  0.75210265  0.75210265  -0.00000000  1
  S  S3  1  0.24789735  0.24789735  0.00000000  1
loop_
_geom_bond_atom_site_label_1
_geom_bond_atom_site_label_2
_geom_bond_distance
_geom_bond_site_symmetry_2
Li0 S3 2.834058 1_555
Li0 S3 2.834058 1_566
Li0 S2 2.834058 1_455
Li0 S2 2.834058 1_556
Li0 S1 2.900362 1_455
Li0 S0 2.900362 1_565
Li1 S1 2.834058 1_454
Li1 S1 2.834058 1_555
Li1 S0 2.834058 1_565
Li1 S0 2.834058 1_554
Li1 S2 2.900362 1_555
Li1 S3 2.900362 1_555
Pr0 S1 2.834058 1_455
Pr0 S0 2.834058 1_555
Pr0 S0 2.834058 1_454
Pr0 S1 2.834058 1_444
Pr0 S2 2.851982 1_445
Pr0 S3 2.851982 1_555
Pr1 S3 2.834058 1_555
Pr1 S2 2.834058 1_545
Pr1 S3 2.834058 1_656
Pr1 S2 2.834058 1_556
Pr1 S0 2.851982 1_555
Pr1 S1 2.851982 1_555
