# generated using pymatgen
data_Cu15Si4
_symmetry_space_group_name_H-M   'P 1'
_cell_length_a   8.32189780
_cell_length_b   8.32189693
_cell_length_c   8.32189748
_cell_angle_alpha   109.47122199
_cell_angle_beta   109.47121987
_cell_angle_gamma   109.47121660
_symmetry_Int_Tables_number   1
_chemical_formula_structural   Cu15Si4
_chemical_formula_sum   'Cu30 Si8'
_cell_volume   443.65481570
_cell_formula_units_Z   2
loop_
 _symmetry_equiv_pos_site_id
 _symmetry_equiv_pos_as_xyz
  1  'x, y, z'
loop_
 _atom_site_type_symbol
 _atom_site_label
 _atom_site_symmetry_multiplicity
 _atom_site_fract_x
 _atom_site_fract_y
 _atom_site_fract_z
 _atom_site_occupancy
  Cu  Cu0  1  0.25000000  0.62500000  0.37500000  1
  Cu  Cu1  1  0.37500000  0.25000000  0.62500000  1
  Cu  Cu2  1  0.12500000  0.75000000  0.87500000  1
  Cu  Cu3  1  0.87500000  0.12500000  0.75000000  1
  Cu  Cu4  1  0.62500000  0.37500000  0.25000000  1
  Cu  Cu5  1  0.75000000  0.87500000  0.12500000  1
  Cu  Cu6  1  0.12437296  0.07320591  0.27475795  1
  Cu  Cu7  1  0.92679409  0.70155103  0.05116505  1
  Cu  Cu8  1  0.15038698  0.87562704  0.44883495  1
  Cu  Cu9  1  0.44883495  0.15038698  0.87562704  1
  Cu  Cu10  1  0.72524205  0.34961302  0.79844897  1
  Cu  Cu11  1  0.79844897  0.72524205  0.34961302  1
  Cu  Cu12  1  0.70155103  0.05116505  0.92679409  1
  Cu  Cu13  1  0.84961302  0.22524205  0.29844897  1
  Cu  Cu14  1  0.55116505  0.20155103  0.42679409  1
  Cu  Cu15  1  0.65038698  0.94883495  0.37562704  1
  Cu  Cu16  1  0.22524205  0.29844897  0.84961302  1
  Cu  Cu17  1  0.42679409  0.55116505  0.20155103  1
  Cu  Cu18  1  0.94883495  0.37562704  0.65038698  1
  Cu  Cu19  1  0.27475795  0.12437296  0.07320591  1
  Cu  Cu20  1  0.07320591  0.27475795  0.12437296  1
  Cu  Cu21  1  0.29844897  0.84961302  0.22524205  1
  Cu  Cu22  1  0.20155103  0.42679409  0.55116505  1
  Cu  Cu23  1  0.37562704  0.65038698  0.94883495  1
  Cu  Cu24  1  0.57320591  0.62437296  0.77475795  1
  Cu  Cu25  1  0.77475795  0.57320591  0.62437296  1
  Cu  Cu26  1  0.62437296  0.77475795  0.57320591  1
  Cu  Cu27  1  0.34961302  0.79844897  0.72524205  1
  Cu  Cu28  1  0.05116505  0.92679409  0.70155103  1
  Cu  Cu29  1  0.87562704  0.44883495  0.15038698  1
  Si  Si0  1  0.41150787  0.41150787  0.41150787  1
  Si  Si1  1  0.58849213  0.50000000  -0.00000000  1
  Si  Si2  1  0.00000000  0.58849213  0.50000000  1
  Si  Si3  1  0.50000000  0.00000000  0.58849213  1
  Si  Si4  1  0.00000000  0.08849213  0.50000000  1
  Si  Si5  1  0.50000000  0.00000000  0.08849213  1
  Si  Si6  1  0.08849213  0.50000000  0.00000000  1
  Si  Si7  1  0.91150787  0.91150787  0.91150787  1
loop_
_geom_bond_atom_site_label_1
_geom_bond_atom_site_label_2
_geom_bond_distance
_geom_bond_site_symmetry_2
Cu0 Cu8 2.460225 1_555
Cu0 Cu20 2.460235 1_555
Cu0 Cu27 2.460240 1_555
Cu0 Cu17 2.460245 1_555
Cu0 Cu21 2.568125 1_555
Cu0 Cu22 2.568126 1_555
Cu0 Cu29 2.568138 1_455
Cu0 Cu26 2.568139 1_555
Cu0 Si0 2.595162 1_555
Cu0 Si3 2.595163 1_565
Cu0 Si6 2.595163 1_555
Cu0 Si2 2.595163 1_555
Cu1 Cu9 2.460225 1_555
Cu1 Cu6 2.460235 1_555
Cu1 Cu10 2.460240 1_555
Cu1 Cu22 2.460245 1_555
Cu1 Cu16 2.568125 1_555
Cu1 Cu14 2.568126 1_555
Cu1 Cu8 2.568137 1_545
Cu1 Cu24 2.568138 1_555
Cu1 Si3 2.595162 1_555
Cu1 Si0 2.595163 1_555
Cu1 Si1 2.595163 1_556
Cu1 Si4 2.595163 1_555
Cu2 Cu23 2.460225 1_555
Cu2 Cu25 2.460235 1_455
Cu2 Cu21 2.460240 1_556
Cu2 Cu28 2.460245 1_555
Cu2 Cu27 2.568125 1_555
Cu2 Cu7 2.568126 1_456
Cu2 Si6 2.595162 1_556
Cu2 Si7 2.595162 1_455
Cu2 Si2 2.595163 1_555
Cu2 Si5 2.595163 1_566
Cu3 Si7 2.595162 1_545
Cu3 Si6 2.595163 1_656
Cu3 Si4 2.595163 1_655
Cu3 Si3 2.595163 1_555
Cu4 Cu9 2.568138 1_554
Cu4 Si5 2.595162 1_555
Cu4 Si1 2.595163 1_555
Cu4 Si0 2.595163 1_555
Cu4 Si2 2.595163 1_655
Cu5 Cu7 2.460245 1_555
Cu5 Cu6 2.568139 1_665
Cu5 Si1 2.595162 1_555
Cu5 Si5 2.595163 1_565
Cu5 Si7 2.595163 1_554
Cu5 Si4 2.595163 1_665
Cu6 Si4 2.413126 1_555
Cu6 Si7 2.493171 1_444
Cu6 Cu7 2.542654 1_445
Cu6 Cu8 2.542661 1_545
Cu6 Si0 2.548966 1_555
Cu7 Si7 2.413122 1_554
Cu7 Si6 2.493162 1_655
Cu7 Si1 2.548971 1_555
Cu7 Cu8 2.722955 1_655
Cu8 Si3 2.413112 1_565
Cu8 Si4 2.493182 1_565
Cu8 Si2 2.548959 1_555
Cu8 Cu9 2.988410 1_565
Cu9 Si1 2.413112 1_556
Cu9 Si5 2.493182 1_556
Cu9 Si3 2.548959 1_555
Cu10 Si3 2.413115 1_555
Cu10 Cu7 2.465996 1_556
Cu10 Cu29 2.465997 1_556
Cu10 Si6 2.493168 1_656
Cu10 Cu14 2.542654 1_555
Cu10 Cu18 2.542655 1_555
Cu10 Si1 2.548967 1_556
Cu10 Cu3 2.568125 1_555
Cu10 Cu25 2.722947 1_555
Cu10 Cu9 2.757664 1_555
Cu10 Cu12 2.988413 1_555
Cu10 Cu24 2.988436 1_555
Cu11 Si1 2.413115 1_555
Cu11 Cu4 2.460240 1_555
Cu11 Cu28 2.465997 1_655
Cu11 Cu8 2.465997 1_655
Cu11 Si4 2.493167 1_665
Cu11 Cu15 2.542654 1_555
Cu11 Cu17 2.542655 1_555
Cu11 Si2 2.548967 1_655
Cu11 Cu5 2.568125 1_555
Cu11 Cu26 2.722947 1_555
Cu11 Cu29 2.757664 1_555
Cu11 Cu7 2.988414 1_555
Cu11 Cu25 2.988437 1_555
Cu12 Si7 2.413122 1_545
Cu12 Cu3 2.460245 1_555
Cu12 Cu9 2.465996 1_555
Cu12 Cu27 2.465997 1_545
Cu12 Si5 2.493162 1_556
Cu12 Cu13 2.542654 1_556
Cu12 Cu20 2.542655 1_656
Cu12 Si3 2.548971 1_555
Cu12 Cu5 2.568126 1_546
Cu12 Cu29 2.722955 1_556
Cu12 Cu26 2.757691 1_545
Cu12 Cu24 2.988406 1_545
Cu13 Si5 2.413115 1_555
Cu13 Cu5 2.460240 1_545
Cu13 Cu18 2.465996 1_555
Cu13 Cu22 2.465997 1_655
Cu13 Si2 2.493167 1_655
Cu13 Cu29 2.542654 1_555
Cu13 Si4 2.548967 1_655
Cu13 Cu4 2.568125 1_555
Cu13 Cu20 2.722947 1_655
Cu13 Cu15 2.757664 1_545
Cu13 Cu14 2.988414 1_555
Cu13 Cu6 2.988437 1_655
Cu14 Si0 2.413122 1_555
Cu14 Cu4 2.460245 1_555
Cu14 Cu15 2.465996 1_545
Cu14 Cu21 2.465996 1_545
Cu14 Si3 2.493162 1_555
Cu14 Cu25 2.542654 1_555
Cu14 Si5 2.548971 1_555
Cu14 Cu18 2.722955 1_555
Cu14 Cu19 2.757692 1_555
Cu14 Cu6 2.988406 1_555
Cu15 Si4 2.413112 1_665
Cu15 Cu5 2.460225 1_555
Cu15 Cu21 2.465997 1_555
Cu15 Si3 2.493182 1_565
Cu15 Cu26 2.542661 1_555
Cu15 Si5 2.548959 1_565
Cu15 Cu3 2.568138 1_565
Cu15 Cu17 2.722955 1_555
Cu15 Cu18 2.988410 1_565
Cu15 Cu23 2.988410 1_554
Cu16 Si4 2.413115 1_555
Cu16 Cu3 2.460240 1_455
Cu16 Cu23 2.465996 1_555
Cu16 Cu17 2.465996 1_556
Cu16 Si1 2.493168 1_556
Cu16 Cu28 2.542654 1_545
Cu16 Cu9 2.542654 1_555
Cu16 Si6 2.548967 1_556
Cu16 Cu19 2.722947 1_556
Cu16 Cu18 2.757664 1_455
Cu16 Cu22 2.988413 1_555
Cu16 Cu20 2.988437 1_556
Cu17 Si0 2.413122 1_555
Cu17 Cu23 2.465996 1_554
Cu17 Si1 2.493162 1_555
Cu17 Cu26 2.542654 1_555
Cu17 Si6 2.548971 1_555
Cu17 Cu4 2.568126 1_555
Cu17 Cu20 2.757692 1_555
Cu17 Cu19 2.988406 1_555
Cu17 Cu21 2.988413 1_555
Cu18 Si6 2.413112 1_656
Cu18 Cu3 2.460225 1_555
Cu18 Cu22 2.465997 1_655
Cu18 Si2 2.493182 1_655
Cu18 Cu25 2.542661 1_555
Cu18 Si4 2.548959 1_655
Cu18 Cu2 2.568137 1_655
Cu18 Cu23 2.988411 1_655
Cu19 Si5 2.413126 1_555
Cu19 Cu4 2.460235 1_555
Cu19 Cu20 2.465997 1_555
Cu19 Cu6 2.465997 1_555
Cu19 Si7 2.493171 1_444
Cu19 Cu28 2.542655 1_544
Cu19 Cu9 2.542661 1_554
Cu19 Si0 2.548966 1_555
Cu19 Cu2 2.568138 1_544
Cu19 Cu21 2.988436 1_545
Cu20 Si6 2.413126 1_555
Cu20 Cu6 2.465997 1_555
Cu20 Si7 2.493170 1_444
Cu20 Cu29 2.542661 1_455
Cu20 Si0 2.548966 1_555
Cu20 Cu3 2.568139 1_454
Cu20 Cu22 2.988406 1_555
Cu21 Si6 2.413115 1_555
Cu21 Si3 2.493168 1_565
Cu21 Cu8 2.542655 1_555
Cu21 Cu7 2.542655 1_455
Cu21 Si5 2.548967 1_565
Cu21 Cu6 2.722947 1_565
Cu21 Cu23 2.757664 1_554
Cu22 Si0 2.413122 1_555
Cu22 Si2 2.493162 1_555
Cu22 Cu27 2.542654 1_555
Cu22 Cu24 2.542655 1_555
Cu22 Si4 2.548971 1_555
Cu22 Cu23 2.722955 1_555
Cu22 Cu6 2.757691 1_555
Cu23 Si5 2.413112 1_566
Cu23 Si1 2.493182 1_556
Cu23 Cu27 2.542654 1_555
Cu23 Cu24 2.542661 1_555
Cu23 Si6 2.548959 1_556
Cu23 Cu5 2.568138 1_556
Cu24 Si1 2.413126 1_556
Cu24 Cu5 2.460235 1_556
Cu24 Cu26 2.465997 1_555
Cu24 Cu25 2.465997 1_555
Cu24 Si0 2.493171 1_555
Cu24 Si7 2.548966 1_555
Cu24 Cu27 2.722947 1_555
Cu24 Cu7 2.757692 1_556
Cu25 Si2 2.413126 1_655
Cu25 Cu26 2.465997 1_555
Cu25 Si0 2.493171 1_555
Cu25 Si7 2.548966 1_555
Cu25 Cu4 2.568138 1_555
Cu25 Cu28 2.757692 1_655
Cu25 Cu7 2.988406 1_556
Cu26 Si3 2.413126 1_565
Cu26 Cu3 2.460235 1_565
Cu26 Si0 2.493170 1_555
Cu26 Si7 2.548966 1_555
Cu26 Cu28 2.988406 1_655
Cu26 Cu27 2.988437 1_555
Cu27 Si2 2.413115 1_555
Cu27 Cu9 2.465996 1_565
Cu27 Si5 2.493168 1_566
Cu27 Si3 2.548967 1_565
Cu27 Cu8 2.757664 1_555
Cu27 Cu28 2.988413 1_555
Cu28 Si7 2.413122 1_455
Cu28 Cu8 2.465996 1_555
Cu28 Si4 2.493162 1_565
Cu28 Si2 2.548971 1_555
Cu28 Cu3 2.568126 1_465
Cu28 Cu9 2.722955 1_565
Cu29 Si2 2.413112 1_655
Cu29 Cu4 2.460225 1_555
Cu29 Cu7 2.465996 1_555
Cu29 Si6 2.493182 1_655
Cu29 Si1 2.548959 1_555
Cu29 Cu8 2.988410 1_655
Cu29 Cu9 2.988411 1_554
