# generated using pymatgen
data_Cr3NiSb4
_symmetry_space_group_name_H-M   'P 1'
_cell_length_a   4.03759266
_cell_length_b   4.03759266
_cell_length_c   11.34339500
_cell_angle_alpha   90.00000000
_cell_angle_beta   90.00000000
_cell_angle_gamma   120.00001075
_symmetry_Int_Tables_number   1
_chemical_formula_structural   Cr3NiSb4
_chemical_formula_sum   'Cr3 Ni1 Sb4'
_cell_volume   160.14693956
_cell_formula_units_Z   1
loop_
 _symmetry_equiv_pos_site_id
 _symmetry_equiv_pos_as_xyz
  1  'x, y, z'
loop_
 _atom_site_type_symbol
 _atom_site_label
 _atom_site_symmetry_multiplicity
 _atom_site_fract_x
 _atom_site_fract_y
 _atom_site_fract_z
 _atom_site_occupancy
  Cr  Cr0  1  0.00000000  0.00000000  0.50000000  1
  Cr  Cr1  1  0.00000000  0.00000000  0.24372900  1
  Cr  Cr2  1  0.00000000  0.00000000  0.75627100  1
  Ni  Ni0  1  0.00000000  0.00000000  0.00000000  1
  Sb  Sb0  1  0.33333300  0.66666700  0.88796900  1
  Sb  Sb1  1  0.33333300  0.66666700  0.37342800  1
  Sb  Sb2  1  0.66666700  0.33333300  0.11203100  1
  Sb  Sb3  1  0.66666700  0.33333300  0.62657200  1
loop_
_geom_bond_atom_site_label_1
_geom_bond_atom_site_label_2
_geom_bond_distance
_geom_bond_site_symmetry_2
Cr0 Sb3 2.737780 1_455
Cr0 Sb1 2.737780 1_545
Cr0 Sb3 2.737782 1_555
Cr0 Sb1 2.737782 1_445
Cr0 Sb3 2.737782 1_445
Cr0 Sb1 2.737782 1_555
Cr1 Sb1 2.756547 1_545
Cr1 Sb1 2.756549 1_555
Cr1 Sb1 2.756549 1_445
Cr1 Ni0 2.764714 1_555
Cr1 Sb2 2.768716 1_455
Cr1 Sb2 2.768718 1_445
Cr1 Sb2 2.768718 1_555
Cr2 Sb3 2.756547 1_455
Cr2 Sb3 2.756549 1_445
Cr2 Sb3 2.756549 1_555
Cr2 Ni0 2.764714 1_556
Cr2 Sb0 2.768716 1_545
Cr2 Sb0 2.768718 1_555
Cr2 Sb0 2.768718 1_445
Ni0 Sb0 2.654996 1_544
Ni0 Sb2 2.654996 1_455
Ni0 Sb0 2.654999 1_554
Ni0 Sb2 2.654999 1_445
Ni0 Sb0 2.654999 1_444
Ni0 Sb2 2.654999 1_555
