# generated using pymatgen
data_BaSrSmWO6
_symmetry_space_group_name_H-M   'P 1'
_cell_length_a   8.55725462
_cell_length_b   8.46327734
_cell_length_c   8.56504339
_cell_angle_alpha   90.00000000
_cell_angle_beta   90.00000000
_cell_angle_gamma   90.00000000
_symmetry_Int_Tables_number   1
_chemical_formula_structural   BaSrSmWO6
_chemical_formula_sum   'Ba4 Sr4 Sm4 W4 O24'
_cell_volume   620.30116215
_cell_formula_units_Z   4
loop_
 _symmetry_equiv_pos_site_id
 _symmetry_equiv_pos_as_xyz
  1  'x, y, z'
loop_
 _atom_site_type_symbol
 _atom_site_label
 _atom_site_symmetry_multiplicity
 _atom_site_fract_x
 _atom_site_fract_y
 _atom_site_fract_z
 _atom_site_occupancy
  Ba  Ba0  1  0.00000000  -0.00000000  -0.00000000  1
  Ba  Ba1  1  0.50000000  0.50000000  0.50000000  1
  Ba  Ba2  1  0.50000000  0.00000000  0.50000000  1
  Ba  Ba3  1  0.00000000  0.50000000  -0.00000000  1
  Sr  Sr0  1  0.00000000  0.50000000  0.50000000  1
  Sr  Sr1  1  0.50000000  0.50000000  -0.00000000  1
  Sr  Sr2  1  0.50000000  0.00000000  -0.00000000  1
  Sr  Sr3  1  0.00000000  0.00000000  0.50000000  1
  Sm  Sm0  1  0.75000000  0.75000000  0.75000000  1
  Sm  Sm1  1  0.25000000  0.25000000  0.75000000  1
  Sm  Sm2  1  0.25000000  0.75000000  0.25000000  1
  Sm  Sm3  1  0.75000000  0.25000000  0.25000000  1
  W  W0  1  0.25000000  0.25000000  0.25000000  1
  W  W1  1  0.75000000  0.75000000  0.25000000  1
  W  W2  1  0.75000000  0.25000000  0.75000000  1
  W  W3  1  0.25000000  0.75000000  0.75000000  1
  O  O0  1  0.01685073  0.21372423  0.27986305  1
  O  O1  1  0.98314927  0.78627577  0.27986305  1
  O  O2  1  0.98314927  0.21372423  0.72013695  1
  O  O3  1  0.01685073  0.78627577  0.72013695  1
  O  O4  1  0.28862524  0.01937800  0.21847999  1
  O  O5  1  0.28862524  0.98062200  0.78152001  1
  O  O6  1  0.71137476  0.98062200  0.21847999  1
  O  O7  1  0.71137476  0.01937800  0.78152001  1
  O  O8  1  0.22411563  0.27681607  0.01494520  1
  O  O9  1  0.77588437  0.27681607  0.98505480  1
  O  O10  1  0.22411563  0.72318393  0.98505480  1
  O  O11  1  0.77588437  0.72318393  0.01494520  1
  O  O12  1  0.48314927  0.28627577  0.22013695  1
  O  O13  1  0.51685073  0.71372423  0.22013695  1
  O  O14  1  0.51685073  0.28627577  0.77986305  1
  O  O15  1  0.48314927  0.71372423  0.77986305  1
  O  O16  1  0.21137476  0.48062200  0.28152001  1
  O  O17  1  0.21137476  0.51937800  0.71847999  1
  O  O18  1  0.78862524  0.51937800  0.28152001  1
  O  O19  1  0.78862524  0.48062200  0.71847999  1
  O  O20  1  0.27588437  0.22318393  0.48505480  1
  O  O21  1  0.72411563  0.22318393  0.51494520  1
  O  O22  1  0.27588437  0.77681607  0.51494520  1
  O  O23  1  0.72411563  0.77681607  0.48505480  1
loop_
_geom_bond_atom_site_label_1
_geom_bond_atom_site_label_2
_geom_bond_distance
_geom_bond_site_symmetry_2
Ba0 O3 3.006389 1_544
Ba0 O1 3.006389 1_445
Ba0 O0 3.006389 1_555
Ba0 O2 3.006389 1_454
Ba0 O10 3.030342 1_544
Ba0 O8 3.030342 1_555
Ba0 O11 3.030342 1_445
Ba0 O9 3.030342 1_454
Ba0 O7 3.103020 1_454
Ba0 O5 3.103020 1_544
Ba0 O6 3.103020 1_445
Ba0 O4 3.103020 1_555
Ba1 O15 3.006389 1_555
Ba1 O13 3.006389 1_555
Ba1 O12 3.006389 1_555
Ba1 O14 3.006389 1_555
Ba1 O22 3.030342 1_555
Ba1 O20 3.030342 1_555
Ba1 O23 3.030342 1_555
Ba1 O21 3.030342 1_555
Ba1 O18 3.103020 1_555
Ba1 O16 3.103020 1_555
Ba1 O19 3.103020 1_555
Ba1 O17 3.103020 1_555
Ba2 O21 2.694850 1_555
Ba2 O23 2.694850 1_545
Ba2 O20 2.694850 1_555
Ba2 O22 2.694850 1_545
Ba2 O7 3.018716 1_555
Ba2 O4 3.018716 1_555
Ba2 O6 3.018716 1_545
Ba2 O5 3.018716 1_545
Ba3 O9 2.694850 1_454
Ba3 O8 2.694850 1_555
Ba3 O10 2.694850 1_554
Ba3 O11 2.694850 1_455
Ba3 O16 3.018716 1_555
Ba3 O18 3.018716 1_455
Ba3 O19 3.018716 1_454
Ba3 O17 3.018716 1_554
O0 W0 2.034742 1_555
O0 Sm3 2.318209 1_455
O0 Sr3 2.616796 1_555
O1 W1 2.034742 1_555
O1 Sm2 2.318209 1_655
O1 Sr3 2.616796 1_665
O2 W2 2.034742 1_555
O2 Sm1 2.318209 1_655
O2 Sr3 2.616796 1_655
O3 W3 2.034742 1_555
O3 Sm0 2.318209 1_455
O3 Sr3 2.616796 1_565
O4 W0 1.997930 1_555
O4 Sm2 2.319421 1_545
O4 Sr2 2.607746 1_555
O5 W3 1.997930 1_555
O5 Sm1 2.319421 1_565
O5 Sr2 2.607746 1_566
O6 W1 1.997930 1_555
O6 Sm3 2.319421 1_565
O6 Sr2 2.607746 1_565
O7 W2 1.997930 1_555
O7 Sm0 2.319421 1_545
O7 Sr2 2.607746 1_556
O8 W0 2.038078 1_555
O8 Sm1 2.291319 1_554
O8 Sr1 3.026160 1_555
O9 W2 2.038078 1_555
O9 Sm3 2.291319 1_556
O9 Sr1 3.026160 1_556
O10 W3 2.038078 1_555
O10 Sm2 2.291319 1_556
O10 Sr1 3.026160 1_556
O11 W1 2.038078 1_555
O11 Sm0 2.291319 1_554
O11 Sr1 3.026160 1_555
O12 W0 2.034742 1_555
O12 Sm3 2.318209 1_555
O12 Sr1 2.616796 1_555
O13 W1 2.034742 1_555
O13 Sm2 2.318209 1_555
O13 Sr1 2.616796 1_555
O14 W2 2.034742 1_555
O14 Sm1 2.318209 1_555
O14 Sr1 2.616796 1_556
O15 W3 2.034742 1_555
O15 Sm0 2.318209 1_555
O15 Sr1 2.616796 1_556
O16 W0 1.997930 1_555
O16 Sm2 2.319421 1_555
O16 Sr0 2.607746 1_555
O17 W3 1.997930 1_555
O17 Sm1 2.319421 1_555
O17 Sr0 2.607746 1_555
O18 W1 1.997930 1_555
O18 Sm3 2.319421 1_555
O18 Sr0 2.607746 1_655
O19 W2 1.997930 1_555
O19 Sm0 2.319421 1_555
O19 Sr0 2.607746 1_655
O20 W0 2.038078 1_555
O20 Sm1 2.291319 1_555
O20 Sr3 3.026160 1_555
O21 W2 2.038078 1_555
O21 Sm3 2.291319 1_555
O21 Sr3 3.026160 1_655
O22 W3 2.038078 1_555
O22 Sm2 2.291319 1_555
O22 Sr3 3.026160 1_565
O23 W1 2.038078 1_555
O23 Sm0 2.291319 1_555
O23 Sr3 3.026160 1_665
