# generated using pymatgen
data_K2Mg(CO3)2
_symmetry_space_group_name_H-M   'P 1'
_cell_length_a   5.20511638
_cell_length_b   5.20511638
_cell_length_c   6.72959647
_cell_angle_alpha   65.53840763
_cell_angle_beta   65.53840763
_cell_angle_gamma   60.28119767
_symmetry_Int_Tables_number   1
_chemical_formula_structural   K2Mg(CO3)2
_chemical_formula_sum   'K2 Mg1 C2 O6'
_cell_volume   139.01292885
_cell_formula_units_Z   1
loop_
 _symmetry_equiv_pos_site_id
 _symmetry_equiv_pos_as_xyz
  1  'x, y, z'
loop_
 _atom_site_type_symbol
 _atom_site_label
 _atom_site_symmetry_multiplicity
 _atom_site_fract_x
 _atom_site_fract_y
 _atom_site_fract_z
 _atom_site_occupancy
  K  K0  1  0.78429100  0.78429100  0.63804900  1
  K  K1  1  0.21570900  0.21570900  0.36195100  1
  Mg  Mg0  1  0.00000000  0.00000000  0.00000000  1
  C  C0  1  0.39625600  0.39625600  0.79197500  1
  C  C1  1  0.60374400  0.60374400  0.20802500  1
  O  O0  1  0.26180000  0.26180000  0.76548100  1
  O  O1  1  0.73820000  0.73820000  0.23451900  1
  O  O2  1  0.24843700  0.68103400  0.79963300  1
  O  O3  1  0.68103400  0.24843700  0.79963300  1
  O  O4  1  0.75156300  0.31896600  0.20036700  1
  O  O5  1  0.31896600  0.75156300  0.20036700  1
loop_
_geom_bond_atom_site_label_1
_geom_bond_atom_site_label_2
_geom_bond_distance
_geom_bond_site_symmetry_2
K0 O0 2.727838 1_655
K0 O0 2.727838 1_565
K0 O3 2.777094 1_565
K0 O2 2.777094 1_655
K0 O3 2.782332 1_555
K0 O2 2.782332 1_555
K0 O1 2.936958 1_555
K0 O5 3.099464 1_655
K0 O4 3.099464 1_565
K1 O1 2.727838 1_455
K1 O1 2.727838 1_545
K1 O5 2.777094 1_545
K1 O4 2.777094 1_455
K1 O4 2.782332 1_555
K1 O5 2.782332 1_555
K1 O0 2.936958 1_555
K1 O3 3.099464 1_455
K1 O2 3.099464 1_545
Mg0 O0 2.117462 1_554
Mg0 O1 2.117462 1_445
Mg0 O3 2.127933 1_454
Mg0 O2 2.127933 1_544
Mg0 O4 2.127933 1_455
Mg0 O5 2.127933 1_545
C0 O2 1.300579 1_555
C0 O3 1.300579 1_555
C0 O0 1.305261 1_555
C1 O4 1.300579 1_555
C1 O5 1.300579 1_555
C1 O1 1.305261 1_555
