# generated using pymatgen
data_NaSrNdWO6
_symmetry_space_group_name_H-M   'P 1'
_cell_length_a   8.40387917
_cell_length_b   8.39212389
_cell_length_c   8.43633063
_cell_angle_alpha   90.00000000
_cell_angle_beta   90.00000000
_cell_angle_gamma   90.00000000
_symmetry_Int_Tables_number   1
_chemical_formula_structural   NaSrNdWO6
_chemical_formula_sum   'Na4 Sr4 Nd4 W4 O24'
_cell_volume   594.98398764
_cell_formula_units_Z   4
loop_
 _symmetry_equiv_pos_site_id
 _symmetry_equiv_pos_as_xyz
  1  'x, y, z'
loop_
 _atom_site_type_symbol
 _atom_site_label
 _atom_site_symmetry_multiplicity
 _atom_site_fract_x
 _atom_site_fract_y
 _atom_site_fract_z
 _atom_site_occupancy
  Na  Na0  1  -0.00000000  -0.00000000  -0.00000000  1
  Na  Na1  1  0.50000000  0.50000000  0.50000000  1
  Na  Na2  1  -0.00000000  0.50000000  0.50000000  1
  Na  Na3  1  0.50000000  0.00000000  -0.00000000  1
  Sr  Sr0  1  0.50000000  -0.00000000  0.50000000  1
  Sr  Sr1  1  0.50000000  0.50000000  -0.00000000  1
  Sr  Sr2  1  -0.00000000  0.50000000  -0.00000000  1
  Sr  Sr3  1  -0.00000000  -0.00000000  0.50000000  1
  Nd  Nd0  1  0.75000000  0.75000000  0.75000000  1
  Nd  Nd1  1  0.25000000  0.25000000  0.75000000  1
  Nd  Nd2  1  0.25000000  0.75000000  0.25000000  1
  Nd  Nd3  1  0.75000000  0.25000000  0.25000000  1
  W  W0  1  0.25000000  0.25000000  0.25000000  1
  W  W1  1  0.75000000  0.75000000  0.25000000  1
  W  W2  1  0.75000000  0.25000000  0.75000000  1
  W  W3  1  0.25000000  0.75000000  0.75000000  1
  O  O0  1  0.02371103  0.20061597  0.27209199  1
  O  O1  1  0.97628897  0.79938403  0.27209199  1
  O  O2  1  0.97628897  0.20061597  0.72790801  1
  O  O3  1  0.02371103  0.79938403  0.72790801  1
  O  O4  1  0.29613989  0.02492066  0.21561876  1
  O  O5  1  0.29613989  0.97507934  0.78438124  1
  O  O6  1  0.70386011  0.97507934  0.21561876  1
  O  O7  1  0.70386011  0.02492066  0.78438124  1
  O  O8  1  0.22149818  0.29064144  0.02213457  1
  O  O9  1  0.77850182  0.29064144  0.97786543  1
  O  O10  1  0.22149818  0.70935856  0.97786543  1
  O  O11  1  0.77850182  0.70935856  0.02213457  1
  O  O12  1  0.47628897  0.29938403  0.22790801  1
  O  O13  1  0.52371103  0.70061597  0.22790801  1
  O  O14  1  0.52371103  0.29938403  0.77209199  1
  O  O15  1  0.47628897  0.70061597  0.77209199  1
  O  O16  1  0.20386011  0.47507934  0.28438124  1
  O  O17  1  0.20386011  0.52492066  0.71561876  1
  O  O18  1  0.79613989  0.52492066  0.28438124  1
  O  O19  1  0.79613989  0.47507934  0.71561876  1
  O  O20  1  0.27850182  0.20935856  0.47786543  1
  O  O21  1  0.72149818  0.20935856  0.52213457  1
  O  O22  1  0.27850182  0.79064144  0.52213457  1
  O  O23  1  0.72149818  0.79064144  0.47786543  1
loop_
_geom_bond_atom_site_label_1
_geom_bond_atom_site_label_2
_geom_bond_distance
_geom_bond_site_symmetry_2
Na0 O3 2.853651 1_544
Na0 O2 2.853651 1_454
Na0 O1 2.853651 1_445
Na0 O0 2.853651 1_555
Na1 O15 2.853651 1_555
Na1 O14 2.853651 1_555
Na1 O13 2.853651 1_555
Na1 O12 2.853651 1_555
Na2 O17 2.507533 1_555
Na2 O16 2.507533 1_555
Na2 O18 2.507533 1_455
Na2 O19 2.507533 1_455
Na3 O4 2.507533 1_555
Na3 O6 2.507533 1_545
Na3 O5 2.507533 1_544
Na3 O7 2.507533 1_554
Nd0 O11 2.333340 1_556
Nd0 O23 2.333340 1_555
Nd0 O15 2.344690 1_555
Nd0 O3 2.344690 1_655
Nd0 O19 2.357437 1_555
Nd0 O7 2.357437 1_565
Nd1 O8 2.333340 1_556
Nd1 O20 2.333340 1_555
Nd1 O14 2.344690 1_555
Nd1 O2 2.344690 1_455
Nd1 O5 2.357437 1_545
Nd1 O17 2.357437 1_555
Nd2 O22 2.333340 1_555
Nd2 O10 2.333340 1_554
Nd2 O1 2.344690 1_455
Nd2 O13 2.344690 1_555
Nd2 O16 2.357437 1_555
Nd2 O4 2.357437 1_565
Nd3 O21 2.333340 1_555
Nd3 O9 2.333340 1_554
Nd3 O12 2.344690 1_555
Nd3 O0 2.344690 1_655
Nd3 O18 2.357437 1_555
Nd3 O6 2.357437 1_545
O0 W0 1.955243 1_555
O0 Sr3 2.563396 1_555
O1 W1 1.955243 1_555
O1 Sr3 2.563396 1_665
O2 W2 1.955243 1_555
O2 Sr3 2.563396 1_655
O3 W3 1.955243 1_555
O3 Sr3 2.563396 1_565
O4 W0 1.949975 1_555
O4 Sr0 2.955451 1_555
O5 W3 1.949975 1_555
O5 Sr0 2.955451 1_565
O6 W1 1.949975 1_555
O6 Sr0 2.955451 1_565
O7 W2 1.949975 1_555
O7 Sr0 2.955451 1_555
O8 W0 1.967008 1_555
O8 Sr2 2.566469 1_555
O8 Sr1 2.932526 1_555
O9 W2 1.967008 1_555
O9 Sr2 2.566469 1_656
O9 Sr1 2.932526 1_556
O10 W3 1.967008 1_555
O10 Sr2 2.566469 1_556
O10 Sr1 2.932526 1_556
O11 W1 1.967008 1_555
O11 Sr2 2.566469 1_655
O11 Sr1 2.932526 1_555
O12 W0 1.955243 1_555
O12 Sr1 2.563396 1_555
O13 W1 1.955243 1_555
O13 Sr1 2.563396 1_555
O14 W2 1.955243 1_555
O14 Sr1 2.563396 1_556
O15 W3 1.955243 1_555
O15 Sr1 2.563396 1_556
O16 W0 1.949975 1_555
O16 Sr2 2.955451 1_555
O17 W3 1.949975 1_555
O17 Sr2 2.955451 1_556
O18 W1 1.949975 1_555
O18 Sr2 2.955451 1_655
O19 W2 1.949975 1_555
O19 Sr2 2.955451 1_656
O20 W0 1.967008 1_555
O20 Sr0 2.566469 1_555
O20 Sr3 2.932526 1_555
O21 W2 1.967008 1_555
O21 Sr0 2.566469 1_555
O21 Sr3 2.932526 1_655
O22 W3 1.967008 1_555
O22 Sr0 2.566469 1_565
O22 Sr3 2.932526 1_565
O23 W1 1.967008 1_555
O23 Sr0 2.566469 1_565
O23 Sr3 2.932526 1_665
