# generated using pymatgen
data_Mg3Co
_symmetry_space_group_name_H-M   'P 1'
_cell_length_a   6.09098600
_cell_length_b   9.20481000
_cell_length_c   10.06183800
_cell_angle_alpha   90.00000000
_cell_angle_beta   90.00000000
_cell_angle_gamma   90.00000000
_symmetry_Int_Tables_number   1
_chemical_formula_structural   Mg3Co
_chemical_formula_sum   'Mg24 Co8'
_cell_volume   564.13072054
_cell_formula_units_Z   8
loop_
 _symmetry_equiv_pos_site_id
 _symmetry_equiv_pos_as_xyz
  1  'x, y, z'
loop_
 _atom_site_type_symbol
 _atom_site_label
 _atom_site_symmetry_multiplicity
 _atom_site_fract_x
 _atom_site_fract_y
 _atom_site_fract_z
 _atom_site_occupancy
  Mg  Mg0_0  1  0.00000000  0.00000000  0.33497950  1
  Mg  Mg0_1  1  0.00000000  0.00000000  0.83497950  1
  Mg  Mg0_2  1  0.00000000  0.50000000  0.33497950  1
  Mg  Mg0_3  1  0.00000000  0.50000000  0.83497950  1
  Mg  Mg0_4  1  0.50000000  0.00000000  0.33497950  1
  Mg  Mg0_5  1  0.50000000  0.00000000  0.83497950  1
  Mg  Mg0_6  1  0.50000000  0.50000000  0.33497950  1
  Mg  Mg0_7  1  0.50000000  0.50000000  0.83497950  1
  Mg  Mg1_0  1  0.00000000  0.25000000  0.15768000  1
  Mg  Mg1_1  1  0.00000000  0.25000000  0.65768000  1
  Mg  Mg1_2  1  0.00000000  0.75000000  0.15768000  1
  Mg  Mg1_3  1  0.00000000  0.75000000  0.65768000  1
  Mg  Mg1_4  1  0.50000000  0.25000000  0.15768000  1
  Mg  Mg1_5  1  0.50000000  0.25000000  0.65768000  1
  Mg  Mg1_6  1  0.50000000  0.75000000  0.15768000  1
  Mg  Mg1_7  1  0.50000000  0.75000000  0.65768000  1
  Mg  Mg2_0  1  0.25000000  0.25000000  0.42621450  1
  Mg  Mg2_1  1  0.25000000  0.25000000  0.92621450  1
  Mg  Mg2_2  1  0.25000000  0.75000000  0.42621450  1
  Mg  Mg2_3  1  0.25000000  0.75000000  0.92621450  1
  Mg  Mg2_4  1  0.75000000  0.25000000  0.42621450  1
  Mg  Mg2_5  1  0.75000000  0.25000000  0.92621450  1
  Mg  Mg2_6  1  0.75000000  0.75000000  0.42621450  1
  Mg  Mg2_7  1  0.75000000  0.75000000  0.92621450  1
  Co  Co0_0  1  0.25000000  0.00000000  0.08112550  1
  Co  Co0_1  1  0.25000000  0.00000000  0.58112550  1
  Co  Co0_2  1  0.25000000  0.50000000  0.08112550  1
  Co  Co0_3  1  0.25000000  0.50000000  0.58112550  1
  Co  Co0_4  1  0.75000000  0.00000000  0.08112550  1
  Co  Co0_5  1  0.75000000  0.00000000  0.58112550  1
  Co  Co0_6  1  0.75000000  0.50000000  0.08112550  1
  Co  Co0_7  1  0.75000000  0.50000000  0.58112550  1
loop_
_geom_bond_atom_site_label_1
_geom_bond_atom_site_label_2
_geom_bond_distance
_geom_bond_site_symmetry_2
Mg0_0 Mg2_0 2.908092 1_555
Mg0_0 Mg2_4 2.908092 1_455
Mg0_0 Mg2_2 2.908092 1_545
Mg0_0 Mg2_6 2.908092 1_445
Mg0_0 Mg1_0 2.911708 1_555
Mg0_0 Mg1_2 2.911708 1_545
Mg0_0 Mg0_4 3.045493 1_555
Mg0_0 Mg0_4 3.045493 1_455
Mg0_1 Mg2_1 2.908092 1_555
Mg0_1 Mg2_5 2.908092 1_455
Mg0_1 Mg2_3 2.908092 1_545
Mg0_1 Mg2_7 2.908092 1_445
Mg0_1 Mg1_1 2.911708 1_555
Mg0_1 Mg1_3 2.911708 1_545
Mg0_1 Mg0_5 3.045493 1_455
Mg0_1 Mg0_5 3.045493 1_555
Mg0_2 Mg2_2 2.908092 1_555
Mg0_2 Mg2_6 2.908092 1_455
Mg0_2 Mg2_0 2.908092 1_555
Mg0_2 Mg2_4 2.908092 1_455
Mg0_2 Mg1_0 2.911708 1_555
Mg0_2 Mg1_2 2.911708 1_555
Mg0_2 Mg0_6 3.045493 1_455
Mg0_2 Mg0_6 3.045493 1_555
Mg0_3 Mg2_1 2.908092 1_555
Mg0_3 Mg2_7 2.908092 1_455
Mg0_3 Mg2_3 2.908092 1_555
Mg0_3 Mg2_5 2.908092 1_455
Mg0_3 Mg1_3 2.911708 1_555
Mg0_3 Mg1_1 2.911708 1_555
Mg0_3 Mg0_7 3.045493 1_555
Mg0_3 Mg0_7 3.045493 1_455
Mg0_4 Mg2_4 2.908092 1_555
Mg0_4 Mg2_0 2.908092 1_555
Mg0_4 Mg2_6 2.908092 1_545
Mg0_4 Mg2_2 2.908092 1_545
Mg0_4 Mg1_4 2.911708 1_555
Mg0_4 Mg1_6 2.911708 1_545
Mg0_5 Mg2_5 2.908092 1_555
Mg0_5 Mg2_1 2.908092 1_555
Mg0_5 Mg2_7 2.908092 1_545
Mg0_5 Mg2_3 2.908092 1_545
Mg0_5 Mg1_5 2.911708 1_555
Mg0_5 Mg1_7 2.911708 1_545
Mg0_6 Mg2_6 2.908092 1_555
Mg0_6 Mg2_4 2.908092 1_555
Mg0_6 Mg2_2 2.908092 1_555
Mg0_6 Mg2_0 2.908092 1_555
Mg0_6 Mg1_6 2.911708 1_555
Mg0_6 Mg1_4 2.911708 1_555
Mg0_7 Mg2_5 2.908092 1_555
Mg0_7 Mg2_7 2.908092 1_555
Mg0_7 Mg2_1 2.908092 1_555
Mg0_7 Mg2_3 2.908092 1_555
Mg0_7 Mg1_7 2.911708 1_555
Mg0_7 Mg1_5 2.911708 1_555
Mg1_0 Mg2_1 2.782598 1_554
Mg1_0 Mg2_5 2.782598 1_454
Mg1_0 Mg1_4 3.045493 1_555
Mg1_0 Mg1_4 3.045493 1_455
Mg1_0 Mg2_0 3.101499 1_555
Mg1_0 Mg2_4 3.101499 1_455
Mg1_1 Mg2_0 2.782598 1_555
Mg1_1 Mg2_4 2.782598 1_455
Mg1_1 Mg1_5 3.045493 1_555
Mg1_1 Mg1_5 3.045493 1_455
Mg1_1 Mg2_1 3.101499 1_555
Mg1_1 Mg2_5 3.101499 1_455
Mg1_2 Mg2_3 2.782598 1_554
Mg1_2 Mg2_7 2.782598 1_454
Mg1_2 Mg1_6 3.045493 1_455
Mg1_2 Mg1_6 3.045493 1_555
Mg1_2 Mg2_2 3.101499 1_555
Mg1_2 Mg2_6 3.101499 1_455
Mg1_3 Mg2_2 2.782598 1_555
Mg1_3 Mg2_6 2.782598 1_455
Mg1_3 Mg1_7 3.045493 1_455
Mg1_3 Mg1_7 3.045493 1_555
Mg1_3 Mg2_7 3.101499 1_455
Mg1_3 Mg2_3 3.101499 1_555
Mg1_4 Mg2_1 2.782598 1_554
Mg1_4 Mg2_5 2.782598 1_554
Mg1_4 Mg2_0 3.101499 1_555
Mg1_4 Mg2_4 3.101499 1_555
Mg1_5 Mg2_4 2.782598 1_555
Mg1_5 Mg2_0 2.782598 1_555
Mg1_5 Mg2_5 3.101499 1_555
Mg1_5 Mg2_1 3.101499 1_555
Mg1_6 Mg2_3 2.782598 1_554
Mg1_6 Mg2_7 2.782598 1_554
Mg1_6 Mg2_2 3.101499 1_555
Mg1_6 Mg2_6 3.101499 1_555
Mg1_7 Mg2_6 2.782598 1_555
Mg1_7 Mg2_2 2.782598 1_555
Mg1_7 Mg2_7 3.101499 1_555
Mg1_7 Mg2_3 3.101499 1_555
Mg2_0 Mg2_4 3.045493 1_555
Mg2_0 Mg2_4 3.045493 1_455
Mg2_1 Mg2_5 3.045493 1_555
Mg2_1 Mg2_5 3.045493 1_455
Mg2_2 Mg2_6 3.045493 1_555
Mg2_2 Mg2_6 3.045493 1_455
Mg2_3 Mg2_7 3.045493 1_555
Mg2_3 Mg2_7 3.045493 1_455
Co0_0 Mg2_1 2.779397 1_554
Co0_0 Mg2_3 2.779397 1_544
Co0_0 Mg1_4 2.864894 1_555
Co0_0 Mg1_0 2.864894 1_555
Co0_0 Mg1_2 2.864894 1_545
Co0_0 Mg1_6 2.864894 1_545
Co0_0 Mg0_1 2.907354 1_554
Co0_0 Mg0_5 2.907354 1_554
Co0_0 Mg0_0 2.973699 1_555
Co0_0 Mg0_4 2.973699 1_555
Co0_0 Co0_4 3.045493 1_555
Co0_0 Co0_4 3.045493 1_455
Co0_1 Mg2_0 2.779397 1_555
Co0_1 Mg2_2 2.779397 1_545
Co0_1 Mg1_1 2.864894 1_555
Co0_1 Mg1_5 2.864894 1_555
Co0_1 Mg1_3 2.864894 1_545
Co0_1 Mg1_7 2.864894 1_545
Co0_1 Mg0_0 2.907354 1_555
Co0_1 Mg0_4 2.907354 1_555
Co0_1 Mg0_1 2.973699 1_555
Co0_1 Mg0_5 2.973699 1_555
Co0_1 Co0_5 3.045493 1_555
Co0_1 Co0_5 3.045493 1_455
Co0_2 Mg2_1 2.779397 1_554
Co0_2 Mg2_3 2.779397 1_554
Co0_2 Mg1_6 2.864894 1_555
Co0_2 Mg1_4 2.864894 1_555
Co0_2 Mg1_0 2.864894 1_555
Co0_2 Mg1_2 2.864894 1_555
Co0_2 Mg0_3 2.907354 1_554
Co0_2 Mg0_7 2.907354 1_554
Co0_2 Mg0_6 2.973699 1_555
Co0_2 Mg0_2 2.973699 1_555
Co0_2 Co0_6 3.045493 1_555
Co0_2 Co0_6 3.045493 1_455
Co0_3 Mg2_2 2.779397 1_555
Co0_3 Mg2_0 2.779397 1_555
Co0_3 Mg1_3 2.864894 1_555
Co0_3 Mg1_1 2.864894 1_555
Co0_3 Mg1_7 2.864894 1_555
Co0_3 Mg1_5 2.864894 1_555
Co0_3 Mg0_6 2.907354 1_555
Co0_3 Mg0_2 2.907354 1_555
Co0_3 Mg0_3 2.973699 1_555
Co0_3 Mg0_7 2.973699 1_555
Co0_3 Co0_7 3.045493 1_555
Co0_3 Co0_7 3.045493 1_455
Co0_4 Mg2_5 2.779397 1_554
Co0_4 Mg2_7 2.779397 1_544
Co0_4 Mg1_4 2.864894 1_555
Co0_4 Mg1_6 2.864894 1_545
Co0_4 Mg1_0 2.864894 1_655
Co0_4 Mg1_2 2.864894 1_645
Co0_4 Mg0_5 2.907354 1_554
Co0_4 Mg0_1 2.907354 1_654
Co0_4 Mg0_4 2.973699 1_555
Co0_4 Mg0_0 2.973699 1_655
Co0_5 Mg2_4 2.779397 1_555
Co0_5 Mg2_6 2.779397 1_545
Co0_5 Mg1_5 2.864894 1_555
Co0_5 Mg1_1 2.864894 1_655
Co0_5 Mg1_7 2.864894 1_545
Co0_5 Mg1_3 2.864894 1_645
Co0_5 Mg0_4 2.907354 1_555
Co0_5 Mg0_0 2.907354 1_655
Co0_5 Mg0_5 2.973699 1_555
Co0_5 Mg0_1 2.973699 1_655
Co0_6 Mg2_5 2.779397 1_554
Co0_6 Mg2_7 2.779397 1_554
Co0_6 Mg1_6 2.864894 1_555
Co0_6 Mg1_4 2.864894 1_555
Co0_6 Mg1_2 2.864894 1_655
Co0_6 Mg1_0 2.864894 1_655
Co0_6 Mg0_7 2.907354 1_554
Co0_6 Mg0_3 2.907354 1_654
Co0_6 Mg0_6 2.973699 1_555
Co0_6 Mg0_2 2.973699 1_655
Co0_7 Mg2_4 2.779397 1_555
Co0_7 Mg2_6 2.779397 1_555
Co0_7 Mg1_7 2.864894 1_555
Co0_7 Mg1_5 2.864894 1_555
Co0_7 Mg1_3 2.864894 1_655
Co0_7 Mg1_1 2.864894 1_655
Co0_7 Mg0_6 2.907354 1_555
Co0_7 Mg0_2 2.907354 1_655
Co0_7 Mg0_7 2.973699 1_555
Co0_7 Mg0_3 2.973699 1_655
