# generated using pymatgen
data_NaPb2IO6
_symmetry_space_group_name_H-M   'P 1'
_cell_length_a   5.85813361
_cell_length_b   5.85813361
_cell_length_c   5.85813361
_cell_angle_alpha   60.00000000
_cell_angle_beta   60.00000000
_cell_angle_gamma   60.00000000
_symmetry_Int_Tables_number   1
_chemical_formula_structural   NaPb2IO6
_chemical_formula_sum   'Na1 Pb2 I1 O6'
_cell_volume   142.15522267
_cell_formula_units_Z   1
loop_
 _symmetry_equiv_pos_site_id
 _symmetry_equiv_pos_as_xyz
  1  'x, y, z'
loop_
 _atom_site_type_symbol
 _atom_site_label
 _atom_site_symmetry_multiplicity
 _atom_site_fract_x
 _atom_site_fract_y
 _atom_site_fract_z
 _atom_site_occupancy
  Na  Na0  1  0.50000000  0.50000000  0.50000000  1
  Pb  Pb0  1  0.75000000  0.75000000  0.75000000  1
  Pb  Pb1  1  0.25000000  0.25000000  0.25000000  1
  I  I0  1  0.00000000  0.00000000  0.00000000  1
  O  O0  1  0.77108500  0.77108500  0.22891500  1
  O  O1  1  0.22891500  0.77108500  0.22891500  1
  O  O2  1  0.77108500  0.22891500  0.22891500  1
  O  O3  1  0.22891500  0.22891500  0.77108500  1
  O  O4  1  0.77108500  0.22891500  0.77108500  1
  O  O5  1  0.22891500  0.77108500  0.77108500  1
loop_
_geom_bond_atom_site_label_1
_geom_bond_atom_site_label_2
_geom_bond_distance
_geom_bond_site_symmetry_2
Na0 O0 2.245845 1_555
Na0 O3 2.245845 1_555
Na0 O2 2.245845 1_555
Na0 O4 2.245845 1_555
Na0 O1 2.245845 1_555
Na0 O5 2.245845 1_555
I0 O0 1.896481 1_445
I0 O4 1.896481 1_454
I0 O5 1.896481 1_544
I0 O2 1.896481 1_455
I0 O1 1.896481 1_545
I0 O3 1.896481 1_554
