# generated using pymatgen
data_Ba4Sr2Gd2Co4O15
_symmetry_space_group_name_H-M   'P 1'
_cell_length_a   6.87866128
_cell_length_b   11.74410098
_cell_length_c   11.70811623
_cell_angle_alpha   60.06019371
_cell_angle_beta   89.70410154
_cell_angle_gamma   89.38546248
_symmetry_Int_Tables_number   1
_chemical_formula_structural   Ba4Sr2Gd2Co4O15
_chemical_formula_sum   'Ba8 Sr4 Gd4 Co8 O30'
_cell_volume   819.55757563
_cell_formula_units_Z   2
loop_
 _symmetry_equiv_pos_site_id
 _symmetry_equiv_pos_as_xyz
  1  'x, y, z'
loop_
 _atom_site_type_symbol
 _atom_site_label
 _atom_site_symmetry_multiplicity
 _atom_site_fract_x
 _atom_site_fract_y
 _atom_site_fract_z
 _atom_site_occupancy
  Ba  Ba0  1  0.32939752  0.17324473  0.64915166  1
  Ba  Ba1  1  0.32635647  0.65128809  0.17402634  1
  Ba  Ba2  1  0.33380366  0.17410145  0.17342358  1
  Ba  Ba3  1  0.82694509  0.82372830  0.34840460  1
  Ba  Ba4  1  0.83378427  0.34464935  0.82823954  1
  Ba  Ba5  1  0.82634569  0.82696920  0.82674262  1
  Ba  Ba6  1  0.01507394  0.33433104  0.33197958  1
  Ba  Ba7  1  0.50612811  0.66569563  0.66924899  1
  Sr  Sr0  1  0.51576270  0.99983209  0.00007104  1
  Sr  Sr1  1  0.01693106  0.00027986  0.00024475  1
  Sr  Sr2  1  0.66495491  0.04947749  0.47518293  1
  Sr  Sr3  1  0.16898239  0.52301763  0.52474065  1
  Gd  Gd0  1  0.66027058  0.47627750  0.04507233  1
  Gd  Gd1  1  0.66751423  0.47492363  0.47467608  1
  Gd  Gd2  1  0.16144953  0.52077787  0.95427435  1
  Gd  Gd3  1  0.16871998  0.95262163  0.52335493  1
  Co  Co0  1  0.83903227  0.17341622  0.64755183  1
  Co  Co1  1  0.83286367  0.64857689  0.17280658  1
  Co  Co2  1  0.84205842  0.17343274  0.17974509  1
  Co  Co3  1  0.33697103  0.82104527  0.35187169  1
  Co  Co4  1  0.34515307  0.35058859  0.82146051  1
  Co  Co5  1  0.33112708  0.82170557  0.82692760  1
  Co  Co6  1  0.48227532  0.33153965  0.32996224  1
  Co  Co7  1  0.96459040  0.66465246  0.66711482  1
  O  O0  1  0.48220150  0.66783499  0.39348792  1
  O  O1  1  0.47061724  0.39862035  0.93750438  1
  O  O2  1  0.44784931  0.93401832  0.66759895  1
  O  O3  1  0.48417571  0.39565690  0.67058457  1
  O  O4  1  0.45486503  0.93686130  0.39476103  1
  O  O5  1  0.46284417  0.66311263  0.93989454  1
  O  O6  1  0.95406452  0.33286072  0.60475114  1
  O  O7  1  0.96271408  0.60381577  0.05942767  1
  O  O8  1  0.98212902  0.06785822  0.32820805  1
  O  O9  1  0.94905796  0.60168483  0.33313052  1
  O  O10  1  0.98102302  0.06208712  0.60731391  1
  O  O11  1  0.96467789  0.33735704  0.06390820  1
  O  O12  1  0.66492642  0.25717183  0.50021788  1
  O  O13  1  0.65978314  0.50307352  0.24531519  1
  O  O14  1  0.65999178  0.26048486  0.24041982  1
  O  O15  1  0.16235057  0.75793007  0.49653845  1
  O  O16  1  0.16325906  0.49499275  0.76320658  1
  O  O17  1  0.15864966  0.74621275  0.75653106  1
  O  O18  1  0.32978329  0.42048965  0.16024131  1
  O  O19  1  0.32431079  0.16866661  0.41562871  1
  O  O20  1  0.34343806  0.41264421  0.41180825  1
  O  O21  1  0.82705692  0.58125002  0.83883139  1
  O  O22  1  0.84265560  0.83269784  0.58612724  1
  O  O23  1  0.82792597  0.58372468  0.58648277  1
  O  O24  1  0.25689902  0.90577898  0.18087049  1
  O  O25  1  0.25456440  0.18436780  0.91166521  1
  O  O26  1  0.25906998  0.90680360  0.91398305  1
  O  O27  1  0.75692618  0.08846706  0.81830836  1
  O  O28  1  0.76098239  0.82066616  0.08705959  1
  O  O29  1  0.75191593  0.09663655  0.08991948  1
loop_
_geom_bond_atom_site_label_1
_geom_bond_atom_site_label_2
_geom_bond_distance
_geom_bond_site_symmetry_2
Ba0 O19 2.761749 1_555
Ba0 O12 2.762350 1_555
Ba0 O20 2.800085 1_555
Ba0 O2 2.819722 1_545
Ba0 O10 2.898992 1_455
Ba0 O3 2.955651 1_555
Ba0 O6 3.063844 1_455
Ba0 O26 3.157821 1_545
Ba0 O25 3.179884 1_555
Ba0 O27 3.404588 1_555
Ba1 O13 2.733261 1_555
Ba1 O18 2.794421 1_555
Ba1 O20 2.797715 1_555
Ba1 O5 2.830437 1_554
Ba1 O0 2.884533 1_555
Ba1 O7 3.029721 1_455
Ba1 O26 3.058402 1_554
Ba1 O24 3.061936 1_555
Ba1 O9 3.073166 1_455
Ba2 O14 2.745937 1_555
Ba2 O19 2.804891 1_555
Ba2 O4 2.817312 1_545
Ba2 O18 2.819591 1_555
Ba2 O1 2.867792 1_554
Ba2 O8 2.907788 1_455
Ba2 O11 3.040125 1_455
Ba2 O25 3.057942 1_554
Ba2 O24 3.158888 1_545
Ba2 O29 3.295124 1_555
Ba3 O15 2.755607 1_655
Ba3 O23 2.805687 1_555
Ba3 O9 2.820388 1_555
Ba3 O22 2.839974 1_555
Ba3 O0 2.893015 1_555
Ba3 O8 2.966797 1_565
Ba3 O4 3.040227 1_555
Ba3 O28 3.113587 1_555
Ba3 O29 3.161694 1_565
Ba3 O24 3.411369 1_655
Ba4 O16 2.749483 1_655
Ba4 O6 2.808422 1_555
Ba4 O23 2.821821 1_555
Ba4 O21 2.842468 1_555
Ba4 O11 2.866971 1_556
Ba4 O3 2.908687 1_555
Ba4 O1 3.003541 1_555
Ba4 O29 3.049164 1_556
Ba4 O27 3.119107 1_555
Ba4 O25 3.309378 1_655
Ba5 O17 2.740887 1_655
Ba5 O22 2.785888 1_555
Ba5 O21 2.817734 1_555
Ba5 O7 2.831425 1_556
Ba5 O10 2.882807 1_565
Ba5 O5 3.038831 1_555
Ba5 O28 3.042730 1_556
Ba5 O27 3.055402 1_565
Ba5 O2 3.077734 1_555
Ba6 O19 2.701836 1_555
Ba6 O18 2.779267 1_555
Ba6 O20 2.783092 1_555
Ba6 O12 2.952677 1_455
Ba6 O13 2.973912 1_455
Ba6 O14 2.977842 1_455
Ba6 O11 3.141966 1_455
Ba6 O8 3.162314 1_455
Ba6 O9 3.174351 1_455
Ba6 O7 3.199294 1_455
Ba6 O6 3.210456 1_455
Ba6 O10 3.223262 1_455
Ba7 O23 2.762034 1_555
Ba7 O21 2.798544 1_555
Ba7 O22 2.884652 1_555
Ba7 O17 2.922721 1_555
Ba7 O15 2.943177 1_555
Ba7 O16 2.943618 1_555
Ba7 O1 3.152352 1_555
Ba7 O2 3.162817 1_555
Ba7 O5 3.166234 1_555
Ba7 O3 3.168806 1_555
Ba7 O4 3.219611 1_555
Ba7 O0 3.221223 1_555
Gd0 O1 2.304081 1_554
Gd0 O5 2.330554 1_554
Gd0 O21 2.386854 1_554
Gd0 O14 2.422395 1_555
Gd0 O13 2.516329 1_555
Gd0 O18 2.556141 1_555
Gd0 O11 2.582100 1_555
Gd0 O7 2.630884 1_555
Gd1 O0 2.337128 1_555
Gd1 O3 2.362651 1_555
Gd1 O12 2.422207 1_555
Gd1 O23 2.505715 1_555
Gd1 O9 2.505852 1_555
Gd1 O6 2.532248 1_555
Gd1 O13 2.537390 1_555
Gd1 O20 2.575937 1_555
Gd2 O11 2.324753 1_456
Gd2 O7 2.342645 1_456
Gd2 O18 2.389088 1_556
Gd2 O16 2.402509 1_555
Gd2 O17 2.500180 1_555
Gd2 O21 2.580882 1_455
Gd2 O1 2.613581 1_555
Gd2 O5 2.628785 1_555
Gd3 O10 2.344920 1_465
Gd3 O8 2.367649 1_465
Gd3 O19 2.454359 1_565
Gd3 O15 2.459135 1_555
Gd3 O2 2.498519 1_555
Gd3 O4 2.532783 1_555
Gd3 O22 2.563550 1_455
Gd3 O17 2.594223 1_555
Co0 O27 1.822292 1_555
Co0 O10 1.862268 1_555
Co0 O6 1.864039 1_555
Co0 O12 1.918291 1_555
Co1 O28 1.815307 1_555
Co1 O9 1.854664 1_555
Co1 O7 1.873632 1_555
Co1 O13 1.908749 1_555
Co2 O29 1.808169 1_555
Co2 O8 1.824131 1_555
Co2 O11 1.916714 1_555
Co2 O14 1.951045 1_555
Co3 O24 1.820157 1_555
Co3 O4 1.862647 1_555
Co3 O0 1.887932 1_555
Co3 O15 1.898937 1_555
Co4 O25 1.809920 1_555
Co4 O3 1.837172 1_555
Co4 O1 1.922633 1_555
Co4 O16 1.927550 1_555
Co5 O26 1.812264 1_555
Co5 O2 1.848102 1_555
Co5 O5 1.885868 1_555
Co5 O17 1.906575 1_555
Co6 O20 1.902550 1_555
Co6 O19 1.990917 1_555
Co6 O18 2.016470 1_555
Co6 O14 2.031736 1_555
Co6 O13 2.139798 1_555
Co6 O12 2.139949 1_555
Co7 O23 1.897949 1_555
Co7 O22 1.897959 1_555
Co7 O21 1.982674 1_555
Co7 O16 2.196181 1_655
Co7 O17 2.199580 1_655
Co7 O15 2.204348 1_655
O0 Sr3 2.707700 1_555
O2 Sr2 2.470547 1_565
O3 Sr3 2.696839 1_555
O4 Sr2 2.454043 1_565
O6 Sr3 2.453291 1_655
O8 Sr2 2.714452 1_555
O9 Sr3 2.472066 1_655
O10 Sr2 2.722554 1_555
O12 Sr2 2.597917 1_555
O14 Sr2 2.626267 1_555
O15 Sr3 2.609683 1_555
O16 Sr3 2.643286 1_555
O19 Sr2 2.628362 1_555
O20 Sr3 2.555309 1_555
O22 Sr2 2.512290 1_565
O23 Sr3 2.644934 1_655
O24 Sr1 2.466312 1_565
O24 Sr0 2.557539 1_555
O25 Sr1 2.498345 1_556
O25 Sr0 2.587048 1_546
O26 Sr1 2.459570 1_566
O26 Sr0 2.546805 1_556
O27 Sr0 2.480652 1_546
O27 Sr1 2.570267 1_656
O28 Sr0 2.472335 1_555
O28 Sr1 2.550174 1_665
O29 Sr0 2.507764 1_545
O29 Sr1 2.613041 1_655
