# generated using pymatgen
data_Sc8B8As3Rh20
_symmetry_space_group_name_H-M   'P 1'
_cell_length_a   3.16520700
_cell_length_b   9.20335200
_cell_length_c   18.40849615
_cell_angle_alpha   89.99257055
_cell_angle_beta   90.00000000
_cell_angle_gamma   90.00000000
_symmetry_Int_Tables_number   1
_chemical_formula_structural   Sc8B8As3Rh20
_chemical_formula_sum   'Sc8 B8 As3 Rh20'
_cell_volume   536.24895365
_cell_formula_units_Z   1
loop_
 _symmetry_equiv_pos_site_id
 _symmetry_equiv_pos_as_xyz
  1  'x, y, z'
loop_
 _atom_site_type_symbol
 _atom_site_label
 _atom_site_symmetry_multiplicity
 _atom_site_fract_x
 _atom_site_fract_y
 _atom_site_fract_z
 _atom_site_occupancy
  Sc  Sc0  1  0.00000000  0.67267700  0.33914600  1
  Sc  Sc1  1  0.00000000  0.67449200  0.83427100  1
  Sc  Sc2  1  0.00000000  0.32732300  0.66085400  1
  Sc  Sc3  1  0.00000000  0.32550800  0.16572900  1
  Sc  Sc4  1  0.00000000  0.82551600  0.58581200  1
  Sc  Sc5  1  0.00000000  0.82542900  0.08768000  1
  Sc  Sc6  1  0.00000000  0.17448400  0.41418800  1
  Sc  Sc7  1  0.00000000  0.17457100  0.91232000  1
  B  B0  1  0.00000000  0.86047300  0.44278600  1
  B  B1  1  0.00000000  0.87732100  0.93789100  1
  B  B2  1  0.00000000  0.13952700  0.55721400  1
  B  B3  1  0.00000000  0.12267900  0.06210900  1
  B  B4  1  0.00000000  0.61656200  0.67936900  1
  B  B5  1  0.00000000  0.62198100  0.19010600  1
  B  B6  1  0.00000000  0.38343800  0.32063100  1
  B  B7  1  0.00000000  0.37801900  0.80989400  1
  As  As0  1  0.00000000  0.50000000  0.00000000  1
  As  As1  1  0.00000000  0.99886600  0.74693800  1
  As  As2  1  0.00000000  0.00113400  0.25306200  1
  Rh  Rh0  1  0.50000000  0.00000000  0.50000000  1
  Rh  Rh1  1  0.50000000  0.00000000  0.00000000  1
  Rh  Rh2  1  0.50000000  0.49886700  0.74863000  1
  Rh  Rh3  1  0.50000000  0.50113300  0.25137000  1
  Rh  Rh4  1  0.50000000  0.43172900  0.39689100  1
  Rh  Rh5  1  0.50000000  0.42892600  0.89211800  1
  Rh  Rh6  1  0.50000000  0.56827100  0.60310900  1
  Rh  Rh7  1  0.50000000  0.57107400  0.10788200  1
  Rh  Rh8  1  0.50000000  0.07537500  0.64145700  1
  Rh  Rh9  1  0.50000000  0.07238000  0.14236000  1
  Rh  Rh10  1  0.50000000  0.92462500  0.35854300  1
  Rh  Rh11  1  0.50000000  0.92762000  0.85764000  1
  Rh  Rh12  1  0.50000000  0.29314000  0.53415200  1
  Rh  Rh13  1  0.50000000  0.28420100  0.03655700  1
  Rh  Rh14  1  0.50000000  0.70686000  0.46584800  1
  Rh  Rh15  1  0.50000000  0.71579900  0.96344300  1
  Rh  Rh16  1  0.50000000  0.78268500  0.71220100  1
  Rh  Rh17  1  0.50000000  0.78510800  0.21321900  1
  Rh  Rh18  1  0.50000000  0.21731500  0.28779900  1
  Rh  Rh19  1  0.50000000  0.21489200  0.78678100  1
loop_
_geom_bond_atom_site_label_1
_geom_bond_atom_site_label_2
_geom_bond_distance
_geom_bond_site_symmetry_2
B0 Rh14 2.164119 1_555
B0 Rh14 2.164119 1_455
B0 Rh10 2.293016 1_555
B0 Rh10 2.293016 1_455
B0 Rh0 2.294171 1_465
B0 Rh0 2.294171 1_565
B0 Sc0 2.574485 1_555
B0 Sc4 2.652435 1_555
B0 Sc6 2.937445 1_565
B1 Rh11 2.213858 1_555
B1 Rh11 2.213858 1_455
B1 Rh15 2.221602 1_555
B1 Rh15 2.221602 1_455
B1 Rh1 2.255427 1_566
B1 Rh1 2.255427 1_466
B1 Sc1 2.669088 1_555
B1 Sc7 2.775839 1_565
B1 Sc5 2.798382 1_556
B2 Rh12 2.164119 1_455
B2 Rh12 2.164119 1_555
B2 Rh8 2.293016 1_555
B2 Rh8 2.293016 1_455
B2 Rh0 2.294171 1_455
B2 Rh0 2.294171 1_555
B2 Sc2 2.574485 1_555
B2 Sc6 2.652435 1_555
B2 Sc4 2.937445 1_545
B3 Rh9 2.213858 1_555
B3 Rh9 2.213858 1_455
B3 Rh13 2.221602 1_455
B3 Rh13 2.221602 1_555
B3 Rh1 2.255427 1_555
B3 Rh1 2.255427 1_455
B3 Sc3 2.669088 1_555
B3 Sc5 2.775839 1_545
B3 Sc7 2.798382 1_554
B4 Rh6 2.161727 1_555
B4 Rh6 2.161727 1_455
B4 Rh16 2.282029 1_555
B4 Rh16 2.282029 1_455
B4 Rh2 2.302862 1_555
B4 Rh2 2.302862 1_455
B4 Sc4 2.581374 1_555
B4 Sc2 2.683743 1_555
B4 Sc1 2.900994 1_555
B5 Rh17 2.222561 1_455
B5 Rh17 2.222561 1_555
B5 Rh3 2.239017 1_555
B5 Rh3 2.239017 1_455
B5 Rh7 2.239502 1_555
B5 Rh7 2.239502 1_455
B5 Sc5 2.657089 1_555
B5 Sc3 2.765257 1_555
B5 Sc0 2.783052 1_555
B6 Rh4 2.161727 1_555
B6 Rh4 2.161727 1_455
B6 Rh18 2.282029 1_455
B6 Rh18 2.282029 1_555
B6 Rh3 2.302862 1_455
B6 Rh3 2.302862 1_555
B6 Sc6 2.581374 1_555
B6 Sc0 2.683743 1_555
B6 Sc3 2.900994 1_555
B7 Rh19 2.222561 1_455
B7 Rh19 2.222561 1_555
B7 Rh2 2.239017 1_455
B7 Rh2 2.239017 1_555
B7 Rh5 2.239502 1_455
B7 Rh5 2.239502 1_555
B7 Sc7 2.657089 1_555
B7 Sc1 2.765257 1_555
B7 Sc2 2.783052 1_555
As0 Rh7 2.622369 1_555
As0 Rh7 2.622369 1_455
As0 Rh5 2.622369 1_554
As0 Rh5 2.622369 1_454
As0 Rh15 2.627100 1_554
As0 Rh15 2.627100 1_454
As0 Rh13 2.627100 1_455
As0 Rh13 2.627100 1_555
As1 Rh8 2.602013 1_565
As1 Rh8 2.602013 1_465
As1 Rh16 2.621514 1_555
As1 Rh16 2.621514 1_455
As1 Rh19 2.644949 1_565
As1 Rh19 2.644949 1_465
As1 Rh11 2.662160 1_555
As1 Rh11 2.662160 1_455
As2 Rh10 2.602013 1_545
As2 Rh10 2.602013 1_445
As2 Rh18 2.621514 1_555
As2 Rh18 2.621514 1_455
As2 Rh17 2.644949 1_445
As2 Rh17 2.644949 1_545
As2 Rh9 2.662160 1_455
As2 Rh9 2.662160 1_555
Rh0 Sc4 2.752825 1_645
Rh0 Sc4 2.752825 1_545
Rh0 Sc6 2.752825 1_655
Rh0 Sc6 2.752825 1_555
Rh1 Sc7 2.773162 1_654
Rh1 Sc7 2.773162 1_554
Rh1 Sc5 2.773162 1_645
Rh1 Sc5 2.773162 1_545
Rh2 Sc1 2.757402 1_655
Rh2 Sc1 2.757402 1_555
Rh2 Sc2 2.758392 1_555
Rh2 Sc2 2.758392 1_655
Rh3 Sc3 2.757402 1_555
Rh3 Sc3 2.757402 1_655
Rh3 Sc0 2.758392 1_555
Rh3 Sc0 2.758392 1_655
Rh4 Sc6 2.865477 1_555
Rh4 Sc6 2.865477 1_655
Rh4 Sc0 2.924282 1_655
Rh4 Sc0 2.924282 1_555
Rh5 Sc7 2.850019 1_655
Rh5 Sc7 2.850019 1_555
Rh5 Sc1 2.957314 1_555
Rh5 Sc1 2.957314 1_655
Rh6 Sc4 2.865477 1_655
Rh6 Sc4 2.865477 1_555
Rh6 Sc2 2.924282 1_555
Rh6 Sc2 2.924282 1_655
Rh7 Sc5 2.850019 1_555
Rh7 Sc5 2.850019 1_655
Rh7 Sc3 2.957314 1_555
Rh7 Sc3 2.957314 1_655
Rh8 Sc2 2.830022 1_555
Rh8 Sc2 2.830022 1_655
Rh8 Sc4 2.973618 1_645
Rh8 Sc4 2.973618 1_545
Rh9 Sc3 2.849055 1_555
Rh9 Sc3 2.849055 1_655
Rh9 Sc5 2.946852 1_645
Rh9 Sc5 2.946852 1_545
Rh10 Sc0 2.830022 1_655
Rh10 Sc0 2.830022 1_555
Rh10 Sc6 2.973618 1_565
Rh10 Sc6 2.973618 1_665
Rh11 Sc1 2.849055 1_555
Rh11 Sc1 2.849055 1_655
Rh11 Sc7 2.946852 1_665
Rh11 Sc7 2.946852 1_565
Rh12 Sc2 2.836169 1_555
Rh12 Sc2 2.836169 1_655
Rh12 Sc6 2.928248 1_655
Rh12 Sc6 2.928248 1_555
Rh13 Sc3 2.881600 1_555
Rh13 Sc3 2.881600 1_655
Rh13 Sc7 2.958662 1_654
Rh13 Sc7 2.958662 1_554
Rh14 Sc0 2.836169 1_655
Rh14 Sc0 2.836169 1_555
Rh14 Sc4 2.928248 1_655
Rh14 Sc4 2.928248 1_555
Rh15 Sc1 2.881600 1_555
Rh15 Sc1 2.881600 1_655
Rh15 Sc5 2.958662 1_556
Rh15 Sc5 2.958662 1_656
Rh16 Sc4 2.841302 1_555
Rh16 Sc4 2.841302 1_655
Rh16 Sc1 2.923204 1_655
Rh16 Sc1 2.923204 1_555
Rh17 Sc5 2.825379 1_555
Rh17 Sc5 2.825379 1_655
Rh17 Sc0 2.991390 1_655
Rh17 Sc0 2.991390 1_555
Rh18 Sc6 2.841302 1_555
Rh18 Sc6 2.841302 1_655
Rh18 Sc3 2.923204 1_655
Rh18 Sc3 2.923204 1_555
Rh19 Sc7 2.825379 1_655
Rh19 Sc7 2.825379 1_555
Rh19 Sc2 2.991390 1_555
Rh19 Sc2 2.991390 1_655
