# generated using pymatgen
data_SrCaLaSbO6
_symmetry_space_group_name_H-M   'P 1'
_cell_length_a   5.82666615
_cell_length_b   5.97165600
_cell_length_c   8.33813227
_cell_angle_alpha   90.00000000
_cell_angle_beta   90.38387353
_cell_angle_gamma   90.00000000
_symmetry_Int_Tables_number   1
_chemical_formula_structural   SrCaLaSbO6
_chemical_formula_sum   'Sr2 Ca2 La2 Sb2 O12'
_cell_volume   290.11751566
_cell_formula_units_Z   2
loop_
 _symmetry_equiv_pos_site_id
 _symmetry_equiv_pos_as_xyz
  1  'x, y, z'
loop_
 _atom_site_type_symbol
 _atom_site_label
 _atom_site_symmetry_multiplicity
 _atom_site_fract_x
 _atom_site_fract_y
 _atom_site_fract_z
 _atom_site_occupancy
  Sr  Sr0  1  0.48838000  0.54212300  0.25187700  1
  Sr  Sr1  1  0.98838000  0.95787700  0.75187700  1
  Ca  Ca0  1  0.00098600  0.50522800  0.50020900  1
  Ca  Ca1  1  0.50098600  0.99477200  0.00020900  1
  La  La0  1  0.51650600  0.44793900  0.75060600  1
  La  La1  1  0.01650600  0.05206100  0.25060600  1
  Sb  Sb0  1  0.50021100  0.99978000  0.50008900  1
  Sb  Sb1  1  0.00021100  0.50022000  0.00008900  1
  O  O0  1  0.61415800  0.96904700  0.27112700  1
  O  O1  1  0.11415800  0.53095300  0.77112700  1
  O  O2  1  0.40841800  0.04222200  0.73126700  1
  O  O3  1  0.90841800  0.45777800  0.23126700  1
  O  O4  1  0.17362100  0.78325500  0.05892200  1
  O  O5  1  0.67362100  0.71674500  0.55892200  1
  O  O6  1  0.80664700  0.22915600  0.94264500  1
  O  O7  1  0.30664700  0.27084400  0.44264500  1
  O  O8  1  0.22024900  0.81719100  0.44375900  1
  O  O9  1  0.72024900  0.68280900  0.94375900  1
  O  O10  1  0.77082300  0.19861000  0.54949900  1
  O  O11  1  0.27082300  0.30139000  0.04949900  1
loop_
_geom_bond_atom_site_label_1
_geom_bond_atom_site_label_2
_geom_bond_distance
_geom_bond_site_symmetry_2
Ca0 O10 2.308121 1_455
Ca0 O8 2.309183 1_555
Ca0 O7 2.317927 1_555
Ca0 O3 2.320277 1_455
Ca0 O5 2.342215 1_455
Ca0 O1 2.354002 1_555
Ca1 O11 2.308121 1_565
Ca1 O9 2.309183 1_554
Ca1 O6 2.317927 1_564
Ca1 O2 2.320277 1_564
Ca1 O4 2.342215 1_555
Ca1 O0 2.354002 1_555
La0 O1 2.403407 1_555
La0 O9 2.438174 1_555
La0 O5 2.447225 1_555
La0 O2 2.508237 1_555
La0 O6 2.663199 1_555
La0 O10 2.694027 1_555
La0 O11 3.012310 1_556
La0 O7 3.027412 1_555
La1 O0 2.403407 1_445
La1 O8 2.438174 1_545
La1 O4 2.447225 1_545
La1 O3 2.508237 1_455
La1 O7 2.663199 1_555
La1 O11 2.694027 1_555
La1 O10 3.012310 1_455
La1 O6 3.027412 1_454
O0 Sb0 2.033763 1_555
O0 Sr0 2.657243 1_555
O1 Sb1 2.033763 1_556
O1 Sr1 2.657243 1_455
O2 Sb0 2.019833 1_545
O2 Sr1 2.505740 1_445
O3 Sb1 2.019833 1_655
O3 Sr0 2.505740 1_555
O4 Sb1 2.027721 1_555
O4 Sr0 2.825949 1_555
O4 Sr1 2.961396 1_454
O5 Sb0 2.027721 1_555
O5 Sr1 2.825949 1_555
O5 Sr0 2.961396 1_555
O6 Sb1 2.028393 1_656
O6 Sr1 2.509651 1_545
O7 Sb0 2.028393 1_545
O7 Sr0 2.509651 1_555
O8 Sb0 2.014989 1_555
O8 Sr0 2.780697 1_555
O8 Sr1 3.029523 1_455
O9 Sb1 2.014989 1_656
O9 Sr1 2.780697 1_555
O9 Sr0 3.029523 1_556
O10 Sb0 2.014201 1_545
O10 Sr1 2.548009 1_545
O11 Sb1 2.014201 1_555
O11 Sr0 2.548009 1_555
