# generated using pymatgen
data_Zr(V3Ge2)3
_symmetry_space_group_name_H-M   'P 1'
_cell_length_a   4.89694600
_cell_length_b   7.29965828
_cell_length_c   7.29965828
_cell_angle_alpha   96.45994356
_cell_angle_beta   109.59826008
_cell_angle_gamma   70.40173992
_symmetry_Int_Tables_number   1
_chemical_formula_structural   Zr(V3Ge2)3
_chemical_formula_sum   'Zr1 V9 Ge6'
_cell_volume   231.57653190
_cell_formula_units_Z   1
loop_
 _symmetry_equiv_pos_site_id
 _symmetry_equiv_pos_as_xyz
  1  'x, y, z'
loop_
 _atom_site_type_symbol
 _atom_site_label
 _atom_site_symmetry_multiplicity
 _atom_site_fract_x
 _atom_site_fract_y
 _atom_site_fract_z
 _atom_site_occupancy
  Zr  Zr0  1  0.75000000  0.50000000  0.50000000  1
  V  V0  1  0.43070700  0.84731500  0.70568800  1
  V  V1  1  0.57233400  0.15268500  0.29431200  1
  V  V2  1  0.92766600  0.29431200  0.15268500  1
  V  V3  1  0.06929300  0.70568800  0.84731500  1
  V  V4  1  0.72197800  0.70568800  0.15268500  1
  V  V5  1  0.27498000  0.29431200  0.84731500  1
  V  V6  1  0.77802200  0.15268500  0.70568800  1
  V  V7  1  0.22502000  0.84731500  0.29431200  1
  V  V8  1  0.25000000  0.50000000  0.50000000  1
  Ge  Ge0  1  0.25000000  0.00000000  0.00000000  1
  Ge  Ge1  1  0.75000000  0.00000000  0.00000000  1
  Ge  Ge2  1  0.31266400  0.50000000  0.15505200  1
  Ge  Ge3  1  0.65761200  0.50000000  0.84494800  1
  Ge  Ge4  1  0.84238800  0.84494800  0.50000000  1
  Ge  Ge5  1  0.18733600  0.15505200  0.50000000  1
loop_
_geom_bond_atom_site_label_1
_geom_bond_atom_site_label_2
_geom_bond_distance
_geom_bond_site_symmetry_2
V8 Zr0 2.448473 1_455
V8 Zr0 2.448473 1_555
Ge0 Ge1 2.448473 1_555
Ge0 Ge1 2.448473 1_455
Ge0 V7 2.584427 1_545
Ge0 V5 2.584427 1_554
Ge0 V6 2.584429 1_454
Ge0 V4 2.584429 1_545
Ge0 V3 2.591474 1_544
Ge0 V0 2.591474 1_544
Ge0 V2 2.591474 1_455
Ge0 V1 2.591474 1_555
Ge1 V0 2.584429 1_544
Ge1 V3 2.584429 1_644
Ge1 V2 2.584429 1_555
Ge1 V1 2.584429 1_555
Ge1 V6 2.591474 1_554
Ge1 V4 2.591474 1_545
Ge1 V7 2.591476 1_645
Ge1 V5 2.591476 1_554
Ge2 V5 2.546262 1_554
Ge2 V3 2.546262 1_554
Ge2 V1 2.574496 1_555
Ge2 V7 2.574496 1_555
Ge2 V8 2.636826 1_555
Ge2 Zr0 2.703561 1_555
Ge2 V2 2.771344 1_455
Ge2 V4 2.771344 1_455
Ge2 V4 2.884477 1_555
Ge2 V2 2.884477 1_555
Ge3 V4 2.546262 1_556
Ge3 V2 2.546262 1_556
Ge3 V6 2.574496 1_555
Ge3 V0 2.574496 1_555
Ge3 V8 2.636826 1_555
Ge3 Zr0 2.703561 1_555
Ge3 V3 2.771344 1_555
Ge3 V5 2.771348 1_555
Ge3 V5 2.884473 1_655
Ge3 V3 2.884477 1_655
Ge4 V6 2.546262 1_565
Ge4 V1 2.546262 1_565
Ge4 V4 2.574496 1_555
Ge4 V3 2.574496 1_655
Ge4 V8 2.636826 1_655
Ge4 Zr0 2.703561 1_555
Ge4 V0 2.771344 1_655
Ge4 V7 2.771348 1_655
Ge4 V7 2.884473 1_555
Ge4 V0 2.884477 1_555
Ge5 V7 2.546262 1_545
Ge5 V0 2.546262 1_545
Ge5 V2 2.574496 1_455
Ge5 V5 2.574496 1_555
Ge5 V8 2.636826 1_555
Ge5 Zr0 2.703561 1_455
Ge5 V1 2.771344 1_555
Ge5 V6 2.771344 1_555
Ge5 V6 2.884477 1_455
Ge5 V1 2.884477 1_455
