# generated using pymatgen
data_Ca2TlIn
_symmetry_space_group_name_H-M   'P 1'
_cell_length_a   3.88063368
_cell_length_b   3.88063368
_cell_length_c   7.61907157
_cell_angle_alpha   90.00000000
_cell_angle_beta   90.00000000
_cell_angle_gamma   90.00000000
_symmetry_Int_Tables_number   1
_chemical_formula_structural   Ca2TlIn
_chemical_formula_sum   'Ca2 Tl1 In1'
_cell_volume   114.73801980
_cell_formula_units_Z   1
loop_
 _symmetry_equiv_pos_site_id
 _symmetry_equiv_pos_as_xyz
  1  'x, y, z'
loop_
 _atom_site_type_symbol
 _atom_site_label
 _atom_site_symmetry_multiplicity
 _atom_site_fract_x
 _atom_site_fract_y
 _atom_site_fract_z
 _atom_site_occupancy
  Ca  Ca0  1  -0.00000000  -0.00000000  0.75047576  1
  Ca  Ca1  1  -0.00000000  -0.00000000  0.24952424  1
  Tl  Tl0  1  0.50000000  0.50000000  0.50000000  1
  In  In0  1  0.50000000  0.50000000  -0.00000000  1
loop_
_geom_bond_atom_site_label_1
_geom_bond_atom_site_label_2
_geom_bond_distance
_geom_bond_site_symmetry_2
Ca0 In0 3.338264 1_556
Ca0 In0 3.338264 1_456
Ca0 In0 3.338264 1_546
Ca0 In0 3.338264 1_446
Ca0 Tl0 3.342398 1_455
Ca0 Tl0 3.342398 1_545
Ca0 Tl0 3.342398 1_555
Ca0 Tl0 3.342398 1_445
Ca1 In0 3.338264 1_445
Ca1 In0 3.338264 1_455
Ca1 In0 3.338264 1_555
Ca1 In0 3.338264 1_545
Ca1 Tl0 3.342398 1_555
Ca1 Tl0 3.342398 1_445
Ca1 Tl0 3.342398 1_455
Ca1 Tl0 3.342398 1_545
