# generated using pymatgen
data_LiTmU2S3O2
_symmetry_space_group_name_H-M   'P 1'
_cell_length_a   3.80849397
_cell_length_b   3.80849397
_cell_length_c   11.26053982
_cell_angle_alpha   89.90363373
_cell_angle_beta   109.90316626
_cell_angle_gamma   89.90960783
_symmetry_Int_Tables_number   1
_chemical_formula_structural   LiTmU2S3O2
_chemical_formula_sum   'Li1 Tm1 U2 S3 O2'
_cell_volume   153.57349525
_cell_formula_units_Z   1
loop_
 _symmetry_equiv_pos_site_id
 _symmetry_equiv_pos_as_xyz
  1  'x, y, z'
loop_
 _atom_site_type_symbol
 _atom_site_label
 _atom_site_symmetry_multiplicity
 _atom_site_fract_x
 _atom_site_fract_y
 _atom_site_fract_z
 _atom_site_occupancy
  Li  Li0  1  0.58836700  0.91575500  0.50412200  1
  Tm  Tm0  1  0.06977900  0.93605600  0.00583500  1
  U  U0  1  0.23810400  0.41198900  0.65009300  1
  U  U1  1  0.93224300  0.42136200  0.35360400  1
  S  S0  1  0.33572700  0.92222500  0.25795200  1
  S  S1  1  0.84162500  0.91341900  0.75504400  1
  S  S2  1  0.58198100  0.43415500  0.01613700  1
  O  O0  1  0.08965400  0.91501400  0.50539200  1
  O  O1  1  0.59037800  0.41573800  0.50539200  1
loop_
_geom_bond_atom_site_label_1
_geom_bond_atom_site_label_2
_geom_bond_distance
_geom_bond_site_symmetry_2
Li0 O1 1.904268 1_565
Li0 O0 1.904268 1_555
Li0 O0 1.904325 1_655
Li0 O1 1.904325 1_555
Li0 S0 2.606557 1_555
Li0 S1 2.656742 1_555
S0 Tm0 2.670197 1_555
S0 U1 2.873972 1_465
S0 U1 2.876348 1_555
S0 U1 2.879134 1_455
S0 U1 2.879139 1_565
S1 Tm0 2.658566 1_656
S1 U0 2.900764 1_565
S1 U0 2.915249 1_555
S1 U0 2.915249 1_665
S1 U0 2.921841 1_655
S2 Tm0 2.683240 1_645
S2 Tm0 2.697357 1_545
S2 Tm0 2.697362 1_655
S2 Tm0 2.702953 1_555
O0 U0 2.437942 1_565
O0 U0 2.450234 1_555
O0 U1 2.476325 1_455
O0 U1 2.507436 1_465
O1 U0 2.437943 1_555
O1 U0 2.450234 1_655
O1 U1 2.476328 1_555
O1 U1 2.507433 1_455
