# generated using pymatgen
data_Na2TbPWO8
_symmetry_space_group_name_H-M   'P 1'
_cell_length_a   11.55409803
_cell_length_b   11.55409803
_cell_length_c   11.55409803
_cell_angle_alpha   144.78110799
_cell_angle_beta   115.58030529
_cell_angle_gamma   75.59759652
_symmetry_Int_Tables_number   1
_chemical_formula_structural   Na2TbPWO8
_chemical_formula_sum   'Na8 Tb4 P4 W4 O32'
_cell_volume   786.13400157
_cell_formula_units_Z   4
loop_
 _symmetry_equiv_pos_site_id
 _symmetry_equiv_pos_as_xyz
  1  'x, y, z'
loop_
 _atom_site_type_symbol
 _atom_site_label
 _atom_site_symmetry_multiplicity
 _atom_site_fract_x
 _atom_site_fract_y
 _atom_site_fract_z
 _atom_site_occupancy
  Na  Na0  1  0.28918400  0.33482600  0.93078100  1
  Na  Na1  1  0.90404400  0.35840200  0.56921900  1
  Na  Na2  1  0.59595600  0.16517400  0.45435800  1
  Na  Na3  1  0.21081600  0.14159800  0.04564200  1
  Na  Na4  1  0.71081600  0.66517400  0.06921900  1
  Na  Na5  1  0.09595600  0.64159800  0.43078100  1
  Na  Na6  1  0.40404400  0.83482600  0.54564200  1
  Na  Na7  1  0.78918400  0.85840200  0.95435800  1
  Tb  Tb0  1  0.32271500  0.75000000  0.07271500  1
  Tb  Tb1  1  0.17728500  0.25000000  0.42728500  1
  Tb  Tb2  1  0.67728500  0.25000000  0.92728500  1
  Tb  Tb3  1  0.82271500  0.75000000  0.57271500  1
  P  P0  1  0.93008100  0.25000000  0.18008100  1
  P  P1  1  0.56991900  0.75000000  0.31991900  1
  P  P2  1  0.06991900  0.75000000  0.81991900  1
  P  P3  1  0.43008100  0.25000000  0.68008100  1
  W  W0  1  0.92875500  0.17875500  0.75000000  1
  W  W1  1  0.57124500  0.32124500  0.25000000  1
  W  W2  1  0.07124500  0.82124500  0.25000000  1
  W  W3  1  0.42875500  0.67875500  0.75000000  1
  O  O0  1  0.93774900  0.19843200  0.27165500  1
  O  O1  1  0.42677700  0.66609400  0.22834500  1
  O  O2  1  0.07322300  0.30156800  0.23931700  1
  O  O3  1  0.56225100  0.83390600  0.26068300  1
  O  O4  1  0.06225100  0.80156800  0.72834500  1
  O  O5  1  0.57322300  0.33390600  0.77165500  1
  O  O6  1  0.92677700  0.69843200  0.76068300  1
  O  O7  1  0.43774900  0.16609400  0.73931700  1
  O  O8  1  0.84307000  0.06799600  0.92797100  1
  O  O9  1  0.64002500  0.91509900  0.57202900  1
  O  O10  1  0.85997500  0.43200400  0.27507400  1
  O  O11  1  0.65693000  0.58490100  0.22492600  1
  O  O12  1  0.15693000  0.93200400  0.07202900  1
  O  O13  1  0.35997500  0.08490100  0.42797100  1
  O  O14  1  0.14002500  0.56799600  0.72492600  1
  O  O15  1  0.34307000  0.41509900  0.77507400  1
  O  O16  1  0.84528600  0.33011500  0.93310200  1
  O  O17  1  0.89701300  0.91218500  0.56689800  1
  O  O18  1  0.60298700  0.16988500  0.01517200  1
  O  O19  1  0.65471400  0.58781600  0.48482800  1
  O  O20  1  0.15471400  0.66988500  0.06689800  1
  O  O21  1  0.10298700  0.08781600  0.43310200  1
  O  O22  1  0.39701300  0.83011500  0.98482800  1
  O  O23  1  0.34528600  0.41218400  0.51517200  1
  O  O24  1  0.86432400  0.18834500  0.58537900  1
  O  O25  1  0.10296600  0.27894600  0.91462100  1
  O  O26  1  0.39703400  0.31165500  0.17598000  1
  O  O27  1  0.63567600  0.22105400  0.32402000  1
  O  O28  1  0.13567600  0.81165500  0.41462100  1
  O  O29  1  0.89703400  0.72105400  0.08537900  1
  O  O30  1  0.60296600  0.68834500  0.82402000  1
  O  O31  1  0.36432400  0.77894600  0.67598000  1
loop_
_geom_bond_atom_site_label_1
_geom_bond_atom_site_label_2
_geom_bond_distance
_geom_bond_site_symmetry_2
Na0 O25 2.286522 1_555
Na0 O1 2.409044 1_556
Na0 O7 2.491741 1_555
Na0 O26 2.770446 1_556
Na0 O15 2.909519 1_555
Na0 O20 3.007381 1_556
Na1 O24 2.286511 1_555
Na1 O0 2.409056 1_555
Na1 O6 2.491753 1_555
Na1 O27 2.770426 1_555
Na1 O14 2.909536 1_655
Na1 O21 3.007385 1_655
Na2 O27 2.286522 1_555
Na2 O3 2.409046 1_545
Na2 O5 2.491748 1_555
Na2 O24 2.770425 1_555
Na2 O13 2.909531 1_555
Na2 O22 3.007390 1_544
Na3 O26 2.286516 1_555
Na3 O2 2.409046 1_555
Na3 O4 2.491748 1_544
Na3 O25 2.770435 1_554
Na3 O12 2.909531 1_545
Na3 O23 3.007393 1_555
Na4 O29 2.286522 1_555
Na4 O5 2.409044 1_554
Na4 O3 2.491741 1_555
Na4 O30 2.770446 1_554
Na4 O11 2.909519 1_555
Na4 O16 3.007381 1_554
Na5 O28 2.286511 1_555
Na5 O4 2.409056 1_555
Na5 O2 2.491753 1_555
Na5 O31 2.770426 1_555
Na5 O10 2.909536 1_455
Na5 O17 3.007390 1_455
Na6 O31 2.286522 1_555
Na6 O7 2.409046 1_565
Na6 O1 2.491748 1_555
Na6 O28 2.770425 1_555
Na6 O9 2.909531 1_555
Na6 O18 3.007390 1_566
Na7 O30 2.286516 1_555
Na7 O6 2.409046 1_555
Na7 O0 2.491748 1_566
Na7 O29 2.770435 1_556
Na7 O8 2.909531 1_565
Na7 O19 3.007393 1_555
O0 P0 1.550858 1_555
O0 Tb1 2.453634 1_655
O1 P1 1.550858 1_555
O1 Tb0 2.453634 1_555
O2 P0 1.550858 1_455
O2 Tb1 2.453634 1_555
O3 P1 1.550858 1_555
O3 Tb0 2.453634 1_555
O4 P2 1.550858 1_555
O4 Tb3 2.453634 1_455
O5 P3 1.550858 1_555
O5 Tb2 2.453634 1_555
O6 P2 1.550858 1_655
O6 Tb3 2.453634 1_555
O7 P3 1.550858 1_555
O7 Tb2 2.453634 1_555
O8 P0 1.559531 1_556
O8 Tb3 2.314724 1_545
O8 Tb2 2.470152 1_555
O9 P1 1.559531 1_555
O9 Tb2 2.314724 1_565
O9 Tb3 2.470152 1_555
O10 P0 1.559531 1_555
O10 Tb3 2.314724 1_555
O10 Tb2 2.470152 1_554
O11 P1 1.559531 1_555
O11 Tb2 2.314724 1_554
O11 Tb3 2.470152 1_555
O12 P2 1.559531 1_554
O12 Tb1 2.314724 1_565
O12 Tb0 2.470152 1_555
O13 P3 1.559531 1_555
O13 Tb0 2.314724 1_545
O13 Tb1 2.470152 1_555
O14 P2 1.559531 1_555
O14 Tb1 2.314724 1_555
O14 Tb0 2.470152 1_556
O15 P3 1.559531 1_555
O15 Tb0 2.314724 1_556
O15 Tb1 2.470152 1_555
O16 W0 1.828093 1_555
O16 Tb2 2.304072 1_555
O17 W0 1.828084 1_565
O17 Tb3 2.304083 1_555
O18 W1 1.828084 1_555
O18 Tb2 2.304083 1_554
O19 W1 1.828094 1_555
O19 Tb3 2.304065 1_555
O20 W2 1.828093 1_555
O20 Tb0 2.304072 1_555
O21 W2 1.828093 1_545
O21 Tb1 2.304072 1_555
O22 W3 1.828084 1_555
O22 Tb0 2.304083 1_556
O23 W3 1.828094 1_555
O23 Tb1 2.304065 1_555
O24 W0 1.806880 1_555
O25 W0 1.806881 1_455
O26 W1 1.806881 1_555
O27 W1 1.806881 1_555
O28 W2 1.806880 1_555
O29 W2 1.806881 1_655
O30 W3 1.806881 1_555
O31 W3 1.806881 1_555
