# generated using pymatgen
data_KNaNb2O6
_symmetry_space_group_name_H-M   'P 1'
_cell_length_a   4.00250500
_cell_length_b   4.08376200
_cell_length_c   8.16265028
_cell_angle_alpha   89.61499761
_cell_angle_beta   90.00000000
_cell_angle_gamma   90.00000000
_symmetry_Int_Tables_number   1
_chemical_formula_structural   KNaNb2O6
_chemical_formula_sum   'K1 Na1 Nb2 O6'
_cell_volume   133.41777450
_cell_formula_units_Z   1
loop_
 _symmetry_equiv_pos_site_id
 _symmetry_equiv_pos_as_xyz
  1  'x, y, z'
loop_
 _atom_site_type_symbol
 _atom_site_label
 _atom_site_symmetry_multiplicity
 _atom_site_fract_x
 _atom_site_fract_y
 _atom_site_fract_z
 _atom_site_occupancy
  K  K0  1  0.50000000  0.48628100  0.24370100  1
  Na  Na0  1  0.50000000  0.50589000  0.75204700  1
  Nb  Nb0  1  0.00000000  0.99933800  0.99633300  1
  Nb  Nb1  1  0.00000000  0.99832100  0.50229700  1
  O  O0  1  0.50000000  0.96042600  0.48480700  1
  O  O1  1  0.50000000  0.95951700  0.97519400  1
  O  O2  1  0.00000000  0.96844800  0.22976100  1
  O  O3  1  0.00000000  0.95842900  0.73307200  1
  O  O4  1  0.00000000  0.46254200  0.48778900  1
  O  O5  1  0.00000000  0.46320700  0.97619800  1
loop_
_geom_bond_atom_site_label_1
_geom_bond_atom_site_label_2
_geom_bond_distance
_geom_bond_site_symmetry_2
K0 O0 2.770149 1_555
K0 O2 2.809293 1_655
K0 O2 2.809293 1_555
K0 O4 2.825153 1_655
K0 O4 2.825153 1_555
K0 O0 2.903117 1_545
K0 O1 2.912324 1_554
K0 O2 2.914306 1_545
K0 O2 2.914306 1_645
K0 O5 2.963861 1_654
K0 O5 2.963861 1_554
K0 O1 3.081332 1_544
Na0 O1 2.606698 1_555
Na0 O5 2.716392 1_555
Na0 O5 2.716392 1_655
Na0 O3 2.727725 1_655
Na0 O3 2.727725 1_555
Na0 O0 2.854746 1_555
Na0 O1 2.870827 1_545
Na0 O4 2.948614 1_555
Na0 O4 2.948614 1_655
Na0 O3 3.005330 1_545
Na0 O3 3.005330 1_645
Nb0 O5 1.900346 1_565
Nb0 O2 1.908716 1_556
Nb0 O1 2.015343 1_455
Nb0 O1 2.015343 1_555
Nb0 O3 2.156511 1_555
Nb0 O5 2.196693 1_555
Nb1 O3 1.889676 1_555
Nb1 O4 1.898669 1_565
Nb1 O0 2.012372 1_455
Nb1 O0 2.012372 1_555
Nb1 O4 2.191991 1_555
Nb1 O2 2.228777 1_555
