# generated using pymatgen
data_Ho5Ni19P12
_symmetry_space_group_name_H-M   'P 1'
_cell_length_a   12.05114190
_cell_length_b   12.05114190
_cell_length_c   3.72990300
_cell_angle_alpha   90.00000000
_cell_angle_beta   90.00000000
_cell_angle_gamma   119.99999945
_symmetry_Int_Tables_number   1
_chemical_formula_structural   Ho5Ni19P12
_chemical_formula_sum   'Ho5 Ni19 P12'
_cell_volume   469.12067354
_cell_formula_units_Z   1
loop_
 _symmetry_equiv_pos_site_id
 _symmetry_equiv_pos_as_xyz
  1  'x, y, z'
loop_
 _atom_site_type_symbol
 _atom_site_label
 _atom_site_symmetry_multiplicity
 _atom_site_fract_x
 _atom_site_fract_y
 _atom_site_fract_z
 _atom_site_occupancy
  Ho  Ho0  1  0.00000000  0.81221000  0.50000000  1
  Ho  Ho1  1  0.18779000  0.18779000  0.50000000  1
  Ho  Ho2  1  0.81221000  0.00000000  0.50000000  1
  Ho  Ho3  1  0.66666700  0.33333300  0.00000000  1
  Ho  Ho4  1  0.33333300  0.66666700  0.00000000  1
  Ni  Ni0  1  0.00000000  0.28457400  0.50000000  1
  Ni  Ni1  1  0.37998600  0.18259500  0.00000000  1
  Ni  Ni2  1  0.80260800  0.62001400  0.00000000  1
  Ni  Ni3  1  0.81740500  0.19739200  0.00000000  1
  Ni  Ni4  1  0.18259500  0.37998600  0.00000000  1
  Ni  Ni5  1  0.19739200  0.81740500  0.00000000  1
  Ni  Ni6  1  0.87482200  0.51466200  0.50000000  1
  Ni  Ni7  1  0.63984100  0.12517800  0.50000000  1
  Ni  Ni8  1  0.48533800  0.36015900  0.50000000  1
  Ni  Ni9  1  0.36015900  0.48533800  0.50000000  1
  Ni  Ni10  1  0.12517800  0.63984100  0.50000000  1
  Ni  Ni11  1  0.51466200  0.87482200  0.50000000  1
  Ni  Ni12  1  0.28457400  0.00000000  0.50000000  1
  Ni  Ni13  1  0.00000000  0.44700700  0.00000000  1
  Ni  Ni14  1  0.55299300  0.55299300  0.00000000  1
  Ni  Ni15  1  0.44700700  0.00000000  0.00000000  1
  Ni  Ni16  1  0.00000000  0.00000000  0.00000000  1
  Ni  Ni17  1  0.62001400  0.80260800  0.00000000  1
  Ni  Ni18  1  0.71542600  0.71542600  0.50000000  1
  P  P0  1  0.68732900  0.52059300  0.50000000  1
  P  P1  1  0.47940700  0.16673600  0.50000000  1
  P  P2  1  0.83326400  0.31267100  0.50000000  1
  P  P3  1  0.31267100  0.83326400  0.50000000  1
  P  P4  1  0.16673600  0.47940700  0.50000000  1
  P  P5  1  0.82184800  0.82184800  0.00000000  1
  P  P6  1  0.17815200  0.00000000  0.00000000  1
  P  P7  1  0.00000000  0.63262300  0.00000000  1
  P  P8  1  0.36737700  0.36737700  0.00000000  1
  P  P9  1  0.63262300  0.00000000  0.00000000  1
  P  P10  1  0.52059300  0.68732900  0.50000000  1
  P  P11  1  0.00000000  0.17815200  0.00000000  1
loop_
_geom_bond_atom_site_label_1
_geom_bond_atom_site_label_2
_geom_bond_distance
_geom_bond_site_symmetry_2
Ho0 P7 2.856909 1_556
Ho0 P7 2.856909 1_555
Ho0 P5 2.889676 1_456
Ho0 P5 2.889676 1_455
Ho0 P6 2.889676 1_566
Ho0 P6 2.889676 1_565
Ho0 Ni16 2.932506 1_566
Ho0 Ni16 2.932506 1_565
Ho0 Ni2 2.998615 1_456
Ho0 Ni2 2.998615 1_455
Ho0 Ni5 2.998620 1_555
Ho0 Ni5 2.998620 1_556
Ho0 Ni18 3.020183 1_455
Ho0 Ni12 3.020183 1_565
Ho0 Ni10 3.118369 1_555
Ho0 Ni6 3.118380 1_455
Ho1 P8 2.856909 1_556
Ho1 P8 2.856909 1_555
Ho1 P6 2.889676 1_556
Ho1 P11 2.889676 1_555
Ho1 P11 2.889676 1_556
Ho1 P6 2.889676 1_555
Ho1 Ni16 2.932506 1_555
Ho1 Ni16 2.932506 1_556
Ho1 Ni1 2.998611 1_555
Ho1 Ni1 2.998611 1_556
Ho1 Ni4 2.998611 1_556
Ho1 Ni4 2.998611 1_555
Ho1 Ni0 3.020183 1_555
Ho1 Ni12 3.020183 1_555
Ho1 Ni9 3.118379 1_555
Ho1 Ni8 3.118379 1_555
Ho2 P9 2.856909 1_555
Ho2 P9 2.856909 1_556
Ho2 P5 2.889676 1_545
Ho2 P5 2.889676 1_546
Ho2 P11 2.889676 1_655
Ho2 P11 2.889676 1_656
Ho2 Ni16 2.932506 1_655
Ho2 Ni16 2.932506 1_656
Ho2 Ni17 2.998615 1_545
Ho2 Ni17 2.998615 1_546
Ho2 Ni3 2.998620 1_556
Ho2 Ni3 2.998620 1_555
Ho2 Ni18 3.020183 1_545
Ho2 Ni0 3.020183 1_655
Ho2 Ni7 3.118369 1_555
Ho2 Ni11 3.118380 1_545
Ho3 P2 2.840908 1_555
Ho3 P2 2.840908 1_554
Ho3 P1 2.840913 1_554
Ho3 P1 2.840913 1_555
Ho3 P0 2.840917 1_554
Ho3 P0 2.840917 1_555
Ho3 Ni3 2.993281 1_555
Ho3 Ni1 2.993301 1_555
Ho3 Ni2 2.993302 1_555
Ho3 Ni8 3.010680 1_555
Ho3 Ni8 3.010680 1_554
Ho3 Ni7 3.010680 1_555
Ho3 Ni7 3.010680 1_554
Ho3 Ni6 3.010680 1_554
Ho3 Ni6 3.010680 1_555
Ho4 P3 2.840908 1_554
Ho4 P3 2.840908 1_555
Ho4 P4 2.840913 1_555
Ho4 P4 2.840913 1_554
Ho4 P10 2.840917 1_554
Ho4 P10 2.840917 1_555
Ho4 Ni5 2.993281 1_555
Ho4 Ni4 2.993301 1_555
Ho4 Ni17 2.993302 1_555
Ho4 Ni9 3.010680 1_554
Ho4 Ni9 3.010680 1_555
Ho4 Ni10 3.010680 1_555
Ho4 Ni10 3.010680 1_554
Ho4 Ni11 3.010680 1_554
Ho4 Ni11 3.010680 1_555
Ni0 P2 2.198305 1_455
Ni0 P4 2.198305 1_555
Ni0 P11 2.263375 1_555
Ni0 P11 2.263375 1_556
Ni1 P1 2.275761 1_555
Ni1 P1 2.275761 1_554
Ni1 P8 2.306567 1_555
Ni1 P6 2.325090 1_555
Ni2 P0 2.275757 1_555
Ni2 P0 2.275757 1_554
Ni2 P7 2.306580 1_655
Ni2 P5 2.325085 1_555
Ni3 P2 2.275754 1_555
Ni3 P2 2.275754 1_554
Ni3 P9 2.306574 1_555
Ni3 P11 2.325097 1_655
Ni4 P4 2.275761 1_555
Ni4 P4 2.275761 1_554
Ni4 P8 2.306567 1_555
Ni4 P11 2.325090 1_555
Ni5 P3 2.275754 1_554
Ni5 P3 2.275754 1_555
Ni5 P7 2.306574 1_555
Ni5 P6 2.325097 1_565
Ni6 P2 2.226466 1_555
Ni6 P0 2.296077 1_555
Ni6 P7 2.372782 1_656
Ni6 P7 2.372782 1_655
Ni7 P1 2.226477 1_555
Ni7 P2 2.296071 1_555
Ni7 P9 2.372778 1_555
Ni7 P9 2.372778 1_556
Ni8 P0 2.226470 1_555
Ni8 P1 2.296065 1_555
Ni8 P8 2.372786 1_555
Ni8 P8 2.372786 1_556
Ni9 P10 2.226470 1_555
Ni9 P4 2.296065 1_555
Ni9 P8 2.372786 1_555
Ni9 P8 2.372786 1_556
Ni10 P4 2.226477 1_555
Ni10 P3 2.296071 1_555
Ni10 P7 2.372778 1_556
Ni10 P7 2.372778 1_555
Ni11 P3 2.226466 1_555
Ni11 P10 2.296077 1_555
Ni11 P9 2.372782 1_565
Ni11 P9 2.372782 1_566
Ni12 P3 2.198305 1_545
Ni12 P1 2.198305 1_555
Ni12 P6 2.263375 1_555
Ni12 P6 2.263375 1_556
Ni13 P7 2.236885 1_555
Ni13 P4 2.623634 1_555
Ni13 P4 2.623634 1_554
Ni13 P2 2.623634 1_454
Ni13 P2 2.623634 1_455
Ni14 P8 2.236885 1_555
Ni14 P0 2.623634 1_555
Ni14 P10 2.623634 1_555
Ni14 P10 2.623634 1_554
Ni14 P0 2.623634 1_554
Ni15 P9 2.236885 1_555
Ni15 P1 2.623634 1_555
Ni15 P1 2.623634 1_554
Ni15 P3 2.623634 1_545
Ni15 P3 2.623634 1_544
Ni16 P11 2.146935 1_555
Ni16 P6 2.146935 1_555
Ni16 P5 2.146935 1_445
Ni17 P10 2.275757 1_555
Ni17 P10 2.275757 1_554
Ni17 P9 2.306580 1_565
Ni17 P5 2.325085 1_555
Ni18 P0 2.198305 1_555
Ni18 P10 2.198305 1_555
Ni18 P5 2.263375 1_555
Ni18 P5 2.263375 1_556
