# generated using pymatgen
data_Ti3Al
_symmetry_space_group_name_H-M   'P 1'
_cell_length_a   5.74770194
_cell_length_b   5.74769387
_cell_length_c   4.63054727
_cell_angle_alpha   90.00000000
_cell_angle_beta   90.00000000
_cell_angle_gamma   120.00047783
_symmetry_Int_Tables_number   1
_chemical_formula_structural   Ti3Al
_chemical_formula_sum   'Ti6 Al2'
_cell_volume   132.47951529
_cell_formula_units_Z   2
loop_
 _symmetry_equiv_pos_site_id
 _symmetry_equiv_pos_as_xyz
  1  'x, y, z'
loop_
 _atom_site_type_symbol
 _atom_site_label
 _atom_site_symmetry_multiplicity
 _atom_site_fract_x
 _atom_site_fract_y
 _atom_site_fract_z
 _atom_site_occupancy
  Ti  Ti0  1  0.82990567  0.65979326  0.25000000  1
  Ti  Ti1  1  0.17010809  0.82989598  0.75000000  1
  Ti  Ti2  1  0.65979178  0.82990528  0.75000000  1
  Ti  Ti3  1  0.34020565  0.17009363  0.25000000  1
  Ti  Ti4  1  0.82989468  0.17010531  0.25000000  1
  Ti  Ti5  1  0.17009672  0.34020729  0.75000000  1
  Al  Al0  1  0.33333460  0.66665870  0.25000000  1
  Al  Al1  1  0.66666282  0.33333954  0.75000000  1
loop_
_geom_bond_atom_site_label_1
_geom_bond_atom_site_label_2
_geom_bond_distance
_geom_bond_site_symmetry_2
Ti0 Ti4 2.814545 1_555
Ti0 Ti3 2.814626 1_555
Ti0 Ti1 2.868467 1_655
Ti0 Ti1 2.868467 1_654
Ti0 Ti2 2.868543 1_554
Ti0 Ti2 2.868543 1_555
Ti0 Ti3 2.933030 1_665
Ti0 Ti4 2.933149 1_565
Ti1 Ti2 2.814529 1_555
Ti1 Ti5 2.814548 1_555
Ti1 Ti3 2.868452 1_565
Ti1 Ti3 2.868452 1_566
Ti1 Ti5 2.933146 1_565
Ti1 Ti2 2.933173 1_455
Ti2 Ti5 2.814607 1_555
Ti2 Ti4 2.868459 1_566
Ti2 Ti4 2.868459 1_565
Ti2 Ti5 2.933049 1_665
Ti3 Ti4 2.814553 1_555
Ti3 Ti5 2.868533 1_554
Ti3 Ti5 2.868533 1_555
Ti3 Ti4 2.933149 1_455
Ti4 Ti5 2.868466 1_655
Ti4 Ti5 2.868466 1_654
Al0 Ti5 2.828597 1_554
Al0 Ti5 2.828597 1_555
Al0 Ti2 2.828615 1_554
Al0 Ti2 2.828615 1_555
Al0 Ti1 2.828640 1_555
Al0 Ti1 2.828640 1_554
Al0 Ti4 2.874013 1_455
Al0 Ti0 2.874032 1_455
Al0 Ti3 2.874047 1_565
Al0 Ti4 2.874052 1_565
Al0 Ti3 2.874054 1_555
Al0 Ti0 2.874076 1_555
Al1 Ti0 2.828604 1_556
Al1 Ti0 2.828604 1_555
Al1 Ti3 2.828615 1_555
Al1 Ti3 2.828615 1_556
Al1 Ti4 2.828647 1_555
Al1 Ti4 2.828647 1_556
Al1 Ti1 2.874028 1_545
Al1 Ti1 2.874038 1_655
Al1 Ti2 2.874043 1_545
Al1 Ti5 2.874054 1_655
Al1 Ti5 2.874054 1_555
Al1 Ti2 2.874058 1_555
