# generated using pymatgen
data_Gd3BiO3
_symmetry_space_group_name_H-M   'P 1'
_cell_length_a   6.94906253
_cell_length_b   6.94906253
_cell_length_c   11.90135165
_cell_angle_alpha   62.68651930
_cell_angle_beta   62.68651930
_cell_angle_gamma   33.08890645
_symmetry_Int_Tables_number   1
_chemical_formula_structural   Gd3BiO3
_chemical_formula_sum   'Gd6 Bi2 O6'
_cell_volume   275.47598828
_cell_formula_units_Z   2
loop_
 _symmetry_equiv_pos_site_id
 _symmetry_equiv_pos_as_xyz
  1  'x, y, z'
loop_
 _atom_site_type_symbol
 _atom_site_label
 _atom_site_symmetry_multiplicity
 _atom_site_fract_x
 _atom_site_fract_y
 _atom_site_fract_z
 _atom_site_occupancy
  Gd  Gd0  1  0.12115405  0.12115405  0.56041819  1
  Gd  Gd1  1  0.87884595  0.87884595  0.43958181  1
  Gd  Gd2  1  0.34617559  0.34617559  0.20481981  1
  Gd  Gd3  1  0.65382441  0.65382441  0.79518019  1
  Gd  Gd4  1  0.87091765  0.87091765  0.90268438  1
  Gd  Gd5  1  0.12908235  0.12908235  0.09731562  1
  Bi  Bi0  1  0.38060562  0.38060562  0.68010091  1
  Bi  Bi1  1  0.61939438  0.61939438  0.31989909  1
  O  O0  1  0.30999369  0.30999369  0.40863460  1
  O  O1  1  0.69000631  0.69000631  0.59136540  1
  O  O2  1  0.33804370  0.33804370  0.01312786  1
  O  O3  1  0.66195630  0.66195630  0.98687214  1
  O  O4  1  0.93696982  0.93696982  0.19530166  1
  O  O5  1  0.06303018  0.06303018  0.80469834  1
loop_
_geom_bond_atom_site_label_1
_geom_bond_atom_site_label_2
_geom_bond_distance
_geom_bond_site_symmetry_2
Gd0 O1 2.283906 1_455
Gd0 O1 2.283906 1_545
Gd0 O0 2.289505 1_555
Gd0 O5 2.626128 1_555
Gd1 O0 2.283906 1_655
Gd1 O0 2.283906 1_565
Gd1 O1 2.289505 1_555
Gd1 O4 2.626128 1_555
Gd2 O0 2.235361 1_555
Gd2 O4 2.293585 1_455
Gd2 O4 2.293585 1_545
Gd2 O2 2.335191 1_555
Gd3 O1 2.235361 1_555
Gd3 O5 2.293585 1_655
Gd3 O5 2.293585 1_565
Gd3 O3 2.335191 1_555
Gd4 O5 2.247961 1_665
Gd4 O2 2.298715 1_656
Gd4 O2 2.298715 1_566
Gd4 O3 2.466536 1_555
Gd5 O4 2.247961 1_445
Gd5 O3 2.298715 1_454
Gd5 O3 2.298715 1_544
Gd5 O2 2.466536 1_555
Bi0 Gd4 3.259210 1_545
Bi0 Gd4 3.259210 1_455
Bi0 Gd3 3.310356 1_545
Bi0 Gd3 3.310356 1_455
Bi0 Gd0 3.441645 1_565
Bi0 Gd0 3.441645 1_655
Bi0 Gd1 3.489183 1_455
Bi0 Gd1 3.489183 1_545
Bi1 Gd5 3.259210 1_655
Bi1 Gd5 3.259210 1_565
Bi1 Gd2 3.310356 1_655
Bi1 Gd2 3.310356 1_565
Bi1 Gd1 3.441645 1_545
Bi1 Gd1 3.441645 1_455
Bi1 Gd0 3.489183 1_565
Bi1 Gd0 3.489183 1_655
