# generated using pymatgen
data_Hf3Si
_symmetry_space_group_name_H-M   'P 1'
_cell_length_a   6.06496546
_cell_length_b   6.06496546
_cell_length_c   4.88965100
_cell_angle_alpha   90.00000000
_cell_angle_beta   90.00000000
_cell_angle_gamma   119.99999406
_symmetry_Int_Tables_number   1
_chemical_formula_structural   Hf3Si
_chemical_formula_sum   'Hf6 Si2'
_cell_volume   155.76331564
_cell_formula_units_Z   2
loop_
 _symmetry_equiv_pos_site_id
 _symmetry_equiv_pos_as_xyz
  1  'x, y, z'
loop_
 _atom_site_type_symbol
 _atom_site_label
 _atom_site_symmetry_multiplicity
 _atom_site_fract_x
 _atom_site_fract_y
 _atom_site_fract_z
 _atom_site_occupancy
  Hf  Hf0  1  0.82916900  0.65833700  0.75000000  1
  Hf  Hf1  1  0.34166300  0.17083100  0.75000000  1
  Hf  Hf2  1  0.17083100  0.82916900  0.25000000  1
  Hf  Hf3  1  0.17083100  0.34166300  0.25000000  1
  Hf  Hf4  1  0.65833700  0.82916900  0.25000000  1
  Hf  Hf5  1  0.82916900  0.17083100  0.75000000  1
  Si  Si0  1  0.66666700  0.33333300  0.25000000  1
  Si  Si1  1  0.33333300  0.66666700  0.75000000  1
loop_
_geom_bond_atom_site_label_1
_geom_bond_atom_site_label_2
_geom_bond_distance
_geom_bond_site_symmetry_2
Hf0 Hf5 2.956707 1_555
Hf0 Hf1 2.956707 1_555
Hf0 Si0 2.981813 1_556
Hf0 Si0 2.981813 1_555
Hf0 Hf2 3.032752 1_655
Hf0 Hf2 3.032752 1_656
Hf0 Hf4 3.032758 1_555
Hf0 Hf4 3.032758 1_556
Hf0 Si1 3.032792 1_655
Hf0 Si1 3.032804 1_555
Hf0 Hf5 3.108258 1_565
Hf0 Hf1 3.108259 1_665
Hf1 Hf5 2.956707 1_555
Hf1 Si0 2.981813 1_556
Hf1 Si0 2.981813 1_555
Hf1 Hf2 3.032752 1_546
Hf1 Hf2 3.032752 1_545
Hf1 Hf3 3.032758 1_555
Hf1 Hf3 3.032758 1_556
Hf1 Si1 3.032792 1_545
Hf1 Si1 3.032804 1_555
Hf1 Hf5 3.108258 1_455
Hf2 Hf4 2.956707 1_555
Hf2 Hf3 2.956707 1_555
Hf2 Si1 2.981813 1_554
Hf2 Si1 2.981813 1_555
Hf2 Si0 3.032798 1_565
Hf2 Si0 3.032798 1_455
Hf2 Hf3 3.108258 1_565
Hf2 Hf4 3.108258 1_455
Hf3 Hf4 2.956707 1_555
Hf3 Si1 2.981813 1_555
Hf3 Si1 2.981813 1_554
Hf3 Hf5 3.032752 1_454
Hf3 Hf5 3.032752 1_455
Hf3 Si0 3.032792 1_455
Hf3 Si0 3.032804 1_555
Hf3 Hf4 3.108259 1_445
Hf4 Si1 2.981813 1_555
Hf4 Si1 2.981813 1_554
Hf4 Hf5 3.032752 1_565
Hf4 Hf5 3.032752 1_564
Hf4 Si0 3.032792 1_565
Hf4 Si0 3.032804 1_555
Hf5 Si0 2.981813 1_555
Hf5 Si0 2.981813 1_556
Hf5 Si1 3.032798 1_655
Hf5 Si1 3.032798 1_545
