# generated using pymatgen
data_Dy3Ga8Ir3
_symmetry_space_group_name_H-M   'P 1'
_cell_length_a   8.17359938
_cell_length_b   8.17359938
_cell_length_c   8.17359938
_cell_angle_alpha   150.19397118
_cell_angle_beta   105.55479296
_cell_angle_gamma   82.19089885
_symmetry_Int_Tables_number   1
_chemical_formula_structural   Dy3Ga8Ir3
_chemical_formula_sum   'Dy3 Ga8 Ir3'
_cell_volume   256.08632004
_cell_formula_units_Z   1
loop_
 _symmetry_equiv_pos_site_id
 _symmetry_equiv_pos_as_xyz
  1  'x, y, z'
loop_
 _atom_site_type_symbol
 _atom_site_label
 _atom_site_symmetry_multiplicity
 _atom_site_fract_x
 _atom_site_fract_y
 _atom_site_fract_z
 _atom_site_occupancy
  Dy  Dy0  1  0.50000000  0.50000000  0.00000000  1
  Dy  Dy1  1  0.16806800  0.16806800  0.00000000  1
  Dy  Dy2  1  0.83193200  0.83193200  0.00000000  1
  Ga  Ga0  1  0.08930500  0.37470300  0.71460200  1
  Ga  Ga1  1  0.91069500  0.62529700  0.28539800  1
  Ga  Ga2  1  0.66010200  0.37470300  0.28539800  1
  Ga  Ga3  1  0.33989800  0.62529700  0.71460200  1
  Ga  Ga4  1  0.79643900  0.16795000  0.62848900  1
  Ga  Ga5  1  0.20356100  0.83205000  0.37151100  1
  Ga  Ga6  1  0.53946100  0.16795000  0.37151100  1
  Ga  Ga7  1  0.46053900  0.83205000  0.62848900  1
  Ir  Ir0  1  0.00000000  0.50000000  0.50000000  1
  Ir  Ir1  1  0.78120800  0.00000000  0.78120800  1
  Ir  Ir2  1  0.21879200  0.00000000  0.21879200  1
loop_
_geom_bond_atom_site_label_1
_geom_bond_atom_site_label_2
_geom_bond_distance
_geom_bond_site_symmetry_2
Dy0 Ga6 3.211585 1_554
Dy0 Ga5 3.211585 1_544
Dy0 Ga5 3.211585 1_555
Dy0 Ga4 3.211585 1_554
Dy0 Ga4 3.211585 1_565
Dy0 Ga6 3.211585 1_565
Dy0 Ga7 3.211585 1_544
Dy0 Ga7 3.211585 1_555
Dy0 Ga0 3.216751 1_554
Dy0 Ga1 3.216751 1_555
Dy0 Ga2 3.216753 1_555
Dy0 Ga3 3.216753 1_554
Dy0 Ir2 3.485906 1_554
Dy0 Ir1 3.485906 1_565
Dy0 Ir2 3.485906 1_565
Dy0 Ir1 3.485906 1_554
Dy1 Ir0 2.950580 1_544
Dy1 Ir0 2.950580 1_555
Dy1 Ir1 2.994662 1_454
Dy1 Ir2 2.994662 1_555
Dy1 Ga3 3.033135 1_544
Dy1 Ga3 3.033138 1_555
Dy1 Ga1 3.033139 1_455
Dy1 Ga1 3.033139 1_444
Dy1 Ga5 3.180312 1_555
Dy1 Ga7 3.180312 1_555
Dy1 Ga7 3.180312 1_544
Dy1 Ga5 3.180312 1_544
Dy2 Ir0 2.950580 1_665
Dy2 Ir0 2.950580 1_654
Dy2 Ir1 2.994662 1_564
Dy2 Ir2 2.994662 1_665
Dy2 Ga2 3.033135 1_565
Dy2 Ga2 3.033138 1_554
Dy2 Ga0 3.033139 1_654
Dy2 Ga0 3.033139 1_665
Dy2 Ga4 3.180312 1_565
Dy2 Ga6 3.180312 1_565
Dy2 Ga6 3.180312 1_554
Dy2 Ga4 3.180312 1_554
Ga0 Ir2 2.608314 1_566
Ga0 Ir2 2.608314 1_555
Ga0 Ir0 2.624136 1_555
Ga0 Ga5 2.665055 1_556
Ga0 Ga5 2.665055 1_545
Ga0 Ga4 2.685668 1_455
Ga1 Ir1 2.608314 1_554
Ga1 Ir1 2.608314 1_565
Ga1 Ir0 2.624136 1_655
Ga1 Ga4 2.665055 1_554
Ga1 Ga4 2.665055 1_565
Ga1 Ga5 2.685668 1_655
Ga2 Ir1 2.608308 1_554
Ga2 Ir1 2.608312 1_565
Ga2 Ir0 2.624129 1_655
Ga2 Ga7 2.665057 1_544
Ga2 Ga7 2.665061 1_555
Ga2 Ga6 2.685672 1_555
Ga3 Ir2 2.608308 1_566
Ga3 Ir2 2.608312 1_555
Ga3 Ir0 2.624129 1_555
Ga3 Ga6 2.665057 1_566
Ga3 Ga6 2.665061 1_555
Ga3 Ga7 2.685672 1_555
Ga4 Ga6 2.541162 1_555
Ga4 Ir1 2.561575 1_555
Ga5 Ga7 2.541162 1_555
Ga5 Ir2 2.561575 1_565
Ga6 Ir2 2.561575 1_555
Ga7 Ir1 2.561575 1_565
