# generated using pymatgen
data_DyNi4Au
_symmetry_space_group_name_H-M   'P 1'
_cell_length_a   4.87784192
_cell_length_b   4.87783413
_cell_length_c   4.87783413
_cell_angle_alpha   60.00594475
_cell_angle_beta   60.00599303
_cell_angle_gamma   60.00599303
_symmetry_Int_Tables_number   1
_chemical_formula_structural   DyNi4Au
_chemical_formula_sum   'Dy1 Ni4 Au1'
_cell_volume   82.07778467
_cell_formula_units_Z   1
loop_
 _symmetry_equiv_pos_site_id
 _symmetry_equiv_pos_as_xyz
  1  'x, y, z'
loop_
 _atom_site_type_symbol
 _atom_site_label
 _atom_site_symmetry_multiplicity
 _atom_site_fract_x
 _atom_site_fract_y
 _atom_site_fract_z
 _atom_site_occupancy
  Dy  Dy0  1  -0.00000942  0.99999395  0.99999395  1
  Ni  Ni0  1  0.62403996  0.62404028  0.12788101  1
  Ni  Ni1  1  0.62403996  0.12788101  0.62404028  1
  Ni  Ni2  1  0.12788023  0.62404010  0.62404010  1
  Ni  Ni3  1  0.62403652  0.62403699  0.62403699  1
  Au  Au0  1  0.25001275  0.25000867  0.25000867  1
loop_
_geom_bond_atom_site_label_1
_geom_bond_atom_site_label_2
_geom_bond_distance
_geom_bond_site_symmetry_2
Dy0 Ni1 2.861791 1_465
Dy0 Ni0 2.861791 1_456
Dy0 Ni2 2.861798 1_555
Dy0 Ni0 2.862097 1_466
Dy0 Ni1 2.862097 1_466
Dy0 Ni2 2.862100 1_556
Dy0 Ni2 2.862100 1_565
Dy0 Ni1 2.862113 1_565
Dy0 Ni0 2.862113 1_556
Dy0 Ni3 2.862137 1_456
Dy0 Ni3 2.862137 1_465
Dy0 Ni3 2.862152 1_555
Ni0 Ni3 2.420150 1_555
Ni0 Ni1 2.420400 1_555
Ni0 Ni2 2.420404 1_555
Ni0 Ni3 2.457684 1_554
Ni0 Ni1 2.457872 1_564
Ni0 Ni2 2.457875 1_654
Ni1 Ni3 2.420150 1_555
Ni1 Ni2 2.420404 1_555
Ni1 Ni3 2.457684 1_545
Ni1 Ni2 2.457875 1_645
Ni2 Ni3 2.420157 1_555
Ni2 Ni3 2.457685 1_455
Au0 Ni0 2.857771 1_555
Au0 Ni1 2.857771 1_555
Au0 Ni2 2.857776 1_555
Au0 Ni0 2.858114 1_545
Au0 Ni1 2.858114 1_554
Au0 Ni2 2.858123 1_554
Au0 Ni2 2.858123 1_545
Au0 Ni3 2.858124 1_545
Au0 Ni3 2.858124 1_554
Au0 Ni1 2.858136 1_455
Au0 Ni0 2.858136 1_455
Au0 Ni3 2.858146 1_455
Au0 Dy0 2.987123 1_544
Au0 Dy0 2.987193 1_644
Au0 Dy0 2.987217 1_545
Au0 Dy0 2.987217 1_554
