# generated using pymatgen
data_CeCO4
_symmetry_space_group_name_H-M   'P 1'
_cell_length_a   11.79576959
_cell_length_b   11.79576959
_cell_length_c   10.16942700
_cell_angle_alpha   90.00000000
_cell_angle_beta   90.00000000
_cell_angle_gamma   119.99999768
_symmetry_Int_Tables_number   1
_chemical_formula_structural   CeCO4
_chemical_formula_sum   'Ce18 C18 O72'
_cell_volume   1225.40510786
_cell_formula_units_Z   18
loop_
 _symmetry_equiv_pos_site_id
 _symmetry_equiv_pos_as_xyz
  1  'x, y, z'
loop_
 _atom_site_type_symbol
 _atom_site_label
 _atom_site_symmetry_multiplicity
 _atom_site_fract_x
 _atom_site_fract_y
 _atom_site_fract_z
 _atom_site_occupancy
  Ce  Ce0  1  0.55717200  0.10752700  0.74610700  1
  Ce  Ce1  1  0.89247300  0.44964600  0.74610700  1
  Ce  Ce2  1  0.55035400  0.44282800  0.74610700  1
  Ce  Ce3  1  0.55717200  0.10752700  0.25389300  1
  Ce  Ce4  1  0.89247300  0.44964600  0.25389300  1
  Ce  Ce5  1  0.55035400  0.44282800  0.25389300  1
  Ce  Ce6  1  0.88253600  0.77377600  0.75477000  1
  Ce  Ce7  1  0.22622400  0.10876000  0.75477000  1
  Ce  Ce8  1  0.89124000  0.11746400  0.75477000  1
  Ce  Ce9  1  0.88253600  0.77377600  0.24523000  1
  Ce  Ce10  1  0.22622400  0.10876000  0.24523000  1
  Ce  Ce11  1  0.89124000  0.11746400  0.24523000  1
  Ce  Ce12  1  0.55940000  0.77991600  0.75142700  1
  Ce  Ce13  1  0.22008400  0.77948400  0.75142700  1
  Ce  Ce14  1  0.22051600  0.44060000  0.75142700  1
  Ce  Ce15  1  0.55940000  0.77991600  0.24857300  1
  Ce  Ce16  1  0.22008400  0.77948400  0.24857300  1
  Ce  Ce17  1  0.22051600  0.44060000  0.24857300  1
  C  C0  1  0.02174600  0.83067700  0.50000000  1
  C  C1  1  0.16932300  0.19106900  0.50000000  1
  C  C2  1  0.80893100  0.97825400  0.50000000  1
  C  C3  1  0.46285300  0.21259400  0.50000000  1
  C  C4  1  0.78740600  0.25025900  0.50000000  1
  C  C5  1  0.74974100  0.53714700  0.50000000  1
  C  C6  1  0.49435200  0.86070200  0.50000000  1
  C  C7  1  0.13929800  0.63365000  0.50000000  1
  C  C8  1  0.36635000  0.50564800  0.50000000  1
  C  C9  1  0.79535300  0.91771300  0.00000000  1
  C  C10  1  0.08228700  0.87764000  0.00000000  1
  C  C11  1  0.12236000  0.20464700  0.00000000  1
  C  C12  1  0.42313400  0.55191300  0.00000000  1
  C  C13  1  0.44808700  0.87122100  0.00000000  1
  C  C14  1  0.12877900  0.57686600  0.00000000  1
  C  C15  1  0.47177100  0.16271000  0.00000000  1
  C  C16  1  0.83729000  0.30906100  0.00000000  1
  C  C17  1  0.69093900  0.52822900  0.00000000  1
  O  O0  1  0.90823900  0.82175200  0.50000000  1
  O  O1  1  0.17824800  0.08648700  0.50000000  1
  O  O2  1  0.91351300  0.09176100  0.50000000  1
  O  O3  1  0.07406400  0.83194000  0.61176700  1
  O  O4  1  0.16806000  0.24212400  0.61176700  1
  O  O5  1  0.75787600  0.92593600  0.61176700  1
  O  O6  1  0.07406400  0.83194000  0.38823300  1
  O  O7  1  0.16806000  0.24212400  0.38823300  1
  O  O8  1  0.75787600  0.92593600  0.38823300  1
  O  O9  1  0.52925700  0.15401700  0.50000000  1
  O  O10  1  0.84598300  0.37524000  0.50000000  1
  O  O11  1  0.62476000  0.47074300  0.50000000  1
  O  O12  1  0.75751600  0.18673700  0.61083800  1
  O  O13  1  0.81326300  0.57077900  0.61083800  1
  O  O14  1  0.42922100  0.24248400  0.61083800  1
  O  O15  1  0.75751600  0.18673700  0.38916200  1
  O  O16  1  0.81326300  0.57077900  0.38916200  1
  O  O17  1  0.42922100  0.24248400  0.38916200  1
  O  O18  1  0.50800400  0.75921200  0.50000000  1
  O  O19  1  0.24078800  0.74879300  0.50000000  1
  O  O20  1  0.25120700  0.49199600  0.50000000  1
  O  O21  1  0.49048600  0.91067900  0.61156400  1
  O  O22  1  0.08932100  0.57980700  0.61156400  1
  O  O23  1  0.42019300  0.50951400  0.61156400  1
  O  O24  1  0.49048600  0.91067900  0.38843600  1
  O  O25  1  0.08932100  0.57980700  0.38843600  1
  O  O26  1  0.42019300  0.50951400  0.38843600  1
  O  O27  1  0.95744500  0.82293200  0.00000000  1
  O  O28  1  0.17706800  0.13451300  0.00000000  1
  O  O29  1  0.86548700  0.04255500  0.00000000  1
  O  O30  1  0.75993900  0.85402800  0.88931200  1
  O  O31  1  0.14597200  0.90591000  0.88931200  1
  O  O32  1  0.09409000  0.24006100  0.88931200  1
  O  O33  1  0.75993900  0.85402800  0.11068800  1
  O  O34  1  0.14597200  0.90591000  0.11068800  1
  O  O35  1  0.09409000  0.24006100  0.11068800  1
  O  O36  1  0.51247900  0.81040300  0.00000000  1
  O  O37  1  0.18959700  0.70207600  0.00000000  1
  O  O38  1  0.29792400  0.48752100  0.00000000  1
  O  O39  1  0.48696800  0.58444300  0.88926200  1
  O  O40  1  0.41555700  0.90252400  0.88926200  1
  O  O41  1  0.09747600  0.51303200  0.88926200  1
  O  O42  1  0.48696800  0.58444300  0.11073800  1
  O  O43  1  0.41555700  0.90252400  0.11073800  1
  O  O44  1  0.09747600  0.51303200  0.11073800  1
  O  O45  1  0.57640200  0.15402900  0.00000000  1
  O  O46  1  0.84597100  0.42237200  0.00000000  1
  O  O47  1  0.57762800  0.42359800  0.00000000  1
  O  O48  1  0.42081600  0.16481800  0.88866000  1
  O  O49  1  0.83518200  0.25599800  0.88866000  1
  O  O50  1  0.74400200  0.57918400  0.88866000  1
  O  O51  1  0.42081600  0.16481800  0.11134000  1
  O  O52  1  0.83518200  0.25599800  0.11134000  1
  O  O53  1  0.74400200  0.57918400  0.11134000  1
  O  O54  1  0.66666700  0.33333300  0.75100200  1
  O  O55  1  0.66666700  0.33333300  0.24899800  1
  O  O56  1  0.00000000  0.00000000  0.75231500  1
  O  O57  1  0.00000000  0.00000000  0.24768500  1
  O  O58  1  0.33333300  0.66666700  0.74933600  1
  O  O59  1  0.33333300  0.66666700  0.25066400  1
  O  O60  1  0.98754100  0.65480800  0.79916400  1
  O  O61  1  0.34519200  0.33273400  0.79916400  1
  O  O62  1  0.66726600  0.01245900  0.79916400  1
  O  O63  1  0.98754100  0.65480800  0.20083600  1
  O  O64  1  0.34519200  0.33273400  0.20083600  1
  O  O65  1  0.66726600  0.01245900  0.20083600  1
  O  O66  1  0.66754200  0.67912100  0.70243000  1
  O  O67  1  0.32087900  0.98842000  0.70243000  1
  O  O68  1  0.01158000  0.33245800  0.70243000  1
  O  O69  1  0.66754200  0.67912100  0.29757000  1
  O  O70  1  0.32087900  0.98842000  0.29757000  1
  O  O71  1  0.01158000  0.33245800  0.29757000  1
loop_
_geom_bond_atom_site_label_1
_geom_bond_atom_site_label_2
_geom_bond_distance
_geom_bond_site_symmetry_2
Ce0 O62 2.165972 1_555
Ce0 O54 2.307594 1_555
Ce0 O67 2.454388 1_545
Ce0 O21 2.460867 1_545
Ce0 O12 2.478309 1_555
Ce0 O48 2.496449 1_555
Ce0 O40 2.591888 1_545
Ce0 O9 2.617932 1_555
Ce0 O45 2.625711 1_556
Ce1 O60 2.165972 1_555
Ce1 O54 2.307594 1_555
Ce1 O68 2.454408 1_655
Ce1 O22 2.460865 1_655
Ce1 O13 2.478300 1_555
Ce1 O49 2.496459 1_555
Ce1 O41 2.591893 1_655
Ce1 O10 2.617934 1_555
Ce1 O46 2.625711 1_556
Ce2 O61 2.165972 1_555
Ce2 O54 2.307615 1_555
Ce2 O66 2.454388 1_555
Ce2 O23 2.460858 1_555
Ce2 O14 2.478308 1_555
Ce2 O50 2.496456 1_555
Ce2 O39 2.591874 1_555
Ce2 O11 2.617935 1_555
Ce2 O47 2.625715 1_556
Ce3 O65 2.165972 1_555
Ce3 O55 2.307594 1_555
Ce3 O70 2.454388 1_545
Ce3 O24 2.460867 1_545
Ce3 O15 2.478309 1_555
Ce3 O51 2.496449 1_555
Ce3 O43 2.591888 1_545
Ce3 O9 2.617932 1_555
Ce3 O45 2.625711 1_555
Ce4 O63 2.165972 1_555
Ce4 O55 2.307594 1_555
Ce4 O71 2.454408 1_655
Ce4 O25 2.460865 1_655
Ce4 O16 2.478300 1_555
Ce4 O52 2.496459 1_555
Ce4 O44 2.591893 1_655
Ce4 O10 2.617934 1_555
Ce4 O46 2.625711 1_555
Ce5 O64 2.165972 1_555
Ce5 O55 2.307615 1_555
Ce5 O69 2.454388 1_555
Ce5 O26 2.460858 1_555
Ce5 O17 2.478308 1_555
Ce5 O53 2.496456 1_555
Ce5 O42 2.591874 1_555
Ce5 O11 2.617935 1_555
Ce5 O47 2.625715 1_555
Ce6 O66 2.264907 1_555
Ce6 O56 2.311682 1_665
Ce6 O60 2.333551 1_555
Ce6 O50 2.458058 1_555
Ce6 O3 2.477829 1_655
Ce6 O30 2.495668 1_555
Ce6 O13 2.566549 1_555
Ce6 O27 2.612261 1_556
Ce6 O0 2.636889 1_555
Ce7 O67 2.264917 1_545
Ce7 O56 2.311682 1_555
Ce7 O61 2.333561 1_555
Ce7 O48 2.458058 1_555
Ce7 O4 2.477829 1_555
Ce7 O31 2.495678 1_545
Ce7 O14 2.566549 1_555
Ce7 O28 2.612261 1_556
Ce7 O1 2.636889 1_555
Ce8 O68 2.264908 1_655
Ce8 O56 2.311682 1_655
Ce8 O62 2.333561 1_555
Ce8 O49 2.458058 1_555
Ce8 O5 2.477829 1_545
Ce8 O32 2.495676 1_655
Ce8 O12 2.566549 1_555
Ce8 O29 2.612261 1_556
Ce8 O2 2.636889 1_555
Ce9 O69 2.264907 1_555
Ce9 O57 2.311682 1_665
Ce9 O63 2.333551 1_555
Ce9 O53 2.458058 1_555
Ce9 O6 2.477829 1_655
Ce9 O33 2.495668 1_555
Ce9 O16 2.566549 1_555
Ce9 O27 2.612261 1_555
Ce9 O0 2.636889 1_555
Ce10 O70 2.264917 1_545
Ce10 O57 2.311682 1_555
Ce10 O64 2.333561 1_555
Ce10 O51 2.458058 1_555
Ce10 O7 2.477829 1_555
Ce10 O34 2.495678 1_545
Ce10 O17 2.566549 1_555
Ce10 O28 2.612261 1_555
Ce10 O1 2.636889 1_555
Ce11 O71 2.264908 1_655
Ce11 O57 2.311682 1_655
Ce11 O65 2.333561 1_555
Ce11 O52 2.458058 1_555
Ce11 O8 2.477829 1_545
Ce11 O35 2.495676 1_655
Ce11 O15 2.566549 1_555
Ce11 O29 2.612261 1_555
Ce11 O2 2.636889 1_555
Ce12 O66 2.192200 1_555
Ce12 O58 2.309472 1_555
Ce12 O62 2.426651 1_565
Ce12 O39 2.457894 1_555
Ce12 O30 2.501626 1_555
Ce12 O21 2.513326 1_555
Ce12 O5 2.536236 1_555
Ce12 O18 2.610882 1_555
Ce12 O36 2.650413 1_556
Ce13 O67 2.192190 1_555
Ce13 O58 2.309462 1_555
Ce13 O60 2.426650 1_455
Ce13 O40 2.457893 1_555
Ce13 O31 2.501617 1_555
Ce13 O22 2.513326 1_555
Ce13 O3 2.536236 1_555
Ce13 O19 2.610880 1_555
Ce13 O37 2.650413 1_556
Ce14 O68 2.192190 1_555
Ce14 O58 2.309472 1_555
Ce14 O61 2.426641 1_555
Ce14 O41 2.457885 1_555
Ce14 O32 2.501625 1_555
Ce14 O23 2.513326 1_555
Ce14 O4 2.536236 1_555
Ce14 O20 2.610882 1_555
Ce14 O38 2.650413 1_556
Ce15 O69 2.192200 1_555
Ce15 O59 2.309472 1_555
Ce15 O65 2.426651 1_565
Ce15 O42 2.457894 1_555
Ce15 O33 2.501626 1_555
Ce15 O24 2.513326 1_555
Ce15 O8 2.536236 1_555
Ce15 O18 2.610882 1_555
Ce15 O36 2.650413 1_555
Ce16 O70 2.192190 1_555
Ce16 O59 2.309462 1_555
Ce16 O63 2.426650 1_455
Ce16 O43 2.457893 1_555
Ce16 O34 2.501617 1_555
Ce16 O25 2.513326 1_555
Ce16 O6 2.536236 1_555
Ce16 O19 2.610880 1_555
Ce16 O37 2.650413 1_555
Ce17 O71 2.192190 1_555
Ce17 O59 2.309472 1_555
Ce17 O64 2.426641 1_555
Ce17 O44 2.457885 1_555
Ce17 O35 2.501625 1_555
Ce17 O26 2.513326 1_555
Ce17 O7 2.536236 1_555
Ce17 O20 2.610882 1_555
Ce17 O38 2.650413 1_555
C0 O0 1.289491 1_455
C0 O3 1.289865 1_555
C0 O6 1.289865 1_555
C1 O1 1.289491 1_555
C1 O4 1.289865 1_555
C1 O7 1.289865 1_555
C2 O2 1.289491 1_565
C2 O5 1.289865 1_555
C2 O8 1.289865 1_555
C3 O9 1.277570 1_555
C3 O17 1.300789 1_555
C3 O14 1.300789 1_555
C4 O10 1.277570 1_555
C4 O12 1.300789 1_555
C4 O15 1.300789 1_555
C5 O11 1.277570 1_555
C5 O13 1.300789 1_555
C5 O16 1.300789 1_555
C6 O18 1.285259 1_555
C6 O24 1.289837 1_555
C6 O21 1.289837 1_555
C7 O19 1.285266 1_555
C7 O22 1.289837 1_555
C7 O25 1.289837 1_555
C8 O20 1.285271 1_555
C8 O23 1.289837 1_555
C8 O26 1.289837 1_555
C9 O29 1.278557 1_565
C9 O33 1.300795 1_555
C9 O30 1.300795 1_554
C10 O27 1.278557 1_455
C10 O31 1.300795 1_554
C10 O34 1.300795 1_555
C11 O28 1.278557 1_555
C11 O35 1.300790 1_555
C11 O32 1.300790 1_554
C12 O38 1.279248 1_555
C12 O42 1.301335 1_555
C12 O39 1.301335 1_554
C13 O36 1.279248 1_555
C13 O43 1.301330 1_555
C13 O40 1.301330 1_554
C14 O37 1.279248 1_555
C14 O44 1.301335 1_555
C14 O41 1.301335 1_554
C15 O48 1.287964 1_554
C15 O51 1.287964 1_555
C15 O45 1.288458 1_555
C16 O49 1.287964 1_554
C16 O52 1.287964 1_555
C16 O46 1.288446 1_555
C17 O50 1.287964 1_554
C17 O53 1.287964 1_555
C17 O47 1.288452 1_555
