# generated using pymatgen
data_PbCO3
_symmetry_space_group_name_H-M   'P 1'
_cell_length_a   8.56543100
_cell_length_b   5.26015600
_cell_length_c   6.28133139
_cell_angle_alpha   89.91828870
_cell_angle_beta   90.00000000
_cell_angle_gamma   90.00000000
_symmetry_Int_Tables_number   1
_chemical_formula_structural   PbCO3
_chemical_formula_sum   'Pb4 C4 O12'
_cell_volume   283.00825906
_cell_formula_units_Z   4
loop_
 _symmetry_equiv_pos_site_id
 _symmetry_equiv_pos_as_xyz
  1  'x, y, z'
loop_
 _atom_site_type_symbol
 _atom_site_label
 _atom_site_symmetry_multiplicity
 _atom_site_fract_x
 _atom_site_fract_y
 _atom_site_fract_z
 _atom_site_occupancy
  Pb  Pb0  1  0.41992000  0.24798300  0.24941900  1
  Pb  Pb1  1  0.91992000  0.75201700  0.25058100  1
  Pb  Pb2  1  0.58008000  0.75201700  0.75058100  1
  Pb  Pb3  1  0.08008000  0.24798300  0.74941900  1
  C  C0  1  0.77242400  0.25808100  0.09356700  1
  C  C1  1  0.27242400  0.74191900  0.40643300  1
  C  C2  1  0.22757600  0.74191900  0.90643300  1
  C  C3  1  0.72757600  0.25808100  0.59356700  1
  O  O0  1  0.92467000  0.25670500  0.10375300  1
  O  O1  1  0.42467000  0.74329500  0.39624700  1
  O  O2  1  0.07533000  0.74329500  0.89624700  1
  O  O3  1  0.57533000  0.25670500  0.60375300  1
  O  O4  1  0.69776700  0.47328100  0.09413600  1
  O  O5  1  0.19776700  0.52671900  0.40586400  1
  O  O6  1  0.30223300  0.52671900  0.90586400  1
  O  O7  1  0.80223300  0.47328100  0.59413600  1
  O  O8  1  0.69625400  0.04480500  0.09444400  1
  O  O9  1  0.19625400  0.95519500  0.40555600  1
  O  O10  1  0.30374600  0.95519500  0.90555600  1
  O  O11  1  0.80374600  0.04480500  0.59444400  1
loop_
_geom_bond_atom_site_label_1
_geom_bond_atom_site_label_2
_geom_bond_distance
_geom_bond_site_symmetry_2
C0 O8 1.297789 1_555
C0 O4 1.300130 1_555
C0 O0 1.305641 1_555
C1 O9 1.297789 1_555
C1 O5 1.300130 1_555
C1 O1 1.305641 1_555
C2 O10 1.297789 1_555
C2 O6 1.300130 1_555
C2 O2 1.305641 1_555
C3 O11 1.297789 1_555
C3 O7 1.300130 1_555
C3 O3 1.305641 1_555
O0 Pb3 2.593850 1_654
O0 Pb1 2.765376 1_555
O0 Pb1 2.809430 1_545
O1 Pb2 2.593850 1_555
O1 Pb0 2.765376 1_555
O1 Pb0 2.809430 1_565
O2 Pb1 2.593850 1_456
O2 Pb3 2.765376 1_555
O2 Pb3 2.809430 1_565
O3 Pb0 2.593850 1_555
O3 Pb2 2.765376 1_555
O3 Pb2 2.809430 1_545
O4 Pb1 2.596206 1_555
O4 Pb2 2.795306 1_554
O4 Pb0 2.831320 1_555
O5 Pb0 2.596206 1_555
O5 Pb3 2.795306 1_555
O5 Pb1 2.831320 1_455
O6 Pb3 2.596206 1_555
O6 Pb0 2.795306 1_556
O6 Pb2 2.831320 1_555
O7 Pb2 2.596206 1_555
O7 Pb1 2.795306 1_555
O7 Pb3 2.831320 1_655
O8 Pb1 2.645708 1_545
O8 Pb0 2.774005 1_555
O8 Pb2 2.834935 1_544
O9 Pb0 2.645708 1_565
O9 Pb1 2.774005 1_455
O9 Pb3 2.834935 1_565
O10 Pb3 2.645708 1_565
O10 Pb2 2.774005 1_555
O10 Pb0 2.834935 1_566
O11 Pb2 2.645708 1_545
O11 Pb3 2.774005 1_655
O11 Pb1 2.834935 1_545
