# generated using pymatgen
data_V3O8
_symmetry_space_group_name_H-M   'P 1'
_cell_length_a   9.57018207
_cell_length_b   9.57018207
_cell_length_c   4.70964131
_cell_angle_alpha   84.56018863
_cell_angle_beta   95.43981137
_cell_angle_gamma   158.07903513
_symmetry_Int_Tables_number   1
_chemical_formula_structural   V3O8
_chemical_formula_sum   'V3 O8'
_cell_volume   160.28162214
_cell_formula_units_Z   1
loop_
 _symmetry_equiv_pos_site_id
 _symmetry_equiv_pos_as_xyz
  1  'x, y, z'
loop_
 _atom_site_type_symbol
 _atom_site_label
 _atom_site_symmetry_multiplicity
 _atom_site_fract_x
 _atom_site_fract_y
 _atom_site_fract_z
 _atom_site_occupancy
  V  V0  1  0.00000000  0.00000000  0.50000000  1
  V  V1  1  0.81294000  0.18706000  0.63043700  1
  V  V2  1  0.18706000  0.81294000  0.36956300  1
  O  O0  1  0.97500200  0.02499800  0.09793400  1
  O  O1  1  0.02499800  0.97500200  0.90206600  1
  O  O2  1  0.90456100  0.09543900  0.54408100  1
  O  O3  1  0.09543900  0.90456100  0.45591900  1
  O  O4  1  0.81678600  0.18321400  0.97373400  1
  O  O5  1  0.18321400  0.81678600  0.02626600  1
  O  O6  1  0.70796000  0.29204000  0.46807400  1
  O  O7  1  0.29204000  0.70796000  0.53192600  1
loop_
_geom_bond_atom_site_label_1
_geom_bond_atom_site_label_2
_geom_bond_distance
_geom_bond_site_symmetry_2
O0 O1 1.378749 1_644
O0 V0 1.906449 1_655
O1 V0 1.906449 1_565
O2 V1 1.806871 1_555
O2 V0 1.825196 1_655
O3 V2 1.806871 1_555
O3 V0 1.825196 1_565
O4 V1 1.611433 1_555
O5 V2 1.611433 1_555
O6 V2 1.909250 1_655
O6 V2 1.909250 1_545
O6 V1 2.045716 1_555
O7 V1 1.909250 1_565
O7 V1 1.909250 1_455
O7 V2 2.045716 1_555
