# generated using pymatgen
data_MgGa
_symmetry_space_group_name_H-M   'P 1'
_cell_length_a   11.53424059
_cell_length_b   11.53424059
_cell_length_c   14.29239101
_cell_angle_alpha   71.67246082
_cell_angle_beta   71.67246082
_cell_angle_gamma   32.42457654
_symmetry_Int_Tables_number   1
_chemical_formula_structural   MgGa
_chemical_formula_sum   'Mg24 Ga24'
_cell_volume   963.31595943
_cell_formula_units_Z   24
loop_
 _symmetry_equiv_pos_site_id
 _symmetry_equiv_pos_as_xyz
  1  'x, y, z'
loop_
 _atom_site_type_symbol
 _atom_site_label
 _atom_site_symmetry_multiplicity
 _atom_site_fract_x
 _atom_site_fract_y
 _atom_site_fract_z
 _atom_site_occupancy
  Mg  Mg0_0  1  0.49936350  0.49936350  0.00733600  1
  Mg  Mg0_1  1  0.49936350  0.49936350  0.50733600  1
  Mg  Mg0_2  1  0.49936350  0.99936350  0.00733600  1
  Mg  Mg0_3  1  0.49936350  0.99936350  0.50733600  1
  Mg  Mg0_4  1  0.99936350  0.49936350  0.00733600  1
  Mg  Mg0_5  1  0.99936350  0.49936350  0.50733600  1
  Mg  Mg0_6  1  0.99936350  0.99936350  0.00733600  1
  Mg  Mg0_7  1  0.99936350  0.99936350  0.50733600  1
  Mg  Mg1_0  1  0.33371100  0.33371100  0.32406600  1
  Mg  Mg1_1  1  0.33371100  0.33371100  0.82406600  1
  Mg  Mg1_2  1  0.33371100  0.83371100  0.32406600  1
  Mg  Mg1_3  1  0.33371100  0.83371100  0.82406600  1
  Mg  Mg1_4  1  0.83371100  0.33371100  0.32406600  1
  Mg  Mg1_5  1  0.83371100  0.33371100  0.82406600  1
  Mg  Mg1_6  1  0.83371100  0.83371100  0.32406600  1
  Mg  Mg1_7  1  0.83371100  0.83371100  0.82406600  1
  Mg  Mg2_0  1  0.13942850  0.13942850  0.47323850  1
  Mg  Mg2_1  1  0.13942850  0.13942850  0.97323850  1
  Mg  Mg2_2  1  0.13942850  0.63942850  0.47323850  1
  Mg  Mg2_3  1  0.13942850  0.63942850  0.97323850  1
  Mg  Mg2_4  1  0.63942850  0.13942850  0.47323850  1
  Mg  Mg2_5  1  0.63942850  0.13942850  0.97323850  1
  Mg  Mg2_6  1  0.63942850  0.63942850  0.47323850  1
  Mg  Mg2_7  1  0.63942850  0.63942850  0.97323850  1
  Ga  Ga0_0  1  0.30294200  0.30294200  0.14143600  1
  Ga  Ga0_1  1  0.30294200  0.30294200  0.64143600  1
  Ga  Ga0_2  1  0.30294200  0.80294200  0.14143600  1
  Ga  Ga0_3  1  0.30294200  0.80294200  0.64143600  1
  Ga  Ga0_4  1  0.80294200  0.30294200  0.14143600  1
  Ga  Ga0_5  1  0.80294200  0.30294200  0.64143600  1
  Ga  Ga0_6  1  0.80294200  0.80294200  0.14143600  1
  Ga  Ga0_7  1  0.80294200  0.80294200  0.64143600  1
  Ga  Ga1_0  1  0.16712000  0.16712000  0.16715900  1
  Ga  Ga1_1  1  0.16712000  0.16712000  0.66715900  1
  Ga  Ga1_2  1  0.16712000  0.66712000  0.16715900  1
  Ga  Ga1_3  1  0.16712000  0.66712000  0.66715900  1
  Ga  Ga1_4  1  0.66712000  0.16712000  0.16715900  1
  Ga  Ga1_5  1  0.66712000  0.16712000  0.66715900  1
  Ga  Ga1_6  1  0.66712000  0.66712000  0.16715900  1
  Ga  Ga1_7  1  0.66712000  0.66712000  0.66715900  1
  Ga  Ga2_0  1  0.47410150  0.47410150  0.30343100  1
  Ga  Ga2_1  1  0.47410150  0.47410150  0.80343100  1
  Ga  Ga2_2  1  0.47410150  0.97410150  0.30343100  1
  Ga  Ga2_3  1  0.47410150  0.97410150  0.80343100  1
  Ga  Ga2_4  1  0.97410150  0.47410150  0.30343100  1
  Ga  Ga2_5  1  0.97410150  0.47410150  0.80343100  1
  Ga  Ga2_6  1  0.97410150  0.97410150  0.30343100  1
  Ga  Ga2_7  1  0.97410150  0.97410150  0.80343100  1
loop_
_geom_bond_atom_site_label_1
_geom_bond_atom_site_label_2
_geom_bond_distance
_geom_bond_site_symmetry_2
Mg0_0 Mg2_7 2.978815 1_554
Mg0_0 Mg2_3 3.088284 1_554
Mg0_0 Mg2_5 3.088284 1_554
Mg0_0 Mg1_3 3.120786 1_554
Mg0_0 Mg1_5 3.120786 1_554
Mg0_0 Mg0_6 3.220326 1_545
Mg0_0 Mg0_6 3.220326 1_455
Mg0_1 Mg2_6 2.978815 1_555
Mg0_1 Mg2_4 3.088284 1_555
Mg0_1 Mg2_2 3.088284 1_555
Mg0_1 Mg1_4 3.120786 1_555
Mg0_1 Mg1_2 3.120786 1_555
Mg0_1 Mg0_7 3.220326 1_455
Mg0_1 Mg0_7 3.220326 1_545
Mg0_2 Mg2_5 2.978815 1_564
Mg0_2 Mg2_7 3.088284 1_554
Mg0_2 Mg2_1 3.088284 1_564
Mg0_2 Mg1_7 3.120786 1_554
Mg0_2 Mg1_1 3.120786 1_564
Mg0_2 Mg0_4 3.220326 1_555
Mg0_2 Mg0_4 3.220326 1_465
Mg0_3 Mg2_4 2.978815 1_565
Mg0_3 Mg2_0 3.088284 1_565
Mg0_3 Mg2_6 3.088284 1_555
Mg0_3 Mg1_0 3.120786 1_565
Mg0_3 Mg1_6 3.120786 1_555
Mg0_3 Mg0_5 3.220326 1_465
Mg0_3 Mg0_5 3.220326 1_555
Mg0_4 Mg2_3 2.978815 1_654
Mg0_4 Mg2_7 3.088284 1_554
Mg0_4 Mg2_1 3.088284 1_654
Mg0_4 Mg1_7 3.120786 1_554
Mg0_4 Mg1_1 3.120786 1_654
Mg0_5 Mg2_2 2.978815 1_655
Mg0_5 Mg2_0 3.088284 1_655
Mg0_5 Mg2_6 3.088284 1_555
Mg0_5 Mg1_6 3.120786 1_555
Mg0_5 Mg1_0 3.120786 1_655
Mg0_6 Mg2_1 2.978815 1_664
Mg0_6 Mg2_5 3.088284 1_564
Mg0_6 Mg2_3 3.088284 1_654
Mg0_6 Mg1_3 3.120786 1_654
Mg0_6 Mg1_5 3.120786 1_564
Mg0_7 Mg2_0 2.978815 1_665
Mg0_7 Mg2_2 3.088284 1_655
Mg0_7 Mg2_4 3.088284 1_565
Mg0_7 Mg1_2 3.120786 1_655
Mg0_7 Mg1_4 3.120786 1_565
Mg1_0 Mg2_4 3.222552 1_555
Mg1_0 Mg2_2 3.222552 1_555
Mg1_1 Mg2_3 3.222552 1_555
Mg1_1 Mg2_5 3.222552 1_555
Mg1_2 Mg2_6 3.222552 1_555
Mg1_2 Mg2_0 3.222552 1_565
Mg1_3 Mg2_7 3.222552 1_555
Mg1_3 Mg2_1 3.222552 1_565
Mg1_4 Mg2_6 3.222552 1_555
Mg1_4 Mg2_0 3.222552 1_655
Mg1_5 Mg2_7 3.222552 1_555
Mg1_5 Mg2_1 3.222552 1_655
Mg1_6 Mg2_2 3.222552 1_655
Mg1_6 Mg2_4 3.222552 1_565
Mg1_7 Mg2_3 3.222552 1_655
Mg1_7 Mg2_5 3.222552 1_565
Mg2_0 Mg2_6 3.220326 1_545
Mg2_0 Mg2_6 3.220326 1_455
Mg2_1 Mg2_7 3.220326 1_545
Mg2_1 Mg2_7 3.220326 1_455
Mg2_2 Mg2_4 3.220326 1_555
Mg2_2 Mg2_4 3.220326 1_465
Mg2_3 Mg2_5 3.220326 1_555
Mg2_3 Mg2_5 3.220326 1_465
Ga0_0 Ga2_2 2.890490 1_545
Ga0_0 Ga2_4 2.890490 1_455
Ga0_0 Mg1_0 2.905676 1_555
Ga0_0 Mg2_5 3.004244 1_554
Ga0_0 Mg2_3 3.004244 1_554
Ga0_0 Mg0_4 3.027268 1_455
Ga0_0 Mg0_2 3.027268 1_545
Ga0_1 Ga2_5 2.890490 1_455
Ga0_1 Ga2_3 2.890490 1_545
Ga0_1 Mg1_1 2.905676 1_555
Ga0_1 Mg2_4 3.004244 1_555
Ga0_1 Mg2_2 3.004244 1_555
Ga0_1 Mg0_5 3.027268 1_455
Ga0_1 Mg0_3 3.027268 1_545
Ga0_2 Ga2_0 2.890490 1_555
Ga0_2 Ga2_6 2.890490 1_455
Ga0_2 Mg1_2 2.905676 1_555
Ga0_2 Mg2_1 3.004244 1_564
Ga0_2 Mg2_7 3.004244 1_554
Ga0_2 Mg0_6 3.027268 1_455
Ga0_2 Mg0_0 3.027268 1_555
Ga0_3 Ga2_1 2.890490 1_555
Ga0_3 Ga2_7 2.890490 1_455
Ga0_3 Mg1_3 2.905676 1_555
Ga0_3 Mg2_6 3.004244 1_555
Ga0_3 Mg2_0 3.004244 1_565
Ga0_3 Mg0_1 3.027268 1_555
Ga0_3 Mg0_7 3.027268 1_455
Ga0_4 Ga2_6 2.890490 1_545
Ga0_4 Ga2_0 2.890490 1_555
Ga0_4 Mg1_4 2.905676 1_555
Ga0_4 Mg2_1 3.004244 1_654
Ga0_4 Mg2_7 3.004244 1_554
Ga0_4 Mg0_6 3.027268 1_545
Ga0_4 Mg0_0 3.027268 1_555
Ga0_5 Ga2_1 2.890490 1_555
Ga0_5 Ga2_7 2.890490 1_545
Ga0_5 Mg1_5 2.905676 1_555
Ga0_5 Mg2_6 3.004244 1_555
Ga0_5 Mg2_0 3.004244 1_655
Ga0_5 Mg0_1 3.027268 1_555
Ga0_5 Mg0_7 3.027268 1_545
Ga0_6 Ga2_4 2.890490 1_555
Ga0_6 Ga2_2 2.890490 1_555
Ga0_6 Mg1_6 2.905676 1_555
Ga0_6 Mg2_3 3.004244 1_654
Ga0_6 Mg2_5 3.004244 1_564
Ga0_6 Mg0_4 3.027268 1_555
Ga0_6 Mg0_2 3.027268 1_555
Ga0_7 Ga2_5 2.890490 1_555
Ga0_7 Ga2_3 2.890490 1_555
Ga0_7 Mg1_7 2.905676 1_555
Ga0_7 Mg2_4 3.004244 1_565
Ga0_7 Mg2_2 3.004244 1_655
Ga0_7 Mg0_5 3.027268 1_555
Ga0_7 Mg0_3 3.027268 1_555
Ga1_0 Mg1_2 2.884741 1_545
Ga1_0 Mg1_4 2.884741 1_455
Ga1_0 Mg0_2 2.898940 1_545
Ga1_0 Mg0_4 2.898940 1_455
Ga1_0 Mg2_1 3.028434 1_554
Ga1_1 Mg1_5 2.884741 1_455
Ga1_1 Mg1_3 2.884741 1_545
Ga1_1 Mg0_3 2.898940 1_545
Ga1_1 Mg0_5 2.898940 1_455
Ga1_1 Mg2_0 3.028434 1_555
Ga1_2 Mg1_6 2.884741 1_455
Ga1_2 Mg1_0 2.884741 1_555
Ga1_2 Mg0_0 2.898940 1_555
Ga1_2 Mg0_6 2.898940 1_455
Ga1_2 Mg2_3 3.028434 1_554
Ga1_3 Mg1_1 2.884741 1_555
Ga1_3 Mg1_7 2.884741 1_455
Ga1_3 Mg0_7 2.898940 1_455
Ga1_3 Mg0_1 2.898940 1_555
Ga1_3 Mg2_2 3.028434 1_555
Ga1_4 Mg1_0 2.884741 1_555
Ga1_4 Mg1_6 2.884741 1_545
Ga1_4 Mg0_0 2.898940 1_555
Ga1_4 Mg0_6 2.898940 1_545
Ga1_4 Mg2_5 3.028434 1_554
Ga1_5 Mg1_1 2.884741 1_555
Ga1_5 Mg1_7 2.884741 1_545
Ga1_5 Mg0_7 2.898940 1_545
Ga1_5 Mg0_1 2.898940 1_555
Ga1_5 Mg2_4 3.028434 1_555
Ga1_6 Mg1_4 2.884741 1_555
Ga1_6 Mg1_2 2.884741 1_555
Ga1_6 Mg0_2 2.898940 1_555
Ga1_6 Mg0_4 2.898940 1_555
Ga1_6 Mg2_7 3.028434 1_554
Ga1_7 Mg1_3 2.884741 1_555
Ga1_7 Mg1_5 2.884741 1_555
Ga1_7 Mg0_3 2.898940 1_555
Ga1_7 Mg0_5 2.898940 1_555
Ga1_7 Mg2_6 3.028434 1_555
Ga2_0 Mg2_2 3.003219 1_555
Ga2_0 Mg2_4 3.003219 1_555
Ga2_0 Mg1_2 3.007266 1_555
Ga2_0 Mg1_4 3.007266 1_555
Ga2_0 Mg1_0 3.026088 1_555
Ga2_0 Mg0_1 3.142338 1_555
Ga2_1 Mg2_5 3.003219 1_555
Ga2_1 Mg2_3 3.003219 1_555
Ga2_1 Mg1_5 3.007266 1_555
Ga2_1 Mg1_3 3.007266 1_555
Ga2_1 Mg1_1 3.026088 1_555
Ga2_1 Mg0_0 3.142338 1_556
Ga2_2 Mg2_0 3.003219 1_565
Ga2_2 Mg2_6 3.003219 1_555
Ga2_2 Mg1_6 3.007266 1_555
Ga2_2 Mg1_0 3.007266 1_565
Ga2_2 Mg1_2 3.026088 1_555
Ga2_2 Mg0_3 3.142338 1_555
Ga2_3 Mg2_7 3.003219 1_555
Ga2_3 Mg2_1 3.003219 1_565
Ga2_3 Mg1_7 3.007266 1_555
Ga2_3 Mg1_1 3.007266 1_565
Ga2_3 Mg1_3 3.026088 1_555
Ga2_3 Mg0_2 3.142338 1_556
Ga2_4 Mg2_0 3.003219 1_655
Ga2_4 Mg2_6 3.003219 1_555
Ga2_4 Mg1_6 3.007266 1_555
Ga2_4 Mg1_0 3.007266 1_655
Ga2_4 Mg1_4 3.026088 1_555
Ga2_4 Mg0_5 3.142338 1_555
Ga2_5 Mg2_7 3.003219 1_555
Ga2_5 Mg2_1 3.003219 1_655
Ga2_5 Mg1_7 3.007266 1_555
Ga2_5 Mg1_1 3.007266 1_655
Ga2_5 Mg1_5 3.026088 1_555
Ga2_5 Mg0_4 3.142338 1_556
Ga2_6 Mg2_2 3.003219 1_655
Ga2_6 Mg2_4 3.003219 1_565
Ga2_6 Mg1_2 3.007266 1_655
Ga2_6 Mg1_4 3.007266 1_565
Ga2_6 Mg1_6 3.026088 1_555
Ga2_6 Mg0_7 3.142338 1_555
Ga2_7 Mg2_3 3.003219 1_655
Ga2_7 Mg2_5 3.003219 1_565
Ga2_7 Mg1_5 3.007266 1_565
Ga2_7 Mg1_3 3.007266 1_655
Ga2_7 Mg1_7 3.026088 1_555
Ga2_7 Mg0_6 3.142338 1_556
