# generated using pymatgen
data_LiV4OF11
_symmetry_space_group_name_H-M   'P 1'
_cell_length_a   5.25769200
_cell_length_b   5.52291078
_cell_length_c   9.03582492
_cell_angle_alpha   106.68181802
_cell_angle_beta   89.56694654
_cell_angle_gamma   118.04093655
_symmetry_Int_Tables_number   1
_chemical_formula_structural   LiV4OF11
_chemical_formula_sum   'Li1 V4 O1 F11'
_cell_volume   219.30101578
_cell_formula_units_Z   1
loop_
 _symmetry_equiv_pos_site_id
 _symmetry_equiv_pos_as_xyz
  1  'x, y, z'
loop_
 _atom_site_type_symbol
 _atom_site_label
 _atom_site_symmetry_multiplicity
 _atom_site_fract_x
 _atom_site_fract_y
 _atom_site_fract_z
 _atom_site_occupancy
  Li  Li0  1  0.85812900  0.08509100  0.62971400  1
  V  V0  1  0.75127200  0.25070500  0.24287400  1
  V  V1  1  0.50076600  0.50029900  0.49885100  1
  V  V2  1  0.23902400  0.75566300  0.76168300  1
  V  V3  1  0.00499300  0.99644000  0.99153600  1
  O  O0  1  0.06871400  0.93300300  0.81687800  1
  F  F0  1  0.93064800  0.68701600  0.56956500  1
  F  F1  1  0.93182800  0.07529400  0.17695300  1
  F  F2  1  0.98941900  0.62685700  0.13419200  1
  F  F3  1  0.52577100  0.87605200  0.37919100  1
  F  F4  1  0.42701500  0.58380100  0.67245100  1
  F  F5  1  0.43653700  0.18218400  0.06944300  1
  F  F6  1  0.56680300  0.80813200  0.93060000  1
  F  F7  1  0.57093000  0.42015100  0.32338300  1
  F  F8  1  0.50845100  0.13480400  0.62289400  1
  F  F9  1  0.99898000  0.36319200  0.87041700  1
  F  F10  1  0.05777200  0.30208300  0.44174400  1
loop_
_geom_bond_atom_site_label_1
_geom_bond_atom_site_label_2
_geom_bond_distance
_geom_bond_site_symmetry_2
O0 V3 1.584477 1_555
O0 V2 1.596001 1_555
F0 V1 2.008056 1_555
F0 V2 2.207431 1_655
F0 Li0 2.318040 1_565
F1 V0 1.649046 1_555
F1 V3 1.695130 1_644
F2 V0 2.356903 1_555
F2 V3 2.680758 1_654
F3 Li0 2.484606 1_565
F3 V0 2.517726 1_565
F3 V1 2.553926 1_555
F4 V1 1.602257 1_555
F4 V2 1.720063 1_555
F5 V3 2.029062 1_544
F5 V0 2.108846 1_555
F6 V3 2.032300 1_655
F6 V2 2.167914 1_555
F7 V1 1.608600 1_555
F7 V0 1.654404 1_555
F8 Li0 1.986274 1_555
F8 V2 2.579907 1_545
F9 Li0 2.162166 1_555
F9 V2 2.426603 1_655
F9 V3 2.575839 1_645
F10 V1 2.045992 1_555
F10 V0 2.286383 1_455
F10 Li0 2.319854 1_455
