# generated using pymatgen
data_RbP15
_symmetry_space_group_name_H-M   'P 1'
_cell_length_a   7.42145704
_cell_length_b   9.38227128
_cell_length_c   12.52253676
_cell_angle_alpha   88.77310881
_cell_angle_beta   78.28950229
_cell_angle_gamma   69.56961273
_symmetry_Int_Tables_number   1
_chemical_formula_structural   RbP15
_chemical_formula_sum   'Rb2 P30'
_cell_volume   798.92829856
_cell_formula_units_Z   2
loop_
 _symmetry_equiv_pos_site_id
 _symmetry_equiv_pos_as_xyz
  1  'x, y, z'
loop_
 _atom_site_type_symbol
 _atom_site_label
 _atom_site_symmetry_multiplicity
 _atom_site_fract_x
 _atom_site_fract_y
 _atom_site_fract_z
 _atom_site_occupancy
  Rb  Rb0  1  0.22092058  0.78428976  0.99757526  1
  Rb  Rb1  1  0.77907942  0.21571024  0.00242474  1
  P  P0  1  0.01494585  0.56885348  0.18762582  1
  P  P1  1  0.98505415  0.43114652  0.81237418  1
  P  P2  1  0.29107782  0.12125034  0.81232531  1
  P  P3  1  0.70892218  0.87874966  0.18767469  1
  P  P4  1  0.11660072  0.23639959  0.69302389  1
  P  P5  1  0.88339928  0.76360041  0.30697611  1
  P  P6  1  0.33744911  0.30986075  0.56716289  1
  P  P7  1  0.66255089  0.69013925  0.43283711  1
  P  P8  1  0.20168590  0.41013590  0.28360037  1
  P  P9  1  0.79831410  0.58986410  0.71639963  1
  P  P10  1  0.01259808  0.65987330  0.59241779  1
  P  P11  1  0.98740192  0.34012670  0.40758221  1
  P  P12  1  0.52237622  0.73570902  0.19151499  1
  P  P13  1  0.47762378  0.26429098  0.80848501  1
  P  P14  1  0.31076486  0.01534910  0.40801358  1
  P  P15  1  0.68923514  0.98465090  0.59198642  1
  P  P16  1  0.29957662  0.53689322  0.63021796  1
  P  P17  1  0.70042338  0.46310678  0.36978204  1
  P  P18  1  0.03333753  0.10691931  0.34712785  1
  P  P19  1  0.96666247  0.89308069  0.65287215  1
  P  P20  1  0.75557466  0.49981836  0.19176795  1
  P  P21  1  0.24442534  0.50018164  0.80823205  1
  P  P22  1  0.60804522  0.22762153  0.63067251  1
  P  P23  1  0.39195478  0.77237847  0.36932749  1
  P  P24  1  0.52291431  0.08803204  0.28446644  1
  P  P25  1  0.47708569  0.91196796  0.71553356  1
  P  P26  1  0.12071240  0.10419873  0.17277743  1
  P  P27  1  0.87928760  0.89580127  0.82722257  1
  P  P28  1  0.33757769  0.20718100  0.16760006  1
  P  P29  1  0.66242231  0.79281900  0.83239994  1
loop_
_geom_bond_atom_site_label_1
_geom_bond_atom_site_label_2
_geom_bond_distance
_geom_bond_site_symmetry_2
P0 P8 2.177456 1_555
P0 P5 2.191958 1_455
P0 P20 2.226197 1_455
P0 Rb0 3.544094 1_554
P1 P9 2.177456 1_555
P1 P4 2.191958 1_655
P1 P21 2.226197 1_655
P1 Rb1 3.544094 1_556
P2 P25 2.181887 1_545
P2 P4 2.194378 1_555
P3 P5 2.194378 1_555
P4 P6 2.310632 1_555
P5 P7 2.310632 1_555
P10 P16 2.182123 1_555
P10 P19 2.218594 1_455
P10 P9 2.248174 1_455
P11 P17 2.182123 1_555
P11 P18 2.218594 1_655
P11 P8 2.248174 1_655
P12 P23 2.222319 1_555
P12 P3 2.233254 1_555
P12 P20 2.285014 1_555
P12 Rb0 3.543651 1_554
P13 P22 2.222319 1_555
P13 P2 2.233254 1_555
P13 P21 2.285014 1_555
P13 Rb1 3.543651 1_556
P14 P23 2.182718 1_545
P14 P18 2.220996 1_555
P14 P24 2.247916 1_555
P15 P22 2.182718 1_565
P15 P19 2.220996 1_555
P15 P25 2.247916 1_555
P16 P6 2.191731 1_555
P16 P21 2.224996 1_555
P17 P7 2.191731 1_555
P17 P20 2.224996 1_555
P18 P26 2.145717 1_555
P19 P27 2.145717 1_555
P20 Rb1 3.540592 1_555
P21 Rb0 3.540592 1_555
P22 P6 2.191134 1_555
P23 P7 2.191134 1_555
P24 P3 2.181887 1_545
P24 P28 2.226411 1_555
P25 P29 2.226411 1_555
P26 P28 2.137457 1_555
P26 Rb1 3.510235 1_455
P26 Rb0 3.526577 1_544
P27 P29 2.137457 1_555
P27 Rb0 3.510235 1_655
P27 Rb1 3.526577 1_566
P28 P8 2.221747 1_555
P28 Rb1 3.527829 1_555
P29 P9 2.221747 1_555
P29 Rb0 3.527829 1_555
