# generated using pymatgen
data_Cd2Ni6Te3PbO18
_symmetry_space_group_name_H-M   'P 1'
_cell_length_a   9.36371851
_cell_length_b   9.36371851
_cell_length_c   8.92927261
_cell_angle_alpha   90.00000000
_cell_angle_beta   90.00000000
_cell_angle_gamma   120.00000544
_symmetry_Int_Tables_number   1
_chemical_formula_structural   Cd2Ni6Te3PbO18
_chemical_formula_sum   'Cd4 Ni12 Te6 Pb2 O36'
_cell_volume   678.02138070
_cell_formula_units_Z   2
loop_
 _symmetry_equiv_pos_site_id
 _symmetry_equiv_pos_as_xyz
  1  'x, y, z'
loop_
 _atom_site_type_symbol
 _atom_site_label
 _atom_site_symmetry_multiplicity
 _atom_site_fract_x
 _atom_site_fract_y
 _atom_site_fract_z
 _atom_site_occupancy
  Cd  Cd0  1  0.33333300  0.66666700  0.43499418  1
  Cd  Cd1  1  0.66666700  0.33333300  0.93499418  1
  Cd  Cd2  1  0.66666700  0.33333300  0.56500582  1
  Cd  Cd3  1  0.33333300  0.66666700  0.06500582  1
  Ni  Ni0  1  0.35903234  0.00896749  0.58813677  1
  Ni  Ni1  1  0.64993615  0.64096766  0.58813677  1
  Ni  Ni2  1  0.99103251  0.35006385  0.58813677  1
  Ni  Ni3  1  0.64096766  0.99103251  0.08813677  1
  Ni  Ni4  1  0.35006385  0.35903234  0.08813677  1
  Ni  Ni5  1  0.00896749  0.64993615  0.08813677  1
  Ni  Ni6  1  0.64096766  0.99103251  0.41186323  1
  Ni  Ni7  1  0.35006385  0.35903234  0.41186323  1
  Ni  Ni8  1  0.00896749  0.64993615  0.41186323  1
  Ni  Ni9  1  0.35903234  0.00896749  0.91186323  1
  Ni  Ni10  1  0.64993615  0.64096766  0.91186323  1
  Ni  Ni11  1  0.99103251  0.35006385  0.91186323  1
  Te  Te0  1  0.66399671  0.64028717  0.25000000  1
  Te  Te1  1  0.97629047  0.33600329  0.25000000  1
  Te  Te2  1  0.35971283  0.02370953  0.25000000  1
  Te  Te3  1  0.33600329  0.35971283  0.75000000  1
  Te  Te4  1  0.02370953  0.66399671  0.75000000  1
  Te  Te5  1  0.64028717  0.97629047  0.75000000  1
  Pb  Pb0  1  0.00000000  -0.00000000  0.50000000  1
  Pb  Pb1  1  0.00000000  -0.00000000  0.00000000  1
  O  O0  1  0.20370872  0.89883421  0.40804888  1
  O  O1  1  0.69512549  0.79629128  0.40804888  1
  O  O2  1  0.10116579  0.30487451  0.40804888  1
  O  O3  1  0.79629128  0.10116579  0.90804888  1
  O  O4  1  0.30487451  0.20370872  0.90804888  1
  O  O5  1  0.89883421  0.69512549  0.90804888  1
  O  O6  1  0.79629128  0.10116579  0.59195112  1
  O  O7  1  0.30487451  0.20370872  0.59195112  1
  O  O8  1  0.89883421  0.69512549  0.59195112  1
  O  O9  1  0.20370872  0.89883421  0.09195112  1
  O  O10  1  0.69512549  0.79629128  0.09195112  1
  O  O11  1  0.10116579  0.30487451  0.09195112  1
  O  O12  1  0.48216431  0.87670520  0.58927858  1
  O  O13  1  0.39454088  0.51783569  0.58927858  1
  O  O14  1  0.12329480  0.60545912  0.58927858  1
  O  O15  1  0.51783569  0.12329480  0.08927858  1
  O  O16  1  0.60545912  0.48216431  0.08927858  1
  O  O17  1  0.87670520  0.39454088  0.08927858  1
  O  O18  1  0.51783569  0.12329480  0.41072142  1
  O  O19  1  0.60545912  0.48216431  0.41072142  1
  O  O20  1  0.87670520  0.39454088  0.41072142  1
  O  O21  1  0.48216431  0.87670520  0.91072142  1
  O  O22  1  0.39454088  0.51783569  0.91072142  1
  O  O23  1  0.12329480  0.60545912  0.91072142  1
  O  O24  1  0.12724303  0.58001679  0.25000000  1
  O  O25  1  0.45277376  0.87275697  0.25000000  1
  O  O26  1  0.41998321  0.54722624  0.25000000  1
  O  O27  1  0.87275697  0.41998321  0.75000000  1
  O  O28  1  0.54722624  0.12724303  0.75000000  1
  O  O29  1  0.58001679  0.45277376  0.75000000  1
  O  O30  1  0.89242657  0.70447515  0.25000000  1
  O  O31  1  0.81204857  0.10757343  0.25000000  1
  O  O32  1  0.29552485  0.18795143  0.25000000  1
  O  O33  1  0.10757343  0.29552485  0.75000000  1
  O  O34  1  0.18795143  0.89242657  0.75000000  1
  O  O35  1  0.70447515  0.81204857  0.75000000  1
loop_
_geom_bond_atom_site_label_1
_geom_bond_atom_site_label_2
_geom_bond_distance
_geom_bond_site_symmetry_2
Cd0 O14 2.228733 1_555
Cd0 O12 2.228735 1_555
Cd0 O13 2.228740 1_555
Cd0 O24 2.354830 1_555
Cd0 O25 2.354831 1_555
Cd0 O26 2.354836 1_555
Cd1 O17 2.228733 1_556
Cd1 O15 2.228735 1_556
Cd1 O16 2.228740 1_556
Cd1 O27 2.354830 1_555
Cd1 O28 2.354831 1_555
Cd1 O29 2.354836 1_555
Cd2 O20 2.228733 1_555
Cd2 O18 2.228735 1_555
Cd2 O19 2.228740 1_555
Cd2 O27 2.354830 1_555
Cd2 O28 2.354831 1_555
Cd2 O29 2.354836 1_555
Cd3 O23 2.228733 1_554
Cd3 O21 2.228735 1_554
Cd3 O22 2.228740 1_554
Cd3 O24 2.354830 1_555
Cd3 O25 2.354831 1_555
Cd3 O26 2.354836 1_555
Ni0 O34 2.024328 1_545
Ni0 O0 2.065129 1_545
Ni0 O18 2.067598 1_555
Ni0 O12 2.071514 1_545
Ni0 O28 2.114050 1_555
Ni0 O7 2.123257 1_555
Ni1 O35 2.024330 1_555
Ni1 O1 2.065131 1_555
Ni1 O19 2.067597 1_555
Ni1 O13 2.071522 1_555
Ni1 O29 2.114049 1_555
Ni1 O8 2.123248 1_555
Ni2 O33 2.024324 1_655
Ni2 O2 2.065125 1_655
Ni2 O20 2.067603 1_555
Ni2 O14 2.071522 1_655
Ni2 O27 2.114055 1_555
Ni2 O6 2.123251 1_555
Ni3 O31 2.024328 1_565
Ni3 O3 2.065129 1_564
Ni3 O21 2.067598 1_554
Ni3 O15 2.071514 1_565
Ni3 O25 2.114050 1_555
Ni3 O10 2.123257 1_555
Ni4 O32 2.024330 1_555
Ni4 O4 2.065131 1_554
Ni4 O22 2.067597 1_554
Ni4 O16 2.071522 1_555
Ni4 O26 2.114049 1_555
Ni4 O11 2.123248 1_555
Ni5 O30 2.024324 1_455
Ni5 O5 2.065125 1_454
Ni5 O23 2.067603 1_554
Ni5 O17 2.071522 1_455
Ni5 O24 2.114055 1_555
Ni5 O9 2.123251 1_555
Ni6 O31 2.024328 1_565
Ni6 O6 2.065129 1_565
Ni6 O12 2.067598 1_555
Ni6 O18 2.071514 1_565
Ni6 O25 2.114050 1_555
Ni6 O1 2.123257 1_555
Ni7 O32 2.024330 1_555
Ni7 O7 2.065131 1_555
Ni7 O13 2.067597 1_555
Ni7 O19 2.071522 1_555
Ni7 O26 2.114049 1_555
Ni7 O2 2.123248 1_555
Ni8 O30 2.024324 1_455
Ni8 O8 2.065125 1_455
Ni8 O14 2.067603 1_555
Ni8 O20 2.071522 1_455
Ni8 O24 2.114055 1_555
Ni8 O0 2.123251 1_555
Ni9 O34 2.024328 1_545
Ni9 O9 2.065129 1_546
Ni9 O15 2.067598 1_556
Ni9 O21 2.071514 1_545
Ni9 O28 2.114050 1_555
Ni9 O4 2.123257 1_555
Ni10 O35 2.024330 1_555
Ni10 O10 2.065131 1_556
Ni10 O16 2.067597 1_556
Ni10 O22 2.071522 1_555
Ni10 O29 2.114049 1_555
Ni10 O5 2.123248 1_555
Ni11 O33 2.024324 1_655
Ni11 O11 2.065125 1_656
Ni11 O17 2.067603 1_556
Ni11 O23 2.071522 1_655
Ni11 O27 2.114055 1_555
Ni11 O3 2.123251 1_555
O0 Te2 1.945432 1_565
O0 Pb0 2.648935 1_565
O1 Te0 1.945432 1_555
O1 Pb0 2.648935 1_665
O2 Te1 1.945432 1_455
O2 Pb0 2.648935 1_555
O3 Te5 1.945432 1_545
O3 Pb1 2.648935 1_656
O4 Te3 1.945432 1_555
O4 Pb1 2.648935 1_556
O5 Te4 1.945432 1_655
O5 Pb1 2.648935 1_666
O6 Te5 1.945432 1_545
O6 Pb0 2.648935 1_655
O7 Te3 1.945432 1_555
O7 Pb0 2.648935 1_555
O8 Te4 1.945432 1_655
O8 Pb0 2.648935 1_665
O9 Te2 1.945432 1_565
O9 Pb1 2.648935 1_565
O10 Te0 1.945432 1_555
O10 Pb1 2.648935 1_665
O11 Te1 1.945432 1_455
O11 Pb1 2.648935 1_555
O12 Te5 1.934086 1_555
O13 Te3 1.934086 1_555
O14 Te4 1.934086 1_555
O15 Te2 1.934086 1_555
O16 Te0 1.934086 1_555
O17 Te1 1.934086 1_555
O18 Te2 1.934086 1_555
O19 Te0 1.934086 1_555
O20 Te1 1.934086 1_555
O21 Te5 1.934086 1_555
O22 Te3 1.934086 1_555
O23 Te4 1.934086 1_555
O24 Te1 1.997235 1_455
O25 Te2 1.997235 1_565
O26 Te0 1.997235 1_555
O27 Te4 1.997235 1_655
O28 Te5 1.997235 1_545
O29 Te3 1.997235 1_555
O30 Te0 1.910700 1_555
O31 Te1 1.910700 1_555
O32 Te2 1.910700 1_555
O33 Te3 1.910700 1_555
O34 Te4 1.910700 1_555
O35 Te5 1.910700 1_555
