# generated using pymatgen
data_Fe3(OF)2
_symmetry_space_group_name_H-M   'P 1'
_cell_length_a   8.59487673
_cell_length_b   6.39906675
_cell_length_c   6.44475409
_cell_angle_alpha   89.85706348
_cell_angle_beta   90.06311336
_cell_angle_gamma   89.91336348
_symmetry_Int_Tables_number   1
_chemical_formula_structural   Fe3(OF)2
_chemical_formula_sum   'Fe12 O8 F8'
_cell_volume   354.45452891
_cell_formula_units_Z   4
loop_
 _symmetry_equiv_pos_site_id
 _symmetry_equiv_pos_as_xyz
  1  'x, y, z'
loop_
 _atom_site_type_symbol
 _atom_site_label
 _atom_site_symmetry_multiplicity
 _atom_site_fract_x
 _atom_site_fract_y
 _atom_site_fract_z
 _atom_site_occupancy
  Fe  Fe0  1  0.18093900  0.25007300  0.49938900  1
  Fe  Fe1  1  0.18085300  0.24997100  0.00042500  1
  Fe  Fe2  1  0.22057200  0.75022600  0.74988600  1
  Fe  Fe3  1  0.23040600  0.75012200  0.24993400  1
  Fe  Fe4  1  0.50008300  0.99994300  0.49980900  1
  Fe  Fe5  1  0.50030200  0.50015900  0.49972300  1
  Fe  Fe6  1  0.50055800  0.99986400  0.00042500  1
  Fe  Fe7  1  0.49969000  0.50015000  0.00019200  1
  Fe  Fe8  1  0.77898900  0.24991300  0.25004300  1
  Fe  Fe9  1  0.77889800  0.24992400  0.75010400  1
  Fe  Fe10  1  0.81927500  0.74870300  0.00164600  1
  Fe  Fe11  1  0.81937100  0.75104000  0.49826000  1
  O  O0  1  0.26979400  0.53200400  0.99844100  1
  O  O1  1  0.27010700  0.96625000  0.00305800  1
  O  O2  1  0.27057100  0.96824900  0.50249900  1
  O  O3  1  0.26969700  0.53408800  0.49604100  1
  O  O4  1  0.72883800  0.03374300  0.50151500  1
  O  O5  1  0.72921100  0.03232500  0.00109600  1
  O  O6  1  0.72922400  0.46768100  0.49947300  1
  O  O7  1  0.72859000  0.46618600  0.99798800  1
  F  F0  1  0.01826500  0.25575100  0.24994600  1
  F  F1  1  0.01898300  0.24436700  0.74985200  1
  F  F2  1  0.48714800  0.25016400  0.75001200  1
  F  F3  1  0.48823500  0.24997000  0.25002400  1
  F  F4  1  0.51374100  0.74986800  0.25002400  1
  F  F5  1  0.50791700  0.75006800  0.74999300  1
  F  F6  1  0.97811400  0.75593300  0.24994100  1
  F  F7  1  0.98162800  0.74326500  0.75026600  1
loop_
_geom_bond_atom_site_label_1
_geom_bond_atom_site_label_2
_geom_bond_distance
_geom_bond_site_symmetry_2
Fe0 O2 1.960039 1_545
Fe0 O3 1.972186 1_555
Fe1 O0 1.961051 1_554
Fe1 O1 1.969923 1_545
Fe2 O2 2.159923 1_555
Fe2 O0 2.163452 1_555
Fe2 O1 2.183090 1_556
Fe2 O3 2.186007 1_555
Fe3 O3 2.127744 1_555
Fe3 O1 2.133606 1_555
Fe3 O0 2.168138 1_554
Fe3 O2 2.174507 1_555
Fe4 O4 1.978329 1_565
Fe4 O2 1.983421 1_555
Fe5 O6 1.978192 1_555
Fe5 O3 1.993660 1_555
Fe6 O5 1.976505 1_565
Fe6 O1 1.992753 1_555
Fe7 O7 1.979079 1_554
Fe7 O0 1.986124 1_554
Fe8 O5 2.169620 1_555
Fe8 O4 2.172101 1_555
Fe8 O6 2.172514 1_555
Fe8 O7 2.174200 1_554
Fe9 O7 2.159858 1_555
Fe9 O4 2.162602 1_555
Fe9 O6 2.172202 1_555
Fe9 O5 2.174831 1_556
Fe10 O7 1.969974 1_554
Fe10 O5 1.972019 1_565
Fe11 O4 1.968372 1_565
Fe11 O6 1.972913 1_555
F0 Fe8 2.056944 1_455
F0 Fe0 2.129591 1_555
F0 Fe1 2.131958 1_555
F1 Fe9 2.063756 1_455
F1 Fe1 2.130775 1_556
F1 Fe0 2.132917 1_555
F2 Fe5 2.271990 1_555
F2 Fe6 2.273616 1_546
F2 Fe7 2.276678 1_556
F2 Fe4 2.277943 1_545
F2 Fe9 2.507553 1_555
F3 Fe4 2.268907 1_545
F3 Fe7 2.270031 1_555
F3 Fe6 2.274414 1_545
F3 Fe5 2.275204 1_555
F3 Fe8 2.498994 1_555
F4 Fe5 2.268140 1_555
F4 Fe6 2.268442 1_555
F4 Fe7 2.274533 1_555
F4 Fe4 2.275684 1_555
F4 Fe3 2.435227 1_555
F5 Fe4 2.268822 1_555
F5 Fe7 2.269441 1_556
F5 Fe5 2.275119 1_555
F5 Fe6 2.275253 1_556
F5 Fe2 2.469693 1_555
F6 Fe10 2.102928 1_555
F6 Fe11 2.104360 1_555
F6 Fe3 2.168681 1_655
F7 Fe2 2.054249 1_655
F7 Fe10 2.139660 1_556
F7 Fe11 2.139971 1_555
