# generated using pymatgen
data_Cu4W(SCl)4
_symmetry_space_group_name_H-M   'P 1'
_cell_length_a   10.08026417
_cell_length_b   10.08026417
_cell_length_c   6.12628242
_cell_angle_alpha   74.06123934
_cell_angle_beta   74.06123934
_cell_angle_gamma   86.68149931
_symmetry_Int_Tables_number   1
_chemical_formula_structural   Cu4W(SCl)4
_chemical_formula_sum   'Cu8 W2 S8 Cl8'
_cell_volume   575.45552557
_cell_formula_units_Z   2
loop_
 _symmetry_equiv_pos_site_id
 _symmetry_equiv_pos_as_xyz
  1  'x, y, z'
loop_
 _atom_site_type_symbol
 _atom_site_label
 _atom_site_symmetry_multiplicity
 _atom_site_fract_x
 _atom_site_fract_y
 _atom_site_fract_z
 _atom_site_occupancy
  Cu  Cu0  1  0.00316800  0.26552700  0.87754200  1
  Cu  Cu1  1  0.73447300  0.99683200  0.12245800  1
  Cu  Cu2  1  0.37494600  0.62505400  0.50000000  1
  Cu  Cu3  1  0.99683200  0.73447300  0.12245800  1
  Cu  Cu4  1  0.26552700  0.00316800  0.87754200  1
  Cu  Cu5  1  0.62505400  0.37494600  0.50000000  1
  Cu  Cu6  1  0.62858300  0.62858300  0.87802900  1
  Cu  Cu7  1  0.37141700  0.37141700  0.12197100  1
  W  W0  1  0.00000000  0.00000000  0.00000000  1
  W  W1  1  0.00000000  0.00000000  0.50000000  1
  S  S0  1  0.84951300  0.84951300  0.88571300  1
  S  S1  1  0.15045600  0.15045600  0.61320300  1
  S  S2  1  0.84954400  0.84954400  0.38679700  1
  S  S3  1  0.14829200  0.85118000  0.74994200  1
  S  S4  1  0.15048700  0.15048700  0.11428700  1
  S  S5  1  0.85170800  0.14882000  0.25005800  1
  S  S6  1  0.85118000  0.14829200  0.74994200  1
  S  S7  1  0.14882000  0.85170800  0.25005800  1
  Cl  Cl0  1  0.50116100  0.75004300  0.13149400  1
  Cl  Cl1  1  0.50157000  0.75016500  0.63131600  1
  Cl  Cl2  1  0.24983500  0.49843000  0.36868400  1
  Cl  Cl3  1  0.24995700  0.49883900  0.86850600  1
  Cl  Cl4  1  0.75004300  0.50116100  0.13149400  1
  Cl  Cl5  1  0.49843000  0.24983500  0.36868400  1
  Cl  Cl6  1  0.49883900  0.24995700  0.86850600  1
  Cl  Cl7  1  0.75016500  0.50157000  0.63131600  1
loop_
_geom_bond_atom_site_label_1
_geom_bond_atom_site_label_2
_geom_bond_distance
_geom_bond_site_symmetry_2
Cu0 S1 2.384135 1_555
Cu0 S4 2.390272 1_556
Cu0 S6 2.393669 1_455
Cu0 S5 2.396439 1_456
Cu0 W0 2.573292 1_556
Cu1 S2 2.384135 1_555
Cu1 S0 2.390272 1_554
Cu1 S5 2.393669 1_565
Cu1 S6 2.396439 1_564
Cu1 W0 2.573292 1_665
Cu3 S2 2.384135 1_555
Cu3 S0 2.390272 1_554
Cu3 S7 2.393669 1_655
Cu3 S3 2.396439 1_654
Cu3 W0 2.573292 1_665
Cu4 S1 2.384135 1_555
Cu4 S4 2.390272 1_556
Cu4 S3 2.393669 1_545
Cu4 S7 2.396439 1_546
Cu4 W0 2.573292 1_556
S0 W1 2.552449 1_665
S0 W0 2.554514 1_666
S1 W1 2.550094 1_555
S1 W0 2.556201 1_556
S2 W1 2.550094 1_665
S2 W0 2.556201 1_665
S3 W1 2.562315 1_565
S3 W0 2.564486 1_566
S4 W1 2.552449 1_555
S4 W0 2.554514 1_555
S5 W1 2.562315 1_655
S5 W0 2.564486 1_655
S6 W1 2.562315 1_655
S6 W0 2.564486 1_656
S7 W1 2.562315 1_565
S7 W0 2.564486 1_565
Cl0 Cu6 2.307964 1_554
Cl0 Cu2 2.312710 1_555
Cl1 Cu2 2.274740 1_555
Cl1 Cu6 2.299888 1_555
Cl2 Cu2 2.274740 1_555
Cl2 Cu7 2.299888 1_555
Cl3 Cu7 2.307964 1_556
Cl3 Cu2 2.312710 1_555
Cl4 Cu6 2.307964 1_554
Cl4 Cu5 2.312710 1_555
Cl5 Cu5 2.274740 1_555
Cl5 Cu7 2.299888 1_555
Cl6 Cu7 2.307964 1_556
Cl6 Cu5 2.312710 1_555
Cl7 Cu5 2.274740 1_555
Cl7 Cu6 2.299888 1_555
