# generated using pymatgen
data_Sr6Al7ClO16
_symmetry_space_group_name_H-M   'P 1'
_cell_length_a   10.80023819
_cell_length_b   10.80023819
_cell_length_c   10.80023819
_cell_angle_alpha   109.50511267
_cell_angle_beta   109.50511267
_cell_angle_gamma   109.40345781
_symmetry_Int_Tables_number   1
_chemical_formula_structural   Sr6Al7ClO16
_chemical_formula_sum   'Sr12 Al14 Cl2 O32'
_cell_volume   969.78989354
_cell_formula_units_Z   2
loop_
 _symmetry_equiv_pos_site_id
 _symmetry_equiv_pos_as_xyz
  1  'x, y, z'
loop_
 _atom_site_type_symbol
 _atom_site_label
 _atom_site_symmetry_multiplicity
 _atom_site_fract_x
 _atom_site_fract_y
 _atom_site_fract_z
 _atom_site_occupancy
  Sr  Sr0  1  0.97958400  0.47958400  0.50000000  1
  Sr  Sr1  1  0.77041600  0.77041600  0.00000000  1
  Sr  Sr2  1  0.22958400  0.22958400  0.00000000  1
  Sr  Sr3  1  0.52041600  0.02041600  0.50000000  1
  Sr  Sr4  1  0.37500000  0.73469200  0.85969200  1
  Sr  Sr5  1  0.87500000  0.51530800  0.14030800  1
  Sr  Sr6  1  0.87500000  0.98822800  0.61322800  1
  Sr  Sr7  1  0.37500000  0.26177200  0.38677200  1
  Sr  Sr8  1  0.73822800  0.12500000  0.11322800  1
  Sr  Sr9  1  0.01177200  0.62500000  0.88677200  1
  Sr  Sr10  1  0.48469200  0.62500000  0.35969200  1
  Sr  Sr11  1  0.26530800  0.12500000  0.64030800  1
  Al  Al0  1  0.25000000  0.75000000  0.50000000  1
  Al  Al1  1  0.50000000  0.50000000  0.00000000  1
  Al  Al2  1  0.37500000  0.99872500  0.12372500  1
  Al  Al3  1  0.87500000  0.25127500  0.87627500  1
  Al  Al4  1  0.00127500  0.12500000  0.37627500  1
  Al  Al5  1  0.74872500  0.62500000  0.62372500  1
  Al  Al6  1  0.09324100  0.37500500  0.25031100  1
  Al  Al7  1  0.12469400  0.84293000  0.74968900  1
  Al  Al8  1  0.62530600  0.87499500  0.21823600  1
  Al  Al9  1  0.65675900  0.40707000  0.78176400  1
  Al  Al10  1  0.12500500  0.34324100  0.75031100  1
  Al  Al11  1  0.59293000  0.37469400  0.24968900  1
  Al  Al12  1  0.62499500  0.87530600  0.71823600  1
  Al  Al13  1  0.15707000  0.90675900  0.28176400  1
  Cl  Cl0  1  0.75000000  0.25000000  0.50000000  1
  Cl  Cl1  1  0.00000000  0.00000000  0.00000000  1
  O  O0  1  0.63261500  0.48503700  0.94192000  1
  O  O1  1  0.54311700  0.69069500  0.05808000  1
  O  O2  1  0.20688300  0.76496300  0.64757800  1
  O  O3  1  0.11738500  0.55930500  0.35242200  1
  O  O4  1  0.23503700  0.88261500  0.44192000  1
  O  O5  1  0.44069500  0.79311700  0.55808000  1
  O  O6  1  0.51496300  0.45688300  0.14757800  1
  O  O7  1  0.30930500  0.36738500  0.85242200  1
  O  O8  1  0.81697400  0.38541000  0.86565000  1
  O  O9  1  0.93302600  0.29867700  0.06843600  1
  O  O10  1  0.51975900  0.95132300  0.13435000  1
  O  O11  1  0.23024100  0.86459000  0.93156400  1
  O  O12  1  0.31631100  0.98264000  0.25599000  1
  O  O13  1  0.43368900  0.18967900  0.16632900  1
  O  O14  1  0.02335000  0.26736000  0.83367000  1
  O  O15  1  0.72665000  0.06032100  0.74401000  1
  O  O16  1  0.73264000  0.56631100  0.75599000  1
  O  O17  1  0.93967900  0.68368900  0.66633000  1
  O  O18  1  0.01736000  0.27335000  0.33367000  1
  O  O19  1  0.81032100  0.97665000  0.24401000  1
  O  O20  1  0.13541000  0.06697400  0.36565000  1
  O  O21  1  0.04867700  0.18302600  0.56843600  1
  O  O22  1  0.70132300  0.76975900  0.63435000  1
  O  O23  1  0.61459000  0.48024100  0.43156400  1
  O  O24  1  0.75273300  0.37650300  0.24411900  1
  O  O25  1  0.13238400  0.50861400  0.75588100  1
  O  O26  1  0.61761600  0.87349700  0.87623000  1
  O  O27  1  0.99726700  0.74138600  0.12377000  1
  O  O28  1  0.12650300  0.00273300  0.74411900  1
  O  O29  1  0.25861400  0.38238400  0.25588100  1
  O  O30  1  0.62349700  0.86761600  0.37623000  1
  O  O31  1  0.49138600  0.24726700  0.62377000  1
loop_
_geom_bond_atom_site_label_1
_geom_bond_atom_site_label_2
_geom_bond_distance
_geom_bond_site_symmetry_2
Al0 O4 1.776811 1_555
Al0 O5 1.776811 1_555
Al0 O2 1.776811 1_555
Al0 O3 1.776811 1_555
Al1 O0 1.776811 1_554
Al1 O1 1.776811 1_555
Al1 O6 1.776811 1_555
Al1 O7 1.776811 1_554
Al2 O13 1.780378 1_565
Al2 O12 1.780378 1_555
Al2 O10 1.780681 1_555
Al2 O11 1.780682 1_554
Al3 O15 1.780378 1_555
Al3 O14 1.780385 1_655
Al3 O9 1.780682 1_556
Al3 O8 1.780685 1_555
Al4 O19 1.780378 1_445
Al4 O18 1.780385 1_555
Al4 O21 1.780682 1_555
Al4 O20 1.780685 1_555
Al5 O17 1.780376 1_555
Al5 O16 1.780378 1_555
Al5 O22 1.780681 1_555
Al5 O23 1.780682 1_555
Al6 O29 1.740828 1_555
Al6 O9 1.798140 1_455
Al6 O18 1.800688 1_555
Al6 O3 1.800959 1_555
Al7 O28 1.740828 1_565
Al7 O11 1.798140 1_555
Al7 O17 1.800699 1_455
Al7 O2 1.800959 1_555
Al8 O30 1.740828 1_555
Al8 O10 1.798136 1_555
Al8 O19 1.800697 1_555
Al8 O1 1.800959 1_555
Al9 O31 1.740828 1_555
Al9 O8 1.798138 1_555
Al9 O16 1.800697 1_555
Al9 O0 1.800959 1_555
Al10 O25 1.740828 1_555
Al10 O21 1.798140 1_555
Al10 O14 1.800688 1_555
Al10 O7 1.800959 1_555
Al11 O24 1.740828 1_555
Al11 O23 1.798140 1_555
Al11 O13 1.800697 1_555
Al11 O6 1.800959 1_555
Al12 O26 1.740828 1_555
Al12 O22 1.798136 1_555
Al12 O15 1.800697 1_565
Al12 O5 1.800959 1_555
Al13 O27 1.740828 1_455
Al13 O20 1.798138 1_565
Al13 O12 1.800697 1_555
Al13 O4 1.800959 1_555
Cl0 Sr0 2.865545 1_555
Cl0 Sr3 2.865545 1_555
Cl1 Sr2 2.865545 1_555
Cl1 Sr1 2.865545 1_445
O0 Sr5 2.601671 1_556
O0 Sr1 2.673170 1_556
O1 Sr4 2.601671 1_554
O1 Sr1 2.673170 1_555
O2 Sr4 2.601671 1_555
O2 Sr0 2.673170 1_455
O3 Sr5 2.601671 1_455
O3 Sr0 2.673170 1_455
O4 Sr11 2.601671 1_565
O4 Sr3 2.673170 1_565
O5 Sr10 2.601671 1_555
O5 Sr3 2.673170 1_565
O6 Sr10 2.601671 1_555
O6 Sr2 2.673170 1_555
O7 Sr11 2.601671 1_555
O7 Sr2 2.673170 1_556
O8 Sr5 2.560406 1_556
O8 Sr9 2.615764 1_655
O9 Sr5 2.560397 1_555
O9 Sr8 2.615770 1_555
O10 Sr4 2.560404 1_554
O10 Sr8 2.615777 1_565
O11 Sr4 2.560397 1_555
O11 Sr9 2.615770 1_555
O12 Sr7 2.602723 1_565
O12 Sr3 2.603067 1_565
O13 Sr7 2.602723 1_555
O13 Sr2 2.603067 1_555
O14 Sr6 2.602720 1_445
O14 Sr2 2.603072 1_556
O15 Sr6 2.602723 1_545
O15 Sr3 2.603067 1_555
O16 Sr9 2.602723 1_655
O16 Sr1 2.603067 1_556
O17 Sr9 2.602714 1_655
O17 Sr0 2.603072 1_555
O18 Sr8 2.602720 1_455
O18 Sr0 2.603072 1_455
O19 Sr8 2.602723 1_565
O19 Sr1 2.603067 1_555
O20 Sr11 2.560406 1_555
O20 Sr7 2.615764 1_555
O21 Sr11 2.560397 1_555
O21 Sr6 2.615770 1_445
O22 Sr10 2.560404 1_555
O22 Sr6 2.615777 1_555
O23 Sr10 2.560397 1_555
O23 Sr7 2.615770 1_555
O24 Sr5 2.458443 1_555
O24 Sr8 2.531080 1_555
O24 Sr0 2.547771 1_555
O25 Sr4 2.458443 1_555
O25 Sr9 2.531080 1_555
O25 Sr0 2.547771 1_455
O26 Sr4 2.458443 1_555
O26 Sr8 2.531080 1_566
O26 Sr1 2.547771 1_556
O27 Sr5 2.458443 1_555
O27 Sr9 2.531080 1_654
O27 Sr1 2.547771 1_555
O28 Sr11 2.458443 1_555
O28 Sr6 2.531080 1_445
O28 Sr2 2.547771 1_556
O29 Sr10 2.458443 1_555
O29 Sr7 2.531080 1_555
O29 Sr2 2.547771 1_555
O30 Sr10 2.458443 1_555
O30 Sr6 2.531080 1_555
O30 Sr3 2.547771 1_565
O31 Sr11 2.458443 1_555
O31 Sr7 2.531080 1_555
O31 Sr3 2.547771 1_555
