# generated using pymatgen
data_LiCaMg6
_symmetry_space_group_name_H-M   'P 1'
_cell_length_a   5.24735800
_cell_length_b   6.58043400
_cell_length_c   11.50848600
_cell_angle_alpha   90.00000000
_cell_angle_beta   90.00000000
_cell_angle_gamma   90.00000000
_symmetry_Int_Tables_number   1
_chemical_formula_structural   LiCaMg6
_chemical_formula_sum   'Li2 Ca2 Mg12'
_cell_volume   397.38679010
_cell_formula_units_Z   2
loop_
 _symmetry_equiv_pos_site_id
 _symmetry_equiv_pos_as_xyz
  1  'x, y, z'
loop_
 _atom_site_type_symbol
 _atom_site_label
 _atom_site_symmetry_multiplicity
 _atom_site_fract_x
 _atom_site_fract_y
 _atom_site_fract_z
 _atom_site_occupancy
  Li  Li0  1  0.50000000  0.50000000  0.16248800  1
  Li  Li1  1  0.50000000  0.00000000  0.66248800  1
  Ca  Ca0  1  0.00000000  0.50000000  0.33111200  1
  Ca  Ca1  1  0.00000000  0.00000000  0.83111200  1
  Mg  Mg0  1  0.00000000  0.74442500  0.08151800  1
  Mg  Mg1  1  0.00000000  0.25557500  0.08151800  1
  Mg  Mg2  1  0.00000000  0.00000000  0.33635400  1
  Mg  Mg3  1  0.50000000  0.24362000  0.41974900  1
  Mg  Mg4  1  0.50000000  0.75638000  0.41974900  1
  Mg  Mg5  1  0.50000000  0.00000000  0.16751300  1
  Mg  Mg6  1  0.00000000  0.24442500  0.58151800  1
  Mg  Mg7  1  0.00000000  0.75557500  0.58151800  1
  Mg  Mg8  1  0.00000000  0.50000000  0.83635400  1
  Mg  Mg9  1  0.50000000  0.74362000  0.91974900  1
  Mg  Mg10  1  0.50000000  0.25638000  0.91974900  1
  Mg  Mg11  1  0.50000000  0.50000000  0.66751300  1
loop_
_geom_bond_atom_site_label_1
_geom_bond_atom_site_label_2
_geom_bond_distance
_geom_bond_site_symmetry_2
Li0 Mg1 3.215438 1_655
Li0 Mg0 3.215438 1_655
Li0 Mg1 3.215438 1_555
Li0 Mg0 3.215438 1_555
Li0 Mg9 3.220866 1_554
Li0 Mg10 3.220866 1_554
Li0 Mg5 3.290725 1_565
Li0 Mg5 3.290725 1_555
Li0 Mg3 3.407628 1_555
Li0 Mg4 3.407628 1_555
Li1 Mg6 3.215438 1_555
Li1 Mg6 3.215438 1_655
Li1 Mg7 3.215438 1_645
Li1 Mg7 3.215438 1_545
Li1 Mg3 3.220866 1_555
Li1 Mg4 3.220866 1_545
Li1 Mg11 3.290725 1_545
Li1 Mg11 3.290725 1_555
Li1 Mg9 3.407628 1_545
Li1 Mg10 3.407628 1_555
Ca0 Li0 3.263380 1_455
Ca0 Li0 3.263380 1_555
Ca0 Mg3 3.281848 1_555
Ca0 Mg4 3.281848 1_555
Ca0 Mg4 3.281848 1_455
Ca0 Mg3 3.281848 1_455
Ca0 Mg2 3.290770 1_555
Ca0 Mg2 3.290770 1_565
Ca0 Mg1 3.292110 1_555
Ca0 Mg0 3.292110 1_555
Ca0 Mg6 3.336640 1_555
Ca0 Mg7 3.336640 1_555
Ca1 Li1 3.263380 1_555
Ca1 Li1 3.263380 1_455
Ca1 Mg9 3.281848 1_445
Ca1 Mg9 3.281848 1_545
Ca1 Mg10 3.281848 1_455
Ca1 Mg10 3.281848 1_555
Ca1 Mg8 3.290770 1_555
Ca1 Mg8 3.290770 1_545
Ca1 Mg7 3.292110 1_545
Ca1 Mg6 3.292110 1_555
Ca1 Mg1 3.336640 1_556
Ca1 Mg0 3.336640 1_546
Mg0 Mg1 3.216845 1_555
Mg0 Mg9 3.217096 1_454
Mg0 Mg9 3.217096 1_554
Mg0 Mg8 3.247722 1_554
Mg0 Mg5 3.269797 1_565
Mg0 Mg5 3.269797 1_465
Mg0 Mg1 3.363589 1_565
Mg0 Mg2 3.380771 1_565
Mg1 Mg10 3.217096 1_554
Mg1 Mg10 3.217096 1_454
Mg1 Mg8 3.247722 1_554
Mg1 Mg5 3.269797 1_555
Mg1 Mg5 3.269797 1_455
Mg1 Mg2 3.380771 1_555
Mg2 Mg3 3.220997 1_555
Mg2 Mg4 3.220997 1_445
Mg2 Mg4 3.220997 1_545
Mg2 Mg3 3.220997 1_455
Mg2 Mg6 3.247722 1_555
Mg2 Mg7 3.247722 1_545
Mg2 Mg5 3.264865 1_455
Mg2 Mg5 3.264865 1_555
Mg3 Mg4 3.206251 1_545
Mg3 Mg6 3.217096 1_555
Mg3 Mg6 3.217096 1_655
Mg3 Mg5 3.316108 1_555
Mg3 Mg4 3.374183 1_555
Mg4 Mg7 3.217096 1_655
Mg4 Mg7 3.217096 1_555
Mg4 Mg5 3.316108 1_565
Mg5 Mg9 3.313110 1_544
Mg6 Mg7 3.216845 1_545
Mg6 Mg7 3.363589 1_555
Mg6 Mg8 3.380771 1_555
Mg7 Mg8 3.380771 1_555
Mg8 Mg9 3.220997 1_555
Mg8 Mg9 3.220997 1_455
Mg10 Mg9 3.206251 1_555
Mg10 Mg8 3.220997 1_555
Mg10 Mg8 3.220997 1_655
Mg10 Mg5 3.313110 1_556
Mg10 Mg11 3.316108 1_555
Mg10 Mg9 3.374183 1_545
Mg11 Mg8 3.264865 1_555
Mg11 Mg8 3.264865 1_655
Mg11 Mg7 3.269797 1_655
Mg11 Mg6 3.269797 1_555
Mg11 Mg6 3.269797 1_655
Mg11 Mg7 3.269797 1_555
Mg11 Mg3 3.313110 1_555
Mg11 Mg4 3.313110 1_555
Mg11 Mg9 3.316108 1_555
