# generated using pymatgen
data_Mg5MnN4
_symmetry_space_group_name_H-M   'P 1'
_cell_length_a   7.25669100
_cell_length_b   6.73050200
_cell_length_c   5.17579800
_cell_angle_alpha   90.00000000
_cell_angle_beta   90.00000000
_cell_angle_gamma   90.00000000
_symmetry_Int_Tables_number   1
_chemical_formula_structural   Mg5MnN4
_chemical_formula_sum   'Mg10 Mn2 N8'
_cell_volume   252.79204703
_cell_formula_units_Z   2
loop_
 _symmetry_equiv_pos_site_id
 _symmetry_equiv_pos_as_xyz
  1  'x, y, z'
loop_
 _atom_site_type_symbol
 _atom_site_label
 _atom_site_symmetry_multiplicity
 _atom_site_fract_x
 _atom_site_fract_y
 _atom_site_fract_z
 _atom_site_occupancy
  Mg  Mg0  1  0.55445200  0.50081800  0.24978900  1
  Mg  Mg1  1  0.94554800  0.50081800  0.24978900  1
  Mg  Mg2  1  0.55445200  0.99918200  0.24978900  1
  Mg  Mg3  1  0.94554800  0.99918200  0.24978900  1
  Mg  Mg4  1  0.44554800  0.49918200  0.75021100  1
  Mg  Mg5  1  0.05445200  0.49918200  0.75021100  1
  Mg  Mg6  1  0.44554800  0.00081800  0.75021100  1
  Mg  Mg7  1  0.05445200  0.00081800  0.75021100  1
  Mg  Mg8  1  0.75000000  0.75000000  0.72217200  1
  Mg  Mg9  1  0.25000000  0.25000000  0.27782800  1
  Mn  Mn0  1  0.75000000  0.25000000  0.71188500  1
  Mn  Mn1  1  0.25000000  0.75000000  0.28811500  1
  N  N0  1  0.75000000  0.00340000  0.95164500  1
  N  N1  1  0.75000000  0.49660000  0.95164500  1
  N  N2  1  0.25000000  0.99660000  0.04835500  1
  N  N3  1  0.25000000  0.50340000  0.04835500  1
  N  N4  1  0.50287800  0.75000000  0.50265300  1
  N  N5  1  0.99712200  0.75000000  0.50265300  1
  N  N6  1  0.49712200  0.25000000  0.49734700  1
  N  N7  1  0.00287800  0.25000000  0.49734700  1
loop_
_geom_bond_atom_site_label_1
_geom_bond_atom_site_label_2
_geom_bond_distance
_geom_bond_site_symmetry_2
Mg0 N1 2.096596 1_554
Mg0 N6 2.159773 1_555
Mg0 N4 2.160020 1_555
Mg0 N3 2.443020 1_555
Mg1 N1 2.096596 1_554
Mg1 N7 2.159773 1_655
Mg1 N5 2.160020 1_555
Mg1 N3 2.443020 1_655
Mg2 N0 2.096596 1_564
Mg2 N6 2.159773 1_565
Mg2 N4 2.160020 1_555
Mg2 N2 2.443020 1_555
Mg3 N0 2.096596 1_564
Mg3 N7 2.159773 1_665
Mg3 N5 2.160020 1_555
Mg3 N2 2.443020 1_655
Mg4 N3 2.096596 1_556
Mg4 N4 2.159773 1_555
Mg4 N6 2.160020 1_555
Mg4 N1 2.443020 1_555
Mg5 N3 2.096596 1_556
Mg5 N5 2.159773 1_455
Mg5 N7 2.160020 1_555
Mg5 N1 2.443020 1_455
Mg6 N2 2.096596 1_546
Mg6 N4 2.159773 1_545
Mg6 N6 2.160020 1_555
Mg6 N0 2.443020 1_555
Mg7 N2 2.096596 1_546
Mg7 N5 2.159773 1_445
Mg7 N7 2.160020 1_555
Mg7 N0 2.443020 1_455
Mg8 N1 2.078318 1_555
Mg8 N0 2.078318 1_565
Mg8 N5 2.122923 1_555
Mg8 N4 2.122923 1_555
Mg9 N2 2.078318 1_545
Mg9 N3 2.078318 1_555
Mg9 N6 2.122923 1_555
Mg9 N7 2.122923 1_555
Mn0 N0 2.072365 1_555
Mn0 N1 2.072365 1_555
Mn0 N7 2.144863 1_655
Mn0 N6 2.144863 1_555
Mn1 N3 2.072365 1_555
Mn1 N2 2.072365 1_555
Mn1 N4 2.144863 1_555
Mn1 N5 2.144863 1_455
