# generated using pymatgen
data_Dy2Fe17
_symmetry_space_group_name_H-M   'P 1'
_cell_length_a   8.50641346
_cell_length_b   8.50641346
_cell_length_c   8.22847000
_cell_angle_alpha   90.00000000
_cell_angle_beta   90.00000000
_cell_angle_gamma   119.99999583
_symmetry_Int_Tables_number   1
_chemical_formula_structural   Dy2Fe17
_chemical_formula_sum   'Dy4 Fe34'
_cell_volume   515.63538952
_cell_formula_units_Z   2
loop_
 _symmetry_equiv_pos_site_id
 _symmetry_equiv_pos_as_xyz
  1  'x, y, z'
loop_
 _atom_site_type_symbol
 _atom_site_label
 _atom_site_symmetry_multiplicity
 _atom_site_fract_x
 _atom_site_fract_y
 _atom_site_fract_z
 _atom_site_occupancy
  Dy  Dy0  1  0.00000000  0.00000000  0.25000000  1
  Dy  Dy1  1  0.00000000  0.00000000  0.75000000  1
  Dy  Dy2  1  0.33333300  0.66666700  0.75000000  1
  Dy  Dy3  1  0.66666700  0.33333300  0.25000000  1
  Fe  Fe0  1  0.33333300  0.66666700  0.39374300  1
  Fe  Fe1  1  0.66666700  0.33333300  0.60625700  1
  Fe  Fe2  1  0.66666700  0.33333300  0.89374300  1
  Fe  Fe3  1  0.33333300  0.66666700  0.10625700  1
  Fe  Fe4  1  0.50000000  0.50000000  0.50000000  1
  Fe  Fe5  1  0.50000000  0.00000000  0.50000000  1
  Fe  Fe6  1  0.00000000  0.50000000  0.50000000  1
  Fe  Fe7  1  0.50000000  0.50000000  0.00000000  1
  Fe  Fe8  1  0.50000000  0.00000000  0.00000000  1
  Fe  Fe9  1  0.00000000  0.50000000  0.00000000  1
  Fe  Fe10  1  0.32907600  0.36929300  0.25000000  1
  Fe  Fe11  1  0.63070700  0.95978400  0.25000000  1
  Fe  Fe12  1  0.04021600  0.67092400  0.25000000  1
  Fe  Fe13  1  0.63070700  0.67092400  0.25000000  1
  Fe  Fe14  1  0.04021600  0.36929300  0.25000000  1
  Fe  Fe15  1  0.32907600  0.95978400  0.25000000  1
  Fe  Fe16  1  0.67092400  0.63070700  0.75000000  1
  Fe  Fe17  1  0.36929300  0.04021600  0.75000000  1
  Fe  Fe18  1  0.95978400  0.32907600  0.75000000  1
  Fe  Fe19  1  0.36929300  0.32907600  0.75000000  1
  Fe  Fe20  1  0.95978400  0.63070700  0.75000000  1
  Fe  Fe21  1  0.67092400  0.04021600  0.75000000  1
  Fe  Fe22  1  0.16605400  0.83394600  0.51577600  1
  Fe  Fe23  1  0.16605400  0.33210700  0.51577600  1
  Fe  Fe24  1  0.66789300  0.83394600  0.51577600  1
  Fe  Fe25  1  0.83394600  0.16605400  0.48422400  1
  Fe  Fe26  1  0.83394600  0.66789300  0.48422400  1
  Fe  Fe27  1  0.33210700  0.16605400  0.48422400  1
  Fe  Fe28  1  0.83394600  0.16605400  0.01577600  1
  Fe  Fe29  1  0.83394600  0.66789300  0.01577600  1
  Fe  Fe30  1  0.33210700  0.16605400  0.01577600  1
  Fe  Fe31  1  0.16605400  0.83394600  0.98422400  1
  Fe  Fe32  1  0.16605400  0.33210700  0.98422400  1
  Fe  Fe33  1  0.66789300  0.83394600  0.98422400  1
loop_
_geom_bond_atom_site_label_1
_geom_bond_atom_site_label_2
_geom_bond_distance
_geom_bond_site_symmetry_2
Dy0 Fe15 2.985042 1_545
Dy0 Fe12 2.985042 1_545
Dy0 Fe10 2.985047 1_555
Dy0 Fe13 2.985047 1_445
Dy0 Fe11 2.985050 1_445
Dy0 Fe14 2.985050 1_555
Dy0 Fe27 3.114505 1_555
Dy0 Fe29 3.114505 1_445
Dy0 Fe30 3.114505 1_555
Dy0 Fe26 3.114505 1_445
Dy0 Fe25 3.114511 1_455
Dy0 Fe28 3.114511 1_455
Dy0 Fe23 3.281509 1_555
Dy0 Fe32 3.281509 1_554
Dy0 Fe24 3.281509 1_445
Dy0 Fe33 3.281509 1_444
Dy0 Fe31 3.281514 1_544
Dy0 Fe22 3.281514 1_545
Dy1 Fe18 2.985042 1_455
Dy1 Fe21 2.985042 1_455
Dy1 Fe19 2.985047 1_555
Dy1 Fe16 2.985047 1_445
Dy1 Fe17 2.985050 1_555
Dy1 Fe20 2.985050 1_445
Dy1 Fe24 3.114505 1_445
Dy1 Fe33 3.114505 1_445
Dy1 Fe32 3.114505 1_555
Dy1 Fe23 3.114505 1_555
Dy1 Fe22 3.114511 1_545
Dy1 Fe31 3.114511 1_545
Dy1 Fe30 3.281509 1_556
Dy1 Fe27 3.281509 1_555
Dy1 Fe29 3.281509 1_446
Dy1 Fe26 3.281509 1_445
Dy1 Fe25 3.281514 1_455
Dy1 Fe28 3.281514 1_456
Dy2 Fe0 2.931450 1_555
Dy2 Fe3 2.931450 1_556
Dy2 Fe17 3.036196 1_565
Dy2 Fe20 3.036196 1_455
Dy2 Fe21 3.036203 1_565
Dy2 Fe18 3.036203 1_455
Dy2 Fe16 3.036213 1_555
Dy2 Fe19 3.036213 1_555
Dy2 Fe31 3.128708 1_555
Dy2 Fe22 3.128708 1_555
Dy2 Fe24 3.128720 1_555
Dy2 Fe33 3.128720 1_555
Dy2 Fe32 3.128720 1_555
Dy2 Fe23 3.128720 1_555
Dy2 Fe5 3.203380 1_565
Dy2 Fe9 3.203380 1_556
Dy2 Fe6 3.203380 1_555
Dy2 Fe8 3.203380 1_566
Dy2 Fe4 3.203386 1_555
Dy2 Fe7 3.203386 1_556
Dy3 Fe2 2.931450 1_554
Dy3 Fe1 2.931450 1_555
Dy3 Fe14 3.036196 1_655
Dy3 Fe11 3.036196 1_545
Dy3 Fe12 3.036203 1_655
Dy3 Fe15 3.036203 1_545
Dy3 Fe10 3.036213 1_555
Dy3 Fe13 3.036213 1_555
Dy3 Fe28 3.128708 1_555
Dy3 Fe25 3.128708 1_555
Dy3 Fe26 3.128720 1_555
Dy3 Fe29 3.128720 1_555
Dy3 Fe30 3.128720 1_555
Dy3 Fe27 3.128720 1_555
Dy3 Fe6 3.203380 1_655
Dy3 Fe8 3.203380 1_555
Dy3 Fe9 3.203380 1_655
Dy3 Fe5 3.203380 1_555
Dy3 Fe4 3.203386 1_555
Dy3 Fe7 3.203386 1_555
Fe0 Fe3 2.365570 1_555
Fe0 Fe6 2.606601 1_555
Fe0 Fe5 2.606601 1_565
Fe0 Fe4 2.606608 1_555
Fe0 Fe22 2.661319 1_555
Fe0 Fe24 2.661333 1_555
Fe0 Fe23 2.661333 1_555
Fe0 Fe12 2.776238 1_555
Fe0 Fe15 2.776238 1_555
Fe0 Fe10 2.776238 1_555
Fe0 Fe13 2.776238 1_555
Fe0 Fe11 2.776238 1_555
Fe0 Fe14 2.776238 1_555
Fe1 Fe2 2.365570 1_555
Fe1 Fe5 2.606601 1_555
Fe1 Fe6 2.606601 1_655
Fe1 Fe4 2.606608 1_555
Fe1 Fe25 2.661319 1_555
Fe1 Fe26 2.661333 1_555
Fe1 Fe27 2.661333 1_555
Fe1 Fe21 2.776238 1_555
Fe1 Fe18 2.776238 1_555
Fe1 Fe19 2.776238 1_555
Fe1 Fe16 2.776238 1_555
Fe1 Fe17 2.776238 1_555
Fe1 Fe20 2.776238 1_555
Fe2 Fe8 2.606601 1_556
Fe2 Fe9 2.606601 1_656
Fe2 Fe7 2.606608 1_556
Fe2 Fe28 2.661319 1_556
Fe2 Fe29 2.661333 1_556
Fe2 Fe30 2.661333 1_556
Fe2 Fe21 2.776238 1_555
Fe2 Fe20 2.776238 1_555
Fe3 Fe9 2.606601 1_555
Fe3 Fe8 2.606601 1_565
Fe3 Fe7 2.606608 1_555
Fe3 Fe31 2.661319 1_554
Fe3 Fe33 2.661333 1_554
Fe3 Fe32 2.661333 1_554
Fe10 Fe4 2.442404 1_555
Fe10 Fe7 2.442404 1_555
Fe10 Fe14 2.457163 1_555
Fe10 Fe23 2.523311 1_555
Fe10 Fe32 2.523311 1_554
Fe10 Fe13 2.565798 1_555
Fe10 Fe30 2.597810 1_555
Fe10 Fe27 2.597810 1_555
Fe10 Fe3 2.776238 1_555
Fe11 Fe8 2.442401 1_565
Fe11 Fe5 2.442401 1_565
Fe11 Fe13 2.457163 1_555
Fe11 Fe24 2.523319 1_555
Fe11 Fe33 2.523319 1_554
Fe11 Fe15 2.565798 1_555
Fe11 Fe28 2.597810 1_565
Fe11 Fe25 2.597810 1_565
Fe11 Fe3 2.776238 1_555
Fe12 Fe9 2.442405 1_555
Fe12 Fe6 2.442405 1_555
Fe12 Fe15 2.457163 1_555
Fe12 Fe31 2.523313 1_554
Fe12 Fe22 2.523313 1_555
Fe12 Fe14 2.565798 1_555
Fe12 Fe26 2.597810 1_455
Fe12 Fe29 2.597810 1_455
Fe12 Fe3 2.776238 1_555
Fe13 Fe4 2.442404 1_555
Fe13 Fe7 2.442404 1_555
Fe13 Fe33 2.523311 1_554
Fe13 Fe24 2.523311 1_555
Fe13 Fe29 2.597810 1_555
Fe13 Fe26 2.597810 1_555
Fe13 Fe3 2.776238 1_555
Fe14 Fe9 2.442401 1_555
Fe14 Fe6 2.442401 1_555
Fe14 Fe32 2.523319 1_554
Fe14 Fe23 2.523319 1_555
Fe14 Fe25 2.597810 1_455
Fe14 Fe28 2.597810 1_455
Fe14 Fe3 2.776238 1_555
Fe15 Fe8 2.442405 1_565
Fe15 Fe5 2.442405 1_565
Fe15 Fe31 2.523313 1_554
Fe15 Fe22 2.523313 1_555
Fe15 Fe30 2.597810 1_565
Fe15 Fe27 2.597810 1_565
Fe15 Fe3 2.776238 1_555
Fe16 Fe7 2.442404 1_556
Fe16 Fe4 2.442404 1_555
Fe16 Fe20 2.457163 1_555
Fe16 Fe26 2.523311 1_555
Fe16 Fe29 2.523311 1_556
Fe16 Fe19 2.565798 1_555
Fe16 Fe33 2.597810 1_555
Fe16 Fe24 2.597810 1_555
Fe16 Fe2 2.776238 1_555
Fe17 Fe8 2.442401 1_556
Fe17 Fe5 2.442401 1_555
Fe17 Fe19 2.457163 1_555
Fe17 Fe27 2.523319 1_555
Fe17 Fe30 2.523319 1_556
Fe17 Fe21 2.565798 1_555
Fe17 Fe22 2.597810 1_545
Fe17 Fe31 2.597810 1_545
Fe17 Fe2 2.776238 1_555
Fe18 Fe6 2.442405 1_655
Fe18 Fe9 2.442405 1_656
Fe18 Fe21 2.457163 1_555
Fe18 Fe25 2.523313 1_555
Fe18 Fe28 2.523313 1_556
Fe18 Fe20 2.565798 1_555
Fe18 Fe23 2.597810 1_655
Fe18 Fe32 2.597810 1_655
Fe18 Fe2 2.776238 1_555
Fe19 Fe4 2.442404 1_555
Fe19 Fe7 2.442404 1_556
Fe19 Fe30 2.523311 1_556
Fe19 Fe27 2.523311 1_555
Fe19 Fe23 2.597810 1_555
Fe19 Fe32 2.597810 1_555
Fe19 Fe2 2.776238 1_555
Fe20 Fe6 2.442401 1_655
Fe20 Fe9 2.442401 1_656
Fe20 Fe26 2.523319 1_555
Fe20 Fe29 2.523319 1_556
Fe20 Fe22 2.597810 1_655
Fe20 Fe31 2.597810 1_655
Fe21 Fe5 2.442405 1_555
Fe21 Fe8 2.442405 1_556
Fe21 Fe25 2.523313 1_555
Fe21 Fe28 2.523313 1_556
Fe21 Fe24 2.597810 1_545
Fe21 Fe33 2.597810 1_545
Fe22 Fe27 2.460300 1_565
Fe22 Fe26 2.460300 1_455
Fe22 Fe6 2.463538 1_555
Fe22 Fe5 2.463538 1_565
Fe23 Fe27 2.460285 1_555
Fe23 Fe25 2.460300 1_455
Fe23 Fe4 2.463538 1_555
Fe23 Fe6 2.463546 1_555
Fe24 Fe26 2.460285 1_555
Fe24 Fe25 2.460300 1_565
Fe24 Fe4 2.463538 1_555
Fe24 Fe5 2.463546 1_565
Fe25 Fe5 2.463538 1_555
Fe25 Fe6 2.463538 1_655
Fe26 Fe4 2.463538 1_555
Fe26 Fe6 2.463546 1_655
Fe27 Fe4 2.463538 1_555
Fe27 Fe5 2.463546 1_555
Fe28 Fe32 2.460300 1_654
Fe28 Fe33 2.460300 1_544
Fe28 Fe9 2.463538 1_655
Fe28 Fe8 2.463538 1_555
Fe29 Fe33 2.460285 1_554
Fe29 Fe31 2.460300 1_654
Fe29 Fe7 2.463538 1_555
Fe29 Fe9 2.463546 1_655
Fe30 Fe32 2.460285 1_554
Fe30 Fe31 2.460300 1_544
Fe30 Fe7 2.463538 1_555
Fe30 Fe8 2.463546 1_555
Fe31 Fe8 2.463538 1_566
Fe31 Fe9 2.463538 1_556
Fe32 Fe7 2.463538 1_556
Fe32 Fe9 2.463546 1_556
Fe33 Fe7 2.463538 1_556
Fe33 Fe8 2.463546 1_566
