# generated using pymatgen
data_Y2AlCo3
_symmetry_space_group_name_H-M   'P 1'
_cell_length_a   4.98991050
_cell_length_b   4.98991050
_cell_length_c   4.98991004
_cell_angle_alpha   64.94830050
_cell_angle_beta   64.94830050
_cell_angle_gamma   64.94830082
_symmetry_Int_Tables_number   1
_chemical_formula_structural   Y2AlCo3
_chemical_formula_sum   'Y2 Al1 Co3'
_cell_volume   97.35185133
_cell_formula_units_Z   1
loop_
 _symmetry_equiv_pos_site_id
 _symmetry_equiv_pos_as_xyz
  1  'x, y, z'
loop_
 _atom_site_type_symbol
 _atom_site_label
 _atom_site_symmetry_multiplicity
 _atom_site_fract_x
 _atom_site_fract_y
 _atom_site_fract_z
 _atom_site_occupancy
  Y  Y0  1  0.62858600  0.62858600  0.62858600  1
  Y  Y1  1  0.37141400  0.37141400  0.37141400  1
  Al  Al0  1  0.00000000  0.00000000  0.00000000  1
  Co  Co0  1  0.00000000  0.50000000  0.00000000  1
  Co  Co1  1  0.50000000  0.00000000  0.00000000  1
  Co  Co2  1  0.00000000  0.00000000  0.50000000  1
loop_
_geom_bond_atom_site_label_1
_geom_bond_atom_site_label_2
_geom_bond_distance
_geom_bond_site_symmetry_2
Y0 Y1 3.020615 1_555
Y0 Y1 3.220386 1_556
Y0 Y1 3.220386 1_655
Y0 Y1 3.220386 1_565
Al0 Co2 2.494955 1_554
Al0 Co2 2.494955 1_555
Al0 Co0 2.494955 1_545
Al0 Co1 2.494955 1_455
Al0 Co0 2.494955 1_555
Al0 Co1 2.494955 1_555
Al0 Y1 3.125814 1_554
Al0 Y0 3.125814 1_445
Al0 Y1 3.125814 1_455
Al0 Y1 3.125814 1_545
Al0 Y0 3.125814 1_544
Al0 Y0 3.125814 1_454
Co0 Co2 2.679178 1_555
Co0 Co2 2.679178 1_564
Co0 Co1 2.679178 1_465
Co0 Co1 2.679178 1_555
Co0 Y1 2.859374 1_555
Co0 Y0 2.859374 1_454
Co0 Y0 3.075552 1_455
Co0 Y1 3.075552 1_554
Co0 Y0 3.075553 1_554
Co0 Y1 3.075553 1_455
Co1 Co2 2.679178 1_654
Co1 Co2 2.679178 1_555
Co1 Y1 2.859374 1_555
Co1 Y0 2.859374 1_544
Co1 Y0 3.075552 1_545
Co1 Y1 3.075552 1_554
Co1 Y0 3.075553 1_554
Co1 Y1 3.075553 1_545
Co2 Y1 2.859374 1_555
Co2 Y0 2.859374 1_445
Co2 Y0 3.075553 1_545
Co2 Y0 3.075553 1_455
Co2 Y1 3.075553 1_455
Co2 Y1 3.075553 1_545
