# generated using pymatgen
data_Er12(OsC3)5
_symmetry_space_group_name_H-M   'P 1'
_cell_length_a   5.02184300
_cell_length_b   10.64921636
_cell_length_c   10.64921636
_cell_angle_alpha   120.00000223
_cell_angle_beta   90.00000000
_cell_angle_gamma   90.00000000
_symmetry_Int_Tables_number   1
_chemical_formula_structural   Er12(OsC3)5
_chemical_formula_sum   'Er12 Os5 C15'
_cell_volume   493.20679830
_cell_formula_units_Z   1
loop_
 _symmetry_equiv_pos_site_id
 _symmetry_equiv_pos_as_xyz
  1  'x, y, z'
loop_
 _atom_site_type_symbol
 _atom_site_label
 _atom_site_symmetry_multiplicity
 _atom_site_fract_x
 _atom_site_fract_y
 _atom_site_fract_z
 _atom_site_occupancy
  Er  Er0  1  0.50000000  0.20670100  0.20670100  1
  Er  Er1  1  0.50000000  0.00000000  0.79329900  1
  Er  Er2  1  0.50000000  0.79329900  0.00000000  1
  Er  Er3  1  0.00000000  0.72742400  0.18317900  1
  Er  Er4  1  0.00000000  0.45575500  0.27257600  1
  Er  Er5  1  0.00000000  0.54424500  0.81682100  1
  Er  Er6  1  0.00000000  0.81682100  0.54424500  1
  Er  Er7  1  0.00000000  0.18317900  0.72742400  1
  Er  Er8  1  0.00000000  0.27257600  0.45575500  1
  Er  Er9  1  0.50000000  0.56589300  0.56589300  1
  Er  Er10  1  0.50000000  0.00000000  0.43410700  1
  Er  Er11  1  0.50000000  0.43410700  0.00000000  1
  Os  Os0  1  0.00000000  0.83905600  0.83905600  1
  Os  Os1  1  0.00000000  0.00000000  0.16094400  1
  Os  Os2  1  0.00000000  0.16094400  0.00000000  1
  Os  Os3  1  0.50000000  0.66666700  0.33333300  1
  Os  Os4  1  0.50000000  0.33333300  0.66666700  1
  C  C0  1  0.00000000  0.66322600  0.66322600  1
  C  C1  1  0.00000000  0.00000000  0.33677400  1
  C  C2  1  0.00000000  0.33677400  0.00000000  1
  C  C3  1  0.00000000  0.21064400  0.21064400  1
  C  C4  1  0.00000000  0.00000000  0.78935600  1
  C  C5  1  0.00000000  0.78935600  0.00000000  1
  C  C6  1  0.00000000  0.53731500  0.53731500  1
  C  C7  1  0.00000000  0.00000000  0.46268500  1
  C  C8  1  0.00000000  0.46268500  0.00000000  1
  C  C9  1  0.50000000  0.71724300  0.18388700  1
  C  C10  1  0.50000000  0.46664400  0.28275700  1
  C  C11  1  0.50000000  0.53335600  0.81611300  1
  C  C12  1  0.50000000  0.81611300  0.53335600  1
  C  C13  1  0.50000000  0.18388700  0.71724300  1
  C  C14  1  0.50000000  0.28275700  0.46664400  1
loop_
_geom_bond_atom_site_label_1
_geom_bond_atom_site_label_2
_geom_bond_distance
_geom_bond_site_symmetry_2
C0 C6 1.340853 1_555
C0 Os0 1.872452 1_555
C0 Er6 2.520577 1_555
C0 Er5 2.520577 1_555
C0 Er9 2.716450 1_555
C0 Er9 2.716450 1_455
C1 C7 1.340853 1_555
C1 Os1 1.872452 1_555
C1 Er3 2.520577 1_545
C1 Er8 2.520577 1_555
C1 Er10 2.716450 1_455
C1 Er10 2.716450 1_555
C2 C8 1.340853 1_555
C2 Os2 1.872452 1_555
C2 Er7 2.520577 1_554
C2 Er4 2.520577 1_555
C2 Er11 2.716450 1_555
C2 Er11 2.716450 1_455
C3 Os1 2.030959 1_555
C3 Os2 2.030959 1_555
C3 Er4 2.350916 1_555
C3 Er8 2.350916 1_555
C3 Er0 2.511273 1_555
C3 Er0 2.511273 1_455
C4 Os2 2.030959 1_556
C4 Os0 2.030959 1_545
C4 Er6 2.350916 1_545
C4 Er7 2.350916 1_555
C4 Er1 2.511273 1_555
C4 Er1 2.511273 1_455
C5 Os1 2.030959 1_565
C5 Os0 2.030959 1_554
C5 Er5 2.350916 1_554
C5 Er3 2.350916 1_555
C5 Er2 2.511273 1_455
C5 Er2 2.511273 1_555
C6 Er4 2.500790 1_555
C6 Er8 2.500790 1_555
C6 Er9 2.529297 1_455
C6 Er9 2.529297 1_555
C7 Er7 2.500790 1_555
C7 Er6 2.500790 1_545
C7 Er10 2.529297 1_455
C7 Er10 2.529297 1_555
C8 Er3 2.500790 1_555
C8 Er5 2.500790 1_554
C8 Er11 2.529297 1_555
C8 Er11 2.529297 1_455
C9 Os3 1.918350 1_555
C9 Er2 2.465119 1_555
C9 Er3 2.513435 1_555
C9 Er3 2.513435 1_655
C9 Er11 2.649824 1_555
C9 Er10 2.853714 1_565
C10 Os3 1.918360 1_555
C10 Er0 2.465119 1_555
C10 Er4 2.513435 1_555
C10 Er4 2.513435 1_655
C10 Er9 2.649824 1_555
C10 Er11 2.853714 1_555
C11 Os4 1.918357 1_555
C11 Er2 2.465119 1_556
C11 Er5 2.513435 1_555
C11 Er5 2.513435 1_655
C11 Er11 2.649824 1_556
C11 Er9 2.853714 1_555
C12 Os3 1.918357 1_555
C12 Er1 2.465119 1_565
C12 Er6 2.513435 1_655
C12 Er6 2.513435 1_555
C12 Er10 2.649824 1_565
C12 Er9 2.853714 1_555
C13 Os4 1.918350 1_555
C13 Er1 2.465119 1_555
C13 Er7 2.513435 1_655
C13 Er7 2.513435 1_555
C13 Er10 2.649824 1_555
C13 Er11 2.853714 1_556
C14 Os4 1.918360 1_555
C14 Er0 2.465119 1_555
C14 Er8 2.513435 1_555
C14 Er8 2.513435 1_655
C14 Er9 2.649824 1_555
C14 Er10 2.853714 1_555
