# generated using pymatgen
data_LaSiNO2
_symmetry_space_group_name_H-M   'P 1'
_cell_length_a   7.43141956
_cell_length_b   7.43141956
_cell_length_c   9.74993700
_cell_angle_alpha   90.00000000
_cell_angle_beta   90.00000000
_cell_angle_gamma   119.99999610
_symmetry_Int_Tables_number   1
_chemical_formula_structural   LaSiNO2
_chemical_formula_sum   'La6 Si6 N6 O12'
_cell_volume   466.31138713
_cell_formula_units_Z   6
loop_
 _symmetry_equiv_pos_site_id
 _symmetry_equiv_pos_as_xyz
  1  'x, y, z'
loop_
 _atom_site_type_symbol
 _atom_site_label
 _atom_site_symmetry_multiplicity
 _atom_site_fract_x
 _atom_site_fract_y
 _atom_site_fract_z
 _atom_site_occupancy
  La  La0  1  0.00000000  0.00000000  0.50000000  1
  La  La1  1  0.00000000  0.00000000  0.00000000  1
  La  La2  1  0.66666700  0.33333300  0.50000000  1
  La  La3  1  0.66666700  0.33333300  0.00000000  1
  La  La4  1  0.33333300  0.66666700  0.50000000  1
  La  La5  1  0.33333300  0.66666700  0.00000000  1
  Si  Si0  1  0.00000000  0.44946300  0.75000000  1
  Si  Si1  1  0.55053700  0.55053700  0.75000000  1
  Si  Si2  1  0.44946300  0.00000000  0.75000000  1
  Si  Si3  1  0.44946300  0.44946300  0.25000000  1
  Si  Si4  1  0.55053700  0.00000000  0.25000000  1
  Si  Si5  1  0.00000000  0.55053700  0.25000000  1
  N  N0  1  0.00000000  0.88886600  0.75000000  1
  N  N1  1  0.11113400  0.11113400  0.75000000  1
  N  N2  1  0.88886600  0.00000000  0.75000000  1
  N  N3  1  0.88886600  0.88886600  0.25000000  1
  N  N4  1  0.11113400  0.00000000  0.25000000  1
  N  N5  1  0.00000000  0.11113400  0.25000000  1
  O  O0  1  0.35448100  0.00000000  0.59572000  1
  O  O1  1  0.00000000  0.64551900  0.40428000  1
  O  O2  1  0.00000000  0.35448100  0.59572000  1
  O  O3  1  0.64551900  0.64551900  0.59572000  1
  O  O4  1  0.00000000  0.35448100  0.90428000  1
  O  O5  1  0.64551900  0.64551900  0.90428000  1
  O  O6  1  0.00000000  0.64551900  0.09572000  1
  O  O7  1  0.64551900  0.00000000  0.40428000  1
  O  O8  1  0.35448100  0.35448100  0.40428000  1
  O  O9  1  0.35448100  0.35448100  0.09572000  1
  O  O10  1  0.64551900  0.00000000  0.09572000  1
  O  O11  1  0.35448100  0.00000000  0.90428000  1
loop_
_geom_bond_atom_site_label_1
_geom_bond_atom_site_label_2
_geom_bond_distance
_geom_bond_site_symmetry_2
La0 N4 2.573599 1_555
La0 N2 2.573599 1_455
La0 N0 2.573599 1_545
La0 N5 2.573599 1_555
La0 N3 2.573599 1_445
La0 N1 2.573599 1_555
La0 O0 2.794728 1_555
La0 O2 2.794728 1_555
La0 O1 2.794728 1_545
La0 O7 2.794728 1_455
La0 O8 2.794728 1_555
La0 O3 2.794728 1_445
La1 N4 2.573599 1_555
La1 N0 2.573599 1_544
La1 N2 2.573599 1_454
La1 N5 2.573599 1_555
La1 N3 2.573599 1_445
La1 N1 2.573599 1_554
La1 O6 2.794728 1_545
La1 O10 2.794728 1_455
La1 O11 2.794728 1_554
La1 O4 2.794728 1_554
La1 O9 2.794728 1_555
La1 O5 2.794728 1_444
La2 O7 2.577321 1_555
La2 O2 2.577321 1_655
La2 O1 2.577324 1_655
La2 O0 2.577324 1_555
La2 O3 2.577328 1_555
La2 O8 2.577328 1_555
La3 O10 2.577321 1_555
La3 O4 2.577321 1_654
La3 O6 2.577324 1_655
La3 O11 2.577324 1_554
La3 O9 2.577328 1_555
La3 O5 2.577328 1_554
La4 O1 2.577321 1_555
La4 O0 2.577321 1_565
La4 O7 2.577324 1_565
La4 O2 2.577324 1_555
La4 O3 2.577328 1_555
La4 O8 2.577328 1_555
La5 O6 2.577321 1_555
La5 O11 2.577321 1_564
La5 O4 2.577324 1_554
La5 O10 2.577324 1_565
La5 O5 2.577328 1_554
La5 O9 2.577328 1_555
N0 N2 1.430472 1_465
N0 N1 1.430472 1_565
N1 N2 1.430472 1_455
N3 N4 1.430472 1_665
N3 N5 1.430472 1_665
N4 N5 1.430472 1_555
O0 Si2 1.661597 1_555
O1 Si5 1.661597 1_555
O2 Si0 1.661597 1_555
O3 Si1 1.661597 1_555
O4 Si0 1.661597 1_555
O5 Si1 1.661597 1_555
O6 Si5 1.661597 1_555
O7 Si4 1.661597 1_555
O8 Si3 1.661597 1_555
O9 Si3 1.661597 1_555
O10 Si4 1.661597 1_555
O11 Si2 1.661597 1_555
