# generated using pymatgen
data_MnAg(PO3)3
_symmetry_space_group_name_H-M   'P 1'
_cell_length_a   14.81141551
_cell_length_b   14.77186914
_cell_length_c   14.78628328
_cell_angle_alpha   90.00000000
_cell_angle_beta   90.00000000
_cell_angle_gamma   90.00000000
_symmetry_Int_Tables_number   1
_chemical_formula_structural   MnAg(PO3)3
_chemical_formula_sum   'Mn16 Ag16 P48 O144'
_cell_volume   3235.12480444
_cell_formula_units_Z   16
loop_
 _symmetry_equiv_pos_site_id
 _symmetry_equiv_pos_as_xyz
  1  'x, y, z'
loop_
 _atom_site_type_symbol
 _atom_site_label
 _atom_site_symmetry_multiplicity
 _atom_site_fract_x
 _atom_site_fract_y
 _atom_site_fract_z
 _atom_site_occupancy
  Mn  Mn0  1  0.11574360  0.86576975  0.37654937  1
  Mn  Mn1  1  0.38425640  0.13423025  0.87654937  1
  Mn  Mn2  1  0.61574360  0.63423025  0.62345063  1
  Mn  Mn3  1  0.88425640  0.36576975  0.12345063  1
  Mn  Mn4  1  0.62592594  0.12348681  0.37490915  1
  Mn  Mn5  1  0.87407406  0.87651319  0.87490915  1
  Mn  Mn6  1  0.12592594  0.37651319  0.62509085  1
  Mn  Mn7  1  0.37407406  0.62348681  0.12509085  1
  Mn  Mn8  1  0.62219148  0.87341488  0.12461269  1
  Mn  Mn9  1  0.87780852  0.12658512  0.62461269  1
  Mn  Mn10  1  0.12219148  0.62658512  0.87538731  1
  Mn  Mn11  1  0.37780852  0.37341488  0.37538731  1
  Mn  Mn12  1  0.86692604  0.61488839  0.37264564  1
  Mn  Mn13  1  0.63307396  0.38511161  0.87264564  1
  Mn  Mn14  1  0.36692604  0.88511161  0.62735436  1
  Mn  Mn15  1  0.13307396  0.11488839  0.12735436  1
  Ag  Ag0  1  0.00088726  0.50894595  0.50682220  1
  Ag  Ag1  1  0.49911274  0.49105405  0.00682220  1
  Ag  Ag2  1  0.50088726  0.99105405  0.49317780  1
  Ag  Ag3  1  0.99911274  0.00894595  0.99317780  1
  Ag  Ag4  1  0.50186322  0.49424069  0.50308752  1
  Ag  Ag5  1  0.99813678  0.50575931  0.00308752  1
  Ag  Ag6  1  0.00186322  0.00575931  0.49691248  1
  Ag  Ag7  1  0.49813678  0.99424069  0.99691248  1
  Ag  Ag8  1  0.25444082  0.75549257  0.25087684  1
  Ag  Ag9  1  0.24555918  0.24450743  0.75087684  1
  Ag  Ag10  1  0.75444082  0.74450743  0.74912316  1
  Ag  Ag11  1  0.74555918  0.25549257  0.24912316  1
  Ag  Ag12  1  0.75772107  0.75584098  0.24795900  1
  Ag  Ag13  1  0.74227893  0.24415902  0.74795900  1
  Ag  Ag14  1  0.25772107  0.74415902  0.75204100  1
  Ag  Ag15  1  0.24227893  0.25584098  0.25204100  1
  P  P0  1  0.47235757  0.02475300  0.23326970  1
  P  P1  1  0.02764243  0.97524700  0.73326970  1
  P  P2  1  0.97235757  0.47524700  0.76673030  1
  P  P3  1  0.52764243  0.52475300  0.26673030  1
  P  P4  1  0.27520493  0.00376990  0.27767899  1
  P  P5  1  0.22479507  0.99623010  0.77767899  1
  P  P6  1  0.77520493  0.49623010  0.72232101  1
  P  P7  1  0.72479507  0.50376990  0.22232101  1
  P  P8  1  0.25599506  0.02428005  0.47610304  1
  P  P9  1  0.24400494  0.97571995  0.97610304  1
  P  P10  1  0.75599506  0.47571995  0.52389696  1
  P  P11  1  0.74400494  0.52428005  0.02389696  1
  P  P12  1  0.27339148  0.22366414  0.51504921  1
  P  P13  1  0.22660852  0.77633586  0.01504921  1
  P  P14  1  0.77339148  0.27633586  0.48495079  1
  P  P15  1  0.72660852  0.72366414  0.98495079  1
  P  P16  1  0.47232593  0.23432917  0.52443076  1
  P  P17  1  0.02767407  0.76567083  0.02443076  1
  P  P18  1  0.97232593  0.26567083  0.47556924  1
  P  P19  1  0.52767407  0.73432917  0.97556924  1
  P  P20  1  0.49659218  0.27659970  0.72189784  1
  P  P21  1  0.00340782  0.72340030  0.22189784  1
  P  P22  1  0.99659218  0.22340030  0.27810216  1
  P  P23  1  0.50340782  0.77659970  0.77810216  1
  P  P24  1  0.47529612  0.47534406  0.73695157  1
  P  P25  1  0.02470388  0.52465594  0.23695157  1
  P  P26  1  0.97529612  0.02465594  0.26304843  1
  P  P27  1  0.52470388  0.97534406  0.76304843  1
  P  P28  1  0.27630296  0.49336003  0.77751451  1
  P  P29  1  0.22369704  0.50663997  0.27751451  1
  P  P30  1  0.77630296  0.00663997  0.22248549  1
  P  P31  1  0.72369704  0.99336003  0.72248549  1
  P  P32  1  0.26259315  0.47533273  0.97634671  1
  P  P33  1  0.23740685  0.52466727  0.47634671  1
  P  P34  1  0.76259315  0.02466727  0.02365329  1
  P  P35  1  0.73740685  0.97533273  0.52365329  1
  P  P36  1  0.22740679  0.27548047  0.99146383  1
  P  P37  1  0.27259321  0.72451953  0.49146383  1
  P  P38  1  0.72740679  0.22451953  0.00853617  1
  P  P39  1  0.77259321  0.77548047  0.50853617  1
  P  P40  1  0.03009072  0.25335500  0.97245657  1
  P  P41  1  0.46990928  0.74664500  0.47245657  1
  P  P42  1  0.53009072  0.24664500  0.02754343  1
  P  P43  1  0.96990928  0.75335500  0.52754343  1
  P  P44  1  0.98436428  0.27585465  0.77552994  1
  P  P45  1  0.51563572  0.72414535  0.27552994  1
  P  P46  1  0.48436428  0.22414535  0.22447006  1
  P  P47  1  0.01563572  0.77585465  0.72447006  1
  O  O0  1  0.52054481  0.97475704  0.15886528  1
  O  O1  1  0.97945519  0.02524296  0.65886528  1
  O  O2  1  0.02054481  0.52524296  0.84113472  1
  O  O3  1  0.47945519  0.47475704  0.34113472  1
  O  O4  1  0.37403963  0.97850735  0.23942259  1
  O  O5  1  0.12596037  0.02149265  0.73942259  1
  O  O6  1  0.87403963  0.52149265  0.76057741  1
  O  O7  1  0.62596037  0.47850735  0.26057741  1
  O  O8  1  0.44701465  0.12490214  0.19671129  1
  O  O9  1  0.05298535  0.87509786  0.69671129  1
  O  O10  1  0.94701465  0.37509786  0.80328871  1
  O  O11  1  0.55298535  0.62490214  0.30328871  1
  O  O12  1  0.51670026  0.03073731  0.32444496  1
  O  O13  1  0.98329974  0.96926269  0.82444496  1
  O  O14  1  0.01670026  0.46926269  0.67555504  1
  O  O15  1  0.48329974  0.53073731  0.17555504  1
  O  O16  1  0.30054793  0.04063056  0.37745977  1
  O  O17  1  0.19945207  0.95936944  0.87745977  1
  O  O18  1  0.80054793  0.45936944  0.62254023  1
  O  O19  1  0.69945207  0.54063056  0.12254023  1
  O  O20  1  0.22395035  0.91610885  0.28315601  1
  O  O21  1  0.27604965  0.08389115  0.78315601  1
  O  O22  1  0.72395035  0.58389115  0.71684399  1
  O  O23  1  0.77604965  0.41610885  0.21684399  1
  O  O24  1  0.23583508  0.08161027  0.22566835  1
  O  O25  1  0.26416492  0.91838973  0.72566835  1
  O  O26  1  0.73583508  0.41838973  0.77433165  1
  O  O27  1  0.76416492  0.58161027  0.27433165  1
  O  O28  1  0.22733916  0.12529903  0.50542776  1
  O  O29  1  0.27266084  0.87470097  0.00542776  1
  O  O30  1  0.72733916  0.37470097  0.49457224  1
  O  O31  1  0.77266084  0.62529903  0.99457224  1
  O  O32  1  0.16996407  0.97096207  0.46933991  1
  O  O33  1  0.33003593  0.02903793  0.96933991  1
  O  O34  1  0.66996407  0.52903793  0.53066009  1
  O  O35  1  0.83003593  0.47096207  0.03066009  1
  O  O36  1  0.33112587  0.99132536  0.53566962  1
  O  O37  1  0.16887413  0.00867464  0.03566962  1
  O  O38  1  0.83112587  0.50867464  0.46433038  1
  O  O39  1  0.66887413  0.49132536  0.96433038  1
  O  O40  1  0.22218036  0.27094047  0.58926338  1
  O  O41  1  0.27781964  0.72905953  0.08926338  1
  O  O42  1  0.72218036  0.22905953  0.41073662  1
  O  O43  1  0.77781964  0.77094047  0.91073662  1
  O  O44  1  0.28048686  0.26824700  0.42417104  1
  O  O45  1  0.21951314  0.73175300  0.92417104  1
  O  O46  1  0.78048686  0.23175300  0.57582896  1
  O  O47  1  0.71951314  0.76824700  0.07582896  1
  O  O48  1  0.37290635  0.19872540  0.55355157  1
  O  O49  1  0.12709365  0.80127460  0.05355157  1
  O  O50  1  0.87290635  0.30127460  0.44644843  1
  O  O51  1  0.62709365  0.69872540  0.94644843  1
  O  O52  1  0.52123273  0.24259487  0.62135057  1
  O  O53  1  0.97876727  0.75740513  0.12135057  1
  O  O54  1  0.02123273  0.25740513  0.37864943  1
  O  O55  1  0.47876727  0.74259487  0.87864943  1
  O  O56  1  0.52000366  0.16078228  0.47350614  1
  O  O57  1  0.97999634  0.83921772  0.97350614  1
  O  O58  1  0.02000366  0.33921772  0.52649386  1
  O  O59  1  0.47999634  0.66078228  0.02649386  1
  O  O60  1  0.46578303  0.32660244  0.48163380  1
  O  O61  1  0.03421697  0.67339756  0.98163380  1
  O  O62  1  0.96578303  0.17339756  0.51836620  1
  O  O63  1  0.53421697  0.82660244  0.01836620  1
  O  O64  1  0.45070445  0.37423377  0.70204280  1
  O  O65  1  0.04929555  0.62576623  0.20204280  1
  O  O66  1  0.95070445  0.12576623  0.29795720  1
  O  O67  1  0.54929555  0.87423377  0.79795720  1
  O  O68  1  0.58547136  0.28738382  0.76989583  1
  O  O69  1  0.91452864  0.71261618  0.26989583  1
  O  O70  1  0.08547136  0.21261618  0.23010417  1
  O  O71  1  0.41452864  0.78738382  0.73010417  1
  O  O72  1  0.42538835  0.21758180  0.76335175  1
  O  O73  1  0.07461165  0.78241820  0.26335175  1
  O  O74  1  0.92538835  0.28241820  0.23664825  1
  O  O75  1  0.57461165  0.71758180  0.73664825  1
  O  O76  1  0.52017754  0.47138313  0.82779818  1
  O  O77  1  0.97982246  0.52861687  0.32779818  1
  O  O78  1  0.02017754  0.02861687  0.17220182  1
  O  O79  1  0.47982246  0.97138313  0.67220182  1
  O  O80  1  0.52190806  0.52509828  0.66129546  1
  O  O81  1  0.97809194  0.47490172  0.16129546  1
  O  O82  1  0.02190806  0.97490172  0.33870454  1
  O  O83  1  0.47809194  0.02509828  0.83870454  1
  O  O84  1  0.37641744  0.51952208  0.74404732  1
  O  O85  1  0.12358256  0.48047792  0.24404732  1
  O  O86  1  0.87641744  0.98047792  0.25595268  1
  O  O87  1  0.62358256  0.01952208  0.75595268  1
  O  O88  1  0.22880773  0.58285582  0.78706115  1
  O  O89  1  0.27119227  0.41714418  0.28706115  1
  O  O90  1  0.72880773  0.91714418  0.21293885  1
  O  O91  1  0.77119227  0.08285582  0.71293885  1
  O  O92  1  0.23468443  0.42112996  0.71969250  1
  O  O93  1  0.26531557  0.57887004  0.21969250  1
  O  O94  1  0.73468443  0.07887004  0.28030750  1
  O  O95  1  0.76531557  0.92112996  0.78030750  1
  O  O96  1  0.29644041  0.44869451  0.87554132  1
  O  O97  1  0.20355959  0.55130549  0.37554132  1
  O  O98  1  0.79644041  0.05130549  0.12445868  1
  O  O99  1  0.70355959  0.94869451  0.62445868  1
  O  O100  1  0.33829888  0.52244589  0.02521542  1
  O  O101  1  0.16170112  0.47755411  0.52521542  1
  O  O102  1  0.83829888  0.97755411  0.97478458  1
  O  O103  1  0.66170112  0.02244589  0.47478458  1
  O  O104  1  0.17204604  0.52067504  0.97224246  1
  O  O105  1  0.32795396  0.47932496  0.47224246  1
  O  O106  1  0.67204604  0.97932496  0.02775754  1
  O  O107  1  0.82795396  0.02067504  0.52775754  1
  O  O108  1  0.25572656  0.37638521  0.02153959  1
  O  O109  1  0.24427344  0.62361479  0.52153959  1
  O  O110  1  0.75572656  0.12361479  0.97846041  1
  O  O111  1  0.74427344  0.87638521  0.47846041  1
  O  O112  1  0.12870609  0.29327807  0.94713241  1
  O  O113  1  0.37129391  0.70672193  0.44713241  1
  O  O114  1  0.62870609  0.20672193  0.05286759  1
  O  O115  1  0.87129391  0.79327807  0.55286759  1
  O  O116  1  0.22085957  0.22262075  0.07783569  1
  O  O117  1  0.27914043  0.77737925  0.57783569  1
  O  O118  1  0.72085957  0.27737925  0.92216431  1
  O  O119  1  0.77914043  0.72262075  0.42216431  1
  O  O120  1  0.28663195  0.24101044  0.91621193  1
  O  O121  1  0.21336805  0.75898956  0.41621193  1
  O  O122  1  0.78663195  0.25898956  0.08378807  1
  O  O123  1  0.71336805  0.74101044  0.58378807  1
  O  O124  1  0.03854689  0.16481710  0.02200421  1
  O  O125  1  0.46145311  0.83518290  0.52200421  1
  O  O126  1  0.53854689  0.33518290  0.97799579  1
  O  O127  1  0.96145311  0.66481710  0.47799579  1
  O  O128  1  0.97611321  0.32795260  0.01511735  1
  O  O129  1  0.52388679  0.67204740  0.51511735  1
  O  O130  1  0.47611321  0.17204740  0.98488265  1
  O  O131  1  0.02388679  0.82795260  0.48488265  1
  O  O132  1  0.99223664  0.22827596  0.87338419  1
  O  O133  1  0.50776336  0.77172404  0.37338419  1
  O  O134  1  0.49223664  0.27172404  0.12661581  1
  O  O135  1  0.00776336  0.72827596  0.62661581  1
  O  O136  1  0.07548129  0.28304112  0.73137152  1
  O  O137  1  0.42451871  0.71695888  0.23137152  1
  O  O138  1  0.57548129  0.21695888  0.26862848  1
  O  O139  1  0.92451871  0.78304112  0.76862848  1
  O  O140  1  0.90998859  0.22645418  0.72702973  1
  O  O141  1  0.59001141  0.77354582  0.22702973  1
  O  O142  1  0.40998859  0.27354582  0.27297027  1
  O  O143  1  0.09001141  0.72645418  0.77297027  1
loop_
_geom_bond_atom_site_label_1
_geom_bond_atom_site_label_2
_geom_bond_distance
_geom_bond_site_symmetry_2
Mn0 O73 2.165332 1_555
Mn0 O131 2.174631 1_555
Mn0 O82 2.200817 1_555
Mn0 O121 2.218724 1_555
Mn0 O32 2.223053 1_555
Mn0 O20 2.242448 1_555
Mn1 O72 2.165332 1_555
Mn1 O130 2.174631 1_555
Mn1 O83 2.200817 1_555
Mn1 O120 2.218724 1_555
Mn1 O33 2.223053 1_555
Mn1 O21 2.242448 1_555
Mn2 O75 2.165332 1_555
Mn2 O129 2.174631 1_555
Mn2 O80 2.200817 1_555
Mn2 O123 2.218724 1_555
Mn2 O34 2.223053 1_555
Mn2 O22 2.242448 1_555
Mn3 O74 2.165332 1_555
Mn3 O128 2.174631 1_555
Mn3 O81 2.200817 1_555
Mn3 O122 2.218724 1_555
Mn3 O35 2.223053 1_555
Mn3 O23 2.242448 1_555
Mn4 O103 2.165506 1_555
Mn4 O42 2.178352 1_555
Mn4 O56 2.211393 1_555
Mn4 O138 2.221336 1_555
Mn4 O94 2.232920 1_555
Mn4 O12 2.247475 1_555
Mn5 O102 2.165506 1_555
Mn5 O43 2.178352 1_555
Mn5 O57 2.211393 1_555
Mn5 O139 2.221336 1_555
Mn5 O95 2.232920 1_555
Mn5 O13 2.247475 1_555
Mn6 O101 2.165506 1_555
Mn6 O40 2.178352 1_555
Mn6 O58 2.211393 1_555
Mn6 O136 2.221336 1_555
Mn6 O92 2.232920 1_555
Mn6 O14 2.247475 1_555
Mn7 O100 2.165506 1_555
Mn7 O41 2.178352 1_555
Mn7 O59 2.211393 1_555
Mn7 O137 2.221336 1_555
Mn7 O93 2.232920 1_555
Mn7 O15 2.247475 1_555
Mn8 O90 2.148632 1_555
Mn8 O63 2.155011 1_555
Mn8 O141 2.167223 1_555
Mn8 O0 2.182701 1_555
Mn8 O47 2.238660 1_555
Mn8 O106 2.245858 1_555
Mn9 O91 2.148632 1_555
Mn9 O62 2.155011 1_555
Mn9 O140 2.167223 1_555
Mn9 O1 2.182701 1_555
Mn9 O46 2.238660 1_555
Mn9 O107 2.245858 1_555
Mn10 O88 2.148632 1_555
Mn10 O61 2.155011 1_555
Mn10 O143 2.167223 1_555
Mn10 O2 2.182701 1_555
Mn10 O45 2.238660 1_555
Mn10 O104 2.245858 1_555
Mn11 O89 2.148632 1_555
Mn11 O60 2.155011 1_555
Mn11 O142 2.167223 1_555
Mn11 O3 2.182701 1_555
Mn11 O44 2.238660 1_555
Mn11 O105 2.245858 1_555
Mn12 O38 2.140259 1_555
Mn12 O27 2.161363 1_555
Mn12 O119 2.181579 1_555
Mn12 O77 2.204522 1_555
Mn12 O69 2.211197 1_555
Mn12 O127 2.220526 1_555
Mn13 O39 2.140259 1_555
Mn13 O26 2.161363 1_555
Mn13 O118 2.181579 1_555
Mn13 O76 2.204522 1_555
Mn13 O68 2.211197 1_555
Mn13 O126 2.220526 1_555
Mn14 O36 2.140259 1_555
Mn14 O25 2.161363 1_555
Mn14 O117 2.181579 1_555
Mn14 O79 2.204522 1_555
Mn14 O71 2.211197 1_555
Mn14 O125 2.220526 1_555
Mn15 O37 2.140259 1_555
Mn15 O24 2.161363 1_555
Mn15 O116 2.181579 1_555
Mn15 O78 2.204522 1_555
Mn15 O70 2.211197 1_555
Mn15 O124 2.220526 1_555
Ag0 O127 2.413372 1_455
Ag0 O101 2.441794 1_555
Ag0 O58 2.539851 1_555
Ag0 O14 2.573551 1_555
Ag0 O38 2.591720 1_455
Ag0 O77 2.681215 1_455
Ag1 O126 2.413372 1_554
Ag1 O100 2.441794 1_555
Ag1 O59 2.539851 1_555
Ag1 O15 2.573551 1_555
Ag1 O39 2.591720 1_554
Ag1 O76 2.681215 1_554
Ag2 O125 2.413372 1_555
Ag2 O103 2.441794 1_565
Ag2 O56 2.539851 1_565
Ag2 O12 2.573551 1_565
Ag2 O36 2.591720 1_555
Ag2 O79 2.681215 1_555
Ag3 O124 2.413372 1_656
Ag3 O102 2.441794 1_545
Ag3 O57 2.539851 1_545
Ag3 O13 2.573551 1_545
Ag3 O37 2.591720 1_656
Ag3 O78 2.681215 1_656
Ag4 O80 2.401724 1_555
Ag4 O3 2.434642 1_555
Ag4 O60 2.553120 1_555
Ag4 O34 2.574800 1_555
Ag4 O105 2.625171 1_555
Ag4 O129 2.652686 1_555
Ag5 O81 2.401724 1_555
Ag5 O2 2.434642 1_654
Ag5 O61 2.553120 1_654
Ag5 O35 2.574800 1_555
Ag5 O104 2.625171 1_654
Ag5 O128 2.652686 1_555
Ag6 O82 2.401724 1_545
Ag6 O1 2.434642 1_455
Ag6 O62 2.553120 1_455
Ag6 O32 2.574800 1_545
Ag6 O107 2.625171 1_455
Ag6 O131 2.652686 1_545
Ag7 O83 2.401724 1_565
Ag7 O0 2.434642 1_556
Ag7 O63 2.553120 1_556
Ag7 O33 2.574800 1_565
Ag7 O106 2.625171 1_556
Ag7 O130 2.652686 1_565
Ag8 O41 2.445988 1_555
Ag8 O20 2.461909 1_555
Ag8 O121 2.519776 1_555
Ag8 O137 2.598658 1_555
Ag8 O93 2.654369 1_555
Ag8 O73 2.699368 1_555
Ag9 O40 2.445988 1_555
Ag9 O21 2.461909 1_555
Ag9 O120 2.519776 1_555
Ag9 O136 2.598658 1_555
Ag9 O92 2.654369 1_555
Ag9 O72 2.699368 1_555
Ag10 O43 2.445988 1_555
Ag10 O22 2.461909 1_555
Ag10 O123 2.519776 1_555
Ag10 O139 2.598658 1_555
Ag10 O95 2.654369 1_555
Ag10 O75 2.699368 1_555
Ag11 O42 2.445988 1_555
Ag11 O23 2.461909 1_555
Ag11 O122 2.519776 1_555
Ag11 O138 2.598658 1_555
Ag11 O94 2.654369 1_555
Ag11 O74 2.699368 1_555
Ag12 O69 2.430455 1_555
Ag12 O90 2.475687 1_555
Ag12 O141 2.516846 1_555
Ag12 O27 2.604836 1_555
Ag12 O47 2.613752 1_555
Ag12 O119 2.641298 1_555
Ag13 O68 2.430455 1_555
Ag13 O91 2.475687 1_555
Ag13 O140 2.516846 1_555
Ag13 O26 2.604836 1_555
Ag13 O46 2.613752 1_555
Ag13 O118 2.641298 1_555
Ag14 O71 2.430455 1_555
Ag14 O88 2.475687 1_555
Ag14 O143 2.516846 1_555
Ag14 O25 2.604836 1_555
Ag14 O45 2.613752 1_555
Ag14 O117 2.641298 1_555
Ag15 O70 2.430455 1_555
Ag15 O89 2.475687 1_555
Ag15 O142 2.516846 1_555
Ag15 O24 2.604836 1_555
Ag15 O44 2.613752 1_555
Ag15 O116 2.641298 1_555
O0 P0 1.505056 1_565
O1 P1 1.505056 1_645
O2 P2 1.505056 1_455
O3 P3 1.505056 1_555
O4 P0 1.611071 1_565
O4 P4 1.613131 1_565
O5 P1 1.611071 1_545
O5 P5 1.613131 1_545
O6 P2 1.611071 1_555
O6 P6 1.613131 1_555
O7 P3 1.611071 1_555
O7 P7 1.613131 1_555
O8 P0 1.619167 1_555
O8 P46 1.619777 1_555
O9 P1 1.619167 1_555
O9 P47 1.619777 1_555
O10 P2 1.619167 1_555
O10 P44 1.619777 1_555
O11 P3 1.619167 1_555
O11 P45 1.619777 1_555
O12 P0 1.502219 1_555
O13 P1 1.502219 1_655
O14 P2 1.502219 1_455
O15 P3 1.502219 1_555
O16 P4 1.616832 1_555
O16 P8 1.619015 1_555
O17 P5 1.616832 1_555
O17 P9 1.619015 1_555
O18 P6 1.616832 1_555
O18 P10 1.619015 1_555
O19 P7 1.616832 1_555
O19 P11 1.619015 1_555
O20 P4 1.503224 1_565
O21 P5 1.503224 1_545
O22 P6 1.503224 1_555
O23 P7 1.503224 1_555
O24 P4 1.501203 1_555
O25 P5 1.501203 1_555
O26 P6 1.501203 1_555
O27 P7 1.501203 1_555
O28 P8 1.610880 1_555
O28 P12 1.611464 1_555
O29 P9 1.610880 1_554
O29 P13 1.611464 1_555
O30 P10 1.610880 1_555
O30 P14 1.611464 1_555
O31 P11 1.610880 1_556
O31 P15 1.611464 1_555
O32 P8 1.501337 1_565
O33 P9 1.501337 1_545
O34 P10 1.501337 1_555
O35 P11 1.501337 1_555
O36 P8 1.500346 1_565
O37 P9 1.500346 1_544
O38 P10 1.500346 1_555
O39 P11 1.500346 1_556
O40 P12 1.505730 1_555
O41 P13 1.505730 1_555
O42 P14 1.505730 1_555
O43 P15 1.505730 1_555
O44 P12 1.500142 1_555
O45 P13 1.500142 1_556
O46 P14 1.500142 1_555
O47 P15 1.500142 1_554
O48 P16 1.621851 1_555
O48 P12 1.622458 1_555
O49 P17 1.621851 1_555
O49 P13 1.622458 1_555
O50 P18 1.621851 1_555
O50 P14 1.622458 1_555
O51 P19 1.621851 1_555
O51 P15 1.622458 1_555
O52 P16 1.610392 1_555
O52 P20 1.611166 1_555
O53 P17 1.610392 1_655
O53 P21 1.611166 1_655
O54 P18 1.610392 1_455
O54 P22 1.611166 1_455
O55 P19 1.610392 1_555
O55 P23 1.611166 1_555
O56 P16 1.498663 1_555
O57 P17 1.498663 1_656
O58 P18 1.498663 1_455
O59 P19 1.498663 1_554
O60 P16 1.505901 1_555
O61 P17 1.505901 1_556
O62 P18 1.505901 1_555
O63 P19 1.505901 1_554
O64 P20 1.621167 1_555
O64 P24 1.621699 1_555
O65 P21 1.621167 1_555
O65 P25 1.621699 1_555
O66 P22 1.621167 1_555
O66 P26 1.621699 1_555
O67 P23 1.621167 1_555
O67 P27 1.621699 1_555
O68 P20 1.504010 1_555
O69 P21 1.504010 1_655
O70 P22 1.504010 1_455
O71 P23 1.504010 1_555
O72 P20 1.499331 1_555
O73 P21 1.499331 1_555
O74 P22 1.499331 1_555
O75 P23 1.499331 1_555
O76 P24 1.499912 1_555
O77 P25 1.499912 1_655
O78 P26 1.499912 1_455
O79 P27 1.499912 1_555
O80 P24 1.506066 1_555
O81 P25 1.506066 1_655
O82 P26 1.506066 1_465
O83 P27 1.506066 1_545
O84 P24 1.606780 1_555
O84 P28 1.610292 1_555
O85 P25 1.606780 1_555
O85 P29 1.610292 1_555
O86 P26 1.606780 1_565
O86 P30 1.610292 1_565
O87 P27 1.606780 1_545
O87 P31 1.610292 1_545
O88 P28 1.504173 1_555
O89 P29 1.504173 1_555
O90 P30 1.504173 1_565
O91 P31 1.504173 1_545
O92 P28 1.499798 1_555
O93 P29 1.499798 1_555
O94 P30 1.499798 1_555
O95 P31 1.499798 1_555
O96 P28 1.620247 1_555
O96 P32 1.621070 1_555
O97 P29 1.620247 1_555
O97 P33 1.621070 1_555
O98 P30 1.620247 1_555
O98 P34 1.621070 1_555
O99 P31 1.620247 1_555
O99 P35 1.621070 1_555
O100 P32 1.504597 1_554
O101 P33 1.504597 1_555
O102 P34 1.504597 1_566
O103 P35 1.504597 1_545
O104 P32 1.500311 1_555
O105 P33 1.500311 1_555
O106 P34 1.500311 1_565
O107 P35 1.500311 1_545
O108 P32 1.610364 1_554
O108 P36 1.611041 1_554
O109 P33 1.610364 1_555
O109 P37 1.611041 1_555
O110 P34 1.610364 1_556
O110 P38 1.611041 1_556
O111 P35 1.610364 1_555
O111 P39 1.611041 1_555
O112 P40 1.619090 1_555
O112 P36 1.623557 1_555
O113 P41 1.619090 1_555
O113 P37 1.623557 1_555
O114 P42 1.619090 1_555
O114 P38 1.623557 1_555
O115 P43 1.619090 1_555
O115 P39 1.623557 1_555
O116 P36 1.500047 1_554
O117 P37 1.500047 1_555
O118 P38 1.500047 1_556
O119 P39 1.500047 1_555
O120 P36 1.505609 1_555
O121 P37 1.505609 1_555
O122 P38 1.505609 1_555
O123 P39 1.505609 1_555
O124 P40 1.504311 1_554
O125 P41 1.504311 1_555
O126 P42 1.504311 1_556
O127 P43 1.504311 1_555
O128 P40 1.500453 1_654
O129 P41 1.500453 1_555
O130 P42 1.500453 1_556
O131 P43 1.500453 1_455
O132 P40 1.611696 1_655
O132 P44 1.612787 1_555
O133 P41 1.611696 1_555
O133 P45 1.612787 1_555
O134 P42 1.611696 1_555
O134 P46 1.612787 1_555
O135 P43 1.611696 1_455
O135 P47 1.612787 1_555
O136 P44 1.502978 1_455
O137 P45 1.502978 1_555
O138 P46 1.502978 1_555
O139 P47 1.502978 1_655
O140 P44 1.503445 1_555
O141 P45 1.503445 1_555
O142 P46 1.503445 1_555
O143 P47 1.503445 1_555
