# generated using pymatgen
data_LuAgSe2
_symmetry_space_group_name_H-M   'P 1'
_cell_length_a   4.13834978
_cell_length_b   6.79818585
_cell_length_c   13.52865434
_cell_angle_alpha   90.00000000
_cell_angle_beta   90.00000000
_cell_angle_gamma   90.00000000
_symmetry_Int_Tables_number   1
_chemical_formula_structural   LuAgSe2
_chemical_formula_sum   'Lu4 Ag4 Se8'
_cell_volume   380.60529769
_cell_formula_units_Z   4
loop_
 _symmetry_equiv_pos_site_id
 _symmetry_equiv_pos_as_xyz
  1  'x, y, z'
loop_
 _atom_site_type_symbol
 _atom_site_label
 _atom_site_symmetry_multiplicity
 _atom_site_fract_x
 _atom_site_fract_y
 _atom_site_fract_z
 _atom_site_occupancy
  Lu  Lu0  1  0.27319765  0.71078681  0.62907512  1
  Lu  Lu1  1  0.77319765  0.78921319  0.37092488  1
  Lu  Lu2  1  0.72680235  0.21078681  0.87092488  1
  Lu  Lu3  1  0.22680235  0.28921319  0.12907512  1
  Ag  Ag0  1  0.50762355  0.71001249  0.87690364  1
  Ag  Ag1  1  0.00762355  0.78998751  0.12309636  1
  Ag  Ag2  1  0.49237645  0.21001249  0.62309636  1
  Ag  Ag3  1  0.99237645  0.28998751  0.37690364  1
  Se  Se0  1  0.77414847  0.91557120  0.72579630  1
  Se  Se1  1  0.27414847  0.58442880  0.27420370  1
  Se  Se2  1  0.22585153  0.41557120  0.77420370  1
  Se  Se3  1  0.72585153  0.08442880  0.22579630  1
  Se  Se4  1  0.76942349  0.51816568  0.52806138  1
  Se  Se5  1  0.26942349  0.98183432  0.47193862  1
  Se  Se6  1  0.23057651  0.01816568  0.97193862  1
  Se  Se7  1  0.73057651  0.48183432  0.02806138  1
loop_
_geom_bond_atom_site_label_1
_geom_bond_atom_site_label_2
_geom_bond_distance
_geom_bond_site_symmetry_2
Lu0 Se4 2.792733 1_555
Lu0 Se5 2.813317 1_555
Lu0 Se0 2.813454 1_455
Lu0 Se2 2.814441 1_555
Lu0 Se4 2.815782 1_455
Lu0 Se0 2.819236 1_555
Lu1 Se5 2.792733 1_655
Lu1 Se4 2.813317 1_555
Lu1 Se1 2.813454 1_555
Lu1 Se3 2.814441 1_565
Lu1 Se5 2.815782 1_555
Lu1 Se1 2.819236 1_655
Lu2 Se6 2.792733 1_555
Lu2 Se7 2.813317 1_556
Lu2 Se2 2.813454 1_655
Lu2 Se0 2.814441 1_545
Lu2 Se6 2.815782 1_655
Lu2 Se2 2.819236 1_555
Lu3 Se7 2.792733 1_455
Lu3 Se6 2.813317 1_554
Lu3 Se3 2.813454 1_555
Lu3 Se1 2.814441 1_555
Lu3 Se7 2.815782 1_555
Lu3 Se3 2.819236 1_455
Ag0 Se2 2.701259 1_555
Ag0 Se0 2.710798 1_555
Ag0 Se6 2.712204 1_565
Ag0 Se7 2.727522 1_556
Ag1 Se3 2.701259 1_465
Ag1 Se1 2.710798 1_555
Ag1 Se7 2.712204 1_455
Ag1 Se6 2.727522 1_564
Ag2 Se0 2.701259 1_545
Ag2 Se2 2.710798 1_555
Ag2 Se4 2.712204 1_555
Ag2 Se5 2.727522 1_545
Ag3 Se1 2.701259 1_655
Ag3 Se3 2.710798 1_555
Ag3 Se5 2.712204 1_645
Ag3 Se4 2.727522 1_555
