# generated using pymatgen
data_Yb4Ge6Ir7
_symmetry_space_group_name_H-M   'P 1'
_cell_length_a   7.22775622
_cell_length_b   7.22775622
_cell_length_c   7.22775622
_cell_angle_alpha   109.47122063
_cell_angle_beta   109.47122063
_cell_angle_gamma   109.47122063
_symmetry_Int_Tables_number   1
_chemical_formula_structural   Yb4Ge6Ir7
_chemical_formula_sum   'Yb4 Ge6 Ir7'
_cell_volume   290.66222775
_cell_formula_units_Z   1
loop_
 _symmetry_equiv_pos_site_id
 _symmetry_equiv_pos_as_xyz
  1  'x, y, z'
loop_
 _atom_site_type_symbol
 _atom_site_label
 _atom_site_symmetry_multiplicity
 _atom_site_fract_x
 _atom_site_fract_y
 _atom_site_fract_z
 _atom_site_occupancy
  Yb  Yb0  1  0.50000000  0.50000000  0.50000000  1
  Yb  Yb1  1  0.00000000  0.50000000  0.00000000  1
  Yb  Yb2  1  0.00000000  0.00000000  0.50000000  1
  Yb  Yb3  1  0.50000000  0.00000000  0.00000000  1
  Ge  Ge0  1  0.68334000  0.00000000  0.68334000  1
  Ge  Ge1  1  0.31666000  0.00000000  0.31666000  1
  Ge  Ge2  1  0.00000000  0.31666000  0.31666000  1
  Ge  Ge3  1  0.00000000  0.68334000  0.68334000  1
  Ge  Ge4  1  0.68334000  0.68334000  0.00000000  1
  Ge  Ge5  1  0.31666000  0.31666000  0.00000000  1
  Ir  Ir0  1  0.25000000  0.50000000  0.75000000  1
  Ir  Ir1  1  0.25000000  0.75000000  0.50000000  1
  Ir  Ir2  1  0.50000000  0.25000000  0.75000000  1
  Ir  Ir3  1  0.50000000  0.75000000  0.25000000  1
  Ir  Ir4  1  0.75000000  0.50000000  0.25000000  1
  Ir  Ir5  1  0.00000000  0.00000000  0.00000000  1
  Ir  Ir6  1  0.75000000  0.25000000  0.50000000  1
loop_
_geom_bond_atom_site_label_1
_geom_bond_atom_site_label_2
_geom_bond_distance
_geom_bond_site_symmetry_2
Ge0 Ir1 2.587410 1_545
Ge0 Ir6 2.587410 1_555
Ge0 Ir2 2.587410 1_555
Ge0 Ir3 2.587410 1_545
Ge0 Ir5 2.642811 1_656
Ge0 Yb0 3.002708 1_545
Ge0 Yb1 3.002708 1_656
Ge0 Yb2 3.002708 1_655
Ge0 Yb3 3.002708 1_556
Ge1 Ir1 2.587410 1_545
Ge1 Ir6 2.587410 1_555
Ge1 Ir2 2.587410 1_555
Ge1 Ir3 2.587410 1_545
Ge1 Ir5 2.642811 1_555
Ge1 Yb2 3.002708 1_555
Ge1 Yb3 3.002708 1_555
Ge1 Yb0 3.002708 1_555
Ge1 Yb1 3.002708 1_545
Ge2 Ir0 2.587410 1_555
Ge2 Ir6 2.587410 1_455
Ge2 Ir1 2.587410 1_555
Ge2 Ir4 2.587410 1_455
Ge2 Ir5 2.642811 1_555
Ge2 Yb1 3.002708 1_555
Ge2 Yb3 3.002708 1_455
Ge2 Yb2 3.002708 1_555
Ge2 Yb0 3.002708 1_555
Ge3 Ir0 2.587410 1_555
Ge3 Ir6 2.587410 1_455
Ge3 Ir1 2.587410 1_555
Ge3 Ir4 2.587410 1_455
Ge3 Ir5 2.642811 1_566
Ge3 Yb1 3.002708 1_556
Ge3 Yb0 3.002708 1_455
Ge3 Yb2 3.002708 1_565
Ge3 Yb3 3.002708 1_566
Ge4 Ir4 2.587410 1_555
Ge4 Ir0 2.587410 1_554
Ge4 Ir3 2.587410 1_555
Ge4 Ir2 2.587410 1_554
Ge4 Ir5 2.642811 1_665
Ge4 Yb3 3.002708 1_565
Ge4 Yb0 3.002708 1_554
Ge4 Yb2 3.002708 1_665
Ge4 Yb1 3.002708 1_655
Ge5 Ir4 2.587410 1_555
Ge5 Ir0 2.587410 1_554
Ge5 Ir3 2.587410 1_555
Ge5 Ir2 2.587410 1_554
Ge5 Ir5 2.642811 1_555
Ge5 Yb3 3.002708 1_555
Ge5 Yb0 3.002708 1_555
Ge5 Yb2 3.002708 1_554
Ge5 Yb1 3.002708 1_555
Ir0 Yb2 2.950719 1_555
Ir0 Yb3 2.950719 1_566
Ir0 Yb0 2.950719 1_555
Ir0 Yb1 2.950719 1_556
Ir1 Yb0 2.950719 1_555
Ir1 Yb2 2.950719 1_565
Ir1 Yb3 2.950719 1_566
Ir1 Yb1 2.950719 1_555
Ir2 Yb1 2.950719 1_656
Ir2 Yb2 2.950719 1_555
Ir2 Yb0 2.950719 1_555
Ir2 Yb3 2.950719 1_556
Ir3 Yb2 2.950719 1_665
Ir3 Yb1 2.950719 1_555
Ir3 Yb0 2.950719 1_555
Ir3 Yb3 2.950719 1_565
Ir4 Yb2 2.950719 1_665
Ir4 Yb3 2.950719 1_555
Ir4 Yb0 2.950719 1_555
Ir4 Yb1 2.950719 1_655
Ir6 Yb3 2.950719 1_555
Ir6 Yb0 2.950719 1_555
Ir6 Yb2 2.950719 1_655
Ir6 Yb1 2.950719 1_656
