# generated using pymatgen
data_As3W2
_symmetry_space_group_name_H-M   'P 1'
_cell_length_a   3.32915433
_cell_length_b   6.86773138
_cell_length_c   8.15230188
_cell_angle_alpha   78.98928251
_cell_angle_beta   78.21821397
_cell_angle_gamma   75.97315030
_symmetry_Int_Tables_number   1
_chemical_formula_structural   As3W2
_chemical_formula_sum   'As6 W4'
_cell_volume   175.04869849
_cell_formula_units_Z   2
loop_
 _symmetry_equiv_pos_site_id
 _symmetry_equiv_pos_as_xyz
  1  'x, y, z'
loop_
 _atom_site_type_symbol
 _atom_site_label
 _atom_site_symmetry_multiplicity
 _atom_site_fract_x
 _atom_site_fract_y
 _atom_site_fract_z
 _atom_site_occupancy
  As  As0  1  0.89416900  0.58019008  0.63147193  1
  As  As1  1  0.10583100  0.41980992  0.36852807  1
  As  As2  1  0.58537059  0.14272394  0.68653488  1
  As  As3  1  0.41462941  0.85727606  0.31346512  1
  As  As4  1  0.12416653  0.79712250  0.95454343  1
  As  As5  1  0.87583347  0.20287750  0.04545657  1
  W  W0  1  0.65307459  0.56717444  0.12667838  1
  W  W1  1  0.34692541  0.43282556  0.87332162  1
  W  W2  1  0.75217405  0.12309043  0.37256247  1
  W  W3  1  0.24782595  0.87690857  0.62743753  1
loop_
_geom_bond_atom_site_label_1
_geom_bond_atom_site_label_2
_geom_bond_distance
_geom_bond_site_symmetry_2
As0 As1 2.492699 1_655
As0 W3 2.580986 1_655
As0 W3 2.580990 1_555
As0 W1 2.625919 1_655
As0 W1 2.625923 1_555
As1 W2 2.580992 1_455
As1 W2 2.580994 1_555
As1 W0 2.625919 1_455
As1 W0 2.625923 1_555
As2 W3 2.525667 1_645
As2 W3 2.525672 1_545
As2 W2 2.528475 1_555
As2 W1 2.610917 1_555
As3 W2 2.525664 1_465
As3 W2 2.525666 1_565
As3 W3 2.528474 1_555
As3 W0 2.610917 1_555
As4 W0 2.525509 1_456
As4 W0 2.525516 1_556
As4 W3 2.585289 1_555
As4 W1 2.603985 1_555
As4 As5 2.901715 1_466
As5 W1 2.525509 1_654
As5 W1 2.525516 1_554
As5 W2 2.585289 1_555
As5 W0 2.603985 1_555
