# generated using pymatgen
data_CeAlSi
_symmetry_space_group_name_H-M   'P 1'
_cell_length_a   7.93403286
_cell_length_b   7.93403286
_cell_length_c   7.93403286
_cell_angle_alpha   149.05027555
_cell_angle_beta   149.04861671
_cell_angle_gamma   44.33852907
_symmetry_Int_Tables_number   1
_chemical_formula_structural   CeAlSi
_chemical_formula_sum   'Ce2 Al2 Si2'
_cell_volume   131.71411233
_cell_formula_units_Z   2
loop_
 _symmetry_equiv_pos_site_id
 _symmetry_equiv_pos_as_xyz
  1  'x, y, z'
loop_
 _atom_site_type_symbol
 _atom_site_label
 _atom_site_symmetry_multiplicity
 _atom_site_fract_x
 _atom_site_fract_y
 _atom_site_fract_z
 _atom_site_occupancy
  Ce  Ce0  1  0.58195544  0.58195544  -0.00000000  1
  Ce  Ce1  1  0.33195690  0.83195690  0.50000000  1
  Al  Al0  1  0.16545830  0.16545830  0.00000000  1
  Al  Al1  1  0.91544950  0.41544950  0.50000000  1
  Si  Si0  1  0.99959112  0.99959112  0.00000000  1
  Si  Si1  1  0.74958875  0.24958875  0.50000000  1
loop_
_geom_bond_atom_site_label_1
_geom_bond_atom_site_label_2
_geom_bond_distance
_geom_bond_site_symmetry_2
Ce0 Si0 3.229261 1_545
Ce0 Si0 3.229261 1_444
Ce0 Si0 3.229261 1_455
Ce0 Si0 3.229261 1_556
Ce0 Si1 3.248008 1_554
Ce0 Si1 3.248008 1_565
Ce1 Si1 3.229282 1_555
Ce1 Si1 3.229282 1_566
Ce1 Si1 3.229282 1_454
Ce1 Si1 3.229282 1_465
Ce1 Si0 3.248090 1_455
Ce1 Si0 3.248090 1_556
Al0 Si0 2.437416 1_445
Al0 Si1 2.451584 1_454
Al0 Si1 2.451584 1_555
Al0 Ce1 3.235380 1_555
Al0 Ce1 3.235380 1_544
Al0 Ce0 3.235569 1_556
Al0 Ce0 3.235569 1_444
Al0 Ce0 3.235569 1_455
Al0 Ce0 3.235569 1_545
Al1 Si1 2.437322 1_555
Al1 Si0 2.451571 1_545
Al1 Si0 2.451571 1_556
Al1 Ce1 3.235512 1_656
Al1 Ce1 3.235512 1_645
Al1 Ce1 3.235512 1_544
Al1 Ce1 3.235512 1_555
Al1 Ce0 3.235534 1_555
Al1 Ce0 3.235534 1_656
