# generated using pymatgen
data_Ba3NdIr2O9
_symmetry_space_group_name_H-M   'P 1'
_cell_length_a   5.99073963
_cell_length_b   5.99073963
_cell_length_c   15.05151623
_cell_angle_alpha   89.19672774
_cell_angle_beta   89.19672774
_cell_angle_gamma   119.85193400
_symmetry_Int_Tables_number   1
_chemical_formula_structural   Ba3NdIr2O9
_chemical_formula_sum   'Ba6 Nd2 Ir4 O18'
_cell_volume   468.32548829
_cell_formula_units_Z   2
loop_
 _symmetry_equiv_pos_site_id
 _symmetry_equiv_pos_as_xyz
  1  'x, y, z'
loop_
 _atom_site_type_symbol
 _atom_site_label
 _atom_site_symmetry_multiplicity
 _atom_site_fract_x
 _atom_site_fract_y
 _atom_site_fract_z
 _atom_site_occupancy
  Ba  Ba0  1  0.99671900  0.00328100  0.75000000  1
  Ba  Ba1  1  0.00328100  0.99671900  0.25000000  1
  Ba  Ba2  1  0.32778300  0.65905400  0.59950000  1
  Ba  Ba3  1  0.67221700  0.34094600  0.40050000  1
  Ba  Ba4  1  0.34094600  0.67221700  0.90050000  1
  Ba  Ba5  1  0.65905400  0.32778300  0.09950000  1
  Nd  Nd0  1  0.00000000  0.00000000  0.50000000  1
  Nd  Nd1  1  0.00000000  0.00000000  0.00000000  1
  Ir  Ir0  1  0.65260600  0.31943000  0.66626700  1
  Ir  Ir1  1  0.34739400  0.68057000  0.33373300  1
  Ir  Ir2  1  0.68057000  0.34739400  0.83373300  1
  Ir  Ir3  1  0.31943000  0.65260600  0.16626700  1
  O  O0  1  0.79591800  0.14782100  0.59270600  1
  O  O1  1  0.20408200  0.85217900  0.40729400  1
  O  O2  1  0.85217900  0.20408200  0.90729400  1
  O  O3  1  0.14782100  0.79591800  0.09270600  1
  O  O4  1  0.32909800  0.14821800  0.59982000  1
  O  O5  1  0.67090200  0.85178200  0.40018000  1
  O  O6  1  0.85178200  0.67090200  0.90018000  1
  O  O7  1  0.14821800  0.32909800  0.09982000  1
  O  O8  1  0.50832300  0.49167700  0.75000000  1
  O  O9  1  0.49167700  0.50832300  0.25000000  1
  O  O10  1  0.39003100  0.20580800  0.92105700  1
  O  O11  1  0.60996900  0.79419200  0.07894300  1
  O  O12  1  0.79419200  0.60996900  0.57894300  1
  O  O13  1  0.20580800  0.39003100  0.42105700  1
  O  O14  1  0.50772600  0.02070000  0.75926800  1
  O  O15  1  0.49227400  0.97930000  0.24073200  1
  O  O16  1  0.97930000  0.49227400  0.74073200  1
  O  O17  1  0.02070000  0.50772600  0.25926800  1
loop_
_geom_bond_atom_site_label_1
_geom_bond_atom_site_label_2
_geom_bond_distance
_geom_bond_site_symmetry_2
Ba0 O6 2.815305 1_545
Ba0 O4 2.815305 1_655
Ba0 O2 2.976798 1_555
Ba0 O0 2.976798 1_555
Ba0 O14 2.984155 1_555
Ba0 O16 2.984155 1_555
Ba0 O8 3.004481 1_655
Ba0 O8 3.004481 1_545
Ba0 O14 3.016011 1_655
Ba0 O16 3.016011 1_545
Ba0 O10 3.326335 1_655
Ba0 O12 3.326335 1_545
Ba1 O5 2.815305 1_455
Ba1 O7 2.815305 1_565
Ba1 O3 2.976798 1_555
Ba1 O1 2.976798 1_555
Ba1 O17 2.984155 1_555
Ba1 O15 2.984155 1_555
Ba1 O9 3.004481 1_565
Ba1 O9 3.004481 1_455
Ba1 O17 3.016011 1_565
Ba1 O15 3.016011 1_455
Ba1 O11 3.326335 1_455
Ba1 O13 3.326335 1_565
Ba2 O16 2.759524 1_455
Ba2 O0 2.873638 1_565
Ba2 O8 2.896765 1_555
Ba2 O4 2.926613 1_565
Ba2 O12 2.964061 1_555
Ba2 O13 3.057628 1_555
Ba2 O4 3.064151 1_555
Ba2 O12 3.081396 1_455
Ba2 O14 3.087468 1_565
Ba2 O0 3.137805 1_455
Ba2 O1 3.328203 1_555
Ba2 O5 3.453407 1_555
Ba3 O17 2.759524 1_655
Ba3 O1 2.873638 1_545
Ba3 O9 2.896765 1_555
Ba3 O5 2.926613 1_545
Ba3 O13 2.964061 1_555
Ba3 O12 3.057628 1_555
Ba3 O5 3.064151 1_555
Ba3 O13 3.081396 1_655
Ba3 O15 3.087468 1_545
Ba3 O1 3.137805 1_655
Ba3 O0 3.328203 1_555
Ba3 O4 3.453407 1_555
Ba4 O14 2.759524 1_565
Ba4 O2 2.873638 1_455
Ba4 O8 2.896765 1_555
Ba4 O6 2.926613 1_455
Ba4 O10 2.964061 1_555
Ba4 O11 3.057628 1_556
Ba4 O6 3.064151 1_555
Ba4 O10 3.081396 1_565
Ba4 O16 3.087468 1_455
Ba4 O2 3.137805 1_565
Ba4 O3 3.328203 1_556
Ba4 O7 3.453407 1_556
Ba5 O15 2.759524 1_545
Ba5 O3 2.873638 1_655
Ba5 O9 2.896765 1_555
Ba5 O7 2.926613 1_655
Ba5 O11 2.964061 1_555
Ba5 O10 3.057628 1_554
Ba5 O7 3.064151 1_555
Ba5 O11 3.081396 1_545
Ba5 O17 3.087468 1_655
Ba5 O3 3.137805 1_545
Ba5 O2 3.328203 1_554
Ba5 O6 3.453407 1_554
Nd0 O0 2.300144 1_455
Nd0 O1 2.300144 1_545
Nd0 O4 2.304438 1_555
Nd0 O5 2.304438 1_445
Nd0 O12 2.324800 1_445
Nd0 O13 2.324800 1_555
Nd1 O2 2.300144 1_454
Nd1 O3 2.300144 1_545
Nd1 O6 2.304438 1_444
Nd1 O7 2.304438 1_555
Nd1 O10 2.324800 1_554
Nd1 O11 2.324800 1_445
Ir0 O0 1.975821 1_555
Ir0 O12 1.977715 1_555
Ir0 O4 1.978008 1_555
Ir0 O16 2.058002 1_555
Ir0 O14 2.065156 1_555
Ir0 O8 2.072230 1_555
Ir1 O1 1.975821 1_555
Ir1 O13 1.977715 1_555
Ir1 O5 1.978008 1_555
Ir1 O17 2.058002 1_555
Ir1 O15 2.065156 1_555
Ir1 O9 2.072230 1_555
Ir2 O2 1.975821 1_555
Ir2 O10 1.977715 1_555
Ir2 O6 1.978008 1_555
Ir2 O14 2.058002 1_555
Ir2 O16 2.065156 1_555
Ir2 O8 2.072230 1_555
Ir3 O3 1.975821 1_555
Ir3 O11 1.977715 1_555
Ir3 O7 1.978008 1_555
Ir3 O15 2.058002 1_555
Ir3 O17 2.065156 1_555
Ir3 O9 2.072230 1_555
