# generated using pymatgen
data_La7SmMn7FeO20
_symmetry_space_group_name_H-M   'P 1'
_cell_length_a   11.40789125
_cell_length_b   11.85432524
_cell_length_c   17.77493757
_cell_angle_alpha   109.45527368
_cell_angle_beta   108.69202154
_cell_angle_gamma   90.00695526
_symmetry_Int_Tables_number   1
_chemical_formula_structural   La7SmMn7FeO20
_chemical_formula_sum   'La28 Sm4 Mn28 Fe4 O80'
_cell_volume   2131.53583260
_cell_formula_units_Z   4
loop_
 _symmetry_equiv_pos_site_id
 _symmetry_equiv_pos_as_xyz
  1  'x, y, z'
loop_
 _atom_site_type_symbol
 _atom_site_label
 _atom_site_symmetry_multiplicity
 _atom_site_fract_x
 _atom_site_fract_y
 _atom_site_fract_z
 _atom_site_occupancy
  La  La0  1  0.29601000  0.06246800  0.11016200  1
  La  La1  1  0.29877300  0.06452600  0.61113300  1
  La  La2  1  0.29875000  0.56497600  0.61187700  1
  La  La3  1  0.79865900  0.06494000  0.61170900  1
  La  La4  1  0.80260800  0.56547700  0.10953000  1
  La  La5  1  0.79894900  0.56504700  0.61211800  1
  La  La6  1  0.18704200  0.43372600  0.38778800  1
  La  La7  1  0.18387200  0.43657200  0.89114500  1
  La  La8  1  0.18612700  0.93449500  0.38653000  1
  La  La9  1  0.18809400  0.93460000  0.88886400  1
  La  La10  1  0.68679100  0.43525600  0.38773400  1
  La  La11  1  0.68624400  0.93468500  0.38758500  1
  La  La12  1  0.68670400  0.93689500  0.89100500  1
  La  La13  1  0.04715100  0.29424800  0.11123200  1
  La  La14  1  0.04885900  0.29764600  0.61221900  1
  La  La15  1  0.04842400  0.79661300  0.61140700  1
  La  La16  1  0.54886700  0.29467000  0.11054900  1
  La  La17  1  0.54880200  0.29853700  0.61360200  1
  La  La18  1  0.55005700  0.79684900  0.11106700  1
  La  La19  1  0.54889600  0.79632000  0.61168200  1
  La  La20  1  0.43699600  0.20275400  0.38766700  1
  La  La21  1  0.44033400  0.20574800  0.88889600  1
  La  La22  1  0.43583200  0.70204700  0.38614200  1
  La  La23  1  0.43854400  0.70410800  0.88954600  1
  La  La24  1  0.93525000  0.20212900  0.38654200  1
  La  La25  1  0.93484500  0.20506700  0.88977700  1
  La  La26  1  0.93593300  0.70289500  0.38711700  1
  La  La27  1  0.93405400  0.70406200  0.89025900  1
  Sm  Sm0  1  0.29233600  0.56632000  0.10998500  1
  Sm  Sm1  1  0.79734000  0.06626200  0.10985000  1
  Sm  Sm2  1  0.68988400  0.43446900  0.89139800  1
  Sm  Sm3  1  0.04670800  0.79410400  0.11038600  1
  Mn  Mn0  1  0.00128200  0.00004400  0.49949700  1
  Mn  Mn1  1  0.00140500  0.49986000  0.49966300  1
  Mn  Mn2  1  0.50112000  0.99974700  0.49950400  1
  Mn  Mn3  1  0.50311200  0.50208400  0.00159500  1
  Mn  Mn4  1  0.50138900  0.49990600  0.49981200  1
  Mn  Mn5  1  0.25260300  0.25085100  0.00129200  1
  Mn  Mn6  1  0.25094500  0.24947500  0.49936200  1
  Mn  Mn7  1  0.25152100  0.75005200  0.00114900  1
  Mn  Mn8  1  0.25145200  0.74964300  0.49951700  1
  Mn  Mn9  1  0.75239000  0.25013400  0.00095200  1
  Mn  Mn10  1  0.75123600  0.25020100  0.50012400  1
  Mn  Mn11  1  0.75085200  0.74970900  0.49940200  1
  Mn  Mn12  1  0.10382900  0.09615500  0.24727100  1
  Mn  Mn13  1  0.10872600  0.10058900  0.75116100  1
  Mn  Mn14  1  0.10909600  0.59876400  0.24896400  1
  Mn  Mn15  1  0.10794800  0.59896400  0.75109500  1
  Mn  Mn16  1  0.60821400  0.09827400  0.24851400  1
  Mn  Mn17  1  0.60841700  0.10055100  0.75061000  1
  Mn  Mn18  1  0.60408500  0.59859300  0.24644100  1
  Mn  Mn19  1  0.60848700  0.59886600  0.75242500  1
  Mn  Mn20  1  0.35721800  0.40099800  0.24770500  1
  Mn  Mn21  1  0.35991900  0.40132600  0.75197200  1
  Mn  Mn22  1  0.35474000  0.89746700  0.24717900  1
  Mn  Mn23  1  0.35835700  0.90169700  0.75068800  1
  Mn  Mn24  1  0.85693100  0.40016200  0.24884100  1
  Mn  Mn25  1  0.85614100  0.40125300  0.75151400  1
  Mn  Mn26  1  0.85825900  0.90106700  0.24730900  1
  Mn  Mn27  1  0.85797700  0.90146800  0.75137900  1
  Fe  Fe0  1  0.00301000  0.99859400  0.00166600  1
  Fe  Fe1  1  0.00296900  0.50140800  0.00165200  1
  Fe  Fe2  1  0.50401100  0.99993600  0.00029900  1
  Fe  Fe3  1  0.75449500  0.75179300  0.00084600  1
  O  O0  1  0.10953100  0.11630400  0.47293300  1
  O  O1  1  0.11021100  0.11527200  0.97666800  1
  O  O2  1  0.10949500  0.61711200  0.47363300  1
  O  O3  1  0.11020200  0.61892100  0.97994700  1
  O  O4  1  0.60966000  0.11619500  0.47292000  1
  O  O5  1  0.60959300  0.11889900  0.97567100  1
  O  O6  1  0.60987700  0.61749000  0.47468200  1
  O  O7  1  0.61559500  0.61949400  0.97418900  1
  O  O8  1  0.13544800  0.38607500  0.02630100  1
  O  O9  1  0.13614000  0.38321300  0.52590600  1
  O  O10  1  0.13205600  0.88011400  0.02844200  1
  O  O11  1  0.13569000  0.88275000  0.52459400  1
  O  O12  1  0.63602900  0.38342300  0.02389800  1
  O  O13  1  0.63549800  0.38292300  0.52592000  1
  O  O14  1  0.63971000  0.88924900  0.02582300  1
  O  O15  1  0.63632100  0.88349200  0.52566900  1
  O  O16  1  0.35960400  0.10665000  0.47369400  1
  O  O17  1  0.36390600  0.10650400  0.97573400  1
  O  O18  1  0.36006700  0.60698600  0.47406700  1
  O  O19  1  0.35916500  0.60547700  0.97317200  1
  O  O20  1  0.86013500  0.10759700  0.47433800  1
  O  O21  1  0.86151700  0.10596400  0.97762800  1
  O  O22  1  0.86007000  0.60737100  0.47403600  1
  O  O23  1  0.85960200  0.60459000  0.97409600  1
  O  O24  1  0.38497900  0.39948800  0.03059600  1
  O  O25  1  0.38542400  0.39158500  0.52438700  1
  O  O26  1  0.38771900  0.89154100  0.02550400  1
  O  O27  1  0.38652900  0.89245600  0.52615700  1
  O  O28  1  0.88583300  0.39101300  0.02176200  1
  O  O29  1  0.88596700  0.39281700  0.52570400  1
  O  O30  1  0.88826600  0.89297900  0.02965600  1
  O  O31  1  0.88526400  0.89163200  0.52420300  1
  O  O32  1  0.10448900  0.12185900  0.14069400  1
  O  O33  1  0.10432000  0.12141100  0.64112100  1
  O  O34  1  0.10693700  0.62308700  0.14076600  1
  O  O35  1  0.10416100  0.62131100  0.64148400  1
  O  O36  1  0.61286600  0.12116600  0.14134200  1
  O  O37  1  0.60411800  0.12238900  0.64091500  1
  O  O38  1  0.61279500  0.62357000  0.14077800  1
  O  O39  1  0.60483500  0.62012700  0.64247100  1
  O  O40  1  0.46277400  0.37941100  0.35776000  1
  O  O41  1  0.47430600  0.37989900  0.85921900  1
  O  O42  1  0.46047300  0.87814100  0.35798100  1
  O  O43  1  0.46105800  0.87940000  0.85999500  1
  O  O44  1  0.96265900  0.37830800  0.35853200  1
  O  O45  1  0.96233600  0.37953300  0.86025300  1
  O  O46  1  0.96290400  0.87849000  0.35703900  1
  O  O47  1  0.96212900  0.87923800  0.86085000  1
  O  O48  1  0.35615500  0.26656800  0.14094400  1
  O  O49  1  0.35501200  0.27028800  0.64155100  1
  O  O50  1  0.35817600  0.76492900  0.14043500  1
  O  O51  1  0.35432200  0.77006400  0.64129600  1
  O  O52  1  0.85391300  0.26801400  0.14023400  1
  O  O53  1  0.85318000  0.27062800  0.64180400  1
  O  O54  1  0.86191300  0.76976100  0.14032400  1
  O  O55  1  0.85471300  0.77036700  0.64159000  1
  O  O56  1  0.21111000  0.22734300  0.35699400  1
  O  O57  1  0.21647100  0.23157700  0.86054600  1
  O  O58  1  0.21433600  0.73031500  0.35849200  1
  O  O59  1  0.21248100  0.73059700  0.86014300  1
  O  O60  1  0.71277800  0.23026600  0.35834900  1
  O  O61  1  0.71395600  0.23196400  0.85986200  1
  O  O62  1  0.70982900  0.72862400  0.35742300  1
  O  O63  1  0.71191700  0.73237300  0.86086800  1
  O  O64  1  0.42273800  0.06642700  0.24911000  1
  O  O65  1  0.42299600  0.07005600  0.75056200  1
  O  O66  1  0.41552100  0.56920400  0.24372400  1
  O  O67  1  0.42194800  0.56935100  0.75008200  1
  O  O68  1  0.91587000  0.06985200  0.24443300  1
  O  O69  1  0.92306900  0.06981900  0.75084800  1
  O  O70  1  0.92438400  0.56789200  0.24937600  1
  O  O71  1  0.92198200  0.56880200  0.75097300  1
  O  O72  1  0.17283700  0.43045700  0.24972900  1
  O  O73  1  0.17367300  0.43095400  0.75143000  1
  O  O74  1  0.16605100  0.92517100  0.24403100  1
  O  O75  1  0.17247900  0.93163900  0.75036800  1
  O  O76  1  0.67149800  0.43173400  0.24925100  1
  O  O77  1  0.67250500  0.43139200  0.75637700  1
  O  O78  1  0.67379700  0.93051400  0.24956000  1
  O  O79  1  0.67225800  0.93199400  0.75026300  1
loop_
_geom_bond_atom_site_label_1
_geom_bond_atom_site_label_2
_geom_bond_distance
_geom_bond_site_symmetry_2
La0 O48 2.345441 1_555
La0 O64 2.413770 1_555
La0 O32 2.463662 1_555
La0 O26 2.538312 1_545
La0 O10 2.539106 1_545
La0 O1 2.877654 1_554
La0 O17 2.932398 1_554
La1 O49 2.356324 1_555
La1 O65 2.407349 1_555
La1 O33 2.485662 1_555
La1 O27 2.522239 1_545
La1 O11 2.535229 1_545
La1 O16 2.932268 1_555
La1 O0 2.945729 1_555
La2 O51 2.350798 1_555
La2 O67 2.390583 1_555
La2 O35 2.483082 1_555
La2 O9 2.531342 1_555
La2 O25 2.545127 1_555
La2 O18 2.940827 1_555
La2 O2 2.948386 1_555
La3 O53 2.352823 1_555
La3 O69 2.406065 1_555
La3 O37 2.482320 1_555
La3 O15 2.527349 1_545
La3 O31 2.544206 1_545
La3 O20 2.937645 1_555
La3 O4 2.948443 1_555
La4 O54 2.345413 1_555
La4 O70 2.418447 1_555
La4 O38 2.447042 1_555
La4 O28 2.532399 1_555
La4 O12 2.557800 1_555
La4 O23 2.860009 1_554
La4 O7 2.913017 1_554
La5 O55 2.353676 1_555
La5 O71 2.402092 1_555
La5 O39 2.480440 1_555
La5 O29 2.530207 1_555
La5 O13 2.539646 1_555
La5 O6 2.939602 1_555
La5 O22 2.946033 1_555
La6 O56 2.359013 1_555
La6 O72 2.394074 1_555
La6 O44 2.484567 1_455
La6 O18 2.535146 1_555
La6 O2 2.548106 1_555
La6 O25 2.924525 1_555
La6 O9 2.935288 1_555
La7 O57 2.364068 1_555
La7 O73 2.426932 1_555
La7 O45 2.451228 1_455
La7 O19 2.513816 1_555
La7 O3 2.539342 1_555
La7 O8 2.871148 1_556
La7 O24 2.946506 1_556
La8 O58 2.347294 1_555
La8 O74 2.433513 1_555
La8 O46 2.472324 1_455
La8 O16 2.531638 1_565
La8 O0 2.534344 1_565
La8 O11 2.938974 1_555
La8 O27 2.970172 1_555
La9 O59 2.335610 1_555
La9 O75 2.398870 1_555
La9 O47 2.506548 1_455
La9 O1 2.544577 1_565
La9 O17 2.545083 1_565
La9 O26 2.937088 1_556
La9 O10 3.010834 1_556
La10 O60 2.349387 1_555
La10 O76 2.397410 1_555
La10 O40 2.478897 1_555
La10 O22 2.528645 1_555
La10 O6 2.543772 1_555
La10 O29 2.946303 1_555
La10 O13 2.949001 1_555
La11 O62 2.355188 1_555
La11 O78 2.395331 1_555
La11 O42 2.501137 1_555
La11 O4 2.523790 1_565
La11 O20 2.539160 1_565
La11 O31 2.933290 1_555
La11 O15 2.933423 1_555
La12 O63 2.341264 1_555
La12 O79 2.434721 1_555
La12 O43 2.496888 1_555
La12 O21 2.517901 1_565
La12 O5 2.525802 1_565
La12 O14 2.841489 1_556
La12 O30 2.975696 1_556
La13 O32 2.317731 1_555
La13 O72 2.410901 1_555
La13 O52 2.461103 1_455
La13 O8 2.558840 1_555
La13 O28 2.563485 1_455
La13 O21 2.889730 1_454
La13 O1 2.909070 1_554
La14 O33 2.352804 1_555
La14 O73 2.404986 1_555
La14 O53 2.495328 1_455
La14 O9 2.527771 1_555
La14 O29 2.532850 1_455
La14 O20 2.942107 1_455
La14 O0 2.963642 1_555
La15 O35 2.351821 1_555
La15 O75 2.406473 1_555
La15 O55 2.477688 1_455
La15 O11 2.539456 1_555
La15 O31 2.539720 1_455
La15 O22 2.932364 1_455
La15 O2 2.938213 1_555
La16 O36 2.357346 1_555
La16 O76 2.407421 1_555
La16 O48 2.473259 1_555
La16 O12 2.555139 1_555
La16 O24 2.555955 1_555
La16 O5 2.882095 1_554
La16 O17 2.892637 1_554
La17 O37 2.339528 1_555
La17 O77 2.440042 1_555
La17 O49 2.461887 1_555
La17 O13 2.536574 1_555
La17 O25 2.544877 1_555
La17 O16 2.967716 1_555
La17 O4 2.986610 1_555
La18 O38 2.343333 1_555
La18 O78 2.395222 1_555
La18 O50 2.463940 1_555
La18 O26 2.516980 1_555
La18 O14 2.576864 1_555
La18 O7 2.942365 1_554
La18 O19 2.961423 1_554
La19 O39 2.367933 1_555
La19 O79 2.402776 1_555
La19 O51 2.481695 1_555
La19 O27 2.527923 1_555
La19 O15 2.535646 1_555
La19 O6 2.924951 1_555
La19 O18 2.936909 1_555
La20 O40 2.365620 1_555
La20 O64 2.407398 1_555
La20 O56 2.495611 1_555
La20 O4 2.520349 1_555
La20 O16 2.537935 1_555
La20 O25 2.925007 1_555
La20 O13 2.943496 1_555
La21 O41 2.355134 1_555
La21 O65 2.392921 1_555
La21 O57 2.479458 1_555
La21 O5 2.513304 1_555
La21 O17 2.568812 1_555
La21 O12 2.894256 1_556
La21 O24 3.030470 1_556
La22 O42 2.339495 1_555
La22 O66 2.431113 1_555
La22 O58 2.460182 1_555
La22 O6 2.544054 1_555
La22 O18 2.549160 1_555
La22 O27 2.959816 1_555
La22 O15 2.969490 1_555
La23 O43 2.339498 1_555
La23 O67 2.407099 1_555
La23 O59 2.503617 1_555
La23 O7 2.531244 1_555
La23 O19 2.533143 1_555
La23 O26 2.904257 1_556
La23 O14 2.974087 1_556
La24 O44 2.345142 1_555
La24 O68 2.427284 1_555
La24 O60 2.469789 1_555
La24 O0 2.535810 1_655
La24 O20 2.539148 1_555
La24 O29 2.951521 1_555
La24 O9 2.968882 1_655
La25 O45 2.340821 1_555
La25 O69 2.415917 1_555
La25 O61 2.447139 1_555
La25 O21 2.564645 1_555
La25 O1 2.576032 1_655
La25 O28 2.841039 1_556
La25 O8 2.949700 1_656
La26 O46 2.357967 1_555
La26 O70 2.399164 1_555
La26 O62 2.501913 1_555
La26 O2 2.531768 1_655
La26 O22 2.537795 1_555
La26 O31 2.923832 1_555
La26 O11 2.944317 1_655
La27 O47 2.349115 1_555
La27 O71 2.420019 1_555
La27 O63 2.464902 1_555
La27 O23 2.512782 1_555
La27 O3 2.572377 1_655
La27 O10 2.918665 1_656
La27 O30 2.925912 1_556
Mn0 O20 2.082549 1_455
Mn0 O31 2.084286 1_445
Mn0 O0 2.110475 1_555
Mn0 O11 2.111554 1_545
Mn0 O33 2.340735 1_555
Mn0 O46 2.353430 1_445
Mn1 O29 2.083320 1_455
Mn1 O22 2.085153 1_455
Mn1 O2 2.111910 1_555
Mn1 O9 2.112529 1_555
Mn1 O44 2.333646 1_455
Mn1 O35 2.342974 1_555
Mn2 O16 2.082251 1_565
Mn2 O27 2.085401 1_555
Mn2 O15 2.112367 1_555
Mn2 O4 2.114501 1_565
Mn2 O42 2.336170 1_555
Mn2 O37 2.341910 1_565
Mn3 O19 2.082134 1_554
Mn3 O12 2.102780 1_555
Mn3 O24 2.103225 1_555
Mn3 O7 2.161695 1_554
Mn3 O38 2.324265 1_555
Mn3 O41 2.373928 1_554
Mn4 O25 2.081679 1_555
Mn4 O18 2.081923 1_555
Mn4 O6 2.107796 1_555
Mn4 O13 2.110257 1_555
Mn4 O40 2.343967 1_555
Mn4 O39 2.351160 1_555
Mn5 O8 2.111880 1_555
Mn5 O1 2.118575 1_554
Mn5 O24 2.130781 1_555
Mn5 O17 2.144531 1_554
Mn5 O48 2.324730 1_555
Mn5 O57 2.332191 1_554
Mn6 O0 2.082058 1_555
Mn6 O9 2.085566 1_555
Mn6 O25 2.110008 1_555
Mn6 O16 2.111799 1_555
Mn6 O56 2.345165 1_555
Mn6 O49 2.349335 1_555
Mn7 O3 2.092167 1_554
Mn7 O10 2.096632 1_555
Mn7 O26 2.121141 1_555
Mn7 O19 2.125251 1_554
Mn7 O50 2.327955 1_555
Mn7 O59 2.330856 1_554
Mn8 O11 2.083676 1_555
Mn8 O2 2.083936 1_555
Mn8 O18 2.109487 1_555
Mn8 O27 2.112457 1_555
Mn8 O58 2.335049 1_555
Mn8 O51 2.341941 1_555
Mn9 O5 2.083343 1_554
Mn9 O12 2.084043 1_555
Mn9 O28 2.114279 1_555
Mn9 O21 2.121752 1_554
Mn9 O52 2.308259 1_555
Mn9 O61 2.337388 1_554
Mn10 O13 2.082512 1_555
Mn10 O4 2.086365 1_555
Mn10 O20 2.111978 1_555
Mn10 O29 2.113446 1_555
Mn10 O53 2.338742 1_555
Mn10 O60 2.343833 1_555
Mn11 O6 2.079372 1_555
Mn11 O15 2.082893 1_555
Mn11 O31 2.109041 1_555
Mn11 O22 2.111049 1_555
Mn11 O62 2.339479 1_555
Mn11 O55 2.349410 1_555
Mn12 O32 2.018740 1_555
Mn12 O56 2.041869 1_555
Mn12 O74 2.136417 1_545
Mn12 O68 2.148827 1_455
Mn13 O33 2.036616 1_555
Mn13 O57 2.039327 1_555
Mn13 O75 2.128010 1_545
Mn13 O69 2.147026 1_455
Mn14 O34 2.030153 1_555
Mn14 O58 2.035305 1_555
Mn14 O72 2.126430 1_555
Mn14 O70 2.141415 1_455
Mn15 O59 2.029100 1_555
Mn15 O35 2.039092 1_555
Mn15 O73 2.129381 1_555
Mn15 O71 2.150552 1_455
Mn16 O36 2.028435 1_555
Mn16 O60 2.038284 1_555
Mn16 O78 2.128620 1_545
Mn16 O64 2.153245 1_555
Mn17 O61 2.033035 1_555
Mn17 O37 2.036217 1_555
Mn17 O79 2.125556 1_545
Mn17 O65 2.145570 1_555
Mn18 O38 2.028557 1_555
Mn18 O62 2.042402 1_555
Mn18 O76 2.132596 1_555
Mn18 O66 2.161720 1_555
Mn19 O63 2.030286 1_555
Mn19 O39 2.039848 1_555
Mn19 O77 2.130737 1_555
Mn19 O67 2.141474 1_555
Mn20 O48 2.027699 1_555
Mn20 O40 2.041075 1_555
Mn20 O66 2.132400 1_555
Mn20 O72 2.141925 1_555
Mn21 O41 2.032123 1_555
Mn21 O49 2.041318 1_555
Mn21 O67 2.128070 1_555
Mn21 O73 2.151047 1_555
Mn22 O50 2.032716 1_555
Mn22 O42 2.040656 1_555
Mn22 O64 2.133379 1_565
Mn22 O74 2.163248 1_555
Mn23 O43 2.024993 1_555
Mn23 O51 2.034529 1_555
Mn23 O65 2.128516 1_565
Mn23 O75 2.148542 1_555
Mn24 O52 2.030966 1_555
Mn24 O44 2.037799 1_555
Mn24 O70 2.127909 1_555
Mn24 O76 2.150186 1_555
Mn25 O45 2.024970 1_555
Mn25 O53 2.036663 1_555
Mn25 O71 2.127477 1_555
Mn25 O77 2.149279 1_555
Mn26 O54 2.029751 1_555
Mn26 O46 2.038715 1_555
Mn26 O68 2.127729 1_565
Mn26 O78 2.143938 1_555
Mn27 O47 2.031557 1_555
Mn27 O55 2.039139 1_555
Mn27 O69 2.133292 1_565
Mn27 O79 2.144318 1_555
Fe0 O21 2.080560 1_464
Fe0 O30 2.088163 1_455
Fe0 O10 2.088790 1_555
Fe0 O1 2.088868 1_564
Fe0 O32 2.311433 1_565
Fe0 O47 2.318817 1_454
Fe1 O28 2.059936 1_455
Fe1 O3 2.060576 1_554
Fe1 O23 2.072929 1_454
Fe1 O8 2.078544 1_555
Fe1 O34 2.312050 1_555
Fe1 O45 2.335241 1_454
Fe2 O17 2.064401 1_564
Fe2 O14 2.066590 1_555
Fe2 O26 2.091851 1_555
Fe2 O5 2.092821 1_564
Fe2 O43 2.311728 1_554
Fe2 O36 2.344488 1_565
Fe3 O7 2.053798 1_554
Fe3 O30 2.078402 1_555
Fe3 O14 2.111426 1_555
Fe3 O23 2.126507 1_554
Fe3 O63 2.307241 1_554
Fe3 O54 2.322582 1_555
O3 Sm0 2.816152 1_556
O3 Sm3 2.842939 1_556
O5 Sm1 2.895249 1_556
O7 Sm2 2.518792 1_555
O8 Sm0 2.481281 1_555
O10 Sm3 2.450938 1_555
O12 Sm2 2.857831 1_554
O14 Sm1 2.461178 1_565
O19 Sm0 2.941214 1_556
O21 Sm1 2.849694 1_556
O23 Sm2 2.485245 1_555
O23 Sm3 2.920766 1_656
O24 Sm0 2.473226 1_555
O28 Sm2 2.847294 1_554
O30 Sm3 2.481617 1_655
O30 Sm1 2.514972 1_565
O34 Sm3 2.316328 1_555
O34 Sm0 2.392125 1_555
O36 Sm1 2.382938 1_555
O41 Sm2 2.375974 1_555
O50 Sm0 2.300069 1_555
O52 Sm1 2.311686 1_555
O54 Sm3 2.373146 1_655
O61 Sm2 2.314035 1_555
O66 Sm0 2.330601 1_555
O68 Sm1 2.326305 1_555
O74 Sm3 2.319174 1_555
O77 Sm2 2.331800 1_555
