# generated using pymatgen
data_Ca2AlPbOF8
_symmetry_space_group_name_H-M   'P 1'
_cell_length_a   5.54924500
_cell_length_b   5.55664282
_cell_length_c   12.07521219
_cell_angle_alpha   90.10814736
_cell_angle_beta   102.28771793
_cell_angle_gamma   94.40510637
_symmetry_Int_Tables_number   1
_chemical_formula_structural   Ca2AlPbOF8
_chemical_formula_sum   'Ca4 Al2 Pb2 O2 F16'
_cell_volume   362.67309219
_cell_formula_units_Z   2
loop_
 _symmetry_equiv_pos_site_id
 _symmetry_equiv_pos_as_xyz
  1  'x, y, z'
loop_
 _atom_site_type_symbol
 _atom_site_label
 _atom_site_symmetry_multiplicity
 _atom_site_fract_x
 _atom_site_fract_y
 _atom_site_fract_z
 _atom_site_occupancy
  Ca  Ca0  1  0.44302400  0.24433400  0.38585700  1
  Ca  Ca1  1  0.55044900  0.77211800  0.61964900  1
  Ca  Ca2  1  0.95303300  0.74729500  0.38930700  1
  Ca  Ca3  1  0.03942800  0.25874700  0.61783300  1
  Al  Al0  1  0.21138600  0.69447000  0.81337900  1
  Al  Al1  1  0.78842200  0.29767600  0.17358800  1
  Pb  Pb0  1  0.80217900  0.15023100  0.90575200  1
  Pb  Pb1  1  0.26108200  0.79646400  0.10877700  1
  O  O0  1  0.73952400  0.13049500  0.73802400  1
  O  O1  1  0.92515700  0.10577000  0.07330300  1
  F  F0  1  0.74852200  0.99320800  0.50172200  1
  F  F1  1  0.24952600  0.02091700  0.50695700  1
  F  F2  1  0.36540000  0.50220500  0.73393000  1
  F  F3  1  0.64196100  0.49541600  0.26578300  1
  F  F4  1  0.91743000  0.61205600  0.71719500  1
  F  F5  1  0.08590200  0.38709600  0.27112600  1
  F  F6  1  0.24933900  0.51586400  0.50025100  1
  F  F7  1  0.74597600  0.49192600  0.50042400  1
  F  F8  1  0.50940400  0.80191800  0.90514900  1
  F  F9  1  0.47986500  0.21155300  0.09026400  1
  F  F10  1  0.14910500  0.44119100  0.90378000  1
  F  F11  1  0.84081500  0.56150300  0.09012500  1
  F  F12  1  0.24813900  0.94257600  0.71993500  1
  F  F13  1  0.74071600  0.04968500  0.27090000  1
  F  F14  1  0.24263400  0.89914000  0.29241700  1
  F  F15  1  0.07158300  0.87614500  0.90457400  1
loop_
_geom_bond_atom_site_label_1
_geom_bond_atom_site_label_2
_geom_bond_distance
_geom_bond_site_symmetry_2
Ca0 F7 2.297931 1_555
Ca0 F1 2.302809 1_555
Ca0 F14 2.306286 1_545
Ca0 F5 2.356485 1_555
Ca0 F3 2.391613 1_555
Ca0 F0 2.477871 1_545
Ca0 F6 2.492574 1_555
Ca0 F13 2.659062 1_555
Ca1 F0 2.282661 1_555
Ca1 F6 2.345113 1_555
Ca1 F2 2.362756 1_555
Ca1 F4 2.363653 1_555
Ca1 F1 2.438457 1_565
Ca1 O0 2.477813 1_565
Ca1 F12 2.506467 1_555
Ca1 F7 2.567075 1_555
Ca2 F14 2.293279 1_655
Ca2 F6 2.354958 1_655
Ca2 F7 2.355213 1_555
Ca2 F1 2.376897 1_665
Ca2 F3 2.385069 1_555
Ca2 F13 2.419075 1_565
Ca2 F0 2.425841 1_555
Ca2 F5 2.692567 1_655
Ca3 F0 2.326328 1_445
Ca3 F2 2.367502 1_555
Ca3 F12 2.379271 1_545
Ca3 F7 2.385160 1_455
Ca3 F1 2.406799 1_555
Ca3 F6 2.422799 1_555
Ca3 O0 2.496743 1_455
Ca3 F4 2.508605 1_455
Al0 F12 1.809987 1_555
Al0 F2 1.810409 1_555
Al0 F4 1.815602 1_455
Al0 F15 1.820260 1_555
Al0 F10 1.839415 1_555
Al0 F8 1.839893 1_555
Al1 F9 1.819946 1_555
Al1 F11 1.820499 1_555
Al1 F5 1.844832 1_655
Al1 F13 1.852624 1_555
Al1 F3 1.903924 1_555
Al1 O1 1.920885 1_555
O0 Pb0 1.982053 1_555
O1 Pb0 2.015005 1_554
O1 Pb1 2.601437 1_645
F8 Pb0 2.428472 1_565
F9 Pb1 2.555624 1_545
F10 Pb0 2.421221 1_455
F11 Pb1 2.549877 1_655
F14 Pb1 2.313889 1_555
F15 Pb0 2.216630 1_465
F15 Pb1 2.520706 1_556
