# generated using pymatgen
data_Mg16ScAl12
_symmetry_space_group_name_H-M   'P 1'
_cell_length_a   9.16939466
_cell_length_b   9.16939466
_cell_length_c   9.16939396
_cell_angle_alpha   109.98992023
_cell_angle_beta   109.98992023
_cell_angle_gamma   109.98992619
_symmetry_Int_Tables_number   1
_chemical_formula_structural   Mg16ScAl12
_chemical_formula_sum   'Mg16 Sc1 Al12'
_cell_volume   581.79560388
_cell_formula_units_Z   1
loop_
 _symmetry_equiv_pos_site_id
 _symmetry_equiv_pos_as_xyz
  1  'x, y, z'
loop_
 _atom_site_type_symbol
 _atom_site_label
 _atom_site_symmetry_multiplicity
 _atom_site_fract_x
 _atom_site_fract_y
 _atom_site_fract_z
 _atom_site_occupancy
  Mg  Mg0  1  0.39511700  0.72026400  0.39511700  1
  Mg  Mg1  1  0.99800900  0.99800900  0.99800900  1
  Mg  Mg2  1  0.68476000  0.28227000  0.68476000  1
  Mg  Mg3  1  0.00394000  0.34392300  0.00394000  1
  Mg  Mg4  1  0.31177700  0.99901100  0.60502400  1
  Mg  Mg5  1  0.99901100  0.60502400  0.31177700  1
  Mg  Mg6  1  0.39511700  0.39511700  0.72026400  1
  Mg  Mg7  1  0.00394000  0.00394000  0.34392300  1
  Mg  Mg8  1  0.60502400  0.31177700  0.99901100  1
  Mg  Mg9  1  0.28227000  0.68476000  0.68476000  1
  Mg  Mg10  1  0.68476000  0.68476000  0.28227000  1
  Mg  Mg11  1  0.99901100  0.31177700  0.60502400  1
  Mg  Mg12  1  0.34392300  0.00394000  0.00394000  1
  Mg  Mg13  1  0.72026400  0.39511700  0.39511700  1
  Mg  Mg14  1  0.31177700  0.60502400  0.99901100  1
  Mg  Mg15  1  0.60502400  0.99901100  0.31177700  1
  Sc  Sc0  1  0.62871500  0.62871500  0.62871500  1
  Al  Al0  1  0.18980500  0.82543800  0.18980500  1
  Al  Al1  1  0.37334900  0.19101600  0.37334900  1
  Al  Al2  1  0.63459900  0.99526000  0.81254000  1
  Al  Al3  1  0.81254000  0.63459900  0.99526000  1
  Al  Al4  1  0.19101600  0.37334900  0.37334900  1
  Al  Al5  1  0.63459900  0.81254000  0.99526000  1
  Al  Al6  1  0.82543800  0.18980500  0.18980500  1
  Al  Al7  1  0.18980500  0.18980500  0.82543800  1
  Al  Al8  1  0.99526000  0.81254000  0.63459900  1
  Al  Al9  1  0.37334900  0.37334900  0.19101600  1
  Al  Al10  1  0.99526000  0.63459900  0.81254000  1
  Al  Al11  1  0.81254000  0.99526000  0.63459900  1
loop_
_geom_bond_atom_site_label_1
_geom_bond_atom_site_label_2
_geom_bond_distance
_geom_bond_site_symmetry_2
Mg0 Sc0 3.033556 1_555
Mg0 Mg15 3.130319 1_555
Mg0 Mg4 3.130319 1_555
Mg0 Mg14 3.133460 1_554
Mg0 Mg5 3.133460 1_455
Mg1 Mg7 3.135040 1_666
Mg1 Mg3 3.135040 1_666
Mg1 Mg12 3.135040 1_666
Mg1 Sc0 3.298500 1_555
Mg2 Mg3 3.054808 1_656
Mg2 Mg4 3.145777 1_545
Mg2 Mg8 3.154895 1_555
Mg2 Sc0 3.559676 1_555
Mg3 Mg5 3.040104 1_455
Mg4 Mg7 3.040104 1_565
Mg4 Mg8 3.083569 1_565
Mg4 Mg5 3.083569 1_455
Mg4 Mg6 3.133460 1_565
Mg4 Mg9 3.154896 1_555
Mg5 Mg8 3.083569 1_554
Mg5 Mg9 3.145777 1_655
Mg6 Sc0 3.033556 1_555
Mg6 Mg8 3.130319 1_555
Mg9 Sc0 3.559676 1_555
Mg10 Mg7 3.054808 1_665
Mg10 Mg8 3.145777 1_554
Mg10 Mg14 3.145777 1_554
Mg10 Mg15 3.154896 1_555
Mg10 Mg5 3.154896 1_555
Mg10 Sc0 3.559676 1_555
Mg11 Mg7 3.040104 1_655
Mg11 Mg14 3.083569 1_655
Mg11 Mg15 3.083569 1_545
Mg11 Mg13 3.130319 1_555
Mg11 Mg6 3.133460 1_655
Mg11 Mg9 3.145777 1_655
Mg11 Mg2 3.154896 1_555
Mg12 Mg8 3.040104 1_554
Mg12 Mg15 3.040104 1_545
Mg12 Mg9 3.054808 1_544
Mg13 Sc0 3.033556 1_555
Mg13 Mg5 3.130319 1_555
Mg13 Mg8 3.133460 1_554
Mg13 Mg15 3.133460 1_545
Mg14 Mg3 3.040104 1_556
Mg14 Mg15 3.083569 1_556
Mg14 Mg6 3.130319 1_555
Mg14 Mg9 3.154895 1_555
Mg15 Mg2 3.145777 1_565
Al0 Al1 2.692707 1_565
Al0 Al10 2.778287 1_454
Al0 Al3 2.778287 1_454
Al0 Mg0 2.842136 1_555
Al0 Mg5 2.976897 1_455
Al0 Mg14 2.976897 1_554
Al0 Mg12 3.090788 1_565
Al0 Mg7 3.090788 1_565
Al0 Mg4 3.163569 1_555
Al0 Mg15 3.163570 1_555
Al0 Mg1 3.221850 1_454
Al1 Al9 2.738884 1_555
Al1 Al4 2.738885 1_555
Al1 Mg2 2.857532 1_555
Al1 Mg6 2.983504 1_555
Al1 Mg13 2.983504 1_555
Al1 Mg12 3.094327 1_555
Al1 Mg7 3.094327 1_555
Al1 Mg1 3.224063 1_444
Al1 Sc0 3.236379 1_555
Al1 Mg4 3.260150 1_545
Al1 Mg15 3.260150 1_545
Al2 Al5 2.744698 1_555
Al2 Al6 2.778287 1_566
Al2 Mg4 2.940631 1_555
Al2 Mg9 2.959449 1_555
Al2 Mg8 2.980357 1_565
Al2 Mg3 3.076985 1_666
Al2 Mg0 3.114350 1_555
Al2 Mg1 3.167871 1_555
Al2 Sc0 3.175034 1_555
Al2 Mg2 3.187366 1_565
Al3 Al5 2.672911 1_555
Al3 Mg8 2.940631 1_555
Al3 Mg2 2.959449 1_555
Al3 Mg5 2.980357 1_556
Al3 Mg7 3.076985 1_666
Al3 Mg6 3.114350 1_555
Al3 Mg1 3.167871 1_555
Al3 Sc0 3.175033 1_555
Al3 Mg10 3.187366 1_556
Al4 Al6 2.692707 1_455
Al4 Al9 2.738884 1_555
Al4 Mg9 2.857532 1_555
Al4 Mg6 2.983504 1_555
Al4 Mg0 2.983504 1_555
Al4 Mg3 3.094327 1_555
Al4 Mg7 3.094327 1_555
Al4 Mg1 3.224063 1_444
Al4 Sc0 3.236379 1_555
Al4 Mg11 3.260150 1_455
Al4 Mg5 3.260150 1_455
Al5 Al6 2.778287 1_566
Al5 Mg14 2.940631 1_555
Al5 Mg9 2.959449 1_555
Al5 Mg15 2.980357 1_556
Al5 Mg7 3.076985 1_666
Al5 Mg6 3.114350 1_555
Al5 Mg1 3.167871 1_555
Al5 Sc0 3.175033 1_555
Al5 Mg10 3.187366 1_556
Al6 Mg13 2.842136 1_555
Al6 Mg15 2.976897 1_545
Al6 Mg8 2.976897 1_554
Al6 Mg3 3.090788 1_655
Al6 Mg7 3.090788 1_655
Al6 Mg11 3.163569 1_555
Al6 Mg5 3.163570 1_555
Al6 Mg1 3.221850 1_544
Al7 Al9 2.692707 1_556
Al7 Al8 2.778287 1_445
Al7 Mg6 2.842135 1_555
Al7 Mg11 2.976897 1_455
Al7 Mg4 2.976897 1_545
Al7 Mg12 3.090788 1_556
Al7 Mg3 3.090788 1_556
Al7 Mg8 3.163570 1_555
Al7 Mg14 3.163570 1_555
Al7 Mg1 3.221850 1_445
Al8 Mg5 2.940631 1_555
Al8 Mg10 2.959449 1_555
Al8 Mg4 2.980357 1_655
Al8 Mg12 3.076985 1_666
Al8 Mg13 3.114350 1_555
Al8 Mg1 3.167871 1_555
Al8 Sc0 3.175033 1_555
Al8 Mg9 3.187366 1_655
Al9 Mg10 2.857532 1_555
Al9 Mg0 2.983504 1_555
Al9 Mg13 2.983504 1_555
Al9 Mg3 3.094328 1_555
Al9 Mg12 3.094328 1_555
Al9 Mg1 3.224063 1_444
Al9 Sc0 3.236379 1_555
Al9 Mg8 3.260150 1_554
Al9 Mg14 3.260150 1_554
Al10 Al8 2.672911 1_555
Al10 Al3 2.744698 1_555
Al10 Mg11 2.940631 1_555
Al10 Mg2 2.959449 1_555
Al10 Mg14 2.980357 1_655
Al10 Mg12 3.076985 1_666
Al10 Mg13 3.114350 1_555
Al10 Mg1 3.167871 1_555
Al10 Sc0 3.175034 1_555
Al10 Mg9 3.187366 1_655
Al11 Al2 2.672911 1_555
Al11 Al8 2.744698 1_555
Al11 Al7 2.778287 1_665
Al11 Mg15 2.940631 1_555
Al11 Mg10 2.959449 1_555
Al11 Mg11 2.980357 1_565
Al11 Mg3 3.076985 1_666
Al11 Mg0 3.114350 1_555
Al11 Mg1 3.167871 1_555
Al11 Sc0 3.175033 1_555
Al11 Mg2 3.187366 1_565
