# generated using pymatgen
data_Li2MnNiO4
_symmetry_space_group_name_H-M   'P 1'
_cell_length_a   5.17647046
_cell_length_b   5.17647046
_cell_length_c   5.17647046
_cell_angle_alpha   133.90665405
_cell_angle_beta   133.90665405
_cell_angle_gamma   67.23384242
_symmetry_Int_Tables_number   1
_chemical_formula_structural   Li2MnNiO4
_chemical_formula_sum   'Li2 Mn1 Ni1 O4'
_cell_volume   70.81103245
_cell_formula_units_Z   1
loop_
 _symmetry_equiv_pos_site_id
 _symmetry_equiv_pos_as_xyz
  1  'x, y, z'
loop_
 _atom_site_type_symbol
 _atom_site_label
 _atom_site_symmetry_multiplicity
 _atom_site_fract_x
 _atom_site_fract_y
 _atom_site_fract_z
 _atom_site_occupancy
  Li  Li0  1  0.25000000  0.75000000  0.50000000  1
  Li  Li1  1  0.50000000  0.50000000  0.00000000  1
  Mn  Mn0  1  0.75000000  0.25000000  0.50000000  1
  Ni  Ni0  1  0.00000000  0.00000000  0.00000000  1
  O  O0  1  0.52619600  0.02619600  0.50000000  1
  O  O1  1  0.23945500  0.23945500  0.00000000  1
  O  O2  1  0.97380400  0.47380400  0.50000000  1
  O  O3  1  0.76054500  0.76054500  0.00000000  1
loop_
_geom_bond_atom_site_label_1
_geom_bond_atom_site_label_2
_geom_bond_distance
_geom_bond_site_symmetry_2
Li0 O3 2.028527 1_455
Li0 O3 2.028527 1_556
Li0 O1 2.028527 1_555
Li0 O1 2.028527 1_566
Li0 O2 2.381222 1_455
Li0 O0 2.381222 1_565
Li1 O2 2.039035 1_454
Li1 O0 2.039035 1_554
Li1 O2 2.039035 1_555
Li1 O0 2.039035 1_565
Li1 O3 2.246287 1_555
Li1 O1 2.246287 1_555
Mn0 O2 1.929524 1_555
Mn0 O0 1.929524 1_555
Mn0 O3 2.028527 1_545
Mn0 O3 2.028527 1_556
Mn0 O1 2.028527 1_656
Mn0 O1 2.028527 1_555
Ni0 O2 2.039035 1_455
Ni0 O0 2.039035 1_555
Ni0 O2 2.039035 1_444
Ni0 O0 2.039035 1_454
Ni0 O1 2.064459 1_555
Ni0 O3 2.064459 1_445
