# generated using pymatgen
data_Ga3O5
_symmetry_space_group_name_H-M   'P 1'
_cell_length_a   6.05204100
_cell_length_b   8.04601100
_cell_length_c   8.70221900
_cell_angle_alpha   90.00000000
_cell_angle_beta   90.00000000
_cell_angle_gamma   90.00000000
_symmetry_Int_Tables_number   1
_chemical_formula_structural   Ga3O5
_chemical_formula_sum   'Ga12 O20'
_cell_volume   423.75271332
_cell_formula_units_Z   4
loop_
 _symmetry_equiv_pos_site_id
 _symmetry_equiv_pos_as_xyz
  1  'x, y, z'
loop_
 _atom_site_type_symbol
 _atom_site_label
 _atom_site_symmetry_multiplicity
 _atom_site_fract_x
 _atom_site_fract_y
 _atom_site_fract_z
 _atom_site_occupancy
  Ga  Ga0  1  0.25000000  0.31224900  0.20508700  1
  Ga  Ga1  1  0.75000000  0.68775100  0.79491300  1
  Ga  Ga2  1  0.75000000  0.81224900  0.29491300  1
  Ga  Ga3  1  0.25000000  0.18775100  0.70508700  1
  Ga  Ga4  1  0.00000000  0.00000000  0.00000000  1
  Ga  Ga5  1  0.00000000  0.50000000  0.50000000  1
  Ga  Ga6  1  0.50000000  0.00000000  0.00000000  1
  Ga  Ga7  1  0.50000000  0.50000000  0.50000000  1
  Ga  Ga8  1  0.25000000  0.69569800  0.19851800  1
  Ga  Ga9  1  0.75000000  0.30430200  0.80148200  1
  Ga  Ga10  1  0.75000000  0.19569800  0.30148200  1
  Ga  Ga11  1  0.25000000  0.80430200  0.69851800  1
  O  O0  1  0.00102700  0.32441300  0.33214800  1
  O  O1  1  0.99897300  0.67558700  0.66785200  1
  O  O2  1  0.99897300  0.82441300  0.16785200  1
  O  O3  1  0.50102700  0.67558700  0.66785200  1
  O  O4  1  0.00102700  0.17558700  0.83214800  1
  O  O5  1  0.49897300  0.32441300  0.33214800  1
  O  O6  1  0.49897300  0.17558700  0.83214800  1
  O  O7  1  0.50102700  0.82441300  0.16785200  1
  O  O8  1  0.25000000  0.11368200  0.10181800  1
  O  O9  1  0.75000000  0.88631800  0.89818200  1
  O  O10  1  0.75000000  0.61368200  0.39818200  1
  O  O11  1  0.25000000  0.38631800  0.60181800  1
  O  O12  1  0.25000000  0.61869600  0.40147100  1
  O  O13  1  0.75000000  0.38130400  0.59852900  1
  O  O14  1  0.75000000  0.11869600  0.09852900  1
  O  O15  1  0.25000000  0.88130400  0.90147100  1
  O  O16  1  0.25000000  0.50126600  0.08050400  1
  O  O17  1  0.75000000  0.49873400  0.91949600  1
  O  O18  1  0.75000000  0.00126600  0.41949600  1
  O  O19  1  0.25000000  0.99873400  0.58050400  1
loop_
_geom_bond_atom_site_label_1
_geom_bond_atom_site_label_2
_geom_bond_distance
_geom_bond_site_symmetry_2
Ga0 O8 1.833075 1_555
Ga0 O16 1.867702 1_555
Ga0 O5 1.871526 1_555
Ga0 O0 1.871526 1_555
Ga1 O9 1.833075 1_555
Ga1 O17 1.867702 1_555
Ga1 O1 1.871526 1_555
Ga1 O3 1.871526 1_555
Ga2 O10 1.833075 1_555
Ga2 O18 1.867702 1_565
Ga2 O2 1.871526 1_555
Ga2 O7 1.871526 1_555
Ga3 O11 1.833075 1_555
Ga3 O19 1.867702 1_545
Ga3 O4 1.871526 1_555
Ga3 O6 1.871526 1_555
Ga4 O8 1.977605 1_555
Ga4 O9 1.977605 1_444
Ga4 O14 1.984049 1_455
Ga4 O15 1.984049 1_544
Ga4 O2 2.032135 1_445
Ga4 O4 2.032135 1_554
Ga5 O10 1.977605 1_455
Ga5 O11 1.977605 1_555
Ga5 O13 1.984049 1_455
Ga5 O12 1.984049 1_555
Ga5 O1 2.032135 1_455
Ga5 O0 2.032135 1_555
Ga6 O8 1.977605 1_555
Ga6 O9 1.977605 1_544
Ga6 O14 1.984049 1_555
Ga6 O15 1.984049 1_544
Ga6 O7 2.032135 1_545
Ga6 O6 2.032135 1_554
Ga7 O10 1.977605 1_555
Ga7 O11 1.977605 1_555
Ga7 O13 1.984049 1_555
Ga7 O12 1.984049 1_555
Ga7 O3 2.032135 1_555
Ga7 O5 2.032135 1_555
Ga8 O2 1.857907 1_455
Ga8 O7 1.857907 1_555
Ga8 O16 1.871376 1_555
Ga8 O12 1.871659 1_555
Ga9 O4 1.857907 1_655
Ga9 O6 1.857907 1_555
Ga9 O17 1.871376 1_555
Ga9 O13 1.871659 1_555
Ga10 O0 1.857907 1_655
Ga10 O5 1.857907 1_555
Ga10 O18 1.871376 1_555
Ga10 O14 1.871659 1_555
Ga11 O3 1.857907 1_555
Ga11 O1 1.857907 1_455
Ga11 O19 1.871376 1_555
Ga11 O15 1.871659 1_555
