# generated using pymatgen
data_Sr6La14Mn17(CuO20)3
_symmetry_space_group_name_H-M   'P 1'
_cell_length_a   5.51922085
_cell_length_b   5.51846973
_cell_length_c   55.22452883
_cell_angle_alpha   60.83249224
_cell_angle_beta   60.81226840
_cell_angle_gamma   60.89251744
_symmetry_Int_Tables_number   1
_chemical_formula_structural   Sr6La14Mn17(CuO20)3
_chemical_formula_sum   'Sr6 La14 Mn17 Cu3 O60'
_cell_volume   1212.04069598
_cell_formula_units_Z   1
loop_
 _symmetry_equiv_pos_site_id
 _symmetry_equiv_pos_as_xyz
  1  'x, y, z'
loop_
 _atom_site_type_symbol
 _atom_site_label
 _atom_site_symmetry_multiplicity
 _atom_site_fract_x
 _atom_site_fract_y
 _atom_site_fract_z
 _atom_site_occupancy
  Sr  Sr0  1  0.25121800  0.25256500  0.02471600  1
  Sr  Sr1  1  0.24773800  0.25080500  0.12520200  1
  Sr  Sr2  1  0.24971400  0.24820800  0.22497100  1
  Sr  Sr3  1  0.25210200  0.25133700  0.32472000  1
  Sr  Sr4  1  0.24932400  0.25157400  0.42462800  1
  Sr  Sr5  1  0.25204000  0.25316200  0.52412200  1
  La  La0  1  0.74773700  0.74916300  0.07524500  1
  La  La1  1  0.75012900  0.75115900  0.17511200  1
  La  La2  1  0.75205300  0.75001900  0.27474800  1
  La  La3  1  0.74889500  0.75050500  0.37468900  1
  La  La4  1  0.25439900  0.24935200  0.62451000  1
  La  La5  1  0.75246600  0.75350000  0.47408800  1
  La  La6  1  0.24783300  0.24964100  0.72506100  1
  La  La7  1  0.75037300  0.74944500  0.57451500  1
  La  La8  1  0.25407700  0.25286100  0.82427100  1
  La  La9  1  0.75465300  0.75588800  0.67336800  1
  La  La10  1  0.24393800  0.23658900  0.92806900  1
  La  La11  1  0.74634700  0.74803800  0.77602600  1
  La  La12  1  0.74819400  0.74560000  0.87582500  1
  La  La13  1  0.74779500  0.74719700  0.97626900  1
  Mn  Mn0  1  0.00074400  0.99581400  0.00050800  1
  Mn  Mn1  1  0.00051600  0.00055200  0.09983000  1
  Mn  Mn2  1  0.99994700  0.99945400  0.19986500  1
  Mn  Mn3  1  0.50116500  0.49911900  0.05015900  1
  Mn  Mn4  1  0.99970300  0.00058800  0.29999000  1
  Mn  Mn5  1  0.49902900  0.50027900  0.15002200  1
  Mn  Mn6  1  0.00155100  0.00167300  0.39946500  1
  Mn  Mn7  1  0.50028900  0.49993100  0.24989700  1
  Mn  Mn8  1  0.99816500  0.00002600  0.50016200  1
  Mn  Mn9  1  0.49998200  0.50236100  0.34976500  1
  Mn  Mn10  1  0.99808100  0.00405400  0.59978700  1
  Mn  Mn11  1  0.50035500  0.49921300  0.45002800  1
  Mn  Mn12  1  0.00137600  0.99956200  0.69993600  1
  Mn  Mn13  1  0.50206900  0.50149400  0.54949500  1
  Mn  Mn14  1  0.00024600  0.99960700  0.90002500  1
  Mn  Mn15  1  0.50153900  0.49963100  0.74989000  1
  Mn  Mn16  1  0.49679400  0.50040900  0.85034400  1
  Cu  Cu0  1  0.99833700  0.99718000  0.80061600  1
  Cu  Cu1  1  0.49798600  0.49877300  0.65062000  1
  Cu  Cu2  1  0.49907100  0.49816100  0.95036500  1
  O  O0  1  0.18853100  0.74997300  0.03109200  1
  O  O1  1  0.31198300  0.19386800  0.07436100  1
  O  O2  1  0.25419100  0.70481600  0.07917300  1
  O  O3  1  0.74953000  0.30943400  0.01905800  1
  O  O4  1  0.19452300  0.75037400  0.13062500  1
  O  O5  1  0.70216500  0.79854200  0.02474300  1
  O  O6  1  0.30703800  0.18926700  0.17525000  1
  O  O7  1  0.79635800  0.25503300  0.06995300  1
  O  O8  1  0.24693800  0.70479800  0.17955900  1
  O  O9  1  0.74878100  0.30595700  0.11933100  1
  O  O10  1  0.19081200  0.75027600  0.23067100  1
  O  O11  1  0.70808000  0.79160800  0.12481100  1
  O  O12  1  0.30809200  0.19315500  0.27491800  1
  O  O13  1  0.79311100  0.24774700  0.17076500  1
  O  O14  1  0.24979000  0.70883000  0.27899900  1
  O  O15  1  0.75186000  0.30746500  0.21906900  1
  O  O16  1  0.19249000  0.74849400  0.33084400  1
  O  O17  1  0.70513700  0.79430800  0.22464700  1
  O  O18  1  0.31059400  0.19308400  0.37459300  1
  O  O19  1  0.79149400  0.25092700  0.27072300  1
  O  O20  1  0.25211700  0.70690800  0.37916900  1
  O  O21  1  0.74920100  0.31096600  0.31914900  1
  O  O22  1  0.19408100  0.75342300  0.43027400  1
  O  O23  1  0.70552500  0.79482400  0.32523500  1
  O  O24  1  0.30503100  0.19089400  0.47560600  1
  O  O25  1  0.79573500  0.25213300  0.37025300  1
  O  O26  1  0.24632800  0.70747200  0.47946300  1
  O  O27  1  0.75198500  0.30459600  0.41908100  1
  O  O28  1  0.18919000  0.74853400  0.53154500  1
  O  O29  1  0.71051900  0.79251000  0.42493600  1
  O  O30  1  0.31141500  0.18845700  0.57597600  1
  O  O31  1  0.79042800  0.24696900  0.47109400  1
  O  O32  1  0.24924300  0.68940400  0.58124900  1
  O  O33  1  0.74613800  0.31382400  0.51916000  1
  O  O34  1  0.18435000  0.75861000  0.63024900  1
  O  O35  1  0.69959200  0.79590900  0.52623500  1
  O  O36  1  0.31005300  0.17232500  0.67671000  1
  O  O37  1  0.79733900  0.24973400  0.57028500  1
  O  O38  1  0.24044400  0.68664400  0.68300800  1
  O  O39  1  0.76128100  0.30715600  0.61807600  1
  O  O40  1  0.17766100  0.75258800  0.73210400  1
  O  O41  1  0.69493100  0.81905800  0.62476700  1
  O  O42  1  0.32410500  0.19110900  0.77375100  1
  O  O43  1  0.82720800  0.23384300  0.66918200  1
  O  O44  1  0.26092700  0.68017200  0.78056500  1
  O  O45  1  0.75225800  0.32072600  0.71770700  1
  O  O46  1  0.18699900  0.73704000  0.83299000  1
  O  O47  1  0.68311600  0.81876400  0.72487000  1
  O  O48  1  0.31796000  0.18207800  0.87435100  1
  O  O49  1  0.80941400  0.25836600  0.76770700  1
  O  O50  1  0.25361400  0.67678200  0.88211100  1
  O  O51  1  0.73716500  0.32436800  0.81936200  1
  O  O52  1  0.17921200  0.76253700  0.93018200  1
  O  O53  1  0.67160800  0.80962000  0.82632800  1
  O  O54  1  0.30498900  0.18055100  0.97490300  1
  O  O55  1  0.82087900  0.25179500  0.86779000  1
  O  O56  1  0.23736300  0.71665500  0.97989700  1
  O  O57  1  0.76231700  0.30510500  0.91758000  1
  O  O58  1  0.69676400  0.82286200  0.92261200  1
  O  O59  1  0.81204900  0.24224900  0.97038000  1
loop_
_geom_bond_atom_site_label_1
_geom_bond_atom_site_label_2
_geom_bond_distance
_geom_bond_site_symmetry_2
La0 O1 2.462646 1_565
La0 O0 2.465425 1_655
La0 O9 2.470885 1_555
La0 O2 2.747283 1_555
La0 O7 2.753444 1_555
La0 O11 2.754284 1_555
La0 O5 2.791503 1_555
La0 O2 2.791843 1_655
La0 O7 2.794229 1_565
La1 O6 2.464415 1_565
La1 O15 2.468678 1_555
La1 O4 2.484831 1_655
La1 O17 2.741610 1_555
La1 O8 2.749066 1_655
La1 O13 2.749441 1_565
La1 O13 2.790140 1_555
La1 O11 2.791795 1_555
La1 O8 2.793481 1_555
La2 O10 2.457636 1_655
La2 O21 2.468137 1_555
La2 O12 2.480833 1_565
La2 O14 2.760969 1_655
La2 O19 2.765644 1_555
La2 O19 2.770771 1_565
La2 O14 2.778056 1_555
La2 O17 2.785687 1_555
La2 O23 2.795093 1_555
La3 O18 2.463501 1_565
La3 O16 2.464727 1_655
La3 O27 2.487033 1_555
La3 O23 2.739611 1_555
La3 O20 2.749336 1_555
La3 O25 2.755712 1_555
La3 O25 2.786279 1_565
La3 O20 2.791969 1_655
La3 O29 2.793643 1_555
La4 O41 2.436023 1_545
La4 O32 2.439199 1_555
La4 O43 2.443308 1_455
La4 O30 2.710756 1_555
La4 O39 2.761038 1_455
La4 O34 2.765227 1_545
La4 O34 2.799900 1_555
La4 O39 2.800492 1_555
La4 O36 2.850848 1_555
La5 O22 2.458290 1_655
La5 O24 2.475423 1_565
La5 O33 2.488932 1_555
La5 O29 2.731804 1_555
La5 O31 2.751264 1_565
La5 O26 2.761216 1_655
La5 O31 2.780597 1_555
La5 O26 2.786446 1_555
La5 O35 2.864256 1_555
La5 O27 3.077641 1_565
La5 O24 3.119437 1_655
La5 O28 3.179730 1_555
La6 O38 2.397585 1_555
La6 O49 2.417208 1_455
La6 O47 2.422334 1_545
La6 O36 2.739219 1_555
La6 O42 2.763471 1_555
La6 O40 2.769817 1_545
La6 O45 2.772063 1_455
La6 O40 2.804314 1_555
La6 O45 2.806085 1_555
La7 O28 2.427164 1_655
La7 O39 2.454203 1_555
La7 O30 2.456600 1_565
La7 O35 2.691782 1_555
La7 O37 2.756762 1_555
La7 O32 2.768801 1_555
La7 O37 2.784332 1_565
La7 O32 2.796456 1_655
La7 O41 2.835342 1_555
La8 O53 2.409750 1_545
La8 O44 2.416133 1_555
La8 O55 2.426497 1_455
La8 O51 2.748191 1_555
La8 O46 2.761499 1_555
La8 O48 2.773044 1_555
La8 O42 2.792158 1_555
La8 O51 2.814842 1_455
La8 O46 2.826154 1_545
La9 O34 2.405544 1_655
La9 O36 2.412886 1_565
La9 O45 2.455697 1_555
La9 O41 2.696840 1_555
La9 O43 2.741095 1_565
La9 O38 2.795589 1_655
La9 O38 2.804824 1_555
La9 O43 2.819539 1_555
La9 O47 2.845871 1_555
La10 O59 2.389343 1_455
La10 O58 2.436052 1_545
La10 O50 2.515914 1_555
La10 O54 2.620606 1_555
La10 O52 2.748803 1_545
La10 O52 2.801077 1_555
La10 O57 2.802651 1_455
La10 O57 2.808320 1_555
La10 O56 2.901925 1_545
La10 O48 2.937007 1_555
La11 O51 2.395693 1_555
La11 O42 2.422314 1_565
La11 O40 2.432678 1_655
La11 O44 2.758725 1_555
La11 O53 2.769216 1_555
La11 O49 2.788067 1_555
La11 O49 2.792847 1_565
La11 O44 2.799495 1_655
La11 O47 2.830097 1_555
La12 O57 2.399921 1_555
La12 O46 2.423486 1_655
La12 O48 2.424826 1_565
La12 O58 2.679376 1_555
La12 O50 2.769803 1_555
La12 O55 2.779416 1_555
La12 O53 2.795633 1_555
La12 O50 2.798481 1_655
La12 O55 2.805257 1_565
La13 O3 2.419752 1_556
La13 O54 2.452628 1_565
La13 O52 2.495949 1_655
La13 O5 2.705948 1_556
La13 O56 2.724255 1_655
La13 O59 2.767496 1_565
La13 O59 2.793879 1_555
La13 O56 2.807777 1_555
La13 O58 2.920222 1_555
La13 O0 3.094924 1_556
La13 O54 3.144693 1_655
La13 O57 3.201600 1_565
Mn0 O56 1.917374 1_554
Mn0 O54 1.950117 1_564
Mn0 O59 1.951647 1_464
Mn0 O5 1.966230 1_455
Mn0 O0 1.968074 1_555
Mn0 O3 1.993834 1_465
Mn1 O11 1.981448 1_445
Mn1 O2 1.989707 1_545
Mn1 O9 1.990541 1_455
Mn1 O7 1.994847 1_455
Mn1 O4 1.998514 1_545
Mn1 O1 2.008703 1_555
Mn2 O13 1.970890 1_565
Mn2 O8 1.972226 1_655
Mn2 O6 1.977354 1_665
Mn2 O17 1.977915 1_555
Mn2 O10 1.988272 1_655
Mn2 O15 1.991273 1_565
Mn3 O7 1.957148 1_555
Mn3 O2 1.962431 1_555
Mn3 O1 1.967158 1_555
Mn3 O5 1.983708 1_555
Mn3 O3 1.996200 1_555
Mn3 O0 2.007436 1_555
Mn4 O23 1.977889 1_545
Mn4 O19 1.982914 1_555
Mn4 O14 1.984386 1_645
Mn4 O12 1.992580 1_655
Mn4 O16 1.997111 1_645
Mn4 O21 2.000115 1_555
Mn5 O11 1.977485 1_555
Mn5 O8 1.980782 1_555
Mn5 O4 1.983679 1_555
Mn5 O13 1.986342 1_555
Mn5 O9 1.994366 1_555
Mn5 O6 2.002079 1_555
Mn6 O25 1.972225 1_455
Mn6 O20 1.972689 1_545
Mn6 O29 1.976999 1_445
Mn6 O27 1.983650 1_455
Mn6 O18 1.991312 1_555
Mn6 O22 1.993958 1_545
Mn7 O17 1.975583 1_555
Mn7 O19 1.976844 1_555
Mn7 O14 1.977732 1_555
Mn7 O12 1.984434 1_555
Mn7 O15 1.994129 1_555
Mn7 O10 1.999175 1_555
Mn8 O31 1.972629 1_555
Mn8 O26 1.977256 1_645
Mn8 O24 1.979922 1_655
Mn8 O35 1.992065 1_545
Mn8 O33 2.009564 1_555
Mn8 O28 2.013821 1_645
Mn9 O23 1.969313 1_555
Mn9 O20 1.974856 1_555
Mn9 O16 1.980015 1_555
Mn9 O21 1.981198 1_555
Mn9 O25 1.984177 1_555
Mn9 O18 1.985525 1_555
Mn10 O39 1.938657 1_555
Mn10 O41 1.944881 1_545
Mn10 O34 1.957693 1_645
Mn10 O37 1.966262 1_555
Mn10 O30 1.986256 1_655
Mn10 O32 1.997869 1_645
Mn11 O31 1.980948 1_555
Mn11 O29 1.989479 1_555
Mn11 O26 1.989809 1_555
Mn11 O24 2.002253 1_555
Mn11 O22 2.003817 1_555
Mn11 O27 2.006487 1_555
Mn12 O36 1.927052 1_565
Mn12 O43 1.929501 1_465
Mn12 O38 1.936633 1_555
Mn12 O47 1.995952 1_455
Mn12 O40 1.998926 1_555
Mn12 O45 2.000816 1_465
Mn13 O35 1.949702 1_555
Mn13 O33 1.956117 1_555
Mn13 O28 1.971077 1_555
Mn13 O37 1.992872 1_555
Mn13 O30 2.008794 1_555
Mn13 O32 2.018820 1_555
Mn14 O58 1.917960 1_455
Mn14 O52 1.919450 1_555
Mn14 O57 1.924589 1_465
Mn14 O48 2.000111 1_565
Mn14 O55 2.012324 1_465
Mn14 O50 2.013156 1_555
Mn15 O42 1.941867 1_555
Mn15 O49 1.944454 1_555
Mn15 O44 1.946684 1_555
Mn15 O47 2.002421 1_555
Mn15 O45 2.007680 1_555
Mn15 O40 2.014220 1_555
Mn16 O53 1.936325 1_555
Mn16 O46 1.937353 1_555
Mn16 O51 1.945138 1_555
Mn16 O50 1.980717 1_555
Mn16 O48 1.989564 1_555
Mn16 O55 2.003708 1_555
Cu0 O46 2.049678 1_655
Cu0 O53 2.055555 1_555
Cu0 O44 2.059907 1_655
Cu0 O51 2.060099 1_565
Cu0 O49 2.073747 1_565
Cu0 O42 2.074086 1_665
Cu1 O38 2.046587 1_555
Cu1 O36 2.056086 1_555
Cu1 O34 2.056760 1_555
Cu1 O41 2.059059 1_555
Cu1 O43 2.064284 1_555
Cu1 O39 2.066408 1_555
Cu2 O56 2.030942 1_555
Cu2 O54 2.037522 1_555
Cu2 O59 2.041417 1_555
Cu2 O52 2.077434 1_555
Cu2 O57 2.081473 1_555
Cu2 O58 2.084336 1_555
O0 Sr0 2.770857 1_555
O0 Sr0 2.792680 1_565
O1 Sr0 2.767559 1_555
O1 Sr1 2.808551 1_555
O2 Sr1 2.555528 1_555
O2 Sr0 3.052960 1_565
O3 Sr0 2.768794 1_555
O3 Sr0 2.786741 1_655
O4 Sr1 2.774821 1_565
O4 Sr1 2.776225 1_555
O5 Sr0 2.530843 1_565
O5 Sr0 3.062355 1_655
O6 Sr2 2.769211 1_555
O6 Sr1 2.778621 1_555
O7 Sr0 2.535055 1_655
O7 Sr1 3.076815 1_555
O8 Sr2 2.545382 1_555
O8 Sr1 3.045267 1_565
O9 Sr1 2.773657 1_555
O9 Sr1 2.782210 1_655
O10 Sr2 2.771548 1_565
O10 Sr2 2.784824 1_555
O11 Sr1 2.571613 1_565
O11 Sr1 3.021646 1_655
O12 Sr3 2.774518 1_555
O12 Sr2 2.785515 1_555
O13 Sr1 2.543502 1_655
O13 Sr2 3.033031 1_555
O14 Sr3 2.556542 1_555
O14 Sr2 3.017533 1_565
O15 Sr2 2.767457 1_655
O15 Sr2 2.791222 1_555
O16 Sr3 2.768998 1_555
O16 Sr3 2.790661 1_565
O17 Sr2 2.543019 1_565
O17 Sr2 3.050191 1_655
O18 Sr3 2.774255 1_555
O18 Sr4 2.775856 1_555
O19 Sr2 2.558848 1_655
O19 Sr3 3.016004 1_555
O20 Sr4 2.543172 1_555
O20 Sr3 3.043410 1_565
O21 Sr3 2.772483 1_555
O21 Sr3 2.784352 1_655
O22 Sr4 2.763080 1_565
O22 Sr4 2.790594 1_555
O23 Sr3 2.544811 1_565
O23 Sr3 3.048516 1_655
O24 Sr5 2.723501 1_555
O24 Sr4 2.820885 1_555
O25 Sr3 2.547506 1_655
O25 Sr4 3.046194 1_555
O26 Sr5 2.518141 1_555
O26 Sr4 3.053324 1_565
O27 Sr4 2.768649 1_655
O27 Sr4 2.783823 1_555
O28 Sr5 2.780601 1_565
O28 Sr5 2.791506 1_555
O29 Sr4 2.573685 1_565
O29 Sr4 3.019654 1_655
O30 Sr5 2.870528 1_555
O31 Sr4 2.580744 1_655
O31 Sr5 2.986325 1_555
O32 Sr5 3.172425 1_565
O33 Sr5 2.773767 1_555
O33 Sr5 2.780452 1_655
O35 Sr5 2.532288 1_565
O35 Sr5 3.064323 1_655
O37 Sr5 2.560593 1_655
O54 Sr0 2.822772 1_556
O56 Sr0 2.550767 1_556
O59 Sr0 3.086166 1_556
