# generated using pymatgen
data_Sr3Re3N5
_symmetry_space_group_name_H-M   'P 1'
_cell_length_a   6.05484380
_cell_length_b   7.09009237
_cell_length_c   9.16828779
_cell_angle_alpha   106.94219771
_cell_angle_beta   103.37325202
_cell_angle_gamma   94.84105975
_symmetry_Int_Tables_number   1
_chemical_formula_structural   Sr3Re3N5
_chemical_formula_sum   'Sr6 Re6 N10'
_cell_volume   361.39264523
_cell_formula_units_Z   2
loop_
 _symmetry_equiv_pos_site_id
 _symmetry_equiv_pos_as_xyz
  1  'x, y, z'
loop_
 _atom_site_type_symbol
 _atom_site_label
 _atom_site_symmetry_multiplicity
 _atom_site_fract_x
 _atom_site_fract_y
 _atom_site_fract_z
 _atom_site_occupancy
  Sr  Sr0  1  0.81168300  0.42945300  0.61686700  1
  Sr  Sr1  1  0.18831700  0.57054700  0.38313300  1
  Sr  Sr2  1  0.64162500  0.86801200  0.88344900  1
  Sr  Sr3  1  0.35837500  0.13198800  0.11655100  1
  Sr  Sr4  1  0.66099500  0.65285200  0.20341800  1
  Sr  Sr5  1  0.33900500  0.34714800  0.79658200  1
  Re  Re0  1  0.90040700  0.31568300  0.97024900  1
  Re  Re1  1  0.09959300  0.68431700  0.02975100  1
  Re  Re2  1  0.68137200  0.92956800  0.56369400  1
  Re  Re3  1  0.31862800  0.07043200  0.43630600  1
  Re  Re4  1  0.10491500  0.89094900  0.69403600  1
  Re  Re5  1  0.89508500  0.10905100  0.30596400  1
  N  N0  1  0.90496400  0.10968600  0.77870700  1
  N  N1  1  0.09503600  0.89031400  0.22129300  1
  N  N2  1  0.86991800  0.71989300  0.49626300  1
  N  N3  1  0.13008200  0.28010700  0.50373700  1
  N  N4  1  0.75647000  0.54151700  0.92101500  1
  N  N5  1  0.24353000  0.45848300  0.07898500  1
  N  N6  1  0.37329200  0.94458000  0.61883900  1
  N  N7  1  0.62670800  0.05542000  0.38116100  1
  N  N8  1  0.15775000  0.77747000  0.86249100  1
  N  N9  1  0.84225000  0.22253000  0.13750900  1
loop_
_geom_bond_atom_site_label_1
_geom_bond_atom_site_label_2
_geom_bond_distance
_geom_bond_site_symmetry_2
N0 Re0 1.937069 1_555
N0 Re2 2.087139 1_545
N0 Re4 2.126860 1_645
N0 Sr2 2.758036 1_545
N0 Sr5 2.943001 1_655
N0 Sr0 3.074053 1_555
N1 Re1 1.937069 1_555
N1 Re3 2.087139 1_565
N1 Re5 2.126860 1_465
N1 Sr3 2.758036 1_565
N1 Sr4 2.943001 1_455
N1 Sr1 3.074053 1_555
N2 Re2 1.993190 1_555
N2 Re4 2.004216 1_655
N2 Sr1 2.557947 1_655
N2 Sr4 2.572621 1_555
N2 Sr0 2.640516 1_555
N3 Re3 1.993190 1_555
N3 Re5 2.004216 1_455
N3 Sr0 2.557947 1_455
N3 Sr5 2.572621 1_555
N3 Sr1 2.640516 1_555
N4 Re0 2.000468 1_555
N4 Re1 2.105658 1_656
N4 Sr2 2.566398 1_555
N4 Sr5 2.598397 1_555
N4 Sr4 2.690584 1_556
N4 Sr0 2.775548 1_555
N5 Re1 2.000468 1_555
N5 Re0 2.105658 1_454
N5 Sr3 2.566398 1_555
N5 Sr4 2.598397 1_555
N5 Sr5 2.690584 1_554
N5 Sr1 2.775548 1_555
N6 Re4 1.956323 1_555
N6 Re2 2.045725 1_555
N6 Re3 2.090533 1_565
N6 Sr2 2.813024 1_555
N6 Sr1 2.827749 1_555
N6 Sr5 2.896737 1_565
N7 Re5 1.956323 1_555
N7 Re3 2.045725 1_555
N7 Re2 2.090533 1_545
N7 Sr3 2.813024 1_555
N7 Sr0 2.827749 1_555
N7 Sr4 2.896737 1_545
N8 Re4 1.916794 1_555
N8 Re1 1.926814 1_556
N8 Sr3 2.825370 1_566
N8 Sr2 2.895328 1_555
N8 Sr0 3.042430 1_455
N9 Re5 1.916794 1_555
N9 Re0 1.926814 1_554
N9 Sr2 2.825370 1_544
N9 Sr3 2.895328 1_555
N9 Sr1 3.042430 1_655
