# generated using pymatgen
data_HgSb2F13
_symmetry_space_group_name_H-M   'P 1'
_cell_length_a   9.99119300
_cell_length_b   9.91464200
_cell_length_c   11.23743668
_cell_angle_alpha   68.78841786
_cell_angle_beta   90.00000000
_cell_angle_gamma   90.00000000
_symmetry_Int_Tables_number   1
_chemical_formula_structural   HgSb2F13
_chemical_formula_sum   'Hg4 Sb8 F52'
_cell_volume   1037.75384829
_cell_formula_units_Z   4
loop_
 _symmetry_equiv_pos_site_id
 _symmetry_equiv_pos_as_xyz
  1  'x, y, z'
loop_
 _atom_site_type_symbol
 _atom_site_label
 _atom_site_symmetry_multiplicity
 _atom_site_fract_x
 _atom_site_fract_y
 _atom_site_fract_z
 _atom_site_occupancy
  Hg  Hg0  1  0.09013300  0.48107400  0.75996000  1
  Hg  Hg1  1  0.59013300  0.01892600  0.24004000  1
  Hg  Hg2  1  0.90986700  0.51892600  0.24004000  1
  Hg  Hg3  1  0.40986700  0.98107400  0.75996000  1
  Sb  Sb0  1  0.41688700  0.73107000  0.58511100  1
  Sb  Sb1  1  0.91688700  0.76893000  0.41488900  1
  Sb  Sb2  1  0.58311300  0.26893000  0.41488900  1
  Sb  Sb3  1  0.08311300  0.23107000  0.58511100  1
  Sb  Sb4  1  0.26939800  0.11793000  0.05466900  1
  Sb  Sb5  1  0.76939800  0.38207000  0.94533100  1
  Sb  Sb6  1  0.73060200  0.88207000  0.94533100  1
  Sb  Sb7  1  0.23060200  0.61793000  0.05466900  1
  F  F0  1  0.04448400  0.73511000  0.74362700  1
  F  F1  1  0.54448400  0.76489000  0.25637300  1
  F  F2  1  0.95551600  0.26489000  0.25637300  1
  F  F3  1  0.45551600  0.23511000  0.74362700  1
  F  F4  1  0.98619700  0.28231900  0.71354500  1
  F  F5  1  0.48619700  0.21768100  0.28645500  1
  F  F6  1  0.01380300  0.71768100  0.28645500  1
  F  F7  1  0.51380300  0.78231900  0.71354500  1
  F  F8  1  0.30865200  0.58906200  0.71711100  1
  F  F9  1  0.80865200  0.91093800  0.28288900  1
  F  F10  1  0.69134800  0.41093800  0.28288900  1
  F  F11  1  0.19134800  0.08906200  0.71711100  1
  F  F12  1  0.20380400  0.37834900  0.59705500  1
  F  F13  1  0.70380400  0.12165100  0.40294500  1
  F  F14  1  0.79619600  0.62165100  0.40294500  1
  F  F15  1  0.29619600  0.87834900  0.59705500  1
  F  F16  1  0.02025600  0.62212100  0.54439000  1
  F  F17  1  0.52025600  0.87787900  0.45561000  1
  F  F18  1  0.97974400  0.37787900  0.45561000  1
  F  F19  1  0.47974400  0.12212100  0.54439000  1
  F  F20  1  0.54499100  0.58694000  0.59688700  1
  F  F21  1  0.04499100  0.91306000  0.40311300  1
  F  F22  1  0.45500900  0.41306000  0.40311300  1
  F  F23  1  0.95500900  0.08694000  0.59688700  1
  F  F24  1  0.31227300  0.70003400  0.45711700  1
  F  F25  1  0.81227300  0.79996600  0.54288300  1
  F  F26  1  0.68772700  0.29996600  0.54288300  1
  F  F27  1  0.18772700  0.20003400  0.45711700  1
  F  F28  1  0.20581900  0.25933400  0.89461700  1
  F  F29  1  0.70581900  0.24066600  0.10538300  1
  F  F30  1  0.79418100  0.74066600  0.10538300  1
  F  F31  1  0.29418100  0.75933400  0.89461700  1
  F  F32  1  0.85688700  0.51725600  0.79206200  1
  F  F33  1  0.35688700  0.98274400  0.20793800  1
  F  F34  1  0.14311300  0.48274400  0.20793800  1
  F  F35  1  0.64311300  0.01725600  0.79206200  1
  F  F36  1  0.19485300  0.22246700  0.15272200  1
  F  F37  1  0.69485300  0.27753300  0.84727800  1
  F  F38  1  0.80514700  0.77753300  0.84727800  1
  F  F39  1  0.30514700  0.72246700  0.15272200  1
  F  F40  1  0.43448700  0.22098400  0.03235900  1
  F  F41  1  0.93448700  0.27901600  0.96764100  1
  F  F42  1  0.56551300  0.77901600  0.96764100  1
  F  F43  1  0.06551300  0.72098400  0.03235900  1
  F  F44  1  0.11503400  0.00173800  0.08002800  1
  F  F45  1  0.61503400  0.49826200  0.91997200  1
  F  F46  1  0.88496600  0.99826200  0.91997200  1
  F  F47  1  0.38496600  0.50173800  0.08002800  1
  F  F48  1  0.15331700  0.50941200  0.95770800  1
  F  F49  1  0.65331700  0.99058800  0.04229200  1
  F  F50  1  0.84668300  0.49058800  0.04229200  1
  F  F51  1  0.34668300  0.00941200  0.95770800  1
loop_
_geom_bond_atom_site_label_1
_geom_bond_atom_site_label_2
_geom_bond_distance
_geom_bond_site_symmetry_2
F0 Hg0 2.500183 1_555
F1 Hg1 2.500183 1_565
F2 Hg2 2.500183 1_555
F3 Hg3 2.500183 1_545
F4 Sb3 1.951792 1_655
F4 Hg0 2.444869 1_655
F5 Sb2 1.951792 1_555
F5 Hg1 2.444869 1_555
F6 Sb1 1.951792 1_455
F6 Hg2 2.444869 1_455
F7 Sb0 1.951792 1_555
F7 Hg3 2.444869 1_555
F8 Sb0 1.959793 1_555
F8 Hg0 2.402450 1_555
F9 Sb1 1.959793 1_555
F9 Hg1 2.402450 1_565
F10 Sb2 1.959793 1_555
F10 Hg2 2.402450 1_555
F11 Sb3 1.959793 1_555
F11 Hg3 2.402450 1_545
F12 Sb3 1.935496 1_555
F13 Sb2 1.935496 1_555
F14 Sb1 1.935496 1_555
F15 Sb0 1.935496 1_555
F16 Sb1 1.941718 1_455
F16 Hg0 2.420730 1_555
F17 Sb0 1.941718 1_555
F17 Hg1 2.420730 1_565
F18 Sb3 1.941718 1_655
F18 Hg2 2.420730 1_555
F19 Sb2 1.941718 1_555
F19 Hg3 2.420730 1_545
F20 Sb0 1.887029 1_555
F21 Sb1 1.887029 1_455
F22 Sb2 1.887029 1_555
F23 Sb3 1.887029 1_655
F24 Sb0 1.891088 1_555
F25 Sb1 1.891088 1_555
F26 Sb2 1.891088 1_555
F27 Sb3 1.891088 1_555
F28 Sb4 1.944029 1_556
F28 Hg0 2.460024 1_555
F29 Sb5 1.944029 1_554
F29 Hg1 2.460024 1_555
F30 Sb6 1.944029 1_554
F30 Hg2 2.460024 1_555
F31 Sb7 1.944029 1_556
F31 Hg3 2.460024 1_555
F32 Sb5 1.963809 1_555
F32 Hg0 2.404841 1_655
F33 Sb4 1.963809 1_565
F33 Hg1 2.404841 1_565
F34 Sb7 1.963809 1_555
F34 Hg2 2.404841 1_455
F35 Sb6 1.963809 1_545
F35 Hg3 2.404841 1_545
F36 Sb4 1.915579 1_555
F37 Sb5 1.915579 1_555
F38 Sb6 1.915579 1_555
F39 Sb7 1.915579 1_555
F40 Sb4 1.908426 1_555
F41 Sb5 1.908426 1_555
F42 Sb6 1.908426 1_555
F43 Sb7 1.908426 1_555
F44 Sb4 1.883982 1_555
F45 Sb5 1.883982 1_555
F46 Sb6 1.883982 1_555
F47 Sb7 1.883982 1_555
F48 Sb7 1.946631 1_556
F48 Hg0 2.422259 1_555
F49 Sb6 1.946631 1_554
F49 Hg1 2.422259 1_565
F50 Sb5 1.946631 1_554
F50 Hg2 2.422259 1_555
F51 Sb4 1.946631 1_556
F51 Hg3 2.422259 1_545
