# generated using pymatgen
data_H6PbC10N8O7
_symmetry_space_group_name_H-M   'P 1'
_cell_length_a   7.41522037
_cell_length_b   8.65575207
_cell_length_c   12.12270041
_cell_angle_alpha   88.40818236
_cell_angle_beta   82.30305342
_cell_angle_gamma   90.43510104
_symmetry_Int_Tables_number   1
_chemical_formula_structural   H6PbC10N8O7
_chemical_formula_sum   'H12 Pb2 C20 N16 O14'
_cell_volume   770.72900629
_cell_formula_units_Z   2
loop_
 _symmetry_equiv_pos_site_id
 _symmetry_equiv_pos_as_xyz
  1  'x, y, z'
loop_
 _atom_site_type_symbol
 _atom_site_label
 _atom_site_symmetry_multiplicity
 _atom_site_fract_x
 _atom_site_fract_y
 _atom_site_fract_z
 _atom_site_occupancy
  H  H0  1  0.90202600  0.14061400  0.84140500  1
  H  H1  1  0.09797400  0.85938600  0.15859500  1
  H  H2  1  0.11679400  0.15953900  0.42558600  1
  H  H3  1  0.88320600  0.84046100  0.57441400  1
  H  H4  1  0.28857900  0.58540000  0.52951000  1
  H  H5  1  0.71142100  0.41460000  0.47049000  1
  H  H6  1  0.24889900  0.18068700  0.04257200  1
  H  H7  1  0.75110100  0.81931300  0.95742800  1
  H  H8  1  0.60661600  0.38231300  0.68492200  1
  H  H9  1  0.39338400  0.61768700  0.31507800  1
  H  H10  1  0.44370500  0.94112200  0.60139500  1
  H  H11  1  0.55629500  0.05887800  0.39860500  1
  Pb  Pb0  1  0.19412000  0.64825700  0.90530100  1
  Pb  Pb1  1  0.80588000  0.35174300  0.09469900  1
  C  C0  1  0.99088800  0.14888500  0.66905700  1
  C  C1  1  0.00911200  0.85111500  0.33094300  1
  C  C2  1  0.23386500  0.38569600  0.43878800  1
  C  C3  1  0.76613500  0.61430400  0.56121200  1
  C  C4  1  0.02454200  0.35445900  0.80536000  1
  C  C5  1  0.97545800  0.64554100  0.19464000  1
  C  C6  1  0.14756500  0.39771400  0.62546100  1
  C  C7  1  0.85243500  0.60228600  0.37453900  1
  C  C8  1  0.08938500  0.25447300  0.58994400  1
  C  C9  1  0.91061500  0.74552700  0.41005600  1
  C  C10  1  0.28720900  0.99173000  0.93864700  1
  C  C11  1  0.71279100  0.00827000  0.06135300  1
  C  C12  1  0.42318900  0.04552400  0.76181900  1
  C  C13  1  0.57681100  0.95447600  0.23818100  1
  C  C14  1  0.47644400  0.19526700  0.78879900  1
  C  C15  1  0.52355600  0.80473300  0.21120100  1
  C  C16  1  0.42726000  0.24920800  0.89932400  1
  C  C17  1  0.57274000  0.75079200  0.10067600  1
  C  C18  1  0.55191500  0.17119200  0.60468600  1
  C  C19  1  0.44808500  0.82880800  0.39531400  1
  N  N0  1  0.96732000  0.20965800  0.77694900  1
  N  N1  1  0.03268000  0.79034200  0.22305100  1
  N  N2  1  0.12173500  0.44983300  0.72836600  1
  N  N3  1  0.87826500  0.55016700  0.27163400  1
  N  N4  1  0.14269900  0.24899100  0.47609100  1
  N  N5  1  0.85730100  0.75100900  0.52390900  1
  N  N6  1  0.23420200  0.47550000  0.53285000  1
  N  N7  1  0.76579800  0.52450000  0.46715000  1
  N  N8  1  0.32582600  0.13924500  0.96867500  1
  N  N9  1  0.67417400  0.86075500  0.03132500  1
  N  N10  1  0.33836500  0.94152000  0.83260900  1
  N  N11  1  0.66163500  0.05848000  0.16739100  1
  N  N12  1  0.55715400  0.26872300  0.69331300  1
  N  N13  1  0.44284600  0.73127700  0.30668700  1
  N  N14  1  0.47201800  0.03336300  0.64888400  1
  N  N15  1  0.52798200  0.96663700  0.35111600  1
  O  O0  1  0.98902300  0.39956600  0.90476600  1
  O  O1  1  0.01097700  0.60043400  0.09523400  1
  O  O2  1  0.92758900  0.01921700  0.65135200  1
  O  O3  1  0.07241100  0.98078300  0.34864800  1
  O  O4  1  0.30239600  0.42382100  0.34280100  1
  O  O5  1  0.69760400  0.57617900  0.65719900  1
  O  O6  1  0.20125600  0.89888100  0.01029300  1
  O  O7  1  0.79874400  0.10111900  0.98970700  1
  O  O8  1  0.46383400  0.37918600  0.93177000  1
  O  O9  1  0.53616600  0.62081400  0.06823000  1
  O  O10  1  0.60557200  0.20335600  0.50431300  1
  O  O11  1  0.39442800  0.79664400  0.49568700  1
  O  O12  1  0.93214800  0.76125600  0.86752100  1
  O  O13  1  0.06785200  0.23874400  0.13247900  1
loop_
_geom_bond_atom_site_label_1
_geom_bond_atom_site_label_2
_geom_bond_distance
_geom_bond_site_symmetry_2
H0 N0 1.034629 1_555
H1 N1 1.034629 1_555
H2 N4 1.032880 1_555
H3 N5 1.032880 1_555
H4 N6 1.028005 1_555
H5 N7 1.028005 1_555
H6 N8 1.068016 1_554
H6 O13 1.700439 1_555
H7 N9 1.068016 1_556
H7 O12 1.700439 1_555
H8 N12 1.044288 1_555
H9 N13 1.044288 1_555
H10 N14 1.033603 1_565
H11 N15 1.033603 1_545
C0 O2 1.248388 1_555
C0 N0 1.412927 1_555
C0 C8 1.429012 1_655
C1 O3 1.248388 1_555
C1 N1 1.412927 1_555
C1 C9 1.429012 1_455
C2 O4 1.240516 1_555
C2 N4 1.392082 1_555
C2 N6 1.398021 1_555
C3 O5 1.240516 1_555
C3 N5 1.392082 1_555
C3 N7 1.398021 1_555
C4 O0 1.271489 1_455
C4 N2 1.356495 1_555
C4 N0 1.387312 1_455
C5 O1 1.271489 1_655
C5 N3 1.356495 1_555
C5 N1 1.387312 1_655
C6 N2 1.328534 1_555
C6 N6 1.372853 1_555
C6 C8 1.407141 1_555
C7 N3 1.328534 1_555
C7 N7 1.372853 1_555
C7 C9 1.407141 1_555
C8 N4 1.386100 1_555
C9 N5 1.386100 1_555
C10 O6 1.269507 1_556
C10 N10 1.374091 1_555
C10 N8 1.375884 1_565
C11 O7 1.269507 1_554
C11 N11 1.374091 1_555
C11 N9 1.375884 1_545
C12 N10 1.321509 1_545
C12 N14 1.375628 1_555
C12 C14 1.411832 1_555
C13 N11 1.321509 1_565
C13 N15 1.375628 1_555
C13 C15 1.411832 1_555
C14 N12 1.367524 1_555
C14 C16 1.432719 1_555
C15 N13 1.367524 1_555
C15 C17 1.432719 1_555
C16 O8 1.241991 1_555
C16 N8 1.397777 1_555
C17 O9 1.241991 1_555
C17 N9 1.397777 1_555
C18 O10 1.251484 1_555
C18 N12 1.389099 1_555
C18 N14 1.389275 1_555
C19 O11 1.251484 1_555
C19 N13 1.389099 1_555
C19 N15 1.389275 1_555
O0 Pb1 2.533390 1_556
O0 Pb0 2.626863 1_655
O1 Pb0 2.533390 1_554
O1 Pb1 2.626863 1_455
O6 Pb0 2.549219 1_554
O7 Pb1 2.549219 1_556
O12 Pb0 2.276473 1_655
O13 Pb1 2.276473 1_455
