# generated using pymatgen
data_AuCl
_symmetry_space_group_name_H-M   'P 1'
_cell_length_a   4.26902603
_cell_length_b   4.26902603
_cell_length_c   6.95954500
_cell_angle_alpha   90.00000000
_cell_angle_beta   90.00000000
_cell_angle_gamma   120.00000046
_symmetry_Int_Tables_number   1
_chemical_formula_structural   AuCl
_chemical_formula_sum   'Au2 Cl2'
_cell_volume   109.84216460
_cell_formula_units_Z   2
loop_
 _symmetry_equiv_pos_site_id
 _symmetry_equiv_pos_as_xyz
  1  'x, y, z'
loop_
 _atom_site_type_symbol
 _atom_site_label
 _atom_site_symmetry_multiplicity
 _atom_site_fract_x
 _atom_site_fract_y
 _atom_site_fract_z
 _atom_site_occupancy
  Au  Au0  1  0.66666700  0.33333300  0.49982900  1
  Au  Au1  1  0.33333300  0.66666700  0.99982900  1
  Cl  Cl0  1  0.66666700  0.33333300  0.87516900  1
  Cl  Cl1  1  0.33333300  0.66666700  0.37516900  1
loop_
_geom_bond_atom_site_label_1
_geom_bond_atom_site_label_2
_geom_bond_distance
_geom_bond_site_symmetry_2
Au0 Cl0 2.612196 1_555
Au0 Cl1 2.612956 1_545
Au0 Cl1 2.612956 1_655
Au0 Cl1 2.612963 1_555
Au1 Cl1 2.612196 1_556
Au1 Cl0 2.612956 1_455
Au1 Cl0 2.612956 1_565
Au1 Cl0 2.612963 1_555
