# generated using pymatgen
data_Ce2Ni3Ge5
_symmetry_space_group_name_H-M   'P 1'
_cell_length_a   8.18416497
_cell_length_b   8.18416497
_cell_length_c   8.18416497
_cell_angle_alpha   137.43973174
_cell_angle_beta   106.93903900
_cell_angle_gamma   88.40007392
_symmetry_Int_Tables_number   1
_chemical_formula_structural   Ce2Ni3Ge5
_chemical_formula_sum   'Ce4 Ni6 Ge10'
_cell_volume   339.60039016
_cell_formula_units_Z   2
loop_
 _symmetry_equiv_pos_site_id
 _symmetry_equiv_pos_as_xyz
  1  'x, y, z'
loop_
 _atom_site_type_symbol
 _atom_site_label
 _atom_site_symmetry_multiplicity
 _atom_site_fract_x
 _atom_site_fract_y
 _atom_site_fract_z
 _atom_site_occupancy
  Ce  Ce0  1  0.63514200  0.36831600  0.26682600  1
  Ce  Ce1  1  0.36485800  0.63168400  0.73317400  1
  Ce  Ce2  1  0.10149000  0.86831600  0.23317400  1
  Ce  Ce3  1  0.89851000  0.13168400  0.76682600  1
  Ni  Ni0  1  0.24783800  0.13809800  0.10974000  1
  Ni  Ni1  1  0.75216200  0.86190200  0.89026000  1
  Ni  Ni2  1  0.02835700  0.63809800  0.39026000  1
  Ni  Ni3  1  0.97164300  0.36190200  0.60974000  1
  Ni  Ni4  1  0.50000000  0.25000000  0.75000000  1
  Ni  Ni5  1  0.50000000  0.75000000  0.25000000  1
  Ge  Ge0  1  0.26900700  0.51900700  0.25000000  1
  Ge  Ge1  1  0.73099300  0.48099300  0.75000000  1
  Ge  Ge2  1  0.73099300  0.98099300  0.25000000  1
  Ge  Ge3  1  0.26900700  0.01900700  0.75000000  1
  Ge  Ge4  1  0.44490800  0.10087100  0.34403600  1
  Ge  Ge5  1  0.55509200  0.89912900  0.65596400  1
  Ge  Ge6  1  0.75683500  0.60087100  0.15596400  1
  Ge  Ge7  1  0.24316500  0.39912900  0.84403600  1
  Ge  Ge8  1  0.00000000  0.25000000  0.25000000  1
  Ge  Ge9  1  0.00000000  0.75000000  0.75000000  1
loop_
_geom_bond_atom_site_label_1
_geom_bond_atom_site_label_2
_geom_bond_distance
_geom_bond_site_symmetry_2
Ce0 Ge6 2.934941 1_555
Ce0 Ni0 3.104953 1_555
Ce0 Ge8 3.123277 1_655
Ce0 Ge9 3.123277 1_655
Ce0 Ge2 3.156540 1_545
Ce0 Ge1 3.156540 1_555
Ce0 Ge5 3.181184 1_544
Ce0 Ge5 3.181190 1_555
Ce0 Ni1 3.205386 1_544
Ce0 Ni1 3.205386 1_555
Ce0 Ge3 3.212847 1_554
Ce0 Ge0 3.212847 1_555
Ce0 Ge4 3.227264 1_555
Ce0 Ni3 3.341951 1_555
Ce0 Ni5 3.369298 1_555
Ce0 Ni4 3.369298 1_554
Ce0 Ni2 3.386523 1_655
Ce1 Ge7 2.934941 1_555
Ce1 Ni1 3.104953 1_555
Ce1 Ge9 3.123277 1_555
Ce1 Ge8 3.123277 1_555
Ce1 Ge3 3.156540 1_565
Ce1 Ge0 3.156540 1_555
Ce1 Ge4 3.181184 1_566
Ce1 Ge4 3.181190 1_555
Ce1 Ni0 3.205386 1_566
Ce1 Ni0 3.205386 1_555
Ce1 Ge2 3.212847 1_556
Ce1 Ge1 3.212847 1_555
Ce1 Ge5 3.227264 1_555
Ce1 Ni2 3.341951 1_555
Ce1 Ni5 3.369298 1_556
Ce1 Ni4 3.369298 1_555
Ce1 Ni3 3.386523 1_455
Ce2 Ge4 2.934948 1_565
Ce2 Ni2 3.104956 1_555
Ce2 Ge9 3.123277 1_554
Ce2 Ge8 3.123277 1_565
Ce2 Ge1 3.156540 1_454
Ce2 Ge2 3.156540 1_455
Ce2 Ge7 3.181186 1_565
Ce2 Ge7 3.181186 1_554
Ce2 Ni3 3.205381 1_465
Ce2 Ni3 3.205386 1_454
Ce2 Ge0 3.212847 1_555
Ce2 Ge3 3.212847 1_565
Ce2 Ge6 3.227268 1_455
Ce2 Ni1 3.341946 1_454
Ce2 Ni5 3.369298 1_555
Ce2 Ni4 3.369298 1_565
Ce2 Ni0 3.386531 1_565
Ce3 Ge5 2.934948 1_545
Ce3 Ni3 3.104956 1_555
Ce3 Ge8 3.123277 1_656
Ce3 Ge9 3.123277 1_645
Ce3 Ge3 3.156540 1_655
Ce3 Ge0 3.156540 1_656
Ce3 Ge6 3.181186 1_545
Ce3 Ge6 3.181186 1_556
Ce3 Ni2 3.205381 1_645
Ce3 Ni2 3.205386 1_656
Ce3 Ge1 3.212847 1_555
Ce3 Ge2 3.212847 1_545
Ce3 Ge7 3.227268 1_655
Ce3 Ni0 3.341946 1_656
Ce3 Ni5 3.369298 1_545
Ce3 Ni4 3.369298 1_555
Ce3 Ni1 3.386531 1_545
Ge0 Ni0 2.389282 1_555
Ge0 Ni2 2.389290 1_555
Ge0 Ge5 2.616542 1_555
Ge0 Ge7 2.616546 1_554
Ge0 Ni5 2.710616 1_555
Ge1 Ni1 2.389282 1_555
Ge1 Ni3 2.389290 1_555
Ge1 Ge4 2.616542 1_555
Ge1 Ge6 2.616546 1_556
Ge1 Ni4 2.710616 1_555
Ge2 Ni1 2.389282 1_554
Ge2 Ni3 2.389286 1_565
Ge2 Ge4 2.616538 1_565
Ge2 Ge6 2.616546 1_555
Ge2 Ni5 2.710616 1_555
Ge3 Ni0 2.389282 1_556
Ge3 Ni2 2.389286 1_545
Ge3 Ge5 2.616538 1_545
Ge3 Ge7 2.616546 1_555
Ge3 Ni4 2.710616 1_555
Ge4 Ni0 2.324231 1_555
Ge4 Ni5 2.432260 1_545
Ge4 Ni4 2.432263 1_555
Ge5 Ni1 2.324231 1_555
Ge5 Ni4 2.432260 1_565
Ge5 Ni5 2.432263 1_555
Ge6 Ni2 2.324222 1_655
Ge6 Ni4 2.432262 1_554
Ge6 Ni5 2.432262 1_555
Ge7 Ni3 2.324222 1_455
Ge7 Ni4 2.432262 1_555
Ge7 Ni5 2.432262 1_556
Ge8 Ni3 2.444371 1_455
Ge8 Ni0 2.444375 1_555
Ge8 Ni1 2.444375 1_444
Ge8 Ni2 2.444375 1_555
Ge9 Ni2 2.444371 1_555
Ge9 Ni0 2.444375 1_566
Ge9 Ni1 2.444375 1_455
Ge9 Ni3 2.444375 1_455
