# generated using pymatgen
data_MnMoO4
_symmetry_space_group_name_H-M   'P 1'
_cell_length_a   4.74900007
_cell_length_b   4.95146738
_cell_length_c   5.72949173
_cell_angle_alpha   89.99997816
_cell_angle_beta   89.99995619
_cell_angle_gamma   90.59154640
_symmetry_Int_Tables_number   1
_chemical_formula_structural   MnMoO4
_chemical_formula_sum   'Mn2 Mo2 O8'
_cell_volume   134.71906128
_cell_formula_units_Z   2
loop_
 _symmetry_equiv_pos_site_id
 _symmetry_equiv_pos_as_xyz
  1  'x, y, z'
loop_
 _atom_site_type_symbol
 _atom_site_label
 _atom_site_symmetry_multiplicity
 _atom_site_fract_x
 _atom_site_fract_y
 _atom_site_fract_z
 _atom_site_occupancy
  Mn  Mn0  1  0.00000560  0.25000945  0.18199632  1
  Mn  Mn1  1  0.00000560  0.75001045  0.81800368  1
  Mo  Mo0  1  0.49999791  0.75000712  0.31478383  1
  Mo  Mo1  1  0.49999891  0.25000712  0.68521617  1
  O  O0  1  0.71537263  0.44235026  0.39424258  1
  O  O1  1  0.28461190  0.05763828  0.39424451  1
  O  O2  1  0.28461190  0.55763928  0.60575549  1
  O  O3  1  0.71537263  0.94235026  0.60575742  1
  O  O4  1  0.75487349  0.39944163  0.87680221  1
  O  O5  1  0.24513847  0.10055226  0.87680896  1
  O  O6  1  0.24513847  0.60055226  0.12319104  1
  O  O7  1  0.75487249  0.89944063  0.12319779  1
loop_
_geom_bond_atom_site_label_1
_geom_bond_atom_site_label_2
_geom_bond_distance
_geom_bond_site_symmetry_2
Mn0 O1 2.059011 1_555
Mn0 O0 2.059017 1_455
Mn0 O6 2.107052 1_555
Mn0 O7 2.107152 1_445
Mn0 O4 2.231162 1_454
Mn0 O5 2.231174 1_554
Mn1 O2 2.059010 1_555
Mn1 O3 2.059015 1_455
Mn1 O5 2.107048 1_565
Mn1 O4 2.107149 1_455
Mn1 O7 2.231160 1_456
Mn1 O6 2.231177 1_556
Mo0 O7 1.788567 1_555
Mo0 O6 1.788586 1_555
Mo0 O1 1.898925 1_565
Mo0 O0 1.898996 1_555
Mo0 O3 2.170805 1_555
Mo0 O2 2.170873 1_555
Mo1 O4 1.788570 1_555
Mo1 O5 1.788588 1_555
Mo1 O2 1.898932 1_555
Mo1 O3 1.898993 1_545
Mo1 O0 2.170801 1_555
Mo1 O1 2.170879 1_555
