# generated using pymatgen
data_HoSbMo2O9
_symmetry_space_group_name_H-M   'P 1'
_cell_length_a   9.67303360
_cell_length_b   9.67303360
_cell_length_c   10.82040515
_cell_angle_alpha   68.04775064
_cell_angle_beta   68.04775064
_cell_angle_gamma   95.19925647
_symmetry_Int_Tables_number   1
_chemical_formula_structural   HoSbMo2O9
_chemical_formula_sum   'Ho4 Sb4 Mo8 O36'
_cell_volume   839.13812635
_cell_formula_units_Z   4
loop_
 _symmetry_equiv_pos_site_id
 _symmetry_equiv_pos_as_xyz
  1  'x, y, z'
loop_
 _atom_site_type_symbol
 _atom_site_label
 _atom_site_symmetry_multiplicity
 _atom_site_fract_x
 _atom_site_fract_y
 _atom_site_fract_z
 _atom_site_occupancy
  Ho  Ho0  1  0.67098900  0.32901100  0.75000000  1
  Ho  Ho1  1  0.32901100  0.67098900  0.25000000  1
  Ho  Ho2  1  0.12572200  0.87427800  0.75000000  1
  Ho  Ho3  1  0.87427800  0.12572200  0.25000000  1
  Sb  Sb0  1  0.65203300  0.61783100  0.96531300  1
  Sb  Sb1  1  0.38216900  0.34796700  0.53468700  1
  Sb  Sb2  1  0.34796700  0.38216900  0.03468700  1
  Sb  Sb3  1  0.61783100  0.65203300  0.46531300  1
  Mo  Mo0  1  0.04616700  0.25980900  0.47407200  1
  Mo  Mo1  1  0.74019100  0.95383300  0.02592800  1
  Mo  Mo2  1  0.95383300  0.74019100  0.52592800  1
  Mo  Mo3  1  0.25980900  0.04616700  0.97407200  1
  Mo  Mo4  1  0.05779300  0.43411500  0.80627600  1
  Mo  Mo5  1  0.56588500  0.94220700  0.69372400  1
  Mo  Mo6  1  0.94220700  0.56588500  0.19372400  1
  Mo  Mo7  1  0.43411500  0.05779300  0.30627600  1
  O  O0  1  0.06662900  0.09515200  0.60243900  1
  O  O1  1  0.90484800  0.93337100  0.89756100  1
  O  O2  1  0.93337100  0.90484800  0.39756100  1
  O  O3  1  0.09515200  0.06662900  0.10243900  1
  O  O4  1  0.86899600  0.29847900  0.56797500  1
  O  O5  1  0.70152100  0.13100400  0.93202500  1
  O  O6  1  0.13100400  0.70152100  0.43202500  1
  O  O7  1  0.29847900  0.86899600  0.06797500  1
  O  O8  1  0.04306000  0.22041500  0.32499000  1
  O  O9  1  0.77958500  0.95694000  0.17501000  1
  O  O10  1  0.95694000  0.77958500  0.67501000  1
  O  O11  1  0.22041500  0.04306000  0.82499000  1
  O  O12  1  0.77761700  0.59457900  0.57946600  1
  O  O13  1  0.40542100  0.22238300  0.92053400  1
  O  O14  1  0.22238300  0.40542100  0.42053400  1
  O  O15  1  0.59457900  0.77761700  0.07946600  1
  O  O16  1  0.97739200  0.30384200  0.99830400  1
  O  O17  1  0.69615800  0.02260800  0.50169600  1
  O  O18  1  0.02260800  0.69615800  0.00169600  1
  O  O19  1  0.30384200  0.97739200  0.49830400  1
  O  O20  1  0.14529300  0.62099500  0.77352800  1
  O  O21  1  0.37900500  0.85470700  0.72647200  1
  O  O22  1  0.85470700  0.37900500  0.22647200  1
  O  O23  1  0.62099500  0.14529300  0.27352800  1
  O  O24  1  0.90689800  0.44557300  0.74883400  1
  O  O25  1  0.55442700  0.09310200  0.75116600  1
  O  O26  1  0.09310200  0.55442700  0.25116600  1
  O  O27  1  0.44557300  0.90689800  0.24883400  1
  O  O28  1  0.20866400  0.36370700  0.70131000  1
  O  O29  1  0.63629300  0.79133600  0.79869000  1
  O  O30  1  0.79133600  0.63629300  0.29869000  1
  O  O31  1  0.36370700  0.20866400  0.20131000  1
  O  O32  1  0.57660700  0.45969200  0.89788600  1
  O  O33  1  0.54030800  0.42339300  0.60211400  1
  O  O34  1  0.42339300  0.54030800  0.10211400  1
  O  O35  1  0.45969200  0.57660700  0.39788600  1
loop_
_geom_bond_atom_site_label_1
_geom_bond_atom_site_label_2
_geom_bond_distance
_geom_bond_site_symmetry_2
Ho0 O5 2.313417 1_555
Ho0 O4 2.313417 1_555
Ho0 O13 2.370759 1_555
Ho0 O12 2.370759 1_555
Ho0 O33 2.370915 1_555
Ho0 O32 2.370915 1_555
Ho0 O24 2.445461 1_555
Ho0 O25 2.445461 1_555
Ho1 O6 2.313417 1_555
Ho1 O7 2.313417 1_555
Ho1 O14 2.370759 1_555
Ho1 O15 2.370759 1_555
Ho1 O34 2.370915 1_555
Ho1 O35 2.370915 1_555
Ho1 O27 2.445461 1_555
Ho1 O26 2.445461 1_555
Ho2 O10 2.331960 1_455
Ho2 O11 2.331960 1_565
Ho2 O18 2.351559 1_556
Ho2 O19 2.351559 1_555
Ho2 O21 2.399370 1_555
Ho2 O20 2.399370 1_555
Ho2 O0 2.407072 1_565
Ho2 O1 2.407072 1_455
Ho3 O9 2.331960 1_545
Ho3 O8 2.331960 1_655
Ho3 O16 2.351559 1_554
Ho3 O17 2.351559 1_555
Ho3 O22 2.399370 1_555
Ho3 O23 2.399370 1_555
Ho3 O3 2.407072 1_655
Ho3 O2 2.407072 1_545
Mo0 O0 1.764620 1_555
Mo0 O4 1.791027 1_455
Mo0 O8 1.800570 1_555
Mo0 O14 1.855124 1_555
Mo1 O1 1.764620 1_554
Mo1 O5 1.791027 1_564
Mo1 O9 1.800570 1_555
Mo1 O15 1.855124 1_555
Mo2 O2 1.764620 1_555
Mo2 O6 1.791027 1_655
Mo2 O10 1.800570 1_555
Mo2 O12 1.855124 1_555
Mo3 O3 1.764620 1_556
Mo3 O7 1.791027 1_546
Mo3 O11 1.800570 1_555
Mo3 O13 1.855124 1_555
Mo4 O20 1.768968 1_555
Mo4 O16 1.779511 1_455
Mo4 O24 1.784708 1_455
Mo4 O28 1.844673 1_555
Mo5 O21 1.768968 1_555
Mo5 O17 1.779511 1_565
Mo5 O25 1.784708 1_565
Mo5 O29 1.844673 1_555
Mo6 O22 1.768968 1_555
Mo6 O18 1.779511 1_655
Mo6 O26 1.784708 1_655
Mo6 O30 1.844673 1_555
Mo7 O23 1.768968 1_555
Mo7 O19 1.779511 1_545
Mo7 O27 1.784708 1_545
Mo7 O31 1.844673 1_555
O12 Sb3 2.300714 1_555
O13 Sb2 2.300714 1_556
O14 Sb1 2.300714 1_555
O15 Sb0 2.300714 1_554
O28 Sb1 2.019821 1_555
O29 Sb0 2.019821 1_555
O30 Sb3 2.019821 1_555
O31 Sb2 2.019821 1_555
O32 Sb2 2.016586 1_556
O32 Sb0 2.105869 1_555
O33 Sb3 2.016586 1_555
O33 Sb1 2.105869 1_555
O34 Sb0 2.016586 1_554
O34 Sb2 2.105869 1_555
O35 Sb1 2.016586 1_555
O35 Sb3 2.105869 1_555
