# generated using pymatgen
data_LaCe2Mn3O9
_symmetry_space_group_name_H-M   'P 1'
_cell_length_a   8.78039076
_cell_length_b   8.78039076
_cell_length_c   3.93755700
_cell_angle_alpha   90.00000000
_cell_angle_beta   90.00000000
_cell_angle_gamma   143.04567134
_symmetry_Int_Tables_number   1
_chemical_formula_structural   LaCe2Mn3O9
_chemical_formula_sum   'La1 Ce2 Mn3 O9'
_cell_volume   182.49786371
_cell_formula_units_Z   1
loop_
 _symmetry_equiv_pos_site_id
 _symmetry_equiv_pos_as_xyz
  1  'x, y, z'
loop_
 _atom_site_type_symbol
 _atom_site_label
 _atom_site_symmetry_multiplicity
 _atom_site_fract_x
 _atom_site_fract_y
 _atom_site_fract_z
 _atom_site_occupancy
  La  La0  1  0.50000000  0.50000000  0.50000000  1
  Ce  Ce0  1  0.83250000  0.16750000  0.50000000  1
  Ce  Ce1  1  0.16750000  0.83250000  0.50000000  1
  Mn  Mn0  1  0.00000000  0.00000000  0.00000000  1
  Mn  Mn1  1  0.33331200  0.66668800  0.00000000  1
  Mn  Mn2  1  0.66668800  0.33331200  0.00000000  1
  O  O0  1  0.83588500  0.66889100  0.00000000  1
  O  O1  1  0.16411500  0.33110900  0.00000000  1
  O  O2  1  0.50000000  0.00000000  0.00000000  1
  O  O3  1  0.66889100  0.83588500  0.00000000  1
  O  O4  1  0.00000000  0.50000000  0.00000000  1
  O  O5  1  0.33110900  0.16411500  0.00000000  1
  O  O6  1  0.33208300  0.66791700  0.50000000  1
  O  O7  1  0.66791700  0.33208300  0.50000000  1
  O  O8  1  0.00000000  0.00000000  0.50000000  1
loop_
_geom_bond_atom_site_label_1
_geom_bond_atom_site_label_2
_geom_bond_distance
_geom_bond_site_symmetry_2
La0 O8 2.782740 1_665
La0 O8 2.782740 1_555
La0 O1 2.789833 1_555
La0 O0 2.789833 1_556
La0 O1 2.789833 1_556
La0 O0 2.789833 1_555
La0 O5 2.789833 1_555
La0 O5 2.789833 1_556
La0 O3 2.789833 1_555
La0 O3 2.789833 1_556
La0 O6 2.796746 1_555
La0 O7 2.796746 1_555
Ce0 O7 2.741216 1_555
Ce0 O2 2.774905 1_555
Ce0 O2 2.774905 1_556
Ce0 O4 2.774905 1_656
Ce0 O4 2.774905 1_655
Ce0 O1 2.780775 1_655
Ce0 O1 2.780775 1_656
Ce0 O3 2.780775 1_546
Ce0 O3 2.780775 1_545
Ce0 O6 2.782749 1_655
Ce0 O6 2.782749 1_545
Ce0 O8 2.789800 1_655
Ce1 O6 2.741216 1_555
Ce1 O4 2.774905 1_556
Ce1 O4 2.774905 1_555
Ce1 O2 2.774905 1_565
Ce1 O2 2.774905 1_566
Ce1 O0 2.780775 1_455
Ce1 O0 2.780775 1_456
Ce1 O5 2.780775 1_565
Ce1 O5 2.780775 1_566
Ce1 O7 2.782749 1_565
Ce1 O7 2.782749 1_455
Ce1 O8 2.789800 1_565
Mn0 O1 1.957833 1_555
Mn0 O0 1.957833 1_445
Mn0 O3 1.957833 1_445
Mn0 O5 1.957833 1_555
Mn0 O8 1.968778 1_555
Mn0 O8 1.968778 1_554
Mn1 O4 1.965034 1_555
Mn1 O2 1.965034 1_565
Mn1 O6 1.968885 1_555
Mn1 O6 1.968885 1_554
Mn1 O1 1.973051 1_555
Mn1 O3 1.973051 1_555
Mn2 O2 1.965034 1_555
Mn2 O4 1.965034 1_655
Mn2 O7 1.968885 1_554
Mn2 O7 1.968885 1_555
Mn2 O5 1.973051 1_555
Mn2 O0 1.973051 1_555
