# generated using pymatgen
data_CaYb4Ti2O10
_symmetry_space_group_name_H-M   'P 1'
_cell_length_a   5.61802111
_cell_length_b   5.81539277
_cell_length_c   8.86970422
_cell_angle_alpha   69.61016369
_cell_angle_beta   104.02016674
_cell_angle_gamma   69.20222840
_symmetry_Int_Tables_number   1
_chemical_formula_structural   CaYb4Ti2O10
_chemical_formula_sum   'Ca1 Yb4 Ti2 O10'
_cell_volume   230.71943673
_cell_formula_units_Z   1
loop_
 _symmetry_equiv_pos_site_id
 _symmetry_equiv_pos_as_xyz
  1  'x, y, z'
loop_
 _atom_site_type_symbol
 _atom_site_label
 _atom_site_symmetry_multiplicity
 _atom_site_fract_x
 _atom_site_fract_y
 _atom_site_fract_z
 _atom_site_occupancy
  Ca  Ca0  1  0.54282800  0.24801800  0.01515000  1
  Yb  Yb0  1  0.67566100  0.74772500  0.73160900  1
  Yb  Yb1  1  0.55641700  0.65573100  0.32745100  1
  Yb  Yb2  1  0.28471400  0.40918400  0.60170300  1
  Yb  Yb3  1  0.25651200  0.26454300  0.26860900  1
  Ti  Ti0  1  0.00590600  0.00372000  0.53024600  1
  Ti  Ti1  1  0.11255800  0.95508100  0.93012200  1
  O  O0  1  0.81704000  0.86753800  0.95658100  1
  O  O1  1  0.31341300  0.82885900  0.47842300  1
  O  O2  1  0.09277200  0.65555600  0.72410200  1
  O  O3  1  0.72115100  0.30907000  0.80491200  1
  O  O4  1  0.36894500  0.57957100  0.10137000  1
  O  O5  1  0.98601300  0.36065700  0.40213600  1
  O  O6  1  0.60620500  0.19910200  0.50624700  1
  O  O7  1  0.23517300  0.02703600  0.74741300  1
  O  O8  1  0.24196400  0.08602200  0.07639100  1
  O  O9  1  0.75147600  0.96258700  0.35110700  1
loop_
_geom_bond_atom_site_label_1
_geom_bond_atom_site_label_2
_geom_bond_distance
_geom_bond_site_symmetry_2
Ca0 O8 2.293165 1_555
Ca0 O3 2.302914 1_554
Ca0 O4 2.304040 1_555
Ca0 O0 2.511368 1_544
Ca0 O9 2.547153 1_545
Ca0 O2 2.644389 1_554
O0 Ti1 1.943287 1_655
O0 Yb0 2.385786 1_555
O1 Ti0 1.921664 1_565
O1 Yb1 2.349400 1_555
O1 Yb2 2.383979 1_555
O1 Yb0 2.402667 1_555
O1 Yb3 2.415779 1_565
O2 Ti0 1.939067 1_565
O2 Yb2 2.224439 1_555
O2 Yb0 2.234161 1_455
O3 Ti1 2.077391 1_645
O3 Yb0 2.301350 1_555
O3 Yb2 2.390244 1_555
O4 Ti1 1.882953 1_554
O4 Yb1 2.292020 1_555
O4 Yb3 2.310358 1_555
O5 Ti0 1.934557 1_655
O5 Yb1 2.168066 1_555
O5 Yb3 2.180508 1_655
O5 Yb2 2.296535 1_655
O6 Ti0 2.041252 1_655
O6 Yb3 2.313198 1_555
O6 Yb2 2.316526 1_555
O6 Yb1 2.442937 1_555
O6 Yb0 2.505330 1_545
O7 Ti1 1.883865 1_545
O7 Ti0 2.119333 1_555
O7 Yb2 2.301900 1_555
O7 Yb0 2.500849 1_545
O8 Ti1 1.848254 1_544
O8 Yb3 2.284143 1_555
O8 Yb1 2.326605 1_545
O9 Ti0 2.008039 1_665
O9 Yb1 2.442845 1_555
O9 Yb3 2.450008 1_565
