# generated using pymatgen
data_KMn(CN)3
_symmetry_space_group_name_H-M   'P 1'
_cell_length_a   7.10045700
_cell_length_b   6.70875500
_cell_length_c   11.80504548
_cell_angle_alpha   55.85498406
_cell_angle_beta   90.00000000
_cell_angle_gamma   90.00000000
_symmetry_Int_Tables_number   1
_chemical_formula_structural   KMn(CN)3
_chemical_formula_sum   'K4 Mn4 C12 N12'
_cell_volume   465.40030620
_cell_formula_units_Z   4
loop_
 _symmetry_equiv_pos_site_id
 _symmetry_equiv_pos_as_xyz
  1  'x, y, z'
loop_
 _atom_site_type_symbol
 _atom_site_label
 _atom_site_symmetry_multiplicity
 _atom_site_fract_x
 _atom_site_fract_y
 _atom_site_fract_z
 _atom_site_occupancy
  K  K0  1  0.56782500  0.27172100  0.74884400  1
  K  K1  1  0.93217500  0.27172100  0.24884400  1
  K  K2  1  0.43217500  0.72827900  0.25115600  1
  K  K3  1  0.06782500  0.72827900  0.75115600  1
  Mn  Mn0  1  0.50000000  0.00000000  0.50000000  1
  Mn  Mn1  1  0.00000000  0.00000000  0.00000000  1
  Mn  Mn2  1  0.00000000  0.50000000  0.50000000  1
  Mn  Mn3  1  0.50000000  0.50000000  0.00000000  1
  C  C0  1  0.84333700  0.25666700  0.97035800  1
  C  C1  1  0.65666300  0.25666700  0.47035800  1
  C  C2  1  0.15666300  0.74333300  0.02964200  1
  C  C3  1  0.34333700  0.74333300  0.52964200  1
  C  C4  1  0.72074900  0.81194800  0.53380900  1
  C  C5  1  0.77925100  0.81194800  0.03380900  1
  C  C6  1  0.27925100  0.18805200  0.46619100  1
  C  C7  1  0.22074900  0.18805200  0.96619100  1
  C  C8  1  0.98665900  0.12525400  0.81002200  1
  C  C9  1  0.51334100  0.12525400  0.31002200  1
  C  C10  1  0.01334100  0.87474600  0.18997800  1
  C  C11  1  0.48665900  0.87474600  0.68997800  1
  N  N0  1  0.26372500  0.59534100  0.04298400  1
  N  N1  1  0.23627500  0.59534100  0.54298400  1
  N  N2  1  0.73627500  0.40465900  0.95701600  1
  N  N3  1  0.76372500  0.40465900  0.45701600  1
  N  N4  1  0.14703900  0.30988000  0.45088500  1
  N  N5  1  0.35296100  0.30988000  0.95088500  1
  N  N6  1  0.85296100  0.69012000  0.54911500  1
  N  N7  1  0.64703900  0.69012000  0.04911500  1
  N  N8  1  0.02122900  0.78026000  0.31021400  1
  N  N9  1  0.47877100  0.78026000  0.81021400  1
  N  N10  1  0.97877100  0.21974000  0.68978600  1
  N  N11  1  0.52122900  0.21974000  0.18978600  1
loop_
_geom_bond_atom_site_label_1
_geom_bond_atom_site_label_2
_geom_bond_distance
_geom_bond_site_symmetry_2
K0 N5 2.960952 1_555
K0 N9 3.018948 1_545
K0 N10 3.065089 1_555
K0 N6 3.179256 1_555
K0 N1 3.199780 1_555
K0 N2 3.274988 1_555
K0 N3 3.339081 1_555
K1 N4 2.960952 1_655
K1 N8 3.018948 1_645
K1 N11 3.065089 1_555
K1 N7 3.179256 1_555
K1 N0 3.199780 1_655
K1 N3 3.274988 1_555
K1 N2 3.339081 1_554
K2 N7 2.960952 1_555
K2 N11 3.018948 1_565
K2 N8 3.065089 1_555
K2 N4 3.179256 1_555
K2 N3 3.199780 1_555
K2 N0 3.274988 1_555
K2 N1 3.339081 1_555
K3 N6 2.960952 1_455
K3 N10 3.018948 1_465
K3 N9 3.065089 1_555
K3 N5 3.179256 1_555
K3 N2 3.199780 1_455
K3 N1 3.274988 1_555
K3 N0 3.339081 1_556
Mn2 N1 1.960991 1_555
Mn2 N3 1.960991 1_455
Mn2 N8 1.961781 1_555
Mn2 N10 1.961781 1_455
Mn2 N4 1.970582 1_555
Mn2 N6 1.970582 1_455
Mn3 N0 1.960991 1_555
Mn3 N2 1.960991 1_554
Mn3 N11 1.961781 1_555
Mn3 N9 1.961781 1_554
Mn3 N7 1.970582 1_555
Mn3 N5 1.970582 1_554
C0 N2 1.188649 1_555
C0 Mn1 1.910086 1_656
C0 K3 3.171193 1_655
C0 K0 3.221618 1_555
C0 K1 3.404223 1_556
C1 N3 1.188649 1_555
C1 Mn0 1.910086 1_555
C1 K2 3.171193 1_555
C1 K1 3.221618 1_555
C1 K0 3.404223 1_555
C2 N0 1.188649 1_555
C2 Mn1 1.910086 1_565
C2 K1 3.171193 1_455
C2 K2 3.221618 1_555
C2 K3 3.404223 1_554
C3 N1 1.188649 1_555
C3 Mn0 1.910086 1_565
C3 K0 3.171193 1_555
C3 K3 3.221618 1_555
C3 K2 3.404223 1_555
C4 N6 1.190021 1_555
C4 Mn0 1.908526 1_565
C4 K0 3.229597 1_555
C4 K3 3.369697 1_655
C4 K1 3.381749 1_565
C5 N7 1.190021 1_555
C5 Mn1 1.908526 1_665
C5 K1 3.229597 1_555
C5 K2 3.369697 1_555
C5 K0 3.381749 1_564
C6 N4 1.190021 1_555
C6 Mn0 1.908526 1_555
C6 K2 3.229597 1_555
C6 K1 3.369697 1_455
C6 K3 3.381749 1_545
C7 N5 1.190021 1_555
C7 Mn1 1.908526 1_556
C7 K3 3.229597 1_555
C7 K0 3.369697 1_555
C7 K2 3.381749 1_546
C8 N10 1.187266 1_555
C8 Mn1 1.905054 1_656
C8 K0 3.087819 1_555
C8 K3 3.159951 1_645
C9 N11 1.187266 1_555
C9 Mn0 1.905054 1_555
C9 K1 3.087819 1_555
C9 K2 3.159951 1_545
C10 N8 1.187266 1_555
C10 Mn1 1.905054 1_565
C10 K2 3.087819 1_555
C10 K1 3.159951 1_465
C11 N9 1.187266 1_555
C11 Mn0 1.905054 1_565
C11 K3 3.087819 1_555
C11 K0 3.159951 1_565
