# generated using pymatgen
data_Li9Mn2Co5O16
_symmetry_space_group_name_H-M   'P 1'
_cell_length_a   3.02282500
_cell_length_b   7.79535792
_cell_length_c   12.49609157
_cell_angle_alpha   89.40139223
_cell_angle_beta   89.78653119
_cell_angle_gamma   82.32925312
_symmetry_Int_Tables_number   1
_chemical_formula_structural   Li9Mn2Co5O16
_chemical_formula_sum   'Li9 Mn2 Co5 O16'
_cell_volume   291.80623976
_cell_formula_units_Z   1
loop_
 _symmetry_equiv_pos_site_id
 _symmetry_equiv_pos_as_xyz
  1  'x, y, z'
loop_
 _atom_site_type_symbol
 _atom_site_label
 _atom_site_symmetry_multiplicity
 _atom_site_fract_x
 _atom_site_fract_y
 _atom_site_fract_z
 _atom_site_occupancy
  Li  Li0  1  0.18979200  0.62416000  0.06459200  1
  Li  Li1  1  0.93894500  0.12058300  0.31744800  1
  Li  Li2  1  0.68244400  0.62550000  0.56011100  1
  Li  Li3  1  0.81420700  0.37272400  0.93677600  1
  Li  Li4  1  0.56625700  0.87379800  0.19035700  1
  Li  Li5  1  0.31708600  0.37637600  0.44041900  1
  Li  Li6  1  0.43593000  0.12615300  0.80916200  1
  Li  Li7  1  0.05720500  0.87965200  0.68121800  1
  Li  Li8  1  0.50014600  0.99965000  0.49934700  1
  Mn  Mn0  1  0.98874700  0.00222400  0.00078400  1
  Mn  Mn1  1  0.63080900  0.74686000  0.87265300  1
  Co  Co0  1  0.75817700  0.50228700  0.25359300  1
  Co  Co1  1  0.25643900  0.49627200  0.74487600  1
  Co  Co2  1  0.37355800  0.25484500  0.12902000  1
  Co  Co3  1  0.11487700  0.76047300  0.37982200  1
  Co  Co4  1  0.88342300  0.23727400  0.62022700  1
  O  O0  1  0.62227200  0.81289000  0.02475800  1
  O  O1  1  0.38683000  0.32086600  0.27804100  1
  O  O2  1  0.09836900  0.80226800  0.51634200  1
  O  O3  1  0.26072300  0.55859900  0.89583100  1
  O  O4  1  0.95173600  0.07231000  0.14995000  1
  O  O5  1  0.73199100  0.57455000  0.39736700  1
  O  O6  1  0.83572500  0.31349700  0.76587600  1
  O  O7  1  0.48511400  0.07607500  0.65211900  1
  O  O8  1  0.79904200  0.43431700  0.10712400  1
  O  O9  1  0.50153200  0.92374200  0.34631200  1
  O  O10  1  0.25365200  0.42948000  0.60020400  1
  O  O11  1  0.36271500  0.18845200  0.97663800  1
  O  O12  1  0.12906800  0.68256900  0.23358000  1
  O  O13  1  0.90041600  0.19789800  0.48308100  1
  O  O14  1  0.00159200  0.93264900  0.85012400  1
  O  O15  1  0.67117900  0.68100900  0.72224400  1
loop_
_geom_bond_atom_site_label_1
_geom_bond_atom_site_label_2
_geom_bond_distance
_geom_bond_site_symmetry_2
Li0 O8 2.076838 1_455
Li0 O0 2.148168 1_555
Li0 O0 2.161602 1_455
Li0 O12 2.166825 1_555
Li0 O3 2.178147 1_554
Li0 O8 2.264405 1_555
Li1 O4 2.129792 1_555
Li1 O13 2.160154 1_555
Li1 O9 2.161723 1_645
Li1 O9 2.181606 1_545
Li1 O1 2.181721 1_555
Li1 O1 2.248628 1_655
Li2 O2 2.054337 1_655
Li2 O15 2.075347 1_555
Li2 O5 2.077184 1_555
Li2 O2 2.158031 1_555
Li2 O10 2.184920 1_555
Li2 O10 2.203041 1_655
Li3 O11 2.101439 1_655
Li3 O3 2.122312 1_555
Li3 O11 2.162761 1_555
Li3 O3 2.164380 1_655
Li3 O8 2.186020 1_556
Li3 O6 2.188528 1_555
Li4 O9 1.995111 1_555
Li4 O4 2.113779 1_565
Li4 O0 2.129021 1_555
Li4 O12 2.172843 1_655
Li4 O12 2.182698 1_555
Li4 O4 2.307277 1_465
Li5 O10 2.046491 1_555
Li5 O13 2.062432 1_455
Li5 O1 2.083196 1_555
Li5 O13 2.160032 1_555
Li5 O5 2.178020 1_555
Li5 O5 2.250412 1_455
Li6 O7 2.005977 1_555
Li6 O6 2.082228 1_555
Li6 O11 2.157247 1_555
Li6 O14 2.182419 1_645
Li6 O14 2.183740 1_545
Li6 O6 2.236198 1_455
Li7 O15 2.117455 1_455
Li7 O2 2.151338 1_555
Li7 O14 2.156590 1_555
Li7 O7 2.159510 1_565
Li7 O7 2.180253 1_465
Li7 O15 2.308341 1_555
Li8 O7 2.004338 1_565
Li8 O9 2.007518 1_555
Li8 O2 2.092301 1_555
Li8 O13 2.093890 1_565
Li8 O2 2.221680 1_655
Li8 O13 2.228094 1_465
Mn0 O4 1.946505 1_555
Mn0 O14 1.963478 1_644
Mn0 O11 1.975555 1_654
Mn0 O0 1.979919 1_545
Mn0 O11 2.245294 1_554
Mn0 O0 2.275072 1_645
Mn1 O15 1.952624 1_555
Mn1 O14 1.963543 1_655
Mn1 O0 1.973543 1_556
Mn1 O3 1.978919 1_555
Mn1 O14 2.248231 1_555
Mn1 O3 2.261090 1_655
Co0 O5 1.886688 1_555
Co0 O8 1.909730 1_555
Co0 O12 1.925027 1_655
Co0 O1 1.940535 1_555
Co0 O12 2.221875 1_555
Co0 O1 2.232135 1_655
Co1 O10 1.886898 1_555
Co1 O3 1.953343 1_555
Co1 O6 2.046868 1_455
Co1 O15 2.048511 1_555
Co1 O6 2.120083 1_555
Co1 O15 2.144475 1_455
Co2 O1 1.939147 1_555
Co2 O11 1.980006 1_554
Co2 O8 2.038668 1_555
Co2 O4 2.047703 1_455
Co2 O8 2.096452 1_455
Co2 O4 2.116463 1_555
Co3 O2 1.739425 1_555
Co3 O9 1.882452 1_555
Co3 O12 1.930253 1_555
Co3 O5 1.981791 1_455
Co3 O9 2.144146 1_455
Co3 O5 2.214297 1_555
Co4 O13 1.743576 1_555
Co4 O7 1.891402 1_555
Co4 O6 1.919420 1_555
Co4 O10 1.999436 1_655
Co4 O7 2.104929 1_655
Co4 O10 2.272848 1_555
