# generated using pymatgen
data_Li3NbV3O8
_symmetry_space_group_name_H-M   'P 1'
_cell_length_a   6.09929265
_cell_length_b   6.11745046
_cell_length_c   10.52737442
_cell_angle_alpha   106.51236010
_cell_angle_beta   90.15821061
_cell_angle_gamma   119.89890737
_symmetry_Int_Tables_number   1
_chemical_formula_structural   Li3NbV3O8
_chemical_formula_sum   'Li6 Nb2 V6 O16'
_cell_volume   321.50856505
_cell_formula_units_Z   2
loop_
 _symmetry_equiv_pos_site_id
 _symmetry_equiv_pos_as_xyz
  1  'x, y, z'
loop_
 _atom_site_type_symbol
 _atom_site_label
 _atom_site_symmetry_multiplicity
 _atom_site_fract_x
 _atom_site_fract_y
 _atom_site_fract_z
 _atom_site_occupancy
  Li  Li0  1  0.25193500  0.50462500  0.25636500  1
  Li  Li1  1  0.74485600  0.49734500  0.74376800  1
  Li  Li2  1  0.50103700  0.50534300  0.50092000  1
  Li  Li3  1  0.99601500  0.49573600  0.99906500  1
  Li  Li4  1  0.99286700  0.50053700  0.50146200  1
  Li  Li5  1  0.50600100  0.50112900  0.00077100  1
  Nb  Nb0  1  0.49274800  0.00549900  0.50439600  1
  Nb  Nb1  1  0.00498200  0.99528300  0.99619100  1
  V  V0  1  0.50552000  0.00025200  0.99957600  1
  V  V1  1  0.98888500  0.99443200  0.49302200  1
  V  V2  1  0.75610300  0.99825900  0.25438900  1
  V  V3  1  0.24730900  0.99798400  0.75256000  1
  V  V4  1  0.25482400  0.00435600  0.24976300  1
  V  V5  1  0.75048500  0.99838400  0.74942600  1
  O  O0  1  0.39657500  0.79022200  0.13196500  1
  O  O1  1  0.87445000  0.77616800  0.63077000  1
  O  O2  1  0.62226400  0.22160000  0.87531400  1
  O  O3  1  0.12157800  0.22913100  0.36297400  1
  O  O4  1  0.89634300  0.77820500  0.12363300  1
  O  O5  1  0.39456000  0.77568600  0.62310500  1
  O  O6  1  0.10457600  0.22797500  0.88005000  1
  O  O7  1  0.61181200  0.22392300  0.37767300  1
  O  O8  1  0.15010400  0.77580100  0.37672700  1
  O  O9  1  0.64928800  0.77229300  0.88420500  1
  O  O10  1  0.61402300  0.77270800  0.37836500  1
  O  O11  1  0.13296100  0.76882700  0.88846700  1
  O  O12  1  0.84519100  0.22693800  0.61797200  1
  O  O13  1  0.35680300  0.22372600  0.11471900  1
  O  O14  1  0.36892700  0.22655300  0.61574700  1
  O  O15  1  0.86698000  0.21108300  0.11664300  1
loop_
_geom_bond_atom_site_label_1
_geom_bond_atom_site_label_2
_geom_bond_distance
_geom_bond_site_symmetry_2
Li0 O10 2.095874 1_555
Li0 O3 2.115725 1_555
Li0 O8 2.140078 1_555
Li0 O15 2.275338 1_455
Li0 O13 2.286913 1_555
Li0 O0 2.305688 1_555
Li1 O12 2.152465 1_555
Li1 O14 2.178317 1_555
Li1 O1 2.182593 1_555
Li1 O9 2.218835 1_555
Li1 O11 2.303212 1_655
Li1 O2 2.323469 1_555
Li2 O5 2.162758 1_555
Li2 O1 2.175853 1_555
Li2 O14 2.196925 1_555
Li2 O10 2.212553 1_555
Li2 O7 2.235727 1_555
Li2 O3 2.237956 1_555
Li3 O11 2.136391 1_655
Li3 O6 2.147226 1_655
Li3 O2 2.153292 1_555
Li3 O4 2.199726 1_556
Li3 O15 2.246809 1_556
Li3 O0 2.309174 1_656
Li4 O7 2.184567 1_555
Li4 O12 2.187964 1_555
Li4 O5 2.263154 1_655
Li4 O1 2.265534 1_555
Li4 O8 2.265731 1_655
Li4 O3 2.329857 1_655
Li5 O9 2.176952 1_554
Li5 O13 2.184155 1_555
Li5 O4 2.219874 1_555
Li5 O6 2.258083 1_554
Li5 O2 2.258664 1_554
Li5 O0 2.296514 1_555
Nb0 O14 1.973605 1_555
Nb0 O12 2.011879 1_555
Nb0 O5 2.015025 1_545
Nb0 O8 2.032680 1_545
Nb0 O7 2.035625 1_555
Nb0 O10 2.077749 1_545
Nb1 O11 2.001106 1_555
Nb1 O6 2.005389 1_565
Nb1 O9 2.019566 1_455
Nb1 O13 2.029531 1_566
Nb1 O4 2.035424 1_456
Nb1 O15 2.054582 1_466
O0 V0 2.051018 1_564
O0 V4 2.052542 1_565
O0 V2 2.087852 1_555
O1 V5 2.011128 1_555
O1 V1 2.133066 1_555
O1 V3 2.139033 1_655
O2 V0 2.025501 1_555
O2 V5 2.067426 1_545
O2 V3 2.152062 1_545
O3 V4 2.039498 1_555
O3 V2 2.049389 1_445
O3 V1 2.134429 1_445
O4 V4 2.093285 1_665
O4 V2 2.130663 1_555
O5 V5 2.083974 1_555
O5 V3 2.164283 1_555
O6 V5 2.095140 1_445
O6 V3 2.166312 1_545
O7 V4 2.097217 1_555
O7 V2 2.136297 1_545
O8 V4 2.079917 1_565
O8 V1 2.154436 1_455
O9 V0 2.109730 1_565
O9 V5 2.139257 1_555
O10 V2 2.048431 1_555
O10 V1 2.118174 1_555
O11 V0 2.091130 1_565
O11 V3 2.160919 1_555
O12 V5 2.121966 1_545
O12 V1 2.169579 1_545
O13 V0 2.112196 1_554
O13 V4 2.113326 1_555
O14 V3 2.167125 1_545
O14 V1 2.172044 1_445
O15 V0 2.071103 1_554
O15 V2 2.110931 1_545
