# generated using pymatgen
data_MgMnAs2O7
_symmetry_space_group_name_H-M   'P 1'
_cell_length_a   8.78608700
_cell_length_b   7.41144000
_cell_length_c   9.77448213
_cell_angle_alpha   65.51327380
_cell_angle_beta   90.00000000
_cell_angle_gamma   90.00000000
_symmetry_Int_Tables_number   1
_chemical_formula_structural   MgMnAs2O7
_chemical_formula_sum   'Mg4 Mn4 As8 O28'
_cell_volume   579.24274112
_cell_formula_units_Z   4
loop_
 _symmetry_equiv_pos_site_id
 _symmetry_equiv_pos_as_xyz
  1  'x, y, z'
loop_
 _atom_site_type_symbol
 _atom_site_label
 _atom_site_symmetry_multiplicity
 _atom_site_fract_x
 _atom_site_fract_y
 _atom_site_fract_z
 _atom_site_occupancy
  Mg  Mg0  1  0.07693100  0.72458400  0.89571000  1
  Mg  Mg1  1  0.57693100  0.27541600  0.60429000  1
  Mg  Mg2  1  0.92306900  0.27541600  0.10429000  1
  Mg  Mg3  1  0.42306900  0.72458400  0.39571000  1
  Mn  Mn0  1  0.94718800  0.18974800  0.67636700  1
  Mn  Mn1  1  0.44718800  0.81025200  0.82363300  1
  Mn  Mn2  1  0.05281200  0.81025200  0.32363300  1
  Mn  Mn3  1  0.55281200  0.18974800  0.17636700  1
  As  As0  1  0.77815900  0.56409500  0.74914600  1
  As  As1  1  0.27815900  0.43590500  0.75085400  1
  As  As2  1  0.22184100  0.43590500  0.25085400  1
  As  As3  1  0.72184100  0.56409500  0.24914600  1
  As  As4  1  0.72727100  0.98025900  0.95720500  1
  As  As5  1  0.22727100  0.01974100  0.54279500  1
  As  As6  1  0.27272900  0.01974100  0.04279500  1
  As  As7  1  0.77272900  0.98025900  0.45720500  1
  O  O0  1  0.73674700  0.13919500  0.04313200  1
  O  O1  1  0.23674700  0.86080500  0.45686800  1
  O  O2  1  0.26325300  0.86080500  0.95686800  1
  O  O3  1  0.76325300  0.13919500  0.54313200  1
  O  O4  1  0.60789800  0.64286100  0.77790600  1
  O  O5  1  0.10789800  0.35713900  0.72209400  1
  O  O6  1  0.39210200  0.35713900  0.22209400  1
  O  O7  1  0.89210200  0.64286100  0.27790600  1
  O  O8  1  0.90931500  0.52771500  0.88785700  1
  O  O9  1  0.40931500  0.47228500  0.61214300  1
  O  O10  1  0.09068500  0.47228500  0.11214300  1
  O  O11  1  0.59068500  0.52771500  0.38785700  1
  O  O12  1  0.85891300  0.75298500  0.58169400  1
  O  O13  1  0.35891300  0.24701500  0.91830600  1
  O  O14  1  0.14108700  0.24701500  0.41830600  1
  O  O15  1  0.64108700  0.75298500  0.08169400  1
  O  O16  1  0.91095100  0.04032400  0.32236400  1
  O  O17  1  0.41095100  0.95967600  0.17763600  1
  O  O18  1  0.08904900  0.95967600  0.67763600  1
  O  O19  1  0.58904900  0.04032400  0.82236400  1
  O  O20  1  0.73396600  0.37087500  0.19670500  1
  O  O21  1  0.23396600  0.62912500  0.30329500  1
  O  O22  1  0.26603400  0.62912500  0.80329500  1
  O  O23  1  0.76603400  0.37087500  0.69670500  1
  O  O24  1  0.60054900  0.94148900  0.39376200  1
  O  O25  1  0.10054900  0.05851100  0.10623800  1
  O  O26  1  0.39945100  0.05851100  0.60623800  1
  O  O27  1  0.89945100  0.94148900  0.89376200  1
loop_
_geom_bond_atom_site_label_1
_geom_bond_atom_site_label_2
_geom_bond_distance
_geom_bond_site_symmetry_2
Mg0 O8 2.096776 1_455
Mg0 O18 2.124145 1_555
Mg0 O2 2.134674 1_555
Mg0 O22 2.146342 1_555
Mg0 O10 2.169637 1_556
Mg0 O27 2.234029 1_455
Mg1 O9 2.096776 1_555
Mg1 O19 2.124145 1_555
Mg1 O3 2.134674 1_555
Mg1 O23 2.146342 1_555
Mg1 O11 2.169637 1_555
Mg1 O26 2.234029 1_555
Mg2 O10 2.096776 1_655
Mg2 O16 2.124145 1_555
Mg2 O0 2.134674 1_555
Mg2 O20 2.146342 1_555
Mg2 O8 2.169637 1_554
Mg2 O25 2.234029 1_655
Mg3 O11 2.096776 1_555
Mg3 O17 2.124145 1_555
Mg3 O1 2.134674 1_555
Mg3 O21 2.146342 1_555
Mg3 O9 2.169637 1_555
Mg3 O24 2.234029 1_555
Mn0 O5 2.047515 1_655
Mn0 O18 2.108015 1_645
Mn0 O23 2.143854 1_555
Mn0 O27 2.198999 1_545
Mn0 O3 2.202846 1_555
Mn1 O4 2.047515 1_555
Mn1 O19 2.108015 1_565
Mn1 O22 2.143854 1_555
Mn1 O26 2.198999 1_565
Mn1 O2 2.202846 1_555
Mn2 O7 2.047515 1_455
Mn2 O16 2.108015 1_465
Mn2 O21 2.143854 1_555
Mn2 O25 2.198999 1_565
Mn2 O1 2.202846 1_555
Mn3 O6 2.047515 1_555
Mn3 O17 2.108015 1_545
Mn3 O20 2.143854 1_555
Mn3 O24 2.198999 1_545
Mn3 O0 2.202846 1_555
As0 O4 1.671422 1_555
As0 O23 1.712693 1_555
As0 O8 1.713427 1_555
As0 O12 1.800767 1_555
As1 O5 1.671422 1_555
As1 O22 1.712693 1_555
As1 O9 1.713427 1_555
As1 O13 1.800767 1_555
As2 O6 1.671422 1_555
As2 O21 1.712693 1_555
As2 O10 1.713427 1_555
As2 O14 1.800767 1_555
As3 O7 1.671422 1_555
As3 O20 1.712693 1_555
As3 O11 1.713427 1_555
As3 O15 1.800767 1_555
As4 O27 1.703924 1_555
As4 O0 1.708812 1_566
As4 O19 1.709901 1_565
As4 O15 1.786684 1_556
As5 O26 1.703924 1_555
As5 O1 1.708812 1_545
As5 O18 1.709901 1_545
As5 O14 1.786684 1_555
As6 O25 1.703924 1_555
As6 O2 1.708812 1_544
As6 O17 1.709901 1_545
As6 O13 1.786684 1_554
As7 O24 1.703924 1_555
As7 O3 1.708812 1_565
As7 O16 1.709901 1_565
As7 O12 1.786684 1_555
