# generated using pymatgen
data_V2ZnS5
_symmetry_space_group_name_H-M   'P 1'
_cell_length_a   3.99594000
_cell_length_b   5.93703000
_cell_length_c   14.32306300
_cell_angle_alpha   90.00000000
_cell_angle_beta   90.00000000
_cell_angle_gamma   90.00000000
_symmetry_Int_Tables_number   1
_chemical_formula_structural   V2ZnS5
_chemical_formula_sum   'V4 Zn2 S10'
_cell_volume   339.80057089
_cell_formula_units_Z   2
loop_
 _symmetry_equiv_pos_site_id
 _symmetry_equiv_pos_as_xyz
  1  'x, y, z'
loop_
 _atom_site_type_symbol
 _atom_site_label
 _atom_site_symmetry_multiplicity
 _atom_site_fract_x
 _atom_site_fract_y
 _atom_site_fract_z
 _atom_site_occupancy
  V  V0  1  0.00000000  0.08357900  0.84257300  1
  V  V1  1  0.50000000  0.91642100  0.65742700  1
  V  V2  1  0.50000000  0.91642100  0.34257300  1
  V  V3  1  0.00000000  0.08357900  0.15742700  1
  Zn  Zn0  1  0.50000000  0.68185000  0.00000000  1
  Zn  Zn1  1  0.00000000  0.31815000  0.50000000  1
  S  S0  1  0.50000000  0.07971800  0.50000000  1
  S  S1  1  0.00000000  0.92028200  0.00000000  1
  S  S2  1  0.50000000  0.88545700  0.82292800  1
  S  S3  1  0.00000000  0.11454300  0.67707200  1
  S  S4  1  0.50000000  0.88545700  0.17707200  1
  S  S5  1  0.00000000  0.11454300  0.32292800  1
  S  S6  1  0.00000000  0.41923100  0.11216300  1
  S  S7  1  0.50000000  0.58076900  0.38783700  1
  S  S8  1  0.50000000  0.58076900  0.61216300  1
  S  S9  1  0.00000000  0.41923100  0.88783700  1
loop_
_geom_bond_atom_site_label_1
_geom_bond_atom_site_label_2
_geom_bond_distance
_geom_bond_site_symmetry_2
S0 Zn1 2.448621 1_655
S0 Zn1 2.448621 1_555
S0 V2 2.454428 1_545
S0 V1 2.454428 1_545
S1 Zn0 2.448621 1_455
S1 Zn0 2.448621 1_555
S1 V0 2.454428 1_564
S1 V3 2.454428 1_565
S2 V0 2.335516 1_665
S2 V0 2.335516 1_565
S2 V1 2.377599 1_555
S2 Zn0 2.809560 1_556
S3 V1 2.335516 1_545
S3 V1 2.335516 1_445
S3 V0 2.377599 1_555
S3 Zn1 2.809560 1_555
S4 V3 2.335516 1_665
S4 V3 2.335516 1_565
S4 V2 2.377599 1_555
S4 Zn0 2.809560 1_555
S5 V2 2.335516 1_445
S5 V2 2.335516 1_545
S5 V3 2.377599 1_555
S5 Zn1 2.809560 1_555
S6 V3 2.095584 1_555
S6 Zn0 3.000636 1_555
S6 Zn0 3.000636 1_455
S7 V2 2.095584 1_555
S7 Zn1 3.000636 1_555
S7 Zn1 3.000636 1_655
S8 V1 2.095584 1_555
S8 Zn1 3.000636 1_555
S8 Zn1 3.000636 1_655
S9 V0 2.095584 1_555
S9 Zn0 3.000636 1_556
S9 Zn0 3.000636 1_456
