# generated using pymatgen
data_Zr2Te2P
_symmetry_space_group_name_H-M   'P 1'
_cell_length_a   10.39352108
_cell_length_b   10.39352108
_cell_length_c   10.39352241
_cell_angle_alpha   21.34110075
_cell_angle_beta   21.34110075
_cell_angle_gamma   21.34110158
_symmetry_Int_Tables_number   1
_chemical_formula_structural   Zr2Te2P
_chemical_formula_sum   'Zr2 Te2 P1'
_cell_volume   130.26262570
_cell_formula_units_Z   1
loop_
 _symmetry_equiv_pos_site_id
 _symmetry_equiv_pos_as_xyz
  1  'x, y, z'
loop_
 _atom_site_type_symbol
 _atom_site_label
 _atom_site_symmetry_multiplicity
 _atom_site_fract_x
 _atom_site_fract_y
 _atom_site_fract_z
 _atom_site_occupancy
  Zr  Zr0  1  0.61917550  0.61917550  0.61917550  1
  Zr  Zr1  1  0.38082450  0.38082450  0.38082450  1
  Te  Te0  1  0.22413071  0.22413071  0.22413071  1
  Te  Te1  1  0.77586929  0.77586929  0.77586929  1
  P  P0  1  0.00000000  0.00000000  -0.00000000  1
loop_
_geom_bond_atom_site_label_1
_geom_bond_atom_site_label_2
_geom_bond_distance
_geom_bond_site_symmetry_2
Te0 Zr0 2.910575 1_554
Te0 Zr0 2.910576 1_455
Te0 Zr0 2.910576 1_545
Te1 Zr1 2.910575 1_556
Te1 Zr1 2.910576 1_565
Te1 Zr1 2.910576 1_655
P0 Zr0 2.651546 1_445
P0 Zr1 2.651546 1_554
P0 Zr1 2.651547 1_455
P0 Zr1 2.651547 1_545
P0 Zr0 2.651547 1_454
P0 Zr0 2.651547 1_544
