# generated using pymatgen
data_Li2CrP2O7
_symmetry_space_group_name_H-M   'P 1'
_cell_length_a   5.51516300
_cell_length_b   6.44625524
_cell_length_c   8.97687023
_cell_angle_alpha   110.58169125
_cell_angle_beta   92.70962614
_cell_angle_gamma   106.39633941
_symmetry_Int_Tables_number   1
_chemical_formula_structural   Li2CrP2O7
_chemical_formula_sum   'Li4 Cr2 P4 O14'
_cell_volume   282.78632923
_cell_formula_units_Z   2
loop_
 _symmetry_equiv_pos_site_id
 _symmetry_equiv_pos_as_xyz
  1  'x, y, z'
loop_
 _atom_site_type_symbol
 _atom_site_label
 _atom_site_symmetry_multiplicity
 _atom_site_fract_x
 _atom_site_fract_y
 _atom_site_fract_z
 _atom_site_occupancy
  Li  Li0  1  0.10346500  0.77863500  0.99126500  1
  Li  Li1  1  0.30703200  0.46420900  0.75911600  1
  Li  Li2  1  0.69296800  0.53579100  0.24088400  1
  Li  Li3  1  0.89653500  0.22136500  0.00873500  1
  Cr  Cr0  1  0.11268500  0.23292400  0.37566800  1
  Cr  Cr1  1  0.88731500  0.76707600  0.62433200  1
  P  P0  1  0.23638500  0.75315600  0.39117000  1
  P  P1  1  0.60346600  0.81830800  0.88555400  1
  P  P2  1  0.39653400  0.18169200  0.11444600  1
  P  P3  1  0.76361500  0.24684400  0.60883000  1
  O  O0  1  0.06972300  0.56088600  0.32443200  1
  O  O1  1  0.05835700  0.88358300  0.41616800  1
  O  O2  1  0.31950600  0.70469000  0.87146400  1
  O  O3  1  0.23655300  0.30075900  0.16316300  1
  O  O4  1  0.26752900  0.14996700  0.95173800  1
  O  O5  1  0.57065500  0.32051700  0.46014100  1
  O  O6  1  0.61643000  0.07633100  0.75567100  1
  O  O7  1  0.38357000  0.92366900  0.24432900  1
  O  O8  1  0.42934500  0.67948300  0.53985900  1
  O  O9  1  0.73247100  0.85003300  0.04826200  1
  O  O10  1  0.76344700  0.69924100  0.83683700  1
  O  O11  1  0.68049400  0.29531000  0.12853600  1
  O  O12  1  0.94164300  0.11641700  0.58383200  1
  O  O13  1  0.93027700  0.43911400  0.67556800  1
loop_
_geom_bond_atom_site_label_1
_geom_bond_atom_site_label_2
_geom_bond_distance
_geom_bond_site_symmetry_2
Li0 O2 1.698479 1_555
Li0 O10 2.100912 1_455
Li0 O9 2.263886 1_456
Li0 O7 2.404332 1_556
Li0 P2 2.454803 1_566
Li0 O4 2.465599 1_565
Li1 O2 1.502999 1_555
Li2 O11 1.502999 1_555
Li3 O11 1.698479 1_555
Li3 O3 2.100912 1_655
Li3 O4 2.263886 1_654
Li3 O6 2.404332 1_554
Li3 P1 2.454803 1_544
Li3 O9 2.465599 1_545
Cr0 O3 2.199550 1_555
Cr0 O1 2.344822 1_545
Cr0 O0 2.386079 1_555
Cr0 O12 2.387306 1_455
Cr0 O5 2.446654 1_555
Cr1 O10 2.199550 1_555
Cr1 O12 2.344822 1_565
Cr1 O13 2.386079 1_555
Cr1 O1 2.387306 1_655
Cr1 O8 2.446654 1_555
O0 P0 1.233959 1_555
O1 P0 1.440663 1_555
O2 P1 1.507855 1_555
O3 P2 1.319723 1_555
O4 P2 1.513603 1_556
O5 P3 1.932972 1_555
O6 P3 2.054466 1_555
O6 P1 2.331367 1_545
O7 P0 2.054466 1_555
O7 P2 2.331367 1_565
O8 P0 1.932972 1_555
O9 P1 1.513603 1_554
O10 P1 1.319723 1_555
O11 P2 1.507855 1_555
O12 P3 1.440663 1_555
O13 P3 1.233959 1_555
