# generated using pymatgen
data_U(BRu)2
_symmetry_space_group_name_H-M   'P 1'
_cell_length_a   6.47087900
_cell_length_b   6.47087900
_cell_length_c   13.64700857
_cell_angle_alpha   103.71429027
_cell_angle_beta   103.71429027
_cell_angle_gamma   90.00000000
_symmetry_Int_Tables_number   1
_chemical_formula_structural   U(BRu)2
_chemical_formula_sum   'U8 B16 Ru16'
_cell_volume   538.35552485
_cell_formula_units_Z   8
loop_
 _symmetry_equiv_pos_site_id
 _symmetry_equiv_pos_as_xyz
  1  'x, y, z'
loop_
 _atom_site_type_symbol
 _atom_site_label
 _atom_site_symmetry_multiplicity
 _atom_site_fract_x
 _atom_site_fract_y
 _atom_site_fract_z
 _atom_site_occupancy
  U  U0  1  0.12500000  0.37500000  0.25000000  1
  U  U1  1  0.12500000  0.87500000  0.25000000  1
  U  U2  1  0.12500000  0.87500000  0.75000000  1
  U  U3  1  0.62500000  0.37500000  0.25000000  1
  U  U4  1  0.62500000  0.87500000  0.75000000  1
  U  U5  1  0.62500000  0.87500000  0.25000000  1
  U  U6  1  0.62500000  0.37500000  0.75000000  1
  U  U7  1  0.12500000  0.37500000  0.75000000  1
  B  B0  1  0.41363500  0.26198700  0.55401200  1
  B  B1  1  0.14037700  0.29202500  0.55401200  1
  B  B2  1  0.54202500  0.16363500  0.05401200  1
  B  B3  1  0.33636500  0.95797500  0.94598800  1
  B  B4  1  0.83636500  0.48801300  0.94598800  1
  B  B5  1  0.51198800  0.89037700  0.05401200  1
  B  B6  1  0.60962300  0.98801200  0.94598800  1
  B  B7  1  0.10962300  0.45797500  0.94598800  1
  B  B8  1  0.20797500  0.35962300  0.44598800  1
  B  B9  1  0.70797500  0.58636500  0.44598800  1
  B  B10  1  0.23801200  0.08636500  0.44598800  1
  B  B11  1  0.73801200  0.85962300  0.44598800  1
  B  B12  1  0.91363500  0.79202500  0.55401200  1
  B  B13  1  0.64037700  0.76198800  0.55401200  1
  B  B14  1  0.01198700  0.66363500  0.05401200  1
  B  B15  1  0.04202500  0.39037700  0.05401200  1
  Ru  Ru0  1  0.51259800  0.29345500  0.40965600  1
  Ru  Ru1  1  0.89705900  0.11620100  0.40965600  1
  Ru  Ru2  1  0.36620100  0.26259800  0.90965600  1
  Ru  Ru3  1  0.23740200  0.13379900  0.09034400  1
  Ru  Ru4  1  0.73740200  0.45654500  0.09034400  1
  Ru  Ru5  1  0.54345500  0.64705900  0.90965600  1
  Ru  Ru6  1  0.85294100  0.95654500  0.09034400  1
  Ru  Ru7  1  0.35294100  0.63379900  0.09034400  1
  Ru  Ru8  1  0.38379900  0.60294100  0.59034400  1
  Ru  Ru9  1  0.88379900  0.48740200  0.59034400  1
  Ru  Ru10  1  0.20654500  0.98740200  0.59034400  1
  Ru  Ru11  1  0.70654500  0.10294100  0.59034400  1
  Ru  Ru12  1  0.01259800  0.61620100  0.40965600  1
  Ru  Ru13  1  0.39705900  0.79345500  0.40965600  1
  Ru  Ru14  1  0.04345500  0.76259800  0.90965600  1
  Ru  Ru15  1  0.86620100  0.14705900  0.90965600  1
loop_
_geom_bond_atom_site_label_1
_geom_bond_atom_site_label_2
_geom_bond_distance
_geom_bond_site_symmetry_2
B0 B1 1.778871 1_555
B0 B10 1.779741 1_555
B0 B8 1.963378 1_555
B0 Ru8 2.162740 1_555
B0 Ru11 2.166533 1_555
B0 Ru0 2.262951 1_555
B0 Ru10 2.435447 1_545
B0 U6 2.626252 1_555
B1 B8 1.779738 1_555
B1 B10 1.963375 1_555
B1 Ru10 2.162747 1_545
B1 Ru9 2.166529 1_455
B1 Ru1 2.262948 1_455
B1 Ru8 2.435442 1_555
B1 U7 2.626251 1_555
B2 B5 1.778870 1_545
B2 B6 1.779741 1_544
B2 B3 1.963378 1_544
B2 Ru3 2.162747 1_555
B2 Ru4 2.166529 1_555
B2 Ru2 2.262951 1_554
B2 Ru6 2.435442 1_545
B2 U3 2.626252 1_555
B3 B6 1.778870 1_555
B3 B5 1.779741 1_556
B3 Ru2 2.162747 1_565
B3 Ru14 2.166529 1_555
B3 Ru3 2.262951 1_566
B3 Ru5 2.435442 1_555
B3 U2 2.626252 1_555
B4 B7 1.778871 1_655
B4 Ru15 2.162740 1_555
B4 Ru5 2.166533 1_555
B4 Ru4 2.262951 1_556
B4 Ru14 2.435447 1_655
B4 U6 2.626252 1_555
B5 B6 1.963372 1_554
B5 Ru6 2.162734 1_555
B5 Ru7 2.166536 1_555
B5 Ru5 2.262946 1_554
B5 Ru3 2.435452 1_565
B5 U5 2.626251 1_555
B6 Ru5 2.162734 1_555
B6 Ru15 2.166536 1_565
B6 Ru6 2.262946 1_556
B6 Ru2 2.435452 1_565
B6 U4 2.626251 1_555
B7 Ru14 2.162747 1_555
B7 Ru2 2.166529 1_555
B7 Ru7 2.262948 1_556
B7 Ru15 2.435442 1_455
B7 U7 2.626251 1_555
B8 Ru0 2.162747 1_555
B8 Ru12 2.166529 1_555
B8 Ru8 2.262948 1_555
B8 Ru1 2.435442 1_455
B8 U0 2.626251 1_555
B9 Ru12 2.162747 1_655
B9 Ru0 2.166529 1_555
B9 Ru9 2.262951 1_555
B9 Ru13 2.435442 1_555
B9 U3 2.626252 1_555
B10 B8 1.778870 1_555
B10 Ru1 2.162734 1_455
B10 Ru13 2.166536 1_545
B10 Ru10 2.262949 1_545
B10 Ru0 2.435452 1_555
B10 U1 2.626251 1_545
B11 B9 1.778870 1_555
B11 B12 1.779741 1_555
B11 B13 1.963372 1_555
B11 Ru13 2.162734 1_555
B11 Ru1 2.166536 1_565
B11 Ru11 2.262946 1_565
B11 Ru12 2.435452 1_655
B11 U5 2.626251 1_555
B12 B13 1.778870 1_555
B12 B9 1.963378 1_555
B12 Ru9 2.162747 1_555
B12 Ru10 2.166529 1_655
B12 Ru12 2.262951 1_655
B12 Ru11 2.435442 1_565
B12 U2 2.626252 1_655
B13 B9 1.779741 1_555
B13 Ru11 2.162734 1_565
B13 Ru8 2.166536 1_555
B13 Ru13 2.262946 1_555
B13 Ru9 2.435452 1_555
B13 U4 2.626251 1_555
B14 B15 1.778871 1_555
B14 B4 1.779738 1_454
B14 B7 1.963378 1_554
B14 Ru7 2.162740 1_555
B14 Ru6 2.166533 1_455
B14 Ru14 2.262951 1_554
B14 Ru4 2.435447 1_455
B14 U1 2.626252 1_555
B15 B7 1.779738 1_554
B15 B4 1.963378 1_454
B15 Ru4 2.162747 1_455
B15 Ru3 2.166529 1_555
B15 Ru15 2.262948 1_454
B15 Ru7 2.435442 1_555
B15 U0 2.626251 1_555
Ru0 U3 2.617501 1_555
Ru1 U5 2.617504 1_545
Ru2 U7 2.617501 1_555
Ru3 U0 2.617501 1_555
Ru4 U3 2.617501 1_555
Ru5 U6 2.617504 1_555
Ru6 U1 2.617504 1_655
Ru7 U5 2.617504 1_555
Ru8 U4 2.617504 1_555
Ru9 U7 2.617501 1_655
Ru10 U2 2.617501 1_555
Ru11 U6 2.617504 1_555
Ru12 U0 2.617501 1_555
Ru13 U1 2.617504 1_555
Ru14 U2 2.617501 1_555
Ru15 U4 2.617504 1_545
