# generated using pymatgen
data_KMgFe(PO4)2
_symmetry_space_group_name_H-M   'P 1'
_cell_length_a   9.83047069
_cell_length_b   9.83047069
_cell_length_c   9.55619207
_cell_angle_alpha   61.20878981
_cell_angle_beta   61.20878981
_cell_angle_gamma   32.45251711
_symmetry_Int_Tables_number   1
_chemical_formula_structural   KMgFe(PO4)2
_chemical_formula_sum   'K2 Mg2 Fe2 P4 O16'
_cell_volume   428.69721728
_cell_formula_units_Z   2
loop_
 _symmetry_equiv_pos_site_id
 _symmetry_equiv_pos_as_xyz
  1  'x, y, z'
loop_
 _atom_site_type_symbol
 _atom_site_label
 _atom_site_symmetry_multiplicity
 _atom_site_fract_x
 _atom_site_fract_y
 _atom_site_fract_z
 _atom_site_occupancy
  K  K0  1  0.75589100  0.26368800  0.24010500  1
  K  K1  1  0.26368800  0.75589100  0.74010500  1
  Mg  Mg0  1  0.35089400  0.94758000  0.26561800  1
  Mg  Mg1  1  0.94758000  0.35089400  0.76561800  1
  Fe  Fe0  1  0.05337500  0.63924300  0.23919900  1
  Fe  Fe1  1  0.63924300  0.05337500  0.73919900  1
  P  P0  1  0.83964000  0.43335900  0.44626300  1
  P  P1  1  0.56653300  0.15021100  0.05870200  1
  P  P2  1  0.15021100  0.56653300  0.55870200  1
  P  P3  1  0.43335900  0.83964000  0.94626300  1
  O  O0  1  0.94343300  0.52417900  0.35267900  1
  O  O1  1  0.47832800  0.05425600  0.14791700  1
  O  O2  1  0.05425600  0.47832800  0.64791700  1
  O  O3  1  0.52417900  0.94343300  0.85267900  1
  O  O4  1  0.33943300  0.86903800  0.12474700  1
  O  O5  1  0.14111300  0.64821600  0.37323500  1
  O  O6  1  0.64821600  0.14111300  0.87323500  1
  O  O7  1  0.86903800  0.33943300  0.62474700  1
  O  O8  1  0.80210900  0.98450400  0.12455100  1
  O  O9  1  0.99704200  0.21662800  0.36759000  1
  O  O10  1  0.21662800  0.99704200  0.86759000  1
  O  O11  1  0.98450400  0.80210900  0.62455100  1
  O  O12  1  0.43531800  0.34951800  0.57650000  1
  O  O13  1  0.66173800  0.55473500  0.93289600  1
  O  O14  1  0.55473500  0.66173800  0.43289600  1
  O  O15  1  0.34951800  0.43531800  0.07650000  1
loop_
_geom_bond_atom_site_label_1
_geom_bond_atom_site_label_2
_geom_bond_distance
_geom_bond_site_symmetry_2
K0 O9 2.776008 1_555
K0 O13 2.778251 1_554
K0 O8 3.047894 1_545
K0 O12 3.056814 1_555
K0 O4 3.105234 1_645
K0 O4 3.209471 1_555
K0 O5 3.332151 1_555
K0 O5 3.335292 1_645
K1 O10 2.776008 1_555
K1 O14 2.778251 1_555
K1 O11 3.047894 1_455
K1 O15 3.056814 1_556
K1 O7 3.105234 1_465
K1 O7 3.209471 1_555
K1 O6 3.332151 1_555
K1 O6 3.335292 1_465
Mg0 O1 1.912562 1_565
Mg0 O4 1.927477 1_555
Mg0 O14 1.929392 1_555
Mg0 O9 1.932758 1_465
Mg1 O2 1.912562 1_655
Mg1 O7 1.927477 1_555
Mg1 O13 1.929392 1_555
Mg1 O10 1.932758 1_645
Fe0 O0 1.837456 1_455
Fe0 O5 1.921904 1_555
Fe0 O8 1.922870 1_455
Fe0 O15 1.924648 1_555
Fe1 O3 1.837456 1_545
Fe1 O6 1.921904 1_555
Fe1 O11 1.922870 1_545
Fe1 O12 1.924648 1_555
O0 P0 1.589757 1_555
O1 P1 1.504047 1_555
O2 P2 1.504047 1_555
O3 P3 1.589757 1_555
O4 P3 1.533858 1_554
O5 P2 1.566737 1_555
O6 P1 1.566737 1_556
O7 P0 1.533858 1_555
O8 P1 1.569166 1_565
O9 P0 1.535382 1_555
O10 P3 1.535382 1_555
O11 P2 1.569166 1_655
O12 P2 1.566568 1_555
O13 P3 1.535364 1_555
O14 P0 1.535364 1_555
O15 P1 1.566568 1_555
