# generated using pymatgen
data_HW2C9NO10
_symmetry_space_group_name_H-M   'P 1'
_cell_length_a   8.26640755
_cell_length_b   8.26640755
_cell_length_c   16.17826071
_cell_angle_alpha   79.12275093
_cell_angle_beta   79.12275093
_cell_angle_gamma   49.85342543
_symmetry_Int_Tables_number   1
_chemical_formula_structural   HW2C9NO10
_chemical_formula_sum   'H2 W4 C18 N2 O20'
_cell_volume   826.55611820
_cell_formula_units_Z   2
loop_
 _symmetry_equiv_pos_site_id
 _symmetry_equiv_pos_as_xyz
  1  'x, y, z'
loop_
 _atom_site_type_symbol
 _atom_site_label
 _atom_site_symmetry_multiplicity
 _atom_site_fract_x
 _atom_site_fract_y
 _atom_site_fract_z
 _atom_site_occupancy
  H  H0  1  0.66980700  0.33019300  0.00000000  1
  H  H1  1  0.33487200  0.66512800  0.50000000  1
  W  W0  1  0.72822200  0.14825200  0.10561000  1
  W  W1  1  0.85174800  0.27177800  0.89439000  1
  W  W2  1  0.27161100  0.84746300  0.39699600  1
  W  W3  1  0.15253700  0.72838900  0.60300400  1
  C  C0  1  0.73518800  0.93235800  0.05192700  1
  C  C1  1  0.06764200  0.26481200  0.94807300  1
  C  C2  1  0.26438800  0.06568600  0.44858200  1
  C  C3  1  0.93431400  0.73561200  0.55141800  1
  C  C4  1  0.05945200  0.94703500  0.09681700  1
  C  C5  1  0.05296500  0.94054800  0.90318300  1
  C  C6  1  0.94289000  0.05107300  0.40418300  1
  C  C7  1  0.94892700  0.05711000  0.59581700  1
  C  C8  1  0.39356100  0.35558300  0.11290300  1
  C  C9  1  0.64441700  0.60643900  0.88709700  1
  C  C10  1  0.60312000  0.64443200  0.38853700  1
  C  C11  1  0.35556800  0.39688000  0.61146300  1
  C  C12  1  0.72268500  0.37178800  0.15351600  1
  C  C13  1  0.62821200  0.27731500  0.84648400  1
  C  C14  1  0.27752100  0.62967500  0.34820100  1
  C  C15  1  0.37032500  0.72247900  0.65179900  1
  C  C16  1  0.27795200  0.98088200  0.28097300  1
  C  C17  1  0.01911800  0.72204800  0.71902700  1
  N  N0  1  0.72218500  0.02214700  0.21617500  1
  N  N1  1  0.97785300  0.27781500  0.78382500  1
  O  O0  1  0.21077900  0.46775600  0.11775100  1
  O  O1  1  0.53224400  0.78922100  0.88224900  1
  O  O2  1  0.78773200  0.53429800  0.38147000  1
  O  O3  1  0.46570200  0.21226800  0.61853000  1
  O  O4  1  0.24296600  0.83267000  0.09405200  1
  O  O5  1  0.16733000  0.75703400  0.90594800  1
  O  O6  1  0.75808800  0.16678100  0.40487300  1
  O  O7  1  0.83321900  0.24191200  0.59512700  1
  O  O8  1  0.71471500  0.94688300  0.28423100  1
  O  O9  1  0.05311700  0.28528500  0.71576900  1
  O  O10  1  0.28517200  0.05730000  0.21222000  1
  O  O11  1  0.94270000  0.71482800  0.78778000  1
  O  O12  1  0.73826300  0.81139000  0.02429000  1
  O  O13  1  0.18861000  0.26173700  0.97571000  1
  O  O14  1  0.26168800  0.18833700  0.47530700  1
  O  O15  1  0.81166300  0.73831200  0.52469300  1
  O  O16  1  0.72118800  0.49119200  0.18105500  1
  O  O17  1  0.50880800  0.27881200  0.81894500  1
  O  O18  1  0.27937900  0.51044200  0.31801000  1
  O  O19  1  0.48955800  0.72062100  0.68199000  1
loop_
_geom_bond_atom_site_label_1
_geom_bond_atom_site_label_2
_geom_bond_distance
_geom_bond_site_symmetry_2
H0 W1 1.954354 1_554
H0 W0 1.954354 1_555
H1 W2 1.920108 1_555
H1 W3 1.920108 1_555
C0 O12 1.154201 1_555
C0 W0 2.091944 1_565
C1 O13 1.154201 1_555
C1 W1 2.091944 1_455
C2 O14 1.161042 1_555
C2 W2 2.089186 1_545
C3 O15 1.161042 1_555
C3 W3 2.089186 1_655
C4 O4 1.156751 1_555
C4 W0 2.086510 1_465
C5 O5 1.156751 1_555
C5 W1 2.086510 1_465
C6 O6 1.167100 1_555
C6 W2 2.070590 1_645
C7 O7 1.167100 1_555
C7 W3 2.070590 1_645
C8 O0 1.151096 1_555
C8 W0 2.108013 1_555
C9 O1 1.151096 1_555
C9 W1 2.108013 1_555
C10 O2 1.163058 1_555
C10 W2 2.087983 1_555
C11 O3 1.163058 1_555
C11 W3 2.087983 1_555
C12 O16 1.149367 1_555
C12 W0 2.106025 1_555
C13 O17 1.149367 1_555
C13 W1 2.106025 1_555
C14 O18 1.170304 1_555
C14 W2 2.067642 1_555
C15 O19 1.170304 1_555
C15 W3 2.067642 1_555
C16 O10 1.182458 1_565
C16 W2 1.999636 1_555
C17 O11 1.182458 1_455
C17 W3 1.999636 1_555
N0 O8 1.169833 1_545
N0 W0 1.902219 1_555
N1 O9 1.169833 1_655
N1 W1 1.902219 1_555
