# generated using pymatgen
data_Sr2CoO4
_symmetry_space_group_name_H-M   'P 1'
_cell_length_a   5.50309445
_cell_length_b   11.00599027
_cell_length_c   6.83872302
_cell_angle_alpha   90.32055684
_cell_angle_beta   66.27827049
_cell_angle_gamma   90.81717466
_symmetry_Int_Tables_number   1
_chemical_formula_structural   Sr2CoO4
_chemical_formula_sum   'Sr8 Co4 O16'
_cell_volume   379.16658882
_cell_formula_units_Z   4
loop_
 _symmetry_equiv_pos_site_id
 _symmetry_equiv_pos_as_xyz
  1  'x, y, z'
loop_
 _atom_site_type_symbol
 _atom_site_label
 _atom_site_symmetry_multiplicity
 _atom_site_fract_x
 _atom_site_fract_y
 _atom_site_fract_z
 _atom_site_occupancy
  Sr  Sr0  1  0.35217200  0.50177800  0.28509800  1
  Sr  Sr1  1  0.85851500  0.25043200  0.28258700  1
  Sr  Sr2  1  0.36014900  0.99835900  0.28619400  1
  Sr  Sr3  1  0.85669000  0.74932000  0.28751100  1
  Sr  Sr4  1  0.14298400  0.74918000  0.71306900  1
  Sr  Sr5  1  0.63798000  0.50161600  0.71501800  1
  Sr  Sr6  1  0.14121800  0.25076900  0.71688900  1
  Sr  Sr7  1  0.64659900  0.99831300  0.71357200  1
  Co  Co0  1  0.49869500  0.75016900  0.00022000  1
  Co  Co1  1  0.99876000  0.49815800  0.00011900  1
  Co  Co2  1  0.49841000  0.24940400  0.99971600  1
  Co  Co3  1  0.99791700  0.00239100  0.99985700  1
  O  O0  1  0.15491600  0.49925100  0.68165900  1
  O  O1  1  0.65393500  0.24852500  0.69430800  1
  O  O2  1  0.16215400  0.00208500  0.68274500  1
  O  O3  1  0.66130100  0.75025600  0.68257100  1
  O  O4  1  0.34115300  0.74985100  0.31794800  1
  O  O5  1  0.83852300  0.49928400  0.31848100  1
  O  O6  1  0.34861100  0.24820700  0.30499200  1
  O  O7  1  0.84536700  0.00261800  0.31739400  1
  O  O8  1  0.72608200  0.63511500  0.00079900  1
  O  O9  1  0.25722100  0.36810300  0.99920600  1
  O  O10  1  0.74570100  0.13032000  0.99930500  1
  O  O11  1  0.27404000  0.86529900  0.99961800  1
  O  O12  1  0.22603000  0.61733500  0.99943700  1
  O  O13  1  0.75941000  0.38568500  0.00069400  1
  O  O14  1  0.23913800  0.11542300  0.99960600  1
  O  O15  1  0.77632900  0.88275300  0.00138700  1
loop_
_geom_bond_atom_site_label_1
_geom_bond_atom_site_label_2
_geom_bond_distance
_geom_bond_site_symmetry_2
Co0 O11 1.784062 1_554
Co0 O8 1.794035 1_555
Co0 O3 1.988885 1_554
Co0 O4 1.989285 1_555
Co0 O12 2.081512 1_554
Co0 O15 2.099948 1_555
Co1 O13 1.793505 1_555
Co1 O12 1.798132 1_654
Co1 O5 1.993289 1_555
Co1 O0 1.993959 1_654
Co1 O9 2.030459 1_654
Co1 O8 2.140715 1_555
Co2 O9 1.876597 1_555
Co2 O10 1.901970 1_555
Co2 O6 1.911416 1_556
Co2 O1 1.912226 1_555
Co2 O14 2.037405 1_555
Co2 O13 2.063714 1_556
Co3 O15 1.779037 1_546
Co3 O14 1.805783 1_655
Co3 O2 1.985665 1_655
Co3 O7 1.988368 1_556
Co3 O10 1.992213 1_555
Co3 O11 2.156137 1_645
O0 Sr0 2.482995 1_555
O0 Sr6 2.744028 1_555
O0 Sr4 2.757550 1_555
O0 Sr5 2.757796 1_555
O0 Sr5 2.761375 1_455
O1 Sr1 2.577844 1_555
O1 Sr6 2.747088 1_655
O1 Sr7 2.756661 1_545
O1 Sr6 2.763487 1_555
O1 Sr5 2.789163 1_555
O2 Sr2 2.483119 1_545
O2 Sr6 2.745767 1_555
O2 Sr7 2.758423 1_545
O2 Sr7 2.758817 1_445
O2 Sr4 2.789681 1_545
O3 Sr3 2.473489 1_555
O3 Sr7 2.736975 1_555
O3 Sr4 2.741505 1_655
O3 Sr5 2.743750 1_555
O3 Sr4 2.774876 1_555
O4 Sr4 2.473833 1_555
O4 Sr0 2.737795 1_555
O4 Sr2 2.742071 1_555
O4 Sr3 2.756302 1_455
O4 Sr3 2.759987 1_555
O5 Sr5 2.482857 1_555
O5 Sr0 2.742538 1_655
O5 Sr1 2.748285 1_555
O5 Sr3 2.758516 1_555
O5 Sr0 2.776683 1_555
O6 Sr6 2.579027 1_555
O6 Sr1 2.747752 1_555
O6 Sr2 2.752553 1_545
O6 Sr1 2.762706 1_455
O6 Sr0 2.794280 1_555
O7 Sr7 2.480886 1_545
O7 Sr1 2.736530 1_555
O7 Sr2 2.755060 1_645
O7 Sr2 2.762683 1_545
O7 Sr3 2.793883 1_545
O8 Sr0 2.625753 1_555
O8 Sr5 2.631235 1_554
O8 Sr3 2.649823 1_555
O8 Sr4 2.650418 1_654
O9 Sr6 2.596725 1_555
O9 Sr1 2.602483 1_456
O9 Sr5 2.644712 1_555
O9 Sr0 2.651029 1_556
O10 Sr6 2.605580 1_655
O10 Sr1 2.608005 1_556
O10 Sr7 2.651343 1_545
O10 Sr2 2.656133 1_546
O11 Sr7 2.625410 1_555
O11 Sr2 2.627805 1_556
O11 Sr4 2.660153 1_555
O11 Sr3 2.662105 1_456
O12 Sr4 2.630709 1_555
O12 Sr3 2.636824 1_456
O12 Sr5 2.655457 1_555
O12 Sr0 2.657042 1_556
O13 Sr0 2.642850 1_555
O13 Sr5 2.644609 1_554
O13 Sr1 2.670379 1_555
O13 Sr6 2.676227 1_654
O14 Sr7 2.653431 1_545
O14 Sr2 2.654713 1_546
O14 Sr1 2.671248 1_456
O14 Sr6 2.672235 1_555
O15 Sr3 2.632095 1_555
O15 Sr4 2.640331 1_654
O15 Sr2 2.669107 1_555
O15 Sr7 2.680663 1_554
