# generated using pymatgen
data_Mo3Ru2
_symmetry_space_group_name_H-M   'P 1'
_cell_length_a   4.96730500
_cell_length_b   9.61140189
_cell_length_c   9.61140189
_cell_angle_alpha   90.33425858
_cell_angle_beta   90.00000000
_cell_angle_gamma   90.00000000
_symmetry_Int_Tables_number   1
_chemical_formula_structural   Mo3Ru2
_chemical_formula_sum   'Mo18 Ru12'
_cell_volume   458.86708975
_cell_formula_units_Z   6
loop_
 _symmetry_equiv_pos_site_id
 _symmetry_equiv_pos_as_xyz
  1  'x, y, z'
loop_
 _atom_site_type_symbol
 _atom_site_label
 _atom_site_symmetry_multiplicity
 _atom_site_fract_x
 _atom_site_fract_y
 _atom_site_fract_z
 _atom_site_occupancy
  Mo  Mo0  1  0.49826900  0.10502700  0.89497300  1
  Mo  Mo1  1  0.49826900  0.89497300  0.10502700  1
  Mo  Mo2  1  0.99674800  0.39585900  0.39585900  1
  Mo  Mo3  1  0.99674800  0.60414100  0.60414100  1
  Mo  Mo4  1  0.49925100  0.37126400  0.95890400  1
  Mo  Mo5  1  0.49925100  0.62873600  0.04109600  1
  Mo  Mo6  1  0.00112100  0.13247800  0.46478100  1
  Mo  Mo7  1  0.00112100  0.86752200  0.53521900  1
  Mo  Mo8  1  0.49925100  0.95890400  0.37126400  1
  Mo  Mo9  1  0.49925100  0.04109600  0.62873600  1
  Mo  Mo10  1  0.00112100  0.46478100  0.13247800  1
  Mo  Mo11  1  0.00112100  0.53521900  0.86752200  1
  Mo  Mo12  1  0.74887200  0.17818900  0.17818900  1
  Mo  Mo13  1  0.74887200  0.82181100  0.82181100  1
  Mo  Mo14  1  0.74951200  0.67906600  0.32093400  1
  Mo  Mo15  1  0.74951200  0.32093400  0.67906600  1
  Mo  Mo16  1  0.24889500  0.81783100  0.81783100  1
  Mo  Mo17  1  0.24889500  0.18216900  0.18216900  1
  Ru  Ru0  1  0.50845400  0.50000000  0.50000000  1
  Ru  Ru1  1  0.00366100  0.00000000  0.00000000  1
  Ru  Ru2  1  0.49715900  0.43235600  0.23448700  1
  Ru  Ru3  1  0.49715900  0.56764400  0.76551300  1
  Ru  Ru4  1  0.00229300  0.06914200  0.73523800  1
  Ru  Ru5  1  0.00229300  0.93085800  0.26476200  1
  Ru  Ru6  1  0.49715900  0.23448700  0.43235600  1
  Ru  Ru7  1  0.49715900  0.76551300  0.56764400  1
  Ru  Ru8  1  0.00229300  0.73523800  0.06914200  1
  Ru  Ru9  1  0.00229300  0.26476200  0.93085800  1
  Ru  Ru10  1  0.25199900  0.31887800  0.68112200  1
  Ru  Ru11  1  0.25199900  0.68112200  0.31887800  1
loop_
_geom_bond_atom_site_label_1
_geom_bond_atom_site_label_2
_geom_bond_distance
_geom_bond_site_symmetry_2
Mo0 Mo9 2.628169 1_555
Mo0 Mo4 2.628169 1_555
Mo0 Ru1 2.843607 1_556
Mo0 Mo1 2.863491 1_546
Mo0 Ru1 2.890015 1_656
Mo0 Ru4 2.922242 1_555
Mo0 Ru9 2.922242 1_555
Mo0 Ru4 2.956024 1_655
Mo0 Ru9 2.956024 1_655
Mo0 Mo13 3.071085 1_545
Mo0 Mo12 3.071085 1_556
Mo0 Mo16 3.111245 1_545
Mo0 Mo17 3.111245 1_556
Mo0 Ru10 3.161511 1_555
Mo0 Mo15 3.196937 1_555
Mo1 Mo5 2.628169 1_555
Mo1 Mo8 2.628169 1_555
Mo1 Ru1 2.843607 1_565
Mo1 Ru1 2.890015 1_665
Mo1 Ru8 2.922242 1_555
Mo1 Ru5 2.922242 1_555
Mo1 Ru8 2.956024 1_655
Mo1 Ru5 2.956024 1_655
Mo1 Mo13 3.071085 1_554
Mo1 Mo12 3.071085 1_565
Mo1 Mo16 3.111245 1_554
Mo1 Mo17 3.111245 1_565
Mo1 Ru11 3.161511 1_555
Mo1 Mo14 3.196937 1_555
Mo2 Mo6 2.620525 1_655
Mo2 Ru0 2.806270 1_555
Mo2 Mo3 2.822818 1_555
Mo2 Ru0 2.907374 1_655
Mo2 Ru2 2.948462 1_555
Mo2 Ru6 2.948462 1_555
Mo2 Ru6 2.951899 1_655
Mo2 Ru2 2.951899 1_655
Mo2 Ru10 3.113848 1_655
Mo2 Ru11 3.113848 1_655
Mo3 Mo7 2.620525 1_655
Mo3 Ru0 2.806270 1_555
Mo3 Ru0 2.907374 1_655
Mo3 Ru3 2.948462 1_555
Mo3 Ru7 2.948462 1_555
Mo3 Ru3 2.951899 1_655
Mo3 Ru7 2.951899 1_655
Mo3 Ru10 3.113848 1_655
Mo3 Ru11 3.113848 1_655
Mo4 Mo5 2.593306 1_556
Mo4 Ru3 2.656809 1_555
Mo4 Ru9 2.685325 1_555
Mo4 Ru2 2.709716 1_556
Mo4 Ru9 2.713132 1_655
Mo4 Ru10 2.979006 1_555
Mo5 Ru2 2.656809 1_555
Mo5 Ru8 2.685325 1_555
Mo5 Ru3 2.709716 1_554
Mo5 Ru8 2.713132 1_655
Mo5 Ru11 2.979006 1_555
Mo6 Mo7 2.638867 1_545
Mo6 Ru6 2.670792 1_555
Mo6 Ru4 2.673260 1_555
Mo6 Ru6 2.707148 1_455
Mo6 Ru5 2.721708 1_545
Mo6 Ru10 3.007138 1_555
Mo6 Mo9 3.064852 1_555
Mo6 Mo9 3.079869 1_455
Mo6 Mo8 3.113850 1_545
Mo6 Mo8 3.128633 1_445
Mo7 Ru7 2.670792 1_555
Mo7 Ru5 2.673260 1_555
Mo7 Ru7 2.707148 1_455
Mo7 Ru4 2.721708 1_565
Mo7 Ru11 3.007138 1_555
Mo7 Mo8 3.064852 1_555
Mo7 Mo8 3.079869 1_455
Mo7 Mo9 3.113850 1_565
Mo7 Mo9 3.128633 1_465
Mo8 Mo9 2.593306 1_565
Mo8 Ru7 2.656809 1_555
Mo8 Ru5 2.685325 1_555
Mo8 Ru6 2.709716 1_565
Mo8 Ru5 2.713132 1_655
Mo8 Ru11 2.979006 1_555
Mo9 Ru6 2.656809 1_555
Mo9 Ru4 2.685325 1_555
Mo9 Ru7 2.709716 1_545
Mo9 Ru4 2.713132 1_655
Mo9 Ru10 2.979006 1_555
Mo10 Mo2 2.620525 1_455
Mo10 Mo11 2.638867 1_554
Mo10 Ru2 2.670792 1_555
Mo10 Ru8 2.673260 1_555
Mo10 Ru2 2.707148 1_455
Mo10 Ru9 2.721708 1_554
Mo10 Mo14 3.006874 1_455
Mo10 Ru11 3.007138 1_555
Mo10 Mo17 3.022632 1_555
Mo10 Mo12 3.060180 1_455
Mo10 Mo5 3.064852 1_555
Mo10 Mo5 3.079869 1_455
Mo10 Mo4 3.113850 1_554
Mo10 Mo4 3.128633 1_454
Mo11 Mo3 2.620525 1_455
Mo11 Ru3 2.670792 1_555
Mo11 Ru9 2.673260 1_555
Mo11 Ru3 2.707148 1_455
Mo11 Ru8 2.721708 1_556
Mo11 Mo15 3.006874 1_455
Mo11 Ru10 3.007138 1_555
Mo11 Mo16 3.022632 1_555
Mo11 Mo13 3.060180 1_455
Mo11 Mo4 3.064852 1_555
Mo11 Mo4 3.079869 1_455
Mo11 Mo5 3.113850 1_556
Mo11 Mo5 3.128633 1_456
Mo12 Mo17 2.484124 1_555
Mo12 Mo17 2.484352 1_655
Mo12 Ru1 2.726512 1_655
Mo12 Ru6 2.794365 1_555
Mo12 Ru2 2.794365 1_555
Mo12 Ru9 2.819777 1_654
Mo12 Ru5 2.819777 1_645
Mo12 Mo6 3.060180 1_655
Mo12 Mo4 3.077162 1_554
Mo12 Mo8 3.077162 1_545
Mo12 Mo2 3.196694 1_555
Mo13 Mo16 2.484124 1_555
Mo13 Mo16 2.484352 1_655
Mo13 Ru1 2.726512 1_666
Mo13 Ru7 2.794365 1_555
Mo13 Ru3 2.794365 1_555
Mo13 Ru8 2.819777 1_656
Mo13 Ru4 2.819777 1_665
Mo13 Mo7 3.060180 1_655
Mo13 Mo5 3.077162 1_556
Mo13 Mo9 3.077162 1_565
Mo13 Mo3 3.196694 1_555
Mo14 Ru11 2.471458 1_555
Mo14 Ru11 2.496164 1_655
Mo14 Ru0 2.718924 1_555
Mo14 Ru8 2.782107 1_655
Mo14 Ru5 2.782107 1_655
Mo14 Ru7 2.803818 1_555
Mo14 Ru2 2.803818 1_555
Mo14 Mo5 2.999720 1_555
Mo14 Mo8 2.999720 1_555
Mo14 Mo7 3.006874 1_655
Mo14 Mo3 3.075558 1_555
Mo14 Mo2 3.075558 1_555
Mo15 Ru10 2.471458 1_555
Mo15 Ru10 2.496164 1_655
Mo15 Ru0 2.718924 1_555
Mo15 Ru4 2.782107 1_655
Mo15 Ru9 2.782107 1_655
Mo15 Ru3 2.803818 1_555
Mo15 Ru6 2.803818 1_555
Mo15 Mo9 2.999720 1_555
Mo15 Mo4 2.999720 1_555
Mo15 Mo6 3.006874 1_655
Mo15 Mo3 3.075558 1_555
Mo15 Mo2 3.075558 1_555
Mo16 Ru3 2.746246 1_555
Mo16 Ru7 2.746246 1_555
Mo16 Ru1 2.753075 1_566
Mo16 Ru4 2.826207 1_565
Mo16 Ru8 2.826207 1_556
Mo16 Mo7 3.022632 1_555
Mo16 Mo5 3.082218 1_556
Mo16 Mo9 3.082218 1_565
Mo16 Mo3 3.155345 1_455
Mo17 Ru6 2.746246 1_555
Mo17 Ru2 2.746246 1_555
Mo17 Ru1 2.753075 1_555
Mo17 Ru5 2.826207 1_545
Mo17 Ru9 2.826207 1_554
Mo17 Mo6 3.022632 1_555
Mo17 Mo4 3.082218 1_554
Mo17 Mo8 3.082218 1_545
Mo17 Mo2 3.155345 1_455
Ru0 Ru3 2.630389 1_555
Ru0 Ru7 2.630389 1_555
Ru0 Ru2 2.630389 1_555
Ru0 Ru6 2.630389 1_555
Ru0 Ru11 2.778341 1_555
Ru0 Ru10 2.778341 1_555
Ru1 Ru8 2.633833 1_545
Ru1 Ru4 2.633833 1_554
Ru1 Ru5 2.633833 1_545
Ru1 Ru9 2.633833 1_554
Ru2 Ru6 2.697383 1_555
Ru3 Ru7 2.697383 1_555
Ru4 Ru9 2.651212 1_555
Ru5 Ru8 2.651212 1_555
Ru10 Ru9 2.754108 1_555
Ru10 Ru4 2.754108 1_555
Ru10 Ru3 2.799127 1_555
Ru10 Ru6 2.799127 1_555
Ru11 Ru8 2.754108 1_555
Ru11 Ru5 2.754108 1_555
Ru11 Ru7 2.799127 1_555
Ru11 Ru2 2.799127 1_555
