# generated using pymatgen
data_CoBiAsO5
_symmetry_space_group_name_H-M   'P 1'
_cell_length_a   5.37803275
_cell_length_b   7.73859656
_cell_length_c   11.42367922
_cell_angle_alpha   93.92103517
_cell_angle_beta   96.52412901
_cell_angle_gamma   70.75441440
_symmetry_Int_Tables_number   1
_chemical_formula_structural   CoBiAsO5
_chemical_formula_sum   'Co4 Bi4 As4 O20'
_cell_volume   445.71623058
_cell_formula_units_Z   4
loop_
 _symmetry_equiv_pos_site_id
 _symmetry_equiv_pos_as_xyz
  1  'x, y, z'
loop_
 _atom_site_type_symbol
 _atom_site_label
 _atom_site_symmetry_multiplicity
 _atom_site_fract_x
 _atom_site_fract_y
 _atom_site_fract_z
 _atom_site_occupancy
  Co  Co0  1  0.71698000  0.95156300  0.31604300  1
  Co  Co1  1  0.28301100  0.04843900  0.68395700  1
  Co  Co2  1  0.21763000  0.45148000  0.81594100  1
  Co  Co3  1  0.78235000  0.54851800  0.18406400  1
  Bi  Bi0  1  0.29898200  0.60211000  0.36398800  1
  Bi  Bi1  1  0.79906800  0.10195000  0.86404700  1
  Bi  Bi2  1  0.70101000  0.39789200  0.63601000  1
  Bi  Bi3  1  0.20094100  0.89805800  0.13595500  1
  As  As0  1  0.63332600  0.71173000  0.89906900  1
  As  As1  1  0.13311000  0.21175600  0.39906000  1
  As  As2  1  0.36668300  0.28826600  0.10093000  1
  As  As3  1  0.86688600  0.78824600  0.60093600  1
  O  O0  1  0.96858200  0.66390000  0.90731500  1
  O  O1  1  0.46850100  0.16370600  0.40746100  1
  O  O2  1  0.03142800  0.33608300  0.09268500  1
  O  O3  1  0.53149600  0.83629700  0.59252900  1
  O  O4  1  0.50985200  0.57480400  0.79902400  1
  O  O5  1  0.00991600  0.07476900  0.29900100  1
  O  O6  1  0.49014700  0.42519800  0.20097700  1
  O  O7  1  0.99007900  0.92523300  0.70099900  1
  O  O8  1  0.99727400  0.27206100  0.77444500  1
  O  O9  1  0.49728500  0.77211000  0.27438900  1
  O  O10  1  0.00272900  0.72792800  0.22555300  1
  O  O11  1  0.50271000  0.22790000  0.72561800  1
  O  O12  1  0.98651900  0.43823200  0.35639900  1
  O  O13  1  0.48661900  0.93818200  0.85633400  1
  O  O14  1  0.01345900  0.56177100  0.64360400  1
  O  O15  1  0.51339800  0.06181400  0.14367000  1
  O  O16  1  0.54177000  0.68969200  0.03636800  1
  O  O17  1  0.04141000  0.18964600  0.53630400  1
  O  O18  1  0.45825200  0.31031900  0.96363500  1
  O  O19  1  0.95859700  0.81034700  0.46369200  1
loop_
_geom_bond_atom_site_label_1
_geom_bond_atom_site_label_2
_geom_bond_distance
_geom_bond_site_symmetry_2
Co0 O1 2.051327 1_565
Co0 O9 2.101071 1_555
Co0 O5 2.124665 1_665
Co0 O19 2.132037 1_555
Co0 O10 2.188230 1_655
Co0 O15 2.219953 1_565
Co1 O3 2.051398 1_545
Co1 O11 2.101148 1_555
Co1 O7 2.124645 1_445
Co1 O17 2.132016 1_555
Co1 O8 2.188134 1_455
Co1 O13 2.220042 1_545
Co2 O0 2.053607 1_455
Co2 O8 2.103326 1_455
Co2 O4 2.121555 1_555
Co2 O18 2.130400 1_555
Co2 O11 2.185275 1_555
Co2 O14 2.220532 1_555
Co3 O2 2.053773 1_655
Co3 O10 2.103352 1_655
Co3 O6 2.121432 1_555
Co3 O16 2.130376 1_555
Co3 O9 2.185296 1_555
Co3 O12 2.220498 1_555
Bi0 O10 2.145407 1_555
Bi0 O9 2.296274 1_555
Bi0 O19 2.350167 1_455
Bi0 O6 2.357438 1_555
Bi0 O12 2.407579 1_455
Bi1 O11 2.145913 1_555
Bi1 O8 2.296575 1_555
Bi1 O18 2.351284 1_555
Bi1 O7 2.356922 1_545
Bi1 O13 2.406759 1_545
Bi2 O8 2.145463 1_555
Bi2 O11 2.296271 1_555
Bi2 O17 2.350255 1_655
Bi2 O4 2.357453 1_555
Bi2 O14 2.407515 1_655
Bi3 O9 2.145909 1_555
Bi3 O10 2.296684 1_555
Bi3 O16 2.351311 1_555
Bi3 O5 2.356911 1_565
Bi3 O15 2.406725 1_565
As0 O0 1.709670 1_555
As0 O4 1.730809 1_555
As0 O16 1.731774 1_556
As0 O13 1.746368 1_555
As1 O1 1.710076 1_555
As1 O5 1.730460 1_555
As1 O17 1.731647 1_555
As1 O12 1.746224 1_455
As2 O2 1.709678 1_555
As2 O6 1.730827 1_555
As2 O18 1.731789 1_554
As2 O15 1.746389 1_555
As3 O3 1.710066 1_555
As3 O7 1.730484 1_555
As3 O19 1.731654 1_555
As3 O14 1.746233 1_655
