# generated using pymatgen
data_Li5Mn(CoO4)2
_symmetry_space_group_name_H-M   'P 1'
_cell_length_a   5.87003652
_cell_length_b   5.87003652
_cell_length_c   4.96924785
_cell_angle_alpha   74.23056126
_cell_angle_beta   74.23056126
_cell_angle_gamma   60.44677307
_symmetry_Int_Tables_number   1
_chemical_formula_structural   Li5Mn(CoO4)2
_chemical_formula_sum   'Li5 Mn1 Co2 O8'
_cell_volume   141.39092918
_cell_formula_units_Z   1
loop_
 _symmetry_equiv_pos_site_id
 _symmetry_equiv_pos_as_xyz
  1  'x, y, z'
loop_
 _atom_site_type_symbol
 _atom_site_label
 _atom_site_symmetry_multiplicity
 _atom_site_fract_x
 _atom_site_fract_y
 _atom_site_fract_z
 _atom_site_occupancy
  Li  Li0  1  0.25075000  0.25075000  0.49594400  1
  Li  Li1  1  0.50000000  0.00000000  0.00000000  1
  Li  Li2  1  0.74925000  0.74925000  0.50405600  1
  Li  Li3  1  0.00000000  0.50000000  0.00000000  1
  Li  Li4  1  0.50000000  0.50000000  0.00000000  1
  Mn  Mn0  1  0.00000000  0.00000000  0.00000000  1
  Co  Co0  1  0.26000300  0.73999700  0.50000000  1
  Co  Co1  1  0.73999700  0.26000300  0.50000000  1
  O  O0  1  0.88433600  0.88433600  0.75870600  1
  O  O1  1  0.12117200  0.65850700  0.24977000  1
  O  O2  1  0.38233600  0.38233600  0.72314500  1
  O  O3  1  0.65850700  0.12117200  0.24977000  1
  O  O4  1  0.61766400  0.61766400  0.27685500  1
  O  O5  1  0.87882800  0.34149300  0.75023000  1
  O  O6  1  0.11566400  0.11566400  0.24129400  1
  O  O7  1  0.34149300  0.87882800  0.75023000  1
loop_
_geom_bond_atom_site_label_1
_geom_bond_atom_site_label_2
_geom_bond_distance
_geom_bond_site_symmetry_2
Li0 O2 2.001119 1_555
Li0 O5 2.089499 1_455
Li0 O7 2.089499 1_545
Li0 O6 2.137738 1_555
Li0 O1 2.218648 1_555
Li0 O3 2.218648 1_555
Li1 O0 2.109422 1_544
Li1 O6 2.109422 1_555
Li1 O3 2.161605 1_555
Li1 O7 2.161605 1_544
Li1 O4 2.171602 1_545
Li1 O2 2.171602 1_554
Li2 O4 2.001119 1_555
Li2 O3 2.089499 1_565
Li2 O1 2.089499 1_655
Li2 O0 2.137738 1_555
Li2 O7 2.218648 1_555
Li2 O5 2.218648 1_555
Li3 O0 2.109422 1_454
Li3 O6 2.109422 1_555
Li3 O1 2.161605 1_555
Li3 O5 2.161605 1_454
Li3 O4 2.171602 1_455
Li3 O2 2.171602 1_554
Li4 O4 2.085759 1_555
Li4 O2 2.085759 1_554
Li4 O5 2.106583 1_554
Li4 O7 2.106583 1_554
Li4 O1 2.106583 1_555
Li4 O3 2.106583 1_555
Mn0 O6 1.923379 1_555
Mn0 O0 1.923379 1_444
Mn0 O3 1.945701 1_455
Mn0 O1 1.945701 1_545
Mn0 O7 1.945701 1_544
Mn0 O5 1.945701 1_454
Co0 O7 1.922957 1_555
Co0 O1 1.922957 1_555
Co0 O2 1.957876 1_555
Co0 O4 1.957876 1_555
Co0 O6 2.107474 1_565
Co0 O0 2.107474 1_455
Co1 O5 1.922957 1_555
Co1 O3 1.922957 1_555
Co1 O2 1.957876 1_555
Co1 O4 1.957876 1_555
Co1 O6 2.107474 1_655
Co1 O0 2.107474 1_545
