# generated using pymatgen
data_CaTb3Mn4O12
_symmetry_space_group_name_H-M   'P 1'
_cell_length_a   7.61934500
_cell_length_b   5.35136300
_cell_length_c   5.65368340
_cell_angle_alpha   89.44797945
_cell_angle_beta   90.00000000
_cell_angle_gamma   90.00000000
_symmetry_Int_Tables_number   1
_chemical_formula_structural   CaTb3Mn4O12
_chemical_formula_sum   'Ca1 Tb3 Mn4 O12'
_cell_volume   230.51191463
_cell_formula_units_Z   1
loop_
 _symmetry_equiv_pos_site_id
 _symmetry_equiv_pos_as_xyz
  1  'x, y, z'
loop_
 _atom_site_type_symbol
 _atom_site_label
 _atom_site_symmetry_multiplicity
 _atom_site_fract_x
 _atom_site_fract_y
 _atom_site_fract_z
 _atom_site_occupancy
  Ca  Ca0  1  0.50000000  0.48523600  0.56033900  1
  Tb  Tb0  1  0.50000000  0.01732600  0.06693200  1
  Tb  Tb1  1  0.00000000  0.51746200  0.43202700  1
  Tb  Tb2  1  0.00000000  0.98395500  0.93311600  1
  Mn  Mn0  1  0.25228300  0.00238000  0.50070700  1
  Mn  Mn1  1  0.74829100  0.49841400  0.99800000  1
  Mn  Mn2  1  0.74771700  0.00238000  0.50070700  1
  Mn  Mn3  1  0.25170900  0.49841400  0.99800000  1
  O  O0  1  0.50000000  0.60546600  0.97098400  1
  O  O1  1  0.50000000  0.90599500  0.46350700  1
  O  O2  1  0.00000000  0.39697100  0.03310000  1
  O  O3  1  0.00000000  0.10569200  0.53325300  1
  O  O4  1  0.29719000  0.19942900  0.81521800  1
  O  O5  1  0.70173900  0.29432100  0.29753600  1
  O  O6  1  0.80472400  0.79104100  0.19259600  1
  O  O7  1  0.19106800  0.70536400  0.69931600  1
  O  O8  1  0.19527600  0.79104100  0.19259600  1
  O  O9  1  0.80893200  0.70536400  0.69931600  1
  O  O10  1  0.70281000  0.19942900  0.81521800  1
  O  O11  1  0.29826100  0.29432100  0.29753600  1
loop_
_geom_bond_atom_site_label_1
_geom_bond_atom_site_label_2
_geom_bond_distance
_geom_bond_site_symmetry_2
Ca0 O1 2.312102 1_555
Ca0 O5 2.375580 1_555
Ca0 O11 2.375580 1_555
Ca0 O0 2.415125 1_555
Ca0 O4 2.600222 1_555
Ca0 O10 2.600222 1_555
Ca0 O9 2.750184 1_555
Ca0 O7 2.750184 1_555
Mn0 O11 1.961709 1_555
Mn0 O1 1.968451 1_545
Mn0 O7 1.992566 1_545
Mn0 O3 2.009091 1_555
Mn0 O4 2.104028 1_555
Mn0 O8 2.130753 1_545
Mn1 O10 1.944163 1_555
Mn1 O6 1.969948 1_556
Mn1 O0 1.982118 1_555
Mn1 O2 2.002543 1_656
Mn1 O5 2.037375 1_556
Mn1 O9 2.062890 1_555
Mn2 O5 1.961709 1_555
Mn2 O1 1.968451 1_545
Mn2 O9 1.992566 1_545
Mn2 O3 2.009091 1_655
Mn2 O10 2.104028 1_555
Mn2 O6 2.130753 1_545
Mn3 O4 1.944163 1_555
Mn3 O8 1.969948 1_556
Mn3 O0 1.982118 1_555
Mn3 O2 2.002543 1_556
Mn3 O11 2.037375 1_556
Mn3 O7 2.062890 1_555
O0 Tb0 2.274856 1_566
O1 Tb0 2.314360 1_565
O2 Tb2 2.286611 1_544
O2 Tb1 2.351731 1_555
O3 Tb1 2.271294 1_555
O3 Tb2 2.346653 1_545
O4 Tb0 2.309991 1_556
O4 Tb2 2.624225 1_545
O5 Tb0 2.509379 1_555
O5 Tb1 2.680681 1_655
O6 Tb2 2.324324 1_654
O6 Tb1 2.480193 1_655
O6 Tb0 2.710218 1_565
O7 Tb1 2.333108 1_555
O7 Tb2 2.475320 1_555
O8 Tb2 2.324324 1_554
O8 Tb1 2.480193 1_555
O8 Tb0 2.710218 1_565
O9 Tb1 2.333108 1_655
O9 Tb2 2.475320 1_655
O10 Tb0 2.309991 1_556
O10 Tb2 2.624225 1_645
O11 Tb0 2.509379 1_555
O11 Tb1 2.680681 1_555
