# generated using pymatgen
data_HfCrAgS4
_symmetry_space_group_name_H-M   'P 1'
_cell_length_a   12.05531700
_cell_length_b   3.61081000
_cell_length_c   12.37500600
_cell_angle_alpha   90.00000000
_cell_angle_beta   90.00000000
_cell_angle_gamma   90.00000000
_symmetry_Int_Tables_number   1
_chemical_formula_structural   HfCrAgS4
_chemical_formula_sum   'Hf4 Cr4 Ag4 S16'
_cell_volume   538.67731849
_cell_formula_units_Z   4
loop_
 _symmetry_equiv_pos_site_id
 _symmetry_equiv_pos_as_xyz
  1  'x, y, z'
loop_
 _atom_site_type_symbol
 _atom_site_label
 _atom_site_symmetry_multiplicity
 _atom_site_fract_x
 _atom_site_fract_y
 _atom_site_fract_z
 _atom_site_occupancy
  Hf  Hf0  1  0.15099000  0.25000000  0.70868200  1
  Hf  Hf1  1  0.84901000  0.75000000  0.29131800  1
  Hf  Hf2  1  0.34901000  0.75000000  0.20868200  1
  Hf  Hf3  1  0.65099000  0.25000000  0.79131800  1
  Cr  Cr0  1  0.10776200  0.25000000  0.07451800  1
  Cr  Cr1  1  0.89223800  0.75000000  0.92548200  1
  Cr  Cr2  1  0.39223800  0.75000000  0.57451800  1
  Cr  Cr3  1  0.60776200  0.25000000  0.42548200  1
  Ag  Ag0  1  0.13755500  0.75000000  0.41559900  1
  Ag  Ag1  1  0.86244500  0.25000000  0.58440100  1
  Ag  Ag2  1  0.36244500  0.25000000  0.91559900  1
  Ag  Ag3  1  0.63755500  0.75000000  0.08440100  1
  S  S0  1  0.04192600  0.75000000  0.61838500  1
  S  S1  1  0.95807400  0.25000000  0.38161500  1
  S  S2  1  0.45807400  0.25000000  0.11838500  1
  S  S3  1  0.54192600  0.75000000  0.88161500  1
  S  S4  1  0.02883200  0.25000000  0.88755400  1
  S  S5  1  0.97116800  0.75000000  0.11244600  1
  S  S6  1  0.47116800  0.75000000  0.38755400  1
  S  S7  1  0.52883200  0.25000000  0.61244600  1
  S  S8  1  0.20371700  0.25000000  0.25196000  1
  S  S9  1  0.79628300  0.75000000  0.74804000  1
  S  S10  1  0.29628300  0.75000000  0.75196000  1
  S  S11  1  0.70371700  0.25000000  0.24804000  1
  S  S12  1  0.23025700  0.75000000  0.03218900  1
  S  S13  1  0.76974300  0.25000000  0.96781100  1
  S  S14  1  0.26974300  0.25000000  0.53218900  1
  S  S15  1  0.73025700  0.75000000  0.46781100  1
loop_
_geom_bond_atom_site_label_1
_geom_bond_atom_site_label_2
_geom_bond_distance
_geom_bond_site_symmetry_2
Hf0 S0 2.497365 1_545
Hf0 S0 2.497365 1_555
Hf0 S10 2.571820 1_555
Hf0 S10 2.571820 1_545
Hf0 S14 2.611474 1_555
Hf0 S4 2.658661 1_555
Hf1 S1 2.497365 1_555
Hf1 S1 2.497365 1_565
Hf1 S11 2.571820 1_565
Hf1 S11 2.571820 1_555
Hf1 S15 2.611474 1_555
Hf1 S5 2.658661 1_555
Hf2 S2 2.497365 1_555
Hf2 S2 2.497365 1_565
Hf2 S8 2.571820 1_555
Hf2 S8 2.571820 1_565
Hf2 S12 2.611474 1_555
Hf2 S6 2.658661 1_555
Hf3 S3 2.497365 1_555
Hf3 S3 2.497365 1_545
Hf3 S9 2.571820 1_555
Hf3 S9 2.571820 1_545
Hf3 S13 2.611474 1_555
Hf3 S7 2.658661 1_555
Cr0 S12 2.390516 1_545
Cr0 S12 2.390516 1_555
Cr0 S8 2.481905 1_555
Cr0 S5 2.488243 1_455
Cr0 S5 2.488243 1_445
Cr0 S4 2.501703 1_554
Cr1 S13 2.390516 1_565
Cr1 S13 2.390516 1_555
Cr1 S9 2.481905 1_555
Cr1 S4 2.488243 1_655
Cr1 S4 2.488243 1_665
Cr1 S5 2.501703 1_556
Cr2 S14 2.390516 1_555
Cr2 S14 2.390516 1_565
Cr2 S10 2.481905 1_555
Cr2 S7 2.488243 1_565
Cr2 S7 2.488243 1_555
Cr2 S6 2.501703 1_555
Cr3 S15 2.390516 1_555
Cr3 S15 2.390516 1_545
Cr3 S11 2.481905 1_555
Cr3 S6 2.488243 1_545
Cr3 S6 2.488243 1_555
Cr3 S7 2.501703 1_555
Ag0 S0 2.761615 1_555
Ag0 S14 2.807245 1_565
Ag0 S14 2.807245 1_555
Ag0 S8 2.827794 1_565
Ag0 S8 2.827794 1_555
Ag0 S1 2.849202 1_465
Ag0 S1 2.849202 1_455
Ag1 S1 2.761615 1_555
Ag1 S15 2.807245 1_555
Ag1 S15 2.807245 1_545
Ag1 S9 2.827794 1_545
Ag1 S9 2.827794 1_555
Ag1 S0 2.849202 1_645
Ag1 S0 2.849202 1_655
Ag2 S2 2.761615 1_556
Ag2 S12 2.807245 1_546
Ag2 S12 2.807245 1_556
Ag2 S10 2.827794 1_555
Ag2 S10 2.827794 1_545
Ag2 S3 2.849202 1_555
Ag2 S3 2.849202 1_545
Ag3 S3 2.761615 1_554
Ag3 S13 2.807245 1_554
Ag3 S13 2.807245 1_564
Ag3 S11 2.827794 1_565
Ag3 S11 2.827794 1_555
Ag3 S2 2.849202 1_555
Ag3 S2 2.849202 1_565
