# generated using pymatgen
data_YbScAl4
_symmetry_space_group_name_H-M   'P 1'
_cell_length_a   5.49655314
_cell_length_b   5.49655314
_cell_length_c   5.49655314
_cell_angle_alpha   60.00000000
_cell_angle_beta   60.00000000
_cell_angle_gamma   60.00000000
_symmetry_Int_Tables_number   1
_chemical_formula_structural   YbScAl4
_chemical_formula_sum   'Yb1 Sc1 Al4'
_cell_volume   117.42384465
_cell_formula_units_Z   1
loop_
 _symmetry_equiv_pos_site_id
 _symmetry_equiv_pos_as_xyz
  1  'x, y, z'
loop_
 _atom_site_type_symbol
 _atom_site_label
 _atom_site_symmetry_multiplicity
 _atom_site_fract_x
 _atom_site_fract_y
 _atom_site_fract_z
 _atom_site_occupancy
  Yb  Yb0  1  0.00000000  0.00000000  0.00000000  1
  Sc  Sc0  1  0.25000000  0.25000000  0.25000000  1
  Al  Al0  1  0.62482500  0.62482500  0.12552500  1
  Al  Al1  1  0.62482500  0.12552500  0.62482500  1
  Al  Al2  1  0.12552500  0.62482500  0.62482500  1
  Al  Al3  1  0.62482500  0.62482500  0.62482500  1
loop_
_geom_bond_atom_site_label_1
_geom_bond_atom_site_label_2
_geom_bond_distance
_geom_bond_site_symmetry_2
Sc0 Yb0 3.365938 1_565
Sc0 Yb0 3.365938 1_555
Sc0 Yb0 3.365938 1_556
Sc0 Yb0 3.365938 1_655
Al0 Al2 2.744429 1_555
Al0 Al3 2.744429 1_555
Al0 Al1 2.744429 1_555
Al0 Al3 2.752124 1_554
Al0 Al2 2.752124 1_654
Al0 Al1 2.752124 1_564
Al0 Sc0 3.222231 1_555
Al0 Sc0 3.222231 1_565
Al0 Sc0 3.222231 1_655
Al0 Yb0 3.223051 1_655
Al0 Yb0 3.223051 1_565
Al0 Yb0 3.223051 1_665
Al1 Al2 2.744429 1_555
Al1 Al3 2.744429 1_555
Al1 Al3 2.752124 1_545
Al1 Al2 2.752124 1_645
Al1 Sc0 3.222231 1_555
Al1 Sc0 3.222231 1_655
Al1 Sc0 3.222231 1_556
Al1 Yb0 3.223051 1_655
Al1 Yb0 3.223051 1_556
Al1 Yb0 3.223051 1_656
Al2 Al3 2.744429 1_555
Al2 Al3 2.752124 1_455
Al2 Sc0 3.222231 1_555
Al2 Sc0 3.222231 1_556
Al2 Sc0 3.222231 1_565
Al2 Yb0 3.223051 1_556
Al2 Yb0 3.223051 1_565
Al2 Yb0 3.223051 1_566
Al3 Sc0 3.222231 1_655
Al3 Sc0 3.222231 1_556
Al3 Sc0 3.222231 1_565
Al3 Yb0 3.223051 1_656
Al3 Yb0 3.223051 1_665
Al3 Yb0 3.223051 1_566
