# generated using pymatgen
data_Nd(HoS2)3
_symmetry_space_group_name_H-M   'P 1'
_cell_length_a   3.96693360
_cell_length_b   11.02498061
_cell_length_c   11.29461739
_cell_angle_alpha   71.20582786
_cell_angle_beta   90.00000000
_cell_angle_gamma   90.00000000
_symmetry_Int_Tables_number   1
_chemical_formula_structural   Nd(HoS2)3
_chemical_formula_sum   'Nd2 Ho6 S12'
_cell_volume   467.63652483
_cell_formula_units_Z   2
loop_
 _symmetry_equiv_pos_site_id
 _symmetry_equiv_pos_as_xyz
  1  'x, y, z'
loop_
 _atom_site_type_symbol
 _atom_site_label
 _atom_site_symmetry_multiplicity
 _atom_site_fract_x
 _atom_site_fract_y
 _atom_site_fract_z
 _atom_site_occupancy
  Nd  Nd0  1  0.75000000  0.54817782  0.80569842  1
  Nd  Nd1  1  0.25000000  0.45182218  0.19430158  1
  Ho  Ho0  1  0.75000000  0.17972084  0.99782767  1
  Ho  Ho1  1  0.25000000  0.82027916  0.00217233  1
  Ho  Ho2  1  0.75000000  0.93969569  0.66731339  1
  Ho  Ho3  1  0.25000000  0.06030431  0.33268661  1
  Ho  Ho4  1  0.75000000  0.66160204  0.41337853  1
  Ho  Ho5  1  0.25000000  0.33839796  0.58662147  1
  S  S0  1  0.75000000  0.97771419  0.88790855  1
  S  S1  1  0.25000000  0.02228581  0.11209145  1
  S  S2  1  0.75000000  0.30355913  0.74877193  1
  S  S3  1  0.25000000  0.69644087  0.25122807  1
  S  S4  1  0.75000000  0.89549274  0.44033037  1
  S  S5  1  0.25000000  0.10450726  0.55966963  1
  S  S6  1  0.75000000  0.41817981  0.40619712  1
  S  S7  1  0.25000000  0.58182019  0.59380288  1
  S  S8  1  0.75000000  0.23598263  0.22714922  1
  S  S9  1  0.25000000  0.76401737  0.77285078  1
  S  S10  1  0.75000000  0.61812266  0.03662563  1
  S  S11  1  0.25000000  0.38187734  0.96337437  1
loop_
_geom_bond_atom_site_label_1
_geom_bond_atom_site_label_2
_geom_bond_distance
_geom_bond_site_symmetry_2
Nd0 S11 2.891953 1_555
Nd0 S11 2.891953 1_655
Nd0 S10 2.948476 1_556
Nd0 S2 2.967163 1_555
Nd0 S9 3.027467 1_555
Nd0 S9 3.027467 1_655
Nd0 S7 3.037685 1_555
Nd0 S7 3.037685 1_655
Nd1 S10 2.891953 1_455
Nd1 S10 2.891953 1_555
Nd1 S11 2.948476 1_554
Nd1 S3 2.967163 1_555
Nd1 S8 3.027467 1_555
Nd1 S8 3.027467 1_455
Nd1 S6 3.037685 1_455
Nd1 S6 3.037685 1_555
Ho0 S1 2.677510 1_656
Ho0 S1 2.677510 1_556
Ho0 S2 2.702283 1_555
Ho0 S8 2.851063 1_556
Ho0 S0 2.878009 1_545
Ho0 S11 2.914474 1_555
Ho0 S11 2.914474 1_655
Ho1 S0 2.677510 1_454
Ho1 S0 2.677510 1_554
Ho1 S3 2.702283 1_555
Ho1 S9 2.851063 1_554
Ho1 S1 2.878009 1_565
Ho1 S10 2.914474 1_455
Ho1 S10 2.914474 1_555
Ho2 S0 2.656380 1_555
Ho2 S5 2.700094 1_565
Ho2 S5 2.700094 1_665
Ho2 S4 2.759530 1_555
Ho2 S9 2.760217 1_555
Ho2 S9 2.760217 1_655
Ho3 S1 2.656380 1_555
Ho3 S4 2.700094 1_445
Ho3 S4 2.700094 1_545
Ho3 S5 2.759530 1_555
Ho3 S8 2.760217 1_455
Ho3 S8 2.760217 1_555
Ho4 S3 2.642450 1_655
Ho4 S3 2.642450 1_555
Ho4 S4 2.692181 1_555
Ho4 S6 2.710945 1_555
Ho4 S7 2.775897 1_555
Ho4 S7 2.775897 1_655
Ho5 S2 2.642450 1_455
Ho5 S2 2.642450 1_555
Ho5 S5 2.692181 1_555
Ho5 S7 2.710945 1_555
Ho5 S6 2.775897 1_555
Ho5 S6 2.775897 1_455
