# generated using pymatgen
data_Li5Co3O8
_symmetry_space_group_name_H-M   'P 1'
_cell_length_a   2.85997320
_cell_length_b   19.97704889
_cell_length_c   2.93009957
_cell_angle_alpha   81.87160088
_cell_angle_beta   119.21139638
_cell_angle_gamma   90.00000202
_symmetry_Int_Tables_number   1
_chemical_formula_structural   Li5Co3O8
_chemical_formula_sum   'Li5 Co3 O8'
_cell_volume   144.18776508
_cell_formula_units_Z   1
loop_
 _symmetry_equiv_pos_site_id
 _symmetry_equiv_pos_as_xyz
  1  'x, y, z'
loop_
 _atom_site_type_symbol
 _atom_site_label
 _atom_site_symmetry_multiplicity
 _atom_site_fract_x
 _atom_site_fract_y
 _atom_site_fract_z
 _atom_site_occupancy
  Li  Li0  1  0.24579100  0.12846400  0.49158300  1
  Li  Li1  1  0.75420900  0.37153600  0.50841700  1
  Li  Li2  1  0.25414700  0.62391600  0.50829500  1
  Li  Li3  1  0.74585300  0.87608400  0.49170500  1
  Li  Li4  1  0.50000000  0.25000000  0.00000000  1
  Co  Co0  1  0.00065700  0.99972300  0.00131300  1
  Co  Co1  1  0.99934300  0.50027700  0.99868700  1
  Co  Co2  1  0.50000000  0.75000000  0.00000000  1
  O  O0  1  0.63083000  0.05549800  0.26166000  1
  O  O1  1  0.12287700  0.31294700  0.24575400  1
  O  O2  1  0.62794700  0.55829800  0.25589300  1
  O  O3  1  0.12339500  0.80739300  0.24679000  1
  O  O4  1  0.87712300  0.18705300  0.75424600  1
  O  O5  1  0.36917000  0.44450200  0.73834000  1
  O  O6  1  0.87660500  0.69260700  0.75321000  1
  O  O7  1  0.37205300  0.94170200  0.74410700  1
loop_
_geom_bond_atom_site_label_1
_geom_bond_atom_site_label_2
_geom_bond_distance
_geom_bond_site_symmetry_2
Li0 O4 2.029965 1_455
Li0 O4 2.029967 1_555
Li0 O4 2.052013 1_454
Li0 O0 2.189304 1_455
Li0 O0 2.189306 1_555
Li0 O0 2.252411 1_556
Li1 O1 2.029965 1_655
Li1 O1 2.029967 1_555
Li1 O1 2.052013 1_656
Li1 O5 2.189304 1_655
Li1 O5 2.189306 1_555
Li1 O5 2.252411 1_554
Li2 O2 2.110455 1_455
Li2 O2 2.110459 1_555
Li2 O2 2.135862 1_556
Li2 O6 2.144461 1_455
Li2 O6 2.144463 1_555
Li2 O6 2.180290 1_454
Li3 O7 2.110455 1_655
Li3 O7 2.110459 1_555
Li3 O7 2.135862 1_554
Li3 O3 2.144461 1_655
Li3 O3 2.144463 1_555
Li3 O3 2.180290 1_656
Li4 O1 2.068149 1_555
Li4 O4 2.068149 1_554
Li4 O1 2.068149 1_655
Li4 O4 2.068149 1_454
Li4 O1 2.125156 1_554
Li4 O4 2.125156 1_555
Co0 O0 1.992493 1_565
Co0 O0 1.992495 1_465
Co0 O7 2.016942 1_554
Co0 O7 2.016946 1_454
Co0 O0 2.033939 1_464
Co0 O7 2.058846 1_555
Co1 O5 1.992493 1_555
Co1 O5 1.992495 1_655
Co1 O2 2.016942 1_556
Co1 O2 2.016946 1_656
Co1 O5 2.033939 1_656
Co1 O2 2.058846 1_555
Co2 O6 1.998057 1_554
Co2 O3 1.998057 1_555
Co2 O3 1.998057 1_655
Co2 O6 1.998057 1_454
Co2 O3 2.075973 1_554
Co2 O6 2.075973 1_555
