# generated using pymatgen
data_LiSi2(AgO)8
_symmetry_space_group_name_H-M   'P 1'
_cell_length_a   4.92849600
_cell_length_b   7.64486700
_cell_length_c   7.64486700
_cell_angle_alpha   90.00000000
_cell_angle_beta   90.00000000
_cell_angle_gamma   90.00000000
_symmetry_Int_Tables_number   1
_chemical_formula_structural   LiSi2(AgO)8
_chemical_formula_sum   'Li1 Si2 Ag8 O8'
_cell_volume   288.04097807
_cell_formula_units_Z   1
loop_
 _symmetry_equiv_pos_site_id
 _symmetry_equiv_pos_as_xyz
  1  'x, y, z'
loop_
 _atom_site_type_symbol
 _atom_site_label
 _atom_site_symmetry_multiplicity
 _atom_site_fract_x
 _atom_site_fract_y
 _atom_site_fract_z
 _atom_site_occupancy
  Li  Li0  1  0.75000000  0.75000000  0.75000000  1
  Si  Si0  1  0.75000000  0.25000000  0.25000000  1
  Si  Si1  1  0.25000000  0.75000000  0.75000000  1
  Ag  Ag0  1  0.23275600  0.14327100  0.56948600  1
  Ag  Ag1  1  0.81910200  0.63286100  0.09899400  1
  Ag  Ag2  1  0.81910200  0.86713900  0.40100600  1
  Ag  Ag3  1  0.68089800  0.40100600  0.63286100  1
  Ag  Ag4  1  0.68089800  0.09899400  0.86713900  1
  Ag  Ag5  1  0.26724400  0.56948600  0.35672900  1
  Ag  Ag6  1  0.23275600  0.35672900  0.93051400  1
  Ag  Ag7  1  0.26724400  0.93051400  0.14327100  1
  O  O0  1  0.45630200  0.58805500  0.80531300  1
  O  O1  1  0.94205100  0.30796200  0.41949000  1
  O  O2  1  0.04369800  0.80531300  0.91194500  1
  O  O3  1  0.55794900  0.41949000  0.19203800  1
  O  O4  1  0.94205100  0.19203800  0.08051000  1
  O  O5  1  0.45630200  0.91194500  0.69468700  1
  O  O6  1  0.04369800  0.69468700  0.58805500  1
  O  O7  1  0.55794900  0.08051000  0.30796200  1
loop_
_geom_bond_atom_site_label_1
_geom_bond_atom_site_label_2
_geom_bond_distance
_geom_bond_site_symmetry_2
Li0 O0 1.951102 1_555
Li0 O2 1.951102 1_655
Li0 O6 1.951102 1_655
Li0 O5 1.951102 1_555
Ag0 O1 2.225498 1_455
Ag0 O5 2.292904 1_545
Ag0 O7 2.606945 1_555
Ag1 O3 2.196214 1_555
Ag1 O2 2.237896 1_654
Ag2 O7 2.196214 1_565
Ag2 O6 2.237896 1_655
Ag3 O1 2.196214 1_555
Ag3 O0 2.237896 1_555
Ag4 O4 2.196214 1_556
Ag4 O5 2.237896 1_545
Ag5 O3 2.225498 1_555
Ag5 O6 2.292904 1_555
Ag5 O1 2.606945 1_455
Ag6 O4 2.225498 1_456
Ag6 O0 2.292904 1_555
Ag6 O3 2.606945 1_556
Ag7 O7 2.225498 1_565
Ag7 O2 2.292904 1_554
Ag7 O4 2.606945 1_465
O0 Si1 1.656916 1_555
O1 Si0 1.664682 1_555
O2 Si1 1.656916 1_555
O3 Si0 1.664682 1_555
O4 Si0 1.664682 1_555
O5 Si1 1.656916 1_555
O6 Si1 1.656916 1_555
O7 Si0 1.664682 1_555
