# generated using pymatgen
data_CoBi(CO)3
_symmetry_space_group_name_H-M   'P 1'
_cell_length_a   11.79336454
_cell_length_b   11.79336454
_cell_length_c   11.79336454
_cell_angle_alpha   101.81793729
_cell_angle_beta   101.81793729
_cell_angle_gamma   126.18504494
_symmetry_Int_Tables_number   1
_chemical_formula_structural   CoBi(CO)3
_chemical_formula_sum   'Co8 Bi8 C24 O24'
_cell_volume   1180.55382691
_cell_formula_units_Z   8
loop_
 _symmetry_equiv_pos_site_id
 _symmetry_equiv_pos_as_xyz
  1  'x, y, z'
loop_
 _atom_site_type_symbol
 _atom_site_label
 _atom_site_symmetry_multiplicity
 _atom_site_fract_x
 _atom_site_fract_y
 _atom_site_fract_z
 _atom_site_occupancy
  Co  Co0  1  0.85372000  0.00209400  0.14837400  1
  Co  Co1  1  0.85372000  0.70534600  0.85162600  1
  Co  Co2  1  0.25209400  0.60372000  0.64837400  1
  Co  Co3  1  0.95534600  0.60372000  0.35162600  1
  Co  Co4  1  0.39628000  0.74790600  0.35162600  1
  Co  Co5  1  0.39628000  0.04465400  0.64837400  1
  Co  Co6  1  0.99790600  0.14628000  0.85162600  1
  Co  Co7  1  0.29465400  0.14628000  0.14837400  1
  Bi  Bi0  1  0.00071300  0.88924000  0.11147400  1
  Bi  Bi1  1  0.13924000  0.75071300  0.61147400  1
  Bi  Bi2  1  0.13924000  0.52776600  0.38852600  1
  Bi  Bi3  1  0.77776600  0.88924000  0.88852600  1
  Bi  Bi4  1  0.24928700  0.86076000  0.38852600  1
  Bi  Bi5  1  0.11076000  0.99928700  0.88852600  1
  Bi  Bi6  1  0.11076000  0.22223400  0.11147400  1
  Bi  Bi7  1  0.47223400  0.86076000  0.61147400  1
  C  C0  1  0.69096300  0.81926700  0.12830400  1
  C  C1  1  0.69096300  0.56265900  0.87169600  1
  C  C2  1  0.06926700  0.44096300  0.62830400  1
  C  C3  1  0.81265900  0.44096300  0.37169600  1
  C  C4  1  0.55903700  0.93073300  0.37169600  1
  C  C5  1  0.55903700  0.18734100  0.62830400  1
  C  C6  1  0.18073300  0.30903700  0.87169600  1
  C  C7  1  0.43734100  0.30903700  0.12830400  1
  C  C8  1  0.96941600  0.09678000  0.31253300  1
  C  C9  1  0.96941600  0.65688300  0.87263700  1
  C  C10  1  0.34678000  0.71941600  0.81253300  1
  C  C11  1  0.34678000  0.53424700  0.62736300  1
  C  C12  1  0.78424700  0.09678000  0.12736300  1
  C  C13  1  0.78424700  0.65688300  0.68746700  1
  C  C14  1  0.90688300  0.71941600  0.37263700  1
  C  C15  1  0.90688300  0.53424700  0.18746700  1
  C  C16  1  0.28058400  0.65322000  0.18746700  1
  C  C17  1  0.28058400  0.09311700  0.62736300  1
  C  C18  1  0.90322000  0.03058400  0.68746700  1
  C  C19  1  0.90322000  0.21575300  0.87263700  1
  C  C20  1  0.46575300  0.65322000  0.37263700  1
  C  C21  1  0.46575300  0.09311700  0.81253300  1
  C  C22  1  0.34311700  0.03058400  0.12736300  1
  C  C23  1  0.34311700  0.21575300  0.31253300  1
  O  O0  1  0.58234600  0.70436000  0.12201400  1
  O  O1  1  0.58234600  0.46033300  0.87798600  1
  O  O2  1  0.95436000  0.33234600  0.62201400  1
  O  O3  1  0.71033300  0.33234600  0.37798600  1
  O  O4  1  0.66765400  0.04564000  0.37798600  1
  O  O5  1  0.66765400  0.28966700  0.62201400  1
  O  O6  1  0.29564000  0.41765400  0.87798600  1
  O  O7  1  0.53966700  0.41765400  0.12201400  1
  O  O8  1  0.03955100  0.16069800  0.42234000  1
  O  O9  1  0.03955100  0.61721000  0.87885200  1
  O  O10  1  0.41069800  0.78955100  0.92234000  1
  O  O11  1  0.41069800  0.48835800  0.62114800  1
  O  O12  1  0.73835800  0.16069800  0.12114800  1
  O  O13  1  0.73835800  0.61721000  0.57766000  1
  O  O14  1  0.86721000  0.78955100  0.37885200  1
  O  O15  1  0.86721000  0.48835800  0.07766000  1
  O  O16  1  0.21044900  0.58930200  0.07766000  1
  O  O17  1  0.21044900  0.13279000  0.62114800  1
  O  O18  1  0.83930200  0.96044900  0.57766000  1
  O  O19  1  0.83930200  0.26164200  0.87885200  1
  O  O20  1  0.51164200  0.58930200  0.37885200  1
  O  O21  1  0.51164200  0.13279000  0.92234000  1
  O  O22  1  0.38279000  0.96044900  0.12114800  1
  O  O23  1  0.38279000  0.26164200  0.42234000  1
loop_
_geom_bond_atom_site_label_1
_geom_bond_atom_site_label_2
_geom_bond_distance
_geom_bond_site_symmetry_2
Bi0 Co0 2.786041 1_465
Bi0 Co1 2.786053 1_454
Bi0 Co7 2.798051 1_565
Bi1 Co2 2.786041 1_555
Bi1 Co3 2.786053 1_455
Bi1 Co5 2.798051 1_565
Bi2 Co2 2.786052 1_555
Bi2 Co3 2.786052 1_455
Bi2 Co4 2.798045 1_555
Bi3 Co0 2.786052 1_566
Bi3 Co1 2.786052 1_555
Bi3 Co6 2.798045 1_565
Bi4 Co4 2.786041 1_555
Bi4 Co5 2.786053 1_565
Bi4 Co3 2.798051 1_455
Bi5 Co6 2.786041 1_465
Bi5 Co7 2.786053 1_566
Bi5 Co1 2.798051 1_455
Bi6 Co7 2.786052 1_555
Bi6 Co6 2.786052 1_454
Bi6 Co0 2.798045 1_455
Bi7 Co4 2.786052 1_555
Bi7 Co5 2.786052 1_565
Bi7 Co2 2.798045 1_555
C0 O0 1.163168 1_555
C0 Co0 1.762757 1_565
C1 O1 1.163163 1_555
C1 Co1 1.762757 1_555
C2 O2 1.163168 1_455
C2 Co2 1.762757 1_555
C3 O3 1.163163 1_555
C3 Co3 1.762757 1_555
C4 O4 1.163168 1_565
C4 Co4 1.762757 1_555
C5 O5 1.163163 1_555
C5 Co5 1.762757 1_555
C6 O6 1.163168 1_555
C6 Co6 1.762757 1_455
C7 O7 1.163163 1_555
C7 Co7 1.762757 1_555
C8 O8 1.163862 1_655
C8 Co0 1.757873 1_555
C9 O9 1.163871 1_655
C9 Co1 1.757873 1_555
C10 O10 1.163862 1_555
C10 Co2 1.757873 1_555
C11 O11 1.163859 1_555
C11 Co2 1.757875 1_555
C12 O12 1.163859 1_555
C12 Co0 1.757875 1_555
C13 O13 1.163860 1_555
C13 Co1 1.757873 1_555
C14 O14 1.163871 1_555
C14 Co3 1.757873 1_555
C15 O15 1.163860 1_555
C15 Co3 1.757873 1_555
C16 O16 1.163862 1_555
C16 Co4 1.757873 1_555
C17 O17 1.163871 1_555
C17 Co5 1.757873 1_555
C18 O18 1.163862 1_545
C18 Co6 1.757873 1_555
C19 O19 1.163859 1_555
C19 Co6 1.757875 1_555
C20 O20 1.163859 1_555
C20 Co4 1.757875 1_555
C21 O21 1.163860 1_555
C21 Co5 1.757873 1_555
C22 O22 1.163871 1_545
C22 Co7 1.757873 1_555
C23 O23 1.163860 1_555
C23 Co7 1.757873 1_555
