# generated using pymatgen
data_U2C4NO15
_symmetry_space_group_name_H-M   'P 1'
_cell_length_a   15.44368400
_cell_length_b   5.78601100
_cell_length_c   10.10627688
_cell_angle_alpha   86.85492689
_cell_angle_beta   90.00000000
_cell_angle_gamma   90.00000000
_symmetry_Int_Tables_number   1
_chemical_formula_structural   U2C4NO15
_chemical_formula_sum   'U4 C8 N2 O30'
_cell_volume   901.70968632
_cell_formula_units_Z   2
loop_
 _symmetry_equiv_pos_site_id
 _symmetry_equiv_pos_as_xyz
  1  'x, y, z'
loop_
 _atom_site_type_symbol
 _atom_site_label
 _atom_site_symmetry_multiplicity
 _atom_site_fract_x
 _atom_site_fract_y
 _atom_site_fract_z
 _atom_site_occupancy
  U  U0  1  0.05864600  0.77349100  0.24232400  1
  U  U1  1  0.55864600  0.22650900  0.75767600  1
  U  U2  1  0.94135400  0.22650900  0.75767600  1
  U  U3  1  0.44135400  0.77349100  0.24232400  1
  C  C0  1  0.04622300  0.04554600  0.51063600  1
  C  C1  1  0.54622300  0.95445400  0.48936400  1
  C  C2  1  0.95377700  0.95445400  0.48936400  1
  C  C3  1  0.45377700  0.04554600  0.51063600  1
  C  C4  1  0.95415500  0.49301100  0.02916200  1
  C  C5  1  0.45415500  0.50698900  0.97083800  1
  C  C6  1  0.04584500  0.50698900  0.97083800  1
  C  C7  1  0.54584500  0.49301100  0.02916200  1
  N  N0  1  0.25000000  0.97846800  0.04412400  1
  N  N1  1  0.75000000  0.02153200  0.95587600  1
  O  O0  1  0.10209900  0.99054300  0.42652000  1
  O  O1  1  0.60209900  0.00945700  0.57348000  1
  O  O2  1  0.89790100  0.00945700  0.57348000  1
  O  O3  1  0.39790100  0.99054300  0.42652000  1
  O  O4  1  0.94379200  0.58224300  0.13966600  1
  O  O5  1  0.44379200  0.41775700  0.86033400  1
  O  O6  1  0.05620800  0.41775700  0.86033400  1
  O  O7  1  0.55620800  0.58224300  0.13966600  1
  O  O8  1  0.09241500  0.51361300  0.33267000  1
  O  O9  1  0.59241500  0.48638700  0.66733000  1
  O  O10  1  0.90758500  0.48638700  0.66733000  1
  O  O11  1  0.40758500  0.51361300  0.33267000  1
  O  O12  1  0.25000000  0.87818300  0.14792000  1
  O  O13  1  0.75000000  0.12181700  0.85208000  1
  O  O14  1  0.03685700  0.04176200  0.14986900  1
  O  O15  1  0.53685700  0.95823800  0.85013100  1
  O  O16  1  0.96314300  0.95823800  0.85013100  1
  O  O17  1  0.46314300  0.04176200  0.14986900  1
  O  O18  1  0.10214400  0.60573000  0.03901900  1
  O  O19  1  0.60214400  0.39427000  0.96098100  1
  O  O20  1  0.89785600  0.39427000  0.96098100  1
  O  O21  1  0.39785600  0.60573000  0.03901900  1
  O  O22  1  0.94320100  0.83453900  0.38953900  1
  O  O23  1  0.44320100  0.16546100  0.61046100  1
  O  O24  1  0.05679900  0.16546100  0.61046100  1
  O  O25  1  0.55679900  0.83453900  0.38953900  1
  O  O26  1  0.25000000  0.67898600  0.71054600  1
  O  O27  1  0.75000000  0.32101400  0.28945400  1
  O  O28  1  0.25000000  0.49650200  0.65311900  1
  O  O29  1  0.75000000  0.50349800  0.34688100  1
loop_
_geom_bond_atom_site_label_1
_geom_bond_atom_site_label_2
_geom_bond_distance
_geom_bond_site_symmetry_2
C0 O0 1.264234 1_545
C0 O24 1.265970 1_555
C1 O1 1.264234 1_565
C1 O25 1.265970 1_555
C2 O2 1.264234 1_565
C2 O22 1.265970 1_555
C3 O3 1.264234 1_545
C3 O23 1.265970 1_555
C4 O20 1.265055 1_554
C4 O4 1.265959 1_555
C5 O21 1.265055 1_556
C5 O5 1.265959 1_555
C6 O18 1.265055 1_556
C6 O6 1.265959 1_555
C7 O19 1.265055 1_554
C7 O7 1.265959 1_555
N0 O12 1.170591 1_555
N1 O13 1.170591 1_555
O0 U0 2.397787 1_555
O1 U1 2.397787 1_555
O2 U2 2.397787 1_555
O3 U3 2.397787 1_555
O4 U0 2.360741 1_655
O5 U1 2.360741 1_555
O6 U2 2.360741 1_455
O7 U3 2.360741 1_555
O8 U0 1.793320 1_555
O9 U1 1.793320 1_555
O10 U2 1.793320 1_555
O11 U3 1.793320 1_555
O14 U0 1.799036 1_545
O15 U1 1.799036 1_565
O16 U2 1.799036 1_565
O17 U3 1.799036 1_545
O18 U0 2.415352 1_555
O19 U1 2.415352 1_555
O20 U2 2.415352 1_555
O21 U3 2.415352 1_555
O22 U0 2.361077 1_655
O23 U1 2.361077 1_555
O24 U2 2.361077 1_455
O25 U3 2.361077 1_555
O26 O28 1.232437 1_555
O27 O29 1.232437 1_555
