# generated using pymatgen
data_MgCu2(BiO4)2
_symmetry_space_group_name_H-M   'P 1'
_cell_length_a   8.57126700
_cell_length_b   6.42992300
_cell_length_c   13.77103965
_cell_angle_alpha   86.64248043
_cell_angle_beta   90.00000000
_cell_angle_gamma   90.00000000
_symmetry_Int_Tables_number   1
_chemical_formula_structural   MgCu2(BiO4)2
_chemical_formula_sum   'Mg4 Cu8 Bi8 O32'
_cell_volume   757.65488631
_cell_formula_units_Z   4
loop_
 _symmetry_equiv_pos_site_id
 _symmetry_equiv_pos_as_xyz
  1  'x, y, z'
loop_
 _atom_site_type_symbol
 _atom_site_label
 _atom_site_symmetry_multiplicity
 _atom_site_fract_x
 _atom_site_fract_y
 _atom_site_fract_z
 _atom_site_occupancy
  Mg  Mg0  1  0.84925400  0.89504400  0.04864200  1
  Mg  Mg1  1  0.15074600  0.10495600  0.95135800  1
  Mg  Mg2  1  0.34925400  0.10495600  0.45135800  1
  Mg  Mg3  1  0.65074600  0.89504400  0.54864200  1
  Cu  Cu0  1  0.80286100  0.24856300  0.89294200  1
  Cu  Cu1  1  0.93429500  0.64433500  0.61414700  1
  Cu  Cu2  1  0.06570500  0.35566500  0.38585300  1
  Cu  Cu3  1  0.19713900  0.75143700  0.10705800  1
  Cu  Cu4  1  0.69713900  0.24856300  0.39294200  1
  Cu  Cu5  1  0.56570500  0.64433500  0.11414700  1
  Cu  Cu6  1  0.30286100  0.75143700  0.60705800  1
  Cu  Cu7  1  0.43429500  0.35566500  0.88585300  1
  Bi  Bi0  1  0.55950700  0.90064400  0.83303900  1
  Bi  Bi1  1  0.94049300  0.90064400  0.33303900  1
  Bi  Bi2  1  0.90365100  0.36638300  0.13697300  1
  Bi  Bi3  1  0.05950700  0.09935600  0.66696100  1
  Bi  Bi4  1  0.09634900  0.63361700  0.86302700  1
  Bi  Bi5  1  0.40365100  0.63361700  0.36302700  1
  Bi  Bi6  1  0.59634900  0.36638300  0.63697300  1
  Bi  Bi7  1  0.44049300  0.09935600  0.16696100  1
  O  O0  1  0.73588500  0.96345400  0.40884200  1
  O  O1  1  0.96021600  0.36203500  0.59561000  1
  O  O2  1  0.43340500  0.80168800  0.49640200  1
  O  O3  1  0.93340500  0.19831200  0.00359800  1
  O  O4  1  0.76411500  0.96345400  0.90884200  1
  O  O5  1  0.26411500  0.03654600  0.59115800  1
  O  O6  1  0.87712600  0.92321000  0.60949700  1
  O  O7  1  0.13179200  0.48669500  0.14249500  1
  O  O8  1  0.36820800  0.48669500  0.64249500  1
  O  O9  1  0.11706100  0.71927500  0.67971700  1
  O  O10  1  0.61706100  0.28072500  0.82028300  1
  O  O11  1  0.86820800  0.51330500  0.85750500  1
  O  O12  1  0.12287400  0.07679000  0.39050300  1
  O  O13  1  0.45642500  0.10786400  0.31324400  1
  O  O14  1  0.73634300  0.60591700  0.56429300  1
  O  O15  1  0.76365700  0.60591700  0.06429300  1
  O  O16  1  0.95642500  0.89213600  0.18675600  1
  O  O17  1  0.63179200  0.51330500  0.35750500  1
  O  O18  1  0.54357500  0.89213600  0.68675600  1
  O  O19  1  0.56659500  0.19831200  0.50359800  1
  O  O20  1  0.53978400  0.36203500  0.09561000  1
  O  O21  1  0.88293900  0.28072500  0.32028300  1
  O  O22  1  0.23588500  0.03654600  0.09115800  1
  O  O23  1  0.62287400  0.92321000  0.10949700  1
  O  O24  1  0.06659500  0.80168800  0.99640200  1
  O  O25  1  0.23634300  0.39408300  0.93570700  1
  O  O26  1  0.03978400  0.63796500  0.40439000  1
  O  O27  1  0.46021600  0.63796500  0.90439000  1
  O  O28  1  0.37712600  0.07679000  0.89050300  1
  O  O29  1  0.26365700  0.39408300  0.43570700  1
  O  O30  1  0.38293900  0.71927500  0.17971700  1
  O  O31  1  0.04357500  0.10786400  0.81324400  1
loop_
_geom_bond_atom_site_label_1
_geom_bond_atom_site_label_2
_geom_bond_distance
_geom_bond_site_symmetry_2
Mg0 O15 1.998479 1_555
Mg0 O4 2.081632 1_554
Mg0 O24 2.097330 1_654
Mg0 O16 2.111278 1_555
Mg0 O23 2.125533 1_555
Mg0 O3 2.136773 1_565
Mg1 O25 1.998479 1_555
Mg1 O22 2.081632 1_556
Mg1 O3 2.097330 1_456
Mg1 O31 2.111278 1_555
Mg1 O28 2.125533 1_555
Mg1 O24 2.136773 1_545
Mg2 O29 1.998479 1_555
Mg2 O5 2.081632 1_555
Mg2 O19 2.097330 1_555
Mg2 O13 2.111278 1_555
Mg2 O12 2.125533 1_555
Mg2 O2 2.136773 1_545
Mg3 O14 1.998479 1_555
Mg3 O0 2.081632 1_555
Mg3 O2 2.097330 1_555
Mg3 O18 2.111278 1_555
Mg3 O6 2.125533 1_555
Mg3 O19 2.136773 1_565
Cu0 O11 1.830926 1_555
Cu0 O4 1.863316 1_545
Cu0 O10 1.885709 1_555
Cu0 O3 1.902850 1_556
Cu0 O31 2.529072 1_655
Cu1 O14 1.852300 1_555
Cu1 O6 1.856375 1_555
Cu1 O1 1.861084 1_555
Cu1 O9 1.884818 1_655
Cu2 O29 1.852300 1_555
Cu2 O12 1.856375 1_555
Cu2 O26 1.861084 1_555
Cu2 O21 1.884818 1_455
Cu3 O7 1.830926 1_555
Cu3 O22 1.863316 1_565
Cu3 O30 1.885709 1_555
Cu3 O24 1.902850 1_554
Cu3 O16 2.529072 1_455
Cu4 O17 1.830926 1_555
Cu4 O0 1.863316 1_545
Cu4 O21 1.885709 1_555
Cu4 O19 1.902850 1_555
Cu4 O13 2.529072 1_555
Cu5 O15 1.852300 1_555
Cu5 O23 1.856375 1_555
Cu5 O20 1.861084 1_555
Cu5 O30 1.884818 1_555
Cu6 O8 1.830926 1_555
Cu6 O5 1.863316 1_565
Cu6 O9 1.885709 1_555
Cu6 O2 1.902850 1_555
Cu6 O18 2.529072 1_555
Cu7 O25 1.852300 1_555
Cu7 O28 1.856375 1_555
Cu7 O27 1.861084 1_555
Cu7 O10 1.884818 1_555
Bi0 O18 2.023026 1_555
Bi0 O27 2.085208 1_555
Bi0 O4 2.092325 1_555
Bi0 O28 2.111327 1_565
Bi0 O10 2.489284 1_565
Bi1 O16 2.023026 1_555
Bi1 O26 2.085208 1_655
Bi1 O0 2.092325 1_555
Bi1 O12 2.111327 1_665
Bi1 O21 2.489284 1_565
Bi2 O7 2.105930 1_655
Bi2 O15 2.152484 1_555
Bi2 O3 2.199756 1_555
Bi2 O21 2.558213 1_555
Bi3 O31 2.023026 1_555
Bi3 O1 2.085208 1_455
Bi3 O5 2.092325 1_555
Bi3 O6 2.111327 1_445
Bi3 O9 2.489284 1_545
Bi4 O11 2.105930 1_455
Bi4 O25 2.152484 1_555
Bi4 O24 2.199756 1_555
Bi4 O9 2.558213 1_555
Bi5 O17 2.105930 1_555
Bi5 O29 2.152484 1_555
Bi5 O2 2.199756 1_555
Bi5 O30 2.558213 1_555
Bi6 O8 2.105930 1_555
Bi6 O14 2.152484 1_555
Bi6 O19 2.199756 1_555
Bi6 O10 2.558213 1_555
Bi7 O13 2.023026 1_555
Bi7 O20 2.085208 1_555
Bi7 O22 2.092325 1_555
Bi7 O23 2.111327 1_545
Bi7 O30 2.489284 1_545
