# generated using pymatgen
data_Na3GeTe3
_symmetry_space_group_name_H-M   'P 1'
_cell_length_a   13.07219000
_cell_length_b   8.91336200
_cell_length_c   9.07031061
_cell_angle_alpha   60.23191666
_cell_angle_beta   90.00000000
_cell_angle_gamma   90.00000000
_symmetry_Int_Tables_number   1
_chemical_formula_structural   Na3GeTe3
_chemical_formula_sum   'Na12 Ge4 Te12'
_cell_volume   917.38761837
_cell_formula_units_Z   4
loop_
 _symmetry_equiv_pos_site_id
 _symmetry_equiv_pos_as_xyz
  1  'x, y, z'
loop_
 _atom_site_type_symbol
 _atom_site_label
 _atom_site_symmetry_multiplicity
 _atom_site_fract_x
 _atom_site_fract_y
 _atom_site_fract_z
 _atom_site_occupancy
  Na  Na0  1  0.34753500  0.00600900  0.47675100  1
  Na  Na1  1  0.84753500  0.99399100  0.02324900  1
  Na  Na2  1  0.65246500  0.99399100  0.52324900  1
  Na  Na3  1  0.15246500  0.00600900  0.97675100  1
  Na  Na4  1  0.94272300  0.77034300  0.52924500  1
  Na  Na5  1  0.44272300  0.22965700  0.97075500  1
  Na  Na6  1  0.05727700  0.22965700  0.47075500  1
  Na  Na7  1  0.55727700  0.77034300  0.02924500  1
  Na  Na8  1  0.23091200  0.52829600  0.73035100  1
  Na  Na9  1  0.73091200  0.47170400  0.76964900  1
  Na  Na10  1  0.76908800  0.47170400  0.26964900  1
  Na  Na11  1  0.26908800  0.52829600  0.23035100  1
  Ge  Ge0  1  0.98999500  0.65363900  0.96510200  1
  Ge  Ge1  1  0.48999500  0.34636100  0.53489800  1
  Ge  Ge2  1  0.01000500  0.34636100  0.03489800  1
  Ge  Ge3  1  0.51000500  0.65363900  0.46510200  1
  Te  Te0  1  0.80168100  0.75122300  0.86480500  1
  Te  Te1  1  0.30168100  0.24877700  0.63519500  1
  Te  Te2  1  0.19831900  0.24877700  0.13519500  1
  Te  Te3  1  0.69831900  0.75122300  0.36480500  1
  Te  Te4  1  0.02873200  0.65772700  0.24530800  1
  Te  Te5  1  0.52873200  0.34227300  0.25469200  1
  Te  Te6  1  0.97126800  0.34227300  0.75469200  1
  Te  Te7  1  0.47126800  0.65772700  0.74530800  1
  Te  Te8  1  0.12373700  0.84229600  0.73131200  1
  Te  Te9  1  0.62373700  0.15770400  0.76868800  1
  Te  Te10  1  0.87626300  0.15770400  0.26868800  1
  Te  Te11  1  0.37626300  0.84229600  0.23131200  1
loop_
_geom_bond_atom_site_label_1
_geom_bond_atom_site_label_2
_geom_bond_distance
_geom_bond_site_symmetry_2
Na0 Te1 3.192959 1_555
Na0 Te11 3.232978 1_545
Na0 Te7 3.267723 1_545
Na0 Te2 3.380558 1_555
Na0 Te5 3.557555 1_555
Na0 Te8 3.560011 1_545
Na1 Te0 3.192959 1_554
Na1 Te10 3.232978 1_565
Na1 Te6 3.267723 1_564
Na1 Te3 3.380558 1_555
Na1 Te4 3.557555 1_655
Na1 Te9 3.560011 1_564
Na2 Te3 3.192959 1_555
Na2 Te9 3.232978 1_565
Na2 Te5 3.267723 1_565
Na2 Te0 3.380558 1_555
Na2 Te7 3.557555 1_555
Na2 Te10 3.560011 1_565
Na3 Te2 3.192959 1_556
Na3 Te8 3.232978 1_545
Na3 Te4 3.267723 1_546
Na3 Te1 3.380558 1_555
Na3 Te6 3.557555 1_455
Na3 Te11 3.560011 1_546
Na4 Te10 3.187256 1_565
Na4 Te8 3.246053 1_655
Na4 Te6 3.336401 1_555
Na4 Te4 3.386941 1_655
Na4 Te0 3.489558 1_555
Na4 Te3 3.565592 1_555
Na5 Te11 3.187256 1_546
Na5 Te9 3.246053 1_555
Na5 Te7 3.336401 1_555
Na5 Te5 3.386941 1_556
Na5 Te1 3.489558 1_555
Na5 Te2 3.565592 1_556
Na6 Te8 3.187256 1_545
Na6 Te10 3.246053 1_455
Na6 Te4 3.336401 1_555
Na6 Te6 3.386941 1_455
Na6 Te2 3.489558 1_555
Na6 Te1 3.565592 1_555
Na7 Te9 3.187256 1_564
Na7 Te11 3.246053 1_555
Na7 Te5 3.336401 1_555
Na7 Te7 3.386941 1_554
Na7 Te3 3.489558 1_555
Na7 Te0 3.565592 1_554
Na8 Te8 3.133751 1_555
Na8 Te1 3.153310 1_555
Na8 Te2 3.284562 1_556
Na8 Te7 3.372951 1_555
Na8 Te6 3.735576 1_455
Na9 Te9 3.133751 1_555
Na9 Te0 3.153310 1_555
Na9 Te3 3.284562 1_555
Na9 Te6 3.372951 1_555
Na9 Te7 3.735576 1_555
Na10 Te10 3.133751 1_555
Na10 Te3 3.153310 1_555
Na10 Te0 3.284562 1_554
Na10 Te5 3.372951 1_555
Na10 Te4 3.735576 1_655
Na11 Te11 3.133751 1_555
Na11 Te2 3.153310 1_555
Na11 Te1 3.284562 1_555
Na11 Te4 3.372951 1_555
Na11 Te5 3.735576 1_555
Ge0 Ge2 2.499786 1_656
Ge0 Te4 2.609446 1_656
Ge0 Te8 2.615365 1_655
Ge0 Te0 2.618832 1_555
Ge1 Ge3 2.499786 1_555
Ge1 Te5 2.609446 1_555
Ge1 Te9 2.615365 1_555
Ge1 Te1 2.618832 1_555
Ge2 Te6 2.609446 1_454
Ge2 Te10 2.615365 1_455
Ge2 Te2 2.618832 1_555
Ge3 Te7 2.609446 1_555
Ge3 Te11 2.615365 1_555
Ge3 Te3 2.618832 1_555
