# generated using pymatgen
data_MnCO3
_symmetry_space_group_name_H-M   'P 1'
_cell_length_a   5.76112664
_cell_length_b   5.76112664
_cell_length_c   5.74988663
_cell_angle_alpha   83.35397958
_cell_angle_beta   83.35397958
_cell_angle_gamma   85.83176907
_symmetry_Int_Tables_number   1
_chemical_formula_structural   MnCO3
_chemical_formula_sum   'Mn2 C2 O6'
_cell_volume   187.94551947
_cell_formula_units_Z   2
loop_
 _symmetry_equiv_pos_site_id
 _symmetry_equiv_pos_as_xyz
  1  'x, y, z'
loop_
 _atom_site_type_symbol
 _atom_site_label
 _atom_site_symmetry_multiplicity
 _atom_site_fract_x
 _atom_site_fract_y
 _atom_site_fract_z
 _atom_site_occupancy
  Mn  Mn0  1  0.00000000  0.00000000  0.00000000  1
  Mn  Mn1  1  0.00000000  0.00000000  0.50000000  1
  C  C0  1  0.67512800  0.32487200  0.75000000  1
  C  C1  1  0.32487200  0.67512800  0.25000000  1
  O  O0  1  0.92097400  0.80073100  0.78216100  1
  O  O1  1  0.53007400  0.46992600  0.75000000  1
  O  O2  1  0.19926900  0.07902600  0.71783900  1
  O  O3  1  0.07902600  0.19926900  0.21783900  1
  O  O4  1  0.46992600  0.53007400  0.25000000  1
  O  O5  1  0.80073100  0.92097400  0.28216100  1
loop_
_geom_bond_atom_site_label_1
_geom_bond_atom_site_label_2
_geom_bond_distance
_geom_bond_site_symmetry_2
Mn0 O2 1.905587 1_554
Mn0 O5 1.905587 1_445
Mn0 O3 1.906545 1_555
Mn0 O0 1.906545 1_444
Mn1 O0 1.905587 1_445
Mn1 O3 1.905587 1_555
Mn1 O2 1.906545 1_555
Mn1 O5 1.906545 1_445
C0 O1 1.138061 1_555
C1 O4 1.138061 1_555
