# generated using pymatgen
data_Sm15(Ni4P3)7
_symmetry_space_group_name_H-M   'P 1'
_cell_length_a   3.91785447
_cell_length_b   24.30734490
_cell_length_c   24.30734490
_cell_angle_alpha   119.99999970
_cell_angle_beta   90.00000000
_cell_angle_gamma   90.00000000
_symmetry_Int_Tables_number   1
_chemical_formula_structural   Sm15(Ni4P3)7
_chemical_formula_sum   'Sm30 Ni56 P42'
_cell_volume   2004.72118362
_cell_formula_units_Z   2
loop_
 _symmetry_equiv_pos_site_id
 _symmetry_equiv_pos_as_xyz
  1  'x, y, z'
loop_
 _atom_site_type_symbol
 _atom_site_label
 _atom_site_symmetry_multiplicity
 _atom_site_fract_x
 _atom_site_fract_y
 _atom_site_fract_z
 _atom_site_occupancy
  Sm  Sm0  1  0.75000000  0.61434550  0.75741451  1
  Sm  Sm1  1  0.25000000  0.38565450  0.24258549  1
  Sm  Sm2  1  0.75000000  0.14306901  0.38565450  1
  Sm  Sm3  1  0.25000000  0.85693099  0.61434550  1
  Sm  Sm4  1  0.75000000  0.24258549  0.85693099  1
  Sm  Sm5  1  0.25000000  0.75741451  0.14306901  1
  Sm  Sm6  1  0.75000000  0.46769262  0.58490928  1
  Sm  Sm7  1  0.25000000  0.53230738  0.41509072  1
  Sm  Sm8  1  0.75000000  0.11721666  0.53230738  1
  Sm  Sm9  1  0.25000000  0.88278334  0.46769262  1
  Sm  Sm10  1  0.75000000  0.41509072  0.88278334  1
  Sm  Sm11  1  0.25000000  0.58490928  0.11721666  1
  Sm  Sm12  1  0.75000000  0.58723634  0.90807972  1
  Sm  Sm13  1  0.25000000  0.41276366  0.09192028  1
  Sm  Sm14  1  0.75000000  0.32084338  0.41276366  1
  Sm  Sm15  1  0.25000000  0.67915662  0.58723634  1
  Sm  Sm16  1  0.75000000  0.09192028  0.67915662  1
  Sm  Sm17  1  0.25000000  0.90807972  0.32084338  1
  Sm  Sm18  1  0.75000000  0.44076988  0.73386622  1
  Sm  Sm19  1  0.25000000  0.55923012  0.26613378  1
  Sm  Sm20  1  0.75000000  0.29309634  0.55923012  1
  Sm  Sm21  1  0.25000000  0.70690366  0.44076988  1
  Sm  Sm22  1  0.75000000  0.26613378  0.70690366  1
  Sm  Sm23  1  0.25000000  0.73386622  0.29309634  1
  Sm  Sm24  1  0.75000000  0.75838605  0.93070787  1
  Sm  Sm25  1  0.25000000  0.24161395  0.06929213  1
  Sm  Sm26  1  0.75000000  0.17232182  0.24161395  1
  Sm  Sm27  1  0.25000000  0.82767818  0.75838605  1
  Sm  Sm28  1  0.75000000  0.06929213  0.82767818  1
  Sm  Sm29  1  0.25000000  0.93070787  0.17232182  1
  Ni  Ni0  1  0.75000000  0.61062101  0.62939770  1
  Ni  Ni1  1  0.25000000  0.38937899  0.37060230  1
  Ni  Ni2  1  0.75000000  0.01877669  0.38937899  1
  Ni  Ni3  1  0.25000000  0.98122331  0.61062101  1
  Ni  Ni4  1  0.75000000  0.37060230  0.98122331  1
  Ni  Ni5  1  0.25000000  0.62939770  0.01877669  1
  Ni  Ni6  1  0.75000000  0.69220829  0.18507634  1
  Ni  Ni7  1  0.25000000  0.30779171  0.81492366  1
  Ni  Ni8  1  0.75000000  0.49286805  0.30779171  1
  Ni  Ni9  1  0.25000000  0.50713195  0.69220829  1
  Ni  Ni10  1  0.75000000  0.81492366  0.50713195  1
  Ni  Ni11  1  0.25000000  0.18507634  0.49286805  1
  Ni  Ni12  1  0.75000000  0.99401623  0.53722825  1
  Ni  Ni13  1  0.25000000  0.00598377  0.46277175  1
  Ni  Ni14  1  0.75000000  0.54321202  0.00598377  1
  Ni  Ni15  1  0.25000000  0.45678798  0.99401623  1
  Ni  Ni16  1  0.75000000  0.46277175  0.45678798  1
  Ni  Ni17  1  0.25000000  0.53722825  0.54321202  1
  Ni  Ni18  1  0.75000000  0.66666700  0.33333300  1
  Ni  Ni19  1  0.25000000  0.33333300  0.66666700  1
  Ni  Ni20  1  0.75000000  0.90014521  0.96549448  1
  Ni  Ni21  1  0.25000000  0.09985479  0.03450552  1
  Ni  Ni22  1  0.75000000  0.06534927  0.09985479  1
  Ni  Ni23  1  0.25000000  0.93465073  0.90014521  1
  Ni  Ni24  1  0.75000000  0.03450552  0.93465073  1
  Ni  Ni25  1  0.25000000  0.96549448  0.06534927  1
  Ni  Ni26  1  0.75000000  0.71563697  0.03128964  1
  Ni  Ni27  1  0.25000000  0.28436303  0.96871036  1
  Ni  Ni28  1  0.75000000  0.31565267  0.28436303  1
  Ni  Ni29  1  0.25000000  0.68434733  0.71563697  1
  Ni  Ni30  1  0.75000000  0.96871036  0.68434733  1
  Ni  Ni31  1  0.25000000  0.03128964  0.31565267  1
  Ni  Ni32  1  0.75000000  0.88796446  0.06085732  1
  Ni  Ni33  1  0.25000000  0.11203554  0.93914268  1
  Ni  Ni34  1  0.75000000  0.17289286  0.11203554  1
  Ni  Ni35  1  0.25000000  0.82710714  0.88796446  1
  Ni  Ni36  1  0.75000000  0.93914268  0.82710714  1
  Ni  Ni37  1  0.25000000  0.06085732  0.17289286  1
  Ni  Ni38  1  0.75000000  0.84044830  0.35996039  1
  Ni  Ni39  1  0.25000000  0.15955170  0.64003961  1
  Ni  Ni40  1  0.75000000  0.51951208  0.15955170  1
  Ni  Ni41  1  0.25000000  0.48048792  0.84044830  1
  Ni  Ni42  1  0.75000000  0.64003961  0.48048792  1
  Ni  Ni43  1  0.25000000  0.35996039  0.51951208  1
  Ni  Ni44  1  0.75000000  0.75974952  0.80229769  1
  Ni  Ni45  1  0.25000000  0.24025048  0.19770231  1
  Ni  Ni46  1  0.75000000  0.04254816  0.24025048  1
  Ni  Ni47  1  0.25000000  0.95745184  0.75974952  1
  Ni  Ni48  1  0.75000000  0.19770231  0.95745184  1
  Ni  Ni49  1  0.25000000  0.80229769  0.04254816  1
  Ni  Ni50  1  0.75000000  0.86535861  0.21118119  1
  Ni  Ni51  1  0.25000000  0.13464139  0.78881881  1
  Ni  Ni52  1  0.75000000  0.34582258  0.13464139  1
  Ni  Ni53  1  0.25000000  0.65417742  0.86535861  1
  Ni  Ni54  1  0.75000000  0.78881881  0.65417742  1
  Ni  Ni55  1  0.25000000  0.21118119  0.34582258  1
  P  P0  1  0.75000000  0.99494838  0.13052640  1
  P  P1  1  0.25000000  0.00505162  0.86947360  1
  P  P2  1  0.75000000  0.13557802  0.00505162  1
  P  P3  1  0.25000000  0.86442198  0.99494838  1
  P  P4  1  0.75000000  0.86947360  0.86442198  1
  P  P5  1  0.25000000  0.13052640  0.13557802  1
  P  P6  1  0.75000000  0.82348710  0.10441138  1
  P  P7  1  0.25000000  0.17651290  0.89558862  1
  P  P8  1  0.75000000  0.28092428  0.17651290  1
  P  P9  1  0.25000000  0.71907572  0.82348710  1
  P  P10  1  0.75000000  0.89558862  0.71907572  1
  P  P11  1  0.25000000  0.10441138  0.28092428  1
  P  P12  1  0.75000000  0.79958470  0.25244757  1
  P  P13  1  0.25000000  0.20041530  0.74755243  1
  P  P14  1  0.75000000  0.45286287  0.20041530  1
  P  P15  1  0.25000000  0.54713713  0.79958470  1
  P  P16  1  0.75000000  0.74755243  0.54713713  1
  P  P17  1  0.25000000  0.25244757  0.45286287  1
  P  P18  1  0.75000000  0.94657072  0.42609698  1
  P  P19  1  0.25000000  0.05342928  0.57390302  1
  P  P20  1  0.75000000  0.47952626  0.05342928  1
  P  P21  1  0.25000000  0.52047374  0.94657072  1
  P  P22  1  0.75000000  0.57390302  0.52047374  1
  P  P23  1  0.25000000  0.42609698  0.47952626  1
  P  P24  1  0.75000000  0.65202773  0.07867346  1
  P  P25  1  0.25000000  0.34797227  0.92132654  1
  P  P26  1  0.75000000  0.42664573  0.34797227  1
  P  P27  1  0.25000000  0.57335427  0.65202773  1
  P  P28  1  0.75000000  0.92132654  0.57335427  1
  P  P29  1  0.25000000  0.07867346  0.42664573  1
  P  P30  1  0.75000000  0.77353277  0.40012681  1
  P  P31  1  0.25000000  0.22646723  0.59987319  1
  P  P32  1  0.75000000  0.62659404  0.22646723  1
  P  P33  1  0.25000000  0.37340596  0.77353277  1
  P  P34  1  0.75000000  0.59987319  0.37340596  1
  P  P35  1  0.25000000  0.40012681  0.62659404  1
  P  P36  1  0.75000000  0.97117199  0.27859235  1
  P  P37  1  0.25000000  0.02882801  0.72140765  1
  P  P38  1  0.75000000  0.30742035  0.02882801  1
  P  P39  1  0.25000000  0.69257965  0.97117199  1
  P  P40  1  0.75000000  0.72140765  0.69257965  1
  P  P41  1  0.25000000  0.27859235  0.30742035  1
loop_
_geom_bond_atom_site_label_1
_geom_bond_atom_site_label_2
_geom_bond_distance
_geom_bond_site_symmetry_2
Ni0 P22 2.333147 1_555
Ni0 P27 2.336417 1_555
Ni0 P27 2.336417 1_655
Ni0 P40 2.339817 1_555
Ni0 Sm15 3.061085 1_655
Ni0 Sm15 3.061085 1_555
Ni0 Sm0 3.067485 1_555
Ni0 Sm6 3.079376 1_555
Ni1 P23 2.333147 1_555
Ni1 P26 2.336417 1_455
Ni1 P26 2.336417 1_555
Ni1 P41 2.339817 1_555
Ni1 Sm14 3.061085 1_455
Ni1 Sm14 3.061085 1_555
Ni1 Sm1 3.067485 1_555
Ni1 Sm7 3.079376 1_555
Ni2 P18 2.333147 1_545
Ni2 P29 2.336417 1_555
Ni2 P29 2.336417 1_655
Ni2 P36 2.339817 1_545
Ni2 Sm17 3.061085 1_645
Ni2 Sm17 3.061085 1_545
Ni2 Sm2 3.067485 1_555
Ni2 Sm8 3.079376 1_555
Ni3 P19 2.333147 1_565
Ni3 P28 2.336417 1_455
Ni3 P28 2.336417 1_555
Ni3 P37 2.339817 1_565
Ni3 Sm16 3.061085 1_465
Ni3 Sm16 3.061085 1_565
Ni3 Sm3 3.067485 1_555
Ni3 Sm9 3.079376 1_555
Ni4 P20 2.333147 1_556
Ni4 P25 2.336417 1_555
Ni4 P25 2.336417 1_655
Ni4 P38 2.339817 1_556
Ni4 Sm13 3.061085 1_656
Ni4 Sm13 3.061085 1_556
Ni4 Sm4 3.067485 1_555
Ni4 Sm10 3.079376 1_555
Ni5 P21 2.333147 1_554
Ni5 P24 2.336417 1_555
Ni5 P24 2.336417 1_455
Ni5 P39 2.339817 1_554
Ni5 Sm12 3.061085 1_454
Ni5 Sm12 3.061085 1_554
Ni5 Sm5 3.067485 1_555
Ni5 Sm11 3.079376 1_555
Ni6 P24 2.262115 1_555
Ni6 P32 2.271699 1_555
Ni6 P12 2.284696 1_555
Ni6 Sm5 3.001769 1_555
Ni6 Sm5 3.001769 1_655
Ni6 Sm11 3.009743 1_555
Ni6 Sm11 3.009743 1_655
Ni6 Sm23 3.016320 1_655
Ni6 Sm23 3.016320 1_555
Ni7 P25 2.262115 1_555
Ni7 P33 2.271699 1_555
Ni7 P13 2.284696 1_555
Ni7 Sm4 3.001769 1_555
Ni7 Sm4 3.001769 1_455
Ni7 Sm10 3.009743 1_555
Ni7 Sm10 3.009743 1_455
Ni7 Sm22 3.016320 1_555
Ni7 Sm22 3.016320 1_455
Ni8 P26 2.262115 1_555
Ni8 P34 2.271699 1_555
Ni8 P14 2.284696 1_555
Ni8 Sm1 3.001769 1_555
Ni8 Sm1 3.001769 1_655
Ni8 Sm7 3.009743 1_655
Ni8 Sm7 3.009743 1_555
Ni8 Sm19 3.016320 1_655
Ni8 Sm19 3.016320 1_555
Ni9 P27 2.262115 1_555
Ni9 P35 2.271699 1_555
Ni9 P15 2.284696 1_555
Ni9 Sm0 3.001769 1_455
Ni9 Sm0 3.001769 1_555
Ni9 Sm6 3.009743 1_455
Ni9 Sm6 3.009743 1_555
Ni9 Sm18 3.016320 1_455
Ni9 Sm18 3.016320 1_555
Ni10 P28 2.262115 1_555
Ni10 P30 2.271699 1_555
Ni10 P16 2.284696 1_555
Ni10 Sm3 3.001769 1_555
Ni10 Sm3 3.001769 1_655
Ni10 Sm9 3.009743 1_655
Ni10 Sm9 3.009743 1_555
Ni10 Sm21 3.016320 1_655
Ni10 Sm21 3.016320 1_555
Ni11 P29 2.262115 1_555
Ni11 P31 2.271699 1_555
Ni11 P17 2.284696 1_555
Ni11 Sm2 3.001769 1_455
Ni11 Sm2 3.001769 1_555
Ni11 Sm8 3.009743 1_455
Ni11 Sm8 3.009743 1_555
Ni11 Sm20 3.016320 1_555
Ni11 Sm20 3.016320 1_455
Ni12 P19 2.330303 1_565
Ni12 P19 2.330303 1_665
Ni12 P28 2.333362 1_555
Ni12 P18 2.347712 1_555
Ni12 Sm8 3.056238 1_565
Ni12 Sm16 3.058624 1_565
Ni12 Sm9 3.071591 1_655
Ni12 Sm9 3.071591 1_555
Ni13 P18 2.330303 1_445
Ni13 P18 2.330303 1_545
Ni13 P29 2.333362 1_555
Ni13 P19 2.347712 1_555
Ni13 Sm9 3.056238 1_545
Ni13 Sm17 3.058624 1_545
Ni13 Sm8 3.071591 1_555
Ni13 Sm8 3.071591 1_455
Ni14 P21 2.330303 1_554
Ni14 P21 2.330303 1_654
Ni14 P24 2.333362 1_555
Ni14 P20 2.347712 1_555
Ni14 Sm10 3.056238 1_554
Ni14 Sm12 3.058624 1_554
Ni14 Sm11 3.071591 1_555
Ni14 Sm11 3.071591 1_655
Ni15 P20 2.330303 1_556
Ni15 P20 2.330303 1_456
Ni15 P25 2.333362 1_555
Ni15 P21 2.347712 1_555
Ni15 Sm11 3.056238 1_556
Ni15 Sm13 3.058624 1_556
Ni15 Sm10 3.071591 1_455
Ni15 Sm10 3.071591 1_555
Ni16 P23 2.330303 1_655
Ni16 P23 2.330303 1_555
Ni16 P26 2.333362 1_555
Ni16 P22 2.347712 1_555
Ni16 Sm6 3.056238 1_555
Ni16 Sm14 3.058624 1_555
Ni16 Sm7 3.071591 1_555
Ni16 Sm7 3.071591 1_655
Ni17 P22 2.330303 1_455
Ni17 P22 2.330303 1_555
Ni17 P27 2.333362 1_555
Ni17 P23 2.347712 1_555
Ni17 Sm7 3.056238 1_555
Ni17 Sm15 3.058624 1_555
Ni17 Sm6 3.071591 1_555
Ni17 Sm6 3.071591 1_455
Ni18 P32 2.272926 1_555
Ni18 P30 2.272930 1_555
Ni18 P34 2.272949 1_555
Ni18 Sm23 3.009926 1_655
Ni18 Sm23 3.009926 1_555
Ni18 Sm19 3.009940 1_555
Ni18 Sm19 3.009940 1_655
Ni18 Sm21 3.009943 1_655
Ni18 Sm21 3.009943 1_555
Ni19 P33 2.272926 1_555
Ni19 P31 2.272930 1_555
Ni19 P35 2.272949 1_555
Ni19 Sm22 3.009926 1_455
Ni19 Sm22 3.009926 1_555
Ni19 Sm18 3.009940 1_555
Ni19 Sm18 3.009940 1_455
Ni19 Sm20 3.009943 1_555
Ni19 Sm20 3.009943 1_455
Ni20 P4 2.181757 1_555
Ni20 P3 2.392836 1_555
Ni20 P3 2.392836 1_655
Ni20 Sm24 3.110433 1_555
Ni21 P5 2.181757 1_555
Ni21 P2 2.392836 1_455
Ni21 P2 2.392836 1_555
Ni21 Sm25 3.110433 1_555
Ni22 P0 2.181757 1_545
Ni22 P5 2.392836 1_555
Ni22 P5 2.392836 1_655
Ni22 Sm26 3.110433 1_555
Ni23 P1 2.181757 1_565
Ni23 P4 2.392836 1_555
Ni23 P4 2.392836 1_455
Ni23 Sm27 3.110433 1_555
Ni24 P2 2.181757 1_556
Ni24 P1 2.392836 1_655
Ni24 P1 2.392836 1_555
Ni24 Sm28 3.110433 1_555
Ni25 P3 2.181757 1_554
Ni25 P0 2.392836 1_455
Ni25 P0 2.392836 1_555
Ni25 Sm29 3.110433 1_555
Ni26 P6 2.317785 1_555
Ni26 P39 2.338356 1_654
Ni26 P39 2.338356 1_554
Ni26 P24 2.344797 1_555
Ni26 Sm12 3.059944 1_554
Ni26 Sm5 3.080889 1_555
Ni26 Sm5 3.080889 1_655
Ni26 Sm24 3.098014 1_554
Ni27 P7 2.317785 1_555
Ni27 P38 2.338356 1_556
Ni27 P38 2.338356 1_456
Ni27 P25 2.344797 1_555
Ni27 Sm13 3.059944 1_556
Ni27 Sm4 3.080889 1_455
Ni27 Sm4 3.080889 1_555
Ni27 Sm25 3.098014 1_556
Ni28 P8 2.317785 1_555
Ni28 P41 2.338356 1_655
Ni28 P41 2.338356 1_555
Ni28 P26 2.344797 1_555
Ni28 Sm14 3.059944 1_555
Ni28 Sm1 3.080889 1_655
Ni28 Sm1 3.080889 1_555
Ni28 Sm26 3.098014 1_555
Ni29 P9 2.317785 1_555
Ni29 P40 2.338356 1_455
Ni29 P40 2.338356 1_555
Ni29 P27 2.344797 1_555
Ni29 Sm15 3.059944 1_555
Ni29 Sm0 3.080889 1_455
Ni29 Sm0 3.080889 1_555
Ni29 Sm27 3.098014 1_555
Ni30 P10 2.317785 1_555
Ni30 P37 2.338356 1_565
Ni30 P37 2.338356 1_665
Ni30 P28 2.344797 1_555
Ni30 Sm16 3.059944 1_565
Ni30 Sm3 3.080889 1_555
Ni30 Sm3 3.080889 1_655
Ni30 Sm28 3.098014 1_565
Ni31 P11 2.317785 1_555
Ni31 P36 2.338356 1_445
Ni31 P36 2.338356 1_545
Ni31 P29 2.344797 1_555
Ni31 Sm17 3.059944 1_545
Ni31 Sm2 3.080889 1_455
Ni31 Sm2 3.080889 1_555
Ni31 Sm29 3.098014 1_545
Ni32 P0 2.286166 1_555
Ni32 P6 2.288319 1_555
Ni32 P3 2.411371 1_654
Ni32 P3 2.411371 1_554
Ni32 Sm29 3.072904 1_555
Ni32 Sm29 3.072904 1_655
Ni32 Sm24 3.156670 1_554
Ni33 P1 2.286166 1_555
Ni33 P7 2.288319 1_555
Ni33 P2 2.411371 1_456
Ni33 P2 2.411371 1_556
Ni33 Sm28 3.072904 1_555
Ni33 Sm28 3.072904 1_455
Ni33 Sm25 3.156670 1_556
Ni34 P2 2.286166 1_555
Ni34 P8 2.288319 1_555
Ni34 P5 2.411371 1_655
Ni34 P5 2.411371 1_555
Ni34 Sm25 3.072904 1_555
Ni34 Sm25 3.072904 1_655
Ni34 Sm26 3.156670 1_555
Ni35 P3 2.286166 1_555
Ni35 P9 2.288319 1_555
Ni35 P4 2.411371 1_555
Ni35 P4 2.411371 1_455
Ni35 Sm24 3.072904 1_455
Ni35 Sm24 3.072904 1_555
Ni35 Sm27 3.156670 1_555
Ni36 P4 2.286166 1_555
Ni36 P10 2.288319 1_555
Ni36 P1 2.411371 1_565
Ni36 P1 2.411371 1_665
Ni36 Sm27 3.072904 1_555
Ni36 Sm27 3.072904 1_655
Ni36 Sm28 3.156670 1_565
Ni37 P5 2.286166 1_555
Ni37 P11 2.288319 1_555
Ni37 P0 2.411371 1_445
Ni37 P0 2.411371 1_545
Ni37 Sm26 3.072904 1_455
Ni37 Sm26 3.072904 1_555
Ni37 Sm29 3.156670 1_545
Ni38 P18 2.256455 1_555
Ni38 P30 2.277481 1_555
Ni38 P12 2.284823 1_555
Ni38 Sm23 2.996689 1_655
Ni38 Sm23 2.996689 1_555
Ni38 Sm17 3.001187 1_555
Ni38 Sm17 3.001187 1_655
Ni38 Sm9 3.009832 1_655
Ni38 Sm9 3.009832 1_555
Ni39 P19 2.256455 1_555
Ni39 P31 2.277481 1_555
Ni39 P13 2.284823 1_555
Ni39 Sm22 2.996689 1_455
Ni39 Sm22 2.996689 1_555
Ni39 Sm16 3.001187 1_455
Ni39 Sm16 3.001187 1_555
Ni39 Sm8 3.009832 1_455
Ni39 Sm8 3.009832 1_555
Ni40 P20 2.256455 1_555
Ni40 P32 2.277481 1_555
Ni40 P14 2.284823 1_555
Ni40 Sm19 2.996689 1_555
Ni40 Sm19 2.996689 1_655
Ni40 Sm13 3.001187 1_555
Ni40 Sm13 3.001187 1_655
Ni40 Sm11 3.009832 1_655
Ni40 Sm11 3.009832 1_555
Ni41 P21 2.256455 1_555
Ni41 P33 2.277481 1_555
Ni41 P15 2.284823 1_555
Ni41 Sm18 2.996689 1_455
Ni41 Sm18 2.996689 1_555
Ni41 Sm12 3.001187 1_455
Ni41 Sm12 3.001187 1_555
Ni41 Sm10 3.009832 1_555
Ni41 Sm10 3.009832 1_455
Ni42 P22 2.256455 1_555
Ni42 P34 2.277481 1_555
Ni42 P16 2.284823 1_555
Ni42 Sm21 2.996689 1_655
Ni42 Sm21 2.996689 1_555
Ni42 Sm15 3.001187 1_555
Ni42 Sm15 3.001187 1_655
Ni42 Sm7 3.009832 1_555
Ni42 Sm7 3.009832 1_655
Ni43 P23 2.256455 1_555
Ni43 P35 2.277481 1_555
Ni43 P17 2.284823 1_555
Ni43 Sm20 2.996689 1_555
Ni43 Sm20 2.996689 1_455
Ni43 Sm14 3.001187 1_455
Ni43 Sm14 3.001187 1_555
Ni43 Sm6 3.009832 1_455
Ni43 Sm6 3.009832 1_555
Ni44 P4 2.316513 1_555
Ni44 P40 2.344286 1_555
Ni44 P9 2.364186 1_555
Ni44 P9 2.364186 1_655
Ni44 Sm27 3.076597 1_655
Ni44 Sm27 3.076597 1_555
Ni44 Sm0 3.134671 1_555
Ni44 Sm24 3.138013 1_555
Ni45 P5 2.316513 1_555
Ni45 P41 2.344286 1_555
Ni45 P8 2.364186 1_455
Ni45 P8 2.364186 1_555
Ni45 Sm26 3.076597 1_455
Ni45 Sm26 3.076597 1_555
Ni45 Sm1 3.134671 1_555
Ni45 Sm25 3.138013 1_555
Ni46 P0 2.316513 1_545
Ni46 P36 2.344286 1_545
Ni46 P11 2.364186 1_655
Ni46 P11 2.364186 1_555
Ni46 Sm29 3.076596 1_645
Ni46 Sm29 3.076596 1_545
Ni46 Sm2 3.134671 1_555
Ni46 Sm26 3.138013 1_555
Ni47 P1 2.316513 1_565
Ni47 P37 2.344286 1_565
Ni47 P10 2.364186 1_455
Ni47 P10 2.364186 1_555
Ni47 Sm28 3.076596 1_465
Ni47 Sm28 3.076596 1_565
Ni47 Sm3 3.134671 1_555
Ni47 Sm27 3.138013 1_555
Ni48 P2 2.316513 1_556
Ni48 P38 2.344286 1_556
Ni48 P7 2.364187 1_655
Ni48 P7 2.364187 1_555
Ni48 Sm25 3.076596 1_556
Ni48 Sm25 3.076596 1_656
Ni48 Sm4 3.134671 1_555
Ni48 Sm28 3.138013 1_555
Ni49 P3 2.316513 1_554
Ni49 P39 2.344286 1_554
Ni49 P6 2.364187 1_555
Ni49 P6 2.364187 1_455
Ni49 Sm24 3.076596 1_554
Ni49 Sm24 3.076596 1_454
Ni49 Sm5 3.134671 1_555
Ni49 Sm29 3.138013 1_555
Ni50 P36 2.255184 1_555
Ni50 P6 2.264944 1_555
Ni50 P12 2.272883 1_555
Ni50 Sm29 2.958589 1_555
Ni50 Sm29 2.958589 1_655
Ni50 Sm5 3.019754 1_655
Ni50 Sm5 3.019754 1_555
Ni50 Sm17 3.041891 1_555
Ni50 Sm17 3.041891 1_655
Ni51 P37 2.255184 1_555
Ni51 P7 2.264944 1_555
Ni51 P13 2.272883 1_555
Ni51 Sm28 2.958589 1_555
Ni51 Sm28 2.958589 1_455
Ni51 Sm4 3.019754 1_455
Ni51 Sm4 3.019754 1_555
Ni51 Sm16 3.041891 1_455
Ni51 Sm16 3.041891 1_555
Ni52 P38 2.255184 1_555
Ni52 P8 2.264944 1_555
Ni52 P14 2.272883 1_555
Ni52 Sm25 2.958589 1_655
Ni52 Sm25 2.958589 1_555
Ni52 Sm1 3.019754 1_555
Ni52 Sm1 3.019754 1_655
Ni52 Sm13 3.041891 1_555
Ni52 Sm13 3.041891 1_655
Ni53 P39 2.255184 1_555
Ni53 P9 2.264944 1_555
Ni53 P15 2.272883 1_555
Ni53 Sm24 2.958589 1_555
Ni53 Sm24 2.958589 1_455
Ni53 Sm0 3.019754 1_455
Ni53 Sm0 3.019754 1_555
Ni53 Sm12 3.041891 1_455
Ni53 Sm12 3.041891 1_555
Ni54 P40 2.255184 1_555
Ni54 P10 2.264944 1_555
Ni54 P16 2.272883 1_555
Ni54 Sm27 2.958589 1_655
Ni54 Sm27 2.958589 1_555
Ni54 Sm3 3.019754 1_555
Ni54 Sm3 3.019754 1_655
Ni54 Sm15 3.041891 1_655
Ni54 Sm15 3.041891 1_555
Ni55 P41 2.255184 1_555
Ni55 P11 2.264944 1_555
Ni55 P17 2.272883 1_555
Ni55 Sm26 2.958589 1_455
Ni55 Sm26 2.958589 1_555
Ni55 Sm2 3.019754 1_455
Ni55 Sm2 3.019754 1_555
Ni55 Sm14 3.041891 1_455
Ni55 Sm14 3.041891 1_555
P0 Sm29 2.982324 1_555
P0 Sm29 2.982324 1_655
P1 Sm28 2.982324 1_555
P1 Sm28 2.982324 1_455
P2 Sm25 2.982324 1_555
P2 Sm25 2.982324 1_655
P3 Sm24 2.982324 1_555
P3 Sm24 2.982324 1_455
P4 Sm27 2.982324 1_555
P4 Sm27 2.982324 1_655
P5 Sm26 2.982324 1_455
P5 Sm26 2.982324 1_555
P6 Sm5 2.967980 1_655
P6 Sm5 2.967980 1_555
P6 Sm29 3.008759 1_655
P6 Sm29 3.008759 1_555
P7 Sm4 2.967980 1_455
P7 Sm4 2.967980 1_555
P7 Sm28 3.008759 1_455
P7 Sm28 3.008759 1_555
P8 Sm1 2.967980 1_555
P8 Sm1 2.967980 1_655
P8 Sm25 3.008759 1_555
P8 Sm25 3.008759 1_655
P9 Sm0 2.967980 1_455
P9 Sm0 2.967980 1_555
P9 Sm24 3.008759 1_455
P9 Sm24 3.008759 1_555
P10 Sm3 2.967980 1_655
P10 Sm3 2.967980 1_555
P10 Sm27 3.008759 1_555
P10 Sm27 3.008759 1_655
P11 Sm2 2.967980 1_455
P11 Sm2 2.967980 1_555
P11 Sm26 3.008759 1_455
P11 Sm26 3.008759 1_555
P12 Sm23 2.990629 1_655
P12 Sm23 2.990629 1_555
P12 Sm17 3.028513 1_555
P12 Sm17 3.028513 1_655
P12 Sm5 3.038342 1_655
P12 Sm5 3.038342 1_555
P13 Sm22 2.990629 1_555
P13 Sm22 2.990629 1_455
P13 Sm16 3.028513 1_555
P13 Sm16 3.028513 1_455
P13 Sm4 3.038342 1_555
P13 Sm4 3.038342 1_455
P14 Sm19 2.990629 1_655
P14 Sm19 2.990629 1_555
P14 Sm13 3.028513 1_655
P14 Sm13 3.028513 1_555
P14 Sm1 3.038342 1_655
P14 Sm1 3.038342 1_555
P15 Sm18 2.990629 1_455
P15 Sm18 2.990629 1_555
P15 Sm12 3.028513 1_455
P15 Sm12 3.028513 1_555
P15 Sm0 3.038342 1_455
P15 Sm0 3.038342 1_555
P16 Sm21 2.990629 1_555
P16 Sm21 2.990629 1_655
P16 Sm15 3.028513 1_555
P16 Sm15 3.028513 1_655
P16 Sm3 3.038342 1_555
P16 Sm3 3.038342 1_655
P17 Sm20 2.990629 1_555
P17 Sm20 2.990629 1_455
P17 Sm14 3.028513 1_455
P17 Sm14 3.028513 1_555
P17 Sm2 3.038342 1_455
P17 Sm2 3.038342 1_555
P18 Sm9 2.971770 1_655
P18 Sm9 2.971770 1_555
P18 Sm17 2.977357 1_655
P18 Sm17 2.977357 1_555
P19 Sm8 2.971770 1_455
P19 Sm8 2.971770 1_555
P19 Sm16 2.977357 1_455
P19 Sm16 2.977357 1_555
P20 Sm11 2.971770 1_555
P20 Sm11 2.971770 1_655
P20 Sm13 2.977357 1_555
P20 Sm13 2.977357 1_655
P21 Sm10 2.971770 1_455
P21 Sm10 2.971770 1_555
P21 Sm12 2.977357 1_455
P21 Sm12 2.977357 1_555
P22 Sm7 2.971770 1_655
P22 Sm7 2.971770 1_555
P22 Sm15 2.977357 1_555
P22 Sm15 2.977357 1_655
P23 Sm6 2.971770 1_555
P23 Sm6 2.971770 1_455
P23 Sm14 2.977357 1_455
P23 Sm14 2.977357 1_555
P24 Sm5 2.973202 1_655
P24 Sm5 2.973202 1_555
P24 Sm11 2.984182 1_555
P24 Sm11 2.984182 1_655
P25 Sm4 2.973202 1_455
P25 Sm4 2.973202 1_555
P25 Sm10 2.984182 1_455
P25 Sm10 2.984182 1_555
P26 Sm1 2.973202 1_555
P26 Sm1 2.973202 1_655
P26 Sm7 2.984182 1_655
P26 Sm7 2.984182 1_555
P27 Sm0 2.973202 1_455
P27 Sm0 2.973202 1_555
P27 Sm6 2.984182 1_555
P27 Sm6 2.984182 1_455
P28 Sm3 2.973202 1_655
P28 Sm3 2.973202 1_555
P28 Sm9 2.984182 1_655
P28 Sm9 2.984182 1_555
P29 Sm2 2.973202 1_455
P29 Sm2 2.973202 1_555
P29 Sm8 2.984182 1_455
P29 Sm8 2.984182 1_555
P30 Sm23 3.004506 1_555
P30 Sm23 3.004506 1_655
P30 Sm21 3.006067 1_655
P30 Sm21 3.006067 1_555
P30 Sm9 3.037344 1_655
P30 Sm9 3.037344 1_555
P31 Sm22 3.004506 1_555
P31 Sm22 3.004506 1_455
P31 Sm20 3.006067 1_555
P31 Sm20 3.006067 1_455
P31 Sm8 3.037344 1_455
P31 Sm8 3.037344 1_555
P32 Sm19 3.004506 1_655
P32 Sm19 3.004506 1_555
P32 Sm23 3.006067 1_555
P32 Sm23 3.006067 1_655
P32 Sm11 3.037344 1_555
P32 Sm11 3.037344 1_655
P33 Sm18 3.004506 1_555
P33 Sm18 3.004506 1_455
P33 Sm22 3.006067 1_555
P33 Sm22 3.006067 1_455
P33 Sm10 3.037344 1_555
P33 Sm10 3.037344 1_455
P34 Sm21 3.004506 1_555
P34 Sm21 3.004506 1_655
P34 Sm19 3.006067 1_655
P34 Sm19 3.006067 1_555
P34 Sm7 3.037344 1_555
P34 Sm7 3.037344 1_655
P35 Sm20 3.004506 1_455
P35 Sm20 3.004506 1_555
P35 Sm18 3.006067 1_555
P35 Sm18 3.006067 1_455
P35 Sm6 3.037344 1_455
P35 Sm6 3.037344 1_555
P36 Sm17 2.969700 1_555
P36 Sm17 2.969700 1_655
P36 Sm29 2.989444 1_655
P36 Sm29 2.989444 1_555
P37 Sm16 2.969700 1_455
P37 Sm16 2.969700 1_555
P37 Sm28 2.989444 1_555
P37 Sm28 2.989444 1_455
P38 Sm13 2.969701 1_555
P38 Sm13 2.969701 1_655
P38 Sm25 2.989444 1_655
P38 Sm25 2.989444 1_555
P39 Sm12 2.969701 1_455
P39 Sm12 2.969701 1_555
P39 Sm24 2.989444 1_455
P39 Sm24 2.989444 1_555
P40 Sm15 2.969701 1_655
P40 Sm15 2.969701 1_555
P40 Sm27 2.989444 1_655
P40 Sm27 2.989444 1_555
P41 Sm14 2.969701 1_455
P41 Sm14 2.969701 1_555
P41 Sm26 2.989444 1_455
P41 Sm26 2.989444 1_555
