# generated using pymatgen
data_CsH5N2
_symmetry_space_group_name_H-M   'P 1'
_cell_length_a   5.73243400
_cell_length_b   7.04868600
_cell_length_c   10.28279800
_cell_angle_alpha   90.00000000
_cell_angle_beta   90.00000000
_cell_angle_gamma   90.00000000
_symmetry_Int_Tables_number   1
_chemical_formula_structural   CsH5N2
_chemical_formula_sum   'Cs4 H20 N8'
_cell_volume   415.48804480
_cell_formula_units_Z   4
loop_
 _symmetry_equiv_pos_site_id
 _symmetry_equiv_pos_as_xyz
  1  'x, y, z'
loop_
 _atom_site_type_symbol
 _atom_site_label
 _atom_site_symmetry_multiplicity
 _atom_site_fract_x
 _atom_site_fract_y
 _atom_site_fract_z
 _atom_site_occupancy
  Cs  Cs0  1  0.25000000  0.29529700  0.91618300  1
  Cs  Cs1  1  0.25000000  0.79529700  0.58381700  1
  Cs  Cs2  1  0.75000000  0.70470300  0.08381700  1
  Cs  Cs3  1  0.75000000  0.20470300  0.41618300  1
  H  H0  1  0.25000000  0.23424400  0.63570500  1
  H  H1  1  0.25000000  0.73424400  0.86429500  1
  H  H2  1  0.75000000  0.76575600  0.36429500  1
  H  H3  1  0.75000000  0.26575600  0.13570500  1
  H  H4  1  0.25000000  0.38768600  0.52107500  1
  H  H5  1  0.25000000  0.88768600  0.97892500  1
  H  H6  1  0.75000000  0.61231400  0.47892500  1
  H  H7  1  0.75000000  0.11231400  0.02107500  1
  H  H8  1  0.25000000  0.76689700  0.24703300  1
  H  H9  1  0.25000000  0.26689700  0.25296700  1
  H  H10  1  0.75000000  0.23310300  0.75296700  1
  H  H11  1  0.75000000  0.73310300  0.74703300  1
  H  H12  1  0.39963800  0.59471400  0.31160200  1
  H  H13  1  0.10036200  0.09471400  0.18839800  1
  H  H14  1  0.89963800  0.40528600  0.68839800  1
  H  H15  1  0.60036200  0.90528600  0.81160200  1
  H  H16  1  0.60036200  0.40528600  0.68839800  1
  H  H17  1  0.89963800  0.90528600  0.81160200  1
  H  H18  1  0.10036200  0.59471400  0.31160200  1
  H  H19  1  0.39963800  0.09471400  0.18839800  1
  N  N0  1  0.25000000  0.37933900  0.62115900  1
  N  N1  1  0.25000000  0.87933900  0.87884100  1
  N  N2  1  0.75000000  0.62066100  0.37884100  1
  N  N3  1  0.75000000  0.12066100  0.12115900  1
  N  N4  1  0.25000000  0.62151300  0.25634500  1
  N  N5  1  0.25000000  0.12151300  0.24365500  1
  N  N6  1  0.75000000  0.37848700  0.74365500  1
  N  N7  1  0.75000000  0.87848700  0.75634500  1
loop_
_geom_bond_atom_site_label_1
_geom_bond_atom_site_label_2
_geom_bond_distance
_geom_bond_site_symmetry_2
Cs0 H0 2.916028 1_555
Cs0 H5 2.944667 1_545
Cs0 N1 2.956994 1_545
Cs0 N0 3.090969 1_555
Cs0 H1 3.139668 1_555
Cs0 H16 3.181360 1_555
Cs0 H14 3.181360 1_455
Cs0 H13 3.251139 1_556
Cs0 H19 3.251139 1_556
Cs0 H7 3.322965 1_456
Cs0 H7 3.322965 1_556
Cs0 H10 3.350243 1_555
Cs0 H10 3.350243 1_455
Cs0 N6 3.421457 1_555
Cs0 N6 3.421457 1_455
Cs0 H9 3.468863 1_556
Cs1 H1 2.916028 1_555
Cs1 H4 2.944667 1_555
Cs1 N0 2.956994 1_555
Cs1 N1 3.090969 1_555
Cs1 H0 3.139668 1_565
Cs1 H17 3.181360 1_455
Cs1 H15 3.181360 1_555
Cs1 H18 3.251139 1_555
Cs1 H12 3.251139 1_555
Cs1 H6 3.322965 1_455
Cs1 H6 3.322965 1_555
Cs1 H11 3.350243 1_455
Cs1 H11 3.350243 1_555
Cs1 N7 3.421457 1_555
Cs1 N7 3.421457 1_455
Cs1 H8 3.468863 1_555
Cs2 H2 2.916028 1_555
Cs2 H7 2.944667 1_565
Cs2 N3 2.956994 1_565
Cs2 N2 3.090969 1_555
Cs2 H3 3.139668 1_555
Cs2 H18 3.181360 1_655
Cs2 H12 3.181360 1_555
Cs2 H17 3.251139 1_554
Cs2 H15 3.251139 1_554
Cs2 H5 3.322965 1_554
Cs2 H5 3.322965 1_654
Cs2 H8 3.350243 1_655
Cs2 H8 3.350243 1_555
Cs2 N4 3.421457 1_655
Cs2 N4 3.421457 1_555
Cs2 H11 3.468863 1_554
Cs3 H3 2.916028 1_555
Cs3 H6 2.944667 1_555
Cs3 N2 2.956994 1_555
Cs3 N3 3.090969 1_555
Cs3 H2 3.139668 1_545
Cs3 H19 3.181360 1_555
Cs3 H13 3.181360 1_655
Cs3 H16 3.251139 1_555
Cs3 H14 3.251139 1_555
Cs3 H4 3.322965 1_555
Cs3 H4 3.322965 1_655
Cs3 H9 3.350243 1_655
Cs3 H9 3.350243 1_555
Cs3 N5 3.421457 1_555
Cs3 N5 3.421457 1_655
Cs3 H10 3.468863 1_555
H0 N0 1.033609 1_555
H1 N1 1.033609 1_555
H2 N2 1.033609 1_555
H3 N3 1.033609 1_555
H4 N0 1.030824 1_555
H5 N1 1.030824 1_555
H6 N2 1.030824 1_555
H7 N3 1.030824 1_555
H8 N4 1.029230 1_555
H9 N5 1.029230 1_555
H10 N6 1.029230 1_555
H11 N7 1.029230 1_555
H12 N4 1.046104 1_555
H13 N5 1.046104 1_555
H14 N6 1.046104 1_555
H15 N7 1.046104 1_555
H16 N6 1.046104 1_555
H17 N7 1.046104 1_555
H18 N4 1.046104 1_555
H19 N5 1.046104 1_555
