# generated using pymatgen
data_Ca2Ga7Ag
_symmetry_space_group_name_H-M   'P 1'
_cell_length_a   4.24434489
_cell_length_b   4.24434489
_cell_length_c   10.97816486
_cell_angle_alpha   90.00000000
_cell_angle_beta   90.00000000
_cell_angle_gamma   90.00000000
_symmetry_Int_Tables_number   1
_chemical_formula_structural   Ca2Ga7Ag
_chemical_formula_sum   'Ca2 Ga7 Ag1'
_cell_volume   197.76575066
_cell_formula_units_Z   1
loop_
 _symmetry_equiv_pos_site_id
 _symmetry_equiv_pos_as_xyz
  1  'x, y, z'
loop_
 _atom_site_type_symbol
 _atom_site_label
 _atom_site_symmetry_multiplicity
 _atom_site_fract_x
 _atom_site_fract_y
 _atom_site_fract_z
 _atom_site_occupancy
  Ca  Ca0  1  0.50000000  0.00000000  0.75012906  1
  Ca  Ca1  1  0.00000000  0.50000000  0.24987094  1
  Ga  Ga0  1  0.00000000  0.50000000  0.86156040  1
  Ga  Ga1  1  0.50000000  -0.00000000  0.36308358  1
  Ga  Ga2  1  0.50000000  -0.00000000  0.13843960  1
  Ga  Ga3  1  -0.00000000  0.50000000  0.63691642  1
  Ga  Ga4  1  0.00000000  0.00000000  0.50000000  1
  Ga  Ga5  1  0.00000000  0.00000000  0.00000000  1
  Ga  Ga6  1  0.50000000  0.50000000  0.50000000  1
  Ag  Ag0  1  0.50000000  0.50000000  -0.00000000  1
loop_
_geom_bond_atom_site_label_1
_geom_bond_atom_site_label_2
_geom_bond_distance
_geom_bond_site_symmetry_2
Ca0 Ga0 3.240945 1_655
Ca0 Ga0 3.240945 1_545
Ca0 Ga0 3.240945 1_645
Ca0 Ga0 3.240945 1_555
Ca0 Ga3 3.248377 1_655
Ca0 Ga3 3.248377 1_645
Ca0 Ga3 3.248377 1_545
Ca0 Ga3 3.248377 1_555
Ca0 Ga5 3.468191 1_656
Ca0 Ga5 3.468191 1_556
Ca0 Ga4 3.470432 1_655
Ca0 Ga6 3.470432 1_555
Ca0 Ga4 3.470432 1_555
Ca0 Ga6 3.470432 1_545
Ca1 Ga2 3.240945 1_565
Ca1 Ga2 3.240945 1_555
Ca1 Ga2 3.240945 1_465
Ca1 Ga2 3.240945 1_455
Ca1 Ga1 3.248377 1_565
Ca1 Ga1 3.248377 1_465
Ca1 Ga1 3.248377 1_455
Ca1 Ga1 3.248377 1_555
Ca1 Ga5 3.468191 1_565
Ca1 Ga5 3.468191 1_555
Ca1 Ga6 3.470432 1_555
Ca1 Ga6 3.470432 1_455
Ca1 Ga4 3.470432 1_555
Ca1 Ga4 3.470432 1_565
Ga0 Ga3 2.466179 1_555
Ga0 Ga5 2.610258 1_556
Ga0 Ga5 2.610258 1_566
Ga1 Ga2 2.466179 1_555
Ga1 Ga4 2.600557 1_555
Ga1 Ga6 2.600557 1_545
Ga1 Ga4 2.600557 1_655
Ga1 Ga6 2.600557 1_555
Ga2 Ga5 2.610258 1_555
Ga2 Ga5 2.610258 1_655
Ga3 Ga4 2.600557 1_555
Ga3 Ga6 2.600557 1_455
Ga3 Ga4 2.600557 1_565
Ga3 Ga6 2.600557 1_555
Ag0 Ga0 2.610258 1_654
Ag0 Ga2 2.610258 1_565
Ag0 Ga2 2.610258 1_555
Ag0 Ga0 2.610258 1_554
Ag0 Ca1 3.468191 1_555
Ag0 Ca0 3.468191 1_564
Ag0 Ca0 3.468191 1_554
Ag0 Ca1 3.468191 1_655
