# generated using pymatgen
data_Zr6Ga16Ru7
_symmetry_space_group_name_H-M   'P 1'
_cell_length_a   8.79323203
_cell_length_b   8.79323203
_cell_length_c   8.79323203
_cell_angle_alpha   60.00000000
_cell_angle_beta   60.00000000
_cell_angle_gamma   60.00000000
_symmetry_Int_Tables_number   1
_chemical_formula_structural   Zr6Ga16Ru7
_chemical_formula_sum   'Zr6 Ga16 Ru7'
_cell_volume   480.76251936
_cell_formula_units_Z   1
loop_
 _symmetry_equiv_pos_site_id
 _symmetry_equiv_pos_as_xyz
  1  'x, y, z'
loop_
 _atom_site_type_symbol
 _atom_site_label
 _atom_site_symmetry_multiplicity
 _atom_site_fract_x
 _atom_site_fract_y
 _atom_site_fract_z
 _atom_site_occupancy
  Zr  Zr0  1  0.70866800  0.70866800  0.29133200  1
  Zr  Zr1  1  0.29133200  0.70866800  0.29133200  1
  Zr  Zr2  1  0.70866800  0.29133200  0.29133200  1
  Zr  Zr3  1  0.29133200  0.29133200  0.70866800  1
  Zr  Zr4  1  0.70866800  0.29133200  0.70866800  1
  Zr  Zr5  1  0.29133200  0.70866800  0.70866800  1
  Ga  Ga0  1  0.87822600  0.87822600  0.36532300  1
  Ga  Ga1  1  0.87822600  0.36532300  0.87822600  1
  Ga  Ga2  1  0.36532300  0.87822600  0.87822600  1
  Ga  Ga3  1  0.87822600  0.87822600  0.87822600  1
  Ga  Ga4  1  0.12177400  0.12177400  0.63467700  1
  Ga  Ga5  1  0.12177400  0.63467700  0.12177400  1
  Ga  Ga6  1  0.63467700  0.12177400  0.12177400  1
  Ga  Ga7  1  0.12177400  0.12177400  0.12177400  1
  Ga  Ga8  1  0.65689500  0.65689500  0.02931400  1
  Ga  Ga9  1  0.65689500  0.02931400  0.65689500  1
  Ga  Ga10  1  0.02931400  0.65689500  0.65689500  1
  Ga  Ga11  1  0.65689500  0.65689500  0.65689500  1
  Ga  Ga12  1  0.34310500  0.34310500  0.97068600  1
  Ga  Ga13  1  0.34310500  0.97068600  0.34310500  1
  Ga  Ga14  1  0.97068600  0.34310500  0.34310500  1
  Ga  Ga15  1  0.34310500  0.34310500  0.34310500  1
  Ru  Ru0  1  0.00000000  0.00000000  0.00000000  1
  Ru  Ru1  1  0.00000000  0.00000000  0.50000000  1
  Ru  Ru2  1  0.50000000  0.00000000  0.50000000  1
  Ru  Ru3  1  0.00000000  0.50000000  0.50000000  1
  Ru  Ru4  1  0.50000000  0.50000000  0.00000000  1
  Ru  Ru5  1  0.00000000  0.50000000  0.00000000  1
  Ru  Ru6  1  0.50000000  0.00000000  0.00000000  1
loop_
_geom_bond_atom_site_label_1
_geom_bond_atom_site_label_2
_geom_bond_distance
_geom_bond_site_symmetry_2
Ga0 Ru0 2.622889 1_665
Ga0 Ru1 2.716311 1_665
Ga0 Ru2 2.716318 1_565
Ga0 Ru3 2.716318 1_655
Ga0 Zr1 3.005374 1_655
Ga0 Zr2 3.005374 1_565
Ga0 Zr0 3.005381 1_555
Ga1 Ru0 2.622889 1_656
Ga1 Ru5 2.716311 1_656
Ga1 Ru4 2.716318 1_556
Ga1 Ru3 2.716318 1_655
Ga1 Zr2 3.005374 1_556
Ga1 Zr3 3.005374 1_655
Ga1 Zr4 3.005381 1_555
Ga2 Ru0 2.622889 1_566
Ga2 Ru6 2.716311 1_566
Ga2 Ru2 2.716318 1_565
Ga2 Ru4 2.716318 1_556
Ga2 Zr1 3.005374 1_556
Ga2 Zr3 3.005374 1_565
Ga2 Zr5 3.005381 1_555
Ga3 Ru0 2.622882 1_666
Ga3 Ru1 2.716318 1_665
Ga3 Ru6 2.716318 1_566
Ga3 Ru5 2.716318 1_656
Ga3 Zr4 3.005375 1_565
Ga3 Zr5 3.005375 1_655
Ga3 Zr0 3.005375 1_556
Ga4 Ru0 2.622889 1_556
Ga4 Ru1 2.716311 1_555
Ga4 Ru3 2.716318 1_555
Ga4 Ru2 2.716318 1_555
Ga4 Zr5 3.005374 1_545
Ga4 Zr4 3.005374 1_455
Ga4 Zr3 3.005381 1_555
Ga5 Ru0 2.622889 1_565
Ga5 Ru5 2.716311 1_555
Ga5 Ru3 2.716318 1_555
Ga5 Ru4 2.716318 1_555
Ga5 Zr5 3.005374 1_554
Ga5 Zr0 3.005374 1_455
Ga5 Zr1 3.005381 1_555
Ga6 Ru0 2.622889 1_655
Ga6 Ru6 2.716311 1_555
Ga6 Ru4 2.716318 1_555
Ga6 Ru2 2.716318 1_555
Ga6 Zr0 3.005374 1_545
Ga6 Zr4 3.005374 1_554
Ga6 Zr2 3.005381 1_555
Ga7 Ru0 2.622882 1_555
Ga7 Ru6 2.716318 1_555
Ga7 Ru5 2.716318 1_555
Ga7 Ru1 2.716318 1_555
Ga7 Zr2 3.005375 1_455
Ga7 Zr1 3.005375 1_545
Ga7 Zr3 3.005375 1_554
Ga8 Ru4 2.547092 1_555
Ga8 Ru6 2.547100 1_565
Ga8 Ru5 2.547100 1_655
Ga8 Zr2 2.833349 1_555
Ga8 Zr1 2.833349 1_555
Ga8 Zr0 2.833355 1_555
Ga9 Ru2 2.547092 1_555
Ga9 Ru6 2.547100 1_556
Ga9 Ru1 2.547100 1_655
Ga9 Zr2 2.833349 1_555
Ga9 Zr3 2.833349 1_555
Ga9 Zr4 2.833355 1_555
Ga10 Ru3 2.547092 1_555
Ga10 Ru5 2.547100 1_556
Ga10 Ru1 2.547100 1_565
Ga10 Zr3 2.833349 1_555
Ga10 Zr1 2.833349 1_555
Ga10 Zr5 2.833355 1_555
Ga11 Ru2 2.547098 1_565
Ga11 Ru4 2.547098 1_556
Ga11 Ru3 2.547098 1_655
Ga11 Zr5 2.833346 1_555
Ga11 Zr0 2.833346 1_555
Ga11 Zr4 2.833346 1_555
Ga12 Ru4 2.547092 1_556
Ga12 Ru5 2.547100 1_556
Ga12 Ru6 2.547100 1_556
Ga12 Zr4 2.833349 1_555
Ga12 Zr5 2.833349 1_555
Ga12 Zr3 2.833355 1_555
Ga13 Ru2 2.547092 1_565
Ga13 Ru6 2.547100 1_565
Ga13 Ru1 2.547100 1_565
Ga13 Zr5 2.833349 1_555
Ga13 Zr0 2.833349 1_555
Ga13 Zr1 2.833355 1_555
Ga14 Ru3 2.547092 1_655
Ga14 Ru5 2.547100 1_655
Ga14 Ru1 2.547100 1_655
Ga14 Zr0 2.833349 1_555
Ga14 Zr4 2.833349 1_555
Ga14 Zr2 2.833355 1_555
Ga15 Ru2 2.547098 1_555
Ga15 Ru3 2.547098 1_555
Ga15 Ru4 2.547098 1_555
Ga15 Zr2 2.833346 1_555
Ga15 Zr1 2.833346 1_555
Ga15 Zr3 2.833346 1_555
Ru1 Zr5 3.151079 1_545
Ru1 Zr4 3.151079 1_455
Ru1 Zr1 3.151079 1_545
Ru1 Zr2 3.151079 1_455
Ru2 Zr2 3.151079 1_555
Ru2 Zr3 3.151079 1_555
Ru2 Zr5 3.151079 1_545
Ru2 Zr0 3.151079 1_545
Ru3 Zr3 3.151079 1_555
Ru3 Zr1 3.151079 1_555
Ru3 Zr0 3.151079 1_455
Ru3 Zr4 3.151079 1_455
Ru4 Zr2 3.151079 1_555
Ru4 Zr1 3.151079 1_555
Ru4 Zr4 3.151079 1_554
Ru4 Zr5 3.151079 1_554
Ru5 Zr0 3.151079 1_455
Ru5 Zr5 3.151079 1_554
Ru5 Zr2 3.151079 1_455
Ru5 Zr3 3.151079 1_554
Ru6 Zr4 3.151079 1_554
Ru6 Zr0 3.151079 1_545
Ru6 Zr1 3.151079 1_545
Ru6 Zr3 3.151079 1_554
