# generated using pymatgen
data_YUB8
_symmetry_space_group_name_H-M   'P 1'
_cell_length_a   7.08776212
_cell_length_b   7.08776212
_cell_length_c   3.98104000
_cell_angle_alpha   90.00000000
_cell_angle_beta   90.00000000
_cell_angle_gamma   90.02879762
_symmetry_Int_Tables_number   1
_chemical_formula_structural   YUB8
_chemical_formula_sum   'Y2 U2 B16'
_cell_volume   199.99298059
_cell_formula_units_Z   2
loop_
 _symmetry_equiv_pos_site_id
 _symmetry_equiv_pos_as_xyz
  1  'x, y, z'
loop_
 _atom_site_type_symbol
 _atom_site_label
 _atom_site_symmetry_multiplicity
 _atom_site_fract_x
 _atom_site_fract_y
 _atom_site_fract_z
 _atom_site_occupancy
  Y  Y0  1  0.68567500  0.31432500  0.00000000  1
  Y  Y1  1  0.31432500  0.68567500  0.00000000  1
  U  U0  1  0.81089000  0.81088900  0.00000000  1
  U  U1  1  0.18911000  0.18911000  0.00000000  1
  B  B0  1  0.03461100  0.67850700  0.50000000  1
  B  B1  1  0.96538900  0.32149300  0.50000000  1
  B  B2  1  0.45792600  0.17697800  0.50000000  1
  B  B3  1  0.54207400  0.82302200  0.50000000  1
  B  B4  1  0.17697800  0.45792600  0.50000000  1
  B  B5  1  0.82302200  0.54207400  0.50000000  1
  B  B6  1  0.67850700  0.03461100  0.50000000  1
  B  B7  1  0.32149300  0.96538900  0.50000000  1
  B  B8  1  0.41136500  0.41136500  0.50000000  1
  B  B9  1  0.58863500  0.58863500  0.50000000  1
  B  B10  1  0.08634100  0.91365900  0.50000000  1
  B  B11  1  0.91365900  0.08634100  0.50000000  1
  B  B12  1  0.00000000  0.50000000  0.79891000  1
  B  B13  1  0.50000000  0.00000000  0.79891000  1
  B  B14  1  0.00000000  0.50000000  0.20109000  1
  B  B15  1  0.50000000  0.00000000  0.20109000  1
loop_
_geom_bond_atom_site_label_1
_geom_bond_atom_site_label_2
_geom_bond_distance
_geom_bond_site_symmetry_2
B0 B10 1.706374 1_555
B0 B12 1.754044 1_555
B0 B14 1.754044 1_555
B0 B5 1.784017 1_455
B0 B4 1.861208 1_555
B0 U0 2.712645 1_455
B0 U0 2.712645 1_456
B0 Y1 2.809829 1_556
B0 Y1 2.809829 1_555
B1 B11 1.706374 1_555
B1 B14 1.754044 1_655
B1 B12 1.754044 1_655
B1 B4 1.784017 1_655
B1 B5 1.861208 1_555
B1 U1 2.712647 1_656
B1 U1 2.712647 1_655
B1 Y0 2.809829 1_556
B1 Y0 2.809829 1_555
B2 B8 1.693903 1_555
B2 B7 1.784017 1_545
B2 B6 1.861208 1_555
B2 Y0 2.741168 1_555
B2 Y0 2.741168 1_556
B2 U1 2.756794 1_555
B2 U1 2.756794 1_556
B3 B9 1.693903 1_555
B3 B6 1.784017 1_565
B3 B7 1.861208 1_555
B3 Y1 2.741168 1_556
B3 Y1 2.741168 1_555
B3 U0 2.756794 1_555
B3 U0 2.756794 1_556
B4 B8 1.693903 1_555
B4 Y1 2.741168 1_556
B4 Y1 2.741168 1_555
B4 U1 2.756794 1_555
B4 U1 2.756794 1_556
B5 B9 1.693903 1_555
B5 Y0 2.741168 1_556
B5 Y0 2.741168 1_555
B5 U0 2.756789 1_555
B5 U0 2.756789 1_556
B6 U0 2.712652 1_546
B6 U0 2.712652 1_545
B6 Y0 2.809829 1_556
B6 Y0 2.809829 1_555
B7 U1 2.712647 1_565
B7 U1 2.712647 1_566
B7 Y1 2.809829 1_556
B7 Y1 2.809829 1_555
B8 B9 1.776439 1_555
B8 Y0 2.866472 1_556
B8 Y1 2.866472 1_555
B8 Y0 2.866472 1_555
B8 Y1 2.866472 1_556
B8 U1 2.987098 1_556
B8 U1 2.987098 1_555
B9 Y0 2.866472 1_556
B9 Y1 2.866472 1_555
B9 Y0 2.866472 1_555
B9 Y1 2.866472 1_556
B9 U0 2.987095 1_555
B9 U0 2.987095 1_556
B10 B7 1.706374 1_555
B10 B11 1.731332 1_465
B10 U1 2.881477 1_566
B10 U1 2.881477 1_565
B10 U0 2.881478 1_455
B10 U0 2.881478 1_456
B10 Y1 3.031012 1_555
B10 Y1 3.031012 1_556
B11 B6 1.706374 1_555
B11 U1 2.881477 1_656
B11 U1 2.881477 1_655
B11 U0 2.881481 1_546
B11 U0 2.881481 1_545
B11 Y0 3.031012 1_556
B11 Y0 3.031012 1_555
B12 B14 1.601095 1_556
B12 B5 1.754652 1_455
B12 B4 1.754652 1_555
B12 U0 2.701087 1_456
B12 U1 2.701093 1_556
B12 Y0 2.707989 1_456
B12 Y1 2.707989 1_556
B13 B15 1.601095 1_556
B13 B6 1.754044 1_555
B13 B7 1.754044 1_545
B13 B3 1.754652 1_545
B13 B2 1.754652 1_555
B13 U1 2.701093 1_556
B13 U0 2.701097 1_546
B13 Y1 2.707989 1_546
B13 Y0 2.707989 1_556
B14 B5 1.754652 1_455
B14 B4 1.754652 1_555
B14 U0 2.701087 1_455
B14 U1 2.701093 1_555
B14 Y0 2.707989 1_455
B14 Y1 2.707989 1_555
B15 B6 1.754044 1_555
B15 B7 1.754044 1_545
B15 B3 1.754652 1_545
B15 B2 1.754652 1_555
B15 U1 2.701093 1_555
B15 U0 2.701097 1_545
B15 Y1 2.707989 1_545
B15 Y0 2.707989 1_555
