# generated using pymatgen
data_TaFeO4
_symmetry_space_group_name_H-M   'P 1'
_cell_length_a   6.15559000
_cell_length_b   7.45232888
_cell_length_c   6.59907474
_cell_angle_alpha   89.99998897
_cell_angle_beta   90.00000000
_cell_angle_gamma   65.60771038
_symmetry_Int_Tables_number   1
_chemical_formula_structural   TaFeO4
_chemical_formula_sum   'Ta4 Fe4 O16'
_cell_volume   275.70128898
_cell_formula_units_Z   4
loop_
 _symmetry_equiv_pos_site_id
 _symmetry_equiv_pos_as_xyz
  1  'x, y, z'
loop_
 _atom_site_type_symbol
 _atom_site_label
 _atom_site_symmetry_multiplicity
 _atom_site_fract_x
 _atom_site_fract_y
 _atom_site_fract_z
 _atom_site_occupancy
  Ta  Ta0  1  0.74999200  0.50001500  0.50000000  1
  Ta  Ta1  1  0.50000800  0.99998400  0.00000000  1
  Ta  Ta2  1  0.24999200  0.50001500  0.50000000  1
  Ta  Ta3  1  0.00000800  0.99998400  0.00000000  1
  Fe  Fe0  1  0.24998800  0.00002700  0.50000400  1
  Fe  Fe1  1  0.00001300  0.49997400  0.99999900  1
  Fe  Fe2  1  0.50001500  0.49997400  0.99999900  1
  Fe  Fe3  1  0.74998400  0.00002500  0.50000000  1
  O  O0  1  0.34579100  0.80841600  0.00000000  1
  O  O1  1  0.09579800  0.30840200  0.50000000  1
  O  O2  1  0.84579100  0.80841800  0.00000000  1
  O  O3  1  0.59579800  0.30840100  0.50000000  1
  O  O4  1  0.65420100  0.19159900  0.00000000  1
  O  O5  1  0.40421000  0.69158200  0.50000000  1
  O  O6  1  0.15420200  0.19159800  0.00000000  1
  O  O7  1  0.90420900  0.69158400  0.50000000  1
  O  O8  1  0.75000000  0.49999900  0.80065200  1
  O  O9  1  0.50000000  0.00000100  0.30065200  1
  O  O10  1  0.25000200  0.49999800  0.80065200  1
  O  O11  1  0.99999800  0.00000200  0.30065200  1
  O  O12  1  0.75000000  0.49999900  0.19934800  1
  O  O13  1  0.50000000  0.00000100  0.69934800  1
  O  O14  1  0.25000200  0.49999900  0.19934800  1
  O  O15  1  0.99999800  0.00000100  0.69934800  1
loop_
_geom_bond_atom_site_label_1
_geom_bond_atom_site_label_2
_geom_bond_distance
_geom_bond_site_symmetry_2
Fe0 O13 2.024522 1_555
Fe0 O15 2.024541 1_455
Fe0 O9 2.024556 1_555
Fe0 O11 2.024573 1_455
Fe0 O1 2.092981 1_555
Fe0 O5 2.093456 1_545
Fe1 O8 2.024542 1_455
Fe1 O10 2.024544 1_555
Fe1 O12 2.024551 1_456
Fe1 O14 2.024555 1_556
Fe1 O6 2.092988 1_556
Fe1 O2 2.093449 1_456
Fe2 O8 2.024528 1_555
Fe2 O12 2.024537 1_556
Fe2 O10 2.024544 1_555
Fe2 O14 2.024551 1_556
Fe2 O4 2.092981 1_556
Fe2 O0 2.093435 1_556
Fe3 O13 2.024525 1_555
Fe3 O9 2.024525 1_555
Fe3 O15 2.024553 1_555
Fe3 O11 2.024556 1_555
Fe3 O3 2.092988 1_555
Fe3 O7 2.093429 1_545
O0 Ta1 2.014613 1_555
O0 Ta3 2.014638 1_555
O1 Ta2 2.014808 1_555
O1 Ta0 2.014838 1_455
O2 Ta3 2.014600 1_655
O2 Ta1 2.014634 1_555
O3 Ta0 2.014815 1_555
O3 Ta2 2.014840 1_555
O4 Ta1 2.014817 1_545
O4 Ta3 2.014847 1_645
O5 Ta2 2.014611 1_555
O5 Ta0 2.014632 1_555
O6 Ta3 2.014815 1_545
O6 Ta1 2.014840 1_545
O7 Ta0 2.014620 1_555
O7 Ta2 2.014640 1_655
O8 Ta0 1.984025 1_555
O9 Ta1 1.984025 1_545
O10 Ta2 1.984025 1_555
O11 Ta3 1.984025 1_645
O12 Ta0 1.984025 1_555
O13 Ta1 1.984025 1_546
O14 Ta2 1.984025 1_555
O15 Ta3 1.984025 1_646
