# generated using pymatgen
data_NaNi2O3
_symmetry_space_group_name_H-M   'P 1'
_cell_length_a   5.22524541
_cell_length_b   10.09270108
_cell_length_c   5.22470003
_cell_angle_alpha   94.46135948
_cell_angle_beta   118.92818695
_cell_angle_gamma   94.46716878
_symmetry_Int_Tables_number   1
_chemical_formula_structural   NaNi2O3
_chemical_formula_sum   'Na4 Ni8 O12'
_cell_volume   238.30808995
_cell_formula_units_Z   4
loop_
 _symmetry_equiv_pos_site_id
 _symmetry_equiv_pos_as_xyz
  1  'x, y, z'
loop_
 _atom_site_type_symbol
 _atom_site_label
 _atom_site_symmetry_multiplicity
 _atom_site_fract_x
 _atom_site_fract_y
 _atom_site_fract_z
 _atom_site_occupancy
  Na  Na0  1  0.08010200  0.24996500  0.42005300  1
  Na  Na1  1  0.57960800  0.75003900  0.92046000  1
  Na  Na2  1  0.42003300  0.24994700  0.08007400  1
  Na  Na3  1  0.92045600  0.75004500  0.57961200  1
  Ni  Ni0  1  0.99307100  0.99853800  0.99312800  1
  Ni  Ni1  1  0.50675700  0.50135900  0.50672900  1
  Ni  Ni2  1  0.33422300  0.00031900  0.66416700  1
  Ni  Ni3  1  0.83536100  0.49971800  0.16579600  1
  Ni  Ni4  1  0.16578400  0.49970900  0.83532000  1
  Ni  Ni5  1  0.66419300  0.00035700  0.33421600  1
  Ni  Ni6  1  0.25002400  0.75001100  0.25001600  1
  Ni  Ni7  1  0.75003600  0.25006800  0.75003100  1
  O  O0  1  0.41897300  0.12520900  0.41903100  1
  O  O1  1  0.90213600  0.61681000  0.90218600  1
  O  O2  1  0.08128700  0.37489900  0.08121900  1
  O  O3  1  0.59784800  0.88320300  0.59779700  1
  O  O4  1  0.01986900  0.10693100  0.71863500  1
  O  O5  1  0.52000900  0.60347500  0.21838300  1
  O  O6  1  0.71861400  0.10692900  0.01999600  1
  O  O7  1  0.21838800  0.60343000  0.51999300  1
  O  O8  1  0.48015900  0.39304100  0.78145700  1
  O  O9  1  0.97998800  0.89644800  0.28165500  1
  O  O10  1  0.78144800  0.39304700  0.48002100  1
  O  O11  1  0.28163000  0.89650200  0.98002400  1
loop_
_geom_bond_atom_site_label_1
_geom_bond_atom_site_label_2
_geom_bond_distance
_geom_bond_site_symmetry_2
Na0 O0 2.253032 1_555
Na0 O2 2.254020 1_555
Na0 O6 2.303699 1_455
Na0 O8 2.303775 1_555
Na0 O4 2.317587 1_555
Na0 O10 2.317866 1_455
Na1 O3 2.268332 1_555
Na1 O1 2.268494 1_555
Na1 O9 2.320937 1_556
Na1 O7 2.322182 1_555
Na1 O11 2.337081 1_555
Na1 O5 2.337385 1_556
Na2 O0 2.253106 1_555
Na2 O2 2.253934 1_555
Na2 O10 2.303625 1_555
Na2 O4 2.303796 1_554
Na2 O6 2.317373 1_555
Na2 O8 2.317902 1_554
Na3 O3 2.268203 1_555
Na3 O1 2.268567 1_555
Na3 O11 2.321200 1_655
Na3 O5 2.321974 1_555
Na3 O9 2.336286 1_555
Na3 O7 2.338044 1_655
Ni0 O9 1.915502 1_556
Ni0 O11 1.915575 1_655
Ni0 O4 1.920328 1_665
Ni0 O6 1.920511 1_566
Ni0 O3 2.238511 1_555
Ni0 O0 2.421169 1_666
Ni1 O5 1.915189 1_555
Ni1 O7 1.915259 1_555
Ni1 O8 1.920465 1_555
Ni1 O10 1.920700 1_555
Ni1 O1 2.239594 1_555
Ni1 O2 2.418481 1_555
Ni2 O3 2.016658 1_545
Ni2 O0 2.034247 1_555
Ni2 O9 2.076592 1_445
Ni2 O6 2.094736 1_556
Ni2 O11 2.135330 1_545
Ni2 O4 2.148657 1_555
Ni3 O1 2.017208 1_554
Ni3 O2 2.036777 1_655
Ni3 O7 2.077284 1_655
Ni3 O8 2.093577 1_554
Ni3 O5 2.132916 1_555
Ni3 O10 2.146826 1_555
Ni4 O1 2.017846 1_455
Ni4 O2 2.036218 1_556
Ni4 O5 2.077609 1_556
Ni4 O10 2.093728 1_455
Ni4 O7 2.132415 1_555
Ni4 O8 2.147600 1_555
Ni5 O3 2.016450 1_545
Ni5 O0 2.034692 1_555
Ni5 O11 2.076599 1_544
Ni5 O4 2.094346 1_655
Ni5 O9 2.135704 1_545
Ni5 O6 2.147481 1_555
Ni6 O3 2.111035 1_555
Ni6 O1 2.111313 1_454
Ni6 O11 2.171377 1_554
Ni6 O9 2.171422 1_455
Ni6 O5 2.171939 1_555
Ni6 O7 2.172031 1_555
Ni7 O0 1.999616 1_555
Ni7 O2 2.000257 1_656
Ni7 O8 2.145197 1_555
Ni7 O10 2.145523 1_555
Ni7 O4 2.146160 1_655
Ni7 O6 2.146525 1_556
