# generated using pymatgen
data_RbMg14SiO16
_symmetry_space_group_name_H-M   'P 1'
_cell_length_a   8.64125685
_cell_length_b   8.64125685
_cell_length_c   4.51139828
_cell_angle_alpha   90.00000000
_cell_angle_beta   90.00000000
_cell_angle_gamma   90.00000000
_symmetry_Int_Tables_number   1
_chemical_formula_structural   RbMg14SiO16
_chemical_formula_sum   'Rb1 Mg14 Si1 O16'
_cell_volume   336.87206438
_cell_formula_units_Z   1
loop_
 _symmetry_equiv_pos_site_id
 _symmetry_equiv_pos_as_xyz
  1  'x, y, z'
loop_
 _atom_site_type_symbol
 _atom_site_label
 _atom_site_symmetry_multiplicity
 _atom_site_fract_x
 _atom_site_fract_y
 _atom_site_fract_z
 _atom_site_occupancy
  Rb  Rb0  1  0.50000000  0.50000000  -0.00000000  1
  Mg  Mg0  1  0.00000000  0.50000000  -0.00000000  1
  Mg  Mg1  1  0.50000000  0.00000000  -0.00000000  1
  Mg  Mg2  1  0.00000000  0.25068266  0.50000000  1
  Mg  Mg3  1  0.00000000  0.74931734  0.50000000  1
  Mg  Mg4  1  0.50000000  0.24827714  0.50000000  1
  Mg  Mg5  1  0.50000000  0.75172286  0.50000000  1
  Mg  Mg6  1  0.25068266  0.00000000  0.50000000  1
  Mg  Mg7  1  0.24827714  0.50000000  0.50000000  1
  Mg  Mg8  1  0.74931734  0.00000000  0.50000000  1
  Mg  Mg9  1  0.75172286  0.50000000  0.50000000  1
  Mg  Mg10  1  0.25077416  0.25077416  0.00000000  1
  Mg  Mg11  1  0.25077416  0.74922584  -0.00000000  1
  Mg  Mg12  1  0.74922584  0.25077416  0.00000000  1
  Mg  Mg13  1  0.74922584  0.74922584  -0.00000000  1
  Si  Si0  1  0.00000000  0.00000000  -0.00000000  1
  O  O0  1  0.22453474  0.00000000  -0.00000000  1
  O  O1  1  0.21805426  0.50000000  -0.00000000  1
  O  O2  1  0.77546526  0.00000000  0.00000000  1
  O  O3  1  0.78194574  0.50000000  0.00000000  1
  O  O4  1  0.24817119  0.24817119  0.50000000  1
  O  O5  1  0.24817119  0.75182881  0.50000000  1
  O  O6  1  0.75182881  0.24817119  0.50000000  1
  O  O7  1  0.75182881  0.75182881  0.50000000  1
  O  O8  1  0.00000000  0.00000000  0.50000000  1
  O  O9  1  0.00000000  0.50000000  0.50000000  1
  O  O10  1  0.50000000  0.00000000  0.50000000  1
  O  O11  1  0.50000000  0.50000000  0.50000000  1
  O  O12  1  0.00000000  0.22453474  0.00000000  1
  O  O13  1  0.00000000  0.77546526  -0.00000000  1
  O  O14  1  0.50000000  0.21805426  0.00000000  1
  O  O15  1  0.50000000  0.78194574  0.00000000  1
loop_
_geom_bond_atom_site_label_1
_geom_bond_atom_site_label_2
_geom_bond_distance
_geom_bond_site_symmetry_2
Mg0 O1 1.884263 1_555
Mg0 O3 1.884263 1_455
Mg0 O9 2.255699 1_555
Mg0 O9 2.255699 1_554
Mg0 O12 2.380366 1_555
Mg0 O13 2.380366 1_555
Mg1 O14 1.884263 1_555
Mg1 O15 1.884263 1_545
Mg1 O10 2.255699 1_555
Mg1 O10 2.255699 1_554
Mg1 O0 2.380366 1_555
Mg1 O2 2.380366 1_555
Mg2 O6 2.144621 1_455
Mg2 O4 2.144621 1_555
Mg2 O9 2.154415 1_555
Mg2 O8 2.166213 1_555
Mg2 O12 2.266988 1_556
Mg2 O12 2.266988 1_555
Mg3 O7 2.144621 1_455
Mg3 O5 2.144621 1_555
Mg3 O9 2.154415 1_555
Mg3 O8 2.166213 1_565
Mg3 O13 2.266988 1_555
Mg3 O13 2.266988 1_556
Mg4 O10 2.145427 1_555
Mg4 O11 2.175202 1_555
Mg4 O4 2.176118 1_555
Mg4 O6 2.176118 1_555
Mg4 O14 2.270768 1_556
Mg4 O14 2.270768 1_555
Mg5 O10 2.145427 1_565
Mg5 O11 2.175202 1_555
Mg5 O5 2.176118 1_555
Mg5 O7 2.176118 1_555
Mg5 O15 2.270768 1_556
Mg5 O15 2.270768 1_555
Mg6 O5 2.144621 1_545
Mg6 O4 2.144621 1_555
Mg6 O10 2.154415 1_555
Mg6 O8 2.166213 1_555
Mg6 O0 2.266988 1_555
Mg6 O0 2.266988 1_556
Mg7 O9 2.145427 1_555
Mg7 O11 2.175202 1_555
Mg7 O4 2.176118 1_555
Mg7 O5 2.176118 1_555
Mg7 O1 2.270768 1_555
Mg7 O1 2.270768 1_556
Mg8 O7 2.144621 1_545
Mg8 O6 2.144621 1_555
Mg8 O10 2.154415 1_555
Mg8 O8 2.166213 1_655
Mg8 O2 2.266988 1_556
Mg8 O2 2.266988 1_555
Mg9 O9 2.145427 1_655
Mg9 O11 2.175202 1_555
Mg9 O6 2.176118 1_555
Mg9 O7 2.176118 1_555
Mg9 O3 2.270768 1_556
Mg9 O3 2.270768 1_555
Mg10 O1 2.172105 1_555
Mg10 O14 2.172105 1_555
Mg10 O0 2.178834 1_555
Mg10 O12 2.178834 1_555
Mg10 O4 2.255923 1_555
Mg10 O4 2.255923 1_554
Mg11 O15 2.172105 1_555
Mg11 O1 2.172105 1_555
Mg11 O0 2.178834 1_565
Mg11 O13 2.178834 1_555
Mg11 O5 2.255923 1_555
Mg11 O5 2.255923 1_554
Mg12 O3 2.172105 1_555
Mg12 O14 2.172105 1_555
Mg12 O12 2.178834 1_655
Mg12 O2 2.178834 1_555
Mg12 O6 2.255923 1_555
Mg12 O6 2.255923 1_554
Mg13 O3 2.172105 1_555
Mg13 O15 2.172105 1_555
Mg13 O2 2.178834 1_565
Mg13 O13 2.178834 1_655
Mg13 O7 2.255923 1_555
Mg13 O7 2.255923 1_554
O0 Si0 1.940262 1_555
O1 Rb0 2.436366 1_555
O2 Si0 1.940262 1_655
O3 Rb0 2.436366 1_555
O8 Si0 2.255699 1_555
O8 Si0 2.255699 1_556
O11 Rb0 2.255699 1_555
O11 Rb0 2.255699 1_556
O12 Si0 1.940262 1_555
O13 Si0 1.940262 1_565
O14 Rb0 2.436366 1_555
O15 Rb0 2.436366 1_555
