# generated using pymatgen
data_Cd8Cu7P30
_symmetry_space_group_name_H-M   'P 1'
_cell_length_a   7.42472900
_cell_length_b   7.43844261
_cell_length_c   18.23281769
_cell_angle_alpha   89.65937439
_cell_angle_beta   89.67620302
_cell_angle_gamma   60.06402077
_symmetry_Int_Tables_number   1
_chemical_formula_structural   Cd8Cu7P30
_chemical_formula_sum   'Cd8 Cu7 P30'
_cell_volume   872.60378940
_cell_formula_units_Z   1
loop_
 _symmetry_equiv_pos_site_id
 _symmetry_equiv_pos_as_xyz
  1  'x, y, z'
loop_
 _atom_site_type_symbol
 _atom_site_label
 _atom_site_symmetry_multiplicity
 _atom_site_fract_x
 _atom_site_fract_y
 _atom_site_fract_z
 _atom_site_occupancy
  Cd  Cd0  1  0.87284700  0.25634500  0.46416100  1
  Cd  Cd1  1  0.20652500  0.58869100  0.80403900  1
  Cd  Cd2  1  0.66175100  0.68514700  0.25534100  1
  Cd  Cd3  1  0.00028000  0.00074000  0.59477300  1
  Cd  Cd4  1  0.33977900  0.31993700  0.93215000  1
  Cd  Cd5  1  0.54143700  0.54143700  0.13351600  1
  Cd  Cd6  1  0.87325800  0.87262800  0.46769600  1
  Cd  Cd7  1  0.20719200  0.20581700  0.80224000  1
  Cu  Cu0  1  0.66393800  0.66809100  0.66742400  1
  Cu  Cu1  1  0.99751700  0.99990600  0.00067900  1
  Cu  Cu2  1  0.33129600  0.33376200  0.33326700  1
  Cu  Cu3  1  0.97996600  0.50347800  0.12886100  1
  Cu  Cu4  1  0.29654700  0.85227000  0.46255300  1
  Cu  Cu5  1  0.62857600  0.18556300  0.79686500  1
  Cu  Cu6  1  0.50673900  0.97334300  0.13098900  1
  P  P0  1  0.82832700  0.34061700  0.95759200  1
  P  P1  1  0.16263900  0.67544400  0.29081200  1
  P  P2  1  0.49492600  0.00901800  0.62420200  1
  P  P3  1  0.82583100  0.82915900  0.96029300  1
  P  P4  1  0.16349800  0.16135900  0.28898900  1
  P  P5  1  0.49513000  0.49580600  0.62422100  1
  P  P6  1  0.66568000  0.66830300  0.79588500  1
  P  P7  1  0.99770500  0.99631900  0.12784800  1
  P  P8  1  0.33297100  0.33399900  0.46136100  1
  P  P9  1  0.34087400  0.82992900  0.96039100  1
  P  P10  1  0.67170900  0.16354400  0.28830300  1
  P  P11  1  0.00634200  0.49650300  0.62467500  1
  P  P12  1  0.98002700  0.50720800  0.00271200  1
  P  P13  1  0.31341500  0.84394500  0.33551200  1
  P  P14  1  0.64623100  0.17626900  0.66959700  1
  P  P15  1  0.81070600  0.84501000  0.83851000  1
  P  P16  1  0.16280700  0.15852400  0.16751500  1
  P  P17  1  0.47982700  0.51037600  0.50251100  1
  P  P18  1  0.81241300  0.34390900  0.83619700  1
  P  P19  1  0.14737700  0.67422300  0.16977800  1
  P  P20  1  0.47924200  0.01075800  0.50281800  1
  P  P21  1  0.34845800  0.82729200  0.83990100  1
  P  P22  1  0.67330800  0.14696400  0.16786000  1
  P  P23  1  0.01439700  0.49263400  0.50414400  1
  P  P24  1  0.50924300  0.97737100  0.00609600  1
  P  P25  1  0.83721900  0.32334800  0.32449200  1
  P  P26  1  0.17297800  0.65191300  0.66380900  1
  P  P27  1  0.50617200  0.50565900  0.99642400  1
  P  P28  1  0.83991200  0.84326800  0.32939500  1
  P  P29  1  0.17298700  0.17417400  0.66360100  1
loop_
_geom_bond_atom_site_label_1
_geom_bond_atom_site_label_2
_geom_bond_distance
_geom_bond_site_symmetry_2
Cd0 P23 2.567634 1_655
Cd0 P25 2.581526 1_555
Cd0 P17 2.657812 1_555
Cd0 Cu4 3.081280 1_645
Cd1 P21 2.564439 1_555
Cd1 P26 2.587732 1_555
Cd1 P15 2.658570 1_455
Cd1 Cu5 3.074109 1_555
Cd2 P28 2.558935 1_555
Cd2 P25 2.647358 1_555
Cd2 P13 2.673883 1_555
Cd2 Cd5 2.806815 1_555
Cd2 Cu6 2.927457 1_555
Cd2 Cu3 3.084674 1_555
Cd3 P29 2.563583 1_555
Cd3 P26 2.572921 1_545
Cd3 P14 2.651635 1_455
Cd3 Cu4 3.068736 1_545
Cd4 P27 2.558736 1_555
Cd4 P24 2.583094 1_546
Cd4 P12 2.645580 1_456
Cd4 Cu5 3.084076 1_555
Cd5 P27 2.544033 1_554
Cd5 P19 2.659811 1_555
Cd5 P22 2.660518 1_555
Cd5 Cu6 3.092296 1_555
Cd6 P28 2.556387 1_555
Cd6 P23 2.560954 1_655
Cd6 P20 2.647781 1_565
Cd6 Cu4 3.070960 1_655
Cd7 P21 2.556773 1_545
Cd7 P29 2.565845 1_555
Cd7 P18 2.648019 1_455
Cd7 Cu5 3.057301 1_555
Cu0 P2 2.331979 1_565
Cu0 P11 2.334644 1_655
Cu0 P5 2.336659 1_555
Cu0 P6 2.342329 1_555
Cu1 P7 2.318644 1_555
Cu1 P9 2.325969 1_654
Cu1 P3 2.327632 1_554
Cu1 P0 2.329841 1_564
Cu2 P1 2.331950 1_555
Cu2 P8 2.335634 1_555
Cu2 P10 2.336306 1_555
Cu2 P4 2.338111 1_555
Cu3 P12 2.300054 1_555
Cu3 P19 2.304785 1_655
Cu3 P16 2.331584 1_655
Cu4 P13 2.318517 1_555
Cu4 P17 2.320638 1_555
Cu4 P20 2.320852 1_565
Cu5 P18 2.321713 1_555
Cu5 P15 2.322072 1_545
Cu5 P14 2.322907 1_555
Cu6 P24 2.277263 1_555
Cu6 P22 2.294157 1_565
Cu6 P16 2.311451 1_565
P0 P27 2.188632 1_555
P0 P12 2.212821 1_556
P0 P18 2.216530 1_555
P1 P28 2.191067 1_455
P1 P19 2.210643 1_555
P1 P13 2.216144 1_555
P2 P29 2.190685 1_555
P2 P20 2.216513 1_555
P10 P28 2.194649 1_545
P10 P25 2.198837 1_555
P10 P22 2.199841 1_555
P11 P29 2.193648 1_555
P11 P26 2.196238 1_555
P11 P23 2.198064 1_555
P12 P3 2.212596 1_554
P13 P4 2.212914 1_565
P14 P2 2.216412 1_555
P14 P5 2.217717 1_555
P15 P6 2.219318 1_555
P15 P3 2.223373 1_555
P16 P4 2.215098 1_555
P16 P7 2.231165 1_445
P17 P8 2.218511 1_555
P17 P5 2.221898 1_555
P18 P6 2.216722 1_555
P19 P7 2.211375 1_455
P20 P8 2.216633 1_555
P21 P6 2.190876 1_555
P21 P9 2.197229 1_555
P22 P7 2.210244 1_545
P23 P8 2.190904 1_555
P24 P3 2.200096 1_554
P24 P9 2.202504 1_554
P25 P4 2.194941 1_655
P26 P5 2.192918 1_555
P27 P9 2.188977 1_555
