# generated using pymatgen
data_KNa4GaO4
_symmetry_space_group_name_H-M   'P 1'
_cell_length_a   6.03818500
_cell_length_b   10.66154200
_cell_length_c   18.91911000
_cell_angle_alpha   90.00000000
_cell_angle_beta   90.00000000
_cell_angle_gamma   90.00000000
_symmetry_Int_Tables_number   1
_chemical_formula_structural   KNa4GaO4
_chemical_formula_sum   'K8 Na32 Ga8 O32'
_cell_volume   1217.94349264
_cell_formula_units_Z   8
loop_
 _symmetry_equiv_pos_site_id
 _symmetry_equiv_pos_as_xyz
  1  'x, y, z'
loop_
 _atom_site_type_symbol
 _atom_site_label
 _atom_site_symmetry_multiplicity
 _atom_site_fract_x
 _atom_site_fract_y
 _atom_site_fract_z
 _atom_site_occupancy
  K  K0  1  0.40973400  0.34239900  0.50235300  1
  K  K1  1  0.90973400  0.65760100  0.99764700  1
  K  K2  1  0.09026600  0.84239900  0.49764700  1
  K  K3  1  0.59026600  0.15760100  0.00235300  1
  K  K4  1  0.59026600  0.65760100  0.49764700  1
  K  K5  1  0.09026600  0.34239900  0.00235300  1
  K  K6  1  0.90973400  0.15760100  0.50235300  1
  K  K7  1  0.40973400  0.84239900  0.99764700  1
  Na  Na0  1  0.43895900  0.92967700  0.25308300  1
  Na  Na1  1  0.93895900  0.07032300  0.24691700  1
  Na  Na2  1  0.06104100  0.42967700  0.74691700  1
  Na  Na3  1  0.56104100  0.57032300  0.75308300  1
  Na  Na4  1  0.56104100  0.07032300  0.74691700  1
  Na  Na5  1  0.06104100  0.92967700  0.75308300  1
  Na  Na6  1  0.93895900  0.57032300  0.25308300  1
  Na  Na7  1  0.43895900  0.42967700  0.24691700  1
  Na  Na8  1  0.42254100  0.67629300  0.32244100  1
  Na  Na9  1  0.57745900  0.82370700  0.82244100  1
  Na  Na10  1  0.07745900  0.17629300  0.67755900  1
  Na  Na11  1  0.07745900  0.67629300  0.82244100  1
  Na  Na12  1  0.57745900  0.32370700  0.67755900  1
  Na  Na13  1  0.42254100  0.17629300  0.17755900  1
  Na  Na14  1  0.92254100  0.82370700  0.32244100  1
  Na  Na15  1  0.61056600  0.19474800  0.35318400  1
  Na  Na16  1  0.11056600  0.80525200  0.14681600  1
  Na  Na17  1  0.88943400  0.69474800  0.64681600  1
  Na  Na18  1  0.38943400  0.80525200  0.64681600  1
  Na  Na19  1  0.88943400  0.19474800  0.85318400  1
  Na  Na20  1  0.11056600  0.30525200  0.35318400  1
  Na  Na21  1  0.61056600  0.69474800  0.14681600  1
  Na  Na22  1  0.90429500  0.44545500  0.56672700  1
  Na  Na23  1  0.40429500  0.55454500  0.93327300  1
  Na  Na24  1  0.59570500  0.94545500  0.43327300  1
  Na  Na25  1  0.09570500  0.05454500  0.06672700  1
  Na  Na26  1  0.09570500  0.55454500  0.43327300  1
  Na  Na27  1  0.59570500  0.44545500  0.06672700  1
  Na  Na28  1  0.40429500  0.05454500  0.56672700  1
  Na  Na29  1  0.90429500  0.94545500  0.93327300  1
  Na  Na30  1  0.92254100  0.32370700  0.17755900  1
  Na  Na31  1  0.38943400  0.30525200  0.85318400  1
  Ga  Ga0  1  0.69979200  0.46262500  0.37186800  1
  Ga  Ga1  1  0.19979200  0.53737500  0.12813200  1
  Ga  Ga2  1  0.80020800  0.96262500  0.62813200  1
  Ga  Ga3  1  0.30020800  0.03737500  0.87186800  1
  Ga  Ga4  1  0.30020800  0.53737500  0.62813200  1
  Ga  Ga5  1  0.80020800  0.46262500  0.87186800  1
  Ga  Ga6  1  0.19979200  0.03737500  0.37186800  1
  Ga  Ga7  1  0.69979200  0.96262500  0.12813200  1
  O  O0  1  0.29088900  0.12904200  0.29046700  1
  O  O1  1  0.79088900  0.87095800  0.20953300  1
  O  O2  1  0.20911100  0.62904200  0.70953300  1
  O  O3  1  0.70911100  0.37095800  0.79046700  1
  O  O4  1  0.70911100  0.87095800  0.70953300  1
  O  O5  1  0.20911100  0.12904200  0.79046700  1
  O  O6  1  0.79088900  0.37095800  0.29046700  1
  O  O7  1  0.29088900  0.62904200  0.20953300  1
  O  O8  1  0.70168900  0.63216800  0.86399800  1
  O  O9  1  0.20168900  0.36783200  0.63600200  1
  O  O10  1  0.20168900  0.86783200  0.86399800  1
  O  O11  1  0.70168900  0.13216800  0.63600200  1
  O  O12  1  0.29831100  0.36783200  0.13600200  1
  O  O13  1  0.79831100  0.63216800  0.36399800  1
  O  O14  1  0.38770300  0.46427200  0.37398800  1
  O  O15  1  0.88770300  0.53572800  0.12601200  1
  O  O16  1  0.11229700  0.96427200  0.62601200  1
  O  O17  1  0.61229700  0.03572800  0.87398800  1
  O  O18  1  0.61229700  0.53572800  0.62601200  1
  O  O19  1  0.11229700  0.46427200  0.87398800  1
  O  O20  1  0.79831100  0.13216800  0.13600200  1
  O  O21  1  0.88770300  0.03572800  0.37398800  1
  O  O22  1  0.38770300  0.96427200  0.12601200  1
  O  O23  1  0.33400100  0.61421700  0.04929700  1
  O  O24  1  0.83400100  0.38578300  0.45070300  1
  O  O25  1  0.16599900  0.11421700  0.95070300  1
  O  O26  1  0.66599900  0.88578300  0.54929700  1
  O  O27  1  0.66599900  0.38578300  0.95070300  1
  O  O28  1  0.16599900  0.61421700  0.54929700  1
  O  O29  1  0.83400100  0.88578300  0.04929700  1
  O  O30  1  0.33400100  0.11421700  0.45070300  1
  O  O31  1  0.29831100  0.86783200  0.36399800  1
loop_
_geom_bond_atom_site_label_1
_geom_bond_atom_site_label_2
_geom_bond_distance
_geom_bond_site_symmetry_2
K0 O30 2.661270 1_555
K0 O14 2.757513 1_555
K0 O24 2.780583 1_555
K0 O9 2.836373 1_555
K1 O29 2.661270 1_556
K1 O15 2.757513 1_556
K1 O23 2.780583 1_656
K1 O8 2.836373 1_555
K2 O28 2.661270 1_555
K2 O16 2.757513 1_555
K2 O26 2.780583 1_455
K2 O31 2.836373 1_555
K3 O27 2.661270 1_554
K3 O17 2.757513 1_554
K3 O25 2.780583 1_554
K3 O20 2.836373 1_555
K4 O26 2.661270 1_555
K4 O18 2.757513 1_555
K4 O28 2.780583 1_555
K4 O13 2.836373 1_555
K5 O25 2.661270 1_554
K5 O19 2.757513 1_554
K5 O27 2.780583 1_454
K5 O12 2.836373 1_555
K6 O24 2.661270 1_555
K6 O21 2.757513 1_555
K6 O30 2.780583 1_655
K6 O11 2.836373 1_555
K7 O23 2.661270 1_556
K7 O22 2.757513 1_556
K7 O29 2.780583 1_556
K7 O10 2.836373 1_555
Na0 O31 2.357825 1_555
Na0 O1 2.363573 1_555
Na0 O0 2.411953 1_565
Na0 O22 2.451812 1_555
Na1 O20 2.357825 1_555
Na1 O0 2.363573 1_655
Na1 O1 2.411953 1_545
Na1 O21 2.451812 1_555
Na2 O9 2.357825 1_555
Na2 O3 2.363573 1_455
Na2 O2 2.411953 1_555
Na2 O19 2.451812 1_555
Na3 O8 2.357825 1_555
Na3 O2 2.363573 1_555
Na3 O3 2.411953 1_555
Na3 O18 2.451812 1_555
Na4 O11 2.357825 1_555
Na4 O5 2.363573 1_555
Na4 O4 2.411953 1_545
Na4 O17 2.451812 1_555
Na5 O10 2.357825 1_555
Na5 O4 2.363573 1_455
Na5 O5 2.411953 1_565
Na5 O16 2.451812 1_555
Na6 O13 2.357825 1_555
Na6 O7 2.363573 1_655
Na6 O6 2.411953 1_555
Na6 O15 2.451812 1_555
Na7 O12 2.357825 1_555
Na7 O6 2.363573 1_555
Na7 O7 2.411953 1_555
Na7 O14 2.451812 1_555
Na8 O31 2.313224 1_555
Na8 O7 2.334248 1_555
Na8 O13 2.446973 1_555
Na8 O14 2.470838 1_555
Na9 O8 2.313224 1_555
Na9 O4 2.334248 1_555
Na9 O10 2.446973 1_555
Na9 O17 2.470838 1_565
Na10 O9 2.313224 1_555
Na10 O5 2.334248 1_555
Na10 O11 2.446973 1_455
Na10 O16 2.470838 1_545
Na11 O10 2.313224 1_555
Na11 O2 2.334248 1_555
Na11 O8 2.446973 1_455
Na11 O19 2.470838 1_555
Na12 O11 2.313224 1_555
Na12 O3 2.334248 1_555
Na12 O9 2.446973 1_555
Na12 O18 2.470838 1_555
Na13 O12 2.313224 1_555
Na13 O0 2.334248 1_555
Na13 O20 2.446973 1_555
Na13 O22 2.470838 1_545
Na14 O13 2.313224 1_555
Na14 O1 2.334248 1_555
Na14 O31 2.446973 1_655
Na14 O21 2.470838 1_565
Na15 O0 2.371619 1_555
Na15 O21 2.414451 1_555
Na15 O6 2.474437 1_555
Na15 O30 2.632456 1_555
Na16 O1 2.371619 1_455
Na16 O22 2.414451 1_555
Na16 O7 2.474437 1_555
Na16 O29 2.632456 1_455
Na17 O2 2.371619 1_655
Na17 O18 2.414451 1_555
Na17 O4 2.474437 1_555
Na17 O28 2.632456 1_655
Na18 O4 2.371619 1_555
Na18 O16 2.414451 1_555
Na18 O2 2.474437 1_555
Na18 O26 2.632456 1_555
Na19 O5 2.371619 1_655
Na19 O17 2.414451 1_555
Na19 O3 2.474437 1_555
Na19 O25 2.632456 1_655
Na20 O6 2.371619 1_455
Na20 O14 2.414451 1_555
Na20 O0 2.474437 1_555
Na20 O24 2.632456 1_455
Na21 O7 2.371619 1_555
Na21 O15 2.414451 1_555
Na21 O1 2.474437 1_555
Na21 O23 2.632456 1_555
Na22 O18 2.300651 1_555
Na22 O24 2.324486 1_555
Na22 O9 2.372178 1_655
Na22 O28 2.417266 1_655
Na23 O19 2.300651 1_555
Na23 O23 2.324486 1_556
Na23 O8 2.372178 1_555
Na23 O27 2.417266 1_555
Na24 O21 2.300651 1_565
Na24 O26 2.324486 1_555
Na24 O31 2.372178 1_555
Na24 O30 2.417266 1_565
Na25 O22 2.300651 1_545
Na25 O25 2.324486 1_554
Na25 O20 2.372178 1_455
Na25 O29 2.417266 1_445
Na26 O14 2.300651 1_555
Na26 O28 2.324486 1_555
Na26 O13 2.372178 1_455
Na26 O24 2.417266 1_455
Na27 O15 2.300651 1_555
Na27 O27 2.324486 1_554
Na27 O12 2.372178 1_555
Na27 O23 2.417266 1_555
Na28 O16 2.300651 1_545
Na28 O30 2.324486 1_555
Na28 O11 2.372178 1_555
Na28 O26 2.417266 1_545
Na29 O17 2.300651 1_565
Na29 O29 2.324486 1_556
Na29 O10 2.372178 1_655
Na29 O25 2.417266 1_665
Na30 O20 2.313224 1_555
Na30 O6 2.334248 1_555
Na30 O12 2.446973 1_655
Na30 O15 2.470838 1_555
Na31 O3 2.371619 1_555
Na31 O19 2.414451 1_555
Na31 O5 2.474437 1_555
Na31 O27 2.632456 1_555
Ga0 O24 1.884789 1_555
Ga0 O14 1.884960 1_555
Ga0 O6 1.905101 1_555
Ga0 O13 1.908776 1_555
Ga1 O23 1.884789 1_555
Ga1 O15 1.884960 1_455
Ga1 O7 1.905101 1_555
Ga1 O12 1.908776 1_555
Ga2 O26 1.884789 1_555
Ga2 O16 1.884960 1_655
Ga2 O4 1.905101 1_555
Ga2 O11 1.908776 1_565
Ga3 O25 1.884789 1_555
Ga3 O17 1.884960 1_555
Ga3 O5 1.905101 1_555
Ga3 O10 1.908776 1_545
Ga4 O28 1.884789 1_555
Ga4 O18 1.884960 1_555
Ga4 O2 1.905101 1_555
Ga4 O9 1.908776 1_555
Ga5 O27 1.884789 1_555
Ga5 O19 1.884960 1_655
Ga5 O3 1.905101 1_555
Ga5 O8 1.908776 1_555
Ga6 O30 1.884789 1_555
Ga6 O21 1.884960 1_455
Ga6 O0 1.905101 1_555
Ga6 O31 1.908776 1_545
Ga7 O29 1.884789 1_555
Ga7 O22 1.884960 1_555
Ga7 O1 1.905101 1_555
Ga7 O20 1.908776 1_565
