# generated using pymatgen
data_CaYb4(Ru2O7)2
_symmetry_space_group_name_H-M   'P 1'
_cell_length_a   7.43362606
_cell_length_b   7.44122748
_cell_length_c   7.43099384
_cell_angle_alpha   58.84594840
_cell_angle_beta   58.89964316
_cell_angle_gamma   58.83268103
_symmetry_Int_Tables_number   1
_chemical_formula_structural   CaYb4(Ru2O7)2
_chemical_formula_sum   'Ca1 Yb4 Ru4 O14'
_cell_volume   283.08621633
_cell_formula_units_Z   1
loop_
 _symmetry_equiv_pos_site_id
 _symmetry_equiv_pos_as_xyz
  1  'x, y, z'
loop_
 _atom_site_type_symbol
 _atom_site_label
 _atom_site_symmetry_multiplicity
 _atom_site_fract_x
 _atom_site_fract_y
 _atom_site_fract_z
 _atom_site_occupancy
  Ca  Ca0  1  0.73708100  0.73892900  0.73706100  1
  Yb  Yb0  1  0.46535200  0.00721100  0.46697900  1
  Yb  Yb1  1  0.00726300  0.46566700  0.46775200  1
  Yb  Yb2  1  0.46651300  0.46614800  0.00724700  1
  Yb  Yb3  1  0.49334700  0.49267000  0.49159800  1
  Ru  Ru0  1  0.00923200  0.50429800  0.00910100  1
  Ru  Ru1  1  0.50311300  0.00929200  0.00847600  1
  Ru  Ru2  1  0.00865900  0.00929400  0.50283300  1
  Ru  Ru3  1  0.00638500  0.01018300  0.00643000  1
  O  O0  1  0.62017300  0.62045400  0.62001800  1
  O  O1  1  0.36968900  0.36931500  0.36987200  1
  O  O2  1  0.33762900  0.92765900  0.92494500  1
  O  O3  1  0.08791000  0.68434800  0.68490600  1
  O  O4  1  0.92288200  0.34179900  0.92228000  1
  O  O5  1  0.92580300  0.92830100  0.33707100  1
  O  O6  1  0.31950000  0.32032400  0.92970600  1
  O  O7  1  0.32049400  0.93168800  0.32043300  1
  O  O8  1  0.92962100  0.32089900  0.31996100  1
  O  O9  1  0.68500400  0.68411400  0.08773600  1
  O  O10  1  0.07841300  0.07516300  0.68215900  1
  O  O11  1  0.68201300  0.07492900  0.07909700  1
  O  O12  1  0.68489300  0.08861900  0.68459900  1
  O  O13  1  0.07977200  0.67869900  0.08048100  1
loop_
_geom_bond_atom_site_label_1
_geom_bond_atom_site_label_2
_geom_bond_distance
_geom_bond_site_symmetry_2
Ca0 O0 2.157816 1_555
Ca0 O9 2.264571 1_556
Ca0 O12 2.266112 1_565
Ca0 O3 2.266892 1_655
Ca0 O4 2.462841 1_555
Ca0 O2 2.483591 1_555
Ca0 O5 2.488627 1_555
O0 Yb0 2.331899 1_565
O0 Yb1 2.332635 1_655
O0 Yb2 2.333788 1_556
O0 Yb3 2.345179 1_555
O1 Yb1 2.194828 1_555
O1 Yb0 2.195843 1_555
O1 Yb2 2.196049 1_555
O1 Yb3 2.257695 1_555
O2 Ru3 2.021433 1_566
O2 Ru1 2.054257 1_566
O2 Yb0 2.827122 1_565
O2 Yb2 2.848203 1_556
O3 Ru0 1.989144 1_556
O3 Ru2 1.997083 1_565
O3 Yb3 2.525686 1_555
O4 Ru3 2.021012 1_656
O4 Ru0 2.080583 1_656
O4 Yb1 2.799951 1_655
O4 Yb2 2.811799 1_556
O5 Ru3 2.018720 1_665
O5 Ru2 2.048411 1_665
O5 Yb0 2.843421 1_565
O5 Yb1 2.855120 1_655
O6 Ru0 1.924445 1_556
O6 Ru1 1.927723 1_556
O6 Yb2 2.286632 1_556
O6 Yb3 2.638694 1_555
O7 Ru2 1.929370 1_565
O7 Ru1 1.930146 1_565
O7 Yb0 2.265452 1_565
O7 Yb3 2.642963 1_555
O8 Ru0 1.926301 1_655
O8 Ru2 1.929457 1_655
O8 Yb1 2.285212 1_655
O8 Yb3 2.626992 1_555
O9 Ru0 1.989172 1_655
O9 Ru1 1.997942 1_565
O9 Yb3 2.515136 1_555
O10 Ru2 1.984328 1_555
O10 Ru3 2.014070 1_556
O10 Yb0 2.380257 1_555
O10 Yb1 2.398226 1_555
O11 Ru1 1.985203 1_555
O11 Ru3 2.014814 1_655
O11 Yb0 2.386893 1_555
O11 Yb2 2.402994 1_555
O12 Ru2 1.990329 1_655
O12 Ru1 1.990652 1_556
O12 Yb3 2.518126 1_555
O13 Ru0 1.986060 1_555
O13 Ru3 2.048814 1_565
O13 Yb2 2.372867 1_555
O13 Yb1 2.376343 1_555
