# generated using pymatgen
data_KSO2
_symmetry_space_group_name_H-M   'P 1'
_cell_length_a   6.18359400
_cell_length_b   7.77566500
_cell_length_c   7.16386700
_cell_angle_alpha   90.00000000
_cell_angle_beta   90.00000000
_cell_angle_gamma   90.00000000
_symmetry_Int_Tables_number   1
_chemical_formula_structural   KSO2
_chemical_formula_sum   'K4 S4 O8'
_cell_volume   344.44986833
_cell_formula_units_Z   4
loop_
 _symmetry_equiv_pos_site_id
 _symmetry_equiv_pos_as_xyz
  1  'x, y, z'
loop_
 _atom_site_type_symbol
 _atom_site_label
 _atom_site_symmetry_multiplicity
 _atom_site_fract_x
 _atom_site_fract_y
 _atom_site_fract_z
 _atom_site_occupancy
  K  K0  1  0.75000000  0.86774100  0.35592100  1
  K  K1  1  0.25000000  0.13225900  0.64407900  1
  K  K2  1  0.25000000  0.63225900  0.85592100  1
  K  K3  1  0.75000000  0.36774100  0.14407900  1
  S  S0  1  0.75000000  0.88447700  0.85361600  1
  S  S1  1  0.25000000  0.11552300  0.14638400  1
  S  S2  1  0.25000000  0.61552300  0.35361600  1
  S  S3  1  0.75000000  0.38447700  0.64638400  1
  O  O0  1  0.95382300  0.88456500  0.73401100  1
  O  O1  1  0.04617700  0.11543500  0.26598900  1
  O  O2  1  0.04617700  0.61543500  0.23401100  1
  O  O3  1  0.45382300  0.11543500  0.26598900  1
  O  O4  1  0.95382300  0.38456500  0.76598900  1
  O  O5  1  0.54617700  0.88456500  0.73401100  1
  O  O6  1  0.54617700  0.38456500  0.76598900  1
  O  O7  1  0.45382300  0.61543500  0.23401100  1
loop_
_geom_bond_atom_site_label_1
_geom_bond_atom_site_label_2
_geom_bond_distance
_geom_bond_site_symmetry_2
K0 O1 2.734714 1_665
K0 O3 2.734714 1_565
K0 O2 2.822365 1_655
K0 O7 2.822365 1_555
K0 O5 2.990327 1_555
K0 O0 2.990327 1_555
K1 O5 2.734714 1_545
K1 O0 2.734714 1_445
K1 O6 2.822365 1_555
K1 O4 2.822365 1_455
K1 O3 2.990327 1_555
K1 O1 2.990327 1_555
K2 O4 2.734714 1_455
K2 O6 2.734714 1_555
K2 O5 2.822365 1_555
K2 O0 2.822365 1_455
K2 O7 2.990327 1_556
K2 O2 2.990327 1_556
K3 O2 2.734714 1_655
K3 O7 2.734714 1_555
K3 O1 2.822365 1_655
K3 O3 2.822365 1_555
K3 O6 2.990327 1_554
K3 O4 2.990327 1_554
O0 S0 1.524031 1_555
O1 S1 1.524031 1_555
O2 S2 1.524031 1_555
O3 S1 1.524031 1_555
O4 S3 1.524031 1_555
O5 S0 1.524031 1_555
O6 S3 1.524031 1_555
O7 S2 1.524031 1_555
