# generated using pymatgen
data_LiV3O4
_symmetry_space_group_name_H-M   'P 1'
_cell_length_a   4.27172900
_cell_length_b   4.27175200
_cell_length_c   8.73678000
_cell_angle_alpha   90.00002653
_cell_angle_beta   90.00001312
_cell_angle_gamma   90.00370192
_symmetry_Int_Tables_number   1
_chemical_formula_structural   LiV3O4
_chemical_formula_sum   'Li2 V6 O8'
_cell_volume   159.42672472
_cell_formula_units_Z   2
loop_
 _symmetry_equiv_pos_site_id
 _symmetry_equiv_pos_as_xyz
  1  'x, y, z'
loop_
 _atom_site_type_symbol
 _atom_site_label
 _atom_site_symmetry_multiplicity
 _atom_site_fract_x
 _atom_site_fract_y
 _atom_site_fract_z
 _atom_site_occupancy
  Li  Li0  1  0.00000000  0.00000000  0.00503100  1
  Li  Li1  1  0.49999900  0.50000000  0.50503600  1
  V  V0  1  0.00000100  0.00000500  0.49389400  1
  V  V1  1  0.00000200  0.50000400  0.75289000  1
  V  V2  1  0.50000000  0.00000400  0.75290400  1
  V  V3  1  0.49999900  0.49999200  0.99383300  1
  V  V4  1  0.49999900  0.00000000  0.25285700  1
  V  V5  1  0.00000000  0.49999600  0.25286100  1
  O  O0  1  0.49999900  0.99999700  0.00241000  1
  O  O1  1  0.99999900  0.50000200  0.50240400  1
  O  O2  1  0.00000200  0.50000300  0.00240700  1
  O  O3  1  0.49999900  0.00000200  0.50240400  1
  O  O4  1  0.99999700  0.99999700  0.25172900  1
  O  O5  1  0.49999900  0.50000100  0.75166800  1
  O  O6  1  0.50000100  0.50000000  0.23880100  1
  O  O7  1  0.00000300  0.99999800  0.73887000  1
loop_
_geom_bond_atom_site_label_1
_geom_bond_atom_site_label_2
_geom_bond_distance
_geom_bond_site_symmetry_2
Li0 O0 2.135983 1_545
Li0 O2 2.135986 1_545
Li0 O0 2.135992 1_445
Li0 O2 2.136012 1_555
Li0 O4 2.155346 1_445
Li0 O7 2.325390 1_544
Li1 O1 2.135988 1_455
Li1 O1 2.135988 1_555
Li1 O3 2.135991 1_555
Li1 O3 2.136008 1_565
Li1 O5 2.154770 1_555
Li1 O6 2.326037 1_555
O0 V3 2.137169 1_564
O0 V3 2.137211 1_554
O0 V2 2.179879 1_564
O0 V4 2.188100 1_565
O1 V0 2.137157 1_655
O1 V0 2.137183 1_665
O1 V5 2.180202 1_655
O1 V1 2.188441 1_655
O2 V3 2.137165 1_554
O2 V3 2.137190 1_454
O2 V1 2.179975 1_554
O2 V5 2.188161 1_555
O3 V0 2.137150 1_555
O3 V0 2.137167 1_655
O3 V4 2.180237 1_555
O3 V2 2.188563 1_555
O4 V0 2.115742 1_665
O4 V4 2.135879 1_565
O4 V5 2.135895 1_665
O4 V4 2.135896 1_665
O4 V5 2.135903 1_655
O5 V3 2.115742 1_555
O5 V1 2.135878 1_555
O5 V2 2.135890 1_555
O5 V1 2.135904 1_655
O5 V2 2.135916 1_565
O6 V5 2.139390 1_655
O6 V5 2.139398 1_555
O6 V4 2.139403 1_565
O6 V4 2.139404 1_555
O6 V3 2.140232 1_554
O7 V1 2.139360 1_555
O7 V2 2.139368 1_565
O7 V2 2.139394 1_465
O7 V1 2.139411 1_565
O7 V0 2.140301 1_565
