# generated using pymatgen
data_NbRh2
_symmetry_space_group_name_H-M   'P 1'
_cell_length_a   5.63515200
_cell_length_b   9.68074400
_cell_length_c   13.87965903
_cell_angle_alpha   77.84596424
_cell_angle_beta   90.00000000
_cell_angle_gamma   90.00000000
_symmetry_Int_Tables_number   1
_chemical_formula_structural   NbRh2
_chemical_formula_sum   'Nb16 Rh32'
_cell_volume   740.19772512
_cell_formula_units_Z   16
loop_
 _symmetry_equiv_pos_site_id
 _symmetry_equiv_pos_as_xyz
  1  'x, y, z'
loop_
 _atom_site_type_symbol
 _atom_site_label
 _atom_site_symmetry_multiplicity
 _atom_site_fract_x
 _atom_site_fract_y
 _atom_site_fract_z
 _atom_site_occupancy
  Nb  Nb0_0  1  0.00000000  0.11650000  0.16324350  1
  Nb  Nb0_1  1  0.00000000  0.11650000  0.66324350  1
  Nb  Nb0_2  1  0.00000000  0.61650000  0.16324350  1
  Nb  Nb0_3  1  0.00000000  0.61650000  0.66324350  1
  Nb  Nb0_4  1  0.50000000  0.11650000  0.16324350  1
  Nb  Nb0_5  1  0.50000000  0.11650000  0.66324350  1
  Nb  Nb0_6  1  0.50000000  0.61650000  0.16324350  1
  Nb  Nb0_7  1  0.50000000  0.61650000  0.66324350  1
  Nb  Nb1_0  1  0.00000000  0.38350000  0.33675650  1
  Nb  Nb1_1  1  0.00000000  0.38350000  0.83675650  1
  Nb  Nb1_2  1  0.00000000  0.88350000  0.33675650  1
  Nb  Nb1_3  1  0.00000000  0.88350000  0.83675650  1
  Nb  Nb1_4  1  0.50000000  0.38350000  0.33675650  1
  Nb  Nb1_5  1  0.50000000  0.38350000  0.83675650  1
  Nb  Nb1_6  1  0.50000000  0.88350000  0.33675650  1
  Nb  Nb1_7  1  0.50000000  0.88350000  0.83675650  1
  Rh  Rh0_0  1  0.25000000  0.36529600  0.16735100  1
  Rh  Rh0_1  1  0.25000000  0.36529600  0.66735100  1
  Rh  Rh0_2  1  0.25000000  0.86529600  0.16735100  1
  Rh  Rh0_3  1  0.25000000  0.86529600  0.66735100  1
  Rh  Rh0_4  1  0.75000000  0.36529600  0.16735100  1
  Rh  Rh0_5  1  0.75000000  0.36529600  0.66735100  1
  Rh  Rh0_6  1  0.75000000  0.86529600  0.16735100  1
  Rh  Rh0_7  1  0.75000000  0.86529600  0.66735100  1
  Rh  Rh1_0  1  0.25000000  0.13470400  0.33264900  1
  Rh  Rh1_1  1  0.25000000  0.13470400  0.83264900  1
  Rh  Rh1_2  1  0.25000000  0.63470400  0.33264900  1
  Rh  Rh1_3  1  0.25000000  0.63470400  0.83264900  1
  Rh  Rh1_4  1  0.75000000  0.13470400  0.33264900  1
  Rh  Rh1_5  1  0.75000000  0.13470400  0.83264900  1
  Rh  Rh1_6  1  0.75000000  0.63470400  0.33264900  1
  Rh  Rh1_7  1  0.75000000  0.63470400  0.83264900  1
  Rh  Rh2_0  1  0.25000000  0.25000000  0.00000000  1
  Rh  Rh2_1  1  0.25000000  0.25000000  0.50000000  1
  Rh  Rh2_2  1  0.25000000  0.75000000  0.00000000  1
  Rh  Rh2_3  1  0.25000000  0.75000000  0.50000000  1
  Rh  Rh2_4  1  0.75000000  0.25000000  0.00000000  1
  Rh  Rh2_5  1  0.75000000  0.25000000  0.50000000  1
  Rh  Rh2_6  1  0.75000000  0.75000000  0.00000000  1
  Rh  Rh2_7  1  0.75000000  0.75000000  0.50000000  1
  Rh  Rh3_0  1  0.00000000  0.00000000  0.00000000  1
  Rh  Rh3_1  1  0.00000000  0.00000000  0.50000000  1
  Rh  Rh3_2  1  0.00000000  0.50000000  0.00000000  1
  Rh  Rh3_3  1  0.00000000  0.50000000  0.50000000  1
  Rh  Rh3_4  1  0.50000000  0.00000000  0.00000000  1
  Rh  Rh3_5  1  0.50000000  0.00000000  0.50000000  1
  Rh  Rh3_6  1  0.50000000  0.50000000  0.00000000  1
  Rh  Rh3_7  1  0.50000000  0.50000000  0.50000000  1
loop_
_geom_bond_atom_site_label_1
_geom_bond_atom_site_label_2
_geom_bond_distance
_geom_bond_site_symmetry_2
Nb0_0 Rh3_0 2.735259 1_555
Nb0_0 Rh2_4 2.748744 1_455
Nb0_0 Rh2_0 2.748744 1_555
Nb0_0 Rh1_0 2.778271 1_555
Nb0_0 Rh1_4 2.778271 1_455
Nb0_0 Rh0_6 2.800609 1_445
Nb0_0 Rh0_2 2.800609 1_545
Nb0_0 Rh0_4 2.801209 1_455
Nb0_0 Rh0_0 2.801209 1_555
Nb0_0 Nb0_4 2.817576 1_555
Nb0_0 Nb0_4 2.817576 1_455
Nb0_0 Nb1_2 2.932629 1_545
Nb0_1 Rh3_1 2.735259 1_555
Nb0_1 Rh2_5 2.748744 1_455
Nb0_1 Rh2_1 2.748744 1_555
Nb0_1 Rh1_5 2.778271 1_455
Nb0_1 Rh1_1 2.778271 1_555
Nb0_1 Rh0_7 2.800609 1_445
Nb0_1 Rh0_3 2.800609 1_545
Nb0_1 Rh0_5 2.801209 1_455
Nb0_1 Rh0_1 2.801209 1_555
Nb0_1 Nb0_5 2.817576 1_455
Nb0_1 Nb0_5 2.817576 1_555
Nb0_1 Nb1_3 2.932629 1_545
Nb0_2 Rh3_2 2.735259 1_555
Nb0_2 Rh2_6 2.748744 1_455
Nb0_2 Rh2_2 2.748744 1_555
Nb0_2 Rh1_6 2.778271 1_455
Nb0_2 Rh1_2 2.778271 1_555
Nb0_2 Rh0_4 2.800609 1_455
Nb0_2 Rh0_0 2.800609 1_555
Nb0_2 Rh0_2 2.801209 1_555
Nb0_2 Rh0_6 2.801209 1_455
Nb0_2 Nb0_6 2.817576 1_555
Nb0_2 Nb0_6 2.817576 1_455
Nb0_2 Nb1_0 2.932629 1_555
Nb0_3 Rh3_3 2.735259 1_555
Nb0_3 Rh2_7 2.748744 1_455
Nb0_3 Rh2_3 2.748744 1_555
Nb0_3 Rh1_7 2.778271 1_455
Nb0_3 Rh1_3 2.778271 1_555
Nb0_3 Rh0_1 2.800609 1_555
Nb0_3 Rh0_5 2.800609 1_455
Nb0_3 Rh0_7 2.801209 1_455
Nb0_3 Rh0_3 2.801209 1_555
Nb0_3 Nb0_7 2.817576 1_555
Nb0_3 Nb0_7 2.817576 1_455
Nb0_3 Nb1_1 2.932629 1_555
Nb0_4 Rh3_4 2.735259 1_555
Nb0_4 Rh2_0 2.748744 1_555
Nb0_4 Rh2_4 2.748744 1_555
Nb0_4 Rh1_0 2.778271 1_555
Nb0_4 Rh1_4 2.778271 1_555
Nb0_4 Rh0_2 2.800609 1_545
Nb0_4 Rh0_6 2.800609 1_545
Nb0_4 Rh0_0 2.801209 1_555
Nb0_4 Rh0_4 2.801209 1_555
Nb0_4 Nb1_6 2.932629 1_545
Nb0_5 Rh3_5 2.735259 1_555
Nb0_5 Rh2_1 2.748744 1_555
Nb0_5 Rh2_5 2.748744 1_555
Nb0_5 Rh1_1 2.778271 1_555
Nb0_5 Rh1_5 2.778271 1_555
Nb0_5 Rh0_3 2.800609 1_545
Nb0_5 Rh0_7 2.800609 1_545
Nb0_5 Rh0_1 2.801209 1_555
Nb0_5 Rh0_5 2.801209 1_555
Nb0_5 Nb1_7 2.932629 1_545
Nb0_6 Rh3_6 2.735259 1_555
Nb0_6 Rh2_6 2.748744 1_555
Nb0_6 Rh2_2 2.748744 1_555
Nb0_6 Rh1_2 2.778271 1_555
Nb0_6 Rh1_6 2.778271 1_555
Nb0_6 Rh0_0 2.800609 1_555
Nb0_6 Rh0_4 2.800609 1_555
Nb0_6 Rh0_2 2.801209 1_555
Nb0_6 Rh0_6 2.801209 1_555
Nb0_6 Nb1_4 2.932629 1_555
Nb0_7 Rh3_7 2.735259 1_555
Nb0_7 Rh2_3 2.748744 1_555
Nb0_7 Rh2_7 2.748744 1_555
Nb0_7 Rh1_3 2.778271 1_555
Nb0_7 Rh1_7 2.778271 1_555
Nb0_7 Rh0_1 2.800609 1_555
Nb0_7 Rh0_5 2.800609 1_555
Nb0_7 Rh0_3 2.801209 1_555
Nb0_7 Rh0_7 2.801209 1_555
Nb0_7 Nb1_5 2.932629 1_555
Nb1_0 Rh3_3 2.735259 1_555
Nb1_0 Rh2_5 2.748744 1_455
Nb1_0 Rh2_1 2.748744 1_555
Nb1_0 Rh0_0 2.778271 1_555
Nb1_0 Rh0_4 2.778271 1_455
Nb1_0 Rh1_6 2.800609 1_455
Nb1_0 Rh1_2 2.800609 1_555
Nb1_0 Rh1_4 2.801209 1_455
Nb1_0 Rh1_0 2.801209 1_555
Nb1_0 Nb1_4 2.817576 1_555
Nb1_0 Nb1_4 2.817576 1_455
Nb1_1 Rh3_2 2.735259 1_556
Nb1_1 Rh2_4 2.748744 1_456
Nb1_1 Rh2_0 2.748744 1_556
Nb1_1 Rh0_5 2.778271 1_455
Nb1_1 Rh0_1 2.778271 1_555
Nb1_1 Rh1_7 2.800609 1_455
Nb1_1 Rh1_3 2.800609 1_555
Nb1_1 Rh1_5 2.801209 1_455
Nb1_1 Rh1_1 2.801209 1_555
Nb1_1 Nb1_5 2.817576 1_455
Nb1_1 Nb1_5 2.817576 1_555
Nb1_2 Rh3_1 2.735259 1_565
Nb1_2 Rh2_7 2.748744 1_455
Nb1_2 Rh2_3 2.748744 1_555
Nb1_2 Rh0_6 2.778271 1_455
Nb1_2 Rh0_2 2.778271 1_555
Nb1_2 Rh1_4 2.800609 1_465
Nb1_2 Rh1_0 2.800609 1_565
Nb1_2 Rh1_6 2.801209 1_455
Nb1_2 Rh1_2 2.801209 1_555
Nb1_2 Nb1_6 2.817576 1_455
Nb1_2 Nb1_6 2.817576 1_555
Nb1_3 Rh3_0 2.735259 1_566
Nb1_3 Rh2_6 2.748744 1_456
Nb1_3 Rh2_2 2.748744 1_556
Nb1_3 Rh0_7 2.778271 1_455
Nb1_3 Rh0_3 2.778271 1_555
Nb1_3 Rh1_5 2.800609 1_465
Nb1_3 Rh1_1 2.800609 1_565
Nb1_3 Rh1_7 2.801209 1_455
Nb1_3 Rh1_3 2.801209 1_555
Nb1_3 Nb1_7 2.817576 1_455
Nb1_3 Nb1_7 2.817576 1_555
Nb1_4 Rh3_7 2.735259 1_555
Nb1_4 Rh2_5 2.748744 1_555
Nb1_4 Rh2_1 2.748744 1_555
Nb1_4 Rh0_0 2.778271 1_555
Nb1_4 Rh0_4 2.778271 1_555
Nb1_4 Rh1_2 2.800609 1_555
Nb1_4 Rh1_6 2.800609 1_555
Nb1_4 Rh1_0 2.801209 1_555
Nb1_4 Rh1_4 2.801209 1_555
Nb1_5 Rh3_6 2.735259 1_556
Nb1_5 Rh2_0 2.748744 1_556
Nb1_5 Rh2_4 2.748744 1_556
Nb1_5 Rh0_1 2.778271 1_555
Nb1_5 Rh0_5 2.778271 1_555
Nb1_5 Rh1_3 2.800609 1_555
Nb1_5 Rh1_7 2.800609 1_555
Nb1_5 Rh1_1 2.801209 1_555
Nb1_5 Rh1_5 2.801209 1_555
Nb1_6 Rh3_5 2.735259 1_565
Nb1_6 Rh2_3 2.748744 1_555
Nb1_6 Rh2_7 2.748744 1_555
Nb1_6 Rh0_2 2.778271 1_555
Nb1_6 Rh0_6 2.778271 1_555
Nb1_6 Rh1_0 2.800609 1_565
Nb1_6 Rh1_4 2.800609 1_565
Nb1_6 Rh1_2 2.801209 1_555
Nb1_6 Rh1_6 2.801209 1_555
Nb1_7 Rh3_4 2.735259 1_566
Nb1_7 Rh2_2 2.748744 1_556
Nb1_7 Rh2_6 2.748744 1_556
Nb1_7 Rh0_3 2.778271 1_555
Nb1_7 Rh0_7 2.778271 1_555
Nb1_7 Rh1_1 2.800609 1_565
Nb1_7 Rh1_5 2.800609 1_565
Nb1_7 Rh1_3 2.801209 1_555
Nb1_7 Rh1_7 2.801209 1_555
Rh0_0 Rh2_0 2.780784 1_555
Rh0_0 Rh3_6 2.793748 1_555
Rh0_0 Rh3_2 2.793748 1_555
Rh0_0 Rh0_4 2.817576 1_455
Rh0_0 Rh0_4 2.817576 1_555
Rh0_0 Rh1_0 2.844348 1_555
Rh0_1 Rh2_1 2.780784 1_555
Rh0_1 Rh3_3 2.793748 1_555
Rh0_1 Rh3_7 2.793748 1_555
Rh0_1 Rh0_5 2.817576 1_455
Rh0_1 Rh0_5 2.817576 1_555
Rh0_1 Rh1_1 2.844348 1_555
Rh0_2 Rh2_2 2.780784 1_555
Rh0_2 Rh3_0 2.793748 1_565
Rh0_2 Rh3_4 2.793748 1_565
Rh0_2 Rh0_6 2.817576 1_455
Rh0_2 Rh0_6 2.817576 1_555
Rh0_2 Rh1_2 2.844348 1_555
Rh0_3 Rh2_3 2.780784 1_555
Rh0_3 Rh3_1 2.793748 1_565
Rh0_3 Rh3_5 2.793748 1_565
Rh0_3 Rh0_7 2.817576 1_455
Rh0_3 Rh0_7 2.817576 1_555
Rh0_3 Rh1_3 2.844348 1_555
Rh0_4 Rh2_4 2.780784 1_555
Rh0_4 Rh3_2 2.793748 1_655
Rh0_4 Rh3_6 2.793748 1_555
Rh0_4 Rh1_4 2.844348 1_555
Rh0_5 Rh2_5 2.780784 1_555
Rh0_5 Rh3_3 2.793748 1_655
Rh0_5 Rh3_7 2.793748 1_555
Rh0_5 Rh1_5 2.844348 1_555
Rh0_6 Rh2_6 2.780784 1_555
Rh0_6 Rh3_0 2.793748 1_665
Rh0_6 Rh3_4 2.793748 1_565
Rh0_6 Rh1_6 2.844348 1_555
Rh0_7 Rh2_7 2.780784 1_555
Rh0_7 Rh3_1 2.793748 1_665
Rh0_7 Rh3_5 2.793748 1_565
Rh0_7 Rh1_7 2.844348 1_555
Rh1_0 Rh2_1 2.780784 1_555
Rh1_0 Rh3_5 2.793748 1_555
Rh1_0 Rh3_1 2.793748 1_555
Rh1_0 Rh1_4 2.817576 1_455
Rh1_0 Rh1_4 2.817576 1_555
Rh1_1 Rh2_0 2.780784 1_556
Rh1_1 Rh3_0 2.793748 1_556
Rh1_1 Rh3_4 2.793748 1_556
Rh1_1 Rh1_5 2.817576 1_455
Rh1_1 Rh1_5 2.817576 1_555
Rh1_2 Rh2_3 2.780784 1_555
Rh1_2 Rh3_3 2.793748 1_555
Rh1_2 Rh3_7 2.793748 1_555
Rh1_2 Rh1_6 2.817576 1_455
Rh1_2 Rh1_6 2.817576 1_555
Rh1_3 Rh2_2 2.780784 1_556
Rh1_3 Rh3_2 2.793748 1_556
Rh1_3 Rh3_6 2.793748 1_556
Rh1_3 Rh1_7 2.817576 1_455
Rh1_3 Rh1_7 2.817576 1_555
Rh1_4 Rh2_5 2.780784 1_555
Rh1_4 Rh3_1 2.793748 1_655
Rh1_4 Rh3_5 2.793748 1_555
Rh1_5 Rh2_4 2.780784 1_556
Rh1_5 Rh3_0 2.793748 1_656
Rh1_5 Rh3_4 2.793748 1_556
Rh1_6 Rh2_7 2.780784 1_555
Rh1_6 Rh3_3 2.793748 1_655
Rh1_6 Rh3_7 2.793748 1_555
Rh1_7 Rh2_6 2.780784 1_556
Rh1_7 Rh3_2 2.793748 1_656
Rh1_7 Rh3_6 2.793748 1_556
Rh2_0 Rh3_2 2.800354 1_555
Rh2_0 Rh3_4 2.800354 1_555
Rh2_0 Rh3_6 2.800354 1_555
Rh2_0 Rh3_0 2.800354 1_555
Rh2_0 Rh2_4 2.817576 1_455
Rh2_0 Rh2_4 2.817576 1_555
Rh2_1 Rh3_1 2.800354 1_555
Rh2_1 Rh3_5 2.800354 1_555
Rh2_1 Rh3_3 2.800354 1_555
Rh2_1 Rh3_7 2.800354 1_555
Rh2_1 Rh2_5 2.817576 1_455
Rh2_1 Rh2_5 2.817576 1_555
Rh2_2 Rh3_2 2.800354 1_555
Rh2_2 Rh3_6 2.800354 1_555
Rh2_2 Rh3_0 2.800354 1_565
Rh2_2 Rh3_4 2.800354 1_565
Rh2_2 Rh2_6 2.817576 1_455
Rh2_2 Rh2_6 2.817576 1_555
Rh2_3 Rh3_7 2.800354 1_555
Rh2_3 Rh3_3 2.800354 1_555
Rh2_3 Rh3_5 2.800354 1_565
Rh2_3 Rh3_1 2.800354 1_565
Rh2_3 Rh2_7 2.817576 1_455
Rh2_3 Rh2_7 2.817576 1_555
Rh2_4 Rh3_2 2.800354 1_655
Rh2_4 Rh3_0 2.800354 1_655
Rh2_4 Rh3_6 2.800354 1_555
Rh2_4 Rh3_4 2.800354 1_555
Rh2_5 Rh3_1 2.800354 1_655
Rh2_5 Rh3_3 2.800354 1_655
Rh2_5 Rh3_5 2.800354 1_555
Rh2_5 Rh3_7 2.800354 1_555
Rh2_6 Rh3_0 2.800354 1_665
Rh2_6 Rh3_2 2.800354 1_655
Rh2_6 Rh3_6 2.800354 1_555
Rh2_6 Rh3_4 2.800354 1_565
Rh2_7 Rh3_3 2.800354 1_655
Rh2_7 Rh3_7 2.800354 1_555
Rh2_7 Rh3_1 2.800354 1_665
Rh2_7 Rh3_5 2.800354 1_565
Rh3_0 Rh3_4 2.817576 1_455
Rh3_0 Rh3_4 2.817576 1_555
Rh3_1 Rh3_5 2.817576 1_555
Rh3_1 Rh3_5 2.817576 1_455
Rh3_2 Rh3_6 2.817576 1_555
Rh3_2 Rh3_6 2.817576 1_455
Rh3_3 Rh3_7 2.817576 1_555
Rh3_3 Rh3_7 2.817576 1_455
