# generated using pymatgen
data_V2Pb3N4
_symmetry_space_group_name_H-M   'P 1'
_cell_length_a   6.67674000
_cell_length_b   10.37721000
_cell_length_c   10.34710500
_cell_angle_alpha   90.00000000
_cell_angle_beta   90.00000000
_cell_angle_gamma   90.00000000
_symmetry_Int_Tables_number   1
_chemical_formula_structural   V2Pb3N4
_chemical_formula_sum   'V8 Pb12 N16'
_cell_volume   716.90882476
_cell_formula_units_Z   4
loop_
 _symmetry_equiv_pos_site_id
 _symmetry_equiv_pos_as_xyz
  1  'x, y, z'
loop_
 _atom_site_type_symbol
 _atom_site_label
 _atom_site_symmetry_multiplicity
 _atom_site_fract_x
 _atom_site_fract_y
 _atom_site_fract_z
 _atom_site_occupancy
  V  V0  1  0.75000000  0.50000000  0.75780000  1
  V  V1  1  0.75000000  0.00000000  0.74220000  1
  V  V2  1  0.25000000  0.50000000  0.24220000  1
  V  V3  1  0.25000000  0.00000000  0.25780000  1
  V  V4  1  0.78575800  0.25000000  0.75000000  1
  V  V5  1  0.71424200  0.75000000  0.75000000  1
  V  V6  1  0.21424200  0.75000000  0.25000000  1
  V  V7  1  0.28575800  0.25000000  0.25000000  1
  Pb  Pb0  1  0.79596500  0.16264800  0.39222800  1
  Pb  Pb1  1  0.70403500  0.83735200  0.39222800  1
  Pb  Pb2  1  0.79596500  0.33735200  0.10777200  1
  Pb  Pb3  1  0.70403500  0.66264800  0.10777200  1
  Pb  Pb4  1  0.20403500  0.83735200  0.60777300  1
  Pb  Pb5  1  0.29596500  0.16264800  0.60777300  1
  Pb  Pb6  1  0.20403500  0.66264800  0.89222700  1
  Pb  Pb7  1  0.29596500  0.33735200  0.89222700  1
  Pb  Pb8  1  0.75000000  0.50000000  0.39213900  1
  Pb  Pb9  1  0.75000000  0.00000000  0.10786100  1
  Pb  Pb10  1  0.25000000  0.50000000  0.60786100  1
  Pb  Pb11  1  0.25000000  0.00000000  0.89213900  1
  N  N0  1  0.90690000  0.38531500  0.66729100  1
  N  N1  1  0.59310000  0.61468500  0.66729100  1
  N  N2  1  0.90690000  0.11468500  0.83270900  1
  N  N3  1  0.59310000  0.88531500  0.83270900  1
  N  N4  1  0.09310000  0.61468500  0.33270900  1
  N  N5  1  0.40690000  0.38531500  0.33270900  1
  N  N6  1  0.09310000  0.88531500  0.16729100  1
  N  N7  1  0.40690000  0.11468500  0.16729100  1
  N  N8  1  0.64766000  0.36563200  0.85563500  1
  N  N9  1  0.85234000  0.63436800  0.85563500  1
  N  N10  1  0.64766000  0.13436800  0.64436500  1
  N  N11  1  0.85234000  0.86563200  0.64436500  1
  N  N12  1  0.35234000  0.63436800  0.14436500  1
  N  N13  1  0.14766000  0.36563200  0.14436500  1
  N  N14  1  0.35234000  0.86563200  0.35563500  1
  N  N15  1  0.14766000  0.13436800  0.35563500  1
loop_
_geom_bond_atom_site_label_1
_geom_bond_atom_site_label_2
_geom_bond_distance
_geom_bond_site_symmetry_2
N0 V4 1.832583 1_555
N0 V0 1.841421 1_555
N0 Pb10 2.653717 1_655
N1 V5 1.832583 1_555
N1 V0 1.841421 1_555
N1 Pb10 2.653717 1_555
N2 V4 1.832583 1_555
N2 V1 1.841421 1_555
N2 Pb11 2.653717 1_655
N3 V5 1.832583 1_555
N3 V1 1.841421 1_565
N3 Pb11 2.653717 1_565
N4 V6 1.832583 1_555
N4 V2 1.841421 1_555
N4 Pb8 2.653717 1_455
N5 V7 1.832583 1_555
N5 V2 1.841421 1_555
N5 Pb8 2.653717 1_555
N6 V6 1.832583 1_555
N6 V3 1.841421 1_565
N6 Pb9 2.653717 1_465
N7 V7 1.832583 1_555
N7 V3 1.841421 1_555
N7 Pb9 2.653717 1_555
N8 V0 1.853623 1_555
N8 V4 1.866735 1_555
N8 Pb7 2.396541 1_555
N8 Pb2 2.805870 1_556
N9 V0 1.853623 1_555
N9 V5 1.866735 1_555
N9 Pb6 2.396541 1_655
N9 Pb3 2.805870 1_556
N10 V1 1.853623 1_555
N10 V4 1.866735 1_555
N10 Pb5 2.396541 1_555
N10 Pb0 2.805870 1_555
N11 V1 1.853623 1_565
N11 V5 1.866735 1_555
N11 Pb4 2.396541 1_655
N11 Pb1 2.805870 1_555
N12 V2 1.853623 1_555
N12 V6 1.866735 1_555
N12 Pb3 2.396542 1_555
N12 Pb6 2.805879 1_554
N13 V2 1.853623 1_555
N13 V7 1.866735 1_555
N13 Pb2 2.396542 1_455
N13 Pb7 2.805879 1_554
N14 V3 1.853623 1_565
N14 V6 1.866735 1_555
N14 Pb1 2.396542 1_555
N14 Pb4 2.805879 1_555
N15 V3 1.853623 1_555
N15 V7 1.866735 1_555
N15 Pb0 2.396542 1_455
N15 Pb5 2.805879 1_555
