# generated using pymatgen
data_AgB5H6N2Cl5
_symmetry_space_group_name_H-M   'P 1'
_cell_length_a   15.08461600
_cell_length_b   12.53220300
_cell_length_c   14.01437200
_cell_angle_alpha   90.00000000
_cell_angle_beta   90.00000000
_cell_angle_gamma   90.00000000
_symmetry_Int_Tables_number   1
_chemical_formula_structural   AgB5H6N2Cl5
_chemical_formula_sum   'Ag8 B40 H48 N16 Cl40'
_cell_volume   2649.32551120
_cell_formula_units_Z   8
loop_
 _symmetry_equiv_pos_site_id
 _symmetry_equiv_pos_as_xyz
  1  'x, y, z'
loop_
 _atom_site_type_symbol
 _atom_site_label
 _atom_site_symmetry_multiplicity
 _atom_site_fract_x
 _atom_site_fract_y
 _atom_site_fract_z
 _atom_site_occupancy
  Ag  Ag0  1  0.70589700  0.10165400  0.93655900  1
  Ag  Ag1  1  0.79410300  0.39834600  0.43655900  1
  Ag  Ag2  1  0.20589700  0.39834600  0.06344100  1
  Ag  Ag3  1  0.29410300  0.10165400  0.56344100  1
  Ag  Ag4  1  0.29410300  0.89834600  0.06344100  1
  Ag  Ag5  1  0.20589700  0.60165400  0.56344100  1
  Ag  Ag6  1  0.79410300  0.60165400  0.93655900  1
  Ag  Ag7  1  0.70589700  0.89834600  0.43655900  1
  B  B0  1  0.38703500  0.25916100  0.30043800  1
  B  B1  1  0.11296500  0.24083900  0.80043800  1
  B  B2  1  0.88703500  0.24083900  0.69956200  1
  B  B3  1  0.61296500  0.25916100  0.19956200  1
  B  B4  1  0.61296500  0.74083900  0.69956200  1
  B  B5  1  0.88703500  0.75916100  0.19956200  1
  B  B6  1  0.11296500  0.75916100  0.30043800  1
  B  B7  1  0.38703500  0.74083900  0.80043800  1
  B  B8  1  0.48401200  0.29745500  0.35048300  1
  B  B9  1  0.01598800  0.20254500  0.85048300  1
  B  B10  1  0.98401200  0.20254500  0.64951700  1
  B  B11  1  0.51598800  0.29745500  0.14951700  1
  B  B12  1  0.51598800  0.70254500  0.64951700  1
  B  B13  1  0.98401200  0.79745500  0.14951700  1
  B  B14  1  0.01598800  0.79745500  0.35048300  1
  B  B15  1  0.48401200  0.70254500  0.85048300  1
  B  B16  1  0.57758400  0.21911100  0.30845700  1
  B  B17  1  0.92241600  0.28088900  0.80845700  1
  B  B18  1  0.07758400  0.28088900  0.69154300  1
  B  B19  1  0.42241600  0.21911100  0.19154300  1
  B  B20  1  0.42241600  0.78088900  0.69154300  1
  B  B21  1  0.07758400  0.71911100  0.19154300  1
  B  B22  1  0.92241600  0.71911100  0.30845700  1
  B  B23  1  0.57758400  0.78088900  0.80845700  1
  B  B24  1  0.55924300  0.35531600  0.26167600  1
  B  B25  1  0.94075700  0.14468400  0.76167600  1
  B  B26  1  0.05924300  0.14468400  0.73832400  1
  B  B27  1  0.44075700  0.35531600  0.23832400  1
  B  B28  1  0.44075700  0.64468400  0.73832400  1
  B  B29  1  0.05924300  0.85531600  0.23832400  1
  B  B30  1  0.94075700  0.85531600  0.26167600  1
  B  B31  1  0.55924300  0.64468400  0.76167600  1
  B  B32  1  0.46554200  0.16227000  0.30326100  1
  B  B33  1  0.03445800  0.33773000  0.80326100  1
  B  B34  1  0.96554200  0.33773000  0.69673900  1
  B  B35  1  0.53445800  0.16227000  0.19673900  1
  B  B36  1  0.53445800  0.83773000  0.69673900  1
  B  B37  1  0.96554200  0.66227000  0.19673900  1
  B  B38  1  0.03445800  0.66227000  0.30326100  1
  B  B39  1  0.46554200  0.83773000  0.80326100  1
  H  H0  1  0.80174900  0.94626500  0.02653500  1
  H  H1  1  0.69825100  0.55373500  0.52653500  1
  H  H2  1  0.30174900  0.55373500  0.97346500  1
  H  H3  1  0.19825100  0.94626500  0.47346500  1
  H  H4  1  0.19825100  0.05373500  0.97346500  1
  H  H5  1  0.30174900  0.44626500  0.47346500  1
  H  H6  1  0.69825100  0.44626500  0.02653500  1
  H  H7  1  0.80174900  0.05373500  0.52653500  1
  H  H8  1  0.85940300  0.05716500  0.02884100  1
  H  H9  1  0.64059700  0.44283500  0.52884100  1
  H  H10  1  0.35940300  0.44283500  0.97115900  1
  H  H11  1  0.14059700  0.05716500  0.47115900  1
  H  H12  1  0.14059700  0.94283500  0.97115900  1
  H  H13  1  0.35940300  0.55716500  0.47115900  1
  H  H14  1  0.64059700  0.55716500  0.02884100  1
  H  H15  1  0.85940300  0.94283500  0.52884100  1
  H  H16  1  0.77748000  0.03875500  0.10509200  1
  H  H17  1  0.72252000  0.46124500  0.60509200  1
  H  H18  1  0.27748000  0.46124500  0.89490800  1
  H  H19  1  0.22252000  0.03875500  0.39490800  1
  H  H20  1  0.22252000  0.96124500  0.89490800  1
  H  H21  1  0.27748000  0.53875500  0.39490800  1
  H  H22  1  0.72252000  0.53875500  0.10509200  1
  H  H23  1  0.77748000  0.96124500  0.60509200  1
  H  H24  1  0.58859800  0.12022000  0.79122300  1
  H  H25  1  0.91140200  0.37978000  0.29122300  1
  H  H26  1  0.08859800  0.37978000  0.20877700  1
  H  H27  1  0.41140200  0.12022000  0.70877700  1
  H  H28  1  0.41140200  0.87978000  0.20877700  1
  H  H29  1  0.08859800  0.62022000  0.70877700  1
  H  H30  1  0.91140200  0.62022000  0.79122300  1
  H  H31  1  0.58859800  0.87978000  0.29122300  1
  H  H32  1  0.56304700  0.21148400  0.87228700  1
  H  H33  1  0.93695300  0.28851600  0.37228700  1
  H  H34  1  0.06304700  0.28851600  0.12771300  1
  H  H35  1  0.43695300  0.21148400  0.62771300  1
  H  H36  1  0.43695300  0.78851600  0.12771300  1
  H  H37  1  0.06304700  0.71148400  0.62771300  1
  H  H38  1  0.93695300  0.71148400  0.87228700  1
  H  H39  1  0.56304700  0.78851600  0.37228700  1
  H  H40  1  0.64564700  0.23283100  0.79677400  1
  H  H41  1  0.85435300  0.26716900  0.29677400  1
  H  H42  1  0.14564700  0.26716900  0.20322600  1
  H  H43  1  0.35435300  0.23283100  0.70322600  1
  H  H44  1  0.35435300  0.76716900  0.20322600  1
  H  H45  1  0.14564700  0.73283100  0.70322600  1
  H  H46  1  0.85435300  0.73283100  0.79677400  1
  H  H47  1  0.64564700  0.76716900  0.29677400  1
  N  N0  1  0.79673700  0.02703800  0.03599300  1
  N  N1  1  0.70326300  0.47296200  0.53599300  1
  N  N2  1  0.29673700  0.47296200  0.96400700  1
  N  N3  1  0.20326300  0.02703800  0.46400700  1
  N  N4  1  0.20326300  0.97296200  0.96400700  1
  N  N5  1  0.29673700  0.52703800  0.46400700  1
  N  N6  1  0.70326300  0.52703800  0.03599300  1
  N  N7  1  0.79673700  0.97296200  0.53599300  1
  N  N8  1  0.61421900  0.17620300  0.83681700  1
  N  N9  1  0.88578100  0.32379700  0.33681700  1
  N  N10  1  0.11421900  0.32379700  0.16318300  1
  N  N11  1  0.38578100  0.17620300  0.66318300  1
  N  N12  1  0.38578100  0.82379700  0.16318300  1
  N  N13  1  0.11421900  0.67620300  0.66318300  1
  N  N14  1  0.88578100  0.67620300  0.83681700  1
  N  N15  1  0.61421900  0.82379700  0.33681700  1
  Cl  Cl0  1  0.27768200  0.26144100  0.34906000  1
  Cl  Cl1  1  0.22231800  0.23855900  0.84906000  1
  Cl  Cl2  1  0.77768200  0.23855900  0.65094000  1
  Cl  Cl3  1  0.72231800  0.26144100  0.15094000  1
  Cl  Cl4  1  0.72231800  0.73855900  0.65094000  1
  Cl  Cl5  1  0.77768200  0.76144100  0.15094000  1
  Cl  Cl6  1  0.22231800  0.76144100  0.34906000  1
  Cl  Cl7  1  0.27768200  0.73855900  0.84906000  1
  Cl  Cl8  1  0.48576800  0.34599900  0.47196200  1
  Cl  Cl9  1  0.01423200  0.15400100  0.97196200  1
  Cl  Cl10  1  0.98576800  0.15400100  0.52803800  1
  Cl  Cl11  1  0.51423200  0.34599900  0.02803800  1
  Cl  Cl12  1  0.51423200  0.65400100  0.52803800  1
  Cl  Cl13  1  0.98576800  0.84599900  0.02803800  1
  Cl  Cl14  1  0.01423200  0.84599900  0.47196200  1
  Cl  Cl15  1  0.48576800  0.65400100  0.97196200  1
  Cl  Cl16  1  0.65618900  0.16870100  0.39390600  1
  Cl  Cl17  1  0.84381100  0.33129900  0.89390600  1
  Cl  Cl18  1  0.15618900  0.33129900  0.60609400  1
  Cl  Cl19  1  0.34381100  0.16870100  0.10609400  1
  Cl  Cl20  1  0.34381100  0.83129900  0.60609400  1
  Cl  Cl21  1  0.15618900  0.66870100  0.10609400  1
  Cl  Cl22  1  0.84381100  0.66870100  0.39390600  1
  Cl  Cl23  1  0.65618900  0.83129900  0.89390600  1
  Cl  Cl24  1  0.61423100  0.47987200  0.28711100  1
  Cl  Cl25  1  0.88576900  0.02012800  0.78711100  1
  Cl  Cl26  1  0.11423100  0.02012800  0.71288900  1
  Cl  Cl27  1  0.38576900  0.47987200  0.21288900  1
  Cl  Cl28  1  0.38576900  0.52012800  0.71288900  1
  Cl  Cl29  1  0.11423100  0.97987200  0.21288900  1
  Cl  Cl30  1  0.88576900  0.97987200  0.28711100  1
  Cl  Cl31  1  0.61423100  0.52012800  0.78711100  1
  Cl  Cl32  1  0.44225500  0.03758900  0.36267200  1
  Cl  Cl33  1  0.05774500  0.46241100  0.86267200  1
  Cl  Cl34  1  0.94225500  0.46241100  0.63732800  1
  Cl  Cl35  1  0.55774500  0.03758900  0.13732800  1
  Cl  Cl36  1  0.55774500  0.96241100  0.63732800  1
  Cl  Cl37  1  0.94225500  0.53758900  0.13732800  1
  Cl  Cl38  1  0.05774500  0.53758900  0.36267200  1
  Cl  Cl39  1  0.44225500  0.96241100  0.86267200  1
loop_
_geom_bond_atom_site_label_1
_geom_bond_atom_site_label_2
_geom_bond_distance
_geom_bond_site_symmetry_2
Ag0 N0 2.166555 1_556
Ag0 N8 2.176980 1_555
Ag1 N1 2.166555 1_555
Ag1 N9 2.176980 1_555
Ag2 N2 2.166555 1_554
Ag2 N10 2.176980 1_555
Ag3 N3 2.166555 1_555
Ag3 N11 2.176980 1_555
Ag4 N4 2.166555 1_554
Ag4 N12 2.176980 1_555
Ag5 N5 2.166555 1_555
Ag5 N13 2.176980 1_555
Ag6 N6 2.166555 1_556
Ag6 N14 2.176980 1_555
Ag7 N7 2.166555 1_555
Ag7 N15 2.176980 1_555
B0 Cl0 1.784976 1_555
B1 Cl1 1.784976 1_555
B2 Cl2 1.784976 1_555
B3 Cl3 1.784976 1_555
B4 Cl4 1.784976 1_555
B5 Cl5 1.784976 1_555
B6 Cl6 1.784976 1_555
B7 Cl7 1.784976 1_555
B8 Cl8 1.808079 1_555
B9 Cl9 1.808079 1_555
B10 Cl10 1.808079 1_555
B11 Cl11 1.808079 1_555
B12 Cl12 1.808079 1_555
B13 Cl13 1.808079 1_555
B14 Cl14 1.808079 1_555
B15 Cl15 1.808079 1_555
B16 Cl16 1.799748 1_555
B17 Cl17 1.799748 1_555
B18 Cl18 1.799748 1_555
B19 Cl19 1.799748 1_555
B20 Cl20 1.799748 1_555
B21 Cl21 1.799748 1_555
B22 Cl22 1.799748 1_555
B23 Cl23 1.799748 1_555
B24 Cl24 1.803243 1_555
B25 Cl25 1.803243 1_555
B26 Cl26 1.803243 1_555
B27 Cl27 1.803243 1_555
B28 Cl28 1.803243 1_555
B29 Cl29 1.803243 1_555
B30 Cl30 1.803243 1_555
B31 Cl31 1.803243 1_555
B32 Cl32 1.805027 1_555
B33 Cl33 1.805027 1_555
B34 Cl34 1.805027 1_555
B35 Cl35 1.805027 1_555
B36 Cl36 1.805027 1_555
B37 Cl37 1.805027 1_555
B38 Cl38 1.805027 1_555
B39 Cl39 1.805027 1_555
H0 N0 1.023700 1_565
H1 N1 1.023700 1_555
H2 N2 1.023700 1_555
H3 N3 1.023700 1_565
H4 N4 1.023700 1_545
H5 N5 1.023700 1_555
H6 N6 1.023700 1_555
H7 N7 1.023700 1_545
H8 N0 1.022826 1_555
H9 N1 1.022826 1_555
H10 N2 1.022826 1_555
H11 N3 1.022826 1_555
H12 N4 1.022826 1_555
H13 N5 1.022826 1_555
H14 N6 1.022826 1_555
H15 N7 1.022826 1_555
H16 N0 1.021617 1_555
H17 N1 1.021617 1_555
H18 N2 1.021617 1_555
H19 N3 1.021617 1_555
H20 N4 1.021617 1_555
H21 N5 1.021617 1_555
H22 N6 1.021617 1_555
H23 N7 1.021617 1_555
H24 N8 1.024638 1_555
H25 N9 1.024638 1_555
H26 N10 1.024638 1_555
H27 N11 1.024638 1_555
H28 N12 1.024638 1_555
H29 N13 1.024638 1_555
H30 N14 1.024638 1_555
H31 N15 1.024638 1_555
H32 N8 1.019038 1_555
H33 N9 1.019038 1_555
H34 N10 1.019038 1_555
H35 N11 1.019038 1_555
H36 N12 1.019038 1_555
H37 N13 1.019038 1_555
H38 N14 1.019038 1_555
H39 N15 1.019038 1_555
H40 N8 1.021424 1_555
H41 N9 1.021424 1_555
H42 N10 1.021424 1_555
H43 N11 1.021424 1_555
H44 N12 1.021424 1_555
H45 N13 1.021424 1_555
H46 N14 1.021424 1_555
H47 N15 1.021424 1_555
