# generated using pymatgen
data_BaTi(PO4)2
_symmetry_space_group_name_H-M   'P 1'
_cell_length_a   4.91572020
_cell_length_b   4.91572020
_cell_length_c   7.84115487
_cell_angle_alpha   86.50878802
_cell_angle_beta   86.50878802
_cell_angle_gamma   64.64427924
_symmetry_Int_Tables_number   1
_chemical_formula_structural   BaTi(PO4)2
_chemical_formula_sum   'Ba1 Ti1 P2 O8'
_cell_volume   170.77802887
_cell_formula_units_Z   1
loop_
 _symmetry_equiv_pos_site_id
 _symmetry_equiv_pos_as_xyz
  1  'x, y, z'
loop_
 _atom_site_type_symbol
 _atom_site_label
 _atom_site_symmetry_multiplicity
 _atom_site_fract_x
 _atom_site_fract_y
 _atom_site_fract_z
 _atom_site_occupancy
  Ba  Ba0  1  0.00000000  0.00000000  0.50000000  1
  Ti  Ti0  1  0.00000000  0.00000000  0.00000000  1
  P  P0  1  0.36665400  0.36665400  0.79434700  1
  P  P1  1  0.63334600  0.63334600  0.20565300  1
  O  O0  1  0.31362200  0.31362200  0.61167300  1
  O  O1  1  0.68637800  0.68637800  0.38832700  1
  O  O2  1  0.71295100  0.23162200  0.82031700  1
  O  O3  1  0.28704900  0.76837800  0.17968300  1
  O  O4  1  0.76837800  0.28704900  0.17968300  1
  O  O5  1  0.23162200  0.71295100  0.82031700  1
  O  O6  1  0.22596300  0.22596300  0.93482600  1
  O  O7  1  0.77403700  0.77403700  0.06517400  1
loop_
_geom_bond_atom_site_label_1
_geom_bond_atom_site_label_2
_geom_bond_distance
_geom_bond_site_symmetry_2
Ba0 O1 2.807982 1_445
Ba0 O0 2.807982 1_555
Ba0 O4 2.852455 1_455
Ba0 O5 2.852455 1_545
Ba0 O2 2.852455 1_455
Ba0 O3 2.852455 1_545
Ba0 O0 3.142796 1_455
Ba0 O0 3.142796 1_545
Ba0 O1 3.142796 1_455
Ba0 O1 3.142796 1_545
O0 P0 1.528652 1_555
O1 P1 1.528652 1_555
O2 P0 1.561370 1_555
O2 Ti0 1.985762 1_656
O3 P1 1.561370 1_555
O3 Ti0 1.985762 1_565
O4 P1 1.561370 1_555
O4 Ti0 1.985762 1_655
O5 P0 1.561370 1_555
O5 Ti0 1.985762 1_566
O6 P0 1.547272 1_555
O6 Ti0 1.909776 1_556
O7 P1 1.547272 1_555
O7 Ti0 1.909776 1_665
