# generated using pymatgen
data_LaZnCr2O6
_symmetry_space_group_name_H-M   'P 1'
_cell_length_a   5.33330100
_cell_length_b   5.40382600
_cell_length_c   7.79589500
_cell_angle_alpha   90.00000000
_cell_angle_beta   90.00000000
_cell_angle_gamma   90.00000000
_symmetry_Int_Tables_number   1
_chemical_formula_structural   LaZnCr2O6
_chemical_formula_sum   'La2 Zn2 Cr4 O12'
_cell_volume   224.67949171
_cell_formula_units_Z   2
loop_
 _symmetry_equiv_pos_site_id
 _symmetry_equiv_pos_as_xyz
  1  'x, y, z'
loop_
 _atom_site_type_symbol
 _atom_site_label
 _atom_site_symmetry_multiplicity
 _atom_site_fract_x
 _atom_site_fract_y
 _atom_site_fract_z
 _atom_site_occupancy
  La  La0  1  0.00506400  0.71312000  0.00000000  1
  La  La1  1  0.50506400  0.28688000  0.50000000  1
  Zn  Zn0  1  0.49200400  0.22212200  0.00000000  1
  Zn  Zn1  1  0.99200400  0.77787800  0.50000000  1
  Cr  Cr0  1  0.49668800  0.75494500  0.24860000  1
  Cr  Cr1  1  0.99668800  0.24505500  0.74860000  1
  Cr  Cr2  1  0.49668800  0.75494500  0.75140000  1
  Cr  Cr3  1  0.99668800  0.24505500  0.25140000  1
  O  O0  1  0.07689200  0.19552900  0.50000000  1
  O  O1  1  0.22339000  0.96492600  0.79974500  1
  O  O2  1  0.22339000  0.96492600  0.20025500  1
  O  O3  1  0.31781400  0.44929100  0.80571700  1
  O  O4  1  0.31781400  0.44929100  0.19428300  1
  O  O5  1  0.37507600  0.72832900  0.50000000  1
  O  O6  1  0.57689200  0.80447100  0.00000000  1
  O  O7  1  0.72339000  0.03507400  0.29974500  1
  O  O8  1  0.72339000  0.03507400  0.70025500  1
  O  O9  1  0.81781400  0.55070900  0.30571700  1
  O  O10  1  0.81781400  0.55070900  0.69428300  1
  O  O11  1  0.87507600  0.27167100  0.00000000  1
loop_
_geom_bond_atom_site_label_1
_geom_bond_atom_site_label_2
_geom_bond_distance
_geom_bond_site_symmetry_2
La0 O6 2.336317 1_455
La0 O2 2.375839 1_555
La0 O1 2.375839 1_554
La0 O11 2.484208 1_455
La0 O4 2.666236 1_555
La0 O3 2.666236 1_554
La0 O9 2.729079 1_455
La0 O10 2.729079 1_454
La1 O0 2.336317 1_555
La1 O8 2.375839 1_555
La1 O7 2.375839 1_555
La1 O5 2.484208 1_555
La1 O10 2.666236 1_555
La1 O9 2.666236 1_555
La1 O3 2.729079 1_555
La1 O4 2.729079 1_555
Cr0 O2 1.885241 1_555
Cr0 O4 1.953848 1_555
Cr0 O7 1.977959 1_565
Cr0 O6 2.002666 1_555
Cr0 O5 2.069425 1_555
Cr0 O9 2.085555 1_555
Cr1 O8 1.885241 1_555
Cr1 O10 1.953848 1_555
Cr1 O1 1.977959 1_645
Cr1 O0 2.002666 1_655
Cr1 O11 2.069425 1_556
Cr1 O3 2.085555 1_655
Cr2 O1 1.885241 1_555
Cr2 O3 1.953848 1_555
Cr2 O8 1.977959 1_565
Cr2 O6 2.002666 1_556
Cr2 O5 2.069425 1_555
Cr2 O10 2.085555 1_555
Cr3 O7 1.885241 1_555
Cr3 O9 1.953848 1_555
Cr3 O2 1.977959 1_645
Cr3 O0 2.002666 1_655
Cr3 O11 2.069425 1_555
Cr3 O4 2.085555 1_655
O0 Zn1 2.301874 1_445
O1 Zn0 2.534018 1_566
O2 Zn0 2.534018 1_565
O3 Zn0 2.159642 1_556
O4 Zn0 2.159642 1_555
O5 Zn1 2.060509 1_455
O6 Zn0 2.301874 1_565
O7 Zn1 2.534018 1_545
O8 Zn1 2.534018 1_545
O9 Zn1 2.159642 1_555
O10 Zn1 2.159642 1_555
O11 Zn0 2.060509 1_555
