# generated using pymatgen
data_Mg6SnSb
_symmetry_space_group_name_H-M   'P 1'
_cell_length_a   5.31758600
_cell_length_b   6.13163300
_cell_length_c   11.61624200
_cell_angle_alpha   90.00000000
_cell_angle_beta   90.00000000
_cell_angle_gamma   90.00000000
_symmetry_Int_Tables_number   1
_chemical_formula_structural   Mg6SnSb
_chemical_formula_sum   'Mg12 Sn2 Sb2'
_cell_volume   378.75321356
_cell_formula_units_Z   2
loop_
 _symmetry_equiv_pos_site_id
 _symmetry_equiv_pos_as_xyz
  1  'x, y, z'
loop_
 _atom_site_type_symbol
 _atom_site_label
 _atom_site_symmetry_multiplicity
 _atom_site_fract_x
 _atom_site_fract_y
 _atom_site_fract_z
 _atom_site_occupancy
  Mg  Mg0  1  0.00000000  0.25037600  0.09017900  1
  Mg  Mg1  1  0.00000000  0.74962400  0.09017900  1
  Mg  Mg2  1  0.00000000  0.00000000  0.32893200  1
  Mg  Mg3  1  0.50000000  0.74920100  0.41149200  1
  Mg  Mg4  1  0.50000000  0.25079900  0.41149200  1
  Mg  Mg5  1  0.50000000  0.00000000  0.17353600  1
  Mg  Mg6  1  0.00000000  0.75037600  0.59017900  1
  Mg  Mg7  1  0.00000000  0.24962400  0.59017900  1
  Mg  Mg8  1  0.00000000  0.50000000  0.82893200  1
  Mg  Mg9  1  0.50000000  0.24920100  0.91149200  1
  Mg  Mg10  1  0.50000000  0.75079900  0.91149200  1
  Mg  Mg11  1  0.50000000  0.50000000  0.67353600  1
  Sn  Sn0  1  0.00000000  0.50000000  0.35639400  1
  Sn  Sn1  1  0.00000000  0.00000000  0.85639400  1
  Sb  Sb0  1  0.50000000  0.50000000  0.13779600  1
  Sb  Sb1  1  0.50000000  0.00000000  0.63779600  1
loop_
_geom_bond_atom_site_label_1
_geom_bond_atom_site_label_2
_geom_bond_distance
_geom_bond_site_symmetry_2
Mg0 Sb0 3.117351 1_555
Mg0 Sb0 3.117351 1_455
Mg0 Sn1 3.119603 1_554
Mg0 Sn0 3.450477 1_555
Mg1 Sb0 3.117351 1_555
Mg1 Sb0 3.117351 1_455
Mg1 Sn1 3.119603 1_564
Mg1 Sn0 3.450477 1_555
Mg2 Sn0 3.082368 1_545
Mg2 Sn0 3.082368 1_555
Mg3 Sb1 3.045563 1_565
Mg3 Sn0 3.132672 1_655
Mg3 Sn0 3.132672 1_555
Mg4 Sb1 3.045563 1_555
Mg4 Sn0 3.132672 1_655
Mg4 Sn0 3.132672 1_555
Mg5 Sb0 3.093799 1_545
Mg5 Sb0 3.093799 1_555
Mg6 Sb1 3.117351 1_565
Mg6 Sb1 3.117351 1_465
Mg6 Sn0 3.119603 1_555
Mg6 Sn1 3.450477 1_565
Mg7 Sb1 3.117351 1_455
Mg7 Sb1 3.117351 1_555
Mg7 Sn0 3.119603 1_555
Mg7 Sn1 3.450477 1_555
Mg8 Sn1 3.082368 1_555
Mg8 Sn1 3.082368 1_565
Mg9 Sb0 3.045563 1_556
Mg9 Sn1 3.132672 1_555
Mg9 Sn1 3.132672 1_655
Mg10 Sb0 3.045563 1_556
Mg10 Sn1 3.132672 1_565
Mg10 Sn1 3.132672 1_665
Mg11 Sb1 3.093799 1_555
Mg11 Sb1 3.093799 1_565
