# generated using pymatgen
data_BaSrI4
_symmetry_space_group_name_H-M   'P 1'
_cell_length_a   10.05875646
_cell_length_b   10.05875646
_cell_length_c   10.05875646
_cell_angle_alpha   131.71624084
_cell_angle_beta   131.71624084
_cell_angle_gamma   70.67756453
_symmetry_Int_Tables_number   1
_chemical_formula_structural   BaSrI4
_chemical_formula_sum   'Ba2 Sr2 I8'
_cell_volume   555.50686521
_cell_formula_units_Z   2
loop_
 _symmetry_equiv_pos_site_id
 _symmetry_equiv_pos_as_xyz
  1  'x, y, z'
loop_
 _atom_site_type_symbol
 _atom_site_label
 _atom_site_symmetry_multiplicity
 _atom_site_fract_x
 _atom_site_fract_y
 _atom_site_fract_z
 _atom_site_occupancy
  Ba  Ba0  1  0.50000000  0.50000000  0.00000000  1
  Ba  Ba1  1  0.25000000  0.75000000  0.50000000  1
  Sr  Sr0  1  0.75000000  0.25000000  0.50000000  1
  Sr  Sr1  1  0.00000000  0.00000000  0.00000000  1
  I  I0  1  0.64001200  0.62845000  0.50700800  1
  I  I1  1  0.86699600  0.35998800  0.98843800  1
  I  I2  1  0.37155000  0.87855800  0.01156200  1
  I  I3  1  0.62855800  0.11699600  0.00700800  1
  I  I4  1  0.12144200  0.13300400  0.49299200  1
  I  I5  1  0.37845000  0.37144200  0.48843800  1
  I  I6  1  0.88300400  0.89001200  0.51156200  1
  I  I7  1  0.10998800  0.62155000  0.99299200  1
loop_
_geom_bond_atom_site_label_1
_geom_bond_atom_site_label_2
_geom_bond_distance
_geom_bond_site_symmetry_2
Ba0 I2 3.540792 1_555
Ba0 I0 3.540792 1_555
Ba0 I4 3.540792 1_554
Ba0 I1 3.540792 1_554
Ba0 I6 3.669134 1_555
Ba0 I5 3.669134 1_554
Ba0 I3 3.669134 1_555
Ba0 I7 3.669134 1_554
Ba1 I3 3.540792 1_566
Ba1 I7 3.540792 1_554
Ba1 I6 3.540792 1_455
Ba1 I5 3.540792 1_555
Ba1 I4 3.669134 1_565
Ba1 I1 3.669134 1_454
Ba1 I0 3.669134 1_555
Ba1 I2 3.669134 1_556
I0 Sr1 3.473149 1_666
I0 Sr0 3.560870 1_555
I1 Sr1 3.473149 1_656
I1 Sr0 3.560870 1_555
I2 Sr1 3.473149 1_565
I2 Sr0 3.560870 1_565
I3 Sr0 3.473149 1_555
I3 Sr1 3.560870 1_655
I4 Sr1 3.473149 1_555
I4 Sr0 3.560870 1_455
I5 Sr0 3.473149 1_555
I5 Sr1 3.560870 1_555
I6 Sr0 3.473149 1_565
I6 Sr1 3.560870 1_666
I7 Sr0 3.473149 1_455
I7 Sr1 3.560870 1_566
