# generated using pymatgen
data_NaLi5Fe2P2(CO7)2
_symmetry_space_group_name_H-M   'P 1'
_cell_length_a   6.50355400
_cell_length_b   8.56461793
_cell_length_c   10.24348121
_cell_angle_alpha   85.42359427
_cell_angle_beta   89.72229272
_cell_angle_gamma   89.37293029
_symmetry_Int_Tables_number   1
_chemical_formula_structural   NaLi5Fe2P2(CO7)2
_chemical_formula_sum   'Na2 Li10 Fe4 P4 C4 O28'
_cell_volume   568.70891561
_cell_formula_units_Z   2
loop_
 _symmetry_equiv_pos_site_id
 _symmetry_equiv_pos_as_xyz
  1  'x, y, z'
loop_
 _atom_site_type_symbol
 _atom_site_label
 _atom_site_symmetry_multiplicity
 _atom_site_fract_x
 _atom_site_fract_y
 _atom_site_fract_z
 _atom_site_occupancy
  Na  Na0  1  0.74913500  0.91325100  0.12150300  1
  Na  Na1  1  0.49547200  0.25913200  0.62623100  1
  Li  Li0  1  0.77857800  0.91642800  0.62159300  1
  Li  Li1  1  0.97436700  0.71834500  0.37969900  1
  Li  Li2  1  0.52985600  0.71470300  0.38104100  1
  Li  Li3  1  0.97407300  0.71884100  0.87293100  1
  Li  Li4  1  0.51432800  0.72586300  0.86802800  1
  Li  Li5  1  0.47181900  0.28221100  0.12598800  1
  Li  Li6  1  0.02843600  0.28403900  0.12383700  1
  Li  Li7  1  0.02183200  0.27658200  0.62839500  1
  Li  Li8  1  0.23893700  0.09208500  0.38254500  1
  Li  Li9  1  0.23352500  0.10374400  0.89103000  1
  Fe  Fe0  1  0.24550200  0.66682600  0.10445800  1
  Fe  Fe1  1  0.24817800  0.66573900  0.60487500  1
  Fe  Fe2  1  0.76079800  0.33385000  0.39032600  1
  Fe  Fe3  1  0.75171400  0.33825400  0.89163700  1
  P  P0  1  0.74669100  0.57949600  0.13682300  1
  P  P1  1  0.75491200  0.58986500  0.63669800  1
  P  P2  1  0.25178400  0.41319300  0.35522700  1
  P  P3  1  0.24576100  0.41705800  0.85820500  1
  C  C0  1  0.24593600  0.96723100  0.15084000  1
  C  C1  1  0.24222700  0.96103900  0.65785300  1
  C  C2  1  0.75160800  0.03042800  0.36170500  1
  C  C3  1  0.75788300  0.04100400  0.84279000  1
  O  O0  1  0.74629200  0.88190900  0.34527500  1
  O  O1  1  0.75235400  0.89255100  0.82344100  1
  O  O2  1  0.24261700  0.93188900  0.02991900  1
  O  O3  1  0.24482400  0.93514000  0.53473900  1
  O  O4  1  0.24018200  0.85405400  0.24420000  1
  O  O5  1  0.25561000  0.84153200  0.74559900  1
  O  O6  1  0.93317800  0.67453000  0.07918700  1
  O  O7  1  0.55797500  0.67894400  0.08553600  1
  O  O8  1  0.93371600  0.70142400  0.58982200  1
  O  O9  1  0.55952400  0.67795200  0.58255300  1
  O  O10  1  0.75286000  0.56901600  0.28996000  1
  O  O11  1  0.24429600  0.57689500  0.40860500  1
  O  O12  1  0.74827900  0.57133100  0.78993400  1
  O  O13  1  0.25142600  0.58078000  0.90982400  1
  O  O14  1  0.74257800  0.41111400  0.09183100  1
  O  O15  1  0.24072800  0.43278400  0.20227700  1
  O  O16  1  0.77783400  0.42785800  0.58282100  1
  O  O17  1  0.22734700  0.43487500  0.70633500  1
  O  O18  1  0.44758200  0.31735600  0.39692300  1
  O  O19  1  0.07427800  0.30536200  0.41071000  1
  O  O20  1  0.43718800  0.31419000  0.90074500  1
  O  O21  1  0.06488800  0.31599400  0.91879200  1
  O  O22  1  0.76332600  0.13371200  0.26078600  1
  O  O23  1  0.77053500  0.14573900  0.74341600  1
  O  O24  1  0.74658100  0.08013000  0.47834100  1
  O  O25  1  0.75058400  0.08962200  0.95888200  1
  O  O26  1  0.25486600  0.11243100  0.17997600  1
  O  O27  1  0.22519900  0.10168100  0.69531500  1
loop_
_geom_bond_atom_site_label_1
_geom_bond_atom_site_label_2
_geom_bond_distance
_geom_bond_site_symmetry_2
Na0 O25 2.157632 1_564
Na0 O0 2.286506 1_555
Na0 O6 2.425607 1_555
Na0 O7 2.425986 1_555
Na0 O22 2.458507 1_565
Na1 O27 2.301398 1_555
Na1 O23 2.319690 1_555
Na1 O16 2.367658 1_555
Na1 O18 2.383241 1_555
Na1 O17 2.470894 1_555
Na1 O24 2.757561 1_555
Na1 O20 2.910433 1_555
Li0 O24 1.957182 1_565
Li0 O1 2.067814 1_555
Li0 O8 2.136944 1_555
Li0 O23 2.409424 1_565
Li0 O9 2.561381 1_555
Li1 O0 2.041493 1_555
Li1 O11 2.130338 1_655
Li1 O8 2.160840 1_555
Li1 O10 2.190150 1_555
Li1 O4 2.455455 1_655
Li2 O0 2.030211 1_555
Li2 O9 2.072682 1_555
Li2 O10 2.159588 1_555
Li2 O11 2.216192 1_555
Li2 O4 2.578332 1_555
Li3 O1 2.095102 1_555
Li3 O6 2.132466 1_556
Li3 O13 2.164075 1_655
Li3 O12 2.167808 1_555
Li3 O5 2.440946 1_655
Li4 O1 2.140214 1_555
Li4 O13 2.145979 1_555
Li4 O12 2.195376 1_555
Li4 O7 2.250994 1_556
Li4 O5 2.273980 1_555
Li5 O26 2.078482 1_555
Li5 O14 2.101652 1_555
Li5 O15 2.153953 1_555
Li5 O20 2.313459 1_554
Li5 O22 2.609735 1_555
Li6 O15 2.094598 1_555
Li6 O21 2.108919 1_554
Li6 O26 2.117874 1_555
Li6 O14 2.157058 1_455
Li6 O22 2.516987 1_455
Li7 O27 2.065101 1_555
Li7 O16 2.068898 1_455
Li7 O17 2.117675 1_555
Li7 O19 2.248576 1_555
Li7 O23 2.264006 1_455
Li8 O3 1.975801 1_545
Li8 O26 2.070599 1_555
Li8 O19 2.145899 1_555
Li8 O18 2.385368 1_555
Li8 O4 2.573899 1_545
Li9 O2 1.964370 1_546
Li9 O27 2.007288 1_555
Li9 O21 2.150369 1_555
Li9 O20 2.257223 1_555
Fe0 O7 2.043454 1_555
Fe0 O6 2.048570 1_455
Fe0 O15 2.168749 1_555
Fe0 O13 2.180054 1_554
Fe0 O4 2.232970 1_555
Fe0 O2 2.336576 1_555
Fe1 O9 2.039509 1_555
Fe1 O8 2.069193 1_455
Fe1 O17 2.164403 1_555
Fe1 O5 2.166957 1_555
Fe1 O11 2.206066 1_555
Fe1 O3 2.361115 1_555
Fe2 O18 2.043869 1_555
Fe2 O19 2.060261 1_655
Fe2 O10 2.187254 1_555
Fe2 O16 2.192262 1_555
Fe2 O22 2.249740 1_555
Fe2 O24 2.287869 1_555
Fe3 O20 2.059056 1_555
Fe3 O21 2.061693 1_655
Fe3 O12 2.176716 1_555
Fe3 O25 2.185237 1_555
Fe3 O14 2.190991 1_556
Fe3 O23 2.330682 1_555
C0 O2 1.298683 1_555
C0 O26 1.303810 1_565
C0 O4 1.306931 1_555
C1 O27 1.296488 1_565
C1 O3 1.297787 1_555
C1 O5 1.309611 1_555
C2 O0 1.297192 1_545
C2 O24 1.300075 1_555
C2 O22 1.308340 1_555
C3 O25 1.291449 1_555
C3 O1 1.303237 1_545
C3 O23 1.304873 1_555
O6 P0 1.555629 1_555
O7 P0 1.555552 1_555
O8 P1 1.562502 1_555
O9 P1 1.552605 1_555
O10 P0 1.564740 1_555
O11 P2 1.545201 1_555
O12 P1 1.565457 1_555
O13 P3 1.538437 1_555
O14 P0 1.549154 1_555
O15 P2 1.564250 1_555
O16 P1 1.539126 1_555
O17 P3 1.556047 1_555
O18 P2 1.550517 1_555
O19 P2 1.562633 1_555
O20 P3 1.560767 1_555
O21 P3 1.564480 1_555
