# generated using pymatgen
data_Mn7SiN6
_symmetry_space_group_name_H-M   'P 1'
_cell_length_a   8.62112844
_cell_length_b   5.91372461
_cell_length_c   10.52293314
_cell_angle_alpha   90.00000000
_cell_angle_beta   90.00000000
_cell_angle_gamma   90.00000000
_symmetry_Int_Tables_number   1
_chemical_formula_structural   Mn7SiN6
_chemical_formula_sum   'Mn28 Si4 N24'
_cell_volume   536.49048373
_cell_formula_units_Z   4
loop_
 _symmetry_equiv_pos_site_id
 _symmetry_equiv_pos_as_xyz
  1  'x, y, z'
loop_
 _atom_site_type_symbol
 _atom_site_label
 _atom_site_symmetry_multiplicity
 _atom_site_fract_x
 _atom_site_fract_y
 _atom_site_fract_z
 _atom_site_occupancy
  Mn  Mn0  1  0.00269475  0.67149271  0.96698788  1
  Mn  Mn1  1  0.49730525  0.82850729  0.46698788  1
  Mn  Mn2  1  0.50269475  0.82850729  0.03301212  1
  Mn  Mn3  1  0.99730525  0.67149271  0.53301212  1
  Mn  Mn4  1  0.99730525  0.32850729  0.03301212  1
  Mn  Mn5  1  0.50269475  0.17149271  0.53301212  1
  Mn  Mn6  1  0.49730525  0.17149271  0.96698788  1
  Mn  Mn7  1  0.00269475  0.32850729  0.46698788  1
  Mn  Mn8  1  0.24682546  0.69583254  0.66003705  1
  Mn  Mn9  1  0.25317454  0.80416746  0.16003705  1
  Mn  Mn10  1  0.74682546  0.80416746  0.33996295  1
  Mn  Mn11  1  0.75317454  0.69583254  0.83996295  1
  Mn  Mn12  1  0.75317454  0.30416746  0.33996295  1
  Mn  Mn13  1  0.74682546  0.19583254  0.83996295  1
  Mn  Mn14  1  0.25317454  0.19583254  0.66003705  1
  Mn  Mn15  1  0.24682546  0.30416746  0.16003705  1
  Mn  Mn16  1  0.29665620  0.69137596  0.91175578  1
  Mn  Mn17  1  0.20334380  0.80862404  0.41175578  1
  Mn  Mn18  1  0.79665620  0.80862404  0.08824422  1
  Mn  Mn19  1  0.70334380  0.69137596  0.58824422  1
  Mn  Mn20  1  0.70334380  0.30862404  0.08824422  1
  Mn  Mn21  1  0.79665620  0.19137596  0.58824422  1
  Mn  Mn22  1  0.20334380  0.19137596  0.91175578  1
  Mn  Mn23  1  0.29665620  0.30862404  0.41175578  1
  Mn  Mn24  1  0.00000000  0.44993737  0.75000000  1
  Mn  Mn25  1  0.50000000  0.05006263  0.25000000  1
  Mn  Mn26  1  0.00000000  0.55006263  0.25000000  1
  Mn  Mn27  1  0.50000000  0.94993737  0.75000000  1
  Si  Si0  1  0.00000000  0.95944721  0.75000000  1
  Si  Si1  1  0.50000000  0.54055279  0.25000000  1
  Si  Si2  1  0.00000000  0.04055279  0.25000000  1
  Si  Si3  1  0.50000000  0.45944721  0.75000000  1
  N  N0  1  0.11538572  0.72820403  0.81146529  1
  N  N1  1  0.38461428  0.77179597  0.31146529  1
  N  N2  1  0.61538572  0.77179597  0.18853471  1
  N  N3  1  0.88461428  0.72820403  0.68853471  1
  N  N4  1  0.88461428  0.27179597  0.18853471  1
  N  N5  1  0.61538572  0.22820403  0.68853471  1
  N  N6  1  0.38461428  0.22820403  0.81146529  1
  N  N7  1  0.11538572  0.27179597  0.31146529  1
  N  N8  1  0.20371239  0.54179040  0.50737315  1
  N  N9  1  0.29628761  0.95820960  0.00737315  1
  N  N10  1  0.70371239  0.95820960  0.49262685  1
  N  N11  1  0.79628761  0.54179040  0.99262685  1
  N  N12  1  0.79628761  0.45820960  0.49262685  1
  N  N13  1  0.70371239  0.04179040  0.99262685  1
  N  N14  1  0.29628761  0.04179040  0.50737315  1
  N  N15  1  0.20371239  0.45820960  0.00737315  1
  N  N16  1  0.48202281  0.67796983  0.63139440  1
  N  N17  1  0.01797719  0.82203017  0.13139440  1
  N  N18  1  0.98202281  0.82203017  0.36860560  1
  N  N19  1  0.51797719  0.67796983  0.86860560  1
  N  N20  1  0.51797719  0.32203017  0.36860560  1
  N  N21  1  0.98202281  0.17796983  0.86860560  1
  N  N22  1  0.01797719  0.17796983  0.63139440  1
  N  N23  1  0.48202281  0.32203017  0.13139440  1
loop_
_geom_bond_atom_site_label_1
_geom_bond_atom_site_label_2
_geom_bond_distance
_geom_bond_site_symmetry_2
Mn0 N0 1.932522 1_555
Mn0 N17 1.950106 1_556
Mn0 N11 1.956426 1_455
Mn0 N15 2.185122 1_556
Mn1 N1 1.932522 1_555
Mn1 N16 1.950106 1_555
Mn1 N10 1.956426 1_555
Mn1 N14 2.185122 1_565
Mn2 N2 1.932522 1_555
Mn2 N19 1.950106 1_554
Mn2 N9 1.956426 1_555
Mn2 N13 2.185122 1_564
Mn3 N3 1.932522 1_555
Mn3 N18 1.950106 1_555
Mn3 N8 1.956426 1_655
Mn3 N12 2.185122 1_555
Mn4 N4 1.932522 1_555
Mn4 N21 1.950106 1_554
Mn4 N15 1.956426 1_655
Mn4 N11 2.185122 1_554
Mn5 N5 1.932522 1_555
Mn5 N20 1.950106 1_555
Mn5 N14 1.956426 1_555
Mn5 N10 2.185122 1_545
Mn6 N6 1.932522 1_555
Mn6 N23 1.950106 1_556
Mn6 N13 1.956426 1_555
Mn6 N9 2.185122 1_546
Mn7 N7 1.932522 1_555
Mn7 N22 1.950106 1_555
Mn7 N12 1.956426 1_455
Mn7 N8 2.185122 1_555
Mn8 N8 1.883814 1_555
Mn8 N0 1.964648 1_555
Mn8 N16 2.052665 1_555
Mn8 N14 2.635961 1_565
Mn9 N9 1.883814 1_555
Mn9 N1 1.964648 1_555
Mn9 N17 2.052665 1_555
Mn9 N15 2.635961 1_555
Mn10 N10 1.883814 1_555
Mn10 N2 1.964648 1_555
Mn10 N18 2.052665 1_555
Mn10 N12 2.635961 1_555
Mn11 N11 1.883814 1_555
Mn11 N3 1.964648 1_555
Mn11 N19 2.052665 1_555
Mn11 N13 2.635961 1_565
Mn12 N12 1.883814 1_555
Mn12 N4 1.964648 1_555
Mn12 N20 2.052665 1_555
Mn12 N10 2.635961 1_545
Mn13 N13 1.883814 1_555
Mn13 N5 1.964648 1_555
Mn13 N21 2.052665 1_555
Mn13 N11 2.635961 1_555
Mn14 N14 1.883814 1_555
Mn14 N6 1.964648 1_555
Mn14 N22 2.052665 1_555
Mn14 N8 2.635961 1_555
Mn15 N15 1.883814 1_555
Mn15 N7 1.964648 1_555
Mn15 N23 2.052665 1_555
Mn15 N9 2.635961 1_545
Mn16 N9 1.871476 1_556
Mn16 N15 1.885671 1_556
Mn16 N0 1.898263 1_555
Mn16 N19 1.962923 1_555
Mn17 N8 1.871476 1_555
Mn17 N14 1.885671 1_565
Mn17 N1 1.898263 1_555
Mn17 N18 1.962923 1_455
Mn18 N11 1.871476 1_554
Mn18 N13 1.885671 1_564
Mn18 N2 1.898263 1_555
Mn18 N17 1.962923 1_655
Mn19 N10 1.871476 1_555
Mn19 N12 1.885671 1_555
Mn19 N3 1.898263 1_555
Mn19 N16 1.962923 1_555
Mn20 N13 1.871476 1_554
Mn20 N11 1.885671 1_554
Mn20 N4 1.898263 1_555
Mn20 N23 1.962923 1_555
Mn21 N12 1.871476 1_555
Mn21 N10 1.885671 1_545
Mn21 N5 1.898263 1_555
Mn21 N22 1.962923 1_655
Mn22 N15 1.871476 1_556
Mn22 N9 1.885671 1_546
Mn22 N6 1.898263 1_555
Mn22 N21 1.962923 1_455
Mn23 N14 1.871476 1_555
Mn23 N8 1.885671 1_555
Mn23 N7 1.898263 1_555
Mn23 N20 1.962923 1_555
Mn24 N0 2.028757 1_555
Mn24 N3 2.028757 1_455
Mn24 N21 2.041686 1_455
Mn24 N22 2.041686 1_555
Mn25 N2 2.028757 1_545
Mn25 N1 2.028757 1_545
Mn25 N20 2.041686 1_555
Mn25 N23 2.041686 1_555
Mn26 N7 2.028757 1_555
Mn26 N4 2.028757 1_455
Mn26 N18 2.041686 1_455
Mn26 N17 2.041686 1_555
Mn27 N5 2.028757 1_565
Mn27 N6 2.028757 1_565
Mn27 N19 2.041686 1_555
Mn27 N16 2.041686 1_555
N0 Si0 1.810514 1_555
N1 Si1 1.810514 1_555
N2 Si1 1.810514 1_555
N3 Si0 1.810514 1_655
N4 Si2 1.810514 1_655
N5 Si3 1.810514 1_555
N6 Si3 1.810514 1_555
N7 Si2 1.810514 1_555
N16 Si3 1.803251 1_555
N17 Si2 1.803251 1_565
N18 Si2 1.803251 1_665
N19 Si3 1.803251 1_555
N20 Si1 1.803251 1_555
N21 Si0 1.803251 1_645
N22 Si0 1.803251 1_545
N23 Si1 1.803251 1_555
