# generated using pymatgen
data_Nd5Ge3
_symmetry_space_group_name_H-M   'P 1'
_cell_length_a   9.32446426
_cell_length_b   9.32446426
_cell_length_c   6.20404100
_cell_angle_alpha   90.00000000
_cell_angle_beta   90.00000000
_cell_angle_gamma   120.00000184
_symmetry_Int_Tables_number   1
_chemical_formula_structural   Nd5Ge3
_chemical_formula_sum   'Nd10 Ge6'
_cell_volume   467.14645785
_cell_formula_units_Z   2
loop_
 _symmetry_equiv_pos_site_id
 _symmetry_equiv_pos_as_xyz
  1  'x, y, z'
loop_
 _atom_site_type_symbol
 _atom_site_label
 _atom_site_symmetry_multiplicity
 _atom_site_fract_x
 _atom_site_fract_y
 _atom_site_fract_z
 _atom_site_occupancy
  Nd  Nd0  1  0.29277600  0.00000000  0.25000000  1
  Nd  Nd1  1  0.29277600  0.29277600  0.75000000  1
  Nd  Nd2  1  0.00000000  0.70722400  0.75000000  1
  Nd  Nd3  1  0.00000000  0.29277600  0.25000000  1
  Nd  Nd4  1  0.70722400  0.70722400  0.25000000  1
  Nd  Nd5  1  0.70722400  0.00000000  0.75000000  1
  Nd  Nd6  1  0.33333300  0.66666700  0.25000000  1
  Nd  Nd7  1  0.66666700  0.33333300  0.75000000  1
  Nd  Nd8  1  0.66666700  0.33333300  0.25000000  1
  Nd  Nd9  1  0.33333300  0.66666700  0.75000000  1
  Ge  Ge0  1  0.65050700  0.00000000  0.25000000  1
  Ge  Ge1  1  0.65050700  0.65050700  0.75000000  1
  Ge  Ge2  1  0.00000000  0.34949300  0.75000000  1
  Ge  Ge3  1  0.00000000  0.65050700  0.25000000  1
  Ge  Ge4  1  0.34949300  0.34949300  0.25000000  1
  Ge  Ge5  1  0.34949300  0.00000000  0.75000000  1
loop_
_geom_bond_atom_site_label_1
_geom_bond_atom_site_label_2
_geom_bond_distance
_geom_bond_site_symmetry_2
Ge0 Nd3 3.029231 1_655
Ge0 Nd4 3.029231 1_545
Ge0 Nd8 3.035616 1_555
Ge0 Nd6 3.035620 1_545
Ge0 Nd5 3.146779 1_554
Ge0 Nd5 3.146779 1_555
Ge0 Nd0 3.335650 1_555
Ge1 Nd2 3.029231 1_655
Ge1 Nd5 3.029231 1_565
Ge1 Nd9 3.035625 1_555
Ge1 Nd7 3.035625 1_555
Ge1 Nd4 3.146779 1_556
Ge1 Nd4 3.146779 1_555
Ge1 Nd1 3.335650 1_555
Ge2 Nd5 3.029231 1_455
Ge2 Nd1 3.029231 1_555
Ge2 Nd7 3.035616 1_455
Ge2 Nd9 3.035620 1_555
Ge2 Nd3 3.146779 1_556
Ge2 Nd3 3.146779 1_555
Ge2 Nd2 3.335650 1_555
Ge3 Nd0 3.029231 1_565
Ge3 Nd4 3.029231 1_455
Ge3 Nd6 3.035616 1_555
Ge3 Nd8 3.035620 1_455
Ge3 Nd2 3.146779 1_554
Ge3 Nd2 3.146779 1_555
Ge3 Nd3 3.335650 1_555
Ge4 Nd0 3.029231 1_555
Ge4 Nd3 3.029231 1_555
Ge4 Nd8 3.035625 1_555
Ge4 Nd6 3.035625 1_555
Ge4 Nd1 3.146779 1_555
Ge4 Nd1 3.146779 1_554
Ge4 Nd4 3.335650 1_555
Ge5 Nd2 3.029231 1_545
Ge5 Nd1 3.029231 1_555
Ge5 Nd9 3.035616 1_545
Ge5 Nd7 3.035620 1_555
Ge5 Nd0 3.146779 1_556
Ge5 Nd0 3.146779 1_555
Ge5 Nd5 3.335650 1_555
