# generated using pymatgen
data_Ca2S2O9
_symmetry_space_group_name_H-M   'P 1'
_cell_length_a   7.03937202
_cell_length_b   7.03937202
_cell_length_c   12.75484900
_cell_angle_alpha   90.00000000
_cell_angle_beta   90.00000000
_cell_angle_gamma   120.00000017
_symmetry_Int_Tables_number   1
_chemical_formula_structural   Ca2S2O9
_chemical_formula_sum   'Ca6 S6 O27'
_cell_volume   547.36092086
_cell_formula_units_Z   3
loop_
 _symmetry_equiv_pos_site_id
 _symmetry_equiv_pos_as_xyz
  1  'x, y, z'
loop_
 _atom_site_type_symbol
 _atom_site_label
 _atom_site_symmetry_multiplicity
 _atom_site_fract_x
 _atom_site_fract_y
 _atom_site_fract_z
 _atom_site_occupancy
  Ca  Ca0  1  0.99947400  0.47511300  0.66997500  1
  Ca  Ca1  1  0.47564000  0.00052600  0.00330800  1
  Ca  Ca2  1  0.52488700  0.52436000  0.33664100  1
  Ca  Ca3  1  0.99389700  0.45968800  0.16913600  1
  Ca  Ca4  1  0.46579100  0.00610300  0.50246900  1
  Ca  Ca5  1  0.54031200  0.53420900  0.83580200  1
  S  S0  1  0.45861000  0.99274900  0.25331900  1
  S  S1  1  0.53413900  0.54139000  0.58665200  1
  S  S2  1  0.00725100  0.46586100  0.91998500  1
  S  S3  1  0.46780800  0.00331000  0.75266600  1
  S  S4  1  0.99669000  0.46449800  0.41933300  1
  S  S5  1  0.53550200  0.53219200  0.08599900  1
  O  O0  1  0.40913800  0.13380400  0.32306500  1
  O  O1  1  0.72466700  0.59086200  0.65639900  1
  O  O2  1  0.86619600  0.27533300  0.98973200  1
  O  O3  1  0.27805900  0.85279900  0.68679500  1
  O  O4  1  0.14720100  0.42526000  0.35346200  1
  O  O5  1  0.57474000  0.72194100  0.02012900  1
  O  O6  1  0.52500500  0.86773800  0.32422800  1
  O  O7  1  0.34273300  0.47499500  0.65756100  1
  O  O8  1  0.13226200  0.65726700  0.99089400  1
  O  O9  1  0.64748800  0.14450100  0.67893100  1
  O  O10  1  0.85549900  0.50298700  0.34559800  1
  O  O11  1  0.49701300  0.35251200  0.01226500  1
  O  O12  1  0.26640200  0.84619500  0.18773700  1
  O  O13  1  0.57979200  0.73359800  0.52107000  1
  O  O14  1  0.15380500  0.42020800  0.85440300  1
  O  O15  1  0.41106200  0.13378800  0.82468500  1
  O  O16  1  0.86621200  0.27727500  0.49135200  1
  O  O17  1  0.72272500  0.58893800  0.15801900  1
  O  O18  1  0.63951700  0.13082700  0.17925300  1
  O  O19  1  0.49131000  0.36048300  0.51258700  1
  O  O20  1  0.86917300  0.50869000  0.84592000  1
  O  O21  1  0.53929900  0.87861000  0.82274400  1
  O  O22  1  0.12139000  0.66068900  0.48941000  1
  O  O23  1  0.33931100  0.46070100  0.15607700  1
  O  O24  1  0.03250900  0.11342700  0.12736500  1
  O  O25  1  0.08091800  0.96749100  0.46069900  1
  O  O26  1  0.88657300  0.91908200  0.79403200  1
loop_
_geom_bond_atom_site_label_1
_geom_bond_atom_site_label_2
_geom_bond_distance
_geom_bond_site_symmetry_2
Ca0 O3 2.397188 1_655
Ca0 O9 2.408772 1_555
Ca0 O7 2.421925 1_655
Ca0 O1 2.451991 1_555
Ca0 O20 2.479961 1_555
Ca0 O22 2.574123 1_655
Ca0 O16 2.589161 1_555
Ca0 O14 2.698717 1_655
Ca1 O5 2.397184 1_545
Ca1 O11 2.408775 1_555
Ca1 O8 2.421928 1_544
Ca1 O2 2.451991 1_554
Ca1 O18 2.479959 1_555
Ca1 O21 2.574109 1_544
Ca1 O15 2.589166 1_554
Ca1 O12 2.698733 1_545
Ca2 O4 2.397191 1_555
Ca2 O10 2.408768 1_555
Ca2 O6 2.421931 1_555
Ca2 O0 2.451991 1_555
Ca2 O19 2.479970 1_555
Ca2 O23 2.574112 1_555
Ca2 O17 2.589148 1_555
Ca2 O13 2.698735 1_555
Ca3 O18 2.413273 1_555
Ca3 O12 2.432992 1_655
Ca3 O23 2.433647 1_655
Ca3 O17 2.495699 1_555
Ca3 O10 2.530778 1_555
Ca3 O2 2.561605 1_554
Ca3 O8 2.587855 1_654
Ca3 O24 2.638458 1_655
Ca3 O4 2.648075 1_655
Ca4 O19 2.413274 1_555
Ca4 O13 2.432986 1_545
Ca4 O22 2.433647 1_545
Ca4 O16 2.495693 1_555
Ca4 O9 2.530778 1_555
Ca4 O0 2.561602 1_555
Ca4 O6 2.587844 1_545
Ca4 O25 2.638455 1_545
Ca4 O3 2.648075 1_545
Ca5 O20 2.413274 1_555
Ca5 O14 2.432993 1_555
Ca5 O21 2.433646 1_555
Ca5 O15 2.495692 1_555
Ca5 O11 2.530790 1_556
Ca5 O1 2.561594 1_555
Ca5 O7 2.587844 1_555
Ca5 O26 2.638455 1_555
Ca5 O5 2.648087 1_556
O0 S0 1.498128 1_545
O1 S1 1.498141 1_555
O2 S2 1.498139 1_655
O3 S3 1.482356 1_565
O4 S4 1.482356 1_455
O5 S5 1.482349 1_555
O6 S0 1.490683 1_555
O7 S1 1.490683 1_555
O8 S2 1.490683 1_555
O9 S3 1.488295 1_555
O10 S4 1.488295 1_555
O11 S5 1.488287 1_555
O12 S0 1.482848 1_555
O13 S1 1.482850 1_555
O14 S2 1.482844 1_555
O15 S3 1.487912 1_555
O16 S4 1.487907 1_555
O17 S5 1.487914 1_555
O18 S0 1.490351 1_545
O19 S1 1.490343 1_555
O20 S2 1.490343 1_655
O21 S3 1.504829 1_565
O22 S4 1.504822 1_455
O23 S5 1.504829 1_555
