# generated using pymatgen
data_MgCo(SiO3)2
_symmetry_space_group_name_H-M   'P 1'
_cell_length_a   5.28523600
_cell_length_b   9.06275600
_cell_length_c   18.44878000
_cell_angle_alpha   90.00000000
_cell_angle_beta   90.00000000
_cell_angle_gamma   90.00000000
_symmetry_Int_Tables_number   1
_chemical_formula_structural   MgCo(SiO3)2
_chemical_formula_sum   'Mg8 Co8 Si16 O48'
_cell_volume   883.67450225
_cell_formula_units_Z   8
loop_
 _symmetry_equiv_pos_site_id
 _symmetry_equiv_pos_as_xyz
  1  'x, y, z'
loop_
 _atom_site_type_symbol
 _atom_site_label
 _atom_site_symmetry_multiplicity
 _atom_site_fract_x
 _atom_site_fract_y
 _atom_site_fract_z
 _atom_site_occupancy
  Mg  Mg0  1  0.61768100  0.15217900  0.37548100  1
  Mg  Mg1  1  0.38231900  0.84782100  0.62451900  1
  Mg  Mg2  1  0.61768100  0.65217900  0.12451900  1
  Mg  Mg3  1  0.11768100  0.84782100  0.12451900  1
  Mg  Mg4  1  0.88231900  0.15217900  0.87548100  1
  Mg  Mg5  1  0.38231900  0.34782100  0.87548100  1
  Mg  Mg6  1  0.11768100  0.34782100  0.37548100  1
  Mg  Mg7  1  0.88231900  0.65217900  0.62451900  1
  Co  Co0  1  0.37652000  0.99203800  0.87618900  1
  Co  Co1  1  0.62348000  0.00796200  0.12381100  1
  Co  Co2  1  0.87652000  0.00796200  0.62381100  1
  Co  Co3  1  0.12348000  0.99203800  0.37618900  1
  Co  Co4  1  0.37652000  0.49203800  0.62381100  1
  Co  Co5  1  0.62348000  0.50796200  0.37618900  1
  Co  Co6  1  0.87652000  0.50796200  0.87618900  1
  Co  Co7  1  0.12348000  0.49203800  0.12381100  1
  Si  Si0  1  0.56442700  0.65977200  0.77242200  1
  Si  Si1  1  0.71514000  0.83639800  0.47440100  1
  Si  Si2  1  0.78486000  0.83639800  0.97440100  1
  Si  Si3  1  0.93557300  0.15977200  0.22757800  1
  Si  Si4  1  0.06442700  0.34022800  0.72757800  1
  Si  Si5  1  0.43557300  0.84022800  0.27242200  1
  Si  Si6  1  0.21514000  0.66360200  0.47440100  1
  Si  Si7  1  0.71514000  0.33639800  0.02559900  1
  Si  Si8  1  0.78486000  0.33639800  0.52559900  1
  Si  Si9  1  0.93557300  0.65977200  0.27242200  1
  Si  Si10  1  0.43557300  0.34022800  0.22757800  1
  Si  Si11  1  0.56442700  0.15977200  0.72757800  1
  Si  Si12  1  0.28486000  0.16360200  0.52559900  1
  Si  Si13  1  0.06442700  0.84022800  0.77242200  1
  Si  Si14  1  0.28486000  0.66360200  0.97440100  1
  Si  Si15  1  0.21514000  0.16360200  0.02559900  1
  O  O0  1  0.93321000  0.50072900  0.31197600  1
  O  O1  1  0.30175500  0.01484400  0.06728300  1
  O  O2  1  0.06679000  0.49927100  0.68802400  1
  O  O3  1  0.71302500  0.33840100  0.93655200  1
  O  O4  1  0.21302500  0.16159900  0.93655200  1
  O  O5  1  0.91940000  0.20521100  0.05105100  1
  O  O6  1  0.94544300  0.66244300  0.18396200  1
  O  O7  1  0.05455700  0.83755700  0.68396200  1
  O  O8  1  0.71302500  0.83840100  0.56344800  1
  O  O9  1  0.94544300  0.16244300  0.31603800  1
  O  O10  1  0.43321000  0.49927100  0.18802400  1
  O  O11  1  0.78697500  0.33840100  0.43655200  1
  O  O12  1  0.69824500  0.98515600  0.93271700  1
  O  O13  1  0.44544300  0.83755700  0.18396200  1
  O  O14  1  0.56679000  0.00072900  0.68802400  1
  O  O15  1  0.30175500  0.51484400  0.43271700  1
  O  O16  1  0.43321000  0.99927100  0.31197600  1
  O  O17  1  0.16422900  0.76868900  0.30274400  1
  O  O18  1  0.33577100  0.76868900  0.80274400  1
  O  O19  1  0.58060000  0.70521100  0.94894900  1
  O  O20  1  0.78697500  0.83840100  0.06344800  1
  O  O21  1  0.55455700  0.66244300  0.68396200  1
  O  O22  1  0.80175500  0.48515600  0.06728300  1
  O  O23  1  0.16422900  0.26868900  0.19725600  1
  O  O24  1  0.28697500  0.16159900  0.43655200  1
  O  O25  1  0.55455700  0.16244300  0.81603800  1
  O  O26  1  0.69824500  0.48515600  0.56728300  1
  O  O27  1  0.21302500  0.66159900  0.56344800  1
  O  O28  1  0.19824500  0.51484400  0.93271700  1
  O  O29  1  0.66422900  0.73131100  0.30274400  1
  O  O30  1  0.06679000  0.99927100  0.81197600  1
  O  O31  1  0.83577100  0.73131100  0.80274400  1
  O  O32  1  0.83577100  0.23131100  0.69725600  1
  O  O33  1  0.80175500  0.98515600  0.43271700  1
  O  O34  1  0.28697500  0.66159900  0.06344800  1
  O  O35  1  0.19824500  0.01484400  0.56728300  1
  O  O36  1  0.33577100  0.26868900  0.69725600  1
  O  O37  1  0.08060000  0.79478900  0.94894900  1
  O  O38  1  0.41940000  0.79478900  0.44894900  1
  O  O39  1  0.66422900  0.23131100  0.19725600  1
  O  O40  1  0.41940000  0.29478900  0.05105100  1
  O  O41  1  0.58060000  0.20521100  0.55105100  1
  O  O42  1  0.08060000  0.29478900  0.55105100  1
  O  O43  1  0.44544300  0.33755700  0.31603800  1
  O  O44  1  0.56679000  0.50072900  0.81197600  1
  O  O45  1  0.91940000  0.70521100  0.44894900  1
  O  O46  1  0.05455700  0.33755700  0.81603800  1
  O  O47  1  0.93321000  0.00072900  0.18802400  1
loop_
_geom_bond_atom_site_label_1
_geom_bond_atom_site_label_2
_geom_bond_distance
_geom_bond_site_symmetry_2
Mg0 O9 2.052354 1_555
Mg0 O16 2.059987 1_545
Mg0 O24 2.081279 1_555
Mg0 O33 2.086321 1_545
Mg0 O43 2.203144 1_555
Mg0 O11 2.217722 1_555
Mg1 O7 2.052354 1_555
Mg1 O14 2.059987 1_565
Mg1 O8 2.081279 1_555
Mg1 O35 2.086321 1_565
Mg1 O21 2.203144 1_555
Mg1 O27 2.217722 1_555
Mg2 O6 2.052354 1_555
Mg2 O10 2.059987 1_555
Mg2 O34 2.081279 1_555
Mg2 O22 2.086321 1_555
Mg2 O13 2.203144 1_555
Mg2 O20 2.217722 1_555
Mg3 O13 2.052354 1_555
Mg3 O47 2.059987 1_465
Mg3 O20 2.081279 1_455
Mg3 O1 2.086321 1_565
Mg3 O6 2.203144 1_455
Mg3 O34 2.217722 1_555
Mg4 O25 2.052354 1_555
Mg4 O30 2.059987 1_645
Mg4 O4 2.081279 1_655
Mg4 O12 2.086321 1_545
Mg4 O46 2.203144 1_655
Mg4 O3 2.217722 1_555
Mg5 O46 2.052354 1_555
Mg5 O44 2.059987 1_555
Mg5 O3 2.081279 1_555
Mg5 O28 2.086321 1_555
Mg5 O25 2.203144 1_555
Mg5 O4 2.217722 1_555
Mg6 O43 2.052354 1_555
Mg6 O0 2.059987 1_455
Mg6 O11 2.081279 1_455
Mg6 O15 2.086321 1_555
Mg6 O9 2.203144 1_455
Mg6 O24 2.217722 1_555
Mg7 O21 2.052354 1_555
Mg7 O2 2.059987 1_655
Mg7 O27 2.081279 1_655
Mg7 O26 2.086321 1_555
Mg7 O7 2.203144 1_655
Mg7 O8 2.217722 1_555
Co0 O12 1.995697 1_555
Co0 O30 2.021745 1_555
Co0 O4 2.085248 1_565
Co0 O25 2.121760 1_565
Co0 O18 2.445310 1_555
Co0 O37 2.728289 1_555
Co1 O1 1.995697 1_555
Co1 O47 2.021745 1_555
Co1 O20 2.085248 1_545
Co1 O13 2.121760 1_545
Co1 O39 2.445310 1_555
Co1 O5 2.728289 1_555
Co2 O35 1.995697 1_655
Co2 O14 2.021745 1_555
Co2 O8 2.085248 1_545
Co2 O7 2.121760 1_645
Co2 O32 2.445310 1_555
Co2 O41 2.728289 1_555
Co3 O33 1.995697 1_455
Co3 O16 2.021745 1_555
Co3 O24 2.085248 1_565
Co3 O9 2.121760 1_465
Co3 O17 2.445310 1_555
Co3 O38 2.728289 1_555
Co4 O26 1.995697 1_555
Co4 O2 2.021745 1_555
Co4 O27 2.085248 1_555
Co4 O21 2.121760 1_555
Co4 O36 2.445310 1_555
Co4 O42 2.728289 1_555
Co5 O15 1.995697 1_555
Co5 O0 2.021745 1_555
Co5 O11 2.085248 1_555
Co5 O43 2.121760 1_555
Co5 O29 2.445310 1_555
Co5 O45 2.728289 1_555
Co6 O28 1.995697 1_655
Co6 O44 2.021745 1_555
Co6 O3 2.085248 1_555
Co6 O46 2.121760 1_655
Co6 O31 2.445310 1_555
Co6 O19 2.728289 1_555
Co7 O22 1.995697 1_455
Co7 O10 2.021745 1_555
Co7 O34 2.085248 1_555
Co7 O6 2.121760 1_455
Co7 O23 2.445310 1_555
Co7 O40 2.728289 1_555
O0 Si9 1.615609 1_555
O1 Si15 1.618172 1_555
O2 Si4 1.615609 1_555
O3 Si7 1.642947 1_556
O4 Si15 1.642947 1_556
O5 Si7 1.673159 1_555
O5 Si15 1.675060 1_655
O6 Si9 1.632992 1_555
O7 Si13 1.632992 1_555
O8 Si1 1.642947 1_555
O9 Si3 1.632992 1_555
O10 Si10 1.615609 1_555
O11 Si8 1.642947 1_555
O12 Si2 1.618172 1_555
O13 Si5 1.632992 1_555
O14 Si11 1.615609 1_555
O15 Si6 1.618172 1_555
O16 Si5 1.615609 1_555
O17 Si9 1.657634 1_455
O17 Si5 1.670320 1_555
O18 Si0 1.657634 1_555
O18 Si13 1.670320 1_555
O19 Si2 1.673159 1_555
O19 Si14 1.675060 1_555
O20 Si2 1.642947 1_554
O21 Si0 1.632992 1_555
O22 Si7 1.618172 1_555
O23 Si3 1.657634 1_455
O23 Si10 1.670320 1_555
O24 Si12 1.642947 1_555
O25 Si11 1.632992 1_555
O26 Si8 1.618172 1_555
O27 Si6 1.642947 1_555
O28 Si14 1.618172 1_555
O29 Si5 1.657634 1_555
O29 Si9 1.670320 1_555
O30 Si13 1.615609 1_555
O31 Si13 1.657634 1_655
O31 Si0 1.670320 1_555
O32 Si4 1.657634 1_655
O32 Si11 1.670320 1_555
O33 Si1 1.618172 1_555
O34 Si14 1.642947 1_554
O35 Si12 1.618172 1_555
O36 Si11 1.657634 1_555
O36 Si4 1.670320 1_555
O37 Si14 1.673159 1_555
O37 Si2 1.675060 1_455
O38 Si6 1.673159 1_555
O38 Si1 1.675060 1_555
O39 Si10 1.657634 1_555
O39 Si3 1.670320 1_555
O40 Si15 1.673159 1_555
O40 Si7 1.675060 1_555
O41 Si8 1.673159 1_555
O41 Si12 1.675060 1_555
O42 Si12 1.673159 1_555
O42 Si8 1.675060 1_455
O43 Si10 1.632992 1_555
O44 Si0 1.615609 1_555
O45 Si1 1.673159 1_555
O45 Si6 1.675060 1_655
O46 Si4 1.632992 1_555
O47 Si3 1.615609 1_555
