# generated using pymatgen
data_Ti2FeNiSb2
_symmetry_space_group_name_H-M   'P 1'
_cell_length_a   7.22202698
_cell_length_b   7.22202698
_cell_length_c   7.22202750
_cell_angle_alpha   33.88420062
_cell_angle_beta   33.88420062
_cell_angle_gamma   33.88420047
_symmetry_Int_Tables_number   1
_chemical_formula_structural   Ti2FeNiSb2
_chemical_formula_sum   'Ti2 Fe1 Ni1 Sb2'
_cell_volume   104.34455278
_cell_formula_units_Z   1
loop_
 _symmetry_equiv_pos_site_id
 _symmetry_equiv_pos_as_xyz
  1  'x, y, z'
loop_
 _atom_site_type_symbol
 _atom_site_label
 _atom_site_symmetry_multiplicity
 _atom_site_fract_x
 _atom_site_fract_y
 _atom_site_fract_z
 _atom_site_occupancy
  Ti  Ti0  1  0.37199800  0.37199800  0.37199800  1
  Ti  Ti1  1  0.87887700  0.87887700  0.87887700  1
  Fe  Fe0  1  0.99731400  0.99731400  0.99731400  1
  Ni  Ni0  1  0.50107000  0.50107000  0.50107000  1
  Sb  Sb0  1  0.12335200  0.12335200  0.12335200  1
  Sb  Sb1  1  0.62738900  0.62738900  0.62738900  1
loop_
_geom_bond_atom_site_label_1
_geom_bond_atom_site_label_2
_geom_bond_distance
_geom_bond_site_symmetry_2
Fe0 Ti1 2.416435 1_555
Fe0 Sb1 2.542203 1_556
Fe0 Sb1 2.542203 1_565
Fe0 Sb1 2.542203 1_655
Fe0 Sb0 2.571516 1_666
Fe0 Ti0 2.572392 1_665
Fe0 Ti0 2.572392 1_566
Fe0 Ti0 2.572392 1_656
Ni0 Sb1 2.577249 1_555
Ni0 Sb0 2.593353 1_556
Ni0 Sb0 2.593353 1_655
Ni0 Sb0 2.593353 1_565
Ni0 Ti1 2.593988 1_554
Ni0 Ti1 2.593988 1_455
Ni0 Ti1 2.593988 1_545
Ni0 Ti0 2.633417 1_555
Sb0 Ti0 2.981760 1_545
Sb0 Ti0 2.981760 1_455
Sb0 Ti0 2.981761 1_554
Sb0 Ti1 3.031867 1_544
Sb0 Ti1 3.031867 1_454
Sb0 Ti1 3.031867 1_445
Sb1 Ti0 2.904182 1_655
Sb1 Ti0 2.904182 1_565
Sb1 Ti0 2.904182 1_556
Sb1 Ti1 2.948539 1_545
Sb1 Ti1 2.948539 1_455
Sb1 Ti1 2.948539 1_554
