# generated using pymatgen
data_TiSi5O13
_symmetry_space_group_name_H-M   'P 1'
_cell_length_a   15.06688176
_cell_length_b   15.22394230
_cell_length_c   15.22394230
_cell_angle_alpha   89.77203460
_cell_angle_beta   105.02039875
_cell_angle_gamma   105.02039875
_symmetry_Int_Tables_number   1
_chemical_formula_structural   TiSi5O13
_chemical_formula_sum   'Ti8 Si40 O104'
_cell_volume   3250.00230344
_cell_formula_units_Z   8
loop_
 _symmetry_equiv_pos_site_id
 _symmetry_equiv_pos_as_xyz
  1  'x, y, z'
loop_
 _atom_site_type_symbol
 _atom_site_label
 _atom_site_symmetry_multiplicity
 _atom_site_fract_x
 _atom_site_fract_y
 _atom_site_fract_z
 _atom_site_occupancy
  Ti  Ti0  1  0.50000000  0.50000000  0.00000000  1
  Ti  Ti1  1  -0.00000000  0.00000000  0.50000000  1
  Ti  Ti2  1  0.50000000  0.00000000  0.00000000  1
  Ti  Ti3  1  -0.00000000  0.00000000  0.00000000  1
  Ti  Ti4  1  0.48496784  0.74486280  0.99513175  1
  Ti  Ti5  1  0.01503216  0.00486825  0.25513720  1
  Ti  Ti6  1  0.51503216  0.25513720  0.00486825  1
  Ti  Ti7  1  0.98496784  0.99513175  0.74486280  1
  Si  Si0  1  0.25000000  0.81418209  0.18581791  1
  Si  Si1  1  0.75000000  0.18581791  0.81418209  1
  Si  Si2  1  0.38528393  0.70019051  0.77339575  1
  Si  Si3  1  0.11471607  0.22660425  0.29980949  1
  Si  Si4  1  0.61471607  0.29980949  0.22660425  1
  Si  Si5  1  0.88528393  0.77339575  0.70019051  1
  Si  Si6  1  0.39275836  0.99307079  0.77808783  1
  Si  Si7  1  0.10724164  0.22191217  0.00692921  1
  Si  Si8  1  0.60724164  0.00692921  0.22191217  1
  Si  Si9  1  0.89275836  0.77808783  0.99307079  1
  Si  Si10  1  0.39334046  0.70192407  0.17307881  1
  Si  Si11  1  0.10665954  0.82692119  0.29807593  1
  Si  Si12  1  0.60665954  0.29807593  0.82692119  1
  Si  Si13  1  0.89334046  0.17307881  0.70192407  1
  Si  Si14  1  0.40059161  0.49921464  0.17495282  1
  Si  Si15  1  0.09940839  0.82504718  0.50078536  1
  Si  Si16  1  0.59940839  0.50078536  0.82504718  1
  Si  Si17  1  0.90059161  0.17495282  0.49921464  1
  Si  Si18  1  0.59238933  0.79785398  0.82470424  1
  Si  Si19  1  0.90761067  0.17529576  0.20214602  1
  Si  Si20  1  0.40761067  0.20214602  0.17529576  1
  Si  Si21  1  0.09238933  0.82470424  0.79785398  1
  Si  Si22  1  0.59968984  0.00345445  0.82682538  1
  Si  Si23  1  0.90031016  0.17317462  0.99654555  1
  Si  Si24  1  0.40031016  0.99654555  0.17317462  1
  Si  Si25  1  0.09968984  0.82682538  0.00345445  1
  Si  Si26  1  0.60011402  0.80122617  0.21939976  1
  Si  Si27  1  0.89988598  0.78060024  0.19877383  1
  Si  Si28  1  0.39988598  0.19877383  0.78060024  1
  Si  Si29  1  0.10011402  0.21939976  0.80122617  1
  Si  Si30  1  0.60787241  0.50413949  0.22414827  1
  Si  Si31  1  0.89212759  0.77585173  0.49586051  1
  Si  Si32  1  0.39212759  0.49586051  0.77585173  1
  Si  Si33  1  0.10787241  0.22414827  0.50413949  1
  Si  Si34  1  0.74039112  0.68904322  0.81172224  1
  Si  Si35  1  0.75960888  0.18827776  0.31095678  1
  Si  Si36  1  0.25960888  0.31095678  0.18827776  1
  Si  Si37  1  0.24039112  0.81172224  0.68904322  1
  Si  Si38  1  0.75000000  0.69262939  0.30737061  1
  Si  Si39  1  0.25000000  0.30737061  0.69262939  1
  O  O0  1  0.29997377  0.73535462  0.70723199  1
  O  O1  1  0.20002623  0.29276801  0.26464538  1
  O  O2  1  0.70002623  0.26464538  0.29276801  1
  O  O3  1  0.79997377  0.70723199  0.73535462  1
  O  O4  1  0.39195031  0.72106596  0.88083563  1
  O  O5  1  0.10804969  0.11916437  0.27893404  1
  O  O6  1  0.60804969  0.27893404  0.11916437  1
  O  O7  1  0.89195031  0.88083563  0.72106596  1
  O  O8  1  0.48722465  0.75369437  0.75431083  1
  O  O9  1  0.01277535  0.24568917  0.24630563  1
  O  O10  1  0.51277535  0.24630563  0.24568917  1
  O  O11  1  0.98722465  0.75431083  0.75369437  1
  O  O12  1  0.36391112  0.59094036  0.75022045  1
  O  O13  1  0.13608888  0.24977955  0.40905964  1
  O  O14  1  0.63608888  0.40905964  0.24977955  1
  O  O15  1  0.86391112  0.75022045  0.59094036  1
  O  O16  1  0.31168255  0.91379485  0.70978474  1
  O  O17  1  0.18831745  0.29021526  0.08620515  1
  O  O18  1  0.68831745  0.08620515  0.29021526  1
  O  O19  1  0.81168255  0.70978474  0.91379485  1
  O  O20  1  0.40056996  0.97153054  0.88496290  1
  O  O21  1  0.09943004  0.11503710  0.02846946  1
  O  O22  1  0.59943004  0.02846946  0.11503710  1
  O  O23  1  0.90056996  0.88496290  0.97153054  1
  O  O24  1  0.49559194  0.99969972  0.75735399  1
  O  O25  1  0.00440806  0.24264601  0.00030028  1
  O  O26  1  0.50440806  0.00030028  0.24264601  1
  O  O27  1  0.99559194  0.75735399  0.99969972  1
  O  O28  1  0.39642839  0.71421932  0.06686258  1
  O  O29  1  0.10357161  0.93313742  0.28578068  1
  O  O30  1  0.60357161  0.28578068  0.93313742  1
  O  O31  1  0.89642839  0.06686258  0.71421932  1
  O  O32  1  0.49507305  0.87274596  0.01484702  1
  O  O33  1  0.00492695  0.98515298  0.12725404  1
  O  O34  1  0.50492695  0.12725404  0.98515298  1
  O  O35  1  0.99507305  0.01484702  0.87274596  1
  O  O36  1  0.50259641  0.62552470  0.98483641  1
  O  O37  1  0.99740359  0.01516359  0.37447530  1
  O  O38  1  0.49740359  0.37447530  0.01516359  1
  O  O39  1  0.00259641  0.98483641  0.62552470  1
  O  O40  1  0.40556108  0.48848155  0.06921646  1
  O  O41  1  0.09443892  0.93078354  0.51151845  1
  O  O42  1  0.59443892  0.51151845  0.93078354  1
  O  O43  1  0.90556108  0.06921646  0.48848155  1
  O  O44  1  0.37355716  0.59384704  0.19101072  1
  O  O45  1  0.12644284  0.80898928  0.40615296  1
  O  O46  1  0.62644284  0.40615296  0.80898928  1
  O  O47  1  0.87355716  0.19101072  0.59384704  1
  O  O48  1  0.50499959  0.50047872  0.24364442  1
  O  O49  1  0.99500041  0.75635558  0.49952128  1
  O  O50  1  0.49500041  0.49952128  0.75635558  1
  O  O51  1  0.00499959  0.24364442  0.50047872  1
  O  O52  1  0.32077587  0.91654957  0.20179245  1
  O  O53  1  0.17922413  0.79820755  0.08345043  1
  O  O54  1  0.67922413  0.08345043  0.79820755  1
  O  O55  1  0.82077587  0.20179245  0.91654957  1
  O  O56  1  0.31017222  0.73857224  0.19785030  1
  O  O57  1  0.18982778  0.80214970  0.26142776  1
  O  O58  1  0.68982778  0.26142776  0.80214970  1
  O  O59  1  0.81017222  0.19785030  0.73857224  1
  O  O60  1  0.58804267  0.78110285  0.93033792  1
  O  O61  1  0.91195733  0.06966208  0.21889715  1
  O  O62  1  0.41195733  0.21889715  0.06966208  1
  O  O63  1  0.08804267  0.93033792  0.78110285  1
  O  O64  1  0.59236727  0.77700958  0.11189053  1
  O  O65  1  0.90763273  0.88810947  0.22299042  1
  O  O66  1  0.40763273  0.22299042  0.88810947  1
  O  O67  1  0.09236727  0.11189053  0.77700958  1
  O  O68  1  0.59653256  0.01787154  0.93245424  1
  O  O69  1  0.90346744  0.06754576  0.98212846  1
  O  O70  1  0.40346744  0.98212846  0.06754576  1
  O  O71  1  0.09653256  0.93245424  0.01787154  1
  O  O72  1  0.60043649  0.52143055  0.11603542  1
  O  O73  1  0.89956351  0.88396458  0.47856945  1
  O  O74  1  0.39956351  0.47856945  0.88396458  1
  O  O75  1  0.10043649  0.11603542  0.52143055  1
  O  O76  1  0.62639899  0.90755473  0.81617985  1
  O  O77  1  0.87360101  0.18382015  0.09244527  1
  O  O78  1  0.37360101  0.09244527  0.18382015  1
  O  O79  1  0.12639899  0.81617985  0.90755473  1
  O  O80  1  0.66857132  0.75418482  0.79564123  1
  O  O81  1  0.83142868  0.20435877  0.24581518  1
  O  O82  1  0.33142868  0.24581518  0.20435877  1
  O  O83  1  0.16857132  0.79564123  0.75418482  1
  O  O84  1  0.49647810  0.75930862  0.23990384  1
  O  O85  1  0.00352190  0.76009616  0.24069138  1
  O  O86  1  0.50352190  0.24069138  0.76009616  1
  O  O87  1  0.99647810  0.23990384  0.75930862  1
  O  O88  1  0.63514858  0.91099464  0.24233153  1
  O  O89  1  0.86485142  0.75766847  0.08900536  1
  O  O90  1  0.36485142  0.08900536  0.75766847  1
  O  O91  1  0.13514858  0.24233153  0.91099464  1
  O  O92  1  0.67791766  0.75754823  0.28579469  1
  O  O93  1  0.82208234  0.71420531  0.24245177  1
  O  O94  1  0.32208234  0.24245177  0.71420531  1
  O  O95  1  0.17791766  0.28579469  0.75754823  1
  O  O96  1  0.69066968  0.58599672  0.28879088  1
  O  O97  1  0.80933032  0.71120912  0.41400328  1
  O  O98  1  0.30933032  0.41400328  0.71120912  1
  O  O99  1  0.19066968  0.28879088  0.58599672  1
  O  O100  1  0.68057355  0.58273246  0.80046843  1
  O  O101  1  0.81942645  0.19953157  0.41726754  1
  O  O102  1  0.31942645  0.41726754  0.19953157  1
  O  O103  1  0.18057355  0.80046843  0.58273246  1
loop_
_geom_bond_atom_site_label_1
_geom_bond_atom_site_label_2
_geom_bond_distance
_geom_bond_site_symmetry_2
O0 Si2 1.623151 1_555
O0 Si37 1.625987 1_555
O1 Si3 1.623151 1_555
O1 Si36 1.625987 1_555
O2 Si4 1.623151 1_555
O2 Si35 1.625987 1_555
O3 Si5 1.623151 1_555
O3 Si34 1.625987 1_555
O4 Si2 1.639788 1_555
O4 Ti4 1.897623 1_555
O5 Si3 1.639788 1_555
O5 Ti5 1.897623 1_555
O6 Si4 1.639788 1_555
O6 Ti6 1.897623 1_555
O7 Si5 1.639788 1_555
O7 Ti7 1.897623 1_555
O8 Si18 1.638454 1_555
O8 Si2 1.639491 1_555
O9 Si19 1.638454 1_455
O9 Si3 1.639491 1_555
O10 Si20 1.638454 1_555
O10 Si4 1.639491 1_555
O11 Si21 1.638454 1_655
O11 Si5 1.639491 1_555
O12 Si32 1.629944 1_555
O12 Si2 1.631760 1_555
O13 Si33 1.629944 1_555
O13 Si3 1.631760 1_555
O14 Si30 1.629944 1_555
O14 Si4 1.631760 1_555
O15 Si31 1.629944 1_555
O15 Si5 1.631760 1_555
O16 Si6 1.617869 1_555
O16 Si37 1.622088 1_555
O17 Si7 1.617869 1_555
O17 Si36 1.622088 1_555
O18 Si8 1.617869 1_555
O18 Si35 1.622088 1_555
O19 Si9 1.617869 1_555
O19 Si34 1.622088 1_555
O20 Si6 1.638662 1_555
O20 Ti2 1.951629 1_566
O21 Si7 1.638662 1_555
O21 Ti3 1.951629 1_555
O22 Si8 1.638662 1_555
O22 Ti2 1.951629 1_555
O23 Si9 1.638662 1_555
O23 Ti3 1.951629 1_666
O24 Si22 1.635856 1_565
O24 Si6 1.637864 1_555
O25 Si23 1.635856 1_454
O25 Si7 1.637864 1_555
O26 Si24 1.635856 1_545
O26 Si8 1.637864 1_555
O27 Si25 1.635856 1_656
O27 Si9 1.637864 1_555
O28 Si10 1.638310 1_555
O28 Ti4 1.902158 1_554
O29 Si11 1.638310 1_555
O29 Ti5 1.902158 1_565
O30 Si12 1.638310 1_555
O30 Ti6 1.902158 1_556
O31 Si13 1.638310 1_555
O31 Ti7 1.902158 1_545
O32 Ti4 1.931567 1_554
O32 Ti2 1.934020 1_565
O33 Ti5 1.931567 1_565
O33 Ti3 1.934020 1_565
O34 Ti6 1.931567 1_556
O34 Ti2 1.934020 1_556
O35 Ti7 1.931567 1_545
O35 Ti3 1.934020 1_656
O36 Ti0 1.915487 1_556
O36 Ti4 1.915679 1_555
O37 Ti1 1.915487 1_655
O37 Ti5 1.915679 1_655
O38 Ti0 1.915487 1_555
O38 Ti6 1.915679 1_555
O39 Ti1 1.915487 1_565
O39 Ti7 1.915679 1_455
O40 Si14 1.641470 1_555
O40 Ti0 1.952471 1_555
O41 Si15 1.641470 1_555
O41 Ti1 1.952471 1_565
O42 Si16 1.641470 1_555
O42 Ti0 1.952471 1_556
O43 Si17 1.641470 1_555
O43 Ti1 1.952471 1_655
O44 Si10 1.629409 1_555
O44 Si14 1.630893 1_555
O45 Si11 1.629409 1_555
O45 Si15 1.630893 1_555
O46 Si12 1.629409 1_555
O46 Si16 1.630893 1_555
O47 Si13 1.629409 1_555
O47 Si17 1.630893 1_555
O48 Si30 1.639257 1_555
O48 Si14 1.643292 1_555
O49 Si31 1.639257 1_555
O49 Si15 1.643292 1_655
O50 Si32 1.639257 1_555
O50 Si16 1.643292 1_555
O51 Si33 1.639257 1_555
O51 Si17 1.643292 1_455
O52 Si24 1.618311 1_555
O52 Si0 1.622412 1_555
O53 Si25 1.618311 1_555
O53 Si0 1.622412 1_555
O54 Si22 1.618311 1_555
O54 Si1 1.622412 1_555
O55 Si23 1.618311 1_555
O55 Si1 1.622412 1_555
O56 Si10 1.622567 1_555
O56 Si0 1.622847 1_555
O57 Si11 1.622567 1_555
O57 Si0 1.622847 1_555
O58 Si12 1.622567 1_555
O58 Si1 1.622847 1_555
O59 Si13 1.622567 1_555
O59 Si1 1.622847 1_555
O60 Si18 1.642612 1_555
O60 Ti4 2.008696 1_555
O61 Si19 1.642612 1_555
O61 Ti5 2.008696 1_655
O62 Si20 1.642612 1_555
O62 Ti6 2.008696 1_555
O63 Si21 1.642612 1_555
O63 Ti7 2.008696 1_455
O64 Si26 1.646771 1_555
O64 Ti4 2.030558 1_554
O65 Si27 1.646771 1_555
O65 Ti5 2.030558 1_665
O66 Si28 1.646771 1_555
O66 Ti6 2.030558 1_556
O67 Si29 1.646771 1_555
O67 Ti7 2.030558 1_445
O68 Si22 1.638369 1_555
O68 Ti2 1.953137 1_556
O69 Si23 1.638369 1_555
O69 Ti3 1.953137 1_656
O70 Si24 1.638369 1_555
O70 Ti2 1.953137 1_565
O71 Si25 1.638369 1_555
O71 Ti3 1.953137 1_565
O72 Si30 1.645328 1_555
O72 Ti0 1.969793 1_555
O73 Si31 1.645328 1_555
O73 Ti1 1.969793 1_665
O74 Si32 1.645328 1_555
O74 Ti0 1.969793 1_556
O75 Si33 1.645328 1_555
O75 Ti1 1.969793 1_555
O76 Si18 1.630259 1_555
O76 Si22 1.630934 1_565
O77 Si19 1.630259 1_555
O77 Si23 1.630934 1_554
O78 Si20 1.630259 1_555
O78 Si24 1.630934 1_545
O79 Si21 1.630259 1_555
O79 Si25 1.630934 1_556
O80 Si18 1.617516 1_555
O80 Si34 1.622146 1_555
O81 Si19 1.617516 1_555
O81 Si35 1.622146 1_555
O82 Si20 1.617516 1_555
O82 Si36 1.622146 1_555
O83 Si21 1.617516 1_555
O83 Si37 1.622146 1_555
O84 Si26 1.636286 1_555
O84 Si10 1.642247 1_555
O85 Si27 1.636286 1_455
O85 Si11 1.642247 1_555
O86 Si28 1.636286 1_555
O86 Si12 1.642247 1_555
O87 Si29 1.636286 1_655
O87 Si13 1.642247 1_555
O88 Si26 1.626353 1_555
O88 Si8 1.628938 1_565
O89 Si27 1.626353 1_555
O89 Si9 1.628938 1_554
O90 Si28 1.626353 1_555
O90 Si6 1.628938 1_545
O91 Si29 1.626353 1_555
O91 Si7 1.628938 1_556
O92 Si26 1.619433 1_555
O92 Si38 1.622669 1_555
O93 Si27 1.619433 1_555
O93 Si38 1.622669 1_555
O94 Si28 1.619433 1_555
O94 Si39 1.622669 1_555
O95 Si29 1.619433 1_555
O95 Si39 1.622669 1_555
O96 Si38 1.623223 1_555
O96 Si30 1.626451 1_555
O97 Si38 1.623223 1_555
O97 Si31 1.626451 1_555
O98 Si39 1.623223 1_555
O98 Si32 1.626451 1_555
O99 Si39 1.623223 1_555
O99 Si33 1.626451 1_555
O100 Si34 1.620857 1_555
O100 Si16 1.623145 1_555
O101 Si35 1.620857 1_555
O101 Si17 1.623145 1_555
O102 Si36 1.620857 1_555
O102 Si14 1.623145 1_555
O103 Si37 1.620857 1_555
O103 Si15 1.623145 1_555
