# generated using pymatgen
data_BaH6C2N4O5
_symmetry_space_group_name_H-M   'P 1'
_cell_length_a   11.63348900
_cell_length_b   6.79705000
_cell_length_c   10.18459409
_cell_angle_alpha   89.30045681
_cell_angle_beta   90.00000000
_cell_angle_gamma   90.00000000
_symmetry_Int_Tables_number   1
_chemical_formula_structural   BaH6C2N4O5
_chemical_formula_sum   'Ba4 H24 C8 N16 O20'
_cell_volume   805.27052374
_cell_formula_units_Z   4
loop_
 _symmetry_equiv_pos_site_id
 _symmetry_equiv_pos_as_xyz
  1  'x, y, z'
loop_
 _atom_site_type_symbol
 _atom_site_label
 _atom_site_symmetry_multiplicity
 _atom_site_fract_x
 _atom_site_fract_y
 _atom_site_fract_z
 _atom_site_occupancy
  Ba  Ba0  1  0.69205700  0.90705000  0.57888000  1
  Ba  Ba1  1  0.30794300  0.09295000  0.42112000  1
  Ba  Ba2  1  0.19205700  0.09295000  0.92112000  1
  Ba  Ba3  1  0.80794300  0.90705000  0.07888000  1
  H  H0  1  0.34058600  0.41629200  0.67023900  1
  H  H1  1  0.65941400  0.58370800  0.32976100  1
  H  H2  1  0.84058600  0.58370800  0.82976100  1
  H  H3  1  0.15941400  0.41629200  0.17023900  1
  H  H4  1  0.02446400  0.69459700  0.84012200  1
  H  H5  1  0.97553600  0.30540300  0.15987800  1
  H  H6  1  0.52446400  0.30540300  0.65987800  1
  H  H7  1  0.47553600  0.69459700  0.34012200  1
  H  H8  1  0.30875100  0.53246800  0.88400800  1
  H  H9  1  0.69124900  0.46753200  0.11599200  1
  H  H10  1  0.80875100  0.46753200  0.61599200  1
  H  H11  1  0.19124900  0.53246800  0.38400800  1
  H  H12  1  0.19638200  0.55490200  0.80224900  1
  H  H13  1  0.80361800  0.44509800  0.19775100  1
  H  H14  1  0.69638200  0.44509800  0.69775100  1
  H  H15  1  0.30361800  0.55490200  0.30224900  1
  H  H16  1  0.41165800  0.54397200  0.57154100  1
  H  H17  1  0.58834200  0.45602800  0.42845900  1
  H  H18  1  0.91165800  0.45602800  0.92845900  1
  H  H19  1  0.08834200  0.54397200  0.07154100  1
  H  H20  1  0.07405200  0.75587000  0.70187900  1
  H  H21  1  0.92594800  0.24413000  0.29812100  1
  H  H22  1  0.57405200  0.24413000  0.79812100  1
  H  H23  1  0.42594800  0.75587000  0.20187900  1
  C  C0  1  0.39981500  0.87984400  0.69422000  1
  C  C1  1  0.60018500  0.12015600  0.30578000  1
  C  C2  1  0.89981500  0.12015600  0.80578000  1
  C  C3  1  0.10018500  0.87984400  0.19422000  1
  C  C4  1  0.45384600  0.82024200  0.82094800  1
  C  C5  1  0.54615400  0.17975800  0.17905200  1
  C  C6  1  0.95384600  0.17975800  0.67905200  1
  C  C7  1  0.04615400  0.82024200  0.32094800  1
  N  N0  1  0.39751000  0.81124600  0.93657600  1
  N  N1  1  0.60249000  0.18875400  0.06342400  1
  N  N2  1  0.89751000  0.18875400  0.56342400  1
  N  N3  1  0.10249000  0.81124600  0.43657600  1
  N  N4  1  0.06591600  0.22134400  0.66467800  1
  N  N5  1  0.93408400  0.77865600  0.33532200  1
  N  N6  1  0.56591600  0.77865600  0.83532200  1
  N  N7  1  0.43408400  0.22134400  0.16467800  1
  N  N8  1  0.02155500  0.76236300  0.52475200  1
  N  N9  1  0.97844500  0.23763700  0.47524800  1
  N  N10  1  0.52155500  0.23763700  0.97524800  1
  N  N11  1  0.47844500  0.76236300  0.02475200  1
  N  N12  1  0.07955500  0.25528100  0.53551700  1
  N  N13  1  0.92044500  0.74471900  0.46448300  1
  N  N14  1  0.57955500  0.74471900  0.96448300  1
  N  N15  1  0.42044500  0.25528100  0.03551700  1
  O  O0  1  0.09607000  0.74078800  0.79616700  1
  O  O1  1  0.90393000  0.25921200  0.20383300  1
  O  O2  1  0.59607000  0.25921200  0.70383300  1
  O  O3  1  0.40393000  0.74078800  0.29616700  1
  O  O4  1  0.39216400  0.40600700  0.59247700  1
  O  O5  1  0.60783600  0.59399300  0.40752300  1
  O  O6  1  0.89216400  0.59399300  0.90752300  1
  O  O7  1  0.10783600  0.40600700  0.09247700  1
  O  O8  1  0.44953100  0.82596900  0.58826500  1
  O  O9  1  0.55046900  0.17403100  0.41173500  1
  O  O10  1  0.94953100  0.17403100  0.91173500  1
  O  O11  1  0.05046900  0.82596900  0.08826500  1
  O  O12  1  0.26250600  0.46298500  0.81903100  1
  O  O13  1  0.73749400  0.53701500  0.18096900  1
  O  O14  1  0.76250600  0.53701500  0.68096900  1
  O  O15  1  0.23749400  0.46298500  0.31903100  1
  O  O16  1  0.30934900  0.98321400  0.69738900  1
  O  O17  1  0.69065100  0.01678600  0.30261100  1
  O  O18  1  0.80934900  0.01678600  0.80261100  1
  O  O19  1  0.19065100  0.98321400  0.19738900  1
loop_
_geom_bond_atom_site_label_1
_geom_bond_atom_site_label_2
_geom_bond_distance
_geom_bond_site_symmetry_2
Ba0 O18 2.766189 1_565
Ba0 O14 2.831050 1_555
Ba0 O8 2.876109 1_555
Ba0 O17 2.902102 1_565
Ba0 O5 2.936697 1_555
Ba0 O2 2.944561 1_565
Ba0 O9 2.971301 1_565
Ba0 N2 3.065364 1_565
Ba0 N13 3.108959 1_555
Ba0 N6 3.111377 1_555
Ba1 O19 2.766189 1_545
Ba1 O15 2.831050 1_555
Ba1 O9 2.876109 1_555
Ba1 O16 2.902102 1_545
Ba1 O4 2.936697 1_555
Ba1 O3 2.944561 1_545
Ba1 O8 2.971301 1_545
Ba1 N3 3.065364 1_545
Ba1 N12 3.108959 1_555
Ba1 N7 3.111377 1_555
Ba2 O16 2.766189 1_545
Ba2 O12 2.831050 1_555
Ba2 O10 2.876109 1_455
Ba2 O19 2.902102 1_546
Ba2 O7 2.936697 1_556
Ba2 O0 2.944561 1_545
Ba2 O11 2.971301 1_546
Ba2 N0 3.065364 1_545
Ba2 N15 3.108959 1_556
Ba2 N4 3.111377 1_555
Ba3 O17 2.766189 1_565
Ba3 O13 2.831050 1_555
Ba3 O11 2.876109 1_655
Ba3 O18 2.902102 1_564
Ba3 O6 2.936697 1_554
Ba3 O1 2.944561 1_565
Ba3 O10 2.971301 1_564
Ba3 N1 3.065364 1_565
Ba3 N14 3.108959 1_554
Ba3 N5 3.111377 1_555
H0 O4 0.996745 1_555
H1 O5 0.996745 1_555
H2 O6 0.996745 1_555
H3 O7 0.996745 1_555
H4 O0 0.994725 1_555
H5 O1 0.994725 1_555
H6 O2 0.994725 1_555
H7 O3 0.994725 1_555
H8 O12 0.978798 1_555
H9 O13 0.978798 1_555
H10 O14 0.978798 1_555
H11 O15 0.978798 1_555
H12 O12 1.004334 1_555
H13 O13 1.004334 1_555
H14 O14 1.004334 1_555
H15 O15 1.004334 1_555
H16 O4 0.985595 1_555
H17 O5 0.985595 1_555
H18 O6 0.985595 1_555
H19 O7 0.985595 1_555
H20 O0 0.997930 1_555
H21 O1 0.997930 1_555
H22 O2 0.997930 1_555
H23 O3 0.997930 1_555
C0 O16 1.266048 1_555
C0 O8 1.281691 1_555
C0 C4 1.487377 1_555
C1 O17 1.266048 1_555
C1 O9 1.281691 1_555
C1 C5 1.487377 1_555
C2 O18 1.266048 1_555
C2 O10 1.281691 1_555
C2 C6 1.487377 1_555
C3 O19 1.266048 1_555
C3 O11 1.281691 1_555
C3 C7 1.487377 1_555
C4 N6 1.341686 1_555
C4 N0 1.348446 1_555
C5 N7 1.341686 1_555
C5 N1 1.348446 1_555
C6 N4 1.341686 1_655
C6 N2 1.348446 1_555
C7 N5 1.341686 1_455
C7 N3 1.348446 1_555
N0 N11 1.340190 1_556
N1 N10 1.340190 1_554
N2 N9 1.340190 1_555
N3 N8 1.340190 1_555
N10 N15 1.332870 1_556
N11 N14 1.332870 1_554
N12 N9 1.332870 1_455
N12 N4 1.342159 1_555
N13 N8 1.332870 1_655
N13 N5 1.342159 1_555
N14 N6 1.342159 1_555
N15 N7 1.342159 1_555
