# generated using pymatgen
data_Cu3P8(Se2I)3
_symmetry_space_group_name_H-M   'P 1'
_cell_length_a   7.96365900
_cell_length_b   10.07041800
_cell_length_c   27.51103800
_cell_angle_alpha   90.00000000
_cell_angle_beta   90.00000000
_cell_angle_gamma   90.00000000
_symmetry_Int_Tables_number   1
_chemical_formula_structural   Cu3P8(Se2I)3
_chemical_formula_sum   'Cu12 P32 Se24 I12'
_cell_volume   2206.31302946
_cell_formula_units_Z   4
loop_
 _symmetry_equiv_pos_site_id
 _symmetry_equiv_pos_as_xyz
  1  'x, y, z'
loop_
 _atom_site_type_symbol
 _atom_site_label
 _atom_site_symmetry_multiplicity
 _atom_site_fract_x
 _atom_site_fract_y
 _atom_site_fract_z
 _atom_site_occupancy
  Cu  Cu0  1  0.29599400  0.99920600  0.49806100  1
  Cu  Cu1  1  0.79599400  0.50079400  0.00193900  1
  Cu  Cu2  1  0.70400600  0.00079400  0.99806100  1
  Cu  Cu3  1  0.20400600  0.49920600  0.50193900  1
  Cu  Cu4  1  0.70400600  0.00079400  0.50193900  1
  Cu  Cu5  1  0.20400600  0.49920600  0.99806100  1
  Cu  Cu6  1  0.29599400  0.99920600  0.00193900  1
  Cu  Cu7  1  0.79599400  0.50079400  0.49806100  1
  Cu  Cu8  1  0.06535000  0.88079100  0.75000000  1
  Cu  Cu9  1  0.56535000  0.61920900  0.75000000  1
  Cu  Cu10  1  0.93465000  0.11920900  0.25000000  1
  Cu  Cu11  1  0.43465000  0.38079100  0.25000000  1
  P  P0  1  0.02182700  0.99527700  0.68058600  1
  P  P1  1  0.52182700  0.50472300  0.81941400  1
  P  P2  1  0.97817300  0.00472300  0.18058600  1
  P  P3  1  0.47817300  0.49527700  0.31941400  1
  P  P4  1  0.97817300  0.00472300  0.31941400  1
  P  P5  1  0.47817300  0.49527700  0.18058600  1
  P  P6  1  0.02182700  0.99527700  0.81941400  1
  P  P7  1  0.52182700  0.50472300  0.68058600  1
  P  P8  1  0.14032500  0.05561700  0.56425200  1
  P  P9  1  0.64032500  0.44438300  0.93574800  1
  P  P10  1  0.85967500  0.94438300  0.06425200  1
  P  P11  1  0.35967500  0.55561700  0.43574800  1
  P  P12  1  0.85967500  0.94438300  0.43574800  1
  P  P13  1  0.35967500  0.55561700  0.06425200  1
  P  P14  1  0.14032500  0.05561700  0.93574800  1
  P  P15  1  0.64032500  0.44438300  0.56425200  1
  P  P16  1  0.85949600  0.05527100  0.56815500  1
  P  P17  1  0.35949600  0.44472900  0.93184500  1
  P  P18  1  0.14050400  0.94472900  0.06815500  1
  P  P19  1  0.64050400  0.55527100  0.43184500  1
  P  P20  1  0.14050400  0.94472900  0.43184500  1
  P  P21  1  0.64050400  0.55527100  0.06815500  1
  P  P22  1  0.85949600  0.05527100  0.93184500  1
  P  P23  1  0.35949600  0.44472900  0.56815500  1
  P  P24  1  0.00454400  0.23923200  0.59241800  1
  P  P25  1  0.50454400  0.26076800  0.90758200  1
  P  P26  1  0.99545600  0.76076800  0.09241800  1
  P  P27  1  0.49545600  0.73923200  0.40758200  1
  P  P28  1  0.99545600  0.76076800  0.40758200  1
  P  P29  1  0.49545600  0.73923200  0.09241800  1
  P  P30  1  0.00454400  0.23923200  0.90758200  1
  P  P31  1  0.50454400  0.26076800  0.59241800  1
  Se  Se0  1  0.79266000  0.93952500  0.63563100  1
  Se  Se1  1  0.29266000  0.56047500  0.86436900  1
  Se  Se2  1  0.20734000  0.06047500  0.13563100  1
  Se  Se3  1  0.70734000  0.43952500  0.36436900  1
  Se  Se4  1  0.20734000  0.06047500  0.36436900  1
  Se  Se5  1  0.70734000  0.43952500  0.13563100  1
  Se  Se6  1  0.79266000  0.93952500  0.86436900  1
  Se  Se7  1  0.29266000  0.56047500  0.63563100  1
  Se  Se8  1  0.01692800  0.22103600  0.67440600  1
  Se  Se9  1  0.51692800  0.27896400  0.82559400  1
  Se  Se10  1  0.98307200  0.77896400  0.17440600  1
  Se  Se11  1  0.48307200  0.72103600  0.32559400  1
  Se  Se12  1  0.98307200  0.77896400  0.32559400  1
  Se  Se13  1  0.48307200  0.72103600  0.17440600  1
  Se  Se14  1  0.01692800  0.22103600  0.82559400  1
  Se  Se15  1  0.51692800  0.27896400  0.67440600  1
  Se  Se16  1  0.23441600  0.94255300  0.62934300  1
  Se  Se17  1  0.73441600  0.55744700  0.87065700  1
  Se  Se18  1  0.76558400  0.05744700  0.12934300  1
  Se  Se19  1  0.26558400  0.44255300  0.37065700  1
  Se  Se20  1  0.76558400  0.05744700  0.37065700  1
  Se  Se21  1  0.26558400  0.44255300  0.12934300  1
  Se  Se22  1  0.23441600  0.94255300  0.87065700  1
  Se  Se23  1  0.73441600  0.55744700  0.62934300  1
  I  I0  1  0.50087600  0.18866600  0.46920700  1
  I  I1  1  0.00087600  0.31133400  0.03079300  1
  I  I2  1  0.49912400  0.81133400  0.96920700  1
  I  I3  1  0.99912400  0.68866600  0.53079300  1
  I  I4  1  0.49912400  0.81133400  0.53079300  1
  I  I5  1  0.99912400  0.68866600  0.96920700  1
  I  I6  1  0.50087600  0.18866600  0.03079300  1
  I  I7  1  0.00087600  0.31133400  0.46920700  1
  I  I8  1  0.90715500  0.65083500  0.75000000  1
  I  I9  1  0.40715500  0.84916500  0.75000000  1
  I  I10  1  0.09284500  0.34916500  0.25000000  1
  I  I11  1  0.59284500  0.15083500  0.25000000  1
loop_
_geom_bond_atom_site_label_1
_geom_bond_atom_site_label_2
_geom_bond_distance
_geom_bond_site_symmetry_2
Cu0 P20 2.269970 1_555
Cu0 P8 2.274981 1_565
Cu0 I0 2.632967 1_565
Cu0 I4 2.647107 1_555
Cu1 P21 2.269970 1_555
Cu1 P9 2.274981 1_554
Cu1 I1 2.632967 1_655
Cu1 I5 2.647107 1_554
Cu2 P22 2.269970 1_555
Cu2 P10 2.274981 1_546
Cu2 I2 2.632967 1_545
Cu2 I6 2.647107 1_556
Cu3 P23 2.269970 1_555
Cu3 P11 2.274981 1_555
Cu3 I3 2.632967 1_455
Cu3 I7 2.647107 1_555
Cu4 P16 2.269970 1_555
Cu4 P12 2.274981 1_545
Cu4 I4 2.632967 1_545
Cu4 I0 2.647107 1_555
Cu5 P17 2.269970 1_555
Cu5 P13 2.274981 1_556
Cu5 I5 2.632967 1_455
Cu5 I1 2.647107 1_556
Cu6 P18 2.269970 1_555
Cu6 P14 2.274981 1_564
Cu6 I6 2.632967 1_565
Cu6 I2 2.647107 1_554
Cu7 P19 2.269970 1_555
Cu7 P15 2.274981 1_555
Cu7 I7 2.632967 1_655
Cu7 I3 2.647107 1_555
Cu8 P6 2.257461 1_555
Cu8 P0 2.257461 1_555
Cu8 I8 2.636254 1_455
Cu8 I9 2.740587 1_555
Cu9 P7 2.257461 1_555
Cu9 P1 2.257461 1_555
Cu9 I9 2.636254 1_555
Cu9 I8 2.740587 1_555
Cu10 P4 2.257461 1_555
Cu10 P2 2.257461 1_555
Cu10 I10 2.636254 1_655
Cu10 I11 2.740587 1_555
Cu11 P3 2.257461 1_555
Cu11 P5 2.257461 1_555
Cu11 I11 2.636254 1_555
Cu11 I10 2.740587 1_555
P0 Se16 2.266165 1_555
P0 Se0 2.274961 1_455
P0 Se8 2.280170 1_565
P1 Se17 2.266165 1_555
P1 Se1 2.274961 1_555
P1 Se9 2.280170 1_555
P2 Se18 2.266165 1_555
P2 Se2 2.274961 1_655
P2 Se10 2.280170 1_545
P3 Se19 2.266165 1_555
P3 Se3 2.274961 1_555
P3 Se11 2.280170 1_555
P4 Se20 2.266165 1_555
P4 Se4 2.274961 1_655
P4 Se12 2.280170 1_545
P5 Se21 2.266165 1_555
P5 Se5 2.274961 1_555
P5 Se13 2.280170 1_555
P6 Se22 2.266165 1_555
P6 Se6 2.274961 1_455
P6 Se14 2.280170 1_565
P7 Se23 2.266165 1_555
P7 Se7 2.274961 1_555
P7 Se15 2.280170 1_555
P8 Se16 2.250458 1_545
P9 Se17 2.250458 1_555
P10 P18 2.239005 1_655
P10 Se18 2.250458 1_565
P10 P26 2.277887 1_555
P11 P19 2.239005 1_555
P11 Se19 2.250458 1_555
P11 P27 2.277887 1_555
P12 P20 2.239005 1_655
P12 Se20 2.250458 1_565
P12 P28 2.277887 1_555
P13 P21 2.239005 1_555
P13 Se21 2.250458 1_555
P13 P29 2.277887 1_555
P14 P22 2.239005 1_455
P14 Se22 2.250458 1_545
P14 P30 2.277887 1_555
P15 P23 2.239005 1_555
P15 Se23 2.250458 1_555
P15 P31 2.277887 1_555
P16 P8 2.239005 1_655
P16 Se0 2.255643 1_545
P16 P24 2.282945 1_655
P17 P9 2.239005 1_555
P17 Se1 2.255643 1_555
P17 P25 2.282945 1_555
P18 Se2 2.255643 1_565
P18 P26 2.282945 1_455
P19 Se3 2.255643 1_555
P19 P27 2.282945 1_555
P20 Se4 2.255643 1_565
P20 P28 2.282945 1_455
P21 Se5 2.255643 1_555
P21 P29 2.282945 1_555
P22 Se6 2.255643 1_545
P22 P30 2.282945 1_655
P23 Se7 2.255643 1_555
P23 P31 2.282945 1_555
P24 Se8 2.265154 1_555
P24 P8 2.277887 1_555
P25 Se9 2.265154 1_555
P25 P9 2.277887 1_555
P26 Se10 2.265154 1_555
P27 Se11 2.265154 1_555
P28 Se12 2.265154 1_555
P29 Se13 2.265154 1_555
P30 Se14 2.265154 1_555
P31 Se15 2.265154 1_555
