# generated using pymatgen
data_Mg2CoWO6
_symmetry_space_group_name_H-M   'P 1'
_cell_length_a   5.20521105
_cell_length_b   7.62937684
_cell_length_c   5.57076240
_cell_angle_alpha   95.38236115
_cell_angle_beta   89.66062640
_cell_angle_gamma   89.95172988
_symmetry_Int_Tables_number   1
_chemical_formula_structural   Mg2CoWO6
_chemical_formula_sum   'Mg4 Co2 W2 O12'
_cell_volume   220.24949049
_cell_formula_units_Z   2
loop_
 _symmetry_equiv_pos_site_id
 _symmetry_equiv_pos_as_xyz
  1  'x, y, z'
loop_
 _atom_site_type_symbol
 _atom_site_label
 _atom_site_symmetry_multiplicity
 _atom_site_fract_x
 _atom_site_fract_y
 _atom_site_fract_z
 _atom_site_occupancy
  Mg  Mg0  1  0.50791200  0.28623000  0.92017700  1
  Mg  Mg1  1  0.00720000  0.78679200  0.42194800  1
  Mg  Mg2  1  0.00699700  0.28874700  0.41833700  1
  Mg  Mg3  1  0.50740500  0.78836800  0.91786900  1
  Co  Co0  1  0.00513000  0.49980800  0.99987900  1
  Co  Co1  1  0.50555700  0.00229000  0.49081600  1
  W  W0  1  0.50624700  0.49110100  0.51374600  1
  W  W1  1  0.00672600  0.99043200  0.01289000  1
  O  O0  1  0.21275200  0.40205900  0.70092500  1
  O  O1  1  0.71314400  0.90093800  0.20042300  1
  O  O2  1  0.15594600  0.04413100  0.34238300  1
  O  O3  1  0.65815800  0.54362600  0.84042600  1
  O  O4  1  0.64862800  0.25088500  0.54915900  1
  O  O5  1  0.14956200  0.75124700  0.04952100  1
  O  O6  1  0.32647200  0.04372000  0.86128600  1
  O  O7  1  0.82748400  0.54281100  0.35980400  1
  O  O8  1  0.86923200  0.22534900  0.04295600  1
  O  O9  1  0.37023800  0.72586200  0.54340600  1
  O  O10  1  0.32675100  0.40681200  0.22507400  1
  O  O11  1  0.82549100  0.90609900  0.72577600  1
loop_
_geom_bond_atom_site_label_1
_geom_bond_atom_site_label_2
_geom_bond_distance
_geom_bond_site_symmetry_2
Mg0 O8 2.072231 1_556
Mg0 O10 2.075308 1_556
Mg0 O6 2.077394 1_555
Mg0 O4 2.181344 1_555
Mg0 O3 2.197167 1_555
Mg0 O0 2.203547 1_555
Mg1 O11 2.068437 1_455
Mg1 O9 2.077859 1_555
Mg1 O7 2.084636 1_455
Mg1 O5 2.191562 1_555
Mg1 O2 2.193712 1_565
Mg1 O1 2.201334 1_455
Mg2 O2 2.026975 1_555
Mg2 O4 2.029414 1_455
Mg2 O0 2.034409 1_555
Mg2 O7 2.203580 1_455
Mg2 O10 2.214476 1_555
Mg2 O8 2.224796 1_455
Mg3 O5 2.027614 1_556
Mg3 O1 2.032234 1_556
Mg3 O3 2.032441 1_555
Mg3 O11 2.203431 1_555
Mg3 O6 2.212997 1_565
Mg3 O9 2.218188 1_555
Co0 O5 2.055969 1_556
Co0 O3 2.058240 1_455
Co0 O0 2.059610 1_555
Co0 O7 2.199329 1_456
Co0 O8 2.244405 1_456
Co0 O10 2.251593 1_556
Co1 O1 2.031175 1_545
Co1 O4 2.036424 1_555
Co1 O2 2.040509 1_555
Co1 O6 2.254432 1_555
Co1 O9 2.268413 1_545
Co1 O11 2.286720 1_545
O0 W0 1.999607 1_555
O1 W1 2.002379 1_655
O2 W1 2.004158 1_545
O3 W0 1.994614 1_555
O4 W0 2.003556 1_555
O5 W1 1.998451 1_555
O6 W1 1.922888 1_546
O7 W0 1.932514 1_555
O8 W1 1.921612 1_645
O9 W0 1.917662 1_555
O10 W0 1.922849 1_555
O11 W1 1.920409 1_656
