# generated using pymatgen
data_Mg3(GaN2)2
_symmetry_space_group_name_H-M   'P 1'
_cell_length_a   5.32714100
_cell_length_b   10.35095400
_cell_length_c   8.29088200
_cell_angle_alpha   90.00000000
_cell_angle_beta   90.00000000
_cell_angle_gamma   90.00000000
_symmetry_Int_Tables_number   1
_chemical_formula_structural   Mg3(GaN2)2
_chemical_formula_sum   'Mg12 Ga8 N16'
_cell_volume   457.16745341
_cell_formula_units_Z   4
loop_
 _symmetry_equiv_pos_site_id
 _symmetry_equiv_pos_as_xyz
  1  'x, y, z'
loop_
 _atom_site_type_symbol
 _atom_site_label
 _atom_site_symmetry_multiplicity
 _atom_site_fract_x
 _atom_site_fract_y
 _atom_site_fract_z
 _atom_site_occupancy
  Mg  Mg0  1  0.66436300  0.17119400  0.39099400  1
  Mg  Mg1  1  0.83563700  0.82880600  0.39099400  1
  Mg  Mg2  1  0.66436300  0.32880600  0.10900600  1
  Mg  Mg3  1  0.83563700  0.67119400  0.10900600  1
  Mg  Mg4  1  0.33563700  0.82880600  0.60900600  1
  Mg  Mg5  1  0.16436300  0.17119400  0.60900600  1
  Mg  Mg6  1  0.33563700  0.67119400  0.89099400  1
  Mg  Mg7  1  0.16436300  0.32880600  0.89099400  1
  Mg  Mg8  1  0.75000000  0.50000000  0.44609900  1
  Mg  Mg9  1  0.75000000  0.00000000  0.05390100  1
  Mg  Mg10  1  0.25000000  0.50000000  0.55390100  1
  Mg  Mg11  1  0.25000000  0.00000000  0.94609900  1
  Ga  Ga0  1  0.75000000  0.50000000  0.79157500  1
  Ga  Ga1  1  0.75000000  0.00000000  0.70842500  1
  Ga  Ga2  1  0.25000000  0.50000000  0.20842500  1
  Ga  Ga3  1  0.25000000  0.00000000  0.29157500  1
  Ga  Ga4  1  0.71062800  0.25000000  0.75000000  1
  Ga  Ga5  1  0.78937200  0.75000000  0.75000000  1
  Ga  Ga6  1  0.28937200  0.75000000  0.25000000  1
  Ga  Ga7  1  0.21062800  0.25000000  0.25000000  1
  N  N0  1  0.97061300  0.37985100  0.65356300  1
  N  N1  1  0.52938700  0.62014900  0.65356300  1
  N  N2  1  0.97061300  0.12014900  0.84643700  1
  N  N3  1  0.52938700  0.87985100  0.84643700  1
  N  N4  1  0.02938700  0.62014900  0.34643700  1
  N  N5  1  0.47061300  0.37985100  0.34643700  1
  N  N6  1  0.02938700  0.87985100  0.15356300  1
  N  N7  1  0.47061300  0.12014900  0.15356300  1
  N  N8  1  0.53739600  0.36910900  0.88358500  1
  N  N9  1  0.96260400  0.63089100  0.88358500  1
  N  N10  1  0.53739600  0.13089100  0.61641500  1
  N  N11  1  0.96260400  0.86910900  0.61641500  1
  N  N12  1  0.46260400  0.63089100  0.11641500  1
  N  N13  1  0.03739600  0.36910900  0.11641500  1
  N  N14  1  0.46260400  0.86910900  0.38358500  1
  N  N15  1  0.03739600  0.13089100  0.38358500  1
loop_
_geom_bond_atom_site_label_1
_geom_bond_atom_site_label_2
_geom_bond_distance
_geom_bond_site_symmetry_2
Mg0 N10 2.030873 1_555
Mg0 N15 2.031445 1_655
Mg0 N7 2.284625 1_555
Mg0 N5 2.422086 1_555
Mg1 N11 2.030873 1_555
Mg1 N14 2.031445 1_555
Mg1 N6 2.284625 1_655
Mg1 N4 2.422086 1_655
Mg2 N8 2.030873 1_554
Mg2 N13 2.031445 1_655
Mg2 N5 2.284625 1_555
Mg2 N7 2.422086 1_555
Mg3 N9 2.030873 1_554
Mg3 N12 2.031445 1_555
Mg3 N4 2.284625 1_655
Mg3 N6 2.422086 1_655
Mg4 N14 2.030873 1_555
Mg4 N11 2.031445 1_455
Mg4 N3 2.284625 1_555
Mg4 N1 2.422086 1_555
Mg5 N15 2.030873 1_555
Mg5 N10 2.031445 1_555
Mg5 N2 2.284625 1_455
Mg5 N0 2.422086 1_455
Mg6 N12 2.030873 1_556
Mg6 N9 2.031445 1_455
Mg6 N1 2.284625 1_555
Mg6 N3 2.422086 1_555
Mg7 N13 2.030873 1_556
Mg7 N8 2.031445 1_555
Mg7 N0 2.284625 1_455
Mg7 N2 2.422086 1_455
Mg8 N4 2.108215 1_655
Mg8 N5 2.108215 1_555
Mg8 N0 2.426204 1_555
Mg8 N1 2.426204 1_555
Mg9 N7 2.108215 1_555
Mg9 N6 2.108215 1_645
Mg9 N2 2.426204 1_554
Mg9 N3 2.426204 1_544
Mg10 N1 2.108215 1_555
Mg10 N0 2.108215 1_455
Mg10 N4 2.426204 1_555
Mg10 N5 2.426204 1_555
Mg11 N2 2.108215 1_455
Mg11 N3 2.108215 1_545
Mg11 N7 2.426204 1_556
Mg11 N6 2.426204 1_546
Ga0 N9 1.923606 1_555
Ga0 N8 1.923606 1_555
Ga0 N0 2.058434 1_555
Ga0 N1 2.058434 1_555
Ga1 N10 1.923606 1_555
Ga1 N11 1.923606 1_545
Ga1 N2 2.058434 1_555
Ga1 N3 2.058434 1_545
Ga2 N12 1.923606 1_555
Ga2 N13 1.923606 1_555
Ga2 N4 2.058434 1_555
Ga2 N5 2.058434 1_555
Ga3 N15 1.923606 1_555
Ga3 N14 1.923606 1_545
Ga3 N7 2.058434 1_555
Ga3 N6 2.058434 1_545
Ga4 N8 1.896913 1_555
Ga4 N10 1.896913 1_555
Ga4 N0 2.089017 1_555
Ga4 N2 2.089017 1_555
Ga5 N11 1.896913 1_555
Ga5 N9 1.896913 1_555
Ga5 N3 2.089017 1_555
Ga5 N1 2.089017 1_555
Ga6 N14 1.896913 1_555
Ga6 N12 1.896913 1_555
Ga6 N6 2.089017 1_555
Ga6 N4 2.089017 1_555
Ga7 N13 1.896913 1_555
Ga7 N15 1.896913 1_555
Ga7 N5 2.089017 1_555
Ga7 N7 2.089017 1_555
