# generated using pymatgen
data_LiCaFe3SnO8
_symmetry_space_group_name_H-M   'P 1'
_cell_length_a   10.99974300
_cell_length_b   6.09365500
_cell_length_c   9.34201363
_cell_angle_alpha   89.85328925
_cell_angle_beta   90.00000000
_cell_angle_gamma   90.00000000
_symmetry_Int_Tables_number   1
_chemical_formula_structural   LiCaFe3SnO8
_chemical_formula_sum   'Li4 Ca4 Fe12 Sn4 O32'
_cell_volume   626.18040540
_cell_formula_units_Z   4
loop_
 _symmetry_equiv_pos_site_id
 _symmetry_equiv_pos_as_xyz
  1  'x, y, z'
loop_
 _atom_site_type_symbol
 _atom_site_label
 _atom_site_symmetry_multiplicity
 _atom_site_fract_x
 _atom_site_fract_y
 _atom_site_fract_z
 _atom_site_occupancy
  Li  Li0  1  0.38383900  0.88186000  0.00006900  1
  Li  Li1  1  0.88383900  0.11814000  0.99993100  1
  Li  Li2  1  0.13542900  0.86598300  0.45104300  1
  Li  Li3  1  0.63542900  0.13401700  0.54895700  1
  Ca  Ca0  1  0.34346700  0.38332800  0.98968300  1
  Ca  Ca1  1  0.84346700  0.61667200  0.01031700  1
  Ca  Ca2  1  0.15795600  0.37390000  0.49420900  1
  Ca  Ca3  1  0.65795600  0.62610000  0.50579100  1
  Fe  Fe0  1  0.10513900  0.37637800  0.81207900  1
  Fe  Fe1  1  0.60050400  0.37609200  0.83078400  1
  Fe  Fe2  1  0.10050400  0.62390800  0.16921600  1
  Fe  Fe3  1  0.60513900  0.62362200  0.18792100  1
  Fe  Fe4  1  0.38936600  0.37584900  0.31593500  1
  Fe  Fe5  1  0.38207700  0.87300300  0.31446900  1
  Fe  Fe6  1  0.89382000  0.87089300  0.34096200  1
  Fe  Fe7  1  0.89336200  0.37583900  0.33834300  1
  Fe  Fe8  1  0.39382000  0.12910700  0.65903800  1
  Fe  Fe9  1  0.39336200  0.62416100  0.66165700  1
  Fe  Fe10  1  0.88207700  0.12699700  0.68553100  1
  Fe  Fe11  1  0.88936600  0.62415100  0.68406500  1
  Sn  Sn0  1  0.11991800  0.87409200  0.80771800  1
  Sn  Sn1  1  0.60293900  0.87840200  0.83201600  1
  Sn  Sn2  1  0.10293900  0.12159800  0.16798400  1
  Sn  Sn3  1  0.61991800  0.12590800  0.19228200  1
  O  O0  1  0.71735800  0.62191100  0.77913500  1
  O  O1  1  0.71244900  0.13295500  0.76819900  1
  O  O2  1  0.92738700  0.87631000  0.83421200  1
  O  O3  1  0.92469500  0.37310700  0.83439500  1
  O  O4  1  0.47508300  0.12815400  0.87065800  1
  O  O5  1  0.47565400  0.62721300  0.86856500  1
  O  O6  1  0.16262300  0.13093400  0.95381300  1
  O  O7  1  0.15601900  0.61841800  0.95401000  1
  O  O8  1  0.66262300  0.86906600  0.04618700  1
  O  O9  1  0.65601900  0.38158200  0.04599000  1
  O  O10  1  0.97508300  0.87184600  0.12934200  1
  O  O11  1  0.97565400  0.37278700  0.13143500  1
  O  O12  1  0.42738700  0.12369000  0.16578800  1
  O  O13  1  0.42469500  0.62689300  0.16560500  1
  O  O14  1  0.21735800  0.37808900  0.22086500  1
  O  O15  1  0.21244900  0.86704500  0.23180100  1
  O  O16  1  0.79110400  0.12311600  0.27585600  1
  O  O17  1  0.78297000  0.62380000  0.27728600  1
  O  O18  1  0.57037800  0.86888800  0.33152200  1
  O  O19  1  0.57259200  0.37863900  0.33555700  1
  O  O20  1  0.02407800  0.12056400  0.37332800  1
  O  O21  1  0.02279400  0.62284200  0.36876300  1
  O  O22  1  0.33741100  0.12963600  0.45063200  1
  O  O23  1  0.33958800  0.62050300  0.45203700  1
  O  O24  1  0.83741100  0.87036400  0.54936800  1
  O  O25  1  0.83958800  0.37949700  0.54796300  1
  O  O26  1  0.52407800  0.87943600  0.62667200  1
  O  O27  1  0.52279400  0.37715800  0.63123700  1
  O  O28  1  0.07259200  0.62136100  0.66444300  1
  O  O29  1  0.07037800  0.13111200  0.66847800  1
  O  O30  1  0.29110400  0.87688400  0.72414400  1
  O  O31  1  0.28297000  0.37620000  0.72271400  1
loop_
_geom_bond_atom_site_label_1
_geom_bond_atom_site_label_2
_geom_bond_distance
_geom_bond_site_symmetry_2
Li0 O4 2.170741 1_564
Li0 O12 2.193054 1_565
Li0 O5 2.224153 1_554
Li0 O13 2.234963 1_555
Li1 O10 2.170741 1_546
Li1 O2 2.193054 1_545
Li1 O11 2.224153 1_556
Li1 O3 2.234963 1_555
Li2 O21 2.080114 1_555
Li2 O20 2.104320 1_565
Li2 O15 2.216459 1_555
Li2 O28 2.580489 1_555
Li3 O27 2.080114 1_555
Li3 O26 2.104320 1_545
Li3 O1 2.216459 1_555
Li3 O19 2.580489 1_555
Ca0 O5 2.365265 1_555
Ca0 O13 2.390532 1_556
Ca0 O4 2.399803 1_555
Ca0 O12 2.459383 1_556
Ca0 O7 2.532229 1_555
Ca0 O6 2.537212 1_555
Ca0 O14 2.566949 1_556
Ca0 O31 2.581752 1_555
Ca1 O11 2.365265 1_555
Ca1 O3 2.390532 1_554
Ca1 O10 2.399803 1_555
Ca1 O2 2.459383 1_554
Ca1 O9 2.532229 1_555
Ca1 O8 2.537212 1_555
Ca1 O0 2.566949 1_554
Ca1 O17 2.581752 1_555
Ca2 O28 2.386839 1_555
Ca2 O29 2.398950 1_555
Ca2 O20 2.415770 1_555
Ca2 O21 2.424024 1_555
Ca2 O22 2.506164 1_555
Ca2 O23 2.530209 1_555
Ca2 O31 2.539339 1_555
Ca2 O14 2.635915 1_555
Ca3 O19 2.386839 1_555
Ca3 O18 2.398950 1_555
Ca3 O26 2.415770 1_555
Ca3 O27 2.424024 1_555
Ca3 O24 2.506164 1_555
Ca3 O25 2.530209 1_555
Ca3 O17 2.539339 1_555
Ca3 O0 2.635915 1_555
Fe0 O3 1.995850 1_455
Fe0 O29 2.046920 1_555
Fe0 O28 2.061175 1_555
Fe0 O7 2.063168 1_555
Fe0 O6 2.092806 1_555
Fe0 O31 2.126802 1_555
Fe1 O1 2.014362 1_555
Fe1 O0 2.031030 1_555
Fe1 O27 2.050800 1_555
Fe1 O4 2.078902 1_555
Fe1 O5 2.086862 1_555
Fe1 O9 2.101499 1_556
Fe2 O15 2.014362 1_555
Fe2 O14 2.031030 1_555
Fe2 O21 2.050800 1_555
Fe2 O10 2.078902 1_455
Fe2 O11 2.086862 1_455
Fe2 O7 2.101499 1_554
Fe3 O13 1.995850 1_555
Fe3 O18 2.046920 1_555
Fe3 O19 2.061175 1_555
Fe3 O9 2.063168 1_555
Fe3 O8 2.092806 1_555
Fe3 O17 2.126802 1_555
Fe4 O19 2.023833 1_555
Fe4 O23 2.036845 1_555
Fe4 O22 2.037491 1_555
Fe4 O14 2.090157 1_555
Fe4 O13 2.110101 1_555
Fe4 O12 2.124733 1_555
Fe5 O15 2.019737 1_555
Fe5 O23 2.056061 1_555
Fe5 O22 2.077313 1_565
Fe5 O18 2.077527 1_555
Fe5 O13 2.100854 1_555
Fe5 O12 2.121406 1_565
Fe6 O16 2.000988 1_565
Fe6 O17 2.027887 1_555
Fe6 O24 2.043409 1_555
Fe6 O21 2.088742 1_655
Fe6 O20 2.112201 1_665
Fe6 O10 2.169641 1_555
Fe7 O16 1.995544 1_555
Fe7 O17 2.019532 1_555
Fe7 O25 2.045831 1_555
Fe7 O21 2.091747 1_655
Fe7 O11 2.134513 1_555
Fe7 O20 2.142747 1_655
Fe8 O30 2.000988 1_545
Fe8 O31 2.027887 1_555
Fe8 O22 2.043409 1_555
Fe8 O27 2.088742 1_555
Fe8 O26 2.112201 1_545
Fe8 O4 2.169641 1_555
Fe9 O30 1.995544 1_555
Fe9 O31 2.019532 1_555
Fe9 O23 2.045831 1_555
Fe9 O27 2.091747 1_555
Fe9 O5 2.134513 1_555
Fe9 O26 2.142747 1_555
Fe10 O1 2.019737 1_555
Fe10 O25 2.056061 1_555
Fe10 O24 2.077313 1_545
Fe10 O29 2.077527 1_655
Fe10 O3 2.100854 1_555
Fe10 O2 2.121406 1_545
Fe11 O28 2.023833 1_655
Fe11 O25 2.036845 1_555
Fe11 O24 2.037491 1_555
Fe11 O0 2.090157 1_555
Fe11 O3 2.110101 1_555
Fe11 O2 2.124733 1_555
O0 Sn1 2.067582 1_555
O1 Sn1 2.051293 1_545
O2 Sn0 2.132252 1_655
O4 Sn1 2.104099 1_545
O5 Sn1 2.101692 1_555
O6 Sn2 2.106374 1_556
O6 Sn0 2.131641 1_545
O7 Sn0 2.107577 1_555
O8 Sn1 2.106374 1_554
O8 Sn3 2.131641 1_565
O9 Sn3 2.107577 1_555
O10 Sn2 2.104099 1_665
O11 Sn2 2.101692 1_655
O12 Sn3 2.132252 1_555
O14 Sn2 2.067582 1_555
O15 Sn2 2.051293 1_565
O16 Sn3 2.038501 1_555
O18 Sn3 2.105113 1_565
O19 Sn3 2.108280 1_555
O20 Sn2 2.105332 1_555
O26 Sn1 2.105332 1_555
O28 Sn0 2.108280 1_555
O29 Sn0 2.105113 1_545
O30 Sn0 2.038501 1_555
