# generated using pymatgen
data_Y
_symmetry_space_group_name_H-M   'P 1'
_cell_length_a   7.29888139
_cell_length_b   7.29888139
_cell_length_c   17.95258341
_cell_angle_alpha   78.26111434
_cell_angle_beta   101.73888566
_cell_angle_gamma   119.95170287
_symmetry_Int_Tables_number   1
_chemical_formula_structural   Y
_chemical_formula_sum   Y24
_cell_volume   805.46628916
_cell_formula_units_Z   24
loop_
 _symmetry_equiv_pos_site_id
 _symmetry_equiv_pos_as_xyz
  1  'x, y, z'
loop_
 _atom_site_type_symbol
 _atom_site_label
 _atom_site_symmetry_multiplicity
 _atom_site_fract_x
 _atom_site_fract_y
 _atom_site_fract_z
 _atom_site_occupancy
  Y  Y0_0  1  0.00000000  0.00000000  0.00000000  1
  Y  Y0_1  1  0.00000000  0.00000000  0.50000000  1
  Y  Y0_2  1  0.00000000  0.50000000  0.00000000  1
  Y  Y0_3  1  0.00000000  0.50000000  0.50000000  1
  Y  Y0_4  1  0.50000000  0.00000000  0.00000000  1
  Y  Y0_5  1  0.50000000  0.00000000  0.50000000  1
  Y  Y0_6  1  0.50000000  0.50000000  0.00000000  1
  Y  Y0_7  1  0.50000000  0.50000000  0.50000000  1
  Y  Y1_0  1  0.38941243  0.11058657  0.16831332  1
  Y  Y1_1  1  0.38941243  0.11058657  0.66831332  1
  Y  Y1_2  1  0.38941243  0.61058657  0.16831332  1
  Y  Y1_3  1  0.38941243  0.61058657  0.66831332  1
  Y  Y1_4  1  0.88941243  0.11058657  0.16831332  1
  Y  Y1_5  1  0.88941243  0.11058657  0.66831332  1
  Y  Y1_6  1  0.88941243  0.61058657  0.16831332  1
  Y  Y1_7  1  0.88941243  0.61058657  0.66831332  1
  Y  Y2_0  1  0.11058607  0.38941293  0.33168668  1
  Y  Y2_1  1  0.11058607  0.38941293  0.83168668  1
  Y  Y2_2  1  0.11058607  0.88941293  0.33168668  1
  Y  Y2_3  1  0.11058607  0.88941293  0.83168668  1
  Y  Y2_4  1  0.61058607  0.38941293  0.33168668  1
  Y  Y2_5  1  0.61058607  0.38941293  0.83168668  1
  Y  Y2_6  1  0.61058607  0.88941293  0.33168668  1
  Y  Y2_7  1  0.61058607  0.88941293  0.83168668  1
loop_
_geom_bond_atom_site_label_1
_geom_bond_atom_site_label_2
_geom_bond_distance
_geom_bond_site_symmetry_2
Y0_0 Y1_0 3.614888 1_555
Y0_0 Y2_1 3.614890 1_554
Y0_0 Y1_6 3.614892 1_445
Y0_0 Y2_7 3.614893 1_444
Y0_0 Y2_3 3.615083 1_544
Y0_0 Y1_4 3.615087 1_455
Y0_0 Y0_2 3.649441 1_555
Y0_0 Y0_4 3.649441 1_555
Y0_0 Y0_2 3.649441 1_545
Y0_0 Y0_4 3.649441 1_455
Y0_0 Y0_6 3.652105 1_445
Y0_0 Y0_6 3.652105 1_555
Y0_1 Y1_1 3.614888 1_555
Y0_1 Y2_0 3.614890 1_555
Y0_1 Y1_7 3.614892 1_445
Y0_1 Y2_6 3.614893 1_445
Y0_1 Y2_2 3.615083 1_545
Y0_1 Y1_5 3.615087 1_455
Y0_1 Y0_5 3.649441 1_455
Y0_1 Y0_3 3.649441 1_555
Y0_1 Y0_5 3.649441 1_555
Y0_1 Y0_3 3.649441 1_545
Y0_1 Y0_7 3.652104 1_555
Y0_1 Y0_7 3.652105 1_445
Y0_2 Y1_2 3.614888 1_555
Y0_2 Y2_3 3.614890 1_554
Y0_2 Y1_4 3.614892 1_455
Y0_2 Y2_5 3.614893 1_454
Y0_2 Y2_1 3.615083 1_554
Y0_2 Y1_6 3.615087 1_455
Y0_2 Y0_6 3.649441 1_555
Y0_2 Y0_6 3.649441 1_455
Y0_2 Y0_4 3.652105 1_455
Y0_2 Y0_4 3.652105 1_565
Y0_3 Y1_3 3.614888 1_555
Y0_3 Y2_2 3.614890 1_555
Y0_3 Y1_5 3.614892 1_455
Y0_3 Y2_4 3.614893 1_455
Y0_3 Y2_0 3.615083 1_555
Y0_3 Y1_7 3.615087 1_455
Y0_3 Y0_7 3.649441 1_555
Y0_3 Y0_7 3.649441 1_455
Y0_3 Y0_5 3.652105 1_565
Y0_3 Y0_5 3.652105 1_455
Y0_4 Y1_4 3.614888 1_555
Y0_4 Y2_5 3.614890 1_554
Y0_4 Y1_2 3.614892 1_545
Y0_4 Y2_3 3.614893 1_544
Y0_4 Y2_7 3.615083 1_544
Y0_4 Y1_0 3.615087 1_555
Y0_4 Y0_6 3.649441 1_545
Y0_4 Y0_6 3.649441 1_555
Y0_5 Y1_5 3.614888 1_555
Y0_5 Y2_4 3.614890 1_555
Y0_5 Y1_3 3.614892 1_545
Y0_5 Y2_2 3.614893 1_545
Y0_5 Y2_6 3.615083 1_545
Y0_5 Y1_1 3.615087 1_555
Y0_5 Y0_7 3.649441 1_545
Y0_5 Y0_7 3.649441 1_555
Y0_6 Y1_6 3.614888 1_555
Y0_6 Y2_7 3.614890 1_554
Y0_6 Y1_0 3.614892 1_555
Y0_6 Y2_1 3.614893 1_554
Y0_6 Y2_5 3.615083 1_554
Y0_6 Y1_2 3.615087 1_555
Y0_7 Y1_7 3.614888 1_555
Y0_7 Y2_6 3.614890 1_555
Y0_7 Y1_1 3.614892 1_555
Y0_7 Y2_0 3.614893 1_555
Y0_7 Y2_4 3.615083 1_555
Y0_7 Y1_3 3.615087 1_555
Y1_0 Y2_6 3.544494 1_545
Y1_0 Y2_2 3.545665 1_545
Y1_0 Y2_4 3.545665 1_555
Y1_0 Y1_2 3.649441 1_545
Y1_0 Y1_4 3.649441 1_555
Y1_0 Y1_4 3.649441 1_455
Y1_0 Y1_2 3.649441 1_555
Y1_0 Y1_6 3.652104 1_445
Y1_0 Y1_6 3.652105 1_555
Y1_1 Y2_7 3.544494 1_545
Y1_1 Y2_3 3.545665 1_545
Y1_1 Y2_5 3.545665 1_555
Y1_1 Y1_5 3.649441 1_555
Y1_1 Y1_3 3.649441 1_545
Y1_1 Y1_5 3.649441 1_455
Y1_1 Y1_3 3.649441 1_555
Y1_1 Y1_7 3.652104 1_445
Y1_1 Y1_7 3.652105 1_555
Y1_2 Y2_4 3.544494 1_555
Y1_2 Y2_0 3.545665 1_555
Y1_2 Y2_6 3.545665 1_555
Y1_2 Y1_6 3.649441 1_555
Y1_2 Y1_6 3.649441 1_455
Y1_2 Y1_4 3.652105 1_565
Y1_2 Y1_4 3.652105 1_455
Y1_3 Y2_5 3.544494 1_555
Y1_3 Y2_1 3.545665 1_555
Y1_3 Y2_7 3.545665 1_555
Y1_3 Y1_7 3.649441 1_555
Y1_3 Y1_7 3.649441 1_455
Y1_3 Y1_5 3.652105 1_455
Y1_3 Y1_5 3.652105 1_565
Y1_4 Y2_2 3.544494 1_645
Y1_4 Y2_6 3.545665 1_545
Y1_4 Y2_0 3.545665 1_655
Y1_4 Y1_6 3.649441 1_545
Y1_4 Y1_6 3.649441 1_555
Y1_5 Y2_3 3.544494 1_645
Y1_5 Y2_1 3.545665 1_655
Y1_5 Y2_7 3.545665 1_545
Y1_5 Y1_7 3.649441 1_545
Y1_5 Y1_7 3.649441 1_555
Y1_6 Y2_0 3.544494 1_655
Y1_6 Y2_2 3.545665 1_655
Y1_6 Y2_4 3.545665 1_555
Y1_7 Y2_1 3.544494 1_655
Y1_7 Y2_5 3.545665 1_555
Y1_7 Y2_3 3.545665 1_655
Y2_0 Y2_4 3.649441 1_555
Y2_0 Y2_2 3.649441 1_555
Y2_0 Y2_2 3.649441 1_545
Y2_0 Y2_4 3.649441 1_455
Y2_0 Y2_6 3.652104 1_445
Y2_0 Y2_6 3.652105 1_555
Y2_1 Y2_3 3.649441 1_545
Y2_1 Y2_5 3.649441 1_555
Y2_1 Y2_5 3.649441 1_455
Y2_1 Y2_3 3.649441 1_555
Y2_1 Y2_7 3.652104 1_445
Y2_1 Y2_7 3.652105 1_555
Y2_2 Y2_6 3.649441 1_555
Y2_2 Y2_6 3.649441 1_455
Y2_2 Y2_4 3.652104 1_565
Y2_2 Y2_4 3.652105 1_455
Y2_3 Y2_7 3.649441 1_555
Y2_3 Y2_7 3.649441 1_455
Y2_3 Y2_5 3.652104 1_565
Y2_3 Y2_5 3.652105 1_455
Y2_4 Y2_6 3.649441 1_545
Y2_4 Y2_6 3.649441 1_555
Y2_5 Y2_7 3.649441 1_545
Y2_5 Y2_7 3.649441 1_555
