# generated using pymatgen
data_Li2VCrS4
_symmetry_space_group_name_H-M   'P 1'
_cell_length_a   6.91972161
_cell_length_b   6.91972161
_cell_length_c   6.14202752
_cell_angle_alpha   63.97315361
_cell_angle_beta   63.97315361
_cell_angle_gamma   28.99478430
_symmetry_Int_Tables_number   1
_chemical_formula_structural   Li2VCrS4
_chemical_formula_sum   'Li2 V1 Cr1 S4'
_cell_volume   127.07498829
_cell_formula_units_Z   1
loop_
 _symmetry_equiv_pos_site_id
 _symmetry_equiv_pos_as_xyz
  1  'x, y, z'
loop_
 _atom_site_type_symbol
 _atom_site_label
 _atom_site_symmetry_multiplicity
 _atom_site_fract_x
 _atom_site_fract_y
 _atom_site_fract_z
 _atom_site_occupancy
  Li  Li0  1  0.24988100  0.24988100  0.74949100  1
  Li  Li1  1  0.75011900  0.75011900  0.25050900  1
  V  V0  1  0.50000000  0.50000000  0.50000000  1
  Cr  Cr0  1  0.00000000  0.00000000  0.00000000  1
  S  S0  1  0.88731300  0.88731300  0.78284500  1
  S  S1  1  0.38800200  0.38800200  0.27662700  1
  S  S2  1  0.11268700  0.11268700  0.21715500  1
  S  S3  1  0.61199800  0.61199800  0.72337300  1
loop_
_geom_bond_atom_site_label_1
_geom_bond_atom_site_label_2
_geom_bond_distance
_geom_bond_site_symmetry_2
Li0 S3 2.590020 1_455
Li0 S3 2.590020 1_545
Li0 S0 2.602970 1_455
Li0 S0 2.602970 1_545
Li0 S2 2.616035 1_556
Li0 S1 2.643490 1_555
Li1 S1 2.590020 1_565
Li1 S1 2.590020 1_655
Li1 S2 2.602970 1_565
Li1 S2 2.602970 1_655
Li1 S0 2.616035 1_554
Li1 S3 2.643490 1_555
Cr0 S3 2.414179 1_454
Cr0 S3 2.414179 1_544
Cr0 S1 2.414179 1_545
Cr0 S1 2.414179 1_455
Cr0 S2 2.425710 1_555
Cr0 S0 2.425710 1_444
S0 V0 2.433270 1_565
S0 V0 2.433270 1_655
S1 V0 2.449572 1_555
S2 V0 2.433270 1_455
S2 V0 2.433270 1_545
S3 V0 2.449572 1_555
