# generated using pymatgen
data_Sr3W3N5
_symmetry_space_group_name_H-M   'P 1'
_cell_length_a   6.15627418
_cell_length_b   7.96197730
_cell_length_c   8.40771538
_cell_angle_alpha   108.33821056
_cell_angle_beta   103.33210517
_cell_angle_gamma   103.94557649
_symmetry_Int_Tables_number   1
_chemical_formula_structural   Sr3W3N5
_chemical_formula_sum   'Sr6 W6 N10'
_cell_volume   358.03773909
_cell_formula_units_Z   2
loop_
 _symmetry_equiv_pos_site_id
 _symmetry_equiv_pos_as_xyz
  1  'x, y, z'
loop_
 _atom_site_type_symbol
 _atom_site_label
 _atom_site_symmetry_multiplicity
 _atom_site_fract_x
 _atom_site_fract_y
 _atom_site_fract_z
 _atom_site_occupancy
  Sr  Sr0  1  0.75357600  0.44970200  0.60088500  1
  Sr  Sr1  1  0.24642400  0.55029800  0.39911500  1
  Sr  Sr2  1  0.65255600  0.85458300  0.88502900  1
  Sr  Sr3  1  0.34744400  0.14541700  0.11497100  1
  Sr  Sr4  1  0.67979000  0.68135000  0.23266500  1
  Sr  Sr5  1  0.32021000  0.31865000  0.76733500  1
  W  W0  1  0.90334700  0.30741100  0.95875700  1
  W  W1  1  0.09665300  0.69258900  0.04124300  1
  W  W2  1  0.72214800  0.01960300  0.59282400  1
  W  W3  1  0.27785200  0.98039700  0.40717600  1
  W  W4  1  0.08948200  0.87806000  0.67606000  1
  W  W5  1  0.91051800  0.12194000  0.32394000  1
  N  N0  1  0.99591500  0.08251700  0.83405600  1
  N  N1  1  0.00408500  0.91748300  0.16594400  1
  N  N2  1  0.72191700  0.74976300  0.56438900  1
  N  N3  1  0.27808300  0.25023700  0.43561100  1
  N  N4  1  0.76323800  0.51694200  0.92969300  1
  N  N5  1  0.23676200  0.48305800  0.07030700  1
  N  N6  1  0.39987600  0.94460600  0.63681400  1
  N  N7  1  0.60012400  0.05539400  0.36318600  1
  N  N8  1  0.18855400  0.77683200  0.86850800  1
  N  N9  1  0.81144600  0.22316800  0.13149200  1
loop_
_geom_bond_atom_site_label_1
_geom_bond_atom_site_label_2
_geom_bond_distance
_geom_bond_site_symmetry_2
N0 W4 2.047083 1_645
N0 W0 2.053369 1_555
N0 W2 2.140645 1_555
N0 Sr3 2.624605 1_656
N0 Sr2 2.646425 1_545
N0 Sr5 2.684436 1_655
N1 W5 2.047083 1_465
N1 W1 2.053369 1_555
N1 W3 2.140645 1_555
N1 Sr2 2.624605 1_454
N1 Sr3 2.646425 1_565
N1 Sr4 2.684436 1_455
N2 W4 2.085168 1_655
N2 W2 2.085234 1_565
N2 Sr0 2.549115 1_555
N2 Sr4 2.604817 1_555
N2 Sr2 2.726422 1_555
N2 Sr1 2.741641 1_555
N3 W5 2.085168 1_455
N3 W3 2.085234 1_545
N3 Sr1 2.549115 1_555
N3 Sr5 2.604817 1_555
N3 Sr3 2.726422 1_555
N3 Sr0 2.741641 1_555
N4 W1 1.987909 1_656
N4 W0 2.107076 1_555
N4 Sr5 2.577991 1_555
N4 Sr0 2.628736 1_555
N4 Sr4 2.701043 1_556
N4 Sr2 3.038479 1_555
N5 W0 1.987909 1_454
N5 W1 2.107076 1_555
N5 Sr4 2.577991 1_555
N5 Sr1 2.628736 1_555
N5 Sr5 2.701043 1_554
N5 Sr3 3.038479 1_555
N6 W4 1.988426 1_555
N6 W3 2.038072 1_555
N6 W2 2.082295 1_565
N6 Sr2 2.696342 1_555
N6 Sr1 2.914519 1_555
N6 Sr5 3.034763 1_565
N7 W5 1.988426 1_555
N7 W2 2.038072 1_555
N7 W3 2.082295 1_545
N7 Sr3 2.696342 1_555
N7 Sr0 2.914519 1_555
N7 Sr4 3.034763 1_545
N8 W1 1.920464 1_556
N8 W4 2.059632 1_555
N8 Sr2 2.733644 1_555
N8 Sr3 2.778132 1_566
N8 Sr0 3.031381 1_455
N9 W0 1.920464 1_554
N9 W5 2.059632 1_555
N9 Sr3 2.733644 1_555
N9 Sr2 2.778132 1_544
N9 Sr1 3.031381 1_655
