# generated using pymatgen
data_MnTe2O5
_symmetry_space_group_name_H-M   'P 1'
_cell_length_a   6.07938176
_cell_length_b   7.38117520
_cell_length_c   10.88245636
_cell_angle_alpha   90.00016687
_cell_angle_beta   89.99997593
_cell_angle_gamma   89.99967948
_symmetry_Int_Tables_number   1
_chemical_formula_structural   MnTe2O5
_chemical_formula_sum   'Mn4 Te8 O20'
_cell_volume   488.32826702
_cell_formula_units_Z   4
loop_
 _symmetry_equiv_pos_site_id
 _symmetry_equiv_pos_as_xyz
  1  'x, y, z'
loop_
 _atom_site_type_symbol
 _atom_site_label
 _atom_site_symmetry_multiplicity
 _atom_site_fract_x
 _atom_site_fract_y
 _atom_site_fract_z
 _atom_site_occupancy
  Mn  Mn0  1  0.24999097  0.99997519  0.05799640  1
  Mn  Mn1  1  0.75001091  0.50000169  0.44199916  1
  Mn  Mn2  1  0.75000838  0.00000253  0.94197624  1
  Mn  Mn3  1  0.24999475  0.50000140  0.55802521  1
  Te  Te0  1  0.01392412  0.86795590  0.34563493  1
  Te  Te1  1  0.51404565  0.63202391  0.15433120  1
  Te  Te2  1  0.98611439  0.36794811  0.15437703  1
  Te  Te3  1  0.48597627  0.13203943  0.34565693  1
  Te  Te4  1  0.51326008  0.86802584  0.65469927  1
  Te  Te5  1  0.01324300  0.63196175  0.84529039  1
  Te  Te6  1  0.48671692  0.36801818  0.84529460  1
  Te  Te7  1  0.98672428  0.13196894  0.65470473  1
  O  O0  1  0.94976933  0.34440614  0.56419802  1
  O  O1  1  0.44979330  0.15563529  0.93586077  1
  O  O2  1  0.05021933  0.84439145  0.93580869  1
  O  O3  1  0.55019894  0.65564434  0.56413238  1
  O  O4  1  0.05024054  0.65537110  0.43598479  1
  O  O5  1  0.55024362  0.84464340  0.06400523  1
  O  O6  1  0.94978595  0.15535240  0.06403386  1
  O  O7  1  0.44977672  0.34464983  0.43598035  1
  O  O8  1  0.81021051  0.19225402  0.78966783  1
  O  O9  1  0.31018599  0.30767408  0.71035553  1
  O  O10  1  0.18975344  0.69224579  0.71033293  1
  O  O11  1  0.68978405  0.80768781  0.78964154  1
  O  O12  1  0.24997244  0.00002791  0.43739379  1
  O  O13  1  0.75004052  0.49999784  0.06261665  1
  O  O14  1  0.74994992  0.00003266  0.56348040  1
  O  O15  1  0.24999940  0.50000429  0.93651008  1
  O  O16  1  0.30829919  0.19198120  0.21107360  1
  O  O17  1  0.80841875  0.30803921  0.28895364  1
  O  O18  1  0.69171612  0.69198980  0.28892375  1
  O  O19  1  0.19163025  0.80804758  0.21105707  1
loop_
_geom_bond_atom_site_label_1
_geom_bond_atom_site_label_2
_geom_bond_distance
_geom_bond_site_symmetry_2
Mn0 O2 2.135860 1_554
Mn0 O1 2.135920 1_564
Mn0 O6 2.156489 1_465
Mn0 O5 2.156546 1_555
Mn0 O19 2.215238 1_555
Mn0 O16 2.215686 1_565
Mn1 O3 2.135857 1_555
Mn1 O0 2.135934 1_555
Mn1 O7 2.156544 1_555
Mn1 O4 2.156588 1_655
Mn1 O17 2.215315 1_555
Mn1 O18 2.215577 1_555
Mn2 O5 2.133874 1_546
Mn2 O6 2.134072 1_556
Mn2 O2 2.157481 1_645
Mn2 O1 2.157570 1_555
Mn2 O8 2.212447 1_555
Mn2 O11 2.212977 1_545
Mn3 O4 2.133950 1_555
Mn3 O7 2.133999 1_555
Mn3 O0 2.157506 1_455
Mn3 O3 2.157562 1_555
Mn3 O10 2.212438 1_555
Mn3 O9 2.212971 1_555
O0 Te7 1.865292 1_555
O1 Te6 1.865276 1_555
O2 Te5 1.865325 1_555
O3 Te4 1.865276 1_555
O4 Te0 1.864844 1_555
O5 Te1 1.864839 1_555
O6 Te2 1.864879 1_555
O7 Te3 1.864762 1_555
O8 Te7 1.872616 1_555
O8 Te6 2.432531 1_555
O9 Te6 1.872578 1_555
O9 Te7 2.432219 1_455
O10 Te5 1.872560 1_555
O10 Te4 2.432690 1_555
O11 Te4 1.872570 1_555
O11 Te5 2.432273 1_655
O12 Te3 2.001163 1_555
O12 Te0 2.001691 1_545
O13 Te1 2.001044 1_555
O13 Te2 2.001726 1_555
O14 Te4 2.001336 1_545
O14 Te7 2.001479 1_555
O15 Te6 2.001354 1_555
O15 Te5 2.001447 1_555
O16 Te3 1.872848 1_555
O16 Te2 2.429835 1_455
O17 Te2 1.872801 1_555
O17 Te3 2.431258 1_555
O18 Te1 1.872946 1_555
O18 Te0 2.429996 1_655
O19 Te0 1.872842 1_555
O19 Te1 2.431268 1_555
