# generated using pymatgen
data_Cd5Si2PO12
_symmetry_space_group_name_H-M   'P 1'
_cell_length_a   6.80662800
_cell_length_b   10.34135300
_cell_length_c   15.25773000
_cell_angle_alpha   90.00000000
_cell_angle_beta   90.00000000
_cell_angle_gamma   90.00000000
_symmetry_Int_Tables_number   1
_chemical_formula_structural   Cd5Si2PO12
_chemical_formula_sum   'Cd20 Si8 P4 O48'
_cell_volume   1073.98769175
_cell_formula_units_Z   4
loop_
 _symmetry_equiv_pos_site_id
 _symmetry_equiv_pos_as_xyz
  1  'x, y, z'
loop_
 _atom_site_type_symbol
 _atom_site_label
 _atom_site_symmetry_multiplicity
 _atom_site_fract_x
 _atom_site_fract_y
 _atom_site_fract_z
 _atom_site_occupancy
  Cd  Cd0  1  0.35632500  0.05634600  0.58942700  1
  Cd  Cd1  1  0.64367500  0.94365400  0.41057300  1
  Cd  Cd2  1  0.14367500  0.55634600  0.41057300  1
  Cd  Cd3  1  0.64367500  0.94365400  0.08942700  1
  Cd  Cd4  1  0.85632500  0.44365400  0.58942700  1
  Cd  Cd5  1  0.35632500  0.05634600  0.91057300  1
  Cd  Cd6  1  0.85632500  0.44365400  0.91057300  1
  Cd  Cd7  1  0.14367500  0.55634600  0.08942700  1
  Cd  Cd8  1  0.15812500  0.16287500  0.10784900  1
  Cd  Cd9  1  0.84187500  0.83712500  0.89215100  1
  Cd  Cd10  1  0.34187500  0.66287500  0.89215100  1
  Cd  Cd11  1  0.84187500  0.83712500  0.60784900  1
  Cd  Cd12  1  0.65812500  0.33712500  0.10784900  1
  Cd  Cd13  1  0.15812500  0.16287500  0.39215100  1
  Cd  Cd14  1  0.65812500  0.33712500  0.39215100  1
  Cd  Cd15  1  0.34187500  0.66287500  0.60784900  1
  Cd  Cd16  1  0.05034200  0.21602800  0.75000000  1
  Cd  Cd17  1  0.94965800  0.78397200  0.25000000  1
  Cd  Cd18  1  0.44965800  0.71602800  0.25000000  1
  Cd  Cd19  1  0.55034200  0.28397200  0.75000000  1
  Si  Si0  1  0.35234300  0.36727600  0.57075500  1
  Si  Si1  1  0.64765700  0.63272400  0.42924500  1
  Si  Si2  1  0.14765700  0.86727600  0.42924500  1
  Si  Si3  1  0.64765700  0.63272400  0.07075500  1
  Si  Si4  1  0.85234300  0.13272400  0.57075500  1
  Si  Si5  1  0.35234300  0.36727600  0.92924500  1
  Si  Si6  1  0.85234300  0.13272400  0.92924500  1
  Si  Si7  1  0.14765700  0.86727600  0.07075500  1
  P  P0  1  0.00653600  0.58698000  0.75000000  1
  P  P1  1  0.99346400  0.41302000  0.25000000  1
  P  P2  1  0.49346400  0.08698000  0.25000000  1
  P  P3  1  0.50653600  0.91302000  0.75000000  1
  O  O0  1  0.45369900  0.05944100  0.75000000  1
  O  O1  1  0.54630100  0.94055900  0.25000000  1
  O  O2  1  0.04630100  0.55944100  0.25000000  1
  O  O3  1  0.95369900  0.44055900  0.75000000  1
  O  O4  1  0.40551200  0.27865200  0.01518800  1
  O  O5  1  0.59448800  0.72134800  0.98481200  1
  O  O6  1  0.09448800  0.77865200  0.98481200  1
  O  O7  1  0.59448800  0.72134800  0.51518800  1
  O  O8  1  0.90551200  0.22134800  0.01518800  1
  O  O9  1  0.40551200  0.27865200  0.48481200  1
  O  O10  1  0.90551200  0.22134800  0.48481200  1
  O  O11  1  0.09448800  0.77865200  0.51518800  1
  O  O12  1  0.08310300  0.35639900  0.16459600  1
  O  O13  1  0.91689700  0.64360100  0.83540400  1
  O  O14  1  0.41689700  0.85639900  0.83540400  1
  O  O15  1  0.91689700  0.64360100  0.66459600  1
  O  O16  1  0.58310300  0.14360100  0.16459600  1
  O  O17  1  0.08310300  0.35639900  0.33540400  1
  O  O18  1  0.58310300  0.14360100  0.33540400  1
  O  O19  1  0.41689700  0.85639900  0.66459600  1
  O  O20  1  0.17695900  0.47461300  0.55091600  1
  O  O21  1  0.82304100  0.52538700  0.44908400  1
  O  O22  1  0.32304100  0.97461300  0.44908400  1
  O  O23  1  0.82304100  0.52538700  0.05091600  1
  O  O24  1  0.67695900  0.02538700  0.55091600  1
  O  O25  1  0.17695900  0.47461300  0.94908400  1
  O  O26  1  0.67695900  0.02538700  0.94908400  1
  O  O27  1  0.32304100  0.97461300  0.05091600  1
  O  O28  1  0.03213300  0.04341300  0.61187100  1
  O  O29  1  0.96786700  0.95658700  0.38812900  1
  O  O30  1  0.46786700  0.54341300  0.38812900  1
  O  O31  1  0.96786700  0.95658700  0.11187100  1
  O  O32  1  0.53213300  0.45658700  0.61187100  1
  O  O33  1  0.03213300  0.04341300  0.88812900  1
  O  O34  1  0.53213300  0.45658700  0.88812900  1
  O  O35  1  0.46786700  0.54341300  0.11187100  1
  O  O36  1  0.23373300  0.60970500  0.75000000  1
  O  O37  1  0.76626700  0.39029500  0.25000000  1
  O  O38  1  0.26626700  0.10970500  0.25000000  1
  O  O39  1  0.73373300  0.89029500  0.75000000  1
  O  O40  1  0.29314200  0.26395800  0.65009300  1
  O  O41  1  0.70685800  0.73604200  0.34990700  1
  O  O42  1  0.20685800  0.76395800  0.34990700  1
  O  O43  1  0.70685800  0.73604200  0.15009300  1
  O  O44  1  0.79314200  0.23604200  0.65009300  1
  O  O45  1  0.29314200  0.26395800  0.84990700  1
  O  O46  1  0.79314200  0.23604200  0.84990700  1
  O  O47  1  0.20685800  0.76395800  0.15009300  1
loop_
_geom_bond_atom_site_label_1
_geom_bond_atom_site_label_2
_geom_bond_distance
_geom_bond_site_symmetry_2
Cd0 O28 2.237069 1_555
Cd0 O24 2.282716 1_555
Cd0 O22 2.313217 1_545
Cd0 O40 2.377246 1_555
Cd0 O19 2.400179 1_545
Cd0 O0 2.538250 1_555
Cd1 O29 2.237069 1_555
Cd1 O22 2.282716 1_555
Cd1 O24 2.313217 1_565
Cd1 O41 2.377246 1_555
Cd1 O18 2.400179 1_565
Cd1 O1 2.538250 1_555
Cd2 O30 2.237069 1_555
Cd2 O21 2.282716 1_455
Cd2 O20 2.313217 1_555
Cd2 O42 2.377246 1_555
Cd2 O17 2.400179 1_555
Cd2 O2 2.538250 1_555
Cd3 O31 2.237069 1_555
Cd3 O27 2.282716 1_555
Cd3 O26 2.313217 1_564
Cd3 O43 2.377246 1_555
Cd3 O16 2.400179 1_565
Cd3 O1 2.538250 1_555
Cd4 O32 2.237069 1_555
Cd4 O20 2.282716 1_655
Cd4 O21 2.313217 1_555
Cd4 O44 2.377246 1_555
Cd4 O15 2.400179 1_555
Cd4 O3 2.538250 1_555
Cd5 O33 2.237069 1_555
Cd5 O26 2.282716 1_555
Cd5 O27 2.313217 1_546
Cd5 O45 2.377246 1_555
Cd5 O14 2.400179 1_545
Cd5 O0 2.538250 1_555
Cd6 O34 2.237069 1_555
Cd6 O25 2.282716 1_655
Cd6 O23 2.313217 1_556
Cd6 O46 2.377246 1_555
Cd6 O13 2.400179 1_555
Cd6 O3 2.538250 1_555
Cd7 O35 2.237069 1_555
Cd7 O23 2.282716 1_455
Cd7 O25 2.313217 1_554
Cd7 O47 2.377246 1_555
Cd7 O12 2.400179 1_555
Cd7 O2 2.538250 1_555
Cd8 O12 2.239559 1_555
Cd8 O8 2.306719 1_455
Cd8 O38 2.355480 1_555
Cd8 O27 2.409356 1_545
Cd8 O31 2.496355 1_445
Cd8 O4 2.503547 1_555
Cd9 O13 2.239559 1_555
Cd9 O6 2.306719 1_655
Cd9 O39 2.355480 1_555
Cd9 O26 2.409356 1_565
Cd9 O33 2.496355 1_665
Cd9 O5 2.503547 1_555
Cd10 O14 2.239559 1_555
Cd10 O5 2.306719 1_555
Cd10 O36 2.355480 1_555
Cd10 O25 2.409356 1_555
Cd10 O34 2.496355 1_555
Cd10 O6 2.503547 1_555
Cd11 O15 2.239559 1_555
Cd11 O11 2.306719 1_655
Cd11 O39 2.355480 1_555
Cd11 O24 2.409356 1_565
Cd11 O28 2.496355 1_665
Cd11 O7 2.503547 1_555
Cd12 O16 2.239559 1_555
Cd12 O4 2.306719 1_555
Cd12 O37 2.355480 1_555
Cd12 O23 2.409356 1_555
Cd12 O35 2.496355 1_555
Cd12 O8 2.503547 1_555
Cd13 O17 2.239559 1_555
Cd13 O10 2.306719 1_455
Cd13 O38 2.355480 1_555
Cd13 O22 2.409356 1_545
Cd13 O29 2.496355 1_445
Cd13 O9 2.503547 1_555
Cd14 O18 2.239559 1_555
Cd14 O9 2.306719 1_555
Cd14 O37 2.355480 1_555
Cd14 O21 2.409356 1_555
Cd14 O30 2.496355 1_555
Cd14 O10 2.503547 1_555
Cd15 O19 2.239559 1_555
Cd15 O7 2.306719 1_555
Cd15 O36 2.355480 1_555
Cd15 O20 2.409356 1_555
Cd15 O32 2.496355 1_555
Cd15 O11 2.503547 1_555
Cd16 O40 2.302300 1_555
Cd16 O45 2.302300 1_555
Cd16 O44 2.330519 1_455
Cd16 O46 2.330519 1_455
Cd16 O3 2.413336 1_455
Cd16 O33 2.764697 1_555
Cd16 O28 2.764697 1_555
Cd17 O41 2.302300 1_555
Cd17 O43 2.302300 1_555
Cd17 O47 2.330519 1_655
Cd17 O42 2.330519 1_655
Cd17 O2 2.413336 1_655
Cd17 O29 2.764697 1_555
Cd17 O31 2.764697 1_555
Cd18 O42 2.302300 1_555
Cd18 O47 2.302300 1_555
Cd18 O43 2.330519 1_555
Cd18 O41 2.330519 1_555
Cd18 O1 2.413336 1_555
Cd18 O30 2.764697 1_555
Cd18 O35 2.764697 1_555
Cd19 O46 2.302300 1_555
Cd19 O44 2.302300 1_555
Cd19 O40 2.330519 1_555
Cd19 O45 2.330519 1_555
Cd19 O0 2.413336 1_555
Cd19 O34 2.764697 1_555
Cd19 O32 2.764697 1_555
O0 P3 1.556315 1_545
O1 P2 1.556315 1_565
O2 P1 1.556315 1_455
O3 P0 1.556315 1_655
O4 Si5 1.640252 1_554
O5 Si3 1.640252 1_556
O6 Si7 1.640252 1_556
O7 Si1 1.640252 1_555
O8 Si6 1.640252 1_554
O9 Si0 1.640252 1_555
O10 Si4 1.640252 1_555
O11 Si2 1.640252 1_555
O12 P1 1.553422 1_455
O13 P0 1.553422 1_655
O14 P3 1.553422 1_555
O15 P0 1.553422 1_655
O16 P2 1.553422 1_555
O17 P1 1.553422 1_455
O18 P2 1.553422 1_555
O19 P3 1.553422 1_555
O20 Si0 1.657964 1_555
O21 Si1 1.657964 1_555
O22 Si2 1.657964 1_555
O23 Si3 1.657964 1_555
O24 Si4 1.657964 1_555
O25 Si5 1.657964 1_555
O26 Si6 1.657964 1_555
O27 Si7 1.657964 1_555
O28 Si4 1.656557 1_455
O29 Si2 1.656557 1_655
O30 Si1 1.656557 1_555
O31 Si7 1.656557 1_655
O32 Si0 1.656557 1_555
O33 Si6 1.656557 1_455
O34 Si5 1.656557 1_555
O35 Si3 1.656557 1_555
O36 P0 1.564200 1_555
O37 P1 1.564200 1_555
O38 P2 1.564200 1_555
O39 P3 1.564200 1_555
O40 Si0 1.664124 1_555
O41 Si1 1.664124 1_555
O42 Si2 1.664124 1_555
O43 Si3 1.664124 1_555
O44 Si4 1.664124 1_555
O45 Si5 1.664124 1_555
O46 Si6 1.664124 1_555
O47 Si7 1.664124 1_555
