# generated using pymatgen
data_BaAl2O6
_symmetry_space_group_name_H-M   'P 1'
_cell_length_a   5.53875500
_cell_length_b   9.83075500
_cell_length_c   10.98332200
_cell_angle_alpha   90.00000000
_cell_angle_beta   90.00000000
_cell_angle_gamma   90.00000000
_symmetry_Int_Tables_number   1
_chemical_formula_structural   BaAl2O6
_chemical_formula_sum   'Ba4 Al8 O24'
_cell_volume   598.04345802
_cell_formula_units_Z   4
loop_
 _symmetry_equiv_pos_site_id
 _symmetry_equiv_pos_as_xyz
  1  'x, y, z'
loop_
 _atom_site_type_symbol
 _atom_site_label
 _atom_site_symmetry_multiplicity
 _atom_site_fract_x
 _atom_site_fract_y
 _atom_site_fract_z
 _atom_site_occupancy
  Ba  Ba0  1  0.62190900  0.95829400  0.33343300  1
  Ba  Ba1  1  0.37809100  0.04170600  0.83343300  1
  Ba  Ba2  1  0.87809100  0.45829400  0.83343300  1
  Ba  Ba3  1  0.12190900  0.54170600  0.33343300  1
  Al  Al0  1  0.61071900  0.65721500  0.15051700  1
  Al  Al1  1  0.38928100  0.34278500  0.65051700  1
  Al  Al2  1  0.88928100  0.15721500  0.65051700  1
  Al  Al3  1  0.11071900  0.84278500  0.15051700  1
  Al  Al4  1  0.67595400  0.32931900  0.18475500  1
  Al  Al5  1  0.32404600  0.67068100  0.68475500  1
  Al  Al6  1  0.82404600  0.82931900  0.68475500  1
  Al  Al7  1  0.17595400  0.17068100  0.18475500  1
  O  O0  1  0.61034400  0.49742200  0.22445500  1
  O  O1  1  0.38965600  0.50257800  0.72445500  1
  O  O2  1  0.88965600  0.99742200  0.72445500  1
  O  O3  1  0.11034400  0.00257800  0.22445500  1
  O  O4  1  0.61992500  0.60183400  0.99571700  1
  O  O5  1  0.38007500  0.39816600  0.49571700  1
  O  O6  1  0.88007500  0.10183400  0.49571700  1
  O  O7  1  0.11992500  0.89816600  0.99571700  1
  O  O8  1  0.35611300  0.74631200  0.20091400  1
  O  O9  1  0.64388700  0.25368800  0.70091400  1
  O  O10  1  0.14388700  0.24631200  0.70091400  1
  O  O11  1  0.85611300  0.75368800  0.20091400  1
  O  O12  1  0.59118800  0.11266700  0.08123100  1
  O  O13  1  0.40881200  0.88733300  0.58123100  1
  O  O14  1  0.90881200  0.61266700  0.58123100  1
  O  O15  1  0.09118800  0.38733300  0.08123100  1
  O  O16  1  0.46186800  0.21484000  0.24978500  1
  O  O17  1  0.53813200  0.78516000  0.74978500  1
  O  O18  1  0.03813200  0.71484000  0.74978500  1
  O  O19  1  0.96186800  0.28516000  0.24978500  1
  O  O20  1  0.79608400  0.81110400  0.52119200  1
  O  O21  1  0.20391600  0.18889600  0.02119200  1
  O  O22  1  0.70391600  0.31110400  0.02119200  1
  O  O23  1  0.29608400  0.68889600  0.52119200  1
loop_
_geom_bond_atom_site_label_1
_geom_bond_atom_site_label_2
_geom_bond_distance
_geom_bond_site_symmetry_2
Ba0 O6 2.685684 1_565
Ba0 O20 2.697626 1_555
Ba0 O11 2.801260 1_555
Ba0 O16 2.826750 1_565
Ba0 O8 2.937449 1_555
Ba0 O3 2.990143 1_665
Ba0 O13 3.047472 1_555
Ba0 O3 3.106531 1_565
Ba0 O12 3.163078 1_565
Ba1 O7 2.685684 1_545
Ba1 O21 2.697626 1_556
Ba1 O10 2.801260 1_555
Ba1 O17 2.826750 1_545
Ba1 O9 2.937449 1_555
Ba1 O2 2.990143 1_445
Ba1 O12 3.047472 1_556
Ba1 O2 3.106531 1_545
Ba1 O13 3.163078 1_545
Ba2 O4 2.685684 1_555
Ba2 O22 2.697626 1_556
Ba2 O9 2.801260 1_555
Ba2 O18 2.826750 1_655
Ba2 O10 2.937449 1_655
Ba2 O1 2.990143 1_555
Ba2 O15 3.047472 1_656
Ba2 O1 3.106531 1_655
Ba2 O14 3.163078 1_555
Ba3 O5 2.685684 1_555
Ba3 O23 2.697626 1_555
Ba3 O8 2.801260 1_555
Ba3 O19 2.826750 1_455
Ba3 O11 2.937449 1_455
Ba3 O0 2.990143 1_555
Ba3 O14 3.047472 1_455
Ba3 O0 3.106531 1_455
Ba3 O15 3.163078 1_555
Al0 O11 1.747347 1_555
Al0 O8 1.749926 1_555
Al0 O0 1.768380 1_555
Al0 O4 1.785988 1_554
Al1 O10 1.747347 1_555
Al1 O9 1.749926 1_555
Al1 O1 1.768380 1_555
Al1 O5 1.785988 1_555
Al2 O9 1.747347 1_555
Al2 O10 1.749926 1_655
Al2 O2 1.768380 1_545
Al2 O6 1.785988 1_555
Al3 O8 1.747347 1_555
Al3 O11 1.749926 1_455
Al3 O3 1.768380 1_565
Al3 O7 1.785988 1_554
Al4 O0 1.747342 1_555
Al4 O16 1.784028 1_555
Al4 O19 1.790647 1_555
Al4 O22 1.811998 1_555
Al4 O12 2.459584 1_555
Al5 O1 1.747342 1_555
Al5 O17 1.784028 1_555
Al5 O18 1.790647 1_555
Al5 O23 1.811998 1_555
Al5 O13 2.459584 1_555
Al6 O2 1.747342 1_555
Al6 O18 1.784028 1_655
Al6 O17 1.790647 1_555
Al6 O20 1.811998 1_555
Al6 O14 2.459584 1_555
Al7 O3 1.747342 1_555
Al7 O19 1.784028 1_455
Al7 O16 1.790647 1_555
Al7 O21 1.811998 1_555
Al7 O15 2.459584 1_555
