# generated using pymatgen
data_Sr6Ca2Co5Cu3O20
_symmetry_space_group_name_H-M   'P 1'
_cell_length_a   10.91384902
_cell_length_b   11.00019579
_cell_length_c   17.49954574
_cell_angle_alpha   108.03207524
_cell_angle_beta   108.10921226
_cell_angle_gamma   90.53307218
_symmetry_Int_Tables_number   1
_chemical_formula_structural   Sr6Ca2Co5Cu3O20
_chemical_formula_sum   'Sr24 Ca8 Co20 Cu12 O80'
_cell_volume   1885.76873687
_cell_formula_units_Z   4
loop_
 _symmetry_equiv_pos_site_id
 _symmetry_equiv_pos_as_xyz
  1  'x, y, z'
loop_
 _atom_site_type_symbol
 _atom_site_label
 _atom_site_symmetry_multiplicity
 _atom_site_fract_x
 _atom_site_fract_y
 _atom_site_fract_z
 _atom_site_occupancy
  Sr  Sr0  1  0.31091000  0.05676000  0.61349100  1
  Sr  Sr1  1  0.30822000  0.55923800  0.61495500  1
  Sr  Sr2  1  0.80465100  0.06251900  0.61277200  1
  Sr  Sr3  1  0.80888200  0.55505800  0.61507700  1
  Sr  Sr4  1  0.19589100  0.43809400  0.38799000  1
  Sr  Sr5  1  0.19482800  0.44214900  0.88722900  1
  Sr  Sr6  1  0.19675000  0.93947900  0.38743500  1
  Sr  Sr7  1  0.69502000  0.43877100  0.38633300  1
  Sr  Sr8  1  0.69630000  0.44217700  0.88771200  1
  Sr  Sr9  1  0.69119000  0.94179000  0.38606400  1
  Sr  Sr10  1  0.69511500  0.94094400  0.88857800  1
  Sr  Sr11  1  0.05551000  0.29706100  0.11164800  1
  Sr  Sr12  1  0.05730800  0.30346800  0.61349300  1
  Sr  Sr13  1  0.06041900  0.80747600  0.61524100  1
  Sr  Sr14  1  0.55795400  0.30139500  0.61165500  1
  Sr  Sr15  1  0.55807400  0.80862200  0.11534300  1
  Sr  Sr16  1  0.55666600  0.80540400  0.61415400  1
  Sr  Sr17  1  0.44433100  0.19446100  0.38479400  1
  Sr  Sr18  1  0.44460300  0.19313900  0.88796800  1
  Sr  Sr19  1  0.44267300  0.69629100  0.38520800  1
  Sr  Sr20  1  0.44447300  0.69803200  0.88954100  1
  Sr  Sr21  1  0.93988400  0.19232500  0.38288100  1
  Sr  Sr22  1  0.94444900  0.19420900  0.88708000  1
  Sr  Sr23  1  0.94567800  0.69896700  0.38555000  1
  Ca  Ca0  1  0.30243300  0.06094800  0.10679000  1
  Ca  Ca1  1  0.29809800  0.56549200  0.10755300  1
  Ca  Ca2  1  0.79821200  0.05849800  0.10705900  1
  Ca  Ca3  1  0.79956700  0.56548200  0.10779900  1
  Ca  Ca4  1  0.19915500  0.93913800  0.89435400  1
  Ca  Ca5  1  0.05574900  0.79403200  0.10736500  1
  Ca  Ca6  1  0.54859400  0.28835500  0.10718100  1
  Ca  Ca7  1  0.95148300  0.70781900  0.89404300  1
  Co  Co0  1  0.00342900  0.99920500  0.00065100  1
  Co  Co1  1  0.00131700  0.99973300  0.49951500  1
  Co  Co2  1  0.00271100  0.50097500  0.00067500  1
  Co  Co3  1  0.00272600  0.50124000  0.50360300  1
  Co  Co4  1  0.50323500  0.00020100  0.00275600  1
  Co  Co5  1  0.50034300  0.99882500  0.49900300  1
  Co  Co6  1  0.50320000  0.49849700  0.00128100  1
  Co  Co7  1  0.50229400  0.49972600  0.50018500  1
  Co  Co8  1  0.25579900  0.24877200  0.00385600  1
  Co  Co9  1  0.25625300  0.24986600  0.50709700  1
  Co  Co10  1  0.25232300  0.75458400  0.00458600  1
  Co  Co11  1  0.25418500  0.75232300  0.50558700  1
  Co  Co12  1  0.75475700  0.24958600  0.00350000  1
  Co  Co13  1  0.74886500  0.24780800  0.49739600  1
  Co  Co14  1  0.75727700  0.75354000  0.00479300  1
  Co  Co15  1  0.75460100  0.75571000  0.50796200  1
  Co  Co16  1  0.10971700  0.08702300  0.24341200  1
  Co  Co17  1  0.10619100  0.59441400  0.24505300  1
  Co  Co18  1  0.60686600  0.58866800  0.24331300  1
  Co  Co19  1  0.85196700  0.40134400  0.24356100  1
  Cu  Cu0  1  0.11679000  0.09846900  0.75272600  1
  Cu  Cu1  1  0.11199300  0.60734500  0.75382000  1
  Cu  Cu2  1  0.60792100  0.09909700  0.24650900  1
  Cu  Cu3  1  0.61949700  0.10192000  0.75229600  1
  Cu  Cu4  1  0.61996900  0.60262100  0.75131500  1
  Cu  Cu5  1  0.35960900  0.40372200  0.24646900  1
  Cu  Cu6  1  0.36706300  0.40137000  0.75235400  1
  Cu  Cu7  1  0.35167900  0.90458100  0.24526200  1
  Cu  Cu8  1  0.36099300  0.90078700  0.75447400  1
  Cu  Cu9  1  0.86764000  0.40524900  0.75362300  1
  Cu  Cu10  1  0.86882600  0.89901000  0.24712400  1
  Cu  Cu11  1  0.87015900  0.89656600  0.75209600  1
  O  O0  1  0.12717400  0.13121000  0.49544600  1
  O  O1  1  0.12921900  0.12681900  0.99327700  1
  O  O2  1  0.12931900  0.62795000  0.49435600  1
  O  O3  1  0.12828600  0.63005600  0.99182300  1
  O  O4  1  0.62162500  0.12500300  0.49484400  1
  O  O5  1  0.62899500  0.13310100  0.99891900  1
  O  O6  1  0.63249600  0.62898900  0.49495500  1
  O  O7  1  0.63407900  0.62809100  0.99529000  1
  O  O8  1  0.12553000  0.38868800  0.01017900  1
  O  O9  1  0.12119300  0.38391300  0.50417100  1
  O  O10  1  0.12838500  0.88408500  0.01010500  1
  O  O11  1  0.12849100  0.87771400  0.50430500  1
  O  O12  1  0.62516000  0.38696700  0.01449200  1
  O  O13  1  0.63089100  0.37310300  0.50413000  1
  O  O14  1  0.63271400  0.88426800  0.01009300  1
  O  O15  1  0.62388900  0.87920700  0.50404500  1
  O  O16  1  0.37542300  0.11670100  0.49494700  1
  O  O17  1  0.37380000  0.11337200  0.99481900  1
  O  O18  1  0.37316300  0.61991500  0.49450600  1
  O  O19  1  0.38261200  0.61377400  0.99918000  1
  O  O20  1  0.87015600  0.12617800  0.49609500  1
  O  O21  1  0.87668100  0.11402800  0.99582200  1
  O  O22  1  0.88246300  0.61536200  0.49380600  1
  O  O23  1  0.88532300  0.61768000  0.99676200  1
  O  O24  1  0.37588500  0.37548200  0.01304400  1
  O  O25  1  0.36978800  0.37026300  0.50308900  1
  O  O26  1  0.37348600  0.87411400  0.00796600  1
  O  O27  1  0.37331900  0.87007300  0.50331900  1
  O  O28  1  0.87219100  0.38004100  0.01340100  1
  O  O29  1  0.87657100  0.37495700  0.50226000  1
  O  O30  1  0.88154100  0.87371700  0.01000600  1
  O  O31  1  0.87283300  0.87035500  0.50266900  1
  O  O32  1  0.09334500  0.09032500  0.13861500  1
  O  O33  1  0.07600000  0.07894400  0.63730700  1
  O  O34  1  0.09183200  0.60182300  0.14024800  1
  O  O35  1  0.07150100  0.58548400  0.63775200  1
  O  O36  1  0.57907300  0.08820900  0.13330800  1
  O  O37  1  0.57595400  0.08413400  0.63737000  1
  O  O38  1  0.59337700  0.59962800  0.14167100  1
  O  O39  1  0.57409800  0.58555200  0.63616200  1
  O  O40  1  0.43853500  0.42000500  0.36284600  1
  O  O41  1  0.44088400  0.41330700  0.86761800  1
  O  O42  1  0.43505600  0.92006700  0.36139100  1
  O  O43  1  0.44246800  0.91667800  0.86907900  1
  O  O44  1  0.93195600  0.40951300  0.35213700  1
  O  O45  1  0.93924900  0.41207600  0.86615400  1
  O  O46  1  0.93964200  0.92146800  0.36379500  1
  O  O47  1  0.94685200  0.90757000  0.86550100  1
  O  O48  1  0.33211000  0.28801500  0.13582300  1
  O  O49  1  0.32503200  0.29913200  0.63657700  1
  O  O50  1  0.32257600  0.79124000  0.13332600  1
  O  O51  1  0.32176500  0.80206400  0.63829000  1
  O  O52  1  0.83240900  0.28360000  0.14062100  1
  O  O53  1  0.83083400  0.30944100  0.63941600  1
  O  O54  1  0.83674400  0.78928100  0.13563400  1
  O  O55  1  0.82704700  0.79960100  0.63642000  1
  O  O56  1  0.18245700  0.18990100  0.35044300  1
  O  O57  1  0.19088700  0.20381000  0.86511400  1
  O  O58  1  0.18089700  0.69746200  0.35305500  1
  O  O59  1  0.19202300  0.70947600  0.86685300  1
  O  O60  1  0.68096700  0.19501600  0.36254300  1
  O  O61  1  0.69010600  0.20286900  0.86736500  1
  O  O62  1  0.68292000  0.69199300  0.35059500  1
  O  O63  1  0.70132100  0.70104900  0.86460800  1
  O  O64  1  0.43163700  0.05969900  0.23843700  1
  O  O65  1  0.45426200  0.04618800  0.75183100  1
  O  O66  1  0.43362400  0.55894500  0.23756200  1
  O  O67  1  0.45664900  0.55393700  0.75333000  1
  O  O68  1  0.93894500  0.05523100  0.23696600  1
  O  O69  1  0.95075900  0.05447600  0.74995600  1
  O  O70  1  0.92942700  0.55516100  0.23769900  1
  O  O71  1  0.94749600  0.57517200  0.76180400  1
  O  O72  1  0.18854700  0.44314700  0.24795700  1
  O  O73  1  0.20352100  0.45777800  0.75144200  1
  O  O74  1  0.17429300  0.92654400  0.24071700  1
  O  O75  1  0.19482500  0.93571500  0.76123900  1
  O  O76  1  0.67593200  0.42762800  0.23872500  1
  O  O77  1  0.70159100  0.44667800  0.74930600  1
  O  O78  1  0.70646500  0.95796000  0.25028400  1
  O  O79  1  0.70816300  0.95146000  0.75279700  1
loop_
_geom_bond_atom_site_label_1
_geom_bond_atom_site_label_2
_geom_bond_distance
_geom_bond_site_symmetry_2
Ca0 O64 2.301388 1_555
Ca0 O48 2.387245 1_555
Ca0 O10 2.480194 1_545
Ca0 O32 2.512819 1_555
Ca0 O17 2.533495 1_554
Ca0 O26 2.545366 1_545
Ca0 O1 2.574256 1_554
Ca0 O36 2.906354 1_555
Ca1 O66 2.319589 1_555
Ca1 O50 2.379242 1_555
Ca1 O8 2.473524 1_555
Ca1 O34 2.496126 1_555
Ca1 O19 2.536019 1_554
Ca1 O24 2.567189 1_555
Ca1 O3 2.573389 1_554
Ca2 O68 2.325797 1_555
Ca2 O52 2.358350 1_555
Ca2 O14 2.414923 1_545
Ca2 O5 2.546050 1_554
Ca2 O36 2.577277 1_555
Ca2 O21 2.580415 1_554
Ca2 O30 2.588536 1_545
Ca3 O70 2.312770 1_555
Ca3 O54 2.361920 1_555
Ca3 O12 2.481660 1_555
Ca3 O38 2.502699 1_555
Ca3 O7 2.502955 1_554
Ca3 O28 2.505205 1_555
Ca3 O23 2.606254 1_554
Ca4 O75 2.303742 1_555
Ca4 O59 2.416680 1_555
Ca4 O17 2.481943 1_565
Ca4 O1 2.545526 1_565
Ca4 O26 2.576537 1_556
Ca4 O10 2.605695 1_556
Ca4 O47 2.639539 1_455
Ca4 O43 2.825413 1_555
Ca5 O74 2.286134 1_555
Ca5 O34 2.363152 1_555
Ca5 O30 2.495553 1_455
Ca5 O23 2.517808 1_454
Ca5 O10 2.524779 1_555
Ca5 O54 2.590210 1_455
Ca5 O3 2.594657 1_554
Ca5 O50 2.806345 1_555
Ca6 O76 2.316416 1_555
Ca6 O36 2.389395 1_555
Ca6 O24 2.503199 1_555
Ca6 O5 2.516772 1_554
Ca6 O12 2.533954 1_555
Ca6 O17 2.543066 1_554
Ca6 O48 2.563327 1_555
Ca6 O52 2.972357 1_555
Ca7 O71 2.309092 1_555
Ca7 O47 2.397078 1_555
Ca7 O3 2.503455 1_655
Ca7 O23 2.575396 1_555
Ca7 O10 2.582009 1_656
Ca7 O30 2.593690 1_556
Ca7 O63 2.612132 1_555
Ca7 O59 2.810604 1_655
Co0 O10 1.874137 1_555
Co0 O21 1.882011 1_464
Co0 O30 1.985702 1_455
Co0 O1 2.014545 1_564
Co0 O47 2.143715 1_454
Co0 O32 2.192538 1_565
Co1 O11 1.940886 1_555
Co1 O20 2.005661 1_465
Co1 O31 2.013561 1_455
Co1 O0 2.017697 1_565
Co1 O46 2.136488 1_455
Co1 O33 2.168446 1_565
Co2 O23 1.823355 1_454
Co2 O8 1.835613 1_555
Co2 O3 2.037250 1_554
Co2 O28 2.047871 1_455
Co2 O45 2.127490 1_454
Co2 O34 2.228885 1_555
Co3 O22 1.830871 1_455
Co3 O9 1.835340 1_555
Co3 O29 1.936496 1_455
Co3 O2 2.029930 1_555
Co3 O35 2.116121 1_555
Co3 O44 2.386907 1_455
Co4 O17 1.892725 1_554
Co4 O14 1.913594 1_545
Co4 O26 2.014761 1_545
Co4 O5 2.026398 1_554
Co4 O36 2.069296 1_555
Co4 O43 2.109464 1_544
Co5 O16 1.890720 1_565
Co5 O15 1.894250 1_555
Co5 O4 1.942188 1_565
Co5 O27 2.007055 1_555
Co5 O42 2.165095 1_555
Co5 O37 2.182034 1_565
Co6 O12 1.828934 1_555
Co6 O19 1.836097 1_554
Co6 O24 2.029647 1_555
Co6 O7 2.057001 1_554
Co6 O41 2.110454 1_554
Co6 O38 2.241952 1_555
Co7 O18 1.942408 1_555
Co7 O13 1.987543 1_555
Co7 O6 2.042866 1_555
Co7 O25 2.043090 1_555
Co7 O39 2.145651 1_555
Co7 O40 2.161849 1_555
Co8 O24 1.839175 1_555
Co8 O1 1.842596 1_554
Co8 O17 1.979501 1_554
Co8 O48 2.096092 1_555
Co8 O8 2.106062 1_555
Co8 O57 2.195925 1_554
Co9 O0 1.830919 1_555
Co9 O25 1.837201 1_555
Co9 O16 1.974101 1_555
Co9 O49 2.041095 1_555
Co9 O9 2.095212 1_555
Co9 O56 2.469201 1_555
Co10 O3 1.829484 1_554
Co10 O26 1.830802 1_555
Co10 O10 1.974882 1_555
Co10 O50 2.045484 1_555
Co10 O19 2.112819 1_554
Co10 O59 2.180852 1_554
Co11 O2 1.843875 1_555
Co11 O27 1.844566 1_555
Co11 O11 1.954514 1_555
Co11 O18 1.965204 1_555
Co11 O51 2.092189 1_555
Co11 O58 2.407345 1_555
Co12 O5 1.835067 1_554
Co12 O28 1.845474 1_555
Co12 O21 2.009057 1_554
Co12 O12 2.085726 1_555
Co12 O61 2.151199 1_554
Co12 O52 2.188642 1_555
Co13 O20 1.890976 1_555
Co13 O13 1.896863 1_555
Co13 O4 1.909054 1_555
Co13 O29 1.929341 1_555
Co13 O60 2.124095 1_555
Co13 O53 2.236069 1_555
Co14 O30 1.846691 1_555
Co14 O7 1.850461 1_554
Co14 O14 1.989187 1_555
Co14 O23 2.058422 1_554
Co14 O54 2.085942 1_555
Co14 O63 2.215756 1_554
Co15 O6 1.830648 1_555
Co15 O31 1.838581 1_555
Co15 O15 1.979450 1_555
Co15 O55 2.031652 1_555
Co15 O22 2.100095 1_555
Co15 O62 2.478410 1_555
Co16 O56 1.779243 1_555
Co16 O32 1.798357 1_555
Co16 O68 1.855116 1_455
Co16 O74 1.899338 1_545
Co17 O58 1.794503 1_555
Co17 O34 1.819067 1_555
Co17 O72 1.905527 1_555
Co17 O70 1.928855 1_455
Co18 O38 1.780520 1_555
Co18 O62 1.788311 1_555
Co18 O66 1.881954 1_555
Co18 O76 1.920196 1_555
Co19 O44 1.800552 1_555
Co19 O52 1.810945 1_555
Co19 O76 1.925163 1_555
Co19 O70 1.929476 1_555
Cu0 O69 1.853261 1_455
Cu0 O57 1.856796 1_555
Cu0 O33 1.869360 1_555
Cu0 O75 2.016782 1_545
Cu1 O59 1.862679 1_555
Cu1 O35 1.875172 1_555
Cu1 O71 1.882174 1_455
Cu1 O73 1.928864 1_555
Cu2 O36 1.871466 1_555
Cu2 O60 1.877115 1_555
Cu2 O78 1.903106 1_545
Cu2 O64 1.920143 1_555
Cu3 O37 1.862625 1_555
Cu3 O61 1.875323 1_555
Cu3 O65 1.896101 1_555
Cu3 O79 1.925962 1_545
Cu4 O63 1.857442 1_555
Cu4 O39 1.866406 1_555
Cu4 O67 1.870339 1_555
Cu4 O77 1.935963 1_555
Cu5 O48 1.888139 1_555
Cu5 O40 1.897981 1_555
Cu5 O72 1.926795 1_555
Cu5 O66 1.951843 1_555
Cu6 O41 1.886455 1_555
Cu6 O73 1.892109 1_555
Cu6 O49 1.892637 1_555
Cu6 O67 1.927217 1_555
Cu7 O50 1.893732 1_555
Cu7 O42 1.902659 1_555
Cu7 O74 1.933269 1_555
Cu7 O64 1.962293 1_565
Cu8 O43 1.874795 1_555
Cu8 O75 1.889129 1_555
Cu8 O51 1.892002 1_555
Cu8 O65 1.908215 1_565
Cu9 O45 1.856057 1_555
Cu9 O77 1.857191 1_555
Cu9 O53 1.858870 1_555
Cu9 O71 2.000095 1_555
Cu10 O54 1.869638 1_555
Cu10 O46 1.878852 1_555
Cu10 O78 1.903571 1_555
Cu10 O68 1.954369 1_565
Cu11 O47 1.862900 1_555
Cu11 O55 1.875798 1_555
Cu11 O79 1.875997 1_555
Cu11 O69 1.955717 1_565
O0 Sr21 2.617770 1_455
O0 Sr12 2.649920 1_555
O0 Sr6 2.655464 1_545
O0 Sr0 2.731640 1_555
O1 Sr22 2.573066 1_455
O1 Sr11 2.665959 1_556
O2 Sr4 2.610836 1_555
O2 Sr23 2.613485 1_455
O2 Sr1 2.700161 1_555
O2 Sr13 2.714885 1_555
O3 Sr5 2.581110 1_555
O4 Sr17 2.580421 1_555
O4 Sr9 2.610294 1_545
O4 Sr14 2.622767 1_555
O4 Sr2 2.657515 1_555
O5 Sr18 2.577865 1_555
O5 Sr10 2.661753 1_545
O6 Sr7 2.612973 1_555
O6 Sr19 2.638904 1_555
O6 Sr3 2.712533 1_555
O6 Sr16 2.720095 1_555
O7 Sr8 2.573832 1_555
O7 Sr20 2.613255 1_555
O7 Sr15 2.752551 1_556
O8 Sr11 2.586519 1_555
O8 Sr5 2.708090 1_554
O8 Sr22 2.746727 1_454
O9 Sr12 2.606703 1_555
O9 Sr1 2.606985 1_555
O9 Sr4 2.631526 1_555
O9 Sr21 2.721086 1_455
O11 Sr0 2.593450 1_565
O11 Sr13 2.594645 1_555
O11 Sr23 2.642979 1_455
O11 Sr6 2.645246 1_555
O12 Sr18 2.760132 1_554
O12 Sr8 2.791063 1_554
O13 Sr14 2.575805 1_555
O13 Sr3 2.593539 1_555
O13 Sr7 2.659018 1_555
O13 Sr17 2.666454 1_555
O14 Sr15 2.572410 1_555
O14 Sr10 2.662228 1_554
O14 Sr20 2.723930 1_554
O15 Sr16 2.597370 1_555
O15 Sr2 2.606821 1_565
O15 Sr19 2.657709 1_555
O15 Sr9 2.662582 1_555
O16 Sr6 2.553534 1_545
O16 Sr17 2.631164 1_555
O16 Sr0 2.641984 1_555
O16 Sr14 2.663441 1_555
O17 Sr18 2.600908 1_555
O18 Sr4 2.568249 1_555
O18 Sr19 2.612404 1_555
O18 Sr1 2.679856 1_555
O18 Sr16 2.688941 1_555
O19 Sr5 2.597054 1_555
O19 Sr20 2.624993 1_555
O19 Sr15 2.683211 1_556
O20 Sr9 2.609018 1_545
O20 Sr21 2.617850 1_555
O20 Sr2 2.636985 1_555
O20 Sr12 2.651939 1_655
O21 Sr10 2.545501 1_545
O21 Sr22 2.616872 1_555
O21 Sr11 2.629147 1_656
O22 Sr7 2.601543 1_555
O22 Sr23 2.605759 1_555
O22 Sr13 2.707683 1_655
O22 Sr3 2.740382 1_555
O23 Sr8 2.611957 1_555
O24 Sr5 2.758979 1_554
O24 Sr18 2.776134 1_554
O25 Sr4 2.606918 1_555
O25 Sr14 2.625877 1_555
O25 Sr1 2.632364 1_555
O25 Sr17 2.699040 1_555
O26 Sr15 2.572961 1_555
O26 Sr20 2.680979 1_554
O27 Sr16 2.596152 1_555
O27 Sr0 2.605650 1_565
O27 Sr6 2.639204 1_555
O27 Sr19 2.655683 1_555
O28 Sr11 2.580537 1_655
O28 Sr8 2.705620 1_554
O28 Sr22 2.829015 1_554
O29 Sr3 2.623124 1_555
O29 Sr12 2.624482 1_655
O29 Sr7 2.634948 1_555
O29 Sr21 2.683774 1_555
O30 Sr10 2.741363 1_554
O31 Sr13 2.629310 1_655
O31 Sr23 2.652477 1_555
O31 Sr2 2.670862 1_565
O31 Sr9 2.686673 1_555
O32 Sr11 2.475005 1_555
O33 Sr12 2.628492 1_555
O33 Sr0 2.723801 1_555
O33 Sr2 2.852861 1_455
O33 Sr13 2.886393 1_545
O35 Sr13 2.589283 1_555
O35 Sr1 2.738676 1_555
O35 Sr3 2.770811 1_455
O35 Sr12 2.993810 1_555
O36 Sr15 2.992262 1_545
O37 Sr14 2.563665 1_555
O37 Sr2 2.662189 1_555
O37 Sr0 2.790551 1_555
O37 Sr16 2.962074 1_545
O38 Sr15 2.491563 1_555
O39 Sr16 2.563766 1_555
O39 Sr3 2.709552 1_555
O39 Sr1 2.808931 1_555
O39 Sr14 3.016346 1_555
O40 Sr17 2.623887 1_555
O40 Sr7 2.696066 1_555
O40 Sr4 2.815320 1_555
O40 Sr19 2.939740 1_555
O41 Sr18 2.553590 1_555
O41 Sr8 2.701869 1_555
O41 Sr5 2.819799 1_555
O41 Sr20 3.033614 1_555
O42 Sr19 2.618670 1_555
O42 Sr9 2.689090 1_555
O42 Sr6 2.775721 1_555
O42 Sr17 2.914082 1_565
O43 Sr20 2.538253 1_555
O43 Sr10 2.671270 1_555
O43 Sr18 2.954623 1_565
O44 Sr21 2.602971 1_555
O44 Sr4 2.743638 1_655
O44 Sr7 2.829612 1_555
O44 Sr23 3.047388 1_555
O45 Sr22 2.532559 1_555
O45 Sr5 2.700687 1_655
O45 Sr8 2.800590 1_555
O46 Sr23 2.589223 1_555
O46 Sr6 2.702132 1_655
O46 Sr9 2.858091 1_555
O46 Sr21 2.893455 1_565
O47 Sr10 2.909106 1_555
O47 Sr22 3.058722 1_565
O48 Sr11 2.922257 1_555
O49 Sr0 2.565556 1_555
O49 Sr14 2.710668 1_555
O49 Sr12 2.825547 1_555
O49 Sr1 3.000042 1_555
O50 Sr15 2.696736 1_555
O51 Sr1 2.569707 1_555
O51 Sr16 2.726383 1_555
O51 Sr13 2.757649 1_555
O51 Sr0 2.962917 1_565
O52 Sr11 2.648567 1_655
O53 Sr2 2.606802 1_555
O53 Sr12 2.645947 1_655
O53 Sr14 2.860489 1_555
O53 Sr3 2.863524 1_555
O54 Sr15 2.967944 1_555
O55 Sr3 2.595582 1_555
O55 Sr13 2.689722 1_655
O55 Sr16 2.857939 1_555
O55 Sr2 3.047421 1_565
O56 Sr4 2.594057 1_555
O56 Sr17 2.728179 1_555
O56 Sr21 2.873650 1_455
O56 Sr6 3.013457 1_545
O57 Sr5 2.526801 1_555
O57 Sr18 2.681018 1_555
O57 Sr22 2.838195 1_455
O58 Sr6 2.532687 1_555
O58 Sr19 2.735865 1_555
O58 Sr23 2.795769 1_455
O58 Sr4 3.093064 1_555
O59 Sr20 2.668704 1_555
O59 Sr5 3.069127 1_555
O60 Sr7 2.578383 1_555
O60 Sr17 2.729077 1_555
O60 Sr21 2.737783 1_555
O60 Sr9 2.937369 1_545
O61 Sr8 2.542145 1_555
O61 Sr22 2.695074 1_555
O61 Sr18 2.817736 1_555
O61 Sr10 3.015748 1_545
O62 Sr9 2.616974 1_555
O62 Sr23 2.734983 1_555
O62 Sr19 2.866356 1_555
O62 Sr7 3.033402 1_555
O63 Sr10 2.545581 1_555
O63 Sr20 2.969340 1_555
O63 Sr8 2.999866 1_555
O64 Sr17 2.490267 1_555
O65 Sr18 2.464712 1_555
O65 Sr0 2.478927 1_555
O66 Sr19 2.527836 1_555
O67 Sr20 2.464457 1_555
O67 Sr1 2.478277 1_555
O68 Sr21 2.528614 1_555
O69 Sr22 2.438589 1_555
O69 Sr2 2.463350 1_555
O70 Sr23 2.530555 1_555
O71 Sr3 2.481473 1_555
O72 Sr11 2.410560 1_555
O72 Sr4 2.444758 1_555
O73 Sr5 2.465298 1_555
O73 Sr12 2.504653 1_555
O74 Sr6 2.460559 1_555
O75 Sr13 2.463657 1_555
O76 Sr7 2.489914 1_555
O77 Sr8 2.456259 1_555
O77 Sr14 2.456944 1_555
O78 Sr15 2.463565 1_555
O78 Sr9 2.492505 1_555
O79 Sr10 2.461656 1_555
O79 Sr16 2.499002 1_555
