# generated using pymatgen
data_Ca3InN3
_symmetry_space_group_name_H-M   'P 1'
_cell_length_a   7.47654605
_cell_length_b   7.48022173
_cell_length_c   5.08845000
_cell_angle_alpha   90.00000000
_cell_angle_beta   90.00000000
_cell_angle_gamma   119.99699227
_symmetry_Int_Tables_number   1
_chemical_formula_structural   Ca3InN3
_chemical_formula_sum   'Ca6 In2 N6'
_cell_volume   246.45906063
_cell_formula_units_Z   2
loop_
 _symmetry_equiv_pos_site_id
 _symmetry_equiv_pos_as_xyz
  1  'x, y, z'
loop_
 _atom_site_type_symbol
 _atom_site_label
 _atom_site_symmetry_multiplicity
 _atom_site_fract_x
 _atom_site_fract_y
 _atom_site_fract_z
 _atom_site_occupancy
  Ca  Ca0  1  0.93375700  0.66062600  0.25000000  1
  Ca  Ca1  1  0.72694500  0.06624400  0.25000000  1
  Ca  Ca2  1  0.33932000  0.27313800  0.25000000  1
  Ca  Ca3  1  0.06624300  0.33937400  0.75000000  1
  Ca  Ca4  1  0.27305500  0.93375600  0.75000000  1
  Ca  Ca5  1  0.66068000  0.72686200  0.75000000  1
  In  In0  1  0.66663900  0.33339700  0.75000000  1
  In  In1  1  0.33336100  0.66660300  0.25000000  1
  N  N0  1  0.93326100  0.63308600  0.75000000  1
  N  N1  1  0.69977400  0.06666100  0.75000000  1
  N  N2  1  0.36683500  0.30013300  0.75000000  1
  N  N3  1  0.06673900  0.36691400  0.25000000  1
  N  N4  1  0.30022600  0.93333900  0.25000000  1
  N  N5  1  0.63316500  0.69986700  0.25000000  1
loop_
_geom_bond_atom_site_label_1
_geom_bond_atom_site_label_2
_geom_bond_distance
_geom_bond_site_symmetry_2
Ca0 N5 2.407601 1_555
Ca0 N4 2.465721 1_655
Ca0 N0 2.552405 1_555
Ca0 N0 2.552405 1_554
Ca0 N3 2.828367 1_655
Ca1 N3 2.408150 1_655
Ca1 N5 2.465971 1_545
Ca1 N1 2.552448 1_554
Ca1 N1 2.552448 1_555
Ca1 N4 2.827621 1_545
Ca2 N4 2.408978 1_545
Ca2 N3 2.464708 1_555
Ca2 N2 2.552379 1_555
Ca2 N2 2.552379 1_554
Ca2 N5 2.829052 1_555
Ca3 N2 2.407601 1_555
Ca3 N1 2.465721 1_455
Ca3 N3 2.552405 1_555
Ca3 N3 2.552405 1_556
Ca3 N0 2.828367 1_455
Ca4 N0 2.408150 1_455
Ca4 N2 2.465971 1_565
Ca4 N4 2.552448 1_555
Ca4 N4 2.552448 1_556
Ca4 N1 2.827621 1_565
Ca5 N1 2.408978 1_565
Ca5 N0 2.464708 1_555
Ca5 N5 2.552379 1_556
Ca5 N5 2.552379 1_555
Ca5 N2 2.829052 1_555
In0 N2 2.128038 1_555
In0 N0 2.128564 1_555
In0 N1 2.129934 1_555
In1 N5 2.128038 1_555
In1 N3 2.128564 1_555
In1 N4 2.129934 1_555
