# generated using pymatgen
data_Mg(SnO2)2
_symmetry_space_group_name_H-M   'P 1'
_cell_length_a   6.15129400
_cell_length_b   6.98835700
_cell_length_c   11.19908500
_cell_angle_alpha   90.00000000
_cell_angle_beta   90.00000000
_cell_angle_gamma   90.00000000
_symmetry_Int_Tables_number   1
_chemical_formula_structural   Mg(SnO2)2
_chemical_formula_sum   'Mg4 Sn8 O16'
_cell_volume   481.41997751
_cell_formula_units_Z   4
loop_
 _symmetry_equiv_pos_site_id
 _symmetry_equiv_pos_as_xyz
  1  'x, y, z'
loop_
 _atom_site_type_symbol
 _atom_site_label
 _atom_site_symmetry_multiplicity
 _atom_site_fract_x
 _atom_site_fract_y
 _atom_site_fract_z
 _atom_site_occupancy
  Mg  Mg0  1  0.50000000  0.42768900  0.00000000  1
  Mg  Mg1  1  0.00000000  0.57231100  0.50000000  1
  Mg  Mg2  1  0.50000000  0.74277300  0.50000000  1
  Mg  Mg3  1  0.00000000  0.25722700  0.00000000  1
  Sn  Sn0  1  0.00000000  0.90248600  0.29769600  1
  Sn  Sn1  1  0.00000000  0.90248600  0.70230400  1
  Sn  Sn2  1  0.50000000  0.09751400  0.20230400  1
  Sn  Sn3  1  0.50000000  0.09751400  0.79769600  1
  Sn  Sn4  1  0.25000000  0.50000000  0.25000000  1
  Sn  Sn5  1  0.75000000  0.50000000  0.75000000  1
  Sn  Sn6  1  0.75000000  0.50000000  0.25000000  1
  Sn  Sn7  1  0.25000000  0.50000000  0.75000000  1
  O  O0  1  0.00000000  0.38858400  0.35335700  1
  O  O1  1  0.00000000  0.38858400  0.64664300  1
  O  O2  1  0.50000000  0.61141600  0.14664300  1
  O  O3  1  0.50000000  0.61141600  0.85335700  1
  O  O4  1  0.00000000  0.66543300  0.17063800  1
  O  O5  1  0.00000000  0.66543300  0.82936200  1
  O  O6  1  0.50000000  0.33456700  0.32936200  1
  O  O7  1  0.50000000  0.33456700  0.67063800  1
  O  O8  1  0.25386600  0.27833000  0.11857100  1
  O  O9  1  0.74613400  0.27833000  0.88142900  1
  O  O10  1  0.75386600  0.72167000  0.38142900  1
  O  O11  1  0.24613400  0.72167000  0.61857100  1
  O  O12  1  0.24613400  0.72167000  0.38142900  1
  O  O13  1  0.75386600  0.72167000  0.61857100  1
  O  O14  1  0.74613400  0.27833000  0.11857100  1
  O  O15  1  0.25386600  0.27833000  0.88142900  1
loop_
_geom_bond_atom_site_label_1
_geom_bond_atom_site_label_2
_geom_bond_distance
_geom_bond_site_symmetry_2
Mg0 O2 2.084603 1_555
Mg0 O3 2.084603 1_554
Mg0 O14 2.268275 1_555
Mg0 O15 2.268275 1_554
Mg0 O8 2.268275 1_555
Mg0 O9 2.268275 1_554
Mg1 O1 2.084603 1_555
Mg1 O0 2.084603 1_555
Mg1 O13 2.268275 1_455
Mg1 O10 2.268275 1_455
Mg1 O12 2.268275 1_555
Mg1 O11 2.268275 1_555
Mg2 O12 2.055150 1_555
Mg2 O11 2.055150 1_555
Mg2 O10 2.055150 1_555
Mg2 O13 2.055150 1_555
Mg3 O15 2.055150 1_554
Mg3 O14 2.055150 1_455
Mg3 O8 2.055150 1_555
Mg3 O9 2.055150 1_454
O0 Sn6 2.076284 1_455
O0 Sn4 2.076284 1_555
O1 Sn7 2.076284 1_555
O1 Sn5 2.076284 1_455
O2 Sn4 2.076284 1_555
O2 Sn6 2.076284 1_555
O3 Sn5 2.076284 1_555
O3 Sn7 2.076284 1_555
O4 Sn6 2.119295 1_455
O4 Sn4 2.119295 1_555
O4 Sn0 2.183827 1_555
O5 Sn7 2.119295 1_555
O5 Sn5 2.119295 1_455
O5 Sn1 2.183827 1_555
O6 Sn4 2.119295 1_555
O6 Sn6 2.119295 1_555
O6 Sn2 2.183827 1_555
O7 Sn5 2.119295 1_555
O7 Sn7 2.119295 1_555
O7 Sn3 2.183827 1_555
O8 Sn4 2.136995 1_555
O8 Sn2 2.183660 1_555
O9 Sn5 2.136995 1_555
O9 Sn3 2.183660 1_555
O10 Sn6 2.136995 1_555
O10 Sn0 2.183660 1_655
O11 Sn7 2.136995 1_555
O11 Sn1 2.183660 1_555
O12 Sn4 2.136995 1_555
O12 Sn0 2.183660 1_555
O13 Sn5 2.136995 1_555
O13 Sn1 2.183660 1_655
O14 Sn6 2.136995 1_555
O14 Sn2 2.183660 1_555
O15 Sn7 2.136995 1_555
O15 Sn3 2.183660 1_555
