# generated using pymatgen
data_Li7Mn2(CoO4)3
_symmetry_space_group_name_H-M   'P 1'
_cell_length_a   5.13377800
_cell_length_b   5.87603241
_cell_length_c   7.67560947
_cell_angle_alpha   77.64559826
_cell_angle_beta   75.97761171
_cell_angle_gamma   71.56863416
_symmetry_Int_Tables_number   1
_chemical_formula_structural   Li7Mn2(CoO4)3
_chemical_formula_sum   'Li7 Mn2 Co3 O12'
_cell_volume   210.73478045
_cell_formula_units_Z   1
loop_
 _symmetry_equiv_pos_site_id
 _symmetry_equiv_pos_as_xyz
  1  'x, y, z'
loop_
 _atom_site_type_symbol
 _atom_site_label
 _atom_site_symmetry_multiplicity
 _atom_site_fract_x
 _atom_site_fract_y
 _atom_site_fract_z
 _atom_site_occupancy
  Li  Li0  1  0.50104900  0.33398600  0.65656400  1
  Li  Li1  1  0.49643500  0.17112700  0.34265400  1
  Li  Li2  1  0.50000000  0.00000000  0.00000000  1
  Li  Li3  1  0.50356500  0.82887300  0.65734600  1
  Li  Li4  1  0.49895100  0.66601400  0.34343600  1
  Li  Li5  1  0.50000000  0.50000000  0.00000000  1
  Li  Li6  1  0.00000000  0.50000000  0.50000000  1
  Mn  Mn0  1  0.99690000  0.66199500  0.82911100  1
  Mn  Mn1  1  0.00310000  0.33800500  0.17088900  1
  Co  Co0  1  0.00013000  0.16703100  0.82994900  1
  Co  Co1  1  0.00000000  0.00000000  0.50000000  1
  Co  Co2  1  0.99987000  0.83296900  0.17005100  1
  O  O0  1  0.21609400  0.15457800  0.59618500  1
  O  O1  1  0.24717300  0.02672000  0.24740000  1
  O  O2  1  0.19923000  0.83601100  0.91975100  1
  O  O3  1  0.23934600  0.66864300  0.59987400  1
  O  O4  1  0.21452900  0.50901200  0.23883000  1
  O  O5  1  0.23461600  0.35217600  0.92494800  1
  O  O6  1  0.78547100  0.49098800  0.76117000  1
  O  O7  1  0.76065400  0.33135700  0.40012600  1
  O  O8  1  0.80077000  0.16398900  0.08024900  1
  O  O9  1  0.75282700  0.97328000  0.75260000  1
  O  O10  1  0.78390600  0.84542200  0.40381500  1
  O  O11  1  0.76538400  0.64782400  0.07505200  1
loop_
_geom_bond_atom_site_label_1
_geom_bond_atom_site_label_2
_geom_bond_distance
_geom_bond_site_symmetry_2
Li0 O3 2.026789 1_555
Li0 O7 2.092724 1_555
Li0 O5 2.182265 1_555
Li0 O9 2.183408 1_545
Li0 O0 2.231367 1_555
Li0 O6 2.316192 1_555
Li1 O7 2.048475 1_555
Li1 O10 2.055842 1_545
Li1 O1 2.073061 1_555
Li1 O0 2.125560 1_555
Li1 O4 2.176324 1_555
Li1 O8 2.229179 1_555
Li2 O9 2.029689 1_544
Li2 O1 2.029689 1_555
Li2 O11 2.134916 1_545
Li2 O5 2.134916 1_554
Li2 O8 2.312548 1_555
Li2 O2 2.312548 1_544
Li3 O3 2.048475 1_555
Li3 O0 2.055842 1_565
Li3 O9 2.073061 1_555
Li3 O10 2.125560 1_555
Li3 O6 2.176324 1_555
Li3 O2 2.229179 1_555
Li4 O7 2.026789 1_555
Li4 O3 2.092724 1_555
Li4 O11 2.182265 1_555
Li4 O1 2.183408 1_565
Li4 O10 2.231367 1_555
Li4 O4 2.316192 1_555
Li5 O4 2.049796 1_555
Li5 O6 2.049796 1_554
Li5 O11 2.070105 1_555
Li5 O5 2.070105 1_554
Li5 O2 2.162087 1_554
Li5 O8 2.162087 1_555
Li6 O4 2.038600 1_555
Li6 O6 2.038600 1_455
Li6 O10 2.056048 1_455
Li6 O0 2.056048 1_555
Li6 O7 2.151969 1_455
Li6 O3 2.151969 1_555
Mn0 O3 1.893862 1_655
Mn0 O6 1.909983 1_555
Mn0 O9 1.925692 1_555
Mn0 O5 1.949822 1_655
Mn0 O11 1.972613 1_556
Mn0 O2 1.983617 1_655
Mn1 O7 1.893862 1_455
Mn1 O4 1.909983 1_555
Mn1 O1 1.925692 1_555
Mn1 O11 1.949822 1_455
Mn1 O5 1.972613 1_554
Mn1 O8 1.983617 1_455
Co0 O0 1.869461 1_555
Co0 O6 1.908443 1_455
Co0 O8 1.944953 1_456
Co0 O2 1.952885 1_545
Co0 O5 2.181137 1_555
Co0 O9 2.197503 1_445
Co1 O0 1.980361 1_555
Co1 O10 1.980361 1_445
Co1 O7 2.047798 1_455
Co1 O3 2.047798 1_545
Co1 O9 2.048774 1_445
Co1 O1 2.048774 1_555
Co2 O10 1.869461 1_555
Co2 O4 1.908443 1_655
Co2 O2 1.944953 1_654
Co2 O8 1.952885 1_565
Co2 O11 2.181137 1_555
Co2 O1 2.197503 1_665
