# generated using pymatgen
data_Rb
_symmetry_space_group_name_H-M   'P 1'
_cell_length_a   15.32826655
_cell_length_b   15.32826655
_cell_length_c   15.32826655
_cell_angle_alpha   109.47122063
_cell_angle_beta   109.47122063
_cell_angle_gamma   109.47122063
_symmetry_Int_Tables_number   1
_chemical_formula_structural   Rb
_chemical_formula_sum   Rb29
_cell_volume   2772.40862475
_cell_formula_units_Z   29
loop_
 _symmetry_equiv_pos_site_id
 _symmetry_equiv_pos_as_xyz
  1  'x, y, z'
loop_
 _atom_site_type_symbol
 _atom_site_label
 _atom_site_symmetry_multiplicity
 _atom_site_fract_x
 _atom_site_fract_y
 _atom_site_fract_z
 _atom_site_occupancy
  Rb  Rb0  1  0.00000000  -0.00000000  -0.00000000  1
  Rb  Rb1  1  0.36437353  0.00000000  -0.00000000  1
  Rb  Rb2  1  0.59703178  0.31790116  -0.00000000  1
  Rb  Rb3  1  0.00000000  0.36437353  -0.00000000  1
  Rb  Rb4  1  0.31790116  0.59703178  -0.00000000  1
  Rb  Rb5  1  0.80990981  0.62644450  -0.00000000  1
  Rb  Rb6  1  0.62644450  0.80990981  -0.00000000  1
  Rb  Rb7  1  0.37355550  0.37355550  0.18346731  1
  Rb  Rb8  1  0.81653369  0.19009119  0.19009119  1
  Rb  Rb9  1  0.19009119  0.81653369  0.19009119  1
  Rb  Rb10  1  0.68209884  0.68209884  0.27913062  1
  Rb  Rb11  1  0.59703178  -0.00000000  0.31790116  1
  Rb  Rb12  1  -0.00000000  0.59703178  0.31790116  1
  Rb  Rb13  1  -0.00000000  -0.00000000  0.36437353  1
  Rb  Rb14  1  0.37355550  0.18346731  0.37355550  1
  Rb  Rb15  1  0.18346731  0.37355550  0.37355550  1
  Rb  Rb16  1  0.72086938  0.40296822  0.40296822  1
  Rb  Rb17  1  0.40296822  0.72086938  0.40296822  1
  Rb  Rb18  1  0.31790116  -0.00000000  0.59703178  1
  Rb  Rb19  1  -0.00000000  0.31790116  0.59703178  1
  Rb  Rb20  1  0.80990981  -0.00000000  0.62644450  1
  Rb  Rb21  1  0.00000000  0.80990981  0.62644450  1
  Rb  Rb22  1  0.63562647  0.63562647  0.63562647  1
  Rb  Rb23  1  0.68209884  0.27913062  0.68209884  1
  Rb  Rb24  1  0.27913062  0.68209884  0.68209884  1
  Rb  Rb25  1  0.40296822  0.40296822  0.72086938  1
  Rb  Rb26  1  0.62644450  0.00000000  0.80990981  1
  Rb  Rb27  1  0.00000000  0.62644450  0.80990981  1
  Rb  Rb28  1  0.19009119  0.19009119  0.81653369  1
loop_
_geom_bond_atom_site_label_1
_geom_bond_atom_site_label_2
_geom_bond_distance
_geom_bond_site_symmetry_2
Rb1 Rb2 4.987762 1_555
Rb1 Rb11 4.987762 1_555
Rb1 Rb24 4.987762 1_544
Rb2 Rb5 4.767263 1_555
Rb2 Rb8 5.031182 1_555
Rb2 Rb26 5.031196 1_554
Rb3 Rb4 4.987762 1_555
Rb4 Rb6 4.767263 1_555
Rb4 Rb9 5.031182 1_555
Rb5 Rb6 4.592312 1_555
Rb5 Rb9 4.758151 1_655
Rb6 Rb8 4.758151 1_565
Rb10 Rb7 4.767274 1_555
Rb10 Rb13 4.987762 1_665
Rb10 Rb20 5.031196 1_565
Rb10 Rb21 5.031196 1_655
Rb11 Rb20 4.767263 1_555
Rb11 Rb8 5.031182 1_555
Rb11 Rb6 5.031196 1_545
Rb12 Rb21 4.767263 1_555
Rb12 Rb3 4.987762 1_555
Rb12 Rb9 5.031182 1_555
Rb12 Rb5 5.031196 1_455
Rb13 Rb19 4.987762 1_555
Rb13 Rb18 4.987762 1_555
Rb14 Rb9 4.592349 1_545
Rb14 Rb15 4.758089 1_555
Rb14 Rb7 4.758089 1_555
Rb14 Rb23 4.767274 1_555
Rb14 Rb25 5.031187 1_555
Rb14 Rb16 5.031187 1_555
Rb15 Rb8 4.592349 1_455
Rb15 Rb7 4.758089 1_555
Rb15 Rb24 4.767274 1_555
Rb15 Rb17 5.031187 1_555
Rb15 Rb25 5.031187 1_555
Rb16 Rb8 4.767234 1_555
Rb16 Rb22 4.987762 1_555
Rb16 Rb7 5.031187 1_555
Rb17 Rb9 4.767234 1_555
Rb17 Rb22 4.987762 1_555
Rb17 Rb7 5.031187 1_555
Rb18 Rb26 4.767263 1_555
Rb18 Rb28 5.031182 1_555
Rb18 Rb21 5.031196 1_545
Rb19 Rb27 4.767263 1_555
Rb19 Rb28 5.031182 1_555
Rb19 Rb20 5.031196 1_455
Rb20 Rb26 4.592312 1_555
Rb20 Rb21 4.758139 1_645
Rb20 Rb28 4.758151 1_655
Rb21 Rb27 4.592312 1_555
Rb21 Rb28 4.758151 1_565
Rb22 Rb25 4.987762 1_555
Rb23 Rb3 4.987762 1_656
Rb23 Rb27 5.031196 1_655
Rb23 Rb5 5.031196 1_556
Rb24 Rb6 5.031196 1_556
Rb24 Rb26 5.031196 1_565
Rb25 Rb28 4.767234 1_555
Rb26 Rb6 4.758139 1_546
Rb26 Rb8 4.758151 1_556
Rb27 Rb5 4.758139 1_456
Rb27 Rb9 4.758151 1_556
Rb27 Rb4 5.031196 1_556
Rb28 Rb7 4.592349 1_556
