# generated using pymatgen
data_HfMg14Ti
_symmetry_space_group_name_H-M   'P 1'
_cell_length_a   6.38302621
_cell_length_b   6.25694933
_cell_length_c   10.19581563
_cell_angle_alpha   90.00000000
_cell_angle_beta   90.00000000
_cell_angle_gamma   119.34874067
_symmetry_Int_Tables_number   1
_chemical_formula_structural   HfMg14Ti
_chemical_formula_sum   'Hf1 Mg14 Ti1'
_cell_volume   354.93979359
_cell_formula_units_Z   1
loop_
 _symmetry_equiv_pos_site_id
 _symmetry_equiv_pos_as_xyz
  1  'x, y, z'
loop_
 _atom_site_type_symbol
 _atom_site_label
 _atom_site_symmetry_multiplicity
 _atom_site_fract_x
 _atom_site_fract_y
 _atom_site_fract_z
 _atom_site_occupancy
  Hf  Hf0  1  0.16568493  0.83284196  0.12500000  1
  Mg  Mg0  1  0.16569430  0.33284665  0.62500000  1
  Mg  Mg1  1  0.16609510  0.83304705  0.62500000  1
  Mg  Mg2  1  0.66337626  0.33347711  0.12500000  1
  Mg  Mg3  1  0.66609318  0.33271373  0.62500000  1
  Mg  Mg4  1  0.66337626  0.82989815  0.12500000  1
  Mg  Mg5  1  0.66609318  0.83337845  0.62500000  1
  Mg  Mg6  1  0.33068901  0.16638591  0.37161836  1
  Mg  Mg7  1  0.33068901  0.16638591  0.87838164  1
  Mg  Mg8  1  0.33068901  0.66430411  0.37161836  1
  Mg  Mg9  1  0.33068901  0.66430411  0.87838164  1
  Mg  Mg10  1  0.83922331  0.16961215  0.37026929  1
  Mg  Mg11  1  0.83922331  0.16961215  0.87973071  1
  Mg  Mg12  1  0.83809978  0.66905039  0.37334446  1
  Mg  Mg13  1  0.83809978  0.66905039  0.87665554  1
  Ti  Ti0  1  0.16618456  0.33309178  0.12500000  1
loop_
_geom_bond_atom_site_label_1
_geom_bond_atom_site_label_2
_geom_bond_distance
_geom_bond_site_symmetry_2
Hf0 Mg8 3.103648 1_555
Hf0 Mg9 3.103648 1_554
Hf0 Mg6 3.103655 1_565
Hf0 Mg7 3.103655 1_564
Hf0 Mg12 3.119826 1_455
Hf0 Mg13 3.119826 1_454
Hf0 Ti0 3.128476 1_555
Hf0 Ti0 3.128476 1_565
Hf0 Mg2 3.185845 1_565
Hf0 Mg4 3.185845 1_555
Hf0 Mg2 3.197262 1_455
Hf0 Mg4 3.197262 1_455
Mg0 Mg1 3.128475 1_555
Mg0 Mg1 3.128475 1_545
Mg0 Mg7 3.153304 1_555
Mg0 Mg6 3.153304 1_555
Mg0 Mg9 3.153310 1_555
Mg0 Mg8 3.153310 1_555
Mg0 Mg10 3.169344 1_455
Mg0 Mg11 3.169344 1_455
Mg0 Mg5 3.188559 1_445
Mg0 Mg3 3.188560 1_455
Mg0 Mg5 3.194467 1_555
Mg0 Mg3 3.194467 1_555
Mg1 Mg12 3.148609 1_455
Mg1 Mg13 3.148609 1_455
Mg1 Mg9 3.159111 1_555
Mg1 Mg8 3.159111 1_555
Mg1 Mg7 3.159118 1_565
Mg1 Mg6 3.159118 1_565
Mg1 Mg3 3.190485 1_565
Mg1 Mg5 3.190485 1_555
Mg1 Mg3 3.192542 1_455
Mg1 Mg5 3.192542 1_455
Mg2 Mg4 3.106081 1_555
Mg2 Mg6 3.122308 1_555
Mg2 Mg7 3.122308 1_554
Mg2 Mg4 3.150868 1_545
Mg2 Ti0 3.172407 1_555
Mg2 Ti0 3.210621 1_655
Mg3 Mg5 3.124316 1_545
Mg3 Mg5 3.132634 1_555
Mg3 Mg7 3.186940 1_555
Mg3 Mg6 3.186940 1_555
Mg4 Mg8 3.122308 1_555
Mg4 Mg9 3.122308 1_554
Mg4 Ti0 3.172406 1_555
Mg4 Ti0 3.210621 1_665
Mg5 Mg9 3.186940 1_555
Mg5 Mg8 3.186940 1_555
Mg6 Ti0 3.096254 1_555
Mg6 Mg8 3.115449 1_555
Mg6 Mg8 3.141500 1_545
Mg7 Ti0 3.096254 1_556
Mg7 Mg9 3.115449 1_555
Mg7 Mg9 3.141500 1_545
Mg8 Ti0 3.096260 1_555
Mg9 Ti0 3.096260 1_556
Mg10 Ti0 3.092390 1_655
Mg10 Mg2 3.113325 1_555
Mg10 Mg4 3.113331 1_545
Mg10 Mg12 3.128638 1_545
Mg10 Mg12 3.128638 1_555
Mg10 Mg8 3.147011 1_655
Mg10 Mg6 3.147012 1_655
Mg10 Mg3 3.180183 1_555
Mg10 Mg5 3.180189 1_545
Mg10 Mg8 3.236171 1_545
Mg10 Mg6 3.236171 1_555
Mg11 Ti0 3.092390 1_656
Mg11 Mg2 3.113325 1_556
Mg11 Mg4 3.113331 1_546
Mg11 Mg13 3.128638 1_545
Mg11 Mg13 3.128638 1_555
Mg11 Mg9 3.147011 1_655
Mg11 Mg7 3.147012 1_655
Mg11 Mg3 3.180183 1_555
Mg11 Mg5 3.180189 1_545
Mg11 Mg9 3.236171 1_545
Mg11 Mg7 3.236171 1_555
Mg12 Mg4 3.125434 1_555
Mg12 Mg2 3.125441 1_555
Mg12 Mg5 3.154789 1_555
Mg12 Mg3 3.154795 1_555
Mg12 Mg6 3.158920 1_665
Mg12 Mg8 3.158920 1_655
Mg12 Mg6 3.224413 1_555
Mg12 Mg8 3.224413 1_555
Mg13 Mg4 3.125434 1_556
Mg13 Mg2 3.125441 1_556
Mg13 Mg5 3.154789 1_555
Mg13 Mg3 3.154795 1_555
Mg13 Mg7 3.158920 1_665
Mg13 Mg9 3.158920 1_655
Mg13 Mg7 3.224413 1_555
Mg13 Mg9 3.224413 1_555
