# generated using pymatgen
data_Al2O3
_symmetry_space_group_name_H-M   'P 1'
_cell_length_a   10.62159779
_cell_length_b   10.12797471
_cell_length_c   10.04019790
_cell_angle_alpha   93.21692085
_cell_angle_beta   91.62060846
_cell_angle_gamma   92.34580660
_symmetry_Int_Tables_number   1
_chemical_formula_structural   Al2O3
_chemical_formula_sum   'Al40 O60'
_cell_volume   1076.96511724
_cell_formula_units_Z   20
loop_
 _symmetry_equiv_pos_site_id
 _symmetry_equiv_pos_as_xyz
  1  'x, y, z'
loop_
 _atom_site_type_symbol
 _atom_site_label
 _atom_site_symmetry_multiplicity
 _atom_site_fract_x
 _atom_site_fract_y
 _atom_site_fract_z
 _atom_site_occupancy
  Al  Al0  1  0.79797500  0.36894700  0.62920900  1
  Al  Al1  1  0.63543100  0.56083700  0.64948700  1
  Al  Al2  1  0.00163100  0.75609500  0.72222000  1
  Al  Al3  1  0.72219600  0.45393200  0.94244100  1
  Al  Al4  1  0.80111100  0.66234300  0.45727400  1
  Al  Al5  1  0.10852100  0.44875600  0.75137100  1
  Al  Al6  1  0.32995700  0.33527800  0.35647400  1
  Al  Al7  1  0.93076600  0.33438800  0.99230300  1
  Al  Al8  1  0.45891400  0.54902300  0.08063800  1
  Al  Al9  1  0.74117000  0.84720100  0.71327400  1
  Al  Al10  1  0.34689200  0.64968000  0.32300500  1
  Al  Al11  1  0.44528100  0.09637700  0.78366800  1
  Al  Al12  1  0.56658900  0.18276400  0.26010100  1
  Al  Al13  1  0.69721300  0.08837600  0.52302000  1
  Al  Al14  1  0.45811700  0.71692600  0.80086500  1
  Al  Al15  1  0.21193100  0.75050700  0.09795000  1
  Al  Al16  1  0.22794800  0.12801700  0.59897900  1
  Al  Al17  1  0.14233200  0.14529600  0.89758800  1
  Al  Al18  1  0.22786200  0.89192600  0.86003700  1
  Al  Al19  1  0.58365100  0.81801400  0.45224600  1
  Al  Al20  1  0.51016100  0.27333600  0.54865000  1
  Al  Al21  1  0.05620400  0.72021200  0.31619300  1
  Al  Al22  1  0.98175500  0.48017800  0.50319100  1
  Al  Al23  1  0.04440100  0.00975900  0.42745100  1
  Al  Al24  1  0.32466900  0.98739100  0.31637200  1
  Al  Al25  1  0.97569200  0.19087600  0.70352600  1
  Al  Al26  1  0.83030800  0.92886500  0.26871200  1
  Al  Al27  1  0.66728200  0.41063300  0.34256200  1
  Al  Al28  1  0.70668700  0.13985700  0.82152500  1
  Al  Al29  1  0.30600200  0.52930800  0.59361800  1
  Al  Al30  1  0.87998600  0.22335900  0.29756600  1
  Al  Al31  1  0.52335900  0.93683800  0.01305400  1
  Al  Al32  1  0.65239500  0.68088600  0.19024400  1
  Al  Al33  1  0.41919900  0.42252200  0.81207500  1
  Al  Al34  1  0.12601000  0.21980900  0.20959200  1
  Al  Al35  1  0.91743500  0.94249100  0.94956100  1
  Al  Al36  1  0.37346800  0.20621900  0.02835100  1
  Al  Al37  1  0.21539000  0.43113600  0.09249500  1
  Al  Al38  1  0.00806200  0.62886000  0.95379600  1
  Al  Al39  1  0.28141200  0.84365000  0.55853500  1
  O  O0  1  0.29353400  0.15848100  0.27437100  1
  O  O1  1  0.27288500  0.46568900  0.75737300  1
  O  O2  1  0.86780400  0.78728900  0.61305600  1
  O  O3  1  0.62352500  0.72110200  0.75989800  1
  O  O4  1  0.96166400  0.36342800  0.69161300  1
  O  O5  1  0.79929200  0.18085300  0.65640200  1
  O  O6  1  0.89860200  0.33658500  0.43817600  1
  O  O7  1  0.04292000  0.08031000  0.58746300  1
  O  O8  1  0.49968300  0.33730700  0.31862500  1
  O  O9  1  0.19001400  0.38160900  0.26160200  1
  O  O10  1  0.43967200  0.26415300  0.86915300  1
  O  O11  1  0.21285400  0.98656700  0.45120200  1
  O  O12  1  0.55717500  0.11864500  0.42161100  1
  O  O13  1  0.03000500  0.59738600  0.77158900  1
  O  O14  1  0.15307400  0.83886600  0.68623700  1
  O  O15  1  0.65787600  0.36136900  0.51445200  1
  O  O16  1  0.42337100  0.85865100  0.41696500  1
  O  O17  1  0.19763400  0.23272800  0.04790300  1
  O  O18  1  0.69940500  0.45147900  0.76711200  1
  O  O19  1  0.13794700  0.48387600  0.56385300  1
  O  O20  1  0.48979700  0.09852500  0.11759300  1
  O  O21  1  0.08289200  0.98108500  0.91508400  1
  O  O22  1  0.29247900  0.88746200  0.17334800  1
  O  O23  1  0.80160100  0.98663600  0.82143100  1
  O  O24  1  0.56978700  0.17046600  0.67751700  1
  O  O25  1  0.71669300  0.80834800  0.32936100  1
  O  O26  1  0.62833800  0.66418800  0.50970500  1
  O  O27  1  0.82315700  0.53714100  0.57865200  1
  O  O28  1  0.21125300  0.72933300  0.39444900  1
  O  O29  1  0.30634400  0.06801800  0.90543300  1
  O  O30  1  0.61081400  0.81720000  0.08557900  1
  O  O31  1  0.62899600  0.53288600  0.06454500  1
  O  O32  1  0.71660800  0.26601400  0.24707400  1
  O  O33  1  0.92106500  0.77494000  0.88573100  1
  O  O34  1  0.96181500  0.62004000  0.40748300  1
  O  O35  1  0.96618500  0.28140900  0.15335600  1
  O  O36  1  0.97375400  0.86926500  0.34480300  1
  O  O37  1  0.35239200  0.51082100  0.42381100  1
  O  O38  1  0.09923800  0.45165700  0.96165900  1
  O  O39  1  0.73426700  0.56306000  0.30290400  1
  O  O40  1  0.40269300  0.85007000  0.89751100  1
  O  O41  1  0.87804700  0.50585000  0.98823500  1
  O  O42  1  0.44848400  0.57809200  0.90418100  1
  O  O43  1  0.86207100  0.96952100  0.10927600  1
  O  O44  1  0.34191800  0.01060700  0.65841600  1
  O  O45  1  0.28633000  0.60122100  0.14260000  1
  O  O46  1  0.49456000  0.64327900  0.24166000  1
  O  O47  1  0.80649800  0.06962100  0.38225400  1
  O  O48  1  0.38183300  0.38738700  0.07887000  1
  O  O49  1  0.97770400  0.19608900  0.88460500  1
  O  O50  1  0.17599100  0.74203400  0.93128400  1
  O  O51  1  0.36455500  0.70467800  0.64262800  1
  O  O52  1  0.75559100  0.27802200  0.93893400  1
  O  O53  1  0.65940400  0.92801800  0.57903400  1
  O  O54  1  0.16631500  0.22272600  0.74218600  1
  O  O55  1  0.05519400  0.69489300  0.14077000  1
  O  O56  1  0.57529600  0.03692100  0.87993700  1
  O  O57  1  0.48005700  0.45783600  0.64906300  1
  O  O58  1  0.33638900  0.25542800  0.52428400  1
  O  O59  1  0.03235100  0.13058100  0.31500800  1
loop_
_geom_bond_atom_site_label_1
_geom_bond_atom_site_label_2
_geom_bond_distance
_geom_bond_site_symmetry_2
Al0 O27 1.816155 1_555
Al0 O4 1.835435 1_555
Al0 O15 1.852439 1_555
Al0 O18 1.932778 1_555
Al0 O5 1.940140 1_555
Al0 O6 2.236658 1_555
Al1 O26 1.798978 1_555
Al1 O18 1.801717 1_555
Al1 O57 1.915723 1_555
Al1 O3 1.924138 1_555
Al1 O27 2.153941 1_555
Al1 O15 2.393013 1_555
Al2 O13 1.743814 1_555
Al2 O2 1.819102 1_455
Al2 O14 1.837725 1_555
Al2 O33 1.876568 1_455
Al3 O41 1.756916 1_555
Al3 O18 1.768758 1_555
Al3 O31 1.773631 1_556
Al3 O52 1.829371 1_555
Al4 O27 1.824691 1_555
Al4 O34 1.852347 1_555
Al4 O39 1.903102 1_555
Al4 O26 1.923927 1_555
Al4 O2 2.047275 1_555
Al4 O25 2.212814 1_555
Al5 O1 1.746216 1_555
Al5 O13 1.755205 1_555
Al5 O4 1.821672 1_455
Al5 O19 1.966768 1_555
Al5 O38 2.115033 1_555
Al5 O54 2.391743 1_555
Al6 O9 1.834154 1_555
Al6 O8 1.852396 1_555
Al6 O37 1.869780 1_555
Al6 O58 1.910061 1_555
Al6 O0 1.948080 1_555
Al7 O35 1.767380 1_556
Al7 O49 1.815872 1_555
Al7 O41 1.848552 1_555
Al7 O52 1.974162 1_555
Al7 O38 2.146057 1_655
Al8 O48 1.799094 1_555
Al8 O42 1.813243 1_554
Al8 O31 1.831429 1_555
Al8 O46 1.852277 1_555
Al8 O45 2.033162 1_555
Al9 O2 1.806837 1_555
Al9 O23 1.816527 1_555
Al9 O53 1.832098 1_555
Al9 O3 1.838797 1_555
Al10 O37 1.780103 1_555
Al10 O46 1.790578 1_555
Al10 O28 1.824723 1_555
Al10 O45 1.934932 1_555
Al10 O16 2.370873 1_555
Al11 O56 1.806049 1_555
Al11 O44 1.806271 1_555
Al11 O10 1.864159 1_555
Al11 O24 1.880442 1_555
Al11 O29 1.965110 1_555
Al12 O20 1.783374 1_555
Al12 O32 1.783607 1_555
Al12 O12 1.784185 1_555
Al12 O8 1.819784 1_555
Al13 O53 1.782459 1_545
Al13 O12 1.824769 1_555
Al13 O47 1.860558 1_555
Al13 O5 1.881538 1_555
Al13 O24 2.235038 1_555
Al14 O40 1.748417 1_555
Al14 O42 1.794868 1_555
Al14 O3 1.815049 1_555
Al14 O51 1.845409 1_555
Al15 O50 1.702437 1_554
Al15 O22 1.725510 1_555
Al15 O55 1.806804 1_555
Al15 O45 1.807020 1_555
Al16 O54 1.834622 1_555
Al16 O44 1.841786 1_555
Al16 O58 1.894751 1_555
Al16 O11 2.002157 1_545
Al16 O7 2.003084 1_555
Al17 O21 1.774415 1_545
Al17 O17 1.778795 1_556
Al17 O54 1.804927 1_555
Al17 O49 1.845954 1_455
Al17 O29 1.940194 1_555
Al18 O50 1.787621 1_555
Al18 O21 1.896797 1_555
Al18 O14 1.935508 1_555
Al18 O40 1.952558 1_555
Al18 O29 1.961868 1_565
Al19 O26 1.769525 1_555
Al19 O53 1.794059 1_555
Al19 O16 1.797984 1_555
Al19 O25 1.903972 1_555
Al20 O24 1.821973 1_555
Al20 O15 1.823408 1_555
Al20 O58 1.855145 1_555
Al20 O12 2.051004 1_555
Al20 O57 2.113306 1_555
Al20 O8 2.434180 1_555
Al21 O34 1.716857 1_455
Al21 O55 1.765220 1_555
Al21 O36 1.789453 1_455
Al21 O28 1.801181 1_555
Al22 O19 1.749247 1_655
Al22 O6 1.754103 1_555
Al22 O34 1.772168 1_555
Al22 O27 1.961455 1_555
Al22 O4 2.296917 1_555
Al23 O59 1.716975 1_555
Al23 O7 1.722015 1_555
Al23 O36 1.738161 1_445
Al23 O11 1.824822 1_545
Al24 O22 1.727443 1_555
Al24 O11 1.826073 1_555
Al24 O0 1.846837 1_565
Al24 O16 2.004752 1_555
Al25 O7 1.757228 1_655
Al25 O4 1.770421 1_555
Al25 O49 1.815367 1_555
Al25 O5 1.916670 1_555
Al25 O54 2.059670 1_655
Al26 O43 1.714346 1_555
Al26 O47 1.805328 1_565
Al26 O25 1.822455 1_555
Al26 O36 1.825008 1_555
Al27 O39 1.744449 1_555
Al27 O32 1.809034 1_555
Al27 O15 1.827474 1_555
Al27 O8 1.904161 1_555
Al28 O52 1.827093 1_555
Al28 O56 1.836922 1_555
Al28 O23 1.884792 1_545
Al28 O5 2.006110 1_555
Al28 O24 2.066235 1_555
Al29 O37 1.789904 1_555
Al29 O19 1.836970 1_555
Al29 O1 1.837150 1_555
Al29 O51 1.891503 1_555
Al29 O57 2.085254 1_555
Al30 O6 1.769500 1_555
Al30 O35 1.845750 1_555
Al30 O32 1.868478 1_555
Al30 O59 1.913015 1_655
Al30 O47 1.960437 1_555
Al31 O30 1.736145 1_555
Al31 O56 1.807221 1_564
Al31 O40 1.862790 1_554
Al31 O20 1.945862 1_565
Al32 O46 1.800230 1_555
Al32 O30 1.841702 1_555
Al32 O39 1.908020 1_555
Al32 O31 1.908086 1_555
Al32 O25 1.937878 1_555
Al33 O1 1.715302 1_555
Al33 O10 1.753011 1_555
Al33 O42 1.792920 1_555
Al33 O57 1.825123 1_555
Al34 O59 1.737765 1_555
Al34 O9 1.792453 1_555
Al34 O17 1.821213 1_555
Al34 O35 1.913604 1_455
Al34 O0 2.011302 1_555
Al35 O43 1.734773 1_556
Al35 O33 1.782285 1_555
Al35 O21 1.831526 1_655
Al35 O23 1.840829 1_555
Al36 O48 1.873913 1_555
Al36 O10 1.878466 1_554
Al36 O17 1.911690 1_555
Al36 O29 1.914469 1_554
Al36 O20 1.917446 1_555
Al37 O38 1.803003 1_554
Al37 O9 1.821377 1_555
Al37 O48 1.847019 1_555
Al37 O45 1.887666 1_555
Al37 O17 2.034015 1_555
Al38 O13 1.862087 1_555
Al38 O41 1.874372 1_455
Al38 O33 1.923397 1_455
Al38 O55 2.000126 1_556
Al38 O38 2.078204 1_555
Al38 O50 2.104976 1_555
Al39 O14 1.898652 1_555
Al39 O51 1.914881 1_555
Al39 O44 1.990533 1_565
Al39 O11 2.000922 1_555
Al39 O28 2.062957 1_555
Al39 O16 2.108008 1_555
