# generated using pymatgen
data_Na
_symmetry_space_group_name_H-M   'P 1'
_cell_length_a   7.37754200
_cell_length_b   7.37754082
_cell_length_c   12.53838800
_cell_angle_alpha   90.00000000
_cell_angle_beta   90.00000000
_cell_angle_gamma   119.99999634
_symmetry_Int_Tables_number   1
_chemical_formula_structural   Na
_chemical_formula_sum   Na16
_cell_volume   591.01113614
_cell_formula_units_Z   16
loop_
 _symmetry_equiv_pos_site_id
 _symmetry_equiv_pos_as_xyz
  1  'x, y, z'
loop_
 _atom_site_type_symbol
 _atom_site_label
 _atom_site_symmetry_multiplicity
 _atom_site_fract_x
 _atom_site_fract_y
 _atom_site_fract_z
 _atom_site_occupancy
  Na  Na0_0  1  0.16666650  0.33333350  0.12500000  1
  Na  Na0_1  1  0.16666650  0.33333350  0.62500000  1
  Na  Na0_2  1  0.16666650  0.83333350  0.12500000  1
  Na  Na0_3  1  0.16666650  0.83333350  0.62500000  1
  Na  Na0_4  1  0.66666650  0.33333350  0.12500000  1
  Na  Na0_5  1  0.66666650  0.33333350  0.62500000  1
  Na  Na0_6  1  0.66666650  0.83333350  0.12500000  1
  Na  Na0_7  1  0.66666650  0.83333350  0.62500000  1
  Na  Na1_0  1  0.33333350  0.16666650  0.37500000  1
  Na  Na1_1  1  0.33333350  0.16666650  0.87500000  1
  Na  Na1_2  1  0.33333350  0.66666650  0.37500000  1
  Na  Na1_3  1  0.33333350  0.66666650  0.87500000  1
  Na  Na1_4  1  0.83333350  0.16666650  0.37500000  1
  Na  Na1_5  1  0.83333350  0.16666650  0.87500000  1
  Na  Na1_6  1  0.83333350  0.66666650  0.37500000  1
  Na  Na1_7  1  0.83333350  0.66666650  0.87500000  1
loop_
_geom_bond_atom_site_label_1
_geom_bond_atom_site_label_2
_geom_bond_distance
_geom_bond_site_symmetry_2
Na0_0 Na0_2 3.688770 1_545
Na0_0 Na0_2 3.688770 1_555
Na0_0 Na0_6 3.688771 1_445
Na0_0 Na0_6 3.688771 1_555
Na0_0 Na0_4 3.688771 1_455
Na0_0 Na0_4 3.688771 1_555
Na0_0 Na1_3 3.789639 1_554
Na0_0 Na1_2 3.789639 1_555
Na0_0 Na1_4 3.789639 1_455
Na0_0 Na1_5 3.789639 1_454
Na0_0 Na1_0 3.789643 1_555
Na0_0 Na1_1 3.789643 1_554
Na0_1 Na0_3 3.688770 1_545
Na0_1 Na0_3 3.688770 1_555
Na0_1 Na0_7 3.688771 1_445
Na0_1 Na0_7 3.688771 1_555
Na0_1 Na0_5 3.688771 1_455
Na0_1 Na0_5 3.688771 1_555
Na0_1 Na1_2 3.789639 1_555
Na0_1 Na1_3 3.789639 1_555
Na0_1 Na1_4 3.789639 1_455
Na0_1 Na1_5 3.789639 1_455
Na0_1 Na1_0 3.789643 1_555
Na0_1 Na1_1 3.789643 1_555
Na0_2 Na0_4 3.688771 1_565
Na0_2 Na0_4 3.688771 1_455
Na0_2 Na0_6 3.688771 1_455
Na0_2 Na0_6 3.688771 1_555
Na0_2 Na1_0 3.789639 1_565
Na0_2 Na1_1 3.789639 1_564
Na0_2 Na1_7 3.789639 1_454
Na0_2 Na1_6 3.789639 1_455
Na0_2 Na1_3 3.789643 1_554
Na0_2 Na1_2 3.789643 1_555
Na0_3 Na0_5 3.688771 1_565
Na0_3 Na0_5 3.688771 1_455
Na0_3 Na0_7 3.688771 1_555
Na0_3 Na0_7 3.688771 1_455
Na0_3 Na1_0 3.789639 1_565
Na0_3 Na1_1 3.789639 1_565
Na0_3 Na1_6 3.789639 1_455
Na0_3 Na1_7 3.789639 1_455
Na0_3 Na1_2 3.789643 1_555
Na0_3 Na1_3 3.789643 1_555
Na0_4 Na0_6 3.688770 1_545
Na0_4 Na0_6 3.688770 1_555
Na0_4 Na1_6 3.789639 1_555
Na0_4 Na1_7 3.789639 1_554
Na0_4 Na1_1 3.789639 1_554
Na0_4 Na1_0 3.789639 1_555
Na0_4 Na1_5 3.789643 1_554
Na0_4 Na1_4 3.789643 1_555
Na0_5 Na0_7 3.688770 1_545
Na0_5 Na0_7 3.688770 1_555
Na0_5 Na1_6 3.789639 1_555
Na0_5 Na1_7 3.789639 1_555
Na0_5 Na1_0 3.789639 1_555
Na0_5 Na1_1 3.789639 1_555
Na0_5 Na1_4 3.789643 1_555
Na0_5 Na1_5 3.789643 1_555
Na0_6 Na1_4 3.789639 1_565
Na0_6 Na1_5 3.789639 1_564
Na0_6 Na1_2 3.789639 1_555
Na0_6 Na1_3 3.789639 1_554
Na0_6 Na1_6 3.789643 1_555
Na0_6 Na1_7 3.789643 1_554
Na0_7 Na1_4 3.789639 1_565
Na0_7 Na1_5 3.789639 1_565
Na0_7 Na1_2 3.789639 1_555
Na0_7 Na1_3 3.789639 1_555
Na0_7 Na1_6 3.789643 1_555
Na0_7 Na1_7 3.789643 1_555
Na1_0 Na1_2 3.688770 1_555
Na1_0 Na1_2 3.688770 1_545
Na1_0 Na1_6 3.688771 1_555
Na1_0 Na1_6 3.688771 1_445
Na1_0 Na1_4 3.688771 1_455
Na1_0 Na1_4 3.688771 1_555
Na1_1 Na1_3 3.688770 1_555
Na1_1 Na1_3 3.688770 1_545
Na1_1 Na1_7 3.688771 1_555
Na1_1 Na1_7 3.688771 1_445
Na1_1 Na1_5 3.688771 1_455
Na1_1 Na1_5 3.688771 1_555
Na1_2 Na1_4 3.688771 1_455
Na1_2 Na1_4 3.688771 1_565
Na1_2 Na1_6 3.688771 1_455
Na1_2 Na1_6 3.688771 1_555
Na1_3 Na1_5 3.688771 1_455
Na1_3 Na1_5 3.688771 1_565
Na1_3 Na1_7 3.688771 1_455
Na1_3 Na1_7 3.688771 1_555
Na1_4 Na1_6 3.688770 1_545
Na1_4 Na1_6 3.688770 1_555
Na1_5 Na1_7 3.688770 1_545
Na1_5 Na1_7 3.688770 1_555
