# generated using pymatgen
data_Mg14VCuO16
_symmetry_space_group_name_H-M   'P 1'
_cell_length_a   8.55681800
_cell_length_b   8.61277000
_cell_length_c   4.23895100
_cell_angle_alpha   90.00000000
_cell_angle_beta   90.00000000
_cell_angle_gamma   90.00000000
_symmetry_Int_Tables_number   1
_chemical_formula_structural   Mg14VCuO16
_chemical_formula_sum   'Mg14 V1 Cu1 O16'
_cell_volume   312.40180965
_cell_formula_units_Z   1
loop_
 _symmetry_equiv_pos_site_id
 _symmetry_equiv_pos_as_xyz
  1  'x, y, z'
loop_
 _atom_site_type_symbol
 _atom_site_label
 _atom_site_symmetry_multiplicity
 _atom_site_fract_x
 _atom_site_fract_y
 _atom_site_fract_z
 _atom_site_occupancy
  Mg  Mg0  1  0.50000000  0.00000000  0.00000000  1
  Mg  Mg1  1  0.50000000  0.50000000  0.00000000  1
  Mg  Mg2  1  0.00000000  0.24252900  0.50000000  1
  Mg  Mg3  1  0.00000000  0.75747100  0.50000000  1
  Mg  Mg4  1  0.50000000  0.24853800  0.50000000  1
  Mg  Mg5  1  0.50000000  0.75146200  0.50000000  1
  Mg  Mg6  1  0.24820900  0.00000000  0.50000000  1
  Mg  Mg7  1  0.25286700  0.50000000  0.50000000  1
  Mg  Mg8  1  0.75179100  0.00000000  0.50000000  1
  Mg  Mg9  1  0.74713300  0.50000000  0.50000000  1
  Mg  Mg10  1  0.24968000  0.24620700  0.00000000  1
  Mg  Mg11  1  0.24968000  0.75379300  0.00000000  1
  Mg  Mg12  1  0.75032000  0.24620700  0.00000000  1
  Mg  Mg13  1  0.75032000  0.75379300  0.00000000  1
  V  V0  1  0.00000000  0.50000000  0.00000000  1
  Cu  Cu0  1  0.00000000  0.00000000  0.00000000  1
  O  O0  1  0.25892800  0.00000000  0.00000000  1
  O  O1  1  0.25124900  0.50000000  0.00000000  1
  O  O2  1  0.74107200  0.00000000  0.00000000  1
  O  O3  1  0.74875100  0.50000000  0.00000000  1
  O  O4  1  0.24841500  0.25042900  0.50000000  1
  O  O5  1  0.24841500  0.74957100  0.50000000  1
  O  O6  1  0.75158600  0.25042900  0.50000000  1
  O  O7  1  0.75158600  0.74957100  0.50000000  1
  O  O8  1  0.00000000  0.00000000  0.50000000  1
  O  O9  1  0.00000000  0.50000000  0.50000000  1
  O  O10  1  0.50000000  0.00000000  0.50000000  1
  O  O11  1  0.50000000  0.50000000  0.50000000  1
  O  O12  1  0.00000000  0.26421200  0.00000000  1
  O  O13  1  0.00000000  0.73578800  0.00000000  1
  O  O14  1  0.50000000  0.25227500  0.00000000  1
  O  O15  1  0.50000000  0.74772500  0.00000000  1
loop_
_geom_bond_atom_site_label_1
_geom_bond_atom_site_label_2
_geom_bond_distance
_geom_bond_site_symmetry_2
Mg0 O2 2.062809 1_555
Mg0 O0 2.062809 1_555
Mg0 O10 2.119476 1_555
Mg0 O10 2.119476 1_554
Mg0 O14 2.172787 1_555
Mg0 O15 2.172787 1_545
Mg1 O11 2.119476 1_554
Mg1 O11 2.119476 1_555
Mg1 O3 2.128517 1_555
Mg1 O1 2.128517 1_555
Mg1 O15 2.133598 1_555
Mg1 O14 2.133598 1_555
Mg2 O8 2.088846 1_555
Mg2 O6 2.126722 1_455
Mg2 O4 2.126731 1_555
Mg2 O12 2.127687 1_556
Mg2 O12 2.127687 1_555
Mg2 O9 2.217539 1_555
Mg3 O8 2.088846 1_565
Mg3 O7 2.126722 1_455
Mg3 O5 2.126731 1_555
Mg3 O13 2.127687 1_555
Mg3 O13 2.127687 1_556
Mg3 O9 2.217539 1_555
Mg4 O14 2.119720 1_556
Mg4 O14 2.119720 1_555
Mg4 O10 2.140601 1_555
Mg4 O4 2.152829 1_555
Mg4 O6 2.152837 1_555
Mg4 O11 2.165784 1_555
Mg5 O15 2.119720 1_556
Mg5 O15 2.119720 1_555
Mg5 O10 2.140601 1_565
Mg5 O5 2.152829 1_555
Mg5 O7 2.152837 1_555
Mg5 O11 2.165784 1_555
Mg6 O0 2.121459 1_555
Mg6 O0 2.121459 1_556
Mg6 O8 2.123879 1_555
Mg6 O10 2.154530 1_555
Mg6 O4 2.156888 1_555
Mg6 O5 2.156888 1_545
Mg7 O11 2.114672 1_555
Mg7 O1 2.119521 1_556
Mg7 O1 2.119521 1_555
Mg7 O5 2.149835 1_555
Mg7 O4 2.149835 1_555
Mg7 O9 2.163737 1_555
Mg8 O2 2.121459 1_555
Mg8 O2 2.121459 1_556
Mg8 O8 2.123879 1_655
Mg8 O10 2.154530 1_555
Mg8 O6 2.156888 1_555
Mg8 O7 2.156888 1_545
Mg9 O11 2.114672 1_555
Mg9 O3 2.119521 1_556
Mg9 O3 2.119521 1_555
Mg9 O6 2.149835 1_555
Mg9 O7 2.149835 1_555
Mg9 O9 2.163737 1_655
Mg10 O4 2.119815 1_554
Mg10 O4 2.119815 1_555
Mg10 O0 2.122000 1_555
Mg10 O12 2.142087 1_555
Mg10 O14 2.142580 1_555
Mg10 O1 2.185902 1_555
Mg11 O5 2.119815 1_555
Mg11 O5 2.119815 1_554
Mg11 O0 2.122000 1_565
Mg11 O13 2.142087 1_555
Mg11 O15 2.142580 1_555
Mg11 O1 2.185902 1_555
Mg12 O6 2.119815 1_554
Mg12 O6 2.119815 1_555
Mg12 O2 2.122000 1_555
Mg12 O12 2.142087 1_655
Mg12 O14 2.142580 1_555
Mg12 O3 2.185902 1_555
Mg13 O7 2.119815 1_555
Mg13 O7 2.119815 1_554
Mg13 O2 2.122000 1_565
Mg13 O13 2.142087 1_655
Mg13 O15 2.142580 1_555
Mg13 O3 2.185902 1_555
Cu0 O8 2.119476 1_554
Cu0 O8 2.119476 1_555
Cu0 O0 2.215600 1_555
Cu0 O2 2.215600 1_455
Cu0 O13 2.275597 1_545
Cu0 O12 2.275597 1_555
O1 V0 2.149892 1_555
O3 V0 2.149892 1_655
O9 V0 2.119476 1_556
O9 V0 2.119476 1_555
O12 V0 2.030788 1_555
O13 V0 2.030788 1_555
