# generated using pymatgen
data_Li2Mn(SO4)2
_symmetry_space_group_name_H-M   'P 1'
_cell_length_a   8.43579000
_cell_length_b   9.03406406
_cell_length_c   9.48170319
_cell_angle_alpha   66.15142005
_cell_angle_beta   90.00002339
_cell_angle_gamma   89.99993445
_symmetry_Int_Tables_number   1
_chemical_formula_structural   Li2Mn(SO4)2
_chemical_formula_sum   'Li8 Mn4 S8 O32'
_cell_volume   660.89830364
_cell_formula_units_Z   4
loop_
 _symmetry_equiv_pos_site_id
 _symmetry_equiv_pos_as_xyz
  1  'x, y, z'
loop_
 _atom_site_type_symbol
 _atom_site_label
 _atom_site_symmetry_multiplicity
 _atom_site_fract_x
 _atom_site_fract_y
 _atom_site_fract_z
 _atom_site_occupancy
  Li  Li0  1  0.86671600  0.40625600  0.98946800  1
  Li  Li1  1  0.86671700  0.90625700  0.48946800  1
  Li  Li2  1  0.36671800  0.09374500  0.01053200  1
  Li  Li3  1  0.36671800  0.59374300  0.51053300  1
  Li  Li4  1  0.13328300  0.59374300  0.01053300  1
  Li  Li5  1  0.13328100  0.09374400  0.51053300  1
  Li  Li6  1  0.63328300  0.90625700  0.98946700  1
  Li  Li7  1  0.63328500  0.40625600  0.48946800  1
  Mn  Mn0  1  0.50000100  0.99999900  0.49999700  1
  Mn  Mn1  1  0.99999900  0.00000200  0.99999800  1
  Mn  Mn2  1  0.49999300  0.49999600  0.99999900  1
  Mn  Mn3  1  0.00000000  0.49999500  0.50000600  1
  S  S0  1  0.19652300  0.36721200  0.83701100  1
  S  S1  1  0.19651900  0.86720900  0.33700600  1
  S  S2  1  0.69652200  0.63278700  0.66299000  1
  S  S3  1  0.69652300  0.13279300  0.16299000  1
  S  S4  1  0.80347900  0.63278200  0.16299800  1
  S  S5  1  0.80347600  0.13279600  0.66299000  1
  S  S6  1  0.30347900  0.36721600  0.33700500  1
  S  S7  1  0.30348100  0.86720800  0.83700700  1
  O  O0  1  0.08551800  0.43881200  0.91251200  1
  O  O1  1  0.08551600  0.93880700  0.41251700  1
  O  O2  1  0.58551800  0.56119000  0.58748800  1
  O  O3  1  0.58551500  0.06119300  0.08748300  1
  O  O4  1  0.91448200  0.56119000  0.08748600  1
  O  O5  1  0.91448600  0.06119200  0.58748200  1
  O  O6  1  0.41448200  0.43881100  0.41251400  1
  O  O7  1  0.41448400  0.93880800  0.91251800  1
  O  O8  1  0.35944800  0.35249300  0.90429900  1
  O  O9  1  0.35944800  0.85248300  0.40430400  1
  O  O10  1  0.85944900  0.14751300  0.09569600  1
  O  O11  1  0.85944800  0.64750800  0.59570000  1
  O  O12  1  0.64055100  0.64750800  0.09569900  1
  O  O13  1  0.64055100  0.14751200  0.59569500  1
  O  O14  1  0.14055200  0.85248600  0.90430500  1
  O  O15  1  0.14055100  0.35249200  0.40430200  1
  O  O16  1  0.14749900  0.19954500  0.86256900  1
  O  O17  1  0.14750100  0.69955100  0.36256600  1
  O  O18  1  0.64750000  0.30045100  0.13743200  1
  O  O19  1  0.64750000  0.80045600  0.63743000  1
  O  O20  1  0.85249900  0.80045600  0.13743000  1
  O  O21  1  0.85250200  0.30045300  0.63743100  1
  O  O22  1  0.35250200  0.69954900  0.86256900  1
  O  O23  1  0.35249900  0.19954400  0.36257000  1
  O  O24  1  0.20045600  0.46894400  0.66776300  1
  O  O25  1  0.20045400  0.96894100  0.16776100  1
  O  O26  1  0.70045500  0.53105700  0.83223600  1
  O  O27  1  0.70045200  0.03105800  0.33224000  1
  O  O28  1  0.79954700  0.53105900  0.33223600  1
  O  O29  1  0.79954800  0.03105800  0.83224100  1
  O  O30  1  0.29954600  0.46894300  0.16776400  1
  O  O31  1  0.29954600  0.96894200  0.66776100  1
loop_
_geom_bond_atom_site_label_1
_geom_bond_atom_site_label_2
_geom_bond_distance
_geom_bond_site_symmetry_2
Li0 O0 1.962714 1_655
Li0 O4 2.009261 1_556
Li0 O26 2.025253 1_555
Li0 O10 2.139699 1_556
Li0 O18 2.284139 1_556
Li1 O1 1.962676 1_655
Li1 O5 2.009246 1_565
Li1 O27 2.025257 1_565
Li1 O11 2.139750 1_555
Li1 O19 2.284131 1_555
Li2 O3 1.962659 1_555
Li2 O7 2.009257 1_544
Li2 O25 2.025265 1_545
Li2 O8 2.139742 1_554
Li2 O16 2.284145 1_554
Li3 O2 1.962694 1_555
Li3 O6 2.009249 1_555
Li3 O24 2.025247 1_555
Li3 O9 2.139676 1_555
Li3 O17 2.284160 1_555
Li4 O4 1.962698 1_455
Li4 O0 2.009257 1_554
Li4 O30 2.025257 1_555
Li4 O14 2.139700 1_554
Li4 O22 2.284161 1_554
Li5 O5 1.962638 1_455
Li5 O1 2.009270 1_545
Li5 O31 2.025259 1_545
Li5 O15 2.139742 1_555
Li5 O23 2.284141 1_555
Li6 O7 1.962669 1_555
Li6 O3 2.009266 1_566
Li6 O29 2.025250 1_565
Li6 O12 2.139749 1_556
Li6 O20 2.284126 1_556
Li7 O6 1.962715 1_555
Li7 O2 2.009277 1_555
Li7 O28 2.025266 1_555
Li7 O13 2.139707 1_555
Li7 O21 2.284136 1_555
Mn0 O19 2.143917 1_555
Mn0 O23 2.143927 1_565
Mn0 O13 2.232233 1_565
Mn0 O9 2.232236 1_555
Mn0 O27 2.259925 1_565
Mn0 O31 2.259996 1_555
Mn1 O16 2.143914 1_655
Mn1 O20 2.143938 1_546
Mn1 O10 2.232218 1_556
Mn1 O14 2.232235 1_645
Mn1 O29 2.259928 1_555
Mn1 O25 2.259983 1_646
Mn2 O22 2.143924 1_555
Mn2 O18 2.143967 1_556
Mn2 O8 2.232154 1_555
Mn2 O12 2.232274 1_556
Mn2 O30 2.259958 1_556
Mn2 O26 2.260029 1_555
Mn3 O21 2.143889 1_455
Mn3 O17 2.144017 1_555
Mn3 O15 2.232204 1_555
Mn3 O11 2.232216 1_455
Mn3 O24 2.259967 1_555
Mn3 O28 2.260009 1_455
O0 S0 1.477228 1_555
O1 S1 1.477268 1_555
O2 S2 1.477212 1_555
O3 S3 1.477282 1_555
O4 S4 1.477240 1_555
O5 S5 1.477321 1_555
O6 S6 1.477239 1_555
O7 S7 1.477280 1_555
O8 S0 1.498368 1_555
O9 S1 1.498431 1_555
O10 S3 1.498398 1_555
O11 S2 1.498382 1_555
O12 S4 1.498426 1_555
O13 S5 1.498396 1_555
O14 S7 1.498434 1_555
O15 S6 1.498421 1_555
O16 S0 1.492411 1_555
O17 S1 1.492315 1_555
O18 S3 1.492330 1_555
O19 S2 1.492418 1_555
O20 S4 1.492438 1_555
O21 S5 1.492328 1_555
O22 S7 1.492325 1_555
O23 S6 1.492427 1_555
O24 S0 1.492776 1_555
O25 S1 1.492753 1_555
O26 S2 1.492757 1_555
O27 S3 1.492795 1_555
O28 S4 1.492682 1_555
O29 S5 1.492808 1_555
O30 S6 1.492713 1_555
O31 S7 1.492764 1_555
