# generated using pymatgen
data_SrMo4H4O15
_symmetry_space_group_name_H-M   'P 1'
_cell_length_a   7.63479973
_cell_length_b   15.85604890
_cell_length_c   19.80090226
_cell_angle_alpha   90.00000000
_cell_angle_beta   90.00000000
_cell_angle_gamma   90.00000000
_symmetry_Int_Tables_number   1
_chemical_formula_structural   SrMo4H4O15
_chemical_formula_sum   'Sr8 Mo32 H32 O120'
_cell_volume   2397.05283121
_cell_formula_units_Z   8
loop_
 _symmetry_equiv_pos_site_id
 _symmetry_equiv_pos_as_xyz
  1  'x, y, z'
loop_
 _atom_site_type_symbol
 _atom_site_label
 _atom_site_symmetry_multiplicity
 _atom_site_fract_x
 _atom_site_fract_y
 _atom_site_fract_z
 _atom_site_occupancy
  Sr  Sr0  1  0.62786877  0.61704939  0.96541116  1
  Sr  Sr1  1  0.87213123  0.11704939  0.53458884  1
  Sr  Sr2  1  0.87213123  0.38295061  0.46541116  1
  Sr  Sr3  1  0.62786877  0.88295061  0.03458884  1
  Sr  Sr4  1  0.37213123  0.38295061  0.03458884  1
  Sr  Sr5  1  0.12786877  0.88295061  0.46541116  1
  Sr  Sr6  1  0.12786877  0.61704939  0.53458884  1
  Sr  Sr7  1  0.37213123  0.11704939  0.96541116  1
  Mo  Mo0  1  0.87215279  0.47504154  0.11402282  1
  Mo  Mo1  1  0.62784721  0.97504154  0.38597718  1
  Mo  Mo2  1  0.62784721  0.52495846  0.61402282  1
  Mo  Mo3  1  0.87215279  0.02495846  0.88597718  1
  Mo  Mo4  1  0.12784721  0.52495846  0.88597718  1
  Mo  Mo5  1  0.37215279  0.02495846  0.61402282  1
  Mo  Mo6  1  0.37215279  0.47504154  0.38597718  1
  Mo  Mo7  1  0.12784721  0.97504154  0.11402282  1
  Mo  Mo8  1  0.96948957  0.68091756  0.10438345  1
  Mo  Mo9  1  0.53051043  0.18091756  0.39561655  1
  Mo  Mo10  1  0.53051043  0.31908244  0.60438345  1
  Mo  Mo11  1  0.96948957  0.81908244  0.89561655  1
  Mo  Mo12  1  0.03051043  0.31908244  0.89561655  1
  Mo  Mo13  1  0.46948957  0.81908244  0.60438345  1
  Mo  Mo14  1  0.46948957  0.68091756  0.39561655  1
  Mo  Mo15  1  0.03051043  0.18091756  0.10438345  1
  Mo  Mo16  1  0.14925313  0.61151774  0.24626269  1
  Mo  Mo17  1  0.35074687  0.11151774  0.25373731  1
  Mo  Mo18  1  0.35074687  0.38848226  0.74626269  1
  Mo  Mo19  1  0.14925313  0.88848226  0.75373731  1
  Mo  Mo20  1  0.85074687  0.38848226  0.75373731  1
  Mo  Mo21  1  0.64925313  0.88848226  0.74626269  1
  Mo  Mo22  1  0.64925313  0.61151774  0.25373731  1
  Mo  Mo23  1  0.85074687  0.11151774  0.24626269  1
  Mo  Mo24  1  0.15608990  0.82163885  0.25529012  1
  Mo  Mo25  1  0.34391010  0.32163885  0.24470988  1
  Mo  Mo26  1  0.34391010  0.17836115  0.75529012  1
  Mo  Mo27  1  0.15608990  0.67836115  0.74470988  1
  Mo  Mo28  1  0.84391010  0.17836115  0.74470988  1
  Mo  Mo29  1  0.65608990  0.67836115  0.75529012  1
  Mo  Mo30  1  0.65608990  0.82163885  0.24470988  1
  Mo  Mo31  1  0.84391010  0.32163885  0.25529012  1
  H  H0  1  0.53752169  0.72216310  0.11775165  1
  H  H1  1  0.96247831  0.22216310  0.38224835  1
  H  H2  1  0.96247831  0.27783690  0.61775165  1
  H  H3  1  0.53752169  0.77783690  0.88224835  1
  H  H4  1  0.46247831  0.27783690  0.88224835  1
  H  H5  1  0.03752169  0.77783690  0.61775165  1
  H  H6  1  0.03752169  0.72216310  0.38224835  1
  H  H7  1  0.46247831  0.22216310  0.11775165  1
  H  H8  1  0.36557221  0.73121625  0.07354103  1
  H  H9  1  0.13442779  0.23121625  0.42645897  1
  H  H10  1  0.13442779  0.26878375  0.57354103  1
  H  H11  1  0.36557221  0.76878375  0.92645897  1
  H  H12  1  0.63442779  0.26878375  0.92645897  1
  H  H13  1  0.86557221  0.76878375  0.57354103  1
  H  H14  1  0.86557221  0.73121625  0.42645897  1
  H  H15  1  0.63442779  0.23121625  0.07354103  1
  H  H16  1  0.95112332  0.54342405  0.38430664  1
  H  H17  1  0.54887668  0.04342405  0.11569336  1
  H  H18  1  0.54887668  0.45657595  0.88430664  1
  H  H19  1  0.95112332  0.95657595  0.61569336  1
  H  H20  1  0.04887668  0.45657595  0.61569336  1
  H  H21  1  0.45112332  0.95657595  0.88430664  1
  H  H22  1  0.45112332  0.54342405  0.11569336  1
  H  H23  1  0.04887668  0.04342405  0.38430664  1
  H  H24  1  0.80764993  0.58068217  0.43251379  1
  H  H25  1  0.69235007  0.08068217  0.06748621  1
  H  H26  1  0.69235007  0.41931783  0.93251379  1
  H  H27  1  0.80764993  0.91931783  0.56748621  1
  H  H28  1  0.19235007  0.41931783  0.56748621  1
  H  H29  1  0.30764993  0.91931783  0.93251379  1
  H  H30  1  0.30764993  0.58068217  0.06748621  1
  H  H31  1  0.19235007  0.08068217  0.43251379  1
  O  O0  1  0.67094431  0.52987882  0.19315735  1
  O  O1  1  0.82905569  0.02987882  0.30684265  1
  O  O2  1  0.82905569  0.47012118  0.69315735  1
  O  O3  1  0.67094431  0.97012118  0.80684265  1
  O  O4  1  0.32905569  0.47012118  0.80684265  1
  O  O5  1  0.17094431  0.97012118  0.69315735  1
  O  O6  1  0.17094431  0.52987882  0.30684265  1
  O  O7  1  0.32905569  0.02987882  0.19315735  1
  O  O8  1  0.02748923  0.56790896  0.17009067  1
  O  O9  1  0.47251077  0.06790896  0.32990933  1
  O  O10  1  0.47251077  0.43209104  0.67009067  1
  O  O11  1  0.02748923  0.93209104  0.82990933  1
  O  O12  1  0.97251077  0.43209104  0.82990933  1
  O  O13  1  0.52748923  0.93209104  0.67009067  1
  O  O14  1  0.52748923  0.56790896  0.32990933  1
  O  O15  1  0.97251077  0.06790896  0.17009067  1
  O  O16  1  0.81608415  0.59057460  0.07484981  1
  O  O17  1  0.68391585  0.09057460  0.42515019  1
  O  O18  1  0.68391585  0.40942540  0.57484981  1
  O  O19  1  0.81608415  0.90942540  0.92515019  1
  O  O20  1  0.18391585  0.40942540  0.92515019  1
  O  O21  1  0.31608415  0.90942540  0.57484981  1
  O  O22  1  0.31608415  0.59057460  0.42515019  1
  O  O23  1  0.18391585  0.09057460  0.07484981  1
  O  O24  1  0.04963351  0.44841913  0.06341137  1
  O  O25  1  0.45036649  0.94841913  0.43658863  1
  O  O26  1  0.45036649  0.55158087  0.56341137  1
  O  O27  1  0.04963351  0.05158087  0.93658863  1
  O  O28  1  0.95036649  0.55158087  0.93658863  1
  O  O29  1  0.54963351  0.05158087  0.56341137  1
  O  O30  1  0.54963351  0.44841913  0.43658863  1
  O  O31  1  0.95036649  0.94841913  0.06341137  1
  O  O32  1  0.91755533  0.40191582  0.18945916  1
  O  O33  1  0.58244467  0.90191582  0.31054084  1
  O  O34  1  0.58244467  0.59808418  0.68945916  1
  O  O35  1  0.91755533  0.09808418  0.81054084  1
  O  O36  1  0.08244467  0.59808418  0.81054084  1
  O  O37  1  0.41755533  0.09808418  0.68945916  1
  O  O38  1  0.41755533  0.40191582  0.31054084  1
  O  O39  1  0.08244467  0.90191582  0.18945916  1
  O  O40  1  0.69367711  0.42418431  0.07610250  1
  O  O41  1  0.80632289  0.92418431  0.42389750  1
  O  O42  1  0.80632289  0.57581569  0.57610250  1
  O  O43  1  0.69367711  0.07581569  0.92389750  1
  O  O44  1  0.30632289  0.57581569  0.92389750  1
  O  O45  1  0.19367711  0.07581569  0.57610250  1
  O  O46  1  0.19367711  0.42418431  0.42389750  1
  O  O47  1  0.30632289  0.92418431  0.07610250  1
  O  O48  1  0.06230295  0.72321168  0.18714939  1
  O  O49  1  0.43769705  0.22321168  0.31285061  1
  O  O50  1  0.43769705  0.27678832  0.68714939  1
  O  O51  1  0.06230295  0.77678832  0.81285061  1
  O  O52  1  0.93769705  0.27678832  0.81285061  1
  O  O53  1  0.56230295  0.77678832  0.68714939  1
  O  O54  1  0.56230295  0.72321168  0.31285061  1
  O  O55  1  0.93769705  0.22321168  0.18714939  1
  O  O56  1  0.85564205  0.76707358  0.07108611  1
  O  O57  1  0.64435795  0.26707358  0.42891389  1
  O  O58  1  0.64435795  0.23292642  0.57108611  1
  O  O59  1  0.85564205  0.73292642  0.92891389  1
  O  O60  1  0.14435795  0.23292642  0.92891389  1
  O  O61  1  0.35564205  0.73292642  0.57108611  1
  O  O62  1  0.35564205  0.76707358  0.42891389  1
  O  O63  1  0.14435795  0.26707358  0.07108611  1
  O  O64  1  0.15780535  0.67082053  0.05473987  1
  O  O65  1  0.34219465  0.17082053  0.44526013  1
  O  O66  1  0.34219465  0.32917947  0.55473987  1
  O  O67  1  0.15780535  0.82917947  0.94526013  1
  O  O68  1  0.84219465  0.32917947  0.94526013  1
  O  O69  1  0.65780535  0.82917947  0.55473987  1
  O  O70  1  0.65780535  0.67082053  0.44526013  1
  O  O71  1  0.84219465  0.17082053  0.05473987  1
  O  O72  1  0.36485504  0.61570345  0.21249116  1
  O  O73  1  0.13514496  0.11570345  0.28750884  1
  O  O74  1  0.13514496  0.38429655  0.71249116  1
  O  O75  1  0.36485504  0.88429655  0.78750884  1
  O  O76  1  0.63514496  0.38429655  0.78750884  1
  O  O77  1  0.86485504  0.88429655  0.71249116  1
  O  O78  1  0.86485504  0.61570345  0.28750884  1
  O  O79  1  0.63514496  0.11570345  0.21249116  1
  O  O80  1  0.17087951  0.70862326  0.30581507  1
  O  O81  1  0.32912049  0.20862326  0.19418493  1
  O  O82  1  0.32912049  0.29137674  0.80581507  1
  O  O83  1  0.17087951  0.79137674  0.69418493  1
  O  O84  1  0.82912049  0.29137674  0.69418493  1
  O  O85  1  0.67087951  0.79137674  0.80581507  1
  O  O86  1  0.67087951  0.70862326  0.19418493  1
  O  O87  1  0.82912049  0.20862326  0.30581507  1
  O  O88  1  0.37550956  0.81371326  0.22430844  1
  O  O89  1  0.12449044  0.31371326  0.27569156  1
  O  O90  1  0.12449044  0.18628674  0.72430844  1
  O  O91  1  0.37550956  0.68628674  0.77569156  1
  O  O92  1  0.62449044  0.18628674  0.77569156  1
  O  O93  1  0.87550956  0.68628674  0.72430844  1
  O  O94  1  0.87550956  0.81371326  0.27569156  1
  O  O95  1  0.62449044  0.31371326  0.22430844  1
  O  O96  1  0.17678178  0.88062657  0.32893876  1
  O  O97  1  0.32321822  0.38062657  0.17106124  1
  O  O98  1  0.32321822  0.11937343  0.82893876  1
  O  O99  1  0.17678178  0.61937343  0.67106124  1
  O  O100  1  0.82321822  0.11937343  0.67106124  1
  O  O101  1  0.67678178  0.61937343  0.82893876  1
  O  O102  1  0.67678178  0.88062657  0.17106124  1
  O  O103  1  0.82321822  0.38062657  0.32893876  1
  O  O104  1  0.49349875  0.73843663  0.07236077  1
  O  O105  1  0.00650125  0.23843663  0.42763923  1
  O  O106  1  0.00650125  0.26156337  0.57236077  1
  O  O107  1  0.49349875  0.76156337  0.92763923  1
  O  O108  1  0.50650125  0.26156337  0.92763923  1
  O  O109  1  0.99349875  0.76156337  0.57236077  1
  O  O110  1  0.99349875  0.73843663  0.42763923  1
  O  O111  1  0.50650125  0.23843663  0.07236077  1
  O  O112  1  0.90889887  0.54198150  0.43130573  1
  O  O113  1  0.59110113  0.04198150  0.06869427  1
  O  O114  1  0.59110113  0.45801850  0.93130573  1
  O  O115  1  0.90889887  0.95801850  0.56869427  1
  O  O116  1  0.09110113  0.45801850  0.56869427  1
  O  O117  1  0.40889887  0.95801850  0.93130573  1
  O  O118  1  0.40889887  0.54198150  0.06869427  1
  O  O119  1  0.09110113  0.04198150  0.43130573  1
loop_
_geom_bond_atom_site_label_1
_geom_bond_atom_site_label_2
_geom_bond_distance
_geom_bond_site_symmetry_2
Mo0 O24 1.737413 1_655
Mo0 O40 1.752372 1_555
Mo0 O32 1.922427 1_555
Mo0 O16 2.034882 1_555
Mo0 O8 2.192561 1_655
Mo0 O0 2.360337 1_555
Mo1 O25 1.737413 1_555
Mo1 O41 1.752372 1_555
Mo1 O33 1.922427 1_555
Mo1 O17 2.034882 1_565
Mo1 O9 2.192561 1_565
Mo1 O1 2.360337 1_565
Mo2 O26 1.737413 1_555
Mo2 O42 1.752372 1_555
Mo2 O34 1.922427 1_555
Mo2 O18 2.034882 1_555
Mo2 O10 2.192561 1_555
Mo2 O2 2.360337 1_555
Mo3 O27 1.737413 1_655
Mo3 O43 1.752372 1_555
Mo3 O35 1.922427 1_555
Mo3 O19 2.034882 1_545
Mo3 O11 2.192561 1_645
Mo3 O3 2.360337 1_545
Mo4 O28 1.737413 1_455
Mo4 O44 1.752372 1_555
Mo4 O36 1.922427 1_555
Mo4 O20 2.034882 1_555
Mo4 O12 2.192561 1_455
Mo4 O4 2.360337 1_555
Mo5 O29 1.737413 1_555
Mo5 O45 1.752372 1_555
Mo5 O37 1.922427 1_555
Mo5 O21 2.034882 1_545
Mo5 O13 2.192561 1_545
Mo5 O5 2.360337 1_545
Mo6 O30 1.737413 1_555
Mo6 O46 1.752372 1_555
Mo6 O38 1.922427 1_555
Mo6 O22 2.034882 1_555
Mo6 O14 2.192561 1_555
Mo6 O6 2.360337 1_555
Mo7 O31 1.737413 1_455
Mo7 O47 1.752372 1_555
Mo7 O39 1.922427 1_555
Mo7 O23 2.034882 1_565
Mo7 O15 2.192561 1_465
Mo7 O7 2.360337 1_565
Mo8 O56 1.748264 1_555
Mo8 O64 1.749009 1_655
Mo8 O48 1.907264 1_655
Mo8 O16 1.940552 1_555
Mo8 O8 2.258240 1_655
Mo9 O57 1.748264 1_555
Mo9 O65 1.749009 1_555
Mo9 O49 1.907264 1_555
Mo9 O17 1.940552 1_555
Mo9 O9 2.258240 1_555
Mo10 O58 1.748264 1_555
Mo10 O66 1.749009 1_555
Mo10 O50 1.907264 1_555
Mo10 O18 1.940552 1_555
Mo10 O10 2.258240 1_555
Mo11 O59 1.748264 1_555
Mo11 O67 1.749009 1_655
Mo11 O51 1.907264 1_655
Mo11 O19 1.940552 1_555
Mo11 O11 2.258240 1_655
Mo12 O60 1.748264 1_555
Mo12 O68 1.749009 1_455
Mo12 O52 1.907264 1_455
Mo12 O20 1.940552 1_555
Mo12 O12 2.258240 1_455
Mo13 O61 1.748264 1_555
Mo13 O69 1.749009 1_555
Mo13 O53 1.907264 1_555
Mo13 O21 1.940552 1_555
Mo13 O13 2.258240 1_555
Mo14 O62 1.748264 1_555
Mo14 O70 1.749009 1_555
Mo14 O54 1.907264 1_555
Mo14 O22 1.940552 1_555
Mo14 O14 2.258240 1_555
Mo15 O63 1.748264 1_555
Mo15 O71 1.749009 1_455
Mo15 O55 1.907264 1_455
Mo15 O23 1.940552 1_555
Mo15 O15 2.258240 1_455
Mo16 O6 1.772561 1_555
Mo16 O72 1.777961 1_555
Mo16 O8 1.901907 1_555
Mo16 O80 1.946397 1_555
Mo16 O48 2.224249 1_555
Mo16 O78 2.320789 1_455
Mo17 O7 1.772561 1_555
Mo17 O73 1.777961 1_555
Mo17 O9 1.901907 1_555
Mo17 O81 1.946397 1_555
Mo17 O49 2.224249 1_555
Mo17 O79 2.320789 1_555
Mo18 O4 1.772561 1_555
Mo18 O74 1.777961 1_555
Mo18 O10 1.901907 1_555
Mo18 O82 1.946397 1_555
Mo18 O50 2.224249 1_555
Mo18 O76 2.320789 1_555
Mo19 O5 1.772561 1_555
Mo19 O75 1.777961 1_555
Mo19 O11 1.901907 1_555
Mo19 O83 1.946397 1_555
Mo19 O51 2.224249 1_555
Mo19 O77 2.320789 1_455
Mo20 O2 1.772561 1_555
Mo20 O76 1.777961 1_555
Mo20 O12 1.901907 1_555
Mo20 O84 1.946397 1_555
Mo20 O52 2.224249 1_555
Mo20 O74 2.320789 1_655
Mo21 O3 1.772561 1_555
Mo21 O77 1.777961 1_555
Mo21 O13 1.901907 1_555
Mo21 O85 1.946397 1_555
Mo21 O53 2.224249 1_555
Mo21 O75 2.320789 1_555
Mo22 O0 1.772561 1_555
Mo22 O78 1.777961 1_555
Mo22 O14 1.901907 1_555
Mo22 O86 1.946397 1_555
Mo22 O54 2.224249 1_555
Mo22 O72 2.320789 1_555
Mo23 O1 1.772561 1_555
Mo23 O79 1.777961 1_555
Mo23 O15 1.901907 1_555
Mo23 O87 1.946397 1_555
Mo23 O55 2.224249 1_555
Mo23 O73 2.320789 1_655
Mo24 O96 1.739665 1_555
Mo24 O88 1.788438 1_555
Mo24 O39 1.906699 1_555
Mo24 O80 2.055438 1_555
Mo24 O94 2.183551 1_455
Mo24 O48 2.183774 1_555
Mo25 O97 1.739665 1_555
Mo25 O89 1.788438 1_555
Mo25 O38 1.906699 1_555
Mo25 O81 2.055438 1_555
Mo25 O95 2.183551 1_555
Mo25 O49 2.183774 1_555
Mo26 O98 1.739665 1_555
Mo26 O90 1.788438 1_555
Mo26 O37 1.906699 1_555
Mo26 O82 2.055438 1_555
Mo26 O92 2.183551 1_555
Mo26 O50 2.183774 1_555
Mo27 O99 1.739665 1_555
Mo27 O91 1.788438 1_555
Mo27 O36 1.906699 1_555
Mo27 O83 2.055438 1_555
Mo27 O93 2.183551 1_455
Mo27 O51 2.183774 1_555
Mo28 O100 1.739665 1_555
Mo28 O92 1.788438 1_555
Mo28 O35 1.906699 1_555
Mo28 O84 2.055438 1_555
Mo28 O90 2.183551 1_655
Mo28 O52 2.183774 1_555
Mo29 O101 1.739665 1_555
Mo29 O93 1.788438 1_555
Mo29 O34 1.906699 1_555
Mo29 O85 2.055438 1_555
Mo29 O91 2.183551 1_555
Mo29 O53 2.183774 1_555
Mo30 O102 1.739665 1_555
Mo30 O94 1.788438 1_555
Mo30 O33 1.906699 1_555
Mo30 O86 2.055438 1_555
Mo30 O88 2.183551 1_555
Mo30 O54 2.183774 1_555
Mo31 O103 1.739665 1_555
Mo31 O95 1.788438 1_555
Mo31 O32 1.906699 1_555
Mo31 O87 2.055438 1_555
Mo31 O89 2.183551 1_655
Mo31 O55 2.183774 1_555
H0 O104 0.993657 1_555
H1 O105 0.993657 1_655
H2 O106 0.993657 1_655
H3 O107 0.993657 1_555
H4 O108 0.993657 1_555
H5 O109 0.993657 1_455
H6 O110 0.993657 1_455
H7 O111 0.993657 1_555
H8 O104 0.983658 1_555
H9 O105 0.983658 1_555
H10 O106 0.983658 1_555
H11 O107 0.983658 1_555
H12 O108 0.983658 1_555
H13 O109 0.983658 1_555
H14 O110 0.983658 1_555
H15 O111 0.983658 1_555
H16 O112 0.985145 1_555
H17 O113 0.985145 1_555
H18 O114 0.985145 1_555
H19 O115 0.985145 1_555
H20 O116 0.985145 1_555
H21 O117 0.985145 1_555
H22 O118 0.985145 1_555
H23 O119 0.985145 1_555
H24 O112 0.987258 1_555
H25 O113 0.987258 1_555
H26 O114 0.987258 1_555
H27 O115 0.987258 1_555
H28 O116 0.987258 1_555
H29 O117 0.987258 1_555
H30 O118 0.987258 1_555
H31 O119 0.987258 1_555
O16 Sr0 2.633813 1_554
O17 Sr1 2.633813 1_555
O18 Sr2 2.633813 1_555
O19 Sr3 2.633813 1_556
O20 Sr4 2.633813 1_556
O21 Sr5 2.633813 1_555
O22 Sr6 2.633813 1_555
O23 Sr7 2.633813 1_554
O24 Sr4 2.732355 1_555
O25 Sr5 2.732355 1_555
O26 Sr6 2.732355 1_555
O27 Sr7 2.732355 1_555
O28 Sr0 2.732355 1_555
O29 Sr1 2.732355 1_555
O30 Sr2 2.732355 1_555
O31 Sr3 2.732355 1_555
O40 Sr4 2.670183 1_555
O41 Sr5 2.670183 1_655
O42 Sr6 2.670183 1_655
O43 Sr7 2.670183 1_555
O44 Sr0 2.670183 1_555
O45 Sr1 2.670183 1_455
O46 Sr2 2.670183 1_455
O47 Sr3 2.670183 1_555
O56 Sr3 2.631019 1_555
O57 Sr2 2.631019 1_555
O58 Sr1 2.631019 1_555
O59 Sr0 2.631019 1_555
O60 Sr7 2.631019 1_555
O61 Sr6 2.631019 1_555
O62 Sr5 2.631019 1_555
O63 Sr4 2.631019 1_555
O96 Sr5 2.728207 1_555
O97 Sr4 2.728207 1_555
O98 Sr7 2.728207 1_555
O99 Sr6 2.728207 1_555
O100 Sr1 2.728207 1_555
O101 Sr0 2.728207 1_555
O102 Sr3 2.728207 1_555
O103 Sr2 2.728207 1_555
O104 Sr3 2.619625 1_555
O104 Sr0 3.040008 1_554
O105 Sr2 2.619625 1_455
O105 Sr1 3.040008 1_455
O106 Sr1 2.619625 1_455
O106 Sr2 3.040008 1_455
O107 Sr0 2.619625 1_555
O107 Sr3 3.040008 1_556
O108 Sr7 2.619625 1_555
O108 Sr4 3.040008 1_556
O109 Sr6 2.619625 1_655
O109 Sr5 3.040008 1_655
O110 Sr5 2.619625 1_655
O110 Sr6 3.040008 1_655
O111 Sr4 2.619625 1_555
O111 Sr7 3.040008 1_554
O112 Sr2 2.625515 1_555
O112 Sr6 2.897254 1_655
O113 Sr3 2.625515 1_545
O113 Sr7 2.897254 1_554
O114 Sr0 2.625515 1_555
O114 Sr4 2.897254 1_556
O115 Sr1 2.625515 1_565
O115 Sr5 2.897254 1_655
O116 Sr6 2.625515 1_555
O116 Sr2 2.897254 1_455
O117 Sr7 2.625515 1_565
O117 Sr3 2.897254 1_556
O118 Sr4 2.625515 1_555
O118 Sr0 2.897254 1_554
O119 Sr5 2.625515 1_545
O119 Sr1 2.897254 1_455
