# generated using pymatgen
data_Li3TiMn4O8
_symmetry_space_group_name_H-M   'P 1'
_cell_length_a   6.15859406
_cell_length_b   6.15421005
_cell_length_c   6.12446510
_cell_angle_alpha   120.00058267
_cell_angle_beta   119.14056232
_cell_angle_gamma   59.92351808
_symmetry_Int_Tables_number   1
_chemical_formula_structural   Li3TiMn4O8
_chemical_formula_sum   'Li3 Ti1 Mn4 O8'
_cell_volume   165.07898613
_cell_formula_units_Z   1
loop_
 _symmetry_equiv_pos_site_id
 _symmetry_equiv_pos_as_xyz
  1  'x, y, z'
loop_
 _atom_site_type_symbol
 _atom_site_label
 _atom_site_symmetry_multiplicity
 _atom_site_fract_x
 _atom_site_fract_y
 _atom_site_fract_z
 _atom_site_occupancy
  Li  Li0  1  0.00020900  0.00007400  0.50033100  1
  Li  Li1  1  0.00009600  0.50001900  0.00037400  1
  Li  Li2  1  0.50018900  0.99984600  0.99991100  1
  Ti  Ti0  1  0.50015900  0.49976100  0.99963000  1
  Mn  Mn0  1  0.00016500  0.99992500  0.00035300  1
  Mn  Mn1  1  0.50012100  0.99991300  0.49994600  1
  Mn  Mn2  1  0.49956900  0.49991400  0.49950800  1
  Mn  Mn3  1  0.99966500  0.50016800  0.50016200  1
  O  O0  1  0.28774100  0.24738100  0.75122500  1
  O  O1  1  0.71229600  0.75274100  0.24861500  1
  O  O2  1  0.72631400  0.77449200  0.72629100  1
  O  O3  1  0.27325000  0.22582600  0.27357700  1
  O  O4  1  0.25312200  0.71785000  0.21743900  1
  O  O5  1  0.72893300  0.26988600  0.22980200  1
  O  O6  1  0.27105600  0.73006200  0.77021300  1
  O  O7  1  0.74711600  0.28214100  0.78262200  1
loop_
_geom_bond_atom_site_label_1
_geom_bond_atom_site_label_2
_geom_bond_distance
_geom_bond_site_symmetry_2
Li0 O7 2.311534 1_455
Li0 O4 2.313419 1_545
Li0 O0 2.350721 1_555
Li0 O1 2.352433 1_445
Li0 O6 2.357749 1_545
Li0 O5 2.359732 1_455
Li1 O7 2.070249 1_454
Li1 O4 2.070460 1_555
Li1 O1 2.317042 1_455
Li1 O0 2.320207 1_554
Li1 O3 2.390401 1_555
Li1 O2 2.395477 1_454
Li2 O2 2.164222 1_555
Li2 O3 2.167681 1_566
Li2 O1 2.174073 1_556
Li2 O0 2.175780 1_565
Li2 O5 2.191741 1_566
Li2 O6 2.192306 1_555
Mn0 O5 2.166792 1_465
Mn0 O6 2.167997 1_554
Mn0 O4 2.188231 1_555
Mn0 O7 2.191483 1_464
Mn0 O3 2.199474 1_565
Mn0 O2 2.201378 1_454
Mn1 O2 1.972873 1_555
Mn1 O3 1.975149 1_565
Mn1 O1 2.003948 1_555
Mn1 O0 2.004627 1_565
Mn1 O4 2.323951 1_555
Mn1 O7 2.324702 1_565
Mn2 O5 2.158127 1_555
Mn2 O6 2.159060 1_555
Mn2 O4 2.193156 1_555
Mn2 O7 2.197356 1_555
Mn2 O3 2.201534 1_555
Mn2 O2 2.205392 1_555
Mn3 O2 2.164727 1_555
Mn3 O3 2.167497 1_655
Mn3 O5 2.205257 1_555
Mn3 O6 2.206494 1_655
Mn3 O0 2.213824 1_655
Mn3 O1 2.214438 1_555
O0 Ti0 2.042939 1_555
O1 Ti0 2.044607 1_554
O4 Ti0 2.008717 1_554
O5 Ti0 2.008937 1_554
O6 Ti0 2.007507 1_555
O7 Ti0 2.005048 1_555
