# generated using pymatgen
data_CdO2
_symmetry_space_group_name_H-M   'P 1'
_cell_length_a   6.54213351
_cell_length_b   6.54213351
_cell_length_c   3.65235641
_cell_angle_alpha   73.88469201
_cell_angle_beta   73.88469201
_cell_angle_gamma   130.96743919
_symmetry_Int_Tables_number   1
_chemical_formula_structural   CdO2
_chemical_formula_sum   'Cd2 O4'
_cell_volume   87.73809662
_cell_formula_units_Z   2
loop_
 _symmetry_equiv_pos_site_id
 _symmetry_equiv_pos_as_xyz
  1  'x, y, z'
loop_
 _atom_site_type_symbol
 _atom_site_label
 _atom_site_symmetry_multiplicity
 _atom_site_fract_x
 _atom_site_fract_y
 _atom_site_fract_z
 _atom_site_occupancy
  Cd  Cd0  1  0.11661300  0.82319900  0.06101000  1
  Cd  Cd1  1  0.82319900  0.11661300  0.06101000  1
  O  O0  1  0.04659800  0.04659800  0.36970600  1
  O  O1  1  0.66832600  0.66832600  0.17525700  1
  O  O2  1  0.22257600  0.69969000  0.57650900  1
  O  O3  1  0.69969000  0.22257600  0.57650900  1
loop_
_geom_bond_atom_site_label_1
_geom_bond_atom_site_label_2
_geom_bond_distance
_geom_bond_site_symmetry_2
Cd0 O1 2.234124 1_455
Cd0 O2 2.260988 1_554
Cd0 O0 2.263376 1_565
Cd0 O3 2.264088 1_564
Cd0 O2 2.300615 1_555
Cd0 O3 2.326562 1_455
Cd1 O1 2.234124 1_545
Cd1 O3 2.260988 1_554
Cd1 O0 2.263376 1_655
Cd1 O2 2.264088 1_654
Cd1 O3 2.300615 1_555
Cd1 O2 2.326562 1_545
