# generated using pymatgen
data_RbVN2
_symmetry_space_group_name_H-M   'P 1'
_cell_length_a   5.78950147
_cell_length_b   5.78129761
_cell_length_c   8.19917746
_cell_angle_alpha   89.99999725
_cell_angle_beta   135.08113861
_cell_angle_gamma   119.95313746
_symmetry_Int_Tables_number   1
_chemical_formula_structural   RbVN2
_chemical_formula_sum   'Rb2 V2 N4'
_cell_volume   137.02217536
_cell_formula_units_Z   2
loop_
 _symmetry_equiv_pos_site_id
 _symmetry_equiv_pos_as_xyz
  1  'x, y, z'
loop_
 _atom_site_type_symbol
 _atom_site_label
 _atom_site_symmetry_multiplicity
 _atom_site_fract_x
 _atom_site_fract_y
 _atom_site_fract_z
 _atom_site_occupancy
  Rb  Rb0  1  0.00000000  0.50000000  0.75000000  1
  Rb  Rb1  1  0.00000000  0.00000000  0.50000000  1
  V  V0  1  0.00000000  0.50000000  0.25000000  1
  V  V1  1  0.00000000  -0.00000000  0.00000000  1
  N  N0  1  0.50000000  0.19730788  0.12500000  1
  N  N1  1  0.50000000  0.80269212  0.62500000  1
  N  N2  1  0.10538324  0.30269212  0.17769212  1
  N  N3  1  0.89461676  0.69730788  0.07230788  1
loop_
_geom_bond_atom_site_label_1
_geom_bond_atom_site_label_2
_geom_bond_distance
_geom_bond_site_symmetry_2
N0 V0 1.797825 1_655
N0 V1 1.797825 1_555
N0 Rb1 3.134785 1_655
N0 Rb0 3.134785 1_544
N0 Rb1 3.411083 1_554
N0 Rb0 3.411083 1_655
N1 V1 1.797825 1_666
N1 V0 1.797825 1_555
N1 Rb0 3.134785 1_665
N1 Rb1 3.134785 1_565
N1 Rb0 3.411083 1_555
N1 Rb1 3.411083 1_665
N2 V0 1.797820 1_555
N2 V1 1.797829 1_555
N2 Rb0 3.134787 1_655
N2 Rb1 3.134787 1_665
N2 Rb1 3.411081 1_555
N2 Rb0 3.411085 1_554
N3 V0 1.797825 1_655
N3 V1 1.797825 1_665
N3 Rb1 3.134784 1_554
N3 Rb0 3.134790 1_554
N3 Rb0 3.411078 1_654
N3 Rb1 3.411088 1_665
