# generated using pymatgen
data_Ce2NiPt
_symmetry_space_group_name_H-M   'P 1'
_cell_length_a   5.77491316
_cell_length_b   5.77491316
_cell_length_c   4.33758734
_cell_angle_alpha   90.00000000
_cell_angle_beta   90.00000000
_cell_angle_gamma   141.12348566
_symmetry_Int_Tables_number   1
_chemical_formula_structural   Ce2NiPt
_chemical_formula_sum   'Ce2 Ni1 Pt1'
_cell_volume   90.79303452
_cell_formula_units_Z   1
loop_
 _symmetry_equiv_pos_site_id
 _symmetry_equiv_pos_as_xyz
  1  'x, y, z'
loop_
 _atom_site_type_symbol
 _atom_site_label
 _atom_site_symmetry_multiplicity
 _atom_site_fract_x
 _atom_site_fract_y
 _atom_site_fract_z
 _atom_site_occupancy
  Ce  Ce0  1  0.13963242  0.86036758  0.00000000  1
  Ce  Ce1  1  0.86425001  0.13574999  0.50000000  1
  Ni  Ni0  1  0.41414437  0.58585563  -0.00000000  1
  Pt  Pt0  1  0.58197420  0.41802580  0.50000000  1
loop_
_geom_bond_atom_site_label_1
_geom_bond_atom_site_label_2
_geom_bond_distance
_geom_bond_site_symmetry_2
Ce0 Pt0 2.965045 1_454
Ce0 Pt0 2.965045 1_455
Ce0 Pt0 2.965045 1_564
Ce0 Pt0 2.965045 1_565
Ce0 Ni0 2.989845 1_555
Ce0 Ni0 3.118480 1_455
Ce0 Ni0 3.118480 1_565
Ce1 Ni0 2.948294 1_655
Ce1 Ni0 2.948294 1_546
Ce1 Ni0 2.948294 1_656
Ce1 Ni0 2.948294 1_545
Ce1 Pt0 3.052331 1_655
Ce1 Pt0 3.052331 1_545
Ce1 Pt0 3.074405 1_555
Ni0 Pt0 2.836362 1_554
Ni0 Pt0 2.836362 1_555
