# generated using pymatgen
data_Rb2TcCl6
_symmetry_space_group_name_H-M   'P 1'
_cell_length_a   7.08071118
_cell_length_b   7.08071264
_cell_length_c   7.08072208
_cell_angle_alpha   59.99994226
_cell_angle_beta   59.99996267
_cell_angle_gamma   60.00009507
_symmetry_Int_Tables_number   1
_chemical_formula_structural   Rb2TcCl6
_chemical_formula_sum   'Rb2 Tc1 Cl6'
_cell_volume   251.02466724
_cell_formula_units_Z   1
loop_
 _symmetry_equiv_pos_site_id
 _symmetry_equiv_pos_as_xyz
  1  'x, y, z'
loop_
 _atom_site_type_symbol
 _atom_site_label
 _atom_site_symmetry_multiplicity
 _atom_site_fract_x
 _atom_site_fract_y
 _atom_site_fract_z
 _atom_site_occupancy
  Rb  Rb0  1  0.25000000  0.25000000  0.25000000  1
  Rb  Rb1  1  0.75000000  0.75000000  0.75000000  1
  Tc  Tc0  1  0.00000000  -0.00000000  -0.00000000  1
  Cl  Cl0  1  0.76385778  0.23614222  0.23614222  1
  Cl  Cl1  1  0.23614222  0.76385778  0.76385778  1
  Cl  Cl2  1  0.23614222  0.76385778  0.23614222  1
  Cl  Cl3  1  0.76385778  0.23614222  0.76385778  1
  Cl  Cl4  1  0.23614222  0.23614222  0.76385778  1
  Cl  Cl5  1  0.76385778  0.76385778  0.23614222  1
loop_
_geom_bond_atom_site_label_1
_geom_bond_atom_site_label_2
_geom_bond_distance
_geom_bond_site_symmetry_2
Cl0 Tc0 2.364647 1_655
Cl0 Rb1 3.543074 1_554
Cl0 Rb0 3.543074 1_655
Cl0 Rb1 3.543074 1_545
Cl0 Rb0 3.543074 1_555
Cl1 Tc0 2.364647 1_566
Cl1 Rb1 3.543074 1_555
Cl1 Rb1 3.543074 1_455
Cl1 Rb0 3.543074 1_565
Cl1 Rb0 3.543074 1_556
Cl2 Tc0 2.364646 1_565
Cl2 Rb0 3.543075 1_565
Cl2 Rb1 3.543075 1_455
Cl2 Rb1 3.543075 1_554
Cl2 Rb0 3.543075 1_555
Cl3 Tc0 2.364646 1_656
Cl3 Rb1 3.543075 1_555
Cl3 Rb0 3.543075 1_556
Cl3 Rb0 3.543075 1_655
Cl3 Rb1 3.543075 1_545
Cl4 Tc0 2.364640 1_556
Cl4 Rb1 3.543080 1_455
Cl4 Rb0 3.543080 1_556
Cl4 Rb1 3.543080 1_545
Cl4 Rb0 3.543080 1_555
Cl5 Tc0 2.364640 1_665
Cl5 Rb0 3.543080 1_565
Cl5 Rb1 3.543080 1_555
Cl5 Rb0 3.543080 1_655
Cl5 Rb1 3.543080 1_554
