# generated using pymatgen
data_ThZn11
_symmetry_space_group_name_H-M   'P 1'
_cell_length_a   4.37624100
_cell_length_b   5.12147900
_cell_length_c   9.30317400
_cell_angle_alpha   90.00000000
_cell_angle_beta   90.00000000
_cell_angle_gamma   90.00000000
_symmetry_Int_Tables_number   1
_chemical_formula_structural   ThZn11
_chemical_formula_sum   'Th1 Zn11'
_cell_volume   208.51042365
_cell_formula_units_Z   1
loop_
 _symmetry_equiv_pos_site_id
 _symmetry_equiv_pos_as_xyz
  1  'x, y, z'
loop_
 _atom_site_type_symbol
 _atom_site_label
 _atom_site_symmetry_multiplicity
 _atom_site_fract_x
 _atom_site_fract_y
 _atom_site_fract_z
 _atom_site_occupancy
  Th  Th0  1  0.00000000  0.50000000  0.00000000  1
  Zn  Zn0  1  0.00000000  0.50000000  0.35284000  1
  Zn  Zn1  1  0.00000000  0.00000000  0.78735800  1
  Zn  Zn2  1  0.00000000  0.00000000  0.21264200  1
  Zn  Zn3  1  0.00000000  0.50000000  0.64716000  1
  Zn  Zn4  1  0.50000000  0.50000000  0.50000000  1
  Zn  Zn5  1  0.50000000  0.00000000  0.00000000  1
  Zn  Zn6  1  0.50000000  0.73923200  0.23643800  1
  Zn  Zn7  1  0.50000000  0.26076800  0.76356200  1
  Zn  Zn8  1  0.50000000  0.26076800  0.23643800  1
  Zn  Zn9  1  0.50000000  0.73923200  0.76356200  1
  Zn  Zn10  1  0.00000000  0.00000000  0.50000000  1
loop_
_geom_bond_atom_site_label_1
_geom_bond_atom_site_label_2
_geom_bond_distance
_geom_bond_site_symmetry_2
Th0 Zn2 3.235868 1_565
Th0 Zn1 3.235868 1_564
Th0 Zn1 3.235868 1_554
Th0 Zn2 3.235868 1_555
Th0 Zn3 3.282532 1_554
Th0 Zn0 3.282532 1_555
Th0 Zn8 3.335773 1_455
Th0 Zn6 3.335773 1_555
Th0 Zn8 3.335773 1_555
Th0 Zn6 3.335773 1_455
Th0 Zn9 3.335773 1_554
Th0 Zn7 3.335773 1_554
Th0 Zn7 3.335773 1_454
Th0 Zn9 3.335773 1_454
Th0 Zn5 3.368272 1_465
Th0 Zn5 3.368272 1_565
Th0 Zn5 3.368272 1_555
Th0 Zn5 3.368272 1_455
Zn0 Zn4 2.581121 1_555
Zn0 Zn4 2.581121 1_455
Zn0 Zn8 2.731617 1_455
Zn0 Zn6 2.731617 1_555
Zn0 Zn8 2.731617 1_555
Zn0 Zn6 2.731617 1_455
Zn0 Zn3 2.738110 1_555
Zn0 Zn2 2.873769 1_555
Zn0 Zn2 2.873769 1_565
Zn0 Zn10 2.903739 1_565
Zn0 Zn10 2.903739 1_555
Zn1 Zn7 2.573031 1_555
Zn1 Zn9 2.573031 1_445
Zn1 Zn7 2.573031 1_455
Zn1 Zn9 2.573031 1_545
Zn1 Zn10 2.673341 1_555
Zn1 Zn3 2.873769 1_555
Zn1 Zn3 2.873769 1_545
Zn1 Zn5 2.949801 1_556
Zn1 Zn5 2.949801 1_456
Zn2 Zn8 2.573031 1_455
Zn2 Zn6 2.573031 1_545
Zn2 Zn8 2.573031 1_555
Zn2 Zn6 2.573031 1_445
Zn2 Zn5 2.949801 1_555
Zn2 Zn5 2.949801 1_455
Zn3 Zn4 2.581121 1_555
Zn3 Zn4 2.581121 1_455
Zn3 Zn9 2.731617 1_555
Zn3 Zn9 2.731617 1_455
Zn3 Zn7 2.731617 1_455
Zn3 Zn7 2.731617 1_555
Zn4 Zn7 2.741038 1_555
Zn4 Zn9 2.741038 1_555
Zn4 Zn6 2.741038 1_555
Zn4 Zn8 2.741038 1_555
Zn5 Zn6 2.573316 1_545
Zn5 Zn8 2.573316 1_555
Zn5 Zn7 2.573316 1_554
Zn5 Zn9 2.573316 1_544
Zn6 Zn8 2.450443 1_555
Zn6 Zn8 2.671036 1_565
Zn7 Zn9 2.450443 1_555
Zn7 Zn9 2.671036 1_545
Zn10 Zn2 2.673341 1_555
Zn10 Zn3 2.903739 1_545
Zn10 Zn3 2.903739 1_555
