# generated using pymatgen
data_Ag3P2N(O3F)2
_symmetry_space_group_name_H-M   'P 1'
_cell_length_a   16.49682179
_cell_length_b   16.49682179
_cell_length_c   9.99075703
_cell_angle_alpha   72.98300697
_cell_angle_beta   72.98300697
_cell_angle_gamma   19.36486254
_symmetry_Int_Tables_number   1
_chemical_formula_structural   Ag3P2N(O3F)2
_chemical_formula_sum   'Ag12 P8 N4 O24 F8'
_cell_volume   860.90400150
_cell_formula_units_Z   4
loop_
 _symmetry_equiv_pos_site_id
 _symmetry_equiv_pos_as_xyz
  1  'x, y, z'
loop_
 _atom_site_type_symbol
 _atom_site_label
 _atom_site_symmetry_multiplicity
 _atom_site_fract_x
 _atom_site_fract_y
 _atom_site_fract_z
 _atom_site_occupancy
  Ag  Ag0  1  0.81862800  0.27418000  0.82920100  1
  Ag  Ag1  1  0.72582000  0.18137200  0.17079900  1
  Ag  Ag2  1  0.36698300  0.72486000  0.32944800  1
  Ag  Ag3  1  0.27514000  0.63301700  0.67055200  1
  Ag  Ag4  1  0.21746800  0.78253200  0.00000000  1
  Ag  Ag5  1  0.87754300  0.12245700  0.50000000  1
  Ag  Ag6  1  0.58770500  0.00102100  0.00463900  1
  Ag  Ag7  1  0.99897900  0.41229500  0.99536100  1
  Ag  Ag8  1  0.09592500  0.49112200  0.49586700  1
  Ag  Ag9  1  0.50887800  0.90407500  0.50413300  1
  Ag  Ag10  1  0.52608900  0.97624200  0.74972300  1
  Ag  Ag11  1  0.02375800  0.47391100  0.25027700  1
  P  P0  1  0.10580900  0.51222200  0.81621600  1
  P  P1  1  0.48777800  0.89419100  0.18378400  1
  P  P2  1  0.61232300  0.00616700  0.31545600  1
  P  P3  1  0.99383300  0.38767700  0.68454400  1
  P  P4  1  0.90473700  0.21293600  0.14137900  1
  P  P5  1  0.78706400  0.09526300  0.85862100  1
  P  P6  1  0.30679200  0.81184800  0.64112000  1
  P  P7  1  0.18815200  0.69320800  0.35888000  1
  N  N0  1  0.44933800  0.80308300  0.91204100  1
  N  N1  1  0.19691700  0.55066200  0.08795900  1
  N  N2  1  0.90745700  0.34370300  0.40867000  1
  N  N3  1  0.65629700  0.09254300  0.59133000  1
  O  O0  1  0.24319000  0.35356600  0.70071600  1
  O  O1  1  0.64643400  0.75681000  0.29928400  1
  O  O2  1  0.76380600  0.83611100  0.20236800  1
  O  O3  1  0.16388900  0.23619400  0.79763200  1
  O  O4  1  0.18647600  0.38953000  0.96257900  1
  O  O5  1  0.61047000  0.81352400  0.03742100  1
  O  O6  1  0.68824200  0.89007000  0.46405300  1
  O  O7  1  0.10993000  0.31175800  0.53594700  1
  O  O8  1  0.82700400  0.77556500  0.80547900  1
  O  O9  1  0.22443500  0.17299600  0.19452100  1
  O  O10  1  0.33535900  0.26383400  0.29993300  1
  O  O11  1  0.73616600  0.66464100  0.70006700  1
  O  O12  1  0.72599600  0.35227600  0.05103800  1
  O  O13  1  0.64772400  0.27400400  0.94896200  1
  O  O14  1  0.44528000  0.63347300  0.55128300  1
  O  O15  1  0.36652700  0.55472000  0.44871700  1
  O  O16  1  0.16190000  0.93160500  0.13786700  1
  O  O17  1  0.06839500  0.83810000  0.86213300  1
  O  O18  1  0.02575000  0.06879100  0.63793800  1
  O  O19  1  0.93120900  0.97425000  0.36206200  1
  O  O20  1  0.79963200  0.30165100  0.29039900  1
  O  O21  1  0.69834900  0.20036800  0.70960100  1
  O  O22  1  0.39556300  0.70722800  0.79043300  1
  O  O23  1  0.29277200  0.60443700  0.20956700  1
  F  F0  1  0.18401900  0.53518100  0.78882600  1
  F  F1  1  0.46481900  0.81598100  0.21117400  1
  F  F2  1  0.67681800  0.04327300  0.28797800  1
  F  F3  1  0.95672700  0.32318200  0.71202200  1
  F  F4  1  0.94173200  0.27725700  0.07003600  1
  F  F5  1  0.72274300  0.05826800  0.92996400  1
  F  F6  1  0.37259300  0.84730500  0.56911000  1
  F  F7  1  0.15269500  0.62740700  0.43089000  1
loop_
_geom_bond_atom_site_label_1
_geom_bond_atom_site_label_2
_geom_bond_distance
_geom_bond_site_symmetry_2
Ag0 O12 2.209357 1_556
Ag0 O18 2.220399 1_655
Ag0 O22 2.404420 1_555
Ag0 O13 2.723862 1_555
Ag1 O13 2.209357 1_554
Ag1 O19 2.220399 1_545
Ag1 O23 2.404420 1_555
Ag1 O12 2.723862 1_555
Ag2 O14 2.213328 1_555
Ag2 O16 2.222427 1_555
Ag2 O20 2.403964 1_555
Ag2 O15 2.715678 1_555
Ag3 O15 2.213328 1_555
Ag3 O17 2.222427 1_555
Ag3 O21 2.403964 1_555
Ag3 O14 2.715678 1_555
Ag4 O22 2.365182 1_554
Ag4 O23 2.365182 1_555
Ag4 O16 2.403187 1_555
Ag4 O17 2.403187 1_554
Ag5 O21 2.357720 1_555
Ag5 O20 2.357720 1_555
Ag5 O18 2.415480 1_655
Ag5 O19 2.415480 1_545
Ag6 O2 2.245939 1_545
Ag6 O4 2.252155 1_554
Ag6 O8 2.325217 1_544
Ag6 O5 2.665117 1_545
Ag7 O3 2.245939 1_655
Ag7 O5 2.252155 1_556
Ag7 O9 2.325217 1_656
Ag7 O4 2.665117 1_655
Ag8 O0 2.242732 1_555
Ag8 O6 2.270867 1_455
Ag8 O10 2.306130 1_555
Ag8 O7 2.653256 1_555
Ag9 O1 2.242732 1_555
Ag9 O7 2.270867 1_565
Ag9 O11 2.306130 1_555
Ag9 O6 2.653256 1_555
Ag10 O8 2.333095 1_555
Ag10 O3 2.345419 1_565
Ag10 O0 2.346642 1_565
Ag10 O11 2.356515 1_555
Ag11 O9 2.333095 1_555
Ag11 O2 2.345419 1_455
Ag11 O1 2.346642 1_455
Ag11 O10 2.356515 1_555
O0 P0 1.537190 1_555
O1 P1 1.537190 1_555
O2 P2 1.538265 1_565
O3 P3 1.538265 1_455
O4 P0 1.526526 1_555
O5 P1 1.526526 1_555
O6 P2 1.529313 1_565
O7 P3 1.529313 1_455
O8 P0 1.534085 1_655
O9 P1 1.534085 1_545
O10 P2 1.533553 1_555
O11 P3 1.533553 1_555
O12 P4 1.532131 1_555
O13 P5 1.532131 1_555
O14 P6 1.531305 1_555
O15 P7 1.531305 1_555
O16 P4 1.547952 1_465
O17 P5 1.547952 1_465
O18 P6 1.545977 1_545
O19 P7 1.545977 1_655
O20 P4 1.530099 1_555
O21 P5 1.530099 1_555
O22 P6 1.533417 1_555
O23 P7 1.533417 1_555
F0 P0 1.593024 1_555
F1 P1 1.593024 1_555
F2 P2 1.594253 1_555
F3 P3 1.594253 1_555
F4 P4 1.590921 1_555
F5 P5 1.590921 1_555
F6 P6 1.591443 1_555
F7 P7 1.591443 1_555
