# generated using pymatgen
data_La5Pb3O
_symmetry_space_group_name_H-M   'P 1'
_cell_length_a   9.63349857
_cell_length_b   9.63349857
_cell_length_c   9.63349857
_cell_angle_alpha   125.60357389
_cell_angle_beta   125.60357389
_cell_angle_gamma   80.54067578
_symmetry_Int_Tables_number   1
_chemical_formula_structural   La5Pb3O
_chemical_formula_sum   'La10 Pb6 O2'
_cell_volume   570.03848923
_cell_formula_units_Z   2
loop_
 _symmetry_equiv_pos_site_id
 _symmetry_equiv_pos_as_xyz
  1  'x, y, z'
loop_
 _atom_site_type_symbol
 _atom_site_label
 _atom_site_symmetry_multiplicity
 _atom_site_fract_x
 _atom_site_fract_y
 _atom_site_fract_z
 _atom_site_occupancy
  La  La0  1  0.50011100  0.30224800  0.50000000  1
  La  La1  1  0.80224800  0.00011100  0.50000000  1
  La  La2  1  0.00011100  0.50011100  0.19786300  1
  La  La3  1  0.30224800  0.80224800  0.80213700  1
  La  La4  1  0.50057900  0.69813800  0.50000000  1
  La  La5  1  0.19813800  0.00057900  0.50000000  1
  La  La6  1  0.00057900  0.50057900  0.80244100  1
  La  La7  1  0.69813800  0.19813800  0.19755900  1
  La  La8  1  0.50987700  0.50987700  0.00000000  1
  La  La9  1  0.00987700  0.00987700  0.00000000  1
  Pb  Pb0  1  0.14426100  0.35523300  0.50000000  1
  Pb  Pb1  1  0.85523300  0.64426100  0.50000000  1
  Pb  Pb2  1  0.64426100  0.14426100  0.78902700  1
  Pb  Pb3  1  0.35523300  0.85523300  0.21097300  1
  Pb  Pb4  1  0.75098800  0.75098800  0.00000000  1
  Pb  Pb5  1  0.25098800  0.25098800  0.00000000  1
  O  O0  1  0.74998600  0.24998600  0.50000000  1
  O  O1  1  0.24998600  0.74998600  0.50000000  1
loop_
_geom_bond_atom_site_label_1
_geom_bond_atom_site_label_2
_geom_bond_distance
_geom_bond_site_symmetry_2
La0 O0 2.376887 1_555
La0 Pb0 3.381882 1_555
La0 Pb2 3.425608 1_555
La0 Pb3 3.425617 1_545
La0 Pb5 3.655811 1_555
La0 Pb4 3.655811 1_556
La1 O0 2.376887 1_555
La1 Pb1 3.381882 1_545
La1 Pb2 3.425608 1_555
La1 Pb3 3.425617 1_545
La1 Pb4 3.655811 1_545
La1 Pb5 3.655811 1_656
La2 O1 2.376887 1_555
La2 Pb2 3.381882 1_454
La2 Pb1 3.425616 1_455
La2 Pb0 3.425616 1_555
La2 Pb4 3.655811 1_455
La2 Pb5 3.655811 1_555
La3 O1 2.376887 1_555
La3 Pb3 3.381892 1_556
La3 Pb0 3.425616 1_555
La3 Pb1 3.425616 1_455
La3 Pb4 3.655811 1_556
La3 Pb5 3.655811 1_566
La4 O1 2.383477 1_555
La4 Pb1 3.370370 1_555
La4 Pb3 3.416697 1_555
La4 Pb2 3.416707 1_565
La4 Pb5 3.646739 1_555
La4 Pb4 3.646739 1_556
La5 O1 2.383477 1_545
La5 Pb0 3.370370 1_555
La5 Pb3 3.416697 1_545
La5 Pb2 3.416707 1_555
La5 Pb5 3.646739 1_556
La5 Pb4 3.646739 1_445
La6 O0 2.383477 1_455
La6 Pb3 3.370370 1_556
La6 Pb1 3.416705 1_455
La6 Pb0 3.416705 1_555
La6 Pb5 3.646739 1_556
La6 Pb4 3.646739 1_456
La7 O0 2.383477 1_555
La7 Pb2 3.370379 1_554
La7 Pb1 3.416705 1_555
La7 Pb0 3.416705 1_655
La7 Pb4 3.646739 1_545
La7 Pb5 3.646739 1_555
La8 Pb1 3.382615 1_555
La8 Pb0 3.382615 1_554
La8 Pb2 3.382618 1_554
La8 Pb3 3.382618 1_555
La8 Pb4 3.544519 1_555
La8 Pb5 3.805870 1_555
La9 Pb1 3.382615 1_444
La9 Pb0 3.382615 1_555
La9 Pb2 3.382618 1_454
La9 Pb3 3.382618 1_545
La9 Pb5 3.544519 1_555
La9 Pb4 3.805870 1_445
