# generated using pymatgen
data_Y6Mn11S20
_symmetry_space_group_name_H-M   'P 1'
_cell_length_a   3.84350701
_cell_length_b   3.84350651
_cell_length_c   74.58864760
_cell_angle_alpha   58.98290592
_cell_angle_beta   58.98291021
_cell_angle_gamma   60.00000153
_symmetry_Int_Tables_number   1
_chemical_formula_structural   Y6Mn11S20
_chemical_formula_sum   'Y6 Mn11 S20'
_cell_volume   766.94202015
_cell_formula_units_Z   1
loop_
 _symmetry_equiv_pos_site_id
 _symmetry_equiv_pos_as_xyz
  1  'x, y, z'
loop_
 _atom_site_type_symbol
 _atom_site_label
 _atom_site_symmetry_multiplicity
 _atom_site_fract_x
 _atom_site_fract_y
 _atom_site_fract_z
 _atom_site_occupancy
  Y  Y0  1  0.98599000  0.98599000  0.00210200  1
  Y  Y1  1  0.03444600  0.03444600  0.09483300  1
  Y  Y2  1  0.96604500  0.96604500  0.15509300  1
  Y  Y3  1  0.03395500  0.03395500  0.24490700  1
  Y  Y4  1  0.96555400  0.96555400  0.30516700  1
  Y  Y5  1  0.01401000  0.01401000  0.39789800  1
  Mn  Mn0  1  0.99498100  0.99498100  0.50075300  1
  Mn  Mn1  1  0.98646300  0.98646300  0.45203100  1
  Mn  Mn2  1  0.99962200  0.99962200  0.55005700  1
  Mn  Mn3  1  0.00040800  0.00040800  0.59993900  1
  Mn  Mn4  1  0.00000000  0.00000000  0.70000000  1
  Mn  Mn5  1  0.00043100  0.00043100  0.64993500  1
  Mn  Mn6  1  0.99956900  0.99956900  0.75006500  1
  Mn  Mn7  1  0.99959200  0.99959200  0.80006100  1
  Mn  Mn8  1  0.00037800  0.00037800  0.84994300  1
  Mn  Mn9  1  0.01353700  0.01353700  0.94796900  1
  Mn  Mn10  1  0.00501900  0.00501900  0.89924700  1
  S  S0  1  0.50510900  0.50510900  0.02423400  1
  S  S1  1  0.51665100  0.51665100  0.07250200  1
  S  S2  1  0.50112700  0.50112700  0.12483100  1
  S  S3  1  0.48624100  0.48624100  0.17706400  1
  S  S4  1  0.51375900  0.51375900  0.22293600  1
  S  S5  1  0.49887300  0.49887300  0.27516900  1
  S  S6  1  0.48334900  0.48334900  0.32749800  1
  S  S7  1  0.49489100  0.49489100  0.37576600  1
  S  S8  1  0.47422600  0.47422600  0.42886600  1
  S  S9  1  0.48912400  0.48912400  0.47663100  1
  S  S10  1  0.49546300  0.49546300  0.52568100  1
  S  S11  1  0.49774700  0.49774700  0.57533800  1
  S  S12  1  0.49889000  0.49889000  0.62516600  1
  S  S13  1  0.49968400  0.49968400  0.67504700  1
  S  S14  1  0.50031600  0.50031600  0.72495300  1
  S  S15  1  0.50111000  0.50111000  0.77483400  1
  S  S16  1  0.50225300  0.50225300  0.82466200  1
  S  S17  1  0.50453700  0.50453700  0.87431900  1
  S  S18  1  0.51087600  0.51087600  0.92336900  1
  S  S19  1  0.52577400  0.52577400  0.97113400  1
loop_
_geom_bond_atom_site_label_1
_geom_bond_atom_site_label_2
_geom_bond_distance
_geom_bond_site_symmetry_2
Mn0 S9 2.648622 1_665
Mn0 S9 2.648652 1_655
Mn0 S9 2.648652 1_565
Mn0 S10 2.675318 1_555
Mn0 S10 2.675334 1_565
Mn0 S10 2.675334 1_655
Mn1 S8 2.617740 1_665
Mn1 S8 2.617771 1_655
Mn1 S8 2.617771 1_565
Mn1 S9 2.664379 1_565
Mn1 S9 2.664380 1_655
Mn1 S9 2.664427 1_555
Mn2 S10 2.656983 1_655
Mn2 S10 2.656983 1_565
Mn2 S10 2.656992 1_665
Mn2 S11 2.687202 1_565
Mn2 S11 2.687202 1_655
Mn2 S11 2.687216 1_555
Mn3 S11 2.664423 1_555
Mn3 S11 2.664431 1_545
Mn3 S11 2.664431 1_455
Mn3 S12 2.685369 1_455
Mn3 S12 2.685369 1_545
Mn3 S12 2.685408 1_445
Mn4 S14 2.676151 1_445
Mn4 S13 2.676151 1_555
Mn4 S14 2.676173 1_455
Mn4 S13 2.676173 1_545
Mn4 S14 2.676174 1_545
Mn4 S13 2.676174 1_455
Mn5 S12 2.670011 1_555
Mn5 S12 2.670019 1_545
Mn5 S12 2.670019 1_455
Mn5 S13 2.681505 1_455
Mn5 S13 2.681505 1_545
Mn5 S13 2.681508 1_445
Mn6 S15 2.670011 1_555
Mn6 S15 2.670019 1_565
Mn6 S15 2.670019 1_655
Mn6 S14 2.681505 1_655
Mn6 S14 2.681505 1_565
Mn6 S14 2.681508 1_665
Mn7 S16 2.664423 1_555
Mn7 S16 2.664431 1_565
Mn7 S16 2.664431 1_655
Mn7 S15 2.685369 1_655
Mn7 S15 2.685369 1_565
Mn7 S15 2.685408 1_665
Mn8 S17 2.656983 1_455
Mn8 S17 2.656983 1_545
Mn8 S17 2.656992 1_445
Mn8 S16 2.687202 1_545
Mn8 S16 2.687202 1_455
Mn8 S16 2.687216 1_555
Mn9 S19 2.617740 1_445
Mn9 S19 2.617771 1_455
Mn9 S19 2.617771 1_545
Mn9 S18 2.664379 1_545
Mn9 S18 2.664380 1_455
Mn9 S18 2.664427 1_555
Mn10 S18 2.648622 1_445
Mn10 S18 2.648652 1_455
Mn10 S18 2.648652 1_545
Mn10 S17 2.675318 1_555
Mn10 S17 2.675334 1_545
Mn10 S17 2.675334 1_455
S0 Y0 2.585440 1_545
S0 Y0 2.585440 1_455
S0 Y0 2.585448 1_555
S1 Y1 2.591575 1_555
S1 Y1 2.591589 1_565
S1 Y1 2.591590 1_655
S2 Y1 2.856245 1_665
S2 Y1 2.856253 1_565
S2 Y1 2.856253 1_655
S2 Y2 2.866236 1_545
S2 Y2 2.866236 1_455
S2 Y2 2.866251 1_445
S3 Y2 2.580488 1_555
S3 Y2 2.580510 1_545
S3 Y2 2.580511 1_455
S4 Y3 2.580488 1_555
S4 Y3 2.580510 1_565
S4 Y3 2.580511 1_655
S5 Y4 2.856245 1_445
S5 Y4 2.856253 1_545
S5 Y4 2.856253 1_455
S5 Y3 2.866236 1_565
S5 Y3 2.866236 1_655
S5 Y3 2.866251 1_665
S6 Y4 2.591575 1_555
S6 Y4 2.591589 1_545
S6 Y4 2.591590 1_455
S7 Y5 2.585440 1_565
S7 Y5 2.585440 1_655
S7 Y5 2.585448 1_555
S8 Y5 2.893201 1_665
S8 Y5 2.893221 1_565
S8 Y5 2.893221 1_655
S19 Y0 2.893201 1_446
S19 Y0 2.893221 1_546
S19 Y0 2.893221 1_456
