# generated using pymatgen
data_Ti4H3Pd2
_symmetry_space_group_name_H-M   'P 1'
_cell_length_a   5.71431600
_cell_length_b   5.71431600
_cell_length_c   25.30519000
_cell_angle_alpha   90.00000000
_cell_angle_beta   90.00000000
_cell_angle_gamma   90.00000000
_symmetry_Int_Tables_number   1
_chemical_formula_structural   Ti4H3Pd2
_chemical_formula_sum   'Ti32 H24 Pd16'
_cell_volume   826.30067708
_cell_formula_units_Z   8
loop_
 _symmetry_equiv_pos_site_id
 _symmetry_equiv_pos_as_xyz
  1  'x, y, z'
loop_
 _atom_site_type_symbol
 _atom_site_label
 _atom_site_symmetry_multiplicity
 _atom_site_fract_x
 _atom_site_fract_y
 _atom_site_fract_z
 _atom_site_occupancy
  Ti  Ti0_0  1  0.00000000  0.00000000  0.16952950  1
  Ti  Ti0_1  1  0.00000000  0.00000000  0.66952950  1
  Ti  Ti0_2  1  0.00000000  0.50000000  0.16952950  1
  Ti  Ti0_3  1  0.00000000  0.50000000  0.66952950  1
  Ti  Ti0_4  1  0.50000000  0.00000000  0.16952950  1
  Ti  Ti0_5  1  0.50000000  0.00000000  0.66952950  1
  Ti  Ti0_6  1  0.50000000  0.50000000  0.16952950  1
  Ti  Ti0_7  1  0.50000000  0.50000000  0.66952950  1
  Ti  Ti1_0  1  0.00000000  0.00000000  0.33047050  1
  Ti  Ti1_1  1  0.00000000  0.00000000  0.83047050  1
  Ti  Ti1_2  1  0.00000000  0.50000000  0.33047050  1
  Ti  Ti1_3  1  0.00000000  0.50000000  0.83047050  1
  Ti  Ti1_4  1  0.50000000  0.00000000  0.33047050  1
  Ti  Ti1_5  1  0.50000000  0.00000000  0.83047050  1
  Ti  Ti1_6  1  0.50000000  0.50000000  0.33047050  1
  Ti  Ti1_7  1  0.50000000  0.50000000  0.83047050  1
  Ti  Ti2_0  1  0.25000000  0.25000000  0.41325350  1
  Ti  Ti2_1  1  0.25000000  0.25000000  0.91325350  1
  Ti  Ti2_2  1  0.25000000  0.75000000  0.41325350  1
  Ti  Ti2_3  1  0.25000000  0.75000000  0.91325350  1
  Ti  Ti2_4  1  0.75000000  0.25000000  0.41325350  1
  Ti  Ti2_5  1  0.75000000  0.25000000  0.91325350  1
  Ti  Ti2_6  1  0.75000000  0.75000000  0.41325350  1
  Ti  Ti2_7  1  0.75000000  0.75000000  0.91325350  1
  Ti  Ti3_0  1  0.25000000  0.25000000  0.08674650  1
  Ti  Ti3_1  1  0.25000000  0.25000000  0.58674650  1
  Ti  Ti3_2  1  0.25000000  0.75000000  0.08674650  1
  Ti  Ti3_3  1  0.25000000  0.75000000  0.58674650  1
  Ti  Ti3_4  1  0.75000000  0.25000000  0.08674650  1
  Ti  Ti3_5  1  0.75000000  0.25000000  0.58674650  1
  Ti  Ti3_6  1  0.75000000  0.75000000  0.08674650  1
  Ti  Ti3_7  1  0.75000000  0.75000000  0.58674650  1
  H  H0_0  1  0.25000000  0.25000000  0.00000000  1
  H  H0_1  1  0.25000000  0.25000000  0.50000000  1
  H  H0_2  1  0.25000000  0.75000000  0.00000000  1
  H  H0_3  1  0.25000000  0.75000000  0.50000000  1
  H  H0_4  1  0.75000000  0.25000000  0.00000000  1
  H  H0_5  1  0.75000000  0.25000000  0.50000000  1
  H  H0_6  1  0.75000000  0.75000000  0.00000000  1
  H  H0_7  1  0.75000000  0.75000000  0.50000000  1
  H  H1_0  1  0.25000000  0.25000000  0.16142700  1
  H  H1_1  1  0.25000000  0.25000000  0.66142700  1
  H  H1_2  1  0.25000000  0.75000000  0.16142700  1
  H  H1_3  1  0.25000000  0.75000000  0.66142700  1
  H  H1_4  1  0.75000000  0.25000000  0.16142700  1
  H  H1_5  1  0.75000000  0.25000000  0.66142700  1
  H  H1_6  1  0.75000000  0.75000000  0.16142700  1
  H  H1_7  1  0.75000000  0.75000000  0.66142700  1
  H  H2_0  1  0.25000000  0.25000000  0.33857300  1
  H  H2_1  1  0.25000000  0.25000000  0.83857300  1
  H  H2_2  1  0.25000000  0.75000000  0.33857300  1
  H  H2_3  1  0.25000000  0.75000000  0.83857300  1
  H  H2_4  1  0.75000000  0.25000000  0.33857300  1
  H  H2_5  1  0.75000000  0.25000000  0.83857300  1
  H  H2_6  1  0.75000000  0.75000000  0.33857300  1
  H  H2_7  1  0.75000000  0.75000000  0.83857300  1
  Pd  Pd0_0  1  0.00000000  0.00000000  0.00000000  1
  Pd  Pd0_1  1  0.00000000  0.00000000  0.50000000  1
  Pd  Pd0_2  1  0.00000000  0.50000000  0.00000000  1
  Pd  Pd0_3  1  0.00000000  0.50000000  0.50000000  1
  Pd  Pd0_4  1  0.50000000  0.00000000  0.00000000  1
  Pd  Pd0_5  1  0.50000000  0.00000000  0.50000000  1
  Pd  Pd0_6  1  0.50000000  0.50000000  0.00000000  1
  Pd  Pd0_7  1  0.50000000  0.50000000  0.50000000  1
  Pd  Pd1_0  1  0.25000000  0.25000000  0.25000000  1
  Pd  Pd1_1  1  0.25000000  0.25000000  0.75000000  1
  Pd  Pd1_2  1  0.25000000  0.75000000  0.25000000  1
  Pd  Pd1_3  1  0.25000000  0.75000000  0.75000000  1
  Pd  Pd1_4  1  0.75000000  0.25000000  0.25000000  1
  Pd  Pd1_5  1  0.75000000  0.25000000  0.75000000  1
  Pd  Pd1_6  1  0.75000000  0.75000000  0.25000000  1
  Pd  Pd1_7  1  0.75000000  0.75000000  0.75000000  1
loop_
_geom_bond_atom_site_label_1
_geom_bond_atom_site_label_2
_geom_bond_distance
_geom_bond_site_symmetry_2
H0_0 Pd0_4 2.020316 1_555
H0_0 Pd0_2 2.020316 1_555
H0_0 Pd0_6 2.020316 1_555
H0_0 Pd0_0 2.020316 1_555
H0_0 Ti2_1 2.195137 1_554
H0_0 Ti3_0 2.195137 1_555
H0_1 Pd0_1 2.020316 1_555
H0_1 Pd0_7 2.020316 1_555
H0_1 Pd0_5 2.020316 1_555
H0_1 Pd0_3 2.020316 1_555
H0_1 Ti2_0 2.195137 1_555
H0_1 Ti3_1 2.195137 1_555
H0_2 Pd0_0 2.020316 1_565
H0_2 Pd0_4 2.020316 1_565
H0_2 Pd0_2 2.020316 1_555
H0_2 Pd0_6 2.020316 1_555
H0_2 Ti2_3 2.195137 1_554
H0_2 Ti3_2 2.195137 1_555
H0_3 Pd0_7 2.020316 1_555
H0_3 Pd0_1 2.020316 1_565
H0_3 Pd0_5 2.020316 1_565
H0_3 Pd0_3 2.020316 1_555
H0_3 Ti2_2 2.195137 1_555
H0_3 Ti3_3 2.195137 1_555
H0_4 Pd0_0 2.020316 1_655
H0_4 Pd0_4 2.020316 1_555
H0_4 Pd0_2 2.020316 1_655
H0_4 Pd0_6 2.020316 1_555
H0_4 Ti2_5 2.195137 1_554
H0_4 Ti3_4 2.195137 1_555
H0_5 Pd0_7 2.020316 1_555
H0_5 Pd0_1 2.020316 1_655
H0_5 Pd0_5 2.020316 1_555
H0_5 Pd0_3 2.020316 1_655
H0_5 Ti2_4 2.195137 1_555
H0_5 Ti3_5 2.195137 1_555
H0_6 Pd0_4 2.020316 1_565
H0_6 Pd0_2 2.020316 1_655
H0_6 Pd0_6 2.020316 1_555
H0_6 Pd0_0 2.020316 1_665
H0_6 Ti2_7 2.195137 1_554
H0_6 Ti3_6 2.195137 1_555
H0_7 Pd0_7 2.020316 1_555
H0_7 Pd0_1 2.020316 1_665
H0_7 Pd0_5 2.020316 1_565
H0_7 Pd0_3 2.020316 1_655
H0_7 Ti2_6 2.195137 1_555
H0_7 Ti3_7 2.195137 1_555
H1_0 Ti3_0 1.889804 1_555
H1_0 Ti0_0 2.030693 1_555
H1_0 Ti0_6 2.030693 1_555
H1_0 Ti0_4 2.030693 1_555
H1_0 Ti0_2 2.030693 1_555
H1_0 Pd1_0 2.241357 1_555
H1_1 Ti3_1 1.889804 1_555
H1_1 Ti0_5 2.030693 1_555
H1_1 Ti0_3 2.030693 1_555
H1_1 Ti0_7 2.030693 1_555
H1_1 Ti0_1 2.030693 1_555
H1_1 Pd1_1 2.241357 1_555
H1_2 Ti3_2 1.889804 1_555
H1_2 Ti0_6 2.030693 1_555
H1_2 Ti0_0 2.030693 1_565
H1_2 Ti0_4 2.030693 1_565
H1_2 Ti0_2 2.030693 1_555
H1_2 Pd1_2 2.241357 1_555
H1_3 Ti3_3 1.889804 1_555
H1_3 Ti0_5 2.030693 1_565
H1_3 Ti0_3 2.030693 1_555
H1_3 Ti0_7 2.030693 1_555
H1_3 Ti0_1 2.030693 1_565
H1_3 Pd1_3 2.241357 1_555
H1_4 Ti3_4 1.889804 1_555
H1_4 Ti0_2 2.030693 1_655
H1_4 Ti0_6 2.030693 1_555
H1_4 Ti0_4 2.030693 1_555
H1_4 Ti0_0 2.030693 1_655
H1_4 Pd1_4 2.241357 1_555
H1_5 Ti3_5 1.889804 1_555
H1_5 Ti0_5 2.030693 1_555
H1_5 Ti0_7 2.030693 1_555
H1_5 Ti0_3 2.030693 1_655
H1_5 Ti0_1 2.030693 1_655
H1_5 Pd1_5 2.241357 1_555
H1_6 Ti3_6 1.889804 1_555
H1_6 Ti0_2 2.030693 1_655
H1_6 Ti0_6 2.030693 1_555
H1_6 Ti0_4 2.030693 1_565
H1_6 Ti0_0 2.030693 1_665
H1_6 Pd1_6 2.241357 1_555
H1_7 Ti3_7 1.889804 1_555
H1_7 Ti0_1 2.030693 1_665
H1_7 Ti0_5 2.030693 1_565
H1_7 Ti0_7 2.030693 1_555
H1_7 Ti0_3 2.030693 1_655
H1_7 Pd1_7 2.241357 1_555
H2_0 Ti2_0 1.889804 1_555
H2_0 Ti1_4 2.030693 1_555
H2_0 Ti1_6 2.030693 1_555
H2_0 Ti1_0 2.030693 1_555
H2_0 Ti1_2 2.030693 1_555
H2_0 Pd1_0 2.241357 1_555
H2_1 Ti2_1 1.889804 1_555
H2_1 Ti1_3 2.030693 1_555
H2_1 Ti1_1 2.030693 1_555
H2_1 Ti1_7 2.030693 1_555
H2_1 Ti1_5 2.030693 1_555
H2_1 Pd1_1 2.241357 1_555
H2_2 Ti2_2 1.889804 1_555
H2_2 Ti1_4 2.030693 1_565
H2_2 Ti1_6 2.030693 1_555
H2_2 Ti1_0 2.030693 1_565
H2_2 Ti1_2 2.030693 1_555
H2_2 Pd1_2 2.241357 1_555
H2_3 Ti2_3 1.889804 1_555
H2_3 Ti1_3 2.030693 1_555
H2_3 Ti1_7 2.030693 1_555
H2_3 Ti1_5 2.030693 1_565
H2_3 Ti1_1 2.030693 1_565
H2_3 Pd1_3 2.241357 1_555
H2_4 Ti2_4 1.889804 1_555
H2_4 Ti1_2 2.030693 1_655
H2_4 Ti1_0 2.030693 1_655
H2_4 Ti1_4 2.030693 1_555
H2_4 Ti1_6 2.030693 1_555
H2_4 Pd1_4 2.241357 1_555
H2_5 Ti2_5 1.889804 1_555
H2_5 Ti1_1 2.030693 1_655
H2_5 Ti1_7 2.030693 1_555
H2_5 Ti1_5 2.030693 1_555
H2_5 Ti1_3 2.030693 1_655
H2_5 Pd1_5 2.241357 1_555
H2_6 Ti2_6 1.889804 1_555
H2_6 Ti1_2 2.030693 1_655
H2_6 Ti1_4 2.030693 1_565
H2_6 Ti1_0 2.030693 1_665
H2_6 Ti1_6 2.030693 1_555
H2_6 Pd1_6 2.241357 1_555
H2_7 Ti2_7 1.889804 1_555
H2_7 Ti1_1 2.030693 1_665
H2_7 Ti1_7 2.030693 1_555
H2_7 Ti1_3 2.030693 1_655
H2_7 Ti1_5 2.030693 1_565
H2_7 Pd1_7 2.241357 1_555
Pd1_0 Pd1_4 2.857158 1_555
Pd1_0 Pd1_2 2.857158 1_555
Pd1_0 Pd1_4 2.857158 1_455
Pd1_0 Pd1_2 2.857158 1_545
Pd1_0 Ti1_2 2.868498 1_555
Pd1_0 Ti1_6 2.868498 1_555
Pd1_0 Ti0_2 2.868498 1_555
Pd1_0 Ti0_0 2.868498 1_555
Pd1_0 Ti0_6 2.868498 1_555
Pd1_0 Ti1_4 2.868498 1_555
Pd1_0 Ti0_4 2.868498 1_555
Pd1_0 Ti1_0 2.868498 1_555
Pd1_1 Pd1_3 2.857158 1_555
Pd1_1 Pd1_5 2.857158 1_455
Pd1_1 Pd1_5 2.857158 1_555
Pd1_1 Pd1_3 2.857158 1_545
Pd1_1 Ti1_7 2.868498 1_555
Pd1_1 Ti0_5 2.868498 1_555
Pd1_1 Ti1_1 2.868498 1_555
Pd1_1 Ti1_5 2.868498 1_555
Pd1_1 Ti0_3 2.868498 1_555
Pd1_1 Ti0_7 2.868498 1_555
Pd1_1 Ti1_3 2.868498 1_555
Pd1_1 Ti0_1 2.868498 1_555
Pd1_2 Pd1_6 2.857158 1_555
Pd1_2 Pd1_6 2.857158 1_455
Pd1_2 Ti0_4 2.868498 1_565
Pd1_2 Ti1_2 2.868498 1_555
Pd1_2 Ti0_2 2.868498 1_555
Pd1_2 Ti1_6 2.868498 1_555
Pd1_2 Ti1_0 2.868498 1_565
Pd1_2 Ti1_4 2.868498 1_565
Pd1_2 Ti0_6 2.868498 1_555
Pd1_2 Ti0_0 2.868498 1_565
Pd1_3 Pd1_7 2.857158 1_455
Pd1_3 Pd1_7 2.857158 1_555
Pd1_3 Ti0_1 2.868498 1_565
Pd1_3 Ti1_7 2.868498 1_555
Pd1_3 Ti0_5 2.868498 1_565
Pd1_3 Ti0_7 2.868498 1_555
Pd1_3 Ti1_1 2.868498 1_565
Pd1_3 Ti0_3 2.868498 1_555
Pd1_3 Ti1_5 2.868498 1_565
Pd1_3 Ti1_3 2.868498 1_555
Pd1_4 Pd1_6 2.857158 1_555
Pd1_4 Pd1_6 2.857158 1_545
Pd1_4 Ti1_6 2.868498 1_555
Pd1_4 Ti1_2 2.868498 1_655
Pd1_4 Ti1_0 2.868498 1_655
Pd1_4 Ti0_2 2.868498 1_655
Pd1_4 Ti0_6 2.868498 1_555
Pd1_4 Ti1_4 2.868498 1_555
Pd1_4 Ti0_4 2.868498 1_555
Pd1_4 Ti0_0 2.868498 1_655
Pd1_5 Pd1_7 2.857158 1_545
Pd1_5 Pd1_7 2.857158 1_555
Pd1_5 Ti0_1 2.868498 1_655
Pd1_5 Ti1_7 2.868498 1_555
Pd1_5 Ti0_5 2.868498 1_555
Pd1_5 Ti1_5 2.868498 1_555
Pd1_5 Ti1_3 2.868498 1_655
Pd1_5 Ti0_7 2.868498 1_555
Pd1_5 Ti1_1 2.868498 1_655
Pd1_5 Ti0_3 2.868498 1_655
Pd1_6 Ti0_4 2.868498 1_565
Pd1_6 Ti0_0 2.868498 1_665
Pd1_6 Ti1_6 2.868498 1_555
Pd1_6 Ti1_0 2.868498 1_665
Pd1_6 Ti1_2 2.868498 1_655
Pd1_6 Ti1_4 2.868498 1_565
Pd1_6 Ti0_6 2.868498 1_555
Pd1_6 Ti0_2 2.868498 1_655
Pd1_7 Ti1_7 2.868498 1_555
Pd1_7 Ti0_1 2.868498 1_665
Pd1_7 Ti1_3 2.868498 1_655
Pd1_7 Ti0_5 2.868498 1_565
Pd1_7 Ti1_5 2.868498 1_565
Pd1_7 Ti0_7 2.868498 1_555
Pd1_7 Ti0_3 2.868498 1_655
Pd1_7 Ti1_1 2.868498 1_665
