# generated using pymatgen
data_Co2NiO4
_symmetry_space_group_name_H-M   'P 1'
_cell_length_a   5.71920812
_cell_length_b   5.71360396
_cell_length_c   8.14697489
_cell_angle_alpha   45.58674303
_cell_angle_beta   45.36660436
_cell_angle_gamma   60.06633692
_symmetry_Int_Tables_number   1
_chemical_formula_structural   Co2NiO4
_chemical_formula_sum   'Co4 Ni2 O8'
_cell_volume   135.31024793
_cell_formula_units_Z   2
loop_
 _symmetry_equiv_pos_site_id
 _symmetry_equiv_pos_as_xyz
  1  'x, y, z'
loop_
 _atom_site_type_symbol
 _atom_site_label
 _atom_site_symmetry_multiplicity
 _atom_site_fract_x
 _atom_site_fract_y
 _atom_site_fract_z
 _atom_site_occupancy
  Co  Co0  1  0.75000000  0.75000000  0.87500000  1
  Co  Co1  1  0.75000000  0.25000000  0.37500000  1
  Co  Co2  1  0.25000000  0.75000000  0.37500000  1
  Co  Co3  1  0.25000000  0.25000000  0.37500000  1
  Ni  Ni0  1  0.49542100  0.49787500  0.75473100  1
  Ni  Ni1  1  0.00457900  0.00212500  0.99526900  1
  O  O0  1  0.27983700  0.28141100  0.57920700  1
  O  O1  1  0.27495000  0.72050800  0.14161900  1
  O  O2  1  0.72227600  0.27572100  0.13988500  1
  O  O3  1  0.72212000  0.72129700  0.14075900  1
  O  O4  1  0.22016300  0.21858900  0.17079300  1
  O  O5  1  0.22505000  0.77949200  0.60838100  1
  O  O6  1  0.77772400  0.22427900  0.61011500  1
  O  O7  1  0.77788000  0.77870300  0.60924100  1
loop_
_geom_bond_atom_site_label_1
_geom_bond_atom_site_label_2
_geom_bond_distance
_geom_bond_site_symmetry_2
Co0 O5 1.944315 1_655
Co0 O1 1.944315 1_556
Co0 O7 1.945284 1_555
Co0 O3 1.945284 1_556
Co0 O2 1.946380 1_556
Co0 O6 1.946380 1_565
Co1 O4 1.918559 1_655
Co1 O0 1.918559 1_555
Co1 O7 1.930000 1_545
Co1 O3 1.930000 1_555
Co1 O6 1.930102 1_555
Co1 O2 1.930102 1_555
Co2 O4 1.916672 1_565
Co2 O0 1.916672 1_555
Co2 O5 1.925381 1_555
Co2 O1 1.925381 1_555
Co2 O3 1.927485 1_555
Co2 O7 1.927485 1_455
Co3 O4 1.917422 1_555
Co3 O0 1.917422 1_555
Co3 O5 1.926094 1_545
Co3 O1 1.926094 1_555
Co3 O2 1.928358 1_555
Co3 O6 1.928358 1_455
Ni0 O7 1.955374 1_555
Ni0 O5 1.955508 1_555
Ni0 O6 1.955669 1_555
Ni0 O4 1.988128 1_556
Ni1 O3 1.955374 1_446
Ni1 O1 1.955508 1_546
Ni1 O2 1.955669 1_456
Ni1 O0 1.988128 1_555
