# generated using pymatgen
data_La6Mn(SiS7)2
_symmetry_space_group_name_H-M   'P 1'
_cell_length_a   10.39304252
_cell_length_b   10.39304252
_cell_length_c   5.78012900
_cell_angle_alpha   90.00000000
_cell_angle_beta   90.00000000
_cell_angle_gamma   120.00000334
_symmetry_Int_Tables_number   1
_chemical_formula_structural   La6Mn(SiS7)2
_chemical_formula_sum   'La6 Mn1 Si2 S14'
_cell_volume   540.69649789
_cell_formula_units_Z   1
loop_
 _symmetry_equiv_pos_site_id
 _symmetry_equiv_pos_as_xyz
  1  'x, y, z'
loop_
 _atom_site_type_symbol
 _atom_site_label
 _atom_site_symmetry_multiplicity
 _atom_site_fract_x
 _atom_site_fract_y
 _atom_site_fract_z
 _atom_site_occupancy
  La  La0  1  0.90105400  0.69013200  0.25080100  1
  La  La1  1  0.30986800  0.21092100  0.25080100  1
  La  La2  1  0.78907900  0.09894600  0.25080100  1
  La  La3  1  0.43277100  0.97723700  0.75156500  1
  La  La4  1  0.02276300  0.45553300  0.75156500  1
  La  La5  1  0.54446700  0.56722900  0.75156500  1
  Mn  Mn0  1  0.66666700  0.33333300  0.48844600  1
  Si  Si0  1  0.00000000  0.00000000  0.83568300  1
  Si  Si1  1  0.33333300  0.66666700  0.33726500  1
  S  S0  1  0.00000000  0.00000000  0.47125600  1
  S  S1  1  0.33333300  0.66666700  0.97242700  1
  S  S2  1  0.82607300  0.57551500  0.72941000  1
  S  S3  1  0.42448500  0.25055700  0.72941000  1
  S  S4  1  0.74944300  0.17392700  0.72941000  1
  S  S5  1  0.50577900  0.09167000  0.25081200  1
  S  S6  1  0.90833000  0.41410900  0.25081200  1
  S  S7  1  0.58589100  0.49422100  0.25081200  1
  S  S8  1  0.78258700  0.85722100  0.97654100  1
  S  S9  1  0.14277900  0.92536600  0.97654100  1
  S  S10  1  0.07463400  0.21741300  0.97654100  1
  S  S11  1  0.55074800  0.80886800  0.47784000  1
  S  S12  1  0.19113200  0.74188000  0.47784000  1
  S  S13  1  0.25812000  0.44925200  0.47784000  1
loop_
_geom_bond_atom_site_label_1
_geom_bond_atom_site_label_2
_geom_bond_distance
_geom_bond_site_symmetry_2
La0 S7 2.864503 1_555
La0 S6 2.907266 1_555
La0 S9 2.942712 1_654
La0 S2 2.958222 1_555
La0 S8 3.030304 1_554
La0 S12 3.078796 1_655
La0 S0 3.121042 1_665
La0 S2 3.190677 1_554
La1 S5 2.864495 1_555
La1 S7 2.907272 1_555
La1 S10 2.942717 1_554
La1 S3 2.958222 1_555
La1 S9 3.030297 1_544
La1 S13 3.078805 1_555
La1 S0 3.121040 1_555
La1 S3 3.190677 1_554
La2 S6 2.864504 1_555
La2 S5 2.907277 1_555
La2 S8 2.942708 1_544
La2 S4 2.958222 1_555
La2 S10 3.030296 1_654
La2 S11 3.078799 1_545
La2 S0 3.121033 1_655
La2 S4 3.190677 1_554
La3 S4 2.880836 1_565
La3 S3 2.887490 1_565
La3 S12 2.941173 1_555
La3 S11 3.035503 1_555
La3 S5 3.068405 1_566
La3 S9 3.072530 1_555
La3 S5 3.076593 1_565
La3 S1 3.127376 1_555
La4 S2 2.880837 1_455
La4 S4 2.887490 1_455
La4 S13 2.941168 1_555
La4 S12 3.035510 1_555
La4 S6 3.068405 1_456
La4 S10 3.072521 1_555
La4 S6 3.076593 1_455
La4 S1 3.127380 1_555
La5 S3 2.880837 1_555
La5 S2 2.887490 1_555
La5 S11 2.941177 1_555
La5 S13 3.035511 1_555
La5 S7 3.068402 1_556
La5 S8 3.072527 1_555
La5 S7 3.076590 1_555
La5 S1 3.127395 1_555
Mn0 S6 2.605976 1_555
Mn0 S5 2.605978 1_555
Mn0 S7 2.605984 1_555
Mn0 S2 2.617244 1_555
Mn0 S3 2.617244 1_555
Mn0 S4 2.617244 1_555
S0 Si0 2.106435 1_555
S1 Si1 2.108811 1_556
S8 Si0 2.148853 1_665
S9 Si0 2.148853 1_565
S10 Si0 2.148853 1_555
S11 Si1 2.147266 1_555
S12 Si1 2.147259 1_555
S13 Si1 2.147268 1_555
