# generated using pymatgen
data_Ce3Tm
_symmetry_space_group_name_H-M   'P 1'
_cell_length_a   6.96817426
_cell_length_b   6.96817426
_cell_length_c   5.70686800
_cell_angle_alpha   90.00000000
_cell_angle_beta   90.00000000
_cell_angle_gamma   120.00000245
_symmetry_Int_Tables_number   1
_chemical_formula_structural   Ce3Tm
_chemical_formula_sum   'Ce6 Tm2'
_cell_volume   239.97525072
_cell_formula_units_Z   2
loop_
 _symmetry_equiv_pos_site_id
 _symmetry_equiv_pos_as_xyz
  1  'x, y, z'
loop_
 _atom_site_type_symbol
 _atom_site_label
 _atom_site_symmetry_multiplicity
 _atom_site_fract_x
 _atom_site_fract_y
 _atom_site_fract_z
 _atom_site_occupancy
  Ce  Ce0  1  0.16703400  0.33406800  0.25000000  1
  Ce  Ce1  1  0.66593200  0.83296600  0.25000000  1
  Ce  Ce2  1  0.16703400  0.83296600  0.25000000  1
  Ce  Ce3  1  0.83296600  0.66593200  0.75000000  1
  Ce  Ce4  1  0.33406800  0.16703400  0.75000000  1
  Ce  Ce5  1  0.83296600  0.16703400  0.75000000  1
  Tm  Tm0  1  0.33333300  0.66666700  0.75000000  1
  Tm  Tm1  1  0.66666700  0.33333300  0.25000000  1
loop_
_geom_bond_atom_site_label_1
_geom_bond_atom_site_label_2
_geom_bond_distance
_geom_bond_site_symmetry_2
Ce0 Ce1 3.476408 1_555
Ce0 Ce2 3.476408 1_555
Ce0 Tm1 3.484086 1_455
Ce0 Tm1 3.484093 1_555
Ce0 Tm0 3.488634 1_555
Ce0 Tm0 3.488634 1_554
Ce0 Ce1 3.491766 1_445
Ce0 Ce2 3.491766 1_545
Ce0 Ce5 3.493741 1_455
Ce0 Ce5 3.493741 1_454
Ce0 Ce4 3.493741 1_554
Ce0 Ce4 3.493741 1_555
Ce1 Ce2 3.476408 1_555
Ce1 Tm1 3.484086 1_565
Ce1 Tm1 3.484093 1_555
Ce1 Tm0 3.488634 1_555
Ce1 Tm0 3.488634 1_554
Ce1 Ce2 3.491766 1_655
Ce1 Ce5 3.493741 1_565
Ce1 Ce5 3.493741 1_564
Ce1 Ce3 3.493741 1_555
Ce1 Ce3 3.493741 1_554
Ce2 Tm1 3.484090 1_455
Ce2 Tm1 3.484090 1_565
Ce2 Tm0 3.488630 1_555
Ce2 Tm0 3.488630 1_554
Ce2 Ce4 3.493741 1_565
Ce2 Ce4 3.493741 1_564
Ce2 Ce3 3.493741 1_454
Ce2 Ce3 3.493741 1_455
Ce3 Ce4 3.476408 1_555
Ce3 Ce5 3.476408 1_555
Ce3 Tm0 3.484086 1_655
Ce3 Tm0 3.484093 1_555
Ce3 Tm1 3.488634 1_556
Ce3 Tm1 3.488634 1_555
Ce3 Ce4 3.491766 1_665
Ce3 Ce5 3.491766 1_565
Ce4 Ce5 3.476408 1_555
Ce4 Tm0 3.484086 1_545
Ce4 Tm0 3.484093 1_555
Ce4 Tm1 3.488634 1_555
Ce4 Tm1 3.488634 1_556
Ce4 Ce5 3.491766 1_455
Ce5 Tm0 3.484090 1_545
Ce5 Tm0 3.484090 1_655
Ce5 Tm1 3.488630 1_556
Ce5 Tm1 3.488630 1_555
