# generated using pymatgen
data_Ba10Y5(Cu5O11)3
_symmetry_space_group_name_H-M   'P 1'
_cell_length_a   5.50592600
_cell_length_b   13.15661644
_cell_length_c   13.97057863
_cell_angle_alpha   114.20864941
_cell_angle_beta   100.05324459
_cell_angle_gamma   90.54419678
_symmetry_Int_Tables_number   1
_chemical_formula_structural   Ba10Y5(Cu5O11)3
_chemical_formula_sum   'Ba10 Y5 Cu15 O33'
_cell_volume   905.13717564
_cell_formula_units_Z   1
loop_
 _symmetry_equiv_pos_site_id
 _symmetry_equiv_pos_as_xyz
  1  'x, y, z'
loop_
 _atom_site_type_symbol
 _atom_site_label
 _atom_site_symmetry_multiplicity
 _atom_site_fract_x
 _atom_site_fract_y
 _atom_site_fract_z
 _atom_site_occupancy
  Ba  Ba0  1  0.14625700  0.19002200  0.27246700  1
  Ba  Ba1  1  0.34411100  0.19094100  0.67368500  1
  Ba  Ba2  1  0.53648600  0.18191700  0.07276400  1
  Ba  Ba3  1  0.73215200  0.19061900  0.47891400  1
  Ba  Ba4  1  0.92980500  0.19000600  0.87957800  1
  Ba  Ba5  1  0.26784800  0.80938100  0.52108600  1
  Ba  Ba6  1  0.46351400  0.81808300  0.92723600  1
  Ba  Ba7  1  0.65588900  0.80905900  0.32631500  1
  Ba  Ba8  1  0.85374300  0.80997800  0.72753300  1
  Ba  Ba9  1  0.07019500  0.80999400  0.12042200  1
  Y  Y0  1  0.19976900  0.49986200  0.40006200  1
  Y  Y1  1  0.80023100  0.50013800  0.59993800  1
  Y  Y2  1  0.40031700  0.50171000  0.80097500  1
  Y  Y3  1  0.00000000  0.50000000  0.00000000  1
  Y  Y4  1  0.59968300  0.49829000  0.19902500  1
  Cu  Cu0  1  0.07149800  0.35726500  0.14279700  1
  Cu  Cu1  1  0.67376200  0.35968500  0.34390300  1
  Cu  Cu2  1  0.27035400  0.36022800  0.54361900  1
  Cu  Cu3  1  0.87377500  0.36042800  0.74493500  1
  Cu  Cu4  1  0.46995500  0.35947200  0.94360300  1
  Cu  Cu5  1  0.12622500  0.63957200  0.25506500  1
  Cu  Cu6  1  0.72964600  0.63977200  0.45638100  1
  Cu  Cu7  1  0.32623800  0.64031500  0.65609700  1
  Cu  Cu8  1  0.92850200  0.64273500  0.85720300  1
  Cu  Cu9  1  0.53004500  0.64052800  0.05639700  1
  Cu  Cu10  1  0.00000000  0.00000000  0.00000000  1
  Cu  Cu11  1  0.58162300  0.99983300  0.19491100  1
  Cu  Cu12  1  0.21213300  0.99997700  0.40445000  1
  Cu  Cu13  1  0.78786700  0.00002300  0.59555000  1
  Cu  Cu14  1  0.41837700  0.00016700  0.80508900  1
  O  O0  1  0.87681800  0.38075500  0.25217100  1
  O  O1  1  0.47673500  0.38014900  0.45212100  1
  O  O2  1  0.07594600  0.38011900  0.65201200  1
  O  O3  1  0.67555900  0.38020500  0.85214900  1
  O  O4  1  0.27531300  0.38077000  0.05234900  1
  O  O5  1  0.92405400  0.61988100  0.34798800  1
  O  O6  1  0.52326500  0.61985100  0.54787900  1
  O  O7  1  0.12318200  0.61924500  0.74782900  1
  O  O8  1  0.72468700  0.61923000  0.94765100  1
  O  O9  1  0.32444100  0.61979500  0.14785100  1
  O  O10  1  0.03205100  0.15904500  0.06363900  1
  O  O11  1  0.65412800  0.15237200  0.26831100  1
  O  O12  1  0.20487900  0.15213500  0.45317700  1
  O  O13  1  0.85573500  0.15199800  0.66843700  1
  O  O14  1  0.40705000  0.15230700  0.85365300  1
  O  O15  1  0.14426500  0.84800200  0.33156300  1
  O  O16  1  0.79512100  0.84786500  0.54682300  1
  O  O17  1  0.34587200  0.84762800  0.73168900  1
  O  O18  1  0.96794900  0.84095500  0.93636100  1
  O  O19  1  0.59295000  0.84769300  0.14634700  1
  O  O20  1  0.37677200  0.37809400  0.25180300  1
  O  O21  1  0.97610100  0.37943800  0.45179300  1
  O  O22  1  0.57540700  0.37679100  0.65083800  1
  O  O23  1  0.17615400  0.38003600  0.85185500  1
  O  O24  1  0.77402800  0.37720200  0.05037500  1
  O  O25  1  0.42459300  0.62320900  0.34916200  1
  O  O26  1  0.02389900  0.62056200  0.54820700  1
  O  O27  1  0.62322800  0.62190600  0.74819700  1
  O  O28  1  0.22597200  0.62279800  0.94962500  1
  O  O29  1  0.82384600  0.61996400  0.14814500  1
  O  O30  1  0.28857200  0.99999500  0.09907800  1
  O  O31  1  0.50000000  0.00000000  0.50000000  1
  O  O32  1  0.71142800  0.00000500  0.90092200  1
loop_
_geom_bond_atom_site_label_1
_geom_bond_atom_site_label_2
_geom_bond_distance
_geom_bond_site_symmetry_2
Ba0 O10 2.729931 1_555
Ba0 O12 2.734411 1_555
Ba0 O11 2.736202 1_455
Ba0 O11 2.850867 1_555
Ba0 O30 2.909541 1_545
Ba0 O20 2.910484 1_555
Ba0 O1 3.006270 1_555
Ba0 O0 3.014249 1_455
Ba0 O21 3.017962 1_455
Ba1 O13 2.715252 1_455
Ba1 O14 2.728955 1_555
Ba1 O12 2.866486 1_555
Ba1 O13 2.876089 1_555
Ba1 O22 2.902638 1_555
Ba1 O31 2.950296 1_555
Ba1 O3 2.996772 1_555
Ba1 O2 2.999723 1_555
Ba1 O23 3.001506 1_555
Ba2 O10 2.765810 1_555
Ba2 O10 2.767189 1_655
Ba2 O14 2.878389 1_554
Ba2 O11 2.879558 1_555
Ba2 O32 2.925456 1_554
Ba2 O30 2.926064 1_545
Ba2 O24 3.024522 1_555
Ba2 O20 3.034441 1_555
Ba2 O0 3.086550 1_555
Ba2 O4 3.087732 1_555
Ba3 O12 2.713425 1_655
Ba3 O11 2.726712 1_555
Ba3 O13 2.865779 1_555
Ba3 O12 2.876130 1_555
Ba3 O22 2.907288 1_555
Ba3 O31 2.947310 1_555
Ba3 O1 2.997338 1_555
Ba3 O21 3.000874 1_555
Ba3 O2 3.002436 1_655
Ba4 O10 2.730044 1_656
Ba4 O13 2.735669 1_555
Ba4 O14 2.737072 1_655
Ba4 O14 2.850108 1_555
Ba4 O24 2.903445 1_556
Ba4 O32 2.909098 1_555
Ba4 O3 3.005663 1_555
Ba4 O4 3.013637 1_656
Ba4 O23 3.025502 1_655
Ba5 O16 2.713425 1_455
Ba5 O17 2.726712 1_555
Ba5 O15 2.865779 1_555
Ba5 O16 2.876130 1_555
Ba5 O25 2.907288 1_555
Ba5 O31 2.947310 1_565
Ba5 O6 2.997338 1_555
Ba5 O26 3.000874 1_555
Ba5 O5 3.002436 1_455
Ba6 O18 2.765810 1_555
Ba6 O18 2.767189 1_455
Ba6 O19 2.878389 1_556
Ba6 O17 2.879558 1_555
Ba6 O30 2.925456 1_556
Ba6 O32 2.926064 1_565
Ba6 O28 3.024522 1_555
Ba6 O27 3.034441 1_555
Ba6 O7 3.086550 1_555
Ba6 O8 3.087732 1_555
Ba7 O15 2.715252 1_655
Ba7 O19 2.728955 1_555
Ba7 O16 2.866486 1_555
Ba7 O15 2.876089 1_555
Ba7 O25 2.902638 1_555
Ba7 O31 2.950296 1_565
Ba7 O9 2.996772 1_555
Ba7 O5 2.999723 1_555
Ba7 O29 3.001506 1_555
Ba8 O18 2.729931 1_555
Ba8 O16 2.734411 1_555
Ba8 O17 2.736202 1_655
Ba8 O17 2.850867 1_555
Ba8 O32 2.909541 1_565
Ba8 O27 2.910484 1_555
Ba8 O6 3.006270 1_555
Ba8 O7 3.014249 1_655
Ba8 O26 3.017962 1_655
Ba9 O18 2.730044 1_454
Ba9 O15 2.735669 1_555
Ba9 O19 2.737072 1_455
Ba9 O19 2.850108 1_555
Ba9 O28 2.903445 1_554
Ba9 O30 2.909098 1_555
Ba9 O9 3.005663 1_555
Ba9 O8 3.013637 1_454
Ba9 O29 3.025502 1_455
Cu0 O4 1.939228 1_555
Cu0 O0 1.941684 1_455
Cu0 O24 1.991511 1_455
Cu0 O20 1.993674 1_555
Cu0 O10 2.368848 1_555
Cu1 O0 1.937745 1_555
Cu1 O1 1.944062 1_555
Cu1 O21 1.976122 1_555
Cu1 O20 1.979057 1_555
Cu1 O11 2.481660 1_555
Cu2 O2 1.937420 1_555
Cu2 O1 1.941684 1_555
Cu2 O21 1.970408 1_455
Cu2 O22 1.989789 1_555
Cu2 O12 2.491425 1_555
Cu3 O3 1.938758 1_555
Cu3 O2 1.940706 1_655
Cu3 O23 1.969056 1_655
Cu3 O22 1.989498 1_555
Cu3 O13 2.495220 1_555
Cu4 O4 1.939106 1_556
Cu4 O3 1.942492 1_555
Cu4 O23 1.975283 1_555
Cu4 O24 1.979334 1_556
Cu4 O14 2.479733 1_555
Cu5 O9 1.938758 1_555
Cu5 O5 1.940706 1_455
Cu5 O29 1.969056 1_455
Cu5 O25 1.989498 1_555
Cu5 O15 2.495220 1_555
Cu6 O5 1.937420 1_555
Cu6 O6 1.941684 1_555
Cu6 O26 1.970408 1_655
Cu6 O25 1.989789 1_555
Cu6 O16 2.491425 1_555
Cu7 O7 1.937745 1_555
Cu7 O6 1.944062 1_555
Cu7 O26 1.976122 1_555
Cu7 O27 1.979057 1_555
Cu7 O17 2.481660 1_555
Cu8 O8 1.939228 1_555
Cu8 O7 1.941684 1_655
Cu8 O28 1.991511 1_655
Cu8 O27 1.993674 1_555
Cu8 O18 2.368848 1_555
Cu9 O8 1.939106 1_554
Cu9 O9 1.942492 1_555
Cu9 O29 1.975283 1_555
Cu9 O28 1.979334 1_554
Cu9 O19 2.479733 1_555
Cu10 O10 1.900683 1_555
Cu10 O18 1.900683 1_444
Cu10 O30 1.916420 1_545
Cu10 O32 1.916420 1_454
Cu11 O19 1.836893 1_555
Cu11 O11 1.841907 1_565
Cu11 O30 1.908965 1_555
Cu12 O15 1.832377 1_555
Cu12 O12 1.834645 1_565
Cu12 O31 1.885487 1_565
Cu13 O13 1.832377 1_555
Cu13 O16 1.834645 1_545
Cu13 O31 1.885487 1_555
Cu14 O14 1.836893 1_555
Cu14 O17 1.841907 1_545
Cu14 O32 1.908965 1_555
O0 Y4 2.421103 1_555
O0 Y0 2.428045 1_655
O1 Y1 2.432692 1_555
O1 Y0 2.435772 1_555
O2 Y1 2.435005 1_455
O2 Y2 2.448985 1_555
O3 Y3 2.435170 1_656
O3 Y2 2.443014 1_555
O4 Y4 2.418826 1_555
O4 Y3 2.427422 1_555
O5 Y0 2.435005 1_655
O5 Y4 2.448985 1_555
O6 Y0 2.432692 1_555
O6 Y1 2.435772 1_555
O7 Y2 2.421103 1_555
O7 Y1 2.428045 1_455
O8 Y2 2.418826 1_555
O8 Y3 2.427422 1_656
O9 Y3 2.435170 1_555
O9 Y4 2.443014 1_555
O20 Y4 2.405431 1_555
O20 Y0 2.412364 1_555
O21 Y0 2.400392 1_655
O21 Y1 2.403415 1_555
O22 Y1 2.426340 1_555
O22 Y2 2.436980 1_555
O23 Y3 2.401293 1_556
O23 Y2 2.406902 1_555
O24 Y4 2.404987 1_555
O24 Y3 2.419396 1_655
O25 Y0 2.426340 1_555
O25 Y4 2.436980 1_555
O26 Y1 2.400392 1_455
O26 Y0 2.403415 1_555
O27 Y2 2.405431 1_555
O27 Y1 2.412364 1_555
O28 Y2 2.404987 1_555
O28 Y3 2.419396 1_556
O29 Y3 2.401293 1_655
O29 Y4 2.406902 1_555
