# generated using pymatgen
data_SrCu2SnS4
_symmetry_space_group_name_H-M   'P 1'
_cell_length_a   6.34706566
_cell_length_b   6.34706566
_cell_length_c   15.58948200
_cell_angle_alpha   90.00000000
_cell_angle_beta   90.00000000
_cell_angle_gamma   119.99999643
_symmetry_Int_Tables_number   1
_chemical_formula_structural   SrCu2SnS4
_chemical_formula_sum   'Sr3 Cu6 Sn3 S12'
_cell_volume   543.88654367
_cell_formula_units_Z   3
loop_
 _symmetry_equiv_pos_site_id
 _symmetry_equiv_pos_as_xyz
  1  'x, y, z'
loop_
 _atom_site_type_symbol
 _atom_site_label
 _atom_site_symmetry_multiplicity
 _atom_site_fract_x
 _atom_site_fract_y
 _atom_site_fract_z
 _atom_site_occupancy
  Sr  Sr0  1  0.00000000  0.56298900  0.83333300  1
  Sr  Sr1  1  0.56298900  0.00000000  0.16666700  1
  Sr  Sr2  1  0.43701100  0.43701100  0.50000000  1
  Cu  Cu0  1  0.92735700  0.56292800  0.07889700  1
  Cu  Cu1  1  0.36442900  0.43707200  0.25443700  1
  Cu  Cu2  1  0.07264300  0.63557100  0.58777000  1
  Cu  Cu3  1  0.63557100  0.07264300  0.41223000  1
  Cu  Cu4  1  0.43707200  0.36442900  0.74556300  1
  Cu  Cu5  1  0.56292800  0.92735700  0.92110300  1
  Sn  Sn0  1  0.70498100  0.00000000  0.66666700  1
  Sn  Sn1  1  0.00000000  0.70498100  0.33333300  1
  Sn  Sn2  1  0.29501900  0.29501900  0.00000000  1
  S  S0  1  0.64689200  0.76413300  0.33800300  1
  S  S1  1  0.23586700  0.88275900  0.00467000  1
  S  S2  1  0.11724100  0.35310800  0.67133700  1
  S  S3  1  0.88275900  0.23586700  0.99533000  1
  S  S4  1  0.35310800  0.11724100  0.32866300  1
  S  S5  1  0.76413300  0.64689200  0.66199700  1
  S  S6  1  0.95512200  0.44077800  0.45401900  1
  S  S7  1  0.55922200  0.51434400  0.12068600  1
  S  S8  1  0.44077800  0.95512200  0.54598100  1
  S  S9  1  0.51434400  0.55922200  0.87931400  1
  S  S10  1  0.04487800  0.48565600  0.21264800  1
  S  S11  1  0.48565600  0.04487800  0.78735200  1
loop_
_geom_bond_atom_site_label_1
_geom_bond_atom_site_label_2
_geom_bond_distance
_geom_bond_site_symmetry_2
Cu0 S7 2.293158 1_555
Cu0 S1 2.306333 1_655
Cu0 S3 2.344991 1_554
Cu0 S10 2.347433 1_655
Cu1 S10 2.293158 1_555
Cu1 S4 2.306325 1_555
Cu1 S0 2.344983 1_555
Cu1 S7 2.347433 1_555
Cu2 S8 2.293158 1_555
Cu2 S5 2.306333 1_455
Cu2 S2 2.344991 1_555
Cu2 S6 2.347433 1_455
Cu3 S6 2.293158 1_555
Cu3 S0 2.306333 1_545
Cu3 S4 2.344991 1_555
Cu3 S8 2.347433 1_545
Cu4 S11 2.293158 1_555
Cu4 S2 2.306325 1_555
Cu4 S5 2.344983 1_555
Cu4 S9 2.347433 1_555
Cu5 S9 2.293158 1_555
Cu5 S3 2.306333 1_565
Cu5 S1 2.344991 1_556
Cu5 S11 2.347433 1_565
S0 Sn1 2.451667 1_655
S0 Sr2 3.114079 1_555
S0 Sr1 3.233650 1_565
S1 Sn2 2.451667 1_565
S1 Sr1 3.114078 1_565
S1 Sr0 3.233663 1_554
S2 Sn0 2.451667 1_455
S2 Sr0 3.114066 1_555
S2 Sr2 3.233663 1_555
S3 Sn2 2.451667 1_656
S3 Sr0 3.114078 1_655
S3 Sr1 3.233663 1_556
S4 Sn1 2.451667 1_545
S4 Sr1 3.114066 1_555
S4 Sr2 3.233663 1_555
S5 Sn0 2.451667 1_565
S5 Sr2 3.114079 1_555
S5 Sr0 3.233650 1_655
S6 Sn1 2.440349 1_655
S6 Sr2 3.153165 1_655
S6 Sr2 3.354088 1_555
S7 Sn2 2.440349 1_555
S7 Sr1 3.153165 1_565
S7 Sr1 3.354088 1_555
S8 Sn0 2.440349 1_565
S8 Sr2 3.153165 1_565
S8 Sr2 3.354088 1_555
S9 Sn2 2.440349 1_556
S9 Sr0 3.153165 1_655
S9 Sr0 3.354088 1_555
S10 Sn1 2.440337 1_555
S10 Sr1 3.153165 1_455
S10 Sr1 3.354088 1_565
S11 Sn0 2.440337 1_555
S11 Sr0 3.153165 1_545
S11 Sr0 3.354088 1_655
