# generated using pymatgen
data_La2FeCoO6
_symmetry_space_group_name_H-M   'P 1'
_cell_length_a   5.50067600
_cell_length_b   5.56594900
_cell_length_c   9.66606269
_cell_angle_alpha   55.64475420
_cell_angle_beta   90.00000000
_cell_angle_gamma   90.00000000
_symmetry_Int_Tables_number   1
_chemical_formula_structural   La2FeCoO6
_chemical_formula_sum   'La4 Fe2 Co2 O12'
_cell_volume   244.31530194
_cell_formula_units_Z   2
loop_
 _symmetry_equiv_pos_site_id
 _symmetry_equiv_pos_as_xyz
  1  'x, y, z'
loop_
 _atom_site_type_symbol
 _atom_site_label
 _atom_site_symmetry_multiplicity
 _atom_site_fract_x
 _atom_site_fract_y
 _atom_site_fract_z
 _atom_site_occupancy
  La  La0  1  0.97739500  0.24347300  0.75135100  1
  La  La1  1  0.47739500  0.75652700  0.74864900  1
  La  La2  1  0.02260500  0.75652700  0.24864900  1
  La  La3  1  0.52260500  0.24347300  0.25135100  1
  Fe  Fe0  1  0.00000000  0.50000000  0.00000000  1
  Fe  Fe1  1  0.50000000  0.50000000  0.50000000  1
  Co  Co0  1  0.00000000  0.00000000  0.50000000  1
  Co  Co1  1  0.50000000  0.00000000  0.00000000  1
  O  O0  1  0.51224800  0.33234000  0.74445900  1
  O  O1  1  0.01224800  0.66766000  0.75554100  1
  O  O2  1  0.48775200  0.66766000  0.25554100  1
  O  O3  1  0.98775200  0.33234000  0.24445900  1
  O  O4  1  0.72808000  0.17938000  0.54096900  1
  O  O5  1  0.22808000  0.82062000  0.95903100  1
  O  O6  1  0.27782000  0.23186000  0.04151200  1
  O  O7  1  0.77782000  0.76814000  0.45848800  1
  O  O8  1  0.27192000  0.82062000  0.45903100  1
  O  O9  1  0.77192000  0.17938000  0.04096900  1
  O  O10  1  0.72218000  0.76814000  0.95848800  1
  O  O11  1  0.22218000  0.23186000  0.54151200  1
loop_
_geom_bond_atom_site_label_1
_geom_bond_atom_site_label_2
_geom_bond_distance
_geom_bond_site_symmetry_2
La0 O1 2.391789 1_655
La0 O11 2.465610 1_655
La0 O5 2.477530 1_645
La0 O0 2.599703 1_555
La0 O4 2.638592 1_555
La0 O10 2.645864 1_545
La0 O9 2.848612 1_556
La0 O7 2.901116 1_555
La0 O0 2.977849 1_655
La1 O0 2.391789 1_555
La1 O10 2.465610 1_555
La1 O4 2.477530 1_565
La1 O1 2.599703 1_555
La1 O5 2.638592 1_555
La1 O11 2.645864 1_565
La1 O8 2.848612 1_555
La1 O6 2.901116 1_556
La1 O1 2.977849 1_655
La2 O3 2.391789 1_455
La2 O7 2.465610 1_455
La2 O9 2.477530 1_465
La2 O2 2.599703 1_555
La2 O8 2.638592 1_555
La2 O6 2.645864 1_565
La2 O5 2.848612 1_554
La2 O11 2.901116 1_555
La2 O2 2.977849 1_455
La3 O2 2.391789 1_555
La3 O6 2.465610 1_555
La3 O8 2.477530 1_545
La3 O3 2.599703 1_555
La3 O9 2.638592 1_555
La3 O7 2.645864 1_545
La3 O4 2.848612 1_555
La3 O10 2.901116 1_554
La3 O3 2.977849 1_455
Fe0 O3 1.992533 1_455
Fe0 O1 1.992533 1_554
Fe0 O10 2.011943 1_454
Fe0 O6 2.011943 1_555
Fe0 O9 2.029249 1_455
Fe0 O5 2.029249 1_554
Fe1 O0 1.992533 1_555
Fe1 O2 1.992533 1_555
Fe1 O11 2.011943 1_555
Fe1 O7 2.011943 1_555
Fe1 O8 2.029249 1_555
Fe1 O4 2.029249 1_555
Co0 O4 1.958868 1_455
Co0 O8 1.958868 1_545
Co0 O7 1.975987 1_445
Co0 O11 1.975987 1_555
Co0 O1 2.090602 1_545
Co0 O3 2.090602 1_455
Co1 O5 1.958868 1_544
Co1 O9 1.958868 1_555
Co1 O10 1.975987 1_544
Co1 O6 1.975987 1_555
Co1 O2 2.090602 1_545
Co1 O0 2.090602 1_554
