# generated using pymatgen
data_Te2Mo2W(SeS)2
_symmetry_space_group_name_H-M   'P 1'
_cell_length_a   3.34646054
_cell_length_b   3.34646054
_cell_length_c   30.96961100
_cell_angle_alpha   90.00000000
_cell_angle_beta   90.00000000
_cell_angle_gamma   120.00001074
_symmetry_Int_Tables_number   1
_chemical_formula_structural   Te2Mo2W(SeS)2
_chemical_formula_sum   'Te2 Mo2 W1 Se2 S2'
_cell_volume   300.35699634
_cell_formula_units_Z   1
loop_
 _symmetry_equiv_pos_site_id
 _symmetry_equiv_pos_as_xyz
  1  'x, y, z'
loop_
 _atom_site_type_symbol
 _atom_site_label
 _atom_site_symmetry_multiplicity
 _atom_site_fract_x
 _atom_site_fract_y
 _atom_site_fract_z
 _atom_site_occupancy
  Te  Te0  1  0.33333300  0.66666700  0.05447300  1
  Te  Te1  1  0.33333300  0.66666700  0.17679400  1
  Mo  Mo0  1  0.00000000  0.00000000  0.11560200  1
  Mo  Mo1  1  0.33333300  0.66666700  0.34703200  1
  W  W0  1  0.00000000  0.00000000  0.57830900  1
  Se  Se0  1  0.00000000  0.00000000  0.40078300  1
  Se  Se1  1  0.00000000  0.00000000  0.29322600  1
  S  S0  1  0.33333300  0.66666700  0.52914900  1
  S  S1  1  0.33333300  0.66666700  0.62747300  1
loop_
_geom_bond_atom_site_label_1
_geom_bond_atom_site_label_2
_geom_bond_distance
_geom_bond_site_symmetry_2
Mo0 Te0 2.704979 1_545
Mo0 Te0 2.704981 1_445
Mo0 Te0 2.704981 1_555
Mo0 Te1 2.706345 1_545
Mo0 Te1 2.706346 1_555
Mo0 Te1 2.706346 1_445
Mo1 Se0 2.550290 1_565
Mo1 Se0 2.550292 1_665
Mo1 Se0 2.550292 1_555
Mo1 Se1 2.551402 1_565
Mo1 Se1 2.551404 1_555
Mo1 Se1 2.551404 1_665
S0 W0 2.459843 1_565
S0 W0 2.459845 1_665
S0 W0 2.459845 1_555
S1 W0 2.459920 1_565
S1 W0 2.459922 1_665
S1 W0 2.459922 1_555
