# generated using pymatgen
data_RbAlNiF6
_symmetry_space_group_name_H-M   'P 1'
_cell_length_a   7.02616167
_cell_length_b   7.02616167
_cell_length_c   7.02616167
_cell_angle_alpha   120.21749310
_cell_angle_beta   119.48988248
_cell_angle_gamma   90.25475745
_symmetry_Int_Tables_number   1
_chemical_formula_structural   RbAlNiF6
_chemical_formula_sum   'Rb2 Al2 Ni2 F12'
_cell_volume   245.79462754
_cell_formula_units_Z   2
loop_
 _symmetry_equiv_pos_site_id
 _symmetry_equiv_pos_as_xyz
  1  'x, y, z'
loop_
 _atom_site_type_symbol
 _atom_site_label
 _atom_site_symmetry_multiplicity
 _atom_site_fract_x
 _atom_site_fract_y
 _atom_site_fract_z
 _atom_site_occupancy
  Rb  Rb0  1  0.62725010  0.87725010  0.75000000  1
  Rb  Rb1  1  0.37274990  0.12274990  0.25000000  1
  Al  Al0  1  -0.00000000  0.50000000  -0.00000000  1
  Al  Al1  1  -0.00000000  -0.00000000  0.50000000  1
  Ni  Ni0  1  0.50000000  0.50000000  -0.00000000  1
  Ni  Ni1  1  -0.00000000  0.50000000  0.50000000  1
  F  F0  1  0.04528419  0.79528419  0.25000000  1
  F  F1  1  0.66228721  0.41228721  0.25000000  1
  F  F2  1  0.05643737  0.83929251  0.64356983  1
  F  F3  1  0.69572368  0.41286754  0.85643017  1
  F  F4  1  0.69572368  0.83929251  0.28285514  1
  F  F5  1  0.05643737  0.41286754  0.21714486  1
  F  F6  1  0.95471581  0.20471581  0.75000000  1
  F  F7  1  0.33771279  0.58771279  0.75000000  1
  F  F8  1  0.94356263  0.16070749  0.35643017  1
  F  F9  1  0.30427632  0.58713246  0.14356983  1
  F  F10  1  0.30427632  0.16070749  0.71714486  1
  F  F11  1  0.94356263  0.58713246  0.78285514  1
loop_
_geom_bond_atom_site_label_1
_geom_bond_atom_site_label_2
_geom_bond_distance
_geom_bond_site_symmetry_2
Al0 F3 1.790657 1_454
Al0 F9 1.790657 1_555
Al0 F5 1.790663 1_555
Al0 F11 1.790663 1_454
Al0 F6 1.807412 1_454
Al0 F0 1.807412 1_555
Al1 F4 1.790658 1_445
Al1 F10 1.790658 1_555
Al1 F2 1.790663 1_545
Al1 F8 1.790663 1_455
Al1 F6 1.807412 1_455
Al1 F0 1.807412 1_545
F0 Rb1 3.246619 1_565
F1 Ni0 1.972149 1_555
F1 Ni1 1.972149 1_655
F1 Rb1 2.870582 1_555
F2 Ni1 2.008758 1_555
F2 Rb1 3.025985 1_566
F3 Ni0 2.008765 1_556
F3 Rb1 3.025985 1_555
F4 Ni0 2.008760 1_555
F4 Rb1 3.025990 1_565
F5 Ni1 2.008758 1_555
F5 Rb1 3.025985 1_555
F6 Rb0 3.246619 1_545
F7 Ni1 1.972149 1_555
F7 Ni0 1.972149 1_556
F7 Rb0 2.870582 1_555
F8 Ni1 2.008758 1_655
F8 Rb0 3.025985 1_544
F9 Ni0 2.008765 1_555
F9 Rb0 3.025985 1_555
F10 Ni0 2.008760 1_556
F10 Rb0 3.025990 1_545
F11 Ni1 2.008758 1_655
F11 Rb0 3.025985 1_555
