# generated using pymatgen
data_Mg6SnC
_symmetry_space_group_name_H-M   'P 1'
_cell_length_a   4.58530800
_cell_length_b   5.93339700
_cell_length_c   12.31669100
_cell_angle_alpha   90.00000000
_cell_angle_beta   90.00000000
_cell_angle_gamma   90.00000000
_symmetry_Int_Tables_number   1
_chemical_formula_structural   Mg6SnC
_chemical_formula_sum   'Mg12 Sn2 C2'
_cell_volume   335.09347150
_cell_formula_units_Z   2
loop_
 _symmetry_equiv_pos_site_id
 _symmetry_equiv_pos_as_xyz
  1  'x, y, z'
loop_
 _atom_site_type_symbol
 _atom_site_label
 _atom_site_symmetry_multiplicity
 _atom_site_fract_x
 _atom_site_fract_y
 _atom_site_fract_z
 _atom_site_occupancy
  Mg  Mg0  1  0.00000000  0.27489800  0.10204100  1
  Mg  Mg1  1  0.00000000  0.72510200  0.10204100  1
  Mg  Mg2  1  0.00000000  0.00000000  0.32508200  1
  Mg  Mg3  1  0.50000000  0.75415500  0.43653200  1
  Mg  Mg4  1  0.50000000  0.24584500  0.43653200  1
  Mg  Mg5  1  0.50000000  0.00000000  0.17763900  1
  Mg  Mg6  1  0.00000000  0.77489800  0.60204100  1
  Mg  Mg7  1  0.00000000  0.22510200  0.60204100  1
  Mg  Mg8  1  0.00000000  0.50000000  0.82508200  1
  Mg  Mg9  1  0.50000000  0.25415500  0.93653200  1
  Mg  Mg10  1  0.50000000  0.74584500  0.93653200  1
  Mg  Mg11  1  0.50000000  0.50000000  0.67763900  1
  Sn  Sn0  1  0.00000000  0.50000000  0.34756300  1
  Sn  Sn1  1  0.00000000  0.00000000  0.84756300  1
  C  C0  1  0.50000000  0.50000000  0.07257100  1
  C  C1  1  0.50000000  0.00000000  0.57257100  1
loop_
_geom_bond_atom_site_label_1
_geom_bond_atom_site_label_2
_geom_bond_distance
_geom_bond_site_symmetry_2
Mg0 Mg5 2.963724 1_555
Mg0 Mg5 2.963724 1_455
Mg0 Sn0 3.305838 1_555
Mg1 Mg5 2.963724 1_465
Mg1 Mg5 2.963724 1_565
Mg1 Sn0 3.305838 1_555
Mg2 Mg5 2.924749 1_555
Mg2 Mg5 2.924749 1_455
Mg2 Sn0 2.979592 1_555
Mg2 Sn0 2.979592 1_545
Mg3 Sn0 2.954847 1_555
Mg3 Sn0 2.954847 1_655
Mg4 Sn0 2.954847 1_655
Mg4 Sn0 2.954847 1_555
Mg6 Sn1 3.305838 1_565
Mg7 Sn1 3.305838 1_555
Mg8 Sn1 2.979592 1_565
Mg8 Sn1 2.979592 1_555
Mg9 Sn1 2.954847 1_555
Mg9 Sn1 2.954847 1_655
Mg10 Sn1 2.954847 1_565
Mg10 Sn1 2.954847 1_665
Mg11 Mg8 2.924749 1_555
Mg11 Mg8 2.924749 1_655
Mg11 Mg6 2.963724 1_655
Mg11 Mg7 2.963724 1_555
Mg11 Mg7 2.963724 1_655
Mg11 Mg6 2.963724 1_555
C0 Mg10 2.221545 1_554
C0 Mg9 2.221545 1_554
C0 Mg1 2.678039 1_655
C0 Mg1 2.678039 1_555
C0 Mg0 2.678039 1_555
C0 Mg0 2.678039 1_655
C1 Mg4 2.221545 1_555
C1 Mg3 2.221545 1_545
C1 Mg7 2.678039 1_655
C1 Mg6 2.678039 1_645
C1 Mg6 2.678039 1_545
C1 Mg7 2.678039 1_555
