# generated using pymatgen
data_RbPO4
_symmetry_space_group_name_H-M   'P 1'
_cell_length_a   5.27234784
_cell_length_b   5.86595000
_cell_length_c   7.79465522
_cell_angle_alpha   90.00000000
_cell_angle_beta   104.60994851
_cell_angle_gamma   90.00000000
_symmetry_Int_Tables_number   1
_chemical_formula_structural   RbPO4
_chemical_formula_sum   'Rb2 P2 O8'
_cell_volume   233.27302893
_cell_formula_units_Z   2
loop_
 _symmetry_equiv_pos_site_id
 _symmetry_equiv_pos_as_xyz
  1  'x, y, z'
loop_
 _atom_site_type_symbol
 _atom_site_label
 _atom_site_symmetry_multiplicity
 _atom_site_fract_x
 _atom_site_fract_y
 _atom_site_fract_z
 _atom_site_occupancy
  Rb  Rb0  1  0.25018200  0.25000000  0.23615800  1
  Rb  Rb1  1  0.74981800  0.75000000  0.76384200  1
  P  P0  1  0.73199300  0.75000000  0.25115400  1
  P  P1  1  0.26800700  0.25000000  0.74884600  1
  O  O0  1  0.96106000  0.75000000  0.42150400  1
  O  O1  1  0.03894000  0.25000000  0.57849600  1
  O  O2  1  0.49090000  0.75000000  0.32998000  1
  O  O3  1  0.50910000  0.25000000  0.67002000  1
  O  O4  1  0.75000000  0.96261200  0.13878800  1
  O  O5  1  0.25000000  0.46261200  0.86121200  1
  O  O6  1  0.25000000  0.03738800  0.86121200  1
  O  O7  1  0.75000000  0.53738800  0.13878800  1
loop_
_geom_bond_atom_site_label_1
_geom_bond_atom_site_label_2
_geom_bond_distance
_geom_bond_site_symmetry_2
O0 P0 1.553287 1_555
O0 Rb1 3.140075 1_555
O1 P1 1.553287 1_555
O1 Rb0 3.140075 1_555
O2 P0 1.545081 1_555
O2 Rb0 3.206193 1_555
O2 Rb0 3.206193 1_565
O2 Rb1 3.312280 1_555
O3 P1 1.545081 1_555
O3 Rb1 3.206193 1_545
O3 Rb1 3.206193 1_555
O3 Rb0 3.312280 1_555
O4 P0 1.540623 1_555
O4 Rb0 3.059858 1_665
O4 Rb1 3.177336 1_554
O4 Rb0 3.372134 1_565
O5 P1 1.540623 1_555
O5 Rb1 3.059858 1_455
O5 Rb0 3.177336 1_556
O5 Rb1 3.372134 1_555
O6 P1 1.540623 1_555
O6 Rb1 3.059858 1_445
O6 Rb0 3.177336 1_556
O6 Rb1 3.372134 1_545
O7 P0 1.540623 1_555
O7 Rb0 3.059858 1_655
O7 Rb1 3.177336 1_554
O7 Rb0 3.372134 1_555
