# generated using pymatgen
data_Li3Tb(NO3)6
_symmetry_space_group_name_H-M   'P 1'
_cell_length_a   7.67367223
_cell_length_b   7.93873914
_cell_length_c   24.38351536
_cell_angle_alpha   91.39922951
_cell_angle_beta   90.00000000
_cell_angle_gamma   90.00000000
_symmetry_Int_Tables_number   1
_chemical_formula_structural   Li3Tb(NO3)6
_chemical_formula_sum   'Li12 Tb4 N24 O72'
_cell_volume   1484.98332319
_cell_formula_units_Z   4
loop_
 _symmetry_equiv_pos_site_id
 _symmetry_equiv_pos_as_xyz
  1  'x, y, z'
loop_
 _atom_site_type_symbol
 _atom_site_label
 _atom_site_symmetry_multiplicity
 _atom_site_fract_x
 _atom_site_fract_y
 _atom_site_fract_z
 _atom_site_occupancy
  Li  Li0  1  0.81628952  0.70761816  0.63440740  1
  Li  Li1  1  0.18371048  0.29238184  0.36559260  1
  Li  Li2  1  0.31628952  0.79238184  0.86559260  1
  Li  Li3  1  0.68371048  0.20761816  0.13440740  1
  Li  Li4  1  0.55785355  0.99870736  0.74515878  1
  Li  Li5  1  0.44214645  0.00129264  0.25484122  1
  Li  Li6  1  0.05785355  0.50129264  0.75484122  1
  Li  Li7  1  0.94214645  0.49870736  0.24515878  1
  Li  Li8  1  0.28976621  0.74200902  0.52569183  1
  Li  Li9  1  0.71023379  0.25799098  0.47430817  1
  Li  Li10  1  0.78976621  0.75799098  0.97430817  1
  Li  Li11  1  0.21023379  0.24200902  0.02569183  1
  Tb  Tb0  1  0.30579420  0.24263786  0.60967415  1
  Tb  Tb1  1  0.69420580  0.75736214  0.39032585  1
  Tb  Tb2  1  0.80579420  0.25736214  0.89032585  1
  Tb  Tb3  1  0.19420580  0.74263786  0.10967415  1
  N  N0  1  0.79838719  0.73523074  0.73523977  1
  N  N1  1  0.20161281  0.26476926  0.26476023  1
  N  N2  1  0.29838719  0.76476926  0.76476023  1
  N  N3  1  0.70161281  0.23523074  0.23523977  1
  N  N4  1  0.30221414  0.26090250  0.73025662  1
  N  N5  1  0.69778586  0.73909750  0.26974338  1
  N  N6  1  0.80221414  0.23909750  0.76974338  1
  N  N7  1  0.19778586  0.76090250  0.23025662  1
  N  N8  1  0.49214912  0.14545953  0.94605960  1
  N  N9  1  0.50785088  0.85454047  0.05394040  1
  N  N10  1  0.99214912  0.35454047  0.55394040  1
  N  N11  1  0.00785088  0.64545953  0.44605960  1
  N  N12  1  0.12861385  0.40033668  0.93617096  1
  N  N13  1  0.87138615  0.59966332  0.06382904  1
  N  N14  1  0.62861385  0.09966332  0.56382904  1
  N  N15  1  0.37138615  0.90033668  0.43617096  1
  N  N16  1  0.11434538  0.92401949  0.60638922  1
  N  N17  1  0.88565462  0.07598051  0.39361078  1
  N  N18  1  0.61434538  0.57598051  0.89361078  1
  N  N19  1  0.38565462  0.42401949  0.10638922  1
  N  N20  1  0.00745227  0.94474966  0.90279668  1
  N  N21  1  0.99254773  0.05525034  0.09720332  1
  N  N22  1  0.50745227  0.55525034  0.59720332  1
  N  N23  1  0.49254773  0.44474966  0.40279668  1
  O  O0  1  0.39712858  0.15510738  0.70240566  1
  O  O1  1  0.60287142  0.84489262  0.29759434  1
  O  O2  1  0.89712858  0.34489262  0.79759434  1
  O  O3  1  0.10287142  0.65510738  0.20240566  1
  O  O4  1  0.52398177  0.09151220  0.89738302  1
  O  O5  1  0.47601823  0.90848780  0.10261698  1
  O  O6  1  0.02398177  0.40848780  0.60261698  1
  O  O7  1  0.97601823  0.59151220  0.39738302  1
  O  O8  1  0.60459589  0.24532537  0.96812407  1
  O  O9  1  0.39540411  0.75467463  0.03187593  1
  O  O10  1  0.10459589  0.25467463  0.53187593  1
  O  O11  1  0.89540411  0.74532537  0.46812407  1
  O  O12  1  0.30024516  0.26856385  0.78045547  1
  O  O13  1  0.69975484  0.73143615  0.21954453  1
  O  O14  1  0.80024516  0.23143615  0.71954453  1
  O  O15  1  0.19975484  0.76856385  0.28045547  1
  O  O16  1  0.26324947  0.45625954  0.95728398  1
  O  O17  1  0.73675053  0.54374046  0.04271602  1
  O  O18  1  0.76324947  0.04374046  0.54271602  1
  O  O19  1  0.23675053  0.95625954  0.45728398  1
  O  O20  1  0.04841437  0.05467476  0.86794443  1
  O  O21  1  0.95158563  0.94532524  0.13205557  1
  O  O22  1  0.54841437  0.44532524  0.63205557  1
  O  O23  1  0.45158563  0.55467476  0.36794443  1
  O  O24  1  0.35764793  0.10271381  0.97086151  1
  O  O25  1  0.64235207  0.89728619  0.02913849  1
  O  O26  1  0.85764793  0.39728619  0.52913849  1
  O  O27  1  0.14235207  0.60271381  0.47086151  1
  O  O28  1  0.29597398  0.75440983  0.71393277  1
  O  O29  1  0.70402602  0.24559017  0.28606723  1
  O  O30  1  0.79597398  0.74559017  0.78606723  1
  O  O31  1  0.20402602  0.25440983  0.21393277  1
  O  O32  1  0.63591857  0.46974086  0.42948307  1
  O  O33  1  0.36408143  0.53025914  0.57051693  1
  O  O34  1  0.13591857  0.03025914  0.07051693  1
  O  O35  1  0.86408143  0.96974086  0.92948307  1
  O  O36  1  0.03277265  0.79029156  0.59946106  1
  O  O37  1  0.96722735  0.20970844  0.40053894  1
  O  O38  1  0.53277265  0.70970844  0.90053894  1
  O  O39  1  0.46722735  0.29029156  0.09946106  1
  O  O40  1  0.02443513  0.30442685  0.96466082  1
  O  O41  1  0.97556487  0.69557315  0.03533918  1
  O  O42  1  0.52443513  0.19557315  0.53533918  1
  O  O43  1  0.47556487  0.80442685  0.46466082  1
  O  O44  1  0.08166294  0.42732941  0.88743132  1
  O  O45  1  0.91833706  0.57267059  0.11256868  1
  O  O46  1  0.58166294  0.07267059  0.61256868  1
  O  O47  1  0.41833706  0.92732941  0.38743132  1
  O  O48  1  0.20846687  0.35915361  0.70058520  1
  O  O49  1  0.79153313  0.64084639  0.29941480  1
  O  O50  1  0.70846687  0.14084639  0.79941480  1
  O  O51  1  0.29153313  0.85915361  0.20058520  1
  O  O52  1  0.59896651  0.68034313  0.58827125  1
  O  O53  1  0.40103349  0.31965687  0.41172875  1
  O  O54  1  0.09896651  0.81965687  0.91172875  1
  O  O55  1  0.90103349  0.18034313  0.08827125  1
  O  O56  1  0.06414088  0.04497770  0.63727686  1
  O  O57  1  0.93585912  0.95502230  0.36272314  1
  O  O58  1  0.56414088  0.45502230  0.86272314  1
  O  O59  1  0.43585912  0.54497770  0.13727686  1
  O  O60  1  0.25966626  0.94468595  0.58054227  1
  O  O61  1  0.74033374  0.05531405  0.41945773  1
  O  O62  1  0.75966626  0.55531405  0.91945773  1
  O  O63  1  0.24033374  0.44468595  0.08054227  1
  O  O64  1  0.39147482  0.87502054  0.79077869  1
  O  O65  1  0.60852518  0.12497946  0.20922131  1
  O  O66  1  0.89147482  0.62497946  0.70922131  1
  O  O67  1  0.10852518  0.37502054  0.29077869  1
  O  O68  1  0.70901082  0.83338423  0.70519418  1
  O  O69  1  0.29098918  0.16661577  0.29480582  1
  O  O70  1  0.20901082  0.66661577  0.79480582  1
  O  O71  1  0.79098918  0.33338423  0.20519418  1
loop_
_geom_bond_atom_site_label_1
_geom_bond_atom_site_label_2
_geom_bond_distance
_geom_bond_site_symmetry_2
Li0 O36 1.985907 1_655
Li0 O52 2.020306 1_555
Li0 O66 2.037036 1_555
Li0 O68 2.137654 1_555
Li1 O37 1.985907 1_455
Li1 O53 2.020306 1_555
Li1 O67 2.037036 1_555
Li1 O69 2.137654 1_555
Li2 O38 1.985907 1_555
Li2 O54 2.020306 1_555
Li2 O64 2.037036 1_555
Li2 O70 2.137654 1_555
Li3 O39 1.985907 1_555
Li3 O55 2.020306 1_555
Li3 O65 2.037036 1_555
Li3 O71 2.137654 1_555
Li4 O64 1.971024 1_555
Li4 O68 1.988751 1_555
Li4 O0 2.052494 1_565
Li4 O50 2.070355 1_565
Li5 O65 1.971024 1_555
Li5 O69 1.988751 1_555
Li5 O1 2.052494 1_545
Li5 O51 2.070355 1_545
Li6 O66 1.971024 1_455
Li6 O70 1.988751 1_555
Li6 O2 2.052494 1_455
Li6 O48 2.070355 1_555
Li7 O67 1.971024 1_655
Li7 O71 1.988751 1_555
Li7 O3 2.052494 1_655
Li7 O49 2.070355 1_555
Li8 O27 2.053713 1_555
Li8 O60 2.079879 1_555
Li8 O33 2.106045 1_555
Li8 O43 2.128128 1_555
Li8 O19 2.445272 1_555
Li9 O26 2.053713 1_555
Li9 O61 2.079879 1_555
Li9 O32 2.106045 1_555
Li9 O42 2.128128 1_555
Li9 O18 2.445272 1_555
Li10 O25 2.053713 1_556
Li10 O62 2.079879 1_555
Li10 O35 2.106045 1_555
Li10 O41 2.128128 1_556
Li10 O17 2.445272 1_556
Li11 O24 2.053713 1_554
Li11 O63 2.079879 1_555
Li11 O34 2.106045 1_555
Li11 O40 2.128128 1_554
Li11 O16 2.445272 1_554
N0 O30 1.240211 1_555
N0 O68 1.281471 1_555
N0 O66 1.285186 1_555
N1 O31 1.240211 1_555
N1 O69 1.281471 1_555
N1 O67 1.285186 1_555
N2 O28 1.240211 1_555
N2 O70 1.281471 1_555
N2 O64 1.285186 1_555
N3 O29 1.240211 1_555
N3 O71 1.281471 1_555
N3 O65 1.285186 1_555
N4 O12 1.224144 1_555
N4 O0 1.291978 1_555
N4 O48 1.294953 1_555
N5 O13 1.224144 1_555
N5 O1 1.291978 1_555
N5 O49 1.294953 1_555
N6 O14 1.224144 1_555
N6 O2 1.291978 1_555
N6 O50 1.294953 1_555
N7 O15 1.224144 1_555
N7 O3 1.291978 1_555
N7 O51 1.294953 1_555
N8 O24 1.247469 1_555
N8 O4 1.275543 1_555
N8 O8 1.281300 1_555
N9 O25 1.247469 1_555
N9 O5 1.275543 1_555
N9 O9 1.281300 1_555
N10 O26 1.247469 1_555
N10 O6 1.275543 1_655
N10 O10 1.281300 1_655
N11 O27 1.247469 1_555
N11 O7 1.275543 1_455
N11 O11 1.281300 1_455
N12 O16 1.232219 1_555
N12 O44 1.265133 1_555
N12 O40 1.314247 1_555
N13 O17 1.232219 1_555
N13 O45 1.265133 1_555
N13 O41 1.314247 1_555
N14 O18 1.232219 1_555
N14 O46 1.265133 1_555
N14 O42 1.314247 1_555
N15 O19 1.232219 1_555
N15 O47 1.265133 1_555
N15 O43 1.314247 1_555
N16 O36 1.240431 1_555
N16 O56 1.265869 1_565
N16 O60 1.293336 1_555
N17 O37 1.240431 1_555
N17 O57 1.265869 1_545
N17 O61 1.293336 1_555
N18 O38 1.240431 1_555
N18 O58 1.265869 1_555
N18 O62 1.293336 1_555
N19 O39 1.240431 1_555
N19 O59 1.265869 1_555
N19 O63 1.293336 1_555
N20 O54 1.239903 1_555
N20 O20 1.272306 1_565
N20 O35 1.291075 1_455
N21 O55 1.239903 1_555
N21 O21 1.272306 1_545
N21 O34 1.291075 1_655
N22 O52 1.239903 1_555
N22 O22 1.272306 1_555
N22 O33 1.291075 1_555
N23 O53 1.239903 1_555
N23 O23 1.272306 1_555
N23 O32 1.291075 1_555
O0 Tb0 2.482635 1_555
O1 Tb1 2.482635 1_555
O2 Tb2 2.482635 1_555
O3 Tb3 2.482635 1_555
O4 Tb2 2.539838 1_555
O5 Tb3 2.539838 1_555
O6 Tb0 2.539838 1_555
O7 Tb1 2.539838 1_555
O8 Tb2 2.449549 1_555
O9 Tb3 2.449549 1_555
O10 Tb0 2.449549 1_555
O11 Tb1 2.449549 1_555
O20 Tb2 2.512040 1_455
O21 Tb3 2.512040 1_655
O22 Tb0 2.512040 1_555
O23 Tb1 2.512040 1_555
O32 Tb1 2.536108 1_555
O33 Tb0 2.536108 1_555
O34 Tb3 2.536108 1_545
O35 Tb2 2.536108 1_565
O40 Tb2 2.491345 1_455
O41 Tb3 2.491345 1_655
O42 Tb0 2.491345 1_555
O43 Tb1 2.491345 1_555
O44 Tb2 2.512308 1_455
O45 Tb3 2.512308 1_655
O46 Tb0 2.512308 1_555
O47 Tb1 2.512308 1_555
O48 Tb0 2.495427 1_555
O49 Tb1 2.495427 1_555
O50 Tb2 2.495427 1_555
O51 Tb3 2.495427 1_555
O56 Tb0 2.530921 1_555
O57 Tb1 2.530921 1_555
O58 Tb2 2.530921 1_555
O59 Tb3 2.530921 1_555
O60 Tb0 2.478459 1_565
O61 Tb1 2.478459 1_545
O62 Tb2 2.478459 1_555
O63 Tb3 2.478459 1_555
