# generated using pymatgen
data_SrAlF5
_symmetry_space_group_name_H-M   'P 1'
_cell_length_a   7.41099123
_cell_length_b   8.90501031
_cell_length_c   10.63298447
_cell_angle_alpha   93.93735565
_cell_angle_beta   90.00000000
_cell_angle_gamma   90.00000000
_symmetry_Int_Tables_number   1
_chemical_formula_structural   SrAlF5
_chemical_formula_sum   'Sr8 Al8 F40'
_cell_volume   700.06705195
_cell_formula_units_Z   8
loop_
 _symmetry_equiv_pos_site_id
 _symmetry_equiv_pos_as_xyz
  1  'x, y, z'
loop_
 _atom_site_type_symbol
 _atom_site_label
 _atom_site_symmetry_multiplicity
 _atom_site_fract_x
 _atom_site_fract_y
 _atom_site_fract_z
 _atom_site_occupancy
  Sr  Sr0  1  0.78167512  0.68510437  0.35937602  1
  Sr  Sr1  1  0.28167512  0.81489563  0.14062398  1
  Sr  Sr2  1  0.21832488  0.31489563  0.64062398  1
  Sr  Sr3  1  0.71832488  0.18510437  0.85937602  1
  Sr  Sr4  1  0.71902121  0.22545934  0.46099398  1
  Sr  Sr5  1  0.21902121  0.27454066  0.03900602  1
  Sr  Sr6  1  0.28097879  0.77454066  0.53900602  1
  Sr  Sr7  1  0.78097879  0.72545934  0.96099398  1
  Al  Al0  1  0.70521605  0.36829192  0.16379555  1
  Al  Al1  1  0.20521605  0.13170808  0.33620445  1
  Al  Al2  1  0.29478395  0.63170808  0.83620445  1
  Al  Al3  1  0.79478395  0.86829192  0.66379555  1
  Al  Al4  1  0.80294146  0.99272911  0.18723218  1
  Al  Al5  1  0.30294146  0.50727089  0.31276782  1
  Al  Al6  1  0.19705854  0.00727089  0.81276782  1
  Al  Al7  1  0.69705854  0.49272911  0.68723218  1
  F  F0  1  0.06194771  0.17909096  0.82998265  1
  F  F1  1  0.56194771  0.32090904  0.67001735  1
  F  F2  1  0.93805229  0.82090904  0.17001735  1
  F  F3  1  0.43805229  0.67909096  0.32998265  1
  F  F4  1  0.51166662  0.40495346  0.27545725  1
  F  F5  1  0.01166662  0.09504654  0.22454275  1
  F  F6  1  0.48833338  0.59504654  0.72454275  1
  F  F7  1  0.98833338  0.90495346  0.77545725  1
  F  F8  1  0.54984738  0.31440084  0.04206068  1
  F  F9  1  0.04984738  0.18559916  0.45793932  1
  F  F10  1  0.45015262  0.68559916  0.95793932  1
  F  F11  1  0.95015262  0.81440084  0.54206068  1
  F  F12  1  0.61033101  0.87398178  0.15170078  1
  F  F13  1  0.11033101  0.62601822  0.34829922  1
  F  F14  1  0.38966899  0.12601822  0.84829922  1
  F  F15  1  0.88966899  0.37398178  0.65170078  1
  F  F16  1  0.81075544  0.67211539  0.71283536  1
  F  F17  1  0.31075544  0.82788461  0.78716464  1
  F  F18  1  0.18924456  0.32788461  0.28716464  1
  F  F19  1  0.68924456  0.17211539  0.21283536  1
  F  F20  1  0.73214090  0.46847078  0.85024496  1
  F  F21  1  0.23214090  0.03152922  0.64975504  1
  F  F22  1  0.26785910  0.53152922  0.14975504  1
  F  F23  1  0.76785910  0.96847078  0.35024496  1
  F  F24  1  0.66254711  0.90442828  0.80234137  1
  F  F25  1  0.16254711  0.59557172  0.69765863  1
  F  F26  1  0.33745289  0.09557172  0.19765863  1
  F  F27  1  0.83745289  0.40442828  0.30234137  1
  F  F28  1  0.61157230  0.82108496  0.55955833  1
  F  F29  1  0.11157230  0.67891504  0.94044167  1
  F  F30  1  0.38842770  0.17891504  0.44044167  1
  F  F31  1  0.88842770  0.32108496  0.05955833  1
  F  F32  1  0.78581454  0.06263659  0.63683878  1
  F  F33  1  0.28581454  0.43736341  0.86316122  1
  F  F34  1  0.21418546  0.93736341  0.36316122  1
  F  F35  1  0.71418546  0.56263659  0.13683878  1
  F  F36  1  0.31889334  0.48592633  0.47674430  1
  F  F37  1  0.81889334  0.01407367  0.02325570  1
  F  F38  1  0.68110666  0.51407367  0.52325570  1
  F  F39  1  0.18110666  0.98592633  0.97674430  1
loop_
_geom_bond_atom_site_label_1
_geom_bond_atom_site_label_2
_geom_bond_distance
_geom_bond_site_symmetry_2
Al0 F8 1.773777 1_555
Al0 F35 1.774773 1_555
Al0 F27 1.780182 1_555
Al0 F31 1.784585 1_555
Al0 F19 1.860875 1_555
Al0 F4 1.876302 1_555
Al1 F9 1.773777 1_555
Al1 F34 1.774773 1_545
Al1 F26 1.780182 1_555
Al1 F30 1.784585 1_555
Al1 F18 1.860875 1_555
Al1 F5 1.876302 1_555
Al2 F10 1.773777 1_555
Al2 F33 1.774773 1_555
Al2 F25 1.780182 1_555
Al2 F29 1.784585 1_555
Al2 F17 1.860875 1_555
Al2 F6 1.876302 1_555
Al3 F11 1.773777 1_555
Al3 F32 1.774773 1_565
Al3 F24 1.780182 1_555
Al3 F28 1.784585 1_555
Al3 F16 1.860875 1_555
Al3 F7 1.876302 1_555
Al4 F37 1.770767 1_565
Al4 F23 1.780465 1_555
Al4 F12 1.801009 1_555
Al4 F19 1.810022 1_565
Al4 F5 1.825020 1_665
Al4 F2 1.827221 1_555
Al5 F36 1.770767 1_555
Al5 F22 1.780465 1_555
Al5 F13 1.801009 1_555
Al5 F18 1.810022 1_555
Al5 F4 1.825020 1_555
Al5 F3 1.827221 1_555
Al6 F39 1.770767 1_545
Al6 F21 1.780465 1_555
Al6 F14 1.801009 1_555
Al6 F17 1.810022 1_545
Al6 F7 1.825020 1_445
Al6 F0 1.827221 1_555
Al7 F38 1.770767 1_555
Al7 F20 1.780465 1_555
Al7 F15 1.801009 1_555
Al7 F16 1.810022 1_555
Al7 F6 1.825020 1_555
Al7 F1 1.827221 1_555
F0 Sr3 2.565804 1_455
F0 Sr5 2.599574 1_556
F0 Sr2 2.682153 1_555
F1 Sr2 2.565804 1_555
F1 Sr4 2.599574 1_555
F1 Sr3 2.682153 1_555
F2 Sr1 2.565804 1_655
F2 Sr7 2.599574 1_554
F2 Sr0 2.682153 1_555
F3 Sr0 2.565804 1_555
F3 Sr6 2.599574 1_555
F3 Sr1 2.682153 1_555
F8 Sr5 2.477205 1_555
F8 Sr3 2.520069 1_554
F9 Sr4 2.477205 1_455
F9 Sr2 2.520069 1_555
F10 Sr7 2.477205 1_555
F10 Sr1 2.520069 1_556
F11 Sr6 2.477205 1_655
F11 Sr0 2.520069 1_555
F12 Sr1 2.492925 1_555
F12 Sr7 2.663124 1_554
F13 Sr0 2.492925 1_455
F13 Sr6 2.663124 1_555
F14 Sr3 2.492925 1_555
F14 Sr5 2.663124 1_556
F15 Sr2 2.492925 1_655
F15 Sr4 2.663124 1_555
F16 Sr7 2.657964 1_555
F17 Sr6 2.657964 1_555
F18 Sr5 2.657964 1_555
F19 Sr4 2.657964 1_555
F20 Sr7 2.526815 1_555
F20 Sr3 2.533971 1_555
F21 Sr6 2.526815 1_545
F21 Sr2 2.533971 1_555
F22 Sr5 2.526815 1_555
F22 Sr1 2.533971 1_555
F23 Sr4 2.526815 1_565
F23 Sr0 2.533971 1_555
F24 Sr7 2.554470 1_555
F24 Sr3 2.564685 1_565
F25 Sr6 2.554470 1_555
F25 Sr2 2.564685 1_555
F26 Sr5 2.554470 1_555
F26 Sr1 2.564685 1_545
F27 Sr4 2.554470 1_555
F27 Sr0 2.564685 1_555
F28 Sr6 2.491934 1_555
F28 Sr0 2.689272 1_555
F29 Sr7 2.491934 1_455
F29 Sr1 2.689272 1_556
F30 Sr4 2.491934 1_555
F30 Sr2 2.689272 1_555
F31 Sr5 2.491934 1_655
F31 Sr3 2.689272 1_554
F32 Sr4 2.493119 1_555
F32 Sr3 2.585382 1_555
F33 Sr5 2.493119 1_556
F33 Sr2 2.585382 1_555
F34 Sr6 2.493119 1_555
F34 Sr1 2.585382 1_555
F35 Sr7 2.493119 1_554
F35 Sr0 2.585382 1_555
F36 Sr2 2.505193 1_555
F36 Sr6 2.624700 1_555
F37 Sr3 2.505193 1_554
F37 Sr7 2.624700 1_544
F38 Sr0 2.505193 1_555
F38 Sr4 2.624700 1_555
F39 Sr1 2.505193 1_556
F39 Sr5 2.624700 1_566
