# generated using pymatgen
data_MnNiSe2
_symmetry_space_group_name_H-M   'P 1'
_cell_length_a   3.63863085
_cell_length_b   3.63863085
_cell_length_c   5.32616800
_cell_angle_alpha   90.00000000
_cell_angle_beta   90.00000000
_cell_angle_gamma   120.00001551
_symmetry_Int_Tables_number   1
_chemical_formula_structural   MnNiSe2
_chemical_formula_sum   'Mn1 Ni1 Se2'
_cell_volume   61.06908602
_cell_formula_units_Z   1
loop_
 _symmetry_equiv_pos_site_id
 _symmetry_equiv_pos_as_xyz
  1  'x, y, z'
loop_
 _atom_site_type_symbol
 _atom_site_label
 _atom_site_symmetry_multiplicity
 _atom_site_fract_x
 _atom_site_fract_y
 _atom_site_fract_z
 _atom_site_occupancy
  Mn  Mn0  1  0.00000000  0.00000000  0.50000000  1
  Ni  Ni0  1  0.00000000  0.00000000  0.00000000  1
  Se  Se0  1  0.66666700  0.33333300  0.25831700  1
  Se  Se1  1  0.33333300  0.66666700  0.74168300  1
loop_
_geom_bond_atom_site_label_1
_geom_bond_atom_site_label_2
_geom_bond_distance
_geom_bond_site_symmetry_2
Mn0 Se0 2.463778 1_455
Mn0 Se1 2.463778 1_545
Mn0 Se0 2.463780 1_445
Mn0 Se1 2.463780 1_445
Mn0 Se0 2.463780 1_555
Mn0 Se1 2.463780 1_555
Mn0 Ni0 2.663084 1_555
Mn0 Ni0 2.663084 1_556
Ni0 Se0 2.511203 1_455
Ni0 Se1 2.511203 1_544
Ni0 Se0 2.511205 1_445
Ni0 Se1 2.511205 1_554
Ni0 Se1 2.511205 1_444
Ni0 Se0 2.511205 1_555
