# generated using pymatgen
data_Li4V3P8O29
_symmetry_space_group_name_H-M   'P 1'
_cell_length_a   9.78218800
_cell_length_b   9.78653147
_cell_length_c   14.08554906
_cell_angle_alpha   89.76519171
_cell_angle_beta   89.81077842
_cell_angle_gamma   60.02233835
_symmetry_Int_Tables_number   1
_chemical_formula_structural   Li4V3P8O29
_chemical_formula_sum   'Li8 V6 P16 O58'
_cell_volume   1168.05374390
_cell_formula_units_Z   2
loop_
 _symmetry_equiv_pos_site_id
 _symmetry_equiv_pos_as_xyz
  1  'x, y, z'
loop_
 _atom_site_type_symbol
 _atom_site_label
 _atom_site_symmetry_multiplicity
 _atom_site_fract_x
 _atom_site_fract_y
 _atom_site_fract_z
 _atom_site_occupancy
  Li  Li0  1  0.91009500  0.77280400  0.43724900  1
  Li  Li1  1  0.31899900  0.90958100  0.43851100  1
  Li  Li2  1  0.32184100  0.76876800  0.94204700  1
  Li  Li3  1  0.90437000  0.31878900  0.94568000  1
  Li  Li4  1  0.77236300  0.32653100  0.43708600  1
  Li  Li5  1  0.08696700  0.68241600  0.06359900  1
  Li  Li6  1  0.68081900  0.09244500  0.55708500  1
  Li  Li7  1  0.22568300  0.09694300  0.06432700  1
  V  V0  1  0.43155900  0.56408400  0.74538600  1
  V  V1  1  0.56744100  0.42904100  0.24664700  1
  V  V2  1  0.99785500  0.56938000  0.25325500  1
  V  V3  1  0.00217100  0.43366900  0.74561900  1
  V  V4  1  0.56990100  0.99515000  0.75726600  1
  V  V5  1  0.43434400  0.99986400  0.24766500  1
  P  P0  1  0.77094400  0.91595700  0.15740800  1
  P  P1  1  0.91139600  0.77283400  0.65878900  1
  P  P2  1  0.31989400  0.91255500  0.65805800  1
  P  P3  1  0.66610700  0.66170100  0.87084900  1
  P  P4  1  0.66352500  0.66548200  0.37244100  1
  P  P5  1  0.31874600  0.76733700  0.15743600  1
  P  P6  1  0.23180100  0.68358600  0.34180200  1
  P  P7  1  0.91176400  0.32090200  0.15860800  1
  P  P8  1  0.08841200  0.68126500  0.84200800  1
  P  P9  1  0.77051500  0.31742300  0.65802500  1
  P  P10  1  0.68390300  0.23004800  0.84131800  1
  P  P11  1  0.33733800  0.32863600  0.62938800  1
  P  P12  1  0.33011500  0.33750600  0.12721600  1
  P  P13  1  0.68043700  0.08781700  0.34125900  1
  P  P14  1  0.08695300  0.22921700  0.34005500  1
  P  P15  1  0.22785600  0.08885100  0.84031200  1
  O  O0  1  0.75885200  0.00434700  0.43244300  1
  O  O1  1  0.74267700  0.91959500  0.66474300  1
  O  O2  1  0.01015800  0.75201000  0.93298100  1
  O  O3  1  0.91613300  0.74502000  0.16441300  1
  O  O4  1  0.61818100  0.90533600  0.17795800  1
  O  O5  1  0.66656800  0.81340600  0.82620600  1
  O  O6  1  0.47876100  0.90606100  0.68057300  1
  O  O7  1  0.23936500  0.00069700  0.92977200  1
  O  O8  1  0.33469100  0.91637200  0.15714400  1
  O  O9  1  0.81191100  0.67424200  0.33488500  1
  O  O10  1  0.90144700  0.61952000  0.67867300  1
  O  O11  1  0.51129100  0.81216100  0.33310600  1
  O  O12  1  0.66359600  0.66649200  0.97600700  1
  O  O13  1  0.66650600  0.65628100  0.47863100  1
  O  O14  1  0.51414000  0.66740100  0.82981800  1
  O  O15  1  0.89872200  0.48080900  0.17500400  1
  O  O16  1  0.81719800  0.51343700  0.82950400  1
  O  O17  1  0.34480500  0.74314800  0.66926100  1
  O  O18  1  0.20673900  0.78663900  0.24510800  1
  O  O19  1  0.24090100  0.76912100  0.42575100  1
  O  O20  1  0.24566700  0.75339100  0.06677200  1
  O  O21  1  0.48100600  0.61767000  0.17646600  1
  O  O22  1  0.66993500  0.51197700  0.32901000  1
  O  O23  1  0.25718000  0.66007400  0.83596700  1
  O  O24  1  0.61836900  0.47907600  0.67664500  1
  O  O25  1  0.91469600  0.34172000  0.66608800  1
  O  O26  1  0.99979100  0.79034400  0.75029400  1
  O  O27  1  0.98990100  0.76437900  0.56749700  1
  O  O28  1  0.99385800  0.23576900  0.42492700  1
  O  O29  1  0.08460500  0.66344600  0.34262800  1
  O  O30  1  0.38343400  0.52285200  0.32249900  1
  O  O31  1  0.74479500  0.33893800  0.16606100  1
  O  O32  1  0.33522200  0.47942400  0.67523000  1
  O  O33  1  0.52382000  0.38306200  0.82248400  1
  O  O34  1  0.76974900  0.23575900  0.92540400  1
  O  O35  1  0.75918800  0.24506700  0.56756600  1
  O  O36  1  0.78847500  0.20498700  0.74546400  1
  O  O37  1  0.66455400  0.25489000  0.33877100  1
  O  O38  1  0.18546000  0.49017300  0.16706300  1
  O  O39  1  0.09613000  0.52108600  0.81996000  1
  O  O40  1  0.48099800  0.33467600  0.17541600  1
  O  O41  1  0.33718100  0.33913500  0.02151300  1
  O  O42  1  0.33642600  0.33487400  0.52455500  1
  O  O43  1  0.48696800  0.18097700  0.67042800  1
  O  O44  1  0.09715500  0.38086800  0.32297400  1
  O  O45  1  0.18537900  0.33296100  0.67434300  1
  O  O46  1  0.65545000  0.08744900  0.83485600  1
  O  O47  1  0.79348600  0.99519300  0.25387800  1
  O  O48  1  0.76690300  0.00090100  0.07049300  1
  O  O49  1  0.51934300  0.10317600  0.32454700  1
  O  O50  1  0.32584700  0.18782600  0.16493300  1
  O  O51  1  0.38017100  0.09909300  0.82367300  1
  O  O52  1  0.08113500  0.25650600  0.83901300  1
  O  O53  1  0.99555500  0.24213000  0.06789900  1
  O  O54  1  0.00837300  0.20490800  0.24474200  1
  O  O55  1  0.25562800  0.08305600  0.33777800  1
  O  O56  1  0.24841100  0.98974200  0.56719200  1
  O  O57  1  0.20767900  0.00315400  0.74880400  1
loop_
_geom_bond_atom_site_label_1
_geom_bond_atom_site_label_2
_geom_bond_distance
_geom_bond_site_symmetry_2
Li0 O27 1.981404 1_555
Li0 O0 1.994337 1_565
Li0 O29 2.001698 1_655
Li0 O9 2.208661 1_555
Li1 O19 1.886242 1_555
Li1 O56 1.959489 1_555
Li1 O55 2.052828 1_565
Li1 O11 2.202851 1_555
Li2 O20 1.940504 1_556
Li2 O7 2.000102 1_565
Li2 O23 2.110901 1_555
Li2 O14 2.269359 1_555
Li3 O34 1.884085 1_555
Li3 O53 1.911265 1_556
Li3 O52 2.134471 1_655
Li3 O16 2.322518 1_555
Li4 O28 1.894322 1_555
Li4 O35 2.029565 1_555
Li4 O37 2.068333 1_555
Li4 O22 2.187543 1_555
Li5 O2 1.975056 1_554
Li5 O20 1.993193 1_555
Li5 O3 2.037840 1_455
Li5 O38 2.183376 1_555
Li6 O0 1.937577 1_555
Li6 O35 1.996822 1_555
Li6 O1 2.118805 1_545
Li6 O43 2.290167 1_555
Li7 O53 1.972944 1_455
Li7 O8 2.018993 1_545
Li7 O7 2.093844 1_554
Li7 O50 2.156312 1_555
O0 P13 1.508987 1_555
O1 P1 1.557263 1_555
O1 V4 1.961168 1_555
O2 P8 1.475970 1_555
O3 P0 1.565459 1_555
O3 V2 1.943055 1_555
O4 P0 1.574741 1_555
O4 V5 1.840413 1_555
O5 P3 1.612045 1_555
O5 V4 1.819848 1_555
O6 P2 1.556961 1_555
O6 V4 1.874263 1_555
O7 P15 1.496584 1_555
O8 P5 1.542389 1_555
O8 V5 2.014048 1_555
O9 P4 1.585266 1_555
O9 V2 1.952999 1_555
O10 P1 1.575263 1_555
O10 V3 1.835584 1_655
O11 P4 1.564584 1_555
O11 V5 1.998867 1_555
O12 P3 1.481876 1_555
O13 P4 1.497588 1_555
O14 P3 1.571484 1_555
O14 V0 1.980341 1_555
O15 P7 1.523773 1_555
O15 V2 1.939458 1_555
O16 P3 1.577065 1_555
O16 V3 1.965055 1_655
O17 P2 1.557984 1_555
O17 V0 1.856163 1_555
O18 P5 1.596034 1_555
O18 P6 1.635883 1_555
O19 P6 1.479915 1_555
O20 P5 1.505156 1_555
O21 P5 1.553357 1_555
O21 V1 1.879011 1_555
O22 P4 1.596297 1_555
O22 V1 1.959222 1_555
O23 P8 1.559762 1_555
O23 V0 1.953005 1_555
O24 P9 1.560300 1_555
O24 V0 1.855995 1_555
O25 P9 1.547613 1_555
O25 V3 1.892349 1_655
O26 P1 1.611078 1_555
O26 P8 1.622110 1_655
O27 P1 1.476813 1_555
O28 P14 1.482452 1_655
O29 P6 1.547830 1_555
O29 V2 1.987355 1_455
O30 P6 1.554886 1_555
O30 V1 1.888987 1_555
O31 P7 1.555903 1_555
O31 V1 1.882105 1_555
O32 P11 1.603818 1_555
O32 V0 1.828713 1_555
O33 P10 1.555998 1_555
O33 V0 1.877566 1_555
O34 P10 1.471440 1_555
O35 P9 1.491286 1_555
O36 P9 1.598653 1_555
O36 P10 1.634736 1_555
O37 P13 1.563491 1_555
O37 V1 1.965465 1_555
O38 P12 1.561573 1_555
O38 V2 2.003528 1_455
O39 P8 1.563672 1_555
O39 V3 1.863508 1_555
O40 P12 1.614247 1_555
O40 V1 1.835255 1_555
O41 P12 1.490650 1_555
O42 P11 1.477514 1_555
O43 P11 1.565198 1_555
O43 V4 1.993875 1_545
O44 P14 1.554168 1_555
O44 V2 1.874066 1_455
O45 P11 1.594847 1_555
O45 V3 1.849942 1_555
O46 P10 1.556498 1_555
O46 V4 1.865536 1_545
O47 P13 1.599348 1_565
O47 P0 1.636417 1_555
O48 P0 1.466475 1_545
O49 P13 1.525374 1_555
O49 V5 1.934261 1_545
O50 P12 1.576184 1_555
O50 V5 1.976805 1_545
O51 P15 1.559405 1_555
O51 V4 1.861179 1_545
O52 P15 1.548868 1_555
O52 V3 1.995740 1_555
O53 P7 1.506094 1_555
O54 P7 1.605590 1_455
O54 P14 1.625440 1_555
O55 P14 1.552760 1_555
O55 V5 1.975275 1_545
O56 P2 1.472362 1_555
O57 P15 1.606134 1_555
O57 P2 1.628595 1_545
