# generated using pymatgen
data_MgNi2(PO4)2
_symmetry_space_group_name_H-M   'P 1'
_cell_length_a   8.88247939
_cell_length_b   8.88247939
_cell_length_c   16.34737877
_cell_angle_alpha   61.18123245
_cell_angle_beta   61.18123245
_cell_angle_gamma   32.28827286
_symmetry_Int_Tables_number   1
_chemical_formula_structural   MgNi2(PO4)2
_chemical_formula_sum   'Mg4 Ni8 P8 O32'
_cell_volume   595.94026024
_cell_formula_units_Z   4
loop_
 _symmetry_equiv_pos_site_id
 _symmetry_equiv_pos_as_xyz
  1  'x, y, z'
loop_
 _atom_site_type_symbol
 _atom_site_label
 _atom_site_symmetry_multiplicity
 _atom_site_fract_x
 _atom_site_fract_y
 _atom_site_fract_z
 _atom_site_occupancy
  Mg  Mg0  1  0.44302300  0.85574300  0.37344900  1
  Mg  Mg1  1  0.14425700  0.55697700  0.12655100  1
  Mg  Mg2  1  0.85574300  0.44302300  0.87344900  1
  Mg  Mg3  1  0.55697700  0.14425700  0.62655100  1
  Ni  Ni0  1  0.20044300  0.60354100  0.46931500  1
  Ni  Ni1  1  0.39645900  0.79955700  0.03068500  1
  Ni  Ni2  1  0.79955700  0.39645900  0.53068500  1
  Ni  Ni3  1  0.50000000  0.00000000  0.50000000  1
  Ni  Ni4  1  0.60354100  0.20044300  0.96931500  1
  Ni  Ni5  1  0.60983600  0.39016400  0.75000000  1
  Ni  Ni6  1  0.39016400  0.60983600  0.25000000  1
  Ni  Ni7  1  0.00000000  0.50000000  0.00000000  1
  P  P0  1  0.06878300  0.51084000  0.35814500  1
  P  P1  1  0.77734500  0.17812200  0.11343300  1
  P  P2  1  0.93121700  0.48916000  0.64185500  1
  P  P3  1  0.17812200  0.77734500  0.61343300  1
  P  P4  1  0.51084000  0.06878300  0.85814500  1
  P  P5  1  0.48916000  0.93121700  0.14185500  1
  P  P6  1  0.22265500  0.82187800  0.88656700  1
  P  P7  1  0.82187800  0.22265500  0.38656700  1
  O  O0  1  0.70502500  0.81373300  0.60339100  1
  O  O1  1  0.77443300  0.40815700  0.41345800  1
  O  O2  1  0.81373300  0.70502500  0.10339100  1
  O  O3  1  0.79505000  0.35980900  0.03706600  1
  O  O4  1  0.20700900  0.33801300  0.56243300  1
  O  O5  1  0.63597300  0.26356300  0.21002700  1
  O  O6  1  0.64019100  0.20495000  0.46293400  1
  O  O7  1  0.85884100  0.08946700  0.61070300  1
  O  O8  1  0.20495000  0.64019100  0.96293400  1
  O  O9  1  0.59184300  0.22556700  0.08654200  1
  O  O10  1  0.84568000  0.39158000  0.64240600  1
  O  O11  1  0.59279400  0.00328300  0.76457100  1
  O  O12  1  0.22556700  0.59184300  0.58654200  1
  O  O13  1  0.08946700  0.85884100  0.11070300  1
  O  O14  1  0.29497500  0.18626700  0.39660900  1
  O  O15  1  0.15432000  0.60842000  0.35759400  1
  O  O16  1  0.00328300  0.59279400  0.26457100  1
  O  O17  1  0.35980900  0.79505000  0.53706600  1
  O  O18  1  0.39158000  0.84568000  0.14240600  1
  O  O19  1  0.40720600  0.99671700  0.23542900  1
  O  O20  1  0.91053300  0.14115900  0.88929700  1
  O  O21  1  0.33801300  0.20700900  0.06243300  1
  O  O22  1  0.14115900  0.91053300  0.38929700  1
  O  O23  1  0.26356300  0.63597300  0.71002700  1
  O  O24  1  0.40815700  0.77443300  0.91345800  1
  O  O25  1  0.18626700  0.29497500  0.89660900  1
  O  O26  1  0.99671700  0.40720600  0.73542900  1
  O  O27  1  0.66198700  0.79299100  0.93756700  1
  O  O28  1  0.79299100  0.66198700  0.43756700  1
  O  O29  1  0.73643700  0.36402700  0.28997300  1
  O  O30  1  0.36402700  0.73643700  0.78997300  1
  O  O31  1  0.60842000  0.15432000  0.85759400  1
loop_
_geom_bond_atom_site_label_1
_geom_bond_atom_site_label_2
_geom_bond_distance
_geom_bond_site_symmetry_2
Mg0 O19 2.013607 1_555
Mg0 O1 2.112184 1_555
Mg0 O14 2.134491 1_565
Mg0 O22 2.176907 1_555
Mg0 O17 2.317028 1_555
Mg0 O28 2.465886 1_555
Mg1 O16 2.013607 1_555
Mg1 O9 2.112184 1_555
Mg1 O2 2.134491 1_455
Mg1 O13 2.176907 1_555
Mg1 O8 2.317028 1_554
Mg1 O21 2.465886 1_555
Mg2 O26 2.013607 1_555
Mg2 O24 2.112184 1_555
Mg2 O25 2.134491 1_655
Mg2 O20 2.176907 1_555
Mg2 O3 2.317028 1_556
Mg2 O27 2.465886 1_555
Mg3 O11 2.013607 1_555
Mg3 O12 2.112184 1_555
Mg3 O0 2.134491 1_545
Mg3 O7 2.176907 1_555
Mg3 O6 2.317028 1_555
Mg3 O4 2.465886 1_555
Ni0 O12 1.978417 1_555
Ni0 O15 2.029849 1_555
Ni0 O22 2.054643 1_555
Ni0 O4 2.067622 1_555
Ni0 O6 2.093938 1_555
Ni1 O24 1.978417 1_554
Ni1 O18 2.029849 1_555
Ni1 O13 2.054643 1_555
Ni1 O27 2.067622 1_554
Ni1 O3 2.093938 1_555
Ni2 O1 1.978417 1_555
Ni2 O10 2.029849 1_555
Ni2 O7 2.054643 1_555
Ni2 O28 2.067622 1_555
Ni2 O17 2.093938 1_555
Ni3 O4 2.002877 1_555
Ni3 O28 2.002877 1_545
Ni3 O0 2.021821 1_545
Ni3 O14 2.021821 1_555
Ni4 O9 1.978417 1_556
Ni4 O31 2.029849 1_555
Ni4 O20 2.054643 1_555
Ni4 O21 2.067622 1_556
Ni4 O8 2.093938 1_555
Ni5 O23 1.965287 1_555
Ni5 O30 1.965287 1_555
Ni5 O31 1.988281 1_555
Ni5 O10 1.988281 1_555
Ni6 O5 1.965287 1_555
Ni6 O29 1.965287 1_555
Ni6 O15 1.988281 1_555
Ni6 O18 1.988281 1_555
Ni7 O21 2.002877 1_555
Ni7 O27 2.002877 1_454
Ni7 O2 2.021821 1_455
Ni7 O25 2.021821 1_554
O0 P2 1.555834 1_555
O1 P7 1.559323 1_555
O2 P5 1.555834 1_555
O3 P1 1.576444 1_555
O4 P2 1.594605 1_455
O5 P1 1.509523 1_555
O6 P7 1.576444 1_555
O7 P3 1.562158 1_645
O8 P6 1.576444 1_555
O9 P1 1.559323 1_555
O10 P2 1.558174 1_555
O11 P4 1.508891 1_555
O12 P3 1.559323 1_555
O13 P1 1.562158 1_465
O14 P0 1.555834 1_555
O15 P0 1.558174 1_555
O16 P0 1.508891 1_555
O17 P3 1.576444 1_555
O18 P5 1.558174 1_555
O19 P5 1.508891 1_555
O20 P6 1.562158 1_645
O21 P5 1.594605 1_545
O22 P7 1.562158 1_465
O23 P3 1.509523 1_555
O24 P6 1.559323 1_555
O25 P4 1.555834 1_555
O26 P2 1.508891 1_555
O27 P4 1.594605 1_565
O28 P0 1.594605 1_655
O29 P7 1.509523 1_555
O30 P6 1.509523 1_555
O31 P4 1.558174 1_555
