# generated using pymatgen
data_FeH10S2(NO2)4
_symmetry_space_group_name_H-M   'P 1'
_cell_length_a   7.63832684
_cell_length_b   7.51059861
_cell_length_c   17.06569534
_cell_angle_alpha   95.71934793
_cell_angle_beta   99.79645276
_cell_angle_gamma   103.58003673
_symmetry_Int_Tables_number   1
_chemical_formula_structural   FeH10S2(NO2)4
_chemical_formula_sum   'Fe4 H40 S8 N16 O32'
_cell_volume   927.77027714
_cell_formula_units_Z   4
loop_
 _symmetry_equiv_pos_site_id
 _symmetry_equiv_pos_as_xyz
  1  'x, y, z'
loop_
 _atom_site_type_symbol
 _atom_site_label
 _atom_site_symmetry_multiplicity
 _atom_site_fract_x
 _atom_site_fract_y
 _atom_site_fract_z
 _atom_site_occupancy
  Fe  Fe0  1  0.00013300  0.49982700  0.75010100  1
  Fe  Fe1  1  0.99995800  0.00012300  0.49994700  1
  Fe  Fe2  1  0.99974100  0.49969300  0.24990200  1
  Fe  Fe3  1  0.00018000  0.00020400  0.00003500  1
  H  H0  1  0.62654600  0.42107400  0.68598600  1
  H  H1  1  0.62645600  0.92105100  0.43589600  1
  H  H2  1  0.62600800  0.42123800  0.18586200  1
  H  H3  1  0.62658700  0.92133400  0.93601100  1
  H  H4  1  0.37350500  0.07882800  0.56398400  1
  H  H5  1  0.37352400  0.57857500  0.31397300  1
  H  H6  1  0.37409600  0.07865000  0.06409600  1
  H  H7  1  0.37357100  0.57902700  0.81412700  1
  H  H8  1  0.75154300  0.00148100  0.82221200  1
  H  H9  1  0.75133800  0.50143700  0.57222200  1
  H  H10  1  0.75081600  0.00146200  0.32208200  1
  H  H11  1  0.75103500  0.50137200  0.07204700  1
  H  H12  1  0.24839000  0.49855200  0.42777000  1
  H  H13  1  0.24895500  0.99864900  0.17792600  1
  H  H14  1  0.24922100  0.49853600  0.92793000  1
  H  H15  1  0.24870300  0.99864300  0.67777700  1
  H  H16  1  0.57234300  0.58691900  0.58815100  1
  H  H17  1  0.57193600  0.08706300  0.33810900  1
  H  H18  1  0.57230700  0.58724700  0.08807700  1
  H  H19  1  0.57252900  0.08701400  0.83811200  1
  H  H20  1  0.42767000  0.91308900  0.66186200  1
  H  H21  1  0.42743700  0.41303500  0.41190900  1
  H  H22  1  0.42771200  0.91277700  0.16192000  1
  H  H23  1  0.42808800  0.41292900  0.91189800  1
  H  H24  1  0.70425200  0.63904300  0.72835000  1
  H  H25  1  0.70394800  0.13904100  0.47824500  1
  H  H26  1  0.70435100  0.63917300  0.22822600  1
  H  H27  1  0.70449400  0.13936400  0.97830700  1
  H  H28  1  0.29571000  0.86083000  0.52166100  1
  H  H29  1  0.29547500  0.36053600  0.27170700  1
  H  H30  1  0.29561200  0.86072300  0.02176500  1
  H  H31  1  0.29614300  0.36104000  0.77176100  1
  H  H32  1  0.79242400  0.72627200  0.61311800  1
  H  H33  1  0.79208300  0.22632000  0.36299900  1
  H  H34  1  0.79255800  0.72621500  0.11304600  1
  H  H35  1  0.79267000  0.22632200  0.86311000  1
  H  H36  1  0.20756900  0.77377000  0.63691700  1
  H  H37  1  0.20731600  0.27369200  0.38689600  1
  H  H38  1  0.20748100  0.77379200  0.13694900  1
  H  H39  1  0.20791900  0.27368500  0.88699100  1
  S  S0  1  0.78186100  0.07133300  0.65545500  1
  S  S1  1  0.78150400  0.57132700  0.40533900  1
  S  S2  1  0.78151600  0.07093900  0.15543200  1
  S  S3  1  0.78188900  0.57142900  0.90562200  1
  S  S4  1  0.21813500  0.42864400  0.59454800  1
  S  S5  1  0.21809000  0.92857200  0.34438700  1
  S  S6  1  0.21852000  0.42903200  0.09455300  1
  S  S7  1  0.21838900  0.92874400  0.84467100  1
  N  N0  1  0.73206900  0.53789100  0.69062500  1
  N  N1  1  0.73186000  0.03796200  0.44051300  1
  N  N2  1  0.73183100  0.53782400  0.19048300  1
  N  N3  1  0.73218200  0.03809700  0.94060200  1
  N  N4  1  0.26795400  0.96205100  0.55937600  1
  N  N5  1  0.26783600  0.46188200  0.30938600  1
  N  N6  1  0.26819600  0.96213600  0.05949800  1
  N  N7  1  0.26819400  0.46208500  0.80950100  1
  N  N8  1  0.71121900  0.59125400  0.61105700  1
  N  N9  1  0.71084000  0.09131900  0.36095500  1
  N  N10  1  0.71114300  0.59125900  0.11093800  1
  N  N11  1  0.71140800  0.09133000  0.86102600  1
  N  N12  1  0.28879400  0.90876500  0.63895600  1
  N  N13  1  0.28855500  0.40869500  0.38897600  1
  N  N14  1  0.28887600  0.90875000  0.13905200  1
  N  N15  1  0.28919500  0.40869300  0.88904800  1
  O  O0  1  0.88926400  0.96452100  0.61123700  1
  O  O1  1  0.88855700  0.46438900  0.36099000  1
  O  O2  1  0.88931200  0.96438000  0.11128000  1
  O  O3  1  0.89004400  0.46515600  0.86167100  1
  O  O4  1  0.11070200  0.53541000  0.63877000  1
  O  O5  1  0.10999800  0.03492000  0.38834500  1
  O  O6  1  0.11079800  0.53563400  0.13871200  1
  O  O7  1  0.11112500  0.03580400  0.88890200  1
  O  O8  1  0.91373600  0.21114700  0.72054000  1
  O  O9  1  0.91334400  0.71136000  0.47030500  1
  O  O10  1  0.91250900  0.21086000  0.22068300  1
  O  O11  1  0.91295900  0.71151100  0.97075400  1
  O  O12  1  0.08627600  0.28885600  0.52945400  1
  O  O13  1  0.08691100  0.78852000  0.27927200  1
  O  O14  1  0.08749500  0.28913200  0.02931400  1
  O  O15  1  0.08662600  0.78858500  0.77973500  1
  O  O16  1  0.67316400  0.16177600  0.59948500  1
  O  O17  1  0.67281800  0.66174100  0.34940500  1
  O  O18  1  0.67282500  0.16120400  0.09939200  1
  O  O19  1  0.67305000  0.66148800  0.84951200  1
  O  O20  1  0.32686100  0.33816900  0.65050600  1
  O  O21  1  0.32694000  0.83854600  0.40051700  1
  O  O22  1  0.32719400  0.33877200  0.15059400  1
  O  O23  1  0.32711700  0.83849300  0.90067200  1
  O  O24  1  0.65895300  0.93607200  0.69398400  1
  O  O25  1  0.65871800  0.43615000  0.44395100  1
  O  O26  1  0.65858200  0.93547000  0.19384700  1
  O  O27  1  0.65903400  0.43577500  0.94400300  1
  O  O28  1  0.34104200  0.56392100  0.55602100  1
  O  O29  1  0.34099500  0.06419400  0.30600000  1
  O  O30  1  0.34145600  0.56452800  0.05614000  1
  O  O31  1  0.34121000  0.06386100  0.80603400  1
loop_
_geom_bond_atom_site_label_1
_geom_bond_atom_site_label_2
_geom_bond_distance
_geom_bond_site_symmetry_2
Fe0 O8 2.094683 1_455
Fe0 O15 2.095360 1_555
Fe0 N7 2.218980 1_555
Fe0 N0 2.220350 1_455
Fe0 O4 2.221652 1_555
Fe0 O3 2.222845 1_455
Fe1 O12 2.094960 1_655
Fe1 O9 2.095435 1_545
Fe1 N4 2.219668 1_645
Fe1 N1 2.219693 1_555
Fe1 O0 2.221492 1_545
Fe1 O5 2.223276 1_655
Fe2 O10 2.095487 1_555
Fe2 O13 2.095639 1_655
Fe2 N2 2.219213 1_555
Fe2 N5 2.219857 1_655
Fe2 O1 2.219890 1_555
Fe2 O6 2.221580 1_655
Fe3 O11 2.094585 1_444
Fe3 O14 2.096260 1_555
Fe3 N3 2.219177 1_454
Fe3 O7 2.219950 1_554
Fe3 N6 2.219971 1_545
Fe3 O2 2.221632 1_445
H0 N0 1.028617 1_555
H1 N1 1.028619 1_565
H2 N2 1.028825 1_555
H3 N3 1.028779 1_565
H4 N4 1.028615 1_545
H5 N5 1.028847 1_555
H6 N6 1.028861 1_545
H7 N7 1.028634 1_555
H8 N11 1.032125 1_555
H9 N8 1.032123 1_555
H10 N9 1.032118 1_555
H11 N10 1.032101 1_555
H12 N13 1.032079 1_555
H13 N14 1.032102 1_555
H14 N15 1.032136 1_555
H15 N12 1.032156 1_555
H16 N8 1.057950 1_555
H16 O28 1.720482 1_555
H17 N9 1.058093 1_555
H17 O29 1.717991 1_555
H18 N10 1.058103 1_555
H18 O30 1.717142 1_555
H19 N11 1.058032 1_555
H19 O31 1.720293 1_555
H20 N12 1.057970 1_555
H20 O24 1.720352 1_555
H21 N13 1.058074 1_555
H21 O25 1.719985 1_555
H22 N14 1.058099 1_555
H22 O26 1.717291 1_555
H23 N15 1.058064 1_555
H23 O27 1.718048 1_555
H24 N0 1.030369 1_555
H25 N1 1.030395 1_555
H26 N2 1.030373 1_555
H27 N3 1.030316 1_555
H28 N4 1.030418 1_555
H29 N5 1.030305 1_555
H30 N6 1.030385 1_555
H31 N7 1.030428 1_555
H32 N8 1.050899 1_555
H33 N9 1.050945 1_555
H34 N10 1.050961 1_555
H35 N11 1.050830 1_555
H36 N12 1.050873 1_555
H37 N13 1.050847 1_555
H38 N14 1.050932 1_555
H39 N15 1.051043 1_555
O0 S0 1.511652 1_565
O1 S1 1.511424 1_555
O2 S2 1.512150 1_565
O3 S3 1.511071 1_555
O4 S4 1.511651 1_555
O5 S5 1.511114 1_545
O6 S6 1.511985 1_555
O7 S7 1.512107 1_545
O8 S0 1.497034 1_555
O9 S1 1.496575 1_555
O10 S2 1.496439 1_555
O11 S3 1.496094 1_555
O12 S4 1.496982 1_555
O13 S5 1.496141 1_555
O14 S6 1.496342 1_555
O15 S7 1.496511 1_555
O16 S0 1.478987 1_555
O17 S1 1.478431 1_555
O18 S2 1.478798 1_555
O19 S3 1.479131 1_555
O20 S4 1.479147 1_555
O21 S5 1.479220 1_555
O22 S6 1.478711 1_555
O23 S7 1.478490 1_555
O24 S0 1.497017 1_565
O25 S1 1.497018 1_555
O26 S2 1.496831 1_565
O27 S3 1.496950 1_555
O28 S4 1.497061 1_555
O29 S5 1.497081 1_545
O30 S6 1.496935 1_555
O31 S7 1.497166 1_545
