# generated using pymatgen
data_Ca3(MgZn2)5
_symmetry_space_group_name_H-M   'P 1'
_cell_length_a   9.27466345
_cell_length_b   9.27466345
_cell_length_c   9.55649441
_cell_angle_alpha   89.86497754
_cell_angle_beta   89.86497754
_cell_angle_gamma   119.45070742
_symmetry_Int_Tables_number   1
_chemical_formula_structural   Ca3(MgZn2)5
_chemical_formula_sum   'Ca6 Mg10 Zn20'
_cell_volume   715.81062095
_cell_formula_units_Z   2
loop_
 _symmetry_equiv_pos_site_id
 _symmetry_equiv_pos_as_xyz
  1  'x, y, z'
loop_
 _atom_site_type_symbol
 _atom_site_label
 _atom_site_symmetry_multiplicity
 _atom_site_fract_x
 _atom_site_fract_y
 _atom_site_fract_z
 _atom_site_occupancy
  Ca  Ca0  1  0.41124300  0.20430000  0.24984100  1
  Ca  Ca1  1  0.20430000  0.41124300  0.74984100  1
  Ca  Ca2  1  0.20049300  0.79210200  0.75221300  1
  Ca  Ca3  1  0.79210200  0.20049300  0.25221300  1
  Ca  Ca4  1  0.79406500  0.59274800  0.24790800  1
  Ca  Ca5  1  0.59274800  0.79406500  0.74790800  1
  Mg  Mg0  1  0.31606800  0.15871200  0.90914600  1
  Mg  Mg1  1  0.14806100  0.84020200  0.08552500  1
  Mg  Mg2  1  0.69196300  0.84063600  0.08961700  1
  Mg  Mg3  1  0.15517100  0.31243400  0.09072000  1
  Mg  Mg4  1  0.84020200  0.14806100  0.58552500  1
  Mg  Mg5  1  0.84063600  0.69196300  0.58961700  1
  Mg  Mg6  1  0.31243400  0.15517100  0.59072000  1
  Mg  Mg7  1  0.15871200  0.31606800  0.40914600  1
  Mg  Mg8  1  0.15680600  0.84248800  0.40988600  1
  Mg  Mg9  1  0.84248800  0.15680600  0.90988600  1
  Zn  Zn0  1  0.84368300  0.68861000  0.90801400  1
  Zn  Zn1  1  0.68861000  0.84368300  0.40801400  1
  Zn  Zn2  1  0.99968000  0.99618700  0.75806000  1
  Zn  Zn3  1  0.99618700  0.99968000  0.25806000  1
  Zn  Zn4  1  0.33401500  0.66686600  0.00544000  1
  Zn  Zn5  1  0.66686600  0.33401500  0.50544000  1
  Zn  Zn6  1  0.66746800  0.33496100  0.99358100  1
  Zn  Zn7  1  0.33496100  0.66746800  0.49358100  1
  Zn  Zn8  1  0.43526500  0.86485100  0.25136600  1
  Zn  Zn9  1  0.43321000  0.57094400  0.25031700  1
  Zn  Zn10  1  0.57094400  0.43321000  0.75031700  1
  Zn  Zn11  1  0.56881800  0.13604600  0.74963200  1
  Zn  Zn12  1  0.13604600  0.56881800  0.24963200  1
  Zn  Zn13  1  0.86485100  0.43526500  0.75136600  1
  Zn  Zn14  1  0.99817800  0.50212300  0.99889700  1
  Zn  Zn15  1  0.50212300  0.99817800  0.49889700  1
  Zn  Zn16  1  0.50210100  0.50260900  0.49943500  1
  Zn  Zn17  1  0.50260900  0.50210100  0.99943500  1
  Zn  Zn18  1  0.49830400  0.99857300  0.00040300  1
  Zn  Zn19  1  0.99857300  0.49830400  0.50040300  1
loop_
_geom_bond_atom_site_label_1
_geom_bond_atom_site_label_2
_geom_bond_distance
_geom_bond_site_symmetry_2
Ca0 Zn6 3.199984 1_554
Ca0 Zn5 3.204836 1_555
Ca0 Zn8 3.263592 1_545
Ca0 Zn9 3.305107 1_555
Ca0 Mg0 3.348364 1_554
Ca0 Mg6 3.350787 1_555
Ca0 Zn3 3.352675 1_445
Ca0 Mg7 3.354992 1_555
Ca0 Mg3 3.363147 1_555
Ca0 Mg8 3.367563 1_545
Ca0 Zn18 3.391505 1_545
Ca0 Zn15 3.406245 1_545
Ca0 Zn17 3.425050 1_554
Ca0 Mg1 3.429993 1_545
Ca0 Zn16 3.435427 1_555
Ca1 Zn7 3.199984 1_555
Ca1 Zn4 3.204836 1_556
Ca1 Zn13 3.263592 1_455
Ca1 Zn10 3.305107 1_555
Ca1 Mg7 3.348364 1_555
Ca1 Mg3 3.350787 1_556
Ca1 Zn2 3.352675 1_445
Ca1 Mg0 3.354992 1_555
Ca1 Mg6 3.363147 1_555
Ca1 Mg9 3.367563 1_455
Ca1 Zn19 3.391505 1_455
Ca1 Zn14 3.406245 1_455
Ca1 Zn16 3.425050 1_555
Ca1 Mg4 3.429993 1_455
Ca1 Zn17 3.435427 1_555
Ca2 Zn4 3.186571 1_556
Ca2 Zn7 3.227538 1_555
Ca2 Zn13 3.242375 1_455
Ca2 Zn2 3.243660 1_455
Ca2 Mg1 3.285470 1_556
Ca2 Zn0 3.306976 1_455
Ca2 Zn11 3.336110 1_565
Ca2 Mg8 3.357104 1_555
Ca2 Zn14 3.361303 1_455
Ca2 Mg6 3.365832 1_565
Ca2 Mg5 3.376296 1_455
Ca2 Mg0 3.377429 1_565
Ca2 Zn19 3.428863 1_455
Ca2 Zn18 3.431159 1_556
Ca2 Zn15 3.468126 1_555
Ca3 Zn5 3.186571 1_555
Ca3 Zn6 3.227538 1_554
Ca3 Zn8 3.242375 1_545
Ca3 Zn3 3.243660 1_545
Ca3 Mg4 3.285470 1_555
Ca3 Zn1 3.306976 1_545
Ca3 Zn12 3.336110 1_655
Ca3 Mg9 3.357104 1_554
Ca3 Zn15 3.361303 1_545
Ca3 Mg3 3.365832 1_655
Ca3 Mg2 3.376296 1_545
Ca3 Mg7 3.377429 1_655
Ca3 Zn18 3.428863 1_545
Ca3 Zn19 3.431159 1_555
Ca3 Zn14 3.468126 1_554
Ca4 Zn6 3.206634 1_554
Ca4 Zn5 3.222085 1_555
Ca4 Zn9 3.252173 1_555
Ca4 Mg2 3.256075 1_555
Ca4 Zn12 3.286646 1_655
Ca4 Zn3 3.288336 1_555
Ca4 Zn1 3.310931 1_555
Ca4 Mg1 3.317275 1_655
Ca4 Zn0 3.336170 1_554
Ca4 Mg5 3.365565 1_555
Ca4 Zn17 3.384843 1_554
Ca4 Mg8 3.385011 1_655
Ca4 Zn14 3.392038 1_554
Ca4 Zn16 3.397507 1_555
Ca4 Zn19 3.439866 1_555
Ca5 Zn7 3.206634 1_555
Ca5 Zn4 3.222085 1_556
Ca5 Zn10 3.252173 1_555
Ca5 Mg5 3.256075 1_555
Ca5 Zn11 3.286646 1_565
Ca5 Zn2 3.288336 1_555
Ca5 Zn0 3.310931 1_555
Ca5 Mg4 3.317275 1_565
Ca5 Zn1 3.336170 1_555
Ca5 Mg2 3.365565 1_556
Ca5 Zn16 3.384843 1_555
Ca5 Mg9 3.385011 1_565
Ca5 Zn15 3.392038 1_555
Ca5 Zn17 3.397507 1_555
Ca5 Zn18 3.439866 1_556
Mg0 Zn18 2.879676 1_546
Mg0 Zn11 2.886583 1_555
Mg0 Zn10 2.901764 1_555
Mg0 Zn17 2.912472 1_555
Mg0 Zn2 2.940781 1_445
Mg0 Zn6 2.953780 1_555
Mg0 Mg6 3.043378 1_555
Mg0 Mg3 3.059751 1_556
Mg0 Mg1 3.071388 1_546
Mg1 Zn14 2.860245 1_454
Mg1 Zn12 2.917528 1_555
Mg1 Zn18 2.942998 1_555
Mg1 Zn4 2.978373 1_555
Mg1 Zn3 2.989947 1_455
Mg1 Zn0 2.992433 1_454
Mg1 Zn8 3.013675 1_555
Mg1 Mg8 3.100856 1_555
Mg2 Zn17 2.878002 1_554
Mg2 Zn9 2.904475 1_555
Mg2 Zn8 2.935647 1_555
Mg2 Zn3 2.944183 1_555
Mg2 Zn18 2.947391 1_555
Mg2 Zn0 2.988499 1_554
Mg2 Zn4 3.003877 1_555
Mg2 Zn1 3.043185 1_555
Mg2 Mg9 3.072016 1_564
Mg3 Zn12 2.902161 1_555
Mg3 Zn14 2.915990 1_454
Mg3 Zn17 2.940162 1_554
Mg3 Zn9 2.946259 1_555
Mg3 Zn4 2.973324 1_555
Mg3 Zn3 2.984411 1_445
Mg3 Mg7 3.043378 1_555
Mg3 Mg9 3.065814 1_454
Mg4 Zn15 2.860245 1_545
Mg4 Zn11 2.917528 1_555
Mg4 Zn19 2.942998 1_555
Mg4 Zn5 2.978373 1_555
Mg4 Zn2 2.989947 1_545
Mg4 Zn1 2.992433 1_545
Mg4 Zn13 3.013675 1_555
Mg4 Mg7 3.071388 1_655
Mg4 Mg9 3.100856 1_555
Mg5 Zn16 2.878002 1_555
Mg5 Zn10 2.904475 1_555
Mg5 Zn13 2.935647 1_555
Mg5 Zn2 2.944183 1_555
Mg5 Zn19 2.947391 1_555
Mg5 Zn1 2.988499 1_555
Mg5 Zn5 3.003877 1_555
Mg5 Zn0 3.043185 1_555
Mg5 Mg8 3.072016 1_655
Mg6 Zn11 2.902161 1_555
Mg6 Zn15 2.915990 1_545
Mg6 Zn16 2.940162 1_555
Mg6 Zn10 2.946259 1_555
Mg6 Zn5 2.973324 1_555
Mg6 Zn2 2.984411 1_445
Mg6 Mg7 3.059751 1_555
Mg6 Mg8 3.065814 1_545
Mg7 Zn19 2.879676 1_455
Mg7 Zn12 2.886583 1_555
Mg7 Zn9 2.901764 1_555
Mg7 Zn16 2.912472 1_555
Mg7 Zn3 2.940781 1_445
Mg7 Zn7 2.953780 1_555
Mg8 Zn12 2.892066 1_555
Mg8 Zn8 2.908807 1_555
Mg8 Zn19 2.909701 1_455
Mg8 Zn15 2.921804 1_555
Mg8 Zn3 2.930137 1_455
Mg8 Zn7 2.939805 1_555
Mg9 Zn11 2.892066 1_555
Mg9 Zn13 2.908807 1_555
Mg9 Zn18 2.909701 1_546
Mg9 Zn14 2.921804 1_555
Mg9 Zn2 2.930137 1_545
Mg9 Zn6 2.939805 1_555
Zn0 Zn2 2.863040 1_555
Zn0 Zn14 2.869649 1_555
Zn0 Zn13 2.875661 1_555
Zn0 Zn17 2.891586 1_555
Zn0 Zn10 2.902320 1_555
Zn0 Zn6 2.967776 1_555
Zn1 Zn3 2.863040 1_555
Zn1 Zn15 2.869649 1_555
Zn1 Zn8 2.875661 1_555
Zn1 Zn16 2.891586 1_555
Zn1 Zn9 2.902320 1_555
Zn1 Zn7 2.967776 1_555
Zn4 Zn9 2.814147 1_555
Zn4 Zn8 2.848180 1_555
Zn7 Zn9 2.799684 1_555
Zn7 Zn8 2.805335 1_555
Zn8 Zn9 2.716611 1_555
Zn10 Zn17 2.622194 1_555
Zn10 Zn16 2.640888 1_555
Zn10 Zn13 2.716611 1_555
Zn10 Zn11 2.746478 1_555
Zn10 Zn6 2.799684 1_555
Zn10 Zn5 2.814147 1_555
Zn11 Zn18 2.637193 1_546
Zn11 Zn15 2.646284 1_545
Zn11 Zn13 2.783511 1_555
Zn11 Zn5 2.823455 1_555
Zn11 Zn6 2.836563 1_555
Zn12 Zn19 2.637193 1_455
Zn12 Zn14 2.646284 1_454
Zn12 Zn9 2.746478 1_555
Zn12 Zn8 2.783511 1_555
Zn12 Zn4 2.823455 1_555
Zn12 Zn7 2.836563 1_555
Zn13 Zn14 2.603078 1_555
Zn13 Zn19 2.626460 1_555
Zn13 Zn6 2.805335 1_555
Zn13 Zn5 2.848180 1_555
Zn14 Zn6 2.671899 1_555
Zn14 Zn4 2.713256 1_656
Zn15 Zn8 2.603078 1_555
Zn15 Zn7 2.671899 1_555
Zn15 Zn5 2.713256 1_565
Zn16 Zn9 2.622194 1_555
Zn16 Zn7 2.659847 1_555
Zn16 Zn5 2.670805 1_555
Zn17 Zn9 2.640888 1_556
Zn17 Zn6 2.659847 1_555
Zn17 Zn4 2.670805 1_556
Zn18 Zn8 2.626460 1_555
Zn18 Zn4 2.679187 1_555
Zn18 Zn6 2.717473 1_564
Zn19 Zn5 2.679187 1_555
Zn19 Zn7 2.717473 1_655
