# generated using pymatgen
data_NaBS2
_symmetry_space_group_name_H-M   'P 1'
_cell_length_a   9.05654071
_cell_length_b   9.05654071
_cell_length_c   9.05654154
_cell_angle_alpha   112.80357692
_cell_angle_beta   112.80357692
_cell_angle_gamma   112.80357865
_symmetry_Int_Tables_number   1
_chemical_formula_structural   NaBS2
_chemical_formula_sum   'Na6 B6 S12'
_cell_volume   488.75699305
_cell_formula_units_Z   6
loop_
 _symmetry_equiv_pos_site_id
 _symmetry_equiv_pos_as_xyz
  1  'x, y, z'
loop_
 _atom_site_type_symbol
 _atom_site_label
 _atom_site_symmetry_multiplicity
 _atom_site_fract_x
 _atom_site_fract_y
 _atom_site_fract_z
 _atom_site_occupancy
  Na  Na0  1  0.78581550  0.25000000  0.71418450  1
  Na  Na1  1  0.71418450  0.78581550  0.25000000  1
  Na  Na2  1  0.75000000  0.28581550  0.21418450  1
  Na  Na3  1  0.21418450  0.75000000  0.28581550  1
  Na  Na4  1  0.25000000  0.71418450  0.78581550  1
  Na  Na5  1  0.28581550  0.21418450  0.75000000  1
  B  B0  1  0.25000000  0.36816550  0.13183450  1
  B  B1  1  0.86816550  0.75000000  0.63183450  1
  B  B2  1  0.75000000  0.63183450  0.86816550  1
  B  B3  1  0.36816550  0.13183450  0.25000000  1
  B  B4  1  0.13183450  0.25000000  0.36816550  1
  B  B5  1  0.63183450  0.86816550  0.75000000  1
  S  S0  1  0.25000000  0.12653783  0.37346217  1
  S  S1  1  0.98527625  0.75000000  0.51472375  1
  S  S2  1  0.75000000  0.51472375  0.98527625  1
  S  S3  1  0.48527625  0.01472375  0.25000000  1
  S  S4  1  0.01472375  0.25000000  0.48527625  1
  S  S5  1  0.25000000  0.48527625  0.01472375  1
  S  S6  1  0.37346217  0.25000000  0.12653783  1
  S  S7  1  0.12653783  0.37346217  0.25000000  1
  S  S8  1  0.75000000  0.87346217  0.62653783  1
  S  S9  1  0.62653783  0.75000000  0.87346217  1
  S  S10  1  0.87346217  0.62653783  0.75000000  1
  S  S11  1  0.51472375  0.98527625  0.75000000  1
loop_
_geom_bond_atom_site_label_1
_geom_bond_atom_site_label_2
_geom_bond_distance
_geom_bond_site_symmetry_2
Na0 S11 2.922046 1_545
Na0 S2 2.922046 1_555
Na0 S10 3.034644 1_555
Na0 S8 3.034644 1_545
Na0 S5 3.051710 1_656
Na0 S3 3.051710 1_555
Na1 S1 2.922046 1_555
Na1 S2 2.922046 1_554
Na1 S8 3.034645 1_555
Na1 S9 3.034645 1_554
Na1 S5 3.051710 1_555
Na1 S4 3.051710 1_665
Na2 S3 2.922046 1_555
Na2 S4 2.922046 1_655
Na2 S7 3.034644 1_655
Na2 S6 3.034644 1_555
Na2 S1 3.051710 1_555
Na2 S11 3.051710 1_544
Na3 S3 2.922046 1_565
Na3 S5 2.922046 1_555
Na3 S7 3.034644 1_555
Na3 S0 3.034644 1_565
Na3 S2 3.051710 1_454
Na3 S11 3.051710 1_555
Na4 S11 2.922046 1_555
Na4 S1 2.922046 1_455
Na4 S10 3.034644 1_455
Na4 S9 3.034644 1_555
Na4 S4 3.051710 1_555
Na4 S3 3.051710 1_566
Na5 S5 2.922046 1_556
Na5 S4 2.922046 1_555
Na5 S6 3.034645 1_556
Na5 S0 3.034645 1_555
Na5 S1 3.051710 1_445
Na5 S2 3.051710 1_555
B0 S5 1.766860 1_555
B0 S6 1.824042 1_555
B0 S7 1.824042 1_555
B1 S1 1.766860 1_555
B1 S8 1.824042 1_555
B1 S10 1.824042 1_555
B2 S2 1.766860 1_555
B2 S9 1.824042 1_555
B2 S10 1.824042 1_555
B3 S3 1.766860 1_555
B3 S0 1.824042 1_555
B3 S6 1.824042 1_555
B4 S4 1.766860 1_555
B4 S0 1.824042 1_555
B4 S7 1.824042 1_555
B5 S11 1.766860 1_555
B5 S9 1.824042 1_555
B5 S8 1.824042 1_555
