# generated using pymatgen
data_Li4MnCo2O7
_symmetry_space_group_name_H-M   'P 1'
_cell_length_a   4.99109900
_cell_length_b   5.88595257
_cell_length_c   8.96476553
_cell_angle_alpha   90.08281834
_cell_angle_beta   96.28001341
_cell_angle_gamma   105.62583105
_symmetry_Int_Tables_number   1
_chemical_formula_structural   Li4MnCo2O7
_chemical_formula_sum   'Li8 Mn2 Co4 O14'
_cell_volume   251.97430981
_cell_formula_units_Z   2
loop_
 _symmetry_equiv_pos_site_id
 _symmetry_equiv_pos_as_xyz
  1  'x, y, z'
loop_
 _atom_site_type_symbol
 _atom_site_label
 _atom_site_symmetry_multiplicity
 _atom_site_fract_x
 _atom_site_fract_y
 _atom_site_fract_z
 _atom_site_occupancy
  Li  Li0  1  0.42171800  0.35967300  0.85492200  1
  Li  Li1  1  0.72228900  0.93045000  0.43006400  1
  Li  Li2  1  0.85177900  0.21619200  0.70264200  1
  Li  Li3  1  0.15404500  0.78462600  0.29172200  1
  Li  Li4  1  0.28592000  0.07552300  0.56052100  1
  Li  Li5  1  0.56612300  0.63917200  0.15208200  1
  Li  Li6  1  0.00399100  0.49982100  0.00887100  1
  Li  Li7  1  0.14458900  0.28671300  0.28847000  1
  Mn  Mn0  1  0.99830300  0.99970300  0.00414500  1
  Mn  Mn1  1  0.56954200  0.14372800  0.14747800  1
  Co  Co0  1  0.28684700  0.56859800  0.56498600  1
  Co  Co1  1  0.85473200  0.71580700  0.71124500  1
  Co  Co2  1  0.42927100  0.85855000  0.85733100  1
  Co  Co3  1  0.71334700  0.42331500  0.42089800  1
  O  O0  1  0.27803100  0.28843700  0.06749500  1
  O  O1  1  0.58350100  0.88488800  0.65029100  1
  O  O2  1  0.70735500  0.15532800  0.94072000  1
  O  O3  1  0.01344500  0.74157400  0.50712100  1
  O  O4  1  0.14389800  0.01908400  0.80560300  1
  O  O5  1  0.44529500  0.59729400  0.36646100  1
  O  O6  1  0.82609600  0.43722200  0.20659100  1
  O  O7  1  0.56711800  0.40861400  0.64112600  1
  O  O8  1  0.84644800  0.97181500  0.19273500  1
  O  O9  1  0.99297100  0.26863300  0.49957700  1
  O  O10  1  0.27946900  0.84402400  0.07338300  1
  O  O11  1  0.44844400  0.10943000  0.33974500  1
  O  O12  1  0.71663000  0.70685700  0.92495400  1
  O  O13  1  0.14880400  0.56492600  0.78882100  1
loop_
_geom_bond_atom_site_label_1
_geom_bond_atom_site_label_2
_geom_bond_distance
_geom_bond_site_symmetry_2
Li0 O13 2.092389 1_555
Li0 O0 2.112108 1_556
Li0 O7 2.115746 1_555
Li0 O4 2.121989 1_555
Li0 O2 2.181104 1_555
Li0 O12 2.215945 1_555
Li1 O11 2.041940 1_565
Li1 O5 2.108456 1_555
Li1 O3 2.116074 1_655
Li1 O9 2.130558 1_565
Li1 O1 2.156434 1_555
Li1 O8 2.275661 1_555
Li2 O9 2.017660 1_555
Li2 O1 2.066177 1_545
Li2 O7 2.074300 1_555
Li2 O4 2.223425 1_655
Li2 O13 2.261301 1_655
Li2 O2 2.324417 1_555
Li3 O11 2.084524 1_565
Li3 O5 2.104839 1_555
Li3 O3 2.118374 1_555
Li3 O10 2.120732 1_555
Li3 O8 2.230334 1_455
Li3 O6 2.315602 1_455
Li4 O3 2.087358 1_545
Li4 O9 2.109645 1_455
Li4 O7 2.151147 1_555
Li4 O1 2.179811 1_545
Li4 O11 2.209130 1_555
Li4 O4 2.378247 1_555
Li5 O6 2.007287 1_555
Li5 O5 2.071915 1_555
Li5 O8 2.081944 1_555
Li5 O10 2.170136 1_555
Li5 O12 2.246033 1_554
Li5 O0 2.249929 1_555
Li6 O6 2.058124 1_455
Li6 O0 2.111014 1_555
Li6 O10 2.156731 1_555
Li6 O13 2.173866 1_554
Li6 O12 2.194573 1_454
Li6 O2 2.204090 1_454
Li7 O11 2.074009 1_555
Li7 O6 2.087044 1_455
Li7 O5 2.090915 1_555
Li7 O9 2.106217 1_455
Li7 O8 2.148593 1_445
Li7 O0 2.157098 1_555
Mn0 O8 1.916731 1_555
Mn0 O10 1.923030 1_655
Mn0 O0 1.924972 1_665
Mn0 O2 1.951547 1_564
Mn0 O12 1.980957 1_554
Mn0 O4 1.986945 1_664
Mn1 O11 1.881530 1_555
Mn1 O6 1.887317 1_555
Mn1 O8 1.931445 1_545
Mn1 O0 1.948755 1_555
Mn1 O10 2.014828 1_545
Mn1 O2 2.041414 1_554
Co0 O3 1.939807 1_555
Co0 O7 1.952439 1_555
Co0 O9 2.006555 1_455
Co0 O5 2.014500 1_555
Co0 O1 2.122769 1_555
Co0 O13 2.190045 1_555
Co1 O1 1.920194 1_555
Co1 O13 1.976680 1_655
Co1 O7 2.031300 1_555
Co1 O3 2.062121 1_655
Co1 O4 2.079827 1_665
Co1 O12 2.101905 1_555
Co2 O4 1.928303 1_565
Co2 O12 1.929492 1_555
Co2 O13 1.956831 1_555
Co2 O2 1.999940 1_565
Co2 O1 2.076220 1_555
Co2 O10 2.144901 1_556
Co3 O5 1.916600 1_555
Co3 O9 1.935256 1_555
Co3 O11 2.039720 1_555
Co3 O6 2.055870 1_555
Co3 O3 2.140339 1_655
Co3 O7 2.172487 1_555
