# generated using pymatgen
data_Mg14ZrCo
_symmetry_space_group_name_H-M   'P 1'
_cell_length_a   6.39136076
_cell_length_b   6.07049010
_cell_length_c   10.02475797
_cell_angle_alpha   90.00000000
_cell_angle_beta   90.00000000
_cell_angle_gamma   118.35272038
_symmetry_Int_Tables_number   1
_chemical_formula_structural   Mg14ZrCo
_chemical_formula_sum   'Mg14 Zr1 Co1'
_cell_volume   342.28964897
_cell_formula_units_Z   1
loop_
 _symmetry_equiv_pos_site_id
 _symmetry_equiv_pos_as_xyz
  1  'x, y, z'
loop_
 _atom_site_type_symbol
 _atom_site_label
 _atom_site_symmetry_multiplicity
 _atom_site_fract_x
 _atom_site_fract_y
 _atom_site_fract_z
 _atom_site_occupancy
  Mg  Mg0  1  0.16880748  0.33440324  0.62500000  1
  Mg  Mg1  1  0.16034067  0.83016983  0.62500000  1
  Mg  Mg2  1  0.62903155  0.30243053  0.12500000  1
  Mg  Mg3  1  0.66198646  0.33467058  0.62500000  1
  Mg  Mg4  1  0.62903155  0.82660002  0.12500000  1
  Mg  Mg5  1  0.66198646  0.82731489  0.62500000  1
  Mg  Mg6  1  0.33600582  0.16579046  0.36567160  1
  Mg  Mg7  1  0.33600582  0.16579046  0.88432840  1
  Mg  Mg8  1  0.33600582  0.67021636  0.36567160  1
  Mg  Mg9  1  0.33600582  0.67021636  0.88432840  1
  Mg  Mg10  1  0.84108384  0.17054242  0.38149136  1
  Mg  Mg11  1  0.84108384  0.17054242  0.86850864  1
  Mg  Mg12  1  0.87393404  0.68696752  0.34161264  1
  Mg  Mg13  1  0.87393404  0.68696752  0.90838736  1
  Zr  Zr0  1  0.13269724  0.31634812  0.12500000  1
  Co  Co0  1  0.18205955  0.84102928  0.12500000  1
loop_
_geom_bond_atom_site_label_1
_geom_bond_atom_site_label_2
_geom_bond_distance
_geom_bond_site_symmetry_2
Mg0 Mg1 3.035619 1_555
Mg0 Mg1 3.035619 1_545
Mg0 Mg10 3.058909 1_455
Mg0 Mg11 3.058909 1_455
Mg0 Mg5 3.151314 1_555
Mg0 Mg3 3.151314 1_555
Mg0 Mg7 3.160220 1_555
Mg0 Mg6 3.160220 1_555
Mg0 Mg8 3.160226 1_555
Mg0 Mg9 3.160226 1_555
Mg0 Mg5 3.240047 1_445
Mg0 Mg3 3.240047 1_455
Mg1 Mg9 3.161848 1_555
Mg1 Mg8 3.161848 1_555
Mg1 Mg6 3.161854 1_565
Mg1 Mg7 3.161854 1_565
Mg1 Mg3 3.176967 1_455
Mg1 Mg5 3.176968 1_455
Mg1 Mg3 3.214466 1_565
Mg1 Mg5 3.214466 1_555
Mg1 Mg12 3.265851 1_455
Mg1 Mg13 3.265851 1_455
Mg2 Zr0 3.179856 1_655
Mg2 Zr0 3.213234 1_555
Mg3 Mg5 2.990592 1_555
Mg3 Mg5 3.079898 1_545
Mg3 Mg7 3.181442 1_555
Mg3 Mg6 3.181442 1_555
Mg4 Zr0 3.179856 1_665
Mg4 Zr0 3.213234 1_555
Mg5 Mg9 3.181442 1_555
Mg5 Mg8 3.181442 1_555
Mg6 Zr0 3.077791 1_555
Mg7 Zr0 3.077791 1_556
Mg8 Zr0 3.077797 1_555
Mg9 Zr0 3.077797 1_556
Mg10 Zr0 3.049875 1_655
Mg10 Mg3 3.056999 1_555
Mg10 Mg5 3.057005 1_545
Mg10 Mg12 3.067030 1_555
Mg10 Mg12 3.067030 1_545
Mg10 Mg8 3.180981 1_655
Mg10 Mg6 3.180981 1_655
Mg10 Mg2 3.181172 1_555
Mg10 Mg4 3.181178 1_545
Mg10 Mg8 3.218446 1_545
Mg10 Mg6 3.218446 1_555
Mg11 Zr0 3.049875 1_656
Mg11 Mg3 3.056999 1_555
Mg11 Mg5 3.057005 1_545
Mg11 Mg13 3.067030 1_555
Mg11 Mg13 3.067030 1_545
Mg11 Mg9 3.180981 1_655
Mg11 Mg7 3.180981 1_655
Mg11 Mg2 3.181172 1_556
Mg11 Mg4 3.181178 1_546
Mg11 Mg9 3.218446 1_545
Mg11 Mg7 3.218446 1_555
Mg12 Mg5 3.424577 1_555
Mg12 Mg3 3.424582 1_555
Mg13 Mg5 3.424577 1_555
Mg13 Mg3 3.424582 1_555
Co0 Mg13 2.778309 1_454
Co0 Mg12 2.778309 1_455
Co0 Mg2 2.899382 1_565
Co0 Mg4 2.899382 1_555
Co0 Mg8 2.972093 1_555
Co0 Mg9 2.972093 1_554
Co0 Mg6 2.972099 1_565
Co0 Mg7 2.972099 1_564
Co0 Zr0 3.047917 1_565
Co0 Zr0 3.047917 1_555
