# generated using pymatgen
data_TiAs
_symmetry_space_group_name_H-M   'P 1'
_cell_length_a   3.64445296
_cell_length_b   3.64445404
_cell_length_c   12.04348028
_cell_angle_alpha   90.00000000
_cell_angle_beta   90.00000000
_cell_angle_gamma   120.00000883
_symmetry_Int_Tables_number   1
_chemical_formula_structural   TiAs
_chemical_formula_sum   'Ti4 As4'
_cell_volume   138.53114579
_cell_formula_units_Z   4
loop_
 _symmetry_equiv_pos_site_id
 _symmetry_equiv_pos_as_xyz
  1  'x, y, z'
loop_
 _atom_site_type_symbol
 _atom_site_label
 _atom_site_symmetry_multiplicity
 _atom_site_fract_x
 _atom_site_fract_y
 _atom_site_fract_z
 _atom_site_occupancy
  Ti  Ti0  1  0.33333300  0.66666700  0.11749296  1
  Ti  Ti1  1  0.66666700  0.33333300  0.61749296  1
  Ti  Ti2  1  0.66666700  0.33333300  0.88250704  1
  Ti  Ti3  1  0.33333300  0.66666700  0.38250704  1
  As  As0  1  -0.00000000  -0.00000000  0.00000000  1
  As  As1  1  -0.00000000  -0.00000000  0.50000000  1
  As  As2  1  0.33333300  0.66666700  0.75000000  1
  As  As3  1  0.66666700  0.33333300  0.25000000  1
loop_
_geom_bond_atom_site_label_1
_geom_bond_atom_site_label_2
_geom_bond_distance
_geom_bond_site_symmetry_2
As0 Ti2 2.535672 1_454
As0 Ti0 2.535672 1_545
As0 Ti0 2.535674 1_445
As0 Ti2 2.535674 1_554
As0 Ti2 2.535675 1_444
As0 Ti0 2.535675 1_555
As1 Ti3 2.535672 1_545
As1 Ti1 2.535672 1_455
As1 Ti1 2.535674 1_555
As1 Ti3 2.535674 1_445
As1 Ti1 2.535675 1_445
As1 Ti3 2.535675 1_555
As2 Ti1 2.640845 1_455
As2 Ti2 2.640845 1_455
As2 Ti1 2.640845 1_565
As2 Ti2 2.640845 1_565
As2 Ti1 2.640850 1_555
As2 Ti2 2.640850 1_555
As3 Ti3 2.640845 1_655
As3 Ti0 2.640845 1_655
As3 Ti3 2.640845 1_545
As3 Ti0 2.640845 1_545
As3 Ti3 2.640850 1_555
As3 Ti0 2.640850 1_555
