# generated using pymatgen
data_Mo3P2PbO14
_symmetry_space_group_name_H-M   'P 1'
_cell_length_a   6.52770500
_cell_length_b   8.57391632
_cell_length_c   10.84283071
_cell_angle_alpha   112.98154514
_cell_angle_beta   90.00000000
_cell_angle_gamma   90.00000000
_symmetry_Int_Tables_number   1
_chemical_formula_structural   Mo3P2PbO14
_chemical_formula_sum   'Mo6 P4 Pb2 O28'
_cell_volume   558.68610637
_cell_formula_units_Z   2
loop_
 _symmetry_equiv_pos_site_id
 _symmetry_equiv_pos_as_xyz
  1  'x, y, z'
loop_
 _atom_site_type_symbol
 _atom_site_label
 _atom_site_symmetry_multiplicity
 _atom_site_fract_x
 _atom_site_fract_y
 _atom_site_fract_z
 _atom_site_occupancy
  Mo  Mo0  1  0.75000000  0.75599200  0.98917300  1
  Mo  Mo1  1  0.25000000  0.24400800  0.01082700  1
  Mo  Mo2  1  0.75000000  0.74585100  0.66839300  1
  Mo  Mo3  1  0.25000000  0.25414900  0.33160700  1
  Mo  Mo4  1  0.75000000  0.16593600  0.62393400  1
  Mo  Mo5  1  0.25000000  0.83406400  0.37606600  1
  P  P0  1  0.75000000  0.15514400  0.93597100  1
  P  P1  1  0.25000000  0.84485600  0.06402900  1
  P  P2  1  0.25000000  0.87911800  0.69893000  1
  P  P3  1  0.75000000  0.12088200  0.30107000  1
  Pb  Pb0  1  0.25000000  0.50610500  0.73848400  1
  Pb  Pb1  1  0.75000000  0.49389500  0.26151600  1
  O  O0  1  0.75000000  0.60377200  0.05633300  1
  O  O1  1  0.25000000  0.39622800  0.94366700  1
  O  O2  1  0.75000000  0.96582000  0.16927500  1
  O  O3  1  0.25000000  0.03418000  0.83072500  1
  O  O4  1  0.06305200  0.77014300  0.97089200  1
  O  O5  1  0.56305200  0.22985700  0.02910800  1
  O  O6  1  0.93694800  0.22985700  0.02910800  1
  O  O7  1  0.43694800  0.77014300  0.97089200  1
  O  O8  1  0.75000000  0.63134300  0.79624700  1
  O  O9  1  0.25000000  0.36865700  0.20375300  1
  O  O10  1  0.75000000  0.95945800  0.88122500  1
  O  O11  1  0.25000000  0.04054200  0.11877500  1
  O  O12  1  0.75000000  0.57525200  0.51502100  1
  O  O13  1  0.25000000  0.42474800  0.48497900  1
  O  O14  1  0.75000000  0.94246300  0.61202000  1
  O  O15  1  0.25000000  0.05753700  0.38798000  1
  O  O16  1  0.06445500  0.76161300  0.69119200  1
  O  O17  1  0.56445500  0.23838700  0.30880800  1
  O  O18  1  0.93554500  0.23838700  0.30880800  1
  O  O19  1  0.43554500  0.76161300  0.69119200  1
  O  O20  1  0.52548200  0.28501300  0.63771800  1
  O  O21  1  0.02548200  0.71498700  0.36228200  1
  O  O22  1  0.47451800  0.71498700  0.36228200  1
  O  O23  1  0.97451800  0.28501300  0.63771800  1
  O  O24  1  0.75000000  0.22351700  0.82428000  1
  O  O25  1  0.25000000  0.77648300  0.17572000  1
  O  O26  1  0.75000000  0.06316000  0.41946600  1
  O  O27  1  0.25000000  0.93684000  0.58053400  1
loop_
_geom_bond_atom_site_label_1
_geom_bond_atom_site_label_2
_geom_bond_distance
_geom_bond_site_symmetry_2
Mo0 O0 1.725039 1_556
Mo0 O8 1.942251 1_555
Mo0 O4 2.061244 1_655
Mo0 O7 2.061244 1_555
Mo0 O2 2.075260 1_556
Mo0 O10 2.451060 1_555
Mo1 O1 1.725039 1_554
Mo1 O9 1.942251 1_555
Mo1 O6 2.061244 1_455
Mo1 O5 2.061244 1_555
Mo1 O3 2.075260 1_554
Mo1 O11 2.451060 1_555
Mo2 O12 1.733664 1_555
Mo2 O8 1.987088 1_555
Mo2 O14 2.004974 1_555
Mo2 O16 2.065609 1_655
Mo2 O19 2.065609 1_555
Mo2 O10 2.319352 1_555
Mo3 O13 1.733664 1_555
Mo3 O9 1.987088 1_555
Mo3 O15 2.004974 1_555
Mo3 O17 2.065609 1_555
Mo3 O18 2.065609 1_455
Mo3 O11 2.319352 1_555
Mo4 O23 1.758830 1_555
Mo4 O20 1.758830 1_555
Mo4 O14 1.869389 1_545
Mo4 O24 2.031070 1_555
Mo4 O26 2.041109 1_555
Mo5 O21 1.758830 1_555
Mo5 O22 1.758830 1_555
Mo5 O15 1.869389 1_565
Mo5 O25 2.031070 1_555
Mo5 O27 2.041109 1_555
O0 Pb1 2.733808 1_555
O1 Pb0 2.733808 1_555
O2 P3 1.525159 1_565
O3 P2 1.525159 1_545
O4 P1 1.553791 1_556
O5 P0 1.553791 1_554
O6 P0 1.553791 1_554
O7 P1 1.553791 1_556
O10 P0 1.545852 1_565
O11 P1 1.545852 1_545
O12 Pb1 2.558277 1_555
O13 Pb0 2.558277 1_555
O16 P2 1.556602 1_555
O16 Pb0 2.721448 1_555
O17 P3 1.556602 1_555
O17 Pb1 2.721448 1_555
O18 P3 1.556602 1_555
O18 Pb1 2.721448 1_555
O19 P2 1.556602 1_555
O19 Pb0 2.721448 1_555
O20 Pb0 2.530536 1_555
O21 Pb1 2.530536 1_455
O22 Pb1 2.530536 1_555
O23 Pb0 2.530536 1_655
O24 P0 1.537747 1_555
O25 P1 1.537747 1_555
O26 P3 1.545655 1_555
O27 P2 1.545655 1_555
