# generated using pymatgen
data_Li2FeGeO4
_symmetry_space_group_name_H-M   'P 1'
_cell_length_a   7.52362805
_cell_length_b   7.52360973
_cell_length_c   8.26703046
_cell_angle_alpha   65.25791980
_cell_angle_beta   65.25788653
_cell_angle_gamma   94.61933169
_symmetry_Int_Tables_number   1
_chemical_formula_structural   Li2FeGeO4
_chemical_formula_sum   'Li8 Fe4 Ge4 O16'
_cell_volume   366.96570852
_cell_formula_units_Z   4
loop_
 _symmetry_equiv_pos_site_id
 _symmetry_equiv_pos_as_xyz
  1  'x, y, z'
loop_
 _atom_site_type_symbol
 _atom_site_label
 _atom_site_symmetry_multiplicity
 _atom_site_fract_x
 _atom_site_fract_y
 _atom_site_fract_z
 _atom_site_occupancy
  Li  Li0  1  0.29064300  0.45833500  0.75027100  1
  Li  Li1  1  0.79064500  0.95834100  0.75027000  1
  Li  Li2  1  0.20859500  0.04091800  0.74974900  1
  Li  Li3  1  0.70859600  0.54091400  0.74975000  1
  Li  Li4  1  0.45833000  0.29063600  0.25027700  1
  Li  Li5  1  0.95833800  0.79063700  0.25027000  1
  Li  Li6  1  0.54091100  0.70859600  0.24974200  1
  Li  Li7  1  0.04091300  0.20859500  0.24974800  1
  Fe  Fe0  1  0.41395100  0.09067400  0.99997700  1
  Fe  Fe1  1  0.09067600  0.41395600  0.49997900  1
  Fe  Fe2  1  0.91395500  0.59067200  0.99997300  1
  Fe  Fe3  1  0.59068500  0.91395600  0.49997800  1
  Ge  Ge0  1  0.83026800  0.16185300  0.99999200  1
  Ge  Ge1  1  0.33027000  0.66185400  0.99999600  1
  Ge  Ge2  1  0.16185800  0.83027300  0.49998700  1
  Ge  Ge3  1  0.66185300  0.33027200  0.49999400  1
  O  O0  1  0.22856800  0.86867400  0.00007200  1
  O  O1  1  0.72857000  0.36867700  0.00006800  1
  O  O2  1  0.36868700  0.72857900  0.50004700  1
  O  O3  1  0.86867800  0.22857300  0.50006100  1
  O  O4  1  0.65909000  0.98380100  0.99999400  1
  O  O5  1  0.15908600  0.48379300  0.00000600  1
  O  O6  1  0.98379100  0.65908100  0.50001200  1
  O  O7  1  0.48378100  0.15907200  0.50003100  1
  O  O8  1  0.07596200  0.25546900  0.77468200  1
  O  O9  1  0.57596700  0.75548200  0.77468600  1
  O  O10  1  0.03011800  0.85059800  0.72525200  1
  O  O11  1  0.53011900  0.35059800  0.72526100  1
  O  O12  1  0.25545100  0.07596400  0.27467900  1
  O  O13  1  0.75545600  0.57596100  0.27468100  1
  O  O14  1  0.35059600  0.53010500  0.22526100  1
  O  O15  1  0.85059300  0.03009200  0.22525300  1
loop_
_geom_bond_atom_site_label_1
_geom_bond_atom_site_label_2
_geom_bond_distance
_geom_bond_site_symmetry_2
Li0 O5 1.982375 1_556
Li0 O11 2.002421 1_555
Li0 O2 2.007036 1_555
Li0 O8 2.012791 1_555
Li1 O4 1.982303 1_555
Li1 O10 2.002418 1_655
Li1 O3 2.006944 1_565
Li1 O9 2.012718 1_555
Li2 O7 1.981978 1_555
Li2 O8 2.002417 1_555
Li2 O0 2.007812 1_546
Li2 O10 2.013728 1_545
Li3 O6 1.982078 1_555
Li3 O9 2.002521 1_555
Li3 O1 2.007772 1_556
Li3 O11 2.013662 1_555
Li4 O7 1.982486 1_555
Li4 O14 2.002355 1_555
Li4 O1 2.006967 1_555
Li4 O12 2.012848 1_555
Li5 O6 1.982404 1_555
Li5 O15 2.002303 1_565
Li5 O0 2.006887 1_655
Li5 O13 2.012843 1_555
Li6 O4 1.982147 1_554
Li6 O13 2.002399 1_555
Li6 O2 2.007703 1_555
Li6 O14 2.013681 1_555
Li7 O5 1.982099 1_555
Li7 O12 2.002321 1_555
Li7 O3 2.007753 1_455
Li7 O15 2.013845 1_455
Fe0 O11 2.022743 1_555
Fe0 O12 2.023134 1_556
Fe0 O4 2.070528 1_545
Fe0 O0 2.087535 1_546
Fe1 O14 2.022756 1_555
Fe1 O8 2.023116 1_555
Fe1 O6 2.070497 1_455
Fe1 O3 2.087591 1_455
Fe2 O10 2.022776 1_655
Fe2 O13 2.023172 1_556
Fe2 O5 2.070521 1_656
Fe2 O1 2.087516 1_556
Fe3 O15 2.022757 1_565
Fe3 O9 2.023126 1_555
Fe3 O7 2.070535 1_565
Fe3 O2 2.087629 1_555
Ge0 O4 1.781916 1_545
Ge0 O15 1.786486 1_556
Ge0 O8 1.786761 1_655
Ge0 O1 1.788562 1_556
Ge1 O5 1.781952 1_556
Ge1 O14 1.786507 1_556
Ge1 O9 1.786763 1_555
Ge1 O0 1.788550 1_556
Ge2 O6 1.781947 1_455
Ge2 O10 1.786493 1_555
Ge2 O12 1.786761 1_565
Ge2 O2 1.788559 1_555
Ge3 O7 1.781952 1_555
Ge3 O11 1.786506 1_555
Ge3 O13 1.786761 1_555
Ge3 O3 1.788562 1_555
