# generated using pymatgen
data_Sr5Mn(Fe2O5)2
_symmetry_space_group_name_H-M   'P 1'
_cell_length_a   3.48649400
_cell_length_b   20.67735352
_cell_length_c   8.13244900
_cell_angle_alpha   78.66005020
_cell_angle_beta   90.00081714
_cell_angle_gamma   89.99986137
_symmetry_Int_Tables_number   1
_chemical_formula_structural   Sr5Mn(Fe2O5)2
_chemical_formula_sum   'Sr10 Mn2 Fe8 O20'
_cell_volume   574.83471300
_cell_formula_units_Z   2
loop_
 _symmetry_equiv_pos_site_id
 _symmetry_equiv_pos_as_xyz
  1  'x, y, z'
loop_
 _atom_site_type_symbol
 _atom_site_label
 _atom_site_symmetry_multiplicity
 _atom_site_fract_x
 _atom_site_fract_y
 _atom_site_fract_z
 _atom_site_occupancy
  Sr  Sr0  1  0.49997600  0.50001100  0.00002000  1
  Sr  Sr1  1  0.50000100  0.50001100  0.50002200  1
  Sr  Sr2  1  0.49999900  0.09962000  0.20040800  1
  Sr  Sr3  1  0.50000900  0.09958900  0.69995400  1
  Sr  Sr4  1  0.49998600  0.90039100  0.79972500  1
  Sr  Sr5  1  0.49999500  0.90036500  0.29986500  1
  Sr  Sr6  1  0.49995900  0.30019500  0.10074200  1
  Sr  Sr7  1  0.49999500  0.30019200  0.59910400  1
  Sr  Sr8  1  0.49999000  0.69982300  0.89929400  1
  Sr  Sr9  1  0.49999800  0.69982700  0.40093400  1
  Mn  Mn0  1  0.00011900  0.99990000  0.49988600  1
  Mn  Mn1  1  0.00024400  0.00003400  0.99996000  1
  Fe  Fe0  1  0.99996900  0.20010000  0.39995700  1
  Fe  Fe1  1  0.99997000  0.79985400  0.60008700  1
  Fe  Fe2  1  0.99995900  0.40010100  0.79997100  1
  Fe  Fe3  1  0.00001000  0.59992300  0.20006700  1
  Fe  Fe4  1  0.99998400  0.20079200  0.89962200  1
  Fe  Fe5  1  0.99998400  0.79926300  0.10038700  1
  Fe  Fe6  1  0.99999700  0.40008300  0.29998300  1
  Fe  Fe7  1  0.99998500  0.59993600  0.70006100  1
  O  O0  1  0.00005100  0.49995300  0.25004900  1
  O  O1  1  0.00002000  0.50006900  0.74999100  1
  O  O2  1  0.00004000  0.99995600  0.26341100  1
  O  O3  1  0.00007200  0.99996100  0.73639100  1
  O  O4  1  0.99992100  0.09785700  0.45100400  1
  O  O5  1  0.00007100  0.10222400  0.94891800  1
  O  O6  1  0.99989200  0.89783100  0.05110100  1
  O  O7  1  0.99997400  0.90200200  0.54893000  1
  O  O8  1  0.00006000  0.30048100  0.34978300  1
  O  O9  1  0.99992700  0.30003800  0.85000200  1
  O  O10  1  0.00011200  0.69998500  0.15003700  1
  O  O11  1  0.00000400  0.69953300  0.65024700  1
  O  O12  1  0.99991900  0.20037500  0.15296000  1
  O  O13  1  0.00002300  0.20037400  0.64668200  1
  O  O14  1  0.99994100  0.79963700  0.84702100  1
  O  O15  1  0.00000200  0.79965600  0.35335000  1
  O  O16  1  0.99986400  0.40009200  0.04967200  1
  O  O17  1  0.00005900  0.40009300  0.55028500  1
  O  O18  1  0.99994700  0.59993700  0.95035300  1
  O  O19  1  0.99997200  0.59993600  0.44976300  1
loop_
_geom_bond_atom_site_label_1
_geom_bond_atom_site_label_2
_geom_bond_distance
_geom_bond_site_symmetry_2
Mn0 O2 1.922894 1_555
Mn0 O3 1.923613 1_555
Mn0 O7 1.984754 1_455
Mn0 O4 1.985950 1_465
Mn1 O5 2.071768 1_555
Mn1 O6 2.072032 1_446
Mn1 O2 2.142185 1_546
Mn1 O3 2.143759 1_545
Fe0 O12 2.007580 1_555
Fe0 O13 2.007600 1_655
Fe0 O8 2.035093 1_655
Fe0 O4 2.072843 1_555
Fe1 O14 2.007301 1_555
Fe1 O15 2.007385 1_655
Fe1 O11 2.033876 1_655
Fe1 O7 2.070917 1_555
Fe2 O1 2.026720 1_655
Fe2 O9 2.028646 1_555
Fe2 O17 2.030591 1_655
Fe2 O16 2.030644 1_556
Fe3 O0 2.026760 1_555
Fe3 O10 2.028626 1_555
Fe3 O19 2.030693 1_455
Fe3 O18 2.030729 1_454
Fe4 O5 1.998337 1_655
Fe4 O9 2.012082 1_555
Fe4 O12 2.058580 1_556
Fe4 O13 2.058739 1_655
Fe5 O6 1.998337 1_555
Fe5 O10 2.012731 1_655
Fe5 O15 2.058822 1_655
Fe5 O14 2.058979 1_554
Fe6 O8 2.019300 1_655
Fe6 O0 2.024733 1_655
Fe6 O16 2.035605 1_555
Fe6 O17 2.035609 1_655
Fe7 O11 2.019198 1_655
Fe7 O1 2.024672 1_655
Fe7 O18 2.035491 1_555
Fe7 O19 2.035536 1_555
O0 Sr0 2.677993 1_555
O0 Sr1 2.678024 1_555
O0 Sr1 2.678289 1_455
O0 Sr0 2.678296 1_455
O1 Sr0 2.678026 1_556
O1 Sr1 2.678108 1_555
O1 Sr1 2.678156 1_455
O1 Sr0 2.678263 1_456
O2 Sr5 2.669600 1_555
O2 Sr5 2.669817 1_455
O2 Sr2 2.670690 1_565
O2 Sr2 2.670861 1_465
O3 Sr4 2.669255 1_555
O3 Sr4 2.669663 1_455
O3 Sr3 2.670150 1_565
O3 Sr3 2.670425 1_465
O4 Sr2 2.676425 1_555
O4 Sr2 2.676817 1_655
O4 Sr3 2.677057 1_555
O4 Sr3 2.677419 1_655
O5 Sr2 2.679643 1_556
O5 Sr2 2.680008 1_456
O5 Sr3 2.680292 1_555
O5 Sr3 2.680536 1_455
O6 Sr5 2.678612 1_555
O6 Sr4 2.679008 1_554
O6 Sr5 2.679042 1_655
O6 Sr4 2.679473 1_654
O7 Sr5 2.677564 1_555
O7 Sr5 2.677696 1_655
O7 Sr4 2.678271 1_555
O7 Sr4 2.678287 1_655
O8 Sr7 2.672903 1_555
O8 Sr6 2.672905 1_555
O8 Sr7 2.673237 1_455
O8 Sr6 2.673327 1_455
O9 Sr7 2.683045 1_555
O9 Sr6 2.683149 1_556
O9 Sr6 2.683256 1_656
O9 Sr7 2.683391 1_655
O10 Sr9 2.682923 1_555
O10 Sr8 2.682979 1_554
O10 Sr9 2.683477 1_455
O10 Sr8 2.683494 1_454
O11 Sr9 2.673000 1_455
O11 Sr9 2.673011 1_555
O11 Sr8 2.673115 1_555
O11 Sr8 2.673216 1_455
O12 Sr6 2.670988 1_555
O12 Sr6 2.671185 1_655
O12 Sr2 2.685342 1_555
O12 Sr2 2.685690 1_655
O13 Sr7 2.671000 1_555
O13 Sr7 2.671114 1_455
O13 Sr3 2.685937 1_555
O13 Sr3 2.686015 1_455
O14 Sr8 2.670894 1_555
O14 Sr8 2.671102 1_655
O14 Sr4 2.685403 1_555
O14 Sr4 2.685621 1_655
O15 Sr9 2.671210 1_555
O15 Sr9 2.671242 1_455
O15 Sr5 2.684814 1_555
O15 Sr5 2.684831 1_455
O16 Sr6 2.672010 1_555
O16 Sr0 2.672281 1_555
O16 Sr6 2.672428 1_655
O16 Sr0 2.672804 1_655
O17 Sr7 2.672128 1_555
O17 Sr1 2.672402 1_555
O17 Sr7 2.672433 1_455
O17 Sr1 2.672652 1_455
O18 Sr8 2.671945 1_555
O18 Sr8 2.672155 1_655
O18 Sr0 2.672591 1_556
O18 Sr0 2.672709 1_656
O19 Sr9 2.672060 1_555
O19 Sr9 2.672193 1_655
O19 Sr1 2.672576 1_555
O19 Sr1 2.672694 1_655
