# generated using pymatgen
data_Sr2H4Pd
_symmetry_space_group_name_H-M   'P 1'
_cell_length_a   5.52058600
_cell_length_b   7.64964500
_cell_length_c   9.74596600
_cell_angle_alpha   90.00000000
_cell_angle_beta   90.00000000
_cell_angle_gamma   90.00000000
_symmetry_Int_Tables_number   1
_chemical_formula_structural   Sr2H4Pd
_chemical_formula_sum   'Sr8 H16 Pd4'
_cell_volume   411.57724222
_cell_formula_units_Z   4
loop_
 _symmetry_equiv_pos_site_id
 _symmetry_equiv_pos_as_xyz
  1  'x, y, z'
loop_
 _atom_site_type_symbol
 _atom_site_label
 _atom_site_symmetry_multiplicity
 _atom_site_fract_x
 _atom_site_fract_y
 _atom_site_fract_z
 _atom_site_occupancy
  Sr  Sr0  1  0.25000000  0.35003000  0.90848500  1
  Sr  Sr1  1  0.25000000  0.85003000  0.59151500  1
  Sr  Sr2  1  0.75000000  0.64997000  0.09151500  1
  Sr  Sr3  1  0.75000000  0.14997000  0.40848500  1
  Sr  Sr4  1  0.25000000  0.50887100  0.33126400  1
  Sr  Sr5  1  0.25000000  0.00887100  0.16873600  1
  Sr  Sr6  1  0.75000000  0.49112900  0.66873600  1
  Sr  Sr7  1  0.75000000  0.99112900  0.83126400  1
  H  H0  1  0.25000000  0.67530200  0.08884800  1
  H  H1  1  0.25000000  0.17530200  0.41115200  1
  H  H2  1  0.75000000  0.32469800  0.91115200  1
  H  H3  1  0.75000000  0.82469800  0.58884800  1
  H  H4  1  0.25000000  0.99215600  0.89947500  1
  H  H5  1  0.25000000  0.49215600  0.60052500  1
  H  H6  1  0.75000000  0.00784400  0.10052500  1
  H  H7  1  0.75000000  0.50784400  0.39947500  1
  H  H8  1  0.98454000  0.67630500  0.83988700  1
  H  H9  1  0.51546000  0.17630500  0.66011300  1
  H  H10  1  0.48454000  0.32369500  0.16011300  1
  H  H11  1  0.01546000  0.82369500  0.33988700  1
  H  H12  1  0.01546000  0.32369500  0.16011300  1
  H  H13  1  0.48454000  0.82369500  0.33988700  1
  H  H14  1  0.51546000  0.67630500  0.83988700  1
  H  H15  1  0.98454000  0.17630500  0.66011300  1
  Pd  Pd0  1  0.25000000  0.76055100  0.91585500  1
  Pd  Pd1  1  0.25000000  0.26055100  0.58414500  1
  Pd  Pd2  1  0.75000000  0.23944900  0.08414500  1
  Pd  Pd3  1  0.75000000  0.73944900  0.41585500  1
loop_
_geom_bond_atom_site_label_1
_geom_bond_atom_site_label_2
_geom_bond_distance
_geom_bond_site_symmetry_2
H0 Pd0 1.807708 1_554
H0 Sr5 2.667825 1_565
H0 Sr4 2.683776 1_555
H0 Sr2 2.767209 1_455
H0 Sr2 2.767209 1_555
H1 Pd1 1.807708 1_555
H1 Sr4 2.667825 1_555
H1 Sr5 2.683776 1_555
H1 Sr3 2.767209 1_455
H1 Sr3 2.767209 1_555
H2 Pd2 1.807708 1_556
H2 Sr7 2.667825 1_545
H2 Sr6 2.683776 1_555
H2 Sr0 2.767209 1_655
H2 Sr0 2.767209 1_555
H3 Pd3 1.807708 1_555
H3 Sr6 2.667825 1_555
H3 Sr7 2.683776 1_555
H3 Sr1 2.767209 1_655
H3 Sr1 2.767209 1_555
H4 Pd0 1.778874 1_555
H4 Sr5 2.627322 1_566
H4 Sr0 2.739017 1_565
H4 Sr7 2.839228 1_455
H4 Sr7 2.839228 1_555
H5 Pd1 1.778874 1_555
H5 Sr4 2.627322 1_555
H5 Sr1 2.739017 1_555
H5 Sr6 2.839228 1_555
H5 Sr6 2.839228 1_455
H6 Pd2 1.778874 1_555
H6 Sr7 2.627322 1_544
H6 Sr2 2.739017 1_545
H6 Sr5 2.839228 1_655
H6 Sr5 2.839228 1_555
H7 Pd3 1.778874 1_555
H7 Sr6 2.627322 1_555
H7 Sr3 2.739017 1_555
H7 Sr4 2.839228 1_555
H7 Sr4 2.839228 1_655
H8 Pd0 1.763848 1_655
H8 Sr6 2.542713 1_555
H8 Sr7 2.735587 1_555
H8 Sr2 2.780494 1_556
H9 Pd1 1.763848 1_555
H9 Sr7 2.542713 1_545
H9 Sr6 2.735587 1_555
H9 Sr3 2.780494 1_555
H10 Pd2 1.763848 1_555
H10 Sr4 2.542713 1_555
H10 Sr5 2.735587 1_555
H10 Sr0 2.780494 1_554
H11 Pd3 1.763848 1_455
H11 Sr5 2.542713 1_565
H11 Sr4 2.735587 1_555
H11 Sr1 2.780494 1_555
H12 Pd2 1.763848 1_455
H12 Sr4 2.542713 1_555
H12 Sr5 2.735587 1_555
H12 Sr0 2.780494 1_554
H13 Pd3 1.763848 1_555
H13 Sr5 2.542713 1_565
H13 Sr4 2.735587 1_555
H13 Sr1 2.780494 1_555
H14 Pd0 1.763848 1_555
H14 Sr6 2.542713 1_555
H14 Sr7 2.735587 1_555
H14 Sr2 2.780494 1_556
H15 Pd1 1.763848 1_655
H15 Sr7 2.542713 1_545
H15 Sr6 2.735587 1_555
H15 Sr3 2.780494 1_555
