# generated using pymatgen
data_Ti2MoW
_symmetry_space_group_name_H-M   'P 1'
_cell_length_a   10.54092452
_cell_length_b   10.54092452
_cell_length_c   10.54092452
_cell_angle_alpha   129.83864133
_cell_angle_beta   116.06764565
_cell_angle_gamma   85.40800322
_symmetry_Int_Tables_number   1
_chemical_formula_structural   Ti2MoW
_chemical_formula_sum   'Ti2 Mo1 W1'
_cell_volume   772.61198663
_cell_formula_units_Z   1
loop_
 _symmetry_equiv_pos_site_id
 _symmetry_equiv_pos_as_xyz
  1  'x, y, z'
loop_
 _atom_site_type_symbol
 _atom_site_label
 _atom_site_symmetry_multiplicity
 _atom_site_fract_x
 _atom_site_fract_y
 _atom_site_fract_z
 _atom_site_occupancy
  Ti  Ti0  1  0.00000000  0.24793900  0.24793900  1
  Ti  Ti1  1  0.00000000  0.75206100  0.75206100  1
  Mo  Mo0  1  0.00000000  0.00000000  0.00000000  1
  W  W0  1  0.00000000  0.50000000  0.50000000  1
loop_
_geom_bond_atom_site_label_1
_geom_bond_atom_site_label_2
_geom_bond_distance
_geom_bond_site_symmetry_2
Ti0 W0 2.252536 1_555
Ti1 W0 2.252536 1_555
Mo0 Ti0 2.215699 1_555
Mo0 Ti1 2.215699 1_544
