# generated using pymatgen
data_As2Se3S3(NF3)4
_symmetry_space_group_name_H-M   'P 1'
_cell_length_a   16.52403600
_cell_length_b   10.25195100
_cell_length_c   13.63999234
_cell_angle_alpha   49.62221158
_cell_angle_beta   90.00000000
_cell_angle_gamma   90.00000000
_symmetry_Int_Tables_number   1
_chemical_formula_structural   As2Se3S3(NF3)4
_chemical_formula_sum   'As8 Se12 S12 N16 F48'
_cell_volume   1760.23951192
_cell_formula_units_Z   4
loop_
 _symmetry_equiv_pos_site_id
 _symmetry_equiv_pos_as_xyz
  1  'x, y, z'
loop_
 _atom_site_type_symbol
 _atom_site_label
 _atom_site_symmetry_multiplicity
 _atom_site_fract_x
 _atom_site_fract_y
 _atom_site_fract_z
 _atom_site_occupancy
  As  As0  1  0.15489300  0.60769200  0.63692900  1
  As  As1  1  0.34510700  0.60769200  0.13692900  1
  As  As2  1  0.84510700  0.39230800  0.36307100  1
  As  As3  1  0.65489300  0.39230800  0.86307100  1
  As  As4  1  0.55829200  0.07044600  0.69408300  1
  As  As5  1  0.94170800  0.07044600  0.19408300  1
  As  As6  1  0.44170800  0.92955400  0.30591700  1
  As  As7  1  0.05829200  0.92955400  0.80591700  1
  Se  Se0  1  0.38375500  0.22102400  0.90488100  1
  Se  Se1  1  0.11624500  0.22102400  0.40488100  1
  Se  Se2  1  0.61624500  0.77897600  0.09511900  1
  Se  Se3  1  0.88375500  0.77897600  0.59511900  1
  Se  Se4  1  0.20710100  0.32820700  0.03333200  1
  Se  Se5  1  0.29289900  0.32820700  0.53333200  1
  Se  Se6  1  0.79289900  0.67179300  0.96666800  1
  Se  Se7  1  0.70710100  0.67179300  0.46666800  1
  Se  Se8  1  0.19930900  0.16165400  0.96374800  1
  Se  Se9  1  0.30069100  0.16165400  0.46374800  1
  Se  Se10  1  0.80069100  0.83834600  0.03625200  1
  Se  Se11  1  0.69930900  0.83834600  0.53625200  1
  S  S0  1  0.19063600  0.95883200  0.24192900  1
  S  S1  1  0.30936400  0.95883200  0.74192900  1
  S  S2  1  0.80936400  0.04116800  0.75807100  1
  S  S3  1  0.69063600  0.04116800  0.25807100  1
  S  S4  1  0.39851200  0.58839700  0.69661600  1
  S  S5  1  0.10148800  0.58839700  0.19661600  1
  S  S6  1  0.60148800  0.41160300  0.30338400  1
  S  S7  1  0.89851200  0.41160300  0.80338400  1
  S  S8  1  0.38736900  0.39141800  0.96261400  1
  S  S9  1  0.11263100  0.39141800  0.46261400  1
  S  S10  1  0.61263100  0.60858200  0.03738600  1
  S  S11  1  0.88736900  0.60858200  0.53738600  1
  N  N0  1  0.39273300  0.40534200  0.73841000  1
  N  N1  1  0.10726700  0.40534200  0.23841000  1
  N  N2  1  0.60726700  0.59465800  0.26159000  1
  N  N3  1  0.89273300  0.59465800  0.76159000  1
  N  N4  1  0.18905500  0.96386200  0.12466100  1
  N  N5  1  0.31094500  0.96386200  0.62466100  1
  N  N6  1  0.81094500  0.03613800  0.87533900  1
  N  N7  1  0.68905500  0.03613800  0.37533900  1
  N  N8  1  0.39757400  0.57170300  0.82009300  1
  N  N9  1  0.10242600  0.57170300  0.32009300  1
  N  N10  1  0.60242600  0.42829700  0.17990700  1
  N  N11  1  0.89757400  0.42829700  0.67990700  1
  N  N12  1  0.19807500  0.14093800  0.19999200  1
  N  N13  1  0.30192500  0.14093800  0.69999200  1
  N  N14  1  0.80192500  0.85906200  0.80000800  1
  N  N15  1  0.69807500  0.85906200  0.30000800  1
  F  F0  1  0.24130100  0.68447600  0.53663000  1
  F  F1  1  0.25869900  0.68447600  0.03663000  1
  F  F2  1  0.75869900  0.31552400  0.46337000  1
  F  F3  1  0.74130100  0.31552400  0.96337000  1
  F  F4  1  0.07133000  0.52476000  0.74261600  1
  F  F5  1  0.42867000  0.52476000  0.24261600  1
  F  F6  1  0.92867000  0.47524000  0.25738400  1
  F  F7  1  0.57133000  0.47524000  0.75738400  1
  F  F8  1  0.49236600  0.09416200  0.78403800  1
  F  F9  1  0.00763400  0.09416200  0.28403800  1
  F  F10  1  0.50763400  0.90583800  0.21596200  1
  F  F11  1  0.99236600  0.90583800  0.71596200  1
  F  F12  1  0.60688200  0.26443300  0.62964700  1
  F  F13  1  0.89311800  0.26443300  0.12964700  1
  F  F14  1  0.39311800  0.73556700  0.37035300  1
  F  F15  1  0.10688200  0.73556700  0.87035300  1
  F  F16  1  0.51264300  0.87246300  0.76113000  1
  F  F17  1  0.98735700  0.87246300  0.26113000  1
  F  F18  1  0.48735700  0.12753700  0.23887000  1
  F  F19  1  0.01264300  0.12753700  0.73887000  1
  F  F20  1  0.62666600  0.04186500  0.60887400  1
  F  F21  1  0.87333400  0.04186500  0.10887400  1
  F  F22  1  0.37333400  0.95813500  0.39112600  1
  F  F23  1  0.12666600  0.95813500  0.89112600  1
  F  F24  1  0.13877800  0.81234400  0.58733500  1
  F  F25  1  0.36122200  0.81234400  0.08733500  1
  F  F26  1  0.86122200  0.18765600  0.41266500  1
  F  F27  1  0.63877800  0.18765600  0.91266500  1
  F  F28  1  0.62838200  0.95518700  0.82994300  1
  F  F29  1  0.87161800  0.95518700  0.32994300  1
  F  F30  1  0.37161800  0.04481300  0.17005700  1
  F  F31  1  0.12838200  0.04481300  0.67005700  1
  F  F32  1  0.09264800  0.65300800  0.51293900  1
  F  F33  1  0.40735200  0.65300800  0.01293900  1
  F  F34  1  0.90735200  0.34699200  0.48706100  1
  F  F35  1  0.59264800  0.34699200  0.98706100  1
  F  F36  1  0.21905000  0.55126800  0.76739700  1
  F  F37  1  0.28095000  0.55126800  0.26739700  1
  F  F38  1  0.78095000  0.44873200  0.23260300  1
  F  F39  1  0.71905000  0.44873200  0.73260300  1
  F  F40  1  0.48946000  0.18042100  0.56271400  1
  F  F41  1  0.01054000  0.18042100  0.06271400  1
  F  F42  1  0.51054000  0.81957900  0.43728600  1
  F  F43  1  0.98946000  0.81957900  0.93728600  1
  F  F44  1  0.17492500  0.39903400  0.69026300  1
  F  F45  1  0.32507500  0.39903400  0.19026300  1
  F  F46  1  0.82507500  0.60096600  0.30973700  1
  F  F47  1  0.67492500  0.60096600  0.80973700  1
loop_
_geom_bond_atom_site_label_1
_geom_bond_atom_site_label_2
_geom_bond_distance
_geom_bond_site_symmetry_2
As0 F24 1.758288 1_555
As0 F32 1.765209 1_555
As0 F4 1.766235 1_555
As0 F0 1.770483 1_555
As0 F44 1.788433 1_555
As0 F36 1.814291 1_555
As1 F25 1.758288 1_555
As1 F33 1.765209 1_555
As1 F5 1.766235 1_555
As1 F1 1.770483 1_555
As1 F45 1.788433 1_555
As1 F37 1.814291 1_555
As2 F26 1.758288 1_555
As2 F34 1.765209 1_555
As2 F6 1.766235 1_555
As2 F2 1.770483 1_555
As2 F46 1.788433 1_555
As2 F38 1.814291 1_555
As3 F27 1.758288 1_555
As3 F35 1.765209 1_555
As3 F7 1.766235 1_555
As3 F3 1.770483 1_555
As3 F47 1.788433 1_555
As3 F39 1.814291 1_555
As4 F12 1.762823 1_555
As4 F16 1.766368 1_545
As4 F8 1.771396 1_555
As4 F20 1.776062 1_555
As4 F40 1.777092 1_555
As4 F28 1.826087 1_545
As5 F13 1.762823 1_555
As5 F17 1.766368 1_545
As5 F9 1.771396 1_655
As5 F21 1.776062 1_555
As5 F41 1.777092 1_655
As5 F29 1.826087 1_545
As6 F14 1.762823 1_555
As6 F18 1.766368 1_565
As6 F10 1.771396 1_555
As6 F22 1.776062 1_555
As6 F42 1.777092 1_555
As6 F30 1.826087 1_565
As7 F15 1.762823 1_555
As7 F19 1.766368 1_565
As7 F11 1.771396 1_455
As7 F23 1.776062 1_555
As7 F43 1.777092 1_455
As7 F31 1.826087 1_565
N0 S4 1.571580 1_555
N0 Se0 1.785876 1_555
N1 S5 1.571580 1_555
N1 Se1 1.785876 1_555
N2 S6 1.571580 1_555
N2 Se2 1.785876 1_555
N3 S7 1.571580 1_555
N3 Se3 1.785876 1_555
N4 S0 1.566838 1_555
N4 Se8 1.786457 1_564
N5 S1 1.566838 1_555
N5 Se9 1.786457 1_565
N6 S2 1.566838 1_555
N6 Se10 1.786457 1_546
N7 S3 1.566838 1_555
N7 Se11 1.786457 1_545
N8 S4 1.578821 1_555
N8 S8 1.602604 1_555
N9 S5 1.578821 1_555
N9 S9 1.602604 1_555
N10 S6 1.578821 1_555
N10 S10 1.602604 1_555
N11 S7 1.578821 1_555
N11 S11 1.602604 1_555
N12 S0 1.563371 1_545
N12 Se4 1.794752 1_555
N13 S1 1.563371 1_545
N13 Se5 1.794752 1_555
N14 S2 1.563371 1_565
N14 Se6 1.794752 1_555
N15 S3 1.563371 1_565
N15 Se7 1.794752 1_555
