# generated using pymatgen
data_Ba4Zr3TiO12
_symmetry_space_group_name_H-M   'P 1'
_cell_length_a   4.21571500
_cell_length_b   4.21571500
_cell_length_c   16.78091300
_cell_angle_alpha   90.00000000
_cell_angle_beta   90.00000000
_cell_angle_gamma   90.00000000
_symmetry_Int_Tables_number   1
_chemical_formula_structural   Ba4Zr3TiO12
_chemical_formula_sum   'Ba4 Zr3 Ti1 O12'
_cell_volume   298.23463076
_cell_formula_units_Z   1
loop_
 _symmetry_equiv_pos_site_id
 _symmetry_equiv_pos_as_xyz
  1  'x, y, z'
loop_
 _atom_site_type_symbol
 _atom_site_label
 _atom_site_symmetry_multiplicity
 _atom_site_fract_x
 _atom_site_fract_y
 _atom_site_fract_z
 _atom_site_occupancy
  Ba  Ba0  1  0.00000000  0.00000000  0.88379800  1
  Ba  Ba1  1  0.00000000  0.00000000  0.11620200  1
  Ba  Ba2  1  0.00000000  0.00000000  0.37290100  1
  Ba  Ba3  1  0.00000000  0.00000000  0.62709900  1
  Zr  Zr0  1  0.50000000  0.50000000  0.24636900  1
  Zr  Zr1  1  0.50000000  0.50000000  0.50000000  1
  Zr  Zr2  1  0.50000000  0.50000000  0.75363100  1
  Ti  Ti0  1  0.50000000  0.50000000  0.00000000  1
  O  O0  1  0.00000000  0.50000000  0.00000000  1
  O  O1  1  0.00000000  0.50000000  0.24701600  1
  O  O2  1  0.00000000  0.50000000  0.50000000  1
  O  O3  1  0.00000000  0.50000000  0.75298400  1
  O  O4  1  0.50000000  0.50000000  0.88367000  1
  O  O5  1  0.50000000  0.50000000  0.11633000  1
  O  O6  1  0.50000000  0.50000000  0.37293200  1
  O  O7  1  0.50000000  0.50000000  0.62706800  1
  O  O8  1  0.50000000  0.00000000  0.00000000  1
  O  O9  1  0.50000000  0.00000000  0.24701600  1
  O  O10  1  0.50000000  0.00000000  0.50000000  1
  O  O11  1  0.50000000  0.00000000  0.75298400  1
loop_
_geom_bond_atom_site_label_1
_geom_bond_atom_site_label_2
_geom_bond_distance
_geom_bond_site_symmetry_2
Ba0 O0 2.871492 1_556
Ba0 O8 2.871492 1_556
Ba0 O0 2.871492 1_546
Ba0 O8 2.871492 1_456
Ba0 O4 2.980961 1_555
Ba0 O4 2.980961 1_455
Ba0 O4 2.980961 1_445
Ba0 O4 2.980961 1_545
Ba0 O3 3.043332 1_545
Ba0 O11 3.043332 1_455
Ba0 O11 3.043332 1_555
Ba0 O3 3.043332 1_555
Ba1 O0 2.871492 1_555
Ba1 O8 2.871492 1_455
Ba1 O0 2.871492 1_545
Ba1 O8 2.871492 1_555
Ba1 O5 2.980961 1_445
Ba1 O5 2.980961 1_455
Ba1 O5 2.980961 1_545
Ba1 O5 2.980961 1_555
Ba1 O9 3.043332 1_455
Ba1 O1 3.043332 1_545
Ba1 O9 3.043332 1_555
Ba1 O1 3.043332 1_555
Ba2 O6 2.980961 1_555
Ba2 O6 2.980961 1_445
Ba2 O6 2.980961 1_545
Ba2 O6 2.980961 1_455
Ba2 O1 2.984221 1_555
Ba2 O9 2.984221 1_455
Ba2 O1 2.984221 1_545
Ba2 O9 2.984221 1_555
Ba2 O2 2.998676 1_545
Ba2 O10 2.998676 1_555
Ba2 O2 2.998676 1_555
Ba2 O10 2.998676 1_455
Ba3 O7 2.980961 1_455
Ba3 O7 2.980961 1_555
Ba3 O7 2.980961 1_445
Ba3 O7 2.980961 1_545
Ba3 O11 2.984221 1_455
Ba3 O3 2.984221 1_545
Ba3 O11 2.984221 1_555
Ba3 O3 2.984221 1_555
Ba3 O10 2.998676 1_555
Ba3 O10 2.998676 1_455
Ba3 O2 2.998676 1_555
Ba3 O2 2.998676 1_545
O0 Ti0 2.107858 1_455
O0 Ti0 2.107858 1_555
O1 Zr0 2.107885 1_455
O1 Zr0 2.107885 1_555
O2 Zr1 2.107858 1_455
O2 Zr1 2.107858 1_555
O3 Zr2 2.107885 1_455
O3 Zr2 2.107885 1_555
O4 Ti0 1.952124 1_556
O4 Zr2 2.182173 1_555
O5 Ti0 1.952124 1_555
O5 Zr0 2.182173 1_555
O6 Zr0 2.123843 1_555
O6 Zr1 2.132317 1_555
O7 Zr2 2.123843 1_555
O7 Zr1 2.132317 1_555
O8 Ti0 2.107858 1_545
O8 Ti0 2.107858 1_555
O9 Zr0 2.107885 1_545
O9 Zr0 2.107885 1_555
O10 Zr1 2.107858 1_555
O10 Zr1 2.107858 1_545
O11 Zr2 2.107885 1_545
O11 Zr2 2.107885 1_555
