# generated using pymatgen
data_Nd(NO5)3
_symmetry_space_group_name_H-M   'P 1'
_cell_length_a   6.90936084
_cell_length_b   9.41828243
_cell_length_c   11.63444481
_cell_angle_alpha   68.38592548
_cell_angle_beta   89.91803227
_cell_angle_gamma   65.70259708
_symmetry_Int_Tables_number   1
_chemical_formula_structural   Nd(NO5)3
_chemical_formula_sum   'Nd2 N6 O30'
_cell_volume   631.37059490
_cell_formula_units_Z   2
loop_
 _symmetry_equiv_pos_site_id
 _symmetry_equiv_pos_as_xyz
  1  'x, y, z'
loop_
 _atom_site_type_symbol
 _atom_site_label
 _atom_site_symmetry_multiplicity
 _atom_site_fract_x
 _atom_site_fract_y
 _atom_site_fract_z
 _atom_site_occupancy
  Nd  Nd0  1  0.14328100  0.36705900  0.78419300  1
  Nd  Nd1  1  0.85671900  0.63294100  0.21580700  1
  N  N0  1  0.06318500  0.16008300  0.01907000  1
  N  N1  1  0.93681500  0.83991700  0.98093000  1
  N  N2  1  0.15249600  0.26798100  0.31226500  1
  N  N3  1  0.84750400  0.73201900  0.68773500  1
  N  N4  1  0.09389400  0.15886500  0.65858200  1
  N  N5  1  0.90610600  0.84113500  0.34141800  1
  O  O0  1  0.29359100  0.12238300  0.34815700  1
  O  O1  1  0.70640900  0.87761700  0.65184300  1
  O  O2  1  0.62163100  0.25737800  0.42762500  1
  O  O3  1  0.37836900  0.74262200  0.57237500  1
  O  O4  1  0.10383000  0.35115700  0.38407200  1
  O  O5  1  0.89617000  0.64884300  0.61592800  1
  O  O6  1  0.56444800  0.27471800  0.11796900  1
  O  O7  1  0.43555200  0.72528200  0.88203100  1
  O  O8  1  0.62906900  0.36752200  0.33234800  1
  O  O9  1  0.37093100  0.63247800  0.66765200  1
  O  O10  1  0.05464500  0.06950900  0.61745500  1
  O  O11  1  0.94535500  0.93049100  0.38254500  1
  O  O12  1  0.01154800  0.07037200  0.10689300  1
  O  O13  1  0.98845200  0.92962800  0.89310700  1
  O  O14  1  0.25641200  0.11319800  0.99611100  1
  O  O15  1  0.74358800  0.88680200  0.00388900  1
  O  O16  1  0.49605800  0.71292000  0.17949300  1
  O  O17  1  0.50394200  0.28708000  0.82050700  1
  O  O18  1  0.49705100  0.43764500  0.54066300  1
  O  O19  1  0.50294900  0.56235500  0.45933700  1
  O  O20  1  0.07730200  0.68956900  0.05856900  1
  O  O21  1  0.92269800  0.31043100  0.94143100  1
  O  O22  1  0.57007700  0.64451700  0.97755000  1
  O  O23  1  0.42992300  0.35548300  0.02245000  1
  O  O24  1  0.04185500  0.35261200  0.19876900  1
  O  O25  1  0.95814500  0.64738800  0.80123100  1
  O  O26  1  0.27837000  0.11139100  0.72046000  1
  O  O27  1  0.72163000  0.88860900  0.27953900  1
  O  O28  1  0.05134500  0.69083700  0.35762300  1
  O  O29  1  0.94865500  0.30916300  0.64237700  1
loop_
_geom_bond_atom_site_label_1
_geom_bond_atom_site_label_2
_geom_bond_distance
_geom_bond_site_symmetry_2
Nd0 O17 2.275845 1_555
Nd0 O21 2.428185 1_455
Nd0 O29 2.469936 1_455
Nd0 O5 2.498789 1_455
Nd0 O25 2.500367 1_455
Nd0 O14 2.555610 1_555
Nd0 O26 2.585161 1_555
Nd1 O16 2.275845 1_555
Nd1 O20 2.428185 1_655
Nd1 O28 2.469936 1_655
Nd1 O4 2.498789 1_655
Nd1 O24 2.500367 1_655
Nd1 O15 2.555610 1_555
Nd1 O27 2.585154 1_555
N0 O12 1.223204 1_555
N0 O14 1.284322 1_554
N0 O21 1.300893 1_454
N1 O13 1.223204 1_555
N1 O15 1.284322 1_556
N1 O20 1.300893 1_656
N2 O0 1.218337 1_555
N2 O4 1.299715 1_555
N2 O24 1.299770 1_555
N3 O1 1.218337 1_555
N3 O5 1.299715 1_555
N3 O25 1.299770 1_555
N4 O10 1.222948 1_555
N4 O26 1.280357 1_555
N4 O29 1.296640 1_455
N5 O11 1.222948 1_555
N5 O27 1.280362 1_555
N5 O28 1.296640 1_655
O2 O8 1.226415 1_555
O3 O9 1.226415 1_555
O18 O19 1.223539 1_555
O22 O7 1.214869 1_555
O23 O6 1.214869 1_555
