# generated using pymatgen
data_InGaCuAgTe4
_symmetry_space_group_name_H-M   'P 1'
_cell_length_a   6.35710300
_cell_length_b   6.35710300
_cell_length_c   7.68317388
_cell_angle_alpha   65.56233596
_cell_angle_beta   65.56233596
_cell_angle_gamma   90.00000000
_symmetry_Int_Tables_number   1
_chemical_formula_structural   InGaCuAgTe4
_chemical_formula_sum   'In1 Ga1 Cu1 Ag1 Te4'
_cell_volume   251.80999914
_cell_formula_units_Z   1
loop_
 _symmetry_equiv_pos_site_id
 _symmetry_equiv_pos_as_xyz
  1  'x, y, z'
loop_
 _atom_site_type_symbol
 _atom_site_label
 _atom_site_symmetry_multiplicity
 _atom_site_fract_x
 _atom_site_fract_y
 _atom_site_fract_z
 _atom_site_occupancy
  In  In0  1  0.50000000  0.50000000  0.00000000  1
  Ga  Ga0  1  0.25000000  0.75000000  0.50000000  1
  Cu  Cu0  1  0.00000000  0.00000000  0.00000000  1
  Ag  Ag0  1  0.75000000  0.25000000  0.50000000  1
  Te  Te0  1  0.34902800  0.88350600  0.75040800  1
  Te  Te1  1  0.90056400  0.36608700  0.75040800  1
  Te  Te2  1  0.11649400  0.09943600  0.24959200  1
  Te  Te3  1  0.63391300  0.65097200  0.24959200  1
loop_
_geom_bond_atom_site_label_1
_geom_bond_atom_site_label_2
_geom_bond_distance
_geom_bond_site_symmetry_2
In0 Te1 2.863003 1_554
In0 Te3 2.863003 1_555
In0 Te2 2.863006 1_555
In0 Te0 2.863006 1_554
Ga0 Te1 2.677922 1_455
Ga0 Te3 2.677922 1_555
Ga0 Te2 2.677926 1_565
Ga0 Te0 2.677926 1_555
Cu0 Te0 2.608343 1_544
Cu0 Te2 2.608343 1_555
Cu0 Te3 2.608347 1_445
Cu0 Te1 2.608347 1_454
Ag0 Te0 2.803685 1_545
Ag0 Te2 2.803685 1_655
Ag0 Te3 2.803689 1_555
Ag0 Te1 2.803689 1_555
