# generated using pymatgen
data_TeMoWS3
_symmetry_space_group_name_H-M   'P 1'
_cell_length_a   3.27366161
_cell_length_b   3.27366161
_cell_length_c   39.65945300
_cell_angle_alpha   90.00000000
_cell_angle_beta   90.00000000
_cell_angle_gamma   119.99999203
_symmetry_Int_Tables_number   1
_chemical_formula_structural   TeMoWS3
_chemical_formula_sum   'Te2 Mo2 W2 S6'
_cell_volume   368.08231892
_cell_formula_units_Z   2
loop_
 _symmetry_equiv_pos_site_id
 _symmetry_equiv_pos_as_xyz
  1  'x, y, z'
loop_
 _atom_site_type_symbol
 _atom_site_label
 _atom_site_symmetry_multiplicity
 _atom_site_fract_x
 _atom_site_fract_y
 _atom_site_fract_z
 _atom_site_occupancy
  Te  Te0  1  0.66666700  0.33333300  0.42018000  1
  Te  Te1  1  0.66666700  0.33333300  0.51810700  1
  Mo  Mo0  1  0.33333300  0.66666700  0.09348300  1
  Mo  Mo1  1  0.66666700  0.33333300  0.28049000  1
  W  W0  1  0.33333300  0.66666700  0.46914600  1
  W  W1  1  0.66666700  0.33333300  0.65981800  1
  S  S0  1  0.33333300  0.66666700  0.31925100  1
  S  S1  1  0.33333300  0.66666700  0.69869500  1
  S  S2  1  0.66666700  0.33333300  0.05468600  1
  S  S3  1  0.66666700  0.33333300  0.13228100  1
  S  S4  1  0.33333300  0.66666700  0.24171500  1
  S  S5  1  0.33333300  0.66666700  0.62089500  1
loop_
_geom_bond_atom_site_label_1
_geom_bond_atom_site_label_2
_geom_bond_distance
_geom_bond_site_symmetry_2
Te0 W0 2.709891 1_545
Te0 W0 2.709891 1_655
Te0 W0 2.709894 1_555
Te1 W0 2.709749 1_545
Te1 W0 2.709749 1_655
Te1 W0 2.709752 1_555
Mo0 S2 2.437166 1_455
Mo0 S2 2.437166 1_565
Mo0 S2 2.437170 1_555
Mo0 S3 2.437191 1_455
Mo0 S3 2.437191 1_565
Mo0 S3 2.437195 1_555
Mo1 S0 2.436265 1_545
Mo1 S0 2.436265 1_655
Mo1 S0 2.436269 1_555
Mo1 S4 2.436615 1_545
Mo1 S4 2.436615 1_655
Mo1 S4 2.436620 1_555
S1 W1 2.439170 1_455
S1 W1 2.439170 1_565
S1 W1 2.439175 1_555
S5 W1 2.440324 1_455
S5 W1 2.440324 1_565
S5 W1 2.440328 1_555
