# generated using pymatgen
data_LaScS3
_symmetry_space_group_name_H-M   'P 1'
_cell_length_a   6.58114518
_cell_length_b   7.21722551
_cell_length_c   9.64897414
_cell_angle_alpha   90.00000000
_cell_angle_beta   90.00000000
_cell_angle_gamma   90.00000000
_symmetry_Int_Tables_number   1
_chemical_formula_structural   LaScS3
_chemical_formula_sum   'La4 Sc4 S12'
_cell_volume   458.30319978
_cell_formula_units_Z   4
loop_
 _symmetry_equiv_pos_site_id
 _symmetry_equiv_pos_as_xyz
  1  'x, y, z'
loop_
 _atom_site_type_symbol
 _atom_site_label
 _atom_site_symmetry_multiplicity
 _atom_site_fract_x
 _atom_site_fract_y
 _atom_site_fract_z
 _atom_site_occupancy
  La  La0  1  0.53339167  0.40618895  0.75000000  1
  La  La1  1  0.46660833  0.59381105  0.25000000  1
  La  La2  1  0.03339167  0.09381105  0.25000000  1
  La  La3  1  0.96660833  0.90618895  0.75000000  1
  Sc  Sc0  1  -0.00000000  0.50000000  -0.00000000  1
  Sc  Sc1  1  -0.00000000  0.50000000  0.50000000  1
  Sc  Sc2  1  0.50000000  -0.00000000  0.50000000  1
  Sc  Sc3  1  0.50000000  -0.00000000  -0.00000000  1
  S  S0  1  0.81848606  0.18896459  0.55846472  1
  S  S1  1  0.18151394  0.81103541  0.05846472  1
  S  S2  1  0.31848606  0.31103541  0.05846472  1
  S  S3  1  0.68151394  0.68896459  0.55846472  1
  S  S4  1  0.81848606  0.18896459  0.94153528  1
  S  S5  1  0.18151394  0.81103541  0.44153528  1
  S  S6  1  0.31848606  0.31103541  0.44153528  1
  S  S7  1  0.68151394  0.68896459  0.94153528  1
  S  S8  1  0.88170950  0.46725895  0.25000000  1
  S  S9  1  0.11829050  0.53274105  0.75000000  1
  S  S10  1  0.38170950  0.03274105  0.75000000  1
  S  S11  1  0.61829050  0.96725895  0.25000000  1
loop_
_geom_bond_atom_site_label_1
_geom_bond_atom_site_label_2
_geom_bond_distance
_geom_bond_site_symmetry_2
La0 S10 2.874178 1_555
La0 S9 2.880481 1_555
La0 S3 2.920770 1_555
La0 S7 2.920770 1_555
La0 S0 3.064916 1_555
La0 S4 3.064916 1_555
La0 S2 3.366111 1_556
La0 S6 3.366111 1_555
La1 S11 2.874178 1_555
La1 S8 2.880481 1_555
La1 S2 2.920770 1_555
La1 S6 2.920770 1_555
La1 S1 3.064916 1_555
La1 S5 3.064916 1_555
La1 S3 3.366111 1_555
La1 S7 3.366111 1_554
La2 S8 2.874178 1_455
La2 S11 2.880481 1_445
La2 S1 2.920770 1_545
La2 S5 2.920770 1_545
La2 S2 3.064916 1_555
La2 S6 3.064916 1_555
La2 S4 3.366111 1_454
La2 S0 3.366111 1_455
La3 S9 2.874178 1_655
La3 S10 2.880481 1_665
La3 S0 2.920770 1_565
La3 S4 2.920770 1_565
La3 S3 3.064916 1_555
La3 S7 3.064916 1_555
La3 S1 3.366111 1_656
La3 S5 3.366111 1_655
S0 Sc2 2.563477 1_555
S0 Sc1 2.604691 1_655
S1 Sc3 2.563477 1_565
S1 Sc0 2.604691 1_555
S2 Sc0 2.563477 1_555
S2 Sc3 2.604691 1_555
S3 Sc1 2.563477 1_655
S3 Sc2 2.604691 1_565
S4 Sc3 2.563477 1_556
S4 Sc0 2.604691 1_656
S5 Sc2 2.563477 1_565
S5 Sc1 2.604691 1_555
S6 Sc1 2.563477 1_555
S6 Sc2 2.604691 1_555
S7 Sc0 2.563477 1_656
S7 Sc3 2.604691 1_566
S8 Sc1 2.545741 1_655
S8 Sc0 2.545741 1_655
S9 Sc0 2.545741 1_556
S9 Sc1 2.545741 1_555
S10 Sc2 2.545741 1_555
S10 Sc3 2.545741 1_556
S11 Sc3 2.545741 1_565
S11 Sc2 2.545741 1_565
