# generated using pymatgen
data_Nd6Mg(GeS7)2
_symmetry_space_group_name_H-M   'P 1'
_cell_length_a   10.21753486
_cell_length_b   10.21753486
_cell_length_c   5.83358900
_cell_angle_alpha   90.00000000
_cell_angle_beta   90.00000000
_cell_angle_gamma   120.00000556
_symmetry_Int_Tables_number   1
_chemical_formula_structural   Nd6Mg(GeS7)2
_chemical_formula_sum   'Nd6 Mg1 Ge2 S14'
_cell_volume   527.42254682
_cell_formula_units_Z   1
loop_
 _symmetry_equiv_pos_site_id
 _symmetry_equiv_pos_as_xyz
  1  'x, y, z'
loop_
 _atom_site_type_symbol
 _atom_site_label
 _atom_site_symmetry_multiplicity
 _atom_site_fract_x
 _atom_site_fract_y
 _atom_site_fract_z
 _atom_site_occupancy
  Nd  Nd0  1  0.97462000  0.53511300  0.24172700  1
  Nd  Nd1  1  0.56049300  0.02538000  0.24172700  1
  Nd  Nd2  1  0.46488700  0.43950700  0.24172700  1
  Nd  Nd3  1  0.69039200  0.79826100  0.74669400  1
  Nd  Nd4  1  0.10786900  0.30960800  0.74669400  1
  Nd  Nd5  1  0.20173900  0.89213100  0.74669400  1
  Mg  Mg0  1  0.33333300  0.66666700  0.46674100  1
  Ge  Ge0  1  0.66666700  0.33333300  0.82538900  1
  Ge  Ge1  1  0.00000000  0.00000000  0.32989200  1
  S  S0  1  0.43687200  0.18617200  0.97889200  1
  S  S1  1  0.74930000  0.56312800  0.97889200  1
  S  S2  1  0.81382800  0.25070000  0.97889200  1
  S  S3  1  0.22993800  0.14624300  0.48416300  1
  S  S4  1  0.91630500  0.77006200  0.48416300  1
  S  S5  1  0.85375700  0.08369500  0.48416300  1
  S  S6  1  0.17583500  0.41781800  0.22876700  1
  S  S7  1  0.24198300  0.82416500  0.22876700  1
  S  S8  1  0.58218200  0.75801700  0.22876700  1
  S  S9  1  0.48803400  0.91472500  0.70572100  1
  S  S10  1  0.42669100  0.51196600  0.70572100  1
  S  S11  1  0.08527500  0.57330900  0.70572100  1
  S  S12  1  0.66666700  0.33333300  0.44746400  1
  S  S13  1  0.00000000  0.00000000  0.95292500  1
loop_
_geom_bond_atom_site_label_1
_geom_bond_atom_site_label_2
_geom_bond_distance
_geom_bond_site_symmetry_2
Nd0 S7 2.850069 1_655
Nd0 S6 2.851806 1_655
Nd0 S11 2.883724 1_655
Nd0 S1 2.896903 1_554
Nd0 S2 2.953067 1_554
Nd0 S12 3.017359 1_555
Nd0 S4 3.090053 1_555
Nd0 S11 3.281233 1_654
Nd1 S8 2.850069 1_545
Nd1 S7 2.851806 1_545
Nd1 S9 2.883724 1_545
Nd1 S2 2.896903 1_554
Nd1 S0 2.953068 1_554
Nd1 S12 3.017357 1_555
Nd1 S5 3.090053 1_555
Nd1 S9 3.281233 1_544
Nd2 S6 2.850069 1_555
Nd2 S8 2.851806 1_555
Nd2 S10 2.883724 1_555
Nd2 S0 2.896903 1_554
Nd2 S1 2.953067 1_554
Nd2 S12 3.017366 1_555
Nd2 S3 3.090053 1_555
Nd2 S10 3.281233 1_554
Nd3 S10 2.827028 1_555
Nd3 S9 2.865054 1_555
Nd3 S4 2.902017 1_555
Nd3 S5 2.961279 1_565
Nd3 S8 2.974129 1_556
Nd3 S13 3.030316 1_665
Nd3 S1 3.068391 1_555
Nd3 S8 3.172630 1_555
Nd4 S11 2.827028 1_555
Nd4 S10 2.865053 1_555
Nd4 S5 2.902016 1_455
Nd4 S3 2.961280 1_555
Nd4 S6 2.974129 1_556
Nd4 S13 3.030316 1_555
Nd4 S2 3.068391 1_455
Nd4 S6 3.172630 1_555
Nd5 S9 2.827028 1_555
Nd5 S11 2.865054 1_555
Nd5 S3 2.902017 1_565
Nd5 S4 2.961279 1_455
Nd5 S7 2.974129 1_556
Nd5 S13 3.030316 1_565
Nd5 S0 3.068391 1_565
Nd5 S7 3.172630 1_555
Mg0 S11 2.619099 1_555
Mg0 S9 2.619100 1_555
Mg0 S10 2.619107 1_555
Mg0 S7 2.624896 1_555
Mg0 S6 2.624902 1_555
Mg0 S8 2.624904 1_555
Ge0 S12 2.204659 1_555
Ge0 S2 2.246135 1_555
Ge0 S0 2.246142 1_555
Ge0 S1 2.246144 1_555
Ge1 S13 2.199071 1_554
Ge1 S3 2.247617 1_555
Ge1 S4 2.247617 1_445
Ge1 S5 2.247617 1_455
