# generated using pymatgen
data_LaNdAl4
_symmetry_space_group_name_H-M   'P 1'
_cell_length_a   5.71148828
_cell_length_b   5.71148828
_cell_length_c   5.71148828
_cell_angle_alpha   60.00000000
_cell_angle_beta   60.00000000
_cell_angle_gamma   60.00000000
_symmetry_Int_Tables_number   1
_chemical_formula_structural   LaNdAl4
_chemical_formula_sum   'La1 Nd1 Al4'
_cell_volume   131.74461447
_cell_formula_units_Z   1
loop_
 _symmetry_equiv_pos_site_id
 _symmetry_equiv_pos_as_xyz
  1  'x, y, z'
loop_
 _atom_site_type_symbol
 _atom_site_label
 _atom_site_symmetry_multiplicity
 _atom_site_fract_x
 _atom_site_fract_y
 _atom_site_fract_z
 _atom_site_occupancy
  La  La0  1  0.25000000  0.25000000  0.25000000  1
  Nd  Nd0  1  0.00000000  0.00000000  -0.00000000  1
  Al  Al0  1  0.62488251  0.62488251  0.12535147  1
  Al  Al1  1  0.62488251  0.12535147  0.62488251  1
  Al  Al2  1  0.12535147  0.62488251  0.62488251  1
  Al  Al3  1  0.62488251  0.62488251  0.62488251  1
loop_
_geom_bond_atom_site_label_1
_geom_bond_atom_site_label_2
_geom_bond_distance
_geom_bond_site_symmetry_2
La0 Nd0 3.497558 1_655
La0 Nd0 3.497558 1_565
La0 Nd0 3.497558 1_555
La0 Nd0 3.497558 1_556
Al0 Al2 2.853066 1_555
Al0 Al3 2.853066 1_555
Al0 Al1 2.853066 1_555
Al0 Al1 2.858423 1_564
Al0 Al3 2.858423 1_554
Al0 Al2 2.858423 1_654
Al0 La0 3.348369 1_555
Al0 La0 3.348374 1_655
Al0 La0 3.348374 1_565
Al0 Nd0 3.348941 1_565
Al0 Nd0 3.348941 1_655
Al0 Nd0 3.348946 1_665
Al1 Al2 2.853066 1_555
Al1 Al3 2.853066 1_555
Al1 Al2 2.858423 1_645
Al1 Al3 2.858423 1_545
Al1 La0 3.348369 1_555
Al1 La0 3.348374 1_655
Al1 La0 3.348374 1_556
Al1 Nd0 3.348941 1_556
Al1 Nd0 3.348941 1_655
Al1 Nd0 3.348946 1_656
Al2 Al3 2.853066 1_555
Al2 Al3 2.858423 1_455
Al2 La0 3.348369 1_555
Al2 La0 3.348374 1_565
Al2 La0 3.348374 1_556
Al2 Nd0 3.348941 1_556
Al2 Nd0 3.348941 1_565
Al2 Nd0 3.348946 1_566
Al3 La0 3.348371 1_565
Al3 La0 3.348371 1_556
Al3 La0 3.348371 1_655
Al3 Nd0 3.348943 1_566
Al3 Nd0 3.348943 1_665
Al3 Nd0 3.348943 1_656
