# generated using pymatgen
data_La2SiSeO4
_symmetry_space_group_name_H-M   'P 1'
_cell_length_a   6.29910805
_cell_length_b   7.33314001
_cell_length_c   11.21226438
_cell_angle_alpha   90.00000000
_cell_angle_beta   90.00000000
_cell_angle_gamma   90.00000000
_symmetry_Int_Tables_number   1
_chemical_formula_structural   La2SiSeO4
_chemical_formula_sum   'La8 Si4 Se4 O16'
_cell_volume   517.91962141
_cell_formula_units_Z   4
loop_
 _symmetry_equiv_pos_site_id
 _symmetry_equiv_pos_as_xyz
  1  'x, y, z'
loop_
 _atom_site_type_symbol
 _atom_site_label
 _atom_site_symmetry_multiplicity
 _atom_site_fract_x
 _atom_site_fract_y
 _atom_site_fract_z
 _atom_site_occupancy
  La  La0  1  0.39304467  0.75000000  0.50000000  1
  La  La1  1  0.39304467  0.75000000  -0.00000000  1
  La  La2  1  0.60695533  0.25000000  0.50000000  1
  La  La3  1  0.60695533  0.25000000  -0.00000000  1
  La  La4  1  0.87544219  0.96259088  0.75000000  1
  La  La5  1  0.87544219  0.53740912  0.25000000  1
  La  La6  1  0.12455781  0.46259088  0.75000000  1
  La  La7  1  0.12455781  0.03740912  0.25000000  1
  Si  Si0  1  0.11154808  0.25000000  -0.00000000  1
  Si  Si1  1  0.88845192  0.75000000  -0.00000000  1
  Si  Si2  1  0.88845192  0.75000000  0.50000000  1
  Si  Si3  1  0.11154808  0.25000000  0.50000000  1
  Se  Se0  1  0.58016156  0.60250452  0.75000000  1
  Se  Se1  1  0.58016156  0.89749548  0.25000000  1
  Se  Se2  1  0.41983844  0.10250452  0.75000000  1
  Se  Se3  1  0.41983844  0.39749548  0.25000000  1
  O  O0  1  0.26617977  0.07825909  0.46755906  1
  O  O1  1  0.26617977  0.42174091  0.53244094  1
  O  O2  1  0.73382023  0.57825909  0.03244094  1
  O  O3  1  0.73382023  0.92174091  0.96755906  1
  O  O4  1  0.73382023  0.92174091  0.53244094  1
  O  O5  1  0.73382023  0.57825909  0.46755906  1
  O  O6  1  0.26617977  0.42174091  0.96755906  1
  O  O7  1  0.26617977  0.07825909  0.03244094  1
  O  O8  1  0.04713870  0.76831868  0.38437307  1
  O  O9  1  0.04713870  0.76831868  0.11562693  1
  O  O10  1  0.95286130  0.26831868  0.11562693  1
  O  O11  1  0.95286130  0.23168132  0.88437307  1
  O  O12  1  0.95286130  0.23168132  0.61562693  1
  O  O13  1  0.95286130  0.26831868  0.38437307  1
  O  O14  1  0.04713870  0.73168132  0.88437307  1
  O  O15  1  0.04713870  0.73168132  0.61562693  1
loop_
_geom_bond_atom_site_label_1
_geom_bond_atom_site_label_2
_geom_bond_distance
_geom_bond_site_symmetry_2
La0 O4 2.515195 1_555
La0 O5 2.515195 1_555
La0 O15 2.538977 1_555
La0 O8 2.538977 1_555
La0 O0 2.562301 1_565
La0 O1 2.562301 1_555
La0 Se1 3.227431 1_555
La0 Se0 3.227431 1_555
La1 O3 2.515195 1_554
La1 O2 2.515195 1_555
La1 O14 2.538977 1_554
La1 O9 2.538977 1_555
La1 O6 2.562301 1_554
La1 O7 2.562301 1_565
La1 Se1 3.227431 1_555
La1 Se0 3.227431 1_554
La2 O0 2.515195 1_555
La2 O1 2.515195 1_555
La2 O13 2.538977 1_555
La2 O12 2.538977 1_555
La2 O4 2.562301 1_545
La2 O5 2.562301 1_555
La2 Se3 3.227431 1_555
La2 Se2 3.227431 1_555
La3 O7 2.515195 1_555
La3 O6 2.515195 1_554
La3 O11 2.538977 1_554
La3 O10 2.538977 1_555
La3 O2 2.562301 1_555
La3 O3 2.562301 1_544
La3 Se2 3.227431 1_554
La3 Se3 3.227431 1_555
La4 O15 2.511350 1_655
La4 O14 2.511350 1_655
La4 O11 2.530133 1_565
La4 O12 2.530133 1_565
La4 O3 2.614554 1_555
La4 O4 2.614554 1_555
La4 Se2 3.047786 1_565
La4 Se0 3.229891 1_555
La5 O9 2.511350 1_655
La5 O8 2.511350 1_655
La5 O13 2.530133 1_555
La5 O10 2.530133 1_555
La5 O2 2.614554 1_555
La5 O5 2.614554 1_555
La5 Se3 3.047786 1_555
La5 Se1 3.229891 1_555
La6 O11 2.511350 1_455
La6 O12 2.511350 1_455
La6 O15 2.530133 1_555
La6 O14 2.530133 1_555
La6 O1 2.614554 1_555
La6 O6 2.614554 1_555
La6 Se0 3.047786 1_555
La6 Se2 3.229891 1_555
La7 O10 2.511350 1_455
La7 O13 2.511350 1_455
La7 O8 2.530133 1_545
La7 O9 2.530133 1_545
La7 O7 2.614554 1_555
La7 O0 2.614554 1_555
La7 Se1 3.047786 1_545
La7 Se3 3.229891 1_555
O0 Si3 1.633141 1_555
O1 Si3 1.633141 1_555
O2 Si1 1.633141 1_555
O3 Si1 1.633141 1_556
O4 Si2 1.633141 1_555
O5 Si2 1.633141 1_555
O6 Si0 1.633141 1_556
O7 Si0 1.633141 1_555
O8 Si2 1.642550 1_455
O9 Si1 1.642550 1_455
O10 Si0 1.642550 1_655
O11 Si0 1.642550 1_656
O12 Si3 1.642550 1_655
O13 Si3 1.642550 1_655
O14 Si1 1.642550 1_456
O15 Si2 1.642550 1_455
