# generated using pymatgen
data_Mo3W(SeS)4
_symmetry_space_group_name_H-M   'P 1'
_cell_length_a   3.25346222
_cell_length_b   3.25346222
_cell_length_c   36.86057200
_cell_angle_alpha   90.00000000
_cell_angle_beta   90.00000000
_cell_angle_gamma   120.00000454
_symmetry_Int_Tables_number   1
_chemical_formula_structural   Mo3W(SeS)4
_chemical_formula_sum   'Mo3 W1 Se4 S4'
_cell_volume   337.89690895
_cell_formula_units_Z   1
loop_
 _symmetry_equiv_pos_site_id
 _symmetry_equiv_pos_as_xyz
  1  'x, y, z'
loop_
 _atom_site_type_symbol
 _atom_site_label
 _atom_site_symmetry_multiplicity
 _atom_site_fract_x
 _atom_site_fract_y
 _atom_site_fract_z
 _atom_site_occupancy
  Mo  Mo0  1  0.33333300  0.66666700  0.09389800  1
  Mo  Mo1  1  0.33333300  0.66666700  0.46966200  1
  Mo  Mo2  1  0.66666700  0.33333300  0.28182100  1
  W  W0  1  0.66666700  0.33333300  0.65753900  1
  Se  Se0  1  0.33333300  0.66666700  0.32785900  1
  Se  Se1  1  0.66666700  0.33333300  0.04781300  1
  Se  Se2  1  0.66666700  0.33333300  0.13999900  1
  Se  Se3  1  0.33333300  0.66666700  0.23574100  1
  S  S0  1  0.33333300  0.66666700  0.69957100  1
  S  S1  1  0.66666700  0.33333300  0.42776900  1
  S  S2  1  0.66666700  0.33333300  0.51157700  1
  S  S3  1  0.33333300  0.66666700  0.61549900  1
loop_
_geom_bond_atom_site_label_1
_geom_bond_atom_site_label_2
_geom_bond_distance
_geom_bond_site_symmetry_2
Mo0 Se1 2.532584 1_565
Mo0 Se1 2.532584 1_455
Mo0 Se1 2.532588 1_555
Mo0 Se2 2.532979 1_455
Mo0 Se2 2.532979 1_565
Mo0 Se2 2.532983 1_555
Mo1 S1 2.431642 1_565
Mo1 S1 2.431642 1_455
Mo1 S1 2.431647 1_555
Mo1 S2 2.432157 1_455
Mo1 S2 2.432157 1_565
Mo1 S2 2.432162 1_555
Mo2 Se0 2.531422 1_545
Mo2 Se0 2.531422 1_655
Mo2 Se0 2.531426 1_555
Mo2 Se3 2.532460 1_545
Mo2 Se3 2.532460 1_655
Mo2 Se3 2.532464 1_555
S0 W0 2.434899 1_455
S0 W0 2.434899 1_565
S0 W0 2.434904 1_555
S3 W0 2.435087 1_455
S3 W0 2.435087 1_565
S3 W0 2.435091 1_555
