# generated using pymatgen
data_LuTh(BRh)8
_symmetry_space_group_name_H-M   'P 1'
_cell_length_a   5.35091500
_cell_length_b   5.35091500
_cell_length_c   7.52492900
_cell_angle_alpha   90.00000000
_cell_angle_beta   90.00000000
_cell_angle_gamma   90.00000000
_symmetry_Int_Tables_number   1
_chemical_formula_structural   LuTh(BRh)8
_chemical_formula_sum   'Lu1 Th1 B8 Rh8'
_cell_volume   215.45595942
_cell_formula_units_Z   1
loop_
 _symmetry_equiv_pos_site_id
 _symmetry_equiv_pos_as_xyz
  1  'x, y, z'
loop_
 _atom_site_type_symbol
 _atom_site_label
 _atom_site_symmetry_multiplicity
 _atom_site_fract_x
 _atom_site_fract_y
 _atom_site_fract_z
 _atom_site_occupancy
  Lu  Lu0  1  0.50000000  0.50000000  0.00000000  1
  Th  Th0  1  0.00000000  0.00000000  0.50000000  1
  B  B0  1  0.33117100  0.00000000  0.14885000  1
  B  B1  1  0.66882900  0.00000000  0.14885000  1
  B  B2  1  0.50000000  0.83346400  0.65088700  1
  B  B3  1  0.50000000  0.16653600  0.65088700  1
  B  B4  1  0.16653600  0.50000000  0.34911300  1
  B  B5  1  0.83346400  0.50000000  0.34911300  1
  B  B6  1  0.00000000  0.66882900  0.85115000  1
  B  B7  1  0.00000000  0.33117100  0.85115000  1
  Rh  Rh0  1  0.74951300  0.00000000  0.85855200  1
  Rh  Rh1  1  0.25048700  0.00000000  0.85855200  1
  Rh  Rh2  1  0.50000000  0.25134300  0.35016900  1
  Rh  Rh3  1  0.50000000  0.74865700  0.35016900  1
  Rh  Rh4  1  0.74865700  0.50000000  0.64983100  1
  Rh  Rh5  1  0.25134300  0.50000000  0.64983100  1
  Rh  Rh6  1  0.00000000  0.25048700  0.14144800  1
  Rh  Rh7  1  0.00000000  0.74951300  0.14144800  1
loop_
_geom_bond_atom_site_label_1
_geom_bond_atom_site_label_2
_geom_bond_distance
_geom_bond_site_symmetry_2
Lu0 Rh5 2.951873 1_554
Lu0 Rh4 2.951873 1_554
Lu0 Rh3 2.951873 1_555
Lu0 Rh2 2.951873 1_555
Lu0 Rh0 3.173885 1_554
Lu0 Rh1 3.173885 1_554
Lu0 Rh7 3.173885 1_655
Lu0 Rh1 3.173885 1_564
Lu0 Rh0 3.173885 1_564
Lu0 Rh7 3.173885 1_555
Lu0 Rh6 3.173885 1_555
Lu0 Rh6 3.173885 1_655
B0 B1 1.806779 1_555
B0 Rh3 2.218077 1_545
B0 Rh2 2.218077 1_555
B0 Rh6 2.222571 1_555
B0 Rh7 2.222571 1_545
B0 Rh1 2.226726 1_554
B0 Lu0 3.037890 1_545
B0 Lu0 3.037890 1_555
B0 Th0 3.181570 1_555
B1 Rh3 2.218077 1_545
B1 Rh2 2.218077 1_555
B1 Rh6 2.222571 1_655
B1 Rh7 2.222571 1_645
B1 Rh0 2.226726 1_554
B1 Lu0 3.037890 1_545
B1 Lu0 3.037890 1_555
B1 Th0 3.181570 1_655
B2 B3 1.782240 1_565
B2 Rh5 2.225818 1_555
B2 Rh4 2.225818 1_555
B2 Rh1 2.240216 1_565
B2 Rh0 2.240216 1_565
B2 Rh3 2.307935 1_555
B2 Th0 3.039956 1_665
B2 Th0 3.039956 1_565
B2 Lu0 3.175729 1_556
B3 Rh5 2.225818 1_555
B3 Rh4 2.225818 1_555
B3 Rh1 2.240216 1_555
B3 Rh0 2.240216 1_555
B3 Rh2 2.307935 1_555
B3 Th0 3.039956 1_555
B3 Th0 3.039956 1_655
B3 Lu0 3.175729 1_556
B4 B5 1.782240 1_455
B4 Rh2 2.225818 1_555
B4 Rh3 2.225818 1_555
B4 Rh7 2.240216 1_555
B4 Rh6 2.240216 1_555
B4 Rh5 2.307935 1_555
B4 Th0 3.039956 1_555
B4 Th0 3.039956 1_565
B4 Lu0 3.175729 1_555
B5 Rh2 2.225818 1_555
B5 Rh3 2.225818 1_555
B5 Rh7 2.240216 1_655
B5 Rh6 2.240216 1_655
B5 Rh4 2.307935 1_555
B5 Th0 3.039956 1_655
B5 Th0 3.039956 1_665
B5 Lu0 3.175729 1_555
B6 B7 1.806779 1_555
B6 Rh4 2.218077 1_455
B6 Rh5 2.218077 1_555
B6 Rh1 2.222571 1_565
B6 Rh0 2.222571 1_465
B6 Rh7 2.226726 1_556
B6 Lu0 3.037890 1_456
B6 Lu0 3.037890 1_556
B6 Th0 3.181570 1_565
B7 Rh4 2.218077 1_455
B7 Rh5 2.218077 1_555
B7 Rh1 2.222571 1_555
B7 Rh0 2.222571 1_455
B7 Rh6 2.226726 1_556
B7 Lu0 3.037890 1_456
B7 Lu0 3.037890 1_556
B7 Th0 3.181570 1_555
Rh0 Th0 3.012661 1_655
Rh1 Th0 3.012661 1_555
Rh2 Th0 3.199696 1_555
Rh2 Th0 3.199696 1_655
Rh3 Th0 3.199696 1_565
Rh3 Th0 3.199696 1_665
Rh4 Th0 3.199696 1_655
Rh4 Th0 3.199696 1_665
Rh5 Th0 3.199696 1_565
Rh5 Th0 3.199696 1_555
Rh6 Th0 3.012661 1_555
Rh7 Th0 3.012661 1_565
