# generated using pymatgen
data_K2PH4O5
_symmetry_space_group_name_H-M   'P 1'
_cell_length_a   7.45898615
_cell_length_b   7.45898615
_cell_length_c   11.90450036
_cell_angle_alpha   91.56641592
_cell_angle_beta   91.56641592
_cell_angle_gamma   113.00067357
_symmetry_Int_Tables_number   1
_chemical_formula_structural   K2PH4O5
_chemical_formula_sum   'K8 P4 H16 O20'
_cell_volume   608.92160475
_cell_formula_units_Z   4
loop_
 _symmetry_equiv_pos_site_id
 _symmetry_equiv_pos_as_xyz
  1  'x, y, z'
loop_
 _atom_site_type_symbol
 _atom_site_label
 _atom_site_symmetry_multiplicity
 _atom_site_fract_x
 _atom_site_fract_y
 _atom_site_fract_z
 _atom_site_occupancy
  K  K0  1  0.00546500  0.06621600  0.75650300  1
  K  K1  1  0.06621600  0.00546500  0.25650300  1
  K  K2  1  0.41436900  0.18963600  0.01208800  1
  K  K3  1  0.18963600  0.41436900  0.51208800  1
  K  K4  1  0.41190200  0.66237800  0.18684900  1
  K  K5  1  0.66237800  0.41190200  0.68684900  1
  K  K6  1  0.86253200  0.47921400  0.22027400  1
  K  K7  1  0.47921400  0.86253200  0.72027400  1
  P  P0  1  0.06536500  0.72626600  0.96724000  1
  P  P1  1  0.72626600  0.06536500  0.46724000  1
  P  P2  1  0.77348900  0.73613800  0.97122900  1
  P  P3  1  0.73613800  0.77348900  0.47122900  1
  H  H0  1  0.82529300  0.31435600  0.89657400  1
  H  H1  1  0.31435600  0.82529300  0.39657400  1
  H  H2  1  0.74622000  0.09247300  0.92338800  1
  H  H3  1  0.09247300  0.74622000  0.42338800  1
  H  H4  1  0.38214700  0.08585700  0.53846500  1
  H  H5  1  0.08585700  0.38214700  0.03846500  1
  H  H6  1  0.16181800  0.00638900  0.56349800  1
  H  H7  1  0.00638900  0.16181800  0.06349800  1
  H  H8  1  0.44926800  0.51923300  0.84514700  1
  H  H9  1  0.51923300  0.44926800  0.34514700  1
  H  H10  1  0.22546500  0.46342900  0.86476200  1
  H  H11  1  0.46342900  0.22546500  0.36476200  1
  H  H12  1  0.69519600  0.02302200  0.11814600  1
  H  H13  1  0.02302200  0.69519600  0.61814600  1
  H  H14  1  0.68586500  0.08833400  0.24602500  1
  H  H15  1  0.08833400  0.68586500  0.74602500  1
  O  O0  1  0.15483800  0.79327300  0.08660500  1
  O  O1  1  0.79327300  0.15483800  0.58660500  1
  O  O2  1  0.17648200  0.85995000  0.87338900  1
  O  O3  1  0.85995000  0.17648200  0.37338900  1
  O  O4  1  0.03600200  0.51004600  0.93853500  1
  O  O5  1  0.51004600  0.03600200  0.43853500  1
  O  O6  1  0.65557700  0.58283400  0.05307600  1
  O  O7  1  0.58283400  0.65557700  0.55307600  1
  O  O8  1  0.68491900  0.70169600  0.84953700  1
  O  O9  1  0.70169600  0.68491900  0.34953700  1
  O  O10  1  0.81245500  0.95012500  0.01476700  1
  O  O11  1  0.95012500  0.81245500  0.51476800  1
  O  O12  1  0.72028700  0.18527800  0.87262600  1
  O  O13  1  0.18527800  0.72028700  0.37262600  1
  O  O14  1  0.28981100  0.10417000  0.59349600  1
  O  O15  1  0.10417000  0.28981100  0.09349600  1
  O  O16  1  0.31692200  0.41531000  0.82770400  1
  O  O17  1  0.41531000  0.31692200  0.32770400  1
  O  O18  1  0.62108200  0.07252600  0.17048800  1
  O  O19  1  0.07252600  0.62108200  0.67048800  1
loop_
_geom_bond_atom_site_label_1
_geom_bond_atom_site_label_2
_geom_bond_distance
_geom_bond_site_symmetry_2
K0 O2 2.735725 1_545
K0 O1 2.783600 1_455
K0 O16 2.817804 1_555
K0 O14 2.851302 1_555
K0 O12 2.965523 1_455
K0 O8 3.092735 1_445
K1 O3 2.735725 1_455
K1 O0 2.783600 1_545
K1 O17 2.817804 1_555
K1 O15 2.851302 1_555
K1 O13 2.965523 1_545
K1 O9 3.092735 1_445
K2 O18 2.771247 1_555
K2 O6 2.797652 1_555
K2 O2 2.851299 1_544
K2 O12 2.868156 1_554
K2 O15 2.878388 1_555
K2 O0 3.006615 1_545
K2 O16 3.041508 1_554
K3 O19 2.771247 1_555
K3 O7 2.797652 1_555
K3 O3 2.851299 1_455
K3 O13 2.868156 1_555
K3 O14 2.878388 1_555
K3 O1 3.006615 1_455
K3 O17 3.041508 1_555
K4 O6 2.672261 1_555
K4 O0 2.730477 1_555
K5 O7 2.672261 1_555
K5 O1 2.730477 1_555
K6 O9 2.751677 1_555
K6 O6 2.791156 1_555
K6 O18 2.893218 1_555
K6 O13 2.918607 1_655
K6 O3 2.935076 1_555
K6 O0 3.029107 1_655
K6 O15 3.089377 1_655
K7 O8 2.751677 1_555
K7 O7 2.791156 1_555
K7 O19 2.893218 1_555
K7 O12 2.918607 1_565
K7 O2 2.935076 1_555
K7 O1 3.029107 1_565
K7 O14 3.089377 1_565
H0 O12 1.002585 1_555
H0 O4 1.724726 1_655
H1 O13 1.002585 1_555
H1 O5 1.724726 1_565
H2 O12 1.001447 1_555
H2 K0 2.865170 1_655
H3 O13 1.001447 1_555
H3 K1 2.865170 1_565
H4 O14 1.007713 1_555
H4 O5 1.666938 1_555
H4 K7 3.006221 1_545
H5 O15 1.007713 1_555
H5 O4 1.666938 1_554
H5 K6 3.006221 1_455
H6 O14 0.996942 1_555
H6 K0 2.708410 1_555
H7 O15 0.996942 1_555
H7 K1 2.708410 1_555
H8 O16 1.000241 1_555
H8 K7 2.931893 1_555
H9 O17 1.000241 1_555
H9 K6 2.931893 1_555
H10 O16 0.993955 1_555
H11 O17 0.993955 1_555
H12 O18 0.997991 1_555
H13 O19 0.997991 1_555
H14 O18 0.990927 1_555
H14 K6 2.720198 1_555
H15 O19 0.990927 1_555
H15 K7 2.720198 1_555
O0 P0 1.537218 1_554
O1 P1 1.537218 1_555
O2 P0 1.547631 1_555
O3 P1 1.547631 1_555
O4 P0 1.567017 1_555
O5 P1 1.567017 1_555
O6 P2 1.533713 1_554
O7 P3 1.533713 1_555
O8 P2 1.547845 1_555
O9 P3 1.547845 1_555
O10 P2 1.576301 1_554
O11 P3 1.576305 1_555
