# generated using pymatgen
data_TbTh
_symmetry_space_group_name_H-M   'P 1'
_cell_length_a   12.19832079
_cell_length_b   12.19832079
_cell_length_c   12.19832257
_cell_angle_alpha   34.15786235
_cell_angle_beta   34.15786235
_cell_angle_gamma   34.15786204
_symmetry_Int_Tables_number   1
_chemical_formula_structural   TbTh
_chemical_formula_sum   'Tb8 Th8'
_cell_volume   510.19515991
_cell_formula_units_Z   8
loop_
 _symmetry_equiv_pos_site_id
 _symmetry_equiv_pos_as_xyz
  1  'x, y, z'
loop_
 _atom_site_type_symbol
 _atom_site_label
 _atom_site_symmetry_multiplicity
 _atom_site_fract_x
 _atom_site_fract_y
 _atom_site_fract_z
 _atom_site_occupancy
  Tb  Tb0_0  1  0.00000000  0.00000000  0.00000000  1
  Tb  Tb0_1  1  0.00000000  0.00000000  0.50000000  1
  Tb  Tb0_2  1  0.00000000  0.50000000  0.00000000  1
  Tb  Tb0_3  1  0.00000000  0.50000000  0.50000000  1
  Tb  Tb0_4  1  0.50000000  0.00000000  0.00000000  1
  Tb  Tb0_5  1  0.50000000  1.00000000  0.50000000  1
  Tb  Tb0_6  1  0.50000000  0.50000000  0.00000000  1
  Tb  Tb0_7  1  0.50000000  0.50000000  0.50000000  1
  Th  Th0_0  1  0.25000000  0.25000000  0.25000000  1
  Th  Th0_1  1  0.25000000  0.25000000  0.75000000  1
  Th  Th0_2  1  0.25000000  0.75000000  0.25000000  1
  Th  Th0_3  1  0.25000000  0.75000000  0.75000000  1
  Th  Th0_4  1  0.75000000  0.25000000  0.25000000  1
  Th  Th0_5  1  0.75000000  0.25000000  0.75000000  1
  Th  Th0_6  1  0.75000000  0.75000000  0.25000000  1
  Th  Th0_7  1  0.75000000  0.75000000  0.75000000  1
loop_
_geom_bond_atom_site_label_1
_geom_bond_atom_site_label_2
_geom_bond_distance
_geom_bond_site_symmetry_2
Tb0_0 Th0_6 3.536740 1_445
Tb0_0 Th0_1 3.536740 1_554
Tb0_0 Th0_3 3.536741 1_544
Tb0_0 Th0_5 3.536741 1_454
Tb0_0 Th0_4 3.536741 1_455
Tb0_0 Th0_2 3.536741 1_545
Tb0_0 Tb0_6 3.582511 1_455
Tb0_0 Tb0_6 3.582511 1_545
Tb0_0 Tb0_5 3.582511 1_445
Tb0_0 Tb0_3 3.582511 1_545
Tb0_0 Tb0_3 3.582511 1_554
Tb0_0 Tb0_5 3.582511 1_544
Tb0_1 Th0_7 3.536740 1_445
Tb0_1 Th0_0 3.536740 1_555
Tb0_1 Th0_4 3.536741 1_455
Tb0_1 Th0_2 3.536741 1_545
Tb0_1 Th0_5 3.536741 1_455
Tb0_1 Th0_3 3.536741 1_545
Tb0_1 Tb0_7 3.582511 1_455
Tb0_1 Tb0_7 3.582511 1_545
Tb0_1 Tb0_2 3.582511 1_546
Tb0_1 Tb0_4 3.582511 1_456
Tb0_1 Tb0_4 3.582511 1_555
Tb0_1 Tb0_2 3.582511 1_555
Tb0_2 Th0_4 3.536740 1_455
Tb0_2 Th0_3 3.536740 1_554
Tb0_2 Th0_6 3.536741 1_455
Tb0_2 Th0_1 3.536741 1_554
Tb0_2 Th0_0 3.536741 1_555
Tb0_2 Th0_7 3.536741 1_454
Tb0_2 Tb0_4 3.582511 1_555
Tb0_2 Tb0_4 3.582511 1_465
Tb0_2 Tb0_7 3.582511 1_455
Tb0_2 Tb0_7 3.582511 1_554
Tb0_3 Th0_5 3.536740 1_455
Tb0_3 Th0_2 3.536740 1_555
Tb0_3 Th0_7 3.536741 1_455
Tb0_3 Th0_1 3.536741 1_555
Tb0_3 Th0_0 3.536741 1_555
Tb0_3 Th0_6 3.536741 1_455
Tb0_3 Tb0_5 3.582511 1_455
Tb0_3 Tb0_5 3.582511 1_545
Tb0_3 Tb0_6 3.582511 1_555
Tb0_3 Tb0_6 3.582511 1_456
Tb0_4 Th0_2 3.536740 1_545
Tb0_4 Th0_5 3.536740 1_554
Tb0_4 Th0_1 3.536741 1_554
Tb0_4 Th0_6 3.536741 1_545
Tb0_4 Th0_0 3.536741 1_555
Tb0_4 Th0_7 3.536741 1_544
Tb0_4 Tb0_7 3.582511 1_545
Tb0_4 Tb0_7 3.582511 1_554
Tb0_5 Th0_3 3.536740 1_555
Tb0_5 Th0_4 3.536740 1_565
Tb0_5 Th0_0 3.536741 1_565
Tb0_5 Th0_7 3.536741 1_555
Tb0_5 Th0_6 3.536741 1_555
Tb0_5 Th0_1 3.536741 1_565
Tb0_5 Tb0_6 3.582511 1_556
Tb0_5 Tb0_6 3.582511 1_565
Tb0_6 Th0_7 3.536740 1_554
Tb0_6 Th0_0 3.536740 1_555
Tb0_6 Th0_3 3.536741 1_554
Tb0_6 Th0_5 3.536741 1_554
Tb0_6 Th0_2 3.536741 1_555
Tb0_6 Th0_4 3.536741 1_555
Tb0_7 Th0_6 3.536740 1_555
Tb0_7 Th0_1 3.536740 1_555
Tb0_7 Th0_2 3.536741 1_555
Tb0_7 Th0_4 3.536741 1_555
Tb0_7 Th0_5 3.536741 1_555
Tb0_7 Th0_3 3.536741 1_555
Th0_0 Th0_6 3.582511 1_455
Th0_0 Th0_6 3.582511 1_545
Th0_0 Th0_3 3.582511 1_545
Th0_0 Th0_5 3.582511 1_455
Th0_0 Th0_3 3.582511 1_554
Th0_0 Th0_5 3.582511 1_554
Th0_1 Th0_7 3.582511 1_455
Th0_1 Th0_7 3.582511 1_545
Th0_1 Th0_4 3.582511 1_456
Th0_1 Th0_2 3.582511 1_546
Th0_1 Th0_2 3.582511 1_555
Th0_1 Th0_4 3.582511 1_555
Th0_2 Th0_4 3.582511 1_555
Th0_2 Th0_4 3.582511 1_465
Th0_2 Th0_7 3.582511 1_455
Th0_2 Th0_7 3.582511 1_554
Th0_3 Th0_5 3.582511 1_465
Th0_3 Th0_5 3.582511 1_555
Th0_3 Th0_6 3.582511 1_555
Th0_3 Th0_6 3.582511 1_456
Th0_4 Th0_7 3.582511 1_545
Th0_4 Th0_7 3.582511 1_554
Th0_5 Th0_6 3.582511 1_555
Th0_5 Th0_6 3.582511 1_546
