# generated using pymatgen
data_Cu2SiHgTe4
_symmetry_space_group_name_H-M   'P 1'
_cell_length_a   7.41966026
_cell_length_b   7.41966026
_cell_length_c   7.41966026
_cell_angle_alpha   130.60732201
_cell_angle_beta   130.60732201
_cell_angle_gamma   72.43770919
_symmetry_Int_Tables_number   1
_chemical_formula_structural   Cu2SiHgTe4
_chemical_formula_sum   'Cu2 Si1 Hg1 Te4'
_cell_volume   230.09925921
_cell_formula_units_Z   1
loop_
 _symmetry_equiv_pos_site_id
 _symmetry_equiv_pos_as_xyz
  1  'x, y, z'
loop_
 _atom_site_type_symbol
 _atom_site_label
 _atom_site_symmetry_multiplicity
 _atom_site_fract_x
 _atom_site_fract_y
 _atom_site_fract_z
 _atom_site_occupancy
  Cu  Cu0  1  0.75000000  0.25000000  0.50000000  1
  Cu  Cu1  1  0.25000000  0.75000000  0.50000000  1
  Si  Si0  1  0.50000000  0.50000000  0.00000000  1
  Hg  Hg0  1  0.00000000  0.00000000  0.00000000  1
  Te  Te0  1  0.86407600  0.40684600  0.00000000  1
  Te  Te1  1  0.40684600  0.86407600  0.00000000  1
  Te  Te2  1  0.13592400  0.13592400  0.54276900  1
  Te  Te3  1  0.59315400  0.59315400  0.45723100  1
loop_
_geom_bond_atom_site_label_1
_geom_bond_atom_site_label_2
_geom_bond_distance
_geom_bond_site_symmetry_2
Cu0 Te3 2.592384 1_555
Cu0 Te0 2.592388 1_556
Cu0 Te1 2.592388 1_545
Cu0 Te2 2.592390 1_655
Cu1 Te3 2.592384 1_555
Cu1 Te1 2.592388 1_556
Cu1 Te0 2.592388 1_455
Cu1 Te2 2.592390 1_565
Si0 Te2 2.578390 1_554
Si0 Te1 2.578390 1_555
Si0 Te0 2.578390 1_555
Si0 Te3 2.578398 1_555
Hg0 Te2 2.879607 1_555
Hg0 Te3 2.879614 1_444
Hg0 Te0 2.879614 1_455
Hg0 Te1 2.879614 1_545
