# generated using pymatgen
data_Sr4RuN4
_symmetry_space_group_name_H-M   'P 1'
_cell_length_a   6.39045710
_cell_length_b   6.47249526
_cell_length_c   9.02165270
_cell_angle_alpha   71.25861834
_cell_angle_beta   80.72692393
_cell_angle_gamma   69.78056054
_symmetry_Int_Tables_number   1
_chemical_formula_structural   Sr4RuN4
_chemical_formula_sum   'Sr8 Ru2 N8'
_cell_volume   331.06669953
_cell_formula_units_Z   2
loop_
 _symmetry_equiv_pos_site_id
 _symmetry_equiv_pos_as_xyz
  1  'x, y, z'
loop_
 _atom_site_type_symbol
 _atom_site_label
 _atom_site_symmetry_multiplicity
 _atom_site_fract_x
 _atom_site_fract_y
 _atom_site_fract_z
 _atom_site_occupancy
  Sr  Sr0  1  0.78201300  0.57201300  0.14573400  1
  Sr  Sr1  1  0.21798700  0.42798700  0.85426600  1
  Sr  Sr2  1  0.72664200  0.19750800  0.96913100  1
  Sr  Sr3  1  0.27335700  0.80249200  0.03086900  1
  Sr  Sr4  1  0.73271500  0.49977800  0.56415400  1
  Sr  Sr5  1  0.26728500  0.50022200  0.43584600  1
  Sr  Sr6  1  0.21692900  0.95432100  0.62151800  1
  Sr  Sr7  1  0.78307100  0.04567900  0.37848200  1
  Ru  Ru0  1  0.71767000  0.85292000  0.75635300  1
  Ru  Ru1  1  0.28233000  0.14708000  0.24364700  1
  N  N0  1  0.97970200  0.69255700  0.61984500  1
  N  N1  1  0.02029800  0.30744300  0.38015500  1
  N  N2  1  0.95647500  0.82333000  0.89164300  1
  N  N3  1  0.04352500  0.17667000  0.10835700  1
  N  N4  1  0.54769400  0.63741100  0.80712800  1
  N  N5  1  0.45230600  0.36258900  0.19287200  1
  N  N6  1  0.46318500  0.85087100  0.33257900  1
  N  N7  1  0.53681500  0.14912900  0.66742100  1
loop_
_geom_bond_atom_site_label_1
_geom_bond_atom_site_label_2
_geom_bond_distance
_geom_bond_site_symmetry_2
N0 Ru0 2.086472 1_555
N0 Sr4 2.514021 1_555
N0 Sr5 2.538903 1_655
N0 Sr1 2.575278 1_655
N0 Sr6 2.639739 1_655
N0 Sr7 2.691249 1_565
N1 Ru1 2.086472 1_555
N1 Sr5 2.514021 1_555
N1 Sr4 2.538903 1_455
N1 Sr0 2.575278 1_455
N1 Sr7 2.639739 1_455
N1 Sr6 2.691249 1_545
N2 Ru0 2.025671 1_555
N2 Sr3 2.493719 1_656
N2 Sr2 2.609519 1_565
N2 Sr1 2.621301 1_655
N2 Sr0 2.679091 1_556
N2 Sr6 2.787201 1_655
N3 Ru1 2.025671 1_555
N3 Sr2 2.493724 1_454
N3 Sr3 2.609518 1_545
N3 Sr0 2.621301 1_455
N3 Sr1 2.679091 1_554
N3 Sr7 2.787201 1_455
N4 Ru0 1.952379 1_555
N4 Sr4 2.586119 1_555
N4 Sr2 2.676687 1_555
N4 Sr3 2.690760 1_556
N4 Sr6 2.723208 1_555
N4 Sr1 2.787929 1_555
N5 Ru1 1.952379 1_555
N5 Sr5 2.586119 1_555
N5 Sr3 2.676688 1_555
N5 Sr2 2.690757 1_554
N5 Sr7 2.723208 1_555
N5 Sr0 2.787929 1_555
N6 Ru1 1.853082 1_565
N6 Sr5 2.795626 1_555
N6 Sr4 2.810489 1_555
N6 Sr7 2.886213 1_565
N6 Sr0 2.925164 1_555
N6 Sr6 2.964952 1_555
N7 Ru0 1.853082 1_545
N7 Sr4 2.795626 1_555
N7 Sr5 2.810489 1_555
N7 Sr6 2.886213 1_545
N7 Sr1 2.925164 1_555
N7 Sr7 2.964952 1_555
