# generated using pymatgen
data_K7Fe5O16
_symmetry_space_group_name_H-M   'P 1'
_cell_length_a   5.67290100
_cell_length_b   9.64908386
_cell_length_c   10.80296210
_cell_angle_alpha   88.94429483
_cell_angle_beta   90.00000000
_cell_angle_gamma   90.00000000
_symmetry_Int_Tables_number   1
_chemical_formula_structural   K7Fe5O16
_chemical_formula_sum   'K7 Fe5 O16'
_cell_volume   591.23537659
_cell_formula_units_Z   1
loop_
 _symmetry_equiv_pos_site_id
 _symmetry_equiv_pos_as_xyz
  1  'x, y, z'
loop_
 _atom_site_type_symbol
 _atom_site_label
 _atom_site_symmetry_multiplicity
 _atom_site_fract_x
 _atom_site_fract_y
 _atom_site_fract_z
 _atom_site_occupancy
  K  K0  1  0.75000000  0.52382800  0.16137700  1
  K  K1  1  0.75000000  0.02972700  0.34225300  1
  K  K2  1  0.25000000  0.51030600  0.91153400  1
  K  K3  1  0.25000000  0.98211000  0.65678400  1
  K  K4  1  0.25000000  0.35169300  0.43070300  1
  K  K5  1  0.75000000  0.12949400  0.93876300  1
  K  K6  1  0.75000000  0.65133200  0.58736900  1
  Fe  Fe0  1  0.25000000  0.78203900  0.39173400  1
  Fe  Fe1  1  0.25000000  0.22034300  0.10410900  1
  Fe  Fe2  1  0.75000000  0.24643800  0.57852800  1
  Fe  Fe3  1  0.75000000  0.75321900  0.90664400  1
  Fe  Fe4  1  0.25000000  0.85883500  0.06938900  1
  O  O0  1  0.25000000  0.85693100  0.24460600  1
  O  O1  1  0.25000000  0.17411500  0.25303200  1
  O  O2  1  0.75000000  0.26311600  0.72935400  1
  O  O3  1  0.75000000  0.60156500  0.82851600  1
  O  O4  1  0.25000000  0.61218800  0.38167700  1
  O  O5  1  0.25000000  0.04262000  0.02282300  1
  O  O6  1  0.75000000  0.39964200  0.50308000  1
  O  O7  1  0.75000000  0.88755400  0.80310100  1
  O  O8  1  0.01526400  0.83517900  0.46874800  1
  O  O9  1  0.48560900  0.31895600  0.06225200  1
  O  O10  1  0.51607200  0.15853800  0.53155500  1
  O  O11  1  0.00192000  0.74877900  0.01475700  1
  O  O12  1  0.98392800  0.15853800  0.53155500  1
  O  O13  1  0.49808000  0.74877900  0.01475700  1
  O  O14  1  0.48473600  0.83517900  0.46874800  1
  O  O15  1  0.01439100  0.31895600  0.06225200  1
loop_
_geom_bond_atom_site_label_1
_geom_bond_atom_site_label_2
_geom_bond_distance
_geom_bond_site_symmetry_2
K0 O9 2.717011 1_555
K0 O15 2.717011 1_655
K0 O11 3.022565 1_655
K0 O13 3.022565 1_555
K1 O8 2.749771 1_645
K1 O14 2.749771 1_545
K1 O10 2.753482 1_555
K1 O12 2.753482 1_555
K1 O1 3.296364 1_655
K1 O1 3.296364 1_555
K2 O9 2.781320 1_556
K2 O15 2.781320 1_556
K2 O11 2.934865 1_556
K2 O13 2.934865 1_556
K2 O3 3.097752 1_555
K2 O3 3.097752 1_455
K3 O12 2.630907 1_465
K3 O10 2.630907 1_565
K3 O8 2.831210 1_555
K3 O14 2.831210 1_555
K3 O7 3.364999 1_455
K3 O7 3.364999 1_555
K4 O4 2.559164 1_555
K4 O1 2.596371 1_555
K4 O10 2.619944 1_555
K4 O12 2.619944 1_455
K4 O6 2.980635 1_555
K4 O6 2.980635 1_455
K5 O2 2.583140 1_555
K5 O9 2.731523 1_556
K5 O15 2.731523 1_656
K5 O7 2.779173 1_545
K5 O5 3.089452 1_656
K5 O5 3.089452 1_556
K6 O6 2.609333 1_555
K6 O8 2.640030 1_655
K6 O14 2.640030 1_555
K6 O3 2.640276 1_555
Fe0 O4 1.644500 1_555
Fe0 O14 1.656525 1_555
Fe0 O8 1.656525 1_555
Fe0 O0 1.733821 1_555
Fe1 O1 1.661563 1_555
Fe1 O9 1.697196 1_555
Fe1 O15 1.697196 1_555
Fe1 O5 1.940969 1_555
Fe2 O2 1.640243 1_555
Fe2 O10 1.659455 1_555
Fe2 O12 1.659455 1_555
Fe2 O6 1.674883 1_555
Fe3 O7 1.696447 1_555
Fe3 O3 1.702698 1_555
Fe3 O11 1.845658 1_656
Fe3 O13 1.845658 1_556
Fe4 O5 1.834389 1_565
Fe4 O11 1.865400 1_555
Fe4 O13 1.865400 1_555
Fe4 O0 1.892613 1_555
