# generated using pymatgen
data_TeC2Se2(BrN2)2
_symmetry_space_group_name_H-M   'P 1'
_cell_length_a   7.27818700
_cell_length_b   7.35375370
_cell_length_c   11.30101428
_cell_angle_alpha   105.05866287
_cell_angle_beta   91.42404202
_cell_angle_gamma   91.14513420
_symmetry_Int_Tables_number   1
_chemical_formula_structural   TeC2Se2(BrN2)2
_chemical_formula_sum   'Te2 C4 Se4 Br4 N8'
_cell_volume   583.68290822
_cell_formula_units_Z   2
loop_
 _symmetry_equiv_pos_site_id
 _symmetry_equiv_pos_as_xyz
  1  'x, y, z'
loop_
 _atom_site_type_symbol
 _atom_site_label
 _atom_site_symmetry_multiplicity
 _atom_site_fract_x
 _atom_site_fract_y
 _atom_site_fract_z
 _atom_site_occupancy
  Te  Te0  1  0.17127800  0.08220000  0.10881600  1
  Te  Te1  1  0.82872200  0.91780000  0.89118400  1
  C  C0  1  0.68667700  0.81465300  0.18233900  1
  C  C1  1  0.31332300  0.18534700  0.81766100  1
  C  C2  1  0.31714900  0.55027600  0.33024700  1
  C  C3  1  0.68285100  0.44972400  0.66975300  1
  Se  Se0  1  0.06256200  0.06348800  0.32144700  1
  Se  Se1  1  0.93743800  0.93651200  0.67855300  1
  Se  Se2  1  0.98322600  0.38502100  0.25623300  1
  Se  Se3  1  0.01677400  0.61497900  0.74376700  1
  Br  Br0  1  0.30934300  0.75163300  0.98847900  1
  Br  Br1  1  0.69065700  0.24836700  0.01152100  1
  Br  Br2  1  0.27302300  0.20350300  0.48311000  1
  Br  Br3  1  0.72697700  0.79649700  0.51689000  1
  N  N0  1  0.81770200  0.74058100  0.12248700  1
  N  N1  1  0.18229800  0.25941900  0.87751300  1
  N  N2  1  0.55848200  0.89538000  0.24302400  1
  N  N3  1  0.44151800  0.10462000  0.75697600  1
  N  N4  1  0.48010700  0.55457900  0.32624600  1
  N  N5  1  0.51989300  0.44542100  0.67375400  1
  N  N6  1  0.14001300  0.55773900  0.34610300  1
  N  N7  1  0.85998700  0.44226100  0.65389700  1
loop_
_geom_bond_atom_site_label_1
_geom_bond_atom_site_label_2
_geom_bond_distance
_geom_bond_site_symmetry_2
C0 N0 1.234903 1_555
C0 N2 1.239224 1_555
C1 N1 1.234903 1_555
C1 N3 1.239224 1_555
C2 N4 1.188126 1_555
C2 N6 1.306305 1_555
C3 N5 1.188126 1_555
C3 N7 1.306305 1_555
Se0 Te0 2.584789 1_555
Se1 Te1 2.584789 1_555
Se2 Te0 2.813379 1_655
Se3 Te1 2.813379 1_455
Br0 Te0 2.686308 1_566
Br1 Te1 2.686308 1_544
Br2 Se0 2.358955 1_555
Br3 Se1 2.358955 1_555
N6 Se2 1.777935 1_455
N7 Se3 1.777935 1_655
