# generated using pymatgen
data_K14Fe4O13
_symmetry_space_group_name_H-M   'P 1'
_cell_length_a   29.66367232
_cell_length_b   6.66893039
_cell_length_c   6.66992586
_cell_angle_alpha   60.87476254
_cell_angle_beta   90.00000000
_cell_angle_gamma   90.00000000
_symmetry_Int_Tables_number   1
_chemical_formula_structural   K14Fe4O13
_chemical_formula_sum   'K28 Fe8 O26'
_cell_volume   1152.64032856
_cell_formula_units_Z   2
loop_
 _symmetry_equiv_pos_site_id
 _symmetry_equiv_pos_as_xyz
  1  'x, y, z'
loop_
 _atom_site_type_symbol
 _atom_site_label
 _atom_site_symmetry_multiplicity
 _atom_site_fract_x
 _atom_site_fract_y
 _atom_site_fract_z
 _atom_site_occupancy
  K  K0  1  0.44953498  0.14904424  0.00251846  1
  K  K1  1  0.38817685  0.73988973  0.54551896  1
  K  K2  1  0.00107092  0.27163695  0.95684789  1
  K  K3  1  0.50107092  0.72836305  0.54315211  1
  K  K4  1  0.99892908  0.72836305  0.04315211  1
  K  K5  1  0.49892908  0.27163695  0.45684789  1
  K  K6  1  0.11407684  0.28405838  0.95484112  1
  K  K7  1  0.61407684  0.71594162  0.54515888  1
  K  K8  1  0.88592316  0.71594162  0.04515888  1
  K  K9  1  0.38592316  0.28405838  0.45484112  1
  K  K10  1  0.61182315  0.26011027  0.45448104  1
  K  K11  1  0.11182315  0.73988973  0.04551896  1
  K  K12  1  0.27094791  0.27330861  0.44298317  1
  K  K13  1  0.77094791  0.72669139  0.05701683  1
  K  K14  1  0.72905209  0.72669139  0.55701683  1
  K  K15  1  0.22905209  0.27330861  0.94298317  1
  K  K16  1  0.34871812  0.86906378  0.99778275  1
  K  K17  1  0.84871812  0.13093622  0.50221725  1
  K  K18  1  0.21912258  0.72028941  0.05348791  1
  K  K19  1  0.15128188  0.86906378  0.49778275  1
  K  K20  1  0.65128188  0.13093622  0.00221725  1
  K  K21  1  0.94953498  0.85095576  0.49748154  1
  K  K22  1  0.55046502  0.85095576  0.99748154  1
  K  K23  1  0.05046502  0.14904424  0.50251846  1
  K  K24  1  0.28087742  0.72028941  0.55348791  1
  K  K25  1  0.78087742  0.27971059  0.94651209  1
  K  K26  1  0.71912258  0.27971059  0.44651209  1
  K  K27  1  0.88817685  0.26011027  0.95448104  1
  Fe  Fe0  1  0.33572972  0.35008862  0.00088983  1
  Fe  Fe1  1  0.83572972  0.64991138  0.49911017  1
  Fe  Fe2  1  0.66427028  0.64991138  0.99911017  1
  Fe  Fe3  1  0.16427028  0.35008862  0.50088983  1
  Fe  Fe4  1  0.44537951  0.65727774  0.00035670  1
  Fe  Fe5  1  0.94537951  0.34272226  0.49964330  1
  Fe  Fe6  1  0.55462049  0.34272226  0.99964330  1
  Fe  Fe7  1  0.05462049  0.65727774  0.50035670  1
  O  O0  1  0.50000000  0.50000000  0.00000000  1
  O  O1  1  -0.00000000  0.50000000  0.50000000  1
  O  O2  1  0.20659385  0.55987787  0.50054926  1
  O  O3  1  0.70659385  0.44012213  -0.00054926  1
  O  O4  1  0.79340615  0.44012213  0.49945074  1
  O  O5  1  0.29340615  0.55987787  0.00054926  1
  O  O6  1  0.55712606  0.05751267  0.26555592  1
  O  O7  1  0.05712606  0.94248733  0.23444408  1
  O  O8  1  0.44287394  0.94248733  0.73444408  1
  O  O9  1  0.94287394  0.05751267  0.76555592  1
  O  O10  1  0.32990007  0.06773801  0.27090037  1
  O  O11  1  0.82990007  0.93226199  0.22909963  1
  O  O12  1  0.67009993  0.93226199  0.72909963  1
  O  O13  1  0.17009993  0.06773801  0.77090037  1
  O  O14  1  0.17221840  0.32766149  0.23271131  1
  O  O15  1  0.67221840  0.67233851  0.26728869  1
  O  O16  1  0.82778160  0.67233851  0.76728869  1
  O  O17  1  0.32778160  0.32766149  0.73271131  1
  O  O18  1  0.55691161  0.32287565  0.73093297  1
  O  O19  1  0.05691161  0.67712435  0.76906703  1
  O  O20  1  0.44308839  0.67712435  0.26906703  1
  O  O21  1  0.94308839  0.32287565  0.23093297  1
  O  O22  1  0.39617692  0.47325318  0.99760678  1
  O  O23  1  0.89617692  0.52674682  0.50239322  1
  O  O24  1  0.60382308  0.52674682  0.00239322  1
  O  O25  1  0.10382308  0.47325318  0.49760678  1
loop_
_geom_bond_atom_site_label_1
_geom_bond_atom_site_label_2
_geom_bond_distance
_geom_bond_site_symmetry_2
K0 O22 2.666863 1_554
K0 O8 2.744319 1_544
K0 O20 2.766867 1_545
K0 O0 2.771442 1_555
K1 O20 2.641930 1_555
K1 O22 2.662955 1_555
K1 O10 2.688009 1_565
K1 O8 2.775479 1_555
K1 O17 2.997486 1_555
K2 O21 2.650513 1_456
K2 O7 2.656153 1_546
K2 O1 2.662342 1_555
K2 O19 2.885838 1_555
K2 O9 2.901873 1_455
K3 O20 2.650513 1_555
K3 O6 2.656153 1_565
K3 O0 2.662342 1_556
K3 O18 2.885838 1_555
K3 O8 2.901873 1_555
K4 O19 2.650513 1_654
K4 O9 2.656153 1_564
K4 O1 2.662342 1_655
K4 O21 2.885838 1_555
K4 O7 2.901873 1_655
K5 O18 2.650513 1_555
K5 O8 2.656153 1_545
K5 O0 2.662342 1_555
K5 O20 2.885838 1_555
K5 O6 2.901873 1_555
K6 O14 2.649289 1_556
K6 O25 2.690640 1_555
K6 O7 2.717628 1_546
K6 O13 2.840957 1_555
K6 O19 2.849635 1_555
K7 O15 2.649289 1_555
K7 O24 2.690640 1_556
K7 O6 2.717628 1_565
K7 O12 2.840957 1_555
K7 O18 2.849635 1_555
K8 O16 2.649289 1_554
K8 O23 2.690640 1_555
K8 O9 2.717628 1_564
K8 O11 2.840957 1_555
K8 O21 2.849635 1_555
K9 O17 2.649289 1_555
K9 O22 2.690640 1_554
K9 O8 2.717628 1_545
K9 O10 2.840957 1_555
K9 O20 2.849635 1_555
K10 O18 2.641930 1_555
K10 O24 2.662955 1_555
K10 O12 2.688009 1_545
K10 O6 2.775479 1_555
K10 O15 2.997486 1_555
K11 O19 2.641930 1_554
K11 O25 2.662955 1_555
K11 O13 2.688009 1_564
K11 O7 2.775479 1_555
K11 O14 2.997486 1_555
K12 O5 2.704564 1_555
K12 O17 2.718441 1_555
K12 O10 2.790463 1_555
K12 O2 2.856268 1_555
K12 O14 3.190719 1_555
K13 O4 2.704564 1_555
K13 O16 2.718441 1_554
K13 O11 2.790463 1_555
K13 O3 2.856268 1_555
K13 O15 3.190719 1_555
K14 O3 2.704564 1_556
K14 O15 2.718441 1_555
K14 O12 2.790463 1_555
K14 O4 2.856268 1_555
K14 O16 3.190719 1_555
K15 O2 2.704564 1_555
K15 O14 2.718441 1_556
K15 O13 2.790463 1_555
K15 O5 2.856268 1_556
K15 O17 3.190719 1_555
K16 O5 2.628113 1_556
K16 O17 2.757085 1_565
K16 O10 2.781203 1_566
K16 O22 2.992088 1_555
K16 O8 3.207578 1_555
K16 O20 3.239507 1_556
K17 O4 2.628113 1_555
K17 O16 2.757085 1_545
K17 O11 2.781203 1_545
K17 O23 2.992088 1_555
K17 O9 3.207578 1_555
K17 O21 3.239507 1_555
K18 O5 2.548001 1_555
K18 O13 2.604785 1_564
K18 O2 2.658734 1_555
K18 O14 2.678430 1_555
K19 O2 2.628113 1_555
K19 O14 2.757085 1_565
K19 O13 2.781203 1_565
K19 O25 2.992088 1_555
K19 O7 3.207578 1_555
K19 O19 3.239507 1_555
K20 O3 2.628113 1_555
K20 O15 2.757085 1_545
K20 O12 2.781203 1_544
K20 O24 2.992088 1_555
K20 O6 3.207578 1_555
K20 O18 3.239507 1_554
K21 O23 2.666863 1_555
K21 O9 2.744319 1_565
K21 O21 2.766867 1_565
K21 O1 2.771442 1_655
K22 O24 2.666863 1_556
K22 O6 2.744319 1_566
K22 O18 2.766867 1_565
K22 O0 2.771442 1_556
K23 O25 2.666863 1_555
K23 O7 2.744319 1_545
K23 O19 2.766867 1_545
K23 O1 2.771442 1_555
K24 O2 2.548001 1_555
K24 O10 2.604785 1_565
K24 O5 2.658734 1_556
K24 O17 2.678430 1_555
K25 O3 2.548001 1_556
K25 O11 2.604785 1_546
K25 O4 2.658734 1_555
K25 O16 2.678430 1_555
K26 O4 2.548001 1_555
K26 O12 2.604785 1_545
K26 O3 2.658734 1_555
K26 O15 2.678430 1_555
K27 O21 2.641930 1_556
K27 O23 2.662955 1_555
K27 O11 2.688009 1_546
K27 O9 2.775479 1_555
K27 O16 2.997486 1_555
Fe0 O10 1.875593 1_555
Fe0 O5 1.878968 1_555
Fe0 O17 1.880942 1_554
Fe0 O22 1.967940 1_554
Fe1 O11 1.875593 1_555
Fe1 O4 1.878968 1_555
Fe1 O16 1.880942 1_555
Fe1 O23 1.967940 1_555
Fe2 O12 1.875593 1_555
Fe2 O3 1.878968 1_556
Fe2 O15 1.880942 1_556
Fe2 O24 1.967940 1_556
Fe3 O13 1.875593 1_555
Fe3 O2 1.878968 1_555
Fe3 O14 1.880942 1_555
Fe3 O25 1.967940 1_555
Fe4 O20 1.861536 1_555
Fe4 O8 1.866846 1_554
Fe4 O22 1.912749 1_554
Fe4 O0 1.930742 1_555
Fe5 O21 1.861536 1_555
Fe5 O9 1.866846 1_555
Fe5 O23 1.912749 1_555
Fe5 O1 1.930742 1_655
Fe6 O18 1.861536 1_555
Fe6 O6 1.866846 1_556
Fe6 O24 1.912749 1_556
Fe6 O0 1.930742 1_556
Fe7 O19 1.861536 1_555
Fe7 O7 1.866846 1_555
Fe7 O25 1.912749 1_555
Fe7 O1 1.930742 1_555
