# generated using pymatgen
data_Mg2Si3
_symmetry_space_group_name_H-M   'P 1'
_cell_length_a   5.48160359
_cell_length_b   5.48160359
_cell_length_c   8.99041379
_cell_angle_alpha   65.72705895
_cell_angle_beta   65.72705895
_cell_angle_gamma   47.21771024
_symmetry_Int_Tables_number   1
_chemical_formula_structural   Mg2Si3
_chemical_formula_sum   'Mg4 Si6'
_cell_volume   177.19631295
_cell_formula_units_Z   2
loop_
 _symmetry_equiv_pos_site_id
 _symmetry_equiv_pos_as_xyz
  1  'x, y, z'
loop_
 _atom_site_type_symbol
 _atom_site_label
 _atom_site_symmetry_multiplicity
 _atom_site_fract_x
 _atom_site_fract_y
 _atom_site_fract_z
 _atom_site_occupancy
  Mg  Mg0  1  0.15563500  0.15563500  0.97378100  1
  Mg  Mg1  1  0.84436500  0.84436500  0.02621900  1
  Mg  Mg2  1  0.12257000  0.12257000  0.62205200  1
  Mg  Mg3  1  0.87743000  0.87743000  0.37794800  1
  Si  Si0  1  0.40970400  0.40970400  0.64603700  1
  Si  Si1  1  0.21077300  0.21077300  0.28543400  1
  Si  Si2  1  0.78922700  0.78922700  0.71456600  1
  Si  Si3  1  0.59029600  0.59029600  0.35396300  1
  Si  Si4  1  0.51774200  0.51774200  0.84332500  1
  Si  Si5  1  0.48225800  0.48225800  0.15667500  1
loop_
_geom_bond_atom_site_label_1
_geom_bond_atom_site_label_2
_geom_bond_distance
_geom_bond_site_symmetry_2
Mg0 Si5 2.826126 1_546
Mg0 Si5 2.826126 1_456
Mg0 Si0 2.906623 1_555
Mg0 Si2 3.040604 1_545
Mg0 Si2 3.040604 1_455
Mg0 Si1 3.090291 1_556
Mg0 Si4 3.093807 1_545
Mg0 Si4 3.093807 1_455
Mg1 Si4 2.826126 1_564
Mg1 Si4 2.826126 1_654
Mg1 Si3 2.906623 1_555
Mg1 Si1 3.040604 1_565
Mg1 Si1 3.040604 1_655
Mg1 Si2 3.090291 1_554
Mg1 Si5 3.093807 1_565
Mg1 Si5 3.093807 1_655
Mg2 Si1 2.745501 1_555
Mg2 Si4 2.829522 1_455
Mg2 Si4 2.829522 1_545
Mg2 Si0 2.987396 1_555
Mg2 Si0 3.004139 1_545
Mg2 Si0 3.004139 1_455
Mg2 Si2 3.066928 1_445
Mg2 Si2 3.092496 1_545
Mg2 Si2 3.092496 1_455
Mg3 Si2 2.745501 1_555
Mg3 Si5 2.829522 1_655
Mg3 Si5 2.829522 1_565
Mg3 Si3 2.987396 1_555
Mg3 Si3 3.004139 1_565
Mg3 Si3 3.004139 1_655
Mg3 Si1 3.066928 1_665
Mg3 Si1 3.092496 1_565
Mg3 Si1 3.092496 1_655
Si0 Si3 2.431458 1_555
Si0 Si2 2.448418 1_455
Si0 Si2 2.448418 1_545
Si0 Si4 2.459909 1_555
Si1 Si5 2.438258 1_555
Si1 Si3 2.448418 1_455
Si1 Si3 2.448418 1_545
Si2 Si4 2.438258 1_555
Si3 Si5 2.459909 1_555
Si4 Si5 2.676255 1_556
