# generated using pymatgen
data_Y9Ni24Sn49
_symmetry_space_group_name_H-M   'P 1'
_cell_length_a   10.31969910
_cell_length_b   10.31969910
_cell_length_c   17.02784014
_cell_angle_alpha   89.87673308
_cell_angle_beta   89.87673308
_cell_angle_gamma   70.57144670
_symmetry_Int_Tables_number   1
_chemical_formula_structural   Y9Ni24Sn49
_chemical_formula_sum   'Y9 Ni24 Sn49'
_cell_volume   1710.13372556
_cell_formula_units_Z   1
loop_
 _symmetry_equiv_pos_site_id
 _symmetry_equiv_pos_as_xyz
  1  'x, y, z'
loop_
 _atom_site_type_symbol
 _atom_site_label
 _atom_site_symmetry_multiplicity
 _atom_site_fract_x
 _atom_site_fract_y
 _atom_site_fract_z
 _atom_site_occupancy
  Y  Y0  1  0.75044800  0.24983100  0.75001300  1
  Y  Y1  1  0.24955200  0.75016900  0.24998700  1
  Y  Y2  1  0.00000000  0.50000000  0.00000000  1
  Y  Y3  1  0.50000000  0.00000000  0.50000000  1
  Y  Y4  1  0.50000000  0.00000000  0.00000000  1
  Y  Y5  1  0.00000000  0.50000000  0.50000000  1
  Y  Y6  1  0.24983100  0.75044800  0.75001300  1
  Y  Y7  1  0.75016900  0.24955200  0.24998700  1
  Y  Y8  1  0.00000000  0.00000000  0.00000000  1
  Ni  Ni0  1  0.74181400  0.09724100  0.57992300  1
  Ni  Ni1  1  0.24235400  0.59877600  0.07924900  1
  Ni  Ni2  1  0.75764600  0.40122400  0.92075100  1
  Ni  Ni3  1  0.25818600  0.90275900  0.42007700  1
  Ni  Ni4  1  0.09724100  0.74181400  0.57992300  1
  Ni  Ni5  1  0.59877600  0.24235400  0.07924900  1
  Ni  Ni6  1  0.40122400  0.75764600  0.92075100  1
  Ni  Ni7  1  0.90275900  0.25818600  0.42007700  1
  Ni  Ni8  1  0.67986000  0.99901100  0.83951900  1
  Ni  Ni9  1  0.17893000  0.50060000  0.33901400  1
  Ni  Ni10  1  0.82107000  0.49940000  0.66098600  1
  Ni  Ni11  1  0.32014000  0.00098900  0.16048100  1
  Ni  Ni12  1  0.49940000  0.82107000  0.66098600  1
  Ni  Ni13  1  0.00098900  0.32014000  0.16048100  1
  Ni  Ni14  1  0.99901100  0.67986000  0.83951900  1
  Ni  Ni15  1  0.50060000  0.17893000  0.33901400  1
  Ni  Ni16  1  0.24002100  0.24002100  0.91979700  1
  Ni  Ni17  1  0.74075500  0.74075500  0.42013100  1
  Ni  Ni18  1  0.25924500  0.25924500  0.57986900  1
  Ni  Ni19  1  0.75997900  0.75997900  0.08020300  1
  Ni  Ni20  1  0.41930000  0.41930000  0.74097400  1
  Ni  Ni21  1  0.91887500  0.91887500  0.23961500  1
  Ni  Ni22  1  0.08112500  0.08112500  0.76038500  1
  Ni  Ni23  1  0.58070000  0.58070000  0.25902600  1
  Sn  Sn0  1  0.50441100  0.25066700  0.62290800  1
  Sn  Sn1  1  0.00403200  0.74169300  0.12733200  1
  Sn  Sn2  1  0.99596800  0.25830700  0.87266800  1
  Sn  Sn3  1  0.49558900  0.74933300  0.37709200  1
  Sn  Sn4  1  0.25066700  0.50441100  0.62290800  1
  Sn  Sn5  1  0.74169300  0.00403200  0.12733200  1
  Sn  Sn6  1  0.25830700  0.99596800  0.87266800  1
  Sn  Sn7  1  0.74933300  0.49558900  0.37709200  1
  Sn  Sn8  1  0.68195500  0.18698200  0.93509600  1
  Sn  Sn9  1  0.19061000  0.68265800  0.43647800  1
  Sn  Sn10  1  0.80939000  0.31734200  0.56352200  1
  Sn  Sn11  1  0.31804500  0.81301800  0.06490400  1
  Sn  Sn12  1  0.31734200  0.80939000  0.56352200  1
  Sn  Sn13  1  0.81301800  0.31804500  0.06490400  1
  Sn  Sn14  1  0.18698200  0.68195500  0.93509600  1
  Sn  Sn15  1  0.68265800  0.19061000  0.43647800  1
  Sn  Sn16  1  0.68509100  0.68509100  0.55874500  1
  Sn  Sn17  1  0.19222600  0.19222600  0.06091900  1
  Sn  Sn18  1  0.80777400  0.80777400  0.93908100  1
  Sn  Sn19  1  0.31490900  0.31490900  0.44125500  1
  Sn  Sn20  1  0.55942100  0.55942100  0.68676600  1
  Sn  Sn21  1  0.06125800  0.06125800  0.19221100  1
  Sn  Sn22  1  0.93874200  0.93874200  0.80778900  1
  Sn  Sn23  1  0.44057900  0.44057900  0.31323400  1
  Sn  Sn24  1  0.81187900  0.55611600  0.81504700  1
  Sn  Sn25  1  0.31223500  0.05758600  0.31575200  1
  Sn  Sn26  1  0.68776500  0.94241400  0.68424800  1
  Sn  Sn27  1  0.18812100  0.44388400  0.18495300  1
  Sn  Sn28  1  0.55611600  0.81187900  0.81504700  1
  Sn  Sn29  1  0.05758600  0.31223500  0.31575200  1
  Sn  Sn30  1  0.94241400  0.68776500  0.68424800  1
  Sn  Sn31  1  0.44388400  0.18812100  0.18495300  1
  Sn  Sn32  1  0.05585300  0.31702300  0.68593900  1
  Sn  Sn33  1  0.55520600  0.81801300  0.18753600  1
  Sn  Sn34  1  0.44479400  0.18198700  0.81246400  1
  Sn  Sn35  1  0.94414700  0.68297700  0.31406100  1
  Sn  Sn36  1  0.18198700  0.44479400  0.81246400  1
  Sn  Sn37  1  0.68297700  0.94414700  0.31406100  1
  Sn  Sn38  1  0.31702300  0.05585300  0.68593900  1
  Sn  Sn39  1  0.81801300  0.55520600  0.18753600  1
  Sn  Sn40  1  0.12949000  0.12949000  0.50210300  1
  Sn  Sn41  1  0.62858200  0.62858200  0.00248800  1
  Sn  Sn42  1  0.37141800  0.37141800  0.99751200  1
  Sn  Sn43  1  0.87051000  0.87051000  0.49789700  1
  Sn  Sn44  1  0.00188800  0.00188800  0.63010600  1
  Sn  Sn45  1  0.50148900  0.50148900  0.13049000  1
  Sn  Sn46  1  0.49851100  0.49851100  0.86951000  1
  Sn  Sn47  1  0.99811200  0.99811200  0.36989400  1
  Sn  Sn48  1  0.50000000  0.50000000  0.50000000  1
loop_
_geom_bond_atom_site_label_1
_geom_bond_atom_site_label_2
_geom_bond_distance
_geom_bond_site_symmetry_2
Ni0 Sn0 2.541943 1_555
Ni0 Sn26 2.568281 1_545
Ni0 Sn10 2.602624 1_555
Ni0 Sn15 2.621479 1_555
Ni0 Sn43 2.669856 1_545
Ni0 Sn44 2.674138 1_655
Ni0 Y3 3.282192 1_555
Ni0 Y0 3.315116 1_555
Ni1 Sn1 2.545133 1_555
Ni1 Sn27 2.585796 1_555
Ni1 Sn11 2.589145 1_555
Ni1 Sn14 2.599833 1_554
Ni1 Sn45 2.672216 1_555
Ni1 Sn42 2.672673 1_554
Ni1 Y2 3.291138 1_555
Ni1 Y1 3.316091 1_555
Ni2 Sn2 2.545133 1_555
Ni2 Sn24 2.585796 1_555
Ni2 Sn8 2.589145 1_555
Ni2 Sn13 2.599833 1_556
Ni2 Sn46 2.672216 1_555
Ni2 Sn41 2.672673 1_556
Ni2 Y2 3.291138 1_656
Ni2 Y0 3.316091 1_555
Ni3 Sn3 2.541943 1_555
Ni3 Sn25 2.568281 1_565
Ni3 Sn9 2.602624 1_555
Ni3 Sn12 2.621479 1_555
Ni3 Sn40 2.669856 1_565
Ni3 Sn47 2.674138 1_455
Ni3 Y3 3.282192 1_565
Ni3 Y1 3.315116 1_555
Ni4 Sn4 2.541943 1_555
Ni4 Sn30 2.568281 1_455
Ni4 Sn12 2.602624 1_555
Ni4 Sn9 2.621479 1_555
Ni4 Sn43 2.669856 1_455
Ni4 Sn44 2.674138 1_565
Ni4 Y5 3.282192 1_555
Ni4 Y6 3.315116 1_555
Ni5 Sn5 2.545133 1_555
Ni5 Sn31 2.585796 1_555
Ni5 Sn13 2.589145 1_555
Ni5 Sn8 2.599833 1_554
Ni5 Sn45 2.672216 1_555
Ni5 Sn42 2.672673 1_554
Ni5 Y4 3.291138 1_555
Ni5 Y7 3.316091 1_555
Ni6 Sn6 2.545133 1_555
Ni6 Sn28 2.585796 1_555
Ni6 Sn14 2.589145 1_555
Ni6 Sn11 2.599833 1_556
Ni6 Sn46 2.672216 1_555
Ni6 Sn41 2.672673 1_556
Ni6 Y4 3.291138 1_566
Ni6 Y6 3.316091 1_555
Ni7 Sn7 2.541943 1_555
Ni7 Sn29 2.568281 1_655
Ni7 Sn15 2.602624 1_555
Ni7 Sn10 2.621479 1_555
Ni7 Sn40 2.669856 1_655
Ni7 Sn47 2.674138 1_545
Ni7 Y5 3.282192 1_655
Ni7 Y7 3.315116 1_555
Ni8 Sn8 2.540394 1_565
Ni8 Sn34 2.572178 1_565
Ni8 Sn22 2.589583 1_555
Ni8 Sn18 2.602598 1_555
Ni8 Sn28 2.679559 1_555
Ni8 Sn26 2.704102 1_555
Ni8 Y0 3.284181 1_565
Ni8 Y4 3.298220 1_566
Ni9 Sn9 2.542354 1_555
Ni9 Sn35 2.561346 1_455
Ni9 Sn23 2.598182 1_555
Ni9 Sn19 2.622858 1_555
Ni9 Sn29 2.669912 1_555
Ni9 Sn27 2.683656 1_555
Ni9 Y1 3.269471 1_555
Ni9 Y5 3.302996 1_555
Ni10 Sn10 2.542354 1_555
Ni10 Sn32 2.561346 1_655
Ni10 Sn20 2.598182 1_555
Ni10 Sn16 2.622858 1_555
Ni10 Sn30 2.669912 1_555
Ni10 Sn24 2.683656 1_555
Ni10 Y0 3.269471 1_555
Ni10 Y5 3.302996 1_655
Ni11 Sn11 2.540394 1_545
Ni11 Sn33 2.572178 1_545
Ni11 Sn21 2.589583 1_555
Ni11 Sn17 2.602598 1_555
Ni11 Sn31 2.679559 1_555
Ni11 Sn25 2.704102 1_555
Ni11 Y1 3.284181 1_545
Ni11 Y4 3.298220 1_555
Ni12 Sn12 2.542354 1_555
Ni12 Sn38 2.561346 1_565
Ni12 Sn20 2.598182 1_555
Ni12 Sn16 2.622858 1_555
Ni12 Sn26 2.669912 1_555
Ni12 Sn28 2.683656 1_555
Ni12 Y6 3.269471 1_555
Ni12 Y3 3.302996 1_565
Ni13 Sn13 2.540394 1_455
Ni13 Sn39 2.572178 1_455
Ni13 Sn21 2.589583 1_555
Ni13 Sn17 2.602598 1_555
Ni13 Sn27 2.679559 1_555
Ni13 Sn29 2.704102 1_555
Ni13 Y7 3.284181 1_455
Ni13 Y2 3.298220 1_555
Ni14 Sn14 2.540394 1_655
Ni14 Sn36 2.572178 1_655
Ni14 Sn22 2.589583 1_555
Ni14 Sn18 2.602598 1_555
Ni14 Sn24 2.679559 1_555
Ni14 Sn30 2.704102 1_555
Ni14 Y6 3.284181 1_655
Ni14 Y2 3.298220 1_656
Ni15 Sn15 2.542354 1_555
Ni15 Sn37 2.561346 1_545
Ni15 Sn23 2.598182 1_555
Ni15 Sn19 2.622858 1_555
Ni15 Sn25 2.669912 1_555
Ni15 Sn31 2.683656 1_555
Ni15 Y7 3.269471 1_555
Ni15 Y3 3.302996 1_555
Ni16 Sn17 2.532315 1_556
Ni16 Sn42 2.582085 1_555
Ni16 Sn6 2.591255 1_545
Ni16 Sn2 2.591255 1_455
Ni16 Sn34 2.703834 1_555
Ni16 Sn36 2.703834 1_555
Ni16 Y4 3.283077 1_556
Ni16 Y2 3.283077 1_556
Ni17 Sn16 2.537481 1_555
Ni17 Sn43 2.558821 1_555
Ni17 Sn7 2.608587 1_555
Ni17 Sn3 2.608587 1_555
Ni17 Sn35 2.679362 1_555
Ni17 Sn37 2.679362 1_555
Ni17 Y3 3.280091 1_565
Ni17 Y5 3.280091 1_655
Ni18 Sn19 2.537481 1_555
Ni18 Sn40 2.558821 1_555
Ni18 Sn4 2.608587 1_555
Ni18 Sn0 2.608587 1_555
Ni18 Sn32 2.679362 1_555
Ni18 Sn38 2.679362 1_555
Ni18 Y3 3.280091 1_555
Ni18 Y5 3.280091 1_555
Ni19 Sn18 2.532315 1_554
Ni19 Sn41 2.582085 1_555
Ni19 Sn1 2.591255 1_655
Ni19 Sn5 2.591255 1_565
Ni19 Sn39 2.703834 1_555
Ni19 Sn33 2.703834 1_555
Ni19 Y4 3.283077 1_565
Ni19 Y2 3.283077 1_655
Ni20 Sn20 2.532472 1_555
Ni20 Sn46 2.566454 1_555
Ni20 Sn4 2.613856 1_555
Ni20 Sn0 2.613856 1_555
Ni20 Sn34 2.666195 1_555
Ni20 Sn36 2.666195 1_555
Ni20 Y6 3.284154 1_555
Ni20 Y0 3.284154 1_555
Ni21 Sn21 2.528956 1_665
Ni21 Sn5 2.590349 1_565
Ni21 Sn1 2.590349 1_655
Ni21 Sn47 2.592078 1_555
Ni21 Sn37 2.677130 1_555
Ni21 Sn35 2.677130 1_555
Ni21 Y1 3.279663 1_655
Ni21 Y7 3.279663 1_565
Ni22 Sn22 2.528956 1_445
Ni22 Sn2 2.590349 1_455
Ni22 Sn6 2.590349 1_545
Ni22 Sn44 2.592078 1_555
Ni22 Sn38 2.677130 1_555
Ni22 Sn32 2.677130 1_555
Ni22 Y0 3.279663 1_455
Ni22 Y6 3.279663 1_545
Ni23 Sn23 2.532472 1_555
Ni23 Sn45 2.566454 1_555
Ni23 Sn3 2.613856 1_555
Ni23 Sn7 2.613856 1_555
Ni23 Sn39 2.666195 1_555
Ni23 Sn33 2.666195 1_555
Ni23 Y7 3.284154 1_555
Ni23 Y1 3.284154 1_555
Sn0 Sn48 3.301816 1_555
Sn0 Y0 3.337668 1_555
Sn0 Y3 3.343014 1_555
Sn1 Y1 3.310631 1_555
Sn1 Y2 3.319112 1_555
Sn1 Y8 3.422017 1_565
Sn2 Y0 3.310631 1_555
Sn2 Y2 3.319112 1_656
Sn2 Y8 3.422017 1_656
Sn3 Sn48 3.301816 1_555
Sn3 Y1 3.337668 1_555
Sn3 Y3 3.343014 1_565
Sn4 Sn48 3.301816 1_555
Sn4 Y6 3.337668 1_555
Sn4 Y5 3.343014 1_555
Sn5 Y7 3.310631 1_555
Sn5 Y4 3.319112 1_555
Sn5 Y8 3.422017 1_655
Sn6 Y6 3.310631 1_555
Sn6 Y4 3.319112 1_566
Sn6 Y8 3.422017 1_566
Sn7 Y7 3.337668 1_555
Sn7 Y5 3.343014 1_655
Sn8 Y4 3.295891 1_556
Sn8 Y0 3.337547 1_555
Sn8 Y8 3.392688 1_656
Sn9 Y5 3.322810 1_555
Sn9 Y1 3.347163 1_555
Sn10 Sn48 3.304455 1_555
Sn10 Y5 3.322810 1_655
Sn10 Y0 3.347163 1_555
Sn11 Y4 3.295891 1_565
Sn11 Y1 3.337547 1_555
Sn11 Y8 3.392688 1_565
Sn12 Sn48 3.304455 1_555
Sn12 Y3 3.322810 1_565
Sn12 Y6 3.347163 1_555
Sn13 Y2 3.295891 1_655
Sn13 Y7 3.337547 1_555
Sn13 Y8 3.392688 1_655
Sn14 Y2 3.295891 1_556
Sn14 Y6 3.337547 1_555
Sn14 Y8 3.392688 1_566
Sn15 Sn48 3.304455 1_555
Sn15 Y3 3.322810 1_555
Sn15 Y7 3.347163 1_555
Sn16 Sn48 3.277352 1_555
Sn16 Y5 3.327872 1_655
Sn16 Y3 3.327872 1_565
Sn17 Y2 3.301840 1_555
Sn17 Y4 3.301840 1_555
Sn17 Y8 3.403215 1_555
Sn18 Y4 3.301840 1_566
Sn18 Y2 3.301840 1_656
Sn18 Y8 3.403215 1_666
Sn19 Sn48 3.277352 1_555
Sn19 Y3 3.327872 1_555
Sn19 Y5 3.327872 1_555
Sn20 Y0 3.325303 1_555
Sn20 Y6 3.325303 1_555
Sn20 Sn48 3.336584 1_555
Sn21 Y1 3.300696 1_545
Sn21 Y7 3.300696 1_455
Sn21 Y8 3.434393 1_555
Sn22 Y6 3.300696 1_655
Sn22 Y0 3.300696 1_565
Sn22 Y8 3.434393 1_666
Sn23 Y7 3.325303 1_555
Sn23 Y1 3.325303 1_555
Sn23 Sn48 3.336584 1_555
Sn24 Y0 3.601357 1_555
Sn24 Y2 3.645978 1_656
Sn25 Y1 3.622230 1_545
Sn25 Y3 3.633562 1_555
Sn26 Y0 3.622230 1_565
Sn26 Y3 3.633562 1_565
Sn27 Y1 3.601357 1_555
Sn27 Y2 3.645978 1_555
Sn28 Y6 3.601357 1_555
Sn28 Y4 3.645978 1_566
Sn29 Y7 3.622230 1_455
Sn29 Y5 3.633562 1_555
Sn30 Y6 3.622230 1_655
Sn30 Y5 3.633562 1_655
Sn31 Y7 3.601357 1_555
Sn31 Y4 3.645978 1_555
Sn32 Y0 3.611110 1_455
Sn32 Y5 3.630467 1_555
Sn33 Y1 3.608583 1_555
Sn33 Y4 3.649555 1_565
Sn34 Y0 3.608583 1_555
Sn34 Y4 3.649555 1_556
Sn35 Y1 3.611110 1_655
Sn35 Y5 3.630467 1_655
Sn36 Y6 3.608583 1_555
Sn36 Y2 3.649555 1_556
Sn37 Y7 3.611110 1_565
Sn37 Y3 3.630467 1_565
Sn38 Y6 3.611110 1_545
Sn38 Y3 3.630467 1_555
Sn39 Y7 3.608583 1_555
Sn39 Y2 3.649555 1_655
Sn40 Y3 3.606528 1_555
Sn40 Y5 3.606528 1_555
Sn41 Y4 3.615223 1_565
Sn41 Y2 3.615223 1_655
Sn42 Y4 3.615223 1_556
Sn42 Y2 3.615223 1_556
Sn43 Y3 3.606528 1_565
Sn43 Y5 3.606528 1_655
Sn44 Y6 3.609909 1_545
Sn44 Y0 3.609909 1_455
Sn45 Y7 3.612027 1_555
Sn45 Y1 3.612027 1_555
Sn46 Y0 3.612027 1_555
Sn46 Y6 3.612027 1_555
Sn47 Y7 3.609909 1_565
Sn47 Y1 3.609909 1_655
Sn48 Sn7 3.301816 1_555
Sn48 Sn9 3.304455 1_555
