# generated using pymatgen
data_YMn3Se2ClO8
_symmetry_space_group_name_H-M   'P 1'
_cell_length_a   6.54036900
_cell_length_b   7.40561200
_cell_length_c   9.83211200
_cell_angle_alpha   90.00000000
_cell_angle_beta   90.00000000
_cell_angle_gamma   90.00000000
_symmetry_Int_Tables_number   1
_chemical_formula_structural   YMn3Se2ClO8
_chemical_formula_sum   'Y2 Mn6 Se4 Cl2 O16'
_cell_volume   476.22262317
_cell_formula_units_Z   2
loop_
 _symmetry_equiv_pos_site_id
 _symmetry_equiv_pos_as_xyz
  1  'x, y, z'
loop_
 _atom_site_type_symbol
 _atom_site_label
 _atom_site_symmetry_multiplicity
 _atom_site_fract_x
 _atom_site_fract_y
 _atom_site_fract_z
 _atom_site_occupancy
  Y  Y0  1  0.00000000  0.73388900  0.00000000  1
  Y  Y1  1  0.50000000  0.26611100  0.50000000  1
  Mn  Mn0  1  0.25000000  0.00000000  0.75000000  1
  Mn  Mn1  1  0.25000000  0.00000000  0.25000000  1
  Mn  Mn2  1  0.75000000  0.00000000  0.75000000  1
  Mn  Mn3  1  0.50000000  0.79358300  0.50000000  1
  Mn  Mn4  1  0.00000000  0.20641700  0.00000000  1
  Mn  Mn5  1  0.75000000  0.00000000  0.25000000  1
  Se  Se0  1  0.50000000  0.58605800  0.81301200  1
  Se  Se1  1  0.00000000  0.41394200  0.68698800  1
  Se  Se2  1  0.50000000  0.58605800  0.18698800  1
  Se  Se3  1  0.00000000  0.41394200  0.31301200  1
  Cl  Cl0  1  0.00000000  0.86104600  0.50000000  1
  Cl  Cl1  1  0.50000000  0.13895400  0.00000000  1
  O  O0  1  0.00000000  0.98730300  0.86696300  1
  O  O1  1  0.00000000  0.42764800  0.86414800  1
  O  O2  1  0.50000000  0.57235200  0.36414800  1
  O  O3  1  0.29334600  0.72930800  0.84106400  1
  O  O4  1  0.20665400  0.27069200  0.34106400  1
  O  O5  1  0.79334600  0.27069200  0.34106400  1
  O  O6  1  0.50000000  0.01269700  0.63303700  1
  O  O7  1  0.70665400  0.72930800  0.84106400  1
  O  O8  1  0.70665400  0.72930800  0.15893600  1
  O  O9  1  0.79334600  0.27069200  0.65893600  1
  O  O10  1  0.00000000  0.98730300  0.13303700  1
  O  O11  1  0.50000000  0.01269700  0.36696300  1
  O  O12  1  0.20665400  0.27069200  0.65893600  1
  O  O13  1  0.29334600  0.72930800  0.15893600  1
  O  O14  1  0.50000000  0.57235200  0.63585200  1
  O  O15  1  0.00000000  0.42764800  0.13585200  1
loop_
_geom_bond_atom_site_label_1
_geom_bond_atom_site_label_2
_geom_bond_distance
_geom_bond_site_symmetry_2
Mn0 O0 2.001213 1_545
Mn0 O6 2.001213 1_555
Mn0 O3 2.213731 1_545
Mn0 O12 2.213731 1_555
Mn1 O11 2.001213 1_555
Mn1 O10 2.001213 1_545
Mn1 O4 2.213731 1_555
Mn1 O13 2.213731 1_545
Mn2 O0 2.001213 1_645
Mn2 O6 2.001213 1_555
Mn2 O7 2.213731 1_545
Mn2 O9 2.213731 1_555
Mn3 O6 2.084232 1_565
Mn3 O11 2.084232 1_565
Mn3 O14 2.113840 1_555
Mn3 O2 2.113840 1_555
Mn4 O10 2.084232 1_545
Mn4 O0 2.084232 1_544
Mn4 O15 2.113840 1_555
Mn4 O1 2.113840 1_554
Mn5 O11 2.001213 1_555
Mn5 O10 2.001213 1_645
Mn5 O5 2.213731 1_555
Mn5 O8 2.213731 1_545
Cl0 Mn1 3.126396 1_565
Cl0 Mn5 3.126396 1_465
Cl0 Mn0 3.126396 1_565
Cl0 Mn2 3.126396 1_465
Cl1 Mn0 3.126396 1_554
Cl1 Mn1 3.126396 1_555
Cl1 Mn5 3.126396 1_555
Cl1 Mn2 3.126396 1_554
O0 Y0 2.287554 1_556
O1 Se1 1.744812 1_555
O1 Y0 2.632016 1_556
O2 Se2 1.744812 1_555
O2 Y1 2.632016 1_555
O3 Se0 1.740197 1_555
O3 Y0 2.474692 1_556
O4 Se3 1.740197 1_555
O4 Y1 2.474692 1_555
O5 Se3 1.740197 1_655
O5 Y1 2.474692 1_555
O6 Y1 2.287554 1_555
O7 Se0 1.740197 1_555
O7 Y0 2.474692 1_656
O8 Se2 1.740197 1_555
O8 Y0 2.474692 1_655
O9 Se1 1.740197 1_655
O9 Y1 2.474692 1_555
O10 Y0 2.287554 1_555
O11 Y1 2.287554 1_555
O12 Se1 1.740197 1_555
O12 Y1 2.474692 1_555
O13 Se2 1.740197 1_555
O13 Y0 2.474692 1_555
O14 Se0 1.744812 1_555
O14 Y1 2.632016 1_555
O15 Se3 1.744812 1_555
O15 Y0 2.632016 1_555
