# generated using pymatgen
data_AlMo3F15
_symmetry_space_group_name_H-M   'P 1'
_cell_length_a   9.98670800
_cell_length_b   6.04121100
_cell_length_c   10.11161293
_cell_angle_alpha   75.13691498
_cell_angle_beta   90.00000000
_cell_angle_gamma   90.00000000
_symmetry_Int_Tables_number   1
_chemical_formula_structural   AlMo3F15
_chemical_formula_sum   'Al2 Mo6 F30'
_cell_volume   589.64051887
_cell_formula_units_Z   2
loop_
 _symmetry_equiv_pos_site_id
 _symmetry_equiv_pos_as_xyz
  1  'x, y, z'
loop_
 _atom_site_type_symbol
 _atom_site_label
 _atom_site_symmetry_multiplicity
 _atom_site_fract_x
 _atom_site_fract_y
 _atom_site_fract_z
 _atom_site_occupancy
  Al  Al0  1  0.75000000  0.53414200  0.73911300  1
  Al  Al1  1  0.25000000  0.46585800  0.26088700  1
  Mo  Mo0  1  0.50000000  0.00000000  0.00000000  1
  Mo  Mo1  1  0.54603600  0.02002200  0.33268100  1
  Mo  Mo2  1  0.45396400  0.97997800  0.66731900  1
  Mo  Mo3  1  0.00000000  0.00000000  0.00000000  1
  Mo  Mo4  1  0.95396400  0.02002200  0.33268100  1
  Mo  Mo5  1  0.04603600  0.97997800  0.66731900  1
  F  F0  1  0.75000000  0.37818400  0.90109500  1
  F  F1  1  0.75000000  0.10773000  0.33109000  1
  F  F2  1  0.75000000  0.40212000  0.61450400  1
  F  F3  1  0.25000000  0.62181600  0.09890500  1
  F  F4  1  0.25000000  0.59788000  0.38549600  1
  F  F5  1  0.25000000  0.89227000  0.66891000  1
  F  F6  1  0.38962500  0.85506000  0.87340200  1
  F  F7  1  0.42150200  0.89833400  0.20199000  1
  F  F8  1  0.40840500  0.88535500  0.48403500  1
  F  F9  1  0.61037500  0.14494000  0.12659800  1
  F  F10  1  0.59159500  0.11464500  0.51596500  1
  F  F11  1  0.57849800  0.10166600  0.79801000  1
  F  F12  1  0.10665500  0.27170100  0.95521200  1
  F  F13  1  0.10362900  0.29320700  0.28386000  1
  F  F14  1  0.11666000  0.28292800  0.61939400  1
  F  F15  1  0.89334500  0.72829900  0.04478800  1
  F  F16  1  0.88334000  0.71707200  0.38060600  1
  F  F17  1  0.89637100  0.70679300  0.71614000  1
  F  F18  1  0.60665500  0.72829900  0.04478800  1
  F  F19  1  0.61666000  0.71707200  0.38060600  1
  F  F20  1  0.60362900  0.70679300  0.71614000  1
  F  F21  1  0.39334500  0.27170100  0.95521200  1
  F  F22  1  0.39637100  0.29320700  0.28386000  1
  F  F23  1  0.38334000  0.28292800  0.61939400  1
  F  F24  1  0.11037500  0.85506000  0.87340200  1
  F  F25  1  0.07849800  0.89833400  0.20199000  1
  F  F26  1  0.09159500  0.88535500  0.48403500  1
  F  F27  1  0.88962500  0.14494000  0.12659800  1
  F  F28  1  0.90840500  0.11464500  0.51596500  1
  F  F29  1  0.92150200  0.10166600  0.79801000  1
loop_
_geom_bond_atom_site_label_1
_geom_bond_atom_site_label_2
_geom_bond_distance
_geom_bond_site_symmetry_2
Al0 F2 1.655075 1_555
Al0 F0 1.666950 1_555
Al0 F20 1.776038 1_555
Al0 F17 1.776038 1_555
Al1 F4 1.655075 1_555
Al1 F3 1.666950 1_555
Al1 F22 1.776038 1_555
Al1 F13 1.776038 1_555
F1 Mo4 2.103739 1_555
F1 Mo1 2.103739 1_555
F5 Mo2 2.103739 1_555
F5 Mo5 2.103739 1_555
F6 Mo0 2.048278 1_566
F6 Mo2 2.125546 1_555
F7 Mo1 2.081330 1_565
F7 Mo0 2.125984 1_565
F8 Mo1 2.062652 1_565
F8 Mo2 2.124145 1_555
F9 Mo0 2.048278 1_555
F9 Mo1 2.125546 1_555
F10 Mo2 2.062652 1_545
F10 Mo1 2.124145 1_555
F11 Mo2 2.081330 1_545
F11 Mo0 2.125984 1_556
F12 Mo3 1.911139 1_556
F13 Mo4 2.187112 1_455
F14 Mo5 1.904432 1_545
F15 Mo3 1.911139 1_665
F16 Mo4 1.904432 1_565
F17 Mo5 2.187112 1_655
F18 Mo0 1.911139 1_565
F19 Mo1 1.904432 1_565
F20 Mo2 2.187112 1_555
F21 Mo0 1.911139 1_556
F22 Mo1 2.187112 1_555
F23 Mo2 1.904432 1_545
F24 Mo3 2.048278 1_566
F24 Mo5 2.125546 1_555
F25 Mo4 2.081330 1_465
F25 Mo3 2.125984 1_565
F26 Mo4 2.062652 1_465
F26 Mo5 2.124145 1_555
F27 Mo3 2.048278 1_655
F27 Mo4 2.125546 1_555
F28 Mo5 2.062652 1_645
F28 Mo4 2.124145 1_555
F29 Mo5 2.081330 1_645
F29 Mo3 2.125984 1_656
