# generated using pymatgen
data_Mn3(O2F)2
_symmetry_space_group_name_H-M   'P 1'
_cell_length_a   4.70892641
_cell_length_b   9.03132717
_cell_length_c   4.70894522
_cell_angle_alpha   90.01565217
_cell_angle_beta   87.45942238
_cell_angle_gamma   89.98440128
_symmetry_Int_Tables_number   1
_chemical_formula_structural   Mn3(O2F)2
_chemical_formula_sum   'Mn6 O8 F4'
_cell_volume   200.06448315
_cell_formula_units_Z   2
loop_
 _symmetry_equiv_pos_site_id
 _symmetry_equiv_pos_as_xyz
  1  'x, y, z'
loop_
 _atom_site_type_symbol
 _atom_site_label
 _atom_site_symmetry_multiplicity
 _atom_site_fract_x
 _atom_site_fract_y
 _atom_site_fract_z
 _atom_site_occupancy
  Mn  Mn0  1  0.00001900  0.33493000  0.99998500  1
  Mn  Mn1  1  0.49999500  0.83249400  0.49999800  1
  Mn  Mn2  1  0.00010400  0.65122400  0.99991100  1
  Mn  Mn3  1  0.50004300  0.51685000  0.49996600  1
  Mn  Mn4  1  0.99992500  0.01523300  0.00007200  1
  Mn  Mn5  1  0.49993500  0.15144800  0.50006700  1
  O  O0  1  0.80320000  0.17020100  0.19680400  1
  O  O1  1  0.80059200  0.49740400  0.19941000  1
  O  O2  1  0.31408500  0.99869100  0.31404500  1
  O  O3  1  0.31619200  0.66562000  0.31625500  1
  O  O4  1  0.68594700  0.99868900  0.68590700  1
  O  O5  1  0.68374100  0.66562200  0.68380800  1
  O  O6  1  0.19690600  0.17022400  0.80309800  1
  O  O7  1  0.19935800  0.49740400  0.80063900  1
  F  F0  1  0.82031900  0.83229200  0.17967500  1
  F  F1  1  0.31998600  0.33458900  0.32002100  1
  F  F2  1  0.67998500  0.33459200  0.68001900  1
  F  F3  1  0.17966800  0.83249300  0.82032200  1
loop_
_geom_bond_atom_site_label_1
_geom_bond_atom_site_label_2
_geom_bond_distance
_geom_bond_site_symmetry_2
Mn0 O1 1.958879 1_456
Mn0 O7 1.959286 1_555
Mn0 O6 1.963192 1_555
Mn0 O0 1.963826 1_456
Mn1 O3 1.958435 1_555
Mn1 O5 1.958444 1_555
Mn1 O4 1.963152 1_555
Mn1 O2 1.963171 1_555
Mn2 O7 1.900335 1_555
Mn2 O1 1.902161 1_456
Mn2 O3 2.155912 1_556
Mn2 O5 2.156029 1_455
Mn3 O5 1.835584 1_555
Mn3 O3 1.835623 1_555
Mn3 O1 1.964445 1_555
Mn3 O7 1.965404 1_555
Mn4 O0 1.896749 1_555
Mn4 O6 1.898743 1_654
Mn4 O2 2.142575 1_645
Mn4 O4 2.142610 1_544
Mn5 O4 1.871990 1_545
Mn5 O2 1.872022 1_545
Mn5 O6 1.979985 1_555
Mn5 O0 1.981618 1_555
F0 Mn2 2.010571 1_654
F0 Mn4 2.024463 1_565
F0 Mn1 2.085361 1_555
F1 Mn3 2.051852 1_555
F1 Mn5 2.058220 1_555
F1 Mn0 2.177752 1_554
F2 Mn3 2.051817 1_555
F2 Mn5 2.058255 1_555
F2 Mn0 2.177742 1_655
F3 Mn2 2.012048 1_555
F3 Mn4 2.022763 1_466
F3 Mn1 2.085374 1_555
