# generated using pymatgen
data_BaCaTbSnO6
_symmetry_space_group_name_H-M   'P 1'
_cell_length_a   8.53047434
_cell_length_b   8.47373640
_cell_length_c   8.41908551
_cell_angle_alpha   90.00000000
_cell_angle_beta   90.00000000
_cell_angle_gamma   90.00000000
_symmetry_Int_Tables_number   1
_chemical_formula_structural   BaCaTbSnO6
_chemical_formula_sum   'Ba4 Ca4 Tb4 Sn4 O24'
_cell_volume   608.57351968
_cell_formula_units_Z   4
loop_
 _symmetry_equiv_pos_site_id
 _symmetry_equiv_pos_as_xyz
  1  'x, y, z'
loop_
 _atom_site_type_symbol
 _atom_site_label
 _atom_site_symmetry_multiplicity
 _atom_site_fract_x
 _atom_site_fract_y
 _atom_site_fract_z
 _atom_site_occupancy
  Ba  Ba0  1  0.00000000  0.00000000  -0.00000000  1
  Ba  Ba1  1  0.50000000  0.50000000  0.50000000  1
  Ba  Ba2  1  0.50000000  0.50000000  -0.00000000  1
  Ba  Ba3  1  0.00000000  0.00000000  0.50000000  1
  Ca  Ca0  1  -0.00000000  0.50000000  0.50000000  1
  Ca  Ca1  1  0.50000000  -0.00000000  0.50000000  1
  Ca  Ca2  1  0.50000000  -0.00000000  -0.00000000  1
  Ca  Ca3  1  -0.00000000  0.50000000  -0.00000000  1
  Tb  Tb0  1  0.25000000  0.25000000  0.25000000  1
  Tb  Tb1  1  0.75000000  0.75000000  0.25000000  1
  Tb  Tb2  1  0.75000000  0.25000000  0.75000000  1
  Tb  Tb3  1  0.25000000  0.75000000  0.75000000  1
  Sn  Sn0  1  0.75000000  0.75000000  0.75000000  1
  Sn  Sn1  1  0.25000000  0.25000000  0.75000000  1
  Sn  Sn2  1  0.25000000  0.75000000  0.25000000  1
  Sn  Sn3  1  0.75000000  0.25000000  0.25000000  1
  O  O0  1  0.99088309  0.21783377  0.28144256  1
  O  O1  1  0.00911691  0.78216623  0.28144256  1
  O  O2  1  0.00911691  0.21783377  0.71855744  1
  O  O3  1  0.99088309  0.78216623  0.71855744  1
  O  O4  1  0.28682492  0.98972652  0.19406668  1
  O  O5  1  0.28682492  0.01027348  0.80593332  1
  O  O6  1  0.71317508  0.01027348  0.19406668  1
  O  O7  1  0.71317508  0.98972652  0.80593332  1
  O  O8  1  0.20321516  0.30193888  0.98976679  1
  O  O9  1  0.79678484  0.30193888  0.01023321  1
  O  O10  1  0.20321516  0.69806112  0.01023321  1
  O  O11  1  0.79678484  0.69806112  0.98976679  1
  O  O12  1  0.50911691  0.28216623  0.21855744  1
  O  O13  1  0.49088309  0.71783377  0.21855744  1
  O  O14  1  0.49088309  0.28216623  0.78144256  1
  O  O15  1  0.50911691  0.71783377  0.78144256  1
  O  O16  1  0.21317508  0.51027348  0.30593332  1
  O  O17  1  0.21317508  0.48972652  0.69406668  1
  O  O18  1  0.78682492  0.48972652  0.30593332  1
  O  O19  1  0.78682492  0.51027348  0.69406668  1
  O  O20  1  0.29678484  0.19806112  0.51023321  1
  O  O21  1  0.70321516  0.19806112  0.48976679  1
  O  O22  1  0.29678484  0.80193888  0.48976679  1
  O  O23  1  0.70321516  0.80193888  0.51023321  1
loop_
_geom_bond_atom_site_label_1
_geom_bond_atom_site_label_2
_geom_bond_distance
_geom_bond_site_symmetry_2
Ba0 O4 2.943414 1_545
Ba0 O5 2.943414 1_554
Ba0 O7 2.943414 1_444
Ba0 O6 2.943414 1_455
Ba0 O2 3.004621 1_554
Ba0 O1 3.004621 1_545
Ba0 O0 3.004621 1_455
Ba0 O3 3.004621 1_444
Ba0 O9 3.091715 1_455
Ba0 O11 3.091715 1_444
Ba0 O8 3.091715 1_554
Ba0 O10 3.091715 1_545
Ba1 O16 2.943414 1_555
Ba1 O17 2.943414 1_555
Ba1 O18 2.943414 1_555
Ba1 O19 2.943414 1_555
Ba1 O14 3.004621 1_555
Ba1 O15 3.004621 1_555
Ba1 O12 3.004621 1_555
Ba1 O13 3.004621 1_555
Ba1 O23 3.091715 1_555
Ba1 O21 3.091715 1_555
Ba1 O22 3.091715 1_555
Ba1 O20 3.091715 1_555
Ba2 O14 2.607502 1_554
Ba2 O12 2.607502 1_555
Ba2 O13 2.607502 1_555
Ba2 O15 2.607502 1_554
Ba2 O8 3.038710 1_554
Ba2 O10 3.038710 1_555
Ba2 O9 3.038710 1_555
Ba2 O11 3.038710 1_554
Ba3 O1 2.607502 1_545
Ba3 O2 2.607502 1_555
Ba3 O3 2.607502 1_445
Ba3 O0 2.607502 1_455
Ba3 O23 3.038710 1_445
Ba3 O22 3.038710 1_545
Ba3 O21 3.038710 1_455
Ba3 O20 3.038710 1_555
Ca0 O18 2.446217 1_455
Ca0 O19 2.446217 1_455
Ca0 O16 2.446217 1_555
Ca0 O17 2.446217 1_555
Ca0 O1 3.018069 1_555
Ca0 O3 3.018069 1_455
Ca0 O0 3.018069 1_455
Ca0 O2 3.018069 1_555
Ca1 O22 2.414388 1_545
Ca1 O20 2.414388 1_555
Ca1 O23 2.414388 1_545
Ca1 O21 2.414388 1_555
Ca2 O7 2.446217 1_544
Ca2 O6 2.446217 1_555
Ca2 O4 2.446217 1_545
Ca2 O5 2.446217 1_554
Ca2 O13 3.018069 1_545
Ca2 O15 3.018069 1_544
Ca2 O12 3.018069 1_555
Ca2 O14 3.018069 1_554
Ca3 O8 2.414388 1_554
Ca3 O9 2.414388 1_455
Ca3 O11 2.414388 1_454
Ca3 O10 2.414388 1_555
O0 Sn3 2.089681 1_555
O0 Tb0 2.242809 1_655
O1 Sn2 2.089681 1_555
O1 Tb1 2.242809 1_455
O2 Sn1 2.089681 1_555
O2 Tb2 2.242809 1_455
O3 Sn0 2.089681 1_555
O3 Tb3 2.242809 1_655
O4 Sn2 2.108776 1_555
O4 Tb0 2.276975 1_565
O5 Sn1 2.108776 1_555
O5 Tb3 2.276975 1_545
O6 Sn3 2.108776 1_555
O6 Tb1 2.276975 1_545
O7 Sn0 2.108776 1_555
O7 Tb2 2.276975 1_565
O8 Sn1 2.104233 1_555
O8 Tb0 2.270052 1_556
O9 Sn3 2.104233 1_555
O9 Tb2 2.270052 1_554
O10 Sn2 2.104233 1_555
O10 Tb3 2.270052 1_554
O11 Sn0 2.104233 1_555
O11 Tb1 2.270052 1_556
O12 Sn3 2.089681 1_555
O12 Tb0 2.242809 1_555
O13 Sn2 2.089681 1_555
O13 Tb1 2.242809 1_555
O14 Sn1 2.089681 1_555
O14 Tb2 2.242809 1_555
O15 Sn0 2.089681 1_555
O15 Tb3 2.242809 1_555
O16 Sn2 2.108776 1_555
O16 Tb0 2.276975 1_555
O17 Sn1 2.108776 1_555
O17 Tb3 2.276975 1_555
O18 Sn3 2.108776 1_555
O18 Tb1 2.276975 1_555
O19 Sn0 2.108776 1_555
O19 Tb2 2.276975 1_555
O20 Sn1 2.104233 1_555
O20 Tb0 2.270052 1_555
O21 Sn3 2.104233 1_555
O21 Tb2 2.270052 1_555
O22 Sn2 2.104233 1_555
O22 Tb3 2.270052 1_555
O23 Sn0 2.104233 1_555
O23 Tb1 2.270052 1_555
