# generated using pymatgen
data_UAlIr
_symmetry_space_group_name_H-M   'P 1'
_cell_length_a   6.91103039
_cell_length_b   6.91103039
_cell_length_c   4.11519400
_cell_angle_alpha   90.00000000
_cell_angle_beta   90.00000000
_cell_angle_gamma   120.00000376
_symmetry_Int_Tables_number   1
_chemical_formula_structural   UAlIr
_chemical_formula_sum   'U3 Al3 Ir3'
_cell_volume   170.21841205
_cell_formula_units_Z   3
loop_
 _symmetry_equiv_pos_site_id
 _symmetry_equiv_pos_as_xyz
  1  'x, y, z'
loop_
 _atom_site_type_symbol
 _atom_site_label
 _atom_site_symmetry_multiplicity
 _atom_site_fract_x
 _atom_site_fract_y
 _atom_site_fract_z
 _atom_site_occupancy
  U  U0  1  0.42159000  0.42159000  0.50000000  1
  U  U1  1  0.57841000  0.00000000  0.50000000  1
  U  U2  1  0.00000000  0.57841000  0.50000000  1
  Al  Al0  1  0.76322500  0.76322500  0.00000000  1
  Al  Al1  1  0.23677500  0.00000000  0.00000000  1
  Al  Al2  1  0.00000000  0.23677500  0.00000000  1
  Ir  Ir0  1  0.66666700  0.33333300  0.00000000  1
  Ir  Ir1  1  0.33333300  0.66666700  0.00000000  1
  Ir  Ir2  1  0.00000000  0.00000000  0.50000000  1
loop_
_geom_bond_atom_site_label_1
_geom_bond_atom_site_label_2
_geom_bond_distance
_geom_bond_site_symmetry_2
U0 U2 3.580717 1_655
U0 U1 3.580717 1_565
U0 U2 3.580717 1_555
U0 U1 3.580717 1_555
U1 U2 3.580717 1_655
U1 U2 3.580717 1_545
Al0 Ir2 2.628950 1_664
Al0 Ir2 2.628950 1_665
Al0 Ir0 2.699915 1_555
Al0 Ir1 2.699915 1_555
Al0 Al2 2.834257 1_665
Al0 Al1 2.834257 1_665
Al0 U0 3.131814 1_554
Al0 U0 3.131814 1_555
Al0 U1 3.260803 1_564
Al0 U1 3.260803 1_565
Al0 U2 3.260803 1_655
Al0 U2 3.260803 1_654
Al1 Ir2 2.628950 1_554
Al1 Ir2 2.628950 1_555
Al1 Ir1 2.699908 1_545
Al1 Ir0 2.699912 1_555
Al1 Al2 2.834257 1_555
Al1 U1 3.131814 1_555
Al1 U1 3.131814 1_554
Al1 U2 3.260803 1_544
Al1 U2 3.260803 1_545
Al1 U0 3.260803 1_554
Al1 U0 3.260803 1_555
Al2 Ir2 2.628950 1_554
Al2 Ir2 2.628950 1_555
Al2 Ir0 2.699908 1_455
Al2 Ir1 2.699912 1_555
Al2 U2 3.131814 1_555
Al2 U2 3.131814 1_554
Al2 U1 3.260803 1_455
Al2 U1 3.260803 1_454
Al2 U0 3.260803 1_554
Al2 U0 3.260803 1_555
Ir0 U1 2.916768 1_554
Ir0 U1 2.916768 1_555
Ir0 U2 2.916770 1_654
Ir0 U2 2.916770 1_655
Ir0 U0 2.916773 1_555
Ir0 U0 2.916773 1_554
Ir1 U2 2.916768 1_555
Ir1 U2 2.916768 1_554
Ir1 U1 2.916770 1_565
Ir1 U1 2.916770 1_564
Ir1 U0 2.916773 1_555
Ir1 U0 2.916773 1_554
Ir2 U0 2.913621 1_555
Ir2 U2 2.913621 1_545
Ir2 U1 2.913621 1_455
