# generated using pymatgen
data_Mn2NiO4
_symmetry_space_group_name_H-M   'P 1'
_cell_length_a   6.19500548
_cell_length_b   6.19500548
_cell_length_c   6.19500548
_cell_angle_alpha   123.64645511
_cell_angle_beta   123.64645511
_cell_angle_gamma   83.79227513
_symmetry_Int_Tables_number   1
_chemical_formula_structural   Mn2NiO4
_chemical_formula_sum   'Mn4 Ni2 O8'
_cell_volume   157.83598069
_cell_formula_units_Z   2
loop_
 _symmetry_equiv_pos_site_id
 _symmetry_equiv_pos_as_xyz
  1  'x, y, z'
loop_
 _atom_site_type_symbol
 _atom_site_label
 _atom_site_symmetry_multiplicity
 _atom_site_fract_x
 _atom_site_fract_y
 _atom_site_fract_z
 _atom_site_occupancy
  Mn  Mn0  1  0.37500000  0.62500000  0.75000000  1
  Mn  Mn1  1  0.37500000  0.12500000  0.75000000  1
  Mn  Mn2  1  0.37500000  0.62500000  0.25000000  1
  Mn  Mn3  1  0.87500000  0.62500000  0.25000000  1
  Ni  Ni0  1  0.75000000  0.25000000  0.50000000  1
  Ni  Ni1  1  0.00000000  0.00000000  0.00000000  1
  O  O0  1  0.59963800  0.87766800  0.72197000  1
  O  O1  1  0.62766800  0.40569700  0.77803000  1
  O  O2  1  0.61051400  0.38291500  0.22759900  1
  O  O3  1  0.62766800  0.84963800  0.22197000  1
  O  O4  1  0.15569700  0.87766800  0.27803000  1
  O  O5  1  0.13291500  0.40531600  0.27240100  1
  O  O6  1  0.15531600  0.38291500  0.77240100  1
  O  O7  1  0.13291500  0.86051400  0.72759900  1
loop_
_geom_bond_atom_site_label_1
_geom_bond_atom_site_label_2
_geom_bond_distance
_geom_bond_site_symmetry_2
Mn0 O3 1.956095 1_556
Mn0 O1 1.956099 1_555
Mn0 O5 1.979305 1_555
Mn0 O7 1.979305 1_555
Mn0 O6 2.236493 1_555
Mn0 O0 2.336016 1_555
Mn1 O4 1.956095 1_545
Mn1 O0 1.956095 1_545
Mn1 O2 1.979305 1_556
Mn1 O6 1.979305 1_555
Mn1 O7 2.236493 1_545
Mn1 O1 2.336011 1_555
Mn2 O0 1.956095 1_555
Mn2 O4 1.956099 1_555
Mn2 O6 1.979305 1_554
Mn2 O2 1.979305 1_555
Mn2 O5 2.236493 1_555
Mn2 O3 2.336016 1_555
Mn3 O1 1.956095 1_554
Mn3 O3 1.956095 1_555
Mn3 O7 1.979305 1_655
Mn3 O5 1.979305 1_655
Mn3 O2 2.236493 1_555
Mn3 O4 2.336011 1_655
Ni0 O3 1.979579 1_545
Ni0 O1 1.979579 1_555
Ni0 O6 2.010582 1_655
Ni0 O2 2.010582 1_555
Ni1 O0 1.979579 1_444
Ni1 O4 1.979579 1_545
Ni1 O5 2.010582 1_555
Ni1 O7 2.010582 1_544
