# generated using pymatgen
data_ZrMnF6
_symmetry_space_group_name_H-M   'P 1'
_cell_length_a   5.81835423
_cell_length_b   5.81835423
_cell_length_c   5.81835423
_cell_angle_alpha   60.00000000
_cell_angle_beta   60.00000000
_cell_angle_gamma   60.00000000
_symmetry_Int_Tables_number   1
_chemical_formula_structural   ZrMnF6
_chemical_formula_sum   'Zr1 Mn1 F6'
_cell_volume   139.27894753
_cell_formula_units_Z   1
loop_
 _symmetry_equiv_pos_site_id
 _symmetry_equiv_pos_as_xyz
  1  'x, y, z'
loop_
 _atom_site_type_symbol
 _atom_site_label
 _atom_site_symmetry_multiplicity
 _atom_site_fract_x
 _atom_site_fract_y
 _atom_site_fract_z
 _atom_site_occupancy
  Zr  Zr0  1  0.50000000  0.50000000  0.50000000  1
  Mn  Mn0  1  0.00000000  -0.00000000  0.00000000  1
  F  F0  1  0.74499932  0.25500068  0.25500068  1
  F  F1  1  0.25500068  0.74499932  0.74499932  1
  F  F2  1  0.25500068  0.74499932  0.25500068  1
  F  F3  1  0.74499932  0.25500068  0.74499932  1
  F  F4  1  0.25500068  0.25500068  0.74499932  1
  F  F5  1  0.74499932  0.74499932  0.25500068  1
loop_
_geom_bond_atom_site_label_1
_geom_bond_atom_site_label_2
_geom_bond_distance
_geom_bond_site_symmetry_2
F0 Zr0 2.015951 1_555
F0 Mn0 2.098246 1_655
F1 Zr0 2.015951 1_555
F1 Mn0 2.098246 1_566
F2 Zr0 2.015951 1_555
F2 Mn0 2.098246 1_565
F3 Zr0 2.015951 1_555
F3 Mn0 2.098246 1_656
F4 Zr0 2.015951 1_555
F4 Mn0 2.098246 1_556
F5 Zr0 2.015951 1_555
F5 Mn0 2.098246 1_665
