# generated using pymatgen
data_KUSeO8
_symmetry_space_group_name_H-M   'P 1'
_cell_length_a   8.26072500
_cell_length_b   8.47236600
_cell_length_c   11.69959978
_cell_angle_alpha   70.86013860
_cell_angle_beta   90.00000000
_cell_angle_gamma   90.00000000
_symmetry_Int_Tables_number   1
_chemical_formula_structural   KUSeO8
_chemical_formula_sum   'K4 U4 Se4 O32'
_cell_volume   773.56616154
_cell_formula_units_Z   4
loop_
 _symmetry_equiv_pos_site_id
 _symmetry_equiv_pos_as_xyz
  1  'x, y, z'
loop_
 _atom_site_type_symbol
 _atom_site_label
 _atom_site_symmetry_multiplicity
 _atom_site_fract_x
 _atom_site_fract_y
 _atom_site_fract_z
 _atom_site_occupancy
  K  K0  1  0.53552900  0.43998600  0.79522000  1
  K  K1  1  0.03552900  0.56001400  0.70478000  1
  K  K2  1  0.46447100  0.56001400  0.20478000  1
  K  K3  1  0.96447100  0.43998600  0.29522000  1
  U  U0  1  0.09580900  0.93004300  0.29353800  1
  U  U1  1  0.59580900  0.06995700  0.20646200  1
  U  U2  1  0.90419100  0.06995700  0.70646200  1
  U  U3  1  0.40419100  0.93004300  0.79353800  1
  Se  Se0  1  0.23750500  0.30757400  0.03679000  1
  Se  Se1  1  0.73750500  0.69242600  0.46321000  1
  Se  Se2  1  0.76249500  0.69242600  0.96321000  1
  Se  Se3  1  0.26249500  0.30757400  0.53679000  1
  O  O0  1  0.44098300  0.28136000  0.06587100  1
  O  O1  1  0.94098300  0.71864000  0.43412900  1
  O  O2  1  0.55901700  0.71864000  0.93412900  1
  O  O3  1  0.05901700  0.28136000  0.56587100  1
  O  O4  1  0.02672700  0.09206200  0.35324800  1
  O  O5  1  0.52672700  0.90793800  0.14675200  1
  O  O6  1  0.97327300  0.90793800  0.64675200  1
  O  O7  1  0.47327300  0.09206200  0.85324800  1
  O  O8  1  0.21300200  0.36254700  0.88951900  1
  O  O9  1  0.71300200  0.63745300  0.61048100  1
  O  O10  1  0.78699800  0.63745300  0.11048100  1
  O  O11  1  0.28699800  0.36254700  0.38951900  1
  O  O12  1  0.17227100  0.44285600  0.10044500  1
  O  O13  1  0.67227100  0.55714400  0.39955500  1
  O  O14  1  0.82772900  0.55714400  0.89955500  1
  O  O15  1  0.32772900  0.44285600  0.60044500  1
  O  O16  1  0.18098000  0.75287800  0.25506800  1
  O  O17  1  0.68098000  0.24712200  0.24493200  1
  O  O18  1  0.81902000  0.24712200  0.74493200  1
  O  O19  1  0.31902000  0.75287800  0.75506800  1
  O  O20  1  0.85566000  0.96509900  0.20337600  1
  O  O21  1  0.35566000  0.03490100  0.29662400  1
  O  O22  1  0.14434000  0.03490100  0.79662400  1
  O  O23  1  0.64434000  0.96509900  0.70337600  1
  O  O24  1  0.15155200  0.11615400  0.10297600  1
  O  O25  1  0.65155200  0.88384600  0.39702400  1
  O  O26  1  0.84844800  0.88384600  0.89702400  1
  O  O27  1  0.34844800  0.11615400  0.60297600  1
  O  O28  1  0.27808500  0.82653100  0.44715300  1
  O  O29  1  0.77808500  0.17346900  0.05284700  1
  O  O30  1  0.72191500  0.17346900  0.55284700  1
  O  O31  1  0.22191500  0.82653100  0.94715300  1
loop_
_geom_bond_atom_site_label_1
_geom_bond_atom_site_label_2
_geom_bond_distance
_geom_bond_site_symmetry_2
K0 O9 2.692327 1_555
K0 O7 2.846446 1_555
K0 O15 2.846714 1_555
K0 O8 2.876024 1_555
K0 O14 3.015993 1_555
K0 O18 3.021721 1_555
K0 O19 3.103278 1_555
K0 O0 3.106820 1_556
K0 O2 3.281540 1_555
K1 O8 2.692327 1_555
K1 O6 2.846446 1_455
K1 O14 2.846714 1_455
K1 O9 2.876024 1_455
K1 O15 3.015993 1_555
K1 O19 3.021721 1_555
K1 O18 3.103278 1_455
K1 O1 3.106820 1_455
K1 O3 3.281540 1_555
K2 O11 2.692327 1_555
K2 O5 2.846446 1_555
K2 O13 2.846714 1_555
K2 O10 2.876024 1_555
K2 O12 3.015993 1_555
K2 O16 3.021721 1_555
K2 O17 3.103278 1_555
K2 O2 3.106820 1_554
K2 O0 3.281540 1_555
K3 O10 2.692327 1_555
K3 O4 2.846446 1_655
K3 O12 2.846714 1_655
K3 O11 2.876024 1_655
K3 O13 3.015993 1_555
K3 O17 3.021721 1_555
K3 O16 3.103278 1_655
K3 O3 3.106820 1_655
K3 O1 3.281540 1_555
O0 Se0 1.714899 1_555
O0 U1 2.370111 1_555
O1 Se1 1.714899 1_555
O1 U0 2.370111 1_655
O2 Se2 1.714899 1_555
O2 U3 2.370111 1_555
O3 Se3 1.714899 1_555
O3 U2 2.370111 1_455
O4 U0 1.823942 1_545
O5 U1 1.823942 1_565
O6 U2 1.823942 1_565
O7 U3 1.823942 1_545
O8 Se0 1.643298 1_556
O9 Se1 1.643298 1_555
O10 Se2 1.643298 1_554
O11 Se3 1.643298 1_555
O12 Se0 1.648771 1_555
O13 Se1 1.648771 1_555
O14 Se2 1.648771 1_555
O15 Se3 1.648771 1_555
O16 U0 1.842179 1_555
O17 U1 1.842179 1_555
O18 U2 1.842179 1_555
O19 U3 1.842179 1_555
O20 U0 2.220580 1_655
O20 U1 2.327938 1_565
O21 U1 2.220580 1_555
O21 U0 2.327938 1_545
O22 U2 2.220580 1_455
O22 U3 2.327938 1_545
O23 U3 2.220580 1_555
O23 U2 2.327938 1_565
O24 Se0 1.705998 1_555
O24 U0 2.315973 1_545
O25 Se1 1.705998 1_555
O25 U1 2.315973 1_565
O26 Se2 1.705998 1_555
O26 U2 2.315973 1_565
O27 Se3 1.705998 1_555
O27 U3 2.315973 1_545
O28 U0 2.287537 1_555
O29 U1 2.287537 1_555
O30 U2 2.287537 1_555
O31 U3 2.287537 1_555
