# generated using pymatgen
data_MgV8Zn4O16
_symmetry_space_group_name_H-M   'P 1'
_cell_length_a   3.03651355
_cell_length_b   10.80813034
_cell_length_c   9.93922073
_cell_angle_alpha   94.36474233
_cell_angle_beta   89.71778495
_cell_angle_gamma   80.25332613
_symmetry_Int_Tables_number   1
_chemical_formula_structural   MgV8Zn4O16
_chemical_formula_sum   'Mg1 V8 Zn4 O16'
_cell_volume   320.50224938
_cell_formula_units_Z   1
loop_
 _symmetry_equiv_pos_site_id
 _symmetry_equiv_pos_as_xyz
  1  'x, y, z'
loop_
 _atom_site_type_symbol
 _atom_site_label
 _atom_site_symmetry_multiplicity
 _atom_site_fract_x
 _atom_site_fract_y
 _atom_site_fract_z
 _atom_site_occupancy
  Mg  Mg0  1  0.91456462  0.83792194  0.61825680  1
  V  V0  1  0.63994797  0.57753552  0.37841143  1
  V  V1  1  0.84775078  0.08264333  0.11726726  1
  V  V2  1  0.20137007  0.09040727  0.60493700  1
  V  V3  1  0.72625466  0.42482144  0.13041055  1
  V  V4  1  0.19018095  0.39572923  0.62640044  1
  V  V5  1  0.81435613  0.94858650  0.36152857  1
  V  V6  1  0.40720979  0.94142027  0.87403248  1
  V  V7  1  0.12570726  0.54992808  0.91008499  1
  Zn  Zn0  1  0.35106076  0.77720921  0.13639823  1
  Zn  Zn1  1  0.31912908  0.28322978  0.35525346  1
  Zn  Zn2  1  0.57363905  0.62685700  0.65312875  1
  Zn  Zn3  1  0.55851981  0.23654078  0.86310212  1
  O  O0  1  0.32362047  0.91272364  0.49716986  1
  O  O1  1  0.66342798  0.12524950  0.47901574  1
  O  O2  1  0.33250111  0.01166528  0.23694876  1
  O  O3  1  0.97122554  0.89949257  0.00297329  1
  O  O4  1  0.58659263  0.60588829  0.02935888  1
  O  O5  1  0.81993185  0.25228442  0.21608636  1
  O  O6  1  0.35700245  0.11281528  0.98387955  1
  O  O7  1  0.06007189  0.24576025  0.73173958  1
  O  O8  1  0.19250231  0.48256096  0.25909380  1
  O  O9  1  0.80441040  0.00992924  0.73366680  1
  O  O10  1  0.06557056  0.65197346  0.52504290  1
  O  O11  1  0.45111177  0.79123334  0.74723481  1
  O  O12  1  0.85332654  0.77724185  0.26713929  1
  O  O13  1  0.65040798  0.49315563  0.77492436  1
  O  O14  1  0.25798818  0.38601795  0.99495389  1
  O  O15  1  0.69061843  0.40042298  0.48530808  1
loop_
_geom_bond_atom_site_label_1
_geom_bond_atom_site_label_2
_geom_bond_distance
_geom_bond_site_symmetry_2
Mg0 O0 2.029349 1_655
Mg0 O11 2.049288 1_555
Mg0 O9 2.084451 1_565
Mg0 O11 2.095969 1_655
Mg0 O10 2.123230 1_655
Mg0 O0 2.236100 1_555
O0 V5 2.063068 1_455
O0 V2 2.101132 1_565
O0 V5 2.107982 1_555
O1 V2 1.977393 1_555
O1 V2 2.063985 1_655
O1 V5 2.139741 1_545
O1 Zn1 2.291193 1_555
O2 V1 1.985944 1_455
O2 V5 1.986815 1_545
O2 V5 2.223946 1_445
O2 V1 2.231214 1_555
O3 V6 1.968559 1_654
O3 Zn0 2.145090 1_655
O3 V6 2.151317 1_554
O3 V1 2.179857 1_565
O4 V7 1.980797 1_554
O4 V7 1.996890 1_654
O4 Zn0 2.077564 1_555
O4 V3 2.245176 1_555
O5 V1 2.001547 1_555
O5 Zn1 2.018491 1_555
O5 V3 2.085194 1_555
O5 Zn1 2.108256 1_655
O6 V1 2.001332 1_556
O6 Zn3 2.029248 1_555
O6 V6 2.059552 1_545
O6 V1 2.114605 1_456
O7 Zn3 1.998412 1_555
O7 V2 2.005102 1_555
O7 Zn3 2.021302 1_455
O7 V4 2.085808 1_555
O8 V3 2.041511 1_555
O8 V3 2.055531 1_455
O8 V0 2.118305 1_455
O8 V0 2.146836 1_555
O8 Zn1 2.395682 1_555
O9 V2 2.087044 1_655
O9 V6 2.095800 1_545
O9 V2 2.323769 1_555
O9 V6 2.359776 1_645
O10 Zn2 2.001164 1_555
O10 Zn2 2.024075 1_455
O10 V0 2.152617 1_455
O10 V0 2.265963 1_555
O11 Zn2 1.920790 1_555
O11 V6 1.963328 1_555
O12 Zn0 1.988283 1_655
O12 V5 1.995993 1_555
O12 Zn0 2.008553 1_555
O12 V0 2.670520 1_555
O13 Zn2 1.939839 1_555
O13 V7 2.059642 1_555
O13 V7 2.111318 1_655
O13 V4 2.264866 1_655
O13 V4 2.350092 1_555
O14 V7 2.000295 1_555
O14 V3 2.035957 1_556
O14 V3 2.063699 1_456
O14 Zn3 2.080154 1_555
O15 V4 2.067838 1_655
O15 V4 2.072252 1_555
O15 Zn1 2.190131 1_555
O15 V0 2.242398 1_555
O15 Zn1 2.413628 1_655
