# generated using pymatgen
data_Li2Ti4Co(PO5)4
_symmetry_space_group_name_H-M   'P 1'
_cell_length_a   6.44419300
_cell_length_b   7.33110893
_cell_length_c   7.48555690
_cell_angle_alpha   89.74916706
_cell_angle_beta   89.56536103
_cell_angle_gamma   89.48344769
_symmetry_Int_Tables_number   1
_chemical_formula_structural   Li2Ti4Co(PO5)4
_chemical_formula_sum   'Li2 Ti4 Co1 P4 O20'
_cell_volume   353.61293916
_cell_formula_units_Z   1
loop_
 _symmetry_equiv_pos_site_id
 _symmetry_equiv_pos_as_xyz
  1  'x, y, z'
loop_
 _atom_site_type_symbol
 _atom_site_label
 _atom_site_symmetry_multiplicity
 _atom_site_fract_x
 _atom_site_fract_y
 _atom_site_fract_z
 _atom_site_occupancy
  Li  Li0  1  0.00000000  0.50000000  0.50000000  1
  Li  Li1  1  0.00000000  0.00000000  0.00000000  1
  Ti  Ti0  1  0.73858900  0.72744300  0.16075900  1
  Ti  Ti1  1  0.24500900  0.21594100  0.32978400  1
  Ti  Ti2  1  0.26141100  0.27255700  0.83924100  1
  Ti  Ti3  1  0.75499100  0.78405900  0.67021600  1
  Co  Co0  1  0.50000000  0.50000000  0.50000000  1
  P  P0  1  0.24774400  0.62398900  0.12621800  1
  P  P1  1  0.75271100  0.12598100  0.37609900  1
  P  P2  1  0.75225600  0.37601100  0.87378200  1
  P  P3  1  0.24728900  0.87401900  0.62390100  1
  O  O0  1  0.44288800  0.74700300  0.63053900  1
  O  O1  1  0.55752600  0.25725000  0.86919200  1
  O  O2  1  0.55711200  0.25299700  0.36946100  1
  O  O3  1  0.44247400  0.74275000  0.13080800  1
  O  O4  1  0.25213400  0.98415600  0.44735200  1
  O  O5  1  0.75218400  0.49216600  0.04423100  1
  O  O6  1  0.74786600  0.01584400  0.55264800  1
  O  O7  1  0.24781600  0.50783400  0.95576900  1
  O  O8  1  0.73300300  0.64476400  0.38648800  1
  O  O9  1  0.23316700  0.16045000  0.10850400  1
  O  O10  1  0.26699700  0.35523600  0.61351200  1
  O  O11  1  0.76683300  0.83955000  0.89149600  1
  O  O12  1  0.94284300  0.25322800  0.37760300  1
  O  O13  1  0.05448500  0.74735000  0.13522000  1
  O  O14  1  0.05715700  0.74677200  0.62239700  1
  O  O15  1  0.94551500  0.25265000  0.86478000  1
  O  O16  1  0.74883000  0.50399600  0.70342500  1
  O  O17  1  0.23922200  0.00153500  0.78667000  1
  O  O18  1  0.25117000  0.49600400  0.29657500  1
  O  O19  1  0.76077800  0.99846500  0.21333000  1
loop_
_geom_bond_atom_site_label_1
_geom_bond_atom_site_label_2
_geom_bond_distance
_geom_bond_site_symmetry_2
Li0 O14 2.068730 1_555
Li0 O12 2.068730 1_455
Li0 O10 2.188622 1_555
Li0 O8 2.188622 1_455
Li0 O16 2.213954 1_455
Li0 O18 2.213954 1_555
Li1 O9 2.088011 1_555
Li1 O11 2.088011 1_444
Li1 O13 2.134417 1_545
Li1 O15 2.134417 1_454
Li1 O17 2.211224 1_554
Li1 O19 2.211224 1_445
Co0 O8 2.025917 1_555
Co0 O10 2.025917 1_555
Co0 O0 2.089815 1_555
Co0 O2 2.089815 1_555
Co0 O18 2.220168 1_555
Co0 O16 2.220168 1_555
O0 P3 1.561323 1_555
O0 Ti3 2.055910 1_555
O1 P2 1.534453 1_555
O1 Ti2 1.925248 1_555
O2 P1 1.561323 1_555
O2 Ti1 2.055910 1_555
O3 P0 1.534453 1_555
O3 Ti0 1.925248 1_555
O4 P3 1.545943 1_555
O4 Ti1 1.910537 1_565
O5 P2 1.537063 1_554
O5 Ti0 1.937243 1_555
O6 P1 1.545943 1_555
O6 Ti3 1.910537 1_545
O7 P0 1.537063 1_556
O7 Ti2 1.937243 1_555
O8 Ti0 1.792847 1_555
O8 Ti3 2.366401 1_555
O9 Ti1 1.709787 1_555
O9 Ti2 2.180321 1_554
O10 Ti2 1.792847 1_555
O10 Ti1 2.366401 1_555
O11 Ti3 1.709787 1_555
O11 Ti0 2.180321 1_556
O12 P1 1.546770 1_555
O12 Ti1 1.993787 1_655
O13 P0 1.533754 1_555
O13 Ti0 2.049660 1_455
O14 P3 1.546770 1_555
O14 Ti3 1.993787 1_455
O15 P2 1.533754 1_555
O15 Ti2 2.049660 1_655
O16 P2 1.580063 1_555
O16 Ti3 2.067786 1_555
O17 P3 1.539250 1_545
O17 Ti2 2.033683 1_555
O18 P0 1.580063 1_555
O18 Ti1 2.067786 1_555
O19 P1 1.539250 1_565
O19 Ti0 2.033683 1_555
