# generated using pymatgen
data_Ba3Er2MoO9
_symmetry_space_group_name_H-M   'P 1'
_cell_length_a   6.06493770
_cell_length_b   6.06493770
_cell_length_c   14.84257659
_cell_angle_alpha   89.75774804
_cell_angle_beta   89.75774804
_cell_angle_gamma   59.83269347
_symmetry_Int_Tables_number   1
_chemical_formula_structural   Ba3Er2MoO9
_chemical_formula_sum   'Ba6 Er4 Mo2 O18'
_cell_volume   472.01174627
_cell_formula_units_Z   2
loop_
 _symmetry_equiv_pos_site_id
 _symmetry_equiv_pos_as_xyz
  1  'x, y, z'
loop_
 _atom_site_type_symbol
 _atom_site_label
 _atom_site_symmetry_multiplicity
 _atom_site_fract_x
 _atom_site_fract_y
 _atom_site_fract_z
 _atom_site_occupancy
  Ba  Ba0  1  0.66808600  0.66541000  0.08752300  1
  Ba  Ba1  1  0.99760100  0.00239900  0.75000000  1
  Ba  Ba2  1  0.33459000  0.33191400  0.41247700  1
  Ba  Ba3  1  0.33191400  0.33459000  0.91247700  1
  Ba  Ba4  1  0.66541000  0.66808600  0.58752300  1
  Ba  Ba5  1  0.00239900  0.99760100  0.25000000  1
  Er  Er0  1  0.33297700  0.33351300  0.16721700  1
  Er  Er1  1  0.66702300  0.66648700  0.83278300  1
  Er  Er2  1  0.33351300  0.33297700  0.66721700  1
  Er  Er3  1  0.66648700  0.66702300  0.33278300  1
  Mo  Mo0  1  0.00000000  0.00000000  0.50000000  1
  Mo  Mo1  1  0.00000000  0.00000000  0.00000000  1
  O  O0  1  0.97921700  0.54141700  0.23962700  1
  O  O1  1  0.29018100  0.87979600  0.91670000  1
  O  O2  1  0.67718900  0.18612000  0.56652400  1
  O  O3  1  0.70981900  0.12020400  0.08330000  1
  O  O4  1  0.02078300  0.45858300  0.76037300  1
  O  O5  1  0.32281100  0.81388000  0.43347600  1
  O  O6  1  0.54141700  0.97921700  0.73962700  1
  O  O7  1  0.87979600  0.29018100  0.41670000  1
  O  O8  1  0.18612000  0.67718900  0.06652400  1
  O  O9  1  0.45858300  0.02078300  0.26037300  1
  O  O10  1  0.81388000  0.32281100  0.93347600  1
  O  O11  1  0.12020400  0.70981900  0.58330000  1
  O  O12  1  0.15392500  0.15300800  0.07514200  1
  O  O13  1  0.49885700  0.50114300  0.75000000  1
  O  O14  1  0.84699200  0.84607500  0.42485800  1
  O  O15  1  0.84607500  0.84699200  0.92485800  1
  O  O16  1  0.15300800  0.15392500  0.57514200  1
  O  O17  1  0.50114300  0.49885700  0.25000000  1
loop_
_geom_bond_atom_site_label_1
_geom_bond_atom_site_label_2
_geom_bond_distance
_geom_bond_site_symmetry_2
Ba0 O0 2.796165 1_555
Ba0 O3 2.894180 1_565
Ba0 O8 2.905919 1_555
Ba0 O10 2.916104 1_554
Ba0 O17 2.974544 1_555
Ba0 O12 3.028326 1_655
Ba0 O12 3.038936 1_565
Ba0 O15 3.059021 1_554
Ba0 O9 3.179405 1_565
Ba0 O3 3.187839 1_555
Ba0 O8 3.192263 1_655
Ba0 O1 3.224650 1_554
Ba1 O6 2.844820 1_545
Ba1 O4 2.844820 1_655
Ba1 O1 2.918745 1_645
Ba1 O11 2.918745 1_645
Ba1 O13 3.017199 1_555
Ba1 O13 3.032395 1_645
Ba1 O15 3.049334 1_545
Ba1 O16 3.049334 1_655
Ba1 O2 3.205755 1_555
Ba1 O10 3.205755 1_555
Ba1 O4 3.232876 1_645
Ba1 O6 3.232876 1_645
Ba2 O9 2.796165 1_555
Ba2 O7 2.894180 1_455
Ba2 O5 2.905919 1_555
Ba2 O2 2.916104 1_555
Ba2 O17 2.974544 1_555
Ba2 O14 3.028326 1_545
Ba2 O14 3.038936 1_455
Ba2 O16 3.059021 1_555
Ba2 O0 3.179405 1_455
Ba2 O7 3.187839 1_555
Ba2 O5 3.192263 1_545
Ba2 O11 3.224650 1_555
Ba3 O4 2.796165 1_555
Ba3 O1 2.894180 1_545
Ba3 O10 2.905919 1_555
Ba3 O8 2.916104 1_556
Ba3 O13 2.974544 1_555
Ba3 O15 3.028326 1_455
Ba3 O15 3.038936 1_545
Ba3 O12 3.059021 1_556
Ba3 O6 3.179405 1_545
Ba3 O1 3.187839 1_555
Ba3 O10 3.192263 1_455
Ba3 O3 3.224650 1_556
Ba4 O6 2.796165 1_555
Ba4 O11 2.894180 1_655
Ba4 O2 2.905919 1_555
Ba4 O5 2.916104 1_555
Ba4 O13 2.974544 1_555
Ba4 O16 3.028326 1_565
Ba4 O16 3.038936 1_655
Ba4 O14 3.059021 1_555
Ba4 O4 3.179405 1_655
Ba4 O11 3.187839 1_555
Ba4 O2 3.192263 1_565
Ba4 O7 3.224650 1_555
Ba5 O0 2.844820 1_455
Ba5 O9 2.844820 1_565
Ba5 O3 2.918745 1_465
Ba5 O7 2.918745 1_465
Ba5 O17 3.017199 1_555
Ba5 O17 3.032395 1_465
Ba5 O14 3.049334 1_455
Ba5 O12 3.049334 1_565
Ba5 O5 3.205755 1_555
Ba5 O8 3.205755 1_555
Ba5 O9 3.232876 1_465
Ba5 O0 3.232876 1_465
Er0 O17 2.145818 1_555
Er0 O0 2.149713 1_455
Er0 O9 2.150370 1_555
Er0 O12 2.337834 1_555
Er0 O3 2.338052 1_555
Er0 O8 2.343204 1_555
Er1 O13 2.145818 1_555
Er1 O4 2.149713 1_655
Er1 O6 2.150370 1_555
Er1 O15 2.337834 1_555
Er1 O1 2.338052 1_555
Er1 O10 2.343204 1_555
Er2 O13 2.145818 1_555
Er2 O6 2.149713 1_545
Er2 O4 2.150370 1_555
Er2 O16 2.337834 1_555
Er2 O11 2.338052 1_555
Er2 O2 2.343204 1_555
Er3 O17 2.145818 1_555
Er3 O9 2.149713 1_565
Er3 O0 2.150370 1_555
Er3 O14 2.337834 1_555
Er3 O7 2.338052 1_555
Er3 O5 2.343204 1_555
Mo0 O2 1.963194 1_455
Mo0 O5 1.963194 1_545
Mo0 O7 1.963972 1_455
Mo0 O11 1.963972 1_545
Mo0 O14 1.965911 1_445
Mo0 O16 1.965911 1_555
Mo1 O8 1.963194 1_545
Mo1 O10 1.963194 1_454
Mo1 O3 1.963972 1_455
Mo1 O1 1.963972 1_544
Mo1 O12 1.965911 1_555
Mo1 O15 1.965911 1_444
