# generated using pymatgen
data_In4CN4
_symmetry_space_group_name_H-M   'P 1'
_cell_length_a   10.93595400
_cell_length_b   3.58103200
_cell_length_c   18.53614700
_cell_angle_alpha   90.00000000
_cell_angle_beta   90.00000000
_cell_angle_gamma   90.00000000
_symmetry_Int_Tables_number   1
_chemical_formula_structural   In4CN4
_chemical_formula_sum   'In16 C4 N16'
_cell_volume   725.91261151
_cell_formula_units_Z   4
loop_
 _symmetry_equiv_pos_site_id
 _symmetry_equiv_pos_as_xyz
  1  'x, y, z'
loop_
 _atom_site_type_symbol
 _atom_site_label
 _atom_site_symmetry_multiplicity
 _atom_site_fract_x
 _atom_site_fract_y
 _atom_site_fract_z
 _atom_site_occupancy
  In  In0  1  0.13717100  0.25000000  0.20788100  1
  In  In1  1  0.63717100  0.25000000  0.29211900  1
  In  In2  1  0.86282900  0.75000000  0.79211900  1
  In  In3  1  0.36282900  0.75000000  0.70788100  1
  In  In4  1  0.88120500  0.25000000  0.95270700  1
  In  In5  1  0.38120500  0.25000000  0.54729300  1
  In  In6  1  0.11879500  0.75000000  0.04729300  1
  In  In7  1  0.61879500  0.75000000  0.45270700  1
  In  In8  1  0.37600300  0.25000000  0.91706400  1
  In  In9  1  0.87600300  0.25000000  0.58293600  1
  In  In10  1  0.62399700  0.75000000  0.08293600  1
  In  In11  1  0.12399700  0.75000000  0.41706400  1
  In  In12  1  0.14121100  0.25000000  0.80778100  1
  In  In13  1  0.64121100  0.25000000  0.69221900  1
  In  In14  1  0.85878900  0.75000000  0.19221900  1
  In  In15  1  0.35878900  0.75000000  0.30778100  1
  C  C0  1  0.36885000  0.25000000  0.10674200  1
  C  C1  1  0.86885000  0.25000000  0.39325800  1
  C  C2  1  0.63115000  0.75000000  0.89325800  1
  C  C3  1  0.13115000  0.75000000  0.60674200  1
  N  N0  1  0.75694300  0.25000000  0.20235300  1
  N  N1  1  0.25694300  0.25000000  0.29764700  1
  N  N2  1  0.24305700  0.75000000  0.79764700  1
  N  N3  1  0.74305700  0.75000000  0.70235300  1
  N  N4  1  0.95257500  0.25000000  0.83044000  1
  N  N5  1  0.45257500  0.25000000  0.66956000  1
  N  N6  1  0.04742500  0.75000000  0.16956000  1
  N  N7  1  0.54742500  0.75000000  0.33044000  1
  N  N8  1  0.25520800  0.25000000  0.10546700  1
  N  N9  1  0.75520800  0.25000000  0.39453300  1
  N  N10  1  0.74479200  0.75000000  0.89453300  1
  N  N11  1  0.24479200  0.75000000  0.60546700  1
  N  N12  1  0.48141300  0.25000000  0.10800000  1
  N  N13  1  0.98141300  0.25000000  0.39200000  1
  N  N14  1  0.51858700  0.75000000  0.89200000  1
  N  N15  1  0.01858700  0.75000000  0.60800000  1
loop_
_geom_bond_atom_site_label_1
_geom_bond_atom_site_label_2
_geom_bond_distance
_geom_bond_site_symmetry_2
In0 N1 2.117604 1_555
In0 N6 2.161890 1_545
In0 N6 2.161890 1_555
In0 N8 2.295661 1_555
In1 N0 2.117604 1_555
In1 N7 2.161890 1_555
In1 N7 2.161890 1_545
In1 N9 2.295661 1_555
In2 N3 2.117604 1_555
In2 N4 2.161890 1_555
In2 N4 2.161890 1_565
In2 N10 2.295661 1_555
In3 N2 2.117604 1_555
In3 N5 2.161890 1_555
In3 N5 2.161890 1_565
In3 N11 2.295661 1_555
In4 N4 2.396990 1_555
In4 N10 2.567920 1_555
In4 N10 2.567920 1_545
In5 N5 2.396990 1_555
In5 N11 2.567920 1_555
In5 N11 2.567920 1_545
In6 N6 2.396990 1_555
In6 N8 2.567920 1_565
In6 N8 2.567920 1_555
In7 N7 2.396990 1_555
In7 N9 2.567920 1_555
In7 N9 2.567920 1_565
In8 N14 2.419335 1_555
In8 N14 2.419335 1_545
In9 N15 2.419335 1_655
In9 N15 2.419335 1_645
In10 N12 2.419335 1_555
In10 N12 2.419335 1_565
In11 N13 2.419335 1_455
In11 N13 2.419335 1_465
In12 N4 2.105238 1_455
In12 N2 2.117014 1_545
In12 N2 2.117014 1_555
In13 N5 2.105238 1_555
In13 N3 2.117014 1_545
In13 N3 2.117014 1_555
In14 N6 2.105238 1_655
In14 N0 2.117014 1_555
In14 N0 2.117014 1_565
In15 N7 2.105238 1_555
In15 N1 2.117014 1_555
In15 N1 2.117014 1_565
C0 N12 1.231205 1_555
C0 N8 1.243008 1_555
C1 N13 1.231205 1_555
C1 N9 1.243008 1_555
C2 N14 1.231205 1_555
C2 N10 1.243008 1_555
C3 N15 1.231205 1_555
C3 N11 1.243008 1_555
