# generated using pymatgen
data_Gd(ReO5)3
_symmetry_space_group_name_H-M   'P 1'
_cell_length_a   8.83074167
_cell_length_b   11.56631651
_cell_length_c   14.81126136
_cell_angle_alpha   90.00000000
_cell_angle_beta   90.00000000
_cell_angle_gamma   90.00000000
_symmetry_Int_Tables_number   1
_chemical_formula_structural   Gd(ReO5)3
_chemical_formula_sum   'Gd4 Re12 O60'
_cell_volume   1512.80969274
_cell_formula_units_Z   4
loop_
 _symmetry_equiv_pos_site_id
 _symmetry_equiv_pos_as_xyz
  1  'x, y, z'
loop_
 _atom_site_type_symbol
 _atom_site_label
 _atom_site_symmetry_multiplicity
 _atom_site_fract_x
 _atom_site_fract_y
 _atom_site_fract_z
 _atom_site_occupancy
  Gd  Gd0  1  0.22945451  0.35411185  0.17566875  1
  Gd  Gd1  1  0.77054549  0.85411185  0.82433125  1
  Gd  Gd2  1  0.72945451  0.85411185  0.32433125  1
  Gd  Gd3  1  0.27054549  0.35411185  0.67566875  1
  Re  Re0  1  0.39839978  0.68117641  0.18356062  1
  Re  Re1  1  0.60160022  0.18117641  0.81643938  1
  Re  Re2  1  0.89839978  0.18117641  0.31643938  1
  Re  Re3  1  0.10160022  0.68117641  0.68356062  1
  Re  Re4  1  0.89732073  0.59917973  0.16910169  1
  Re  Re5  1  0.10267927  0.09917973  0.83089831  1
  Re  Re6  1  0.39732073  0.09917973  0.33089831  1
  Re  Re7  1  0.60267927  0.59917973  0.66910169  1
  Re  Re8  1  0.30368308  0.48921875  0.91870317  1
  Re  Re9  1  0.69631692  0.98921875  0.08129683  1
  Re  Re10  1  0.80368308  0.98921875  0.58129683  1
  Re  Re11  1  0.19631692  0.48921875  0.41870317  1
  O  O0  1  0.36892039  0.52874043  0.19027772  1
  O  O1  1  0.63107961  0.02874043  0.80972228  1
  O  O2  1  0.86892039  0.02874043  0.30972228  1
  O  O3  1  0.13107961  0.52874043  0.69027772  1
  O  O4  1  0.02929752  0.48809606  0.19870806  1
  O  O5  1  0.97070248  0.98809606  0.80129194  1
  O  O6  1  0.52929752  0.98809606  0.30129194  1
  O  O7  1  0.47070248  0.48809606  0.69870806  1
  O  O8  1  0.24198308  0.43645948  0.02641370  1
  O  O9  1  0.75801692  0.93645948  0.97358630  1
  O  O10  1  0.74198308  0.93645948  0.47358630  1
  O  O11  1  0.25801692  0.43645948  0.52641370  1
  O  O12  1  0.24904736  0.18832478  0.07025248  1
  O  O13  1  0.75095264  0.68832478  0.92974752  1
  O  O14  1  0.74904736  0.68832478  0.42974752  1
  O  O15  1  0.25095264  0.18832478  0.57025248  1
  O  O16  1  0.00152796  0.32976597  0.08226439  1
  O  O17  1  0.99847204  0.82976597  0.91773561  1
  O  O18  1  0.50152796  0.82976597  0.41773561  1
  O  O19  1  0.49847204  0.32976597  0.58226439  1
  O  O20  1  0.49880176  0.34378183  0.12621654  1
  O  O21  1  0.50119824  0.84378183  0.87378346  1
  O  O22  1  0.99880176  0.84378183  0.37378346  1
  O  O23  1  0.00119824  0.34378183  0.62621654  1
  O  O24  1  0.45394533  0.71648500  0.07486921  1
  O  O25  1  0.54605467  0.21648500  0.92513079  1
  O  O26  1  0.95394533  0.21648500  0.42513079  1
  O  O27  1  0.04605467  0.71648500  0.57486921  1
  O  O28  1  0.53846695  0.72990843  0.26122961  1
  O  O29  1  0.46153305  0.22990843  0.73877039  1
  O  O30  1  0.03846695  0.22990843  0.23877039  1
  O  O31  1  0.96153305  0.72990843  0.76122961  1
  O  O32  1  0.22775641  0.75024598  0.20422818  1
  O  O33  1  0.77224359  0.25024598  0.79577182  1
  O  O34  1  0.72775641  0.25024598  0.29577182  1
  O  O35  1  0.27224359  0.75024598  0.70422818  1
  O  O36  1  0.96081328  0.67088698  0.07372614  1
  O  O37  1  0.03918672  0.17088698  0.92627386  1
  O  O38  1  0.46081328  0.17088698  0.42627386  1
  O  O39  1  0.53918672  0.67088698  0.57372614  1
  O  O40  1  0.72436885  0.53702397  0.14400628  1
  O  O41  1  0.27563115  0.03702397  0.85599372  1
  O  O42  1  0.22436885  0.03702397  0.35599372  1
  O  O43  1  0.77563115  0.53702397  0.64400628  1
  O  O44  1  0.87144907  0.69742488  0.26023872  1
  O  O45  1  0.12855093  0.19742488  0.73976128  1
  O  O46  1  0.37144907  0.19742488  0.23976128  1
  O  O47  1  0.62855093  0.69742488  0.76023872  1
  O  O48  1  0.49833378  0.50622800  0.91691823  1
  O  O49  1  0.50166622  0.00622800  0.08308177  1
  O  O50  1  0.99833378  0.00622800  0.58308177  1
  O  O51  1  0.00166622  0.50622800  0.41691823  1
  O  O52  1  0.22070162  0.62135760  0.89358330  1
  O  O53  1  0.77929838  0.12135760  0.10641670  1
  O  O54  1  0.72070162  0.12135760  0.60641670  1
  O  O55  1  0.27929838  0.62135760  0.39358330  1
  O  O56  1  0.25191279  0.38998387  0.83318288  1
  O  O57  1  0.74808721  0.88998387  0.16681712  1
  O  O58  1  0.75191279  0.88998387  0.66681712  1
  O  O59  1  0.24808721  0.38998387  0.33318288  1
loop_
_geom_bond_atom_site_label_1
_geom_bond_atom_site_label_2
_geom_bond_distance
_geom_bond_site_symmetry_2
Gd0 O59 2.375296 1_555
Gd0 O4 2.375333 1_555
Gd0 O0 2.375554 1_555
Gd0 O46 2.399554 1_555
Gd0 O30 2.404526 1_555
Gd0 O8 2.409651 1_555
Gd0 O16 2.458535 1_555
Gd0 O12 2.478856 1_555
Gd0 O20 2.491624 1_555
Gd1 O58 2.375296 1_555
Gd1 O5 2.375333 1_555
Gd1 O1 2.375554 1_565
Gd1 O47 2.399554 1_555
Gd1 O31 2.404526 1_555
Gd1 O9 2.409651 1_555
Gd1 O17 2.458535 1_555
Gd1 O13 2.478856 1_555
Gd1 O21 2.491624 1_555
Gd2 O57 2.375296 1_555
Gd2 O6 2.375333 1_555
Gd2 O2 2.375554 1_565
Gd2 O44 2.399554 1_555
Gd2 O28 2.404526 1_555
Gd2 O10 2.409651 1_555
Gd2 O18 2.458535 1_555
Gd2 O14 2.478856 1_555
Gd2 O22 2.491624 1_555
Gd3 O56 2.375296 1_555
Gd3 O7 2.375333 1_555
Gd3 O3 2.375554 1_555
Gd3 O45 2.399554 1_555
Gd3 O29 2.404526 1_555
Gd3 O11 2.409651 1_555
Gd3 O19 2.458535 1_555
Gd3 O15 2.478856 1_555
Gd3 O23 2.491624 1_555
O0 Re0 1.785012 1_555
O1 Re1 1.785012 1_555
O2 Re2 1.785012 1_555
O3 Re3 1.785012 1_555
O4 Re4 1.789233 1_455
O5 Re5 1.789233 1_665
O6 Re6 1.789233 1_565
O7 Re7 1.789233 1_555
O8 Re8 1.792854 1_554
O9 Re9 1.792854 1_556
O10 Re10 1.792854 1_555
O11 Re11 1.792854 1_555
O24 Re0 1.731768 1_555
O25 Re1 1.731768 1_555
O26 Re2 1.731768 1_555
O27 Re3 1.731768 1_555
O28 Re0 1.780724 1_555
O29 Re1 1.780724 1_555
O30 Re2 1.780724 1_455
O31 Re3 1.780724 1_655
O32 Re0 1.732826 1_555
O33 Re1 1.732826 1_555
O34 Re2 1.732826 1_555
O35 Re3 1.732826 1_555
O36 Re4 1.731411 1_555
O37 Re5 1.731411 1_555
O38 Re6 1.731411 1_555
O39 Re7 1.731411 1_555
O40 Re4 1.728473 1_555
O41 Re5 1.728473 1_555
O42 Re6 1.728473 1_555
O43 Re7 1.728473 1_555
O44 Re4 1.779202 1_555
O45 Re5 1.779202 1_555
O46 Re6 1.779202 1_555
O47 Re7 1.779202 1_555
O48 Re8 1.730334 1_555
O49 Re9 1.730334 1_545
O50 Re10 1.730334 1_545
O51 Re11 1.730334 1_555
O52 Re8 1.735306 1_555
O53 Re9 1.735306 1_545
O54 Re10 1.735306 1_545
O55 Re11 1.735306 1_555
O56 Re8 1.769419 1_555
O57 Re9 1.769419 1_555
O58 Re10 1.769419 1_555
O59 Re11 1.769419 1_555
