# generated using pymatgen
data_Li7Mn2(CoO4)3
_symmetry_space_group_name_H-M   'P 1'
_cell_length_a   7.73374476
_cell_length_b   7.73374476
_cell_length_c   10.21286505
_cell_angle_alpha   71.90932305
_cell_angle_beta   71.90932305
_cell_angle_gamma   21.75874889
_symmetry_Int_Tables_number   1
_chemical_formula_structural   Li7Mn2(CoO4)3
_chemical_formula_sum   'Li7 Mn2 Co3 O12'
_cell_volume   214.81950409
_cell_formula_units_Z   1
loop_
 _symmetry_equiv_pos_site_id
 _symmetry_equiv_pos_as_xyz
  1  'x, y, z'
loop_
 _atom_site_type_symbol
 _atom_site_label
 _atom_site_symmetry_multiplicity
 _atom_site_fract_x
 _atom_site_fract_y
 _atom_site_fract_z
 _atom_site_occupancy
  Li  Li0  1  0.16491700  0.16491700  0.25246400  1
  Li  Li1  1  0.83336800  0.83336800  0.74493400  1
  Li  Li2  1  0.50295800  0.50295800  0.26054800  1
  Li  Li3  1  0.17077700  0.17077700  0.74693100  1
  Li  Li4  1  0.83125000  0.83125000  0.25431600  1
  Li  Li5  1  0.49659800  0.49659800  0.74288200  1
  Li  Li6  1  0.00079700  0.00079700  0.49560700  1
  Mn  Mn0  1  0.99945300  0.99945300  0.99850900  1
  Mn  Mn1  1  0.66347400  0.66347400  0.49933600  1
  Co  Co0  1  0.32659800  0.32659800  0.99734200  1
  Co  Co1  1  0.66906700  0.66906700  0.00393800  1
  Co  Co2  1  0.34068100  0.34068100  0.50472700  1
  O  O0  1  0.25130600  0.25130600  0.87983500  1
  O  O1  1  0.90698000  0.90698000  0.38297800  1
  O  O2  1  0.57226000  0.57226000  0.88821300  1
  O  O3  1  0.24437700  0.24437700  0.39498500  1
  O  O4  1  0.91688900  0.91688900  0.88804500  1
  O  O5  1  0.59194300  0.59194300  0.38241700  1
  O  O6  1  0.09407700  0.09407700  0.61136500  1
  O  O7  1  0.75765000  0.75765000  0.12238000  1
  O  O8  1  0.40837800  0.40837800  0.61825600  1
  O  O9  1  0.08053900  0.08053900  0.11220100  1
  O  O10  1  0.75006900  0.75006900  0.61072400  1
  O  O11  1  0.42559400  0.42559400  0.10706800  1
loop_
_geom_bond_atom_site_label_1
_geom_bond_atom_site_label_2
_geom_bond_distance
_geom_bond_site_symmetry_2
Li0 O5 2.047047 1_545
Li0 O5 2.047047 1_455
Li0 O3 2.164803 1_555
Li0 O7 2.167090 1_545
Li0 O7 2.167090 1_455
Li0 O9 2.203576 1_555
Li1 O8 2.042155 1_655
Li1 O8 2.042155 1_565
Li1 O0 2.120488 1_565
Li1 O0 2.120488 1_655
Li1 O10 2.139253 1_555
Li1 O4 2.217717 1_555
Li2 O5 2.107113 1_555
Li2 O1 2.160239 1_545
Li2 O1 2.160239 1_455
Li2 O9 2.164631 1_655
Li2 O9 2.164631 1_565
Li2 O11 2.236682 1_555
Li3 O6 2.072263 1_555
Li3 O0 2.094881 1_555
Li3 O10 2.111108 1_545
Li3 O10 2.111108 1_455
Li3 O2 2.255307 1_455
Li3 O2 2.255307 1_545
Li4 O1 2.001423 1_555
Li4 O7 2.004509 1_555
Li4 O3 2.176452 1_655
Li4 O3 2.176452 1_565
Li4 O11 2.254526 1_655
Li4 O11 2.254526 1_565
Li5 O8 2.119964 1_555
Li5 O2 2.145358 1_555
Li5 O4 2.158543 1_545
Li5 O4 2.158543 1_455
Li5 O6 2.206670 1_565
Li5 O6 2.206670 1_655
Li6 O5 2.090837 1_545
Li6 O5 2.090837 1_455
Li6 O1 2.095340 1_445
Li6 O6 2.112938 1_555
Li6 O8 2.135016 1_545
Li6 O8 2.135016 1_455
Mn0 O4 1.933975 1_555
Mn0 O9 1.941542 1_666
Mn0 O11 1.957522 1_566
Mn0 O11 1.957522 1_656
Mn0 O2 1.958249 1_655
Mn0 O2 1.958249 1_565
Mn1 O5 1.851169 1_555
Mn1 O6 1.946316 1_565
Mn1 O6 1.946316 1_655
Mn1 O3 1.987043 1_565
Mn1 O3 1.987043 1_655
Mn1 O10 1.992611 1_555
Co0 O0 1.901603 1_555
Co0 O7 2.003104 1_456
Co0 O7 2.003104 1_546
Co0 O4 2.071098 1_545
Co0 O4 2.071098 1_455
Co0 O11 2.140688 1_556
Co1 O9 2.054539 1_655
Co1 O9 2.054539 1_565
Co1 O0 2.072740 1_564
Co1 O0 2.072740 1_654
Co1 O7 2.074360 1_555
Co1 O2 2.158271 1_554
Co2 O8 1.776428 1_555
Co2 O1 1.974586 1_545
Co2 O1 1.974586 1_455
Co2 O10 2.062676 1_545
Co2 O10 2.062676 1_455
Co2 O3 2.105418 1_555
