# generated using pymatgen
data_U
_symmetry_space_group_name_H-M   'P 1'
_cell_length_a   5.47670642
_cell_length_b   5.47670642
_cell_length_c   5.58664693
_cell_angle_alpha   60.20785738
_cell_angle_beta   60.20785738
_cell_angle_gamma   81.12579963
_symmetry_Int_Tables_number   1
_chemical_formula_structural   U
_chemical_formula_sum   U6
_cell_volume   125.24354598
_cell_formula_units_Z   6
loop_
 _symmetry_equiv_pos_site_id
 _symmetry_equiv_pos_as_xyz
  1  'x, y, z'
loop_
 _atom_site_type_symbol
 _atom_site_label
 _atom_site_symmetry_multiplicity
 _atom_site_fract_x
 _atom_site_fract_y
 _atom_site_fract_z
 _atom_site_occupancy
  U  U0  1  0.17876900  0.82123100  0.25000000  1
  U  U1  1  0.82123100  0.17876900  0.75000000  1
  U  U2  1  0.19562200  0.36074100  0.87006200  1
  U  U3  1  0.63925900  0.80437800  0.62993800  1
  U  U4  1  0.80437800  0.63925900  0.12993800  1
  U  U5  1  0.36074100  0.19562200  0.37006200  1
loop_
_geom_bond_atom_site_label_1
_geom_bond_atom_site_label_2
_geom_bond_distance
_geom_bond_site_symmetry_2
U0 U2 2.627087 1_564
U0 U3 2.627087 1_455
U0 U5 2.882496 1_565
U0 U4 2.882496 1_455
U0 U2 3.151697 1_555
U0 U3 3.151697 1_554
U0 U4 3.241841 1_555
U0 U5 3.241841 1_555
U0 U1 3.307726 1_455
U0 U1 3.307726 1_564
U1 U4 2.627087 1_546
U1 U5 2.627087 1_655
U1 U2 2.882496 1_655
U1 U3 2.882496 1_545
U1 U4 3.151697 1_555
U1 U5 3.151697 1_556
U1 U3 3.241841 1_555
U1 U2 3.241841 1_555
U2 U4 2.669597 1_456
U2 U3 2.991619 1_555
U2 U5 3.030824 1_556
U2 U5 3.030824 1_555
U3 U5 2.669597 1_565
U3 U4 3.030824 1_555
U3 U4 3.030824 1_556
U4 U5 2.991619 1_555
