# generated using pymatgen
data_Tm3Al
_symmetry_space_group_name_H-M   'P 1'
_cell_length_a   6.67984598
_cell_length_b   6.67984598
_cell_length_c   5.24870514
_cell_angle_alpha   90.00000000
_cell_angle_beta   90.00000000
_cell_angle_gamma   119.99998653
_symmetry_Int_Tables_number   1
_chemical_formula_structural   Tm3Al
_chemical_formula_sum   'Tm6 Al2'
_cell_volume   202.82232847
_cell_formula_units_Z   2
loop_
 _symmetry_equiv_pos_site_id
 _symmetry_equiv_pos_as_xyz
  1  'x, y, z'
loop_
 _atom_site_type_symbol
 _atom_site_label
 _atom_site_symmetry_multiplicity
 _atom_site_fract_x
 _atom_site_fract_y
 _atom_site_fract_z
 _atom_site_occupancy
  Tm  Tm0  1  0.82655113  0.17344887  0.75000000  1
  Tm  Tm1  1  0.34689774  0.17344887  0.75000000  1
  Tm  Tm2  1  0.82655113  0.65310226  0.75000000  1
  Tm  Tm3  1  0.17344887  0.82655113  0.25000000  1
  Tm  Tm4  1  0.65310226  0.82655113  0.25000000  1
  Tm  Tm5  1  0.17344887  0.34689774  0.25000000  1
  Al  Al0  1  0.66666700  0.33333300  0.25000000  1
  Al  Al1  1  0.33333300  0.66666700  0.75000000  1
loop_
_geom_bond_atom_site_label_1
_geom_bond_atom_site_label_2
_geom_bond_distance
_geom_bond_site_symmetry_2
Tm0 Tm1 3.204011 1_555
Tm0 Tm2 3.204011 1_555
Tm0 Tm4 3.303691 1_545
Tm0 Tm4 3.303691 1_546
Tm0 Tm5 3.303691 1_656
Tm0 Tm5 3.303691 1_655
Tm0 Tm2 3.475835 1_545
Tm0 Tm1 3.475835 1_655
Tm1 Tm2 3.204011 1_555
Tm1 Tm5 3.303690 1_555
Tm1 Tm5 3.303690 1_556
Tm1 Tm3 3.303691 1_546
Tm1 Tm3 3.303691 1_545
Tm1 Tm2 3.475836 1_445
Tm2 Tm4 3.303690 1_555
Tm2 Tm4 3.303690 1_556
Tm2 Tm3 3.303691 1_655
Tm2 Tm3 3.303691 1_656
Tm3 Tm5 3.204011 1_555
Tm3 Tm4 3.204011 1_555
Tm3 Tm5 3.475835 1_565
Tm3 Tm4 3.475835 1_455
Tm4 Tm5 3.204011 1_555
Tm4 Tm5 3.475836 1_665
Al0 Tm0 3.210780 1_555
Al0 Tm0 3.210780 1_554
Al0 Tm1 3.210783 1_555
Al0 Tm1 3.210783 1_554
Al0 Tm2 3.210783 1_554
Al0 Tm2 3.210783 1_555
Al0 Tm4 3.340841 1_545
Al0 Tm5 3.340841 1_655
Al0 Tm3 3.340845 1_545
Al0 Tm3 3.340845 1_655
Al0 Tm5 3.340848 1_555
Al0 Tm4 3.340848 1_555
Al1 Tm3 3.210780 1_555
Al1 Tm3 3.210780 1_556
Al1 Tm5 3.210783 1_555
Al1 Tm5 3.210783 1_556
Al1 Tm4 3.210783 1_556
Al1 Tm4 3.210783 1_555
Al1 Tm2 3.340841 1_455
Al1 Tm1 3.340841 1_565
Al1 Tm0 3.340845 1_455
Al1 Tm0 3.340845 1_565
Al1 Tm1 3.340848 1_555
Al1 Tm2 3.340848 1_555
