# generated using pymatgen
data_BaMn4AlO7
_symmetry_space_group_name_H-M   'P 1'
_cell_length_a   6.30851590
_cell_length_b   6.30851590
_cell_length_c   10.04031100
_cell_angle_alpha   90.00000000
_cell_angle_beta   90.00000000
_cell_angle_gamma   119.99999894
_symmetry_Int_Tables_number   1
_chemical_formula_structural   BaMn4AlO7
_chemical_formula_sum   'Ba2 Mn8 Al2 O14'
_cell_volume   346.04470284
_cell_formula_units_Z   2
loop_
 _symmetry_equiv_pos_site_id
 _symmetry_equiv_pos_as_xyz
  1  'x, y, z'
loop_
 _atom_site_type_symbol
 _atom_site_label
 _atom_site_symmetry_multiplicity
 _atom_site_fract_x
 _atom_site_fract_y
 _atom_site_fract_z
 _atom_site_occupancy
  Ba  Ba0  1  0.66666700  0.33333300  0.52098800  1
  Ba  Ba1  1  0.33333300  0.66666700  0.02098800  1
  Mn  Mn0  1  0.82219900  0.17780100  0.19553800  1
  Mn  Mn1  1  0.64439800  0.82219900  0.69553800  1
  Mn  Mn2  1  0.17780100  0.35560200  0.69553800  1
  Mn  Mn3  1  0.82219900  0.64439800  0.19553800  1
  Mn  Mn4  1  0.35560200  0.17780100  0.19553800  1
  Mn  Mn5  1  0.17780100  0.82219900  0.69553800  1
  Mn  Mn6  1  0.00000000  0.00000000  0.44625200  1
  Mn  Mn7  1  0.00000000  0.00000000  0.94625200  1
  Al  Al0  1  0.66666700  0.33333300  0.88551900  1
  Al  Al1  1  0.33333300  0.66666700  0.38551900  1
  O  O0  1  0.81578000  0.18422000  0.99217300  1
  O  O1  1  0.63156100  0.81578000  0.49217300  1
  O  O2  1  0.18422000  0.36843900  0.49217300  1
  O  O3  1  0.81578000  0.63156100  0.99217300  1
  O  O4  1  0.36843900  0.18422000  0.99217300  1
  O  O5  1  0.18422000  0.81578000  0.49217300  1
  O  O6  1  0.00000000  0.00000000  0.73374200  1
  O  O7  1  0.00000000  0.00000000  0.23374200  1
  O  O8  1  0.47983700  0.52016300  0.26145500  1
  O  O9  1  0.95967400  0.47983700  0.76145500  1
  O  O10  1  0.52016300  0.04032600  0.76145500  1
  O  O11  1  0.47983700  0.95967400  0.26145500  1
  O  O12  1  0.52016300  0.47983700  0.76145500  1
  O  O13  1  0.04032600  0.52016300  0.26145500  1
loop_
_geom_bond_atom_site_label_1
_geom_bond_atom_site_label_2
_geom_bond_distance
_geom_bond_site_symmetry_2
Ba0 O10 2.896843 1_555
Ba0 O9 2.896843 1_555
Ba0 O12 2.896846 1_555
Ba0 O1 3.173300 1_555
Ba0 O2 3.173300 1_555
Ba0 O2 3.173300 1_655
Ba0 O1 3.173300 1_545
Ba0 O5 3.173300 1_655
Ba0 O5 3.173300 1_545
Ba0 O11 3.310221 1_545
Ba0 O13 3.310221 1_655
Ba0 O8 3.310225 1_555
Ba1 O11 2.896843 1_555
Ba1 O13 2.896843 1_555
Ba1 O8 2.896846 1_555
Ba1 O3 3.173300 1_554
Ba1 O4 3.173300 1_554
Ba1 O3 3.173300 1_454
Ba1 O4 3.173300 1_564
Ba1 O0 3.173300 1_454
Ba1 O0 3.173300 1_564
Ba1 O10 3.310221 1_564
Ba1 O9 3.310221 1_454
Ba1 O12 3.310225 1_554
Mn0 O7 1.980278 1_655
Mn0 O13 2.006057 1_655
Mn0 O11 2.006057 1_545
Mn0 O0 2.043052 1_554
Mn1 O6 1.980278 1_665
Mn1 O10 2.006057 1_565
Mn1 O12 2.006057 1_555
Mn1 O1 2.043052 1_555
Mn2 O6 1.980278 1_555
Mn2 O9 2.006057 1_455
Mn2 O12 2.006057 1_555
Mn2 O2 2.043052 1_555
Mn3 O7 1.980278 1_665
Mn3 O13 2.006057 1_655
Mn3 O8 2.006057 1_555
Mn3 O3 2.043052 1_554
Mn4 O7 1.980278 1_555
Mn4 O11 2.006057 1_545
Mn4 O8 2.006057 1_555
Mn4 O4 2.043052 1_554
Mn5 O6 1.980278 1_565
Mn5 O9 2.006057 1_455
Mn5 O10 2.006057 1_565
Mn5 O5 2.043052 1_555
Mn6 O1 2.065034 1_445
Mn6 O2 2.065034 1_555
Mn6 O5 2.065040 1_545
Mn6 O7 2.133666 1_555
Mn7 O3 2.065034 1_445
Mn7 O4 2.065034 1_555
Mn7 O0 2.065040 1_455
Mn7 O6 2.133666 1_555
Al0 O0 1.949703 1_555
Al0 O4 1.949713 1_555
Al0 O3 1.949713 1_555
Al0 O9 2.028341 1_555
Al0 O10 2.028341 1_555
Al0 O12 2.028345 1_555
Al1 O5 1.949703 1_555
Al1 O2 1.949713 1_555
Al1 O1 1.949713 1_555
Al1 O11 2.028341 1_555
Al1 O13 2.028341 1_555
Al1 O8 2.028345 1_555
