# generated using pymatgen
data_Ba4Ce2In2O11
_symmetry_space_group_name_H-M   'P 1'
_cell_length_a   6.15228549
_cell_length_b   6.12935247
_cell_length_c   8.86220100
_cell_angle_alpha   90.00000000
_cell_angle_beta   90.00000000
_cell_angle_gamma   89.92049664
_symmetry_Int_Tables_number   1
_chemical_formula_structural   Ba4Ce2In2O11
_chemical_formula_sum   'Ba4 Ce2 In2 O11'
_cell_volume   334.18907942
_cell_formula_units_Z   1
loop_
 _symmetry_equiv_pos_site_id
 _symmetry_equiv_pos_as_xyz
  1  'x, y, z'
loop_
 _atom_site_type_symbol
 _atom_site_label
 _atom_site_symmetry_multiplicity
 _atom_site_fract_x
 _atom_site_fract_y
 _atom_site_fract_z
 _atom_site_occupancy
  Ba  Ba0  1  0.50696700  0.50912800  0.25000000  1
  Ba  Ba1  1  0.97569600  0.99809000  0.25000000  1
  Ba  Ba2  1  0.49350900  0.49362700  0.75000000  1
  Ba  Ba3  1  0.01220300  0.99478000  0.75000000  1
  Ce  Ce0  1  0.00153700  0.49503800  0.50440400  1
  Ce  Ce1  1  0.00153700  0.49503800  0.99559600  1
  In  In0  1  0.48682600  0.99524300  0.02075500  1
  In  In1  1  0.48682600  0.99524300  0.47924500  1
  O  O0  1  0.74367100  0.75027800  0.03045900  1
  O  O1  1  0.74601100  0.23417800  0.48782400  1
  O  O2  1  0.25903000  0.23979400  0.55539400  1
  O  O3  1  0.26116500  0.74991300  0.94950500  1
  O  O4  1  0.25903000  0.23979400  0.94460600  1
  O  O5  1  0.26116500  0.74991300  0.55049500  1
  O  O6  1  0.74367100  0.75027800  0.46954100  1
  O  O7  1  0.74601100  0.23417800  0.01217600  1
  O  O8  1  0.40851900  0.98517400  0.25000000  1
  O  O9  1  0.05796300  0.48079400  0.25000000  1
  O  O10  1  0.93206300  0.51141900  0.75000000  1
loop_
_geom_bond_atom_site_label_1
_geom_bond_atom_site_label_2
_geom_bond_distance
_geom_bond_site_symmetry_2
Ba0 O9 2.768095 1_555
Ba0 O0 2.845502 1_555
Ba0 O6 2.845502 1_555
Ba0 O8 2.979230 1_555
Ba0 O7 3.072176 1_555
Ba0 O1 3.072176 1_555
Ba0 O8 3.268940 1_545
Ba0 O9 3.394090 1_655
Ba1 O8 2.663917 1_655
Ba1 O0 2.852418 1_555
Ba1 O6 2.852418 1_555
Ba1 O7 2.920155 1_565
Ba1 O1 2.920155 1_565
Ba1 O9 3.002334 1_665
Ba1 O9 3.210138 1_655
Ba2 O10 2.700464 1_555
Ba2 O4 2.735372 1_555
Ba2 O2 2.735372 1_555
Ba2 O3 2.762376 1_555
Ba2 O5 2.762376 1_555
Ba2 O7 3.214616 1_556
Ba2 O1 3.214616 1_555
Ba3 O4 2.746276 1_565
Ba3 O2 2.746276 1_565
Ba3 O3 2.778187 1_555
Ba3 O5 2.778187 1_555
Ba3 O10 3.004110 1_455
Ba3 O7 3.197958 1_466
Ba3 O1 3.197958 1_465
Ba3 O10 3.204140 1_465
Ba3 O0 3.340630 1_456
Ba3 O6 3.340630 1_455
Ce0 O10 2.220337 1_455
Ce0 O6 2.247880 1_455
Ce0 O1 2.248657 1_455
Ce0 O2 2.270356 1_555
Ce0 O5 2.272814 1_555
Ce0 O9 2.282801 1_555
Ce1 O10 2.220337 1_455
Ce1 O0 2.247880 1_456
Ce1 O7 2.248657 1_456
Ce1 O4 2.270356 1_555
Ce1 O3 2.272814 1_555
Ce1 O9 2.282801 1_556
In0 O8 2.088888 1_555
In0 O3 2.143156 1_554
In0 O4 2.158823 1_564
In0 O7 2.167892 1_565
In0 O0 2.179960 1_555
In1 O8 2.088888 1_555
In1 O5 2.143156 1_555
In1 O2 2.158823 1_565
In1 O1 2.167892 1_565
In1 O6 2.179960 1_555
