# generated using pymatgen
data_LaYCo10
_symmetry_space_group_name_H-M   'P 1'
_cell_length_a   5.12766200
_cell_length_b   16.81467377
_cell_length_c   17.75188356
_cell_angle_alpha   89.99999644
_cell_angle_beta   90.00000000
_cell_angle_gamma   90.00000000
_symmetry_Int_Tables_number   1
_chemical_formula_structural   LaYCo10
_chemical_formula_sum   'La8 Y8 Co80'
_cell_volume   1530.56675686
_cell_formula_units_Z   8
loop_
 _symmetry_equiv_pos_site_id
 _symmetry_equiv_pos_as_xyz
  1  'x, y, z'
loop_
 _atom_site_type_symbol
 _atom_site_label
 _atom_site_symmetry_multiplicity
 _atom_site_fract_x
 _atom_site_fract_y
 _atom_site_fract_z
 _atom_site_occupancy
  La  La0_0  1  0.00000000  0.04601100  0.00000000  1
  La  La0_1  1  0.00000000  0.04601100  0.50000000  1
  La  La0_2  1  0.00000000  0.54601100  0.00000000  1
  La  La0_3  1  0.00000000  0.54601100  0.50000000  1
  La  La0_4  1  0.50000000  0.04601100  0.00000000  1
  La  La0_5  1  0.50000000  0.04601100  0.50000000  1
  La  La0_6  1  0.50000000  0.54601100  0.00000000  1
  La  La0_7  1  0.50000000  0.54601100  0.50000000  1
  Y  Y0_0  1  0.00000000  0.23336600  0.25000000  1
  Y  Y0_1  1  0.00000000  0.23336600  0.75000000  1
  Y  Y0_2  1  0.00000000  0.73336600  0.25000000  1
  Y  Y0_3  1  0.00000000  0.73336600  0.75000000  1
  Y  Y0_4  1  0.50000000  0.23336600  0.25000000  1
  Y  Y0_5  1  0.50000000  0.23336600  0.75000000  1
  Y  Y0_6  1  0.50000000  0.73336600  0.25000000  1
  Y  Y0_7  1  0.50000000  0.73336600  0.75000000  1
  Co  Co0_0  1  0.00000000  0.47325650  0.13650800  1
  Co  Co0_1  1  0.00000000  0.47325650  0.63650800  1
  Co  Co0_2  1  0.00000000  0.97325650  0.13650800  1
  Co  Co0_3  1  0.00000000  0.97325650  0.63650800  1
  Co  Co0_4  1  0.50000000  0.47325650  0.13650800  1
  Co  Co0_5  1  0.50000000  0.47325650  0.63650800  1
  Co  Co0_6  1  0.50000000  0.97325650  0.13650800  1
  Co  Co0_7  1  0.50000000  0.97325650  0.63650800  1
  Co  Co1_0  1  0.00000000  0.22685050  0.43520400  1
  Co  Co1_1  1  0.00000000  0.22685050  0.93520400  1
  Co  Co1_2  1  0.00000000  0.72685050  0.43520400  1
  Co  Co1_3  1  0.00000000  0.72685050  0.93520400  1
  Co  Co1_4  1  0.50000000  0.22685050  0.43520400  1
  Co  Co1_5  1  0.50000000  0.22685050  0.93520400  1
  Co  Co1_6  1  0.50000000  0.72685050  0.43520400  1
  Co  Co1_7  1  0.50000000  0.72685050  0.93520400  1
  Co  Co2_0  1  0.00000000  0.22685050  0.06479600  1
  Co  Co2_1  1  0.00000000  0.22685050  0.56479600  1
  Co  Co2_2  1  0.00000000  0.72685050  0.06479600  1
  Co  Co2_3  1  0.00000000  0.72685050  0.56479600  1
  Co  Co2_4  1  0.50000000  0.22685050  0.06479600  1
  Co  Co2_5  1  0.50000000  0.22685050  0.56479600  1
  Co  Co2_6  1  0.50000000  0.72685050  0.06479600  1
  Co  Co2_7  1  0.50000000  0.72685050  0.56479600  1
  Co  Co3_0  1  0.00000000  0.47325650  0.36349200  1
  Co  Co3_1  1  0.00000000  0.47325650  0.86349200  1
  Co  Co3_2  1  0.00000000  0.97325650  0.36349200  1
  Co  Co3_3  1  0.00000000  0.97325650  0.86349200  1
  Co  Co3_4  1  0.50000000  0.47325650  0.36349200  1
  Co  Co3_5  1  0.50000000  0.47325650  0.86349200  1
  Co  Co3_6  1  0.50000000  0.97325650  0.36349200  1
  Co  Co3_7  1  0.50000000  0.97325650  0.86349200  1
  Co  Co4_0  1  0.00000000  0.11811000  0.13980250  1
  Co  Co4_1  1  0.00000000  0.11811000  0.63980250  1
  Co  Co4_2  1  0.00000000  0.61811000  0.13980250  1
  Co  Co4_3  1  0.00000000  0.61811000  0.63980250  1
  Co  Co4_4  1  0.50000000  0.11811000  0.13980250  1
  Co  Co4_5  1  0.50000000  0.11811000  0.63980250  1
  Co  Co4_6  1  0.50000000  0.61811000  0.13980250  1
  Co  Co4_7  1  0.50000000  0.61811000  0.63980250  1
  Co  Co5_0  1  0.00000000  0.34128500  0.36991200  1
  Co  Co5_1  1  0.00000000  0.34128500  0.86991200  1
  Co  Co5_2  1  0.00000000  0.84128500  0.36991200  1
  Co  Co5_3  1  0.00000000  0.84128500  0.86991200  1
  Co  Co5_4  1  0.50000000  0.34128500  0.36991200  1
  Co  Co5_5  1  0.50000000  0.34128500  0.86991200  1
  Co  Co5_6  1  0.50000000  0.84128500  0.36991200  1
  Co  Co5_7  1  0.50000000  0.84128500  0.86991200  1
  Co  Co6_0  1  0.00000000  0.34128500  0.13008800  1
  Co  Co6_1  1  0.00000000  0.34128500  0.63008800  1
  Co  Co6_2  1  0.00000000  0.84128500  0.13008800  1
  Co  Co6_3  1  0.00000000  0.84128500  0.63008800  1
  Co  Co6_4  1  0.50000000  0.34128500  0.13008800  1
  Co  Co6_5  1  0.50000000  0.34128500  0.63008800  1
  Co  Co6_6  1  0.50000000  0.84128500  0.13008800  1
  Co  Co6_7  1  0.50000000  0.84128500  0.63008800  1
  Co  Co7_0  1  0.00000000  0.11811000  0.36019750  1
  Co  Co7_1  1  0.00000000  0.11811000  0.86019750  1
  Co  Co7_2  1  0.00000000  0.61811000  0.36019750  1
  Co  Co7_3  1  0.00000000  0.61811000  0.86019750  1
  Co  Co7_4  1  0.50000000  0.11811000  0.36019750  1
  Co  Co7_5  1  0.50000000  0.11811000  0.86019750  1
  Co  Co7_6  1  0.50000000  0.61811000  0.36019750  1
  Co  Co7_7  1  0.50000000  0.61811000  0.86019750  1
  Co  Co8_0  1  0.00000000  0.03836050  0.25000000  1
  Co  Co8_1  1  0.00000000  0.03836050  0.75000000  1
  Co  Co8_2  1  0.00000000  0.53836050  0.25000000  1
  Co  Co8_3  1  0.00000000  0.53836050  0.75000000  1
  Co  Co8_4  1  0.50000000  0.03836050  0.25000000  1
  Co  Co8_5  1  0.50000000  0.03836050  0.75000000  1
  Co  Co8_6  1  0.50000000  0.53836050  0.25000000  1
  Co  Co8_7  1  0.50000000  0.53836050  0.75000000  1
  Co  Co9_0  1  0.00000000  0.36315900  0.00000000  1
  Co  Co9_1  1  0.00000000  0.36315900  0.50000000  1
  Co  Co9_2  1  0.00000000  0.86315900  0.00000000  1
  Co  Co9_3  1  0.00000000  0.86315900  0.50000000  1
  Co  Co9_4  1  0.50000000  0.36315900  0.00000000  1
  Co  Co9_5  1  0.50000000  0.36315900  0.50000000  1
  Co  Co9_6  1  0.50000000  0.86315900  0.00000000  1
  Co  Co9_7  1  0.50000000  0.86315900  0.50000000  1
loop_
_geom_bond_atom_site_label_1
_geom_bond_atom_site_label_2
_geom_bond_distance
_geom_bond_site_symmetry_2
La0_0 La0_4 2.563831 1_455
La0_0 La0_4 2.563831 1_555
La0_1 La0_5 2.563831 1_455
La0_1 La0_5 2.563831 1_555
La0_2 La0_6 2.563831 1_555
La0_2 La0_6 2.563831 1_455
La0_3 La0_7 2.563831 1_455
La0_3 La0_7 2.563831 1_555
Y0_0 Y0_4 2.563831 1_455
Y0_0 Y0_4 2.563831 1_555
Y0_1 Y0_5 2.563831 1_555
Y0_1 Y0_5 2.563831 1_455
Y0_2 Y0_6 2.563831 1_455
Y0_2 Y0_6 2.563831 1_555
Y0_3 Y0_7 2.563831 1_555
Y0_3 Y0_7 2.563831 1_455
Co0_0 Co6_0 2.221982 1_555
Co0_0 Co8_2 2.292897 1_555
Co0_0 Co4_2 2.436366 1_555
Co0_0 Co0_4 2.563831 1_555
Co0_0 Co0_4 2.563831 1_455
Co0_0 La0_2 2.714558 1_555
Co0_0 Co9_0 3.049491 1_555
Co0_1 Co6_1 2.221982 1_555
Co0_1 Co8_3 2.292897 1_555
Co0_1 Co4_3 2.436366 1_555
Co0_1 Co0_5 2.563831 1_455
Co0_1 Co0_5 2.563831 1_555
Co0_1 La0_3 2.714558 1_555
Co0_1 Co9_1 3.049491 1_555
Co0_2 Co6_2 2.221982 1_555
Co0_2 Co8_0 2.292897 1_565
Co0_2 Co4_0 2.436366 1_565
Co0_2 Co0_6 2.563831 1_455
Co0_2 Co0_6 2.563831 1_555
Co0_2 La0_0 2.714558 1_565
Co0_2 Co9_2 3.049491 1_555
Co0_3 Co6_3 2.221982 1_555
Co0_3 Co8_1 2.292897 1_565
Co0_3 Co4_1 2.436366 1_565
Co0_3 Co0_7 2.563831 1_555
Co0_3 Co0_7 2.563831 1_455
Co0_3 La0_1 2.714558 1_565
Co0_3 Co9_3 3.049491 1_555
Co0_4 Co6_4 2.221982 1_555
Co0_4 Co8_6 2.292897 1_555
Co0_4 Co4_6 2.436366 1_555
Co0_4 La0_6 2.714558 1_555
Co0_4 Co9_4 3.049491 1_555
Co0_5 Co6_5 2.221982 1_555
Co0_5 Co8_7 2.292897 1_555
Co0_5 Co4_7 2.436366 1_555
Co0_5 La0_7 2.714558 1_555
Co0_5 Co9_5 3.049491 1_555
Co0_6 Co6_6 2.221982 1_555
Co0_6 Co8_4 2.292897 1_565
Co0_6 Co4_4 2.436366 1_565
Co0_6 La0_4 2.714558 1_565
Co0_6 Co9_6 3.049491 1_555
Co0_7 Co6_7 2.221982 1_555
Co0_7 Co8_5 2.292897 1_565
Co0_7 Co4_5 2.436366 1_565
Co0_7 La0_5 2.714558 1_565
Co0_7 Co9_7 3.049491 1_555
Co1_0 Co5_0 2.246302 1_555
Co1_0 Co7_0 2.261877 1_555
Co1_0 Co2_1 2.300502 1_555
Co1_0 Co1_4 2.563831 1_455
Co1_0 Co1_4 2.563831 1_555
Co1_0 Co9_1 2.564423 1_555
Co1_0 La0_1 3.251043 1_555
Co1_1 Co5_1 2.246302 1_555
Co1_1 Co7_1 2.261877 1_555
Co1_1 Co2_0 2.300502 1_556
Co1_1 Co1_5 2.563831 1_455
Co1_1 Co1_5 2.563831 1_555
Co1_1 Co9_0 2.564423 1_556
Co1_1 La0_0 3.251043 1_556
Co1_2 Co5_2 2.246302 1_555
Co1_2 Co7_2 2.261877 1_555
Co1_2 Co2_3 2.300502 1_555
Co1_2 Co1_6 2.563831 1_555
Co1_2 Co1_6 2.563831 1_455
Co1_2 Co9_3 2.564423 1_555
Co1_2 La0_3 3.251043 1_555
Co1_3 Co5_3 2.246302 1_555
Co1_3 Co7_3 2.261877 1_555
Co1_3 Co2_2 2.300502 1_556
Co1_3 Co1_7 2.563831 1_455
Co1_3 Co1_7 2.563831 1_555
Co1_3 Co9_2 2.564423 1_556
Co1_3 La0_2 3.251043 1_556
Co1_4 Co5_4 2.246302 1_555
Co1_4 Co7_4 2.261877 1_555
Co1_4 Co2_5 2.300502 1_555
Co1_4 Co9_5 2.564423 1_555
Co1_4 La0_5 3.251043 1_555
Co1_5 Co5_5 2.246302 1_555
Co1_5 Co7_5 2.261877 1_555
Co1_5 Co2_4 2.300502 1_556
Co1_5 Co9_4 2.564423 1_556
Co1_5 La0_4 3.251043 1_556
Co1_6 Co5_6 2.246302 1_555
Co1_6 Co7_6 2.261877 1_555
Co1_6 Co2_7 2.300502 1_555
Co1_6 Co9_7 2.564423 1_555
Co1_6 La0_7 3.251043 1_555
Co1_7 Co5_7 2.246302 1_555
Co1_7 Co7_7 2.261877 1_555
Co1_7 Co2_6 2.300502 1_556
Co1_7 Co9_6 2.564423 1_556
Co1_7 La0_6 3.251043 1_556
Co2_0 Co6_0 2.246303 1_555
Co2_0 Co4_0 2.261877 1_555
Co2_0 Co2_4 2.563831 1_455
Co2_0 Co2_4 2.563831 1_555
Co2_0 Co9_0 2.564423 1_555
Co2_0 La0_0 3.251043 1_555
Co2_1 Co6_1 2.246303 1_555
Co2_1 Co4_1 2.261877 1_555
Co2_1 Co2_5 2.563831 1_455
Co2_1 Co2_5 2.563831 1_555
Co2_1 Co9_1 2.564423 1_555
Co2_1 La0_1 3.251043 1_555
Co2_2 Co6_2 2.246303 1_555
Co2_2 Co4_2 2.261877 1_555
Co2_2 Co2_6 2.563831 1_455
Co2_2 Co2_6 2.563831 1_555
Co2_2 Co9_2 2.564423 1_555
Co2_2 La0_2 3.251043 1_555
Co2_3 Co6_3 2.246303 1_555
Co2_3 Co4_3 2.261877 1_555
Co2_3 Co2_7 2.563831 1_555
Co2_3 Co2_7 2.563831 1_455
Co2_3 Co9_3 2.564423 1_555
Co2_3 La0_3 3.251043 1_555
Co2_4 Co6_4 2.246303 1_555
Co2_4 Co4_4 2.261877 1_555
Co2_4 Co9_4 2.564423 1_555
Co2_4 La0_4 3.251043 1_555
Co2_5 Co6_5 2.246303 1_555
Co2_5 Co4_5 2.261877 1_555
Co2_5 Co9_5 2.564423 1_555
Co2_5 La0_5 3.251043 1_555
Co2_6 Co6_6 2.246303 1_555
Co2_6 Co4_6 2.261877 1_555
Co2_6 Co9_6 2.564423 1_555
Co2_6 La0_6 3.251043 1_555
Co2_7 Co6_7 2.246303 1_555
Co2_7 Co4_7 2.261877 1_555
Co2_7 Co9_7 2.564423 1_555
Co2_7 La0_7 3.251043 1_555
Co3_0 Co5_0 2.221982 1_555
Co3_0 Co8_2 2.292897 1_555
Co3_0 Co7_2 2.436366 1_555
Co3_0 Co3_4 2.563831 1_455
Co3_0 Co3_4 2.563831 1_555
Co3_0 La0_3 2.714558 1_555
Co3_0 Co9_1 3.049491 1_555
Co3_1 Co5_1 2.221982 1_555
Co3_1 Co8_3 2.292897 1_555
Co3_1 Co7_3 2.436366 1_555
Co3_1 Co3_5 2.563831 1_555
Co3_1 Co3_5 2.563831 1_455
Co3_1 La0_2 2.714558 1_556
Co3_1 Co9_0 3.049491 1_556
Co3_2 Co5_2 2.221982 1_555
Co3_2 Co8_0 2.292897 1_565
Co3_2 Co7_0 2.436366 1_565
Co3_2 Co3_6 2.563831 1_455
Co3_2 Co3_6 2.563831 1_555
Co3_2 La0_1 2.714558 1_565
Co3_2 Co9_3 3.049491 1_555
Co3_3 Co5_3 2.221982 1_555
Co3_3 Co8_1 2.292897 1_565
Co3_3 Co7_1 2.436366 1_565
Co3_3 Co3_7 2.563831 1_455
Co3_3 Co3_7 2.563831 1_555
Co3_3 La0_0 2.714558 1_566
Co3_3 Co9_2 3.049491 1_556
Co3_4 Co5_4 2.221982 1_555
Co3_4 Co8_6 2.292897 1_555
Co3_4 Co7_6 2.436366 1_555
Co3_4 La0_7 2.714558 1_555
Co3_4 Co9_5 3.049491 1_555
Co3_5 Co5_5 2.221982 1_555
Co3_5 Co8_7 2.292897 1_555
Co3_5 Co7_7 2.436366 1_555
Co3_5 La0_6 2.714558 1_556
Co3_5 Co9_4 3.049491 1_556
Co3_6 Co5_6 2.221982 1_555
Co3_6 Co8_4 2.292897 1_565
Co3_6 Co7_4 2.436366 1_565
Co3_6 La0_5 2.714558 1_565
Co3_6 Co9_7 3.049491 1_555
Co3_7 Co5_7 2.221982 1_555
Co3_7 Co8_5 2.292897 1_565
Co3_7 Co7_5 2.436366 1_565
Co3_7 La0_4 2.714558 1_566
Co3_7 Co9_6 3.049491 1_556
Co4_0 Co8_0 2.371697 1_555
Co4_0 Co4_4 2.563831 1_555
Co4_0 Co4_4 2.563831 1_455
Co4_0 Y0_0 2.753649 1_555
Co4_0 La0_0 2.762036 1_555
Co4_1 Co8_1 2.371697 1_555
Co4_1 Co4_5 2.563831 1_455
Co4_1 Co4_5 2.563831 1_555
Co4_1 Y0_1 2.753649 1_555
Co4_1 La0_1 2.762036 1_555
Co4_2 Co8_2 2.371697 1_555
Co4_2 Co4_6 2.563831 1_555
Co4_2 Co4_6 2.563831 1_455
Co4_2 Y0_2 2.753649 1_555
Co4_2 La0_2 2.762036 1_555
Co4_3 Co8_3 2.371697 1_555
Co4_3 Co4_7 2.563831 1_455
Co4_3 Co4_7 2.563831 1_555
Co4_3 Y0_3 2.753649 1_555
Co4_3 La0_3 2.762036 1_555
Co4_4 Co8_4 2.371697 1_555
Co4_4 Y0_4 2.753649 1_555
Co4_4 La0_4 2.762036 1_555
Co4_5 Co8_5 2.371697 1_555
Co4_5 Y0_5 2.753649 1_555
Co4_5 La0_5 2.762036 1_555
Co4_6 Co8_6 2.371697 1_555
Co4_6 Y0_6 2.753649 1_555
Co4_6 La0_6 2.762036 1_555
Co4_7 Co8_7 2.371697 1_555
Co4_7 Y0_7 2.753649 1_555
Co4_7 La0_7 2.762036 1_555
Co5_0 Co9_1 2.338414 1_555
Co5_0 Co5_4 2.563831 1_455
Co5_0 Co5_4 2.563831 1_555
Co5_0 Y0_0 2.797153 1_555
Co5_1 Co9_0 2.338414 1_556
Co5_1 Co5_5 2.563831 1_555
Co5_1 Co5_5 2.563831 1_455
Co5_1 Y0_1 2.797153 1_555
Co5_2 Co9_3 2.338414 1_555
Co5_2 Co5_6 2.563831 1_555
Co5_2 Co5_6 2.563831 1_455
Co5_2 Y0_2 2.797153 1_555
Co5_3 Co9_2 2.338414 1_556
Co5_3 Co5_7 2.563831 1_455
Co5_3 Co5_7 2.563831 1_555
Co5_3 Y0_3 2.797153 1_555
Co5_4 Co9_5 2.338414 1_555
Co5_4 Y0_4 2.797153 1_555
Co5_5 Co9_4 2.338414 1_556
Co5_5 Y0_5 2.797153 1_555
Co5_6 Co9_7 2.338414 1_555
Co5_6 Y0_6 2.797153 1_555
Co5_7 Co9_6 2.338414 1_556
Co5_7 Y0_7 2.797153 1_555
Co6_0 Co9_0 2.338414 1_555
Co6_0 Co6_4 2.563831 1_455
Co6_0 Co6_4 2.563831 1_555
Co6_0 Y0_0 2.797153 1_555
Co6_1 Co9_1 2.338414 1_555
Co6_1 Co6_5 2.563831 1_455
Co6_1 Co6_5 2.563831 1_555
Co6_1 Y0_1 2.797153 1_555
Co6_2 Co9_2 2.338414 1_555
Co6_2 Co6_6 2.563831 1_555
Co6_2 Co6_6 2.563831 1_455
Co6_2 Y0_2 2.797153 1_555
Co6_3 Co9_3 2.338414 1_555
Co6_3 Co6_7 2.563831 1_455
Co6_3 Co6_7 2.563831 1_555
Co6_3 Y0_3 2.797153 1_555
Co6_4 Co9_4 2.338414 1_555
Co6_4 Y0_4 2.797153 1_555
Co6_5 Co9_5 2.338414 1_555
Co6_5 Y0_5 2.797153 1_555
Co6_6 Co9_6 2.338414 1_555
Co6_6 Y0_6 2.797153 1_555
Co6_7 Co9_7 2.338414 1_555
Co6_7 Y0_7 2.797153 1_555
Co7_0 Co8_0 2.371697 1_555
Co7_0 Co7_4 2.563831 1_455
Co7_0 Co7_4 2.563831 1_555
Co7_0 Y0_0 2.753649 1_555
Co7_0 La0_1 2.762036 1_555
Co7_1 Co8_1 2.371697 1_555
Co7_1 Co7_5 2.563831 1_455
Co7_1 Co7_5 2.563831 1_555
Co7_1 Y0_1 2.753649 1_555
Co7_1 La0_0 2.762036 1_556
Co7_2 Co8_2 2.371697 1_555
Co7_2 Co7_6 2.563831 1_455
Co7_2 Co7_6 2.563831 1_555
Co7_2 Y0_2 2.753649 1_555
Co7_2 La0_3 2.762036 1_555
Co7_3 Co8_3 2.371697 1_555
Co7_3 Co7_7 2.563831 1_455
Co7_3 Co7_7 2.563831 1_555
Co7_3 Y0_3 2.753649 1_555
Co7_3 La0_2 2.762036 1_556
Co7_4 Co8_4 2.371697 1_555
Co7_4 Y0_4 2.753649 1_555
Co7_4 La0_5 2.762036 1_555
Co7_5 Co8_5 2.371697 1_555
Co7_5 Y0_5 2.753649 1_555
Co7_5 La0_4 2.762036 1_556
Co7_6 Co8_6 2.371697 1_555
Co7_6 Y0_6 2.753649 1_555
Co7_6 La0_7 2.762036 1_555
Co7_7 Co8_7 2.371697 1_555
Co7_7 Y0_7 2.753649 1_555
Co7_7 La0_6 2.762036 1_556
Co8_0 Co8_4 2.563831 1_555
Co8_0 Co8_4 2.563831 1_455
Co8_1 Co8_5 2.563831 1_455
Co8_1 Co8_5 2.563831 1_555
Co8_2 Co8_6 2.563831 1_555
Co8_2 Co8_6 2.563831 1_455
Co8_3 Co8_7 2.563831 1_555
Co8_3 Co8_7 2.563831 1_455
Co9_0 Co9_4 2.563831 1_555
Co9_0 Co9_4 2.563831 1_455
Co9_0 La0_2 3.074597 1_555
Co9_1 Co9_5 2.563831 1_555
Co9_1 Co9_5 2.563831 1_455
Co9_1 La0_3 3.074597 1_555
Co9_2 Co9_6 2.563831 1_455
Co9_2 Co9_6 2.563831 1_555
Co9_2 La0_0 3.074597 1_565
Co9_3 Co9_7 2.563831 1_455
Co9_3 Co9_7 2.563831 1_555
Co9_3 La0_1 3.074597 1_565
Co9_4 La0_6 3.074597 1_555
Co9_5 La0_7 3.074597 1_555
Co9_6 La0_4 3.074597 1_565
Co9_7 La0_5 3.074597 1_565
