# generated using pymatgen
data_Ho6Mg(GeS7)2
_symmetry_space_group_name_H-M   'P 1'
_cell_length_a   9.78170833
_cell_length_b   9.78170833
_cell_length_c   5.87919000
_cell_angle_alpha   90.00000000
_cell_angle_beta   90.00000000
_cell_angle_gamma   120.00000222
_symmetry_Int_Tables_number   1
_chemical_formula_structural   Ho6Mg(GeS7)2
_chemical_formula_sum   'Ho6 Mg1 Ge2 S14'
_cell_volume   487.16663348
_cell_formula_units_Z   1
loop_
 _symmetry_equiv_pos_site_id
 _symmetry_equiv_pos_as_xyz
  1  'x, y, z'
loop_
 _atom_site_type_symbol
 _atom_site_label
 _atom_site_symmetry_multiplicity
 _atom_site_fract_x
 _atom_site_fract_y
 _atom_site_fract_z
 _atom_site_occupancy
  Ho  Ho0  1  0.97194100  0.52786100  0.26132000  1
  Ho  Ho1  1  0.55592100  0.02805900  0.26132000  1
  Ho  Ho2  1  0.47213900  0.44407900  0.26132000  1
  Ho  Ho3  1  0.69080200  0.80476100  0.76548900  1
  Ho  Ho4  1  0.11395900  0.30919800  0.76548900  1
  Ho  Ho5  1  0.19523900  0.88604100  0.76548900  1
  Mg  Mg0  1  0.33333300  0.66666700  0.45616300  1
  Ge  Ge0  1  0.66666700  0.33333300  0.84107900  1
  Ge  Ge1  1  0.00000000  0.00000000  0.34515400  1
  S  S0  1  0.66666700  0.33333300  0.46501000  1
  S  S1  1  0.00000000  0.00000000  0.96798100  1
  S  S2  1  0.42923900  0.18552400  0.00269300  1
  S  S3  1  0.75628500  0.57076100  0.00269300  1
  S  S4  1  0.81447600  0.24371500  0.00269300  1
  S  S5  1  0.23729900  0.14662000  0.50773900  1
  S  S6  1  0.90932100  0.76270100  0.50773900  1
  S  S7  1  0.85338000  0.09067900  0.50773900  1
  S  S8  1  0.18122600  0.41453300  0.21095900  1
  S  S9  1  0.23330700  0.81877400  0.21095900  1
  S  S10  1  0.58546700  0.76669300  0.21095900  1
  S  S11  1  0.48301100  0.91769100  0.69421900  1
  S  S12  1  0.43468000  0.51698900  0.69421900  1
  S  S13  1  0.08230900  0.56532000  0.69421900  1
loop_
_geom_bond_atom_site_label_1
_geom_bond_atom_site_label_2
_geom_bond_distance
_geom_bond_site_symmetry_2
Ho0 S13 2.716929 1_655
Ho0 S9 2.728799 1_655
Ho0 S8 2.788688 1_655
Ho0 S3 2.796999 1_555
Ho0 S4 2.851066 1_555
Ho0 S0 2.879165 1_555
Ho0 S6 3.026211 1_555
Ho0 S13 3.467042 1_654
Ho1 S11 2.716930 1_545
Ho1 S10 2.728793 1_545
Ho1 S9 2.788695 1_545
Ho1 S4 2.796994 1_555
Ho1 S2 2.851073 1_555
Ho1 S0 2.879165 1_555
Ho1 S7 3.026203 1_555
Ho1 S11 3.467042 1_544
Ho2 S12 2.716932 1_555
Ho2 S8 2.728803 1_555
Ho2 S10 2.788697 1_555
Ho2 S2 2.796991 1_555
Ho2 S3 2.851066 1_555
Ho2 S0 2.879165 1_555
Ho2 S5 3.026206 1_555
Ho2 S12 3.467044 1_554
Ho3 S12 2.706219 1_555
Ho3 S10 2.770523 1_556
Ho3 S11 2.787891 1_555
Ho3 S6 2.813156 1_555
Ho3 S7 2.863490 1_565
Ho3 S1 2.904466 1_665
Ho3 S3 3.010049 1_556
Ho3 S10 3.383111 1_555
Ho4 S13 2.706219 1_555
Ho4 S8 2.770523 1_556
Ho4 S12 2.787891 1_555
Ho4 S7 2.813156 1_455
Ho4 S5 2.863490 1_555
Ho4 S1 2.904466 1_555
Ho4 S4 3.010049 1_456
Ho4 S8 3.383111 1_555
Ho5 S11 2.706219 1_555
Ho5 S9 2.770523 1_556
Ho5 S13 2.787891 1_555
Ho5 S5 2.813156 1_565
Ho5 S6 2.863490 1_455
Ho5 S1 2.904466 1_565
Ho5 S2 3.010048 1_566
Ho5 S9 3.383111 1_555
Mg0 S13 2.556675 1_555
Mg0 S11 2.556676 1_555
Mg0 S12 2.556683 1_555
Mg0 S9 2.589409 1_555
Mg0 S8 2.589416 1_555
Mg0 S10 2.589417 1_555
Ge0 S0 2.210981 1_555
Ge0 S4 2.242566 1_556
Ge0 S2 2.242573 1_556
Ge0 S3 2.242574 1_556
Ge1 S1 2.217472 1_554
Ge1 S5 2.242650 1_555
Ge1 S6 2.242650 1_445
Ge1 S7 2.242651 1_455
