# generated using pymatgen
data_K2CoH4(I2O7)2
_symmetry_space_group_name_H-M   'P 1'
_cell_length_a   8.04477743
_cell_length_b   11.63084364
_cell_length_c   8.11503534
_cell_angle_alpha   88.46648246
_cell_angle_beta   87.81076686
_cell_angle_gamma   89.10789753
_symmetry_Int_Tables_number   1
_chemical_formula_structural   K2CoH4(I2O7)2
_chemical_formula_sum   'K4 Co2 H8 I8 O28'
_cell_volume   758.39756871
_cell_formula_units_Z   2
loop_
 _symmetry_equiv_pos_site_id
 _symmetry_equiv_pos_as_xyz
  1  'x, y, z'
loop_
 _atom_site_type_symbol
 _atom_site_label
 _atom_site_symmetry_multiplicity
 _atom_site_fract_x
 _atom_site_fract_y
 _atom_site_fract_z
 _atom_site_occupancy
  K  K0  1  0.32679800  0.67254700  0.32688000  1
  K  K1  1  0.82719700  0.17279800  0.82736600  1
  K  K2  1  0.06540500  0.93450000  0.06547800  1
  K  K3  1  0.56544400  0.43449600  0.56544000  1
  Co  Co0  1  0.53869100  0.95987900  0.53939300  1
  Co  Co1  1  0.04146600  0.45980900  0.03727000  1
  H  H0  1  0.61469100  0.76100100  0.71120900  1
  H  H1  1  0.11393500  0.26117300  0.21019400  1
  H  H2  1  0.78746600  0.83713000  0.69066400  1
  H  H3  1  0.28659800  0.33795400  0.19086800  1
  H  H4  1  0.87198200  0.66244800  0.96406400  1
  H  H5  1  0.36957800  0.16253800  0.46316000  1
  H  H6  1  0.88438000  0.58280500  0.79172800  1
  H  H7  1  0.38381100  0.08343900  0.29055600  1
  I  I0  1  0.06348500  0.42548900  0.59254100  1
  I  I1  1  0.56444300  0.92560900  0.09203700  1
  I  I2  1  0.33905800  0.17148200  0.81045300  1
  I  I3  1  0.83815900  0.67207000  0.31038700  1
  I  I4  1  0.61386800  0.42545900  0.05696500  1
  I  I5  1  0.11291500  0.92629200  0.55645200  1
  I  I6  1  0.79547900  0.16472200  0.35267100  1
  I  I7  1  0.29607000  0.66532300  0.85215500  1
  O  O0  1  0.91189600  0.59005100  0.91020300  1
  O  O1  1  0.40907800  0.09000000  0.40967000  1
  O  O2  1  0.66673500  0.83356500  0.66715800  1
  O  O3  1  0.16605300  0.33376200  0.16638600  1
  O  O4  1  0.07393200  0.83217000  0.38448600  1
  O  O5  1  0.57337600  0.33213000  0.88445800  1
  O  O6  1  0.32351800  0.77109700  0.01238700  1
  O  O7  1  0.82303000  0.27075200  0.51262300  1
  O  O8  1  0.23596100  0.52684600  0.59750200  1
  O  O9  1  0.73637000  0.02731200  0.09668600  1
  O  O10  1  0.65273200  0.58366200  0.29284800  1
  O  O11  1  0.15358800  0.08316400  0.79261000  1
  O  O12  1  0.88546000  0.52695300  0.60324800  1
  O  O13  1  0.38591900  0.02684500  0.10256600  1
  O  O14  1  0.83167500  0.75553500  0.11418900  1
  O  O15  1  0.33157900  0.25573600  0.61512200  1
  O  O16  1  0.04879400  0.36870500  0.80726700  1
  O  O17  1  0.55204700  0.86974900  0.30684200  1
  O  O18  1  0.51024000  0.07122800  0.75254800  1
  O  O19  1  0.00783500  0.57088800  0.25354100  1
  O  O20  1  0.99262400  0.85671400  0.72550000  1
  O  O21  1  0.49113700  0.35691400  0.22528300  1
  O  O22  1  0.51018700  0.64127000  0.77620400  1
  O  O23  1  0.00965900  0.14136300  0.27634200  1
  O  O24  1  0.82158100  0.36593500  0.10674400  1
  O  O25  1  0.32179200  0.86805700  0.60567700  1
  O  O26  1  0.77537800  0.03584200  0.49119600  1
  O  O27  1  0.27508700  0.53660900  0.99096100  1
loop_
_geom_bond_atom_site_label_1
_geom_bond_atom_site_label_2
_geom_bond_distance
_geom_bond_site_symmetry_2
K0 O4 2.767613 1_555
K0 O6 2.770464 1_555
K0 O10 2.809948 1_555
K0 O8 2.818762 1_555
K0 O19 2.930072 1_555
K0 O17 2.942403 1_555
K0 O27 3.231363 1_554
K0 O25 3.249103 1_555
K1 O7 2.769908 1_555
K1 O5 2.770237 1_555
K1 O9 2.809329 1_556
K1 O11 2.816885 1_655
K1 O16 2.912190 1_655
K1 O18 2.918287 1_555
K1 O24 3.232605 1_556
K1 O26 3.239361 1_555
K2 O6 2.821677 1_555
K2 O4 2.822949 1_555
K2 O14 2.836469 1_455
K2 O13 2.838216 1_565
K2 O11 2.847725 1_564
K2 O9 2.847901 1_465
K2 O23 3.007681 1_565
K2 O20 3.007749 1_454
K3 O7 2.820958 1_555
K3 O5 2.822940 1_555
K3 O12 2.835941 1_555
K3 O15 2.836186 1_555
K3 O10 2.847855 1_555
K3 O8 2.849700 1_555
K3 O22 3.005915 1_555
K3 O21 3.011226 1_555
Co0 O2 2.060917 1_555
Co0 O25 2.104792 1_555
Co0 O1 2.106018 1_565
Co0 O26 2.129821 1_565
Co0 O17 2.181447 1_555
Co0 O18 2.191374 1_565
Co1 O3 2.050345 1_555
Co1 O0 2.096147 1_454
Co1 O27 2.109910 1_554
Co1 O24 2.142441 1_455
Co1 O16 2.169222 1_554
Co1 O19 2.212849 1_555
H0 O2 0.999403 1_555
H0 O22 1.699267 1_555
H1 O3 0.999270 1_555
H1 O23 1.701658 1_555
H2 O2 0.998635 1_555
H2 O20 1.704871 1_555
H3 O3 0.999494 1_555
H3 O21 1.698206 1_555
H4 O0 1.001864 1_555
H4 O14 1.670631 1_556
H5 O1 1.000952 1_555
H5 O15 1.679760 1_555
H6 O0 1.000812 1_555
H6 O12 1.677346 1_555
H7 O1 1.000463 1_555
H7 O13 1.676984 1_555
I0 O8 1.836936 1_555
I0 O12 1.842466 1_455
I0 O16 1.847050 1_555
I1 O9 1.836024 1_565
I1 O17 1.843569 1_555
I1 O13 1.843826 1_565
I2 O11 1.837004 1_555
I2 O15 1.843590 1_555
I2 O18 1.845752 1_555
I3 O10 1.837013 1_555
I3 O19 1.841713 1_655
I3 O14 1.844480 1_555
I4 O21 1.827382 1_555
I4 O5 1.836115 1_554
I4 O24 1.853461 1_555
I4 O10 2.720256 1_555
I5 O20 1.826696 1_455
I5 O4 1.835784 1_555
I5 O25 1.855623 1_555
I5 O11 2.713377 1_565
I6 O23 1.827350 1_655
I6 O7 1.836019 1_555
I6 O26 1.854791 1_555
I6 O9 2.715228 1_555
I7 O22 1.827114 1_555
I7 O6 1.835488 1_556
I7 O27 1.855144 1_555
I7 O8 2.716085 1_555
