# generated using pymatgen
data_PPb2IO4
_symmetry_space_group_name_H-M   'P 1'
_cell_length_a   8.79169638
_cell_length_b   8.61194696
_cell_length_c   9.14277608
_cell_angle_alpha   68.60194242
_cell_angle_beta   90.00000000
_cell_angle_gamma   90.00000000
_symmetry_Int_Tables_number   1
_chemical_formula_structural   PPb2IO4
_chemical_formula_sum   'P4 Pb8 I4 O16'
_cell_volume   644.51584427
_cell_formula_units_Z   4
loop_
 _symmetry_equiv_pos_site_id
 _symmetry_equiv_pos_as_xyz
  1  'x, y, z'
loop_
 _atom_site_type_symbol
 _atom_site_label
 _atom_site_symmetry_multiplicity
 _atom_site_fract_x
 _atom_site_fract_y
 _atom_site_fract_z
 _atom_site_occupancy
  P  P0  1  0.04974074  0.73156947  0.96005286  1
  P  P1  1  0.54974074  0.76843053  0.03994714  1
  P  P2  1  0.95025926  0.26843053  0.03994714  1
  P  P3  1  0.45025926  0.23156947  0.96005286  1
  Pb  Pb0  1  0.29802913  0.45424546  0.15387964  1
  Pb  Pb1  1  0.79802913  0.04575454  0.84612036  1
  Pb  Pb2  1  0.70197087  0.54575454  0.84612036  1
  Pb  Pb3  1  0.20197087  0.95424546  0.15387964  1
  Pb  Pb4  1  0.32491285  0.97425011  0.73087743  1
  Pb  Pb5  1  0.82491285  0.52574989  0.26912257  1
  Pb  Pb6  1  0.67508715  0.02574989  0.26912257  1
  Pb  Pb7  1  0.17508715  0.47425011  0.73087743  1
  I  I0  1  0.93705713  0.75268929  0.50104205  1
  I  I1  1  0.43705713  0.74731071  0.49895795  1
  I  I2  1  0.06294287  0.24731071  0.49895795  1
  I  I3  1  0.56294287  0.25268929  0.50104205  1
  O  O0  1  0.06398974  0.64119573  0.14068649  1
  O  O1  1  0.56398974  0.85880427  0.85931351  1
  O  O2  1  0.93601026  0.35880427  0.85931351  1
  O  O3  1  0.43601026  0.14119573  0.14068649  1
  O  O4  1  0.11540462  0.27326322  0.08979483  1
  O  O5  1  0.61540462  0.22673678  0.91020517  1
  O  O6  1  0.88459538  0.72673678  0.91020517  1
  O  O7  1  0.38459538  0.77326322  0.08979483  1
  O  O8  1  0.66503101  0.85182513  0.11552989  1
  O  O9  1  0.16503101  0.64817487  0.88447011  1
  O  O10  1  0.33496899  0.14817487  0.88447011  1
  O  O11  1  0.83496899  0.35182513  0.11552989  1
  O  O12  1  0.40372022  0.41637361  0.91638005  1
  O  O13  1  0.90372022  0.08362639  0.08361995  1
  O  O14  1  0.59627978  0.58362639  0.08361995  1
  O  O15  1  0.09627978  0.91637361  0.91638005  1
loop_
_geom_bond_atom_site_label_1
_geom_bond_atom_site_label_2
_geom_bond_distance
_geom_bond_site_symmetry_2
I0 Pb7 3.296684 1_655
I0 Pb6 3.419372 1_565
I0 Pb5 3.508795 1_555
I1 Pb6 3.296684 1_565
I1 Pb7 3.419372 1_555
I1 Pb4 3.508795 1_555
I2 Pb5 3.296684 1_455
I2 Pb4 3.419372 1_545
I2 Pb7 3.508795 1_555
I3 Pb4 3.296684 1_545
I3 Pb5 3.419372 1_555
I3 Pb6 3.508795 1_555
O0 P0 1.552726 1_554
O0 Pb5 2.435859 1_455
O0 Pb0 2.588183 1_555
O1 P1 1.552726 1_556
O1 Pb4 2.435859 1_555
O1 Pb1 2.588183 1_565
O2 P2 1.552726 1_556
O2 Pb7 2.435859 1_655
O2 Pb2 2.588183 1_555
O3 P3 1.552726 1_554
O3 Pb6 2.435859 1_555
O3 Pb3 2.588183 1_545
O4 P2 1.526864 1_455
O4 Pb0 2.452917 1_555
O4 Pb3 2.701097 1_545
O5 P3 1.526864 1_555
O5 Pb1 2.452917 1_555
O5 Pb2 2.701097 1_555
O6 P0 1.526864 1_655
O6 Pb2 2.452917 1_555
O6 Pb1 2.701097 1_565
O7 P1 1.526864 1_555
O7 Pb3 2.452917 1_555
O7 Pb0 2.701097 1_555
O8 P1 1.543648 1_555
O8 Pb6 2.399596 1_565
O8 Pb1 2.687348 1_564
O9 P0 1.543648 1_555
O9 Pb7 2.399596 1_555
O9 Pb0 2.687348 1_556
O10 P3 1.543648 1_555
O10 Pb4 2.399596 1_545
O10 Pb3 2.687348 1_546
O11 P2 1.543648 1_555
O11 Pb5 2.399596 1_555
O11 Pb2 2.687348 1_554
O12 P3 1.547929 1_555
O12 Pb0 2.490294 1_556
O12 Pb7 2.558991 1_555
O12 Pb2 2.829738 1_555
O13 P2 1.547929 1_555
O13 Pb1 2.490294 1_554
O13 Pb6 2.558991 1_555
O13 Pb3 2.829738 1_645
O14 P1 1.547929 1_555
O14 Pb2 2.490294 1_554
O14 Pb5 2.558991 1_555
O14 Pb0 2.829738 1_555
O15 P0 1.547929 1_555
O15 Pb3 2.490294 1_556
O15 Pb4 2.558991 1_555
O15 Pb1 2.829738 1_465
