# generated using pymatgen
data_CaCd2Cu9
_symmetry_space_group_name_H-M   'P 1'
_cell_length_a   5.10368000
_cell_length_b   8.34631300
_cell_length_c   8.34631300
_cell_angle_alpha   90.00000000
_cell_angle_beta   90.00000000
_cell_angle_gamma   90.00000000
_symmetry_Int_Tables_number   1
_chemical_formula_structural   CaCd2Cu9
_chemical_formula_sum   'Ca2 Cd4 Cu18'
_cell_volume   355.52714980
_cell_formula_units_Z   2
loop_
 _symmetry_equiv_pos_site_id
 _symmetry_equiv_pos_as_xyz
  1  'x, y, z'
loop_
 _atom_site_type_symbol
 _atom_site_label
 _atom_site_symmetry_multiplicity
 _atom_site_fract_x
 _atom_site_fract_y
 _atom_site_fract_z
 _atom_site_occupancy
  Ca  Ca0  1  0.00000000  0.50000000  0.50000000  1
  Ca  Ca1  1  0.00000000  0.00000000  0.00000000  1
  Cd  Cd0  1  0.00000000  0.12287300  0.62287300  1
  Cd  Cd1  1  0.00000000  0.87712700  0.37712700  1
  Cd  Cd2  1  0.00000000  0.37712700  0.12287300  1
  Cd  Cd3  1  0.00000000  0.62287300  0.87712700  1
  Cu  Cu0  1  0.50000000  0.56352200  0.70573200  1
  Cu  Cu1  1  0.50000000  0.43647800  0.29426800  1
  Cu  Cu2  1  0.50000000  0.93647800  0.20573200  1
  Cu  Cu3  1  0.50000000  0.06352200  0.79426800  1
  Cu  Cu4  1  0.50000000  0.70573200  0.43647800  1
  Cu  Cu5  1  0.50000000  0.29426800  0.56352200  1
  Cu  Cu6  1  0.50000000  0.20573200  0.06352200  1
  Cu  Cu7  1  0.50000000  0.79426800  0.93647800  1
  Cu  Cu8  1  0.50000000  0.00000000  0.50000000  1
  Cu  Cu9  1  0.50000000  0.50000000  0.00000000  1
  Cu  Cu10  1  0.75268200  0.32208200  0.82208200  1
  Cu  Cu11  1  0.75268200  0.67791800  0.17791800  1
  Cu  Cu12  1  0.75268200  0.17791800  0.32208200  1
  Cu  Cu13  1  0.75268200  0.82208200  0.67791800  1
  Cu  Cu14  1  0.24731800  0.67791800  0.17791800  1
  Cu  Cu15  1  0.24731800  0.32208200  0.82208200  1
  Cu  Cu16  1  0.24731800  0.82208200  0.67791800  1
  Cu  Cu17  1  0.24731800  0.17791800  0.32208200  1
loop_
_geom_bond_atom_site_label_1
_geom_bond_atom_site_label_2
_geom_bond_distance
_geom_bond_site_symmetry_2
Ca0 Cu1 3.121124 1_455
Ca0 Cu4 3.121124 1_455
Ca0 Cu4 3.121124 1_555
Ca0 Cu0 3.121124 1_455
Ca0 Cu0 3.121124 1_555
Ca0 Cu5 3.121124 1_555
Ca0 Cu1 3.121124 1_555
Ca0 Cu5 3.121124 1_455
Ca0 Cd0 3.310474 1_555
Ca0 Cd2 3.310474 1_555
Ca0 Cd1 3.310474 1_555
Ca0 Cd3 3.310474 1_555
Ca0 Cu16 3.320352 1_555
Ca0 Cu12 3.320352 1_455
Ca0 Cu10 3.320352 1_455
Ca0 Cu15 3.320352 1_555
Ca0 Cu14 3.320352 1_555
Ca0 Cu11 3.320352 1_455
Ca0 Cu17 3.320352 1_555
Ca0 Cu13 3.320352 1_455
Ca1 Cu2 3.121124 1_445
Ca1 Cu2 3.121124 1_545
Ca1 Cu6 3.121124 1_455
Ca1 Cu6 3.121124 1_555
Ca1 Cu7 3.121124 1_544
Ca1 Cu7 3.121124 1_444
Ca1 Cu3 3.121124 1_454
Ca1 Cu3 3.121124 1_554
Ca1 Cd1 3.310474 1_545
Ca1 Cd0 3.310474 1_554
Ca1 Cd2 3.310474 1_555
Ca1 Cd3 3.310474 1_544
Ca1 Cu12 3.320352 1_455
Ca1 Cu14 3.320352 1_545
Ca1 Cu10 3.320352 1_454
Ca1 Cu13 3.320352 1_444
Ca1 Cu16 3.320352 1_544
Ca1 Cu11 3.320352 1_445
Ca1 Cu15 3.320352 1_554
Ca1 Cu17 3.320352 1_555
Cd0 Cu15 2.668728 1_555
Cd0 Cu10 2.668728 1_455
Cd0 Cu17 2.847260 1_555
Cd0 Cu16 2.847260 1_545
Cd0 Cu13 2.847260 1_445
Cd0 Cu12 2.847260 1_455
Cd0 Cd1 2.900655 1_545
Cd0 Cu8 2.935190 1_455
Cd0 Cu8 2.935190 1_555
Cd0 Cu5 2.967094 1_455
Cd0 Cu3 2.967094 1_555
Cd0 Cu5 2.967094 1_555
Cd0 Cu3 2.967094 1_455
Cd1 Cu14 2.668728 1_555
Cd1 Cu11 2.668728 1_455
Cd1 Cu17 2.847260 1_565
Cd1 Cu16 2.847260 1_555
Cd1 Cu12 2.847260 1_465
Cd1 Cu13 2.847260 1_455
Cd1 Cu8 2.935190 1_465
Cd1 Cu8 2.935190 1_565
Cd1 Cu4 2.967094 1_555
Cd1 Cu4 2.967094 1_455
Cd1 Cu2 2.967094 1_555
Cd1 Cu2 2.967094 1_455
Cd2 Cu17 2.668728 1_555
Cd2 Cu12 2.668728 1_455
Cd2 Cu14 2.847260 1_555
Cd2 Cu15 2.847260 1_554
Cd2 Cu10 2.847260 1_454
Cd2 Cu11 2.847260 1_455
Cd2 Cd3 2.900655 1_554
Cd2 Cu9 2.935190 1_555
Cd2 Cu9 2.935190 1_455
Cd2 Cu1 2.967094 1_555
Cd2 Cu1 2.967094 1_455
Cd2 Cu6 2.967094 1_555
Cd2 Cu6 2.967094 1_455
Cd3 Cu16 2.668728 1_555
Cd3 Cu13 2.668728 1_455
Cd3 Cu15 2.847260 1_555
Cd3 Cu14 2.847260 1_556
Cd3 Cu10 2.847260 1_455
Cd3 Cu11 2.847260 1_456
Cd3 Cu9 2.935190 1_556
Cd3 Cu9 2.935190 1_456
Cd3 Cu0 2.967094 1_555
Cd3 Cu7 2.967094 1_455
Cd3 Cu0 2.967094 1_455
Cd3 Cu7 2.967094 1_555
Cu0 Cu9 2.512624 1_556
Cu0 Cu16 2.524686 1_555
Cu0 Cu13 2.524686 1_555
Cu0 Cu5 2.541468 1_555
Cu0 Cu4 2.541468 1_555
Cu0 Cu10 2.582029 1_555
Cu0 Cu15 2.582029 1_555
Cu0 Cu7 2.723603 1_555
Cu1 Cu9 2.512624 1_555
Cu1 Cu17 2.524686 1_555
Cu1 Cu12 2.524686 1_555
Cu1 Cu5 2.541468 1_555
Cu1 Cu4 2.541468 1_555
Cu1 Cu14 2.582029 1_555
Cu1 Cu11 2.582029 1_555
Cu1 Cu6 2.723603 1_555
Cu2 Cu8 2.512624 1_565
Cu2 Cu6 2.541468 1_565
Cu2 Cu7 2.541468 1_554
Cu2 Cu4 2.723603 1_555
Cu3 Cu8 2.512624 1_555
Cu3 Cu7 2.541468 1_545
Cu3 Cu6 2.541468 1_556
Cu3 Cu5 2.723603 1_555
Cu4 Cu8 2.512624 1_565
Cu5 Cu8 2.512624 1_555
Cu6 Cu9 2.512624 1_555
Cu7 Cu9 2.512624 1_556
Cu10 Cu9 2.464406 1_556
Cu10 Cu15 2.524464 1_655
Cu10 Cu3 2.524686 1_555
Cu10 Cu5 2.524686 1_555
Cu10 Cu15 2.579216 1_555
Cu10 Cu6 2.582029 1_556
Cu11 Cu9 2.464406 1_555
Cu11 Cu14 2.524464 1_655
Cu11 Cu4 2.524686 1_555
Cu11 Cu2 2.524686 1_555
Cu11 Cu14 2.579216 1_555
Cu11 Cu7 2.582029 1_554
Cu12 Cu8 2.464406 1_555
Cu12 Cu17 2.524464 1_655
Cu12 Cu6 2.524686 1_555
Cu12 Cu17 2.579216 1_555
Cu12 Cu2 2.582029 1_545
Cu12 Cu5 2.582029 1_555
Cu13 Cu8 2.464406 1_565
Cu13 Cu16 2.524464 1_655
Cu13 Cu7 2.524686 1_555
Cu13 Cu16 2.579216 1_555
Cu13 Cu4 2.582029 1_555
Cu13 Cu3 2.582029 1_565
Cu14 Cu9 2.464406 1_555
Cu14 Cu4 2.524686 1_555
Cu14 Cu2 2.524686 1_555
Cu14 Cu7 2.582029 1_554
Cu15 Cu9 2.464406 1_556
Cu15 Cu3 2.524686 1_555
Cu15 Cu5 2.524686 1_555
Cu15 Cu6 2.582029 1_556
Cu16 Cu8 2.464406 1_565
Cu16 Cu7 2.524686 1_555
Cu16 Cu4 2.582029 1_555
Cu16 Cu3 2.582029 1_565
Cu17 Cu8 2.464406 1_555
Cu17 Cu6 2.524686 1_555
Cu17 Cu2 2.582029 1_545
Cu17 Cu5 2.582029 1_555
