# generated using pymatgen
data_YNiSO7
_symmetry_space_group_name_H-M   'P 1'
_cell_length_a   6.03430800
_cell_length_b   6.23030200
_cell_length_c   14.19130600
_cell_angle_alpha   90.00000000
_cell_angle_beta   90.00000000
_cell_angle_gamma   90.00000000
_symmetry_Int_Tables_number   1
_chemical_formula_structural   YNiSO7
_chemical_formula_sum   'Y4 Ni4 S4 O28'
_cell_volume   533.53011325
_cell_formula_units_Z   4
loop_
 _symmetry_equiv_pos_site_id
 _symmetry_equiv_pos_as_xyz
  1  'x, y, z'
loop_
 _atom_site_type_symbol
 _atom_site_label
 _atom_site_symmetry_multiplicity
 _atom_site_fract_x
 _atom_site_fract_y
 _atom_site_fract_z
 _atom_site_occupancy
  Y  Y0  1  0.72416900  0.20561600  0.08633200  1
  Y  Y1  1  0.27583100  0.70561600  0.41366800  1
  Y  Y2  1  0.77583100  0.79438400  0.58633200  1
  Y  Y3  1  0.22416900  0.29438400  0.91366800  1
  Ni  Ni0  1  0.47087800  0.75196300  0.99873900  1
  Ni  Ni1  1  0.52912200  0.25196300  0.50126100  1
  Ni  Ni2  1  0.02912200  0.24803700  0.49873900  1
  Ni  Ni3  1  0.97087800  0.74803700  0.00126100  1
  S  S0  1  0.21905300  0.97669300  0.18266900  1
  S  S1  1  0.78094700  0.47669300  0.31733100  1
  S  S2  1  0.28094700  0.02330700  0.68266900  1
  S  S3  1  0.71905300  0.52330700  0.81733100  1
  O  O0  1  0.29549800  0.90575100  0.27586500  1
  O  O1  1  0.70450200  0.40575100  0.22413500  1
  O  O2  1  0.20450200  0.09424900  0.77586500  1
  O  O3  1  0.79549800  0.59424900  0.72413500  1
  O  O4  1  0.37558100  0.14384800  0.14840300  1
  O  O5  1  0.62441900  0.64384800  0.35159700  1
  O  O6  1  0.12441900  0.85615200  0.64840300  1
  O  O7  1  0.87558100  0.35615200  0.85159700  1
  O  O8  1  0.22156000  0.79076200  0.11406700  1
  O  O9  1  0.77844000  0.29076200  0.38593300  1
  O  O10  1  0.27844000  0.20923800  0.61406700  1
  O  O11  1  0.72156000  0.70923800  0.88593300  1
  O  O12  1  0.99399400  0.06751500  0.18859400  1
  O  O13  1  0.00600600  0.56751500  0.31140600  1
  O  O14  1  0.50600600  0.93248500  0.68859400  1
  O  O15  1  0.49399400  0.43248500  0.81140600  1
  O  O16  1  0.71800400  0.81155400  0.07021500  1
  O  O17  1  0.28199600  0.31155400  0.42978500  1
  O  O18  1  0.78199600  0.18844600  0.57021500  1
  O  O19  1  0.21800400  0.68844600  0.92978500  1
  O  O20  1  0.48630000  0.46182600  0.01579200  1
  O  O21  1  0.51370000  0.96182600  0.48420800  1
  O  O22  1  0.01370000  0.53817400  0.51579200  1
  O  O23  1  0.98630000  0.03817400  0.98420800  1
  O  O24  1  0.46921900  0.04205700  0.97538200  1
  O  O25  1  0.53078100  0.54205700  0.52461800  1
  O  O26  1  0.03078100  0.95794300  0.47538200  1
  O  O27  1  0.96921900  0.45794300  0.02461800  1
loop_
_geom_bond_atom_site_label_1
_geom_bond_atom_site_label_2
_geom_bond_distance
_geom_bond_site_symmetry_2
Ni0 O20 1.826142 1_556
Ni0 O24 1.837544 1_565
Ni0 O16 1.841332 1_556
Ni0 O19 1.855421 1_555
Ni0 O11 2.218527 1_555
Ni0 O8 2.236175 1_556
Ni1 O21 1.826142 1_545
Ni1 O25 1.837544 1_555
Ni1 O17 1.841332 1_555
Ni1 O18 1.855421 1_555
Ni1 O10 2.218527 1_555
Ni1 O9 2.236175 1_555
Ni2 O22 1.826142 1_555
Ni2 O26 1.837544 1_545
Ni2 O18 1.841332 1_455
Ni2 O17 1.855421 1_555
Ni2 O9 2.218527 1_455
Ni2 O10 2.236175 1_555
Ni3 O23 1.826142 1_564
Ni3 O27 1.837544 1_555
Ni3 O19 1.841332 1_654
Ni3 O16 1.855421 1_555
Ni3 O8 2.218527 1_655
Ni3 O11 2.236175 1_554
O0 S0 1.468790 1_555
O0 Y1 2.322334 1_555
O1 S1 1.468790 1_555
O1 Y0 2.322334 1_555
O2 S2 1.468790 1_555
O2 Y3 2.322334 1_555
O3 S3 1.468790 1_555
O3 Y2 2.322334 1_555
O4 S0 1.487679 1_545
O4 Y0 2.312722 1_555
O5 S1 1.487679 1_555
O5 Y1 2.312722 1_555
O6 S2 1.487679 1_565
O6 Y2 2.312722 1_455
O7 S3 1.487679 1_555
O7 Y3 2.312722 1_655
O8 S0 1.513254 1_555
O9 S1 1.513254 1_555
O10 S2 1.513254 1_555
O11 S3 1.513254 1_555
O12 S0 1.473643 1_645
O12 Y0 2.344662 1_555
O13 S1 1.473643 1_455
O13 Y1 2.344662 1_555
O14 S2 1.473643 1_565
O14 Y2 2.344662 1_555
O15 S3 1.473643 1_555
O15 Y3 2.344662 1_555
O16 Y0 2.466037 1_565
O17 Y1 2.466037 1_555
O18 Y2 2.466037 1_545
O19 Y3 2.466037 1_555
O20 Y0 2.368644 1_555
O20 Y3 2.385522 1_554
O21 Y1 2.368644 1_555
O21 Y2 2.385522 1_555
O22 Y2 2.368644 1_455
O22 Y1 2.385522 1_555
O23 Y3 2.368644 1_655
O23 Y0 2.385522 1_556
O24 Y3 2.329167 1_555
O24 Y0 2.425769 1_556
O25 Y2 2.329167 1_555
O25 Y1 2.425769 1_555
O26 Y1 2.329167 1_555
O26 Y2 2.425769 1_455
O27 Y0 2.329167 1_555
O27 Y3 2.425769 1_654
