# generated using pymatgen
data_Pr6Cd(SiS7)2
_symmetry_space_group_name_H-M   'P 1'
_cell_length_a   10.35339964
_cell_length_b   10.35339964
_cell_length_c   5.74502600
_cell_angle_alpha   90.00000000
_cell_angle_beta   90.00000000
_cell_angle_gamma   119.99999770
_symmetry_Int_Tables_number   1
_chemical_formula_structural   Pr6Cd(SiS7)2
_chemical_formula_sum   'Pr6 Cd1 Si2 S14'
_cell_volume   533.32089145
_cell_formula_units_Z   1
loop_
 _symmetry_equiv_pos_site_id
 _symmetry_equiv_pos_as_xyz
  1  'x, y, z'
loop_
 _atom_site_type_symbol
 _atom_site_label
 _atom_site_symmetry_multiplicity
 _atom_site_fract_x
 _atom_site_fract_y
 _atom_site_fract_z
 _atom_site_occupancy
  Pr  Pr0  1  0.09805000  0.78943000  0.75079000  1
  Pr  Pr1  1  0.69138000  0.90195000  0.75079000  1
  Pr  Pr2  1  0.21057000  0.30862000  0.75079000  1
  Pr  Pr3  1  0.56859300  0.54392100  0.24899800  1
  Pr  Pr4  1  0.97532800  0.43140700  0.24899800  1
  Pr  Pr5  1  0.45607900  0.02467200  0.24899800  1
  Cd  Cd0  1  0.33333300  0.66666700  0.50924500  1
  Si  Si0  1  0.00000000  0.00000000  0.16480400  1
  Si  Si1  1  0.66666700  0.33333300  0.66233800  1
  S  S0  1  0.00000000  0.00000000  0.53217100  1
  S  S1  1  0.66666700  0.33333300  0.03071000  1
  S  S2  1  0.16562700  0.75352200  0.26581800  1
  S  S3  1  0.58789500  0.83437300  0.26581800  1
  S  S4  1  0.24647800  0.41210500  0.26581800  1
  S  S5  1  0.50286200  0.58167000  0.75640000  1
  S  S6  1  0.07880800  0.49713800  0.75640000  1
  S  S7  1  0.41833000  0.92119200  0.75640000  1
  S  S8  1  0.21755500  0.07476800  0.02052400  1
  S  S9  1  0.85721300  0.78244500  0.02052400  1
  S  S10  1  0.92523200  0.14278700  0.02052400  1
  S  S11  1  0.44901700  0.25835000  0.51908900  1
  S  S12  1  0.80933300  0.55098300  0.51908900  1
  S  S13  1  0.74165000  0.19066700  0.51908900  1
loop_
_geom_bond_atom_site_label_1
_geom_bond_atom_site_label_2
_geom_bond_distance
_geom_bond_site_symmetry_2
Pr0 S7 2.886900 1_555
Pr0 S9 2.905806 1_456
Pr0 S6 2.931864 1_555
Pr0 S2 2.941193 1_555
Pr0 S8 3.000737 1_566
Pr0 S12 3.069583 1_455
Pr0 S0 3.094195 1_565
Pr0 S2 3.105257 1_556
Pr1 S5 2.886900 1_555
Pr1 S10 2.905806 1_566
Pr1 S7 2.931864 1_555
Pr1 S3 2.941193 1_555
Pr1 S9 3.000737 1_556
Pr1 S13 3.069583 1_565
Pr1 S0 3.094195 1_665
Pr1 S3 3.105257 1_556
Pr2 S6 2.886899 1_555
Pr2 S8 2.905806 1_556
Pr2 S5 2.931864 1_555
Pr2 S4 2.941193 1_555
Pr2 S10 3.000737 1_456
Pr2 S11 3.069583 1_555
Pr2 S0 3.094196 1_555
Pr2 S4 3.105257 1_556
Pr3 S4 2.905614 1_555
Pr3 S12 2.905729 1_555
Pr3 S3 2.913994 1_555
Pr3 S5 2.981726 1_554
Pr3 S11 3.003615 1_555
Pr3 S9 3.061268 1_555
Pr3 S5 3.062565 1_555
Pr3 S1 3.093755 1_555
Pr4 S2 2.905614 1_655
Pr4 S13 2.905729 1_555
Pr4 S4 2.913994 1_655
Pr4 S6 2.981726 1_654
Pr4 S12 3.003615 1_555
Pr4 S10 3.061268 1_555
Pr4 S6 3.062565 1_655
Pr4 S1 3.093746 1_555
Pr5 S3 2.905613 1_545
Pr5 S11 2.905729 1_555
Pr5 S2 2.913995 1_545
Pr5 S7 2.981726 1_544
Pr5 S13 3.003615 1_555
Pr5 S8 3.061268 1_555
Pr5 S7 3.062565 1_545
Pr5 S1 3.093748 1_555
Cd0 S2 2.709362 1_555
Cd0 S3 2.709369 1_555
Cd0 S4 2.709370 1_555
Cd0 S7 2.723204 1_555
Cd0 S6 2.723206 1_555
Cd0 S5 2.723213 1_555
S0 Si0 2.110533 1_555
S1 Si1 2.116307 1_554
S8 Si0 2.148521 1_555
S9 Si0 2.148521 1_665
S10 Si0 2.148521 1_655
S11 Si1 2.146733 1_555
S12 Si1 2.146731 1_555
S13 Si1 2.146724 1_555
