# generated using pymatgen
data_KAl11O17
_symmetry_space_group_name_H-M   'P 1'
_cell_length_a   5.59101854
_cell_length_b   5.59102323
_cell_length_c   22.72231817
_cell_angle_alpha   89.99958681
_cell_angle_beta   90.00040665
_cell_angle_gamma   120.00020644
_symmetry_Int_Tables_number   1
_chemical_formula_structural   KAl11O17
_chemical_formula_sum   'K2 Al22 O34'
_cell_volume   615.12672206
_cell_formula_units_Z   2
loop_
 _symmetry_equiv_pos_site_id
 _symmetry_equiv_pos_as_xyz
  1  'x, y, z'
loop_
 _atom_site_type_symbol
 _atom_site_label
 _atom_site_symmetry_multiplicity
 _atom_site_fract_x
 _atom_site_fract_y
 _atom_site_fract_z
 _atom_site_occupancy
  K  K0  1  0.33183425  0.66816149  0.74999786  1
  K  K1  1  0.66817662  0.33183057  0.25000152  1
  Al  Al0  1  0.16729461  0.83271011  0.89422746  1
  Al  Al1  1  0.16729275  0.83270530  0.60577118  1
  Al  Al2  1  0.33354665  0.66645124  0.17515933  1
  Al  Al3  1  0.33336675  0.66664171  0.02489633  1
  Al  Al4  1  -0.00000082  0.00000437  0.00000546  1
  Al  Al5  1  0.33354914  0.66644986  0.32483575  1
  Al  Al6  1  0.99999642  0.00000176  0.49999579  1
  Al  Al7  1  0.33335940  0.66663884  0.47510352  1
  Al  Al8  1  0.16726682  0.33490042  0.60580973  1
  Al  Al9  1  0.16726750  0.33490089  0.89419311  1
  Al  Al10  1  0.66510496  0.83273754  0.89419311  1
  Al  Al11  1  0.66509849  0.83273524  0.60580986  1
  Al  Al12  1  0.33487157  0.16725321  0.39418381  1
  Al  Al13  1  0.33487207  0.16725170  0.10581618  1
  Al  Al14  1  0.83274724  0.66512879  0.39418365  1
  Al  Al15  1  0.66645935  0.33354445  0.67515789  1
  Al  Al16  1  0.66645553  0.33354932  0.82484434  1
  Al  Al17  1  0.66664021  0.33335807  0.52488375  1
  Al  Al18  1  0.66664059  0.33336376  0.97511613  1
  Al  Al19  1  0.83275324  0.66513396  0.10581678  1
  Al  Al20  1  0.83270470  0.16730450  0.10578556  1
  Al  Al21  1  0.83269738  0.16730122  0.39421302  1
  O  O0  1  0.15690050  0.84310858  0.04940007  1
  O  O1  1  0.15689387  0.84310497  0.45059978  1
  O  O2  1  0.00408945  0.50223868  0.64443958  1
  O  O3  1  0.00408149  0.50224141  0.85556064  1
  O  O4  1  0.33359605  0.66640391  0.25000608  1
  O  O5  1  0.15690510  0.31369143  0.45060494  1
  O  O6  1  0.00008464  0.99992153  0.14054255  1
  O  O7  1  0.00008333  0.99992208  0.35945781  1
  O  O8  1  0.33323915  0.66676022  0.55490095  1
  O  O9  1  0.99991841  0.00009170  0.85947429  1
  O  O10  1  0.99991930  0.00008051  0.64052481  1
  O  O11  1  0.33323945  0.66676523  0.94509947  1
  O  O12  1  0.15690636  0.31369339  0.04939338  1
  O  O13  1  0.49776222  0.99592175  0.85556021  1
  O  O14  1  0.49776018  0.99591261  0.64443951  1
  O  O15  1  0.31369250  0.15690052  0.54938264  1
  O  O16  1  0.31368973  0.15690421  0.95061819  1
  O  O17  1  0.49770257  0.50230697  0.64443720  1
  O  O18  1  0.49769785  0.50230768  0.85556082  1
  O  O19  1  0.50230811  0.49769161  0.35555330  1
  O  O20  1  0.50231572  0.49769044  0.14444931  1
  O  O21  1  0.68631285  0.84309753  0.04939371  1
  O  O22  1  0.68630795  0.84309406  0.45060537  1
  O  O23  1  0.50223691  0.00408806  0.35555178  1
  O  O24  1  0.66676142  0.33323708  0.44508752  1
  O  O25  1  0.50224054  0.00408352  0.14444900  1
  O  O26  1  0.84309816  0.68631386  0.95061799  1
  O  O27  1  0.84309894  0.68630587  0.54938258  1
  O  O28  1  0.66676956  0.33324258  0.05491220  1
  O  O29  1  0.66640392  0.33360082  0.74999328  1
  O  O30  1  0.99592278  0.49776611  0.14444892  1
  O  O31  1  0.99591088  0.49776231  0.35555179  1
  O  O32  1  0.84310260  0.15689888  0.95061210  1
  O  O33  1  0.84310207  0.15689557  0.54938911  1
loop_
_geom_bond_atom_site_label_1
_geom_bond_atom_site_label_2
_geom_bond_distance
_geom_bond_site_symmetry_2
K0 O2 2.876000 1_555
K0 O14 2.876018 1_555
K0 O3 2.876116 1_555
K0 O13 2.876129 1_555
K0 O17 2.886714 1_555
K0 O18 2.886721 1_555
K0 O29 3.222000 1_455
K0 O29 3.222046 1_565
K0 O29 3.239910 1_555
K1 O31 2.875820 1_555
K1 O23 2.875842 1_555
K1 O30 2.875906 1_555
K1 O25 2.875908 1_555
K1 O20 2.886527 1_555
K1 O19 2.886564 1_555
K1 O4 3.221947 1_655
K1 O4 3.221985 1_545
K1 O4 3.240024 1_555
Al0 O9 1.803008 1_465
Al0 O13 1.825498 1_555
Al0 O3 1.825499 1_555
Al0 O11 1.979544 1_555
Al0 O16 2.028200 1_565
Al0 O26 2.028204 1_455
Al1 O10 1.802985 1_465
Al1 O2 1.825501 1_555
Al1 O14 1.825503 1_555
Al1 O8 1.979543 1_555
Al1 O27 2.028157 1_455
Al1 O15 2.028162 1_565
Al2 O4 1.700692 1_555
Al2 O20 1.777053 1_555
Al2 O30 1.777462 1_455
Al2 O25 1.777500 1_565
Al3 O0 1.797313 1_555
Al3 O21 1.797316 1_555
Al3 O12 1.797325 1_555
Al3 O11 1.813170 1_554
Al4 O21 1.888465 1_445
Al4 O16 1.888469 1_554
Al4 O26 1.888472 1_444
Al4 O12 1.888473 1_555
Al4 O32 1.888936 1_454
Al4 O0 1.888976 1_545
Al5 O4 1.700304 1_555
Al5 O19 1.777053 1_555
Al5 O31 1.777581 1_455
Al5 O23 1.777582 1_565
Al6 O27 1.888476 1_545
Al6 O15 1.888477 1_655
Al6 O22 1.888496 1_545
Al6 O5 1.888507 1_655
Al6 O33 1.888938 1_555
Al6 O1 1.888998 1_645
Al7 O1 1.797297 1_555
Al7 O5 1.797336 1_555
Al7 O22 1.797337 1_555
Al7 O8 1.813183 1_555
Al8 O10 1.802899 1_455
Al8 O17 1.824928 1_555
Al8 O2 1.825303 1_555
Al8 O8 1.979915 1_555
Al8 O33 2.028563 1_455
Al8 O15 2.029616 1_555
Al9 O9 1.802895 1_455
Al9 O18 1.824964 1_555
Al9 O3 1.825365 1_555
Al9 O11 1.979908 1_555
Al9 O32 2.028547 1_455
Al9 O16 2.029546 1_555
Al10 O9 1.802912 1_565
Al10 O18 1.824963 1_555
Al10 O13 1.825372 1_555
Al10 O11 1.979912 1_555
Al10 O32 2.028534 1_565
Al10 O26 2.029535 1_555
Al11 O10 1.802900 1_565
Al11 O17 1.824895 1_555
Al11 O14 1.825301 1_555
Al11 O8 1.979914 1_555
Al11 O33 2.028549 1_565
Al11 O27 2.029635 1_555
Al12 O7 1.802868 1_545
Al12 O19 1.824974 1_555
Al12 O23 1.825391 1_555
Al12 O24 1.979964 1_555
Al12 O1 2.028430 1_545
Al12 O5 2.029447 1_555
Al13 O6 1.802874 1_545
Al13 O20 1.825011 1_555
Al13 O25 1.825413 1_555
Al13 O28 1.980006 1_555
Al13 O0 2.028420 1_545
Al13 O12 2.029464 1_555
Al14 O7 1.802890 1_655
Al14 O19 1.824975 1_555
Al14 O31 1.825387 1_555
Al14 O24 1.979975 1_555
Al14 O1 2.028426 1_655
Al14 O22 2.029455 1_555
Al15 O29 1.700434 1_555
Al15 O17 1.777090 1_555
Al15 O2 1.777565 1_655
Al15 O14 1.777575 1_545
Al16 O29 1.700790 1_555
Al16 O18 1.777049 1_555
Al16 O3 1.777524 1_655
Al16 O13 1.777528 1_545
Al17 O33 1.797275 1_555
Al17 O15 1.797338 1_555
Al17 O27 1.797339 1_555
Al17 O24 1.813156 1_555
Al18 O32 1.797286 1_555
Al18 O26 1.797341 1_555
Al18 O16 1.797341 1_555
Al18 O28 1.813152 1_556
Al19 O6 1.802870 1_655
Al19 O20 1.824998 1_555
Al19 O30 1.825409 1_555
Al19 O28 1.979991 1_555
Al19 O0 2.028443 1_655
Al19 O21 2.029455 1_555
Al20 O6 1.803068 1_645
Al20 O30 1.825431 1_555
Al20 O25 1.825441 1_555
Al20 O28 1.979497 1_555
Al20 O12 2.028250 1_655
Al20 O21 2.028266 1_545
Al21 O7 1.803072 1_645
Al21 O23 1.825395 1_555
Al21 O31 1.825399 1_555
Al21 O24 1.979522 1_555
Al21 O5 2.028261 1_655
Al21 O22 2.028266 1_545
