# generated using pymatgen
data_InAs2PbO8
_symmetry_space_group_name_H-M   'P 1'
_cell_length_a   8.61847100
_cell_length_b   5.09123800
_cell_length_c   16.44382630
_cell_angle_alpha   75.32876765
_cell_angle_beta   90.00000000
_cell_angle_gamma   90.00000000
_symmetry_Int_Tables_number   1
_chemical_formula_structural   InAs2PbO8
_chemical_formula_sum   'In4 As8 Pb4 O32'
_cell_volume   698.00793701
_cell_formula_units_Z   4
loop_
 _symmetry_equiv_pos_site_id
 _symmetry_equiv_pos_as_xyz
  1  'x, y, z'
loop_
 _atom_site_type_symbol
 _atom_site_label
 _atom_site_symmetry_multiplicity
 _atom_site_fract_x
 _atom_site_fract_y
 _atom_site_fract_z
 _atom_site_occupancy
  In  In0  1  0.95304200  0.69650000  0.64163500  1
  In  In1  1  0.54695800  0.69650000  0.14163500  1
  In  In2  1  0.04695800  0.30350000  0.35836500  1
  In  In3  1  0.45304200  0.30350000  0.85836500  1
  As  As0  1  0.79532500  0.30910900  0.51652300  1
  As  As1  1  0.70467500  0.30910900  0.01652300  1
  As  As2  1  0.20467500  0.69089100  0.48347700  1
  As  As3  1  0.29532500  0.69089100  0.98347700  1
  As  As4  1  0.76365100  0.07897600  0.76329200  1
  As  As5  1  0.73634900  0.07897600  0.26329200  1
  As  As6  1  0.23634900  0.92102400  0.23670800  1
  As  As7  1  0.26365100  0.92102400  0.73670800  1
  Pb  Pb0  1  0.52077700  0.77573900  0.61938000  1
  Pb  Pb1  1  0.97922300  0.77573900  0.11938000  1
  Pb  Pb2  1  0.47922300  0.22426100  0.38062000  1
  Pb  Pb3  1  0.02077700  0.22426100  0.88062000  1
  O  O0  1  0.94430300  0.11156300  0.56603600  1
  O  O1  1  0.55569700  0.11156300  0.06603600  1
  O  O2  1  0.05569700  0.88843700  0.43396400  1
  O  O3  1  0.44430300  0.88843700  0.93396400  1
  O  O4  1  0.83921500  0.42053300  0.41224200  1
  O  O5  1  0.66078500  0.42053300  0.91224200  1
  O  O6  1  0.16078500  0.57946700  0.58775800  1
  O  O7  1  0.33921500  0.57946700  0.08775800  1
  O  O8  1  0.76651800  0.56788200  0.56773300  1
  O  O9  1  0.73348200  0.56788200  0.06773300  1
  O  O10  1  0.23348200  0.43211800  0.43226700  1
  O  O11  1  0.26651800  0.43211800  0.93226700  1
  O  O12  1  0.60965600  0.16197900  0.51854000  1
  O  O13  1  0.89034400  0.16197900  0.01854000  1
  O  O14  1  0.39034400  0.83802100  0.48146000  1
  O  O15  1  0.10965600  0.83802100  0.98146000  1
  O  O16  1  0.58995200  0.24829000  0.75303300  1
  O  O17  1  0.91004800  0.24829000  0.25303300  1
  O  O18  1  0.41004800  0.75171000  0.24696700  1
  O  O19  1  0.08995200  0.75171000  0.74696700  1
  O  O20  1  0.74684700  0.85608900  0.69902200  1
  O  O21  1  0.75315300  0.85608900  0.19902200  1
  O  O22  1  0.25315300  0.14391100  0.30097800  1
  O  O23  1  0.24684700  0.14391100  0.80097800  1
  O  O24  1  0.91819700  0.30674300  0.73379100  1
  O  O25  1  0.58180300  0.30674300  0.23379100  1
  O  O26  1  0.08180300  0.69325700  0.26620900  1
  O  O27  1  0.41819700  0.69325700  0.76620900  1
  O  O28  1  0.82564800  0.92478100  0.86356900  1
  O  O29  1  0.67435200  0.92478100  0.36356900  1
  O  O30  1  0.17435200  0.07521900  0.13643100  1
  O  O31  1  0.32564800  0.07521900  0.63643100  1
loop_
_geom_bond_atom_site_label_1
_geom_bond_atom_site_label_2
_geom_bond_distance
_geom_bond_site_symmetry_2
In0 O6 2.147778 1_655
In0 O0 2.164701 1_565
In0 O19 2.172086 1_655
In0 O24 2.191125 1_555
In0 O8 2.211989 1_555
In0 O20 2.257671 1_555
In1 O7 2.147778 1_555
In1 O1 2.164701 1_565
In1 O18 2.172086 1_555
In1 O25 2.191125 1_555
In1 O9 2.211989 1_555
In1 O21 2.257671 1_555
In2 O4 2.147778 1_455
In2 O2 2.164701 1_545
In2 O17 2.172086 1_455
In2 O26 2.191125 1_555
In2 O10 2.211989 1_555
In2 O22 2.257671 1_555
In3 O5 2.147778 1_555
In3 O3 2.164701 1_545
In3 O16 2.172086 1_555
In3 O27 2.191125 1_555
In3 O11 2.211989 1_555
In3 O23 2.257671 1_555
As0 O0 1.705345 1_555
As0 O4 1.706638 1_555
As0 O8 1.751704 1_555
As0 O12 1.763579 1_555
As1 O1 1.705345 1_555
As1 O5 1.706638 1_554
As1 O9 1.751704 1_555
As1 O13 1.763579 1_555
As2 O2 1.705345 1_555
As2 O6 1.706638 1_555
As2 O10 1.751704 1_555
As2 O14 1.763579 1_555
As3 O3 1.705345 1_555
As3 O7 1.706638 1_556
As3 O11 1.751704 1_555
As3 O15 1.763579 1_555
As4 O16 1.714334 1_555
As4 O28 1.721938 1_545
As4 O20 1.741576 1_545
As4 O24 1.751908 1_555
As5 O17 1.714334 1_555
As5 O29 1.721938 1_545
As5 O21 1.741576 1_545
As5 O25 1.751908 1_555
As6 O18 1.714334 1_555
As6 O30 1.721938 1_565
As6 O22 1.741576 1_565
As6 O26 1.751908 1_555
As7 O19 1.714334 1_555
As7 O31 1.721938 1_565
As7 O23 1.741576 1_565
As7 O27 1.751908 1_555
O8 Pb0 2.604220 1_555
O9 Pb1 2.604220 1_555
O10 Pb2 2.604220 1_555
O11 Pb3 2.604220 1_555
O12 Pb0 2.356172 1_545
O12 Pb2 2.478601 1_555
O13 Pb1 2.356172 1_545
O13 Pb3 2.478601 1_654
O14 Pb2 2.356172 1_565
O14 Pb0 2.478601 1_555
O15 Pb3 2.356172 1_565
O15 Pb1 2.478601 1_456
O20 Pb0 2.439263 1_555
O21 Pb1 2.439263 1_555
O22 Pb2 2.439263 1_555
O23 Pb3 2.439263 1_555
O24 Pb3 2.504762 1_655
O25 Pb2 2.504762 1_555
O26 Pb1 2.504762 1_455
O27 Pb0 2.504762 1_555
O28 Pb3 2.334119 1_665
O29 Pb2 2.334119 1_565
O30 Pb1 2.334119 1_445
O31 Pb0 2.334119 1_545
