# generated using pymatgen
data_SrLaMnO4F
_symmetry_space_group_name_H-M   'P 1'
_cell_length_a   5.38851500
_cell_length_b   5.38853339
_cell_length_c   14.00041600
_cell_angle_alpha   90.00041038
_cell_angle_beta   89.99993916
_cell_angle_gamma   90.00097742
_symmetry_Int_Tables_number   1
_chemical_formula_structural   SrLaMnO4F
_chemical_formula_sum   'Sr4 La4 Mn4 O16 F4'
_cell_volume   406.51878126
_cell_formula_units_Z   4
loop_
 _symmetry_equiv_pos_site_id
 _symmetry_equiv_pos_as_xyz
  1  'x, y, z'
loop_
 _atom_site_type_symbol
 _atom_site_label
 _atom_site_symmetry_multiplicity
 _atom_site_fract_x
 _atom_site_fract_y
 _atom_site_fract_z
 _atom_site_occupancy
  Sr  Sr0  1  0.75003400  0.99999200  0.90427800  1
  Sr  Sr1  1  0.24998300  0.49998500  0.90428100  1
  Sr  Sr2  1  0.24999100  0.00000100  0.09571900  1
  Sr  Sr3  1  0.74999700  0.49997900  0.09572100  1
  La  La0  1  0.74999500  0.99999400  0.62255300  1
  La  La1  1  0.25002200  0.50003200  0.62255500  1
  La  La2  1  0.24997900  0.00002700  0.37745500  1
  La  La3  1  0.74999900  0.49998400  0.37743900  1
  Mn  Mn0  1  0.74999900  0.50000500  0.77618700  1
  Mn  Mn1  1  0.24998300  0.50000700  0.22382100  1
  Mn  Mn2  1  0.24999700  0.00001500  0.77617500  1
  Mn  Mn3  1  0.74998900  0.99998200  0.22379200  1
  O  O0  1  0.25002700  0.00001000  0.91693600  1
  O  O1  1  0.74999300  0.50000100  0.91693600  1
  O  O2  1  0.74999300  0.99999600  0.08307500  1
  O  O3  1  0.24999700  0.49998800  0.08306800  1
  O  O4  1  0.24999900  0.99998200  0.64183600  1
  O  O5  1  0.75001400  0.49999100  0.64183400  1
  O  O6  1  0.75000000  0.00000100  0.35817300  1
  O  O7  1  0.25000500  0.50000700  0.35816700  1
  O  O8  1  0.50001500  0.75001800  0.76951100  1
  O  O9  1  0.99998700  0.24998600  0.76950400  1
  O  O10  1  0.49999000  0.25001100  0.76950300  1
  O  O11  1  0.00002400  0.74998000  0.76951300  1
  O  O12  1  0.50000100  0.24999600  0.23049700  1
  O  O13  1  0.00000900  0.75000800  0.23049500  1
  O  O14  1  0.50000800  0.75000200  0.23049800  1
  O  O15  1  0.99999400  0.25000200  0.23048700  1
  F  F0  1  0.50000800  0.74999000  0.50000200  1
  F  F1  1  0.99999300  0.25001300  0.49999700  1
  F  F2  1  0.50000300  0.25001200  0.49999700  1
  F  F3  1  0.99997300  0.75000000  0.49999900  1
loop_
_geom_bond_atom_site_label_1
_geom_bond_atom_site_label_2
_geom_bond_distance
_geom_bond_site_symmetry_2
La0 O4 2.707728 1_555
La0 O5 2.707738 1_565
La0 O4 2.707771 1_655
La0 O5 2.707774 1_555
La0 O9 2.803924 1_565
La0 O8 2.803935 1_555
La0 O10 2.804032 1_565
La0 O11 2.804205 1_655
La1 O4 2.707486 1_555
La1 O5 2.707701 1_555
La1 O5 2.707787 1_455
La1 O4 2.708026 1_545
La1 O11 2.803917 1_555
La1 O10 2.803942 1_555
La1 O8 2.803962 1_555
La1 O9 2.804166 1_455
La2 O6 2.707636 1_455
La2 O7 2.707660 1_555
La2 O6 2.707860 1_555
La2 O7 2.707871 1_545
La2 O12 2.804026 1_555
La2 O13 2.804029 1_545
La2 O15 2.804073 1_455
La2 O14 2.804187 1_545
La3 O6 2.707642 1_555
La3 O7 2.707702 1_555
La3 O7 2.707766 1_655
La3 O6 2.707828 1_565
La3 O12 2.803837 1_555
La3 O14 2.803922 1_555
La3 O15 2.803936 1_555
La3 O13 2.803993 1_655
Mn0 O5 1.880998 1_555
Mn0 O11 1.907405 1_655
Mn0 O10 1.907423 1_555
Mn0 O8 1.907428 1_555
Mn0 O9 1.907470 1_555
Mn0 O1 1.970545 1_555
Mn1 O7 1.880900 1_555
Mn1 O13 1.907342 1_555
Mn1 O15 1.907377 1_455
Mn1 O14 1.907483 1_555
Mn1 O12 1.907550 1_555
Mn1 O3 1.970601 1_555
Mn2 O4 1.880802 1_545
Mn2 O10 1.907362 1_555
Mn2 O9 1.907363 1_455
Mn2 O11 1.907427 1_545
Mn2 O8 1.907487 1_545
Mn2 O0 1.970713 1_555
Mn3 O6 1.881390 1_565
Mn3 O14 1.907279 1_555
Mn3 O13 1.907435 1_655
Mn3 O12 1.907466 1_565
Mn3 O15 1.907514 1_565
Mn3 O2 1.970097 1_555
O0 Sr2 2.503036 1_556
O0 Sr1 2.699953 1_555
O0 Sr0 2.700042 1_445
O0 Sr0 2.700117 1_545
O0 Sr1 2.700219 1_545
O1 Sr3 2.503064 1_556
O1 Sr1 2.700023 1_655
O1 Sr0 2.700042 1_555
O1 Sr1 2.700131 1_555
O1 Sr0 2.700136 1_545
O2 Sr0 2.503232 1_554
O2 Sr3 2.699985 1_565
O2 Sr2 2.700056 1_665
O2 Sr2 2.700077 1_565
O2 Sr3 2.700170 1_555
O3 Sr1 2.503092 1_554
O3 Sr2 2.700014 1_555
O3 Sr3 2.700075 1_455
O3 Sr3 2.700075 1_555
O3 Sr2 2.700151 1_565
O8 Sr0 2.681291 1_555
O8 Sr1 2.681527 1_555
O9 Sr0 2.681247 1_545
O9 Sr1 2.681395 1_655
O10 Sr1 2.681388 1_555
O10 Sr0 2.681596 1_545
O11 Sr1 2.681232 1_555
O11 Sr0 2.681317 1_455
O12 Sr3 2.681353 1_555
O12 Sr2 2.681432 1_555
O13 Sr2 2.681343 1_565
O13 Sr3 2.681490 1_455
O14 Sr3 2.681462 1_555
O14 Sr2 2.681508 1_565
O15 Sr3 2.681266 1_555
O15 Sr2 2.681335 1_655
F0 La1 2.563713 1_555
F0 La0 2.563816 1_555
F0 La3 2.563968 1_555
F0 La2 2.564028 1_565
F1 La2 2.563700 1_655
F1 La3 2.563845 1_555
F1 La0 2.563948 1_545
F1 La1 2.564043 1_655
F2 La2 2.563783 1_555
F2 La3 2.563828 1_555
F2 La1 2.563932 1_555
F2 La0 2.563954 1_545
F3 La0 2.563813 1_555
F3 La2 2.563880 1_665
F3 La3 2.563898 1_555
F3 La1 2.563974 1_655
