# generated using pymatgen
data_Sr4Tb2Mg(RuO6)2
_symmetry_space_group_name_H-M   'P 1'
_cell_length_a   6.19303727
_cell_length_b   5.88999781
_cell_length_c   8.28899799
_cell_angle_alpha   89.47502778
_cell_angle_beta   91.09442631
_cell_angle_gamma   93.25155160
_symmetry_Int_Tables_number   1
_chemical_formula_structural   Sr4Tb2Mg(RuO6)2
_chemical_formula_sum   'Sr4 Tb2 Mg1 Ru2 O12'
_cell_volume   301.80587140
_cell_formula_units_Z   1
loop_
 _symmetry_equiv_pos_site_id
 _symmetry_equiv_pos_as_xyz
  1  'x, y, z'
loop_
 _atom_site_type_symbol
 _atom_site_label
 _atom_site_symmetry_multiplicity
 _atom_site_fract_x
 _atom_site_fract_y
 _atom_site_fract_z
 _atom_site_occupancy
  Sr  Sr0  1  0.00339100  0.50511500  0.76029200  1
  Sr  Sr1  1  0.47486000  0.95537100  0.72796800  1
  Sr  Sr2  1  0.58773400  0.87017400  0.25308300  1
  Sr  Sr3  1  0.04116900  0.59948000  0.24783100  1
  Tb  Tb0  1  0.52474300  0.44889500  0.98428300  1
  Tb  Tb1  1  0.97005400  0.01841000  0.52015200  1
  Mg  Mg0  1  0.24945400  0.17946700  0.23838100  1
  Ru  Ru0  1  0.99165300  0.01439900  0.99733900  1
  Ru  Ru1  1  0.48536200  0.48874500  0.50063600  1
  O  O0  1  0.72902900  0.17756300  0.93417400  1
  O  O1  1  0.75821700  0.69894600  0.51055000  1
  O  O2  1  0.27617200  0.89113000  0.07892600  1
  O  O3  1  0.20596700  0.30560800  0.46844200  1
  O  O4  1  0.79945800  0.71255400  0.99959600  1
  O  O5  1  0.68010900  0.22739700  0.54441300  1
  O  O6  1  0.16436900  0.32902000  0.02413800  1
  O  O7  1  0.29451500  0.78215400  0.45961700  1
  O  O8  1  0.42373400  0.52851700  0.73708700  1
  O  O9  1  0.07349100  0.96669300  0.77013200  1
  O  O10  1  0.50515000  0.43122700  0.25490000  1
  O  O11  1  0.94886800  0.03580500  0.24587100  1
loop_
_geom_bond_atom_site_label_1
_geom_bond_atom_site_label_2
_geom_bond_distance
_geom_bond_site_symmetry_2
Mg0 O11 2.002487 1_455
Mg0 O6 2.048294 1_555
Mg0 O3 2.080714 1_555
Mg0 O10 2.110518 1_555
Mg0 O2 2.177138 1_545
O0 Ru0 1.994641 1_555
O0 Tb0 2.142147 1_555
O0 Sr1 2.610838 1_545
O0 Sr0 2.890895 1_655
O1 Ru1 2.038201 1_555
O1 Tb1 2.233104 1_565
O1 Sr2 2.584901 1_555
O1 Sr0 2.815577 1_655
O1 Sr3 2.905475 1_655
O1 Sr1 3.013270 1_555
O2 Ru0 2.044477 1_464
O2 Sr2 2.395737 1_555
O2 Sr3 2.603717 1_555
O3 Ru1 2.001153 1_555
O3 Tb1 2.215866 1_455
O3 Sr3 2.729963 1_555
O3 Sr0 3.023623 1_555
O4 Ru0 2.082808 1_565
O4 Tb0 2.240068 1_555
O4 Sr3 2.624589 1_656
O4 Sr2 2.697240 1_556
O4 Sr0 2.708820 1_655
O5 Ru1 2.034578 1_555
O5 Tb1 2.247004 1_555
O5 Sr1 2.509179 1_545
O5 Sr0 3.071058 1_655
O6 Ru0 2.097885 1_454
O6 Tb0 2.331045 1_554
O6 Sr3 2.608427 1_555
O6 Sr0 2.616328 1_554
O7 Ru1 2.169040 1_555
O7 Sr3 2.537523 1_555
O7 Sr2 2.548104 1_555
O7 Tb1 2.567951 1_465
O7 Sr1 2.655849 1_555
O8 Ru1 2.022139 1_555
O8 Tb0 2.185495 1_555
O8 Sr1 2.516772 1_555
O8 Sr0 2.609709 1_555
O9 Ru0 1.986210 1_465
O9 Tb1 2.180949 1_465
O9 Sr1 2.521445 1_555
O9 Sr0 2.730428 1_555
O9 Sr0 3.225272 1_565
O10 Ru1 2.075009 1_555
O10 Tb0 2.249874 1_554
O10 Sr2 2.606849 1_555
O11 Ru0 2.087927 1_554
O11 Tb1 2.276498 1_555
O11 Sr2 2.390363 1_545
O11 Sr3 2.664058 1_645
