# generated using pymatgen
data_Fe3H9S2O15
_symmetry_space_group_name_H-M   'P 1'
_cell_length_a   7.21199348
_cell_length_b   7.21199348
_cell_length_c   7.21199306
_cell_angle_alpha   62.22640315
_cell_angle_beta   62.22640315
_cell_angle_gamma   62.22640724
_symmetry_Int_Tables_number   1
_chemical_formula_structural   Fe3H9S2O15
_chemical_formula_sum   'Fe3 H9 S2 O15'
_cell_volume   278.43457605
_cell_formula_units_Z   1
loop_
 _symmetry_equiv_pos_site_id
 _symmetry_equiv_pos_as_xyz
  1  'x, y, z'
loop_
 _atom_site_type_symbol
 _atom_site_label
 _atom_site_symmetry_multiplicity
 _atom_site_fract_x
 _atom_site_fract_y
 _atom_site_fract_z
 _atom_site_occupancy
  Fe  Fe0  1  0.00184600  0.00184600  0.49444200  1
  Fe  Fe1  1  0.49444200  0.00184600  0.00184600  1
  Fe  Fe2  1  0.00184600  0.49444100  0.00184600  1
  H  H0  1  0.68863500  0.28531600  0.68863500  1
  H  H1  1  0.68863500  0.68863500  0.28531600  1
  H  H2  1  0.28531600  0.68863500  0.68863500  1
  H  H3  1  0.30019700  0.71832100  0.30019700  1
  H  H4  1  0.30019700  0.30019700  0.71832100  1
  H  H5  1  0.71832100  0.30019700  0.30019700  1
  H  H6  1  0.89259000  0.89259000  0.10124900  1
  H  H7  1  0.10124900  0.89259000  0.89259000  1
  H  H8  1  0.89259000  0.10124900  0.89259000  1
  S  S0  1  0.69370500  0.69370500  0.69370500  1
  S  S1  1  0.30676400  0.30676400  0.30676400  1
  O  O0  1  0.74619800  0.12297000  0.74619800  1
  O  O1  1  0.74619800  0.74619800  0.12297000  1
  O  O2  1  0.12297000  0.74619800  0.74619800  1
  O  O3  1  0.27130500  0.87518900  0.27130500  1
  O  O4  1  0.27130500  0.27130500  0.87518900  1
  O  O5  1  0.87518900  0.27130500  0.27130500  1
  O  O6  1  0.60899000  0.60899000  0.60899000  1
  O  O7  1  0.39155400  0.39155400  0.39155400  1
  O  O8  1  0.83210500  0.83210500  0.50410500  1
  O  O9  1  0.50410500  0.83210500  0.83210500  1
  O  O10  1  0.83210500  0.50410500  0.83210500  1
  O  O11  1  0.16879800  0.16879800  0.49613000  1
  O  O12  1  0.49613000  0.16879800  0.16879800  1
  O  O13  1  0.16879800  0.49613000  0.16879800  1
  O  O14  1  0.99001800  0.99001800  0.99001800  1
loop_
_geom_bond_atom_site_label_1
_geom_bond_atom_site_label_2
_geom_bond_distance
_geom_bond_site_symmetry_2
Fe0 O5 2.000432 1_455
Fe0 O3 2.000432 1_545
Fe0 O8 2.059043 1_445
Fe0 O11 2.068353 1_555
Fe0 O2 2.077592 1_545
Fe0 O0 2.077592 1_455
Fe1 O3 2.000432 1_545
Fe1 O4 2.000432 1_554
Fe1 O9 2.059043 1_544
Fe1 O12 2.068353 1_555
Fe1 O0 2.077592 1_554
Fe1 O1 2.077593 1_545
Fe2 O5 2.000428 1_455
Fe2 O4 2.000428 1_554
Fe2 O10 2.059039 1_454
Fe2 O13 2.068357 1_555
Fe2 O2 2.077597 1_554
Fe2 O1 2.077597 1_455
H0 O0 0.984978 1_555
H1 O1 0.984978 1_555
H2 O2 0.984978 1_555
H3 O3 0.983778 1_555
H4 O4 0.983778 1_555
H5 O5 0.983778 1_555
H6 O14 1.020027 1_554
H7 O14 1.020028 1_455
H8 O14 1.020028 1_545
O6 S0 1.470873 1_555
O7 S1 1.472175 1_555
O8 S0 1.498953 1_555
O9 S0 1.498953 1_555
O10 S0 1.498953 1_555
O11 S1 1.495013 1_555
O12 S1 1.495013 1_555
O13 S1 1.495013 1_555
