# generated using pymatgen
data_PrCoP
_symmetry_space_group_name_H-M   'P 1'
_cell_length_a   3.89472800
_cell_length_b   3.89472800
_cell_length_c   7.68760000
_cell_angle_alpha   90.00000000
_cell_angle_beta   90.00000000
_cell_angle_gamma   90.00000000
_symmetry_Int_Tables_number   1
_chemical_formula_structural   PrCoP
_chemical_formula_sum   'Pr2 Co2 P2'
_cell_volume   116.61248326
_cell_formula_units_Z   2
loop_
 _symmetry_equiv_pos_site_id
 _symmetry_equiv_pos_as_xyz
  1  'x, y, z'
loop_
 _atom_site_type_symbol
 _atom_site_label
 _atom_site_symmetry_multiplicity
 _atom_site_fract_x
 _atom_site_fract_y
 _atom_site_fract_z
 _atom_site_occupancy
  Pr  Pr0  1  0.00000000  0.50000000  0.30122400  1
  Pr  Pr1  1  0.50000000  0.00000000  0.69877600  1
  Co  Co0  1  0.00000000  0.00000000  0.00000000  1
  Co  Co1  1  0.50000000  0.50000000  0.00000000  1
  P  P0  1  0.00000000  0.50000000  0.84433800  1
  P  P1  1  0.50000000  0.00000000  0.15566200  1
loop_
_geom_bond_atom_site_label_1
_geom_bond_atom_site_label_2
_geom_bond_distance
_geom_bond_site_symmetry_2
Co0 P0 2.285659 1_544
Co0 P0 2.285659 1_554
Co0 P1 2.285659 1_455
Co0 P1 2.285659 1_555
Co0 Pr0 3.025664 1_555
Co0 Pr0 3.025664 1_545
Co0 Pr1 3.025664 1_454
Co0 Pr1 3.025664 1_554
Co1 P0 2.285659 1_654
Co1 P0 2.285659 1_554
Co1 P1 2.285659 1_565
Co1 P1 2.285659 1_555
Co1 Pr0 3.025664 1_555
Co1 Pr0 3.025664 1_655
Co1 Pr1 3.025664 1_564
Co1 Pr1 3.025664 1_554
P0 Pr1 2.972653 1_565
P0 Pr1 2.972653 1_465
P0 Pr1 2.972653 1_555
P0 Pr1 2.972653 1_455
P1 Pr0 2.972653 1_555
P1 Pr0 2.972653 1_655
P1 Pr0 2.972653 1_545
P1 Pr0 2.972653 1_645
