# generated using pymatgen
data_CeNiSn
_symmetry_space_group_name_H-M   'P 1'
_cell_length_a   4.45715212
_cell_length_b   4.45715212
_cell_length_c   7.76262500
_cell_angle_alpha   90.00000000
_cell_angle_beta   90.00000000
_cell_angle_gamma   120.00000179
_symmetry_Int_Tables_number   1
_chemical_formula_structural   CeNiSn
_chemical_formula_sum   'Ce2 Ni2 Sn2'
_cell_volume   133.55315243
_cell_formula_units_Z   2
loop_
 _symmetry_equiv_pos_site_id
 _symmetry_equiv_pos_as_xyz
  1  'x, y, z'
loop_
 _atom_site_type_symbol
 _atom_site_label
 _atom_site_symmetry_multiplicity
 _atom_site_fract_x
 _atom_site_fract_y
 _atom_site_fract_z
 _atom_site_occupancy
  Ce  Ce0  1  0.00000000  0.00000000  0.50000000  1
  Ce  Ce1  1  0.00000000  0.00000000  0.00000000  1
  Ni  Ni0  1  0.33333300  0.66666700  0.25000000  1
  Ni  Ni1  1  0.66666700  0.33333300  0.75000000  1
  Sn  Sn0  1  0.33333300  0.66666700  0.75000000  1
  Sn  Sn1  1  0.66666700  0.33333300  0.25000000  1
loop_
_geom_bond_atom_site_label_1
_geom_bond_atom_site_label_2
_geom_bond_distance
_geom_bond_site_symmetry_2
Ce0 Sn1 3.223073 1_455
Ce0 Ni0 3.223073 1_545
Ce0 Sn0 3.223073 1_545
Ce0 Ni1 3.223073 1_455
Ce0 Ni1 3.223076 1_445
Ce0 Ni1 3.223076 1_555
Ce0 Sn0 3.223076 1_445
Ce0 Sn0 3.223076 1_555
Ce0 Sn1 3.223076 1_445
Ce0 Ni0 3.223076 1_555
Ce0 Sn1 3.223076 1_555
Ce0 Ni0 3.223076 1_445
Ce1 Ni1 3.223073 1_454
Ce1 Sn1 3.223073 1_455
Ce1 Ni0 3.223073 1_545
Ce1 Sn0 3.223073 1_544
Ce1 Ni1 3.223076 1_554
Ce1 Sn1 3.223076 1_445
Ce1 Ni0 3.223076 1_555
Ce1 Sn1 3.223076 1_555
Ce1 Ni1 3.223076 1_444
Ce1 Ni0 3.223076 1_445
Ce1 Sn0 3.223076 1_444
Ce1 Sn0 3.223076 1_554
Ni0 Sn1 2.573335 1_455
Ni0 Sn1 2.573335 1_565
Ni0 Sn1 2.573343 1_555
Ni1 Sn0 2.573335 1_545
Ni1 Sn0 2.573335 1_655
Ni1 Sn0 2.573343 1_555
