# generated using pymatgen
data_LiMn6O5F7
_symmetry_space_group_name_H-M   'P 1'
_cell_length_a   7.33319798
_cell_length_b   5.87447790
_cell_length_c   5.83024386
_cell_angle_alpha   76.06010129
_cell_angle_beta   71.60776322
_cell_angle_gamma   73.28080445
_symmetry_Int_Tables_number   1
_chemical_formula_structural   LiMn6O5F7
_chemical_formula_sum   'Li1 Mn6 O5 F7'
_cell_volume   225.11853066
_cell_formula_units_Z   1
loop_
 _symmetry_equiv_pos_site_id
 _symmetry_equiv_pos_as_xyz
  1  'x, y, z'
loop_
 _atom_site_type_symbol
 _atom_site_label
 _atom_site_symmetry_multiplicity
 _atom_site_fract_x
 _atom_site_fract_y
 _atom_site_fract_z
 _atom_site_occupancy
  Li  Li0  1  0.02362500  0.97939000  0.48049300  1
  Mn  Mn0  1  0.82087800  0.62899400  0.68883200  1
  Mn  Mn1  1  0.66230400  0.32173800  0.33631200  1
  Mn  Mn2  1  0.34136500  0.68801600  0.64093600  1
  Mn  Mn3  1  0.16121500  0.35456900  0.28187800  1
  Mn  Mn4  1  0.49812200  0.99144200  0.04091900  1
  Mn  Mn5  1  0.98243400  0.00102300  0.99851300  1
  O  O0  1  0.62676500  0.55980200  0.53905400  1
  O  O1  1  0.95017600  0.22747100  0.21833200  1
  O  O2  1  0.69265100  0.08972500  0.12319200  1
  O  O3  1  0.04084100  0.76929800  0.78023500  1
  O  O4  1  0.31879100  0.97137100  0.36009800  1
  F  F0  1  0.66051900  0.01340000  0.68228600  1
  F  F1  1  0.34382600  0.39171500  0.92919300  1
  F  F2  1  0.29011900  0.92644600  0.91450500  1
  F  F3  1  0.36839700  0.41703400  0.42344000  1
  F  F4  1  0.63718600  0.62341500  0.03673900  1
  F  F5  1  0.99707800  0.27636500  0.66893300  1
  F  F6  1  0.00963100  0.71670400  0.32486100  1
loop_
_geom_bond_atom_site_label_1
_geom_bond_atom_site_label_2
_geom_bond_distance
_geom_bond_site_symmetry_2
Li0 O3 1.898300 1_555
Li0 O1 1.935152 1_465
Li0 O4 2.044146 1_555
Mn0 O0 2.059697 1_555
Mn0 O3 2.254812 1_655
Mn1 O0 1.952768 1_555
Mn1 O1 1.957247 1_555
Mn1 O2 1.979401 1_555
Mn2 O0 1.955615 1_555
Mn2 O4 2.044124 1_555
Mn2 O3 2.048480 1_555
Mn3 O1 2.061475 1_455
Mn3 O4 2.225290 1_545
Mn4 O2 1.907223 1_565
Mn4 O4 1.909304 1_555
Mn5 O3 1.952249 1_645
Mn5 O2 1.971374 1_556
Mn5 O1 1.979168 1_556
F0 Mn4 2.047902 1_546
F0 Mn0 2.223201 1_545
F0 Mn1 2.363564 1_555
F0 Li0 2.518828 1_645
F1 Mn3 2.069619 1_556
F1 Mn2 2.108588 1_555
F1 Mn4 2.330227 1_546
F2 Mn4 2.048342 1_556
F2 Mn5 2.088074 1_465
F2 Mn2 2.245499 1_555
F3 Mn1 1.992129 1_555
F3 Mn3 2.093350 1_555
F3 Mn2 2.194019 1_555
F4 Mn0 2.049173 1_554
F4 Mn4 2.110884 1_555
F4 Mn1 2.179225 1_555
F5 Mn0 2.110766 1_555
F5 Mn5 2.189139 1_555
F5 Mn3 2.203819 1_655
F5 Li0 2.209426 1_645
F6 Li0 2.009888 1_555
F6 Mn3 2.131797 1_555
F6 Mn0 2.171281 1_455
F6 Mn5 2.228522 1_464
