# generated using pymatgen
data_Mg2Si
_symmetry_space_group_name_H-M   'P 1'
_cell_length_a   6.03514100
_cell_length_b   6.64791718
_cell_length_c   6.76621435
_cell_angle_alpha   97.59976312
_cell_angle_beta   112.04014949
_cell_angle_gamma   105.82459272
_symmetry_Int_Tables_number   1
_chemical_formula_structural   Mg2Si
_chemical_formula_sum   'Mg8 Si4'
_cell_volume   233.56729340
_cell_formula_units_Z   4
loop_
 _symmetry_equiv_pos_site_id
 _symmetry_equiv_pos_as_xyz
  1  'x, y, z'
loop_
 _atom_site_type_symbol
 _atom_site_label
 _atom_site_symmetry_multiplicity
 _atom_site_fract_x
 _atom_site_fract_y
 _atom_site_fract_z
 _atom_site_occupancy
  Mg  Mg0  1  0.02551200  0.82711600  0.90799400  1
  Mg  Mg1  1  0.79552800  0.17361200  0.72617000  1
  Mg  Mg2  1  0.30018800  0.16862300  0.75406400  1
  Mg  Mg3  1  0.79344000  0.51064500  0.11859300  1
  Mg  Mg4  1  0.29806000  0.83876200  0.42057200  1
  Mg  Mg5  1  0.54675200  0.49155700  0.56377100  1
  Mg  Mg6  1  0.29519100  0.51031600  0.08458300  1
  Mg  Mg7  1  0.99504900  0.15517600  0.25622000  1
  Si  Si0  1  0.11747600  0.53320200  0.63643200  1
  Si  Si1  1  0.81991300  0.82424400  0.44777000  1
  Si  Si2  1  0.52282200  0.84568900  0.88672900  1
  Si  Si3  1  0.49017900  0.12151800  0.19710900  1
loop_
_geom_bond_atom_site_label_1
_geom_bond_atom_site_label_2
_geom_bond_distance
_geom_bond_site_symmetry_2
Mg0 Si3 2.719973 1_566
Mg0 Si0 2.812337 1_555
Mg0 Si1 2.882412 1_455
Mg0 Mg5 2.968039 1_455
Mg0 Mg2 2.975860 1_565
Mg0 Mg3 3.016983 1_456
Mg0 Si2 3.020150 1_455
Mg0 Si2 3.028309 1_555
Mg0 Mg7 3.086476 1_466
Mg0 Mg6 3.096384 1_556
Mg0 Mg1 3.155593 1_465
Mg0 Mg4 3.212183 1_556
Mg1 Si1 2.863847 1_545
Mg1 Si0 2.931669 1_655
Mg1 Si2 2.941581 1_545
Mg1 Mg4 2.953476 1_545
Mg1 Mg6 3.062566 1_656
Mg1 Si3 3.271619 1_555
Mg2 Si3 2.874657 1_556
Mg2 Si2 2.897885 1_545
Mg2 Mg4 2.924840 1_545
Mg2 Si1 2.924960 1_445
Mg2 Mg6 2.984367 1_556
Mg2 Si0 3.005470 1_555
Mg3 Si1 2.766892 1_555
Mg3 Mg6 2.927794 1_555
Mg3 Mg4 2.955614 1_655
Mg3 Si3 2.972371 1_555
Mg3 Mg6 3.122345 1_655
Mg4 Si3 2.835974 1_565
Mg4 Si0 2.866937 1_555
Mg4 Si2 2.916687 1_555
Mg4 Mg6 2.927967 1_555
Mg4 Si1 2.936276 1_455
Mg4 Si1 3.114121 1_555
Mg4 Mg5 3.147816 1_555
Mg4 Mg7 3.193106 1_465
Mg5 Si1 2.768948 1_555
Mg5 Si0 2.888150 1_555
Mg5 Mg6 3.057577 1_555
Mg5 Si2 3.065936 1_555
Mg5 Si3 3.100803 1_555
Mg6 Si0 2.852791 1_554
Mg6 Si2 3.024825 1_554
Mg6 Si1 3.101812 1_555
Mg6 Si3 3.186237 1_555
Mg6 Mg7 3.189912 1_455
Mg7 Si1 2.855019 1_545
Mg7 Si3 2.860750 1_555
Mg7 Si2 2.949523 1_544
Mg7 Si0 3.054577 1_655
Mg7 Si3 3.221367 1_655
Si0 Si2 2.521230 1_555
Si2 Si3 2.701958 1_566
