# generated using pymatgen
data_Nb3Ga2Cl9
_symmetry_space_group_name_H-M   'P 1'
_cell_length_a   9.62568786
_cell_length_b   9.62568786
_cell_length_c   9.55053586
_cell_angle_alpha   76.98135254
_cell_angle_beta   76.98135254
_cell_angle_gamma   115.77914182
_symmetry_Int_Tables_number   1
_chemical_formula_structural   Nb3Ga2Cl9
_chemical_formula_sum   'Nb6 Ga4 Cl18'
_cell_volume   721.73331930
_cell_formula_units_Z   2
loop_
 _symmetry_equiv_pos_site_id
 _symmetry_equiv_pos_as_xyz
  1  'x, y, z'
loop_
 _atom_site_type_symbol
 _atom_site_label
 _atom_site_symmetry_multiplicity
 _atom_site_fract_x
 _atom_site_fract_y
 _atom_site_fract_z
 _atom_site_occupancy
  Nb  Nb0  1  0.62031000  0.62031000  0.13020300  1
  Nb  Nb1  1  0.37969000  0.37969000  0.86979700  1
  Nb  Nb2  1  0.45585000  0.27608700  0.14339000  1
  Nb  Nb3  1  0.54415000  0.72391300  0.85661000  1
  Nb  Nb4  1  0.72391300  0.54415000  0.85661000  1
  Nb  Nb5  1  0.27608700  0.45585000  0.14339000  1
  Ga  Ga0  1  0.72067900  0.04496100  0.33629700  1
  Ga  Ga1  1  0.27932100  0.95503900  0.66370300  1
  Ga  Ga2  1  0.95503900  0.27932100  0.66370300  1
  Ga  Ga3  1  0.04496100  0.72067900  0.33629700  1
  Cl  Cl0  1  0.71289300  0.28710700  0.00000000  1
  Cl  Cl1  1  0.28710700  0.71289300  0.00000000  1
  Cl  Cl2  1  0.39739600  0.98915400  0.33561800  1
  Cl  Cl3  1  0.60260400  0.01084600  0.66438200  1
  Cl  Cl4  1  0.01084600  0.60260400  0.66438200  1
  Cl  Cl5  1  0.98915400  0.39739600  0.33561800  1
  Cl  Cl6  1  0.30722600  0.09387100  0.01661300  1
  Cl  Cl7  1  0.69277400  0.90612900  0.98338700  1
  Cl  Cl8  1  0.90612900  0.69277400  0.98338700  1
  Cl  Cl9  1  0.09387100  0.30722600  0.01661300  1
  Cl  Cl10  1  0.77356600  0.77356600  0.29215200  1
  Cl  Cl11  1  0.22643400  0.22643400  0.70784800  1
  Cl  Cl12  1  0.82020500  0.82020500  0.66521100  1
  Cl  Cl13  1  0.17979500  0.17979500  0.33478900  1
  Cl  Cl14  1  0.58862100  0.37615900  0.32113700  1
  Cl  Cl15  1  0.41137900  0.62384100  0.67886300  1
  Cl  Cl16  1  0.62384100  0.41137900  0.67886300  1
  Cl  Cl17  1  0.37615900  0.58862100  0.32113700  1
loop_
_geom_bond_atom_site_label_1
_geom_bond_atom_site_label_2
_geom_bond_distance
_geom_bond_site_symmetry_2
Cl0 Nb2 2.487590 1_555
Cl0 Nb4 2.487590 1_554
Cl1 Nb5 2.487590 1_555
Cl1 Nb3 2.487590 1_554
Cl2 Nb2 2.685836 1_565
Cl2 Ga0 2.920397 1_565
Cl2 Ga1 2.970693 1_555
Cl3 Nb3 2.685836 1_545
Cl3 Ga1 2.920397 1_545
Cl3 Ga0 2.970693 1_555
Cl4 Nb4 2.685836 1_455
Cl4 Ga2 2.920397 1_455
Cl4 Ga3 2.970693 1_555
Cl5 Nb5 2.685836 1_655
Cl5 Ga3 2.920397 1_655
Cl5 Ga2 2.970693 1_555
Cl6 Nb2 2.478640 1_555
Cl6 Nb1 2.484737 1_554
Cl7 Nb3 2.478640 1_555
Cl7 Nb0 2.484737 1_556
Cl8 Nb4 2.478640 1_555
Cl8 Nb0 2.484737 1_556
Cl9 Nb5 2.478640 1_555
Cl9 Nb1 2.484737 1_554
Cl10 Nb0 2.628263 1_555
Cl10 Ga0 2.969447 1_565
Cl10 Ga3 2.969447 1_655
Cl11 Nb1 2.628263 1_555
Cl11 Ga1 2.969447 1_545
Cl11 Ga2 2.969447 1_455
Cl12 Nb3 2.483420 1_555
Cl12 Nb4 2.483420 1_555
Cl13 Nb2 2.483420 1_555
Cl13 Nb5 2.483420 1_555
Cl14 Nb2 2.467053 1_555
Cl14 Nb0 2.477186 1_555
Cl15 Nb3 2.467053 1_555
Cl15 Nb1 2.477186 1_555
Cl16 Nb4 2.467053 1_555
Cl16 Nb1 2.477186 1_555
Cl17 Nb5 2.467053 1_555
Cl17 Nb0 2.477186 1_555
