# generated using pymatgen
data_AcPdO3
_symmetry_space_group_name_H-M   'P 1'
_cell_length_a   4.05520794
_cell_length_b   4.05520691
_cell_length_c   4.05520589
_cell_angle_alpha   90.00000000
_cell_angle_beta   90.00000000
_cell_angle_gamma   90.00000000
_symmetry_Int_Tables_number   1
_chemical_formula_structural   AcPdO3
_chemical_formula_sum   'Ac1 Pd1 O3'
_cell_volume   66.68667374
_cell_formula_units_Z   1
loop_
 _symmetry_equiv_pos_site_id
 _symmetry_equiv_pos_as_xyz
  1  'x, y, z'
loop_
 _atom_site_type_symbol
 _atom_site_label
 _atom_site_symmetry_multiplicity
 _atom_site_fract_x
 _atom_site_fract_y
 _atom_site_fract_z
 _atom_site_occupancy
  Ac  Ac0  1  -0.00000000  0.00000000  0.00000000  1
  Pd  Pd0  1  0.50000000  0.50000000  0.50000000  1
  O  O0  1  0.50000000  0.50000000  -0.00000000  1
  O  O1  1  0.50000000  0.00000000  0.50000000  1
  O  O2  1  -0.00000000  0.50000000  0.50000000  1
loop_
_geom_bond_atom_site_label_1
_geom_bond_atom_site_label_2
_geom_bond_distance
_geom_bond_site_symmetry_2
Ac0 O2 2.867464 1_555
Ac0 O2 2.867464 1_554
Ac0 O2 2.867464 1_544
Ac0 O2 2.867464 1_545
Ac0 O1 2.867464 1_555
Ac0 O1 2.867464 1_454
Ac0 O1 2.867464 1_554
Ac0 O1 2.867464 1_455
Ac0 O0 2.867465 1_545
Ac0 O0 2.867465 1_445
Ac0 O0 2.867465 1_455
Ac0 O0 2.867465 1_555
O0 Pd0 2.027603 1_555
O0 Pd0 2.027603 1_554
O1 Pd0 2.027603 1_545
O1 Pd0 2.027603 1_555
O2 Pd0 2.027604 1_555
O2 Pd0 2.027604 1_455
