# generated using pymatgen
data_Li7Mn2(CoO4)3
_symmetry_space_group_name_H-M   'P 1'
_cell_length_a   5.07798000
_cell_length_b   6.50820065
_cell_length_c   6.65109278
_cell_angle_alpha   83.35903924
_cell_angle_beta   82.83692681
_cell_angle_gamma   84.24808886
_symmetry_Int_Tables_number   1
_chemical_formula_structural   Li7Mn2(CoO4)3
_chemical_formula_sum   'Li7 Mn2 Co3 O12'
_cell_volume   215.80732167
_cell_formula_units_Z   1
loop_
 _symmetry_equiv_pos_site_id
 _symmetry_equiv_pos_as_xyz
  1  'x, y, z'
loop_
 _atom_site_type_symbol
 _atom_site_label
 _atom_site_symmetry_multiplicity
 _atom_site_fract_x
 _atom_site_fract_y
 _atom_site_fract_z
 _atom_site_occupancy
  Li  Li0  1  0.76071100  0.57994900  0.41227800  1
  Li  Li1  1  0.75531800  0.25769900  0.75410100  1
  Li  Li2  1  0.24468200  0.74230100  0.24589900  1
  Li  Li3  1  0.23928900  0.42005100  0.58772200  1
  Li  Li4  1  0.75745700  0.90725100  0.07874600  1
  Li  Li5  1  0.24254300  0.09274900  0.92125400  1
  Li  Li6  1  0.00000000  0.50000000  0.00000000  1
  Mn  Mn0  1  0.99711000  0.82860700  0.67146900  1
  Mn  Mn1  1  0.00289000  0.17139300  0.32853100  1
  Co  Co0  1  0.50000000  0.00000000  0.50000000  1
  Co  Co1  1  0.48956900  0.65564500  0.83842100  1
  Co  Co2  1  0.51043100  0.34435500  0.16157900  1
  O  O0  1  0.87428400  0.56469000  0.70566000  1
  O  O1  1  0.87040800  0.20189300  0.07175300  1
  O  O2  1  0.35542500  0.73007800  0.54946400  1
  O  O3  1  0.39644000  0.38373700  0.87347300  1
  O  O4  1  0.87830100  0.88638900  0.39215000  1
  O  O5  1  0.35304600  0.06013400  0.22100900  1
  O  O6  1  0.60356000  0.61626300  0.12652700  1
  O  O7  1  0.64457500  0.26992200  0.45053600  1
  O  O8  1  0.12959200  0.79810700  0.92824700  1
  O  O9  1  0.12571600  0.43531000  0.29434000  1
  O  O10  1  0.64695400  0.93986600  0.77899100  1
  O  O11  1  0.12169900  0.11361100  0.60785000  1
loop_
_geom_bond_atom_site_label_1
_geom_bond_atom_site_label_2
_geom_bond_distance
_geom_bond_site_symmetry_2
Li0 O0 2.091515 1_555
Li0 O9 2.096503 1_655
Li0 O4 2.123443 1_555
Li0 O6 2.131040 1_555
Li0 O7 2.136834 1_555
Li0 O2 2.314638 1_555
Li1 O3 2.028409 1_555
Li1 O0 2.122520 1_555
Li1 O7 2.153166 1_555
Li1 O11 2.167234 1_655
Li1 O10 2.176054 1_545
Li1 O1 2.241652 1_556
Li2 O6 2.028409 1_555
Li2 O9 2.122520 1_555
Li2 O2 2.153166 1_555
Li2 O4 2.167234 1_455
Li2 O5 2.176054 1_565
Li2 O8 2.241652 1_554
Li3 O9 2.091515 1_555
Li3 O0 2.096503 1_455
Li3 O11 2.123443 1_555
Li3 O3 2.131040 1_555
Li3 O2 2.136834 1_555
Li3 O7 2.314638 1_555
Li4 O1 2.049747 1_565
Li4 O6 2.096124 1_555
Li4 O10 2.119434 1_554
Li4 O8 2.121592 1_654
Li4 O4 2.230893 1_555
Li4 O5 2.329410 1_565
Li5 O8 2.049747 1_545
Li5 O3 2.096124 1_555
Li5 O5 2.119434 1_556
Li5 O1 2.121592 1_456
Li5 O11 2.230893 1_555
Li5 O10 2.329410 1_545
Li6 O8 2.094847 1_554
Li6 O1 2.094847 1_455
Li6 O9 2.117657 1_555
Li6 O0 2.117657 1_454
Li6 O3 2.180098 1_554
Li6 O6 2.180098 1_455
Mn0 O0 1.865470 1_555
Mn0 O8 1.894757 1_655
Mn0 O10 1.934402 1_555
Mn0 O2 1.974484 1_655
Mn0 O11 2.001685 1_665
Mn0 O4 2.007284 1_555
Mn1 O9 1.865470 1_555
Mn1 O1 1.894757 1_455
Mn1 O5 1.934402 1_555
Mn1 O7 1.974484 1_455
Mn1 O4 2.001685 1_445
Mn1 O11 2.007284 1_555
Co0 O2 1.948801 1_545
Co0 O7 1.948801 1_555
Co0 O4 2.060544 1_545
Co0 O11 2.060544 1_555
Co0 O5 2.066900 1_555
Co0 O10 2.066900 1_545
Co1 O3 1.858606 1_555
Co1 O8 2.018429 1_555
Co1 O6 2.050838 1_556
Co1 O10 2.065193 1_555
Co1 O0 2.098920 1_555
Co1 O2 2.106491 1_555
Co2 O6 1.858606 1_555
Co2 O1 2.018429 1_555
Co2 O3 2.050838 1_554
Co2 O5 2.065193 1_555
Co2 O9 2.098920 1_555
Co2 O7 2.106491 1_555
