# generated using pymatgen
data_Te2Mo2WS4
_symmetry_space_group_name_H-M   'P 1'
_cell_length_a   3.29410106
_cell_length_b   3.29410106
_cell_length_c   29.31508417
_cell_angle_alpha   90.00000000
_cell_angle_beta   90.00000000
_cell_angle_gamma   119.99999235
_symmetry_Int_Tables_number   1
_chemical_formula_structural   Te2Mo2WS4
_chemical_formula_sum   'Te2 Mo2 W1 S4'
_cell_volume   275.48353552
_cell_formula_units_Z   1
loop_
 _symmetry_equiv_pos_site_id
 _symmetry_equiv_pos_as_xyz
  1  'x, y, z'
loop_
 _atom_site_type_symbol
 _atom_site_label
 _atom_site_symmetry_multiplicity
 _atom_site_fract_x
 _atom_site_fract_y
 _atom_site_fract_z
 _atom_site_occupancy
  Te  Te0  1  0.66666700  0.33333300  0.51530183  1
  Te  Te1  1  0.66666700  0.33333300  0.64481301  1
  Mo  Mo0  1  0.33333300  0.66666700  0.11961300  1
  Mo  Mo1  1  0.33333300  0.66666700  0.58010210  1
  W  W0  1  0.66666700  0.33333300  0.34125438  1
  S  S0  1  0.33333300  0.66666700  0.39326735  1
  S  S1  1  0.66666700  0.33333300  0.06785049  1
  S  S2  1  0.66666700  0.33333300  0.17139357  1
  S  S3  1  0.33333300  0.66666700  0.28924527  1
loop_
_geom_bond_atom_site_label_1
_geom_bond_atom_site_label_2
_geom_bond_distance
_geom_bond_site_symmetry_2
Mo0 S1 2.433022 1_455
Mo0 S1 2.433022 1_565
Mo0 S1 2.433027 1_555
Mo0 S2 2.433353 1_455
Mo0 S2 2.433353 1_565
Mo0 S2 2.433357 1_555
Mo1 Te1 2.686198 1_455
Mo1 Te1 2.686198 1_565
Mo1 Te1 2.686202 1_555
Mo1 Te0 2.688048 1_455
Mo1 Te0 2.688048 1_565
Mo1 Te0 2.688052 1_555
S0 W0 2.437608 1_455
S0 W0 2.437608 1_565
S0 W0 2.437613 1_555
S3 W0 2.437538 1_455
S3 W0 2.437538 1_565
S3 W0 2.437542 1_555
