# generated using pymatgen
data_In2Ga(CuSe2)3
_symmetry_space_group_name_H-M   'P 1'
_cell_length_a   7.09582023
_cell_length_b   7.09582023
_cell_length_c   13.00124886
_cell_angle_alpha   79.38135801
_cell_angle_beta   100.61864199
_cell_angle_gamma   70.68615892
_symmetry_Int_Tables_number   1
_chemical_formula_structural   In2Ga(CuSe2)3
_chemical_formula_sum   'In4 Ga2 Cu6 Se12'
_cell_volume   585.59782131
_cell_formula_units_Z   2
loop_
 _symmetry_equiv_pos_site_id
 _symmetry_equiv_pos_as_xyz
  1  'x, y, z'
loop_
 _atom_site_type_symbol
 _atom_site_label
 _atom_site_symmetry_multiplicity
 _atom_site_fract_x
 _atom_site_fract_y
 _atom_site_fract_z
 _atom_site_occupancy
  In  In0  1  0.75026200  0.75026200  0.50000000  1
  In  In1  1  0.83375800  0.16678000  0.66835400  1
  In  In2  1  0.49992900  0.49992900  0.00000000  1
  In  In3  1  0.16678000  0.83375800  0.33164600  1
  Ga  Ga0  1  0.41683700  0.08347800  0.83325800  1
  Ga  Ga1  1  0.08347800  0.41683700  0.16674200  1
  Cu  Cu0  1  0.25135800  0.25135800  0.50000000  1
  Cu  Cu1  1  0.91641200  0.58208100  0.83495200  1
  Cu  Cu2  1  0.58208100  0.91641200  0.16504800  1
  Cu  Cu3  1  0.33507400  0.66492200  0.66798800  1
  Cu  Cu4  1  0.99995200  0.99995200  0.00000000  1
  Cu  Cu5  1  0.66492200  0.33507400  0.33201200  1
  Se  Se0  1  0.10358500  0.63584000  0.99916700  1
  Se  Se1  1  0.76988700  0.97968100  0.32177600  1
  Se  Se2  1  0.43630700  0.30287200  0.66466400  1
  Se  Se3  1  0.63584000  0.10358500  0.00083300  1
  Se  Se4  1  0.30287200  0.43630700  0.33533600  1
  Se  Se5  1  0.97968100  0.76988700  0.67822400  1
  Se  Se6  1  0.05034300  0.21145900  0.84427500  1
  Se  Se7  1  0.71610000  0.54551700  0.17651100  1
  Se  Se8  1  0.36420000  0.88336600  0.51060200  1
  Se  Se9  1  0.88336600  0.36420000  0.48939800  1
  Se  Se10  1  0.54551700  0.71610000  0.82348900  1
  Se  Se11  1  0.21145900  0.05034300  0.15572500  1
loop_
_geom_bond_atom_site_label_1
_geom_bond_atom_site_label_2
_geom_bond_distance
_geom_bond_site_symmetry_2
In0 Se9 2.625102 1_555
In0 Se8 2.625102 1_555
In0 Se5 2.630078 1_555
In0 Se1 2.630078 1_555
In1 Se5 2.628486 1_545
In1 Se9 2.631815 1_555
In1 Se6 2.643435 1_655
In1 Se2 2.649555 1_555
In2 Se7 2.651118 1_555
In2 Se10 2.651118 1_554
In2 Se0 2.651509 1_554
In2 Se3 2.651509 1_555
In3 Se1 2.628486 1_455
In3 Se8 2.631815 1_555
In3 Se11 2.643435 1_565
In3 Se4 2.649555 1_555
Ga0 Se3 2.489058 1_556
Ga0 Se6 2.496242 1_555
Ga0 Se10 2.497151 1_545
Ga0 Se2 2.498699 1_555
Ga1 Se0 2.489058 1_554
Ga1 Se11 2.496242 1_555
Ga1 Se7 2.497151 1_455
Ga1 Se4 2.498699 1_555
Cu0 Se8 2.433549 1_545
Cu0 Se9 2.433549 1_455
Cu0 Se2 2.451405 1_555
Cu0 Se4 2.451405 1_555
Cu1 Se5 2.421088 1_555
Cu1 Se10 2.449617 1_555
Cu1 Se6 2.453748 1_655
Cu1 Se0 2.461293 1_655
Cu2 Se1 2.421088 1_555
Cu2 Se7 2.449617 1_555
Cu2 Se11 2.453748 1_565
Cu2 Se3 2.461293 1_565
Cu3 Se8 2.414784 1_555
Cu3 Se5 2.418620 1_455
Cu3 Se2 2.439156 1_555
Cu3 Se10 2.442478 1_555
Cu4 Se3 2.443913 1_565
Cu4 Se0 2.443913 1_654
Cu4 Se11 2.445673 1_665
Cu4 Se6 2.445673 1_664
Cu5 Se9 2.414784 1_555
Cu5 Se1 2.418620 1_545
Cu5 Se4 2.439156 1_555
Cu5 Se7 2.442478 1_555
