# generated using pymatgen
data_Na3CaFe4(SiO3)8
_symmetry_space_group_name_H-M   'P 1'
_cell_length_a   7.57679582
_cell_length_b   7.57679582
_cell_length_c   9.84844057
_cell_angle_alpha   63.79151123
_cell_angle_beta   63.79151123
_cell_angle_gamma   72.26343904
_symmetry_Int_Tables_number   1
_chemical_formula_structural   Na3CaFe4(SiO3)8
_chemical_formula_sum   'Na3 Ca1 Fe4 Si8 O24'
_cell_volume   450.86574072
_cell_formula_units_Z   1
loop_
 _symmetry_equiv_pos_site_id
 _symmetry_equiv_pos_as_xyz
  1  'x, y, z'
loop_
 _atom_site_type_symbol
 _atom_site_label
 _atom_site_symmetry_multiplicity
 _atom_site_fract_x
 _atom_site_fract_y
 _atom_site_fract_z
 _atom_site_occupancy
  Na  Na0  1  0.92374800  0.07625200  0.00000000  1
  Na  Na1  1  0.07718800  0.42497900  0.24808300  1
  Na  Na2  1  0.57502100  0.92281200  0.75191700  1
  Ca  Ca0  1  0.42487300  0.57512700  0.50000000  1
  Fe  Fe0  1  0.02297400  0.97702600  0.50000000  1
  Fe  Fe1  1  0.52381800  0.47618200  0.00000000  1
  Fe  Fe2  1  0.47694400  0.03025400  0.24396700  1
  Fe  Fe3  1  0.96974600  0.52305600  0.75603300  1
  Si  Si0  1  0.72172400  0.29002100  0.70597800  1
  Si  Si1  1  0.22138000  0.79207700  0.20252100  1
  Si  Si2  1  0.70997900  0.27827600  0.29402200  1
  Si  Si3  1  0.20792300  0.77862000  0.79747900  1
  Si  Si4  1  0.77682200  0.70789300  0.04696500  1
  Si  Si5  1  0.27726400  0.20469200  0.54630500  1
  Si  Si6  1  0.79530800  0.72273600  0.45369500  1
  Si  Si7  1  0.29210700  0.22317800  0.95303500  1
  O  O0  1  0.75481500  0.34686200  0.83354500  1
  O  O1  1  0.25841600  0.84111400  0.33479600  1
  O  O2  1  0.65313800  0.24518500  0.16645500  1
  O  O3  1  0.15888600  0.74158400  0.66520400  1
  O  O4  1  0.73507400  0.64883100  0.92332200  1
  O  O5  1  0.23785800  0.14738200  0.42071600  1
  O  O6  1  0.85261800  0.76214200  0.57928400  1
  O  O7  1  0.35116900  0.26492600  0.07667800  1
  O  O8  1  0.75269700  0.48527300  0.53221500  1
  O  O9  1  0.25729300  0.98572600  0.03109700  1
  O  O10  1  0.51472700  0.24730300  0.46778500  1
  O  O11  1  0.01427400  0.74270700  0.96890300  1
  O  O12  1  0.74058600  0.51669900  0.22487600  1
  O  O13  1  0.24523700  0.01509000  0.72066300  1
  O  O14  1  0.98491000  0.75476300  0.27933700  1
  O  O15  1  0.48330100  0.25941400  0.77512400  1
  O  O16  1  0.85107400  0.09393200  0.66664800  1
  O  O17  1  0.35066800  0.59346200  0.16759100  1
  O  O18  1  0.90606800  0.14892600  0.33335200  1
  O  O19  1  0.40653800  0.64933200  0.83240900  1
  O  O20  1  0.64970800  0.90583200  0.08086200  1
  O  O21  1  0.15788400  0.40793000  0.57804700  1
  O  O22  1  0.59207000  0.84211600  0.42195300  1
  O  O23  1  0.09416800  0.35029200  0.91913800  1
loop_
_geom_bond_atom_site_label_1
_geom_bond_atom_site_label_2
_geom_bond_distance
_geom_bond_site_symmetry_2
Na0 O2 2.411466 1_555
Na0 O0 2.411466 1_554
Na0 O23 2.424340 1_654
Na0 O20 2.424340 1_545
Na0 O9 2.528431 1_645
Na0 O11 2.528431 1_644
Na0 O14 2.869787 1_545
Na0 O13 2.869787 1_654
Na1 O7 2.410116 1_555
Na1 O17 2.412170 1_555
Na1 O18 2.429021 1_455
Na1 O5 2.430210 1_555
Na1 O14 2.500387 1_455
Na1 O12 2.516792 1_455
Na1 O11 2.862578 1_554
Na1 O8 2.907179 1_455
Na2 O4 2.410116 1_555
Na2 O19 2.412170 1_555
Na2 O16 2.429021 1_565
Na2 O6 2.430210 1_555
Na2 O13 2.500387 1_565
Na2 O15 2.516792 1_565
Na2 O9 2.862578 1_556
Na2 O10 2.907179 1_565
Ca0 O21 2.369758 1_555
Ca0 O22 2.369758 1_555
Ca0 O1 2.380537 1_555
Ca0 O3 2.380537 1_555
Ca0 O10 2.491719 1_555
Ca0 O8 2.491719 1_555
Ca0 O15 2.819406 1_555
Ca0 O12 2.819406 1_555
Fe0 O18 1.966630 1_465
Fe0 O16 1.966630 1_465
Fe0 O6 2.047889 1_455
Fe0 O5 2.047889 1_565
Fe0 O3 2.164916 1_555
Fe0 O1 2.164916 1_555
Fe1 O17 1.976745 1_555
Fe1 O19 1.976745 1_554
Fe1 O4 2.044277 1_554
Fe1 O7 2.044277 1_555
Fe1 O2 2.133152 1_555
Fe1 O0 2.133152 1_554
Fe2 O20 1.977609 1_545
Fe2 O22 2.061889 1_545
Fe2 O2 2.084059 1_555
Fe2 O7 2.133294 1_555
Fe2 O1 2.144889 1_545
Fe2 O5 2.167700 1_555
Fe3 O23 1.977609 1_655
Fe3 O21 2.061889 1_655
Fe3 O0 2.084059 1_555
Fe3 O4 2.133294 1_555
Fe3 O3 2.144889 1_655
Fe3 O6 2.167700 1_555
O0 Si0 1.627468 1_555
O1 Si1 1.651590 1_555
O2 Si2 1.627468 1_555
O3 Si3 1.651590 1_555
O4 Si4 1.640384 1_556
O5 Si5 1.639229 1_555
O6 Si6 1.639229 1_555
O7 Si7 1.640384 1_554
O8 Si0 1.671174 1_555
O8 Si6 1.686372 1_555
O9 Si1 1.651239 1_555
O9 Si7 1.669069 1_564
O10 Si2 1.671174 1_555
O10 Si5 1.686372 1_555
O11 Si3 1.651239 1_555
O11 Si4 1.669069 1_456
O12 Si2 1.676323 1_555
O12 Si4 1.679110 1_555
O13 Si5 1.654301 1_555
O13 Si3 1.668791 1_545
O14 Si6 1.654301 1_555
O14 Si1 1.668791 1_655
O15 Si0 1.676323 1_555
O15 Si7 1.679110 1_555
O16 Si0 1.613616 1_555
O17 Si1 1.613688 1_555
O18 Si2 1.613616 1_555
O19 Si3 1.613688 1_555
O20 Si4 1.602011 1_555
O21 Si5 1.616769 1_555
O22 Si6 1.616769 1_555
O23 Si7 1.602011 1_555
