# generated using pymatgen
data_MgNiSb
_symmetry_space_group_name_H-M   'P 1'
_cell_length_a   4.26666704
_cell_length_b   4.26666633
_cell_length_c   4.26666719
_cell_angle_alpha   60.00000119
_cell_angle_beta   60.00000664
_cell_angle_gamma   59.99999445
_symmetry_Int_Tables_number   1
_chemical_formula_structural   MgNiSb
_chemical_formula_sum   'Mg1 Ni1 Sb1'
_cell_volume   54.92261557
_cell_formula_units_Z   1
loop_
 _symmetry_equiv_pos_site_id
 _symmetry_equiv_pos_as_xyz
  1  'x, y, z'
loop_
 _atom_site_type_symbol
 _atom_site_label
 _atom_site_symmetry_multiplicity
 _atom_site_fract_x
 _atom_site_fract_y
 _atom_site_fract_z
 _atom_site_occupancy
  Mg  Mg0  1  0.50000000  0.50000000  0.50000000  1
  Ni  Ni0  1  0.25000000  0.25000000  0.25000000  1
  Sb  Sb0  1  -0.00000000  -0.00000000  -0.00000000  1
loop_
_geom_bond_atom_site_label_1
_geom_bond_atom_site_label_2
_geom_bond_distance
_geom_bond_site_symmetry_2
Mg0 Ni0 2.612789 1_565
Mg0 Ni0 2.612789 1_555
Mg0 Ni0 2.612789 1_655
Mg0 Ni0 2.612790 1_556
Mg0 Sb0 3.016989 1_655
Mg0 Sb0 3.016989 1_565
Mg0 Sb0 3.016989 1_566
Mg0 Sb0 3.016989 1_656
Mg0 Sb0 3.016989 1_556
Mg0 Sb0 3.016989 1_665
Ni0 Sb0 2.612789 1_565
Ni0 Sb0 2.612789 1_555
Ni0 Sb0 2.612789 1_655
Ni0 Sb0 2.612790 1_556
