# generated using pymatgen
data_CaSeO4
_symmetry_space_group_name_H-M   'P 1'
_cell_length_a   6.70246300
_cell_length_b   7.75136000
_cell_length_c   8.23318047
_cell_angle_alpha   70.24470815
_cell_angle_beta   90.00000000
_cell_angle_gamma   90.00000000
_symmetry_Int_Tables_number   1
_chemical_formula_structural   CaSeO4
_chemical_formula_sum   'Ca4 Se4 O16'
_cell_volume   402.56537271
_cell_formula_units_Z   4
loop_
 _symmetry_equiv_pos_site_id
 _symmetry_equiv_pos_as_xyz
  1  'x, y, z'
loop_
 _atom_site_type_symbol
 _atom_site_label
 _atom_site_symmetry_multiplicity
 _atom_site_fract_x
 _atom_site_fract_y
 _atom_site_fract_z
 _atom_site_occupancy
  Ca  Ca0  1  0.64121500  0.15039300  0.09250500  1
  Ca  Ca1  1  0.14121500  0.34960700  0.90749500  1
  Ca  Ca2  1  0.35878500  0.84960700  0.90749500  1
  Ca  Ca3  1  0.85878500  0.65039300  0.09250500  1
  Se  Se0  1  0.14925700  0.98076700  0.26679700  1
  Se  Se1  1  0.64925700  0.51923300  0.73320300  1
  Se  Se2  1  0.85074300  0.01923300  0.73320300  1
  Se  Se3  1  0.35074300  0.48076700  0.26679700  1
  O  O0  1  0.02349000  0.79740900  0.25344400  1
  O  O1  1  0.52349000  0.70259100  0.74655600  1
  O  O2  1  0.97651000  0.20259100  0.74655600  1
  O  O3  1  0.47651000  0.29740900  0.25344400  1
  O  O4  1  0.97610300  0.15960300  0.17934900  1
  O  O5  1  0.47610300  0.34039700  0.82065100  1
  O  O6  1  0.02389700  0.84039700  0.82065100  1
  O  O7  1  0.52389700  0.65960300  0.17934900  1
  O  O8  1  0.29923500  0.04314200  0.08129000  1
  O  O9  1  0.79923500  0.45685800  0.91871000  1
  O  O10  1  0.70076500  0.95685800  0.91871000  1
  O  O11  1  0.20076500  0.54314200  0.08129000  1
  O  O12  1  0.60831500  0.84837600  0.32448800  1
  O  O13  1  0.10831500  0.65162400  0.67551200  1
  O  O14  1  0.39168500  0.15162400  0.67551200  1
  O  O15  1  0.89168500  0.34837600  0.32448800  1
loop_
_geom_bond_atom_site_label_1
_geom_bond_atom_site_label_2
_geom_bond_distance
_geom_bond_site_symmetry_2
Ca0 O3 2.300821 1_555
Ca0 O4 2.364095 1_555
Ca0 O10 2.430701 1_544
Ca0 O8 2.450573 1_555
Ca0 O12 2.480810 1_545
Ca0 O5 2.484961 1_554
Ca0 O9 2.552344 1_554
Ca1 O2 2.300821 1_455
Ca1 O5 2.364095 1_555
Ca1 O11 2.430701 1_556
Ca1 O9 2.450573 1_455
Ca1 O13 2.480810 1_555
Ca1 O4 2.484961 1_456
Ca1 O8 2.552344 1_556
Ca2 O1 2.300821 1_555
Ca2 O6 2.364095 1_555
Ca2 O8 2.430701 1_566
Ca2 O10 2.450573 1_555
Ca2 O14 2.480810 1_565
Ca2 O7 2.484961 1_556
Ca2 O11 2.552344 1_556
Ca3 O0 2.300821 1_655
Ca3 O7 2.364095 1_555
Ca3 O9 2.430701 1_554
Ca3 O11 2.450573 1_655
Ca3 O15 2.480810 1_555
Ca3 O6 2.484961 1_654
Ca3 O10 2.552344 1_554
O0 Se0 1.687689 1_555
O1 Se1 1.687689 1_555
O2 Se2 1.687689 1_555
O3 Se3 1.687689 1_555
O4 Se0 1.764139 1_645
O5 Se1 1.764139 1_555
O6 Se2 1.764139 1_465
O7 Se3 1.764139 1_555
O8 Se0 1.754345 1_545
O9 Se1 1.754345 1_555
O10 Se2 1.754345 1_565
O11 Se3 1.754345 1_555
