# generated using pymatgen
data_OsBr3N5O
_symmetry_space_group_name_H-M   'P 1'
_cell_length_a   7.01675834
_cell_length_b   7.01675834
_cell_length_c   7.01675834
_cell_angle_alpha   129.67904844
_cell_angle_beta   129.67904844
_cell_angle_gamma   73.92038222
_symmetry_Int_Tables_number   1
_chemical_formula_structural   OsBr3N5O
_chemical_formula_sum   'Os1 Br3 N5 O1'
_cell_volume   199.59056026
_cell_formula_units_Z   1
loop_
 _symmetry_equiv_pos_site_id
 _symmetry_equiv_pos_as_xyz
  1  'x, y, z'
loop_
 _atom_site_type_symbol
 _atom_site_label
 _atom_site_symmetry_multiplicity
 _atom_site_fract_x
 _atom_site_fract_y
 _atom_site_fract_z
 _atom_site_occupancy
  Os  Os0  1  0.99377600  0.99377600  0.00000000  1
  Br  Br0  1  0.75173000  0.75173000  0.00000000  1
  Br  Br1  1  0.90796500  0.40796500  0.50000000  1
  Br  Br2  1  0.40796500  0.90796500  0.50000000  1
  N  N0  1  0.15662500  0.15662500  0.00000000  1
  N  N1  1  0.73505500  0.19184500  0.00000000  1
  N  N2  1  0.19184500  0.73505500  0.00000000  1
  N  N3  1  0.19184500  0.19184500  0.45678900  1
  N  N4  1  0.73505500  0.73505500  0.54321100  1
  O  O0  1  0.26163700  0.26163700  0.00000000  1
loop_
_geom_bond_atom_site_label_1
_geom_bond_atom_site_label_2
_geom_bond_distance
_geom_bond_site_symmetry_2
Br0 Os0 2.714190 1_555
Br1 N4 2.206832 1_555
Br1 N1 2.206834 1_555
Br1 N2 2.206834 1_656
Br1 N3 2.206836 1_655
Br2 N4 2.206832 1_555
Br2 N2 2.206834 1_555
Br2 N1 2.206834 1_566
Br2 N3 2.206836 1_565
N0 O0 1.177555 1_555
N0 Os0 1.826112 1_445
N1 Os0 1.956923 1_545
N2 Os0 1.956923 1_455
N3 Os0 1.956918 1_445
N4 Os0 1.956920 1_556
