# generated using pymatgen
data_Ca2Al(SiO3)4
_symmetry_space_group_name_H-M   'P 1'
_cell_length_a   4.81806400
_cell_length_b   5.37158200
_cell_length_c   18.54124000
_cell_angle_alpha   90.00000000
_cell_angle_beta   90.00000000
_cell_angle_gamma   90.00000000
_symmetry_Int_Tables_number   1
_chemical_formula_structural   Ca2Al(SiO3)4
_chemical_formula_sum   'Ca4 Al2 Si8 O24'
_cell_volume   479.85889537
_cell_formula_units_Z   2
loop_
 _symmetry_equiv_pos_site_id
 _symmetry_equiv_pos_as_xyz
  1  'x, y, z'
loop_
 _atom_site_type_symbol
 _atom_site_label
 _atom_site_symmetry_multiplicity
 _atom_site_fract_x
 _atom_site_fract_y
 _atom_site_fract_z
 _atom_site_occupancy
  Ca  Ca0  1  0.00000000  0.00000000  0.40597500  1
  Ca  Ca1  1  0.00000000  0.00000000  0.59402500  1
  Ca  Ca2  1  0.00000000  0.50000000  0.09402500  1
  Ca  Ca3  1  0.00000000  0.50000000  0.90597500  1
  Al  Al0  1  0.00000000  0.00000000  0.00000000  1
  Al  Al1  1  0.00000000  0.50000000  0.50000000  1
  Si  Si0  1  0.50000000  0.00000000  0.11913500  1
  Si  Si1  1  0.50000000  0.00000000  0.88086500  1
  Si  Si2  1  0.50000000  0.50000000  0.38086500  1
  Si  Si3  1  0.50000000  0.50000000  0.61913500  1
  Si  Si4  1  0.19047800  0.25000000  0.25000000  1
  Si  Si5  1  0.80952200  0.75000000  0.75000000  1
  Si  Si6  1  0.80952200  0.75000000  0.25000000  1
  Si  Si7  1  0.19047800  0.25000000  0.75000000  1
  O  O0  1  0.36662200  0.21854700  0.17632300  1
  O  O1  1  0.63337800  0.78145300  0.82367700  1
  O  O2  1  0.63337800  0.71854700  0.32367700  1
  O  O3  1  0.36662200  0.28145300  0.32367700  1
  O  O4  1  0.36662200  0.28145300  0.67632300  1
  O  O5  1  0.63337800  0.71854700  0.67632300  1
  O  O6  1  0.63337800  0.78145300  0.17632300  1
  O  O7  1  0.36662200  0.21854700  0.82367700  1
  O  O8  1  0.75359900  0.12957100  0.07808000  1
  O  O9  1  0.24640100  0.87042900  0.92192000  1
  O  O10  1  0.24640100  0.62957100  0.42192000  1
  O  O11  1  0.75359900  0.37042900  0.42192000  1
  O  O12  1  0.75359900  0.37042900  0.57808000  1
  O  O13  1  0.24640100  0.62957100  0.57808000  1
  O  O14  1  0.24640100  0.87042900  0.07808000  1
  O  O15  1  0.75359900  0.12957100  0.92192000  1
  O  O16  1  0.17893000  0.30359800  0.00000000  1
  O  O17  1  0.82107000  0.69640200  0.00000000  1
  O  O18  1  0.82107000  0.80359800  0.50000000  1
  O  O19  1  0.17893000  0.19640200  0.50000000  1
  O  O20  1  0.00000000  0.00000000  0.26626400  1
  O  O21  1  0.00000000  0.00000000  0.73373600  1
  O  O22  1  0.00000000  0.50000000  0.23373600  1
  O  O23  1  0.00000000  0.50000000  0.76626400  1
loop_
_geom_bond_atom_site_label_1
_geom_bond_atom_site_label_2
_geom_bond_distance
_geom_bond_site_symmetry_2
Ca0 O18 2.212566 1_445
Ca0 O19 2.212566 1_555
Ca0 O11 2.335819 1_455
Ca0 O10 2.335819 1_545
Ca0 O20 2.590415 1_555
Ca0 O2 2.781056 1_445
Ca0 O3 2.781056 1_555
Ca1 O18 2.212566 1_445
Ca1 O19 2.212566 1_555
Ca1 O12 2.335819 1_455
Ca1 O13 2.335819 1_545
Ca1 O21 2.590415 1_555
Ca1 O5 2.781056 1_445
Ca1 O4 2.781056 1_555
Ca2 O16 2.212566 1_555
Ca2 O17 2.212566 1_455
Ca2 O8 2.335819 1_455
Ca2 O14 2.335819 1_555
Ca2 O22 2.590415 1_555
Ca2 O0 2.781056 1_555
Ca2 O6 2.781056 1_455
Ca3 O17 2.212566 1_456
Ca3 O16 2.212566 1_556
Ca3 O15 2.335819 1_455
Ca3 O9 2.335819 1_555
Ca3 O23 2.590415 1_555
Ca3 O1 2.781056 1_455
Ca3 O7 2.781056 1_555
Al0 O16 1.844647 1_555
Al0 O17 1.844647 1_445
Al0 O8 1.997408 1_455
Al0 O14 1.997408 1_545
Al0 O9 1.997408 1_544
Al0 O15 1.997408 1_454
Al1 O19 1.844647 1_555
Al1 O18 1.844647 1_455
Al1 O11 1.997408 1_455
Al1 O10 1.997408 1_555
Al1 O13 1.997408 1_555
Al1 O12 1.997408 1_455
O0 Si4 1.617071 1_555
O0 Si0 1.707460 1_555
O1 Si5 1.617071 1_555
O1 Si1 1.707460 1_565
O2 Si6 1.617071 1_555
O2 Si2 1.707460 1_555
O3 Si4 1.617071 1_555
O3 Si2 1.707460 1_555
O4 Si7 1.617071 1_555
O4 Si3 1.707460 1_555
O5 Si5 1.617071 1_555
O5 Si3 1.707460 1_555
O6 Si6 1.617071 1_555
O6 Si0 1.707460 1_565
O7 Si7 1.617071 1_555
O7 Si1 1.707460 1_555
O8 Si0 1.598997 1_555
O9 Si1 1.598997 1_565
O10 Si2 1.598997 1_555
O11 Si2 1.598997 1_555
O12 Si3 1.598997 1_555
O13 Si3 1.598997 1_555
O14 Si0 1.598997 1_565
O15 Si1 1.598997 1_555
O20 Si4 1.654250 1_555
O20 Si6 1.654250 1_445
O21 Si7 1.654250 1_555
O21 Si5 1.654250 1_445
O22 Si4 1.654250 1_555
O22 Si6 1.654250 1_455
O23 Si7 1.654250 1_555
O23 Si5 1.654250 1_455
