# generated using pymatgen
data_AlSiMo6
_symmetry_space_group_name_H-M   'P 1'
_cell_length_a   4.92177473
_cell_length_b   4.92177473
_cell_length_c   4.92177473
_cell_angle_alpha   90.00000000
_cell_angle_beta   90.00000000
_cell_angle_gamma   90.00000000
_symmetry_Int_Tables_number   1
_chemical_formula_structural   AlSiMo6
_chemical_formula_sum   'Al1 Si1 Mo6'
_cell_volume   119.22441397
_cell_formula_units_Z   1
loop_
 _symmetry_equiv_pos_site_id
 _symmetry_equiv_pos_as_xyz
  1  'x, y, z'
loop_
 _atom_site_type_symbol
 _atom_site_label
 _atom_site_symmetry_multiplicity
 _atom_site_fract_x
 _atom_site_fract_y
 _atom_site_fract_z
 _atom_site_occupancy
  Al  Al0  1  0.50000000  0.50000000  0.50000000  1
  Si  Si0  1  0.00000000  0.00000000  -0.00000000  1
  Mo  Mo0  1  0.50000000  0.75175969  0.00000000  1
  Mo  Mo1  1  0.24824031  0.00000000  0.50000000  1
  Mo  Mo2  1  0.00000000  0.50000000  0.75175969  1
  Mo  Mo3  1  0.50000000  0.24824031  -0.00000000  1
  Mo  Mo4  1  0.75175969  0.00000000  0.50000000  1
  Mo  Mo5  1  0.00000000  0.50000000  0.24824031  1
loop_
_geom_bond_atom_site_label_1
_geom_bond_atom_site_label_2
_geom_bond_distance
_geom_bond_site_symmetry_2
Al0 Mo2 2.755240 1_555
Al0 Mo5 2.755240 1_655
Al0 Mo5 2.755240 1_555
Al0 Mo1 2.755240 1_565
Al0 Mo3 2.755240 1_555
Al0 Mo0 2.755240 1_555
Al0 Mo2 2.755240 1_655
Al0 Mo4 2.755240 1_565
Al0 Mo1 2.755240 1_555
Al0 Mo4 2.755240 1_555
Al0 Mo0 2.755240 1_556
Al0 Mo3 2.755240 1_556
Mo0 Mo3 2.443566 1_565
Mo0 Mo3 2.478209 1_555
Mo0 Si0 2.747493 1_665
Mo0 Si0 2.747493 1_565
Mo1 Mo4 2.443566 1_455
Mo1 Mo4 2.478209 1_555
Mo1 Si0 2.747493 1_556
Mo1 Si0 2.747493 1_555
Mo2 Mo5 2.443566 1_556
Mo2 Mo5 2.478209 1_555
Mo2 Si0 2.747493 1_556
Mo2 Si0 2.747493 1_566
Mo3 Si0 2.747493 1_555
Mo3 Si0 2.747493 1_655
Mo4 Si0 2.747493 1_655
Mo4 Si0 2.747493 1_656
Mo5 Si0 2.747493 1_555
Mo5 Si0 2.747493 1_565
