# generated using pymatgen
data_CaAl2Si3O13
_symmetry_space_group_name_H-M   'P 1'
_cell_length_a   9.78354446
_cell_length_b   9.78354446
_cell_length_c   9.81104815
_cell_angle_alpha   83.94759010
_cell_angle_beta   83.94759010
_cell_angle_gamma   140.37477188
_symmetry_Int_Tables_number   1
_chemical_formula_structural   CaAl2Si3O13
_chemical_formula_sum   'Ca2 Al4 Si6 O26'
_cell_volume   569.20236155
_cell_formula_units_Z   2
loop_
 _symmetry_equiv_pos_site_id
 _symmetry_equiv_pos_as_xyz
  1  'x, y, z'
loop_
 _atom_site_type_symbol
 _atom_site_label
 _atom_site_symmetry_multiplicity
 _atom_site_fract_x
 _atom_site_fract_y
 _atom_site_fract_z
 _atom_site_occupancy
  Ca  Ca0  1  0.24228700  0.03472000  0.44447200  1
  Ca  Ca1  1  0.03472000  0.24228700  0.94447200  1
  Al  Al0  1  0.18086300  0.62239000  0.41652000  1
  Al  Al1  1  0.62239000  0.18086300  0.91652000  1
  Al  Al2  1  0.36927900  0.30996400  0.06014200  1
  Al  Al3  1  0.30996400  0.36927900  0.56014200  1
  Si  Si0  1  0.63776500  0.88081100  0.49465400  1
  Si  Si1  1  0.88081100  0.63776500  0.99465400  1
  Si  Si2  1  0.13143800  0.30598800  0.29580000  1
  Si  Si3  1  0.30598800  0.13143800  0.79580000  1
  Si  Si4  1  0.20721400  0.87850300  0.17751900  1
  Si  Si5  1  0.87850300  0.20721400  0.67751900  1
  O  O0  1  0.40121800  0.95078600  0.06767500  1
  O  O1  1  0.95078600  0.40121800  0.56767500  1
  O  O2  1  0.15869300  0.77533300  0.34408400  1
  O  O3  1  0.77533300  0.15869300  0.84408400  1
  O  O4  1  0.28404100  0.09719400  0.18584100  1
  O  O5  1  0.09719400  0.28404100  0.68584100  1
  O  O6  1  0.65935700  0.56207000  0.02325600  1
  O  O7  1  0.56207000  0.65935700  0.52325600  1
  O  O8  1  0.20224400  0.31650900  0.13205100  1
  O  O9  1  0.31650900  0.20224400  0.63205100  1
  O  O10  1  0.23898200  0.28437800  0.40190600  1
  O  O11  1  0.28437800  0.23898200  0.90190600  1
  O  O12  1  0.85662300  0.07228000  0.35427900  1
  O  O13  1  0.07228000  0.85662300  0.85427900  1
  O  O14  1  0.20515200  0.52008300  0.29569100  1
  O  O15  1  0.52008300  0.20515200  0.79569100  1
  O  O16  1  0.97038700  0.69694500  0.13582500  1
  O  O17  1  0.69694500  0.97038700  0.63582500  1
  O  O18  1  0.43405200  0.81542200  0.46521900  1
  O  O19  1  0.81542200  0.43405200  0.96521900  1
  O  O20  1  0.65207900  0.28405900  0.38461800  1
  O  O21  1  0.28405900  0.65207900  0.88461800  1
  O  O22  1  0.69200200  0.81943000  0.05616200  1
  O  O23  1  0.81943000  0.69200200  0.55616200  1
  O  O24  1  0.83913600  0.26852300  0.12318400  1
  O  O25  1  0.26852300  0.83913600  0.62318400  1
loop_
_geom_bond_atom_site_label_1
_geom_bond_atom_site_label_2
_geom_bond_distance
_geom_bond_site_symmetry_2
Ca0 O2 2.361931 1_545
Ca0 O9 2.384306 1_555
Ca0 O4 2.459431 1_555
Ca0 O10 2.459850 1_555
Ca0 O23 2.541485 1_445
Ca0 O20 2.550467 1_555
Ca0 O25 2.635460 1_545
Ca1 O3 2.361931 1_455
Ca1 O8 2.384306 1_556
Ca1 O5 2.459431 1_555
Ca1 O11 2.459850 1_555
Ca1 O22 2.541485 1_446
Ca1 O21 2.550467 1_555
Ca1 O24 2.635460 1_456
Al0 O14 1.738059 1_555
Al0 O1 1.750570 1_455
Al0 O2 1.760487 1_555
Al0 O18 1.778837 1_555
Al1 O15 1.738059 1_555
Al1 O0 1.750570 1_546
Al1 O3 1.760487 1_555
Al1 O19 1.778837 1_555
Al2 O6 1.755238 1_555
Al2 O8 1.760689 1_555
Al2 O4 1.765551 1_555
Al2 O11 1.786907 1_554
Al3 O7 1.755238 1_555
Al3 O9 1.760689 1_555
Al3 O5 1.765551 1_555
Al3 O10 1.786907 1_555
O0 Si4 1.613790 1_555
O1 Si5 1.613790 1_555
O2 Si4 1.632532 1_555
O3 Si5 1.632532 1_555
O4 Si4 1.649795 1_545
O5 Si5 1.649795 1_455
O6 Si1 1.636347 1_554
O7 Si0 1.636347 1_555
O8 Si2 1.640754 1_555
O9 Si3 1.640754 1_555
O10 Si2 1.662133 1_555
O11 Si3 1.662133 1_555
O12 Si0 1.626609 1_545
O12 Si2 1.647431 1_655
O13 Si1 1.626609 1_455
O13 Si3 1.647431 1_565
O14 Si2 1.606185 1_555
O15 Si3 1.606185 1_555
O16 Si1 1.632483 1_554
O16 Si4 1.644414 1_655
O17 Si0 1.632483 1_555
O17 Si5 1.644414 1_565
O18 Si0 1.631277 1_555
O19 Si1 1.631277 1_555
