# generated using pymatgen
data_Rb4Te(MoO4)6
_symmetry_space_group_name_H-M   'P 1'
_cell_length_a   11.62782352
_cell_length_b   11.62782352
_cell_length_c   15.82746937
_cell_angle_alpha   62.19784082
_cell_angle_beta   62.19784082
_cell_angle_gamma   39.64854354
_symmetry_Int_Tables_number   1
_chemical_formula_structural   Rb4Te(MoO4)6
_chemical_formula_sum   'Rb8 Te2 Mo12 O48'
_cell_volume   1185.81947656
_cell_formula_units_Z   2
loop_
 _symmetry_equiv_pos_site_id
 _symmetry_equiv_pos_as_xyz
  1  'x, y, z'
loop_
 _atom_site_type_symbol
 _atom_site_label
 _atom_site_symmetry_multiplicity
 _atom_site_fract_x
 _atom_site_fract_y
 _atom_site_fract_z
 _atom_site_occupancy
  Rb  Rb0  1  0.72617400  0.67158900  0.44148700  1
  Rb  Rb1  1  0.32841100  0.27382600  0.05851300  1
  Rb  Rb2  1  0.27382600  0.32841100  0.55851300  1
  Rb  Rb3  1  0.67158900  0.72617400  0.94148700  1
  Rb  Rb4  1  0.70600500  0.62637200  0.22404100  1
  Rb  Rb5  1  0.37362800  0.29399500  0.27595900  1
  Rb  Rb6  1  0.29399500  0.37362800  0.77595900  1
  Rb  Rb7  1  0.62637200  0.70600500  0.72404100  1
  Te  Te0  1  0.88013900  0.11986100  0.25000000  1
  Te  Te1  1  0.11986100  0.88013900  0.75000000  1
  Mo  Mo0  1  0.78653300  0.22827300  0.47471300  1
  Mo  Mo1  1  0.77172700  0.21346700  0.02528700  1
  Mo  Mo2  1  0.21346700  0.77172700  0.52528700  1
  Mo  Mo3  1  0.22827300  0.78653300  0.97471300  1
  Mo  Mo4  1  0.90437800  0.82117600  0.17906700  1
  Mo  Mo5  1  0.17882400  0.09562200  0.32093300  1
  Mo  Mo6  1  0.09562200  0.17882400  0.82093300  1
  Mo  Mo7  1  0.82117600  0.90437800  0.67906700  1
  Mo  Mo8  1  0.07444700  0.20516100  0.02761500  1
  Mo  Mo9  1  0.79483900  0.92555300  0.47238500  1
  Mo  Mo10  1  0.92555300  0.79483900  0.97238500  1
  Mo  Mo11  1  0.20516100  0.07444700  0.52761500  1
  O  O0  1  0.03584800  0.09954500  0.47550600  1
  O  O1  1  0.90045500  0.96415200  0.02449400  1
  O  O2  1  0.96415200  0.90045500  0.52449400  1
  O  O3  1  0.09954500  0.03584800  0.97550600  1
  O  O4  1  0.19971900  0.70859700  0.10303300  1
  O  O5  1  0.29140300  0.80028100  0.39696700  1
  O  O6  1  0.80028100  0.29140300  0.89696700  1
  O  O7  1  0.70859700  0.19971900  0.60303300  1
  O  O8  1  0.79342300  0.31957100  0.06847200  1
  O  O9  1  0.68042900  0.20657700  0.43152800  1
  O  O10  1  0.20657700  0.68042900  0.93152800  1
  O  O11  1  0.31957100  0.79342300  0.56847200  1
  O  O12  1  0.96495700  0.15894100  0.32165700  1
  O  O13  1  0.84105900  0.03504300  0.17834300  1
  O  O14  1  0.03504300  0.84105900  0.67834300  1
  O  O15  1  0.15894100  0.96495700  0.82165700  1
  O  O16  1  0.68104500  0.45474000  0.43337000  1
  O  O17  1  0.54526000  0.31895500  0.06663000  1
  O  O18  1  0.31895500  0.54526000  0.56663000  1
  O  O19  1  0.45474000  0.68104500  0.93337000  1
  O  O20  1  0.08242700  0.32031700  0.27913200  1
  O  O21  1  0.67968300  0.91757300  0.22086800  1
  O  O22  1  0.91757300  0.67968300  0.72086800  1
  O  O23  1  0.32031700  0.08242700  0.77913200  1
  O  O24  1  0.00737200  0.65873600  0.28018600  1
  O  O25  1  0.34126400  0.99262800  0.21981400  1
  O  O26  1  0.99262800  0.34126400  0.71981400  1
  O  O27  1  0.65873600  0.00737200  0.78018600  1
  O  O28  1  0.98657500  0.66625600  0.10254300  1
  O  O29  1  0.33374400  0.01342500  0.39745700  1
  O  O30  1  0.01342500  0.33374400  0.89745700  1
  O  O31  1  0.66625600  0.98657500  0.60254300  1
  O  O32  1  0.97162100  0.38593500  0.07242700  1
  O  O33  1  0.61406500  0.02837900  0.42757300  1
  O  O34  1  0.02837900  0.61406500  0.92757300  1
  O  O35  1  0.38593500  0.97162100  0.57242700  1
  O  O36  1  0.08224400  0.30745800  0.49214100  1
  O  O37  1  0.69254200  0.91775600  0.00785900  1
  O  O38  1  0.91775600  0.69254200  0.50785900  1
  O  O39  1  0.30745800  0.08224400  0.99214100  1
  O  O40  1  0.96900400  0.89987200  0.34467300  1
  O  O41  1  0.10012800  0.03099600  0.15532700  1
  O  O42  1  0.03099600  0.10012800  0.65532700  1
  O  O43  1  0.89987200  0.96900400  0.84467300  1
  O  O44  1  0.32893100  0.52156600  0.35220900  1
  O  O45  1  0.47843400  0.67106900  0.14779100  1
  O  O46  1  0.67106900  0.47843400  0.64779100  1
  O  O47  1  0.52156600  0.32893100  0.85220900  1
loop_
_geom_bond_atom_site_label_1
_geom_bond_atom_site_label_2
_geom_bond_distance
_geom_bond_site_symmetry_2
Mo0 O16 1.741940 1_555
Mo0 O7 1.781504 1_555
Mo0 O9 1.865422 1_555
Mo0 O0 1.994730 1_655
Mo0 O12 2.319584 1_555
Mo0 O2 2.451366 1_545
Mo1 O17 1.741940 1_555
Mo1 O6 1.781504 1_554
Mo1 O8 1.865422 1_555
Mo1 O1 1.994730 1_545
Mo1 O13 2.319584 1_555
Mo1 O3 2.451366 1_654
Mo2 O18 1.741940 1_555
Mo2 O5 1.781504 1_555
Mo2 O11 1.865422 1_555
Mo2 O2 1.994730 1_455
Mo2 O14 2.319584 1_555
Mo2 O0 2.451366 1_565
Mo3 O19 1.741940 1_555
Mo3 O4 1.781504 1_556
Mo3 O10 1.865422 1_555
Mo3 O3 1.994730 1_565
Mo3 O15 2.319584 1_555
Mo3 O1 2.451366 1_456
Mo4 O24 1.745836 1_655
Mo4 O21 1.757797 1_555
Mo4 O13 1.971842 1_565
Mo4 O28 1.982297 1_555
Mo4 O1 2.223628 1_555
Mo4 O4 2.376318 1_655
Mo5 O25 1.745836 1_545
Mo5 O20 1.757797 1_555
Mo5 O12 1.971842 1_455
Mo5 O29 1.982297 1_555
Mo5 O0 2.223628 1_555
Mo5 O5 2.376318 1_545
Mo6 O26 1.745836 1_455
Mo6 O23 1.757797 1_555
Mo6 O15 1.971842 1_545
Mo6 O30 1.982297 1_555
Mo6 O3 2.223628 1_555
Mo6 O6 2.376318 1_455
Mo7 O27 1.745836 1_565
Mo7 O22 1.757797 1_555
Mo7 O14 1.971842 1_655
Mo7 O31 1.982297 1_555
Mo7 O2 2.223628 1_555
Mo7 O7 2.376318 1_565
Mo8 O39 1.750737 1_554
Mo8 O32 1.755123 1_455
Mo8 O30 1.959446 1_554
Mo8 O41 2.022247 1_555
Mo8 O8 2.236688 1_455
Mo8 O3 2.246488 1_554
Mo9 O38 1.750737 1_555
Mo9 O33 1.755123 1_565
Mo9 O31 1.959446 1_555
Mo9 O40 2.022247 1_555
Mo9 O9 2.236688 1_565
Mo9 O2 2.246488 1_555
Mo10 O37 1.750737 1_556
Mo10 O34 1.755123 1_655
Mo10 O28 1.959446 1_556
Mo10 O43 2.022247 1_555
Mo10 O10 2.236688 1_655
Mo10 O1 2.246488 1_556
Mo11 O36 1.750737 1_555
Mo11 O35 1.755123 1_545
Mo11 O29 1.959446 1_555
Mo11 O42 2.022247 1_555
Mo11 O11 2.236688 1_545
Mo11 O0 2.246488 1_555
O8 Rb3 3.446312 1_554
O9 Rb2 3.446312 1_555
O10 Rb1 3.446312 1_556
O11 Rb0 3.446312 1_555
O12 Te0 2.163289 1_555
O13 Te0 2.163289 1_555
O14 Te1 2.163289 1_555
O15 Te1 2.163289 1_555
O16 Rb4 2.978420 1_555
O16 Rb0 3.008720 1_555
O17 Rb5 2.978420 1_555
O17 Rb1 3.008720 1_555
O18 Rb6 2.978420 1_555
O18 Rb2 3.008720 1_555
O19 Rb7 2.978420 1_555
O19 Rb3 3.008720 1_555
O20 Rb4 3.043248 1_455
O20 Rb5 3.133880 1_555
O20 Rb1 3.275552 1_555
O21 Rb5 3.043248 1_565
O21 Rb4 3.133880 1_555
O21 Rb0 3.275552 1_555
O22 Rb6 3.043248 1_655
O22 Rb7 3.133880 1_555
O22 Rb3 3.275552 1_555
O23 Rb7 3.043248 1_545
O23 Rb6 3.133880 1_555
O23 Rb2 3.275552 1_555
O24 Rb5 2.883261 1_555
O24 Rb0 3.007927 1_455
O25 Rb4 2.883261 1_555
O25 Rb1 3.007927 1_565
O26 Rb7 2.883261 1_555
O26 Rb2 3.007927 1_655
O27 Rb6 2.883261 1_555
O27 Rb3 3.007927 1_545
O28 Rb1 3.091667 1_655
O28 Rb4 3.194071 1_555
O29 Rb0 3.091667 1_545
O29 Rb5 3.194071 1_555
O30 Rb3 3.091667 1_455
O30 Rb6 3.194071 1_555
O31 Rb2 3.091667 1_565
O31 Rb7 3.194071 1_555
O32 Rb4 3.026749 1_555
O32 Rb3 3.155874 1_554
O32 Rb1 3.169654 1_655
O33 Rb5 3.026749 1_555
O33 Rb2 3.155874 1_555
O33 Rb0 3.169654 1_545
O34 Rb6 3.026749 1_555
O34 Rb1 3.155874 1_556
O34 Rb3 3.169654 1_455
O35 Rb7 3.026749 1_555
O35 Rb0 3.155874 1_555
O35 Rb2 3.169654 1_565
O36 Rb0 2.940467 1_455
O36 Rb2 3.063176 1_555
O37 Rb1 2.940467 1_565
O37 Rb3 3.063176 1_554
O38 Rb2 2.940467 1_655
O38 Rb0 3.063176 1_555
O39 Rb3 2.940467 1_545
O39 Rb1 3.063176 1_556
O40 Te0 1.911748 1_565
O41 Te0 1.911748 1_455
O42 Te1 1.911748 1_545
O43 Te1 1.911748 1_655
O44 Rb5 3.000797 1_555
O44 Rb2 3.088723 1_555
O45 Rb4 3.000797 1_555
O45 Rb3 3.088723 1_554
O46 Rb7 3.000797 1_555
O46 Rb0 3.088723 1_555
O47 Rb6 3.000797 1_555
O47 Rb1 3.088723 1_556
