# generated using pymatgen
data_LaFe5H7
_symmetry_space_group_name_H-M   'P 1'
_cell_length_a   5.53352289
_cell_length_b   5.53352289
_cell_length_c   8.27139300
_cell_angle_alpha   90.00000000
_cell_angle_beta   90.00000000
_cell_angle_gamma   116.47054977
_symmetry_Int_Tables_number   1
_chemical_formula_structural   LaFe5H7
_chemical_formula_sum   'La2 Fe10 H14'
_cell_volume   226.71720894
_cell_formula_units_Z   2
loop_
 _symmetry_equiv_pos_site_id
 _symmetry_equiv_pos_as_xyz
  1  'x, y, z'
loop_
 _atom_site_type_symbol
 _atom_site_label
 _atom_site_symmetry_multiplicity
 _atom_site_fract_x
 _atom_site_fract_y
 _atom_site_fract_z
 _atom_site_occupancy
  La  La0  1  0.00000000  0.00000000  0.50000000  1
  La  La1  1  0.00000000  0.00000000  0.00000000  1
  Fe  Fe0  1  0.50000000  0.50000000  0.25000000  1
  Fe  Fe1  1  0.50000000  0.50000000  0.75000000  1
  Fe  Fe2  1  0.50000000  0.00000000  0.26729900  1
  Fe  Fe3  1  0.00000000  0.50000000  0.23270100  1
  Fe  Fe4  1  0.50000000  0.00000000  0.73270100  1
  Fe  Fe5  1  0.00000000  0.50000000  0.76729900  1
  Fe  Fe6  1  0.66244700  0.35560600  0.50000000  1
  Fe  Fe7  1  0.33755300  0.64439400  0.50000000  1
  Fe  Fe8  1  0.35560600  0.66244700  0.00000000  1
  Fe  Fe9  1  0.64439400  0.33755300  0.00000000  1
  H  H0  1  0.15618300  0.84381700  0.25000000  1
  H  H1  1  0.84381700  0.15618300  0.25000000  1
  H  H2  1  0.84381700  0.15618300  0.75000000  1
  H  H3  1  0.15618300  0.84381700  0.75000000  1
  H  H4  1  0.40729100  0.19949600  0.15174300  1
  H  H5  1  0.59270900  0.80050400  0.15174300  1
  H  H6  1  0.19949600  0.40729100  0.34825700  1
  H  H7  1  0.80050400  0.59270900  0.34825700  1
  H  H8  1  0.59270900  0.80050400  0.84825700  1
  H  H9  1  0.40729100  0.19949600  0.84825700  1
  H  H10  1  0.80050400  0.59270900  0.65174300  1
  H  H11  1  0.19949600  0.40729100  0.65174300  1
  H  H12  1  0.50000000  0.00000000  0.50000000  1
  H  H13  1  0.00000000  0.50000000  0.00000000  1
loop_
_geom_bond_atom_site_label_1
_geom_bond_atom_site_label_2
_geom_bond_distance
_geom_bond_site_symmetry_2
Fe0 H7 1.711220 1_555
Fe0 H5 1.711220 1_555
Fe0 H6 1.711220 1_555
Fe0 H4 1.711220 1_555
Fe1 H8 1.711220 1_555
Fe1 H9 1.711220 1_555
Fe1 H10 1.711220 1_555
Fe1 H11 1.711220 1_555
Fe2 H5 1.703008 1_545
Fe2 H4 1.703008 1_555
Fe2 H1 1.709143 1_555
Fe2 H0 1.709143 1_545
Fe2 H12 1.924761 1_555
Fe3 H7 1.703008 1_455
Fe3 H6 1.703008 1_555
Fe3 H0 1.709143 1_555
Fe3 H1 1.709143 1_455
Fe3 H13 1.924761 1_555
Fe4 H8 1.703008 1_545
Fe4 H9 1.703008 1_555
Fe4 H2 1.709143 1_555
Fe4 H3 1.709143 1_545
Fe4 H12 1.924761 1_555
Fe5 H10 1.703008 1_455
Fe5 H11 1.703008 1_555
Fe5 H3 1.709143 1_555
Fe5 H2 1.709143 1_455
Fe5 H13 1.924761 1_556
Fe6 H10 1.728237 1_555
Fe6 H7 1.728237 1_555
Fe6 H12 1.761597 1_555
Fe7 H11 1.728237 1_555
Fe7 H6 1.728237 1_555
Fe7 H12 1.761597 1_565
Fe8 H5 1.728237 1_555
Fe8 H8 1.728237 1_554
Fe8 H13 1.761597 1_555
Fe9 H4 1.728237 1_555
Fe9 H9 1.728237 1_554
Fe9 H13 1.761597 1_655
H0 La1 2.536865 1_565
H0 La0 2.536865 1_565
H1 La0 2.536865 1_655
H1 La1 2.536865 1_655
H2 La1 2.536865 1_656
H2 La0 2.536865 1_655
H3 La1 2.536865 1_566
H3 La0 2.536865 1_565
H4 La1 2.378114 1_555
H5 La1 2.378114 1_665
H6 La0 2.378114 1_555
H7 La0 2.378114 1_665
H8 La1 2.378114 1_666
H9 La1 2.378114 1_556
H10 La0 2.378114 1_665
H11 La0 2.378114 1_555
H12 La0 2.766761 1_655
H12 La0 2.766761 1_555
H13 La1 2.766761 1_555
H13 La1 2.766761 1_565
