# generated using pymatgen
data_NaAu(Cl2O)2
_symmetry_space_group_name_H-M   'P 1'
_cell_length_a   12.91445200
_cell_length_b   10.64542200
_cell_length_c   8.33953200
_cell_angle_alpha   90.00000000
_cell_angle_beta   90.00000000
_cell_angle_gamma   90.00000000
_symmetry_Int_Tables_number   1
_chemical_formula_structural   NaAu(Cl2O)2
_chemical_formula_sum   'Na4 Au4 Cl16 O8'
_cell_volume   1146.51712006
_cell_formula_units_Z   4
loop_
 _symmetry_equiv_pos_site_id
 _symmetry_equiv_pos_as_xyz
  1  'x, y, z'
loop_
 _atom_site_type_symbol
 _atom_site_label
 _atom_site_symmetry_multiplicity
 _atom_site_fract_x
 _atom_site_fract_y
 _atom_site_fract_z
 _atom_site_occupancy
  Na  Na0  1  0.51996200  0.25000000  0.91222100  1
  Na  Na1  1  0.01996200  0.25000000  0.58777900  1
  Na  Na2  1  0.48003800  0.75000000  0.08777900  1
  Na  Na3  1  0.98003800  0.75000000  0.41222100  1
  Au  Au0  1  0.57225300  0.25000000  0.46981000  1
  Au  Au1  1  0.07225300  0.25000000  0.03019000  1
  Au  Au2  1  0.42774700  0.75000000  0.53019000  1
  Au  Au3  1  0.92774700  0.75000000  0.96981000  1
  Cl  Cl0  1  0.71953900  0.25000000  0.31203400  1
  Cl  Cl1  1  0.21953900  0.25000000  0.18796600  1
  Cl  Cl2  1  0.28046100  0.75000000  0.68796600  1
  Cl  Cl3  1  0.78046100  0.75000000  0.81203400  1
  Cl  Cl4  1  0.46652400  0.25000000  0.24480700  1
  Cl  Cl5  1  0.96652400  0.25000000  0.25519300  1
  Cl  Cl6  1  0.53347600  0.75000000  0.75519300  1
  Cl  Cl7  1  0.03347600  0.75000000  0.74480700  1
  Cl  Cl8  1  0.42279900  0.25000000  0.62858000  1
  Cl  Cl9  1  0.92279900  0.25000000  0.87142000  1
  Cl  Cl10  1  0.57720100  0.75000000  0.37142000  1
  Cl  Cl11  1  0.07720100  0.75000000  0.12858000  1
  Cl  Cl12  1  0.67727400  0.25000000  0.69684800  1
  Cl  Cl13  1  0.17727400  0.25000000  0.80315200  1
  Cl  Cl14  1  0.32272600  0.75000000  0.30315200  1
  Cl  Cl15  1  0.82272600  0.75000000  0.19684800  1
  O  O0  1  0.54725900  0.50091300  0.01149300  1
  O  O1  1  0.04725900  0.99908700  0.48850700  1
  O  O2  1  0.45274100  0.00091300  0.98850700  1
  O  O3  1  0.95274100  0.49908700  0.51149300  1
  O  O4  1  0.45274100  0.49908700  0.98850700  1
  O  O5  1  0.95274100  0.00091300  0.51149300  1
  O  O6  1  0.54725900  0.99908700  0.01149300  1
  O  O7  1  0.04725900  0.50091300  0.48850700  1
loop_
_geom_bond_atom_site_label_1
_geom_bond_atom_site_label_2
_geom_bond_distance
_geom_bond_site_symmetry_2
Na0 O0 2.818564 1_556
Na0 O6 2.818564 1_546
Na0 O2 2.861739 1_555
Na0 O4 2.861739 1_555
Na1 O1 2.818564 1_545
Na1 O7 2.818564 1_555
Na1 O5 2.861739 1_455
Na1 O3 2.861739 1_455
Na2 O2 2.818564 1_564
Na2 O4 2.818564 1_554
Na2 O6 2.861739 1_555
Na2 O0 2.861739 1_555
Na3 O5 2.818564 1_565
Na3 O3 2.818564 1_555
Na3 O7 2.861739 1_655
Na3 O1 2.861739 1_655
Au0 Cl0 2.312861 1_555
Au0 Cl4 2.320637 1_555
Au0 Cl12 2.329044 1_555
Au0 Cl8 2.340621 1_555
Au1 Cl1 2.312861 1_555
Au1 Cl5 2.320637 1_455
Au1 Cl13 2.329044 1_554
Au1 Cl9 2.340621 1_454
Au2 Cl2 2.312861 1_555
Au2 Cl6 2.320637 1_555
Au2 Cl14 2.329044 1_555
Au2 Cl10 2.340621 1_555
Au3 Cl3 2.312861 1_555
Au3 Cl7 2.320637 1_655
Au3 Cl15 2.329044 1_556
Au3 Cl11 2.340621 1_656
Cl4 Na0 2.858180 1_554
Cl5 Na1 2.858180 1_655
Cl6 Na2 2.858180 1_556
Cl7 Na3 2.858180 1_455
Cl8 Na0 2.677651 1_555
Cl9 Na1 2.677651 1_655
Cl10 Na2 2.677651 1_555
Cl11 Na3 2.677651 1_455
Cl12 Na0 2.711716 1_555
Cl13 Na1 2.711716 1_555
Cl14 Na2 2.711716 1_555
Cl15 Na3 2.711716 1_555
O0 O4 1.235761 1_554
O1 O5 1.235761 1_465
O2 O6 1.235761 1_546
O3 O7 1.235761 1_655
