# generated using pymatgen
data_TaBi(WO5)2
_symmetry_space_group_name_H-M   'P 1'
_cell_length_a   7.56048442
_cell_length_b   7.56048442
_cell_length_c   3.97757400
_cell_angle_alpha   90.00000000
_cell_angle_beta   90.00000000
_cell_angle_gamma   119.98673715
_symmetry_Int_Tables_number   1
_chemical_formula_structural   TaBi(WO5)2
_chemical_formula_sum   'Ta1 Bi1 W2 O10'
_cell_volume   196.92741082
_cell_formula_units_Z   1
loop_
 _symmetry_equiv_pos_site_id
 _symmetry_equiv_pos_as_xyz
  1  'x, y, z'
loop_
 _atom_site_type_symbol
 _atom_site_label
 _atom_site_symmetry_multiplicity
 _atom_site_fract_x
 _atom_site_fract_y
 _atom_site_fract_z
 _atom_site_occupancy
  Ta  Ta0  1  0.49512300  0.49512300  0.50000000  1
  Bi  Bi0  1  0.99931500  0.99931500  0.50000000  1
  W  W0  1  0.50342600  0.99958000  0.50000000  1
  W  W1  1  0.99958000  0.50342600  0.50000000  1
  O  O0  1  0.41427500  0.20003600  0.50000000  1
  O  O1  1  0.79132700  0.21192100  0.50000000  1
  O  O2  1  0.79686200  0.58611300  0.50000000  1
  O  O3  1  0.20003600  0.41427500  0.50000000  1
  O  O4  1  0.21192100  0.79132700  0.50000000  1
  O  O5  1  0.58611300  0.79686200  0.50000000  1
  O  O6  1  0.49690300  0.49690300  0.00000000  1
  O  O7  1  0.50415800  0.00039200  0.00000000  1
  O  O8  1  0.00039200  0.50415800  0.00000000  1
  O  O9  1  0.00056800  0.00056800  0.00000000  1
loop_
_geom_bond_atom_site_label_1
_geom_bond_atom_site_label_2
_geom_bond_distance
_geom_bond_site_symmetry_2
Bi0 O9 1.988810 1_666
Bi0 O9 1.988810 1_665
O0 W0 1.942238 1_545
O0 Ta0 1.996957 1_555
O1 W0 1.955040 1_545
O1 W1 1.966628 1_555
O2 W1 1.922909 1_555
O2 Ta0 2.027019 1_555
O3 W1 1.942238 1_455
O3 Ta0 1.996957 1_555
O4 W1 1.955040 1_455
O4 W0 1.966628 1_555
O5 W0 1.922909 1_555
O5 Ta0 2.027019 1_555
O6 Ta0 1.988833 1_555
O6 Ta0 1.988833 1_554
O7 W0 1.988796 1_544
O7 W0 1.988796 1_545
O8 W1 1.988796 1_454
O8 W1 1.988796 1_455
