# generated using pymatgen
data_NaPd3O4
_symmetry_space_group_name_H-M   'P 1'
_cell_length_a   5.66910889
_cell_length_b   5.66919335
_cell_length_c   5.66919132
_cell_angle_alpha   90.00002062
_cell_angle_beta   89.99997938
_cell_angle_gamma   90.00000000
_symmetry_Int_Tables_number   1
_chemical_formula_structural   NaPd3O4
_chemical_formula_sum   'Na2 Pd6 O8'
_cell_volume   182.20369557
_cell_formula_units_Z   2
loop_
 _symmetry_equiv_pos_site_id
 _symmetry_equiv_pos_as_xyz
  1  'x, y, z'
loop_
 _atom_site_type_symbol
 _atom_site_label
 _atom_site_symmetry_multiplicity
 _atom_site_fract_x
 _atom_site_fract_y
 _atom_site_fract_z
 _atom_site_occupancy
  Na  Na0  1  0.50000000  0.50000000  0.50000000  1
  Na  Na1  1  0.00000000  0.00000000  0.00000000  1
  Pd  Pd0  1  0.75000100  0.00000000  0.50000000  1
  Pd  Pd1  1  0.00000000  0.50000000  0.25003246  1
  Pd  Pd2  1  -0.00000000  0.50000000  0.74996754  1
  Pd  Pd3  1  0.24999900  0.00000000  0.50000000  1
  Pd  Pd4  1  0.50000000  0.75003246  -0.00000000  1
  Pd  Pd5  1  0.50000000  0.24996754  0.00000000  1
  O  O0  1  0.75000100  0.24995899  0.25004201  1
  O  O1  1  0.24999900  0.24995899  0.74995799  1
  O  O2  1  0.24999900  0.75004101  0.25004201  1
  O  O3  1  0.75000100  0.75004101  0.74995799  1
  O  O4  1  0.24999900  0.24995899  0.25004201  1
  O  O5  1  0.75000100  0.75004101  0.25004201  1
  O  O6  1  0.75000100  0.24995899  0.74995799  1
  O  O7  1  0.24999900  0.75004101  0.74995799  1
loop_
_geom_bond_atom_site_label_1
_geom_bond_atom_site_label_2
_geom_bond_distance
_geom_bond_site_symmetry_2
Na0 O0 2.454820 1_555
Na0 O7 2.454820 1_555
Na0 O3 2.454820 1_555
Na0 O4 2.454820 1_555
Na0 O1 2.454820 1_555
Na0 O5 2.454820 1_555
Na0 O2 2.454821 1_555
Na0 O6 2.454821 1_555
Na1 O0 2.454820 1_455
Na1 O7 2.454820 1_544
Na1 O5 2.454820 1_445
Na1 O1 2.454820 1_554
Na1 O4 2.454820 1_555
Na1 O3 2.454820 1_444
Na1 O2 2.454821 1_545
Na1 O6 2.454821 1_454
O0 Pd0 2.004030 1_555
O0 Pd1 2.004508 1_655
O0 Pd5 2.004520 1_555
O1 Pd3 2.004029 1_555
O1 Pd2 2.004508 1_555
O1 Pd5 2.004520 1_556
O2 Pd3 2.004029 1_565
O2 Pd1 2.004508 1_555
O2 Pd4 2.004519 1_555
O3 Pd0 2.004030 1_565
O3 Pd2 2.004508 1_655
O3 Pd4 2.004519 1_556
O4 Pd3 2.004030 1_555
O4 Pd1 2.004508 1_555
O4 Pd5 2.004519 1_555
O5 Pd0 2.004029 1_565
O5 Pd1 2.004508 1_655
O5 Pd4 2.004520 1_555
O6 Pd0 2.004029 1_555
O6 Pd2 2.004508 1_655
O6 Pd5 2.004519 1_556
O7 Pd3 2.004030 1_565
O7 Pd2 2.004508 1_555
O7 Pd4 2.004520 1_556
