# generated using pymatgen
data_Ca2Dy3Sb3O14
_symmetry_space_group_name_H-M   'P 1'
_cell_length_a   7.48616469
_cell_length_b   7.48616469
_cell_length_c   10.49413412
_cell_angle_alpha   88.76385510
_cell_angle_beta   88.76385510
_cell_angle_gamma   90.36135191
_symmetry_Int_Tables_number   1
_chemical_formula_structural   Ca2Dy3Sb3O14
_chemical_formula_sum   'Ca4 Dy6 Sb6 O28'
_cell_volume   587.83200608
_cell_formula_units_Z   2
loop_
 _symmetry_equiv_pos_site_id
 _symmetry_equiv_pos_as_xyz
  1  'x, y, z'
loop_
 _atom_site_type_symbol
 _atom_site_label
 _atom_site_symmetry_multiplicity
 _atom_site_fract_x
 _atom_site_fract_y
 _atom_site_fract_z
 _atom_site_occupancy
  Ca  Ca0  1  0.50000000  0.00000000  0.00000000  1
  Ca  Ca1  1  0.00000000  0.50000000  0.50000000  1
  Ca  Ca2  1  0.76134100  0.23865900  0.75000000  1
  Ca  Ca3  1  0.23865900  0.76134100  0.25000000  1
  Dy  Dy0  1  0.22406700  0.77593300  0.75000000  1
  Dy  Dy1  1  0.28396300  0.26120600  0.24129500  1
  Dy  Dy2  1  0.73879400  0.71603700  0.25870500  1
  Dy  Dy3  1  0.71603700  0.73879400  0.75870500  1
  Dy  Dy4  1  0.26120600  0.28396300  0.74129500  1
  Dy  Dy5  1  0.77593300  0.22406700  0.25000000  1
  Sb  Sb0  1  0.50000000  0.00000000  0.50000000  1
  Sb  Sb1  1  0.00000000  0.50000000  0.00000000  1
  Sb  Sb2  1  0.50000000  0.50000000  0.50000000  1
  Sb  Sb3  1  0.00000000  0.00000000  0.00000000  1
  Sb  Sb4  1  0.00000000  0.00000000  0.50000000  1
  Sb  Sb5  1  0.50000000  0.50000000  0.00000000  1
  O  O0  1  0.56674000  0.75501300  0.44202000  1
  O  O1  1  0.43326000  0.24498700  0.55798000  1
  O  O2  1  0.08606000  0.74974800  0.98412700  1
  O  O3  1  0.91394000  0.25025200  0.01587300  1
  O  O4  1  0.25025200  0.91394000  0.51587300  1
  O  O5  1  0.74974800  0.08606000  0.48412700  1
  O  O6  1  0.24498700  0.43326000  0.05798000  1
  O  O7  1  0.75501300  0.56674000  0.94202000  1
  O  O8  1  0.51170400  0.93271200  0.68491100  1
  O  O9  1  0.93271200  0.51170400  0.18491100  1
  O  O10  1  0.48829600  0.06728800  0.31508900  1
  O  O11  1  0.06728800  0.48829600  0.81508900  1
  O  O12  1  0.69633900  0.50071100  0.62945100  1
  O  O13  1  0.30631800  0.55134000  0.62548800  1
  O  O14  1  0.20394900  0.02561800  0.12096000  1
  O  O15  1  0.81470100  0.95896300  0.14061000  1
  O  O16  1  0.95896300  0.81470100  0.64061000  1
  O  O17  1  0.02561800  0.20394900  0.62096000  1
  O  O18  1  0.55134000  0.30631800  0.12548800  1
  O  O19  1  0.50071100  0.69633900  0.12945100  1
  O  O20  1  0.30366100  0.49928900  0.37054900  1
  O  O21  1  0.69368200  0.44866000  0.37451200  1
  O  O22  1  0.79605100  0.97438200  0.87904000  1
  O  O23  1  0.18529900  0.04103700  0.85939000  1
  O  O24  1  0.04103700  0.18529900  0.35939000  1
  O  O25  1  0.97438200  0.79605100  0.37904000  1
  O  O26  1  0.44866000  0.69368200  0.87451200  1
  O  O27  1  0.49928900  0.30366100  0.87054900  1
loop_
_geom_bond_atom_site_label_1
_geom_bond_atom_site_label_2
_geom_bond_distance
_geom_bond_site_symmetry_2
Ca0 O22 2.540569 1_544
Ca0 O14 2.540569 1_555
Ca0 O19 2.623052 1_545
Ca0 O27 2.623052 1_554
Ca0 O18 2.698416 1_555
Ca0 O26 2.698416 1_544
Ca0 O23 2.821623 1_554
Ca0 O15 2.821623 1_545
Ca1 O17 2.540569 1_555
Ca1 O25 2.540569 1_455
Ca1 O12 2.623052 1_455
Ca1 O20 2.623052 1_555
Ca1 O21 2.698416 1_455
Ca1 O13 2.698416 1_555
Ca1 O24 2.821623 1_555
Ca1 O16 2.821623 1_455
Ca2 O12 2.370065 1_555
Ca2 O27 2.370065 1_555
Ca2 O17 2.391966 1_655
Ca2 O22 2.391966 1_545
Ca3 O19 2.370065 1_555
Ca3 O20 2.370065 1_555
Ca3 O14 2.391966 1_565
Ca3 O25 2.391966 1_455
Dy0 O13 2.233048 1_555
Dy0 O26 2.233048 1_555
Dy0 O16 2.330644 1_455
Dy0 O23 2.330644 1_565
Dy0 O11 2.520086 1_555
Dy0 O8 2.520086 1_555
Dy0 O2 2.647566 1_555
Dy0 O4 2.647566 1_555
Dy1 O24 2.241734 1_555
Dy1 O10 2.253364 1_555
Dy1 O20 2.268900 1_555
Dy1 O14 2.275821 1_555
Dy1 O6 2.316666 1_555
Dy1 O18 2.338016 1_555
Dy2 O15 2.241734 1_555
Dy2 O9 2.253364 1_555
Dy2 O19 2.268900 1_555
Dy2 O25 2.275821 1_555
Dy2 O0 2.316666 1_555
Dy2 O21 2.338016 1_555
Dy3 O16 2.241734 1_555
Dy3 O8 2.253364 1_555
Dy3 O12 2.268900 1_555
Dy3 O22 2.275821 1_555
Dy3 O7 2.316666 1_555
Dy3 O26 2.338016 1_555
Dy4 O23 2.241734 1_555
Dy4 O11 2.253364 1_555
Dy4 O27 2.268900 1_555
Dy4 O17 2.275821 1_555
Dy4 O1 2.316666 1_555
Dy4 O13 2.338016 1_555
Dy5 O18 2.233048 1_555
Dy5 O21 2.233048 1_555
Dy5 O24 2.330644 1_655
Dy5 O15 2.330644 1_545
Dy5 O10 2.520086 1_555
Dy5 O9 2.520086 1_555
Dy5 O5 2.647566 1_555
Dy5 O3 2.647566 1_555
O0 Sb0 2.007494 1_565
O0 Sb2 2.046734 1_555
O1 Sb0 2.007494 1_555
O1 Sb2 2.046734 1_555
O2 Sb1 1.976149 1_556
O2 Sb3 1.994143 1_566
O3 Sb1 1.976149 1_655
O3 Sb3 1.994143 1_655
O4 Sb0 1.976149 1_565
O4 Sb4 1.994143 1_565
O5 Sb0 1.976149 1_555
O5 Sb4 1.994143 1_655
O6 Sb1 2.007494 1_555
O6 Sb5 2.046734 1_555
O7 Sb1 2.007494 1_656
O7 Sb5 2.046734 1_556
O8 Sb0 1.998150 1_565
O9 Sb1 1.998150 1_655
O10 Sb0 1.998150 1_555
O11 Sb1 1.998150 1_556
O12 Sb2 2.022928 1_555
O13 Sb2 1.982601 1_555
O14 Sb3 2.017329 1_555
O15 Sb3 2.020577 1_665
O16 Sb4 2.020577 1_665
O17 Sb4 2.017329 1_555
O18 Sb5 1.982601 1_555
O19 Sb5 2.022928 1_555
O20 Sb2 2.022928 1_555
O21 Sb2 1.982601 1_555
O22 Sb3 2.017329 1_666
O23 Sb3 2.020577 1_556
O24 Sb4 2.020577 1_555
O25 Sb4 2.017329 1_665
O26 Sb5 1.982601 1_556
O27 Sb5 2.022928 1_556
