# generated using pymatgen
data_HoMg(WO3)2
_symmetry_space_group_name_H-M   'P 1'
_cell_length_a   8.00833800
_cell_length_b   5.43916600
_cell_length_c   5.64956562
_cell_angle_alpha   89.06912008
_cell_angle_beta   90.00000000
_cell_angle_gamma   90.00000000
_symmetry_Int_Tables_number   1
_chemical_formula_structural   HoMg(WO3)2
_chemical_formula_sum   'Ho2 Mg2 W4 O12'
_cell_volume   246.05514144
_cell_formula_units_Z   2
loop_
 _symmetry_equiv_pos_site_id
 _symmetry_equiv_pos_as_xyz
  1  'x, y, z'
loop_
 _atom_site_type_symbol
 _atom_site_label
 _atom_site_symmetry_multiplicity
 _atom_site_fract_x
 _atom_site_fract_y
 _atom_site_fract_z
 _atom_site_occupancy
  Ho  Ho0  1  0.00000000  0.99254300  0.94235700  1
  Ho  Ho1  1  0.50000000  0.49138700  0.55435600  1
  Mg  Mg0  1  0.00000000  0.50199900  0.46484300  1
  Mg  Mg1  1  0.50000000  0.00014000  0.03716000  1
  W  W0  1  0.25015500  0.99993100  0.49624600  1
  W  W1  1  0.74984500  0.99993100  0.49624600  1
  W  W2  1  0.75034600  0.50017300  0.00473200  1
  W  W3  1  0.24965400  0.50017300  0.00473200  1
  O  O0  1  0.50000000  0.87242500  0.40293300  1
  O  O1  1  0.17889100  0.80783300  0.18259900  1
  O  O2  1  0.82110900  0.80783300  0.18259900  1
  O  O3  1  0.17816400  0.66729900  0.68900500  1
  O  O4  1  0.82183600  0.66729900  0.68900500  1
  O  O5  1  0.50000000  0.64171300  0.92961900  1
  O  O6  1  0.00000000  0.37026300  0.08759100  1
  O  O7  1  0.68183900  0.33017000  0.31077900  1
  O  O8  1  0.31816100  0.33017000  0.31077900  1
  O  O9  1  0.32352800  0.18824500  0.82188100  1
  O  O10  1  0.67647200  0.18824500  0.82188100  1
  O  O11  1  0.00000000  0.14233200  0.57063600  1
loop_
_geom_bond_atom_site_label_1
_geom_bond_atom_site_label_2
_geom_bond_distance
_geom_bond_site_symmetry_2
Ho0 O1 2.204453 1_556
Ho0 O2 2.204453 1_456
Ho0 O6 2.224613 1_566
Ho0 O11 2.240189 1_565
Ho0 O4 2.701164 1_455
Ho0 O3 2.701164 1_555
Ho0 O9 2.878483 1_565
Ho0 O10 2.878483 1_465
Ho1 O7 2.195997 1_555
Ho1 O8 2.195997 1_555
Ho1 O0 2.229261 1_555
Ho1 O5 2.284641 1_555
Ho1 O10 2.630456 1_555
Ho1 O9 2.630456 1_555
Ho1 O4 2.856688 1_555
Ho1 O3 2.856688 1_555
Mg0 O11 2.036247 1_555
Mg0 O3 2.117766 1_555
Mg0 O4 2.117766 1_455
Mg0 O6 2.259541 1_555
Mg1 O5 2.051423 1_544
Mg1 O9 2.117277 1_554
Mg1 O10 2.117277 1_554
Mg1 O0 2.169370 1_545
O0 W1 2.184982 1_555
O0 W0 2.184982 1_555
O1 W3 2.045938 1_555
O1 W0 2.148827 1_555
O2 W2 2.045938 1_555
O2 W1 2.148827 1_555
O3 W3 2.069560 1_556
O3 W0 2.174316 1_555
O4 W2 2.069560 1_556
O4 W1 2.174316 1_555
O5 W2 2.186685 1_556
O5 W3 2.186685 1_556
O6 W3 2.169085 1_555
O6 W2 2.169085 1_455
O7 W2 2.023270 1_555
O7 W1 2.135363 1_545
O8 W3 2.023270 1_555
O8 W0 2.135363 1_545
O9 W3 2.086299 1_556
O9 W0 2.200025 1_545
O10 W2 2.086299 1_556
O10 W1 2.200025 1_545
O11 W0 2.190990 1_545
O11 W1 2.190990 1_445
