# generated using pymatgen
data_BaMg14Al
_symmetry_space_group_name_H-M   'P 1'
_cell_length_a   6.56210274
_cell_length_b   6.56210217
_cell_length_c   10.62175018
_cell_angle_alpha   90.00000000
_cell_angle_beta   90.00000000
_cell_angle_gamma   120.00000286
_symmetry_Int_Tables_number   1
_chemical_formula_structural   BaMg14Al
_chemical_formula_sum   'Ba1 Mg14 Al1'
_cell_volume   396.10718094
_cell_formula_units_Z   1
loop_
 _symmetry_equiv_pos_site_id
 _symmetry_equiv_pos_as_xyz
  1  'x, y, z'
loop_
 _atom_site_type_symbol
 _atom_site_label
 _atom_site_symmetry_multiplicity
 _atom_site_fract_x
 _atom_site_fract_y
 _atom_site_fract_z
 _atom_site_occupancy
  Ba  Ba0  1  0.16666700  0.33333300  0.62500000  1
  Mg  Mg0  1  0.16101463  0.83050681  0.12500000  1
  Mg  Mg1  1  0.17962362  0.83981131  0.62500000  1
  Mg  Mg2  1  0.66949319  0.33898537  0.12500000  1
  Mg  Mg3  1  0.66018869  0.32037638  0.62500000  1
  Mg  Mg4  1  0.66949319  0.83050681  0.12500000  1
  Mg  Mg5  1  0.66018869  0.83981131  0.62500000  1
  Mg  Mg6  1  0.33651838  0.16348162  0.35823549  1
  Mg  Mg7  1  0.33651838  0.16348162  0.89176451  1
  Mg  Mg8  1  0.33651838  0.67303776  0.35823549  1
  Mg  Mg9  1  0.33651838  0.67303776  0.89176451  1
  Mg  Mg10  1  0.82696224  0.16348162  0.35823549  1
  Mg  Mg11  1  0.82696224  0.16348162  0.89176451  1
  Mg  Mg12  1  0.83333300  0.66666700  0.38145543  1
  Mg  Mg13  1  0.83333300  0.66666700  0.86854457  1
  Al  Al0  1  0.16666700  0.33333300  0.12500000  1
loop_
_geom_bond_atom_site_label_1
_geom_bond_atom_site_label_2
_geom_bond_distance
_geom_bond_site_symmetry_2
Ba0 Mg1 3.281877 1_555
Ba0 Mg5 3.281877 1_555
Ba0 Mg5 3.281877 1_445
Ba0 Mg1 3.281877 1_545
Ba0 Mg3 3.281877 1_555
Ba0 Mg3 3.281877 1_455
Ba0 Mg6 3.428649 1_555
Ba0 Mg7 3.428649 1_555
Ba0 Mg8 3.428656 1_555
Ba0 Mg9 3.428656 1_555
Ba0 Mg10 3.428656 1_455
Ba0 Mg11 3.428656 1_455
Mg0 Mg8 3.117937 1_555
Mg0 Mg9 3.117937 1_554
Mg0 Mg6 3.117944 1_565
Mg0 Mg7 3.117944 1_564
Mg0 Mg2 3.225414 1_455
Mg0 Mg4 3.225414 1_455
Mg0 Mg12 3.299695 1_455
Mg0 Mg13 3.299695 1_454
Mg0 Mg2 3.336688 1_565
Mg0 Mg4 3.336689 1_555
Mg1 Mg3 3.153517 1_565
Mg1 Mg5 3.153517 1_555
Mg1 Mg13 3.250343 1_455
Mg1 Mg12 3.250343 1_455
Mg1 Mg9 3.378337 1_555
Mg1 Mg8 3.378337 1_555
Mg1 Mg6 3.378343 1_565
Mg1 Mg7 3.378343 1_565
Mg1 Mg3 3.408585 1_455
Mg1 Mg5 3.408585 1_455
Mg2 Mg7 3.117944 1_554
Mg2 Mg6 3.117944 1_555
Mg2 Mg4 3.225414 1_555
Mg2 Mg4 3.336688 1_545
Mg3 Mg5 3.153517 1_545
Mg3 Mg6 3.378343 1_555
Mg3 Mg7 3.378343 1_555
Mg3 Mg5 3.408585 1_555
Mg4 Mg9 3.117944 1_554
Mg4 Mg8 3.117944 1_555
Mg5 Mg9 3.378343 1_555
Mg5 Mg8 3.378343 1_555
Mg6 Mg8 3.218343 1_545
Mg6 Mg8 3.343759 1_555
Mg7 Mg9 3.218343 1_545
Mg7 Mg9 3.343759 1_555
Mg10 Mg2 3.117937 1_555
Mg10 Mg4 3.117944 1_545
Mg10 Mg8 3.218343 1_545
Mg10 Mg6 3.218343 1_555
Mg10 Mg12 3.290507 1_555
Mg10 Mg12 3.290507 1_545
Mg10 Mg8 3.343759 1_655
Mg10 Mg6 3.343760 1_655
Mg10 Mg3 3.378337 1_555
Mg10 Mg5 3.378343 1_545
Mg11 Mg2 3.117937 1_556
Mg11 Mg4 3.117944 1_546
Mg11 Mg9 3.218343 1_545
Mg11 Mg7 3.218343 1_555
Mg11 Mg13 3.290507 1_555
Mg11 Mg13 3.290507 1_545
Mg11 Mg9 3.343759 1_655
Mg11 Mg7 3.343760 1_655
Mg11 Mg3 3.378337 1_555
Mg11 Mg5 3.378343 1_545
Mg12 Mg5 3.250336 1_555
Mg12 Mg3 3.250342 1_555
Mg12 Mg6 3.290507 1_555
Mg12 Mg6 3.290507 1_665
Mg12 Mg8 3.290507 1_655
Mg12 Mg8 3.290507 1_555
Mg12 Mg4 3.299688 1_555
Mg12 Mg2 3.299695 1_555
Mg13 Mg5 3.250336 1_555
Mg13 Mg3 3.250342 1_555
Mg13 Mg7 3.290507 1_555
Mg13 Mg7 3.290507 1_665
Mg13 Mg9 3.290507 1_655
Mg13 Mg9 3.290507 1_555
Mg13 Mg4 3.299688 1_556
Mg13 Mg2 3.299695 1_556
Al0 Mg6 3.140738 1_555
Al0 Mg7 3.140738 1_554
Al0 Mg9 3.140745 1_554
Al0 Mg8 3.140745 1_555
Al0 Mg10 3.140745 1_455
Al0 Mg11 3.140745 1_454
Al0 Mg0 3.281208 1_555
Al0 Mg4 3.281208 1_445
Al0 Mg4 3.281208 1_555
Al0 Mg0 3.281208 1_545
Al0 Mg2 3.281209 1_455
Al0 Mg2 3.281209 1_555
