# generated using pymatgen
data_NaLiB2(H5N)2
_symmetry_space_group_name_H-M   'P 1'
_cell_length_a   5.43082100
_cell_length_b   7.29333900
_cell_length_c   14.80956900
_cell_angle_alpha   90.00000000
_cell_angle_beta   90.00000000
_cell_angle_gamma   90.00000000
_symmetry_Int_Tables_number   1
_chemical_formula_structural   NaLiB2(H5N)2
_chemical_formula_sum   'Na4 Li4 B8 H40 N8'
_cell_volume   586.58953208
_cell_formula_units_Z   4
loop_
 _symmetry_equiv_pos_site_id
 _symmetry_equiv_pos_as_xyz
  1  'x, y, z'
loop_
 _atom_site_type_symbol
 _atom_site_label
 _atom_site_symmetry_multiplicity
 _atom_site_fract_x
 _atom_site_fract_y
 _atom_site_fract_z
 _atom_site_occupancy
  Na  Na0  1  0.43335100  0.69783600  0.16824600  1
  Na  Na1  1  0.93335100  0.30216400  0.83175400  1
  Na  Na2  1  0.93335100  0.69783600  0.33175400  1
  Na  Na3  1  0.43335100  0.30216400  0.66824600  1
  Li  Li0  1  0.06416500  0.18237200  0.17742100  1
  Li  Li1  1  0.56416500  0.81762800  0.82257900  1
  Li  Li2  1  0.56416500  0.18237200  0.32257900  1
  Li  Li3  1  0.06416500  0.81762800  0.67742100  1
  B  B0  1  0.03571100  0.31367000  0.33916700  1
  B  B1  1  0.53571100  0.68633000  0.66083300  1
  B  B2  1  0.53571100  0.31367000  0.16083300  1
  B  B3  1  0.03571100  0.68633000  0.83916700  1
  B  B4  1  0.94974300  0.84122600  0.14155300  1
  B  B5  1  0.44974300  0.15877400  0.85844700  1
  B  B6  1  0.44974300  0.84122600  0.35844700  1
  B  B7  1  0.94974300  0.15877400  0.64155300  1
  H  H0  1  0.24987000  0.23123000  0.45567600  1
  H  H1  1  0.74987000  0.76877000  0.54432400  1
  H  H2  1  0.74987000  0.23123000  0.04432400  1
  H  H3  1  0.24987000  0.76877000  0.95567600  1
  H  H4  1  0.33912300  0.42463200  0.41341800  1
  H  H5  1  0.83912300  0.57536800  0.58658200  1
  H  H6  1  0.83912300  0.42463200  0.08658200  1
  H  H7  1  0.33912300  0.57536800  0.91341800  1
  H  H8  1  0.07586100  0.40830100  0.27165400  1
  H  H9  1  0.57586100  0.59169900  0.72834600  1
  H  H10  1  0.57586100  0.40830100  0.22834600  1
  H  H11  1  0.07586100  0.59169900  0.77165400  1
  H  H12  1  0.96671800  0.16052000  0.31301400  1
  H  H13  1  0.46671800  0.83948000  0.68698600  1
  H  H14  1  0.46671800  0.16052000  0.18698600  1
  H  H15  1  0.96671800  0.83948000  0.81301400  1
  H  H16  1  0.85584600  0.38287000  0.37920800  1
  H  H17  1  0.35584600  0.61713000  0.62079200  1
  H  H18  1  0.35584600  0.38287000  0.12079200  1
  H  H19  1  0.85584600  0.61713000  0.87920800  1
  H  H20  1  0.80477500  0.73646700  0.01504700  1
  H  H21  1  0.30477500  0.26353300  0.98495300  1
  H  H22  1  0.30477500  0.73646700  0.48495300  1
  H  H23  1  0.80477500  0.26353300  0.51504700  1
  H  H24  1  0.68086300  0.92998300  0.04343500  1
  H  H25  1  0.18086300  0.07001700  0.95656500  1
  H  H26  1  0.18086300  0.92998300  0.45656500  1
  H  H27  1  0.68086300  0.07001700  0.54343500  1
  H  H28  1  0.86496400  0.92732000  0.20642000  1
  H  H29  1  0.36496400  0.07268000  0.79358000  1
  H  H30  1  0.36496400  0.92732000  0.29358000  1
  H  H31  1  0.86496400  0.07268000  0.70642000  1
  H  H32  1  0.01787100  0.68994600  0.17048200  1
  H  H33  1  0.51787100  0.31005400  0.82951800  1
  H  H34  1  0.51787100  0.68994600  0.32951800  1
  H  H35  1  0.01787100  0.31005400  0.67048200  1
  H  H36  1  0.13767300  0.92562400  0.11576700  1
  H  H37  1  0.63767300  0.07437600  0.88423300  1
  H  H38  1  0.63767300  0.92562400  0.38423300  1
  H  H39  1  0.13767300  0.07437600  0.61576700  1
  N  N0  1  0.27703300  0.29742100  0.39549500  1
  N  N1  1  0.77703300  0.70257900  0.60450500  1
  N  N2  1  0.77703300  0.29742100  0.10450500  1
  N  N3  1  0.27703300  0.70257900  0.89549500  1
  N  N4  1  0.74642200  0.81041800  0.06969500  1
  N  N5  1  0.24642200  0.18958200  0.93030500  1
  N  N6  1  0.24642200  0.81041800  0.43030500  1
  N  N7  1  0.74642200  0.18958200  0.56969500  1
loop_
_geom_bond_atom_site_label_1
_geom_bond_atom_site_label_2
_geom_bond_distance
_geom_bond_site_symmetry_2
Li0 N2 2.074071 1_455
Li1 N3 2.074071 1_555
Li2 N0 2.074071 1_555
Li3 N1 2.074071 1_455
B0 H8 1.234328 1_555
B0 H12 1.240176 1_455
B0 H16 1.249210 1_455
B0 N0 1.558055 1_555
B1 H9 1.234328 1_555
B1 H13 1.240176 1_555
B1 H17 1.249210 1_555
B1 N1 1.558055 1_555
B2 H10 1.234328 1_555
B2 H14 1.240176 1_555
B2 H18 1.249210 1_555
B2 N2 1.558055 1_555
B3 H11 1.234328 1_555
B3 H15 1.240176 1_455
B3 H19 1.249210 1_455
B3 N3 1.558055 1_555
B4 H28 1.236573 1_555
B4 H32 1.240078 1_655
B4 H36 1.251551 1_655
B4 N4 1.549915 1_555
B5 H29 1.236573 1_555
B5 H33 1.240078 1_555
B5 H37 1.251551 1_555
B5 N5 1.549915 1_555
B6 H30 1.236573 1_555
B6 H34 1.240078 1_555
B6 H38 1.251551 1_555
B6 N6 1.549915 1_555
B7 H31 1.236573 1_555
B7 H35 1.240078 1_655
B7 H39 1.251551 1_655
B7 N7 1.549915 1_555
H0 N0 1.024279 1_555
H1 N1 1.024279 1_555
H2 N2 1.024279 1_555
H3 N3 1.024279 1_555
H4 N0 1.022232 1_555
H5 N1 1.022232 1_555
H6 N2 1.022232 1_555
H7 N3 1.022232 1_555
H8 Li0 2.160269 1_555
H8 Na2 2.418754 1_455
H9 Li1 2.160269 1_555
H9 Na3 2.418754 1_555
H10 Li2 2.160269 1_555
H10 Na0 2.418754 1_555
H11 Li3 2.160269 1_555
H11 Na1 2.418754 1_455
H12 Li0 2.082746 1_655
H12 Li2 2.196567 1_555
H13 Li1 2.082746 1_555
H13 Li3 2.196567 1_555
H14 Li2 2.082746 1_555
H14 Li0 2.196567 1_555
H15 Li3 2.082746 1_655
H15 Li1 2.196567 1_555
H16 Li2 2.313207 1_555
H16 Na2 2.438847 1_555
H17 Li3 2.313207 1_555
H17 Na3 2.438847 1_555
H18 Li0 2.313207 1_555
H18 Na0 2.438847 1_555
H19 Li1 2.313207 1_555
H19 Na1 2.438847 1_555
H20 N4 1.022895 1_555
H21 N5 1.022895 1_555
H22 N6 1.022895 1_555
H23 N7 1.022895 1_555
H24 N4 1.019039 1_555
H25 N5 1.019039 1_555
H26 N6 1.019039 1_555
H27 N7 1.019039 1_555
H28 Li0 2.194324 1_665
H28 Na2 2.526755 1_555
H29 Li1 2.194324 1_545
H29 Na3 2.526755 1_555
H30 Li2 2.194324 1_565
H30 Na0 2.526755 1_555
H31 Li3 2.194324 1_645
H31 Na1 2.526755 1_555
H32 Na0 2.257374 1_555
H32 Na2 2.432758 1_455
H33 Na1 2.257374 1_555
H33 Na3 2.432758 1_555
H34 Na2 2.257374 1_555
H34 Na0 2.432758 1_555
H35 Na3 2.257374 1_555
H35 Na1 2.432758 1_455
H36 Li0 2.121204 1_565
H36 Na0 2.437739 1_555
H37 Li1 2.121204 1_545
H37 Na1 2.437739 1_555
H38 Li2 2.121204 1_565
H38 Na2 2.437739 1_555
H39 Li3 2.121204 1_545
H39 Na3 2.437739 1_555
N4 Na0 2.386447 1_555
N5 Na1 2.386447 1_455
N6 Na2 2.386447 1_455
N7 Na3 2.386447 1_555
