# generated using pymatgen
data_Pr2(Al3Rh)3
_symmetry_space_group_name_H-M   'P 1'
_cell_length_a   7.58485185
_cell_length_b   7.58485185
_cell_length_c   9.59979329
_cell_angle_alpha   90.00000000
_cell_angle_beta   90.00000000
_cell_angle_gamma   119.15156543
_symmetry_Int_Tables_number   1
_chemical_formula_structural   Pr2(Al3Rh)3
_chemical_formula_sum   'Pr4 Al18 Rh6'
_cell_volume   482.32141034
_cell_formula_units_Z   2
loop_
 _symmetry_equiv_pos_site_id
 _symmetry_equiv_pos_as_xyz
  1  'x, y, z'
loop_
 _atom_site_type_symbol
 _atom_site_label
 _atom_site_symmetry_multiplicity
 _atom_site_fract_x
 _atom_site_fract_y
 _atom_site_fract_z
 _atom_site_occupancy
  Pr  Pr0  1  0.99459641  0.67163348  0.75000000  1
  Pr  Pr1  1  0.00540359  0.32836652  0.25000000  1
  Pr  Pr2  1  0.67163348  0.99459641  0.75000000  1
  Pr  Pr3  1  0.32836652  0.00540359  0.25000000  1
  Al  Al0  1  0.13286416  0.13286416  0.75000000  1
  Al  Al1  1  0.86713584  0.86713584  0.25000000  1
  Al  Al2  1  0.00382879  0.33584138  0.57257962  1
  Al  Al3  1  0.99617121  0.66415862  0.42742038  1
  Al  Al4  1  0.99617121  0.66415862  0.07257962  1
  Al  Al5  1  0.33584138  0.00382879  0.92742038  1
  Al  Al6  1  0.00382879  0.33584138  0.92742038  1
  Al  Al7  1  0.66415862  0.99617121  0.07257962  1
  Al  Al8  1  0.66415862  0.99617121  0.42742038  1
  Al  Al9  1  0.33584138  0.00382879  0.57257962  1
  Al  Al10  1  0.33451627  0.33451627  0.04127041  1
  Al  Al11  1  0.66548373  0.66548373  0.95872959  1
  Al  Al12  1  0.66548373  0.66548373  0.54127041  1
  Al  Al13  1  0.33451627  0.33451627  0.45872959  1
  Al  Al14  1  0.34014189  0.54687203  0.75000000  1
  Al  Al15  1  0.65985811  0.45312797  0.25000000  1
  Al  Al16  1  0.54687203  0.34014189  0.75000000  1
  Al  Al17  1  0.45312797  0.65985811  0.25000000  1
  Rh  Rh0  1  0.67110760  0.32889240  0.50000000  1
  Rh  Rh1  1  0.32889240  0.67110760  0.50000000  1
  Rh  Rh2  1  0.32889240  0.67110760  -0.00000000  1
  Rh  Rh3  1  0.67110760  0.32889240  -0.00000000  1
  Rh  Rh4  1  -0.00000000  -0.00000000  0.50000000  1
  Rh  Rh5  1  -0.00000000  -0.00000000  -0.00000000  1
loop_
_geom_bond_atom_site_label_1
_geom_bond_atom_site_label_2
_geom_bond_distance
_geom_bond_site_symmetry_2
Al0 Rh5 2.607965 1_556
Al0 Rh4 2.607965 1_555
Al0 Al16 2.742763 1_555
Al0 Al14 2.742763 1_555
Al0 Al2 2.774340 1_555
Al0 Al9 2.774340 1_555
Al0 Al6 2.774340 1_555
Al0 Al5 2.774340 1_555
Al0 Pr2 3.124747 1_445
Al0 Pr0 3.124747 1_445
Al1 Rh4 2.607965 1_665
Al1 Rh5 2.607965 1_665
Al1 Al15 2.742763 1_555
Al1 Al17 2.742763 1_555
Al1 Al4 2.774340 1_555
Al1 Al8 2.774340 1_555
Al1 Al3 2.774340 1_555
Al1 Al7 2.774340 1_555
Al1 Pr3 3.124747 1_665
Al1 Pr1 3.124747 1_665
Al2 Rh0 2.593726 1_455
Al2 Rh4 2.627357 1_555
Al2 Rh1 2.631106 1_555
Al2 Al3 2.878786 1_455
Al2 Al8 2.958102 1_445
Al2 Pr0 3.092963 1_455
Al2 Pr1 3.097346 1_555
Al2 Pr2 3.097607 1_445
Al3 Rh1 2.593726 1_655
Al3 Rh4 2.627357 1_665
Al3 Rh0 2.631106 1_555
Al3 Al9 2.958102 1_665
Al3 Pr1 3.092963 1_655
Al3 Pr0 3.097346 1_555
Al3 Pr3 3.097607 1_665
Al4 Rh2 2.593726 1_655
Al4 Rh5 2.627357 1_665
Al4 Rh3 2.631106 1_555
Al4 Al6 2.878786 1_654
Al4 Al5 2.958102 1_664
Al4 Pr1 3.092963 1_655
Al4 Pr0 3.097346 1_554
Al4 Pr3 3.097607 1_665
Al5 Rh2 2.593726 1_546
Al5 Rh5 2.627357 1_556
Al5 Rh3 2.631106 1_556
Al5 Al7 2.878786 1_546
Al5 Pr2 3.092963 1_545
Al5 Pr3 3.097346 1_556
Al5 Pr0 3.097607 1_445
Al6 Rh3 2.593726 1_456
Al6 Rh5 2.627357 1_556
Al6 Rh2 2.631106 1_556
Al6 Al7 2.958102 1_446
Al6 Pr0 3.092963 1_455
Al6 Pr1 3.097346 1_556
Al6 Pr2 3.097607 1_445
Al7 Rh3 2.593726 1_565
Al7 Rh5 2.627357 1_665
Al7 Rh2 2.631106 1_555
Al7 Pr3 3.092963 1_565
Al7 Pr2 3.097346 1_554
Al7 Pr1 3.097607 1_665
Al8 Rh0 2.593726 1_565
Al8 Rh4 2.627357 1_665
Al8 Rh1 2.631106 1_555
Al8 Al9 2.878786 1_565
Al8 Pr3 3.092963 1_565
Al8 Pr2 3.097346 1_555
Al8 Pr1 3.097607 1_665
Al9 Rh1 2.593726 1_545
Al9 Rh4 2.627357 1_555
Al9 Rh0 2.631106 1_555
Al9 Pr2 3.092963 1_545
Al9 Pr3 3.097346 1_555
Al9 Pr0 3.097607 1_445
Al10 Rh5 2.600086 1_555
Al10 Rh2 2.604355 1_555
Al10 Rh3 2.604355 1_555
Al10 Al11 2.663076 1_554
Al10 Al5 2.740496 1_554
Al10 Al6 2.740496 1_554
Al10 Al15 2.958203 1_555
Al10 Al17 2.958203 1_555
Al10 Pr1 3.183577 1_555
Al10 Pr3 3.183577 1_555
Al11 Rh5 2.600086 1_666
Al11 Rh2 2.604355 1_556
Al11 Rh3 2.604355 1_556
Al11 Al7 2.740496 1_556
Al11 Al4 2.740496 1_556
Al11 Al16 2.958203 1_555
Al11 Al14 2.958203 1_555
Al11 Pr0 3.183577 1_555
Al11 Pr2 3.183577 1_555
Al12 Rh4 2.600086 1_665
Al12 Rh1 2.604355 1_555
Al12 Rh0 2.604355 1_555
Al12 Al13 2.663076 1_555
Al12 Al8 2.740496 1_555
Al12 Al3 2.740496 1_555
Al12 Al16 2.958203 1_555
Al12 Al14 2.958203 1_555
Al12 Pr0 3.183577 1_555
Al12 Pr2 3.183577 1_555
Al13 Rh4 2.600086 1_555
Al13 Rh0 2.604355 1_555
Al13 Rh1 2.604355 1_555
Al13 Al2 2.740496 1_555
Al13 Al9 2.740496 1_555
Al13 Al17 2.958203 1_555
Al13 Al15 2.958203 1_555
Al13 Pr1 3.183577 1_555
Al13 Pr3 3.183577 1_555
Al14 Rh2 2.594862 1_556
Al14 Rh1 2.594862 1_555
Al14 Al16 2.704202 1_555
Al14 Al2 2.827024 1_555
Al14 Al6 2.827024 1_555
Al14 Pr2 3.087973 1_555
Al14 Pr0 3.190758 1_455
Al15 Rh0 2.594862 1_555
Al15 Rh3 2.594862 1_555
Al15 Al17 2.704202 1_555
Al15 Al3 2.827024 1_555
Al15 Al4 2.827024 1_555
Al15 Pr3 3.087973 1_555
Al15 Pr1 3.190758 1_655
Al16 Rh0 2.594862 1_555
Al16 Rh3 2.594862 1_556
Al16 Al9 2.827024 1_555
Al16 Al5 2.827024 1_555
Al16 Pr0 3.087973 1_555
Al16 Pr2 3.190758 1_545
Al17 Rh2 2.594862 1_555
Al17 Rh1 2.594862 1_555
Al17 Al8 2.827024 1_555
Al17 Al7 2.827024 1_555
Al17 Pr1 3.087973 1_555
Al17 Pr3 3.190758 1_565
