# generated using pymatgen
data_AsH6NO4
_symmetry_space_group_name_H-M   'P 1'
_cell_length_a   6.68659810
_cell_length_b   6.68659810
_cell_length_c   6.68659810
_cell_angle_alpha   116.53715964
_cell_angle_beta   106.05803822
_cell_angle_gamma   106.05803822
_symmetry_Int_Tables_number   1
_chemical_formula_structural   AsH6NO4
_chemical_formula_sum   'As2 H12 N2 O8'
_cell_volume   227.48474022
_cell_formula_units_Z   2
loop_
 _symmetry_equiv_pos_site_id
 _symmetry_equiv_pos_as_xyz
  1  'x, y, z'
loop_
 _atom_site_type_symbol
 _atom_site_label
 _atom_site_symmetry_multiplicity
 _atom_site_fract_x
 _atom_site_fract_y
 _atom_site_fract_z
 _atom_site_occupancy
  As  As0  1  0.50000000  0.75000000  0.25000000  1
  As  As1  1  0.00000000  0.00000000  0.00000000  1
  H  H0  1  0.63491500  0.25598200  0.70252000  1
  H  H1  1  0.94653800  0.49401800  0.62893300  1
  H  H2  1  0.36508500  0.06760500  0.62106700  1
  H  H3  1  0.05346200  0.68239500  0.54748000  1
  H  H4  1  0.55346200  0.29748000  0.93239500  1
  H  H5  1  0.13491500  0.45252000  0.50598200  1
  H  H6  1  0.44653800  0.37893300  0.74401800  1
  H  H7  1  0.86508500  0.37106700  0.31760500  1
  H  H8  1  0.89051300  0.01551300  0.62500000  1
  H  H9  1  0.10948700  0.73448700  0.12500000  1
  H  H10  1  0.39051300  0.37500000  0.26551300  1
  H  H11  1  0.60948700  0.87500000  0.98448700  1
  N  N0  1  0.50000000  0.25000000  0.75000000  1
  N  N1  1  0.00000000  0.50000000  0.50000000  1
  O  O0  1  0.74494600  0.03697300  0.49124900  1
  O  O1  1  0.95427600  0.71302700  0.95797300  1
  O  O2  1  0.25505400  0.74630300  0.29202700  1
  O  O3  1  0.04572400  0.00369700  0.75875100  1
  O  O4  1  0.54572400  0.50875100  0.25369700  1
  O  O5  1  0.24494600  0.24124900  0.28697300  1
  O  O6  1  0.45427600  0.70797300  0.96302700  1
  O  O7  1  0.75505400  0.04202700  0.99630300  1
loop_
_geom_bond_atom_site_label_1
_geom_bond_atom_site_label_2
_geom_bond_distance
_geom_bond_site_symmetry_2
As0 O0 1.732221 1_565
As0 O2 1.732221 1_555
As0 O6 1.732221 1_554
As0 O4 1.732221 1_555
As1 O7 1.732221 1_454
As1 O5 1.732221 1_555
As1 O1 1.732221 1_444
As1 O3 1.732221 1_554
H0 N0 1.032496 1_555
H1 N1 1.032496 1_655
H2 N0 1.032496 1_555
H3 N1 1.032496 1_555
H4 N0 1.032496 1_555
H5 N1 1.032496 1_555
H6 N0 1.032496 1_555
H7 N1 1.032496 1_655
H8 O0 1.215812 1_555
H8 O3 1.215812 1_655
H9 O2 1.215812 1_555
H9 O1 1.215812 1_454
H10 O4 1.215812 1_555
H10 O5 1.215812 1_555
H11 O7 1.215812 1_565
H11 O6 1.215812 1_555
