# generated using pymatgen
data_SrFe5N4
_symmetry_space_group_name_H-M   'P 1'
_cell_length_a   8.88177700
_cell_length_b   5.77465700
_cell_length_c   4.40475100
_cell_angle_alpha   90.00000000
_cell_angle_beta   90.00000000
_cell_angle_gamma   90.00000000
_symmetry_Int_Tables_number   1
_chemical_formula_structural   SrFe5N4
_chemical_formula_sum   'Sr2 Fe10 N8'
_cell_volume   225.91622426
_cell_formula_units_Z   2
loop_
 _symmetry_equiv_pos_site_id
 _symmetry_equiv_pos_as_xyz
  1  'x, y, z'
loop_
 _atom_site_type_symbol
 _atom_site_label
 _atom_site_symmetry_multiplicity
 _atom_site_fract_x
 _atom_site_fract_y
 _atom_site_fract_z
 _atom_site_occupancy
  Sr  Sr0  1  0.75000000  0.25000000  0.68846000  1
  Sr  Sr1  1  0.25000000  0.75000000  0.31154000  1
  Fe  Fe0  1  0.55582100  0.50488300  0.25428200  1
  Fe  Fe1  1  0.94417900  0.50488300  0.25428200  1
  Fe  Fe2  1  0.55582100  0.99511700  0.25428200  1
  Fe  Fe3  1  0.94417900  0.99511700  0.25428200  1
  Fe  Fe4  1  0.44417900  0.49511700  0.74571800  1
  Fe  Fe5  1  0.05582100  0.49511700  0.74571800  1
  Fe  Fe6  1  0.44417900  0.00488300  0.74571800  1
  Fe  Fe7  1  0.05582100  0.00488300  0.74571800  1
  Fe  Fe8  1  0.75000000  0.75000000  0.88844700  1
  Fe  Fe9  1  0.25000000  0.25000000  0.11155300  1
  N  N0  1  0.75000000  0.98788500  0.15698000  1
  N  N1  1  0.75000000  0.51211500  0.15698000  1
  N  N2  1  0.25000000  0.01211500  0.84302000  1
  N  N3  1  0.25000000  0.48788500  0.84302000  1
  N  N4  1  0.54556500  0.75000000  0.55258600  1
  N  N5  1  0.95443500  0.75000000  0.55258600  1
  N  N6  1  0.45443500  0.25000000  0.44741400  1
  N  N7  1  0.04556500  0.25000000  0.44741400  1
loop_
_geom_bond_atom_site_label_1
_geom_bond_atom_site_label_2
_geom_bond_distance
_geom_bond_site_symmetry_2
Fe0 N1 1.777602 1_555
Fe0 N6 1.923784 1_555
Fe0 N4 1.933474 1_555
Fe1 N1 1.777602 1_555
Fe1 N7 1.923784 1_655
Fe1 N5 1.933474 1_555
Fe2 N0 1.777602 1_555
Fe2 N6 1.923784 1_565
Fe2 N4 1.933474 1_555
Fe3 N0 1.777602 1_555
Fe3 N7 1.923784 1_665
Fe3 N5 1.933474 1_555
Fe4 N3 1.777602 1_555
Fe4 N4 1.923784 1_555
Fe4 N6 1.933474 1_555
Fe5 N3 1.777602 1_555
Fe5 N5 1.923784 1_455
Fe5 N7 1.933474 1_555
Fe6 N2 1.777602 1_555
Fe6 N4 1.923784 1_545
Fe6 N6 1.933474 1_555
Fe7 N2 1.777602 1_555
Fe7 N5 1.923784 1_445
Fe7 N7 1.933474 1_555
Fe8 N0 1.812768 1_556
Fe8 N1 1.812768 1_556
Fe8 N5 2.342117 1_555
Fe8 N4 2.342117 1_555
Fe9 N3 1.812768 1_554
Fe9 N2 1.812768 1_554
Fe9 N6 2.342117 1_555
Fe9 N7 2.342117 1_555
N0 Sr0 2.559292 1_564
N0 Sr0 2.787743 1_565
N1 Sr0 2.559292 1_554
N1 Sr0 2.787743 1_555
N2 Sr1 2.559292 1_546
N2 Sr1 2.787743 1_545
N3 Sr1 2.559292 1_556
N3 Sr1 2.787743 1_555
