# generated using pymatgen
data_Zr2N2O
_symmetry_space_group_name_H-M   'P 1'
_cell_length_a   8.86681000
_cell_length_b   8.87617378
_cell_length_c   8.87817098
_cell_angle_alpha   109.65738107
_cell_angle_beta   109.36006578
_cell_angle_gamma   109.33705866
_symmetry_Int_Tables_number   1
_chemical_formula_structural   Zr2N2O
_chemical_formula_sum   'Zr16 N16 O8'
_cell_volume   538.28007234
_cell_formula_units_Z   8
loop_
 _symmetry_equiv_pos_site_id
 _symmetry_equiv_pos_as_xyz
  1  'x, y, z'
loop_
 _atom_site_type_symbol
 _atom_site_label
 _atom_site_symmetry_multiplicity
 _atom_site_fract_x
 _atom_site_fract_y
 _atom_site_fract_z
 _atom_site_occupancy
  Zr  Zr0  1  0.71398400  0.95809800  0.24945200  1
  Zr  Zr1  1  0.49996800  0.50712500  0.48985100  1
  Zr  Zr2  1  0.75606600  0.79047100  0.96799700  1
  Zr  Zr3  1  0.24172200  0.70377700  0.53620900  1
  Zr  Zr4  1  0.97244400  0.75061300  0.28071900  1
  Zr  Zr5  1  0.46364700  0.74787600  0.78099900  1
  Zr  Zr6  1  0.00066700  0.49959100  0.00203600  1
  Zr  Zr7  1  0.20635900  0.45851300  0.25474300  1
  Zr  Zr8  1  0.79059300  0.53258200  0.75753300  1
  Zr  Zr9  1  0.50182500  0.00857300  0.98826300  1
  Zr  Zr10  1  0.00922500  0.00475100  0.50241800  1
  Zr  Zr11  1  0.53360900  0.25713700  0.21232600  1
  Zr  Zr12  1  0.02887800  0.24620800  0.71292600  1
  Zr  Zr13  1  0.25780800  0.21957200  0.03634700  1
  Zr  Zr14  1  0.74660900  0.28577700  0.46670200  1
  Zr  Zr15  1  0.28781900  0.03940500  0.74899900  1
  N  N0  1  0.51066900  0.73989300  0.53507500  1
  N  N1  1  0.24042100  0.46832600  0.98385700  1
  N  N2  1  0.04433500  0.77305000  0.48633300  1
  N  N3  1  0.76943000  0.04370900  0.96999900  1
  N  N4  1  0.99127400  0.45673100  0.77373000  1
  N  N5  1  0.53546900  0.27243200  0.95054200  1
  N  N6  1  0.27622500  0.51417100  0.45051900  1
  N  N7  1  0.03519000  0.98539500  0.73825800  1
  N  N8  1  0.00569200  0.54145100  0.22998900  1
  N  N9  1  0.22603600  0.95805900  0.03407100  1
  N  N10  1  0.75967100  0.53238500  0.01289600  1
  N  N11  1  0.95220300  0.22403300  0.51285900  1
  N  N12  1  0.54355600  0.02888400  0.72988400  1
  N  N13  1  0.73978300  0.72701100  0.23014600  1
  N  N14  1  0.26955400  0.23380300  0.27289500  1
  N  N15  1  0.49110200  0.26312000  0.46610800  1
  O  O0  1  0.72479900  0.76151400  0.73063000  1
  O  O1  1  0.26234200  0.27262500  0.77084800  1
  O  O2  1  0.45843200  0.96956900  0.27329700  1
  O  O3  1  0.46809000  0.72651200  0.04490500  1
  O  O4  1  0.96135500  0.01512200  0.26238000  1
  O  O5  1  0.72390500  0.48466200  0.55033500  1
  O  O6  1  0.22446500  0.77163500  0.76562700  1
  O  O7  1  0.77478400  0.22583900  0.23729700  1
loop_
_geom_bond_atom_site_label_1
_geom_bond_atom_site_label_2
_geom_bond_distance
_geom_bond_site_symmetry_2
Zr2 Zr5 2.386725 1_555
Zr3 Zr5 2.197887 1_555
Zr5 Zr9 2.249155 1_565
Zr11 Zr13 2.260280 1_555
Zr11 Zr9 2.273339 1_554
Zr11 Zr14 2.280301 1_555
N0 Zr1 1.930217 1_555
N0 O0 2.001248 1_555
N0 N6 2.023428 1_555
N0 Zr3 2.302497 1_555
N0 Zr5 2.337717 1_555
N0 Zr7 2.572019 1_555
N1 Zr12 2.135454 1_555
N1 Zr6 2.282621 1_556
N1 Zr13 2.446670 1_556
N1 Zr7 2.547113 1_556
N2 Zr4 1.636519 1_455
N2 Zr3 2.004836 1_555
N2 Zr10 2.145431 1_565
N2 Zr15 2.293718 1_565
N3 Zr2 2.205045 1_545
N3 Zr9 2.356437 1_555
N3 Zr5 2.523158 1_545
N4 Zr6 1.899590 1_656
N4 Zr12 1.935893 1_655
N4 Zr8 2.080649 1_555
N4 Zr14 2.357022 1_555
N5 Zr15 2.049105 1_555
N5 Zr11 2.378372 1_556
N5 Zr9 2.411975 1_555
N6 Zr7 1.467871 1_555
N6 Zr3 1.771623 1_555
N6 Zr1 1.923333 1_555
N6 Zr5 2.462298 1_555
N7 Zr15 2.091179 1_565
N7 Zr10 2.101250 1_565
N7 Zr13 2.310646 1_566
N7 Zr12 2.416772 1_565
N8 Zr4 1.903810 1_455
N8 Zr6 1.912896 1_555
N8 Zr7 2.114974 1_555
N8 Zr3 2.332899 1_555
N9 Zr13 2.235958 1_565
N9 Zr9 2.530257 1_564
N9 Zr11 2.550837 1_565
N10 Zr4 2.114738 1_555
N10 Zr6 2.278128 1_655
N10 Zr8 2.372690 1_554
N10 Zr2 2.462148 1_554
N11 Zr12 1.591058 1_655
N11 Zr14 2.027050 1_555
N11 Zr10 2.148033 1_655
N11 Zr0 2.282879 1_545
N12 Zr15 2.358838 1_555
N12 Zr9 2.495670 1_555
N12 Zr5 2.594942 1_545
N12 Zr3 2.634874 1_545
N13 Zr4 1.880872 1_555
N13 Zr0 2.095041 1_555
N13 Zr10 2.426892 1_665
N14 N15 1.999047 1_555
N14 Zr13 2.026098 1_555
N14 Zr1 2.175865 1_555
N14 Zr7 2.283589 1_555
N14 Zr11 2.530297 1_555
N15 O5 1.996541 1_555
N15 Zr1 2.076183 1_555
N15 Zr14 2.205162 1_555
N15 Zr11 2.391068 1_555
N15 Zr8 2.557674 1_555
O0 Zr2 1.945514 1_555
O0 Zr1 2.142069 1_555
O0 Zr8 2.354951 1_555
O0 Zr5 2.472628 1_555
O1 Zr12 1.869839 1_555
O1 Zr15 2.107738 1_555
O1 Zr10 2.340400 1_555
O1 Zr13 2.564487 1_556
O2 Zr0 2.376123 1_555
O2 Zr14 2.540527 1_565
O2 Zr11 2.700863 1_565
O2 Zr9 2.796157 1_564
O3 Zr0 2.042628 1_555
O3 Zr5 2.402050 1_554
O3 Zr9 2.657314 1_564
O4 Zr0 2.034480 1_545
O4 Zr10 2.070834 1_655
O4 Zr2 2.248581 1_544
O4 Zr4 2.438836 1_545
O5 Zr8 1.581237 1_555
O5 Zr14 1.777875 1_555
O5 Zr1 1.974344 1_555
O5 Zr11 2.497958 1_555
O6 Zr3 1.994264 1_555
O6 Zr5 2.164364 1_555
O6 Zr9 2.221078 1_565
O6 Zr15 2.322337 1_565
O7 Zr14 2.046936 1_555
O7 Zr11 2.195415 1_555
O7 Zr9 2.226575 1_554
O7 Zr0 2.304941 1_545
