# generated using pymatgen
data_PPd6
_symmetry_space_group_name_H-M   'P 1'
_cell_length_a   6.20065259
_cell_length_b   10.10147586
_cell_length_c   14.64062094
_cell_angle_alpha   89.99900734
_cell_angle_beta   90.00321574
_cell_angle_gamma   107.87358985
_symmetry_Int_Tables_number   1
_chemical_formula_structural   PPd6
_chemical_formula_sum   'P8 Pd48'
_cell_volume   872.76678990
_cell_formula_units_Z   8
loop_
 _symmetry_equiv_pos_site_id
 _symmetry_equiv_pos_as_xyz
  1  'x, y, z'
loop_
 _atom_site_type_symbol
 _atom_site_label
 _atom_site_symmetry_multiplicity
 _atom_site_fract_x
 _atom_site_fract_y
 _atom_site_fract_z
 _atom_site_occupancy
  P  P0_0  1  0.12741750  0.25483450  0.12500000  1
  P  P0_1  1  0.12741750  0.25483450  0.62500000  1
  P  P0_2  1  0.12741750  0.75483450  0.12500000  1
  P  P0_3  1  0.12741750  0.75483450  0.62500000  1
  P  P0_4  1  0.62741750  0.25483450  0.12500000  1
  P  P0_5  1  0.62741750  0.25483450  0.62500000  1
  P  P0_6  1  0.62741750  0.75483450  0.12500000  1
  P  P0_7  1  0.62741750  0.75483450  0.62500000  1
  Pd  Pd0_0  1  0.43410450  0.36902550  0.22205600  1
  Pd  Pd0_1  1  0.43410450  0.36902550  0.72205600  1
  Pd  Pd0_2  1  0.43410450  0.86902550  0.22205600  1
  Pd  Pd0_3  1  0.43410450  0.86902550  0.72205600  1
  Pd  Pd0_4  1  0.93410450  0.36902550  0.22205600  1
  Pd  Pd0_5  1  0.93410450  0.36902550  0.72205600  1
  Pd  Pd0_6  1  0.93410450  0.86902550  0.22205600  1
  Pd  Pd0_7  1  0.93410450  0.86902550  0.72205600  1
  Pd  Pd1_0  1  0.43492100  0.36902550  0.02794400  1
  Pd  Pd1_1  1  0.43492100  0.36902550  0.52794400  1
  Pd  Pd1_2  1  0.43492100  0.86902550  0.02794400  1
  Pd  Pd1_3  1  0.43492100  0.86902550  0.52794400  1
  Pd  Pd1_4  1  0.93492100  0.36902550  0.02794400  1
  Pd  Pd1_5  1  0.93492100  0.36902550  0.52794400  1
  Pd  Pd1_6  1  0.93492100  0.86902550  0.02794400  1
  Pd  Pd1_7  1  0.93492100  0.86902550  0.52794400  1
  Pd  Pd2_0  1  0.07241250  0.14469800  0.28423250  1
  Pd  Pd2_1  1  0.07241250  0.14469800  0.78423250  1
  Pd  Pd2_2  1  0.07241250  0.64469800  0.28423250  1
  Pd  Pd2_3  1  0.07241250  0.64469800  0.78423250  1
  Pd  Pd2_4  1  0.57241250  0.14469800  0.28423250  1
  Pd  Pd2_5  1  0.57241250  0.14469800  0.78423250  1
  Pd  Pd2_6  1  0.57241250  0.64469800  0.28423250  1
  Pd  Pd2_7  1  0.57241250  0.64469800  0.78423250  1
  Pd  Pd3_0  1  0.07228600  0.14469800  0.46576750  1
  Pd  Pd3_1  1  0.07228600  0.14469800  0.96576750  1
  Pd  Pd3_2  1  0.07228600  0.64469800  0.46576750  1
  Pd  Pd3_3  1  0.07228600  0.64469800  0.96576750  1
  Pd  Pd3_4  1  0.57228600  0.14469800  0.46576750  1
  Pd  Pd3_5  1  0.57228600  0.14469800  0.96576750  1
  Pd  Pd3_6  1  0.57228600  0.64469800  0.46576750  1
  Pd  Pd3_7  1  0.57228600  0.64469800  0.96576750  1
  Pd  Pd4_0  1  0.28516950  0.07033900  0.12500000  1
  Pd  Pd4_1  1  0.28516950  0.07033900  0.62500000  1
  Pd  Pd4_2  1  0.28516950  0.57033900  0.12500000  1
  Pd  Pd4_3  1  0.28516950  0.57033900  0.62500000  1
  Pd  Pd4_4  1  0.78516950  0.07033900  0.12500000  1
  Pd  Pd4_5  1  0.78516950  0.07033900  0.62500000  1
  Pd  Pd4_6  1  0.78516950  0.57033900  0.12500000  1
  Pd  Pd4_7  1  0.78516950  0.57033900  0.62500000  1
  Pd  Pd5_0  1  0.21618950  0.43237900  0.37500000  1
  Pd  Pd5_1  1  0.21618950  0.43237900  0.87500000  1
  Pd  Pd5_2  1  0.21618950  0.93237900  0.37500000  1
  Pd  Pd5_3  1  0.21618950  0.93237900  0.87500000  1
  Pd  Pd5_4  1  0.71618950  0.43237900  0.37500000  1
  Pd  Pd5_5  1  0.71618950  0.43237900  0.87500000  1
  Pd  Pd5_6  1  0.71618950  0.93237900  0.37500000  1
  Pd  Pd5_7  1  0.71618950  0.93237900  0.87500000  1
loop_
_geom_bond_atom_site_label_1
_geom_bond_atom_site_label_2
_geom_bond_distance
_geom_bond_site_symmetry_2
P0_0 Pd4_0 2.355655 1_555
P0_0 Pd4_4 2.355658 1_455
P0_0 Pd0_0 2.370498 1_555
P0_0 Pd1_4 2.370500 1_455
P0_0 Pd1_0 2.373911 1_555
P0_0 Pd0_4 2.373912 1_455
P0_0 Pd2_0 2.560457 1_555
P0_0 Pd3_1 2.560457 1_554
P0_1 Pd4_1 2.355655 1_555
P0_1 Pd4_5 2.355658 1_455
P0_1 Pd0_1 2.370498 1_555
P0_1 Pd1_5 2.370500 1_455
P0_1 Pd1_1 2.373911 1_555
P0_1 Pd0_5 2.373912 1_455
P0_1 Pd2_1 2.560457 1_555
P0_1 Pd3_0 2.560457 1_555
P0_2 Pd4_2 2.355655 1_555
P0_2 Pd4_6 2.355658 1_455
P0_2 Pd0_2 2.370498 1_555
P0_2 Pd1_6 2.370500 1_455
P0_2 Pd1_2 2.373911 1_555
P0_2 Pd0_6 2.373912 1_455
P0_2 Pd2_2 2.560457 1_555
P0_2 Pd3_3 2.560457 1_554
P0_3 Pd4_3 2.355655 1_555
P0_3 Pd4_7 2.355658 1_455
P0_3 Pd0_3 2.370498 1_555
P0_3 Pd1_7 2.370500 1_455
P0_3 Pd1_3 2.373911 1_555
P0_3 Pd0_7 2.373912 1_455
P0_3 Pd2_3 2.560457 1_555
P0_3 Pd3_2 2.560457 1_555
P0_4 Pd4_4 2.355655 1_555
P0_4 Pd4_0 2.355658 1_555
P0_4 Pd0_4 2.370498 1_555
P0_4 Pd1_0 2.370500 1_555
P0_4 Pd1_4 2.373911 1_555
P0_4 Pd0_0 2.373912 1_555
P0_4 Pd2_4 2.560457 1_555
P0_4 Pd3_5 2.560457 1_554
P0_5 Pd4_5 2.355655 1_555
P0_5 Pd4_1 2.355658 1_555
P0_5 Pd0_5 2.370498 1_555
P0_5 Pd1_1 2.370500 1_555
P0_5 Pd1_5 2.373911 1_555
P0_5 Pd0_1 2.373912 1_555
P0_5 Pd2_5 2.560457 1_555
P0_5 Pd3_4 2.560457 1_555
P0_6 Pd4_6 2.355655 1_555
P0_6 Pd4_2 2.355658 1_555
P0_6 Pd0_6 2.370498 1_555
P0_6 Pd1_2 2.370500 1_555
P0_6 Pd1_6 2.373911 1_555
P0_6 Pd0_2 2.373912 1_555
P0_6 Pd2_6 2.560457 1_555
P0_6 Pd3_7 2.560457 1_554
P0_7 Pd4_7 2.355655 1_555
P0_7 Pd4_3 2.355658 1_555
P0_7 Pd0_7 2.370498 1_555
P0_7 Pd1_3 2.370500 1_555
P0_7 Pd1_7 2.373911 1_555
P0_7 Pd0_3 2.373912 1_555
P0_7 Pd2_7 2.560457 1_555
P0_7 Pd3_6 2.560457 1_555
Pd0_0 Pd5_0 2.789359 1_555
Pd0_0 Pd5_4 2.792032 1_555
Pd0_0 Pd2_6 2.802274 1_555
Pd0_0 Pd2_0 2.806062 1_555
Pd0_0 Pd2_4 2.809235 1_555
Pd0_1 Pd5_1 2.789359 1_555
Pd0_1 Pd5_5 2.792032 1_555
Pd0_1 Pd2_7 2.802274 1_555
Pd0_1 Pd2_1 2.806062 1_555
Pd0_1 Pd2_5 2.809235 1_555
Pd0_2 Pd5_2 2.789359 1_555
Pd0_2 Pd5_6 2.792032 1_555
Pd0_2 Pd2_4 2.802274 1_565
Pd0_2 Pd2_2 2.806062 1_555
Pd0_2 Pd2_6 2.809235 1_555
Pd0_3 Pd5_3 2.789359 1_555
Pd0_3 Pd5_7 2.792032 1_555
Pd0_3 Pd2_5 2.802274 1_565
Pd0_3 Pd2_3 2.806062 1_555
Pd0_3 Pd2_7 2.809235 1_555
Pd0_4 Pd5_4 2.789359 1_555
Pd0_4 Pd5_0 2.792032 1_655
Pd0_4 Pd2_2 2.802274 1_655
Pd0_4 Pd2_4 2.806062 1_555
Pd0_4 Pd2_0 2.809235 1_655
Pd0_5 Pd5_5 2.789359 1_555
Pd0_5 Pd5_1 2.792032 1_655
Pd0_5 Pd2_3 2.802274 1_655
Pd0_5 Pd2_5 2.806062 1_555
Pd0_5 Pd2_1 2.809235 1_655
Pd0_6 Pd5_6 2.789359 1_555
Pd0_6 Pd5_2 2.792032 1_655
Pd0_6 Pd2_0 2.802274 1_665
Pd0_6 Pd2_6 2.806062 1_555
Pd0_6 Pd2_2 2.809235 1_655
Pd0_7 Pd5_7 2.789359 1_555
Pd0_7 Pd5_3 2.792032 1_655
Pd0_7 Pd2_1 2.802274 1_665
Pd0_7 Pd2_7 2.806062 1_555
Pd0_7 Pd2_3 2.809235 1_655
Pd1_0 Pd5_5 2.789359 1_554
Pd1_0 Pd5_1 2.792031 1_554
Pd1_0 Pd3_7 2.802274 1_554
Pd1_0 Pd3_5 2.806063 1_554
Pd1_0 Pd3_1 2.809234 1_554
Pd1_1 Pd5_4 2.789359 1_555
Pd1_1 Pd5_0 2.792031 1_555
Pd1_1 Pd3_6 2.802274 1_555
Pd1_1 Pd3_4 2.806063 1_555
Pd1_1 Pd3_0 2.809234 1_555
Pd1_2 Pd5_7 2.789359 1_554
Pd1_2 Pd5_3 2.792031 1_554
Pd1_2 Pd3_5 2.802274 1_564
Pd1_2 Pd3_7 2.806063 1_554
Pd1_2 Pd3_3 2.809234 1_554
Pd1_3 Pd5_6 2.789359 1_555
Pd1_3 Pd5_2 2.792031 1_555
Pd1_3 Pd3_4 2.802274 1_565
Pd1_3 Pd3_6 2.806063 1_555
Pd1_3 Pd3_2 2.809234 1_555
Pd1_4 Pd5_1 2.789359 1_654
Pd1_4 Pd5_5 2.792031 1_554
Pd1_4 Pd3_3 2.802274 1_654
Pd1_4 Pd3_1 2.806063 1_654
Pd1_4 Pd3_5 2.809234 1_554
Pd1_5 Pd5_0 2.789359 1_655
Pd1_5 Pd5_4 2.792031 1_555
Pd1_5 Pd3_2 2.802274 1_655
Pd1_5 Pd3_0 2.806063 1_655
Pd1_5 Pd3_4 2.809234 1_555
Pd1_6 Pd5_3 2.789359 1_654
Pd1_6 Pd5_7 2.792031 1_554
Pd1_6 Pd3_1 2.802274 1_664
Pd1_6 Pd3_3 2.806063 1_654
Pd1_6 Pd3_7 2.809234 1_554
Pd1_7 Pd5_2 2.789359 1_655
Pd1_7 Pd5_6 2.792031 1_555
Pd1_7 Pd3_0 2.802274 1_665
Pd1_7 Pd3_2 2.806063 1_655
Pd1_7 Pd3_6 2.809234 1_555
Pd2_0 Pd3_0 2.657785 1_555
Pd2_0 Pd5_2 2.886883 1_545
Pd2_0 Pd5_6 2.887386 1_445
Pd2_0 Pd4_0 2.889296 1_555
Pd2_0 Pd4_4 2.889579 1_455
Pd2_0 Pd5_0 3.068438 1_555
Pd2_0 Pd2_4 3.100326 1_555
Pd2_0 Pd2_4 3.100326 1_455
Pd2_1 Pd3_1 2.657785 1_555
Pd2_1 Pd5_3 2.886883 1_545
Pd2_1 Pd5_7 2.887386 1_445
Pd2_1 Pd4_1 2.889296 1_555
Pd2_1 Pd4_5 2.889579 1_455
Pd2_1 Pd5_1 3.068438 1_555
Pd2_1 Pd2_5 3.100326 1_455
Pd2_1 Pd2_5 3.100326 1_555
Pd2_2 Pd3_2 2.657785 1_555
Pd2_2 Pd5_0 2.886883 1_555
Pd2_2 Pd5_4 2.887386 1_455
Pd2_2 Pd4_2 2.889296 1_555
Pd2_2 Pd4_6 2.889579 1_455
Pd2_2 Pd5_2 3.068438 1_555
Pd2_2 Pd2_6 3.100326 1_455
Pd2_2 Pd2_6 3.100326 1_555
Pd2_3 Pd3_3 2.657785 1_555
Pd2_3 Pd5_1 2.886883 1_555
Pd2_3 Pd5_5 2.887386 1_455
Pd2_3 Pd4_3 2.889296 1_555
Pd2_3 Pd4_7 2.889579 1_455
Pd2_3 Pd5_3 3.068438 1_555
Pd2_3 Pd2_7 3.100326 1_555
Pd2_3 Pd2_7 3.100326 1_455
Pd2_4 Pd3_4 2.657785 1_555
Pd2_4 Pd5_6 2.886883 1_545
Pd2_4 Pd5_2 2.887386 1_545
Pd2_4 Pd4_4 2.889296 1_555
Pd2_4 Pd4_0 2.889579 1_555
Pd2_4 Pd5_4 3.068438 1_555
Pd2_5 Pd3_5 2.657785 1_555
Pd2_5 Pd5_7 2.886883 1_545
Pd2_5 Pd5_3 2.887386 1_545
Pd2_5 Pd4_5 2.889296 1_555
Pd2_5 Pd4_1 2.889579 1_555
Pd2_5 Pd5_5 3.068438 1_555
Pd2_6 Pd3_6 2.657785 1_555
Pd2_6 Pd5_4 2.886883 1_555
Pd2_6 Pd5_0 2.887386 1_555
Pd2_6 Pd4_6 2.889296 1_555
Pd2_6 Pd4_2 2.889579 1_555
Pd2_6 Pd5_6 3.068438 1_555
Pd2_7 Pd3_7 2.657785 1_555
Pd2_7 Pd5_5 2.886883 1_555
Pd2_7 Pd5_1 2.887386 1_555
Pd2_7 Pd4_7 2.889296 1_555
Pd2_7 Pd4_3 2.889579 1_555
Pd2_7 Pd5_7 3.068438 1_555
Pd3_0 Pd5_6 2.886885 1_445
Pd3_0 Pd5_2 2.887384 1_545
Pd3_0 Pd4_5 2.889298 1_455
Pd3_0 Pd4_1 2.889577 1_555
Pd3_0 Pd5_0 3.068438 1_555
Pd3_0 Pd3_4 3.100326 1_555
Pd3_0 Pd3_4 3.100326 1_455
Pd3_1 Pd5_7 2.886885 1_445
Pd3_1 Pd5_3 2.887384 1_545
Pd3_1 Pd4_4 2.889298 1_456
Pd3_1 Pd4_0 2.889577 1_556
Pd3_1 Pd5_1 3.068438 1_555
Pd3_1 Pd3_5 3.100326 1_455
Pd3_1 Pd3_5 3.100326 1_555
Pd3_2 Pd5_4 2.886885 1_455
Pd3_2 Pd5_0 2.887384 1_555
Pd3_2 Pd4_7 2.889298 1_455
Pd3_2 Pd4_3 2.889577 1_555
Pd3_2 Pd5_2 3.068438 1_555
Pd3_2 Pd3_6 3.100326 1_455
Pd3_2 Pd3_6 3.100326 1_555
Pd3_3 Pd5_5 2.886885 1_455
Pd3_3 Pd5_1 2.887384 1_555
Pd3_3 Pd4_6 2.889298 1_456
Pd3_3 Pd4_2 2.889577 1_556
Pd3_3 Pd5_3 3.068438 1_555
Pd3_3 Pd3_7 3.100326 1_555
Pd3_3 Pd3_7 3.100326 1_455
Pd3_4 Pd5_2 2.886885 1_545
Pd3_4 Pd5_6 2.887384 1_545
Pd3_4 Pd4_1 2.889298 1_555
Pd3_4 Pd4_5 2.889577 1_555
Pd3_4 Pd5_4 3.068438 1_555
Pd3_5 Pd5_3 2.886885 1_545
Pd3_5 Pd5_7 2.887384 1_545
Pd3_5 Pd4_0 2.889298 1_556
Pd3_5 Pd4_4 2.889577 1_556
Pd3_5 Pd5_5 3.068438 1_555
Pd3_6 Pd5_0 2.886885 1_555
Pd3_6 Pd5_4 2.887384 1_555
Pd3_6 Pd4_3 2.889298 1_555
Pd3_6 Pd4_7 2.889577 1_555
Pd3_6 Pd5_6 3.068438 1_555
Pd3_7 Pd5_1 2.886885 1_555
Pd3_7 Pd5_5 2.887384 1_555
Pd3_7 Pd4_2 2.889298 1_556
Pd3_7 Pd4_6 2.889577 1_556
Pd3_7 Pd5_7 3.068438 1_555
Pd5_0 Pd5_4 3.100326 1_455
Pd5_0 Pd5_4 3.100326 1_555
Pd5_1 Pd5_5 3.100326 1_455
Pd5_1 Pd5_5 3.100326 1_555
Pd5_2 Pd5_6 3.100326 1_555
Pd5_2 Pd5_6 3.100326 1_455
Pd5_3 Pd5_7 3.100326 1_455
Pd5_3 Pd5_7 3.100326 1_555
