# generated using pymatgen
data_TmZn5
_symmetry_space_group_name_H-M   'P 1'
_cell_length_a   8.73696042
_cell_length_b   8.73696042
_cell_length_c   8.88390406
_cell_angle_alpha   90.00000000
_cell_angle_beta   90.00000000
_cell_angle_gamma   120.00000379
_symmetry_Int_Tables_number   1
_chemical_formula_structural   TmZn5
_chemical_formula_sum   'Tm6 Zn30'
_cell_volume   587.29352340
_cell_formula_units_Z   6
loop_
 _symmetry_equiv_pos_site_id
 _symmetry_equiv_pos_as_xyz
  1  'x, y, z'
loop_
 _atom_site_type_symbol
 _atom_site_label
 _atom_site_symmetry_multiplicity
 _atom_site_fract_x
 _atom_site_fract_y
 _atom_site_fract_z
 _atom_site_occupancy
  Tm  Tm0  1  0.19021992  0.80978008  0.25000000  1
  Tm  Tm1  1  0.19021992  0.38043884  0.25000000  1
  Tm  Tm2  1  0.61956116  0.80978008  0.25000000  1
  Tm  Tm3  1  0.80978008  0.19021992  0.75000000  1
  Tm  Tm4  1  0.80978008  0.61956116  0.75000000  1
  Tm  Tm5  1  0.38043884  0.19021992  0.75000000  1
  Zn  Zn0  1  0.00000000  0.00000000  0.50000000  1
  Zn  Zn1  1  0.00000000  0.00000000  -0.00000000  1
  Zn  Zn2  1  0.33333300  0.66666700  0.48419632  1
  Zn  Zn3  1  0.66666700  0.33333300  0.51580368  1
  Zn  Zn4  1  0.66666700  0.33333300  0.98419632  1
  Zn  Zn5  1  0.33333300  0.66666700  0.01580368  1
  Zn  Zn6  1  0.50000000  0.50000000  0.50000000  1
  Zn  Zn7  1  0.50000000  0.00000000  0.50000000  1
  Zn  Zn8  1  0.00000000  0.50000000  0.50000000  1
  Zn  Zn9  1  0.50000000  0.50000000  -0.00000000  1
  Zn  Zn10  1  0.50000000  0.00000000  -0.00000000  1
  Zn  Zn11  1  0.00000000  0.50000000  -0.00000000  1
  Zn  Zn12  1  0.56760543  0.43239457  0.25000000  1
  Zn  Zn13  1  0.56760543  0.13521087  0.25000000  1
  Zn  Zn14  1  0.86478913  0.43239457  0.25000000  1
  Zn  Zn15  1  0.43239457  0.56760543  0.75000000  1
  Zn  Zn16  1  0.43239457  0.86478913  0.75000000  1
  Zn  Zn17  1  0.13521087  0.56760543  0.75000000  1
  Zn  Zn18  1  0.83974667  0.16025333  0.40682271  1
  Zn  Zn19  1  0.83974667  0.67949134  0.40682271  1
  Zn  Zn20  1  0.32050866  0.16025333  0.40682271  1
  Zn  Zn21  1  0.16025333  0.83974667  0.59317729  1
  Zn  Zn22  1  0.16025333  0.32050866  0.59317729  1
  Zn  Zn23  1  0.67949134  0.83974667  0.59317729  1
  Zn  Zn24  1  0.16025333  0.83974667  0.90682271  1
  Zn  Zn25  1  0.16025333  0.32050866  0.90682271  1
  Zn  Zn26  1  0.67949134  0.83974667  0.90682271  1
  Zn  Zn27  1  0.83974667  0.16025333  0.09317729  1
  Zn  Zn28  1  0.83974667  0.67949134  0.09317729  1
  Zn  Zn29  1  0.32050866  0.16025333  0.09317729  1
loop_
_geom_bond_atom_site_label_1
_geom_bond_atom_site_label_2
_geom_bond_distance
_geom_bond_site_symmetry_2
Tm0 Zn5 3.003182 1_555
Tm0 Zn2 3.003182 1_555
Tm0 Zn29 3.021163 1_565
Tm0 Zn19 3.021163 1_455
Tm0 Zn20 3.021163 1_565
Tm0 Zn28 3.021163 1_455
Tm0 Zn21 3.082296 1_555
Tm0 Zn24 3.082296 1_554
Tm0 Zn14 3.095304 1_455
Tm0 Zn13 3.095304 1_565
Tm0 Zn8 3.243766 1_555
Tm0 Zn10 3.243766 1_565
Tm0 Zn11 3.243766 1_555
Tm0 Zn7 3.243766 1_565
Tm1 Zn5 3.003193 1_555
Tm1 Zn2 3.003193 1_555
Tm1 Zn18 3.021164 1_455
Tm1 Zn27 3.021164 1_455
Tm1 Zn29 3.021171 1_555
Tm1 Zn20 3.021171 1_555
Tm1 Zn22 3.082292 1_555
Tm1 Zn25 3.082292 1_554
Tm1 Zn12 3.095300 1_555
Tm1 Zn14 3.095309 1_455
Tm1 Zn6 3.243765 1_555
Tm1 Zn9 3.243765 1_555
Tm1 Zn8 3.243771 1_555
Tm1 Zn11 3.243771 1_555
Tm2 Zn5 3.003193 1_555
Tm2 Zn2 3.003193 1_555
Tm2 Zn18 3.021164 1_565
Tm2 Zn27 3.021164 1_565
Tm2 Zn28 3.021171 1_555
Tm2 Zn19 3.021171 1_555
Tm2 Zn26 3.082292 1_554
Tm2 Zn23 3.082292 1_555
Tm2 Zn12 3.095300 1_555
Tm2 Zn13 3.095309 1_565
Tm2 Zn6 3.243765 1_555
Tm2 Zn9 3.243765 1_555
Tm2 Zn7 3.243771 1_565
Tm2 Zn10 3.243771 1_565
Tm3 Zn3 3.003182 1_555
Tm3 Zn4 3.003182 1_555
Tm3 Zn25 3.021163 1_655
Tm3 Zn23 3.021163 1_545
Tm3 Zn22 3.021163 1_655
Tm3 Zn26 3.021163 1_545
Tm3 Zn18 3.082296 1_555
Tm3 Zn27 3.082296 1_556
Tm3 Zn16 3.095304 1_545
Tm3 Zn17 3.095304 1_655
Tm3 Zn10 3.243766 1_556
Tm3 Zn8 3.243766 1_655
Tm3 Zn7 3.243766 1_555
Tm3 Zn11 3.243766 1_656
Tm4 Zn3 3.003193 1_555
Tm4 Zn4 3.003193 1_555
Tm4 Zn21 3.021164 1_655
Tm4 Zn24 3.021164 1_655
Tm4 Zn23 3.021171 1_555
Tm4 Zn26 3.021171 1_555
Tm4 Zn19 3.082292 1_555
Tm4 Zn28 3.082292 1_556
Tm4 Zn15 3.095300 1_555
Tm4 Zn17 3.095309 1_655
Tm4 Zn9 3.243765 1_556
Tm4 Zn6 3.243765 1_555
Tm4 Zn8 3.243771 1_655
Tm4 Zn11 3.243771 1_656
Tm5 Zn4 3.003193 1_555
Tm5 Zn3 3.003193 1_555
Tm5 Zn24 3.021164 1_545
Tm5 Zn21 3.021164 1_545
Tm5 Zn25 3.021171 1_555
Tm5 Zn22 3.021171 1_555
Tm5 Zn20 3.082292 1_555
Tm5 Zn29 3.082292 1_556
Tm5 Zn15 3.095300 1_555
Tm5 Zn16 3.095309 1_545
Tm5 Zn9 3.243765 1_556
Tm5 Zn6 3.243765 1_555
Tm5 Zn10 3.243771 1_556
Tm5 Zn7 3.243771 1_555
Zn0 Zn18 2.562476 1_455
Zn0 Zn21 2.562476 1_545
Zn0 Zn20 2.562490 1_555
Zn0 Zn19 2.562490 1_445
Zn0 Zn22 2.562490 1_555
Zn0 Zn23 2.562490 1_445
Zn1 Zn24 2.562476 1_544
Zn1 Zn27 2.562476 1_455
Zn1 Zn29 2.562490 1_555
Zn1 Zn25 2.562490 1_554
Zn1 Zn28 2.562490 1_445
Zn1 Zn26 2.562490 1_444
Zn2 Zn8 2.526045 1_555
Zn2 Zn7 2.526045 1_565
Zn2 Zn6 2.526053 1_555
Zn2 Zn23 2.792397 1_555
Zn2 Zn22 2.792397 1_555
Zn2 Zn21 2.792405 1_555
Zn3 Zn8 2.526045 1_655
Zn3 Zn7 2.526045 1_555
Zn3 Zn6 2.526053 1_555
Zn4 Zn9 2.526053 1_556
Zn5 Zn9 2.526053 1_555
Zn10 Zn16 2.445280 1_544
Zn10 Zn13 2.445280 1_555
Zn10 Zn5 2.526045 1_545
Zn10 Zn4 2.526045 1_554
Zn10 Zn26 2.701952 1_544
Zn10 Zn29 2.701952 1_555
Zn10 Zn24 2.701966 1_544
Zn10 Zn27 2.701966 1_555
Zn11 Zn14 2.445280 1_455
Zn11 Zn17 2.445280 1_554
Zn11 Zn4 2.526045 1_454
Zn11 Zn5 2.526045 1_555
Zn11 Zn28 2.701952 1_455
Zn11 Zn25 2.701952 1_554
Zn11 Zn27 2.701966 1_455
Zn11 Zn24 2.701966 1_554
Zn12 Zn6 2.445280 1_555
Zn12 Zn9 2.445280 1_555
Zn12 Zn13 2.596482 1_555
Zn12 Zn14 2.596482 1_555
Zn12 Zn28 2.668709 1_555
Zn12 Zn29 2.668709 1_555
Zn12 Zn19 2.668709 1_555
Zn12 Zn20 2.668709 1_555
Zn12 Zn4 2.797024 1_554
Zn12 Zn3 2.797024 1_555
Zn13 Zn7 2.445280 1_555
Zn13 Zn14 2.596482 1_555
Zn13 Zn29 2.668701 1_555
Zn13 Zn20 2.668701 1_555
Zn13 Zn27 2.668715 1_555
Zn13 Zn18 2.668715 1_555
Zn13 Zn3 2.797020 1_555
Zn13 Zn4 2.797020 1_554
Zn14 Zn8 2.445280 1_655
Zn14 Zn28 2.668701 1_555
Zn14 Zn19 2.668701 1_555
Zn14 Zn27 2.668715 1_555
Zn14 Zn18 2.668715 1_555
Zn14 Zn3 2.797020 1_555
Zn14 Zn4 2.797020 1_554
Zn15 Zn6 2.445280 1_555
Zn15 Zn9 2.445280 1_556
Zn15 Zn16 2.596482 1_555
Zn15 Zn17 2.596482 1_555
Zn15 Zn25 2.668709 1_555
Zn15 Zn22 2.668709 1_555
Zn15 Zn23 2.668709 1_555
Zn15 Zn26 2.668709 1_555
Zn15 Zn2 2.797024 1_555
Zn15 Zn5 2.797024 1_556
Zn16 Zn7 2.445280 1_565
Zn16 Zn17 2.596482 1_555
Zn16 Zn26 2.668701 1_555
Zn16 Zn23 2.668701 1_555
Zn16 Zn21 2.668715 1_555
Zn16 Zn24 2.668715 1_555
Zn16 Zn2 2.797020 1_555
Zn16 Zn5 2.797020 1_556
Zn17 Zn8 2.445280 1_555
Zn17 Zn22 2.668701 1_555
Zn17 Zn25 2.668701 1_555
Zn17 Zn24 2.668715 1_555
Zn17 Zn21 2.668715 1_555
Zn17 Zn2 2.797020 1_555
Zn17 Zn5 2.797020 1_556
Zn18 Zn7 2.701966 1_555
Zn18 Zn8 2.701966 1_655
Zn18 Zn27 2.786396 1_555
Zn18 Zn3 2.792405 1_555
Zn18 Zn23 2.936313 1_545
Zn18 Zn22 2.936313 1_655
Zn19 Zn8 2.701952 1_655
Zn19 Zn6 2.701966 1_555
Zn19 Zn28 2.786396 1_555
Zn19 Zn3 2.792397 1_555
Zn19 Zn21 2.936313 1_655
Zn19 Zn23 2.936338 1_555
Zn20 Zn7 2.701952 1_555
Zn20 Zn6 2.701966 1_555
Zn20 Zn29 2.786396 1_555
Zn20 Zn3 2.792397 1_555
Zn20 Zn21 2.936313 1_545
Zn20 Zn22 2.936338 1_555
Zn21 Zn7 2.701966 1_565
Zn21 Zn8 2.701966 1_555
Zn21 Zn24 2.786396 1_555
Zn22 Zn8 2.701952 1_555
Zn22 Zn6 2.701966 1_555
Zn22 Zn25 2.786396 1_555
Zn23 Zn7 2.701952 1_565
Zn23 Zn6 2.701966 1_555
Zn23 Zn26 2.786396 1_555
Zn24 Zn5 2.792405 1_556
Zn24 Zn28 2.936313 1_456
Zn24 Zn29 2.936313 1_566
Zn25 Zn9 2.701966 1_556
Zn25 Zn5 2.792397 1_556
Zn25 Zn27 2.936313 1_456
Zn25 Zn29 2.936338 1_556
Zn26 Zn9 2.701966 1_556
Zn26 Zn5 2.792397 1_556
Zn26 Zn27 2.936313 1_566
Zn26 Zn28 2.936338 1_556
Zn27 Zn4 2.792405 1_554
Zn28 Zn9 2.701966 1_555
Zn28 Zn4 2.792397 1_554
Zn29 Zn9 2.701966 1_555
Zn29 Zn4 2.792397 1_554
