# generated using pymatgen
data_FePO4
_symmetry_space_group_name_H-M   'P 1'
_cell_length_a   5.31453975
_cell_length_b   5.31314382
_cell_length_c   23.42219560
_cell_angle_alpha   90.00000266
_cell_angle_beta   90.00001354
_cell_angle_gamma   59.99157489
_symmetry_Int_Tables_number   1
_chemical_formula_structural   FePO4
_chemical_formula_sum   'Fe6 P6 O24'
_cell_volume   572.71504204
_cell_formula_units_Z   6
loop_
 _symmetry_equiv_pos_site_id
 _symmetry_equiv_pos_as_xyz
  1  'x, y, z'
loop_
 _atom_site_type_symbol
 _atom_site_label
 _atom_site_symmetry_multiplicity
 _atom_site_fract_x
 _atom_site_fract_y
 _atom_site_fract_z
 _atom_site_occupancy
  Fe  Fe0  1  0.50000051  0.49999934  0.91664220  1
  Fe  Fe1  1  0.99999981  0.50000048  0.58335877  1
  Fe  Fe2  1  0.49999953  0.00000028  0.24999843  1
  Fe  Fe3  1  0.50000061  0.49999935  0.41663767  1
  Fe  Fe4  1  0.99999997  0.50000056  0.08336015  1
  Fe  Fe5  1  0.49999936  1.00000011  0.75000133  1
  P  P0  1  0.50000048  0.49999964  0.16666786  1
  P  P1  1  0.50000023  0.49999966  0.66666959  1
  P  P2  1  -0.00000008  0.50000029  0.33332698  1
  P  P3  1  -0.00000010  0.50000032  0.83333502  1
  P  P4  1  0.49999966  0.99999992  1.00000318  1
  P  P5  1  0.49999966  1.00000001  0.49999677  1
  O  O0  1  0.76402483  0.81316304  0.03735302  1
  O  O1  1  0.76402386  0.81316310  0.53735393  1
  O  O2  1  0.42273828  0.76409176  0.20401690  1
  O  O3  1  0.42273422  0.76409838  0.70401688  1
  O  O4  1  0.81320140  0.42277835  0.37067562  1
  O  O5  1  0.81319685  0.42277293  0.87067472  1
  O  O6  1  0.18679869  0.57722198  0.37067564  1
  O  O7  1  0.18680315  0.57722763  0.87067472  1
  O  O8  1  0.18683341  0.23590063  0.29598345  1
  O  O9  1  0.18683161  0.23591093  0.79598247  1
  O  O10  1  0.23597458  0.18683708  0.03735301  1
  O  O11  1  0.23597546  0.18683701  0.53735391  1
  O  O12  1  0.81316651  0.76409989  0.29598347  1
  O  O13  1  0.81316802  0.76408969  0.79598247  1
  O  O14  1  0.23597436  0.57722487  0.12932528  1
  O  O15  1  0.23597418  0.57722440  0.62932416  1
  O  O16  1  0.57718694  0.18684028  0.46264672  1
  O  O17  1  0.57718528  0.18683780  0.96264697  1
  O  O18  1  0.42281259  0.81315953  0.46264669  1
  O  O19  1  0.42281421  0.81316161  0.96264703  1
  O  O20  1  0.76402611  0.42277501  0.12932523  1
  O  O21  1  0.76402606  0.42277519  0.62932415  1
  O  O22  1  0.57726375  0.23590678  0.20401672  1
  O  O23  1  0.57726601  0.23590119  0.70401689  1
loop_
_geom_bond_atom_site_label_1
_geom_bond_atom_site_label_2
_geom_bond_distance
_geom_bond_site_symmetry_2
Fe0 O5 1.847960 1_555
Fe0 O7 1.847961 1_555
Fe0 O17 1.848003 1_555
Fe0 O19 1.848005 1_555
Fe1 O15 1.847939 1_655
Fe1 O21 1.847941 1_555
Fe1 O1 1.848009 1_555
Fe1 O11 1.848012 1_655
Fe2 O2 1.847795 1_545
Fe2 O22 1.847798 1_555
Fe2 O8 1.847828 1_555
Fe2 O12 1.847831 1_545
Fe3 O4 1.847911 1_555
Fe3 O6 1.847913 1_555
Fe3 O16 1.848050 1_555
Fe3 O18 1.848052 1_555
Fe4 O14 1.847937 1_655
Fe4 O20 1.847938 1_555
Fe4 O0 1.848039 1_555
Fe4 O10 1.848042 1_655
Fe5 O9 1.847793 1_565
Fe5 O13 1.847795 1_555
Fe5 O3 1.847818 1_555
Fe5 O23 1.847820 1_565
O0 P4 1.525240 1_554
O1 P5 1.525336 1_555
O2 P0 1.525263 1_555
O3 P1 1.525263 1_555
O4 P2 1.525307 1_655
O5 P3 1.525223 1_655
O6 P2 1.525307 1_555
O7 P3 1.525223 1_555
O8 P2 1.525218 1_555
O9 P3 1.525305 1_555
O10 P4 1.525240 1_544
O11 P5 1.525336 1_545
O12 P2 1.525218 1_655
O13 P3 1.525305 1_655
O14 P0 1.525248 1_555
O15 P1 1.525286 1_555
O16 P5 1.525250 1_545
O17 P4 1.525317 1_545
O18 P5 1.525250 1_555
O19 P4 1.525317 1_555
O20 P0 1.525247 1_555
O21 P1 1.525286 1_555
O22 P0 1.525262 1_555
O23 P1 1.525262 1_555
