# generated using pymatgen
data_Sm(Al4Co)2
_symmetry_space_group_name_H-M   'P 1'
_cell_length_a   3.96379239
_cell_length_b   12.34708263
_cell_length_c   14.24927361
_cell_angle_alpha   90.00000000
_cell_angle_beta   90.00000000
_cell_angle_gamma   90.00000000
_symmetry_Int_Tables_number   1
_chemical_formula_structural   Sm(Al4Co)2
_chemical_formula_sum   'Sm4 Al32 Co8'
_cell_volume   697.37757794
_cell_formula_units_Z   4
loop_
 _symmetry_equiv_pos_site_id
 _symmetry_equiv_pos_as_xyz
  1  'x, y, z'
loop_
 _atom_site_type_symbol
 _atom_site_label
 _atom_site_symmetry_multiplicity
 _atom_site_fract_x
 _atom_site_fract_y
 _atom_site_fract_z
 _atom_site_occupancy
  Sm  Sm0  1  0.00000000  0.84015441  0.18181065  1
  Sm  Sm1  1  0.00000000  0.15984559  0.81818935  1
  Sm  Sm2  1  -0.00000000  0.34015441  0.31818935  1
  Sm  Sm3  1  -0.00000000  0.65984559  0.68181065  1
  Al  Al0  1  0.00000000  0.50000000  0.50000000  1
  Al  Al1  1  0.00000000  0.00000000  -0.00000000  1
  Al  Al2  1  0.50000000  0.50000000  -0.00000000  1
  Al  Al3  1  0.50000000  0.00000000  0.50000000  1
  Al  Al4  1  0.50000000  0.73563809  0.32802558  1
  Al  Al5  1  0.50000000  0.26436191  0.67197442  1
  Al  Al6  1  0.50000000  0.23563809  0.17197442  1
  Al  Al7  1  0.50000000  0.76436191  0.82802558  1
  Al  Al8  1  0.50000000  0.95313219  0.32064964  1
  Al  Al9  1  0.50000000  0.04686781  0.67935036  1
  Al  Al10  1  0.50000000  0.45313219  0.17935036  1
  Al  Al11  1  0.50000000  0.54686781  0.82064964  1
  Al  Al12  1  0.50000000  0.65869367  0.12100148  1
  Al  Al13  1  0.50000000  0.34130633  0.87899852  1
  Al  Al14  1  0.50000000  0.15869367  0.37899852  1
  Al  Al15  1  0.50000000  0.84130633  0.62100148  1
  Al  Al16  1  0.00000000  0.84058748  0.45614318  1
  Al  Al17  1  0.00000000  0.15941252  0.54385682  1
  Al  Al18  1  0.00000000  0.34058748  0.04385682  1
  Al  Al19  1  -0.00000000  0.65941252  0.95614318  1
  Al  Al20  1  0.00000000  0.59563282  0.24766217  1
  Al  Al21  1  0.00000000  0.40436718  0.75233783  1
  Al  Al22  1  -0.00000000  0.09563282  0.25233783  1
  Al  Al23  1  -0.00000000  0.90436718  0.74766217  1
  Al  Al24  1  0.50000000  0.83145183  0.00848259  1
  Al  Al25  1  0.50000000  0.16854817  0.99151741  1
  Al  Al26  1  0.50000000  0.33145183  0.49151741  1
  Al  Al27  1  0.50000000  0.66854817  0.50848259  1
  Al  Al28  1  0.50000000  0.52589651  0.36830504  1
  Al  Al29  1  0.50000000  0.47410349  0.63169496  1
  Al  Al30  1  0.50000000  0.02589651  0.13169496  1
  Al  Al31  1  0.50000000  0.97410349  0.86830504  1
  Co  Co0  1  0.00000000  0.65198955  0.40406467  1
  Co  Co1  1  -0.00000000  0.34801045  0.59593533  1
  Co  Co2  1  -0.00000000  0.15198955  0.09593533  1
  Co  Co3  1  -0.00000000  0.84801045  0.90406467  1
  Co  Co4  1  0.00000000  0.53440270  0.09463269  1
  Co  Co5  1  -0.00000000  0.46559730  0.90536731  1
  Co  Co6  1  -0.00000000  0.03440270  0.40536731  1
  Co  Co7  1  0.00000000  0.96559730  0.59463269  1
loop_
_geom_bond_atom_site_label_1
_geom_bond_atom_site_label_2
_geom_bond_distance
_geom_bond_site_symmetry_2
Al0 Co1 2.321733 1_555
Al0 Co0 2.321733 1_555
Al0 Al28 2.748021 1_455
Al0 Al28 2.748021 1_555
Al0 Al29 2.748021 1_555
Al0 Al29 2.748021 1_455
Al0 Sm3 3.256804 1_555
Al0 Sm2 3.256804 1_555
Al1 Co2 2.321733 1_555
Al1 Co3 2.321733 1_544
Al1 Al31 2.748021 1_544
Al1 Al30 2.748021 1_455
Al1 Al31 2.748021 1_444
Al1 Al30 2.748021 1_555
Al1 Sm1 3.256804 1_554
Al1 Sm0 3.256804 1_545
Al2 Co4 2.434472 1_555
Al2 Co4 2.434472 1_655
Al2 Co5 2.434472 1_554
Al2 Co5 2.434472 1_654
Al3 Co7 2.434472 1_645
Al3 Co6 2.434472 1_655
Al3 Co7 2.434472 1_545
Al3 Co6 2.434472 1_555
Al4 Co0 2.483666 1_555
Al4 Co0 2.483666 1_655
Al4 Sm0 3.151828 1_655
Al4 Sm0 3.151828 1_555
Al5 Co1 2.483666 1_555
Al5 Co1 2.483666 1_655
Al5 Sm1 3.151828 1_655
Al5 Sm1 3.151828 1_555
Al6 Co2 2.483666 1_655
Al6 Co2 2.483666 1_555
Al6 Sm2 3.151828 1_555
Al6 Sm2 3.151828 1_655
Al7 Co3 2.483666 1_655
Al7 Co3 2.483666 1_555
Al7 Sm3 3.151828 1_555
Al7 Sm3 3.151828 1_655
Al8 Co6 2.528256 1_565
Al8 Co6 2.528256 1_665
Al8 Sm0 3.128526 1_555
Al8 Sm0 3.128526 1_655
Al9 Co7 2.528256 1_645
Al9 Co7 2.528256 1_545
Al9 Sm1 3.128526 1_655
Al9 Sm1 3.128526 1_555
Al10 Co4 2.528256 1_555
Al10 Co4 2.528256 1_655
Al10 Al12 2.670795 1_555
Al10 Al28 2.838406 1_555
Al10 Sm2 3.128526 1_655
Al10 Sm2 3.128526 1_555
Al11 Co5 2.528256 1_555
Al11 Co5 2.528256 1_655
Al11 Al13 2.670795 1_555
Al11 Al29 2.838406 1_555
Al11 Sm3 3.128526 1_555
Al11 Sm3 3.128526 1_655
Al12 Co4 2.534597 1_655
Al12 Co4 2.534597 1_555
Al12 Al2 2.609994 1_555
Al12 Al24 2.668436 1_555
Al12 Al20 2.791334 1_555
Al12 Al20 2.791334 1_655
Al12 Al19 3.073486 1_654
Al12 Al19 3.073486 1_554
Al12 Al4 3.099151 1_555
Al12 Sm0 3.114258 1_655
Al12 Sm0 3.114258 1_555
Al13 Co5 2.534597 1_655
Al13 Co5 2.534597 1_555
Al13 Al2 2.609994 1_556
Al13 Al25 2.668436 1_555
Al13 Al21 2.791334 1_555
Al13 Al21 2.791334 1_655
Al13 Al18 3.073486 1_556
Al13 Al18 3.073486 1_656
Al13 Al5 3.099151 1_555
Al13 Sm1 3.114258 1_555
Al13 Sm1 3.114258 1_655
Al14 Co6 2.534597 1_555
Al14 Co6 2.534597 1_655
Al14 Al3 2.609994 1_555
Al14 Al26 2.668436 1_555
Al14 Al8 2.670795 1_545
Al14 Al22 2.791334 1_555
Al14 Al22 2.791334 1_655
Al14 Al17 3.073486 1_555
Al14 Al17 3.073486 1_655
Al14 Al6 3.099151 1_555
Al14 Sm2 3.114258 1_655
Al14 Sm2 3.114258 1_555
Al15 Co7 2.534597 1_555
Al15 Co7 2.534597 1_655
Al15 Al3 2.609994 1_565
Al15 Al27 2.668436 1_555
Al15 Al9 2.670795 1_565
Al15 Al23 2.791334 1_555
Al15 Al23 2.791334 1_655
Al15 Al16 3.073486 1_555
Al15 Al16 3.073486 1_655
Al15 Al7 3.099151 1_555
Al15 Sm3 3.114258 1_655
Al15 Sm3 3.114258 1_555
Al16 Co0 2.444017 1_555
Al16 Co6 2.500036 1_565
Al16 Co7 2.505319 1_555
Al17 Co1 2.444017 1_555
Al17 Co7 2.500036 1_545
Al17 Co6 2.505319 1_555
Al18 Co2 2.444017 1_555
Al18 Co4 2.500036 1_555
Al18 Co5 2.505319 1_554
Al19 Co3 2.444017 1_555
Al19 Co5 2.500036 1_555
Al19 Co4 2.505319 1_556
Al20 Co4 2.307898 1_555
Al20 Co0 2.334727 1_555
Al20 Al28 2.761252 1_455
Al20 Al28 2.761252 1_555
Al20 Sm0 3.161584 1_555
Al20 Sm2 3.310630 1_555
Al21 Co5 2.307898 1_555
Al21 Co1 2.334727 1_555
Al21 Al29 2.761252 1_555
Al21 Al29 2.761252 1_455
Al21 Sm1 3.161584 1_555
Al21 Sm3 3.310630 1_555
Al22 Co6 2.307898 1_555
Al22 Co2 2.334727 1_555
Al22 Al30 2.761252 1_555
Al22 Al30 2.761252 1_455
Al22 Sm2 3.161584 1_555
Al22 Sm0 3.310630 1_545
Al23 Co7 2.307898 1_555
Al23 Co3 2.334727 1_555
Al23 Al31 2.761252 1_455
Al23 Al31 2.761252 1_555
Al23 Sm3 3.161584 1_555
Al23 Sm1 3.310630 1_565
Al24 Co3 2.486664 1_654
Al24 Co3 2.486664 1_554
Al24 Al31 2.663083 1_554
Al24 Al30 2.974289 1_565
Al24 Sm0 3.168496 1_555
Al24 Sm0 3.168496 1_655
Al25 Co2 2.486664 1_556
Al25 Co2 2.486664 1_656
Al25 Al30 2.663083 1_556
Al25 Al31 2.974289 1_545
Al25 Sm1 3.168496 1_655
Al25 Sm1 3.168496 1_555
Al26 Co1 2.486664 1_555
Al26 Co1 2.486664 1_655
Al26 Al29 2.663083 1_555
Al26 Al28 2.974289 1_555
Al26 Sm2 3.168496 1_555
Al26 Sm2 3.168496 1_655
Al27 Co0 2.486664 1_655
Al27 Co0 2.486664 1_555
Al27 Al28 2.663083 1_555
Al27 Al29 2.974289 1_555
Al27 Sm3 3.168496 1_555
Al27 Sm3 3.168496 1_655
Al28 Co0 2.571270 1_555
Al28 Co0 2.571270 1_655
Al28 Al4 2.652537 1_555
Al28 Sm2 3.114069 1_655
Al28 Sm2 3.114069 1_555
Al29 Co1 2.571270 1_655
Al29 Co1 2.571270 1_555
Al29 Al5 2.652537 1_555
Al29 Sm3 3.114069 1_555
Al29 Sm3 3.114069 1_655
Al30 Co2 2.571270 1_555
Al30 Co2 2.571270 1_655
Al30 Al6 2.652537 1_555
Al30 Al8 2.838406 1_545
Al30 Sm0 3.114069 1_545
Al30 Sm0 3.114069 1_645
Al31 Co3 2.571270 1_655
Al31 Co3 2.571270 1_555
Al31 Al7 2.652537 1_555
Al31 Al9 2.838406 1_565
Al31 Sm1 3.114069 1_565
Al31 Sm1 3.114069 1_665
