# generated using pymatgen
data_GaPPt5
_symmetry_space_group_name_H-M   'P 1'
_cell_length_a   3.91763036
_cell_length_b   3.91763036
_cell_length_c   6.88459791
_cell_angle_alpha   90.00000000
_cell_angle_beta   90.00000000
_cell_angle_gamma   90.00000000
_symmetry_Int_Tables_number   1
_chemical_formula_structural   GaPPt5
_chemical_formula_sum   'Ga1 P1 Pt5'
_cell_volume   105.66362208
_cell_formula_units_Z   1
loop_
 _symmetry_equiv_pos_site_id
 _symmetry_equiv_pos_as_xyz
  1  'x, y, z'
loop_
 _atom_site_type_symbol
 _atom_site_label
 _atom_site_symmetry_multiplicity
 _atom_site_fract_x
 _atom_site_fract_y
 _atom_site_fract_z
 _atom_site_occupancy
  Ga  Ga0  1  0.50000000  0.50000000  -0.00000000  1
  P  P0  1  0.00000000  0.00000000  0.50000000  1
  Pt  Pt0  1  -0.00000000  0.50000000  0.28991813  1
  Pt  Pt1  1  0.00000000  0.50000000  0.71008187  1
  Pt  Pt2  1  0.50000000  0.00000000  0.28991813  1
  Pt  Pt3  1  0.50000000  -0.00000000  0.71008187  1
  Pt  Pt4  1  0.00000000  0.00000000  0.00000000  1
loop_
_geom_bond_atom_site_label_1
_geom_bond_atom_site_label_2
_geom_bond_distance
_geom_bond_site_symmetry_2
Ga0 Pt4 2.770183 1_555
Ga0 Pt4 2.770183 1_655
Ga0 Pt4 2.770183 1_565
Ga0 Pt4 2.770183 1_665
Ga0 Pt0 2.796579 1_655
Ga0 Pt2 2.796579 1_555
Ga0 Pt2 2.796579 1_565
Ga0 Pt3 2.796579 1_554
Ga0 Pt0 2.796579 1_555
Ga0 Pt1 2.796579 1_554
Ga0 Pt3 2.796579 1_564
Ga0 Pt1 2.796579 1_654
P0 Pt1 2.434918 1_555
P0 Pt0 2.434918 1_545
P0 Pt3 2.434918 1_555
P0 Pt3 2.434918 1_455
P0 Pt1 2.434918 1_545
P0 Pt0 2.434918 1_555
P0 Pt2 2.434918 1_455
P0 Pt2 2.434918 1_555
Pt0 Pt4 2.796579 1_565
Pt0 Pt4 2.796579 1_555
Pt1 Pt4 2.796579 1_566
Pt1 Pt4 2.796579 1_556
Pt2 Pt4 2.796579 1_555
Pt2 Pt4 2.796579 1_655
Pt3 Pt4 2.796579 1_556
Pt3 Pt4 2.796579 1_656
