# generated using pymatgen
data_Ac2Mg
_symmetry_space_group_name_H-M   'P 1'
_cell_length_a   14.91834212
_cell_length_b   14.91834212
_cell_length_c   16.54062903
_cell_angle_alpha   73.90419782
_cell_angle_beta   73.90419782
_cell_angle_gamma   32.11746648
_symmetry_Int_Tables_number   1
_chemical_formula_structural   Ac2Mg
_chemical_formula_sum   'Ac32 Mg16'
_cell_volume   1873.93234569
_cell_formula_units_Z   16
loop_
 _symmetry_equiv_pos_site_id
 _symmetry_equiv_pos_as_xyz
  1  'x, y, z'
loop_
 _atom_site_type_symbol
 _atom_site_label
 _atom_site_symmetry_multiplicity
 _atom_site_fract_x
 _atom_site_fract_y
 _atom_site_fract_z
 _atom_site_occupancy
  Ac  Ac0_0  1  0.42595264  0.42595264  0.28561721  1
  Ac  Ac0_1  1  0.42595264  0.42595264  0.78561721  1
  Ac  Ac0_2  1  0.42595264  0.92595264  0.28561721  1
  Ac  Ac0_3  1  0.42595264  0.92595264  0.78561721  1
  Ac  Ac0_4  1  0.92595264  0.42595264  0.28561721  1
  Ac  Ac0_5  1  0.92595264  0.42595264  0.78561721  1
  Ac  Ac0_6  1  0.92595264  0.92595264  0.28561721  1
  Ac  Ac0_7  1  0.92595264  0.92595264  0.78561721  1
  Ac  Ac1_0  1  0.07404736  0.07404736  0.21438279  1
  Ac  Ac1_1  1  0.07404736  0.07404736  0.71438279  1
  Ac  Ac1_2  1  0.07404736  0.57404736  0.21438279  1
  Ac  Ac1_3  1  0.07404736  0.57404736  0.71438279  1
  Ac  Ac1_4  1  0.57404736  0.07404736  0.21438279  1
  Ac  Ac1_5  1  0.57404736  0.07404736  0.71438279  1
  Ac  Ac1_6  1  0.57404736  0.57404736  0.21438279  1
  Ac  Ac1_7  1  0.57404736  0.57404736  0.71438279  1
  Ac  Ac2_0  1  0.42387132  0.42387132  0.03947219  1
  Ac  Ac2_1  1  0.42387132  0.42387132  0.53947219  1
  Ac  Ac2_2  1  0.42387132  0.92387132  0.03947219  1
  Ac  Ac2_3  1  0.42387132  0.92387132  0.53947219  1
  Ac  Ac2_4  1  0.92387132  0.42387132  0.03947219  1
  Ac  Ac2_5  1  0.92387132  0.42387132  0.53947219  1
  Ac  Ac2_6  1  0.92387132  0.92387132  0.03947219  1
  Ac  Ac2_7  1  0.92387132  0.92387132  0.53947219  1
  Ac  Ac3_0  1  0.07612868  0.07612868  0.46052781  1
  Ac  Ac3_1  1  0.07612868  0.07612868  0.96052781  1
  Ac  Ac3_2  1  0.07612868  0.57612868  0.46052781  1
  Ac  Ac3_3  1  0.07612868  0.57612868  0.96052781  1
  Ac  Ac3_4  1  0.57612868  0.07612868  0.46052781  1
  Ac  Ac3_5  1  0.57612868  0.07612868  0.96052781  1
  Ac  Ac3_6  1  0.57612868  0.57612868  0.46052781  1
  Ac  Ac3_7  1  0.57612868  0.57612868  0.96052781  1
  Mg  Mg0_0  1  0.24841839  0.24841839  0.37841692  1
  Mg  Mg0_1  1  0.24841838  0.24841839  0.87841692  1
  Mg  Mg0_2  1  0.24841838  0.74841838  0.37841692  1
  Mg  Mg0_3  1  0.24841839  0.74841839  0.87841692  1
  Mg  Mg0_4  1  0.74841838  0.24841838  0.37841692  1
  Mg  Mg0_5  1  0.74841839  0.24841839  0.87841692  1
  Mg  Mg0_6  1  0.74841839  0.74841839  0.37841692  1
  Mg  Mg0_7  1  0.74841839  0.74841839  0.87841692  1
  Mg  Mg1_0  1  0.25158162  0.25158162  0.12158308  1
  Mg  Mg1_1  1  0.25158161  0.25158161  0.62158308  1
  Mg  Mg1_2  1  0.25158162  0.75158161  0.12158308  1
  Mg  Mg1_3  1  0.25158161  0.75158161  0.62158308  1
  Mg  Mg1_4  1  0.75158161  0.25158162  0.12158308  1
  Mg  Mg1_5  1  0.75158161  0.25158161  0.62158308  1
  Mg  Mg1_6  1  0.75158161  0.75158161  0.12158308  1
  Mg  Mg1_7  1  0.75158162  0.75158162  0.62158308  1
loop_
_geom_bond_atom_site_label_1
_geom_bond_atom_site_label_2
_geom_bond_distance
_geom_bond_site_symmetry_2
Ac0_0 Mg0_4 3.573653 1_555
Ac0_0 Mg0_2 3.573653 1_555
Ac0_0 Mg1_4 3.595349 1_555
Ac0_0 Mg1_2 3.595349 1_555
Ac0_0 Ac3_4 4.005232 1_555
Ac0_0 Ac3_2 4.005232 1_555
Ac0_0 Ac1_2 4.021146 1_555
Ac0_0 Ac1_4 4.021146 1_555
Ac0_0 Ac1_6 4.065950 1_555
Ac0_0 Ac2_0 4.089009 1_555
Ac0_0 Ac0_6 4.126750 1_545
Ac0_0 Ac0_6 4.126750 1_455
Ac0_0 Ac2_1 4.182095 1_555
Ac0_1 Mg0_3 3.573653 1_555
Ac0_1 Mg0_5 3.573653 1_555
Ac0_1 Mg1_3 3.595349 1_555
Ac0_1 Mg1_5 3.595349 1_555
Ac0_1 Ac3_5 4.005232 1_555
Ac0_1 Ac3_3 4.005232 1_555
Ac0_1 Ac1_5 4.021146 1_555
Ac0_1 Ac1_3 4.021146 1_555
Ac0_1 Ac1_7 4.065950 1_555
Ac0_1 Ac2_1 4.089009 1_555
Ac0_1 Ac0_7 4.126750 1_455
Ac0_1 Ac0_7 4.126750 1_545
Ac0_1 Ac2_0 4.182095 1_556
Ac0_2 Mg0_0 3.573653 1_565
Ac0_2 Mg0_6 3.573653 1_555
Ac0_2 Mg1_6 3.595349 1_555
Ac0_2 Mg1_0 3.595349 1_565
Ac0_2 Ac3_6 4.005232 1_555
Ac0_2 Ac3_0 4.005232 1_565
Ac0_2 Ac1_0 4.021146 1_565
Ac0_2 Ac1_6 4.021146 1_555
Ac0_2 Ac1_4 4.065950 1_565
Ac0_2 Ac2_2 4.089009 1_555
Ac0_2 Ac0_4 4.126750 1_465
Ac0_2 Ac0_4 4.126750 1_555
Ac0_2 Ac2_3 4.182095 1_555
Ac0_3 Mg0_7 3.573653 1_555
Ac0_3 Mg0_1 3.573653 1_565
Ac0_3 Mg1_7 3.595349 1_555
Ac0_3 Mg1_1 3.595349 1_565
Ac0_3 Ac3_7 4.005232 1_555
Ac0_3 Ac3_1 4.005232 1_565
Ac0_3 Ac1_1 4.021146 1_565
Ac0_3 Ac1_7 4.021146 1_555
Ac0_3 Ac1_5 4.065950 1_565
Ac0_3 Ac2_3 4.089009 1_555
Ac0_3 Ac0_5 4.126750 1_555
Ac0_3 Ac0_5 4.126750 1_465
Ac0_3 Ac2_2 4.182095 1_556
Ac0_4 Mg0_0 3.573653 1_655
Ac0_4 Mg0_6 3.573653 1_555
Ac0_4 Mg1_6 3.595349 1_555
Ac0_4 Mg1_0 3.595349 1_655
Ac0_4 Ac3_0 4.005232 1_655
Ac0_4 Ac3_6 4.005232 1_555
Ac0_4 Ac1_0 4.021146 1_655
Ac0_4 Ac1_6 4.021146 1_555
Ac0_4 Ac1_2 4.065950 1_655
Ac0_4 Ac2_4 4.089009 1_555
Ac0_4 Ac2_5 4.182095 1_555
Ac0_5 Mg0_1 3.573653 1_655
Ac0_5 Mg0_7 3.573653 1_555
Ac0_5 Mg1_1 3.595349 1_655
Ac0_5 Mg1_7 3.595349 1_555
Ac0_5 Ac3_7 4.005232 1_555
Ac0_5 Ac3_1 4.005232 1_655
Ac0_5 Ac1_1 4.021146 1_655
Ac0_5 Ac1_7 4.021146 1_555
Ac0_5 Ac1_3 4.065950 1_655
Ac0_5 Ac2_5 4.089009 1_555
Ac0_5 Ac2_4 4.182095 1_556
Ac0_6 Mg0_4 3.573653 1_565
Ac0_6 Mg0_2 3.573653 1_655
Ac0_6 Mg1_2 3.595349 1_655
Ac0_6 Mg1_4 3.595349 1_565
Ac0_6 Ac3_4 4.005232 1_565
Ac0_6 Ac3_2 4.005232 1_655
Ac0_6 Ac1_4 4.021146 1_565
Ac0_6 Ac1_2 4.021146 1_655
Ac0_6 Ac1_0 4.065950 1_665
Ac0_6 Ac2_6 4.089009 1_555
Ac0_6 Ac2_7 4.182095 1_555
Ac0_7 Mg0_3 3.573653 1_655
Ac0_7 Mg0_5 3.573653 1_565
Ac0_7 Mg1_5 3.595349 1_565
Ac0_7 Mg1_3 3.595349 1_655
Ac0_7 Ac3_3 4.005232 1_655
Ac0_7 Ac3_5 4.005232 1_565
Ac0_7 Ac1_5 4.021146 1_565
Ac0_7 Ac1_3 4.021146 1_655
Ac0_7 Ac1_1 4.065950 1_665
Ac0_7 Ac2_7 4.089009 1_555
Ac0_7 Ac2_6 4.182095 1_556
Ac1_0 Mg1_2 3.573653 1_545
Ac1_0 Mg1_4 3.573653 1_455
Ac1_0 Mg0_4 3.595349 1_455
Ac1_0 Mg0_2 3.595349 1_545
Ac1_0 Ac2_4 4.005232 1_455
Ac1_0 Ac2_2 4.005232 1_545
Ac1_0 Ac3_0 4.089009 1_555
Ac1_0 Ac1_6 4.126750 1_545
Ac1_0 Ac1_6 4.126750 1_455
Ac1_0 Ac3_1 4.182095 1_554
Ac1_1 Mg1_5 3.573653 1_455
Ac1_1 Mg1_3 3.573653 1_545
Ac1_1 Mg0_5 3.595349 1_455
Ac1_1 Mg0_3 3.595349 1_545
Ac1_1 Ac2_3 4.005232 1_545
Ac1_1 Ac2_5 4.005232 1_455
Ac1_1 Ac3_1 4.089009 1_555
Ac1_1 Ac1_7 4.126750 1_545
Ac1_1 Ac1_7 4.126750 1_455
Ac1_1 Ac3_0 4.182095 1_555
Ac1_2 Mg1_0 3.573653 1_555
Ac1_2 Mg1_6 3.573653 1_455
Ac1_2 Mg0_6 3.595349 1_455
Ac1_2 Mg0_0 3.595349 1_555
Ac1_2 Ac2_0 4.005232 1_555
Ac1_2 Ac2_6 4.005232 1_455
Ac1_2 Ac3_2 4.089009 1_555
Ac1_2 Ac1_4 4.126750 1_555
Ac1_2 Ac1_4 4.126750 1_465
Ac1_2 Ac3_3 4.182095 1_554
Ac1_3 Mg1_7 3.573653 1_455
Ac1_3 Mg1_1 3.573653 1_555
Ac1_3 Mg0_7 3.595349 1_455
Ac1_3 Mg0_1 3.595349 1_555
Ac1_3 Ac2_7 4.005232 1_455
Ac1_3 Ac2_1 4.005232 1_555
Ac1_3 Ac3_3 4.089009 1_555
Ac1_3 Ac1_5 4.126750 1_465
Ac1_3 Ac1_5 4.126750 1_555
Ac1_3 Ac3_2 4.182095 1_555
Ac1_4 Mg1_0 3.573653 1_555
Ac1_4 Mg1_6 3.573653 1_545
Ac1_4 Mg0_6 3.595349 1_545
Ac1_4 Mg0_0 3.595349 1_555
Ac1_4 Ac2_0 4.005232 1_555
Ac1_4 Ac2_6 4.005232 1_545
Ac1_4 Ac3_4 4.089009 1_555
Ac1_4 Ac3_5 4.182095 1_554
Ac1_5 Mg1_7 3.573653 1_545
Ac1_5 Mg1_1 3.573653 1_555
Ac1_5 Mg0_1 3.595349 1_555
Ac1_5 Mg0_7 3.595349 1_545
Ac1_5 Ac2_7 4.005232 1_545
Ac1_5 Ac2_1 4.005232 1_555
Ac1_5 Ac3_5 4.089009 1_555
Ac1_5 Ac3_4 4.182095 1_555
Ac1_6 Mg1_2 3.573653 1_555
Ac1_6 Mg1_4 3.573653 1_555
Ac1_6 Mg0_2 3.595349 1_555
Ac1_6 Mg0_4 3.595349 1_555
Ac1_6 Ac2_4 4.005232 1_555
Ac1_6 Ac2_2 4.005232 1_555
Ac1_6 Ac3_6 4.089009 1_555
Ac1_6 Ac3_7 4.182095 1_554
Ac1_7 Mg1_3 3.573653 1_555
Ac1_7 Mg1_5 3.573653 1_555
Ac1_7 Mg0_3 3.595349 1_555
Ac1_7 Mg0_5 3.595349 1_555
Ac1_7 Ac2_3 4.005232 1_555
Ac1_7 Ac2_5 4.005232 1_555
Ac1_7 Ac3_7 4.089009 1_555
Ac1_7 Ac3_6 4.182095 1_555
Ac2_0 Mg0_5 3.554905 1_554
Ac2_0 Mg0_3 3.554905 1_554
Ac2_0 Mg1_4 3.579507 1_555
Ac2_0 Mg1_2 3.579507 1_555
Ac2_0 Ac3_5 3.991022 1_554
Ac2_0 Ac3_3 3.991022 1_554
Ac2_0 Ac2_6 4.126750 1_455
Ac2_0 Ac2_6 4.126750 1_545
Ac2_0 Ac3_7 4.180215 1_554
Ac2_1 Mg0_2 3.554905 1_555
Ac2_1 Mg0_4 3.554905 1_555
Ac2_1 Mg1_3 3.579507 1_555
Ac2_1 Mg1_5 3.579507 1_555
Ac2_1 Ac3_2 3.991022 1_555
Ac2_1 Ac3_4 3.991022 1_555
Ac2_1 Ac2_7 4.126750 1_545
Ac2_1 Ac2_7 4.126750 1_455
Ac2_1 Ac3_6 4.180215 1_555
Ac2_2 Mg0_7 3.554905 1_554
Ac2_2 Mg0_1 3.554905 1_564
Ac2_2 Mg1_6 3.579507 1_555
Ac2_2 Mg1_0 3.579507 1_565
Ac2_2 Ac3_1 3.991022 1_564
Ac2_2 Ac3_7 3.991022 1_554
Ac2_2 Ac2_4 4.126750 1_465
Ac2_2 Ac2_4 4.126750 1_555
Ac2_2 Ac3_5 4.180215 1_564
Ac2_3 Mg0_0 3.554905 1_565
Ac2_3 Mg0_6 3.554905 1_555
Ac2_3 Mg1_1 3.579507 1_565
Ac2_3 Mg1_7 3.579507 1_555
Ac2_3 Ac3_6 3.991022 1_555
Ac2_3 Ac3_0 3.991022 1_565
Ac2_3 Ac2_5 4.126750 1_555
Ac2_3 Ac2_5 4.126750 1_465
Ac2_3 Ac3_4 4.180215 1_565
Ac2_4 Mg0_1 3.554905 1_654
Ac2_4 Mg0_7 3.554905 1_554
Ac2_4 Mg1_6 3.579507 1_555
Ac2_4 Mg1_0 3.579507 1_655
Ac2_4 Ac3_1 3.991022 1_654
Ac2_4 Ac3_7 3.991022 1_554
Ac2_4 Ac3_3 4.180215 1_654
Ac2_5 Mg0_0 3.554905 1_655
Ac2_5 Mg0_6 3.554905 1_555
Ac2_5 Mg1_1 3.579507 1_655
Ac2_5 Mg1_7 3.579507 1_555
Ac2_5 Ac3_6 3.991022 1_555
Ac2_5 Ac3_0 3.991022 1_655
Ac2_5 Ac3_2 4.180215 1_655
Ac2_6 Mg0_5 3.554905 1_564
Ac2_6 Mg0_3 3.554905 1_654
Ac2_6 Mg1_2 3.579507 1_655
Ac2_6 Mg1_4 3.579507 1_565
Ac2_6 Ac3_3 3.991022 1_654
Ac2_6 Ac3_5 3.991022 1_564
Ac2_6 Ac3_1 4.180215 1_664
Ac2_7 Mg0_2 3.554905 1_655
Ac2_7 Mg0_4 3.554905 1_565
Ac2_7 Mg1_3 3.579507 1_655
Ac2_7 Mg1_5 3.579507 1_565
Ac2_7 Ac3_2 3.991022 1_655
Ac2_7 Ac3_4 3.991022 1_565
Ac2_7 Ac3_0 4.180215 1_665
Ac3_0 Mg1_5 3.554905 1_455
Ac3_0 Mg1_3 3.554905 1_545
Ac3_0 Mg0_4 3.579507 1_455
Ac3_0 Mg0_2 3.579507 1_545
Ac3_0 Ac3_6 4.126750 1_455
Ac3_0 Ac3_6 4.126750 1_545
Ac3_1 Mg1_2 3.554905 1_546
Ac3_1 Mg1_4 3.554905 1_456
Ac3_1 Mg0_3 3.579507 1_545
Ac3_1 Mg0_5 3.579507 1_455
Ac3_1 Ac3_7 4.126750 1_545
Ac3_1 Ac3_7 4.126750 1_455
Ac3_2 Mg1_7 3.554905 1_455
Ac3_2 Mg1_1 3.554905 1_555
Ac3_2 Mg0_6 3.579507 1_455
Ac3_2 Mg0_0 3.579507 1_555
Ac3_2 Ac3_4 4.126750 1_555
Ac3_2 Ac3_4 4.126750 1_465
Ac3_3 Mg1_0 3.554905 1_556
Ac3_3 Mg1_6 3.554905 1_456
Ac3_3 Mg0_7 3.579507 1_455
Ac3_3 Mg0_1 3.579507 1_555
Ac3_3 Ac3_5 4.126750 1_465
Ac3_3 Ac3_5 4.126750 1_555
Ac3_4 Mg1_7 3.554905 1_545
Ac3_4 Mg1_1 3.554905 1_555
Ac3_4 Mg0_6 3.579507 1_545
Ac3_4 Mg0_0 3.579507 1_555
Ac3_5 Mg1_0 3.554905 1_556
Ac3_5 Mg1_6 3.554905 1_546
Ac3_5 Mg0_1 3.579507 1_555
Ac3_5 Mg0_7 3.579507 1_545
Ac3_6 Mg1_3 3.554905 1_555
Ac3_6 Mg1_5 3.554905 1_555
Ac3_6 Mg0_4 3.579507 1_555
Ac3_6 Mg0_2 3.579507 1_555
Ac3_7 Mg1_2 3.554905 1_556
Ac3_7 Mg1_4 3.554905 1_556
Ac3_7 Mg0_3 3.579507 1_555
Ac3_7 Mg0_5 3.579507 1_555
