# generated using pymatgen
data_Ba3Y3N5
_symmetry_space_group_name_H-M   'P 1'
_cell_length_a   6.61172402
_cell_length_b   8.83843083
_cell_length_c   9.84749471
_cell_angle_alpha   108.68315422
_cell_angle_beta   105.54437080
_cell_angle_gamma   102.55461765
_symmetry_Int_Tables_number   1
_chemical_formula_structural   Ba3Y3N5
_chemical_formula_sum   'Ba6 Y6 N10'
_cell_volume   495.36439782
_cell_formula_units_Z   2
loop_
 _symmetry_equiv_pos_site_id
 _symmetry_equiv_pos_as_xyz
  1  'x, y, z'
loop_
 _atom_site_type_symbol
 _atom_site_label
 _atom_site_symmetry_multiplicity
 _atom_site_fract_x
 _atom_site_fract_y
 _atom_site_fract_z
 _atom_site_occupancy
  Ba  Ba0  1  0.75782200  0.43429800  0.59357800  1
  Ba  Ba1  1  0.24217800  0.56570200  0.40642200  1
  Ba  Ba2  1  0.67302000  0.82143100  0.88008200  1
  Ba  Ba3  1  0.32698000  0.17856900  0.11991800  1
  Ba  Ba4  1  0.69373400  0.62787700  0.21579100  1
  Ba  Ba5  1  0.30626600  0.37212300  0.78420900  1
  Y  Y0  1  0.88731100  0.30605100  0.96995600  1
  Y  Y1  1  0.11268900  0.69394900  0.03004400  1
  Y  Y2  1  0.71559700  0.96770600  0.58512300  1
  Y  Y3  1  0.28440300  0.03229400  0.41487700  1
  Y  Y4  1  0.13066300  0.86817800  0.71045800  1
  Y  Y5  1  0.86933700  0.13182200  0.28954200  1
  N  N0  1  0.00504900  0.09307100  0.82236600  1
  N  N1  1  0.99495100  0.90692900  0.17763400  1
  N  N2  1  0.77595400  0.71320100  0.52790200  1
  N  N3  1  0.22404600  0.28679900  0.47209800  1
  N  N4  1  0.76626800  0.49673400  0.88541200  1
  N  N5  1  0.23373200  0.50326600  0.11458800  1
  N  N6  1  0.37443400  0.92123800  0.59613700  1
  N  N7  1  0.62556600  0.07876200  0.40386300  1
  N  N8  1  0.24606600  0.72269600  0.84882200  1
  N  N9  1  0.75393400  0.27730400  0.15117800  1
loop_
_geom_bond_atom_site_label_1
_geom_bond_atom_site_label_2
_geom_bond_distance
_geom_bond_site_symmetry_2
Ba0 N2 2.728309 1_555
Ba0 N4 2.729675 1_555
Ba0 N7 2.880646 1_555
Ba0 N3 3.213036 1_555
Ba0 N8 3.347409 1_655
Ba1 N3 2.728309 1_555
Ba1 N5 2.729675 1_555
Ba1 N6 2.880646 1_555
Ba1 N2 3.213036 1_555
Ba1 N9 3.347409 1_455
Ba2 N8 2.667633 1_555
Ba2 N1 2.868232 1_556
Ba2 N4 3.076856 1_555
Ba2 N0 3.187178 1_665
Ba3 N9 2.667633 1_555
Ba3 N0 2.868232 1_554
Ba3 N5 3.076856 1_555
Ba3 N1 3.187178 1_445
Ba4 N5 2.769901 1_555
Ba4 N2 2.784244 1_555
Ba4 N1 3.008313 1_555
Ba4 N9 3.094007 1_555
Ba4 N4 3.289389 1_554
Ba5 N4 2.769901 1_555
Ba5 N3 2.784244 1_555
Ba5 N0 3.008313 1_555
Ba5 N8 3.094007 1_555
Ba5 N5 3.289389 1_556
N0 Y2 2.317682 1_445
N0 Y4 2.379080 1_545
N0 Y0 2.398427 1_455
N1 Y3 2.317682 1_665
N1 Y5 2.379080 1_565
N1 Y1 2.398427 1_655
N2 Y2 2.288098 1_555
N2 Y4 2.318256 1_655
N3 Y3 2.288098 1_555
N3 Y5 2.318256 1_455
N4 Y1 2.288739 1_656
N4 Y0 2.302646 1_555
N5 Y0 2.288739 1_454
N5 Y1 2.302646 1_555
N6 Y2 2.241747 1_555
N6 Y4 2.251037 1_555
N6 Y3 2.304536 1_565
N7 Y3 2.241747 1_555
N7 Y5 2.251037 1_555
N7 Y2 2.304536 1_545
N8 Y1 2.250226 1_556
N8 Y4 2.254735 1_555
N9 Y0 2.250226 1_554
N9 Y5 2.254735 1_555
