# generated using pymatgen
data_Na4SrTa5O15
_symmetry_space_group_name_H-M   'P 1'
_cell_length_a   6.89710100
_cell_length_b   8.88353394
_cell_length_c   11.28529277
_cell_angle_alpha   108.70372137
_cell_angle_beta   90.47769321
_cell_angle_gamma   104.53230393
_symmetry_Int_Tables_number   1
_chemical_formula_structural   Na4SrTa5O15
_chemical_formula_sum   'Na8 Sr2 Ta10 O30'
_cell_volume   631.00627818
_cell_formula_units_Z   2
loop_
 _symmetry_equiv_pos_site_id
 _symmetry_equiv_pos_as_xyz
  1  'x, y, z'
loop_
 _atom_site_type_symbol
 _atom_site_label
 _atom_site_symmetry_multiplicity
 _atom_site_fract_x
 _atom_site_fract_y
 _atom_site_fract_z
 _atom_site_occupancy
  Na  Na0  1  0.39995100  0.70072000  0.80037200  1
  Na  Na1  1  0.80071100  0.89981700  0.60050800  1
  Na  Na2  1  0.19928900  0.10018300  0.39949200  1
  Na  Na3  1  0.60004900  0.29928000  0.19962800  1
  Na  Na4  1  0.00000000  0.50000000  0.00000000  1
  Na  Na5  1  0.80018900  0.89991500  0.09957400  1
  Na  Na6  1  0.19981100  0.10008500  0.90042600  1
  Na  Na7  1  0.00000000  0.50000000  0.50000000  1
  Sr  Sr0  1  0.60045800  0.29987100  0.70031700  1
  Sr  Sr1  1  0.39954200  0.70012900  0.29968300  1
  Ta  Ta0  1  0.90120200  0.69965100  0.29969700  1
  Ta  Ta1  1  0.09879800  0.30034900  0.70030300  1
  Ta  Ta2  1  0.50000000  0.50000000  0.50000000  1
  Ta  Ta3  1  0.29907600  0.90156900  0.09803100  1
  Ta  Ta4  1  0.70092400  0.09843100  0.90196900  1
  Ta  Ta5  1  0.50000000  0.50000000  0.00000000  1
  Ta  Ta6  1  0.70247300  0.10108700  0.39791200  1
  Ta  Ta7  1  0.09809900  0.29675900  0.19881400  1
  Ta  Ta8  1  0.90190100  0.70324100  0.80118600  1
  Ta  Ta9  1  0.29752700  0.89891300  0.60208800  1
  O  O0  1  0.76960900  0.88464000  0.32732200  1
  O  O1  1  0.96932000  0.48478200  0.72737200  1
  O  O2  1  0.36965800  0.68489100  0.52711200  1
  O  O3  1  0.17002200  0.08498900  0.12757000  1
  O  O4  1  0.56996800  0.28495500  0.92711400  1
  O  O5  1  0.03068000  0.51521800  0.27262800  1
  O  O6  1  0.23039100  0.11536000  0.67267800  1
  O  O7  1  0.63034200  0.31510900  0.47288800  1
  O  O8  1  0.43003200  0.71504500  0.07288600  1
  O  O9  1  0.82997800  0.91501100  0.87243000  1
  O  O10  1  0.08793600  0.82850400  0.45619800  1
  O  O11  1  0.28796500  0.42841300  0.85589400  1
  O  O12  1  0.68461400  0.62667200  0.65777200  1
  O  O13  1  0.48444100  0.02670300  0.25765300  1
  O  O14  1  0.88508800  0.22968400  0.05750300  1
  O  O15  1  0.11491200  0.77031600  0.94249700  1
  O  O16  1  0.31538600  0.37332800  0.34222800  1
  O  O17  1  0.71203500  0.57158700  0.14410600  1
  O  O18  1  0.51555900  0.97329700  0.74234700  1
  O  O19  1  0.91206400  0.17149600  0.54380200  1
  O  O20  1  0.50000000  0.00000000  0.00000000  1
  O  O21  1  0.89701200  0.20107700  0.79936100  1
  O  O22  1  0.30266900  0.39851700  0.60075300  1
  O  O23  1  0.69733100  0.60148300  0.39924700  1
  O  O24  1  0.10298800  0.79892300  0.20063900  1
  O  O25  1  0.69939900  0.59701200  0.89817500  1
  O  O26  1  0.09966100  0.79994200  0.70014800  1
  O  O27  1  0.50000000  0.00000000  0.50000000  1
  O  O28  1  0.90033900  0.20005800  0.29985200  1
  O  O29  1  0.30060100  0.40298800  0.10182500  1
loop_
_geom_bond_atom_site_label_1
_geom_bond_atom_site_label_2
_geom_bond_distance
_geom_bond_site_symmetry_2
Na0 O15 2.616546 1_555
Na0 O11 2.623639 1_555
Na0 O12 2.626622 1_555
Na0 O18 2.642855 1_555
Na0 O20 2.798570 1_566
Na0 O26 2.803983 1_555
Na0 O25 2.810985 1_555
Na0 O22 2.815032 1_555
Na1 O18 2.623540 1_555
Na1 O19 2.625402 1_565
Na1 O12 2.643088 1_555
Na1 O10 2.645747 1_655
Na1 O26 2.796836 1_655
Na1 O23 2.802691 1_555
Na1 O21 2.805493 1_565
Na1 O27 2.813320 1_565
Na2 O13 2.623540 1_555
Na2 O10 2.625402 1_545
Na2 O16 2.643088 1_555
Na2 O19 2.645747 1_455
Na2 O28 2.796836 1_455
Na2 O22 2.802691 1_555
Na2 O24 2.805493 1_545
Na2 O27 2.813320 1_555
Na3 O14 2.616546 1_555
Na3 O17 2.623639 1_555
Na3 O16 2.626622 1_555
Na3 O13 2.642855 1_555
Na3 O20 2.798570 1_555
Na3 O28 2.803983 1_555
Na3 O29 2.810985 1_555
Na3 O23 2.815032 1_555
Na4 O15 2.620818 1_554
Na4 O14 2.620818 1_455
Na4 O17 2.649213 1_455
Na4 O11 2.649213 1_554
Na4 O21 2.802393 1_454
Na4 O24 2.802393 1_555
Na4 O29 2.802461 1_555
Na4 O25 2.802461 1_454
Na5 O9 2.616596 1_554
Na5 O3 2.618807 1_665
Na5 O8 2.621354 1_555
Na5 O0 2.624347 1_555
Na5 O20 2.804599 1_565
Na5 O28 2.807057 1_565
Na5 O25 2.828822 1_554
Na5 O24 2.832697 1_655
Na6 O3 2.616596 1_556
Na6 O9 2.618807 1_445
Na6 O4 2.621354 1_555
Na6 O6 2.624347 1_555
Na6 O20 2.804599 1_556
Na6 O26 2.807057 1_545
Na6 O29 2.828822 1_556
Na6 O21 2.832697 1_455
Na7 O7 2.618165 1_455
Na7 O2 2.618165 1_555
Na7 O1 2.619995 1_455
Na7 O5 2.619995 1_555
Na7 O28 2.805199 1_455
Na7 O26 2.805199 1_555
Na7 O23 2.832969 1_455
Na7 O22 2.832969 1_555
O0 Ta6 2.004200 1_565
O0 Ta0 2.011524 1_555
O0 Sr1 2.618763 1_555
O1 Ta1 1.998262 1_655
O1 Ta8 2.024579 1_555
O1 Sr0 2.613812 1_555
O2 Ta2 2.005701 1_555
O2 Ta9 2.007043 1_555
O2 Sr1 2.620287 1_555
O3 Ta7 1.984082 1_555
O3 Ta3 1.985659 1_545
O4 Ta5 2.005098 1_556
O4 Ta4 2.023794 1_555
O4 Sr0 2.612503 1_555
O5 Ta0 1.998262 1_455
O5 Ta7 2.024579 1_555
O5 Sr1 2.613812 1_555
O6 Ta9 2.004200 1_545
O6 Ta1 2.011524 1_555
O6 Sr0 2.618763 1_555
O7 Ta2 2.005701 1_555
O7 Ta6 2.007043 1_555
O7 Sr0 2.620287 1_555
O8 Ta5 2.005098 1_555
O8 Ta3 2.023794 1_555
O8 Sr1 2.612503 1_555
O9 Ta8 1.984082 1_555
O9 Ta4 1.985659 1_565
O10 Ta0 2.003486 1_455
O10 Ta9 2.009393 1_555
O10 Sr1 3.006798 1_555
O11 Ta1 2.003848 1_555
O11 Ta5 2.004547 1_556
O11 Sr0 3.007365 1_555
O12 Ta2 2.003971 1_555
O12 Ta8 2.017422 1_555
O12 Sr0 3.008099 1_555
O13 Ta6 1.998573 1_555
O13 Ta3 2.019727 1_545
O13 Sr1 3.003174 1_545
O14 Ta4 1.990177 1_554
O14 Ta7 1.992192 1_655
O15 Ta3 1.990177 1_556
O15 Ta8 1.992192 1_455
O16 Ta2 2.003971 1_555
O16 Ta7 2.017422 1_555
O16 Sr1 3.008099 1_555
O17 Ta0 2.003848 1_555
O17 Ta5 2.004547 1_555
O17 Sr1 3.007365 1_555
O18 Ta9 1.998573 1_555
O18 Ta4 2.019727 1_565
O18 Sr0 3.003174 1_565
O19 Ta1 2.003486 1_655
O19 Ta6 2.009393 1_555
O19 Sr0 3.006798 1_555
O20 Ta4 1.986657 1_554
O20 Ta3 1.986657 1_545
O21 Ta1 2.001656 1_655
O21 Ta4 2.021352 1_555
O21 Sr0 2.773986 1_555
O22 Ta2 2.006339 1_555
O22 Ta1 2.009760 1_555
O22 Sr0 2.783012 1_555
O23 Ta2 2.006339 1_555
O23 Ta0 2.009760 1_555
O23 Sr1 2.783012 1_555
O24 Ta0 2.001656 1_455
O24 Ta3 2.021352 1_555
O24 Sr1 2.773986 1_555
O25 Ta5 2.005312 1_556
O25 Ta8 2.016380 1_555
O25 Sr0 2.776638 1_555
O26 Ta9 1.976641 1_555
O26 Ta8 1.991144 1_455
O27 Ta9 2.035903 1_545
O27 Ta6 2.035903 1_555
O27 Sr0 2.805758 1_555
O27 Sr1 2.805758 1_545
O28 Ta6 1.976641 1_555
O28 Ta7 1.991144 1_655
O29 Ta5 2.005312 1_555
O29 Ta7 2.016380 1_555
O29 Sr1 2.776638 1_555
