# generated using pymatgen
data_MgCr2O4
_symmetry_space_group_name_H-M   'P 1'
_cell_length_a   5.98663526
_cell_length_b   5.98663526
_cell_length_c   14.77406800
_cell_angle_alpha   90.00000000
_cell_angle_beta   90.00000000
_cell_angle_gamma   119.99999178
_symmetry_Int_Tables_number   1
_chemical_formula_structural   MgCr2O4
_chemical_formula_sum   'Mg6 Cr12 O24'
_cell_volume   458.56020112
_cell_formula_units_Z   6
loop_
 _symmetry_equiv_pos_site_id
 _symmetry_equiv_pos_as_xyz
  1  'x, y, z'
loop_
 _atom_site_type_symbol
 _atom_site_label
 _atom_site_symmetry_multiplicity
 _atom_site_fract_x
 _atom_site_fract_y
 _atom_site_fract_z
 _atom_site_occupancy
  Mg  Mg0  1  0.00000000  0.00000000  0.04610100  1
  Mg  Mg1  1  0.66666700  0.33333300  0.37962400  1
  Mg  Mg2  1  0.33333300  0.66666700  0.33723800  1
  Mg  Mg3  1  0.33333300  0.66666700  0.70741800  1
  Mg  Mg4  1  0.66666700  0.33333300  0.00286600  1
  Mg  Mg5  1  0.66666700  0.33333300  0.62230200  1
  Cr  Cr0  1  0.99589600  0.49794800  0.16614400  1
  Cr  Cr1  1  0.50205200  0.00410400  0.16614400  1
  Cr  Cr2  1  0.66482900  0.83241400  0.49996500  1
  Cr  Cr3  1  0.50205200  0.49794800  0.16614400  1
  Cr  Cr4  1  0.16758600  0.33517100  0.49996500  1
  Cr  Cr5  1  0.00000000  0.00000000  0.66527100  1
  Cr  Cr6  1  0.00000000  0.00000000  0.28775300  1
  Cr  Cr7  1  0.33120200  0.16560100  0.83188300  1
  Cr  Cr8  1  0.16758600  0.83241400  0.49996500  1
  Cr  Cr9  1  0.83439900  0.66879800  0.83188300  1
  Cr  Cr10  1  0.83439900  0.16560100  0.83188300  1
  Cr  Cr11  1  0.33333300  0.66666700  0.95491100  1
  O  O0  1  0.35910000  0.17955000  0.08977300  1
  O  O1  1  0.66666700  0.33333300  0.23980200  1
  O  O2  1  0.82045000  0.64090000  0.08977300  1
  O  O3  1  0.82045000  0.17955000  0.08977300  1
  O  O4  1  0.02440100  0.51220100  0.42404000  1
  O  O5  1  0.17544900  0.82455100  0.24362600  1
  O  O6  1  0.33333300  0.66666700  0.57314300  1
  O  O7  1  0.17544900  0.35089800  0.24362600  1
  O  O8  1  0.33333300  0.66666700  0.09308300  1
  O  O9  1  0.48779900  0.97559900  0.42404000  1
  O  O10  1  0.48779900  0.51220100  0.42404000  1
  O  O11  1  0.64910200  0.82455100  0.24362600  1
  O  O12  1  0.69671600  0.84835800  0.75380000  1
  O  O13  1  0.84890200  0.15109800  0.58044200  1
  O  O14  1  0.84890200  0.69780400  0.58044200  1
  O  O15  1  0.00000000  0.00000000  0.90567100  1
  O  O16  1  0.00000000  0.00000000  0.42576200  1
  O  O17  1  0.15164200  0.30328400  0.75380000  1
  O  O18  1  0.15164200  0.84835800  0.75380000  1
  O  O19  1  0.30219600  0.15109800  0.58044200  1
  O  O20  1  0.50793400  0.49206600  0.90958000  1
  O  O21  1  0.50793400  0.01586800  0.90958000  1
  O  O22  1  0.66666700  0.33333300  0.76123100  1
  O  O23  1  0.98413200  0.49206600  0.90958000  1
loop_
_geom_bond_atom_site_label_1
_geom_bond_atom_site_label_2
_geom_bond_distance
_geom_bond_site_symmetry_2
Mg0 O3 1.970414 1_455
Mg0 O2 1.970414 1_445
Mg0 O0 1.970414 1_555
Mg0 O15 2.074722 1_554
Mg1 O4 1.967363 1_655
Mg1 O9 1.967363 1_545
Mg1 O10 1.967373 1_555
Mg1 O1 2.065740 1_555
Mg2 O10 2.051824 1_555
Mg2 O4 2.051824 1_555
Mg2 O9 2.051824 1_555
Mg2 O5 2.143116 1_555
Mg2 O7 2.143120 1_555
Mg2 O11 2.143120 1_555
Mg3 O6 1.983788 1_555
Mg3 O18 2.004734 1_555
Mg3 O17 2.004739 1_555
Mg3 O12 2.004739 1_555
Mg4 O3 2.047273 1_555
Mg4 O0 2.047277 1_555
Mg4 O2 2.047277 1_555
Mg4 O23 2.146749 1_554
Mg4 O21 2.146749 1_554
Mg4 O20 2.146753 1_554
Mg5 O13 1.988252 1_555
Mg5 O14 1.988257 1_555
Mg5 O19 1.988257 1_555
Mg5 O22 2.052546 1_555
Cr0 O2 2.001887 1_555
Cr0 O3 2.001887 1_555
Cr0 O1 2.024301 1_555
Cr0 O7 2.046245 1_655
Cr0 O5 2.046246 1_655
Cr0 O8 2.055666 1_655
Cr1 O0 2.001887 1_555
Cr1 O3 2.001887 1_555
Cr1 O1 2.024301 1_555
Cr1 O11 2.046245 1_545
Cr1 O5 2.046246 1_545
Cr1 O8 2.055666 1_545
Cr2 O10 2.006162 1_555
Cr2 O9 2.006170 1_555
Cr2 O6 2.030437 1_555
Cr2 O14 2.040947 1_555
Cr2 O13 2.040951 1_565
Cr2 O16 2.054630 1_665
Cr3 O2 2.001887 1_555
Cr3 O0 2.001887 1_555
Cr3 O1 2.024305 1_555
Cr3 O11 2.046246 1_555
Cr3 O7 2.046246 1_555
Cr3 O8 2.055670 1_555
Cr4 O10 2.006162 1_555
Cr4 O4 2.006170 1_555
Cr4 O6 2.030437 1_555
Cr4 O19 2.040947 1_555
Cr4 O13 2.040951 1_455
Cr4 O16 2.054630 1_555
Cr5 O13 2.006344 1_455
Cr5 O19 2.006344 1_555
Cr5 O14 2.006344 1_445
Cr5 O18 2.045270 1_545
Cr5 O17 2.045270 1_555
Cr5 O12 2.045270 1_445
Cr6 O5 1.932542 1_545
Cr6 O7 1.932542 1_555
Cr6 O11 1.932542 1_445
Cr6 O16 2.038954 1_555
Cr7 O17 2.012905 1_555
Cr7 O18 2.012905 1_545
Cr7 O22 2.028430 1_555
Cr7 O15 2.033963 1_555
Cr7 O21 2.046716 1_555
Cr7 O20 2.046716 1_555
Cr8 O9 2.006161 1_555
Cr8 O4 2.006161 1_555
Cr8 O6 2.030428 1_555
Cr8 O14 2.040951 1_455
Cr8 O19 2.040951 1_565
Cr8 O16 2.054634 1_565
Cr9 O12 2.012905 1_555
Cr9 O18 2.012905 1_655
Cr9 O22 2.028430 1_555
Cr9 O15 2.033963 1_665
Cr9 O23 2.046716 1_555
Cr9 O20 2.046716 1_555
Cr10 O12 2.012905 1_545
Cr10 O17 2.012905 1_655
Cr10 O22 2.028425 1_555
Cr10 O15 2.033962 1_655
Cr10 O23 2.046716 1_555
Cr10 O21 2.046716 1_555
Cr11 O21 1.930361 1_565
Cr11 O23 1.930361 1_455
Cr11 O20 1.930366 1_555
Cr11 O8 2.041363 1_556
