# generated using pymatgen
data_Ba2TiMn2Si2PO13
_symmetry_space_group_name_H-M   'P 1'
_cell_length_a   5.45803200
_cell_length_b   7.11120165
_cell_length_c   15.04459363
_cell_angle_alpha   84.26885109
_cell_angle_beta   88.28579823
_cell_angle_gamma   89.80156894
_symmetry_Int_Tables_number   1
_chemical_formula_structural   Ba2TiMn2Si2PO13
_chemical_formula_sum   'Ba4 Ti2 Mn4 Si4 P2 O26'
_cell_volume   580.74942212
_cell_formula_units_Z   2
loop_
 _symmetry_equiv_pos_site_id
 _symmetry_equiv_pos_as_xyz
  1  'x, y, z'
loop_
 _atom_site_type_symbol
 _atom_site_label
 _atom_site_symmetry_multiplicity
 _atom_site_fract_x
 _atom_site_fract_y
 _atom_site_fract_z
 _atom_site_occupancy
  Ba  Ba0  1  0.72508300  0.34115900  0.16522100  1
  Ba  Ba1  1  0.27491700  0.65884100  0.83477900  1
  Ba  Ba2  1  0.23768500  0.82375500  0.09867700  1
  Ba  Ba3  1  0.76231500  0.17624500  0.90132300  1
  Ti  Ti0  1  0.29301600  0.20513200  0.70042700  1
  Ti  Ti1  1  0.70698400  0.79486800  0.29957300  1
  Mn  Mn0  1  0.50000000  0.50000000  0.50000000  1
  Mn  Mn1  1  0.01357400  0.75181400  0.50053300  1
  Mn  Mn2  1  0.98642600  0.24818600  0.49946700  1
  Mn  Mn3  1  0.50000000  0.00000000  0.50000000  1
  Si  Si0  1  0.20342600  0.51052200  0.31548700  1
  Si  Si1  1  0.79657400  0.48947800  0.68451300  1
  Si  Si2  1  0.20222300  0.06660600  0.31281100  1
  Si  Si3  1  0.79777700  0.93339400  0.68718900  1
  P  P0  1  0.24653200  0.28234100  0.02444500  1
  P  P1  1  0.75346800  0.71765900  0.97555500  1
  O  O0  1  0.45682700  0.60891000  0.27514200  1
  O  O1  1  0.54317300  0.39109000  0.72485800  1
  O  O2  1  0.01153000  0.16636500  0.05488600  1
  O  O3  1  0.98847000  0.83363500  0.94511400  1
  O  O4  1  0.25820900  0.31278400  0.91999700  1
  O  O5  1  0.74179100  0.68721600  0.08000300  1
  O  O6  1  0.54376600  0.01311000  0.72890500  1
  O  O7  1  0.45623400  0.98689000  0.27109500  1
  O  O8  1  0.47315700  0.16224100  0.05569000  1
  O  O9  1  0.52684300  0.83775900  0.94431000  1
  O  O10  1  0.04255400  0.38968900  0.72596300  1
  O  O11  1  0.95744600  0.61031100  0.27403700  1
  O  O12  1  0.04360500  0.01234900  0.73011600  1
  O  O13  1  0.95639500  0.98765100  0.26988400  1
  O  O14  1  0.63461600  0.25908600  0.45574100  1
  O  O15  1  0.36538400  0.74091400  0.54425900  1
  O  O16  1  0.24376200  0.46657900  0.07075900  1
  O  O17  1  0.75623800  0.53342100  0.92924100  1
  O  O18  1  0.18972800  0.02839500  0.42467900  1
  O  O19  1  0.81027200  0.97160500  0.57532100  1
  O  O20  1  0.29165600  0.22624300  0.58220000  1
  O  O21  1  0.70834400  0.77375700  0.41780000  1
  O  O22  1  0.19815100  0.29568100  0.28448400  1
  O  O23  1  0.80184900  0.70431900  0.71551600  1
  O  O24  1  0.19018300  0.49911400  0.42728800  1
  O  O25  1  0.80981700  0.50088600  0.57271200  1
loop_
_geom_bond_atom_site_label_1
_geom_bond_atom_site_label_2
_geom_bond_distance
_geom_bond_site_symmetry_2
Ba0 O8 2.606013 1_555
Ba0 O2 2.643511 1_655
Ba0 O5 2.659397 1_555
Ba0 O11 2.952749 1_555
Ba0 O0 2.994753 1_555
Ba0 O16 3.109754 1_555
Ba0 O13 3.114360 1_545
Ba0 O7 3.181419 1_545
Ba0 O22 3.185325 1_655
Ba0 O16 3.217627 1_655
Ba0 O22 3.343237 1_555
Ba1 O9 2.606013 1_555
Ba1 O3 2.643511 1_455
Ba1 O4 2.659397 1_555
Ba1 O10 2.952749 1_555
Ba1 O1 2.994753 1_555
Ba1 O17 3.109754 1_555
Ba1 O12 3.114360 1_565
Ba1 O6 3.181419 1_565
Ba1 O23 3.185325 1_455
Ba1 O17 3.217627 1_455
Ba1 O23 3.343237 1_555
Ba2 O16 2.615437 1_555
Ba2 O3 2.710632 1_454
Ba2 O8 2.743114 1_565
Ba2 O2 2.756960 1_565
Ba2 O9 2.762217 1_554
Ba2 O5 2.909566 1_455
Ba2 O5 2.929465 1_555
Ba2 O0 3.190649 1_555
Ba2 O7 3.208273 1_555
Ba2 O11 3.252457 1_455
Ba2 O13 3.271165 1_455
Ba3 O17 2.615437 1_555
Ba3 O2 2.710632 1_656
Ba3 O9 2.743114 1_545
Ba3 O3 2.756960 1_545
Ba3 O8 2.762217 1_556
Ba3 O4 2.909566 1_655
Ba3 O4 2.929465 1_555
Ba3 O1 3.190649 1_555
Ba3 O6 3.208273 1_555
Ba3 O10 3.252457 1_655
Ba3 O12 3.271165 1_655
Mn0 O15 2.026836 1_555
Mn0 O14 2.026836 1_555
Mn0 O25 2.041636 1_555
Mn0 O24 2.041636 1_555
Mn0 O21 2.462240 1_555
Mn0 O20 2.462240 1_555
Mn1 O15 2.047010 1_555
Mn1 O21 2.105341 1_455
Mn1 O25 2.270365 1_455
Mn1 O19 2.281375 1_455
Mn1 O18 2.365224 1_565
Mn1 O24 2.385917 1_555
Mn2 O14 2.047010 1_555
Mn2 O20 2.105341 1_655
Mn2 O24 2.270365 1_655
Mn2 O18 2.281375 1_655
Mn2 O19 2.365224 1_545
Mn2 O25 2.385917 1_555
Mn3 O15 2.028000 1_545
Mn3 O14 2.028000 1_555
Mn3 O19 2.063844 1_545
Mn3 O18 2.063844 1_555
Mn3 O20 2.389862 1_555
Mn3 O21 2.389862 1_545
O0 Si0 1.625572 1_555
O0 Ti1 1.971706 1_555
O1 Si1 1.625572 1_555
O1 Ti0 1.971706 1_555
O2 P0 1.559439 1_555
O3 P1 1.559439 1_555
O4 P0 1.564071 1_556
O5 P1 1.564071 1_554
O6 Si3 1.628156 1_545
O6 Ti0 1.956152 1_555
O7 Si2 1.628156 1_565
O7 Ti1 1.956152 1_555
O8 P0 1.558092 1_555
O9 P1 1.558092 1_555
O10 Si1 1.627891 1_455
O10 Ti0 1.948247 1_555
O11 Si0 1.627891 1_655
O11 Ti1 1.948247 1_555
O12 Si3 1.631583 1_445
O12 Ti0 1.945840 1_555
O13 Si2 1.631583 1_665
O13 Ti1 1.945840 1_555
O16 P0 1.543950 1_555
O17 P1 1.543950 1_555
O18 Si2 1.677179 1_555
O19 Si3 1.677179 1_555
O20 Ti0 1.770236 1_555
O21 Ti1 1.770236 1_555
O22 Si0 1.641925 1_555
O22 Si2 1.642380 1_555
O23 Si1 1.641925 1_555
O23 Si3 1.642380 1_555
O24 Si0 1.675245 1_555
O25 Si1 1.675245 1_555
