# generated using pymatgen
data_Ba3Sr(HgO2)4
_symmetry_space_group_name_H-M   'P 1'
_cell_length_a   6.85432785
_cell_length_b   6.85432785
_cell_length_c   25.39766800
_cell_angle_alpha   90.00000000
_cell_angle_beta   90.00000000
_cell_angle_gamma   119.99999855
_symmetry_Int_Tables_number   1
_chemical_formula_structural   Ba3Sr(HgO2)4
_chemical_formula_sum   'Ba9 Sr3 Hg12 O24'
_cell_volume   1033.36613869
_cell_formula_units_Z   3
loop_
 _symmetry_equiv_pos_site_id
 _symmetry_equiv_pos_as_xyz
  1  'x, y, z'
loop_
 _atom_site_type_symbol
 _atom_site_label
 _atom_site_symmetry_multiplicity
 _atom_site_fract_x
 _atom_site_fract_y
 _atom_site_fract_z
 _atom_site_occupancy
  Ba  Ba0  1  0.33333300  0.66666700  0.23347800  1
  Ba  Ba1  1  0.33333300  0.66666700  0.73322100  1
  Ba  Ba2  1  0.66666700  0.33333300  0.76652200  1
  Ba  Ba3  1  0.66666700  0.33333300  0.26677900  1
  Ba  Ba4  1  0.66666700  0.33333300  0.98321900  1
  Ba  Ba5  1  0.66666700  0.33333300  0.48347600  1
  Ba  Ba6  1  0.33333300  0.66666700  0.01678100  1
  Ba  Ba7  1  0.33333300  0.66666700  0.51652400  1
  Ba  Ba8  1  0.00000000  0.00000000  0.00000000  1
  Sr  Sr0  1  0.00000000  0.00000000  0.50000000  1
  Sr  Sr1  1  0.00000000  0.00000000  0.25010600  1
  Sr  Sr2  1  0.00000000  0.00000000  0.74989400  1
  Hg  Hg0  1  0.17035200  0.82694100  0.87422700  1
  Hg  Hg1  1  0.16981300  0.83013600  0.37502100  1
  Hg  Hg2  1  0.17305900  0.34341100  0.87422700  1
  Hg  Hg3  1  0.16986400  0.33967700  0.37502100  1
  Hg  Hg4  1  0.65658900  0.82964800  0.87422700  1
  Hg  Hg5  1  0.66032300  0.83018700  0.37502100  1
  Hg  Hg6  1  0.82694100  0.17035200  0.12577300  1
  Hg  Hg7  1  0.83013600  0.16981300  0.62497900  1
  Hg  Hg8  1  0.34341100  0.17305900  0.12577300  1
  Hg  Hg9  1  0.33967700  0.16986400  0.62497900  1
  Hg  Hg10  1  0.82964800  0.65658900  0.12577300  1
  Hg  Hg11  1  0.83018700  0.66032300  0.62497900  1
  O  O0  1  0.66594300  0.70300900  0.80322100  1
  O  O1  1  0.66522400  0.70343400  0.30351100  1
  O  O2  1  0.29699100  0.96293500  0.80322100  1
  O  O3  1  0.29656600  0.96178900  0.30351100  1
  O  O4  1  0.03706500  0.33405700  0.80322100  1
  O  O5  1  0.03821100  0.33477600  0.30351100  1
  O  O6  1  0.70300900  0.66594300  0.19677900  1
  O  O7  1  0.70343400  0.66522400  0.69648900  1
  O  O8  1  0.96293500  0.29699100  0.19677900  1
  O  O9  1  0.96178900  0.29656600  0.69648900  1
  O  O10  1  0.33405700  0.03706500  0.19677900  1
  O  O11  1  0.33477600  0.03821100  0.69648900  1
  O  O12  1  0.35040600  0.31347100  0.05533900  1
  O  O13  1  0.33477200  0.29648900  0.55347300  1
  O  O14  1  0.68652900  0.03693400  0.05533900  1
  O  O15  1  0.70351100  0.03828300  0.55347300  1
  O  O16  1  0.96306600  0.64959400  0.05533900  1
  O  O17  1  0.96171700  0.66522800  0.55347300  1
  O  O18  1  0.31347100  0.35040600  0.94466100  1
  O  O19  1  0.29648900  0.33477200  0.44652700  1
  O  O20  1  0.03693400  0.68652900  0.94466100  1
  O  O21  1  0.03828300  0.70351100  0.44652700  1
  O  O22  1  0.64959400  0.96306600  0.94466100  1
  O  O23  1  0.66522800  0.96171700  0.44652700  1
loop_
_geom_bond_atom_site_label_1
_geom_bond_atom_site_label_2
_geom_bond_distance
_geom_bond_site_symmetry_2
Ba0 O10 2.702190 1_565
Ba0 O8 2.702197 1_455
Ba0 O6 2.702203 1_555
Ba0 O3 2.798027 1_555
Ba0 O5 2.798034 1_555
Ba0 O1 2.798038 1_555
Ba1 O7 2.707550 1_555
Ba1 O11 2.707550 1_565
Ba1 O9 2.707550 1_455
Ba1 O2 2.802217 1_555
Ba1 O0 2.802217 1_555
Ba1 O4 2.802217 1_555
Ba2 O4 2.702190 1_655
Ba2 O2 2.702197 1_545
Ba2 O0 2.702203 1_555
Ba2 O9 2.798027 1_555
Ba2 O11 2.798034 1_555
Ba2 O7 2.798038 1_555
Ba3 O1 2.707550 1_555
Ba3 O5 2.707550 1_655
Ba3 O3 2.707550 1_545
Ba3 O8 2.802217 1_555
Ba3 O6 2.802217 1_555
Ba3 O10 2.802217 1_555
Ba4 O22 2.667731 1_545
Ba4 O20 2.667737 1_655
Ba4 O18 2.667744 1_555
Ba4 O14 2.788841 1_556
Ba4 O12 2.788841 1_556
Ba4 O16 2.788841 1_556
Ba5 O23 2.709930 1_545
Ba5 O21 2.709933 1_655
Ba5 O19 2.709936 1_555
Ba5 O15 2.797306 1_555
Ba5 O17 2.797309 1_555
Ba5 O13 2.797311 1_555
Ba6 O16 2.667731 1_455
Ba6 O14 2.667737 1_565
Ba6 O12 2.667744 1_555
Ba6 O20 2.788841 1_554
Ba6 O18 2.788841 1_554
Ba6 O22 2.788841 1_554
Ba7 O17 2.709930 1_455
Ba7 O15 2.709933 1_565
Ba7 O13 2.709936 1_555
Ba7 O21 2.797306 1_555
Ba7 O23 2.797309 1_555
Ba7 O19 2.797311 1_555
Ba8 O14 2.683288 1_455
Ba8 O20 2.683288 1_544
Ba8 O12 2.683291 1_555
Ba8 O18 2.683291 1_554
Ba8 O16 2.683294 1_445
Ba8 O22 2.683294 1_444
Hg0 O2 2.016294 1_555
Hg0 O20 2.020507 1_555
Hg1 O21 2.020341 1_555
Hg1 O3 2.020809 1_555
Hg2 O4 2.016296 1_555
Hg2 O18 2.020506 1_555
Hg3 O19 2.020341 1_555
Hg3 O5 2.020808 1_555
Hg4 O0 2.016293 1_555
Hg4 O22 2.020509 1_555
Hg5 O23 2.020341 1_555
Hg5 O1 2.020811 1_555
Hg6 O8 2.016294 1_555
Hg6 O14 2.020507 1_555
Hg7 O15 2.020341 1_555
Hg7 O9 2.020809 1_555
Hg8 O10 2.016296 1_555
Hg8 O12 2.020506 1_555
Hg9 O13 2.020341 1_555
Hg9 O11 2.020808 1_555
Hg10 O6 2.016293 1_555
Hg10 O16 2.020509 1_555
Hg11 O17 2.020341 1_555
Hg11 O7 2.020811 1_555
O0 Sr2 2.561260 1_665
O1 Sr1 2.563750 1_665
O2 Sr2 2.561257 1_565
O3 Sr1 2.563754 1_565
O4 Sr2 2.561262 1_555
O5 Sr1 2.563748 1_555
O6 Sr1 2.561260 1_665
O7 Sr2 2.563750 1_665
O8 Sr1 2.561257 1_655
O9 Sr2 2.563754 1_655
O10 Sr1 2.561262 1_555
O11 Sr2 2.563748 1_555
O13 Sr0 2.564469 1_555
O15 Sr0 2.564469 1_655
O17 Sr0 2.564469 1_665
O19 Sr0 2.564469 1_555
O21 Sr0 2.564469 1_565
O23 Sr0 2.564469 1_665
