# generated using pymatgen
data_SrPrFeCoO6
_symmetry_space_group_name_H-M   'P 1'
_cell_length_a   5.41785300
_cell_length_b   5.42157415
_cell_length_c   5.47974573
_cell_angle_alpha   119.63052418
_cell_angle_beta   119.45496100
_cell_angle_gamma   90.01367513
_symmetry_Int_Tables_number   1
_chemical_formula_structural   SrPrFeCoO6
_chemical_formula_sum   'Sr1 Pr1 Fe1 Co1 O6'
_cell_volume   115.35660940
_cell_formula_units_Z   1
loop_
 _symmetry_equiv_pos_site_id
 _symmetry_equiv_pos_as_xyz
  1  'x, y, z'
loop_
 _atom_site_type_symbol
 _atom_site_label
 _atom_site_symmetry_multiplicity
 _atom_site_fract_x
 _atom_site_fract_y
 _atom_site_fract_z
 _atom_site_occupancy
  Sr  Sr0  1  0.75004700  0.74996800  0.49990900  1
  Pr  Pr0  1  0.24977900  0.25276800  0.49992700  1
  Fe  Fe0  1  0.50027000  0.00038900  0.00004900  1
  Co  Co0  1  0.00057100  0.50027900  0.00021200  1
  O  O0  1  0.27737900  0.70197700  0.99143200  1
  O  O1  1  0.20901800  0.22115300  0.00654900  1
  O  O2  1  0.70567100  0.28392000  0.97795500  1
  O  O3  1  0.80697700  0.79452400  0.02411000  1
  O  O4  1  0.24721300  0.73452800  0.49370800  1
  O  O5  1  0.75307700  0.26049400  0.50615000  1
loop_
_geom_bond_atom_site_label_1
_geom_bond_atom_site_label_2
_geom_bond_distance
_geom_bond_site_symmetry_2
Fe0 O2 1.982852 1_554
Fe0 O1 1.984387 1_555
Fe0 O0 1.986312 1_544
Fe0 O5 1.987976 1_555
Fe0 O3 1.988779 1_545
Fe0 O4 1.989750 1_544
Co0 O0 1.889291 1_554
Co0 O1 1.892326 1_555
Co0 O3 1.895117 1_455
Co0 O2 1.899880 1_454
Co0 O4 1.939266 1_555
Co0 O5 1.940721 1_454
O0 Pr0 2.515032 1_555
O0 Sr0 2.579651 1_556
O0 Sr0 2.934284 1_455
O0 Pr0 2.980946 1_566
O1 Pr0 2.518353 1_555
O1 Sr0 2.571280 1_444
O1 Sr0 2.942589 1_555
O1 Pr0 2.976350 1_554
O2 Pr0 2.487990 1_555
O2 Sr0 2.607706 1_556
O2 Sr0 2.901976 1_545
O2 Pr0 3.014169 1_656
O3 Pr0 2.483155 1_665
O3 Sr0 2.616709 1_554
O3 Sr0 2.892215 1_555
O3 Pr0 3.019332 1_554
O4 Pr0 2.628864 1_555
O4 Sr0 2.708487 1_555
O4 Sr0 2.711237 1_455
O4 Pr0 2.792933 1_565
O5 Sr0 2.670744 1_555
O5 Pr0 2.708063 1_655
O5 Pr0 2.710242 1_555
O5 Sr0 2.751052 1_545
