# generated using pymatgen
data_In2Sb2H16C4Se7N2
_symmetry_space_group_name_H-M   'P 1'
_cell_length_a   11.24881930
_cell_length_b   11.24881930
_cell_length_c   18.02878244
_cell_angle_alpha   58.89201151
_cell_angle_beta   58.89201151
_cell_angle_gamma   38.38274685
_symmetry_Int_Tables_number   1
_chemical_formula_structural   In2Sb2H16C4Se7N2
_chemical_formula_sum   'In4 Sb4 H32 C8 Se14 N4'
_cell_volume   1185.73010117
_cell_formula_units_Z   2
loop_
 _symmetry_equiv_pos_site_id
 _symmetry_equiv_pos_as_xyz
  1  'x, y, z'
loop_
 _atom_site_type_symbol
 _atom_site_label
 _atom_site_symmetry_multiplicity
 _atom_site_fract_x
 _atom_site_fract_y
 _atom_site_fract_z
 _atom_site_occupancy
  In  In0  1  0.26987300  0.80973600  0.10988000  1
  In  In1  1  0.19026400  0.73012700  0.39012000  1
  In  In2  1  0.73012700  0.19026400  0.89012000  1
  In  In3  1  0.80973600  0.26987300  0.60988000  1
  Sb  Sb0  1  0.23077500  0.70267000  0.95440400  1
  Sb  Sb1  1  0.29733000  0.76922500  0.54559600  1
  Sb  Sb2  1  0.76922500  0.29733000  0.04559600  1
  Sb  Sb3  1  0.70267000  0.23077500  0.45440400  1
  H  H0  1  0.14653600  0.39359800  0.91364500  1
  H  H1  1  0.60640200  0.85346400  0.58635500  1
  H  H2  1  0.85346400  0.60640200  0.08635500  1
  H  H3  1  0.39359800  0.14653600  0.41364500  1
  H  H4  1  0.29196900  0.42691300  0.83933500  1
  H  H5  1  0.57308700  0.70803100  0.66066500  1
  H  H6  1  0.70803100  0.57308700  0.16066500  1
  H  H7  1  0.42691300  0.29196900  0.33933500  1
  H  H8  1  0.99939500  0.65519200  0.78902500  1
  H  H9  1  0.34480800  0.00060500  0.71097500  1
  H  H10  1  0.00060500  0.34480800  0.21097500  1
  H  H11  1  0.65519200  0.99939500  0.28902500  1
  H  H12  1  0.04183100  0.45664100  0.80015500  1
  H  H13  1  0.54335900  0.95816900  0.69984500  1
  H  H14  1  0.95816900  0.54335900  0.19984500  1
  H  H15  1  0.45664100  0.04183100  0.30015500  1
  H  H16  1  0.20531600  0.48165300  0.71807000  1
  H  H17  1  0.51834700  0.79468400  0.78193000  1
  H  H18  1  0.79468400  0.51834700  0.28193000  1
  H  H19  1  0.48165300  0.20531600  0.21807000  1
  H  H20  1  0.47292800  0.08734000  0.90224300  1
  H  H21  1  0.91266000  0.52707200  0.59775700  1
  H  H22  1  0.52707200  0.91266000  0.09775700  1
  H  H23  1  0.08734000  0.47292800  0.40224300  1
  H  H24  1  0.50079900  0.14535400  0.78447500  1
  H  H25  1  0.85464600  0.49920100  0.71552500  1
  H  H26  1  0.49920100  0.85464600  0.21552500  1
  H  H27  1  0.14535400  0.50079900  0.28447500  1
  H  H28  1  0.33969600  0.11264200  0.85992900  1
  H  H29  1  0.88735800  0.66030300  0.64007100  1
  H  H30  1  0.66030400  0.88735800  0.14007100  1
  H  H31  1  0.11264200  0.33969700  0.35992900  1
  C  C0  1  0.11115400  0.50197800  0.78457600  1
  C  C1  1  0.49802200  0.88884600  0.71542400  1
  C  C2  1  0.88884600  0.49802200  0.21542400  1
  C  C3  1  0.50197800  0.11115400  0.28457600  1
  C  C4  1  0.39890200  0.16522300  0.84891700  1
  C  C5  1  0.83477700  0.60109800  0.65108300  1
  C  C6  1  0.60109800  0.83477700  0.15108300  1
  C  C7  1  0.16522300  0.39890200  0.34891700  1
  Se  Se0  1  0.42403300  0.57596700  0.25000000  1
  Se  Se1  1  0.57596700  0.42403300  0.75000000  1
  Se  Se2  1  0.05440700  0.78532800  0.11204000  1
  Se  Se3  1  0.21467200  0.94559300  0.38796000  1
  Se  Se4  1  0.94559300  0.21467200  0.88796000  1
  Se  Se5  1  0.78532800  0.05440700  0.61204000  1
  Se  Se6  1  0.94522600  0.81332200  0.92634800  1
  Se  Se7  1  0.18667800  0.05477400  0.57365200  1
  Se  Se8  1  0.05477400  0.18667800  0.07365200  1
  Se  Se9  1  0.81332200  0.94522600  0.42634800  1
  Se  Se10  1  0.41374900  0.33296800  0.01698700  1
  Se  Se11  1  0.66703200  0.58625100  0.48301300  1
  Se  Se12  1  0.58625100  0.66703200  0.98301300  1
  Se  Se13  1  0.33296800  0.41374900  0.51698700  1
  N  N0  1  0.23404800  0.37800900  0.85047100  1
  N  N1  1  0.62199100  0.76595200  0.64952900  1
  N  N2  1  0.76595200  0.62199100  0.14952900  1
  N  N3  1  0.37800900  0.23404800  0.35047100  1
loop_
_geom_bond_atom_site_label_1
_geom_bond_atom_site_label_2
_geom_bond_distance
_geom_bond_site_symmetry_2
In0 Se0 2.610950 1_555
In0 Se2 2.624141 1_555
In0 Se12 2.626837 1_554
In0 Se8 2.635689 1_565
In1 Se0 2.610950 1_555
In1 Se3 2.624141 1_555
In1 Se13 2.626837 1_555
In1 Se9 2.635689 1_455
In2 Se1 2.610950 1_555
In2 Se4 2.624141 1_555
In2 Se10 2.626837 1_556
In2 Se6 2.635689 1_545
In3 Se1 2.610950 1_555
In3 Se5 2.624141 1_555
In3 Se11 2.626837 1_555
In3 Se7 2.635689 1_655
Sb0 Se6 2.623521 1_455
Sb0 Se2 2.624845 1_556
Sb0 Se10 2.633619 1_556
Sb1 Se7 2.623521 1_565
Sb1 Se3 2.624845 1_555
Sb1 Se11 2.633619 1_555
Sb2 Se8 2.623521 1_655
Sb2 Se4 2.624845 1_554
Sb2 Se12 2.633619 1_554
Sb3 Se9 2.623521 1_545
Sb3 Se5 2.624845 1_555
Sb3 Se13 2.633619 1_555
H0 N0 1.036449 1_555
H1 N1 1.036449 1_555
H2 N2 1.036449 1_555
H3 N3 1.036449 1_555
H4 N0 1.039264 1_555
H5 N1 1.039264 1_555
H6 N2 1.039264 1_555
H7 N3 1.039264 1_555
C0 H12 1.093718 1_555
C0 H8 1.095016 1_455
C0 H16 1.096877 1_555
C0 N0 1.493293 1_555
C1 H13 1.093718 1_555
C1 H9 1.095016 1_565
C1 H17 1.096877 1_555
C1 N1 1.493293 1_555
C2 H14 1.093718 1_555
C2 H10 1.095016 1_655
C2 H18 1.096877 1_555
C2 N2 1.493293 1_555
C3 H15 1.093718 1_555
C3 H11 1.095016 1_545
C3 H19 1.096877 1_555
C3 N3 1.493293 1_555
C4 H28 1.091979 1_555
C4 H20 1.094717 1_555
C4 H24 1.097368 1_555
C4 N0 1.491875 1_555
C5 H29 1.091969 1_555
C5 H21 1.094717 1_555
C5 H25 1.097368 1_555
C5 N1 1.491875 1_555
C6 H30 1.091979 1_555
C6 H22 1.094717 1_555
C6 H26 1.097368 1_555
C6 N2 1.491875 1_555
C7 H31 1.091969 1_555
C7 H23 1.094717 1_555
C7 H27 1.097368 1_555
C7 N3 1.491875 1_555
