# generated using pymatgen
data_AlFe3(SO7)6
_symmetry_space_group_name_H-M   'P 1'
_cell_length_a   10.92791029
_cell_length_b   10.92791029
_cell_length_c   17.28370500
_cell_angle_alpha   90.00000000
_cell_angle_beta   90.00000000
_cell_angle_gamma   120.00000173
_symmetry_Int_Tables_number   1
_chemical_formula_structural   AlFe3(SO7)6
_chemical_formula_sum   'Al2 Fe6 S12 O84'
_cell_volume   1787.48213993
_cell_formula_units_Z   2
loop_
 _symmetry_equiv_pos_site_id
 _symmetry_equiv_pos_as_xyz
  1  'x, y, z'
loop_
 _atom_site_type_symbol
 _atom_site_label
 _atom_site_symmetry_multiplicity
 _atom_site_fract_x
 _atom_site_fract_y
 _atom_site_fract_z
 _atom_site_occupancy
  Al  Al0  1  0.00000000  0.00000000  0.50000000  1
  Al  Al1  1  0.00000000  0.00000000  0.00000000  1
  Fe  Fe0  1  0.66666700  0.33333300  0.49975600  1
  Fe  Fe1  1  0.33333300  0.66666700  0.50024400  1
  Fe  Fe2  1  0.66666700  0.33333300  0.00024400  1
  Fe  Fe3  1  0.33333300  0.66666700  0.99975600  1
  Fe  Fe4  1  0.33333300  0.66666700  0.75000000  1
  Fe  Fe5  1  0.66666700  0.33333300  0.25000000  1
  S  S0  1  0.24319900  0.41463700  0.62303300  1
  S  S1  1  0.75680100  0.58536300  0.37696700  1
  S  S2  1  0.58536300  0.82856300  0.62303300  1
  S  S3  1  0.24319900  0.82856300  0.87696700  1
  S  S4  1  0.41463700  0.17143700  0.37696700  1
  S  S5  1  0.75680100  0.17143700  0.12303300  1
  S  S6  1  0.17143700  0.75680100  0.62303300  1
  S  S7  1  0.58536300  0.75680100  0.87696700  1
  S  S8  1  0.82856300  0.24319900  0.37696700  1
  S  S9  1  0.41463700  0.24319900  0.12303300  1
  S  S10  1  0.17143700  0.41463700  0.87696700  1
  S  S11  1  0.82856300  0.58536300  0.12303300  1
  O  O0  1  0.33935000  0.51766600  0.68448200  1
  O  O1  1  0.66065000  0.48233400  0.31551800  1
  O  O2  1  0.48233400  0.82168300  0.68448200  1
  O  O3  1  0.33935000  0.82168300  0.81551800  1
  O  O4  1  0.51766600  0.17831700  0.31551800  1
  O  O5  1  0.66065000  0.17831700  0.18448200  1
  O  O6  1  0.17831700  0.66065000  0.68448200  1
  O  O7  1  0.48233400  0.66065000  0.81551800  1
  O  O8  1  0.82168300  0.33935000  0.31551800  1
  O  O9  1  0.51766600  0.33935000  0.18448200  1
  O  O10  1  0.17831700  0.51766600  0.81551800  1
  O  O11  1  0.82168300  0.48233400  0.18448200  1
  O  O12  1  0.21603000  0.49840700  0.56137400  1
  O  O13  1  0.78397000  0.50159300  0.43862600  1
  O  O14  1  0.50159300  0.71762300  0.56137400  1
  O  O15  1  0.21603000  0.71762300  0.93862600  1
  O  O16  1  0.49840700  0.28237700  0.43862600  1
  O  O17  1  0.78397000  0.28237700  0.06137400  1
  O  O18  1  0.28237700  0.78397000  0.56137400  1
  O  O19  1  0.50159300  0.78397000  0.93862600  1
  O  O20  1  0.71762300  0.21603000  0.43862600  1
  O  O21  1  0.49840700  0.21603000  0.06137400  1
  O  O22  1  0.28237700  0.49840700  0.93862600  1
  O  O23  1  0.71762300  0.50159300  0.06137400  1
  O  O24  1  0.10573500  0.31484400  0.65511900  1
  O  O25  1  0.89426500  0.68515600  0.34488100  1
  O  O26  1  0.68515600  0.79089000  0.65511900  1
  O  O27  1  0.10573500  0.79089000  0.84488100  1
  O  O28  1  0.31484400  0.20911000  0.34488100  1
  O  O29  1  0.89426500  0.20911000  0.15511900  1
  O  O30  1  0.20911000  0.89426500  0.65511900  1
  O  O31  1  0.68515600  0.89426500  0.84488100  1
  O  O32  1  0.79089000  0.10573500  0.34488100  1
  O  O33  1  0.31484400  0.10573500  0.15511900  1
  O  O34  1  0.20911000  0.31484400  0.84488100  1
  O  O35  1  0.79089000  0.68515600  0.15511900  1
  O  O36  1  0.61949000  0.13469100  0.76140400  1
  O  O37  1  0.38051000  0.86530900  0.23859600  1
  O  O38  1  0.86530900  0.48479900  0.76140400  1
  O  O39  1  0.61949000  0.48479900  0.73859600  1
  O  O40  1  0.13469100  0.51520100  0.23859600  1
  O  O41  1  0.38051000  0.51520100  0.26140400  1
  O  O42  1  0.51520100  0.38051000  0.76140400  1
  O  O43  1  0.86530900  0.38051000  0.73859600  1
  O  O44  1  0.48479900  0.61949000  0.23859600  1
  O  O45  1  0.13469100  0.61949000  0.26140400  1
  O  O46  1  0.51520100  0.13469100  0.73859600  1
  O  O47  1  0.48479900  0.86530900  0.26140400  1
  O  O48  1  0.93347000  0.09232200  0.56087500  1
  O  O49  1  0.06653000  0.90767800  0.43912500  1
  O  O50  1  0.90767800  0.84114800  0.56087500  1
  O  O51  1  0.93347000  0.84114800  0.93912500  1
  O  O52  1  0.09232200  0.15885200  0.43912500  1
  O  O53  1  0.06653000  0.15885200  0.06087500  1
  O  O54  1  0.15885200  0.06653000  0.56087500  1
  O  O55  1  0.90767800  0.06653000  0.93912500  1
  O  O56  1  0.84114800  0.93347000  0.43912500  1
  O  O57  1  0.09232200  0.93347000  0.06087500  1
  O  O58  1  0.15885200  0.09232200  0.93912500  1
  O  O59  1  0.84114800  0.90767800  0.06087500  1
  O  O60  1  0.32048700  0.34937600  0.59032100  1
  O  O61  1  0.67951300  0.65062400  0.40967900  1
  O  O62  1  0.65062400  0.97111200  0.59032100  1
  O  O63  1  0.32048700  0.97111200  0.90967900  1
  O  O64  1  0.34937600  0.02888800  0.40967900  1
  O  O65  1  0.67951300  0.02888800  0.09032100  1
  O  O66  1  0.02888800  0.67951300  0.59032100  1
  O  O67  1  0.65062400  0.67951300  0.90967900  1
  O  O68  1  0.97111200  0.32048700  0.40967900  1
  O  O69  1  0.34937600  0.32048700  0.09032100  1
  O  O70  1  0.02888800  0.34937600  0.90967900  1
  O  O71  1  0.97111200  0.65062400  0.09032100  1
  O  O72  1  0.58449300  0.20489700  0.57454700  1
  O  O73  1  0.41550700  0.79510300  0.42545300  1
  O  O74  1  0.79510300  0.37959700  0.57454700  1
  O  O75  1  0.58449300  0.37959700  0.92545300  1
  O  O76  1  0.20489700  0.62040300  0.42545300  1
  O  O77  1  0.41550700  0.62040300  0.07454700  1
  O  O78  1  0.62040300  0.41550700  0.57454700  1
  O  O79  1  0.79510300  0.41550700  0.92545300  1
  O  O80  1  0.37959700  0.58449300  0.42545300  1
  O  O81  1  0.20489700  0.58449300  0.07454700  1
  O  O82  1  0.62040300  0.20489700  0.92545300  1
  O  O83  1  0.37959700  0.79510300  0.07454700  1
loop_
_geom_bond_atom_site_label_1
_geom_bond_atom_site_label_2
_geom_bond_distance
_geom_bond_site_symmetry_2
Al0 O52 1.840363 1_555
Al0 O50 1.840363 1_445
Al0 O54 1.840363 1_555
Al0 O56 1.840363 1_445
Al0 O48 1.840363 1_455
Al0 O49 1.840363 1_545
Al1 O59 1.840363 1_445
Al1 O58 1.840363 1_554
Al1 O53 1.840363 1_555
Al1 O51 1.840363 1_444
Al1 O57 1.840363 1_545
Al1 O55 1.840363 1_454
Fe0 O74 1.785194 1_555
Fe0 O72 1.785196 1_555
Fe0 O78 1.785208 1_555
Fe0 O20 1.945094 1_555
Fe0 O13 1.945100 1_555
Fe0 O16 1.945102 1_555
Fe1 O76 1.785194 1_555
Fe1 O73 1.785196 1_555
Fe1 O80 1.785208 1_555
Fe1 O18 1.945094 1_555
Fe1 O12 1.945100 1_555
Fe1 O14 1.945102 1_555
Fe2 O82 1.785194 1_554
Fe2 O79 1.785196 1_554
Fe2 O75 1.785208 1_554
Fe2 O17 1.945094 1_555
Fe2 O21 1.945100 1_555
Fe2 O23 1.945102 1_555
Fe3 O83 1.785194 1_556
Fe3 O81 1.785196 1_556
Fe3 O77 1.785208 1_556
Fe3 O15 1.945094 1_555
Fe3 O19 1.945100 1_555
Fe3 O22 1.945102 1_555
Fe4 O6 2.011192 1_555
Fe4 O3 2.011192 1_555
Fe4 O10 2.011200 1_555
Fe4 O2 2.011200 1_555
Fe4 O7 2.011210 1_555
Fe4 O0 2.011210 1_555
Fe5 O5 2.011192 1_555
Fe5 O8 2.011192 1_555
Fe5 O4 2.011200 1_555
Fe5 O11 2.011200 1_555
Fe5 O1 2.011210 1_555
Fe5 O9 2.011210 1_555
O0 S0 1.522052 1_555
O1 S1 1.522052 1_555
O2 S2 1.522045 1_555
O3 S3 1.522061 1_555
O4 S4 1.522045 1_555
O5 S5 1.522061 1_555
O6 S6 1.522061 1_555
O7 S7 1.522052 1_555
O8 S8 1.522061 1_555
O9 S9 1.522052 1_555
O10 S10 1.522045 1_555
O11 S11 1.522045 1_555
O12 S0 1.527633 1_555
O13 S1 1.527633 1_555
O14 S2 1.527639 1_555
O15 S3 1.527641 1_555
O16 S4 1.527639 1_555
O17 S5 1.527641 1_555
O18 S6 1.527641 1_555
O19 S7 1.527633 1_555
O20 S8 1.527641 1_555
O21 S9 1.527633 1_555
O22 S10 1.527639 1_555
O23 S11 1.527639 1_555
O24 S0 1.454372 1_555
O25 S1 1.454372 1_555
O26 S2 1.454386 1_555
O27 S3 1.454367 1_555
O28 S4 1.454386 1_555
O29 S5 1.454367 1_555
O30 S6 1.454367 1_555
O31 S7 1.454372 1_555
O32 S8 1.454367 1_555
O33 S9 1.454372 1_555
O34 S10 1.454386 1_555
O35 S11 1.454386 1_555
O36 O46 1.205913 1_555
O37 O47 1.205913 1_555
O38 O43 1.205913 1_555
O39 O42 1.205913 1_555
O40 O45 1.205913 1_555
O41 O44 1.205913 1_555
O60 S0 1.464222 1_555
O61 S1 1.464222 1_555
O62 S2 1.464222 1_555
O63 S3 1.464222 1_555
O64 S4 1.464222 1_555
O65 S5 1.464222 1_555
O66 S6 1.464222 1_555
O67 S7 1.464222 1_555
O68 S8 1.464222 1_555
O69 S9 1.464222 1_555
O70 S10 1.464222 1_555
O71 S11 1.464222 1_555
