# generated using pymatgen
data_Li3Mn3TeO8
_symmetry_space_group_name_H-M   'P 1'
_cell_length_a   6.27498049
_cell_length_b   6.27336676
_cell_length_c   10.42526788
_cell_angle_alpha   105.78518933
_cell_angle_beta   105.70519071
_cell_angle_gamma   60.99520644
_symmetry_Int_Tables_number   1
_chemical_formula_structural   Li3Mn3TeO8
_chemical_formula_sum   'Li6 Mn6 Te2 O16'
_cell_volume   340.65734881
_cell_formula_units_Z   2
loop_
 _symmetry_equiv_pos_site_id
 _symmetry_equiv_pos_as_xyz
  1  'x, y, z'
loop_
 _atom_site_type_symbol
 _atom_site_label
 _atom_site_symmetry_multiplicity
 _atom_site_fract_x
 _atom_site_fract_y
 _atom_site_fract_z
 _atom_site_occupancy
  Li  Li0  1  0.21517800  0.75822600  0.73824600  1
  Li  Li1  1  0.78530500  0.24076300  0.26182500  1
  Li  Li2  1  0.75181300  0.74654100  0.74995700  1
  Li  Li3  1  0.24823100  0.25300500  0.25010000  1
  Li  Li4  1  0.26083900  0.71621200  0.23801900  1
  Li  Li5  1  0.73970800  0.28367800  0.76196200  1
  Mn  Mn0  1  0.99908600  0.50040400  0.00006500  1
  Mn  Mn1  1  0.50049800  0.00012600  0.50028600  1
  Mn  Mn2  1  0.49947700  0.00033000  0.99980500  1
  Mn  Mn3  1  0.00064800  0.00015100  0.50040200  1
  Mn  Mn4  1  0.49936900  0.49981500  0.99976800  1
  Mn  Mn5  1  0.00026500  0.49996400  0.49995800  1
  Te  Te0  1  0.50028500  0.50000000  0.49998500  1
  Te  Te1  1  0.99973400  0.00006100  0.99990800  1
  O  O0  1  0.67226900  0.61523600  0.89635800  1
  O  O1  1  0.11495600  0.17204800  0.39658700  1
  O  O2  1  0.88575900  0.82799300  0.60355500  1
  O  O3  1  0.32676600  0.38497400  0.10358700  1
  O  O4  1  0.16360100  0.60109600  0.39251600  1
  O  O5  1  0.67371700  0.11103400  0.88720700  1
  O  O6  1  0.59589400  0.61483500  0.37908600  1
  O  O7  1  0.11354400  0.09853300  0.87973800  1
  O  O8  1  0.10178800  0.66393900  0.89130200  1
  O  O9  1  0.61086900  0.17371200  0.38708200  1
  O  O10  1  0.32578500  0.88897800  0.11249300  1
  O  O11  1  0.83688500  0.39911100  0.60757500  1
  O  O12  1  0.88581300  0.90163700  0.12003500  1
  O  O13  1  0.40459000  0.38529300  0.62095200  1
  O  O14  1  0.38988200  0.82618800  0.61309300  1
  O  O15  1  0.89743900  0.33611800  0.10853600  1
loop_
_geom_bond_atom_site_label_1
_geom_bond_atom_site_label_2
_geom_bond_distance
_geom_bond_site_symmetry_2
Li0 O2 2.078897 1_455
Li0 O7 2.148468 1_565
Li0 O14 2.148540 1_555
Li0 O13 2.217019 1_555
Li0 O8 2.222275 1_555
Li1 O1 2.080864 1_655
Li1 O9 2.144625 1_555
Li1 O12 2.145105 1_545
Li1 O6 2.221495 1_555
Li1 O15 2.223479 1_555
Li2 O0 2.179981 1_555
Li2 O11 2.186151 1_555
Li2 O8 2.196047 1_655
Li2 O2 2.198271 1_555
Li2 O14 2.230820 1_555
Li2 O5 2.242527 1_565
Li3 O3 2.180019 1_555
Li3 O4 2.189356 1_555
Li3 O1 2.194280 1_555
Li3 O15 2.200504 1_455
Li3 O9 2.234825 1_555
Li3 O10 2.242282 1_545
Li4 O3 2.085445 1_555
Li4 O6 2.127416 1_555
Li4 O10 2.131205 1_555
Li4 O12 2.227269 1_455
Li4 O4 2.253952 1_555
Li5 O0 2.085756 1_555
Li5 O13 2.127388 1_555
Li5 O5 2.132231 1_555
Li5 O7 2.221221 1_655
Li5 O11 2.253997 1_555
Mn0 O0 1.919443 1_554
Mn0 O3 1.922737 1_655
Mn0 O15 2.099973 1_555
Mn0 O8 2.103133 1_654
Mn0 O12 2.332098 1_555
Mn0 O7 2.335918 1_654
Mn1 O2 2.204847 1_545
Mn1 O1 2.207467 1_555
Mn1 O14 2.220394 1_545
Mn1 O9 2.220688 1_555
Mn1 O13 2.264744 1_555
Mn1 O6 2.267563 1_545
Mn2 O3 2.201389 1_556
Mn2 O0 2.202345 1_545
Mn2 O5 2.220454 1_555
Mn2 O10 2.221278 1_546
Mn2 O7 2.267759 1_555
Mn2 O12 2.270028 1_546
Mn3 O2 2.156228 1_445
Mn3 O1 2.157342 1_555
Mn3 O14 2.257415 1_545
Mn3 O9 2.261940 1_455
Mn3 O11 2.274745 1_455
Mn3 O4 2.277278 1_545
Mn4 O3 2.163131 1_556
Mn4 O0 2.164116 1_555
Mn4 O5 2.252279 1_555
Mn4 O10 2.254102 1_556
Mn4 O8 2.275524 1_555
Mn4 O15 2.278673 1_556
Mn5 O1 1.920715 1_555
Mn5 O2 1.922104 1_455
Mn5 O4 2.084800 1_555
Mn5 O11 2.085186 1_455
Mn5 O6 2.352762 1_455
Mn5 O13 2.353041 1_555
O4 Te0 1.981591 1_555
O5 Te1 1.952652 1_555
O6 Te0 1.946804 1_555
O7 Te1 1.947926 1_455
O8 Te1 1.980515 1_465
O9 Te0 1.952117 1_555
O10 Te1 1.952311 1_464
O11 Te0 1.981707 1_555
O12 Te1 1.947836 1_564
O13 Te0 1.947193 1_555
O14 Te0 1.952544 1_555
O15 Te1 1.980236 1_554
