# generated using pymatgen
data_HoCo4Cu
_symmetry_space_group_name_H-M   'P 1'
_cell_length_a   3.97700000
_cell_length_b   4.90937387
_cell_length_c   4.90614867
_cell_angle_alpha   119.99011457
_cell_angle_beta   90.00000000
_cell_angle_gamma   90.00000000
_symmetry_Int_Tables_number   1
_chemical_formula_structural   HoCo4Cu
_chemical_formula_sum   'Ho1 Co4 Cu1'
_cell_volume   82.96526139
_cell_formula_units_Z   1
loop_
 _symmetry_equiv_pos_site_id
 _symmetry_equiv_pos_as_xyz
  1  'x, y, z'
loop_
 _atom_site_type_symbol
 _atom_site_label
 _atom_site_symmetry_multiplicity
 _atom_site_fract_x
 _atom_site_fract_y
 _atom_site_fract_z
 _atom_site_occupancy
  Ho  Ho0  1  0.00000000  0.99998700  0.00000500  1
  Co  Co0  1  0.00000000  0.66656000  0.33326300  1
  Co  Co1  1  0.50000000  0.50084500  0.00170000  1
  Co  Co2  1  0.50000000  0.50084300  0.49915100  1
  Co  Co3  1  0.50000000  0.99827000  0.49913700  1
  Cu  Cu0  1  0.00000000  0.33339500  0.66674400  1
loop_
_geom_bond_atom_site_label_1
_geom_bond_atom_site_label_2
_geom_bond_distance
_geom_bond_site_symmetry_2
Co0 Co1 2.437034 1_455
Co0 Co1 2.437034 1_555
Co0 Co2 2.437283 1_455
Co0 Co2 2.437283 1_555
Co0 Co3 2.437931 1_455
Co0 Co3 2.437931 1_555
Co0 Cu0 2.832221 1_554
Co0 Ho0 2.833169 1_556
Co0 Cu0 2.833268 1_555
Co0 Ho0 2.833434 1_555
Co0 Ho0 2.834312 1_545
Co0 Cu0 2.835426 1_565
Co1 Co2 2.440573 1_555
Co1 Co3 2.441638 1_555
Co1 Cu0 2.445398 1_554
Co1 Cu0 2.445398 1_654
Co1 Co2 2.465575 1_554
Co1 Co3 2.466858 1_544
Co1 Ho0 3.159019 1_655
Co1 Ho0 3.159019 1_555
Co1 Ho0 3.159105 1_645
Co1 Ho0 3.159105 1_545
Co2 Co3 2.442089 1_555
Co2 Cu0 2.445756 1_655
Co2 Cu0 2.445756 1_555
Co2 Co3 2.467284 1_545
Co2 Ho0 3.158713 1_556
Co2 Ho0 3.158713 1_656
Co2 Ho0 3.158729 1_545
Co2 Ho0 3.158729 1_645
Co3 Cu0 2.446361 1_565
Co3 Cu0 2.446361 1_665
Co3 Ho0 3.157774 1_555
Co3 Ho0 3.157774 1_655
Co3 Ho0 3.157844 1_556
Co3 Ho0 3.157844 1_656
Cu0 Ho0 2.833156 1_545
Cu0 Ho0 2.833366 1_546
Cu0 Ho0 2.834393 1_556
