# generated using pymatgen
data_Er2MgSe4
_symmetry_space_group_name_H-M   'P 1'
_cell_length_a   8.16612700
_cell_length_b   7.71617300
_cell_length_c   11.93539300
_cell_angle_alpha   90.00000000
_cell_angle_beta   90.00000000
_cell_angle_gamma   90.00000000
_symmetry_Int_Tables_number   1
_chemical_formula_structural   Er2MgSe4
_chemical_formula_sum   'Er8 Mg4 Se16'
_cell_volume   752.06401632
_cell_formula_units_Z   4
loop_
 _symmetry_equiv_pos_site_id
 _symmetry_equiv_pos_as_xyz
  1  'x, y, z'
loop_
 _atom_site_type_symbol
 _atom_site_label
 _atom_site_symmetry_multiplicity
 _atom_site_fract_x
 _atom_site_fract_y
 _atom_site_fract_z
 _atom_site_occupancy
  Er  Er0  1  0.04495900  0.75000000  0.31235300  1
  Er  Er1  1  0.95504100  0.25000000  0.68764700  1
  Er  Er2  1  0.45504100  0.25000000  0.81235300  1
  Er  Er3  1  0.54495900  0.75000000  0.18764700  1
  Er  Er4  1  0.06343600  0.25000000  0.01940000  1
  Er  Er5  1  0.93656400  0.75000000  0.98060000  1
  Er  Er6  1  0.43656400  0.75000000  0.51940000  1
  Er  Er7  1  0.56343600  0.25000000  0.48060000  1
  Mg  Mg0  1  0.18332800  0.25000000  0.40663600  1
  Mg  Mg1  1  0.81667200  0.75000000  0.59336400  1
  Mg  Mg2  1  0.31667200  0.75000000  0.90663600  1
  Mg  Mg3  1  0.68332800  0.25000000  0.09336400  1
  Se  Se0  1  0.12539600  0.50285600  0.84256800  1
  Se  Se1  1  0.87460400  0.49714400  0.15743200  1
  Se  Se2  1  0.37460400  0.49714400  0.34256800  1
  Se  Se3  1  0.62539600  0.50285600  0.65743200  1
  Se  Se4  1  0.62539600  0.99714400  0.65743200  1
  Se  Se5  1  0.37460400  0.00285600  0.34256800  1
  Se  Se6  1  0.87460400  0.00285600  0.15743200  1
  Se  Se7  1  0.12539600  0.99714400  0.84256800  1
  Se  Se8  1  0.89029800  0.25000000  0.45676700  1
  Se  Se9  1  0.10970200  0.75000000  0.54323300  1
  Se  Se10  1  0.60970200  0.75000000  0.95676700  1
  Se  Se11  1  0.39029800  0.25000000  0.04323300  1
  Se  Se12  1  0.22340900  0.75000000  0.11539500  1
  Se  Se13  1  0.77659100  0.25000000  0.88460500  1
  Se  Se14  1  0.27659100  0.25000000  0.61539500  1
  Se  Se15  1  0.72340900  0.75000000  0.38460500  1
loop_
_geom_bond_atom_site_label_1
_geom_bond_atom_site_label_2
_geom_bond_distance
_geom_bond_site_symmetry_2
Er0 Se15 2.763798 1_455
Er0 Se12 2.765807 1_555
Er0 Se9 2.805904 1_555
Er0 Se6 3.026706 1_465
Er0 Se1 3.026706 1_455
Er0 Se5 3.344132 1_565
Er0 Se2 3.344132 1_555
Er1 Se14 2.763798 1_655
Er1 Se13 2.765807 1_555
Er1 Se8 2.805904 1_555
Er1 Se0 3.026706 1_655
Er1 Se7 3.026706 1_645
Er1 Se3 3.344132 1_555
Er1 Se4 3.344132 1_545
Er2 Se13 2.763798 1_555
Er2 Se14 2.765807 1_555
Er2 Se11 2.805904 1_556
Er2 Se3 3.026706 1_555
Er2 Se4 3.026706 1_545
Er2 Se0 3.344132 1_555
Er2 Se7 3.344132 1_545
Er3 Se12 2.763798 1_555
Er3 Se15 2.765807 1_555
Er3 Se10 2.805904 1_554
Er3 Se5 3.026706 1_565
Er3 Se2 3.026706 1_555
Er3 Se1 3.344132 1_555
Er3 Se6 3.344132 1_565
Er4 Se11 2.684311 1_555
Er4 Se13 2.841696 1_454
Er4 Se0 2.918422 1_554
Er4 Se7 2.918422 1_544
Er4 Se1 2.954431 1_455
Er4 Se6 2.954431 1_455
Er5 Se10 2.684311 1_555
Er5 Se12 2.841696 1_656
Er5 Se1 2.918422 1_556
Er5 Se6 2.918422 1_566
Er5 Se7 2.954431 1_655
Er5 Se0 2.954431 1_655
Er6 Se9 2.684311 1_555
Er6 Se15 2.841696 1_555
Er6 Se5 2.918422 1_565
Er6 Se2 2.918422 1_555
Er6 Se4 2.954431 1_555
Er6 Se3 2.954431 1_555
Er7 Se8 2.684311 1_555
Er7 Se14 2.841696 1_555
Er7 Se3 2.918422 1_555
Er7 Se4 2.918422 1_545
Er7 Se2 2.954431 1_555
Er7 Se5 2.954431 1_555
Mg0 Se8 2.466591 1_455
Mg0 Se2 2.580929 1_555
Mg0 Se5 2.580929 1_555
Mg0 Se14 2.605418 1_555
Mg1 Se9 2.466591 1_655
Mg1 Se4 2.580929 1_555
Mg1 Se3 2.580929 1_555
Mg1 Se15 2.605418 1_555
Mg2 Se10 2.466591 1_555
Mg2 Se7 2.580929 1_555
Mg2 Se0 2.580929 1_555
Mg2 Se12 2.605418 1_556
Mg3 Se11 2.466591 1_555
Mg3 Se1 2.580929 1_555
Mg3 Se6 2.580929 1_555
Mg3 Se13 2.605418 1_554
