# generated using pymatgen
data_K3BiI6
_symmetry_space_group_name_H-M   'P 1'
_cell_length_a   9.08972474
_cell_length_b   9.08972474
_cell_length_c   9.08972474
_cell_angle_alpha   60.00000000
_cell_angle_beta   60.00000000
_cell_angle_gamma   60.00000000
_symmetry_Int_Tables_number   1
_chemical_formula_structural   K3BiI6
_chemical_formula_sum   'K3 Bi1 I6'
_cell_volume   531.05218154
_cell_formula_units_Z   1
loop_
 _symmetry_equiv_pos_site_id
 _symmetry_equiv_pos_as_xyz
  1  'x, y, z'
loop_
 _atom_site_type_symbol
 _atom_site_label
 _atom_site_symmetry_multiplicity
 _atom_site_fract_x
 _atom_site_fract_y
 _atom_site_fract_z
 _atom_site_occupancy
  K  K0  1  0.75000000  0.75000000  0.75000000  1
  K  K1  1  0.25000000  0.25000000  0.25000000  1
  K  K2  1  0.50000000  0.50000000  0.50000000  1
  Bi  Bi0  1  0.00000000  0.00000000  0.00000000  1
  I  I0  1  0.76074800  0.23925200  0.23925200  1
  I  I1  1  0.23925200  0.23925200  0.76074800  1
  I  I2  1  0.23925200  0.76074800  0.76074800  1
  I  I3  1  0.23925200  0.76074800  0.23925200  1
  I  I4  1  0.76074800  0.23925200  0.76074800  1
  I  I5  1  0.76074800  0.76074800  0.23925200  1
loop_
_geom_bond_atom_site_label_1
_geom_bond_atom_site_label_2
_geom_bond_distance
_geom_bond_site_symmetry_2
Bi0 I1 3.075539 1_554
Bi0 I0 3.075539 1_455
Bi0 I3 3.075539 1_545
Bi0 I5 3.075539 1_445
Bi0 I2 3.075539 1_544
Bi0 I4 3.075539 1_454
I0 K2 3.351867 1_555
I1 K2 3.351867 1_555
I2 K2 3.351867 1_555
I3 K2 3.351867 1_555
I4 K2 3.351867 1_555
I5 K2 3.351867 1_555
