# generated using pymatgen
data_Mg3V2(SiO4)3
_symmetry_space_group_name_H-M   'P 1'
_cell_length_a   10.24877846
_cell_length_b   10.24877846
_cell_length_c   10.24877846
_cell_angle_alpha   109.47122063
_cell_angle_beta   109.47122063
_cell_angle_gamma   109.47122063
_symmetry_Int_Tables_number   1
_chemical_formula_structural   Mg3V2(SiO4)3
_chemical_formula_sum   'Mg12 V8 Si12 O48'
_cell_volume   828.69443979
_cell_formula_units_Z   4
loop_
 _symmetry_equiv_pos_site_id
 _symmetry_equiv_pos_as_xyz
  1  'x, y, z'
loop_
 _atom_site_type_symbol
 _atom_site_label
 _atom_site_symmetry_multiplicity
 _atom_site_fract_x
 _atom_site_fract_y
 _atom_site_fract_z
 _atom_site_occupancy
  Mg  Mg0  1  0.25000000  0.37500000  0.12500000  1
  Mg  Mg1  1  0.75000000  0.12500000  0.37500000  1
  Mg  Mg2  1  0.37500000  0.12500000  0.25000000  1
  Mg  Mg3  1  0.12500000  0.37500000  0.75000000  1
  Mg  Mg4  1  0.25000000  0.87500000  0.62500000  1
  Mg  Mg5  1  0.12500000  0.25000000  0.37500000  1
  Mg  Mg6  1  0.62500000  0.25000000  0.87500000  1
  Mg  Mg7  1  0.75000000  0.62500000  0.87500000  1
  Mg  Mg8  1  0.87500000  0.75000000  0.62500000  1
  Mg  Mg9  1  0.87500000  0.62500000  0.25000000  1
  Mg  Mg10  1  0.62500000  0.87500000  0.75000000  1
  Mg  Mg11  1  0.37500000  0.75000000  0.12500000  1
  V  V0  1  0.50000000  0.00000000  0.00000000  1
  V  V1  1  0.50000000  0.50000000  0.00000000  1
  V  V2  1  0.00000000  0.50000000  0.50000000  1
  V  V3  1  0.00000000  0.00000000  0.50000000  1
  V  V4  1  0.50000000  0.50000000  0.50000000  1
  V  V5  1  0.00000000  0.50000000  0.00000000  1
  V  V6  1  0.50000000  0.00000000  0.50000000  1
  V  V7  1  0.00000000  0.00000000  0.00000000  1
  Si  Si0  1  0.12500000  0.75000000  0.87500000  1
  Si  Si1  1  0.87500000  0.25000000  0.12500000  1
  Si  Si2  1  0.75000000  0.37500000  0.62500000  1
  Si  Si3  1  0.12500000  0.87500000  0.25000000  1
  Si  Si4  1  0.25000000  0.12500000  0.87500000  1
  Si  Si5  1  0.37500000  0.62500000  0.75000000  1
  Si  Si6  1  0.37500000  0.25000000  0.62500000  1
  Si  Si7  1  0.87500000  0.12500000  0.75000000  1
  Si  Si8  1  0.62500000  0.37500000  0.25000000  1
  Si  Si9  1  0.75000000  0.87500000  0.12500000  1
  Si  Si10  1  0.25000000  0.62500000  0.37500000  1
  Si  Si11  1  0.62500000  0.75000000  0.37500000  1
  O  O0  1  0.58862600  0.89589700  0.37582900  1
  O  O1  1  0.37582900  0.58862600  0.89589700  1
  O  O2  1  0.28720400  0.30727100  0.91137400  1
  O  O3  1  0.47993200  0.60410300  0.19272900  1
  O  O4  1  0.30727100  0.89589700  0.02006800  1
  O  O5  1  0.12417100  0.02006800  0.21279600  1
  O  O6  1  0.37582900  0.28720400  0.47993200  1
  O  O7  1  0.89589700  0.37582900  0.58862600  1
  O  O8  1  0.19272900  0.21279600  0.58862600  1
  O  O9  1  0.47993200  0.37582900  0.28720400  1
  O  O10  1  0.89589700  0.02006800  0.30727100  1
  O  O11  1  0.60410300  0.91137400  0.12417100  1
  O  O12  1  0.91137400  0.12417100  0.60410300  1
  O  O13  1  0.28720400  0.47993200  0.37582900  1
  O  O14  1  0.58862600  0.19272900  0.21279600  1
  O  O15  1  0.21279600  0.58862600  0.19272900  1
  O  O16  1  0.02006800  0.30727100  0.89589700  1
  O  O17  1  0.91137400  0.28720400  0.30727100  1
  O  O18  1  0.02006800  0.21279600  0.12417100  1
  O  O19  1  0.80727100  0.78720400  0.41137400  1
  O  O20  1  0.19272900  0.47993200  0.60410300  1
  O  O21  1  0.60410300  0.19272900  0.47993200  1
  O  O22  1  0.21279600  0.12417100  0.02006800  1
  O  O23  1  0.12417100  0.60410300  0.91137400  1
  O  O24  1  0.41137400  0.10410300  0.62417100  1
  O  O25  1  0.62417100  0.41137400  0.10410300  1
  O  O26  1  0.71279600  0.69272900  0.08862600  1
  O  O27  1  0.52006800  0.39589700  0.80727100  1
  O  O28  1  0.69272900  0.10410300  0.97993200  1
  O  O29  1  0.87582900  0.97993200  0.78720400  1
  O  O30  1  0.62417100  0.71279600  0.52006800  1
  O  O31  1  0.10410300  0.62417100  0.41137400  1
  O  O32  1  0.87582900  0.39589700  0.08862600  1
  O  O33  1  0.78720400  0.87582900  0.97993200  1
  O  O34  1  0.39589700  0.80727100  0.52006800  1
  O  O35  1  0.69272900  0.08862600  0.71279600  1
  O  O36  1  0.80727100  0.52006800  0.39589700  1
  O  O37  1  0.97993200  0.78720400  0.87582900  1
  O  O38  1  0.08862600  0.71279600  0.69272900  1
  O  O39  1  0.97993200  0.69272900  0.10410300  1
  O  O40  1  0.78720400  0.41137400  0.80727100  1
  O  O41  1  0.41137400  0.80727100  0.78720400  1
  O  O42  1  0.71279600  0.52006800  0.62417100  1
  O  O43  1  0.08862600  0.87582900  0.39589700  1
  O  O44  1  0.39589700  0.08862600  0.87582900  1
  O  O45  1  0.10410300  0.97993200  0.69272900  1
  O  O46  1  0.52006800  0.62417100  0.71279600  1
  O  O47  1  0.30727100  0.91137400  0.28720400  1
loop_
_geom_bond_atom_site_label_1
_geom_bond_atom_site_label_2
_geom_bond_distance
_geom_bond_site_symmetry_2
Mg0 O22 2.267264 1_555
Mg0 O13 2.267264 1_555
Mg0 O15 2.267274 1_555
Mg0 O2 2.267274 1_554
Mg0 O16 2.383777 1_554
Mg0 O3 2.383777 1_555
Mg0 O9 2.383781 1_555
Mg0 O18 2.383781 1_555
Mg1 O11 2.267268 1_545
Mg1 O7 2.267268 1_555
Mg1 O10 2.267268 1_555
Mg1 O21 2.267268 1_555
Mg1 O12 2.383777 1_555
Mg1 O0 2.383777 1_545
Mg1 O17 2.383783 1_555
Mg1 O14 2.383783 1_555
Mg2 O5 2.267264 1_555
Mg2 O9 2.267264 1_555
Mg2 O14 2.267274 1_555
Mg2 O47 2.267274 1_545
Mg2 O21 2.383777 1_555
Mg2 O4 2.383777 1_545
Mg2 O6 2.383781 1_555
Mg2 O22 2.383781 1_555
Mg3 O12 2.267268 1_455
Mg3 O16 2.267268 1_555
Mg3 O1 2.267268 1_555
Mg3 O20 2.267268 1_555
Mg3 O7 2.383777 1_455
Mg3 O23 2.383777 1_555
Mg3 O2 2.383783 1_555
Mg3 O8 2.383783 1_555
Mg4 O31 2.267268 1_555
Mg4 O44 2.267268 1_565
Mg4 O45 2.267268 1_555
Mg4 O34 2.267268 1_555
Mg4 O43 2.383777 1_555
Mg4 O24 2.383777 1_565
Mg4 O38 2.383783 1_555
Mg4 O41 2.383783 1_555
Mg5 O18 2.267264 1_555
Mg5 O6 2.267264 1_555
Mg5 O8 2.267274 1_555
Mg5 O17 2.267274 1_455
Mg5 O10 2.383777 1_455
Mg5 O20 2.383777 1_555
Mg5 O13 2.383781 1_555
Mg5 O5 2.383781 1_555
Mg6 O24 2.267268 1_555
Mg6 O28 2.267268 1_555
Mg6 O32 2.267268 1_556
Mg6 O27 2.267268 1_555
Mg6 O44 2.383777 1_555
Mg6 O25 2.383777 1_556
Mg6 O35 2.383783 1_555
Mg6 O40 2.383783 1_555
Mg7 O42 2.267264 1_555
Mg7 O33 2.267264 1_555
Mg7 O40 2.267274 1_555
Mg7 O26 2.267274 1_556
Mg7 O27 2.383777 1_555
Mg7 O39 2.383777 1_556
Mg7 O37 2.383781 1_555
Mg7 O46 2.383781 1_555
Mg8 O37 2.267264 1_555
Mg8 O30 2.267264 1_555
Mg8 O19 2.267274 1_555
Mg8 O38 2.267274 1_655
Mg8 O36 2.383777 1_555
Mg8 O45 2.383777 1_655
Mg8 O42 2.383781 1_555
Mg8 O29 2.383781 1_555
Mg9 O25 2.267268 1_555
Mg9 O43 2.267268 1_655
Mg9 O39 2.267268 1_555
Mg9 O36 2.267268 1_555
Mg9 O32 2.383777 1_555
Mg9 O31 2.383777 1_655
Mg9 O26 2.383783 1_555
Mg9 O19 2.383783 1_555
Mg10 O46 2.267264 1_555
Mg10 O29 2.267264 1_555
Mg10 O41 2.267274 1_555
Mg10 O35 2.267274 1_565
Mg10 O34 2.383777 1_555
Mg10 O28 2.383777 1_565
Mg10 O33 2.383781 1_555
Mg10 O30 2.383781 1_555
Mg11 O23 2.267268 1_554
Mg11 O0 2.267268 1_555
Mg11 O4 2.267268 1_555
Mg11 O3 2.267268 1_555
Mg11 O1 2.383777 1_554
Mg11 O11 2.383777 1_555
Mg11 O47 2.383783 1_555
Mg11 O15 2.383783 1_555
O0 Si11 1.655330 1_555
O0 V6 2.023454 1_565
O1 Si5 1.655330 1_555
O1 V1 2.023454 1_556
O2 Si4 1.655328 1_555
O2 V1 2.023448 1_556
O3 Si11 1.655330 1_555
O3 V1 2.023454 1_555
O4 Si0 1.655330 1_554
O4 V0 2.023454 1_565
O5 Si3 1.655336 1_545
O5 V7 2.023446 1_555
O6 Si6 1.655336 1_555
O6 V4 2.023446 1_555
O7 Si2 1.655330 1_555
O7 V2 2.023454 1_655
O8 Si6 1.655328 1_555
O8 V3 2.023448 1_555
O9 Si8 1.655336 1_555
O9 V4 2.023446 1_555
O10 Si9 1.655330 1_545
O10 V3 2.023454 1_655
O11 Si9 1.655330 1_555
O11 V0 2.023454 1_565
O12 Si7 1.655330 1_555
O12 V3 2.023454 1_655
O13 Si10 1.655336 1_555
O13 V4 2.023446 1_555
O14 Si8 1.655328 1_555
O14 V0 2.023448 1_555
O15 Si10 1.655328 1_555
O15 V5 2.023448 1_555
O16 Si7 1.655330 1_455
O16 V5 2.023454 1_556
O17 Si1 1.655328 1_555
O17 V2 2.023448 1_655
O18 Si1 1.655336 1_455
O18 V7 2.023446 1_555
O19 Si11 1.655328 1_555
O19 V3 2.023448 1_665
O20 Si5 1.655330 1_555
O20 V2 2.023454 1_555
O21 Si2 1.655330 1_555
O21 V6 2.023454 1_555
O22 Si4 1.655336 1_554
O22 V7 2.023446 1_555
O23 Si0 1.655330 1_555
O23 V5 2.023454 1_556
O24 Si6 1.655330 1_555
O24 V6 2.023454 1_555
O25 Si8 1.655330 1_555
O25 V1 2.023454 1_555
O26 Si9 1.655328 1_555
O26 V1 2.023448 1_555
O27 Si6 1.655330 1_555
O27 V1 2.023454 1_556
O28 Si1 1.655330 1_556
O28 V0 2.023454 1_556
O29 Si7 1.655336 1_565
O29 V7 2.023446 1_666
O30 Si11 1.655336 1_555
O30 V4 2.023446 1_555
O31 Si10 1.655330 1_555
O31 V2 2.023454 1_555
O32 Si1 1.655330 1_555
O32 V5 2.023454 1_655
O33 Si9 1.655336 1_556
O33 V7 2.023446 1_666
O34 Si10 1.655330 1_555
O34 V6 2.023454 1_565
O35 Si7 1.655328 1_555
O35 V6 2.023448 1_555
O36 Si8 1.655330 1_555
O36 V2 2.023454 1_655
O37 Si0 1.655336 1_655
O37 V7 2.023446 1_666
O38 Si0 1.655328 1_555
O38 V2 2.023448 1_555
O39 Si3 1.655330 1_655
O39 V5 2.023454 1_655
O40 Si2 1.655328 1_555
O40 V5 2.023448 1_656
O41 Si5 1.655328 1_555
O41 V0 2.023448 1_566
O42 Si2 1.655336 1_555
O42 V4 2.023446 1_555
O43 Si3 1.655330 1_555
O43 V3 2.023454 1_565
O44 Si4 1.655330 1_555
O44 V0 2.023454 1_556
O45 Si4 1.655330 1_565
O45 V3 2.023454 1_565
O46 Si5 1.655336 1_555
O46 V4 2.023446 1_555
O47 Si3 1.655328 1_555
O47 V6 2.023448 1_565
