# generated using pymatgen
data_Fe4Ni4PdS8
_symmetry_space_group_name_H-M   'P 1'
_cell_length_a   7.12148735
_cell_length_b   7.12148735
_cell_length_c   7.12148735
_cell_angle_alpha   60.00000000
_cell_angle_beta   60.00000000
_cell_angle_gamma   60.00000000
_symmetry_Int_Tables_number   1
_chemical_formula_structural   Fe4Ni4PdS8
_chemical_formula_sum   'Fe4 Ni4 Pd1 S8'
_cell_volume   255.38602259
_cell_formula_units_Z   1
loop_
 _symmetry_equiv_pos_site_id
 _symmetry_equiv_pos_as_xyz
  1  'x, y, z'
loop_
 _atom_site_type_symbol
 _atom_site_label
 _atom_site_symmetry_multiplicity
 _atom_site_fract_x
 _atom_site_fract_y
 _atom_site_fract_z
 _atom_site_occupancy
  Fe  Fe0  1  0.87439700  0.87439700  0.37680900  1
  Fe  Fe1  1  0.87439700  0.37680900  0.87439700  1
  Fe  Fe2  1  0.37680900  0.87439700  0.87439700  1
  Fe  Fe3  1  0.87439700  0.87439700  0.87439700  1
  Ni  Ni0  1  0.12737600  0.12737600  0.61787300  1
  Ni  Ni1  1  0.12737600  0.61787300  0.12737600  1
  Ni  Ni2  1  0.61787300  0.12737600  0.12737600  1
  Ni  Ni3  1  0.12737600  0.12737600  0.12737600  1
  Pd  Pd0  1  0.50000000  0.50000000  0.50000000  1
  S  S0  1  0.74863100  0.74863100  0.25136900  1
  S  S1  1  0.25136900  0.74863100  0.25136900  1
  S  S2  1  0.74863100  0.25136900  0.25136900  1
  S  S3  1  0.25136900  0.25136900  0.74863100  1
  S  S4  1  0.74863100  0.25136900  0.74863100  1
  S  S5  1  0.25136900  0.74863100  0.74863100  1
  S  S6  1  0.75000000  0.75000000  0.75000000  1
  S  S7  1  0.25000000  0.25000000  0.25000000  1
loop_
_geom_bond_atom_site_label_1
_geom_bond_atom_site_label_2
_geom_bond_distance
_geom_bond_site_symmetry_2
Fe0 S6 2.169983 1_555
Fe0 S1 2.191968 1_655
Fe0 S2 2.191968 1_565
Fe0 S0 2.191968 1_555
Fe1 S6 2.169983 1_555
Fe1 S3 2.191968 1_655
Fe1 S2 2.191968 1_556
Fe1 S4 2.191968 1_555
Fe2 S6 2.169983 1_555
Fe2 S3 2.191968 1_565
Fe2 S1 2.191968 1_556
Fe2 S5 2.191968 1_555
Fe3 S6 2.169983 1_555
Fe3 S0 2.191968 1_556
Fe3 S4 2.191968 1_565
Fe3 S5 2.191968 1_655
Ni0 S7 2.139060 1_555
Ni0 S3 2.202447 1_555
Ni0 S5 2.202453 1_545
Ni0 S4 2.202453 1_455
Ni1 S7 2.139060 1_555
Ni1 S1 2.202447 1_555
Ni1 S5 2.202453 1_554
Ni1 S0 2.202453 1_455
Ni2 S7 2.139060 1_555
Ni2 S2 2.202447 1_555
Ni2 S0 2.202453 1_545
Ni2 S4 2.202453 1_554
Ni3 S7 2.139054 1_555
Ni3 S2 2.202453 1_455
Ni3 S1 2.202453 1_545
Ni3 S3 2.202453 1_554
Pd0 S4 2.504038 1_555
Pd0 S0 2.504038 1_555
Pd0 S5 2.504038 1_555
Pd0 S3 2.504038 1_555
Pd0 S1 2.504038 1_555
Pd0 S2 2.504038 1_555
