# generated using pymatgen
data_Al2O3
_symmetry_space_group_name_H-M   'P 1'
_cell_length_a   10.63080766
_cell_length_b   10.54704176
_cell_length_c   10.17271001
_cell_angle_alpha   93.05571701
_cell_angle_beta   88.41563538
_cell_angle_gamma   86.80525731
_symmetry_Int_Tables_number   1
_chemical_formula_structural   Al2O3
_chemical_formula_sum   'Al40 O60'
_cell_volume   1136.67232393
_cell_formula_units_Z   20
loop_
 _symmetry_equiv_pos_site_id
 _symmetry_equiv_pos_as_xyz
  1  'x, y, z'
loop_
 _atom_site_type_symbol
 _atom_site_label
 _atom_site_symmetry_multiplicity
 _atom_site_fract_x
 _atom_site_fract_y
 _atom_site_fract_z
 _atom_site_occupancy
  Al  Al0  1  0.82251000  0.54038100  0.64327500  1
  Al  Al1  1  0.68627500  0.83417100  0.30249600  1
  Al  Al2  1  0.43281800  0.71715600  0.78564700  1
  Al  Al3  1  0.91940400  0.79237200  0.03985400  1
  Al  Al4  1  0.84807900  0.51187900  0.10308700  1
  Al  Al5  1  0.32837000  0.00394300  0.66443400  1
  Al  Al6  1  0.17672800  0.67236400  0.54248800  1
  Al  Al7  1  0.05302300  0.39526900  0.54128500  1
  Al  Al8  1  0.36379200  0.29259200  0.24253700  1
  Al  Al9  1  0.79480500  0.31618700  0.85306500  1
  Al  Al10  1  0.54574600  0.65219700  0.51100900  1
  Al  Al11  1  0.26624700  0.45541300  0.70037900  1
  Al  Al12  1  0.70008500  0.27075300  0.60827600  1
  Al  Al13  1  0.70722000  0.77896000  0.67979200  1
  Al  Al14  1  0.55266500  0.99642500  0.10457800  1
  Al  Al15  1  0.00695600  0.88894200  0.59282100  1
  Al  Al16  1  0.30827400  0.03161400  0.15996700  1
  Al  Al17  1  0.83539300  0.02736400  0.80852800  1
  Al  Al18  1  0.52137400  0.45683700  0.81589400  1
  Al  Al19  1  0.51504200  0.08223100  0.41741000  1
  Al  Al20  1  0.58313100  0.08035500  0.73437000  1
  Al  Al21  1  0.17814200  0.62344300  0.96155600  1
  Al  Al22  1  0.02107100  0.44924600  0.83529600  1
  Al  Al23  1  0.11800500  0.80542900  0.30886500  1
  Al  Al24  1  0.34852600  0.68029000  0.13667000  1
  Al  Al25  1  0.45958200  0.36001300  0.51919600  1
  Al  Al26  1  0.03650100  0.20728600  0.99986700  1
  Al  Al27  1  0.54970500  0.29063300  0.01938100  1
  Al  Al28  1  0.94449800  0.72722500  0.77566200  1
  Al  Al29  1  0.11002400  0.08952400  0.44406900  1
  Al  Al30  1  0.80712400  0.11389400  0.36652200  1
  Al  Al31  1  0.56677700  0.49446100  0.25002100  1
  Al  Al32  1  0.38806500  0.83382400  0.40584400  1
  Al  Al33  1  0.32429000  0.20550200  0.91196900  1
  Al  Al34  1  0.28353400  0.89650400  0.93998600  1
  Al  Al35  1  0.63339800  0.69079000  0.03635200  1
  Al  Al36  1  0.13079600  0.44821100  0.18329100  1
  Al  Al37  1  0.06904100  0.16002100  0.72756700  1
  Al  Al38  1  0.04455600  0.02066400  0.19114500  1
  Al  Al39  1  0.92218200  0.61232700  0.36794000  1
  O  O0  1  0.95587000  0.04392300  0.35644700  1
  O  O1  1  0.10464700  0.34770700  0.04654400  1
  O  O2  1  0.71579700  0.17729800  0.76913300  1
  O  O3  1  0.95785800  0.03723900  0.67705600  1
  O  O4  1  0.45092300  0.24130900  0.38383600  1
  O  O5  1  0.80435500  0.38056400  0.69374200  1
  O  O6  1  0.17585600  0.50981600  0.56962500  1
  O  O7  1  0.40630700  0.97690800  0.50501100  1
  O  O8  1  0.60548200  0.13182800  0.03290300  1
  O  O9  1  0.07966900  0.67313000  0.39583400  1
  O  O10  1  0.33699900  0.18734300  0.09450500  1
  O  O11  1  0.06127800  0.32787400  0.70946200  1
  O  O12  1  0.06467400  0.24857500  0.46248300  1
  O  O13  1  0.72132000  0.47458900  0.19838500  1
  O  O14  1  0.30576800  0.72788000  0.96725800  1
  O  O15  1  0.86882800  0.81015100  0.62136400  1
  O  O16  1  0.45429500  0.01681900  0.25718900  1
  O  O17  1  0.89151700  0.42669400  0.94846800  1
  O  O18  1  0.77829400  0.67530500  0.79076800  1
  O  O19  1  0.09578300  0.76922400  0.67685700  1
  O  O20  1  0.18731000  0.05928000  0.28419700  1
  O  O21  1  0.92125100  0.18479900  0.87083800  1
  O  O22  1  0.50828300  0.63050500  0.15469000  1
  O  O23  1  0.89469900  0.89422600  0.90467500  1
  O  O24  1  0.70587400  0.62662900  0.55389600  1
  O  O25  1  0.41594100  0.94262100  0.02632600  1
  O  O26  1  0.97217000  0.56073600  0.72392000  1
  O  O27  1  0.18197000  0.49169600  0.85299000  1
  O  O28  1  0.29000200  0.80035400  0.25987700  1
  O  O29  1  0.16858100  0.15814300  0.87473000  1
  O  O30  1  0.64288400  0.84987900  0.12559800  1
  O  O31  1  0.33766600  0.32169200  0.62476100  1
  O  O32  1  0.49115000  0.36939800  0.16829500  1
  O  O33  1  0.97525200  0.52544500  0.21337800  1
  O  O34  1  0.75848800  0.25265900  0.44639600  1
  O  O35  1  0.95338700  0.13390000  0.11914800  1
  O  O36  1  0.17816700  0.97807600  0.05314700  1
  O  O37  1  0.33375000  0.71487200  0.50606600  1
  O  O38  1  0.50819000  0.50201800  0.42083400  1
  O  O39  1  0.11399200  0.90559500  0.45701800  1
  O  O40  1  0.55024900  0.77282600  0.38431200  1
  O  O41  1  0.41780500  0.09494500  0.78683000  1
  O  O42  1  0.21758500  0.58120500  0.12278100  1
  O  O43  1  0.57111900  0.38776900  0.64969900  1
  O  O44  1  0.53608800  0.76264100  0.65937100  1
  O  O45  1  0.64685000  0.38667200  0.92366900  1
  O  O46  1  0.39176200  0.55843500  0.73905500  1
  O  O47  1  0.80236200  0.67127200  0.05761300  1
  O  O48  1  0.54508700  0.63938300  0.89695300  1
  O  O49  1  0.81885400  0.73955100  0.33012700  1
  O  O50  1  0.32359300  0.86736100  0.77130100  1
  O  O51  1  0.58271000  0.13523900  0.57259400  1
  O  O52  1  0.92256700  0.49744000  0.48863500  1
  O  O53  1  0.42380600  0.33638700  0.90439600  1
  O  O54  1  0.18649900  0.07966600  0.61548800  1
  O  O55  1  0.01514000  0.84767900  0.17748300  1
  O  O56  1  0.68540000  0.94481900  0.75855600  1
  O  O57  1  0.02936400  0.69299300  0.93983600  1
  O  O58  1  0.23520200  0.38870300  0.29334600  1
  O  O59  1  0.68166600  0.00731400  0.34538400  1
loop_
_geom_bond_atom_site_label_1
_geom_bond_atom_site_label_2
_geom_bond_distance
_geom_bond_site_symmetry_2
Al0 O24 1.793438 1_555
Al0 O5 1.806957 1_555
Al0 O26 1.828082 1_555
Al0 O52 1.894475 1_555
Al0 O18 2.038636 1_555
Al1 O49 1.719431 1_555
Al1 O40 1.815923 1_555
Al1 O59 1.852420 1_565
Al1 O30 1.883537 1_555
Al2 O44 1.769729 1_555
Al2 O46 1.796058 1_555
Al2 O48 1.855806 1_555
Al2 O50 1.925695 1_555
Al2 O14 2.252312 1_555
Al3 O57 1.784456 1_654
Al3 O23 1.805555 1_554
Al3 O55 1.842321 1_655
Al3 O47 1.844305 1_555
Al4 O13 1.714022 1_555
Al4 O33 1.787557 1_555
Al4 O17 1.804821 1_554
Al4 O47 1.811258 1_555
Al5 O54 1.763550 1_555
Al5 O7 1.802208 1_545
Al5 O41 1.848029 1_555
Al5 O50 1.852466 1_545
Al6 O6 1.751442 1_555
Al6 O37 1.786525 1_555
Al6 O19 1.827737 1_555
Al6 O9 1.837351 1_555
Al7 O12 1.700783 1_555
Al7 O52 1.818648 1_455
Al7 O6 1.845906 1_555
Al7 O11 1.889671 1_555
Al8 O58 1.707061 1_555
Al8 O32 1.786236 1_555
Al8 O4 1.821348 1_555
Al8 O10 1.860594 1_555
Al9 O5 1.792780 1_555
Al9 O45 1.814593 1_555
Al9 O17 1.850814 1_555
Al9 O21 1.895381 1_555
Al9 O2 1.903615 1_555
Al10 O24 1.778565 1_555
Al10 O44 1.853623 1_555
Al10 O38 1.856231 1_555
Al10 O40 1.860195 1_555
Al10 O37 2.315679 1_555
Al11 O31 1.699995 1_555
Al11 O6 1.764211 1_555
Al11 O27 1.783487 1_555
Al11 O46 1.805802 1_555
Al12 O34 1.740823 1_555
Al12 O43 1.817810 1_555
Al12 O5 1.847978 1_555
Al12 O2 1.961077 1_555
Al12 O51 1.974860 1_555
Al13 O18 1.768404 1_555
Al13 O44 1.853244 1_555
Al13 O15 1.854853 1_555
Al13 O56 1.884406 1_555
Al13 O24 2.001476 1_555
Al14 O8 1.750463 1_565
Al14 O25 1.782154 1_555
Al14 O30 1.798863 1_555
Al14 O16 1.843793 1_565
Al15 O15 1.751937 1_455
Al15 O3 1.787311 1_465
Al15 O39 1.787551 1_555
Al15 O19 1.801021 1_555
Al16 O20 1.779009 1_555
Al16 O10 1.842748 1_555
Al16 O16 1.867229 1_555
Al16 O36 1.875496 1_545
Al16 O25 1.922877 1_545
Al17 O23 1.846019 1_545
Al17 O3 1.851536 1_555
Al17 O56 1.926480 1_545
Al17 O21 2.020087 1_555
Al17 O2 2.037011 1_555
Al18 O43 1.856057 1_555
Al18 O45 1.893760 1_555
Al18 O46 1.908422 1_555
Al18 O53 1.928069 1_555
Al18 O48 2.084871 1_555
Al19 O51 1.826388 1_555
Al19 O4 1.828331 1_555
Al19 O16 1.880826 1_555
Al19 O7 1.885738 1_545
Al19 O59 2.002340 1_555
Al20 O51 1.773447 1_555
Al20 O56 1.779069 1_545
Al20 O41 1.818429 1_555
Al20 O2 1.819154 1_555
Al21 O27 1.726210 1_555
Al21 O57 1.730824 1_555
Al21 O42 1.777441 1_556
Al21 O14 1.794882 1_555
Al22 O26 1.744455 1_455
Al22 O11 1.787187 1_555
Al22 O27 1.803444 1_555
Al22 O17 1.804681 1_455
Al23 O9 1.752399 1_555
Al23 O39 1.791924 1_555
Al23 O55 1.808496 1_555
Al23 O28 1.878925 1_555
Al24 O22 1.766855 1_555
Al24 O42 1.790828 1_555
Al24 O28 1.805930 1_555
Al24 O14 1.881144 1_554
Al25 O31 1.738983 1_555
Al25 O4 1.818803 1_555
Al25 O43 1.827127 1_555
Al25 O38 1.931033 1_555
Al26 O35 1.723141 1_456
Al26 O1 1.734175 1_556
Al26 O21 1.835305 1_455
Al26 O29 1.900099 1_555
Al27 O8 1.759051 1_555
Al27 O32 1.768746 1_555
Al27 O45 1.790723 1_554
Al27 O53 1.862039 1_554
Al28 O26 1.811720 1_555
Al28 O18 1.883390 1_555
Al28 O19 1.957173 1_655
Al28 O57 1.960822 1_655
Al28 O15 2.003392 1_555
Al28 O23 2.171704 1_555
Al29 O12 1.718413 1_555
Al29 O20 1.806472 1_555
Al29 O39 1.949564 1_545
Al29 O54 1.949588 1_555
Al29 O0 1.958151 1_455
Al30 O34 1.683803 1_555
Al30 O0 1.705436 1_555
Al30 O59 1.801624 1_555
Al31 O13 1.709147 1_555
Al31 O32 1.765131 1_555
Al31 O38 1.825783 1_555
Al31 O22 1.862317 1_555
Al32 O37 1.769578 1_555
Al32 O7 1.792716 1_555
Al32 O40 1.809701 1_555
Al32 O28 1.867351 1_555
Al33 O53 1.788970 1_555
Al33 O29 1.799923 1_555
Al33 O10 1.884639 1_556
Al33 O41 1.900284 1_555
Al34 O36 1.742339 1_556
Al34 O25 1.757402 1_556
Al34 O50 1.763293 1_555
Al34 O14 1.818026 1_555
Al35 O48 1.798511 1_554
Al35 O47 1.816753 1_555
Al35 O30 1.873854 1_555
Al35 O22 1.926104 1_555
Al36 O58 1.716170 1_555
Al36 O1 1.741568 1_555
Al36 O33 1.812950 1_455
Al36 O42 1.844616 1_555
Al37 O11 1.787232 1_555
Al37 O54 1.810440 1_555
Al37 O29 1.857346 1_555
Al37 O3 1.863143 1_455
Al37 O21 2.109008 1_455
Al38 O35 1.704589 1_455
Al38 O20 1.863390 1_555
Al38 O55 1.866761 1_545
Al38 O0 1.902447 1_455
Al38 O36 1.985288 1_545
Al39 O49 1.751917 1_555
Al39 O52 1.770338 1_555
Al39 O33 1.835723 1_555
Al39 O9 1.849677 1_655
