# generated using pymatgen
data_NdCo3P2
_symmetry_space_group_name_H-M   'P 1'
_cell_length_a   3.76704600
_cell_length_b   10.66003700
_cell_length_c   12.40288200
_cell_angle_alpha   90.00000000
_cell_angle_beta   90.00000000
_cell_angle_gamma   90.00000000
_symmetry_Int_Tables_number   1
_chemical_formula_structural   NdCo3P2
_chemical_formula_sum   'Nd6 Co18 P12'
_cell_volume   498.06066883
_cell_formula_units_Z   6
loop_
 _symmetry_equiv_pos_site_id
 _symmetry_equiv_pos_as_xyz
  1  'x, y, z'
loop_
 _atom_site_type_symbol
 _atom_site_label
 _atom_site_symmetry_multiplicity
 _atom_site_fract_x
 _atom_site_fract_y
 _atom_site_fract_z
 _atom_site_occupancy
  Nd  Nd0  1  0.00000000  0.50000000  0.52113200  1
  Nd  Nd1  1  0.50000000  0.00000000  0.47886800  1
  Nd  Nd2  1  0.50000000  0.81883600  0.20593200  1
  Nd  Nd3  1  0.50000000  0.18116400  0.20593200  1
  Nd  Nd4  1  0.00000000  0.68116400  0.79406800  1
  Nd  Nd5  1  0.00000000  0.31883600  0.79406800  1
  Co  Co0  1  0.50000000  0.50000000  0.15782500  1
  Co  Co1  1  0.00000000  0.00000000  0.84217500  1
  Co  Co2  1  0.50000000  0.50000000  0.70554600  1
  Co  Co3  1  0.00000000  0.00000000  0.29445400  1
  Co  Co4  1  0.00000000  0.50000000  0.99091100  1
  Co  Co5  1  0.50000000  0.00000000  0.00908900  1
  Co  Co6  1  0.50000000  0.33298100  0.99753500  1
  Co  Co7  1  0.50000000  0.66701900  0.99753500  1
  Co  Co8  1  0.00000000  0.16701900  0.00246500  1
  Co  Co9  1  0.00000000  0.83298100  0.00246500  1
  Co  Co10  1  0.50000000  0.29612200  0.43041200  1
  Co  Co11  1  0.50000000  0.70387800  0.43041200  1
  Co  Co12  1  0.00000000  0.20387800  0.56958800  1
  Co  Co13  1  0.00000000  0.79612200  0.56958800  1
  Co  Co14  1  0.50000000  0.88160200  0.71020400  1
  Co  Co15  1  0.50000000  0.11839800  0.71020400  1
  Co  Co16  1  0.00000000  0.61839800  0.28979600  1
  Co  Co17  1  0.00000000  0.38160200  0.28979600  1
  P  P0  1  0.50000000  0.50000000  0.88762700  1
  P  P1  1  0.00000000  0.00000000  0.11237300  1
  P  P2  1  0.50000000  0.50000000  0.33987500  1
  P  P3  1  0.00000000  0.00000000  0.66012500  1
  P  P4  1  0.50000000  0.30708900  0.61392400  1
  P  P5  1  0.50000000  0.69291100  0.61392400  1
  P  P6  1  0.00000000  0.19291100  0.38607600  1
  P  P7  1  0.00000000  0.80708900  0.38607600  1
  P  P8  1  0.50000000  0.84755100  0.89412900  1
  P  P9  1  0.50000000  0.15244900  0.89412900  1
  P  P10  1  0.00000000  0.65244900  0.10587100  1
  P  P11  1  0.00000000  0.34755100  0.10587100  1
loop_
_geom_bond_atom_site_label_1
_geom_bond_atom_site_label_2
_geom_bond_distance
_geom_bond_site_symmetry_2
Nd0 P2 2.932858 1_555
Nd0 P2 2.932858 1_455
Nd0 P4 3.016810 1_555
Nd0 P4 3.016810 1_455
Nd0 P5 3.016810 1_555
Nd0 P5 3.016810 1_455
Nd1 P3 2.932858 1_555
Nd1 P3 2.932858 1_655
Nd1 P7 3.016810 1_545
Nd1 P6 3.016810 1_655
Nd1 P7 3.016810 1_645
Nd1 P6 3.016810 1_555
Nd2 P10 2.869466 1_555
Nd2 P10 2.869466 1_655
Nd2 P7 2.924971 1_655
Nd2 P7 2.924971 1_555
Nd2 P1 2.936628 1_565
Nd2 P1 2.936628 1_665
Nd3 P11 2.869466 1_555
Nd3 P11 2.869466 1_655
Nd3 P6 2.924971 1_555
Nd3 P6 2.924971 1_655
Nd3 P1 2.936628 1_555
Nd3 P1 2.936628 1_655
Nd4 P8 2.869466 1_555
Nd4 P8 2.869466 1_455
Nd4 P5 2.924971 1_555
Nd4 P5 2.924971 1_455
Nd4 P0 2.936628 1_555
Nd4 P0 2.936628 1_455
Nd5 P9 2.869466 1_455
Nd5 P9 2.869466 1_555
Nd5 P4 2.924971 1_555
Nd5 P4 2.924971 1_455
Nd5 P0 2.936628 1_555
Nd5 P0 2.936628 1_455
Co0 P2 2.257945 1_555
Co0 P10 2.569800 1_655
Co0 P10 2.569800 1_555
Co0 P11 2.569800 1_655
Co0 P11 2.569800 1_555
Co1 P3 2.257945 1_555
Co1 P8 2.569800 1_545
Co1 P8 2.569800 1_445
Co1 P9 2.569800 1_555
Co1 P9 2.569800 1_455
Co2 P0 2.258329 1_555
Co2 P4 2.349530 1_555
Co2 P5 2.349530 1_555
Co2 Nd4 2.912507 1_555
Co2 Nd5 2.912507 1_555
Co2 Nd5 2.912507 1_655
Co2 Nd4 2.912507 1_655
Co2 Nd0 2.962978 1_555
Co2 Nd0 2.962978 1_655
Co3 P1 2.258329 1_555
Co3 P6 2.349530 1_555
Co3 P7 2.349530 1_545
Co3 Nd3 2.912507 1_455
Co3 Nd2 2.912507 1_545
Co3 Nd2 2.912507 1_445
Co3 Nd3 2.912507 1_555
Co3 Nd1 2.962978 1_455
Co3 Nd1 2.962978 1_555
Co4 P10 2.161942 1_556
Co4 P11 2.161942 1_556
Co4 P0 2.277865 1_555
Co4 P0 2.277865 1_455
Co4 Nd4 3.112897 1_555
Co4 Nd5 3.112897 1_555
Co5 P8 2.161942 1_544
Co5 P9 2.161942 1_554
Co5 P1 2.277865 1_655
Co5 P1 2.277865 1_555
Co5 Nd3 3.112897 1_555
Co5 Nd2 3.112897 1_545
Co6 P0 2.242359 1_555
Co6 P9 2.312683 1_555
Co6 P11 2.318891 1_656
Co6 P11 2.318891 1_556
Co6 Nd3 3.049579 1_556
Co6 Nd5 3.152592 1_655
Co6 Nd5 3.152592 1_555
Co7 P0 2.242359 1_555
Co7 P8 2.312683 1_555
Co7 P10 2.318891 1_656
Co7 P10 2.318891 1_556
Co7 Nd2 3.049579 1_556
Co7 Nd4 3.152592 1_655
Co7 Nd4 3.152592 1_555
Co8 P1 2.242359 1_555
Co8 P11 2.312683 1_555
Co8 P9 2.318891 1_554
Co8 P9 2.318891 1_454
Co8 Nd5 3.049579 1_554
Co8 Nd3 3.152592 1_455
Co8 Nd3 3.152592 1_555
Co9 P1 2.242359 1_565
Co9 P10 2.312683 1_555
Co9 P8 2.318891 1_554
Co9 P8 2.318891 1_454
Co9 Nd4 3.049579 1_554
Co9 Nd2 3.152592 1_555
Co9 Nd2 3.152592 1_455
Co10 P6 2.249568 1_655
Co10 P6 2.249568 1_555
Co10 P4 2.279078 1_555
Co10 P2 2.446300 1_555
Co10 Nd3 3.041958 1_555
Co10 Nd0 3.088227 1_655
Co10 Nd0 3.088227 1_555
Co10 Nd1 3.213373 1_555
Co11 P7 2.249568 1_655
Co11 P7 2.249568 1_555
Co11 P5 2.279078 1_555
Co11 P2 2.446300 1_555
Co11 Nd2 3.041958 1_555
Co11 Nd0 3.088227 1_655
Co11 Nd0 3.088227 1_555
Co11 Nd1 3.213373 1_565
Co12 P4 2.249568 1_555
Co12 P4 2.249568 1_455
Co12 P6 2.279078 1_555
Co12 P3 2.446300 1_555
Co12 Nd5 3.041958 1_555
Co12 Nd1 3.088227 1_555
Co12 Nd1 3.088227 1_455
Co12 Nd0 3.213373 1_555
Co13 P5 2.249568 1_455
Co13 P5 2.249568 1_555
Co13 P7 2.279078 1_555
Co13 P3 2.446300 1_565
Co13 Nd4 3.041958 1_555
Co13 Nd1 3.088227 1_465
Co13 Nd1 3.088227 1_565
Co13 Nd0 3.213373 1_555
Co14 P8 2.309899 1_555
Co14 P5 2.339217 1_555
Co14 P3 2.350834 1_565
Co14 P3 2.350834 1_665
Co14 Nd4 3.032321 1_655
Co14 Nd4 3.032321 1_555
Co14 Nd1 3.134560 1_565
Co15 P9 2.309899 1_555
Co15 P4 2.339217 1_555
Co15 P3 2.350834 1_555
Co15 P3 2.350834 1_655
Co15 Nd5 3.032321 1_655
Co15 Nd5 3.032321 1_555
Co15 Nd1 3.134560 1_555
Co16 P10 2.309899 1_555
Co16 P7 2.339217 1_555
Co16 P2 2.350834 1_555
Co16 P2 2.350834 1_455
Co16 Nd2 3.032321 1_555
Co16 Nd2 3.032321 1_455
Co16 Nd0 3.134560 1_555
Co17 P11 2.309899 1_555
Co17 P6 2.339217 1_555
Co17 P2 2.350834 1_555
Co17 P2 2.350834 1_455
Co17 Nd3 3.032321 1_455
Co17 Nd3 3.032321 1_555
Co17 Nd0 3.134560 1_555
