# generated using pymatgen
data_Tb(SiIr)2
_symmetry_space_group_name_H-M   'P 1'
_cell_length_a   4.08217223
_cell_length_b   4.08217223
_cell_length_c   9.72313754
_cell_angle_alpha   90.00000000
_cell_angle_beta   90.00000000
_cell_angle_gamma   90.00000000
_symmetry_Int_Tables_number   1
_chemical_formula_structural   Tb(SiIr)2
_chemical_formula_sum   'Tb2 Si4 Ir4'
_cell_volume   162.02762910
_cell_formula_units_Z   2
loop_
 _symmetry_equiv_pos_site_id
 _symmetry_equiv_pos_as_xyz
  1  'x, y, z'
loop_
 _atom_site_type_symbol
 _atom_site_label
 _atom_site_symmetry_multiplicity
 _atom_site_fract_x
 _atom_site_fract_y
 _atom_site_fract_z
 _atom_site_occupancy
  Tb  Tb0  1  0.75000000  0.75000000  0.25372189  1
  Tb  Tb1  1  0.25000000  0.25000000  0.74627711  1
  Si  Si0  1  0.75000000  0.25000000  0.50000000  1
  Si  Si1  1  0.25000000  0.75000000  0.50000000  1
  Si  Si2  1  0.75000000  0.75000000  0.86938070  1
  Si  Si3  1  0.25000000  0.25000000  0.13062030  1
  Ir  Ir0  1  0.75000000  0.25000000  0.00000000  1
  Ir  Ir1  1  0.25000000  0.75000000  0.00000000  1
  Ir  Ir2  1  0.75000000  0.75000000  0.62848814  1
  Ir  Ir3  1  0.25000000  0.25000000  0.37151186  1
loop_
_geom_bond_atom_site_label_1
_geom_bond_atom_site_label_2
_geom_bond_distance
_geom_bond_site_symmetry_2
Si0 Tb1 3.146439 1_555
Si0 Tb1 3.146439 1_655
Si0 Tb0 3.146446 1_555
Si0 Tb0 3.146446 1_545
Si1 Tb1 3.146439 1_555
Si1 Tb1 3.146439 1_565
Si1 Tb0 3.146446 1_555
Si1 Tb0 3.146446 1_455
Si2 Tb1 3.124862 1_665
Si2 Tb1 3.124862 1_565
Si2 Tb1 3.124862 1_555
Si2 Tb1 3.124862 1_655
Si3 Tb0 3.124854 1_555
Si3 Tb0 3.124854 1_545
Si3 Tb0 3.124854 1_455
Si3 Tb0 3.124854 1_445
Ir0 Si2 2.403957 1_554
Ir0 Si2 2.403957 1_544
Ir0 Si3 2.403962 1_555
Ir0 Si3 2.403962 1_655
Ir0 Tb0 3.201872 1_555
Ir0 Tb0 3.201872 1_545
Ir0 Tb1 3.201880 1_554
Ir0 Tb1 3.201880 1_654
Ir1 Si2 2.403957 1_454
Ir1 Si2 2.403957 1_554
Ir1 Si3 2.403962 1_565
Ir1 Si3 2.403962 1_555
Ir1 Tb0 3.201872 1_555
Ir1 Tb0 3.201872 1_455
Ir1 Tb1 3.201880 1_554
Ir1 Tb1 3.201880 1_564
Ir2 Si2 2.342231 1_555
Ir2 Si0 2.393074 1_555
Ir2 Si1 2.393074 1_555
Ir2 Si1 2.393074 1_655
Ir2 Si0 2.393074 1_565
Ir2 Tb1 3.105435 1_565
Ir2 Tb1 3.105435 1_655
Ir2 Tb1 3.105435 1_665
Ir2 Tb1 3.105435 1_555
Ir3 Si3 2.342222 1_555
Ir3 Si0 2.393074 1_555
Ir3 Si1 2.393074 1_555
Ir3 Si1 2.393074 1_545
Ir3 Si0 2.393074 1_455
Ir3 Tb0 3.105439 1_455
Ir3 Tb0 3.105439 1_545
Ir3 Tb0 3.105439 1_445
Ir3 Tb0 3.105439 1_555
