# generated using pymatgen
data_Li9Mn2Co5O16
_symmetry_space_group_name_H-M   'P 1'
_cell_length_a   3.02233700
_cell_length_b   9.97438313
_cell_length_c   10.08024134
_cell_angle_alpha   106.51297637
_cell_angle_beta   91.61386947
_cell_angle_gamma   92.44416244
_symmetry_Int_Tables_number   1
_chemical_formula_structural   Li9Mn2Co5O16
_chemical_formula_sum   'Li9 Mn2 Co5 O16'
_cell_volume   290.82249176
_cell_formula_units_Z   1
loop_
 _symmetry_equiv_pos_site_id
 _symmetry_equiv_pos_as_xyz
  1  'x, y, z'
loop_
 _atom_site_type_symbol
 _atom_site_label
 _atom_site_symmetry_multiplicity
 _atom_site_fract_x
 _atom_site_fract_y
 _atom_site_fract_z
 _atom_site_occupancy
  Li  Li0  1  0.99866000  0.25204300  0.25800300  1
  Li  Li1  1  0.50400300  0.49985200  0.74656500  1
  Li  Li2  1  0.99756200  0.75088500  0.25005200  1
  Li  Li3  1  0.50311300  0.50081300  0.25253800  1
  Li  Li4  1  0.00315300  0.74818800  0.74956300  1
  Li  Li5  1  0.49509900  0.99926100  0.25505900  1
  Li  Li6  1  0.49763700  0.00004200  0.74621100  1
  Li  Li7  1  0.00115800  0.24900800  0.74272000  1
  Li  Li8  1  0.50004200  0.25013400  0.50007300  1
  Mn  Mn0  1  0.99990900  0.99716000  0.99983500  1
  Mn  Mn1  1  0.49519800  0.25166100  0.99959100  1
  Co  Co0  1  0.00032100  0.50392600  0.00041800  1
  Co  Co1  1  0.50014900  0.74988400  0.49992600  1
  Co  Co2  1  0.00138600  0.49062500  0.49860000  1
  Co  Co3  1  0.50472800  0.74868000  0.00076100  1
  Co  Co4  1  0.99888000  0.00946900  0.50149200  1
  O  O0  1  0.46833100  0.12519100  0.11848100  1
  O  O1  1  0.99649900  0.39115700  0.61488200  1
  O  O2  1  0.51219800  0.62654200  0.11510000  1
  O  O3  1  0.96681800  0.37878800  0.11561800  1
  O  O4  1  0.47101500  0.62625800  0.61351500  1
  O  O5  1  0.97340200  0.86948500  0.11344400  1
  O  O6  1  0.00680700  0.87925700  0.61085000  1
  O  O7  1  0.47914600  0.11480100  0.61388600  1
  O  O8  1  0.52283800  0.38533000  0.38579300  1
  O  O9  1  0.03232400  0.62756200  0.88644000  1
  O  O10  1  0.52765300  0.87361500  0.38664600  1
  O  O11  1  0.99303500  0.62122800  0.38955000  1
  O  O12  1  0.52697800  0.87075000  0.88351300  1
  O  O13  1  0.00368400  0.10860900  0.38461500  1
  O  O14  1  0.02829200  0.12341200  0.88385500  1
  O  O15  1  0.48998300  0.37638500  0.88240700  1
loop_
_geom_bond_atom_site_label_1
_geom_bond_atom_site_label_2
_geom_bond_distance
_geom_bond_site_symmetry_2
Li0 O8 2.160673 1_655
Li0 O3 2.168306 1_555
Li0 O13 2.171327 1_655
Li0 O8 2.188333 1_555
Li0 O0 2.199195 1_555
Li0 O0 2.201809 1_655
Li1 O1 2.053163 1_455
Li1 O15 2.085876 1_555
Li1 O4 2.088737 1_555
Li1 O1 2.140991 1_555
Li1 O9 2.199778 1_655
Li1 O9 2.211340 1_555
Li2 O5 2.056380 1_555
Li2 O2 2.077011 1_555
Li2 O11 2.164105 1_555
Li2 O10 2.170594 1_655
Li2 O10 2.170647 1_555
Li2 O2 2.265537 1_655
Li3 O8 2.003887 1_555
Li3 O11 2.081510 1_555
Li3 O2 2.116520 1_555
Li3 O3 2.156370 1_555
Li3 O3 2.182726 1_455
Li3 O11 2.249785 1_455
Li4 O9 2.074850 1_555
Li4 O12 2.144820 1_555
Li4 O4 2.160347 1_555
Li4 O6 2.168677 1_555
Li4 O4 2.169622 1_455
Li4 O12 2.170251 1_455
Li5 O13 2.047450 1_665
Li5 O10 2.070713 1_555
Li5 O0 2.113081 1_565
Li5 O13 2.130421 1_565
Li5 O5 2.201862 1_455
Li5 O5 2.242434 1_555
Li6 O7 1.990414 1_555
Li6 O6 2.076760 1_545
Li6 O12 2.145690 1_545
Li6 O14 2.177317 1_555
Li6 O14 2.178837 1_655
Li6 O6 2.241274 1_645
Li7 O15 2.117859 1_555
Li7 O14 2.148355 1_555
Li7 O7 2.164217 1_455
Li7 O1 2.170346 1_455
Li7 O7 2.201785 1_555
Li7 O15 2.292750 1_455
Li8 O7 2.004867 1_555
Li8 O8 2.007446 1_555
Li8 O1 2.089518 1_555
Li8 O13 2.093991 1_555
Li8 O1 2.233926 1_455
Li8 O13 2.239053 1_655
Mn0 O5 1.940407 1_556
Mn0 O14 1.947645 1_665
Mn0 O12 1.979688 1_555
Mn0 O0 1.986875 1_666
Mn0 O12 2.222235 1_655
Mn0 O0 2.248859 1_566
Mn1 O15 1.944023 1_555
Mn1 O0 1.972378 1_556
Mn1 O14 1.973247 1_555
Mn1 O3 1.978991 1_556
Mn1 O3 2.227298 1_456
Mn1 O14 2.242022 1_655
Co0 O9 1.910933 1_554
Co0 O3 1.932997 1_455
Co0 O2 2.039544 1_555
Co0 O15 2.069182 1_454
Co0 O2 2.110646 1_455
Co0 O15 2.150138 1_554
Co1 O10 1.905684 1_555
Co1 O4 1.907443 1_555
Co1 O11 2.039193 1_455
Co1 O6 2.043298 1_655
Co1 O11 2.132734 1_555
Co1 O6 2.139258 1_555
Co2 O1 1.737610 1_455
Co2 O8 1.893901 1_455
Co2 O11 1.929053 1_455
Co2 O4 2.009835 1_555
Co2 O8 2.107863 1_555
Co2 O4 2.267207 1_455
Co3 O2 1.900558 1_555
Co3 O12 1.923382 1_554
Co3 O5 1.932439 1_555
Co3 O9 1.948014 1_554
Co3 O9 2.192375 1_654
Co3 O5 2.193308 1_455
Co4 O13 1.740145 1_655
Co4 O7 1.896042 1_655
Co4 O6 1.928121 1_645
Co4 O10 2.013834 1_545
Co4 O7 2.102190 1_555
Co4 O10 2.264415 1_645
