# generated using pymatgen
data_Mg14MnBi
_symmetry_space_group_name_H-M   'P 1'
_cell_length_a   6.34619241
_cell_length_b   6.34801093
_cell_length_c   10.36181546
_cell_angle_alpha   90.00000000
_cell_angle_beta   90.00000000
_cell_angle_gamma   120.00948489
_symmetry_Int_Tables_number   1
_chemical_formula_structural   Mg14MnBi
_chemical_formula_sum   'Mg14 Mn1 Bi1'
_cell_volume   361.47300531
_cell_formula_units_Z   1
loop_
 _symmetry_equiv_pos_site_id
 _symmetry_equiv_pos_as_xyz
  1  'x, y, z'
loop_
 _atom_site_type_symbol
 _atom_site_label
 _atom_site_symmetry_multiplicity
 _atom_site_fract_x
 _atom_site_fract_y
 _atom_site_fract_z
 _atom_site_occupancy
  Mg  Mg0  1  0.16694296  0.33347098  0.62500000  1
  Mg  Mg1  1  0.16639923  0.83319911  0.62500000  1
  Mg  Mg2  1  0.66763873  0.33304812  0.12500000  1
  Mg  Mg3  1  0.66651016  0.33340285  0.62500000  1
  Mg  Mg4  1  0.66763873  0.83458961  0.12500000  1
  Mg  Mg5  1  0.66651016  0.83310631  0.62500000  1
  Mg  Mg6  1  0.33364265  0.17233334  0.37500447  1
  Mg  Mg7  1  0.33364265  0.17233334  0.87499553  1
  Mg  Mg8  1  0.33364265  0.66131032  0.37500447  1
  Mg  Mg9  1  0.33364265  0.66131032  0.87499553  1
  Mg  Mg10  1  0.83712979  0.16856540  0.37243914  1
  Mg  Mg11  1  0.83712979  0.16856540  0.87756086  1
  Mg  Mg12  1  0.82956763  0.66478432  0.37912204  1
  Mg  Mg13  1  0.82956763  0.66478432  0.87087796  1
  Mn  Mn0  1  0.16682427  0.33341163  0.12500000  1
  Bi  Bi0  1  0.16357029  0.83178465  0.12500000  1
loop_
_geom_bond_atom_site_label_1
_geom_bond_atom_site_label_2
_geom_bond_distance
_geom_bond_site_symmetry_2
Mg0 Mg7 3.155655 1_555
Mg0 Mg6 3.155655 1_555
Mg0 Mg8 3.155662 1_555
Mg0 Mg9 3.155662 1_555
Mg0 Mg5 3.170566 1_555
Mg0 Mg3 3.170566 1_555
Mg0 Mg1 3.174007 1_555
Mg0 Mg1 3.174007 1_545
Mg0 Mg5 3.175626 1_445
Mg0 Mg3 3.175627 1_455
Mg0 Mg11 3.183343 1_455
Mg0 Mg10 3.183343 1_455
Mg1 Mg13 3.149179 1_455
Mg1 Mg12 3.149179 1_455
Mg1 Mg3 3.172097 1_455
Mg1 Mg5 3.172098 1_455
Mg1 Mg3 3.174095 1_565
Mg1 Mg5 3.174095 1_555
Mg1 Mg9 3.191511 1_555
Mg1 Mg8 3.191511 1_555
Mg1 Mg6 3.191517 1_565
Mg1 Mg7 3.191517 1_565
Mg2 Mg4 3.164220 1_545
Mg2 Mn0 3.166774 1_655
Mg2 Mg6 3.175087 1_555
Mg2 Mg7 3.175087 1_554
Mg2 Mn0 3.179420 1_555
Mg2 Mg4 3.183791 1_555
Mg3 Mg7 3.171362 1_555
Mg3 Mg6 3.171362 1_555
Mg3 Mg5 3.172123 1_555
Mg3 Mg5 3.175888 1_545
Mg4 Mn0 3.166774 1_665
Mg4 Mg8 3.175087 1_555
Mg4 Mg9 3.175087 1_554
Mg4 Mn0 3.179419 1_555
Mg5 Mg9 3.171362 1_555
Mg5 Mg8 3.171362 1_555
Mg6 Mg8 3.104031 1_555
Mg6 Mn0 3.155921 1_555
Mg6 Mg8 3.243980 1_545
Mg7 Mg9 3.104031 1_555
Mg7 Mn0 3.155921 1_556
Mg7 Mg9 3.243980 1_545
Mg8 Mn0 3.155927 1_555
Mg9 Mn0 3.155927 1_556
Mg10 Mg8 3.139184 1_655
Mg10 Mg6 3.139184 1_655
Mg10 Mn0 3.139483 1_655
Mg10 Mg2 3.153457 1_555
Mg10 Mg4 3.153463 1_545
Mg10 Mg12 3.175033 1_545
Mg10 Mg12 3.175033 1_555
Mg10 Mg3 3.201457 1_555
Mg10 Mg5 3.201463 1_545
Mg10 Mg8 3.207366 1_545
Mg10 Mg6 3.207366 1_555
Mg11 Mg9 3.139184 1_655
Mg11 Mg7 3.139184 1_655
Mg11 Mn0 3.139483 1_656
Mg11 Mg2 3.153457 1_556
Mg11 Mg4 3.153463 1_546
Mg11 Mg13 3.175033 1_545
Mg11 Mg13 3.175033 1_555
Mg11 Mg3 3.201457 1_555
Mg11 Mg5 3.201463 1_545
Mg11 Mg9 3.207366 1_545
Mg11 Mg7 3.207366 1_555
Mg12 Mg5 3.132013 1_555
Mg12 Mg3 3.132020 1_555
Mg12 Mg6 3.136554 1_555
Mg12 Mg8 3.136554 1_555
Mg12 Mg4 3.203052 1_555
Mg12 Mg2 3.203058 1_555
Mg12 Mg6 3.210327 1_665
Mg12 Mg8 3.210327 1_655
Mg13 Mg5 3.132013 1_555
Mg13 Mg3 3.132020 1_555
Mg13 Mg7 3.136554 1_555
Mg13 Mg9 3.136554 1_555
Mg13 Mg4 3.203052 1_556
Mg13 Mg2 3.203058 1_556
Mg13 Mg7 3.210327 1_665
Mg13 Mg9 3.210327 1_655
Bi0 Mg2 3.156220 1_455
Bi0 Mg4 3.156220 1_455
Bi0 Mn0 3.174056 1_565
Bi0 Mn0 3.174056 1_555
Bi0 Mg2 3.190047 1_565
Bi0 Mg4 3.190047 1_555
Bi0 Mg9 3.196098 1_554
Bi0 Mg8 3.196098 1_555
Bi0 Mg6 3.196104 1_565
Bi0 Mg7 3.196104 1_564
Bi0 Mg12 3.209765 1_455
Bi0 Mg13 3.209765 1_454
