# generated using pymatgen
data_Th4Co10Si
_symmetry_space_group_name_H-M   'P 1'
_cell_length_a   13.14815400
_cell_length_b   9.05817924
_cell_length_c   9.05817924
_cell_angle_alpha   58.21524543
_cell_angle_beta   43.46777432
_cell_angle_gamma   43.46777432
_symmetry_Int_Tables_number   1
_chemical_formula_structural   Th4Co10Si
_chemical_formula_sum   'Th8 Co20 Si2'
_cell_volume   510.57072877
_cell_formula_units_Z   2
loop_
 _symmetry_equiv_pos_site_id
 _symmetry_equiv_pos_as_xyz
  1  'x, y, z'
loop_
 _atom_site_type_symbol
 _atom_site_label
 _atom_site_symmetry_multiplicity
 _atom_site_fract_x
 _atom_site_fract_y
 _atom_site_fract_z
 _atom_site_occupancy
  Th  Th0  1  0.49425500  0.29544500  0.70455500  1
  Th  Th1  1  0.49425500  0.70455500  0.29544500  1
  Th  Th2  1  0.44881000  0.79544500  0.79544500  1
  Th  Th3  1  0.75574500  0.79544500  0.20455500  1
  Th  Th4  1  0.75574500  0.20455500  0.79544500  1
  Th  Th5  1  0.03970000  0.20455500  0.20455500  1
  Th  Th6  1  0.80119000  0.70455500  0.70455500  1
  Th  Th7  1  0.21030000  0.29544500  0.29544500  1
  Co  Co0  1  0.12500000  0.75000000  0.25000000  1
  Co  Co1  1  0.12500000  0.25000000  0.75000000  1
  Co  Co2  1  0.62500000  0.25000000  0.25000000  1
  Co  Co3  1  0.12500000  0.75000000  0.75000000  1
  Co  Co4  1  0.30992500  0.89732700  0.62604400  1
  Co  Co5  1  0.83329600  0.10267300  0.37395600  1
  Co  Co6  1  0.18596900  0.87395600  0.39732700  1
  Co  Co7  1  0.94007500  0.87395600  0.60267300  1
  Co  Co8  1  0.94007500  0.60267300  0.87395600  1
  Co  Co9  1  0.45725200  0.12604400  0.60267300  1
  Co  Co10  1  0.41670400  0.12604400  0.39732700  1
  Co  Co11  1  0.41670400  0.39732700  0.12604400  1
  Co  Co12  1  0.06403100  0.10267300  0.62604400  1
  Co  Co13  1  0.06403100  0.62604400  0.10267300  1
  Co  Co14  1  0.79274800  0.89732700  0.37395600  1
  Co  Co15  1  0.79274800  0.37395600  0.89732700  1
  Co  Co16  1  0.30992500  0.62604400  0.89732700  1
  Co  Co17  1  0.83329600  0.37395600  0.10267300  1
  Co  Co18  1  0.45725200  0.60267300  0.12604400  1
  Co  Co19  1  0.18596900  0.39732700  0.87395600  1
  Si  Si0  1  0.00000000  0.00000000  0.00000000  1
  Si  Si1  1  0.25000000  0.50000000  0.50000000  1
loop_
_geom_bond_atom_site_label_1
_geom_bond_atom_site_label_2
_geom_bond_distance
_geom_bond_site_symmetry_2
Co0 Co11 2.432961 1_555
Co0 Co7 2.432961 1_455
Co0 Co5 2.432961 1_465
Co0 Co16 2.432961 1_554
Co0 Si1 2.748667 1_555
Co0 Si0 2.748667 1_565
Co0 Co18 2.849927 1_555
Co0 Co6 2.849927 1_555
Co0 Co14 2.849927 1_455
Co0 Co13 2.849927 1_555
Co0 Th7 3.249965 1_555
Co0 Th2 3.249965 1_554
Co0 Th5 3.249965 1_565
Co0 Th6 3.249965 1_455
Co1 Co10 2.432961 1_555
Co1 Co8 2.432961 1_455
Co1 Co17 2.432961 1_456
Co1 Co4 2.432961 1_545
Co1 Si0 2.748667 1_556
Co1 Si1 2.748667 1_555
Co1 Co9 2.849927 1_555
Co1 Co19 2.849927 1_555
Co1 Co15 2.849927 1_455
Co1 Co12 2.849927 1_555
Co1 Th7 3.249965 1_555
Co1 Th2 3.249965 1_545
Co1 Th5 3.249965 1_556
Co1 Th6 3.249965 1_455
Co2 Co9 2.432961 1_555
Co2 Si0 2.748667 1_655
Co2 Si1 2.748667 1_555
Co2 Co5 2.849927 1_555
Co2 Th0 3.249965 1_555
Co2 Th1 3.249965 1_555
Co2 Th4 3.249965 1_554
Co2 Th3 3.249965 1_545
Co3 Co6 2.432961 1_555
Co3 Si1 2.748667 1_555
Co3 Si0 2.748667 1_566
Co3 Co4 2.849927 1_555
Co3 Co7 2.849927 1_455
Co3 Co8 2.849927 1_455
Co3 Th0 3.249965 1_555
Co3 Th1 3.249965 1_555
Co3 Th4 3.249965 1_465
Co3 Th3 3.249965 1_456
Co4 Th2 2.582660 1_555
Co4 Th1 2.592621 1_555
Co4 Si0 2.593506 1_566
Co5 Th5 2.582660 1_655
Co5 Th0 2.592621 1_555
Co5 Si0 2.593506 1_655
Co6 Th1 2.582660 1_555
Co6 Th5 2.592621 1_565
Co6 Si1 2.593506 1_555
Co7 Th6 2.582660 1_555
Co7 Th4 2.592621 1_565
Co7 Si1 2.593506 1_655
Co8 Th6 2.582660 1_555
Co8 Th3 2.592621 1_556
Co8 Si1 2.593506 1_655
Co9 Th0 2.582660 1_555
Co9 Th2 2.592621 1_545
Co9 Si1 2.593506 1_555
Co10 Th7 2.582660 1_555
Co10 Th3 2.592621 1_545
Co10 Si1 2.593506 1_555
Co10 Co2 2.849927 1_555
Co11 Th7 2.582660 1_555
Co11 Th4 2.592621 1_554
Co11 Si1 2.593506 1_555
Co11 Co2 2.849927 1_555
Co12 Co3 2.432961 1_545
Co12 Th4 2.582660 1_455
Co12 Th7 2.592621 1_555
Co12 Si0 2.593506 1_556
Co13 Co3 2.432961 1_554
Co13 Th3 2.582660 1_455
Co13 Th7 2.592621 1_555
Co13 Si0 2.593506 1_565
Co14 Co2 2.432961 1_565
Co14 Th3 2.582660 1_555
Co14 Th6 2.592621 1_555
Co14 Si0 2.593506 1_665
Co15 Co2 2.432961 1_556
Co15 Th4 2.582660 1_555
Co15 Th6 2.592621 1_555
Co15 Si0 2.593506 1_656
Co16 Th2 2.582660 1_555
Co16 Th0 2.592621 1_555
Co16 Si0 2.593506 1_566
Co16 Co3 2.849927 1_555
Co17 Th5 2.582660 1_655
Co17 Th1 2.592621 1_555
Co17 Si0 2.593506 1_655
Co17 Co2 2.849927 1_555
Co18 Co2 2.432961 1_555
Co18 Th1 2.582660 1_555
Co18 Th2 2.592621 1_554
Co18 Si1 2.593506 1_555
Co19 Co3 2.432961 1_555
Co19 Th0 2.582660 1_555
Co19 Th5 2.592621 1_556
Co19 Si1 2.593506 1_555
