# generated using pymatgen
data_Pr4AlSi5(NO)7
_symmetry_space_group_name_H-M   'P 1'
_cell_length_a   5.12497470
_cell_length_b   7.88048698
_cell_length_c   23.44674762
_cell_angle_alpha   88.79292493
_cell_angle_beta   89.55582314
_cell_angle_gamma   89.77776667
_symmetry_Int_Tables_number   1
_chemical_formula_structural   Pr4AlSi5(NO)7
_chemical_formula_sum   'Pr12 Al3 Si15 N21 O21'
_cell_volume   946.70561994
_cell_formula_units_Z   3
loop_
 _symmetry_equiv_pos_site_id
 _symmetry_equiv_pos_as_xyz
  1  'x, y, z'
loop_
 _atom_site_type_symbol
 _atom_site_label
 _atom_site_symmetry_multiplicity
 _atom_site_fract_x
 _atom_site_fract_y
 _atom_site_fract_z
 _atom_site_occupancy
  Pr  Pr0  1  0.98852500  0.66224500  0.05320100  1
  Pr  Pr1  1  0.98470100  0.33737800  0.28203700  1
  Pr  Pr2  1  0.98786100  0.64958800  0.38893800  1
  Pr  Pr3  1  0.98138800  0.34395600  0.61412100  1
  Pr  Pr4  1  0.99989000  0.66543700  0.72222800  1
  Pr  Pr5  1  0.98122400  0.33928800  0.94700400  1
  Pr  Pr6  1  0.98125000  0.17341000  0.11120400  1
  Pr  Pr7  1  0.97493800  0.16948500  0.44212700  1
  Pr  Pr8  1  0.98880600  0.82566000  0.22126000  1
  Pr  Pr9  1  0.98854600  0.15770400  0.77478500  1
  Pr  Pr10  1  0.99070800  0.82710900  0.55349400  1
  Pr  Pr11  1  0.99034100  0.82320200  0.88620200  1
  Al  Al0  1  0.46881500  0.14305000  0.21521100  1
  Al  Al1  1  0.52207900  0.00241000  0.99948900  1
  Al  Al2  1  0.53598500  0.35481500  0.38207700  1
  Si  Si0  1  0.45746100  0.14089600  0.54575500  1
  Si  Si1  1  0.45137900  0.14106100  0.87884300  1
  Si  Si2  1  0.44315300  0.85250300  0.11993900  1
  Si  Si3  1  0.44829600  0.85500500  0.45498600  1
  Si  Si4  1  0.43959200  0.85845500  0.78558400  1
  Si  Si5  1  0.50365900  0.50647500  0.16650900  1
  Si  Si6  1  0.51979100  0.50682600  0.50055300  1
  Si  Si7  1  0.51196600  0.50337400  0.83217800  1
  Si  Si8  1  0.52299200  0.99704000  0.33286900  1
  Si  Si9  1  0.51114200  0.99955900  0.66783200  1
  Si  Si10  1  0.55087400  0.35859000  0.04863100  1
  Si  Si11  1  0.54823700  0.64629700  0.62001800  1
  Si  Si12  1  0.54849900  0.35652300  0.71429100  1
  Si  Si13  1  0.54914600  0.64105000  0.28508500  1
  Si  Si14  1  0.55466900  0.64125500  0.95171800  1
  N  N0  1  0.29741600  0.66655600  0.13958300  1
  N  N1  1  0.30794600  0.66353000  0.47348000  1
  N  N2  1  0.30603700  0.66290200  0.80663300  1
  N  N3  1  0.30215500  0.92084600  0.72033600  1
  N  N4  1  0.32709500  0.00845400  0.49835700  1
  N  N5  1  0.32364200  0.00435100  0.83341200  1
  N  N6  1  0.67152500  0.50247500  0.00130700  1
  N  N7  1  0.67676200  0.50395400  0.33229500  1
  N  N8  1  0.67082900  0.50644100  0.66879800  1
  N  N9  1  0.69136000  0.58346600  0.22037700  1
  N  N10  1  0.69609300  0.58100900  0.55687200  1
  N  N11  1  0.69784500  0.57003400  0.88837600  1
  N  N12  1  0.68633200  0.41571100  0.11341500  1
  N  N13  1  0.70712400  0.17369700  0.02981200  1
  N  N14  1  0.70237700  0.15499300  0.35866200  1
  N  N15  1  0.69460400  0.16862100  0.69046100  1
  N  N16  1  0.70300000  0.41361600  0.44943800  1
  N  N17  1  0.68508700  0.40314200  0.77950800  1
  N  N18  1  0.68515700  0.83515300  0.30150400  1
  N  N19  1  0.68492100  0.84098700  0.63537300  1
  N  N20  1  0.70286000  0.82792400  0.96932600  1
  O  O0  1  0.22378600  0.36114800  0.04674200  1
  O  O1  1  0.22149900  0.63984500  0.28677700  1
  O  O2  1  0.19053400  0.36088100  0.37812900  1
  O  O3  1  0.22146200  0.35773700  0.71145100  1
  O  O4  1  0.22106500  0.63746800  0.62002200  1
  O  O5  1  0.22658300  0.63719000  0.95399600  1
  O  O6  1  0.31341000  0.07737500  0.28148400  1
  O  O7  1  0.31654300  0.34152100  0.19543400  1
  O  O8  1  0.30721200  0.91939100  0.05815700  1
  O  O9  1  0.32992200  0.33703100  0.53195300  1
  O  O10  1  0.32296900  0.09171500  0.61068400  1
  O  O11  1  0.32785900  0.91150800  0.38796600  1
  O  O12  1  0.31484300  0.09812600  0.94316600  1
  O  O13  1  0.32058100  0.33613100  0.86291400  1
  O  O14  1  0.33166000  0.99998800  0.16541400  1
  O  O15  1  0.80888000  0.13338800  0.21171900  1
  O  O16  1  0.77797700  0.14127400  0.54787800  1
  O  O17  1  0.77261800  0.14307200  0.88106600  1
  O  O18  1  0.76415000  0.86549300  0.11941100  1
  O  O19  1  0.77240900  0.86043500  0.45328800  1
  O  O20  1  0.76795400  0.86177300  0.78685700  1
loop_
_geom_bond_atom_site_label_1
_geom_bond_atom_site_label_2
_geom_bond_distance
_geom_bond_site_symmetry_2
Al0 O15 1.745554 1_555
Al0 O14 1.789605 1_545
Al0 O7 1.798851 1_555
Al0 O6 1.807450 1_555
Al1 N20 1.808373 1_545
Al1 N13 1.813202 1_556
Al1 O12 1.847834 1_555
Al1 O8 1.864677 1_546
Al2 O2 1.773969 1_555
Al2 N7 1.788847 1_555
Al2 N16 1.869955 1_555
Al2 N14 1.878033 1_555
N0 Si2 1.700582 1_555
N0 Si5 1.753189 1_555
N0 Pr0 2.581164 1_455
N0 Pr8 2.789238 1_455
N1 Si3 1.719957 1_555
N1 Si6 1.753262 1_555
N1 Pr2 2.587145 1_455
N1 Pr10 2.804113 1_455
N2 Si7 1.738044 1_555
N2 Si4 1.748660 1_555
N2 Pr4 2.534741 1_455
N2 Pr11 2.780417 1_455
N3 Si9 1.732034 1_555
N3 Si4 1.749470 1_555
N3 Pr4 2.544050 1_455
N3 Pr9 2.782517 1_465
N4 Si0 1.684208 1_555
N4 Si3 1.708337 1_545
N4 Pr7 2.560175 1_455
N4 Pr10 2.567564 1_445
N5 Si1 1.669890 1_555
N5 Si4 1.723733 1_545
N5 Pr9 2.499971 1_455
N5 Pr11 2.529706 1_445
N6 Si10 1.685533 1_555
N6 Si14 1.690785 1_554
N6 Pr5 2.411620 1_554
N6 Pr0 2.411671 1_555
N7 Si13 1.666017 1_555
N7 Pr1 2.371222 1_555
N7 Pr2 2.394629 1_555
N8 Si12 1.693775 1_555
N8 Si11 1.694172 1_555
N8 Pr3 2.416201 1_555
N8 Pr4 2.469546 1_555
N9 Si5 1.715921 1_555
N9 Si13 1.745940 1_555
N9 Pr8 2.447803 1_555
N9 Pr1 2.829143 1_555
N10 Si6 1.719587 1_555
N10 Si11 1.744324 1_555
N10 Pr10 2.462046 1_555
N10 Pr3 2.707945 1_555
N11 Si7 1.724002 1_555
N11 Si14 1.753332 1_555
N11 Pr11 2.499561 1_555
N11 Pr5 2.685243 1_555
N12 Si5 1.718151 1_555
N12 Si10 1.743396 1_555
N12 Pr6 2.431816 1_555
N12 Pr0 2.835523 1_555
N13 Si10 1.723799 1_555
N13 Pr6 2.378442 1_555
N13 Pr5 2.703907 1_554
N14 Si8 1.676167 1_545
N14 Pr7 2.418078 1_555
N14 Pr1 2.693351 1_555
N15 Si9 1.728523 1_545
N15 Si12 1.756497 1_555
N15 Pr9 2.494755 1_555
N15 Pr3 2.672818 1_555
N16 Si6 1.694641 1_555
N16 Pr7 2.379577 1_555
N16 Pr2 2.734845 1_555
N17 Si7 1.718968 1_555
N17 Si12 1.733629 1_555
N17 Pr9 2.480929 1_555
N17 Pr4 2.924809 1_555
N18 Si8 1.697321 1_555
N18 Si13 1.735248 1_555
N18 Pr8 2.434514 1_555
N18 Pr2 2.941635 1_555
N19 Si9 1.718979 1_555
N19 Si11 1.734869 1_555
N19 Pr10 2.472733 1_555
N19 Pr4 2.929448 1_555
N20 Si14 1.717652 1_555
N20 Pr11 2.434904 1_555
N20 Pr0 2.763544 1_556
O0 Si10 1.677278 1_555
O0 Pr6 2.430880 1_455
O0 Pr0 2.664004 1_455
O0 Pr5 2.665984 1_454
O1 Si13 1.679403 1_555
O1 Pr8 2.417902 1_455
O1 Pr2 2.672054 1_455
O1 Pr1 2.683713 1_455
O2 Pr7 2.374723 1_455
O2 Pr1 2.505844 1_455
O2 Pr2 2.514222 1_455
O3 Si12 1.677877 1_555
O3 Pr9 2.450192 1_455
O3 Pr3 2.605471 1_455
O3 Pr4 2.689445 1_455
O4 Si11 1.678460 1_555
O4 Pr10 2.444791 1_455
O4 Pr3 2.629861 1_455
O4 Pr4 2.656005 1_455
O5 Si14 1.682274 1_555
O5 Pr11 2.461545 1_455
O5 Pr0 2.628955 1_456
O5 Pr5 2.676131 1_455
O6 Si8 1.728788 1_545
O6 Pr1 2.647703 1_455
O6 Pr8 2.979308 1_445
O7 Si5 1.741205 1_555
O7 Pr1 2.638304 1_455
O7 Pr6 2.964573 1_455
O8 Si2 1.685900 1_555
O8 Pr0 2.612667 1_455
O8 Pr6 2.896832 1_465
O9 Si0 1.701567 1_555
O9 Si6 1.799115 1_555
O9 Pr3 2.618318 1_455
O9 Pr7 3.111925 1_455
O10 Si0 1.704074 1_555
O10 Si9 1.796240 1_545
O10 Pr3 2.645736 1_455
O10 Pr10 3.037533 1_445
O11 Si3 1.741257 1_555
O11 Si8 1.752656 1_555
O11 Pr2 2.705992 1_455
O11 Pr7 3.010272 1_465
O12 Si1 1.686018 1_555
O12 Pr5 2.553995 1_455
O12 Pr11 3.070480 1_445
O13 Si1 1.709873 1_555
O13 Si7 1.782544 1_555
O13 Pr5 2.619416 1_455
O13 Pr9 3.055818 1_455
O14 Si2 1.688731 1_555
O14 Pr8 2.568379 1_455
O14 Pr6 2.579052 1_465
O15 Pr1 2.502073 1_555
O15 Pr6 2.524419 1_555
O15 Pr8 2.596957 1_545
O16 Si0 1.643792 1_555
O16 Pr3 2.488539 1_555
O16 Pr7 2.675083 1_555
O16 Pr10 2.702401 1_545
O17 Si1 1.647719 1_555
O17 Pr5 2.462384 1_555
O17 Pr9 2.719159 1_555
O17 Pr11 2.753385 1_545
O18 Si2 1.648614 1_555
O18 Pr0 2.522003 1_555
O18 Pr8 2.671156 1_555
O18 Pr6 2.676006 1_565
O19 Si3 1.661935 1_555
O19 Pr2 2.514378 1_555
O19 Pr10 2.617878 1_555
O19 Pr7 2.658170 1_565
O20 Si4 1.683657 1_555
O20 Pr4 2.481868 1_555
O20 Pr9 2.604705 1_565
O20 Pr11 2.612610 1_555
