# generated using pymatgen
data_CsPm
_symmetry_space_group_name_H-M   'P 1'
_cell_length_a   16.03133999
_cell_length_b   16.03133999
_cell_length_c   16.03133959
_cell_angle_alpha   28.06606867
_cell_angle_beta   28.06606867
_cell_angle_gamma   28.06606901
_symmetry_Int_Tables_number   1
_chemical_formula_structural   CsPm
_chemical_formula_sum   'Cs8 Pm8'
_cell_volume   805.61708349
_cell_formula_units_Z   8
loop_
 _symmetry_equiv_pos_site_id
 _symmetry_equiv_pos_as_xyz
  1  'x, y, z'
loop_
 _atom_site_type_symbol
 _atom_site_label
 _atom_site_symmetry_multiplicity
 _atom_site_fract_x
 _atom_site_fract_y
 _atom_site_fract_z
 _atom_site_occupancy
  Cs  Cs0_0  1  0.00000000  0.00000000  0.00000000  1
  Cs  Cs0_1  1  0.00000000  0.00000000  0.50000000  1
  Cs  Cs0_2  1  0.00000000  0.50000000  0.00000000  1
  Cs  Cs0_3  1  0.00000000  0.50000000  0.50000000  1
  Cs  Cs0_4  1  0.50000000  0.00000000  0.00000000  1
  Cs  Cs0_5  1  0.50000000  0.00000000  0.50000000  1
  Cs  Cs0_6  1  0.50000000  0.50000000  0.00000000  1
  Cs  Cs0_7  1  0.50000000  0.50000000  0.50000000  1
  Pm  Pm0_0  1  0.25000000  0.25000000  0.25000000  1
  Pm  Pm0_1  1  0.25000000  0.25000000  0.75000000  1
  Pm  Pm0_2  1  0.25000000  0.75000000  0.25000000  1
  Pm  Pm0_3  1  0.25000000  0.75000000  0.75000000  1
  Pm  Pm0_4  1  0.75000000  0.25000000  0.25000000  1
  Pm  Pm0_5  1  0.75000000  0.25000000  0.75000000  1
  Pm  Pm0_6  1  0.75000000  0.75000000  0.25000000  1
  Pm  Pm0_7  1  0.75000000  0.75000000  0.75000000  1
loop_
_geom_bond_atom_site_label_1
_geom_bond_atom_site_label_2
_geom_bond_distance
_geom_bond_site_symmetry_2
Cs0_0 Cs0_3 3.887300 1_545
Cs0_0 Cs0_5 3.887300 1_455
Cs0_0 Cs0_5 3.887300 1_554
Cs0_0 Cs0_3 3.887300 1_554
Cs0_0 Cs0_6 3.887300 1_545
Cs0_0 Cs0_6 3.887300 1_455
Cs0_0 Pm0_5 4.454269 1_454
Cs0_0 Pm0_2 4.454269 1_545
Cs0_0 Pm0_4 4.454269 1_455
Cs0_0 Pm0_3 4.454269 1_544
Cs0_0 Pm0_1 4.454270 1_554
Cs0_0 Pm0_6 4.454270 1_445
Cs0_1 Cs0_2 3.887300 1_555
Cs0_1 Cs0_4 3.887300 1_555
Cs0_1 Cs0_2 3.887300 1_546
Cs0_1 Cs0_4 3.887300 1_456
Cs0_1 Cs0_7 3.887300 1_545
Cs0_1 Cs0_7 3.887300 1_455
Cs0_1 Pm0_3 4.454269 1_545
Cs0_1 Pm0_2 4.454269 1_545
Cs0_1 Pm0_5 4.454269 1_455
Cs0_1 Pm0_4 4.454269 1_455
Cs0_1 Pm0_0 4.454270 1_555
Cs0_1 Pm0_7 4.454270 1_445
Cs0_2 Cs0_7 3.887300 1_554
Cs0_2 Cs0_7 3.887300 1_455
Cs0_2 Cs0_4 3.887300 1_555
Cs0_2 Cs0_4 3.887300 1_465
Cs0_2 Pm0_6 4.454269 1_455
Cs0_2 Pm0_1 4.454269 1_554
Cs0_2 Pm0_0 4.454269 1_555
Cs0_2 Pm0_7 4.454269 1_454
Cs0_2 Pm0_3 4.454270 1_554
Cs0_2 Pm0_4 4.454270 1_455
Cs0_3 Cs0_6 3.887300 1_555
Cs0_3 Cs0_6 3.887300 1_456
Cs0_3 Cs0_5 3.887300 1_465
Cs0_3 Cs0_5 3.887300 1_555
Cs0_3 Pm0_7 4.454269 1_455
Cs0_3 Pm0_0 4.454269 1_555
Cs0_3 Pm0_1 4.454269 1_555
Cs0_3 Pm0_6 4.454269 1_455
Cs0_3 Pm0_2 4.454270 1_555
Cs0_3 Pm0_5 4.454270 1_455
Cs0_4 Cs0_7 3.887300 1_545
Cs0_4 Cs0_7 3.887300 1_554
Cs0_4 Pm0_6 4.454269 1_545
Cs0_4 Pm0_0 4.454269 1_555
Cs0_4 Pm0_1 4.454269 1_554
Cs0_4 Pm0_7 4.454269 1_544
Cs0_4 Pm0_2 4.454270 1_545
Cs0_4 Pm0_5 4.454270 1_554
Cs0_5 Cs0_6 3.887300 1_555
Cs0_5 Cs0_6 3.887300 1_546
Cs0_5 Pm0_7 4.454269 1_545
Cs0_5 Pm0_0 4.454269 1_555
Cs0_5 Pm0_1 4.454269 1_555
Cs0_5 Pm0_6 4.454269 1_545
Cs0_5 Pm0_4 4.454270 1_555
Cs0_5 Pm0_3 4.454270 1_545
Cs0_6 Pm0_5 4.454269 1_554
Cs0_6 Pm0_4 4.454269 1_555
Cs0_6 Pm0_2 4.454269 1_555
Cs0_6 Pm0_3 4.454269 1_554
Cs0_6 Pm0_7 4.454270 1_554
Cs0_6 Pm0_0 4.454270 1_555
Cs0_7 Pm0_3 4.454269 1_555
Cs0_7 Pm0_2 4.454269 1_555
Cs0_7 Pm0_5 4.454269 1_555
Cs0_7 Pm0_4 4.454269 1_555
Cs0_7 Pm0_6 4.454270 1_555
Cs0_7 Pm0_1 4.454270 1_555
Pm0_0 Pm0_5 3.887300 1_455
Pm0_0 Pm0_3 3.887300 1_545
Pm0_0 Pm0_3 3.887300 1_554
Pm0_0 Pm0_5 3.887300 1_554
Pm0_0 Pm0_6 3.887300 1_545
Pm0_0 Pm0_6 3.887300 1_455
Pm0_1 Pm0_4 3.887300 1_555
Pm0_1 Pm0_2 3.887300 1_555
Pm0_1 Pm0_4 3.887300 1_456
Pm0_1 Pm0_2 3.887300 1_546
Pm0_1 Pm0_7 3.887300 1_455
Pm0_1 Pm0_7 3.887300 1_545
Pm0_2 Pm0_7 3.887300 1_554
Pm0_2 Pm0_7 3.887300 1_455
Pm0_2 Pm0_4 3.887300 1_555
Pm0_2 Pm0_4 3.887300 1_465
Pm0_3 Pm0_6 3.887300 1_555
Pm0_3 Pm0_6 3.887300 1_456
Pm0_3 Pm0_5 3.887300 1_465
Pm0_3 Pm0_5 3.887300 1_555
Pm0_4 Pm0_7 3.887300 1_554
Pm0_4 Pm0_7 3.887300 1_545
Pm0_5 Pm0_6 3.887300 1_555
Pm0_5 Pm0_6 3.887300 1_546
