# generated using pymatgen
data_Li9Mn2Co5O16
_symmetry_space_group_name_H-M   'P 1'
_cell_length_a   5.90859800
_cell_length_b   6.43654216
_cell_length_c   7.87108320
_cell_angle_alpha   85.96852746
_cell_angle_beta   75.67741605
_cell_angle_gamma   76.79116751
_symmetry_Int_Tables_number   1
_chemical_formula_structural   Li9Mn2Co5O16
_chemical_formula_sum   'Li9 Mn2 Co5 O16'
_cell_volume   282.33702736
_cell_formula_units_Z   1
loop_
 _symmetry_equiv_pos_site_id
 _symmetry_equiv_pos_as_xyz
  1  'x, y, z'
loop_
 _atom_site_type_symbol
 _atom_site_label
 _atom_site_symmetry_multiplicity
 _atom_site_fract_x
 _atom_site_fract_y
 _atom_site_fract_z
 _atom_site_occupancy
  Li  Li0  1  0.06791300  0.12531900  0.61961100  1
  Li  Li1  1  0.81153300  0.61719600  0.12671300  1
  Li  Li2  1  0.55197600  0.12795200  0.61451200  1
  Li  Li3  1  0.92891100  0.88171600  0.37211200  1
  Li  Li4  1  0.68693000  0.37486000  0.88381800  1
  Li  Li5  1  0.44742400  0.88595100  0.37431600  1
  Li  Li6  1  0.31311000  0.61736100  0.12528000  1
  Li  Li7  1  0.19121500  0.37260200  0.88035200  1
  Li  Li8  1  0.62484100  0.24788000  0.25110400  1
  Mn  Mn0  1  0.99699500  0.00231400  0.00325200  1
  Mn  Mn1  1  0.74600900  0.50157100  0.49673900  1
  Co  Co0  1  0.50459700  0.00033500  0.00717600  1
  Co  Co1  1  0.25007500  0.49672500  0.49635500  1
  Co  Co2  1  0.37581500  0.75038000  0.74946200  1
  Co  Co3  1  0.12177500  0.25012200  0.25040100  1
  Co  Co4  1  0.87648000  0.74989000  0.75014900  1
  O  O0  1  0.27492900  0.04257300  0.81608100  1
  O  O1  1  0.01830200  0.54800700  0.31540700  1
  O  O2  1  0.79538300  0.04299300  0.83393300  1
  O  O3  1  0.14405700  0.79048300  0.56980700  1
  O  O4  1  0.91122800  0.29441600  0.05463400  1
  O  O5  1  0.64663800  0.80033300  0.56962800  1
  O  O6  1  0.53402800  0.55762600  0.33989400  1
  O  O7  1  0.39124700  0.28872700  0.06893300  1
  O  O8  1  0.85577100  0.20749000  0.43398800  1
  O  O9  1  0.60586400  0.70999400  0.93149200  1
  O  O10  1  0.33567600  0.20933600  0.43943900  1
  O  O11  1  0.73601400  0.93775000  0.17567400  1
  O  O12  1  0.48254700  0.45275900  0.68592700  1
  O  O13  1  0.20803100  0.95386900  0.16935400  1
  O  O14  1  0.11017300  0.70087200  0.92917000  1
  O  O15  1  0.95451700  0.46060100  0.66528800  1
loop_
_geom_bond_atom_site_label_1
_geom_bond_atom_site_label_2
_geom_bond_distance
_geom_bond_site_symmetry_2
Li0 O10 1.994925 1_555
Li0 O8 2.116612 1_455
Li0 O15 2.136471 1_455
Li0 O3 2.142271 1_545
Li0 O2 2.154022 1_455
Li0 O0 2.166474 1_555
Li1 O11 2.051985 1_555
Li1 O4 2.103885 1_555
Li1 O1 2.110194 1_655
Li1 O6 2.118182 1_555
Li1 O9 2.158184 1_554
Li1 O14 2.186422 1_654
Li2 O10 2.066538 1_555
Li2 O5 2.086236 1_545
Li2 O0 2.121880 1_555
Li2 O12 2.124669 1_555
Li2 O8 2.135158 1_555
Li2 O2 2.467177 1_555
Li3 O11 2.103666 1_555
Li3 O13 2.103839 1_655
Li3 O8 2.108580 1_565
Li3 O5 2.115403 1_555
Li3 O1 2.142777 1_655
Li3 O3 2.211614 1_655
Li4 O4 2.074197 1_556
Li4 O2 2.120265 1_555
Li4 O7 2.133596 1_556
Li4 O9 2.139168 1_555
Li4 O12 2.163338 1_555
Li4 O15 2.163960 1_555
Li5 O6 2.078200 1_555
Li5 O11 2.081058 1_555
Li5 O10 2.094221 1_565
Li5 O5 2.128913 1_555
Li5 O3 2.228010 1_555
Li5 O13 2.354095 1_555
Li6 O1 2.108251 1_555
Li6 O7 2.113885 1_555
Li6 O13 2.140486 1_555
Li6 O14 2.148007 1_554
Li6 O9 2.170769 1_554
Li6 O6 2.339977 1_555
Li7 O4 2.008100 1_456
Li7 O7 2.086942 1_556
Li7 O14 2.098127 1_555
Li7 O0 2.135443 1_555
Li7 O12 2.136053 1_555
Li7 O15 2.411802 1_455
Li8 O10 2.016710 1_555
Li8 O11 2.035463 1_545
Li8 O4 2.053373 1_555
Li8 O6 2.067038 1_555
Li8 O8 2.181416 1_555
Li8 O7 2.188711 1_555
Mn0 O4 1.877590 1_555
Mn0 O11 1.889588 1_545
Mn0 O2 1.964090 1_554
Mn0 O0 1.969313 1_654
Mn0 O14 1.981149 1_644
Mn0 O13 1.983161 1_645
Mn1 O8 1.912970 1_555
Mn1 O6 1.928454 1_555
Mn1 O1 1.933539 1_655
Mn1 O12 1.936565 1_555
Mn1 O5 1.960681 1_555
Mn1 O15 1.989565 1_555
Co0 O7 1.878336 1_555
Co0 O9 1.916885 1_544
Co0 O13 1.966872 1_545
Co0 O2 1.972461 1_554
Co0 O11 2.088368 1_545
Co0 O0 2.227457 1_554
Co1 O10 1.858787 1_555
Co1 O6 1.922391 1_555
Co1 O3 1.932605 1_555
Co1 O15 1.965967 1_455
Co1 O1 2.169145 1_555
Co1 O12 2.229423 1_555
Co2 O14 1.905951 1_555
Co2 O0 1.907628 1_565
Co2 O5 1.928225 1_555
Co2 O12 1.934963 1_555
Co2 O3 2.164856 1_555
Co2 O9 2.172034 1_555
Co3 O7 1.908595 1_555
Co3 O8 1.910847 1_455
Co3 O1 1.938886 1_555
Co3 O13 1.966929 1_545
Co3 O10 2.145707 1_555
Co3 O4 2.174361 1_455
Co4 O3 1.899754 1_655
Co4 O9 1.914916 1_555
Co4 O15 1.938045 1_555
Co4 O2 1.956814 1_565
Co4 O5 2.158005 1_555
Co4 O14 2.166268 1_655
