# generated using pymatgen
data_NaMgPH18O13
_symmetry_space_group_name_H-M   'P 1'
_cell_length_a   7.03252624
_cell_length_b   12.12286382
_cell_length_c   14.94121470
_cell_angle_alpha   91.51432710
_cell_angle_beta   103.96343883
_cell_angle_gamma   106.50319663
_symmetry_Int_Tables_number   1
_chemical_formula_structural   NaMgPH18O13
_chemical_formula_sum   'Na4 Mg4 P4 H72 O52'
_cell_volume   1179.04727181
_cell_formula_units_Z   4
loop_
 _symmetry_equiv_pos_site_id
 _symmetry_equiv_pos_as_xyz
  1  'x, y, z'
loop_
 _atom_site_type_symbol
 _atom_site_label
 _atom_site_symmetry_multiplicity
 _atom_site_fract_x
 _atom_site_fract_y
 _atom_site_fract_z
 _atom_site_occupancy
  Na  Na0  1  0.25656900  0.99692700  0.00277300  1
  Na  Na1  1  0.74343100  0.00307300  0.99722700  1
  Na  Na2  1  0.01322100  0.59999500  0.41890300  1
  Na  Na3  1  0.98677900  0.40000500  0.58109700  1
  Mg  Mg0  1  0.14866000  0.88418700  0.39620500  1
  Mg  Mg1  1  0.85134000  0.11581300  0.60379500  1
  Mg  Mg2  1  0.79773900  0.42001800  0.21002400  1
  Mg  Mg3  1  0.20226100  0.57998200  0.78997600  1
  P  P0  1  0.29018900  0.26655700  0.33532900  1
  P  P1  1  0.70981100  0.73344300  0.66467100  1
  P  P2  1  0.50821300  0.76265200  0.23566300  1
  P  P3  1  0.49178700  0.23734800  0.76433700  1
  H  H0  1  0.89046900  0.75831800  0.23369100  1
  H  H1  1  0.10953100  0.24168200  0.76630900  1
  H  H2  1  0.12026700  0.75499500  0.23286300  1
  H  H3  1  0.87973300  0.24500500  0.76713700  1
  H  H4  1  0.39476100  0.00533000  0.55977800  1
  H  H5  1  0.60523900  0.99467000  0.44022200  1
  H  H6  1  0.16961500  0.00276200  0.55837600  1
  H  H7  1  0.83038500  0.99723800  0.44162400  1
  H  H8  1  0.41767200  0.07573400  0.35125100  1
  H  H9  1  0.58232800  0.92426600  0.64874900  1
  H  H10  1  0.44944600  0.95937600  0.30231900  1
  H  H11  1  0.55055400  0.04062400  0.69768100  1
  H  H12  1  0.00989500  0.07441900  0.35418700  1
  H  H13  1  0.99010500  0.92558100  0.64581300  1
  H  H14  1  0.81678200  0.95950600  0.30260700  1
  H  H15  1  0.18321800  0.04049400  0.69739300  1
  H  H16  1  0.90140800  0.77975900  0.50943500  1
  H  H17  1  0.09859200  0.22024100  0.49056500  1
  H  H18  1  0.76924400  0.75587300  0.40316000  1
  H  H19  1  0.23075600  0.24412700  0.59684000  1
  H  H20  1  0.41250000  0.77852900  0.51157300  1
  H  H21  1  0.58750000  0.22147100  0.48842700  1
  H  H22  1  0.41039200  0.75169300  0.40511100  1
  H  H23  1  0.58960800  0.24830700  0.59488900  1
  H  H24  1  0.68087900  0.26531800  0.33239700  1
  H  H25  1  0.31912100  0.73468200  0.66760300  1
  H  H26  1  0.91538500  0.26686300  0.33731100  1
  H  H27  1  0.08461500  0.73313700  0.66268900  1
  H  H28  1  0.70075400  0.59250200  0.12190700  1
  H  H29  1  0.29924600  0.40749800  0.87809300  1
  H  H30  1  0.77222000  0.52407000  0.04831100  1
  H  H31  1  0.22778000  0.47593000  0.95168900  1
  H  H32  1  0.95786400  0.69935900  0.82888100  1
  H  H33  1  0.04213600  0.30064100  0.17111900  1
  H  H34  1  0.14373300  0.71554800  0.92138300  1
  H  H35  1  0.85626700  0.28445200  0.07861700  1
  H  H36  1  0.64716300  0.58571100  0.27304300  1
  H  H37  1  0.35283700  0.41428900  0.72695700  1
  H  H38  1  0.56344900  0.47179800  0.31773100  1
  H  H39  1  0.43655100  0.52820200  0.68226900  1
  H  H40  1  0.40115400  0.28740900  0.17315000  1
  H  H41  1  0.59884600  0.71259100  0.82685000  1
  H  H42  1  0.44553000  0.28232400  0.07411600  1
  H  H43  1  0.55447000  0.71767600  0.92588400  1
  H  H44  1  0.17511200  0.58360200  0.24821000  1
  H  H45  1  0.82488800  0.41639800  0.75179000  1
  H  H46  1  0.20881500  0.48093700  0.30910200  1
  H  H47  1  0.79118500  0.51906300  0.69089800  1
  H  H48  1  0.16743900  0.18459800  0.95459200  1
  H  H49  1  0.83256100  0.81540200  0.04540800  1
  H  H50  1  0.35171400  0.22846000  0.91169900  1
  H  H51  1  0.64828600  0.77154000  0.08830100  1
  H  H52  1  0.21033100  0.76615200  0.08968900  1
  H  H53  1  0.78966900  0.23384800  0.91031100  1
  H  H54  1  0.01203200  0.74403000  0.00796700  1
  H  H55  1  0.98796800  0.25597000  0.99203300  1
  H  H56  1  0.36585200  0.88105200  0.85007600  1
  H  H57  1  0.63414800  0.11894800  0.14992400  1
  H  H58  1  0.42303500  0.01494600  0.84072900  1
  H  H59  1  0.57696500  0.98505400  0.15927100  1
  H  H60  1  0.13340400  0.11558700  0.16402400  1
  H  H61  1  0.86659600  0.88441300  0.83597600  1
  H  H62  1  0.06977900  0.98201200  0.16443800  1
  H  H63  1  0.93022100  0.01798800  0.83556200  1
  H  H64  1  0.36646600  0.54255900  0.54069700  1
  H  H65  1  0.63353400  0.45744100  0.45930300  1
  H  H66  1  0.28107200  0.45394700  0.45250600  1
  H  H67  1  0.71892800  0.54605300  0.54749400  1
  H  H68  1  0.73260500  0.41816200  0.90203300  1
  H  H69  1  0.26739500  0.58183800  0.09796700  1
  H  H70  1  0.86413300  0.54714700  0.91379900  1
  H  H71  1  0.13586700  0.45285300  0.08620100  1
  O  O0  1  0.46663600  0.21218300  0.36980800  1
  O  O1  1  0.53336400  0.78781700  0.63019200  1
  O  O2  1  0.10665500  0.21198900  0.37729600  1
  O  O3  1  0.89334500  0.78801100  0.62270400  1
  O  O4  1  0.37373400  0.40027100  0.36431400  1
  O  O5  1  0.62626600  0.59972900  0.63568600  1
  O  O6  1  0.21164900  0.24512500  0.22682000  1
  O  O7  1  0.78835100  0.75487500  0.77318000  1
  O  O8  1  0.56742000  0.89740300  0.23996800  1
  O  O9  1  0.43258000  0.10259700  0.76003200  1
  O  O10  1  0.64246200  0.71800800  0.18233500  1
  O  O11  1  0.35753800  0.28199200  0.81766500  1
  O  O12  1  0.54015500  0.72205100  0.33340300  1
  O  O13  1  0.45984500  0.27794900  0.66659700  1
  O  O14  1  0.27698500  0.70848200  0.18085900  1
  O  O15  1  0.72301500  0.29151800  0.81914100  1
  O  O16  1  0.03944700  0.78586300  0.26839600  1
  O  O17  1  0.96055300  0.21413700  0.73160400  1
  O  O18  1  0.25551900  0.99150300  0.51725400  1
  O  O19  1  0.74448100  0.00849700  0.48274600  1
  O  O20  1  0.39337700  0.98868200  0.35078700  1
  O  O21  1  0.60662300  0.01131800  0.64921300  1
  O  O22  1  0.95137400  0.98701200  0.35075500  1
  O  O23  1  0.04862600  0.01298800  0.64924500  1
  O  O24  1  0.91351000  0.77255300  0.44422800  1
  O  O25  1  0.08649000  0.22744700  0.55577200  1
  O  O26  1  0.32741600  0.77125600  0.44621000  1
  O  O27  1  0.67258400  0.22874400  0.55379000  1
  O  O28  1  0.80519200  0.30325300  0.31036000  1
  O  O29  1  0.19480800  0.69674700  0.68964000  1
  O  O30  1  0.79013200  0.54497300  0.11591100  1
  O  O31  1  0.20986800  0.45502700  0.88408900  1
  O  O32  1  0.05653100  0.66019000  0.86753500  1
  O  O33  1  0.94346900  0.33981000  0.13246500  1
  O  O34  1  0.67993700  0.51474900  0.29160200  1
  O  O35  1  0.32006300  0.48525100  0.70839800  1
  O  O36  1  0.51353900  0.30847600  0.14048700  1
  O  O37  1  0.48646100  0.69152400  0.85951300  1
  O  O38  1  0.10526300  0.52024400  0.28040400  1
  O  O39  1  0.89473700  0.47975600  0.71959600  1
  O  O40  1  0.31460300  0.19608200  0.96993700  1
  O  O41  1  0.68539700  0.80391800  0.03006300  1
  O  O42  1  0.14981400  0.79777200  0.02992300  1
  O  O43  1  0.85018600  0.20222800  0.97007700  1
  O  O44  1  0.41383400  0.95567800  0.88688000  1
  O  O45  1  0.58616600  0.04432200  0.11312000  1
  O  O46  1  0.08305300  0.04128700  0.12168200  1
  O  O47  1  0.91694700  0.95871300  0.87831800  1
  O  O48  1  0.23655200  0.49683700  0.49697900  1
  O  O49  1  0.76344800  0.50316300  0.50302100  1
  O  O50  1  0.75707700  0.49353600  0.93690900  1
  O  O51  1  0.24292300  0.50646400  0.06309100  1
loop_
_geom_bond_atom_site_label_1
_geom_bond_atom_site_label_2
_geom_bond_distance
_geom_bond_site_symmetry_2
Na0 O44 2.379973 1_554
Na0 O42 2.392932 1_555
Na0 O45 2.402092 1_565
Na0 O40 2.415714 1_564
Na0 O46 2.510634 1_565
Na0 O47 2.561117 1_454
Na1 O45 2.379973 1_556
Na1 O43 2.392932 1_555
Na1 O44 2.402092 1_545
Na1 O41 2.415714 1_546
Na1 O47 2.510634 1_545
Na1 O46 2.561117 1_656
Na2 O48 2.387525 1_555
Na2 O24 2.435267 1_455
Na2 O49 2.452539 1_455
Na2 O26 2.504608 1_555
Na2 O38 2.555801 1_555
Na2 O34 2.558854 1_455
Na3 O49 2.387525 1_555
Na3 O25 2.435267 1_655
Na3 O48 2.452539 1_655
Na3 O27 2.504608 1_555
Na3 O39 2.555801 1_555
Na3 O35 2.558854 1_655
Mg0 O18 2.047591 1_555
Mg0 O16 2.075833 1_555
Mg0 O20 2.097009 1_555
Mg0 O24 2.105593 1_455
Mg0 O22 2.124275 1_455
Mg0 O26 2.142753 1_555
Mg1 O19 2.047591 1_555
Mg1 O17 2.075833 1_555
Mg1 O21 2.097009 1_555
Mg1 O25 2.105593 1_655
Mg1 O23 2.124275 1_655
Mg1 O27 2.142753 1_555
Mg2 O36 2.071391 1_555
Mg2 O28 2.090521 1_555
Mg2 O30 2.096934 1_555
Mg2 O33 2.102003 1_555
Mg2 O34 2.108243 1_555
Mg2 O38 2.145054 1_655
Mg3 O37 2.071391 1_555
Mg3 O29 2.090521 1_555
Mg3 O31 2.096934 1_555
Mg3 O32 2.102003 1_555
Mg3 O35 2.108243 1_555
Mg3 O39 2.145054 1_455
H0 O16 1.003965 1_655
H0 O10 1.649124 1_555
H1 O17 1.003965 1_455
H1 O11 1.649124 1_555
H2 O16 1.000449 1_555
H2 O14 1.696925 1_555
H3 O17 1.000449 1_555
H3 O15 1.696925 1_555
H4 O18 0.995750 1_545
H5 O19 0.995750 1_565
H6 O18 0.991284 1_545
H7 O19 0.991284 1_565
H8 O20 1.019579 1_545
H8 O0 1.593030 1_555
H9 O21 1.019579 1_565
H9 O1 1.593030 1_555
H10 O20 1.004946 1_555
H10 O8 1.676540 1_555
H11 O21 1.004946 1_555
H11 O9 1.676540 1_555
H12 O22 1.016853 1_445
H12 O2 1.604695 1_555
H13 O23 1.016853 1_665
H13 O3 1.604695 1_555
H14 O22 1.002001 1_555
H14 O8 1.714231 1_555
H15 O23 1.002001 1_555
H15 O9 1.714231 1_555
H16 O24 1.001909 1_555
H16 O3 1.708200 1_555
H17 O25 1.001909 1_555
H17 O2 1.708200 1_555
H18 O24 1.011518 1_555
H18 O12 1.625337 1_555
H19 O25 1.011518 1_555
H19 O13 1.625337 1_555
H20 O26 1.001508 1_555
H20 O1 1.756218 1_555
H21 O27 1.001508 1_555
H21 O0 1.756218 1_555
H22 O26 1.008807 1_555
H22 O12 1.657594 1_555
H23 O27 1.008807 1_555
H23 O13 1.657594 1_555
H24 O28 1.001346 1_555
H24 O0 1.694551 1_555
H25 O29 1.001346 1_555
H25 O1 1.694551 1_555
H26 O28 1.005140 1_555
H26 O2 1.658411 1_655
H27 O29 1.005140 1_555
H27 O3 1.658411 1_455
H28 O30 0.982499 1_555
H29 O31 0.982499 1_555
H30 O30 1.003578 1_555
H31 O31 1.003578 1_555
H32 O32 1.024098 1_655
H32 O7 1.604152 1_555
H33 O33 1.024098 1_455
H33 O6 1.604152 1_555
H34 O32 0.986553 1_555
H35 O33 0.986553 1_555
H36 O34 0.982079 1_555
H37 O35 0.982079 1_555
H38 O34 1.008650 1_555
H39 O35 1.008650 1_555
H40 O36 1.003047 1_555
H40 O6 1.682629 1_555
H41 O37 1.003047 1_555
H41 O7 1.682629 1_555
H42 O36 0.990453 1_555
H43 O37 0.990453 1_555
H44 O38 0.990869 1_555
H45 O39 0.990869 1_555
H46 O38 0.999248 1_555
H47 O39 0.999248 1_555
H48 O40 0.972100 1_555
H49 O41 0.972100 1_555
H50 O40 1.024101 1_555
H50 O11 1.567694 1_555
H51 O41 1.024101 1_555
H51 O10 1.567694 1_555
H52 O42 1.026079 1_555
H52 O14 1.578743 1_555
H53 O43 1.026079 1_555
H53 O15 1.578743 1_555
H54 O42 0.973447 1_555
H55 O43 0.973447 1_555
H56 O44 0.972325 1_555
H57 O45 0.972325 1_555
H58 O44 1.008570 1_545
H58 O9 1.628980 1_555
H59 O45 1.008570 1_565
H59 O8 1.628980 1_555
H60 O46 1.008711 1_555
H60 O6 1.682615 1_555
H61 O47 1.008711 1_555
H61 O7 1.682615 1_555
H62 O46 0.973708 1_565
H63 O47 0.973708 1_545
H64 O48 0.986790 1_555
H65 O49 0.986790 1_555
H66 O48 0.992237 1_555
H67 O49 0.992237 1_555
H68 O50 0.989091 1_555
H69 O51 0.989091 1_555
H70 O50 0.983751 1_555
H71 O51 0.983751 1_555
O0 P0 1.553639 1_555
O1 P1 1.553639 1_555
O2 P0 1.556961 1_555
O3 P1 1.556961 1_555
O4 P0 1.568244 1_555
O5 P1 1.568244 1_555
O6 P0 1.570062 1_555
O7 P1 1.570062 1_555
O8 P2 1.562414 1_555
O9 P3 1.562414 1_555
O10 P2 1.565142 1_555
O11 P3 1.565142 1_555
O12 P2 1.538781 1_555
O13 P3 1.538781 1_555
O14 P2 1.571078 1_555
O15 P3 1.571078 1_555
