# generated using pymatgen
data_Gd2GaSbO7
_symmetry_space_group_name_H-M   'P 1'
_cell_length_a   7.33476070
_cell_length_b   7.33476070
_cell_length_c   7.33476070
_cell_angle_alpha   120.52678004
_cell_angle_beta   119.44565515
_cell_angle_gamma   90.02642240
_symmetry_Int_Tables_number   1
_chemical_formula_structural   Gd2GaSbO7
_chemical_formula_sum   'Gd4 Ga2 Sb2 O14'
_cell_volume   279.05188770
_cell_formula_units_Z   2
loop_
 _symmetry_equiv_pos_site_id
 _symmetry_equiv_pos_as_xyz
  1  'x, y, z'
loop_
 _atom_site_type_symbol
 _atom_site_label
 _atom_site_symmetry_multiplicity
 _atom_site_fract_x
 _atom_site_fract_y
 _atom_site_fract_z
 _atom_site_occupancy
  Gd  Gd0  1  0.50000000  0.00000000  0.00000000  1
  Gd  Gd1  1  0.50000000  0.50000000  0.50000000  1
  Gd  Gd2  1  0.50000000  0.00000000  0.50000000  1
  Gd  Gd3  1  0.00000000  0.00000000  0.00000000  1
  Ga  Ga0  1  0.00000000  0.50000000  0.00000000  1
  Ga  Ga1  1  0.00000000  0.00000000  0.50000000  1
  Sb  Sb0  1  0.00000000  0.50000000  0.50000000  1
  Sb  Sb1  1  0.50000000  0.50000000  0.00000000  1
  O  O0  1  0.91790500  0.16790500  0.75000000  1
  O  O1  1  0.33161600  0.58161600  0.75000000  1
  O  O2  1  0.91615800  0.57993200  0.74543700  1
  O  O3  1  0.33449500  0.17072200  0.75456300  1
  O  O4  1  0.91615800  0.17072200  0.33622700  1
  O  O5  1  0.33449500  0.57993200  0.16377300  1
  O  O6  1  0.08209500  0.83209500  0.25000000  1
  O  O7  1  0.66838400  0.41838400  0.25000000  1
  O  O8  1  0.08384200  0.42006800  0.25456300  1
  O  O9  1  0.66550500  0.82927800  0.24543700  1
  O  O10  1  0.08384200  0.82927800  0.66377300  1
  O  O11  1  0.66550500  0.42006800  0.83622700  1
  O  O12  1  0.62360100  0.87360100  0.75000000  1
  O  O13  1  0.37639900  0.12639900  0.25000000  1
loop_
_geom_bond_atom_site_label_1
_geom_bond_atom_site_label_2
_geom_bond_distance
_geom_bond_site_symmetry_2
Gd0 O12 2.225320 1_544
Gd0 O13 2.225320 1_555
Gd0 O7 2.521575 1_555
Gd0 O1 2.521575 1_544
Gd0 O4 2.534808 1_555
Gd0 O10 2.534808 1_544
Gd0 O3 2.534813 1_554
Gd0 O9 2.534813 1_545
Gd1 O12 2.225320 1_555
Gd1 O13 2.225320 1_555
Gd1 O7 2.521575 1_555
Gd1 O1 2.521575 1_555
Gd1 O2 2.534807 1_555
Gd1 O8 2.534807 1_555
Gd1 O11 2.534813 1_555
Gd1 O5 2.534813 1_555
Gd2 O13 2.266535 1_555
Gd2 O12 2.266535 1_545
Gd2 O3 2.526397 1_555
Gd2 O11 2.526397 1_555
Gd2 O5 2.526397 1_545
Gd2 O9 2.526397 1_545
Gd2 O0 2.539866 1_555
Gd2 O6 2.539866 1_545
Gd3 O13 2.266535 1_555
Gd3 O12 2.266535 1_444
Gd3 O2 2.526396 1_444
Gd3 O8 2.526396 1_555
Gd3 O10 2.526402 1_544
Gd3 O4 2.526402 1_455
Gd3 O0 2.539866 1_454
Gd3 O6 2.539866 1_545
Ga0 O6 2.008444 1_555
Ga0 O0 2.008444 1_454
Ga0 O2 2.047352 1_454
Ga0 O8 2.047352 1_555
Ga0 O11 2.047353 1_454
Ga0 O5 2.047353 1_555
Ga1 O0 2.008444 1_455
Ga1 O6 2.008444 1_545
Ga1 O3 2.047353 1_555
Ga1 O9 2.047353 1_445
Ga1 O4 2.047353 1_455
Ga1 O10 2.047353 1_545
O1 Sb0 2.033548 1_555
O1 Sb1 2.033548 1_556
O2 Sb0 1.994817 1_655
O3 Sb1 1.994812 1_556
O4 Sb0 1.994812 1_655
O5 Sb1 1.994812 1_555
O7 Sb0 2.033548 1_655
O7 Sb1 2.033548 1_555
O8 Sb0 1.994817 1_555
O9 Sb1 1.994812 1_555
O10 Sb0 1.994812 1_555
O11 Sb1 1.994812 1_556
