# generated using pymatgen
data_Ba(BO2)5
_symmetry_space_group_name_H-M   'P 1'
_cell_length_a   6.88797000
_cell_length_b   6.92757686
_cell_length_c   9.65322900
_cell_angle_alpha   100.80396163
_cell_angle_beta   87.47841558
_cell_angle_gamma   119.31826255
_symmetry_Int_Tables_number   1
_chemical_formula_structural   Ba(BO2)5
_chemical_formula_sum   'Ba2 B10 O20'
_cell_volume   393.88920343
_cell_formula_units_Z   2
loop_
 _symmetry_equiv_pos_site_id
 _symmetry_equiv_pos_as_xyz
  1  'x, y, z'
loop_
 _atom_site_type_symbol
 _atom_site_label
 _atom_site_symmetry_multiplicity
 _atom_site_fract_x
 _atom_site_fract_y
 _atom_site_fract_z
 _atom_site_occupancy
  Ba  Ba0  1  0.81485300  0.10114400  0.35191400  1
  Ba  Ba1  1  0.18514700  0.89885600  0.64808600  1
  B  B0  1  0.87194300  0.24913100  0.70398700  1
  B  B1  1  0.12805700  0.75086900  0.29601300  1
  B  B2  1  0.29307400  0.49074700  0.65806900  1
  B  B3  1  0.70692600  0.50925300  0.34193100  1
  B  B4  1  0.32297100  0.17484900  0.29730600  1
  B  B5  1  0.67702900  0.82515100  0.70269400  1
  B  B6  1  0.61249400  0.42970900  0.67697500  1
  B  B7  1  0.38750600  0.57029100  0.32302500  1
  B  B8  1  0.81640100  0.12845700  0.93109300  1
  B  B9  1  0.18359900  0.87154300  0.06890700  1
  O  O0  1  0.17287000  0.98283300  0.36132100  1
  O  O1  1  0.82713000  0.01716700  0.63867900  1
  O  O2  1  0.06977400  0.41714400  0.64024400  1
  O  O3  1  0.93022600  0.58285600  0.35975600  1
  O  O4  1  0.67032400  0.26543300  0.66601800  1
  O  O5  1  0.32967600  0.73456700  0.33398200  1
  O  O6  1  0.91065000  0.29925100  0.85705200  1
  O  O7  1  0.08935000  0.70074900  0.14294800  1
  O  O8  1  0.37917100  0.35199400  0.67709400  1
  O  O9  1  0.62082900  0.64800600  0.32290600  1
  O  O10  1  0.32051800  0.09076100  0.14321200  1
  O  O11  1  0.67948200  0.90923900  0.85678800  1
  O  O12  1  0.24664700  0.34586000  0.32015400  1
  O  O13  1  0.75335300  0.65414000  0.67984600  1
  O  O14  1  0.55888500  0.28892400  0.35214000  1
  O  O15  1  0.44111500  0.71107600  0.64786000  1
  O  O16  1  0.84529700  0.15437900  0.07447800  1
  O  O17  1  0.15470300  0.84562100  0.92552200  1
  O  O18  1  0.30603600  0.19731400  0.95876300  1
  O  O19  1  0.69396400  0.80268600  0.04123700  1
loop_
_geom_bond_atom_site_label_1
_geom_bond_atom_site_label_2
_geom_bond_distance
_geom_bond_site_symmetry_2
Ba0 O12 2.643966 1_655
Ba0 O14 2.654332 1_555
Ba0 O9 2.704366 1_545
Ba0 O16 2.756376 1_555
Ba0 O1 2.946369 1_555
Ba0 O0 2.964487 1_645
Ba0 O3 3.014458 1_555
Ba0 O5 3.036788 1_545
Ba0 O2 3.162852 1_655
Ba0 O19 3.189285 1_545
Ba0 O4 3.321196 1_555
Ba1 O13 2.643966 1_455
Ba1 O15 2.654332 1_555
Ba1 O8 2.704366 1_565
Ba1 O17 2.756376 1_555
Ba1 O0 2.946369 1_555
Ba1 O1 2.964487 1_465
Ba1 O2 3.014458 1_555
Ba1 O4 3.036788 1_565
Ba1 O3 3.162852 1_455
Ba1 O18 3.189285 1_565
Ba1 O5 3.321196 1_555
B0 O6 1.458262 1_555
B0 O1 1.492169 1_555
B0 O2 1.493875 1_655
B0 O4 1.513145 1_555
B1 O7 1.458262 1_555
B1 O0 1.492169 1_555
B1 O3 1.493875 1_455
B1 O5 1.513145 1_555
B2 O2 1.370276 1_555
B2 O15 1.379331 1_555
B2 O8 1.394051 1_555
B3 O3 1.370276 1_555
B3 O14 1.379331 1_555
B3 O9 1.394051 1_555
B4 O0 1.457856 1_545
B4 O14 1.485425 1_555
B4 O10 1.489970 1_555
B4 O12 1.493416 1_555
B5 O1 1.457856 1_565
B5 O15 1.485425 1_555
B5 O11 1.489970 1_555
B5 O13 1.493416 1_555
B6 O4 1.363849 1_555
B6 O13 1.366869 1_555
B6 O8 1.423171 1_555
B7 O5 1.363849 1_555
B7 O12 1.366869 1_555
B7 O9 1.423171 1_555
B8 O6 1.362428 1_555
B8 O16 1.372490 1_556
B8 O11 1.399554 1_545
B9 O7 1.362428 1_555
B9 O17 1.372490 1_554
B9 O10 1.399554 1_565
O10 O18 2.074987 1_554
O11 O19 2.074987 1_556
O16 O19 2.091577 1_545
O17 O18 2.091577 1_565
