# generated using pymatgen
data_Te3As2
_symmetry_space_group_name_H-M   'P 1'
_cell_length_a   16.35333600
_cell_length_b   7.06654200
_cell_length_c   10.79690149
_cell_angle_alpha   77.78047556
_cell_angle_beta   90.00000000
_cell_angle_gamma   90.00000000
_symmetry_Int_Tables_number   1
_chemical_formula_structural   Te3As2
_chemical_formula_sum   'Te24 As16'
_cell_volume   1219.43825958
_cell_formula_units_Z   8
loop_
 _symmetry_equiv_pos_site_id
 _symmetry_equiv_pos_as_xyz
  1  'x, y, z'
loop_
 _atom_site_type_symbol
 _atom_site_label
 _atom_site_symmetry_multiplicity
 _atom_site_fract_x
 _atom_site_fract_y
 _atom_site_fract_z
 _atom_site_occupancy
  Te  Te0  1  0.00000000  0.00000000  0.00000000  1
  Te  Te1  1  0.50000000  0.00000000  0.00000000  1
  Te  Te2  1  0.25000000  0.01023900  0.99381700  1
  Te  Te3  1  0.75000000  0.98976100  0.00618300  1
  Te  Te4  1  0.12564100  0.50710500  0.99421300  1
  Te  Te5  1  0.62564100  0.49289500  0.00578700  1
  Te  Te6  1  0.87435900  0.49289500  0.00578700  1
  Te  Te7  1  0.37435900  0.50710500  0.99421300  1
  Te  Te8  1  0.00135300  0.77402500  0.67151700  1
  Te  Te9  1  0.50135300  0.22597500  0.32848300  1
  Te  Te10  1  0.99864700  0.22597500  0.32848300  1
  Te  Te11  1  0.49864700  0.77402500  0.67151700  1
  Te  Te12  1  0.25000000  0.78603600  0.66939000  1
  Te  Te13  1  0.75000000  0.21396400  0.33061000  1
  Te  Te14  1  0.75000000  0.76333200  0.66617700  1
  Te  Te15  1  0.25000000  0.23666800  0.33382300  1
  Te  Te16  1  0.12492200  0.28175700  0.67037000  1
  Te  Te17  1  0.62492200  0.71824300  0.32963000  1
  Te  Te18  1  0.87507800  0.71824300  0.32963000  1
  Te  Te19  1  0.37507800  0.28175700  0.67037000  1
  Te  Te20  1  0.62321900  0.26207500  0.66421200  1
  Te  Te21  1  0.12321900  0.73792500  0.33578800  1
  Te  Te22  1  0.37678100  0.73792500  0.33578800  1
  Te  Te23  1  0.87678100  0.26207500  0.66421200  1
  As  As0  1  0.25000000  0.61993800  0.20274800  1
  As  As1  1  0.75000000  0.38006200  0.79725200  1
  As  As2  1  0.75000000  0.60287400  0.17782800  1
  As  As3  1  0.25000000  0.39712600  0.82217200  1
  As  As4  1  0.99136400  0.60299900  0.17032700  1
  As  As5  1  0.49136400  0.39700100  0.82967300  1
  As  As6  1  0.00863600  0.39700100  0.82967300  1
  As  As7  1  0.50863600  0.60299900  0.17032700  1
  As  As8  1  0.12908900  0.89687400  0.82754300  1
  As  As9  1  0.62908900  0.10312600  0.17245700  1
  As  As10  1  0.87091100  0.10312600  0.17245700  1
  As  As11  1  0.37091100  0.89687400  0.82754300  1
  As  As12  1  0.62129300  0.88925500  0.81665800  1
  As  As13  1  0.12129300  0.11074500  0.18334200  1
  As  As14  1  0.37870700  0.11074500  0.18334200  1
  As  As15  1  0.87870700  0.88925500  0.81665800  1
loop_
_geom_bond_atom_site_label_1
_geom_bond_atom_site_label_2
_geom_bond_distance
_geom_bond_site_symmetry_2
As0 Te22 2.750268 1_555
As0 Te21 2.750268 1_555
As0 Te15 2.777707 1_555
As0 Te2 3.172053 1_564
As0 Te7 3.255913 1_554
As0 Te4 3.255913 1_554
As1 Te23 2.750268 1_555
As1 Te20 2.750268 1_555
As1 Te14 2.777707 1_555
As1 Te3 3.172053 1_546
As1 Te5 3.255913 1_556
As1 Te6 3.255913 1_556
As2 Te18 2.846122 1_555
As2 Te17 2.846122 1_555
As2 Te13 2.890482 1_555
As2 Te3 2.960436 1_555
As2 Te5 2.966700 1_555
As2 Te6 2.966700 1_555
As3 Te19 2.846122 1_555
As3 Te16 2.846122 1_555
As3 Te12 2.890482 1_555
As3 Te2 2.960436 1_555
As3 Te7 2.966700 1_555
As3 Te4 2.966700 1_555
As4 Te18 2.798358 1_555
As4 Te6 2.829789 1_555
As4 Te10 2.846483 1_555
As4 Te0 3.014684 1_665
As4 Te4 3.072811 1_654
As4 Te21 3.077513 1_655
As5 Te19 2.798358 1_555
As5 Te7 2.829789 1_555
As5 Te11 2.846483 1_555
As5 Te1 3.014684 1_556
As5 Te5 3.072811 1_556
As5 Te20 3.077513 1_555
As6 Te16 2.798358 1_555
As6 Te4 2.829789 1_555
As6 Te8 2.846483 1_555
As6 Te0 3.014684 1_556
As6 Te6 3.072811 1_456
As6 Te23 3.077513 1_455
As7 Te17 2.798358 1_555
As7 Te5 2.829789 1_555
As7 Te9 2.846483 1_555
As7 Te1 3.014684 1_565
As7 Te7 3.072811 1_554
As7 Te22 3.077513 1_555
As8 Te12 2.829329 1_555
As8 Te16 2.885805 1_565
As8 Te2 2.895370 1_565
As8 Te8 2.928158 1_555
As8 Te4 2.954586 1_555
As8 Te0 3.004829 1_566
As9 Te13 2.829329 1_555
As9 Te17 2.885805 1_545
As9 Te3 2.895370 1_545
As9 Te9 2.928158 1_555
As9 Te5 2.954586 1_555
As9 Te1 3.004829 1_555
As10 Te13 2.829329 1_555
As10 Te18 2.885805 1_545
As10 Te3 2.895370 1_545
As10 Te10 2.928158 1_555
As10 Te6 2.954586 1_555
As10 Te0 3.004829 1_655
As11 Te12 2.829329 1_555
As11 Te19 2.885805 1_565
As11 Te2 2.895370 1_565
As11 Te11 2.928158 1_555
As11 Te7 2.954586 1_555
As11 Te1 3.004829 1_566
As12 Te11 2.771579 1_555
As12 Te20 2.795592 1_565
As12 Te14 2.910962 1_555
As12 Te1 3.020131 1_566
As12 Te5 3.098181 1_556
As12 Te3 3.120425 1_556
As13 Te10 2.771579 1_455
As13 Te21 2.795592 1_545
As13 Te15 2.910962 1_555
As13 Te0 3.020131 1_555
As13 Te4 3.098181 1_554
As13 Te2 3.120425 1_554
As14 Te9 2.771579 1_555
As14 Te22 2.795592 1_545
As14 Te15 2.910962 1_555
As14 Te1 3.020131 1_555
As14 Te7 3.098181 1_554
As14 Te2 3.120425 1_554
As15 Te8 2.771579 1_655
As15 Te23 2.795592 1_565
As15 Te14 2.910962 1_555
As15 Te0 3.020131 1_666
As15 Te6 3.098181 1_556
As15 Te3 3.120425 1_556
