# generated using pymatgen
data_Mn5H8S3O16
_symmetry_space_group_name_H-M   'P 1'
_cell_length_a   7.79693604
_cell_length_b   8.70493100
_cell_length_c   11.02427078
_cell_angle_alpha   90.00000000
_cell_angle_beta   101.79871760
_cell_angle_gamma   90.00000000
_symmetry_Int_Tables_number   1
_chemical_formula_structural   Mn5H8S3O16
_chemical_formula_sum   'Mn10 H16 S6 O32'
_cell_volume   732.42821662
_cell_formula_units_Z   2
loop_
 _symmetry_equiv_pos_site_id
 _symmetry_equiv_pos_as_xyz
  1  'x, y, z'
loop_
 _atom_site_type_symbol
 _atom_site_label
 _atom_site_symmetry_multiplicity
 _atom_site_fract_x
 _atom_site_fract_y
 _atom_site_fract_z
 _atom_site_occupancy
  Mn  Mn0  1  0.54913000  0.75000000  0.10911000  1
  Mn  Mn1  1  0.45087000  0.25000000  0.89089000  1
  Mn  Mn2  1  0.19240300  0.05170100  0.10476700  1
  Mn  Mn3  1  0.80759700  0.55170100  0.89523300  1
  Mn  Mn4  1  0.80759700  0.94829900  0.89523300  1
  Mn  Mn5  1  0.19240300  0.44829900  0.10476700  1
  Mn  Mn6  1  0.54884100  0.94603900  0.36085800  1
  Mn  Mn7  1  0.45115900  0.44603900  0.63914200  1
  Mn  Mn8  1  0.45115900  0.05396100  0.63914200  1
  Mn  Mn9  1  0.54884100  0.55396100  0.36085800  1
  H  H0  1  0.88686300  0.03036200  0.33176500  1
  H  H1  1  0.11313700  0.53036200  0.66823500  1
  H  H2  1  0.11313700  0.96963800  0.66823500  1
  H  H3  1  0.88686300  0.46963800  0.33176500  1
  H  H4  1  0.85768300  0.12244800  0.45162100  1
  H  H5  1  0.14231700  0.62244800  0.54837900  1
  H  H6  1  0.14231700  0.87755200  0.54837900  1
  H  H7  1  0.85768300  0.37755200  0.45162100  1
  H  H8  1  0.53001800  0.06180400  0.13576700  1
  H  H9  1  0.46998200  0.56180400  0.86423300  1
  H  H10  1  0.46998200  0.93819600  0.86423300  1
  H  H11  1  0.53001800  0.43819600  0.13576700  1
  H  H12  1  0.80877000  0.75000000  0.33583400  1
  H  H13  1  0.19122900  0.25000000  0.66416600  1
  H  H14  1  0.86878000  0.75000000  0.07966900  1
  H  H15  1  0.13122000  0.25000000  0.92033100  1
  S  S0  1  0.16357600  0.75000000  0.88732200  1
  S  S1  1  0.83642400  0.25000000  0.11267800  1
  S  S2  1  0.26858900  0.25000000  0.38633600  1
  S  S3  1  0.73141100  0.75000000  0.61366400  1
  S  S4  1  0.14997900  0.75000000  0.30741400  1
  S  S5  1  0.85002100  0.25000000  0.69258600  1
  O  O0  1  0.36419200  0.75000000  0.93302200  1
  O  O1  1  0.63580800  0.25000000  0.06697800  1
  O  O2  1  0.09653000  0.89121900  0.95119400  1
  O  O3  1  0.90347000  0.39121900  0.04880600  1
  O  O4  1  0.90347000  0.10878100  0.04880600  1
  O  O5  1  0.09653000  0.60878100  0.95119400  1
  O  O6  1  0.38734600  0.10897000  0.43248300  1
  O  O7  1  0.61265400  0.60897000  0.56751700  1
  O  O8  1  0.61265400  0.89103000  0.56751700  1
  O  O9  1  0.38734600  0.39103000  0.43248300  1
  O  O10  1  0.25096500  0.25000000  0.24407800  1
  O  O11  1  0.74903500  0.75000000  0.75592200  1
  O  O12  1  0.07439200  0.75000000  0.42133000  1
  O  O13  1  0.92560800  0.25000000  0.57867000  1
  O  O14  1  0.34730300  0.75000000  0.34184300  1
  O  O15  1  0.65269700  0.25000000  0.65815700  1
  O  O16  1  0.09007700  0.60909200  0.23465700  1
  O  O17  1  0.90992300  0.10909200  0.76534300  1
  O  O18  1  0.90992300  0.39090800  0.76534300  1
  O  O19  1  0.09007700  0.89090800  0.23465700  1
  O  O20  1  0.79909800  0.06417500  0.37762400  1
  O  O21  1  0.20090200  0.56417500  0.62237600  1
  O  O22  1  0.20090200  0.93582500  0.62237600  1
  O  O23  1  0.79909800  0.43582500  0.37762400  1
  O  O24  1  0.46043500  0.97688000  0.15964400  1
  O  O25  1  0.53956500  0.47688000  0.84035600  1
  O  O26  1  0.53956500  0.02312000  0.84035600  1
  O  O27  1  0.46043500  0.52312000  0.15964400  1
  O  O28  1  0.68181700  0.75000000  0.30389700  1
  O  O29  1  0.31818300  0.25000000  0.69610300  1
  O  O30  1  0.76222700  0.75000000  0.01489900  1
  O  O31  1  0.23777300  0.25000000  0.98510100  1
loop_
_geom_bond_atom_site_label_1
_geom_bond_atom_site_label_2
_geom_bond_distance
_geom_bond_site_symmetry_2
Mn0 O30 2.131901 1_555
Mn0 O0 2.168622 1_554
Mn0 O28 2.184730 1_555
Mn0 O27 2.201517 1_555
Mn0 O24 2.201517 1_555
Mn1 O31 2.131901 1_555
Mn1 O1 2.168622 1_556
Mn1 O29 2.184730 1_555
Mn1 O25 2.201517 1_555
Mn1 O26 2.201517 1_555
Mn2 O24 2.154195 1_545
Mn2 O2 2.204347 1_544
Mn2 O31 2.244114 1_554
Mn2 O19 2.261267 1_545
Mn2 O4 2.265877 1_455
Mn2 O10 2.293489 1_555
Mn3 O25 2.154195 1_555
Mn3 O3 2.204347 1_556
Mn3 O30 2.244114 1_556
Mn3 O18 2.261267 1_555
Mn3 O5 2.265877 1_655
Mn3 O11 2.293489 1_555
Mn4 O26 2.154195 1_565
Mn4 O4 2.204347 1_566
Mn4 O30 2.244114 1_556
Mn4 O17 2.261267 1_565
Mn4 O2 2.265877 1_655
Mn4 O11 2.293489 1_555
Mn5 O27 2.154195 1_555
Mn5 O5 2.204347 1_554
Mn5 O31 2.244114 1_554
Mn5 O16 2.261267 1_555
Mn5 O3 2.265877 1_455
Mn5 O10 2.293489 1_555
Mn6 O6 2.151086 1_565
Mn6 O28 2.155854 1_555
Mn6 O20 2.179803 1_565
Mn6 O24 2.200566 1_555
Mn6 O8 2.281179 1_555
Mn6 O14 2.300137 1_555
Mn7 O7 2.151086 1_555
Mn7 O29 2.155854 1_555
Mn7 O21 2.179803 1_555
Mn7 O25 2.200566 1_555
Mn7 O9 2.281179 1_555
Mn7 O15 2.300137 1_555
Mn8 O8 2.151086 1_545
Mn8 O29 2.155854 1_555
Mn8 O22 2.179803 1_545
Mn8 O26 2.200566 1_555
Mn8 O6 2.281179 1_555
Mn8 O15 2.300137 1_555
Mn9 O9 2.151086 1_555
Mn9 O28 2.155854 1_555
Mn9 O23 2.179803 1_555
Mn9 O27 2.200566 1_555
Mn9 O7 2.281179 1_555
Mn9 O14 2.300137 1_555
H0 O20 0.975690 1_555
H1 O21 0.975690 1_555
H2 O22 0.975690 1_555
H3 O23 0.975690 1_555
H4 O20 0.989470 1_555
H5 O21 0.989470 1_555
H6 O22 0.989470 1_555
H7 O23 0.989470 1_555
H8 O24 0.984142 1_545
H9 O25 0.984142 1_555
H10 O26 0.984142 1_565
H11 O27 0.984142 1_555
H12 O28 0.980425 1_555
H13 O29 0.980432 1_555
H14 O30 0.978503 1_555
H15 O31 0.978503 1_555
O0 S0 1.542155 1_555
O1 S1 1.542155 1_555
O2 S0 1.559103 1_555
O3 S1 1.559103 1_555
O4 S1 1.559103 1_555
O5 S0 1.559103 1_555
O6 S2 1.559064 1_555
O7 S3 1.559064 1_555
O8 S3 1.559064 1_555
O9 S2 1.559064 1_555
O10 S2 1.546056 1_555
O11 S3 1.546056 1_555
O12 S4 1.492360 1_555
O13 S5 1.492360 1_555
O14 S4 1.507417 1_555
O15 S5 1.507417 1_555
O16 S4 1.487557 1_555
O17 S5 1.487557 1_555
O18 S5 1.487557 1_555
O19 S4 1.487557 1_555
