# generated using pymatgen
data_Ca3(Si4P7)2
_symmetry_space_group_name_H-M   'P 1'
_cell_length_a   13.53349600
_cell_length_b   6.25772200
_cell_length_c   12.21674779
_cell_angle_alpha   89.04280496
_cell_angle_beta   90.00000000
_cell_angle_gamma   90.00000000
_symmetry_Int_Tables_number   1
_chemical_formula_structural   Ca3(Si4P7)2
_chemical_formula_sum   'Ca6 Si16 P28'
_cell_volume   1034.47801346
_cell_formula_units_Z   2
loop_
 _symmetry_equiv_pos_site_id
 _symmetry_equiv_pos_as_xyz
  1  'x, y, z'
loop_
 _atom_site_type_symbol
 _atom_site_label
 _atom_site_symmetry_multiplicity
 _atom_site_fract_x
 _atom_site_fract_y
 _atom_site_fract_z
 _atom_site_occupancy
  Ca  Ca0  1  0.50000000  0.50000000  0.50000000  1
  Ca  Ca1  1  0.00000000  0.00000000  0.50000000  1
  Ca  Ca2  1  0.34349600  0.32162300  0.16745400  1
  Ca  Ca3  1  0.84349600  0.17837700  0.83254600  1
  Ca  Ca4  1  0.65650400  0.67837700  0.83254600  1
  Ca  Ca5  1  0.15650400  0.82162300  0.16745400  1
  Si  Si0  1  0.68713800  0.03658600  0.58382200  1
  Si  Si1  1  0.18713800  0.46341400  0.41617800  1
  Si  Si2  1  0.31286200  0.96341400  0.41617800  1
  Si  Si3  1  0.81286200  0.53658600  0.58382200  1
  Si  Si4  1  0.68602900  0.04223800  0.38890700  1
  Si  Si5  1  0.18602900  0.45776200  0.61109300  1
  Si  Si6  1  0.31397100  0.95776200  0.61109300  1
  Si  Si7  1  0.81397100  0.54223800  0.38890700  1
  Si  Si8  1  0.68774600  0.38309700  0.15024500  1
  Si  Si9  1  0.18774600  0.11690300  0.84975500  1
  Si  Si10  1  0.31225400  0.61690300  0.84975500  1
  Si  Si11  1  0.81225400  0.88309700  0.15024500  1
  Si  Si12  1  0.95415600  0.38247100  0.15288900  1
  Si  Si13  1  0.45415600  0.11752900  0.84711100  1
  Si  Si14  1  0.04584400  0.61752900  0.84711100  1
  Si  Si15  1  0.54584400  0.88247100  0.15288900  1
  P  P0  1  0.95294800  0.37075800  0.33832000  1
  P  P1  1  0.45294800  0.12924200  0.66168000  1
  P  P2  1  0.04705200  0.62924200  0.66168000  1
  P  P3  1  0.54705200  0.87075800  0.33832000  1
  P  P4  1  0.55256100  0.22451100  0.08171900  1
  P  P5  1  0.05256100  0.27548900  0.91828100  1
  P  P6  1  0.44743900  0.77548900  0.91828100  1
  P  P7  1  0.94743900  0.72451100  0.08171900  1
  P  P8  1  0.94726100  0.35750900  0.64126000  1
  P  P9  1  0.44726100  0.14249100  0.35874000  1
  P  P10  1  0.05273900  0.64249100  0.35874000  1
  P  P11  1  0.55273900  0.85750900  0.64126000  1
  P  P12  1  0.10562400  0.28825400  0.09126700  1
  P  P13  1  0.60562400  0.21174600  0.90873300  1
  P  P14  1  0.89437600  0.71174600  0.90873300  1
  P  P15  1  0.39437600  0.78825400  0.09126700  1
  P  P16  1  0.82093100  0.21713100  0.07469600  1
  P  P17  1  0.32093100  0.28286900  0.92530400  1
  P  P18  1  0.17906900  0.78286900  0.92530400  1
  P  P19  1  0.67906900  0.71713100  0.07469600  1
  P  P20  1  0.67161600  0.38941000  0.33353400  1
  P  P21  1  0.17161600  0.11059000  0.66646600  1
  P  P22  1  0.32838400  0.61059000  0.66646600  1
  P  P23  1  0.82838400  0.88941000  0.33353400  1
  P  P24  1  0.67727000  0.37165300  0.64679200  1
  P  P25  1  0.17727000  0.12834700  0.35320800  1
  P  P26  1  0.32273000  0.62834700  0.35320800  1
  P  P27  1  0.82273000  0.87165300  0.64679200  1
loop_
_geom_bond_atom_site_label_1
_geom_bond_atom_site_label_2
_geom_bond_distance
_geom_bond_site_symmetry_2
Ca0 P9 2.936260 1_555
Ca0 P11 2.936260 1_555
Ca0 P3 3.088150 1_555
Ca0 P1 3.088150 1_555
Ca0 P26 3.093306 1_555
Ca0 P24 3.093306 1_555
Ca0 P22 3.171132 1_555
Ca0 P20 3.171132 1_555
Ca1 P10 2.936260 1_545
Ca1 P8 2.936260 1_455
Ca1 P2 3.088150 1_545
Ca1 P0 3.088150 1_455
Ca1 P25 3.093306 1_555
Ca1 P27 3.093306 1_445
Ca1 P23 3.171132 1_445
Ca1 P21 3.171132 1_555
Ca2 P9 2.932944 1_555
Ca2 P17 2.987891 1_554
Ca2 P26 3.009709 1_555
Ca2 P4 3.081073 1_555
Ca2 P15 3.126712 1_555
Ca2 P12 3.358558 1_555
Ca2 P25 3.403184 1_555
Ca2 P15 3.547439 1_545
Ca3 P8 2.932944 1_555
Ca3 P16 2.987891 1_556
Ca3 P27 3.009709 1_545
Ca3 P5 3.081073 1_655
Ca3 P14 3.126712 1_545
Ca3 P13 3.358558 1_555
Ca3 P24 3.403184 1_555
Ca3 P14 3.547439 1_555
Ca4 P11 2.932944 1_555
Ca4 P19 2.987891 1_556
Ca4 P24 3.009709 1_555
Ca4 P6 3.081073 1_555
Ca4 P13 3.126712 1_555
Ca4 P14 3.358558 1_555
Ca4 P27 3.403184 1_555
Ca4 P13 3.547439 1_565
Ca5 P10 2.932944 1_555
Ca5 P18 2.987891 1_554
Ca5 P25 3.009709 1_565
Ca5 P7 3.081073 1_455
Ca5 P12 3.126712 1_565
Ca5 P15 3.358558 1_555
Ca5 P26 3.403184 1_555
Ca5 P12 3.547439 1_555
Si0 Si4 2.380946 1_555
Si1 Si5 2.380946 1_555
Si2 Si6 2.380946 1_555
Si3 Si7 2.380946 1_555
P0 P10 2.189012 1_655
P0 Si7 2.256802 1_555
P0 Si12 2.265384 1_555
P1 P11 2.189012 1_545
P1 Si6 2.256802 1_545
P1 Si13 2.265384 1_555
P2 P8 2.189012 1_455
P2 Si5 2.256802 1_555
P2 Si14 2.265384 1_555
P3 P9 2.189012 1_565
P3 Si4 2.256802 1_565
P3 Si15 2.265384 1_555
P4 Si8 2.249577 1_555
P4 Si15 2.298550 1_545
P5 Si9 2.249577 1_555
P5 Si14 2.298550 1_555
P6 Si10 2.249577 1_555
P6 Si13 2.298550 1_565
P7 Si11 2.249577 1_555
P7 Si12 2.298550 1_555
P8 Si3 2.242822 1_555
P9 Si2 2.242822 1_545
P10 Si1 2.242822 1_555
P11 Si0 2.242822 1_565
P12 P5 2.234698 1_554
P12 Si12 2.265222 1_455
P13 P4 2.234698 1_556
P13 Si13 2.265222 1_555
P14 P7 2.234698 1_556
P14 Si14 2.265222 1_655
P15 P6 2.234698 1_554
P15 Si15 2.265222 1_555
P16 Si11 2.273876 1_545
P16 Si8 2.282843 1_555
P16 Si12 2.294965 1_555
P17 Si10 2.273876 1_555
P17 Si9 2.282843 1_555
P17 Si13 2.294965 1_555
P18 Si9 2.273876 1_565
P18 Si10 2.282843 1_555
P18 Si14 2.294965 1_555
P19 Si8 2.273876 1_555
P19 Si11 2.282843 1_555
P19 Si15 2.294965 1_555
P20 Si8 2.250814 1_555
P20 Si7 2.259533 1_555
P20 Si4 2.272961 1_555
P21 Si9 2.250814 1_555
P21 Si6 2.259533 1_545
P21 Si5 2.272961 1_555
P22 Si10 2.250814 1_555
P22 Si5 2.259533 1_555
P22 Si6 2.272961 1_555
P23 Si11 2.250814 1_555
P23 Si4 2.259533 1_565
P23 Si7 2.272961 1_555
P24 Si3 2.235591 1_555
P24 Si0 2.249426 1_555
P25 Si2 2.235591 1_545
P25 Si1 2.249426 1_555
P26 Si1 2.235591 1_555
P26 Si2 2.249426 1_555
P27 Si0 2.235591 1_565
P27 Si3 2.249426 1_555
