# generated using pymatgen
data_Eu5As4
_symmetry_space_group_name_H-M   'P 1'
_cell_length_a   8.01455700
_cell_length_b   8.05322400
_cell_length_c   8.67334303
_cell_angle_alpha   90.00000000
_cell_angle_beta   117.51768077
_cell_angle_gamma   90.00000000
_symmetry_Int_Tables_number   1
_chemical_formula_structural   Eu5As4
_chemical_formula_sum   'Eu10 As8'
_cell_volume   496.47222460
_cell_formula_units_Z   2
loop_
 _symmetry_equiv_pos_site_id
 _symmetry_equiv_pos_as_xyz
  1  'x, y, z'
loop_
 _atom_site_type_symbol
 _atom_site_label
 _atom_site_symmetry_multiplicity
 _atom_site_fract_x
 _atom_site_fract_y
 _atom_site_fract_z
 _atom_site_occupancy
  Eu  Eu0  1  0.18850400  0.16510000  0.71725200  1
  Eu  Eu1  1  0.52874800  0.83490000  0.71725200  1
  Eu  Eu2  1  0.02874800  0.66510000  0.71725200  1
  Eu  Eu3  1  0.68850400  0.33490000  0.71725200  1
  Eu  Eu4  1  0.81149600  0.83490000  0.28274800  1
  Eu  Eu5  1  0.47125200  0.16510000  0.28274800  1
  Eu  Eu6  1  0.97125200  0.33490000  0.28274800  1
  Eu  Eu7  1  0.31149600  0.66510000  0.28274800  1
  Eu  Eu8  1  0.50000000  0.50000000  0.00000000  1
  Eu  Eu9  1  0.00000000  0.00000000  0.00000000  1
  As  As0  1  0.29989700  0.50000000  0.59979500  1
  As  As1  1  0.79989700  0.00000000  0.59979500  1
  As  As2  1  0.70010300  0.50000000  0.40020500  1
  As  As3  1  0.20010300  0.00000000  0.40020500  1
  As  As4  1  0.62444700  0.12452100  0.00000000  1
  As  As5  1  0.37555300  0.87547900  0.00000000  1
  As  As6  1  0.87555300  0.62452100  0.00000000  1
  As  As7  1  0.12444700  0.37547900  0.00000000  1
loop_
_geom_bond_atom_site_label_1
_geom_bond_atom_site_label_2
_geom_bond_distance
_geom_bond_site_symmetry_2
As0 Eu8 3.078422 1_556
As0 Eu2 3.094171 1_555
As0 Eu3 3.094178 1_555
As0 Eu6 3.094245 1_455
As0 Eu7 3.094248 1_555
As0 Eu0 3.154240 1_555
As0 Eu1 3.154244 1_555
As1 Eu9 3.078422 1_656
As1 Eu1 3.094171 1_545
As1 Eu0 3.094178 1_655
As1 Eu5 3.094245 1_555
As1 Eu4 3.094248 1_545
As1 Eu3 3.154240 1_555
As1 Eu2 3.154244 1_645
As2 Eu8 3.078422 1_555
As2 Eu6 3.094171 1_555
As2 Eu7 3.094178 1_555
As2 Eu2 3.094245 1_655
As2 Eu3 3.094248 1_555
As2 Eu4 3.154240 1_555
As2 Eu5 3.154244 1_555
As3 Eu9 3.078422 1_555
As3 Eu5 3.094171 1_555
As3 Eu4 3.094178 1_445
As3 Eu1 3.094245 1_545
As3 Eu0 3.094248 1_555
As3 Eu7 3.154240 1_545
As3 Eu6 3.154244 1_455
As4 As5 2.828696 1_545
As4 Eu9 3.172545 1_655
As4 Eu8 3.184062 1_555
As4 Eu1 3.210036 1_544
As4 Eu4 3.210036 1_545
As4 Eu3 3.211151 1_554
As4 Eu6 3.211151 1_555
As4 Eu5 3.226558 1_555
As4 Eu0 3.226558 1_554
As5 Eu9 3.172545 1_565
As5 Eu8 3.184062 1_555
As5 Eu5 3.210036 1_565
As5 Eu0 3.210036 1_564
As5 Eu7 3.211151 1_555
As5 Eu2 3.211151 1_554
As5 Eu1 3.226558 1_554
As5 Eu4 3.226558 1_555
As6 As7 2.828696 1_655
As6 Eu8 3.172545 1_555
As6 Eu9 3.184062 1_665
As6 Eu6 3.210036 1_555
As6 Eu3 3.210036 1_554
As6 Eu4 3.211151 1_555
As6 Eu1 3.211151 1_554
As6 Eu2 3.226558 1_654
As6 Eu7 3.226558 1_655
As7 Eu8 3.172545 1_555
As7 Eu9 3.184062 1_555
As7 Eu2 3.210036 1_554
As7 Eu7 3.210036 1_555
As7 Eu0 3.211151 1_554
As7 Eu5 3.211151 1_555
As7 Eu6 3.226558 1_455
As7 Eu3 3.226558 1_454
