# generated using pymatgen
data_Ba6Pr2Mg(Ru2O9)2
_symmetry_space_group_name_H-M   'P 1'
_cell_length_a   6.05828333
_cell_length_b   6.05828279
_cell_length_c   15.25662983
_cell_angle_alpha   87.28267110
_cell_angle_beta   92.71732902
_cell_angle_gamma   119.26125562
_symmetry_Int_Tables_number   1
_chemical_formula_structural   Ba6Pr2Mg(Ru2O9)2
_chemical_formula_sum   'Ba6 Pr2 Mg1 Ru4 O18'
_cell_volume   487.77187942
_cell_formula_units_Z   1
loop_
 _symmetry_equiv_pos_site_id
 _symmetry_equiv_pos_as_xyz
  1  'x, y, z'
loop_
 _atom_site_type_symbol
 _atom_site_label
 _atom_site_symmetry_multiplicity
 _atom_site_fract_x
 _atom_site_fract_y
 _atom_site_fract_z
 _atom_site_occupancy
  Ba  Ba0  1  0.29651772  0.70348228  0.63953666  1
  Ba  Ba1  1  0.02237863  0.97762137  0.24015695  1
  Ba  Ba2  1  0.70348228  0.29651772  0.36046334  1
  Ba  Ba3  1  0.67341757  0.32658243  0.08875119  1
  Ba  Ba4  1  0.32658243  0.67341757  0.91124881  1
  Ba  Ba5  1  0.97762137  0.02237863  0.75984305  1
  Pr  Pr0  1  0.00000000  0.00000000  0.50000000  1
  Pr  Pr1  1  0.00000000  0.00000000  0.00000000  1
  Mg  Mg0  1  0.50000000  0.50000000  0.50000000  1
  Ru  Ru0  1  0.33355826  0.66644174  0.32821926  1
  Ru  Ru1  1  0.65176045  0.34823955  0.83750905  1
  Ru  Ru2  1  0.66644174  0.33355826  0.67178074  1
  Ru  Ru3  1  0.34823955  0.65176045  0.16249095  1
  O  O0  1  0.20181895  0.79818105  0.07456068  1
  O  O1  1  0.20377562  0.33541945  0.09642268  1
  O  O2  1  0.66458055  0.79622438  0.09642268  1
  O  O3  1  0.36365295  0.19924503  0.58592430  1
  O  O4  1  0.79622438  0.66458055  0.90357732  1
  O  O5  1  0.82387064  0.17612936  0.60329747  1
  O  O6  1  0.80075497  0.63634705  0.58592430  1
  O  O7  1  0.17612936  0.82387064  0.39670253  1
  O  O8  1  0.63634705  0.80075497  0.41407570  1
  O  O9  1  0.33541945  0.20377562  0.90357732  1
  O  O10  1  0.79818105  0.20181895  0.92543932  1
  O  O11  1  0.19924503  0.36365295  0.41407570  1
  O  O12  1  0.48998721  0.97041418  0.23742083  1
  O  O13  1  0.50559047  0.49440953  0.74269110  1
  O  O14  1  0.97041418  0.48998721  0.76257917  1
  O  O15  1  0.02958582  0.51001279  0.23742083  1
  O  O16  1  0.49440953  0.50559047  0.25730890  1
  O  O17  1  0.51001279  0.02958582  0.76257917  1
loop_
_geom_bond_atom_site_label_1
_geom_bond_atom_site_label_2
_geom_bond_distance
_geom_bond_site_symmetry_2
Ba0 O17 2.592944 1_565
Ba0 O14 2.592944 1_455
Ba0 O13 2.622180 1_555
Ba0 O3 2.908556 1_565
Ba0 O6 2.908557 1_455
Ba0 O5 3.128289 1_455
Ba0 O5 3.128289 1_565
Ba1 O7 2.804606 1_555
Ba1 O15 2.856800 1_555
Ba1 O12 2.856800 1_555
Ba1 O1 2.857312 1_565
Ba1 O2 2.857313 1_455
Ba1 O16 3.089295 1_565
Ba1 O16 3.089295 1_455
Ba1 O15 3.202568 1_565
Ba1 O12 3.202569 1_455
Ba1 O0 3.228406 1_555
Ba1 O11 3.395181 1_565
Ba1 O8 3.395181 1_455
Ba2 O12 2.592944 1_545
Ba2 O15 2.592944 1_655
Ba2 O16 2.622180 1_555
Ba2 O8 2.908556 1_545
Ba2 O11 2.908557 1_655
Ba2 O7 3.128289 1_655
Ba2 O7 3.128289 1_545
Ba3 O10 2.875114 1_554
Ba3 O2 2.879747 1_555
Ba3 O1 2.879747 1_555
Ba3 O12 2.909712 1_545
Ba3 O15 2.909712 1_655
Ba3 O0 3.086010 1_545
Ba3 O0 3.086010 1_655
Ba3 O2 3.183879 1_545
Ba3 O1 3.183880 1_655
Ba3 O16 3.262522 1_555
Ba3 O4 3.299904 1_554
Ba3 O9 3.299904 1_554
Ba4 O0 2.875114 1_556
Ba4 O9 2.879747 1_555
Ba4 O4 2.879747 1_555
Ba4 O17 2.909712 1_565
Ba4 O14 2.909712 1_455
Ba4 O10 3.086010 1_565
Ba4 O10 3.086010 1_455
Ba4 O9 3.183879 1_565
Ba4 O4 3.183880 1_455
Ba4 O13 3.262522 1_555
Ba4 O1 3.299904 1_556
Ba4 O2 3.299904 1_556
Ba5 O5 2.804606 1_555
Ba5 O14 2.856800 1_555
Ba5 O17 2.856800 1_555
Ba5 O4 2.857312 1_545
Ba5 O9 2.857313 1_655
Ba5 O13 3.089295 1_545
Ba5 O13 3.089295 1_655
Ba5 O14 3.202568 1_545
Ba5 O17 3.202569 1_655
Ba5 O10 3.228406 1_555
Ba5 O6 3.395181 1_545
Ba5 O3 3.395181 1_655
Mg0 O3 2.031152 1_555
Mg0 O8 2.031152 1_555
Mg0 O6 2.031152 1_555
Mg0 O11 2.031152 1_555
O0 Ru3 1.979137 1_555
O0 Pr1 2.341273 1_565
O1 Ru3 1.978564 1_555
O1 Pr1 2.340144 1_555
O2 Ru3 1.978564 1_555
O2 Pr1 2.340144 1_665
O3 Ru2 2.038847 1_555
O3 Pr0 2.303414 1_555
O4 Ru1 1.978564 1_555
O4 Pr1 2.340144 1_666
O5 Ru2 1.997285 1_555
O5 Pr0 2.488532 1_655
O6 Ru2 2.038847 1_555
O6 Pr0 2.303414 1_665
O7 Ru0 1.997285 1_555
O7 Pr0 2.488532 1_565
O8 Ru0 2.038847 1_555
O8 Pr0 2.303414 1_665
O9 Ru1 1.978564 1_555
O9 Pr1 2.340144 1_556
O10 Ru1 1.979137 1_555
O10 Pr1 2.341273 1_656
O11 Ru0 2.038847 1_555
O11 Pr0 2.303414 1_555
O12 Ru3 2.065583 1_555
O12 Ru0 2.094019 1_555
O13 Ru1 2.045652 1_555
O13 Ru2 2.048875 1_555
O14 Ru1 2.065583 1_555
O14 Ru2 2.094019 1_555
O15 Ru3 2.065583 1_555
O15 Ru0 2.094019 1_555
O16 Ru3 2.045652 1_555
O16 Ru0 2.048875 1_555
O17 Ru1 2.065583 1_555
O17 Ru2 2.094019 1_555
