# generated using pymatgen
data_Li2Cr3CuO8
_symmetry_space_group_name_H-M   'P 1'
_cell_length_a   8.38347036
_cell_length_b   8.35182892
_cell_length_c   8.35702419
_cell_angle_alpha   89.65577148
_cell_angle_beta   89.72418051
_cell_angle_gamma   89.86986233
_symmetry_Int_Tables_number   1
_chemical_formula_structural   Li2Cr3CuO8
_chemical_formula_sum   'Li8 Cr12 Cu4 O32'
_cell_volume   585.11754384
_cell_formula_units_Z   4
loop_
 _symmetry_equiv_pos_site_id
 _symmetry_equiv_pos_as_xyz
  1  'x, y, z'
loop_
 _atom_site_type_symbol
 _atom_site_label
 _atom_site_symmetry_multiplicity
 _atom_site_fract_x
 _atom_site_fract_y
 _atom_site_fract_z
 _atom_site_occupancy
  Li  Li0  1  0.00299400  0.00342300  0.00127900  1
  Li  Li1  1  0.25027900  0.24715800  0.24922800  1
  Li  Li2  1  0.24939100  0.74957200  0.74962700  1
  Li  Li3  1  0.50148000  0.00244000  0.50127700  1
  Li  Li4  1  0.50251700  0.49971000  0.99977200  1
  Li  Li5  1  0.74678200  0.24960600  0.75250800  1
  Li  Li6  1  0.74855100  0.74602000  0.25098300  1
  Li  Li7  1  0.99959400  0.50336800  0.49868700  1
  Cr  Cr0  1  0.12190900  0.12721500  0.62570000  1
  Cr  Cr1  1  0.12741800  0.37497800  0.87806800  1
  Cr  Cr2  1  0.12885500  0.62115600  0.12496700  1
  Cr  Cr3  1  0.37537600  0.37297500  0.62691600  1
  Cr  Cr4  1  0.37536800  0.62462500  0.37496900  1
  Cr  Cr5  1  0.37551300  0.87533100  0.12770400  1
  Cr  Cr6  1  0.62388000  0.37434300  0.37491800  1
  Cr  Cr7  1  0.62363300  0.12561100  0.12427200  1
  Cr  Cr8  1  0.62624400  0.87576900  0.87528800  1
  Cr  Cr9  1  0.87404400  0.12352500  0.37266400  1
  Cr  Cr10  1  0.87328900  0.87618700  0.62412500  1
  Cr  Cr11  1  0.87318900  0.62471600  0.87657300  1
  Cu  Cu0  1  0.12546100  0.87604900  0.37404800  1
  Cu  Cu1  1  0.37575600  0.12550300  0.87545200  1
  Cu  Cu2  1  0.62258700  0.62616800  0.62469300  1
  Cu  Cu3  1  0.87526400  0.37306200  0.12428300  1
  O  O0  1  0.10226700  0.11932300  0.38791900  1
  O  O1  1  0.10293100  0.88688800  0.61582700  1
  O  O2  1  0.11245100  0.60593600  0.88324600  1
  O  O3  1  0.13709500  0.14629100  0.86480100  1
  O  O4  1  0.12600100  0.38295300  0.10288100  1
  O  O5  1  0.13468500  0.36793400  0.64428000  1
  O  O6  1  0.14658000  0.63552200  0.36438900  1
  O  O7  1  0.14790300  0.85999600  0.12754900  1
  O  O8  1  0.35942900  0.14632500  0.62768600  1
  O  O9  1  0.36289600  0.37320400  0.85512200  1
  O  O10  1  0.36896100  0.63594100  0.14475100  1
  O  O11  1  0.37881400  0.60761500  0.60709600  1
  O  O12  1  0.37187800  0.86149500  0.35766300  1
  O  O13  1  0.38458700  0.38528600  0.39382200  1
  O  O14  1  0.38818300  0.10873500  0.11642100  1
  O  O15  1  0.39219700  0.87996700  0.89365700  1
  O  O16  1  0.61000700  0.38481900  0.61303700  1
  O  O17  1  0.60299000  0.61054700  0.38162300  1
  O  O18  1  0.60771800  0.88435300  0.11435400  1
  O  O19  1  0.62834400  0.35874300  0.13960200  1
  O  O20  1  0.61694300  0.10341800  0.88762800  1
  O  O21  1  0.64595000  0.13253400  0.36316300  1
  O  O22  1  0.64396300  0.87245500  0.63983600  1
  O  O23  1  0.63396500  0.64693100  0.86491600  1
  O  O24  1  0.86672600  0.35790100  0.35461200  1
  O  O25  1  0.86375700  0.14065700  0.13644900  1
  O  O26  1  0.85702500  0.86794700  0.86391900  1
  O  O27  1  0.88081700  0.89250500  0.38675400  1
  O  O28  1  0.86674800  0.64685100  0.63769900  1
  O  O29  1  0.88131200  0.10857800  0.61107800  1
  O  O30  1  0.88751500  0.38475200  0.89507900  1
  O  O31  1  0.88998700  0.60523000  0.11528200  1
loop_
_geom_bond_atom_site_label_1
_geom_bond_atom_site_label_2
_geom_bond_distance
_geom_bond_site_symmetry_2
Li0 O25 1.987224 1_455
Li0 O3 1.991456 1_554
Li0 O7 2.003703 1_545
Li0 O26 2.032457 1_444
Li1 O4 1.964130 1_555
Li1 O14 1.975333 1_555
Li1 O0 2.000073 1_555
Li1 O13 2.023503 1_555
Li2 O2 1.995449 1_555
Li2 O11 2.000097 1_555
Li2 O1 2.016075 1_555
Li2 O15 2.025750 1_555
Li3 O22 1.984575 1_545
Li3 O21 1.989251 1_555
Li3 O8 1.993719 1_555
Li3 O12 2.010467 1_545
Li4 O19 1.963184 1_556
Li4 O23 1.993459 1_555
Li4 O9 1.995568 1_555
Li4 O10 2.003461 1_556
Li5 O20 1.981983 1_555
Li5 O16 1.984886 1_555
Li5 O29 2.013488 1_555
Li5 O30 2.030109 1_555
Li6 O17 1.984910 1_555
Li6 O18 2.005852 1_555
Li6 O27 2.012129 1_555
Li6 O31 2.017772 1_555
Li7 O6 1.993557 1_655
Li7 O28 2.006041 1_555
Li7 O5 2.008331 1_655
Li7 O24 2.050153 1_555
Cr0 O0 1.996238 1_555
Cr0 O8 1.998146 1_555
Cr0 O3 2.010137 1_555
Cr0 O1 2.016041 1_545
Cr0 O5 2.020484 1_555
Cr0 O29 2.027715 1_455
Cr1 O4 1.880327 1_556
Cr1 O3 1.915347 1_555
Cr1 O2 1.933444 1_555
Cr1 O5 1.955663 1_555
Cr1 O9 1.982526 1_555
Cr1 O30 2.017057 1_455
Cr2 O4 1.999286 1_555
Cr2 O7 2.001748 1_555
Cr2 O31 2.009308 1_455
Cr2 O6 2.011399 1_555
Cr2 O10 2.024603 1_555
Cr2 O2 2.030169 1_554
Cr3 O8 1.897930 1_555
Cr3 O9 1.909500 1_555
Cr3 O13 1.951233 1_555
Cr3 O11 1.965934 1_555
Cr3 O16 1.972552 1_555
Cr3 O5 2.022856 1_555
Cr4 O17 1.912670 1_555
Cr4 O6 1.922423 1_555
Cr4 O10 1.926691 1_555
Cr4 O11 1.944583 1_555
Cr4 O12 1.982870 1_555
Cr4 O13 2.005518 1_555
Cr5 O7 1.912752 1_555
Cr5 O12 1.924650 1_555
Cr5 O18 1.950942 1_555
Cr5 O14 1.954169 1_565
Cr5 O15 1.960416 1_554
Cr5 O10 2.004418 1_555
Cr6 O19 1.971804 1_555
Cr6 O17 1.981202 1_555
Cr6 O16 1.995236 1_555
Cr6 O13 2.013470 1_555
Cr6 O21 2.030509 1_555
Cr6 O24 2.046508 1_555
Cr7 O19 1.952558 1_555
Cr7 O14 1.980663 1_555
Cr7 O20 1.988487 1_554
Cr7 O21 2.007253 1_555
Cr7 O25 2.020367 1_555
Cr7 O18 2.021883 1_545
Cr8 O20 1.906097 1_565
Cr8 O23 1.914634 1_555
Cr8 O26 1.937593 1_555
Cr8 O15 1.967635 1_555
Cr8 O22 1.972919 1_555
Cr8 O18 2.004862 1_556
Cr9 O21 1.915538 1_555
Cr9 O0 1.918383 1_655
Cr9 O27 1.933045 1_545
Cr9 O24 1.963212 1_555
Cr9 O25 1.980654 1_555
Cr9 O29 1.996804 1_555
Cr10 O28 1.918943 1_555
Cr10 O22 1.926705 1_555
Cr10 O1 1.928368 1_655
Cr10 O29 1.944594 1_565
Cr10 O27 1.988283 1_555
Cr10 O26 2.008720 1_555
Cr11 O28 2.004686 1_555
Cr11 O31 2.006148 1_556
Cr11 O30 2.012529 1_555
Cr11 O2 2.012628 1_655
Cr11 O23 2.016439 1_555
Cr11 O26 2.037777 1_555
Cu0 O6 2.018291 1_555
Cu0 O1 2.030997 1_555
Cu0 O0 2.044555 1_565
Cu0 O27 2.057528 1_455
Cu0 O7 2.072785 1_555
Cu0 O12 2.073044 1_555
Cu1 O3 2.010285 1_555
Cu1 O14 2.020979 1_556
Cu1 O20 2.032943 1_555
Cu1 O15 2.059752 1_545
Cu1 O9 2.077302 1_555
Cu1 O8 2.081970 1_555
Cu2 O23 2.018793 1_555
Cu2 O16 2.021659 1_555
Cu2 O17 2.043736 1_555
Cu2 O11 2.055919 1_555
Cu2 O28 2.058032 1_555
Cu2 O22 2.069826 1_555
Cu3 O30 1.919631 1_554
Cu3 O24 1.929261 1_555
Cu3 O31 1.944213 1_555
Cu3 O25 1.945645 1_555
Cu3 O19 2.077059 1_555
Cu3 O4 2.110546 1_655
