# generated using pymatgen
data_Sr3FeMoO7
_symmetry_space_group_name_H-M   'P 1'
_cell_length_a   10.73980687
_cell_length_b   10.73980687
_cell_length_c   10.73980687
_cell_angle_alpha   158.33629125
_cell_angle_beta   158.33629125
_cell_angle_gamma   30.82536088
_symmetry_Int_Tables_number   1
_chemical_formula_structural   Sr3FeMoO7
_chemical_formula_sum   'Sr3 Fe1 Mo1 O7'
_cell_volume   168.70313433
_cell_formula_units_Z   1
loop_
 _symmetry_equiv_pos_site_id
 _symmetry_equiv_pos_as_xyz
  1  'x, y, z'
loop_
 _atom_site_type_symbol
 _atom_site_label
 _atom_site_symmetry_multiplicity
 _atom_site_fract_x
 _atom_site_fract_y
 _atom_site_fract_z
 _atom_site_occupancy
  Sr  Sr0  1  0.68598300  0.68598300  0.00000000  1
  Sr  Sr1  1  0.32054200  0.32054200  0.00000000  1
  Sr  Sr2  1  0.48717100  0.48717100  0.00000000  1
  Fe  Fe0  1  0.89623400  0.89623400  0.00000000  1
  Mo  Mo0  1  0.09681500  0.09681500  0.00000000  1
  O  O0  1  0.80097900  0.80097900  0.00000000  1
  O  O1  1  0.19266600  0.19266600  0.00000000  1
  O  O2  1  0.90648800  0.40648800  0.50000000  1
  O  O3  1  0.40648800  0.90648800  0.50000000  1
  O  O4  1  0.09980500  0.59980500  0.50000000  1
  O  O5  1  0.59980500  0.09980500  0.50000000  1
  O  O6  1  0.00702400  0.00702400  0.00000000  1
loop_
_geom_bond_atom_site_label_1
_geom_bond_atom_site_label_2
_geom_bond_distance
_geom_bond_site_symmetry_2
Fe0 O0 1.972458 1_555
Fe0 O2 2.029442 1_565
Fe0 O3 2.029442 1_655
Fe0 O2 2.029442 1_554
Fe0 O3 2.029442 1_554
Fe0 O6 2.294143 1_665
Mo0 O6 1.859314 1_555
Mo0 O1 1.984800 1_555
Mo0 O4 2.019253 1_555
Mo0 O5 2.019253 1_454
Mo0 O4 2.019253 1_544
Mo0 O5 2.019253 1_555
O0 Sr0 2.381238 1_555
O0 Sr1 2.882916 1_554
O0 Sr1 2.882916 1_655
O0 Sr1 2.882916 1_666
O0 Sr1 2.882916 1_565
O1 Sr1 2.647945 1_555
O1 Sr0 2.857666 1_545
O1 Sr0 2.857666 1_455
O1 Sr0 2.857666 1_556
O1 Sr0 2.857666 1_444
O2 Sr2 2.620083 1_656
O2 Sr2 2.620083 1_555
O2 Sr1 2.690886 1_656
O2 Sr1 2.690886 1_555
O3 Sr2 2.620083 1_566
O3 Sr2 2.620083 1_555
O3 Sr1 2.690886 1_566
O3 Sr1 2.690886 1_555
O4 Sr0 2.694066 1_556
O4 Sr0 2.694066 1_455
O4 Sr2 3.084364 1_455
O4 Sr2 3.084364 1_556
O5 Sr0 2.694066 1_545
O5 Sr0 2.694066 1_556
O5 Sr2 3.084364 1_556
O5 Sr2 3.084364 1_545
O6 Sr2 2.883766 1_455
O6 Sr2 2.883766 1_556
O6 Sr2 2.883766 1_545
O6 Sr2 2.883766 1_444
