# generated using pymatgen
data_Ti2NbAl
_symmetry_space_group_name_H-M   'P 1'
_cell_length_a   5.63508298
_cell_length_b   5.63508298
_cell_length_c   4.67083764
_cell_angle_alpha   90.00000000
_cell_angle_beta   90.00000000
_cell_angle_gamma   114.93096969
_symmetry_Int_Tables_number   1
_chemical_formula_structural   Ti2NbAl
_chemical_formula_sum   'Ti4 Nb2 Al2'
_cell_volume   134.49765806
_cell_formula_units_Z   2
loop_
 _symmetry_equiv_pos_site_id
 _symmetry_equiv_pos_as_xyz
  1  'x, y, z'
loop_
 _atom_site_type_symbol
 _atom_site_label
 _atom_site_symmetry_multiplicity
 _atom_site_fract_x
 _atom_site_fract_y
 _atom_site_fract_z
 _atom_site_occupancy
  Ti  Ti0  1  0.86179511  0.66681739  0.75000000  1
  Ti  Ti1  1  0.66681739  0.86179511  0.25000000  1
  Ti  Ti2  1  0.13820489  0.33318261  0.25000000  1
  Ti  Ti3  1  0.33318261  0.13820489  0.75000000  1
  Nb  Nb0  1  0.36140848  0.63859152  0.75000000  1
  Nb  Nb1  1  0.63859152  0.36140848  0.25000000  1
  Al  Al0  1  0.83679527  0.16320473  0.75000000  1
  Al  Al1  1  0.16320473  0.83679527  0.25000000  1
loop_
_geom_bond_atom_site_label_1
_geom_bond_atom_site_label_2
_geom_bond_distance
_geom_bond_site_symmetry_2
Ti0 Ti3 2.857165 1_665
Ti0 Ti1 2.980981 1_555
Ti0 Ti1 2.980981 1_556
Ti0 Ti3 3.204016 1_555
Ti1 Ti2 2.857165 1_665
Ti1 Ti2 3.204016 1_555
Ti2 Ti3 2.980981 1_554
Ti2 Ti3 2.980981 1_555
Nb0 Ti3 2.756450 1_555
Nb0 Ti0 2.756450 1_555
Nb0 Ti2 2.858869 1_556
Nb0 Ti1 2.858869 1_555
Nb0 Ti1 2.858869 1_556
Nb0 Ti2 2.858869 1_555
Nb0 Ti3 2.886015 1_565
Nb0 Ti0 2.886015 1_455
Nb1 Ti1 2.756450 1_555
Nb1 Ti2 2.756450 1_555
Nb1 Ti0 2.858869 1_555
Nb1 Ti0 2.858869 1_554
Nb1 Ti3 2.858869 1_555
Nb1 Ti3 2.858869 1_554
Nb1 Ti2 2.886015 1_655
Nb1 Ti1 2.886015 1_545
Al0 Ti3 2.781451 1_555
Al0 Ti0 2.781451 1_555
Al0 Ti1 2.808007 1_546
Al0 Ti2 2.808007 1_655
Al0 Ti1 2.808007 1_545
Al0 Ti2 2.808007 1_656
Al0 Ti3 2.859422 1_655
Al0 Ti0 2.859422 1_545
Al0 Nb1 3.000126 1_556
Al0 Nb1 3.000126 1_555
Al0 Nb0 3.039600 1_655
Al0 Nb0 3.039600 1_545
Al1 Ti2 2.781451 1_555
Al1 Ti1 2.781451 1_555
Al1 Ti3 2.808007 1_565
Al1 Ti3 2.808007 1_564
Al1 Ti0 2.808007 1_455
Al1 Ti0 2.808007 1_454
Al1 Ti1 2.859422 1_455
Al1 Ti2 2.859422 1_565
Al1 Nb0 3.000126 1_554
Al1 Nb0 3.000126 1_555
Al1 Nb1 3.039600 1_565
Al1 Nb1 3.039600 1_455
