# generated using pymatgen
data_Ce3(Al3Os)4
_symmetry_space_group_name_H-M   'P 1'
_cell_length_a   8.86237015
_cell_length_b   8.86284315
_cell_length_c   9.51047930
_cell_angle_alpha   90.00000000
_cell_angle_beta   90.00000000
_cell_angle_gamma   120.00204546
_symmetry_Int_Tables_number   1
_chemical_formula_structural   Ce3(Al3Os)4
_chemical_formula_sum   'Ce6 Al24 Os8'
_cell_volume   646.91472005
_cell_formula_units_Z   2
loop_
 _symmetry_equiv_pos_site_id
 _symmetry_equiv_pos_as_xyz
  1  'x, y, z'
loop_
 _atom_site_type_symbol
 _atom_site_label
 _atom_site_symmetry_multiplicity
 _atom_site_fract_x
 _atom_site_fract_y
 _atom_site_fract_z
 _atom_site_occupancy
  Ce  Ce0  1  0.19403742  0.38808428  0.25000000  1
  Ce  Ce1  1  0.80596486  0.61191277  0.75000000  1
  Ce  Ce2  1  0.61192529  0.80596321  0.25000000  1
  Ce  Ce3  1  0.38809898  0.19404650  0.75000000  1
  Ce  Ce4  1  0.19403303  0.80595759  0.25000000  1
  Ce  Ce5  1  0.80596238  0.19404846  0.75000000  1
  Al  Al0  1  0.33332380  0.66666015  0.00568996  1
  Al  Al1  1  0.66667739  0.33333600  0.99432971  1
  Al  Al2  1  0.66667739  0.33333600  0.50567029  1
  Al  Al3  1  0.33332380  0.66666015  0.49431004  1
  Al  Al4  1  0.16276549  0.32552449  0.57634057  1
  Al  Al5  1  0.83722519  0.67445125  0.42367324  1
  Al  Al6  1  0.67447356  0.83723409  0.57634160  1
  Al  Al7  1  0.83722519  0.67445125  0.07632676  1
  Al  Al8  1  0.32554393  0.16276839  0.42366868  1
  Al  Al9  1  0.16276549  0.32552449  0.92365943  1
  Al  Al10  1  0.16276086  0.83723982  0.57634118  1
  Al  Al11  1  0.32554393  0.16276839  0.07633132  1
  Al  Al12  1  0.83722618  0.16276673  0.42366504  1
  Al  Al13  1  0.67447356  0.83723409  0.92365840  1
  Al  Al14  1  0.83722618  0.16276673  0.07633496  1
  Al  Al15  1  0.16276086  0.83723982  0.92365882  1
  Al  Al16  1  0.56178846  0.12358476  0.25000000  1
  Al  Al17  1  0.43821706  0.87644245  0.75000000  1
  Al  Al18  1  0.87641337  0.43820867  0.25000000  1
  Al  Al19  1  0.12352917  0.56176434  0.75000000  1
  Al  Al20  1  0.56179959  0.43820676  0.25000000  1
  Al  Al21  1  0.43822296  0.56176798  0.75000000  1
  Al  Al22  1  -0.00000142  0.00000468  0.25000000  1
  Al  Al23  1  0.00000905  0.00000621  0.75000000  1
  Os  Os0  1  0.49997769  -0.00005978  -0.00006289  1
  Os  Os1  1  0.00006312  0.50003342  -0.00008632  1
  Os  Os2  1  0.49997769  -0.00005978  0.50006289  1
  Os  Os3  1  0.49997358  0.50004359  -0.00007848  1
  Os  Os4  1  0.00006312  0.50003342  0.50008632  1
  Os  Os5  1  0.49997358  0.50004359  0.50007848  1
  Os  Os6  1  -0.00000889  0.00000152  -0.00009531  1
  Os  Os7  1  -0.00000889  0.00000152  0.50009531  1
loop_
_geom_bond_atom_site_label_1
_geom_bond_atom_site_label_2
_geom_bond_distance
_geom_bond_site_symmetry_2
Ce0 Os3 3.361837 1_555
Ce0 Os5 3.361837 1_555
Ce0 Os4 3.361900 1_555
Ce0 Os1 3.361900 1_555
Ce0 Ce2 3.703422 1_555
Ce0 Ce4 3.703565 1_555
Ce1 Os4 3.361122 1_655
Ce1 Os1 3.361122 1_656
Ce1 Os3 3.361189 1_556
Ce1 Os5 3.361189 1_555
Ce1 Ce3 3.703268 1_555
Ce1 Ce5 3.703455 1_555
Ce2 Os0 3.361782 1_565
Ce2 Os2 3.361782 1_565
Ce2 Os5 3.361848 1_555
Ce2 Os3 3.361848 1_555
Ce2 Ce4 3.703491 1_555
Ce3 Os3 3.361319 1_556
Ce3 Os5 3.361319 1_555
Ce3 Os2 3.361355 1_555
Ce3 Os0 3.361355 1_556
Ce3 Ce5 3.703251 1_555
Ce4 Os0 3.361776 1_565
Ce4 Os2 3.361776 1_565
Ce4 Os4 3.361892 1_555
Ce4 Os1 3.361892 1_555
Ce5 Os1 3.361153 1_656
Ce5 Os4 3.361153 1_655
Ce5 Os0 3.361246 1_556
Ce5 Os2 3.361246 1_555
Al0 Os1 2.558325 1_555
Al0 Os3 2.558515 1_555
Al0 Os0 2.558606 1_565
Al0 Al13 2.732042 1_554
Al0 Al9 2.732070 1_554
Al0 Al15 2.732133 1_554
Al0 Al17 2.916484 1_554
Al0 Al19 2.916489 1_554
Al0 Al21 2.916526 1_554
Al0 Ce0 3.157588 1_555
Al0 Ce2 3.157644 1_555
Al0 Ce4 3.157659 1_555
Al1 Os1 2.559246 1_656
Al1 Os0 2.559465 1_556
Al1 Os3 2.559592 1_556
Al1 Al7 2.731829 1_556
Al1 Al11 2.731841 1_556
Al1 Al14 2.731882 1_556
Al1 Al18 2.916085 1_556
Al1 Al20 2.916189 1_556
Al1 Al16 2.916197 1_556
Al1 Ce3 3.157662 1_555
Al1 Ce5 3.157715 1_555
Al1 Ce1 3.157731 1_555
Al2 Os4 2.559246 1_655
Al2 Os2 2.559465 1_555
Al2 Os5 2.559592 1_555
Al2 Al5 2.731829 1_555
Al2 Al8 2.731841 1_555
Al2 Al20 2.916189 1_555
Al2 Ce3 3.157662 1_555
Al2 Ce5 3.157715 1_555
Al2 Ce1 3.157731 1_555
Al3 Os4 2.558325 1_555
Al3 Os5 2.558515 1_555
Al3 Os2 2.558606 1_565
Al3 Al6 2.732042 1_555
Al3 Al4 2.732070 1_555
Al3 Ce0 3.157588 1_555
Al3 Ce2 3.157644 1_555
Al3 Ce4 3.157659 1_555
Al4 Os7 2.601582 1_555
Al4 Os5 2.688252 1_555
Al4 Os4 2.688400 1_555
Al4 Al8 2.889839 1_555
Al4 Ce0 3.140579 1_555
Al4 Ce5 3.224850 1_455
Al4 Ce3 3.225015 1_555
Al5 Os7 2.602252 1_665
Al5 Os5 2.688918 1_555
Al5 Os4 2.689117 1_655
Al5 Al6 2.889821 1_555
Al5 Ce1 3.140424 1_555
Al5 Ce4 3.224916 1_655
Al5 Ce2 3.225046 1_555
Al6 Os7 2.601417 1_665
Al6 Os5 2.688253 1_555
Al6 Os2 2.688387 1_565
Al6 Ce2 3.140571 1_555
Al6 Ce1 3.225046 1_555
Al6 Ce5 3.225053 1_565
Al7 Os6 2.602252 1_665
Al7 Os3 2.688918 1_555
Al7 Os1 2.689117 1_655
Al7 Ce1 3.140424 1_554
Al7 Ce4 3.224916 1_655
Al7 Ce2 3.225046 1_555
Al8 Os7 2.602155 1_555
Al8 Os2 2.689110 1_555
Al8 Os5 2.689236 1_555
Al8 Ce3 3.140482 1_555
Al8 Ce4 3.225053 1_545
Al8 Ce0 3.225148 1_555
Al9 Os6 2.601582 1_556
Al9 Os3 2.688252 1_556
Al9 Os1 2.688400 1_556
Al9 Ce0 3.140579 1_556
Al9 Ce5 3.224850 1_455
Al9 Ce3 3.225015 1_555
Al10 Os7 2.601656 1_565
Al10 Os4 2.688356 1_555
Al10 Os2 2.688357 1_565
Al10 Al3 2.732133 1_555
Al10 Al17 2.821281 1_555
Al10 Al19 2.821449 1_555
Al10 Al5 2.889703 1_455
Al10 Al8 2.889793 1_565
Al10 Al23 2.994996 1_565
Al10 Ce4 3.140578 1_555
Al10 Ce1 3.224801 1_455
Al10 Ce3 3.224977 1_565
Al11 Os6 2.602155 1_555
Al11 Os0 2.689110 1_555
Al11 Os3 2.689236 1_555
Al11 Al16 2.821220 1_555
Al11 Al20 2.821287 1_555
Al11 Al15 2.889793 1_544
Al11 Al9 2.889839 1_554
Al11 Al22 2.995101 1_555
Al11 Ce3 3.140482 1_554
Al11 Ce4 3.225053 1_545
Al11 Ce0 3.225148 1_555
Al12 Os7 2.602136 1_655
Al12 Os2 2.688879 1_555
Al12 Os4 2.689210 1_655
Al12 Al2 2.731882 1_555
Al12 Al16 2.821241 1_555
Al12 Al18 2.821367 1_555
Al12 Al4 2.889763 1_655
Al12 Al6 2.889839 1_545
Al12 Al22 2.995132 1_655
Al12 Ce5 3.140509 1_555
Al12 Ce0 3.224911 1_655
Al12 Ce2 3.224946 1_545
Al13 Os6 2.601417 1_666
Al13 Os3 2.688253 1_556
Al13 Os0 2.688387 1_566
Al13 Al21 2.821337 1_555
Al13 Al17 2.821357 1_555
Al13 Al7 2.889821 1_556
Al13 Al14 2.889839 1_566
Al13 Al23 2.994984 1_665
Al13 Ce2 3.140571 1_556
Al13 Ce1 3.225046 1_555
Al13 Ce5 3.225053 1_565
Al14 Os6 2.602136 1_655
Al14 Os0 2.688879 1_555
Al14 Os1 2.689210 1_655
Al14 Al16 2.821241 1_555
Al14 Al18 2.821367 1_555
Al14 Al9 2.889763 1_654
Al14 Al22 2.995132 1_655
Al14 Ce5 3.140509 1_554
Al14 Ce0 3.224911 1_655
Al14 Ce2 3.224946 1_545
Al15 Os6 2.601656 1_566
Al15 Os1 2.688356 1_556
Al15 Os0 2.688357 1_566
Al15 Al17 2.821281 1_555
Al15 Al19 2.821449 1_555
Al15 Al7 2.889703 1_456
Al15 Al23 2.994996 1_565
Al15 Ce4 3.140578 1_556
Al15 Ce1 3.224801 1_455
Al15 Ce3 3.224977 1_565
Al16 Os0 2.560573 1_555
Al16 Os2 2.560573 1_555
Al16 Al18 2.788306 1_555
Al16 Al20 2.788396 1_555
Al16 Al8 2.821220 1_555
Al16 Al2 2.916197 1_555
Al16 Ce4 3.061295 1_545
Al16 Ce2 3.061488 1_545
Al17 Os0 2.559045 1_566
Al17 Os2 2.559045 1_565
Al17 Al19 2.788825 1_555
Al17 Al21 2.788937 1_555
Al17 Al6 2.821357 1_555
Al17 Al3 2.916484 1_555
Al17 Ce5 3.061168 1_565
Al17 Ce3 3.061233 1_565
Al18 Os1 2.560776 1_655
Al18 Os4 2.560776 1_655
Al18 Al20 2.788215 1_555
Al18 Al7 2.821332 1_555
Al18 Al5 2.821332 1_555
Al18 Al2 2.916085 1_555
Al18 Ce4 3.061281 1_655
Al18 Ce0 3.061308 1_655
Al19 Os1 2.558729 1_556
Al19 Os4 2.558729 1_555
Al19 Al21 2.788917 1_555
Al19 Al4 2.821447 1_555
Al19 Al9 2.821447 1_555
Al19 Al3 2.916489 1_555
Al19 Ce1 3.060912 1_455
Al19 Ce5 3.060923 1_455
Al20 Os5 2.560765 1_555
Al20 Os3 2.560765 1_555
Al20 Al5 2.821196 1_555
Al20 Al7 2.821196 1_555
Al20 Al8 2.821287 1_555
Al20 Ce0 3.061385 1_555
Al20 Ce2 3.061505 1_555
Al21 Os3 2.558844 1_556
Al21 Os5 2.558844 1_555
Al21 Al4 2.821256 1_555
Al21 Al9 2.821256 1_555
Al21 Al6 2.821337 1_555
Al21 Al3 2.916526 1_555
Al21 Ce1 3.061130 1_555
Al21 Ce3 3.061204 1_555
Al22 Os7 2.378526 1_555
Al22 Os6 2.378526 1_555
Al22 Ce2 2.978416 1_445
Al22 Ce0 2.978623 1_555
Al22 Ce4 2.978651 1_545
Al22 Al8 2.995101 1_555
Al22 Al7 2.995288 1_445
Al22 Al5 2.995288 1_445
Al23 Os7 2.376713 1_555
Al23 Os6 2.376713 1_556
Al23 Ce3 2.978543 1_555
Al23 Ce5 2.978707 1_455
Al23 Ce1 2.978729 1_445
Al23 Al6 2.994984 1_445
Al23 Al4 2.994990 1_555
Al23 Al9 2.994990 1_555
