# generated using pymatgen
data_CsMo2P3O13
_symmetry_space_group_name_H-M   'P 1'
_cell_length_a   6.45594700
_cell_length_b   9.96318635
_cell_length_c   10.28450499
_cell_angle_alpha   83.10821727
_cell_angle_beta   82.34185534
_cell_angle_gamma   71.86426525
_symmetry_Int_Tables_number   1
_chemical_formula_structural   CsMo2P3O13
_chemical_formula_sum   'Cs2 Mo4 P6 O26'
_cell_volume   620.87916642
_cell_formula_units_Z   2
loop_
 _symmetry_equiv_pos_site_id
 _symmetry_equiv_pos_as_xyz
  1  'x, y, z'
loop_
 _atom_site_type_symbol
 _atom_site_label
 _atom_site_symmetry_multiplicity
 _atom_site_fract_x
 _atom_site_fract_y
 _atom_site_fract_z
 _atom_site_occupancy
  Cs  Cs0  1  0.50078100  0.00100700  0.49820700  1
  Cs  Cs1  1  0.48925200  0.56942000  0.95652900  1
  Mo  Mo0  1  0.85596500  0.63755700  0.25730300  1
  Mo  Mo1  1  0.14506600  0.36174100  0.74214400  1
  Mo  Mo2  1  0.14964000  0.09038500  0.18010100  1
  Mo  Mo3  1  0.84917100  0.91168800  0.81966700  1
  P  P0  1  0.70484700  0.99578400  0.13648800  1
  P  P1  1  0.29487300  0.00428000  0.86382800  1
  P  P2  1  0.29755200  0.72378900  0.32359800  1
  P  P3  1  0.70292500  0.27644000  0.67670000  1
  P  P4  1  0.00879900  0.30318500  0.44472500  1
  P  P5  1  0.99078000  0.69737500  0.55506900  1
  O  O0  1  0.85719900  0.04587000  0.20996000  1
  O  O1  1  0.14405800  0.95265100  0.79007100  1
  O  O2  1  0.16674300  0.66452400  0.24271000  1
  O  O3  1  0.83321200  0.33671000  0.75692400  1
  O  O4  1  0.74253800  0.11765700  0.70308800  1
  O  O5  1  0.25739200  0.88250400  0.29829400  1
  O  O6  1  0.53904800  0.63445900  0.30689400  1
  O  O7  1  0.46151700  0.36639600  0.69350600  1
  O  O8  1  0.46917500  0.08491900  0.18438300  1
  O  O9  1  0.53062900  0.91247300  0.81657100  1
  O  O10  1  0.77067800  0.30778700  0.52191900  1
  O  O11  1  0.22944100  0.69123700  0.47861600  1
  O  O12  1  0.72947300  0.83853200  0.17921900  1
  O  O13  1  0.27198600  0.16052500  0.81968200  1
  O  O14  1  0.83391800  0.71737500  0.44994800  1
  O  O15  1  0.16508900  0.28336300  0.55049300  1
  O  O16  1  0.89655800  0.55861200  0.11447500  1
  O  O17  1  0.10205600  0.44258800  0.88411800  1
  O  O18  1  0.75117000  0.02096300  0.98544600  1
  O  O19  1  0.24929700  0.97759200  0.01433800  1
  O  O20  1  0.92179300  0.82824800  0.63400600  1
  O  O21  1  0.07822200  0.17231400  0.36620900  1
  O  O22  1  0.97647900  0.44217200  0.36145300  1
  O  O23  1  0.02172700  0.55883500  0.63963400  1
  O  O24  1  0.05220100  0.25136000  0.09818500  1
  O  O25  1  0.94865200  0.74894200  0.90020500  1
loop_
_geom_bond_atom_site_label_1
_geom_bond_atom_site_label_2
_geom_bond_distance
_geom_bond_site_symmetry_2
Cs0 O14 3.020930 1_545
Cs0 O15 3.026029 1_555
Cs0 O21 3.119363 1_555
Cs0 O20 3.134209 1_545
Cs0 O8 3.252577 1_555
Cs0 O5 3.269353 1_545
Cs0 O4 3.289387 1_555
Cs0 O9 3.302259 1_545
Cs0 O0 3.575868 1_555
Cs0 O1 3.612083 1_545
Cs1 O16 3.238048 1_556
Cs1 O17 3.329932 1_555
Cs1 O3 3.353043 1_555
Cs1 O2 3.421021 1_556
Cs1 O25 3.481295 1_455
Cs1 O7 3.620596 1_555
Cs1 O9 3.620843 1_555
Mo0 O16 1.700410 1_555
Mo0 O12 2.022897 1_555
Mo0 O6 2.050513 1_555
Mo0 O22 2.078693 1_555
Mo0 O2 2.089467 1_655
Mo0 O14 2.193297 1_555
Mo1 O17 1.700843 1_555
Mo1 O13 2.023414 1_555
Mo1 O7 2.051153 1_555
Mo1 O23 2.086880 1_555
Mo1 O3 2.088215 1_455
Mo1 O15 2.179478 1_555
Mo2 O24 1.693109 1_555
Mo2 O0 2.046840 1_455
Mo2 O8 2.052843 1_555
Mo2 O19 2.073755 1_545
Mo2 O21 2.108990 1_555
Mo2 O5 2.230564 1_545
Mo3 O25 1.702608 1_555
Mo3 O1 2.045241 1_655
Mo3 O18 2.054665 1_565
Mo3 O9 2.058545 1_555
Mo3 O20 2.111056 1_555
Mo3 O4 2.207400 1_565
O0 P0 1.543223 1_545
O1 P1 1.546053 1_565
O2 P2 1.539294 1_555
O3 P3 1.538537 1_555
O4 P3 1.518331 1_555
O5 P2 1.516400 1_555
O6 P2 1.534227 1_555
O7 P3 1.535552 1_555
O8 P0 1.552510 1_545
O9 P1 1.559578 1_565
O10 P3 1.613380 1_555
O10 P4 1.623341 1_655
O11 P2 1.618063 1_555
O11 P5 1.620487 1_455
O12 P0 1.539926 1_555
O13 P1 1.535039 1_555
O14 P5 1.532496 1_555
O15 P4 1.535334 1_555
O18 P0 1.547502 1_546
O19 P1 1.543332 1_564
O20 P5 1.534196 1_555
O21 P4 1.531496 1_555
O22 P4 1.509193 1_655
O23 P5 1.512638 1_455
