# generated using pymatgen
data_Ba6Mg(IrO3)6
_symmetry_space_group_name_H-M   'P 1'
_cell_length_a   5.85018742
_cell_length_b   5.94986684
_cell_length_c   15.03222159
_cell_angle_alpha   93.25367455
_cell_angle_beta   88.71085376
_cell_angle_gamma   122.01035672
_symmetry_Int_Tables_number   1
_chemical_formula_structural   Ba6Mg(IrO3)6
_chemical_formula_sum   'Ba6 Mg1 Ir6 O18'
_cell_volume   442.94880907
_cell_formula_units_Z   1
loop_
 _symmetry_equiv_pos_site_id
 _symmetry_equiv_pos_as_xyz
  1  'x, y, z'
loop_
 _atom_site_type_symbol
 _atom_site_label
 _atom_site_symmetry_multiplicity
 _atom_site_fract_x
 _atom_site_fract_y
 _atom_site_fract_z
 _atom_site_occupancy
  Ba  Ba0  1  0.00857824  0.97376112  0.75911190  1
  Ba  Ba1  1  0.96490159  0.02182833  0.24309168  1
  Ba  Ba2  1  0.32771539  0.65113633  0.90769009  1
  Ba  Ba3  1  0.36482533  0.62073550  0.61022747  1
  Ba  Ba4  1  0.65056740  0.34762582  0.08743930  1
  Ba  Ba5  1  0.61009157  0.38628996  0.36459615  1
  Mg  Mg0  1  0.73549157  0.15572268  0.49823223  1
  Ir  Ir0  1  0.98846494  0.00102909  0.00130625  1
  Ir  Ir1  1  0.02341619  0.96033656  0.50599349  1
  Ir  Ir2  1  0.31608529  0.68316175  0.14996903  1
  Ir  Ir3  1  0.29567214  0.66605742  0.34217220  1
  Ir  Ir4  1  0.65648065  0.31389266  0.85180512  1
  Ir  Ir5  1  0.69541343  0.32506210  0.66398812  1
  O  O0  1  0.05440497  0.31608868  0.41813610  1
  O  O1  1  0.68357824  0.91873827  0.08680785  1
  O  O2  1  0.95094634  0.68457621  0.59789607  1
  O  O3  1  0.30209085  0.09126550  0.91818871  1
  O  O4  1  0.15043276  0.88358509  0.09685219  1
  O  O5  1  0.10934982  0.83698448  0.39612944  1
  O  O6  1  0.82273476  0.11384545  0.90689729  1
  O  O7  1  0.90181566  0.14195356  0.60958344  1
  O  O8  1  0.60097868  0.78999666  0.45309777  1
  O  O9  1  0.19217925  0.37977665  0.05251039  1
  O  O10  1  0.43309791  0.18219697  0.54715390  1
  O  O11  1  0.80216055  0.62841390  0.94442992  1
  O  O12  1  0.52153859  0.46100248  0.75666143  1
  O  O13  1  0.45185988  0.52438967  0.23691325  1
  O  O14  1  0.52383580  0.02822189  0.75092915  1
  O  O15  1  0.96851572  0.47812873  0.76644871  1
  O  O16  1  0.46279892  0.96368446  0.25269071  1
  O  O17  1  0.01330958  0.52259803  0.24090764  1
loop_
_geom_bond_atom_site_label_1
_geom_bond_atom_site_label_2
_geom_bond_distance
_geom_bond_site_symmetry_2
Ba0 O7 2.724891 1_465
Ba0 O6 2.730167 1_465
Ba0 O3 2.806730 1_565
Ba0 O2 2.809917 1_455
Ba0 O15 2.840143 1_455
Ba0 O14 2.856360 1_565
Ba0 O12 2.862753 1_565
Ba0 O12 2.864232 1_455
Ba0 O14 3.025967 1_465
Ba0 O15 3.127223 1_465
Ba0 O11 3.362817 1_455
Ba1 O4 2.705739 1_645
Ba1 O1 2.746679 1_545
Ba1 O16 2.770935 1_545
Ba1 O13 2.838008 1_655
Ba1 O17 2.841641 1_655
Ba1 O13 2.888013 1_545
Ba1 O5 2.928464 1_645
Ba1 O0 2.971606 1_655
Ba1 O16 3.117326 1_645
Ba1 O17 3.128031 1_645
Ba2 O9 2.634162 1_556
Ba2 O3 2.696891 1_565
Ba2 O6 2.741523 1_565
Ba2 O15 2.764551 1_455
Ba2 O11 2.915901 1_555
Ba2 O12 2.944874 1_555
Ba2 O6 2.988702 1_455
Ba2 O11 3.044310 1_455
Ba2 O14 3.106861 1_565
Ba2 O1 3.220325 1_556
Ba2 O3 3.266985 1_555
Ba3 O2 2.654128 1_455
Ba3 O8 2.673974 1_555
Ba3 O7 2.696270 1_455
Ba3 O12 2.800210 1_555
Ba3 O14 2.886590 1_565
Ba3 O10 2.945101 1_555
Ba3 O7 3.026572 1_565
Ba3 O15 3.083137 1_455
Ba3 O2 3.245724 1_555
Ba3 O0 3.327699 1_555
Ba3 O10 3.338595 1_565
Ba4 O11 2.636317 1_554
Ba4 O1 2.658722 1_545
Ba4 O4 2.768639 1_545
Ba4 O9 2.849939 1_555
Ba4 O13 2.901120 1_555
Ba4 O17 2.918014 1_655
Ba4 O4 2.970157 1_655
Ba4 O3 3.074404 1_554
Ba4 O9 3.105775 1_655
Ba4 O16 3.233721 1_545
Ba4 O1 3.300297 1_555
Ba4 O6 3.353879 1_554
Ba5 O13 2.506252 1_555
Ba5 O16 2.680075 1_545
Ba5 O8 2.704104 1_555
Ba5 O5 2.749737 1_655
Ba5 O17 2.761315 1_655
Ba5 O5 3.074297 1_545
Mg0 O8 1.963599 1_545
Mg0 O10 1.979629 1_555
Mg0 O7 1.982082 1_555
Mg0 O0 1.995751 1_655
Ir0 O9 2.021936 1_655
Ir0 O11 2.024628 1_544
Ir0 O1 2.028671 1_545
Ir0 O3 2.035783 1_654
Ir0 O6 2.065104 1_554
Ir0 O4 2.079926 1_645
Ir1 O5 1.932628 1_555
Ir1 O2 2.067317 1_455
Ir1 O10 2.118855 1_565
Ir1 O7 2.161642 1_465
Ir1 O8 2.260208 1_455
Ir1 O0 2.481362 1_565
Ir2 O16 2.038428 1_555
Ir2 O17 2.040637 1_555
Ir2 O13 2.052764 1_555
Ir2 O9 2.071362 1_555
Ir2 O1 2.086319 1_555
Ir2 O4 2.089685 1_555
Ir3 O5 1.980429 1_555
Ir3 O17 2.060417 1_555
Ir3 O16 2.068046 1_555
Ir3 O13 2.156164 1_555
Ir3 O0 2.171079 1_555
Ir3 O8 2.261076 1_555
Ir4 O15 2.019746 1_555
Ir4 O14 2.037813 1_555
Ir4 O3 2.047991 1_555
Ir4 O11 2.057621 1_555
Ir4 O12 2.088135 1_555
Ir4 O6 2.103322 1_555
Ir5 O14 2.039227 1_555
Ir5 O15 2.040400 1_555
Ir5 O12 2.076089 1_555
Ir5 O7 2.136093 1_555
Ir5 O2 2.140510 1_555
Ir5 O10 2.175074 1_555
