# generated using pymatgen
data_Mn2Tl2(SO4)3
_symmetry_space_group_name_H-M   'P 1'
_cell_length_a   10.38258900
_cell_length_b   10.38258900
_cell_length_c   10.38258900
_cell_angle_alpha   90.00000000
_cell_angle_beta   90.00000000
_cell_angle_gamma   90.00000000
_symmetry_Int_Tables_number   1
_chemical_formula_structural   Mn2Tl2(SO4)3
_chemical_formula_sum   'Mn8 Tl8 S12 O48'
_cell_volume   1119.22393150
_cell_formula_units_Z   4
loop_
 _symmetry_equiv_pos_site_id
 _symmetry_equiv_pos_as_xyz
  1  'x, y, z'
loop_
 _atom_site_type_symbol
 _atom_site_label
 _atom_site_symmetry_multiplicity
 _atom_site_fract_x
 _atom_site_fract_y
 _atom_site_fract_z
 _atom_site_occupancy
  Mn  Mn0  1  0.33494500  0.33494500  0.33494500  1
  Mn  Mn1  1  0.16505500  0.66505500  0.83494500  1
  Mn  Mn2  1  0.66505500  0.83494500  0.16505500  1
  Mn  Mn3  1  0.83494500  0.16505500  0.66505500  1
  Mn  Mn4  1  0.59832700  0.59832700  0.59832700  1
  Mn  Mn5  1  0.90167300  0.40167300  0.09832700  1
  Mn  Mn6  1  0.40167300  0.09832700  0.90167300  1
  Mn  Mn7  1  0.09832700  0.90167300  0.40167300  1
  Tl  Tl0  1  0.04827600  0.04827600  0.04827600  1
  Tl  Tl1  1  0.45172400  0.95172400  0.54827600  1
  Tl  Tl2  1  0.95172400  0.54827600  0.45172400  1
  Tl  Tl3  1  0.54827600  0.45172400  0.95172400  1
  Tl  Tl4  1  0.81703500  0.81703500  0.81703500  1
  Tl  Tl5  1  0.68296500  0.18296500  0.31703500  1
  Tl  Tl6  1  0.18296500  0.31703500  0.68296500  1
  Tl  Tl7  1  0.31703500  0.68296500  0.18296500  1
  S  S0  1  0.01789800  0.21629900  0.37588200  1
  S  S1  1  0.48210200  0.78370100  0.87588200  1
  S  S2  1  0.98210200  0.71629900  0.12411800  1
  S  S3  1  0.37588200  0.01789800  0.21629900  1
  S  S4  1  0.51789800  0.28370100  0.62411800  1
  S  S5  1  0.87588200  0.48210200  0.78370100  1
  S  S6  1  0.12411800  0.98210200  0.71629900  1
  S  S7  1  0.62411800  0.51789800  0.28370100  1
  S  S8  1  0.21629900  0.37588200  0.01789800  1
  S  S9  1  0.71629900  0.12411800  0.98210200  1
  S  S10  1  0.28370100  0.62411800  0.51789800  1
  S  S11  1  0.78370100  0.87588200  0.48210200  1
  O  O0  1  0.00889800  0.08003000  0.32991800  1
  O  O1  1  0.49110200  0.91997000  0.82991800  1
  O  O2  1  0.99110200  0.58003000  0.17008200  1
  O  O3  1  0.32991800  0.00889800  0.08003000  1
  O  O4  1  0.50889800  0.41997000  0.67008200  1
  O  O5  1  0.82991800  0.49110200  0.91997000  1
  O  O6  1  0.17008200  0.99110200  0.58003000  1
  O  O7  1  0.67008200  0.50889800  0.41997000  1
  O  O8  1  0.08003000  0.32991800  0.00889800  1
  O  O9  1  0.58003000  0.17008200  0.99110200  1
  O  O10  1  0.41997000  0.67008200  0.50889800  1
  O  O11  1  0.91997000  0.82991800  0.49110200  1
  O  O12  1  0.26585000  0.50284100  0.44294400  1
  O  O13  1  0.23415000  0.49715900  0.94294400  1
  O  O14  1  0.73415000  0.00284100  0.05705600  1
  O  O15  1  0.44294400  0.26585000  0.50284100  1
  O  O16  1  0.76585000  0.99715900  0.55705600  1
  O  O17  1  0.94294400  0.23415000  0.49715900  1
  O  O18  1  0.05705600  0.73415000  0.00284100  1
  O  O19  1  0.55705600  0.76585000  0.99715900  1
  O  O20  1  0.50284100  0.44294400  0.26585000  1
  O  O21  1  0.00284100  0.05705600  0.73415000  1
  O  O22  1  0.99715900  0.55705600  0.76585000  1
  O  O23  1  0.49715900  0.94294400  0.23415000  1
  O  O24  1  0.03998300  0.80177400  0.22353600  1
  O  O25  1  0.46001700  0.19822600  0.72353600  1
  O  O26  1  0.96001700  0.30177400  0.27646400  1
  O  O27  1  0.22353600  0.03998300  0.80177400  1
  O  O28  1  0.53998300  0.69822600  0.77646400  1
  O  O29  1  0.72353600  0.46001700  0.19822600  1
  O  O30  1  0.27646400  0.96001700  0.30177400  1
  O  O31  1  0.77646400  0.53998300  0.69822600  1
  O  O32  1  0.80177400  0.22353600  0.03998300  1
  O  O33  1  0.30177400  0.27646400  0.96001700  1
  O  O34  1  0.69822600  0.77646400  0.53998300  1
  O  O35  1  0.19822600  0.72353600  0.46001700  1
  O  O36  1  0.15406000  0.25175200  0.40171300  1
  O  O37  1  0.34594000  0.74824800  0.90171300  1
  O  O38  1  0.84594000  0.75175200  0.09828700  1
  O  O39  1  0.40171300  0.15406000  0.25175200  1
  O  O40  1  0.65406000  0.24824800  0.59828700  1
  O  O41  1  0.90171300  0.34594000  0.74824800  1
  O  O42  1  0.09828700  0.84594000  0.75175200  1
  O  O43  1  0.59828700  0.65406000  0.24824800  1
  O  O44  1  0.25175200  0.40171300  0.15406000  1
  O  O45  1  0.75175200  0.09828700  0.84594000  1
  O  O46  1  0.24824800  0.59828700  0.65406000  1
  O  O47  1  0.74824800  0.90171300  0.34594000  1
loop_
_geom_bond_atom_site_label_1
_geom_bond_atom_site_label_2
_geom_bond_distance
_geom_bond_site_symmetry_2
Mn0 O36 2.180305 1_555
Mn0 O44 2.180305 1_555
Mn0 O39 2.180305 1_555
Mn0 O15 2.193332 1_555
Mn0 O12 2.193332 1_555
Mn0 O20 2.193332 1_555
Mn1 O46 2.180305 1_555
Mn1 O37 2.180305 1_555
Mn1 O42 2.180305 1_555
Mn1 O13 2.193332 1_555
Mn1 O22 2.193332 1_455
Mn1 O18 2.193332 1_556
Mn2 O47 2.180305 1_555
Mn2 O43 2.180305 1_555
Mn2 O38 2.180305 1_555
Mn2 O23 2.193332 1_555
Mn2 O19 2.193332 1_554
Mn2 O14 2.193332 1_565
Mn3 O40 2.180305 1_555
Mn3 O41 2.180305 1_555
Mn3 O45 2.180305 1_555
Mn3 O17 2.193332 1_555
Mn3 O16 2.193332 1_545
Mn3 O21 2.193332 1_655
Mn4 O4 2.201441 1_555
Mn4 O10 2.201441 1_555
Mn4 O7 2.201441 1_555
Mn4 O34 2.205332 1_555
Mn4 O31 2.205332 1_555
Mn4 O28 2.205332 1_555
Mn5 O5 2.201441 1_554
Mn5 O8 2.201441 1_655
Mn5 O2 2.201441 1_555
Mn5 O32 2.205332 1_555
Mn5 O26 2.205332 1_555
Mn5 O29 2.205332 1_555
Mn6 O1 2.201441 1_545
Mn6 O3 2.201441 1_556
Mn6 O9 2.201441 1_555
Mn6 O27 2.205332 1_555
Mn6 O33 2.205332 1_555
Mn6 O25 2.205332 1_555
Mn7 O11 2.201441 1_455
Mn7 O0 2.201441 1_565
Mn7 O6 2.201441 1_555
Mn7 O24 2.205332 1_555
Mn7 O30 2.205332 1_555
Mn7 O35 2.205332 1_555
O0 S0 1.496063 1_555
O1 S1 1.496063 1_555
O2 S2 1.496063 1_555
O3 S3 1.496063 1_555
O4 S4 1.496063 1_555
O5 S5 1.496063 1_555
O6 S6 1.496063 1_555
O7 S7 1.496063 1_555
O8 S8 1.496063 1_555
O9 S9 1.496063 1_555
O10 S10 1.496063 1_555
O11 S11 1.496063 1_555
O12 S10 1.491804 1_555
O13 S8 1.491804 1_556
O14 S9 1.491804 1_554
O15 S4 1.491804 1_555
O16 S11 1.491804 1_555
O17 S0 1.491804 1_655
O18 S2 1.491804 1_455
O19 S1 1.491804 1_555
O20 S7 1.491804 1_555
O21 S6 1.491804 1_545
O22 S5 1.491804 1_555
O23 S3 1.491804 1_565
O24 S2 1.488015 1_455
O25 S4 1.488015 1_555
O26 S0 1.488015 1_655
O27 S6 1.488015 1_545
O28 S1 1.488015 1_555
O29 S7 1.488015 1_555
O30 S3 1.488015 1_565
O31 S5 1.488015 1_555
O32 S9 1.488015 1_554
O33 S8 1.488015 1_556
O34 S11 1.488015 1_555
O35 S10 1.488015 1_555
O36 S0 1.485264 1_555
O37 S1 1.485264 1_555
O38 S2 1.485264 1_555
O39 S3 1.485264 1_555
O40 S4 1.485264 1_555
O41 S5 1.485264 1_555
O42 S6 1.485264 1_555
O43 S7 1.485264 1_555
O44 S8 1.485264 1_555
O45 S9 1.485264 1_555
O46 S10 1.485264 1_555
O47 S11 1.485264 1_555
