# generated using pymatgen
data_Na2Ti2Si2H2O9
_symmetry_space_group_name_H-M   'P 1'
_cell_length_a   8.95787388
_cell_length_b   8.86545242
_cell_length_c   12.32544775
_cell_angle_alpha   98.16214444
_cell_angle_beta   90.77968678
_cell_angle_gamma   105.08266605
_symmetry_Int_Tables_number   1
_chemical_formula_structural   Na2Ti2Si2H2O9
_chemical_formula_sum   'Na8 Ti8 Si8 H8 O36'
_cell_volume   934.23023295
_cell_formula_units_Z   4
loop_
 _symmetry_equiv_pos_site_id
 _symmetry_equiv_pos_as_xyz
  1  'x, y, z'
loop_
 _atom_site_type_symbol
 _atom_site_label
 _atom_site_symmetry_multiplicity
 _atom_site_fract_x
 _atom_site_fract_y
 _atom_site_fract_z
 _atom_site_occupancy
  Na  Na0  1  0.73223000  0.51901100  0.99939800  1
  Na  Na1  1  0.74082200  0.87870500  0.58902300  1
  Na  Na2  1  0.79717300  0.37245000  0.28451100  1
  Na  Na3  1  0.23979000  0.00784000  0.00313300  1
  Na  Na4  1  0.17148900  0.52008100  0.30975500  1
  Na  Na5  1  0.24362900  0.37683900  0.59554200  1
  Na  Na6  1  0.67411500  0.01496900  0.31036800  1
  Na  Na7  1  0.29652200  0.87468700  0.28968300  1
  Ti  Ti0  1  0.97772400  0.62585100  0.53727900  1
  Ti  Ti1  1  0.49491800  0.77022800  0.05992300  1
  Ti  Ti2  1  0.99804400  0.27041200  0.05979000  1
  Ti  Ti3  1  0.07341700  0.14497100  0.30298600  1
  Ti  Ti4  1  0.56998100  0.64017100  0.30170400  1
  Ti  Ti5  1  0.48808300  0.11522100  0.53830000  1
  Ti  Ti6  1  0.40598700  0.24544400  0.29530700  1
  Ti  Ti7  1  0.90257000  0.74779200  0.29285400  1
  Si  Si0  1  0.88769100  0.89064100  0.06560900  1
  Si  Si1  1  0.59426800  0.16394100  0.07556400  1
  Si  Si2  1  0.38324000  0.72273700  0.52098600  1
  Si  Si3  1  0.88990600  0.22914900  0.52061000  1
  Si  Si4  1  0.38947700  0.38911900  0.06556400  1
  Si  Si5  1  0.58717900  0.49580600  0.53128600  1
  Si  Si6  1  0.09308000  0.66473400  0.07370600  1
  Si  Si7  1  0.09295800  0.00071800  0.53000200  1
  H  H0  1  0.23842500  0.94045100  0.77261100  1
  H  H1  1  0.51778200  0.13655500  0.74268200  1
  H  H2  1  0.75591700  0.41626600  0.77726800  1
  H  H3  1  0.61189400  0.84054400  0.83130700  1
  H  H4  1  0.01622700  0.65443100  0.74614300  1
  H  H5  1  0.98000500  0.21011400  0.84234500  1
  H  H6  1  0.29043400  0.48875400  0.82595600  1
  H  H7  1  0.53606100  0.80600100  0.79849900  1
  O  O0  1  0.46962500  0.60538200  0.57615000  1
  O  O1  1  0.49598200  0.26927000  0.01822900  1
  O  O2  1  0.51679600  0.77970600  0.20589900  1
  O  O3  1  0.39925600  0.69046900  0.38661900  1
  O  O4  1  0.00787300  0.14112300  0.57580200  1
  O  O5  1  0.21274400  0.29536900  0.02631200  1
  O  O6  1  0.20202900  0.66591600  0.54604000  1
  O  O7  1  0.01405000  0.48024900  0.02478800  1
  O  O8  1  0.96426000  0.41526600  0.56665000  1
  O  O9  1  0.41351600  0.42718300  0.20317200  1
  O  O10  1  0.24611000  0.09913600  0.21555200  1
  O  O11  1  0.06795800  0.96112700  0.39274400  1
  O  O12  1  0.51267400  0.98105500  0.02538500  1
  O  O13  1  0.00060100  0.84774300  0.58360900  1
  O  O14  1  0.91116400  0.92969900  0.20313900  1
  O  O15  1  0.46159700  0.10834900  0.39209400  1
  O  O16  1  0.02552500  0.28448300  0.20651600  1
  O  O17  1  0.27355900  0.07489100  0.57012900  1
  O  O18  1  0.48034800  0.90276900  0.56864200  1
  O  O19  1  0.27134400  0.74230600  0.04739300  1
  O  O20  1  0.96483600  0.04877900  0.01232100  1
  O  O21  1  0.71011500  0.79852900  0.02698900  1
  O  O22  1  0.98972100  0.76642100  0.01751400  1
  O  O23  1  0.51788300  0.33544000  0.58486400  1
  O  O24  1  0.76154600  0.59580800  0.57216600  1
  O  O25  1  0.23225500  0.28945200  0.38450700  1
  O  O26  1  0.95221600  0.61066700  0.39035200  1
  O  O27  1  0.46331800  0.54854300  0.01224600  1
  O  O28  1  0.07484000  0.69472200  0.20794600  1
  O  O29  1  0.57290200  0.19014400  0.20946300  1
  O  O30  1  0.56689100  0.45808500  0.39343900  1
  O  O31  1  0.71419800  0.14560000  0.54912200  1
  O  O32  1  0.74429600  0.59984600  0.21290900  1
  O  O33  1  0.77488500  0.24056500  0.05594400  1
  O  O34  1  0.90055500  0.19571100  0.38586700  1
  O  O35  1  0.72849000  0.78956200  0.38079400  1
loop_
_geom_bond_atom_site_label_1
_geom_bond_atom_site_label_2
_geom_bond_distance
_geom_bond_site_symmetry_2
Na0 O27 2.494625 1_556
Na0 O21 2.512702 1_556
Na0 O32 2.620517 1_556
Na0 O7 2.655124 1_656
Na0 O1 2.674957 1_556
Na0 O22 2.719394 1_556
Na0 O33 2.774462 1_556
Na1 O18 2.410643 1_555
Na1 O13 2.413813 1_655
Na1 O24 2.542270 1_555
Na1 O31 2.553096 1_565
Na1 O35 2.568012 1_555
Na1 O4 2.895429 1_665
Na1 O0 2.935178 1_555
Na2 O29 2.310620 1_555
Na2 O26 2.394324 1_555
Na2 O32 2.461322 1_555
Na2 O34 2.480494 1_555
Na2 O16 2.527341 1_655
Na2 O30 2.689831 1_555
Na2 O33 2.876004 1_555
Na3 O12 2.531666 1_545
Na3 O19 2.574087 1_545
Na3 O20 2.583037 1_455
Na3 O5 2.598961 1_555
Na3 O10 2.623636 1_555
Na3 O22 2.693256 1_445
Na3 O1 2.787628 1_555
Na4 O3 2.297669 1_555
Na4 O16 2.338836 1_555
Na4 O28 2.437423 1_555
Na4 O26 2.477388 1_455
Na4 O25 2.534991 1_555
Na4 O9 2.793570 1_555
Na5 O0 2.505341 1_555
Na5 O4 2.535952 1_555
Na5 O23 2.579127 1_555
Na5 O25 2.599195 1_555
Na5 O8 2.638090 1_455
Na5 O17 2.733775 1_555
Na5 O6 2.830882 1_555
Na6 O34 2.319851 1_555
Na6 O2 2.377501 1_545
Na6 O15 2.441253 1_555
Na6 O35 2.443700 1_545
Na6 O29 2.455843 1_555
Na6 O14 2.730452 1_545
Na7 O28 2.311745 1_555
Na7 O15 2.384046 1_565
Na7 O10 2.443545 1_565
Na7 O3 2.499601 1_555
Na7 O2 2.518367 1_555
Na7 O11 2.646474 1_555
H1 Ti5 2.504536 1_555
H3 H7 0.753558 1_555
H4 Ti0 2.560379 1_455
O0 Si2 1.658034 1_555
O0 Si5 1.659531 1_555
O1 Si1 1.656752 1_555
O1 Si4 1.657177 1_555
O2 Ti1 1.794872 1_555
O2 Ti4 1.964132 1_555
O3 Si2 1.654840 1_555
O3 Ti4 1.974601 1_555
O4 Si3 1.657954 1_455
O4 Si7 1.659797 1_555
O5 Si4 1.615987 1_555
O5 Ti2 1.934992 1_455
O6 Si2 1.617517 1_555
O6 Ti0 1.945990 1_455
O7 Si6 1.626500 1_555
O7 Ti2 1.938595 1_455
O8 Si3 1.624832 1_555
O8 Ti0 1.925342 1_555
O9 Si4 1.681267 1_555
O9 Ti6 2.086907 1_555
O9 Ti4 2.220359 1_555
O10 Ti6 1.825570 1_555
O10 Ti3 1.991918 1_555
O11 Si7 1.677973 1_565
O11 Ti3 2.086802 1_565
O11 Ti7 2.262459 1_455
O12 Si1 1.622280 1_565
O12 Ti1 1.942426 1_555
O13 Si7 1.626555 1_565
O13 Ti0 1.925070 1_455
O14 Si0 1.680262 1_555
O14 Ti7 2.067244 1_555
O14 Ti3 2.260563 1_665
O15 Ti5 1.804736 1_555
O15 Ti6 1.964461 1_555
O16 Ti2 1.804036 1_455
O16 Ti3 1.951275 1_555
O17 Si7 1.620658 1_555
O17 Ti5 1.917645 1_555
O18 Si2 1.626799 1_555
O18 Ti5 1.955752 1_565
O19 Si6 1.622965 1_555
O19 Ti1 1.954187 1_555
O20 Si0 1.626056 1_545
O20 Ti2 1.912117 1_555
O21 Si0 1.617644 1_555
O21 Ti1 1.934500 1_555
O22 Si6 1.656461 1_655
O22 Si0 1.659136 1_555
O23 Si5 1.631305 1_555
O23 Ti5 1.902293 1_555
O24 Si5 1.615751 1_555
O24 Ti0 1.947463 1_555
O25 Ti3 1.822617 1_555
O25 Ti6 2.005915 1_555
O26 Ti0 1.803704 1_555
O26 Ti7 1.949712 1_555
O27 Si4 1.629734 1_555
O27 Ti1 1.914683 1_555
O28 Si6 1.655305 1_555
O28 Ti7 1.994984 1_455
O29 Si1 1.654441 1_555
O29 Ti6 1.967929 1_555
O30 Si5 1.682315 1_555
O30 Ti4 2.093070 1_555
O30 Ti6 2.232777 1_555
O31 Si3 1.622267 1_555
O31 Ti5 1.972704 1_555
O32 Ti7 1.824451 1_555
O32 Ti4 1.997445 1_555
O33 Si1 1.619563 1_555
O33 Ti2 1.946012 1_555
O34 Si3 1.653590 1_555
O34 Ti3 1.979585 1_655
O35 Ti4 1.826891 1_555
O35 Ti7 1.994043 1_555
