# generated using pymatgen
data_BaPb3(NO3)8
_symmetry_space_group_name_H-M   'P 1'
_cell_length_a   8.02957629
_cell_length_b   8.02957629
_cell_length_c   8.02957591
_cell_angle_alpha   90.09237648
_cell_angle_beta   90.09237648
_cell_angle_gamma   90.09237532
_symmetry_Int_Tables_number   1
_chemical_formula_structural   BaPb3(NO3)8
_chemical_formula_sum   'Ba1 Pb3 N8 O24'
_cell_volume   517.69762224
_cell_formula_units_Z   1
loop_
 _symmetry_equiv_pos_site_id
 _symmetry_equiv_pos_as_xyz
  1  'x, y, z'
loop_
 _atom_site_type_symbol
 _atom_site_label
 _atom_site_symmetry_multiplicity
 _atom_site_fract_x
 _atom_site_fract_y
 _atom_site_fract_z
 _atom_site_occupancy
  Ba  Ba0  1  0.50000000  0.50000000  0.50000000  1
  Pb  Pb0  1  0.50000000  0.00000000  0.00000000  1
  Pb  Pb1  1  0.00000000  0.00000000  0.50000000  1
  Pb  Pb2  1  0.00000000  0.50000000  0.00000000  1
  N  N0  1  0.65316100  0.85262000  0.34737000  1
  N  N1  1  0.34683900  0.14738000  0.65263000  1
  N  N2  1  0.15092500  0.15092500  0.15092500  1
  N  N3  1  0.85262000  0.34737000  0.65316100  1
  N  N4  1  0.34737000  0.65316100  0.85262000  1
  N  N5  1  0.84907500  0.84907500  0.84907500  1
  N  N6  1  0.14738000  0.65263000  0.34683900  1
  N  N7  1  0.65263000  0.34683900  0.14738000  1
  O  O0  1  0.02204400  0.21115500  0.21984400  1
  O  O1  1  0.78566100  0.47698900  0.71419800  1
  O  O2  1  0.28655100  0.72113700  0.98131800  1
  O  O3  1  0.97795600  0.78884500  0.78015600  1
  O  O4  1  0.21433900  0.52301100  0.28580200  1
  O  O5  1  0.71344900  0.27886300  0.01868200  1
  O  O6  1  0.21984400  0.02204400  0.21115500  1
  O  O7  1  0.79122000  0.27942800  0.52345000  1
  O  O8  1  0.47698900  0.71419800  0.78566100  1
  O  O9  1  0.78015600  0.97795600  0.78884500  1
  O  O10  1  0.20878000  0.72057200  0.47655000  1
  O  O11  1  0.52301100  0.28580200  0.21433900  1
  O  O12  1  0.21115500  0.21984400  0.02204400  1
  O  O13  1  0.98131800  0.28655100  0.72113700  1
  O  O14  1  0.27942800  0.52345000  0.79122000  1
  O  O15  1  0.78884500  0.78015600  0.97795600  1
  O  O16  1  0.01868200  0.71344900  0.27886300  1
  O  O17  1  0.72057200  0.47655000  0.20878000  1
  O  O18  1  0.72113700  0.98131800  0.28655100  1
  O  O19  1  0.71419800  0.78566100  0.47698900  1
  O  O20  1  0.52345000  0.79122000  0.27942800  1
  O  O21  1  0.27886300  0.01868200  0.71344900  1
  O  O22  1  0.28580200  0.21433900  0.52301100  1
  O  O23  1  0.47655000  0.20878000  0.72057200  1
loop_
_geom_bond_atom_site_label_1
_geom_bond_atom_site_label_2
_geom_bond_distance
_geom_bond_site_symmetry_2
Ba0 O8 2.871090 1_555
Ba0 O11 2.871090 1_555
Ba0 O1 2.871090 1_555
Ba0 O4 2.871090 1_555
Ba0 O19 2.871090 1_555
Ba0 O22 2.871090 1_555
Ba0 O17 2.941640 1_555
Ba0 O14 2.941640 1_555
Ba0 O23 2.941640 1_555
Ba0 O20 2.941640 1_555
Ba0 O10 2.941640 1_555
Ba0 O7 2.941640 1_555
N0 O18 1.266873 1_555
N0 O19 1.270241 1_555
N0 O20 1.273225 1_555
N1 O21 1.266873 1_555
N1 O22 1.270241 1_555
N1 O23 1.273225 1_555
N2 O12 1.270300 1_555
N2 O0 1.270300 1_555
N2 O6 1.270300 1_555
N3 O13 1.266873 1_555
N3 O1 1.270241 1_555
N3 O7 1.273225 1_555
N4 O2 1.266873 1_555
N4 O8 1.270241 1_555
N4 O14 1.273225 1_555
N5 O15 1.270300 1_555
N5 O3 1.270300 1_555
N5 O9 1.270300 1_555
N6 O16 1.266873 1_555
N6 O4 1.270241 1_555
N6 O10 1.273225 1_555
N7 O5 1.266873 1_555
N7 O11 1.270241 1_555
N7 O17 1.273225 1_555
O0 Pb1 2.824716 1_555
O0 Pb2 2.922351 1_555
O1 Pb2 2.871838 1_656
O2 Pb0 2.821256 1_566
O2 Pb2 2.908307 1_556
O3 Pb1 2.824716 1_665
O3 Pb2 2.922351 1_656
O4 Pb2 2.871838 1_555
O5 Pb0 2.821256 1_555
O5 Pb2 2.908307 1_655
O6 Pb0 2.824716 1_555
O6 Pb1 2.922351 1_555
O7 Pb1 2.809225 1_655
O8 Pb0 2.871838 1_566
O9 Pb0 2.824716 1_566
O9 Pb1 2.922351 1_665
O10 Pb1 2.809225 1_565
O11 Pb0 2.871838 1_555
O12 Pb2 2.824716 1_555
O12 Pb0 2.922351 1_555
O13 Pb2 2.821256 1_656
O13 Pb1 2.908307 1_655
O14 Pb2 2.809225 1_556
O15 Pb2 2.824716 1_656
O15 Pb0 2.922351 1_566
O16 Pb2 2.821256 1_555
O16 Pb1 2.908307 1_565
O17 Pb2 2.809225 1_655
O18 Pb1 2.821256 1_665
O18 Pb0 2.908307 1_565
O19 Pb1 2.871838 1_665
O20 Pb0 2.809225 1_565
O21 Pb1 2.821256 1_555
O21 Pb0 2.908307 1_556
O22 Pb1 2.871838 1_555
O23 Pb0 2.809225 1_556
