# generated using pymatgen
data_K3Lu(PO4)2
_symmetry_space_group_name_H-M   'P 1'
_cell_length_a   5.65468600
_cell_length_b   7.51164600
_cell_length_c   9.35803598
_cell_angle_alpha   88.60816513
_cell_angle_beta   90.00000000
_cell_angle_gamma   90.00000000
_symmetry_Int_Tables_number   1
_chemical_formula_structural   K3Lu(PO4)2
_chemical_formula_sum   'K6 Lu2 P4 O16'
_cell_volume   397.37465597
_cell_formula_units_Z   2
loop_
 _symmetry_equiv_pos_site_id
 _symmetry_equiv_pos_as_xyz
  1  'x, y, z'
loop_
 _atom_site_type_symbol
 _atom_site_label
 _atom_site_symmetry_multiplicity
 _atom_site_fract_x
 _atom_site_fract_y
 _atom_site_fract_z
 _atom_site_occupancy
  K  K0  1  0.25000000  0.20483200  0.91965300  1
  K  K1  1  0.75000000  0.79516800  0.08034700  1
  K  K2  1  0.25000000  0.63863000  0.58577700  1
  K  K3  1  0.75000000  0.36137000  0.41422300  1
  K  K4  1  0.25000000  0.49741100  0.19167200  1
  K  K5  1  0.75000000  0.50258900  0.80832800  1
  Lu  Lu0  1  0.25000000  0.99094200  0.28556000  1
  Lu  Lu1  1  0.75000000  0.00905800  0.71444000  1
  P  P0  1  0.25000000  0.18123000  0.57125500  1
  P  P1  1  0.75000000  0.81877000  0.42874500  1
  P  P2  1  0.75000000  0.22369400  0.09323500  1
  P  P3  1  0.25000000  0.77630600  0.90676500  1
  O  O0  1  0.25000000  0.98368800  0.52781300  1
  O  O1  1  0.75000000  0.01631200  0.47218700  1
  O  O2  1  0.25000000  0.29144300  0.42827900  1
  O  O3  1  0.75000000  0.70855700  0.57172100  1
  O  O4  1  0.02564900  0.22451600  0.66198500  1
  O  O5  1  0.52564900  0.77548400  0.33801500  1
  O  O6  1  0.97435100  0.77548400  0.33801500  1
  O  O7  1  0.47435100  0.22451600  0.66198500  1
  O  O8  1  0.97479300  0.14647500  0.16976100  1
  O  O9  1  0.47479300  0.85352500  0.83023900  1
  O  O10  1  0.02520700  0.85352500  0.83023900  1
  O  O11  1  0.52520700  0.14647500  0.16976100  1
  O  O12  1  0.75000000  0.16686000  0.93408800  1
  O  O13  1  0.25000000  0.83314000  0.06591200  1
  O  O14  1  0.75000000  0.42850300  0.10395100  1
  O  O15  1  0.25000000  0.57149700  0.89604900  1
loop_
_geom_bond_atom_site_label_1
_geom_bond_atom_site_label_2
_geom_bond_distance
_geom_bond_site_symmetry_2
K0 O7 2.725469 1_555
K0 O4 2.725469 1_555
K0 O15 2.757748 1_555
K0 O11 2.835866 1_556
K0 O8 2.835866 1_456
K0 O12 2.844574 1_555
K0 O12 2.844574 1_455
K0 O9 3.063812 1_545
K0 O10 3.063812 1_545
K0 O13 3.079457 1_546
K1 O6 2.725469 1_555
K1 O5 2.725469 1_555
K1 O14 2.757748 1_555
K1 O10 2.835866 1_654
K1 O9 2.835866 1_554
K1 O13 2.844574 1_555
K1 O13 2.844574 1_655
K1 O8 3.063812 1_565
K1 O11 3.063812 1_565
K1 O12 3.079457 1_564
K2 O0 2.635176 1_555
K2 O3 2.878145 1_555
K2 O3 2.878145 1_455
K2 O15 2.934909 1_555
K2 O5 2.957417 1_555
K2 O6 2.957417 1_455
K2 O2 3.026617 1_555
K2 O9 3.103927 1_555
K2 O10 3.103927 1_555
K3 O1 2.635176 1_555
K3 O2 2.878145 1_655
K3 O2 2.878145 1_555
K3 O14 2.934909 1_555
K3 O4 2.957417 1_655
K3 O7 2.957417 1_555
K3 O3 3.026617 1_555
K3 O8 3.103927 1_555
K3 O11 3.103927 1_555
K4 O2 2.670180 1_555
K4 O13 2.756937 1_555
K4 O15 2.808587 1_554
K4 O5 2.967667 1_555
K4 O6 2.967667 1_455
K4 O14 2.992708 1_555
K4 O14 2.992708 1_455
K4 O11 3.072320 1_555
K4 O8 3.072320 1_455
K5 O3 2.670180 1_555
K5 O12 2.756937 1_555
K5 O14 2.808587 1_556
K5 O4 2.967667 1_655
K5 O7 2.967667 1_555
K5 O15 2.992708 1_555
K5 O15 2.992708 1_655
K5 O10 3.072320 1_655
K5 O9 3.072320 1_555
Lu0 O11 2.213488 1_565
Lu0 O8 2.213488 1_465
Lu0 O0 2.266344 1_555
Lu0 O5 2.291571 1_555
Lu0 O6 2.291571 1_455
Lu0 O13 2.397581 1_555
Lu0 O2 2.650549 1_565
Lu1 O10 2.213488 1_645
Lu1 O9 2.213488 1_545
Lu1 O1 2.266344 1_555
Lu1 O4 2.291571 1_655
Lu1 O7 2.291571 1_555
Lu1 O12 2.397581 1_555
Lu1 O3 2.650549 1_545
O0 P0 1.548041 1_565
O1 P1 1.548041 1_545
O2 P0 1.556198 1_555
O3 P1 1.556198 1_555
O4 P0 1.565075 1_555
O5 P1 1.565075 1_555
O6 P1 1.565075 1_555
O7 P0 1.565075 1_555
O8 P2 1.563617 1_555
O9 P3 1.563617 1_555
O10 P3 1.563617 1_555
O11 P2 1.563617 1_555
O12 P2 1.559221 1_556
O13 P3 1.559221 1_554
O14 P2 1.544146 1_555
O15 P3 1.544146 1_555
