# generated using pymatgen
data_Ba3HfTa4O15
_symmetry_space_group_name_H-M   'P 1'
_cell_length_a   4.02685129
_cell_length_b   12.83205410
_cell_length_c   12.82928100
_cell_angle_alpha   90.00000000
_cell_angle_beta   90.00000000
_cell_angle_gamma   89.87856715
_symmetry_Int_Tables_number   1
_chemical_formula_structural   Ba3HfTa4O15
_chemical_formula_sum   'Ba6 Hf2 Ta8 O30'
_cell_volume   662.92304445
_cell_formula_units_Z   2
loop_
 _symmetry_equiv_pos_site_id
 _symmetry_equiv_pos_as_xyz
  1  'x, y, z'
loop_
 _atom_site_type_symbol
 _atom_site_label
 _atom_site_symmetry_multiplicity
 _atom_site_fract_x
 _atom_site_fract_y
 _atom_site_fract_z
 _atom_site_occupancy
  Ba  Ba0  1  0.62257700  0.82780500  0.32564100  1
  Ba  Ba1  1  0.62125800  0.16901700  0.67278100  1
  Ba  Ba2  1  0.62125800  0.66901700  0.82721900  1
  Ba  Ba3  1  0.62257700  0.32780500  0.17435900  1
  Ba  Ba4  1  0.61703300  0.49649500  0.49895600  1
  Ba  Ba5  1  0.61703300  0.99649500  0.00104400  1
  Hf  Hf0  1  0.12129600  0.28226000  0.42072300  1
  Hf  Hf1  1  0.12129600  0.78226000  0.07927700  1
  Ta  Ta0  1  0.11127500  0.71139000  0.57456900  1
  Ta  Ta1  1  0.11127500  0.21139000  0.92543100  1
  Ta  Ta2  1  0.11236700  0.42152700  0.71135000  1
  Ta  Ta3  1  0.11126000  0.57449200  0.28676100  1
  Ta  Ta4  1  0.11236700  0.92152700  0.78865000  1
  Ta  Ta5  1  0.11126000  0.07449200  0.21323900  1
  Ta  Ta6  1  0.14369000  0.00037600  0.50217500  1
  Ta  Ta7  1  0.14369000  0.50037600  0.99782500  1
  O  O0  1  0.11659200  0.49961000  0.15490000  1
  O  O1  1  0.11933300  0.50216400  0.84449500  1
  O  O2  1  0.11933300  0.00216400  0.65550500  1
  O  O3  1  0.11659200  0.99961000  0.34510000  1
  O  O4  1  0.11456200  0.15257700  0.51316000  1
  O  O5  1  0.11608200  0.84338800  0.49760900  1
  O  O6  1  0.11456200  0.65257700  0.98684000  1
  O  O7  1  0.11608200  0.34338800  0.00239100  1
  O  O8  1  0.61869200  0.99710200  0.49825300  1
  O  O9  1  0.61869200  0.49710200  0.00174700  1
  O  O10  1  0.62152600  0.30092900  0.41224000  1
  O  O11  1  0.62080100  0.70372400  0.58267800  1
  O  O12  1  0.62080100  0.20372400  0.91732200  1
  O  O13  1  0.62152600  0.80092900  0.08776000  1
  O  O14  1  0.62168400  0.42107000  0.70777400  1
  O  O15  1  0.61972500  0.58271500  0.29635300  1
  O  O16  1  0.62168400  0.92107000  0.79222600  1
  O  O17  1  0.61972500  0.08271500  0.20364700  1
  O  O18  1  0.12170900  0.44033700  0.35898600  1
  O  O19  1  0.12288900  0.56808300  0.64542600  1
  O  O20  1  0.12288900  0.06808300  0.85457400  1
  O  O21  1  0.12170900  0.94033700  0.14101400  1
  O  O22  1  0.12417200  0.36013600  0.57182500  1
  O  O23  1  0.12147300  0.64227700  0.43715600  1
  O  O24  1  0.12417200  0.86013600  0.92817500  1
  O  O25  1  0.12147300  0.14227700  0.06284400  1
  O  O26  1  0.12176600  0.71994500  0.22861100  1
  O  O27  1  0.12323700  0.28258100  0.78254800  1
  O  O28  1  0.12323700  0.78258100  0.71745200  1
  O  O29  1  0.12176600  0.21994500  0.27138900  1
loop_
_geom_bond_atom_site_label_1
_geom_bond_atom_site_label_2
_geom_bond_distance
_geom_bond_site_symmetry_2
Ba0 O26 2.737549 1_655
Ba0 O26 2.746653 1_555
Ba0 O5 2.976298 1_655
Ba0 O3 2.983058 1_655
Ba0 O3 3.009170 1_555
Ba0 O5 3.010909 1_555
Ba0 O13 3.071271 1_555
Ba0 O8 3.102177 1_555
Ba0 O15 3.167419 1_555
Ba1 O27 2.848893 1_555
Ba1 O4 2.860478 1_655
Ba1 O27 2.864480 1_655
Ba1 O4 2.898809 1_555
Ba1 O2 2.939016 1_655
Ba1 O2 2.955806 1_555
Ba2 O28 2.848893 1_555
Ba2 O6 2.860478 1_655
Ba2 O28 2.864480 1_655
Ba2 O6 2.898809 1_555
Ba2 O1 2.939016 1_655
Ba2 O1 2.955806 1_555
Ba3 O29 2.737549 1_655
Ba3 O29 2.746653 1_555
Ba3 O7 2.976298 1_655
Ba3 O0 2.983058 1_655
Ba3 O0 3.009170 1_555
Ba3 O7 3.010909 1_555
Ba3 O10 3.071271 1_555
Ba3 O9 3.102177 1_555
Ba3 O17 3.167419 1_555
Ba4 O10 2.745079 1_555
Ba4 O18 2.779999 1_555
Ba4 O18 2.804949 1_655
Ba4 O22 2.808791 1_555
Ba4 O15 2.824951 1_555
Ba4 O22 2.844462 1_655
Ba4 O23 2.845074 1_555
Ba4 O14 2.848505 1_555
Ba4 O11 2.867975 1_555
Ba4 O23 2.875825 1_655
Ba4 O19 2.885590 1_555
Ba4 O19 2.920998 1_655
Ba5 O13 2.745079 1_555
Ba5 O21 2.779999 1_555
Ba5 O21 2.804949 1_655
Ba5 O24 2.808791 1_554
Ba5 O17 2.824951 1_565
Ba5 O24 2.844462 1_654
Ba5 O25 2.845074 1_565
Ba5 O16 2.848505 1_554
Ba5 O12 2.867975 1_564
Ba5 O25 2.875825 1_665
Ba5 O20 2.885590 1_564
Ba5 O20 2.920998 1_664
Hf0 O10 2.029124 1_455
Hf0 O10 2.031968 1_555
Hf0 O4 2.043652 1_555
Hf0 O29 2.076024 1_555
Hf0 O18 2.177606 1_555
Hf0 O22 2.180986 1_555
Hf1 O13 2.029124 1_455
Hf1 O13 2.031968 1_555
Hf1 O6 2.043652 1_554
Hf1 O26 2.076024 1_555
Hf1 O21 2.177606 1_555
Hf1 O24 2.180986 1_554
O0 Ta3 1.945629 1_555
O0 Ta7 2.018137 1_554
O1 Ta7 1.969689 1_555
O1 Ta2 1.997345 1_555
O2 Ta6 1.969689 1_555
O2 Ta4 1.997345 1_545
O3 Ta5 1.945629 1_565
O3 Ta6 2.018137 1_565
O4 Ta6 1.961392 1_555
O5 Ta0 1.960697 1_555
O5 Ta6 2.018629 1_565
O6 Ta7 1.961392 1_555
O7 Ta1 1.960697 1_554
O7 Ta7 2.018629 1_554
O8 Ta6 1.913796 1_565
O8 Ta6 2.115194 1_665
O9 Ta7 1.913796 1_554
O9 Ta7 2.115194 1_654
O11 Ta0 1.980457 1_655
O11 Ta0 2.056567 1_555
O12 Ta1 1.980457 1_655
O12 Ta1 2.056567 1_555
O14 Ta2 1.976461 1_655
O14 Ta2 2.051453 1_555
O15 Ta3 1.985742 1_655
O15 Ta3 2.054143 1_555
O16 Ta4 1.976461 1_655
O16 Ta4 2.051453 1_555
O17 Ta5 1.985742 1_655
O17 Ta5 2.054143 1_555
O18 Ta3 1.955390 1_555
O19 Ta0 2.051785 1_555
O19 Ta2 2.062559 1_555
O20 Ta1 2.051785 1_555
O20 Ta4 2.062559 1_545
O21 Ta5 1.955390 1_565
O22 Ta2 1.956222 1_555
O23 Ta0 1.973805 1_555
O23 Ta3 2.116895 1_555
O24 Ta4 1.956222 1_555
O25 Ta1 1.973805 1_554
O25 Ta5 2.116895 1_555
O26 Ta3 2.010560 1_555
O27 Ta2 2.003715 1_555
O27 Ta1 2.048717 1_555
O28 Ta4 2.003715 1_555
O28 Ta0 2.048717 1_555
O29 Ta5 2.010560 1_555
