# generated using pymatgen
data_Ba2Pb(SO4)3
_symmetry_space_group_name_H-M   'P 1'
_cell_length_a   5.54378900
_cell_length_b   11.39740400
_cell_length_c   16.97527461
_cell_angle_alpha   82.61386815
_cell_angle_beta   90.00000000
_cell_angle_gamma   90.00000000
_symmetry_Int_Tables_number   1
_chemical_formula_structural   Ba2Pb(SO4)3
_chemical_formula_sum   'Ba8 Pb4 S12 O48'
_cell_volume   1063.67944685
_cell_formula_units_Z   4
loop_
 _symmetry_equiv_pos_site_id
 _symmetry_equiv_pos_as_xyz
  1  'x, y, z'
loop_
 _atom_site_type_symbol
 _atom_site_label
 _atom_site_symmetry_multiplicity
 _atom_site_fract_x
 _atom_site_fract_y
 _atom_site_fract_z
 _atom_site_occupancy
  Ba  Ba0  1  0.50000000  0.15629700  0.34231000  1
  Ba  Ba1  1  0.50000000  0.49003700  0.67624600  1
  Ba  Ba2  1  0.00000000  0.56873200  0.88716300  1
  Ba  Ba3  1  0.00000000  0.90285700  0.21906600  1
  Ba  Ba4  1  0.00000000  0.23562900  0.55346200  1
  Ba  Ba5  1  0.00000000  0.17387900  0.99122900  1
  Ba  Ba6  1  0.00000000  0.51003300  0.32397300  1
  Ba  Ba7  1  0.00000000  0.84302500  0.65835800  1
  Pb  Pb0  1  0.50000000  0.42889300  0.11831600  1
  Pb  Pb1  1  0.50000000  0.76330400  0.45129200  1
  Pb  Pb2  1  0.50000000  0.09452000  0.78638000  1
  Pb  Pb3  1  0.50000000  0.81824200  0.00876200  1
  S  S0  1  0.00000000  0.93775400  0.87454100  1
  S  S1  1  0.00000000  0.27510700  0.20577900  1
  S  S2  1  0.00000000  0.60831600  0.53946200  1
  S  S3  1  0.00000000  0.30818600  0.75099300  1
  S  S4  1  0.00000000  0.64694900  0.08299700  1
  S  S5  1  0.00000000  0.97492300  0.41770900  1
  S  S6  1  0.50000000  0.39643300  0.45766500  1
  S  S7  1  0.50000000  0.73143200  0.79255400  1
  S  S8  1  0.50000000  0.06089900  0.12350700  1
  S  S9  1  0.50000000  0.02067800  0.58429800  1
  S  S10  1  0.50000000  0.35417600  0.91783700  1
  S  S11  1  0.50000000  0.68777700  0.24940300  1
  O  O0  1  0.22119900  0.98897400  0.90951300  1
  O  O1  1  0.22026300  0.32820800  0.23961300  1
  O  O2  1  0.22011500  0.66123000  0.57342900  1
  O  O3  1  0.78011200  0.27682800  0.70601400  1
  O  O4  1  0.77889300  0.61698600  0.03734300  1
  O  O5  1  0.78010300  0.94339500  0.37270800  1
  O  O6  1  0.71842300  0.34420800  0.42297000  1
  O  O7  1  0.71802200  0.67786800  0.75846400  1
  O  O8  1  0.71827500  0.00877700  0.08900300  1
  O  O9  1  0.28171900  0.04841200  0.63074800  1
  O  O10  1  0.28178300  0.38181300  0.96433200  1
  O  O11  1  0.28190000  0.71559800  0.29592600  1
  O  O12  1  0.28157700  0.34420800  0.42297000  1
  O  O13  1  0.28197800  0.67786800  0.75846400  1
  O  O14  1  0.28172500  0.00877700  0.08900300  1
  O  O15  1  0.71828100  0.04841200  0.63074800  1
  O  O16  1  0.71821700  0.38181300  0.96433200  1
  O  O17  1  0.71810000  0.71559800  0.29592600  1
  O  O18  1  0.77880100  0.98897400  0.90951300  1
  O  O19  1  0.77973700  0.32820800  0.23961300  1
  O  O20  1  0.77988500  0.66123000  0.57342900  1
  O  O21  1  0.21988800  0.27682800  0.70601400  1
  O  O22  1  0.22110700  0.61698600  0.03734300  1
  O  O23  1  0.21989700  0.94339500  0.37270800  1
  O  O24  1  0.00000000  0.97566700  0.78733300  1
  O  O25  1  0.00000000  0.30834100  0.11841400  1
  O  O26  1  0.00000000  0.64163800  0.45204300  1
  O  O27  1  0.00000000  0.43876400  0.75324600  1
  O  O28  1  0.00000000  0.77650300  0.08695000  1
  O  O29  1  0.00000000  0.10546200  0.41974700  1
  O  O30  1  0.50000000  0.36078400  0.54517400  1
  O  O31  1  0.50000000  0.69818300  0.88050000  1
  O  O32  1  0.50000000  0.02614600  0.21126700  1
  O  O33  1  0.50000000  0.89138900  0.57646100  1
  O  O34  1  0.50000000  0.22502400  0.90971600  1
  O  O35  1  0.50000000  0.55830400  0.24202500  1
  O  O36  1  0.00000000  0.47923900  0.56350600  1
  O  O37  1  0.00000000  0.80856900  0.89548600  1
  O  O38  1  0.00000000  0.14614500  0.23012800  1
  O  O39  1  0.00000000  0.24078700  0.83073900  1
  O  O40  1  0.00000000  0.57585900  0.16163100  1
  O  O41  1  0.00000000  0.90771600  0.49744000  1
  O  O42  1  0.50000000  0.86058000  0.76899900  1
  O  O43  1  0.50000000  0.19101000  0.10200100  1
  O  O44  1  0.50000000  0.52610100  0.43604000  1
  O  O45  1  0.50000000  0.09473400  0.50642400  1
  O  O46  1  0.50000000  0.42862400  0.84002300  1
  O  O47  1  0.50000000  0.76176100  0.17127800  1
loop_
_geom_bond_atom_site_label_1
_geom_bond_atom_site_label_2
_geom_bond_distance
_geom_bond_site_symmetry_2
Ba0 O45 2.784038 1_555
Ba0 O32 2.827931 1_555
Ba0 O5 2.871179 1_545
Ba0 O23 2.871179 1_545
Ba0 O19 2.899121 1_555
Ba0 O1 2.899121 1_555
Ba0 O12 2.946502 1_555
Ba0 O6 2.946502 1_555
Ba0 O29 3.090504 1_555
Ba0 O29 3.090504 1_655
Ba0 O38 3.373407 1_555
Ba0 O38 3.373407 1_655
Ba1 O46 2.778288 1_555
Ba1 O30 2.821960 1_555
Ba1 O21 2.873345 1_555
Ba1 O3 2.873345 1_555
Ba1 O2 2.895721 1_555
Ba1 O20 2.895721 1_555
Ba1 O13 2.959722 1_555
Ba1 O7 2.959722 1_555
Ba1 O27 3.088204 1_555
Ba1 O27 3.088204 1_655
Ba1 O36 3.379601 1_655
Ba1 O36 3.379601 1_555
Ba2 O37 2.755247 1_555
Ba2 O16 2.824419 1_455
Ba2 O10 2.824419 1_555
Ba2 O7 2.839913 1_455
Ba2 O13 2.839913 1_555
Ba2 O27 2.868420 1_555
Ba2 O22 2.943575 1_556
Ba2 O4 2.943575 1_456
Ba2 O31 3.135300 1_555
Ba2 O31 3.135300 1_455
Ba2 O46 3.346980 1_555
Ba2 O46 3.346980 1_455
Ba3 O38 2.803184 1_565
Ba3 O28 2.816743 1_555
Ba3 O11 2.825554 1_555
Ba3 O17 2.825554 1_455
Ba3 O14 2.843588 1_565
Ba3 O8 2.843588 1_465
Ba3 O23 2.968446 1_555
Ba3 O5 2.968446 1_455
Ba3 O32 3.102839 1_565
Ba3 O32 3.102839 1_465
Ba3 O47 3.356033 1_555
Ba3 O47 3.356033 1_455
Ba4 O36 2.803544 1_555
Ba4 O15 2.827312 1_455
Ba4 O9 2.827312 1_555
Ba4 O6 2.858357 1_455
Ba4 O12 2.858357 1_555
Ba4 O29 2.866879 1_555
Ba4 O3 2.953847 1_455
Ba4 O21 2.953847 1_555
Ba4 O30 3.112287 1_555
Ba4 O30 3.112287 1_455
Ba4 O45 3.351024 1_555
Ba4 O45 3.351024 1_455
Ba5 O39 2.733041 1_555
Ba5 O25 2.803676 1_556
Ba5 O8 2.816372 1_456
Ba5 O14 2.816372 1_556
Ba5 O16 2.826132 1_455
Ba5 O10 2.826132 1_555
Ba5 O0 2.936131 1_545
Ba5 O18 2.936131 1_445
Ba5 O34 3.119367 1_555
Ba5 O34 3.119367 1_455
Ba5 O43 3.369238 1_556
Ba5 O43 3.369238 1_456
Ba6 O40 2.761470 1_555
Ba6 O26 2.795473 1_555
Ba6 O17 2.805605 1_455
Ba6 O11 2.805605 1_555
Ba6 O6 2.831291 1_455
Ba6 O12 2.831291 1_555
Ba6 O1 2.932468 1_555
Ba6 O19 2.932468 1_455
Ba6 O35 3.118403 1_455
Ba6 O35 3.118403 1_555
Ba6 O44 3.380165 1_455
Ba6 O44 3.380165 1_555
Ba7 O41 2.736344 1_555
Ba7 O15 2.802942 1_465
Ba7 O9 2.802942 1_565
Ba7 O24 2.816003 1_555
Ba7 O7 2.837647 1_455
Ba7 O13 2.837647 1_555
Ba7 O2 2.937469 1_555
Ba7 O20 2.937469 1_455
Ba7 O33 3.118163 1_455
Ba7 O33 3.118163 1_555
Ba7 O42 3.368611 1_455
Ba7 O42 3.368611 1_555
O0 S0 1.511983 1_555
O0 Pb2 2.749278 1_565
O0 Pb3 2.858499 1_556
O1 S1 1.508837 1_555
O1 Pb0 2.711830 1_555
O2 S2 1.508192 1_555
O2 Pb1 2.727532 1_555
O3 S3 1.505612 1_655
O3 Pb2 2.803777 1_555
O4 S4 1.512545 1_655
O4 Pb3 2.757037 1_555
O4 Pb0 2.849208 1_555
O5 S5 1.506441 1_655
O5 Pb1 2.774860 1_555
O6 S6 1.502518 1_555
O7 S7 1.503093 1_555
O8 S8 1.499899 1_555
O9 S9 1.500028 1_555
O10 S10 1.499857 1_555
O11 S11 1.500181 1_555
O12 S6 1.502518 1_555
O13 S7 1.503093 1_555
O14 S8 1.499899 1_555
O15 S9 1.500028 1_555
O16 S10 1.499857 1_555
O17 S11 1.500181 1_555
O18 S0 1.511983 1_655
O18 Pb2 2.749278 1_565
O18 Pb3 2.858499 1_556
O19 S1 1.508837 1_655
O19 Pb0 2.711830 1_555
O20 S2 1.508192 1_655
O20 Pb1 2.727532 1_555
O21 S3 1.505612 1_555
O21 Pb2 2.803777 1_555
O22 S4 1.512545 1_555
O22 Pb3 2.757037 1_555
O22 Pb0 2.849208 1_555
O23 S5 1.506441 1_555
O23 Pb1 2.774860 1_555
O24 S0 1.487875 1_555
O25 S1 1.482722 1_555
O26 S2 1.483736 1_555
O27 S3 1.493648 1_555
O28 S4 1.486696 1_555
O29 S5 1.492648 1_545
O30 S6 1.488818 1_555
O31 S7 1.492287 1_555
O31 Pb3 2.716429 1_556
O32 S8 1.491486 1_555
O33 S9 1.496488 1_565
O33 Pb1 2.728245 1_555
O34 S10 1.495980 1_555
O34 Pb2 2.719647 1_555
O35 S11 1.496919 1_555
O35 Pb0 2.716951 1_555
O36 S2 1.475285 1_555
O37 S0 1.469592 1_555
O38 S1 1.474804 1_555
O39 S3 1.468079 1_555
O40 S4 1.469761 1_555
O41 S5 1.466977 1_555
O42 S7 1.474855 1_555
O42 Pb2 2.720022 1_565
O43 S8 1.480931 1_555
O43 Pb0 2.760549 1_555
O44 S6 1.476277 1_555
O44 Pb1 2.748800 1_555
O45 S9 1.474124 1_555
O46 S10 1.475336 1_555
O47 S11 1.477260 1_555
O47 Pb3 2.751093 1_555
