# generated using pymatgen
data_FeSnPt
_symmetry_space_group_name_H-M   'P 1'
_cell_length_a   4.02314185
_cell_length_b   4.02314185
_cell_length_c   15.85480400
_cell_angle_alpha   90.00000000
_cell_angle_beta   90.00000000
_cell_angle_gamma   119.99999751
_symmetry_Int_Tables_number   1
_chemical_formula_structural   FeSnPt
_chemical_formula_sum   'Fe4 Sn4 Pt4'
_cell_volume   222.23999093
_cell_formula_units_Z   4
loop_
 _symmetry_equiv_pos_site_id
 _symmetry_equiv_pos_as_xyz
  1  'x, y, z'
loop_
 _atom_site_type_symbol
 _atom_site_label
 _atom_site_symmetry_multiplicity
 _atom_site_fract_x
 _atom_site_fract_y
 _atom_site_fract_z
 _atom_site_occupancy
  Fe  Fe0  1  0.66666700  0.33333300  0.24509700  1
  Fe  Fe1  1  0.66666700  0.33333300  0.56203600  1
  Fe  Fe2  1  0.00000000  0.00000000  0.17896800  1
  Fe  Fe3  1  0.00000000  0.00000000  0.49880300  1
  Sn  Sn0  1  0.66666700  0.33333300  0.92151400  1
  Sn  Sn1  1  0.33333300  0.66666700  0.10766100  1
  Sn  Sn2  1  0.33333300  0.66666700  0.42240700  1
  Sn  Sn3  1  0.33333300  0.66666700  0.73675200  1
  Pt  Pt0  1  0.00000000  0.00000000  0.83206200  1
  Pt  Pt1  1  0.00000000  0.00000000  0.01217100  1
  Pt  Pt2  1  0.00000000  0.00000000  0.33144700  1
  Pt  Pt3  1  0.00000000  0.00000000  0.65108300  1
loop_
_geom_bond_atom_site_label_1
_geom_bond_atom_site_label_2
_geom_bond_distance
_geom_bond_site_symmetry_2
Fe0 Fe2 2.548428 1_655
Fe0 Fe2 2.548431 1_555
Fe0 Fe2 2.548431 1_665
Fe0 Pt2 2.696209 1_655
Fe0 Pt2 2.696212 1_555
Fe0 Pt2 2.696212 1_665
Fe1 Fe3 2.529884 1_655
Fe1 Fe3 2.529887 1_555
Fe1 Fe3 2.529887 1_665
Fe1 Pt3 2.718171 1_655
Fe1 Pt3 2.718174 1_555
Fe1 Pt3 2.718174 1_665
Fe2 Pt2 2.417525 1_555
Fe2 Sn1 2.583288 1_545
Fe2 Sn1 2.583291 1_445
Fe2 Sn1 2.583291 1_555
Fe2 Pt1 2.644534 1_555
Fe3 Pt3 2.414370 1_555
Fe3 Sn2 2.619604 1_545
Fe3 Sn2 2.619607 1_555
Fe3 Sn2 2.619607 1_445
Fe3 Pt2 2.653397 1_555
Pt0 Sn0 2.721512 1_455
Pt0 Sn0 2.721515 1_555
Pt0 Sn0 2.721515 1_445
Pt0 Sn3 2.771047 1_545
Pt0 Sn3 2.771050 1_445
Pt0 Sn3 2.771050 1_555
Pt0 Pt1 2.855593 1_556
Pt0 Pt3 2.869387 1_555
Pt1 Sn0 2.731517 1_454
Pt1 Sn0 2.731520 1_554
Pt1 Sn0 2.731520 1_444
Pt1 Sn1 2.772604 1_545
Pt1 Sn1 2.772607 1_445
Pt1 Sn1 2.772607 1_555
Pt2 Sn2 2.734048 1_545
Pt2 Sn2 2.734051 1_445
Pt2 Sn2 2.734051 1_555
Pt3 Sn3 2.690743 1_545
Pt3 Sn3 2.690746 1_445
Pt3 Sn3 2.690746 1_555
