# generated using pymatgen
data_Li5NiHO4
_symmetry_space_group_name_H-M   'P 1'
_cell_length_a   8.77687200
_cell_length_b   9.03391700
_cell_length_c   10.63851600
_cell_angle_alpha   90.00000000
_cell_angle_beta   90.00000000
_cell_angle_gamma   90.00000000
_symmetry_Int_Tables_number   1
_chemical_formula_structural   Li5NiHO4
_chemical_formula_sum   'Li40 Ni8 H8 O32'
_cell_volume   843.52296724
_cell_formula_units_Z   8
loop_
 _symmetry_equiv_pos_site_id
 _symmetry_equiv_pos_as_xyz
  1  'x, y, z'
loop_
 _atom_site_type_symbol
 _atom_site_label
 _atom_site_symmetry_multiplicity
 _atom_site_fract_x
 _atom_site_fract_y
 _atom_site_fract_z
 _atom_site_occupancy
  Li  Li0  1  0.97282900  0.58368500  0.19942500  1
  Li  Li1  1  0.97282900  0.91631500  0.19942500  1
  Li  Li2  1  0.07312700  0.06620800  0.42773100  1
  Li  Li3  1  0.07312700  0.43379200  0.42773100  1
  Li  Li4  1  0.07117500  0.75000000  0.43637800  1
  Li  Li5  1  0.12249500  0.25000000  0.97905200  1
  Li  Li6  1  0.11101900  0.56955000  0.99079400  1
  Li  Li7  1  0.11101900  0.93045000  0.99079400  1
  Li  Li8  1  0.20464000  0.58560100  0.63218200  1
  Li  Li9  1  0.20464000  0.91439900  0.63218200  1
  Li  Li10  1  0.29536100  0.08560100  0.13218200  1
  Li  Li11  1  0.29536100  0.41439900  0.13218200  1
  Li  Li12  1  0.38898100  0.06955000  0.49079400  1
  Li  Li13  1  0.38898100  0.43045000  0.49079400  1
  Li  Li14  1  0.37750500  0.75000000  0.47905200  1
  Li  Li15  1  0.42882500  0.25000000  0.93637800  1
  Li  Li16  1  0.42687300  0.56620800  0.92773100  1
  Li  Li17  1  0.42687300  0.93379200  0.92773100  1
  Li  Li18  1  0.52717100  0.08368500  0.69942500  1
  Li  Li19  1  0.52717100  0.41631500  0.69942500  1
  Li  Li20  1  0.47282900  0.58368500  0.30057500  1
  Li  Li21  1  0.47282900  0.91631500  0.30057500  1
  Li  Li22  1  0.57312700  0.06620800  0.07226900  1
  Li  Li23  1  0.57312700  0.43379200  0.07226900  1
  Li  Li24  1  0.57117500  0.75000000  0.06362200  1
  Li  Li25  1  0.62249500  0.25000000  0.52094800  1
  Li  Li26  1  0.61101900  0.56955000  0.50920600  1
  Li  Li27  1  0.61101900  0.93045000  0.50920600  1
  Li  Li28  1  0.70463900  0.58560100  0.86781800  1
  Li  Li29  1  0.70463900  0.91439900  0.86781800  1
  Li  Li30  1  0.79536100  0.08560100  0.36781800  1
  Li  Li31  1  0.79536100  0.41439900  0.36781800  1
  Li  Li32  1  0.88898100  0.06955000  0.00920600  1
  Li  Li33  1  0.88898100  0.43045000  0.00920600  1
  Li  Li34  1  0.87750500  0.75000000  0.02094800  1
  Li  Li35  1  0.92882500  0.25000000  0.56362200  1
  Li  Li36  1  0.92687300  0.93379200  0.57226900  1
  Li  Li37  1  0.92687300  0.56620800  0.57226900  1
  Li  Li38  1  0.02717100  0.08368500  0.80057500  1
  Li  Li39  1  0.02717100  0.41631500  0.80057500  1
  Ni  Ni0  1  0.01222100  0.25000000  0.21083400  1
  Ni  Ni1  1  0.21101300  0.25000000  0.63335800  1
  Ni  Ni2  1  0.28898700  0.75000000  0.13335800  1
  Ni  Ni3  1  0.48777900  0.75000000  0.71083400  1
  Ni  Ni4  1  0.51222100  0.25000000  0.28916600  1
  Ni  Ni5  1  0.71101300  0.25000000  0.86664200  1
  Ni  Ni6  1  0.78898700  0.75000000  0.36664200  1
  Ni  Ni7  1  0.98777900  0.75000000  0.78916600  1
  H  H0  1  0.20668600  0.58591100  0.31277900  1
  H  H1  1  0.20668600  0.91408900  0.31277900  1
  H  H2  1  0.29331400  0.08591100  0.81277900  1
  H  H3  1  0.29331400  0.41408900  0.81277900  1
  H  H4  1  0.70668600  0.58591100  0.18722100  1
  H  H5  1  0.70668600  0.91408900  0.18722100  1
  H  H6  1  0.79331400  0.08591100  0.68722100  1
  H  H7  1  0.79331400  0.41408900  0.68722100  1
  O  O0  1  0.05325200  0.75000000  0.62223500  1
  O  O1  1  0.07557100  0.41628700  0.12059800  1
  O  O2  1  0.07557100  0.08371300  0.12059800  1
  O  O3  1  0.07908700  0.41318200  0.61657800  1
  O  O4  1  0.07908700  0.08681800  0.61657800  1
  O  O5  1  0.08006800  0.75000000  0.10532300  1
  O  O6  1  0.24199700  0.07330800  0.89392300  1
  O  O7  1  0.24199700  0.42669200  0.89392300  1
  O  O8  1  0.25800300  0.57330800  0.39392300  1
  O  O9  1  0.25800300  0.92669200  0.39392300  1
  O  O10  1  0.41993200  0.25000000  0.60532300  1
  O  O11  1  0.42091300  0.58681800  0.11657800  1
  O  O12  1  0.42091300  0.91318200  0.11657800  1
  O  O13  1  0.42442900  0.58371300  0.62059800  1
  O  O14  1  0.42442900  0.91628700  0.62059800  1
  O  O15  1  0.44674800  0.25000000  0.12223500  1
  O  O16  1  0.55325200  0.75000000  0.87776500  1
  O  O17  1  0.57557100  0.08371300  0.37940200  1
  O  O18  1  0.57557100  0.41628700  0.37940200  1
  O  O19  1  0.57908700  0.08681800  0.88342200  1
  O  O20  1  0.57908700  0.41318200  0.88342200  1
  O  O21  1  0.58006800  0.75000000  0.39467700  1
  O  O22  1  0.74199700  0.07330800  0.60607700  1
  O  O23  1  0.74199700  0.42669200  0.60607700  1
  O  O24  1  0.75800300  0.57330800  0.10607700  1
  O  O25  1  0.75800300  0.92669200  0.10607700  1
  O  O26  1  0.91993200  0.25000000  0.89467700  1
  O  O27  1  0.92091300  0.91318200  0.38342200  1
  O  O28  1  0.92091300  0.58681800  0.38342200  1
  O  O29  1  0.92442900  0.91628700  0.87940200  1
  O  O30  1  0.92442900  0.58371300  0.87940200  1
  O  O31  1  0.94674800  0.25000000  0.37776500  1
loop_
_geom_bond_atom_site_label_1
_geom_bond_atom_site_label_2
_geom_bond_distance
_geom_bond_site_symmetry_2
Li0 O1 1.950216 1_655
Li0 O28 2.009989 1_555
Li0 O5 2.036062 1_655
Li0 O24 2.133100 1_555
Li1 O2 1.950216 1_665
Li1 O27 2.009989 1_555
Li1 O5 2.036062 1_655
Li1 O25 2.133100 1_555
Li2 O27 1.979418 1_445
Li2 O4 2.018339 1_555
Li2 O31 2.066328 1_455
Li2 O9 2.085868 1_545
Li3 O28 1.979418 1_455
Li3 O3 2.018339 1_555
Li3 O31 2.066328 1_455
Li3 O8 2.085868 1_555
Li4 O0 1.983490 1_555
Li4 O28 2.056669 1_455
Li4 O27 2.056669 1_455
Li5 O26 1.991620 1_455
Li5 O6 2.113814 1_555
Li5 O7 2.113814 1_555
Li5 O2 2.166528 1_556
Li5 O1 2.166528 1_556
Li6 O1 1.980092 1_556
Li6 O7 2.012251 1_555
Li6 O30 2.025509 1_455
Li6 O5 2.053240 1_556
Li7 O2 1.980092 1_566
Li7 O6 2.012251 1_565
Li7 O29 2.025509 1_455
Li7 O5 2.053240 1_556
Li8 O3 1.915217 1_555
Li8 O13 1.933068 1_555
Li8 O0 1.995595 1_555
Li9 O4 1.915217 1_565
Li9 O14 1.933068 1_555
Li9 O0 1.995595 1_555
Li10 O12 1.915212 1_545
Li10 O2 1.933076 1_555
Li10 O15 1.995589 1_555
Li11 O11 1.915212 1_555
Li11 O1 1.933076 1_555
Li11 O15 1.995589 1_555
Li12 O14 1.980092 1_545
Li12 O9 2.012251 1_545
Li12 O17 2.025509 1_555
Li12 O10 2.053240 1_555
Li13 O13 1.980092 1_555
Li13 O8 2.012251 1_555
Li13 O18 2.025509 1_555
Li13 O10 2.053240 1_555
Li14 O21 1.991620 1_555
Li14 O8 2.113814 1_555
Li14 O9 2.113814 1_555
Li14 O14 2.166528 1_555
Li14 O13 2.166528 1_555
Li15 O15 1.983490 1_556
Li15 O19 2.056669 1_555
Li15 O20 2.056669 1_555
Li16 O20 1.979418 1_555
Li16 O11 2.018339 1_556
Li16 O16 2.066328 1_555
Li16 O7 2.085868 1_555
Li17 O19 1.979418 1_565
Li17 O12 2.018339 1_556
Li17 O16 2.066328 1_555
Li17 O6 2.085868 1_565
Li18 O14 1.950216 1_545
Li18 O19 2.009989 1_555
Li18 O10 2.036062 1_555
Li18 O22 2.133100 1_555
Li19 O13 1.950216 1_555
Li19 O20 2.009989 1_555
Li19 O10 2.036062 1_555
Li19 O23 2.133100 1_555
Li20 O18 1.950216 1_555
Li20 O11 2.009989 1_555
Li20 O21 2.036062 1_555
Li20 O8 2.133100 1_555
Li21 O17 1.950216 1_565
Li21 O12 2.009989 1_555
Li21 O21 2.036062 1_555
Li21 O9 2.133100 1_555
Li22 O12 1.979418 1_545
Li22 O19 2.018339 1_554
Li22 O15 2.066328 1_555
Li22 O25 2.085868 1_545
Li23 O11 1.979418 1_555
Li23 O20 2.018339 1_554
Li23 O15 2.066328 1_555
Li23 O24 2.085868 1_555
Li24 O16 1.983490 1_554
Li24 O11 2.056669 1_555
Li24 O12 2.056669 1_555
Li25 O10 1.991620 1_555
Li25 O22 2.113814 1_555
Li25 O23 2.113814 1_555
Li25 O17 2.166528 1_555
Li25 O18 2.166528 1_555
Li26 O18 1.980092 1_555
Li26 O23 2.012251 1_555
Li26 O13 2.025509 1_555
Li26 O21 2.053240 1_555
Li27 O17 1.980092 1_565
Li27 O22 2.012251 1_565
Li27 O14 2.025509 1_555
Li27 O21 2.053240 1_555
Li28 O20 1.915212 1_555
Li28 O30 1.933076 1_555
Li28 O16 1.995589 1_555
Li29 O19 1.915212 1_565
Li29 O29 1.933076 1_555
Li29 O16 1.995589 1_555
Li30 O27 1.915212 1_545
Li30 O17 1.933076 1_555
Li30 O31 1.995589 1_555
Li31 O28 1.915212 1_555
Li31 O18 1.933076 1_555
Li31 O31 1.995589 1_555
Li32 O29 1.980092 1_544
Li32 O25 2.012251 1_545
Li32 O2 2.025509 1_655
Li32 O26 2.053240 1_554
Li33 O30 1.980092 1_554
Li33 O24 2.012251 1_555
Li33 O1 2.025509 1_655
Li33 O26 2.053240 1_554
Li34 O5 1.991620 1_655
Li34 O24 2.113814 1_555
Li34 O25 2.113814 1_555
Li34 O29 2.166528 1_554
Li34 O30 2.166528 1_554
Li35 O31 1.983490 1_555
Li35 O3 2.056669 1_655
Li35 O4 2.056669 1_655
Li36 O4 1.979418 1_665
Li36 O27 2.018339 1_555
Li36 O0 2.066328 1_655
Li36 O22 2.085868 1_565
Li37 O3 1.979418 1_655
Li37 O28 2.018339 1_555
Li37 O0 2.066328 1_655
Li37 O23 2.085868 1_555
Li38 O29 1.950216 1_445
Li38 O4 2.009989 1_555
Li38 O26 2.036062 1_455
Li38 O6 2.133100 1_555
Li39 O30 1.950216 1_455
Li39 O3 2.009989 1_555
Li39 O26 2.036062 1_455
Li39 O7 2.133100 1_555
Ni0 O31 1.866557 1_455
Ni0 O1 1.867453 1_555
Ni0 O2 1.867453 1_555
Ni1 O10 1.857753 1_555
Ni1 O4 1.883024 1_555
Ni1 O3 1.883024 1_555
Ni2 O5 1.857753 1_555
Ni2 O12 1.883024 1_555
Ni2 O11 1.883024 1_555
Ni3 O16 1.866557 1_555
Ni3 O14 1.867453 1_555
Ni3 O13 1.867453 1_555
Ni4 O15 1.866557 1_555
Ni4 O18 1.867453 1_555
Ni4 O17 1.867453 1_555
Ni5 O26 1.857753 1_555
Ni5 O19 1.883024 1_555
Ni5 O20 1.883024 1_555
Ni6 O21 1.857753 1_555
Ni6 O28 1.883024 1_555
Ni6 O27 1.883024 1_555
Ni7 O0 1.866557 1_655
Ni7 O30 1.867453 1_555
Ni7 O29 1.867453 1_555
H0 O8 0.980321 1_555
H1 O9 0.980321 1_555
H2 O6 0.980321 1_555
H3 O7 0.980321 1_555
H4 O24 0.980321 1_555
H5 O25 0.980321 1_555
H6 O22 0.980321 1_555
H7 O23 0.980321 1_555
