# generated using pymatgen
data_Tm6GaNi2
_symmetry_space_group_name_H-M   'P 1'
_cell_length_a   8.14091227
_cell_length_b   8.14090637
_cell_length_c   8.14091387
_cell_angle_alpha   106.95904798
_cell_angle_beta   109.55544980
_cell_angle_gamma   111.93740309
_symmetry_Int_Tables_number   1
_chemical_formula_structural   Tm6GaNi2
_chemical_formula_sum   'Tm12 Ga2 Ni4'
_cell_volume   414.55006546
_cell_formula_units_Z   2
loop_
 _symmetry_equiv_pos_site_id
 _symmetry_equiv_pos_as_xyz
  1  'x, y, z'
loop_
 _atom_site_type_symbol
 _atom_site_label
 _atom_site_symmetry_multiplicity
 _atom_site_fract_x
 _atom_site_fract_y
 _atom_site_fract_z
 _atom_site_occupancy
  Tm  Tm0  1  0.69769228  0.26467362  0.96236594  1
  Tm  Tm1  1  0.30230772  0.73532638  0.03763406  1
  Tm  Tm2  1  0.69769288  0.73532649  0.43301978  1
  Tm  Tm3  1  0.30230712  0.26467351  0.56698022  1
  Tm  Tm4  1  0.80542650  0.13276974  0.32734353  1
  Tm  Tm5  1  0.80542579  0.47808269  0.67265616  1
  Tm  Tm6  1  0.19457350  0.86723026  0.67265647  1
  Tm  Tm7  1  0.19457421  0.52191731  0.32734384  1
  Tm  Tm8  1  0.60397383  0.78398109  0.81999281  1
  Tm  Tm9  1  0.96398828  0.78398088  0.18000734  1
  Tm  Tm10  1  0.03601172  0.21601912  0.81999266  1
  Tm  Tm11  1  0.39602617  0.21601891  0.18000719  1
  Ga  Ga0  1  0.50000000  0.50000000  -0.00000000  1
  Ga  Ga1  1  0.50000000  -0.00000000  0.50000000  1
  Ni  Ni0  1  0.84877281  0.49999878  0.34877285  1
  Ni  Ni1  1  0.15122719  0.50000122  0.65122715  1
  Ni  Ni2  1  0.99999963  0.12212048  0.12212000  1
  Ni  Ni3  1  0.00000037  0.87787952  0.87788000  1
loop_
_geom_bond_atom_site_label_1
_geom_bond_atom_site_label_2
_geom_bond_distance
_geom_bond_site_symmetry_2
Tm0 Tm4 3.401636 1_556
Tm0 Tm7 3.401638 1_656
Tm0 Tm8 3.430798 1_545
Tm0 Tm10 3.430802 1_655
Tm0 Tm9 3.452933 1_556
Tm0 Tm11 3.452938 1_556
Tm0 Tm6 3.462185 1_545
Tm0 Tm5 3.462188 1_555
Tm0 Tm3 3.712883 1_555
Tm1 Tm6 3.401636 1_554
Tm1 Tm5 3.401638 1_454
Tm1 Tm11 3.430798 1_565
Tm1 Tm9 3.430802 1_455
Tm1 Tm10 3.452933 1_554
Tm1 Tm8 3.452938 1_554
Tm1 Tm4 3.462185 1_565
Tm1 Tm7 3.462188 1_555
Tm1 Tm2 3.712883 1_555
Tm2 Tm5 3.401625 1_555
Tm2 Tm6 3.401629 1_655
Tm2 Tm8 3.430796 1_555
Tm2 Tm9 3.452942 1_555
Tm2 Tm7 3.462185 1_555
Tm2 Tm4 3.462189 1_565
Tm3 Tm7 3.401625 1_555
Tm3 Tm4 3.401629 1_455
Tm3 Tm9 3.430795 1_445
Tm3 Tm8 3.452936 1_555
Tm3 Tm5 3.462185 1_555
Tm3 Tm6 3.462189 1_545
Tm4 Tm9 3.599409 1_545
Tm4 Tm8 3.599409 1_544
Tm5 Tm8 3.599408 1_555
Tm5 Tm9 3.599412 1_556
Tm6 Tm9 3.534392 1_455
Tm6 Tm8 3.534395 1_555
Tm7 Tm8 3.534390 1_555
Tm7 Tm9 3.534393 1_455
Tm8 Tm9 3.380732 1_556
Tm10 Tm11 3.380732 1_556
Tm10 Tm2 3.430795 1_445
Tm10 Tm3 3.452942 1_555
Tm10 Tm4 3.534392 1_455
Tm10 Tm5 3.534393 1_455
Tm10 Tm6 3.599409 1_545
Tm10 Tm7 3.599412 1_556
Tm11 Tm3 3.430796 1_555
Tm11 Tm2 3.452936 1_555
Tm11 Tm5 3.534390 1_555
Tm11 Tm4 3.534395 1_555
Tm11 Tm7 3.599408 1_555
Tm11 Tm6 3.599409 1_544
Ga0 Tm1 2.940344 1_555
Ga0 Tm0 2.940344 1_554
Ga0 Tm3 2.940351 1_554
Ga0 Tm2 2.940351 1_555
Ga0 Tm10 3.090835 1_554
Ga0 Tm9 3.090835 1_555
Ga0 Tm11 3.090836 1_555
Ga0 Tm8 3.090836 1_554
Ga1 Tm1 3.165955 1_545
Ga1 Tm0 3.165955 1_555
Ga1 Tm2 3.165956 1_545
Ga1 Tm3 3.165956 1_555
Ga1 Tm7 3.247178 1_545
Ga1 Tm5 3.247178 1_555
Ga1 Tm4 3.247184 1_555
Ga1 Tm6 3.247184 1_545
Ga1 Tm9 3.592208 1_445
Ga1 Tm10 3.592208 1_655
Ga1 Tm8 3.592208 1_545
Ga1 Tm11 3.592208 1_555
Ni0 Tm0 2.685524 1_554
Ni0 Tm2 2.685533 1_555
Ni0 Tm4 2.821137 1_555
Ni0 Tm5 2.821144 1_555
Ni0 Tm7 2.821148 1_655
Ni0 Tm6 2.821149 1_655
Ni0 Ni1 2.840199 1_655
Ni0 Tm11 3.034388 1_555
Ni0 Tm9 3.034396 1_555
Ni1 Tm1 2.685524 1_556
Ni1 Tm3 2.685533 1_555
Ni1 Tm6 2.821137 1_555
Ni1 Tm7 2.821144 1_555
Ni1 Tm5 2.821148 1_455
Ni1 Tm4 2.821149 1_455
Ni1 Tm8 3.034388 1_555
Ni1 Tm10 3.034396 1_555
Ni2 Ni3 2.366565 1_644
Ni2 Tm7 2.664122 1_655
Ni2 Tm4 2.664124 1_555
Ni2 Tm8 2.851662 1_544
Ni2 Tm10 2.851665 1_654
Ni2 Tm11 2.851668 1_655
Ni2 Tm9 2.851669 1_545
Ni2 Tm3 3.157031 1_655
Ni2 Tm0 3.157031 1_554
Ni3 Tm5 2.664122 1_455
Ni3 Tm6 2.664124 1_555
Ni3 Tm11 2.851662 1_566
Ni3 Tm9 2.851665 1_456
Ni3 Tm8 2.851668 1_455
Ni3 Tm10 2.851669 1_565
Ni3 Tm2 3.157031 1_455
Ni3 Tm1 3.157031 1_556
