# generated using pymatgen
data_NbBi2O5F
_symmetry_space_group_name_H-M   'P 1'
_cell_length_a   5.46711800
_cell_length_b   5.47477600
_cell_length_c   16.98143800
_cell_angle_alpha   90.00000000
_cell_angle_beta   90.00000000
_cell_angle_gamma   90.00000000
_symmetry_Int_Tables_number   1
_chemical_formula_structural   NbBi2O5F
_chemical_formula_sum   'Nb4 Bi8 O20 F4'
_cell_volume   508.27560527
_cell_formula_units_Z   4
loop_
 _symmetry_equiv_pos_site_id
 _symmetry_equiv_pos_as_xyz
  1  'x, y, z'
loop_
 _atom_site_type_symbol
 _atom_site_label
 _atom_site_symmetry_multiplicity
 _atom_site_fract_x
 _atom_site_fract_y
 _atom_site_fract_z
 _atom_site_occupancy
  Nb  Nb0  1  0.01095800  0.51146500  0.75322500  1
  Nb  Nb1  1  0.51095800  0.48853500  0.24677500  1
  Nb  Nb2  1  0.51095800  0.98853500  0.75322500  1
  Nb  Nb3  1  0.01095800  0.01146500  0.24677500  1
  Bi  Bi0  1  0.99162000  0.00567600  0.57550300  1
  Bi  Bi1  1  0.49162000  0.99432400  0.42449700  1
  Bi  Bi2  1  0.49162000  0.49432400  0.57550300  1
  Bi  Bi3  1  0.99162000  0.50567600  0.42449700  1
  Bi  Bi4  1  0.99071600  0.97496600  0.92433800  1
  Bi  Bi5  1  0.49071600  0.02503400  0.07566200  1
  Bi  Bi6  1  0.49071600  0.52503400  0.92433800  1
  Bi  Bi7  1  0.99071600  0.47496600  0.07566200  1
  O  O0  1  0.03926400  0.57176300  0.86269100  1
  O  O1  1  0.53926400  0.42823700  0.13730900  1
  O  O2  1  0.53926400  0.92823700  0.86269100  1
  O  O3  1  0.03926400  0.07176300  0.13730900  1
  O  O4  1  0.25288100  0.75323100  0.00220600  1
  O  O5  1  0.75288100  0.24676900  0.99779400  1
  O  O6  1  0.75288100  0.74676900  0.00220600  1
  O  O7  1  0.25288100  0.25323100  0.99779400  1
  O  O8  1  0.25248100  0.75158500  0.50319000  1
  O  O9  1  0.75248100  0.24841500  0.49681000  1
  O  O10  1  0.75248100  0.74841500  0.50319000  1
  O  O11  1  0.25248100  0.25158500  0.49681000  1
  O  O12  1  0.23730600  0.20855800  0.75292100  1
  O  O13  1  0.73730600  0.79144200  0.24707900  1
  O  O14  1  0.73730600  0.29144200  0.75292100  1
  O  O15  1  0.23730600  0.70855800  0.24707900  1
  O  O16  1  0.32669300  0.70086200  0.72104800  1
  O  O17  1  0.82669300  0.29913800  0.27895200  1
  O  O18  1  0.82669300  0.79913800  0.72104800  1
  O  O19  1  0.32669300  0.20086200  0.27895200  1
  F  F0  1  0.52208300  0.05120200  0.62273800  1
  F  F1  1  0.02208300  0.94879800  0.37726200  1
  F  F2  1  0.02208300  0.44879800  0.62273800  1
  F  F3  1  0.52208300  0.55120200  0.37726200  1
loop_
_geom_bond_atom_site_label_1
_geom_bond_atom_site_label_2
_geom_bond_distance
_geom_bond_site_symmetry_2
Nb0 O0 1.894307 1_555
Nb0 O14 1.920758 1_455
Nb0 O18 1.947786 1_455
Nb0 O12 2.069174 1_555
Nb0 O16 2.086473 1_555
Nb1 O1 1.894307 1_555
Nb1 O15 1.920758 1_555
Nb1 O19 1.947786 1_555
Nb1 O13 2.069174 1_555
Nb1 O17 2.086473 1_555
Nb2 O2 1.894307 1_555
Nb2 O12 1.920758 1_565
Nb2 O16 1.947786 1_555
Nb2 O14 2.069174 1_565
Nb2 O18 2.086473 1_555
Nb3 O3 1.894307 1_555
Nb3 O13 1.920758 1_445
Nb3 O17 1.947786 1_455
Nb3 O15 2.069174 1_545
Nb3 O19 2.086473 1_555
Bi0 O10 2.280559 1_545
Bi0 O9 2.293717 1_555
Bi0 O8 2.340298 1_645
Bi0 O11 2.373224 1_655
Bi0 F2 2.560581 1_655
Bi0 F0 2.700940 1_555
Bi0 O18 2.863606 1_545
Bi1 O11 2.280559 1_565
Bi1 O8 2.293717 1_555
Bi1 O9 2.340298 1_565
Bi1 O10 2.373224 1_555
Bi1 F3 2.560581 1_555
Bi1 F1 2.700940 1_555
Bi1 O19 2.863606 1_565
Bi2 O8 2.280559 1_555
Bi2 O11 2.293717 1_555
Bi2 O10 2.340298 1_555
Bi2 O9 2.373224 1_555
Bi2 F0 2.560581 1_555
Bi2 F2 2.700940 1_555
Bi2 O16 2.863606 1_555
Bi3 O9 2.280559 1_555
Bi3 O10 2.293717 1_555
Bi3 O11 2.340298 1_655
Bi3 O8 2.373224 1_655
Bi3 F1 2.560581 1_655
Bi3 F3 2.700940 1_555
Bi3 O17 2.863606 1_555
Bi4 O6 2.236075 1_556
Bi4 O4 2.297061 1_656
Bi4 O5 2.336880 1_565
Bi4 O7 2.435396 1_665
Bi4 O0 2.457472 1_655
Bi4 O2 2.693154 1_555
Bi5 O7 2.236075 1_554
Bi5 O5 2.297061 1_554
Bi5 O4 2.336880 1_545
Bi5 O6 2.435396 1_545
Bi5 O1 2.457472 1_555
Bi5 O3 2.693154 1_555
Bi6 O4 2.236075 1_556
Bi6 O6 2.297061 1_556
Bi6 O7 2.336880 1_555
Bi6 O5 2.435396 1_555
Bi6 O2 2.457472 1_555
Bi6 O0 2.693154 1_555
Bi7 O5 2.236075 1_554
Bi7 O7 2.297061 1_654
Bi7 O6 2.336880 1_555
Bi7 O4 2.435396 1_655
Bi7 O3 2.457472 1_655
Bi7 O1 2.693154 1_555
F0 Nb2 2.243085 1_545
F1 Nb3 2.243085 1_565
F2 Nb0 2.243085 1_555
F3 Nb1 2.243085 1_555
