# generated using pymatgen
data_Bi(W3O10)6
_symmetry_space_group_name_H-M   'P 1'
_cell_length_a   12.81087592
_cell_length_b   12.81087592
_cell_length_c   12.81087543
_cell_angle_alpha   98.95099807
_cell_angle_beta   98.95099807
_cell_angle_gamma   98.95100129
_symmetry_Int_Tables_number   1
_chemical_formula_structural   Bi(W3O10)6
_chemical_formula_sum   'Bi1 W18 O60'
_cell_volume   2016.47657296
_cell_formula_units_Z   1
loop_
 _symmetry_equiv_pos_site_id
 _symmetry_equiv_pos_as_xyz
  1  'x, y, z'
loop_
 _atom_site_type_symbol
 _atom_site_label
 _atom_site_symmetry_multiplicity
 _atom_site_fract_x
 _atom_site_fract_y
 _atom_site_fract_z
 _atom_site_occupancy
  Bi  Bi0  1  0.46371300  0.46371300  0.46371300  1
  W  W0  1  0.36619800  0.14505100  0.22756400  1
  W  W1  1  0.14505100  0.22756400  0.36619800  1
  W  W2  1  0.22756400  0.36619800  0.14505100  1
  W  W3  1  0.62780500  0.85073300  0.76564200  1
  W  W4  1  0.85073300  0.76564200  0.62780500  1
  W  W5  1  0.76564200  0.62780500  0.85073300  1
  W  W6  1  0.61375200  0.31284800  0.26688700  1
  W  W7  1  0.31284800  0.26688700  0.61375200  1
  W  W8  1  0.26688700  0.61375200  0.31284800  1
  W  W9  1  0.38634600  0.68784400  0.73494400  1
  W  W10  1  0.68784400  0.73494400  0.38634600  1
  W  W11  1  0.73494400  0.38634600  0.68784400  1
  W  W12  1  0.53597600  0.18400900  0.47428000  1
  W  W13  1  0.18400900  0.47428000  0.53597600  1
  W  W14  1  0.47428000  0.53597600  0.18400900  1
  W  W15  1  0.46633700  0.81799600  0.52330800  1
  W  W16  1  0.81799600  0.52330800  0.46633700  1
  W  W17  1  0.52330800  0.46633700  0.81799600  1
  O  O0  1  0.31873900  0.02760800  0.13567000  1
  O  O1  1  0.02760800  0.13567000  0.31873900  1
  O  O2  1  0.13567000  0.31873900  0.02760800  1
  O  O3  1  0.68815000  0.96475600  0.85969600  1
  O  O4  1  0.96475600  0.85969600  0.68815000  1
  O  O5  1  0.85969600  0.68815000  0.96475600  1
  O  O6  1  0.64030800  0.22408900  0.38006300  1
  O  O7  1  0.22408900  0.38006300  0.64030800  1
  O  O8  1  0.38006300  0.64030800  0.22408900  1
  O  O9  1  0.36276100  0.77639800  0.61944700  1
  O  O10  1  0.77639800  0.61944700  0.36276100  1
  O  O11  1  0.61944700  0.36276100  0.77639800  1
  O  O12  1  0.50519000  0.19467800  0.18779600  1
  O  O13  1  0.19467800  0.18779600  0.50519000  1
  O  O14  1  0.18779600  0.50519000  0.19467800  1
  O  O15  1  0.49162300  0.81100400  0.81517800  1
  O  O16  1  0.81100400  0.81517800  0.49162300  1
  O  O17  1  0.81517800  0.49162300  0.81100400  1
  O  O18  1  0.59899300  0.09090000  0.53171200  1
  O  O19  1  0.09090000  0.53171200  0.59899300  1
  O  O20  1  0.53171200  0.59899300  0.09090000  1
  O  O21  1  0.39889600  0.90787600  0.46490000  1
  O  O22  1  0.90787600  0.46490000  0.39889600  1
  O  O23  1  0.46490000  0.39889600  0.90787600  1
  O  O24  1  0.72120700  0.29576300  0.20334300  1
  O  O25  1  0.29576300  0.20334300  0.72120700  1
  O  O26  1  0.20334300  0.72120700  0.29576300  1
  O  O27  1  0.27726200  0.70677200  0.79551200  1
  O  O28  1  0.70677200  0.79551200  0.27726200  1
  O  O29  1  0.79551200  0.27726200  0.70677200  1
  O  O30  1  0.44607900  0.09470200  0.34773900  1
  O  O31  1  0.09470200  0.34773900  0.44607900  1
  O  O32  1  0.34773900  0.44607900  0.09470200  1
  O  O33  1  0.55361100  0.91276000  0.65047200  1
  O  O34  1  0.91276000  0.65047200  0.55361100  1
  O  O35  1  0.65047200  0.55361100  0.91276000  1
  O  O36  1  0.61522900  0.31957800  0.56796100  1
  O  O37  1  0.31957800  0.56796100  0.61522900  1
  O  O38  1  0.56796100  0.61522900  0.31957800  1
  O  O39  1  0.38967100  0.68135300  0.43052800  1
  O  O40  1  0.68135300  0.43052800  0.38967100  1
  O  O41  1  0.43052800  0.38967100  0.68135300  1
  O  O42  1  0.31062700  0.25319800  0.15639300  1
  O  O43  1  0.25319800  0.15639300  0.31062700  1
  O  O44  1  0.15639300  0.31062700  0.25319800  1
  O  O45  1  0.67728000  0.73575700  0.83063200  1
  O  O46  1  0.73575700  0.83063200  0.67728000  1
  O  O47  1  0.83063200  0.67728000  0.73575700  1
  O  O48  1  0.41798500  0.19857100  0.54970800  1
  O  O49  1  0.19857100  0.54970800  0.41798500  1
  O  O50  1  0.54970800  0.41798500  0.19857100  1
  O  O51  1  0.58664500  0.80797300  0.45122300  1
  O  O52  1  0.80797300  0.45122300  0.58664500  1
  O  O53  1  0.45122300  0.58664500  0.80797300  1
  O  O54  1  0.47757000  0.30945600  0.37338200  1
  O  O55  1  0.30945600  0.37338200  0.47757000  1
  O  O56  1  0.37338200  0.47757000  0.30945600  1
  O  O57  1  0.51609100  0.70631500  0.63358500  1
  O  O58  1  0.70631500  0.63358500  0.51609100  1
  O  O59  1  0.63358500  0.51609100  0.70631500  1
loop_
_geom_bond_atom_site_label_1
_geom_bond_atom_site_label_2
_geom_bond_distance
_geom_bond_site_symmetry_2
Bi0 O55 2.176551 1_555
Bi0 O56 2.176551 1_555
Bi0 O54 2.176551 1_555
O0 W0 1.720660 1_555
O1 W1 1.720660 1_555
O2 W2 1.720660 1_555
O3 W3 1.730390 1_555
O4 W4 1.730390 1_555
O5 W5 1.730390 1_555
O6 W12 1.997063 1_555
O6 W6 1.997689 1_555
O7 W13 1.997063 1_555
O7 W7 1.997689 1_555
O8 W14 1.997063 1_555
O8 W8 1.997689 1_555
O9 W15 2.013528 1_555
O9 W9 2.014305 1_555
O10 W16 2.013528 1_555
O10 W10 2.014306 1_555
O11 W17 2.013528 1_555
O11 W11 2.014305 1_555
O12 W6 1.918767 1_555
O12 W0 1.965993 1_555
O13 W7 1.918767 1_555
O13 W1 1.965993 1_555
O14 W8 1.918767 1_555
O14 W2 1.965993 1_555
O15 W9 1.940794 1_555
O15 W3 1.968284 1_555
O16 W10 1.940794 1_555
O16 W4 1.968284 1_555
O17 W11 1.940794 1_555
O17 W5 1.968284 1_555
O18 W12 1.733141 1_555
O19 W13 1.733141 1_555
O20 W14 1.733141 1_555
O21 W15 1.734551 1_555
O22 W16 1.734551 1_555
O23 W17 1.734551 1_555
O24 W6 1.729921 1_555
O25 W7 1.729921 1_555
O26 W8 1.729921 1_555
O27 W9 1.731497 1_555
O28 W10 1.731497 1_555
O29 W11 1.731497 1_555
O30 W12 1.922274 1_555
O30 W0 1.964087 1_555
O31 W13 1.922274 1_555
O31 W1 1.964087 1_555
O32 W14 1.922274 1_555
O32 W2 1.964087 1_555
O33 W15 1.942471 1_555
O33 W3 1.968554 1_555
O34 W16 1.942471 1_555
O34 W4 1.968554 1_555
O35 W17 1.942471 1_555
O35 W5 1.968554 1_555
O36 W11 1.972938 1_555
O36 W12 1.977624 1_555
O37 W9 1.972938 1_555
O37 W13 1.977624 1_555
O38 W10 1.972938 1_555
O38 W14 1.977624 1_555
O39 W15 1.973821 1_555
O39 W8 1.982157 1_555
O40 W16 1.973821 1_555
O40 W6 1.982157 1_555
O41 W17 1.973821 1_555
O41 W7 1.982157 1_555
O42 W2 1.935398 1_555
O42 W0 1.937950 1_555
O43 W0 1.935398 1_555
O43 W1 1.937950 1_555
O44 W1 1.935398 1_555
O44 W2 1.937950 1_555
O45 W5 1.941021 1_555
O45 W3 1.942263 1_555
O46 W3 1.941021 1_555
O46 W4 1.942263 1_555
O47 W4 1.941021 1_555
O47 W5 1.942263 1_555
O48 W12 1.933790 1_555
O48 W7 1.934034 1_555
O49 W13 1.933790 1_555
O49 W8 1.934034 1_555
O50 W14 1.933790 1_555
O50 W6 1.934034 1_555
O51 W15 1.926740 1_555
O51 W10 1.928110 1_555
O52 W16 1.926740 1_555
O52 W11 1.928110 1_555
O53 W17 1.926740 1_555
O53 W9 1.928110 1_555
O54 W12 2.352235 1_555
O54 W6 2.375367 1_555
O54 W0 2.640543 1_555
O55 W13 2.352235 1_555
O55 W7 2.375367 1_555
O55 W1 2.640543 1_555
O56 W14 2.352235 1_555
O56 W8 2.375367 1_555
O56 W2 2.640543 1_555
O57 W15 2.254252 1_555
O57 W9 2.269287 1_555
O57 W3 2.404553 1_555
O58 W16 2.254252 1_555
O58 W10 2.269287 1_555
O58 W4 2.404553 1_555
O59 W17 2.254252 1_555
O59 W11 2.269287 1_555
O59 W5 2.404553 1_555
