# generated using pymatgen
data_Tb5Sn3
_symmetry_space_group_name_H-M   'P 1'
_cell_length_a   6.60607244
_cell_length_b   8.97258001
_cell_length_c   8.97265849
_cell_angle_alpha   119.99976582
_cell_angle_beta   90.00000078
_cell_angle_gamma   89.99999982
_symmetry_Int_Tables_number   1
_chemical_formula_structural   Tb5Sn3
_chemical_formula_sum   'Tb10 Sn6'
_cell_volume   460.58889869
_cell_formula_units_Z   2
loop_
 _symmetry_equiv_pos_site_id
 _symmetry_equiv_pos_as_xyz
  1  'x, y, z'
loop_
 _atom_site_type_symbol
 _atom_site_label
 _atom_site_symmetry_multiplicity
 _atom_site_fract_x
 _atom_site_fract_y
 _atom_site_fract_z
 _atom_site_occupancy
  Tb  Tb0  1  0.50000006  0.33333183  0.66666680  1
  Tb  Tb1  1  0.50000007  0.66666508  0.33333261  1
  Tb  Tb2  1  -0.00000002  0.66666773  0.33333255  1
  Tb  Tb3  1  -0.00000000  0.33333448  0.66666673  1
  Tb  Tb4  1  0.74999921  0.23919146  0.00000205  1
  Tb  Tb5  1  0.74999910  0.76078596  0.76079013  1
  Tb  Tb6  1  0.74999917  0.99999193  0.23920771  1
  Tb  Tb7  1  0.24999924  0.76081049  0.00000194  1
  Tb  Tb8  1  0.24999912  0.23921612  0.23920756  1
  Tb  Tb9  1  0.24999913  0.00000361  0.76078993  1
  Sn  Sn0  1  0.74999856  0.60572418  -0.00004305  1
  Sn  Sn1  1  0.75000069  0.39421513  0.39426256  1
  Sn  Sn2  1  0.75000130  0.00003487  0.60578190  1
  Sn  Sn3  1  0.24999852  0.39423327  -0.00004333  1
  Sn  Sn4  1  0.25000062  0.60574682  0.60578213  1
  Sn  Sn5  1  0.25000125  0.00004704  0.39426179  1
loop_
_geom_bond_atom_site_label_1
_geom_bond_atom_site_label_2
_geom_bond_distance
_geom_bond_site_symmetry_2
Sn0 Tb5 3.086510 1_554
Sn0 Tb6 3.086880 1_555
Sn0 Tb0 3.214823 1_554
Sn0 Tb3 3.214827 1_654
Sn0 Tb1 3.215359 1_555
Sn0 Tb2 3.215362 1_655
Sn0 Tb4 3.288947 1_555
Sn0 Tb7 3.584103 1_555
Sn0 Tb7 3.584112 1_655
Sn1 Tb6 3.086464 1_545
Sn1 Tb4 3.086836 1_555
Sn1 Tb3 3.214825 1_655
Sn1 Tb0 3.214843 1_555
Sn1 Tb1 3.215405 1_555
Sn1 Tb2 3.215421 1_655
Sn1 Tb5 3.288918 1_555
Sn1 Tb8 3.583974 1_655
Sn1 Tb8 3.583993 1_555
Sn2 Tb4 3.086458 1_556
Sn2 Tb5 3.086797 1_545
Sn2 Tb0 3.214896 1_555
Sn2 Tb3 3.214908 1_655
Sn2 Tb2 3.215347 1_645
Sn2 Tb1 3.215368 1_545
Sn2 Tb6 3.288952 1_545
Sn2 Tb9 3.583959 1_655
Sn2 Tb9 3.583986 1_555
Sn3 Tb9 3.086515 1_554
Sn3 Tb8 3.086885 1_555
Sn3 Tb3 3.214821 1_554
Sn3 Tb0 3.214823 1_554
Sn3 Tb2 3.215358 1_555
Sn3 Tb1 3.215362 1_555
Sn3 Tb7 3.288940 1_555
Sn3 Tb4 3.584106 1_455
Sn3 Tb4 3.584114 1_555
Sn4 Tb7 3.086456 1_556
Sn4 Tb9 3.086793 1_565
Sn4 Tb3 3.214896 1_555
Sn4 Tb0 3.214912 1_555
Sn4 Tb1 3.215355 1_555
Sn4 Tb2 3.215373 1_555
Sn4 Tb8 3.288949 1_555
Sn4 Tb5 3.583962 1_555
Sn4 Tb5 3.583981 1_455
Sn5 Tb8 3.086467 1_555
Sn5 Tb7 3.086830 1_545
Sn5 Tb0 3.214823 1_555
Sn5 Tb3 3.214845 1_555
Sn5 Tb2 3.215404 1_545
Sn5 Tb1 3.215416 1_545
Sn5 Tb9 3.288927 1_555
Sn5 Tb6 3.583970 1_545
Sn5 Tb6 3.583995 1_445
