# generated using pymatgen
data_RbV(CuS2)2
_symmetry_space_group_name_H-M   'P 1'
_cell_length_a   9.66570965
_cell_length_b   9.66570965
_cell_length_c   7.48975800
_cell_angle_alpha   90.00000000
_cell_angle_beta   90.00000000
_cell_angle_gamma   147.39927022
_symmetry_Int_Tables_number   1
_chemical_formula_structural   RbV(CuS2)2
_chemical_formula_sum   'Rb2 V2 Cu4 S8'
_cell_volume   377.00574097
_cell_formula_units_Z   2
loop_
 _symmetry_equiv_pos_site_id
 _symmetry_equiv_pos_as_xyz
  1  'x, y, z'
loop_
 _atom_site_type_symbol
 _atom_site_label
 _atom_site_symmetry_multiplicity
 _atom_site_fract_x
 _atom_site_fract_y
 _atom_site_fract_z
 _atom_site_occupancy
  Rb  Rb0  1  0.17565300  0.54128100  0.75000000  1
  Rb  Rb1  1  0.54128100  0.17565300  0.25000000  1
  V  V0  1  0.70941500  0.49729400  0.75000000  1
  V  V1  1  0.49729400  0.70941500  0.25000000  1
  Cu  Cu0  1  0.61881800  0.61881800  0.50000000  1
  Cu  Cu1  1  0.99874300  0.20684900  0.25000000  1
  Cu  Cu2  1  0.20684900  0.99874300  0.75000000  1
  Cu  Cu3  1  0.61881800  0.61881800  0.00000000  1
  S  S0  1  0.73162200  0.94321000  0.01044200  1
  S  S1  1  0.37717800  0.36323900  0.75000000  1
  S  S2  1  0.36323900  0.37717800  0.25000000  1
  S  S3  1  0.94321000  0.73162200  0.51044200  1
  S  S4  1  0.56782000  0.16702900  0.75000000  1
  S  S5  1  0.94321000  0.73162200  0.98955800  1
  S  S6  1  0.16702900  0.56782000  0.25000000  1
  S  S7  1  0.73162200  0.94321000  0.48955800  1
loop_
_geom_bond_atom_site_label_1
_geom_bond_atom_site_label_2
_geom_bond_distance
_geom_bond_site_symmetry_2
Rb0 S4 3.434279 1_455
Rb0 S4 3.510225 1_565
Rb0 S1 3.521888 1_555
Rb0 S7 3.549702 1_555
Rb0 S0 3.549702 1_556
Rb0 S7 3.720194 1_445
Rb0 S0 3.720194 1_446
Rb0 S6 3.759374 1_556
Rb0 S6 3.759374 1_555
Rb1 S6 3.434279 1_545
Rb1 S6 3.510225 1_655
Rb1 S2 3.521888 1_555
Rb1 S5 3.549702 1_554
Rb1 S3 3.549702 1_555
Rb1 S5 3.720194 1_444
Rb1 S3 3.720194 1_445
Rb1 S4 3.759374 1_555
Rb1 S4 3.759374 1_554
Cu0 S7 2.294780 1_555
Cu0 S3 2.294780 1_555
Cu0 S1 2.311342 1_555
Cu0 S2 2.311342 1_555
Cu1 S6 2.292816 1_655
Cu1 S0 2.300787 1_545
Cu1 S7 2.300787 1_545
Cu1 S2 2.312997 1_655
Cu2 S4 2.292816 1_565
Cu2 S3 2.300787 1_455
Cu2 S5 2.300787 1_455
Cu2 S1 2.312997 1_565
Cu3 S5 2.294780 1_554
Cu3 S0 2.294780 1_555
Cu3 S1 2.311342 1_554
Cu3 S2 2.311342 1_555
S0 V1 2.198208 1_555
S1 V0 2.231721 1_555
S2 V1 2.231721 1_555
S3 V0 2.198208 1_555
S4 V0 2.168484 1_555
S5 V0 2.198208 1_555
S6 V1 2.168484 1_555
S7 V1 2.198208 1_555
