# generated using pymatgen
data_Sr18La2MgRu9O40
_symmetry_space_group_name_H-M   'P 1'
_cell_length_a   3.95694536
_cell_length_b   3.95694619
_cell_length_c   69.32449487
_cell_angle_alpha   106.51151333
_cell_angle_beta   106.51151726
_cell_angle_gamma   89.95739186
_symmetry_Int_Tables_number   1
_chemical_formula_structural   Sr18La2MgRu9O40
_chemical_formula_sum   'Sr18 La2 Mg1 Ru9 O40'
_cell_volume   993.97822974
_cell_formula_units_Z   1
loop_
 _symmetry_equiv_pos_site_id
 _symmetry_equiv_pos_as_xyz
  1  'x, y, z'
loop_
 _atom_site_type_symbol
 _atom_site_label
 _atom_site_symmetry_multiplicity
 _atom_site_fract_x
 _atom_site_fract_y
 _atom_site_fract_z
 _atom_site_occupancy
  Sr  Sr0  1  0.36243800  0.36243800  0.97141200  1
  Sr  Sr1  1  0.35488500  0.35488500  0.77112700  1
  Sr  Sr2  1  0.63756200  0.63756200  0.82858800  1
  Sr  Sr3  1  0.35726300  0.35726300  0.67098100  1
  Sr  Sr4  1  0.64437700  0.64437700  0.72898900  1
  Sr  Sr5  1  0.35779800  0.35779800  0.57095900  1
  Sr  Sr6  1  0.64169900  0.64169900  0.62878200  1
  Sr  Sr7  1  0.35714000  0.35714000  0.47107100  1
  Sr  Sr8  1  0.64193200  0.64193200  0.52879200  1
  Sr  Sr9  1  0.35742900  0.35742900  0.37106200  1
  Sr  Sr10  1  0.64257100  0.64257100  0.42893800  1
  Sr  Sr11  1  0.35806800  0.35806800  0.27120800  1
  Sr  Sr12  1  0.64286000  0.64286000  0.32892900  1
  Sr  Sr13  1  0.35830100  0.35830100  0.17121800  1
  Sr  Sr14  1  0.64220200  0.64220200  0.22904100  1
  Sr  Sr15  1  0.35562300  0.35562300  0.07101100  1
  Sr  Sr16  1  0.64273700  0.64273700  0.12901900  1
  Sr  Sr17  1  0.64511500  0.64511500  0.02887300  1
  La  La0  1  0.33023900  0.33023900  0.87255600  1
  La  La1  1  0.66976100  0.66976100  0.92744400  1
  Mg  Mg0  1  0.00000000  0.00000000  0.90000000  1
  Ru  Ru0  1  0.00119000  0.00119000  0.80018100  1
  Ru  Ru1  1  0.00015300  0.00015300  0.69984200  1
  Ru  Ru2  1  0.99975600  0.99975600  0.59988200  1
  Ru  Ru3  1  0.99977200  0.99977200  0.49996200  1
  Ru  Ru4  1  0.00000000  0.00000000  0.40000000  1
  Ru  Ru5  1  0.99881000  0.99881000  0.99981900  1
  Ru  Ru6  1  0.00022800  0.00022800  0.30003800  1
  Ru  Ru7  1  0.00024400  0.00024400  0.20011800  1
  Ru  Ru8  1  0.99984700  0.99984700  0.10015800  1
  O  O0  1  0.13374500  0.13374500  0.93443700  1
  O  O1  1  0.16601400  0.16601400  0.83312100  1
  O  O2  1  0.50000000  0.00000000  0.90000000  1
  O  O3  1  0.16265400  0.16265400  0.73236900  1
  O  O4  1  0.83398600  0.83398600  0.96687900  1
  O  O5  1  0.49976100  0.00154800  0.79981600  1
  O  O6  1  0.16338200  0.16338200  0.63232900  1
  O  O7  1  0.86625500  0.86625500  0.86556300  1
  O  O8  1  0.00000000  0.50000000  0.90000000  1
  O  O9  1  0.50028600  0.00053800  0.69987200  1
  O  O10  1  0.00000100  0.49987700  0.49998100  1
  O  O11  1  0.16253200  0.16253200  0.53243400  1
  O  O12  1  0.83976000  0.83976000  0.76760200  1
  O  O13  1  0.00154800  0.49976100  0.79981600  1
  O  O14  1  0.49958200  0.99943500  0.59984800  1
  O  O15  1  0.16297200  0.16297200  0.43246800  1
  O  O16  1  0.83734800  0.83734800  0.66740900  1
  O  O17  1  0.00053800  0.50028600  0.69987200  1
  O  O18  1  0.49987700  0.00000100  0.49998100  1
  O  O19  1  0.16292000  0.16292000  0.33250600  1
  O  O20  1  0.83596000  0.83596000  0.56738300  1
  O  O21  1  0.99943500  0.49958200  0.59984800  1
  O  O22  1  0.50000000  0.00000000  0.40000000  1
  O  O23  1  0.00056500  0.50041800  0.20015200  1
  O  O24  1  0.16404000  0.16404000  0.23261700  1
  O  O25  1  0.83708000  0.83708000  0.46749400  1
  O  O26  1  0.50012300  0.99999900  0.30001900  1
  O  O27  1  0.16265200  0.16265200  0.13259100  1
  O  O28  1  0.83702800  0.83702800  0.36753200  1
  O  O29  1  0.00000000  0.50000000  0.40000000  1
  O  O30  1  0.50041800  0.00056500  0.20015200  1
  O  O31  1  0.99845200  0.50023900  0.00018400  1
  O  O32  1  0.16024000  0.16024000  0.03239800  1
  O  O33  1  0.83746800  0.83746800  0.26756600  1
  O  O34  1  0.99999900  0.50012300  0.30001900  1
  O  O35  1  0.49971400  0.99946200  0.10012800  1
  O  O36  1  0.83661800  0.83661800  0.16767100  1
  O  O37  1  0.50023900  0.99845200  0.00018400  1
  O  O38  1  0.83734600  0.83734600  0.06763100  1
  O  O39  1  0.99946200  0.49971400  0.10012800  1
loop_
_geom_bond_atom_site_label_1
_geom_bond_atom_site_label_2
_geom_bond_distance
_geom_bond_site_symmetry_2
La0 O7 2.443295 1_445
La0 O1 2.509844 1_555
La0 O8 2.542413 1_555
La0 O2 2.542413 1_555
La0 O8 2.739466 1_655
La0 O2 2.739467 1_565
La0 O7 2.859563 1_545
La0 O7 2.859563 1_455
La0 O7 3.226111 1_555
La1 O0 2.443295 1_665
La1 O4 2.509844 1_555
La1 O8 2.542413 1_655
La1 O2 2.542413 1_565
La1 O8 2.739466 1_555
La1 O2 2.739467 1_555
La1 O0 2.859563 1_565
La1 O0 2.859563 1_655
La1 O0 3.226111 1_555
Mg0 O2 1.978473 1_455
Mg0 O2 1.978473 1_555
Mg0 O8 1.978473 1_545
Mg0 O8 1.978473 1_555
Mg0 O0 2.196269 1_555
Mg0 O7 2.196269 1_445
O0 Sr0 2.360594 1_555
O1 Ru0 2.091133 1_555
O1 Sr2 2.780936 1_555
O1 Sr2 2.811901 1_455
O1 Sr2 2.811901 1_545
O1 Sr2 2.846623 1_445
O3 Ru1 2.064912 1_555
O3 Sr1 2.460473 1_555
O3 Sr4 2.799088 1_555
O3 Sr4 2.805173 1_455
O3 Sr4 2.805173 1_545
O3 Sr4 2.815383 1_445
O4 Ru5 2.091133 1_555
O4 Sr0 2.780936 1_555
O4 Sr0 2.811901 1_655
O4 Sr0 2.811901 1_565
O4 Sr0 2.846623 1_665
O5 Ru0 1.977089 1_655
O5 Ru0 1.980165 1_555
O5 Sr2 2.672064 1_555
O5 Sr1 2.677734 1_555
O5 Sr1 2.700566 1_545
O5 Sr2 2.713615 1_545
O6 Ru2 2.059866 1_445
O6 Sr3 2.453757 1_555
O6 Sr6 2.785553 1_555
O6 Sr6 2.806083 1_455
O6 Sr6 2.806083 1_545
O6 Sr6 2.830581 1_445
O7 Sr2 2.360594 1_555
O9 Ru1 1.978410 1_555
O9 Ru1 1.978537 1_655
O9 Sr3 2.696445 1_545
O9 Sr3 2.699195 1_555
O9 Sr4 2.704605 1_555
O9 Sr4 2.710586 1_545
O10 Ru3 1.978432 1_455
O10 Ru3 1.978515 1_445
O10 Sr8 2.690249 1_555
O10 Sr7 2.695792 1_455
O10 Sr8 2.698502 1_455
O10 Sr7 2.701493 1_555
O11 Ru3 2.061428 1_445
O11 Sr5 2.445761 1_555
O11 Sr8 2.794725 1_555
O11 Sr8 2.806517 1_455
O11 Sr8 2.806517 1_545
O11 Sr8 2.822387 1_445
O12 Ru0 2.068213 1_665
O12 Sr4 2.451333 1_555
O12 Sr1 2.794485 1_665
O12 Sr1 2.805913 1_655
O12 Sr1 2.805913 1_565
O12 Sr1 2.821424 1_555
O13 Ru0 1.977090 1_565
O13 Ru0 1.980165 1_555
O13 Sr2 2.672064 1_555
O13 Sr1 2.677734 1_555
O13 Sr1 2.700566 1_455
O13 Sr2 2.713615 1_455
O14 Ru2 1.978454 1_455
O14 Ru2 1.978494 1_555
O14 Sr5 2.691647 1_555
O14 Sr6 2.694760 1_565
O14 Sr5 2.703851 1_565
O14 Sr6 2.704617 1_555
O15 Ru4 2.061178 1_555
O15 Sr7 2.450659 1_555
O15 Sr10 2.792147 1_555
O15 Sr10 2.805951 1_455
O15 Sr10 2.805951 1_545
O15 Sr10 2.823813 1_445
O16 Ru1 2.058957 1_665
O16 Sr6 2.452231 1_555
O16 Sr3 2.796240 1_555
O16 Sr3 2.806145 1_655
O16 Sr3 2.806146 1_565
O16 Sr3 2.820148 1_665
O17 Ru1 1.978411 1_555
O17 Ru1 1.978538 1_565
O17 Sr3 2.696444 1_455
O17 Sr3 2.699195 1_555
O17 Sr4 2.704604 1_555
O17 Sr4 2.710586 1_455
O18 Ru3 1.978431 1_545
O18 Ru3 1.978515 1_445
O18 Sr8 2.690249 1_555
O18 Sr7 2.695792 1_545
O18 Sr8 2.698502 1_545
O18 Sr7 2.701494 1_555
O19 Ru6 2.061173 1_555
O19 Sr9 2.447693 1_555
O19 Sr12 2.795596 1_555
O19 Sr12 2.806174 1_455
O19 Sr12 2.806174 1_545
O19 Sr12 2.820844 1_445
O20 Ru2 2.063164 1_555
O20 Sr8 2.449895 1_555
O20 Sr5 2.785642 1_555
O20 Sr5 2.806232 1_655
O20 Sr5 2.806232 1_565
O20 Sr5 2.830788 1_665
O21 Ru2 1.978455 1_545
O21 Ru2 1.978494 1_555
O21 Sr5 2.691646 1_555
O21 Sr6 2.694759 1_655
O21 Sr5 2.703851 1_655
O21 Sr6 2.704617 1_555
O22 Ru4 1.978473 1_555
O22 Ru4 1.978473 1_655
O22 Sr10 2.695761 1_555
O22 Sr9 2.695761 1_545
O22 Sr10 2.703951 1_545
O22 Sr9 2.703951 1_555
O23 Ru7 1.978455 1_565
O23 Ru7 1.978494 1_555
O23 Sr14 2.691646 1_555
O23 Sr13 2.694759 1_455
O23 Sr14 2.703851 1_455
O23 Sr13 2.704617 1_555
O24 Ru7 2.063164 1_555
O24 Sr11 2.449895 1_555
O24 Sr14 2.785642 1_555
O24 Sr14 2.806232 1_455
O24 Sr14 2.806232 1_545
O24 Sr14 2.830788 1_445
O25 Ru3 2.061173 1_555
O25 Sr10 2.447693 1_555
O25 Sr7 2.795596 1_555
O25 Sr7 2.806174 1_655
O25 Sr7 2.806174 1_565
O25 Sr7 2.820844 1_665
O26 Ru6 1.978431 1_565
O26 Ru6 1.978515 1_665
O26 Sr11 2.690249 1_555
O26 Sr12 2.695792 1_565
O26 Sr11 2.698502 1_565
O26 Sr12 2.701494 1_555
O27 Ru8 2.058957 1_445
O27 Sr13 2.452231 1_555
O27 Sr16 2.796240 1_555
O27 Sr16 2.806145 1_455
O27 Sr16 2.806146 1_545
O27 Sr16 2.820148 1_445
O28 Ru4 2.061178 1_665
O28 Sr12 2.450659 1_555
O28 Sr9 2.792147 1_555
O28 Sr9 2.805951 1_655
O28 Sr9 2.805951 1_565
O28 Sr9 2.823813 1_665
O29 Ru4 1.978473 1_565
O29 Ru4 1.978473 1_555
O29 Sr10 2.695761 1_555
O29 Sr9 2.695761 1_455
O29 Sr10 2.703951 1_455
O29 Sr9 2.703951 1_555
O30 Ru7 1.978454 1_655
O30 Ru7 1.978494 1_555
O30 Sr14 2.691647 1_555
O30 Sr13 2.694760 1_545
O30 Sr14 2.703851 1_545
O30 Sr13 2.704617 1_555
O31 Ru5 1.977090 1_544
O31 Ru5 1.980165 1_554
O31 Sr0 2.672064 1_554
O31 Sr17 2.677734 1_555
O31 Sr17 2.700566 1_655
O31 Sr0 2.713615 1_654
O32 Ru5 2.068213 1_444
O32 Sr15 2.451333 1_555
O32 Sr17 2.794485 1_445
O32 Sr17 2.805913 1_455
O32 Sr17 2.805913 1_545
O32 Sr17 2.821424 1_555
O33 Ru6 2.061428 1_665
O33 Sr14 2.445761 1_555
O33 Sr11 2.794725 1_555
O33 Sr11 2.806517 1_655
O33 Sr11 2.806517 1_565
O33 Sr11 2.822387 1_665
O34 Ru6 1.978432 1_655
O34 Ru6 1.978515 1_665
O34 Sr11 2.690249 1_555
O34 Sr12 2.695792 1_655
O34 Sr11 2.698502 1_655
O34 Sr12 2.701493 1_555
O35 Ru8 1.978410 1_555
O35 Ru8 1.978537 1_455
O35 Sr16 2.696445 1_565
O35 Sr16 2.699195 1_555
O35 Sr15 2.704605 1_555
O35 Sr15 2.710586 1_565
O36 Ru7 2.059866 1_665
O36 Sr16 2.453757 1_555
O36 Sr13 2.785553 1_555
O36 Sr13 2.806083 1_655
O36 Sr13 2.806083 1_565
O36 Sr13 2.830581 1_665
O37 Ru5 1.977089 1_454
O37 Ru5 1.980165 1_554
O37 Sr0 2.672064 1_554
O37 Sr17 2.677734 1_555
O37 Sr17 2.700566 1_565
O37 Sr0 2.713615 1_564
O38 Ru8 2.064912 1_555
O38 Sr17 2.460473 1_555
O38 Sr15 2.799088 1_555
O38 Sr15 2.805173 1_655
O38 Sr15 2.805173 1_565
O38 Sr15 2.815383 1_665
O39 Ru8 1.978411 1_555
O39 Ru8 1.978538 1_545
O39 Sr16 2.696444 1_655
O39 Sr16 2.699195 1_555
O39 Sr15 2.704604 1_555
O39 Sr15 2.710586 1_655
