# generated using pymatgen
data_MgCuGe
_symmetry_space_group_name_H-M   'P 1'
_cell_length_a   4.00530200
_cell_length_b   4.00530200
_cell_length_c   6.39475300
_cell_angle_alpha   90.00000000
_cell_angle_beta   90.00000000
_cell_angle_gamma   90.00000000
_symmetry_Int_Tables_number   1
_chemical_formula_structural   MgCuGe
_chemical_formula_sum   'Mg2 Cu2 Ge2'
_cell_volume   102.58746761
_cell_formula_units_Z   2
loop_
 _symmetry_equiv_pos_site_id
 _symmetry_equiv_pos_as_xyz
  1  'x, y, z'
loop_
 _atom_site_type_symbol
 _atom_site_label
 _atom_site_symmetry_multiplicity
 _atom_site_fract_x
 _atom_site_fract_y
 _atom_site_fract_z
 _atom_site_occupancy
  Mg  Mg0  1  0.00000000  0.00000000  0.00000000  1
  Mg  Mg1  1  0.50000000  0.50000000  0.00000000  1
  Cu  Cu0  1  0.00000000  0.50000000  0.29804200  1
  Cu  Cu1  1  0.50000000  0.00000000  0.70195800  1
  Ge  Ge0  1  0.00000000  0.50000000  0.67798200  1
  Ge  Ge1  1  0.50000000  0.00000000  0.32201800  1
loop_
_geom_bond_atom_site_label_1
_geom_bond_atom_site_label_2
_geom_bond_distance
_geom_bond_site_symmetry_2
Mg0 Mg1 2.832176 1_545
Mg0 Mg1 2.832176 1_555
Mg0 Mg1 2.832176 1_455
Mg0 Mg1 2.832176 1_445
Cu0 Ge0 2.429622 1_555
Cu0 Mg0 2.764613 1_565
Cu0 Mg0 2.764613 1_555
Cu0 Mg1 2.764613 1_455
Cu0 Mg1 2.764613 1_555
Cu0 Ge1 2.836323 1_555
Cu0 Ge1 2.836323 1_565
Cu0 Ge1 2.836323 1_465
Cu0 Ge1 2.836323 1_455
Cu1 Ge1 2.429622 1_555
Cu1 Mg1 2.764613 1_556
Cu1 Mg1 2.764613 1_546
Cu1 Mg0 2.764613 1_556
Cu1 Mg0 2.764613 1_656
Cu1 Ge0 2.836323 1_555
Cu1 Ge0 2.836323 1_655
Cu1 Ge0 2.836323 1_545
Cu1 Ge0 2.836323 1_645
Ge0 Mg0 2.872459 1_556
Ge0 Mg1 2.872459 1_556
Ge0 Mg0 2.872459 1_566
Ge0 Mg1 2.872459 1_456
Ge1 Mg0 2.872459 1_555
Ge1 Mg0 2.872459 1_655
Ge1 Mg1 2.872459 1_545
Ge1 Mg1 2.872459 1_555
