# generated using pymatgen
data_Ce5BiSb4
_symmetry_space_group_name_H-M   'P 1'
_cell_length_a   18.67018245
_cell_length_b   18.67018245
_cell_length_c   18.67018246
_cell_angle_alpha   13.94705391
_cell_angle_beta   13.94705391
_cell_angle_gamma   13.94705682
_symmetry_Int_Tables_number   1
_chemical_formula_structural   Ce5BiSb4
_chemical_formula_sum   'Ce5 Bi1 Sb4'
_cell_volume   329.03356230
_cell_formula_units_Z   1
loop_
 _symmetry_equiv_pos_site_id
 _symmetry_equiv_pos_as_xyz
  1  'x, y, z'
loop_
 _atom_site_type_symbol
 _atom_site_label
 _atom_site_symmetry_multiplicity
 _atom_site_fract_x
 _atom_site_fract_y
 _atom_site_fract_z
 _atom_site_occupancy
  Ce  Ce0  1  0.70187400  0.70187400  0.70187400  1
  Ce  Ce1  1  0.50000000  0.50000000  0.50000000  1
  Ce  Ce2  1  0.10037000  0.10037000  0.10037000  1
  Ce  Ce3  1  0.29812600  0.29812600  0.29812600  1
  Ce  Ce4  1  0.89963000  0.89963000  0.89963000  1
  Bi  Bi0  1  0.00000000  0.00000000  0.00000000  1
  Sb  Sb0  1  0.59953200  0.59953200  0.59953200  1
  Sb  Sb1  1  0.19995200  0.19995200  0.19995200  1
  Sb  Sb2  1  0.80004800  0.80004800  0.80004800  1
  Sb  Sb3  1  0.40046800  0.40046800  0.40046800  1
loop_
_geom_bond_atom_site_label_1
_geom_bond_atom_site_label_2
_geom_bond_distance
_geom_bond_site_symmetry_2
Ce0 Sb3 3.160061 1_556
Ce0 Sb3 3.160061 1_565
Ce0 Sb3 3.160061 1_655
Ce1 Sb1 3.202866 1_556
Ce1 Sb2 3.202866 1_554
Ce1 Sb1 3.202866 1_565
Ce1 Sb1 3.202866 1_655
Ce1 Sb2 3.202866 1_455
Ce1 Sb2 3.202866 1_545
Ce2 Sb2 3.194132 1_445
Ce2 Sb2 3.194133 1_454
Ce2 Sb2 3.194133 1_544
Ce2 Sb3 3.201269 1_554
Ce2 Sb3 3.201269 1_455
Ce2 Sb3 3.201269 1_545
Ce3 Sb0 3.160061 1_554
Ce3 Sb0 3.160061 1_545
Ce3 Sb0 3.160061 1_455
Ce4 Sb1 3.194132 1_665
Ce4 Sb1 3.194133 1_656
Ce4 Sb1 3.194133 1_566
Ce4 Sb0 3.201269 1_556
Ce4 Sb0 3.201269 1_565
Ce4 Sb0 3.201269 1_655
Bi0 Ce3 3.265459 1_554
Bi0 Ce0 3.265459 1_445
Bi0 Ce3 3.265459 1_455
Bi0 Ce0 3.265459 1_544
Bi0 Ce0 3.265459 1_454
Bi0 Ce3 3.265459 1_545
