# generated using pymatgen
data_Li7Mn5O12
_symmetry_space_group_name_H-M   'P 1'
_cell_length_a   2.88016812
_cell_length_b   9.89807711
_cell_length_c   8.04328276
_cell_angle_alpha   80.96786740
_cell_angle_beta   100.28961646
_cell_angle_gamma   98.39754618
_symmetry_Int_Tables_number   1
_chemical_formula_structural   Li7Mn5O12
_chemical_formula_sum   'Li7 Mn5 O12'
_cell_volume   221.16481545
_cell_formula_units_Z   1
loop_
 _symmetry_equiv_pos_site_id
 _symmetry_equiv_pos_as_xyz
  1  'x, y, z'
loop_
 _atom_site_type_symbol
 _atom_site_label
 _atom_site_symmetry_multiplicity
 _atom_site_fract_x
 _atom_site_fract_y
 _atom_site_fract_z
 _atom_site_occupancy
  Li  Li0  1  0.33337000  0.99999300  0.66666100  1
  Li  Li1  1  0.66429200  0.25144700  0.07697800  1
  Li  Li2  1  0.00250600  0.74857300  0.25641400  1
  Li  Li3  1  0.32930100  0.24034500  0.41727700  1
  Li  Li4  1  0.33742600  0.75966000  0.91602000  1
  Li  Li5  1  0.67351100  0.75502100  0.59164400  1
  Li  Li6  1  0.99323600  0.24490900  0.74170600  1
  Mn  Mn0  1  0.33345300  0.50001200  0.16673500  1
  Mn  Mn1  1  0.99864200  0.49681600  0.49816700  1
  Mn  Mn2  1  0.66801400  0.50320000  0.83507500  1
  Mn  Mn3  1  0.99614000  0.99827000  0.99323500  1
  Mn  Mn4  1  0.67059800  0.00169300  0.34013500  1
  O  O0  1  0.50480400  0.11436100  0.89338600  1
  O  O1  1  0.16188300  0.88565900  0.43993100  1
  O  O2  1  0.84096200  0.61923000  0.06358900  1
  O  O3  1  0.82556600  0.38105100  0.26960600  1
  O  O4  1  0.15598900  0.10565400  0.20713600  1
  O  O5  1  0.51073700  0.89440000  0.12615300  1
  O  O6  1  0.50772200  0.61656100  0.39585000  1
  O  O7  1  0.15862000  0.38331600  0.93758500  1
  O  O8  1  0.81016200  0.10970200  0.50984900  1
  O  O9  1  0.85654900  0.89033400  0.82343900  1
  O  O10  1  0.17302400  0.62069000  0.72767400  1
  O  O11  1  0.49349200  0.37910400  0.60575600  1
loop_
_geom_bond_atom_site_label_1
_geom_bond_atom_site_label_2
_geom_bond_distance
_geom_bond_site_symmetry_2
Li0 O9 2.099484 1_455
Li0 O9 2.099521 1_555
Li0 O8 2.099763 1_565
Li0 O8 2.099947 1_465
Li0 O1 2.239045 1_555
Li0 O0 2.239212 1_565
Li1 O0 2.106531 1_554
Li1 O3 2.110649 1_555
Li1 O7 2.134425 1_654
Li1 O7 2.143429 1_554
Li1 O4 2.185612 1_655
Li1 O4 2.185834 1_555
Li2 O1 2.106071 1_555
Li2 O2 2.110118 1_455
Li2 O6 2.136108 1_455
Li2 O6 2.143536 1_555
Li2 O5 2.186193 1_455
Li2 O5 2.186271 1_555
Li3 O8 1.998220 1_455
Li3 O8 1.999262 1_555
Li3 O11 2.148519 1_555
Li3 O3 2.213390 1_555
Li3 O3 2.215976 1_455
Li3 O4 2.257237 1_555
Li4 O9 1.998363 1_555
Li4 O9 1.999518 1_455
Li4 O10 2.149200 1_555
Li4 O2 2.212079 1_456
Li4 O2 2.213593 1_556
Li4 O5 2.257513 1_556
Li5 O10 2.138789 1_655
Li5 O10 2.142370 1_555
Li5 O1 2.173961 1_655
Li5 O1 2.179732 1_555
Li5 O6 2.191846 1_555
Li5 O9 2.402991 1_555
Li6 O11 2.138186 1_555
Li6 O11 2.140984 1_655
Li6 O0 2.173554 1_555
Li6 O0 2.178987 1_655
Li6 O7 2.192010 1_655
Li6 O8 2.402723 1_555
Mn0 O3 1.958134 1_455
Mn0 O2 1.959440 1_555
Mn0 O3 1.960262 1_555
Mn0 O2 1.963130 1_455
Mn0 O6 2.268638 1_555
Mn0 O7 2.269760 1_554
Mn1 O6 1.961839 1_555
Mn1 O6 1.961925 1_655
Mn1 O11 1.965007 1_555
Mn1 O11 1.966101 1_655
Mn1 O3 2.260151 1_555
Mn1 O10 2.315783 1_655
Mn2 O7 1.962365 1_655
Mn2 O10 1.963074 1_655
Mn2 O7 1.963891 1_555
Mn2 O10 1.964686 1_555
Mn2 O2 2.261409 1_556
Mn2 O11 2.315880 1_555
Mn3 O9 1.817888 1_555
Mn3 O0 1.935756 1_565
Mn3 O0 1.936644 1_665
Mn3 O5 1.980792 1_556
Mn3 O5 1.982567 1_656
Mn3 O4 2.109495 1_666
Mn4 O8 1.817844 1_555
Mn4 O1 1.935207 1_645
Mn4 O1 1.936323 1_545
Mn4 O4 1.981446 1_655
Mn4 O4 1.983293 1_555
Mn4 O5 2.109513 1_545
