# generated using pymatgen
data_TiCrP
_symmetry_space_group_name_H-M   'P 1'
_cell_length_a   6.37725356
_cell_length_b   6.37719397
_cell_length_c   3.23161530
_cell_angle_alpha   90.00000000
_cell_angle_beta   90.00000000
_cell_angle_gamma   120.00070062
_symmetry_Int_Tables_number   1
_chemical_formula_structural   TiCrP
_chemical_formula_sum   'Ti3 Cr3 P3'
_cell_volume   113.81789076
_cell_formula_units_Z   3
loop_
 _symmetry_equiv_pos_site_id
 _symmetry_equiv_pos_as_xyz
  1  'x, y, z'
loop_
 _atom_site_type_symbol
 _atom_site_label
 _atom_site_symmetry_multiplicity
 _atom_site_fract_x
 _atom_site_fract_y
 _atom_site_fract_z
 _atom_site_occupancy
  Ti  Ti0  1  0.40439325  0.40438135  0.50000000  1
  Ti  Ti1  1  0.59559221  -0.00000330  0.50000000  1
  Ti  Ti2  1  0.00000846  0.59562576  0.50000000  1
  Cr  Cr0  1  0.00000033  0.25402773  -0.00000000  1
  Cr  Cr1  1  0.25403279  -0.00000487  -0.00000000  1
  Cr  Cr2  1  0.74597497  0.74596964  -0.00000000  1
  P  P0  1  0.66665431  0.33332769  -0.00000000  1
  P  P1  1  0.33333468  0.66667850  -0.00000000  1
  P  P2  1  0.00000899  -0.00000350  0.50000000  1
loop_
_geom_bond_atom_site_label_1
_geom_bond_atom_site_label_2
_geom_bond_distance
_geom_bond_site_symmetry_2
Cr0 P2 2.288088 1_555
Cr0 P2 2.288088 1_554
Cr0 P1 2.418627 1_555
Cr0 P0 2.418674 1_455
Cr0 Ti2 2.712252 1_554
Cr0 Ti2 2.712252 1_555
Cr0 Ti0 2.776365 1_555
Cr0 Ti0 2.776365 1_554
Cr0 Ti1 2.776411 1_455
Cr0 Ti1 2.776411 1_454
Cr1 P2 2.288048 1_555
Cr1 P2 2.288048 1_554
Cr1 P1 2.418482 1_545
Cr1 P0 2.418512 1_555
Cr1 Ti1 2.712087 1_555
Cr1 Ti1 2.712087 1_554
Cr1 Ti2 2.776235 1_544
Cr1 Ti2 2.776235 1_545
Cr1 Ti0 2.776308 1_555
Cr1 Ti0 2.776308 1_554
Cr2 P2 2.288058 1_665
Cr2 P2 2.288058 1_664
Cr2 P0 2.418573 1_555
Cr2 P1 2.418652 1_555
Cr2 Ti0 2.712195 1_555
Cr2 Ti0 2.712195 1_554
Cr2 Ti2 2.776306 1_655
Cr2 Ti2 2.776306 1_654
Cr2 Ti1 2.776427 1_565
Cr2 Ti1 2.776427 1_564
P0 Ti0 2.524142 1_555
P0 Ti0 2.524142 1_554
P0 Ti1 2.524188 1_555
P0 Ti1 2.524188 1_554
P0 Ti2 2.524308 1_655
P0 Ti2 2.524308 1_654
P1 Ti1 2.524122 1_565
P1 Ti1 2.524122 1_564
P1 Ti2 2.524195 1_554
P1 Ti2 2.524195 1_555
P1 Ti0 2.524322 1_555
P1 Ti0 2.524322 1_554
P2 Ti2 2.578749 1_545
P2 Ti0 2.578823 1_555
P2 Ti1 2.579069 1_455
