# generated using pymatgen
data_TiFeAs
_symmetry_space_group_name_H-M   'P 1'
_cell_length_a   6.44043836
_cell_length_b   6.44048743
_cell_length_c   3.45930500
_cell_angle_alpha   90.00000000
_cell_angle_beta   90.00000000
_cell_angle_gamma   119.99962519
_symmetry_Int_Tables_number   1
_chemical_formula_structural   TiFeAs
_chemical_formula_sum   'Ti3 Fe3 As3'
_cell_volume   124.26685046
_cell_formula_units_Z   3
loop_
 _symmetry_equiv_pos_site_id
 _symmetry_equiv_pos_as_xyz
  1  'x, y, z'
loop_
 _atom_site_type_symbol
 _atom_site_label
 _atom_site_symmetry_multiplicity
 _atom_site_fract_x
 _atom_site_fract_y
 _atom_site_fract_z
 _atom_site_occupancy
  Ti  Ti0  1  -0.00001907  0.40679658  0.50000000  1
  Ti  Ti1  1  0.59331342  0.59327616  0.50000000  1
  Ti  Ti2  1  0.40668876  0.99994300  0.50000000  1
  Fe  Fe0  1  -0.00001262  0.74325283  -0.00000000  1
  Fe  Fe1  1  0.25677104  0.25676135  -0.00000000  1
  Fe  Fe2  1  0.74323227  0.99997882  -0.00000000  1
  As  As0  1  0.33334470  0.66669967  -0.00000000  1
  As  As1  1  0.66667575  0.33332205  -0.00000000  1
  As  As2  1  0.00000675  -0.00002947  0.50000000  1
loop_
_geom_bond_atom_site_label_1
_geom_bond_atom_site_label_2
_geom_bond_distance
_geom_bond_site_symmetry_2
Fe0 Ti0 2.772588 1_555
Fe0 Ti0 2.772588 1_554
Fe0 Ti1 2.873120 1_455
Fe0 Ti1 2.873120 1_454
Fe0 Ti2 2.873231 1_554
Fe0 Ti2 2.873231 1_555
Fe1 Ti1 2.772972 1_555
Fe1 Ti1 2.772972 1_554
Fe1 Ti2 2.873465 1_544
Fe1 Ti2 2.873465 1_545
Fe1 Ti0 2.873797 1_555
Fe1 Ti0 2.873797 1_554
Fe2 Ti2 2.772941 1_554
Fe2 Ti2 2.772941 1_555
Fe2 Ti1 2.873318 1_555
Fe2 Ti1 2.873318 1_554
Fe2 Ti0 2.873755 1_665
Fe2 Ti0 2.873755 1_664
As0 Fe2 2.431025 1_555
As0 Fe0 2.431272 1_555
As0 Fe1 2.431427 1_555
As0 Ti2 2.609101 1_554
As0 Ti2 2.609101 1_555
As0 Ti0 2.609493 1_554
As0 Ti0 2.609493 1_555
As0 Ti1 2.609671 1_555
As0 Ti1 2.609671 1_554
As1 Fe2 2.431211 1_545
As1 Fe1 2.431221 1_555
As1 Fe0 2.431283 1_655
As1 Ti0 2.609186 1_655
As1 Ti0 2.609186 1_654
As1 Ti1 2.609412 1_555
As1 Ti1 2.609412 1_554
As1 Ti2 2.609672 1_545
As1 Ti2 2.609672 1_544
As2 Fe0 2.392735 1_545
As2 Fe0 2.392735 1_546
As2 Fe2 2.393040 1_446
As2 Fe2 2.393040 1_445
As2 Fe1 2.393047 1_556
As2 Fe1 2.393047 1_555
As2 Ti2 2.619299 1_545
As2 Ti1 2.619311 1_445
As2 Ti0 2.620241 1_555
