# generated using pymatgen
data_Zr5Sb3Ru
_symmetry_space_group_name_H-M   'P 1'
_cell_length_a   8.73189757
_cell_length_b   8.73189757
_cell_length_c   5.89961700
_cell_angle_alpha   90.00000000
_cell_angle_beta   90.00000000
_cell_angle_gamma   119.99999678
_symmetry_Int_Tables_number   1
_chemical_formula_structural   Zr5Sb3Ru
_chemical_formula_sum   'Zr10 Sb6 Ru2'
_cell_volume   389.55764323
_cell_formula_units_Z   2
loop_
 _symmetry_equiv_pos_site_id
 _symmetry_equiv_pos_as_xyz
  1  'x, y, z'
loop_
 _atom_site_type_symbol
 _atom_site_label
 _atom_site_symmetry_multiplicity
 _atom_site_fract_x
 _atom_site_fract_y
 _atom_site_fract_z
 _atom_site_occupancy
  Zr  Zr0  1  0.66666700  0.33333300  0.50000000  1
  Zr  Zr1  1  0.33333300  0.66666700  0.50000000  1
  Zr  Zr2  1  0.33333300  0.66666700  0.00000000  1
  Zr  Zr3  1  0.66666700  0.33333300  0.00000000  1
  Zr  Zr4  1  0.74410200  0.74410200  0.25000000  1
  Zr  Zr5  1  0.25589800  0.00000000  0.25000000  1
  Zr  Zr6  1  0.00000000  0.25589800  0.25000000  1
  Zr  Zr7  1  0.25589800  0.25589800  0.75000000  1
  Zr  Zr8  1  0.74410200  0.00000000  0.75000000  1
  Zr  Zr9  1  0.00000000  0.74410200  0.75000000  1
  Sb  Sb0  1  0.39363600  0.39363600  0.25000000  1
  Sb  Sb1  1  0.60636400  0.00000000  0.25000000  1
  Sb  Sb2  1  0.00000000  0.60636400  0.25000000  1
  Sb  Sb3  1  0.60636400  0.60636400  0.75000000  1
  Sb  Sb4  1  0.39363600  0.00000000  0.75000000  1
  Sb  Sb5  1  0.00000000  0.39363600  0.75000000  1
  Ru  Ru0  1  0.00000000  0.00000000  0.50000000  1
  Ru  Ru1  1  0.00000000  0.00000000  0.00000000  1
loop_
_geom_bond_atom_site_label_1
_geom_bond_atom_site_label_2
_geom_bond_distance
_geom_bond_site_symmetry_2
Sb0 Zr5 3.021065 1_555
Sb0 Zr6 3.021065 1_555
Sb0 Zr4 3.060233 1_555
Sb0 Zr0 3.064604 1_555
Sb0 Zr2 3.064604 1_555
Sb0 Zr1 3.064604 1_555
Sb0 Zr3 3.064604 1_555
Sb0 Zr7 3.185576 1_554
Sb0 Zr7 3.185576 1_555
Sb1 Zr4 3.021065 1_545
Sb1 Zr6 3.021065 1_655
Sb1 Zr5 3.060233 1_555
Sb1 Zr0 3.064597 1_555
Sb1 Zr3 3.064597 1_555
Sb1 Zr2 3.064599 1_545
Sb1 Zr1 3.064599 1_545
Sb1 Zr8 3.185576 1_554
Sb1 Zr8 3.185576 1_555
Sb2 Zr4 3.021065 1_455
Sb2 Zr5 3.021065 1_565
Sb2 Zr6 3.060233 1_555
Sb2 Zr2 3.064597 1_555
Sb2 Zr1 3.064597 1_555
Sb2 Zr3 3.064599 1_455
Sb2 Zr0 3.064599 1_455
Sb2 Zr9 3.185576 1_554
Sb2 Zr9 3.185576 1_555
Sb3 Zr8 3.021065 1_565
Sb3 Zr9 3.021065 1_655
Sb3 Zr7 3.060233 1_555
Sb3 Zr2 3.064604 1_556
Sb3 Zr0 3.064604 1_555
Sb3 Zr1 3.064604 1_555
Sb3 Zr3 3.064604 1_556
Sb3 Zr4 3.185576 1_555
Sb3 Zr4 3.185576 1_556
Sb4 Zr7 3.021065 1_555
Sb4 Zr9 3.021065 1_545
Sb4 Zr8 3.060233 1_555
Sb4 Zr1 3.064597 1_545
Sb4 Zr2 3.064597 1_546
Sb4 Zr0 3.064599 1_555
Sb4 Zr3 3.064599 1_556
Sb4 Zr5 3.185576 1_556
Sb4 Zr5 3.185576 1_555
Sb5 Zr7 3.021065 1_555
Sb5 Zr8 3.021065 1_455
Sb5 Zr9 3.060233 1_555
Sb5 Zr3 3.064597 1_456
Sb5 Zr0 3.064597 1_455
Sb5 Zr1 3.064599 1_555
Sb5 Zr2 3.064599 1_556
Sb5 Zr6 3.185576 1_556
Sb5 Zr6 3.185576 1_555
Ru0 Zr9 2.677353 1_545
Ru0 Zr8 2.677353 1_455
Ru0 Zr5 2.677353 1_555
Ru0 Zr6 2.677353 1_555
Ru0 Zr4 2.677354 1_445
Ru0 Zr7 2.677354 1_555
Ru1 Zr9 2.677353 1_544
Ru1 Zr8 2.677353 1_454
Ru1 Zr5 2.677353 1_555
Ru1 Zr6 2.677353 1_555
Ru1 Zr4 2.677354 1_445
Ru1 Zr7 2.677354 1_554
