# generated using pymatgen
data_SrLi(B3O5)3
_symmetry_space_group_name_H-M   'P 1'
_cell_length_a   8.61179452
_cell_length_b   8.61179452
_cell_length_c   8.61179470
_cell_angle_alpha   77.83245129
_cell_angle_beta   77.83245129
_cell_angle_gamma   77.83245868
_symmetry_Int_Tables_number   1
_chemical_formula_structural   SrLi(B3O5)3
_chemical_formula_sum   'Sr2 Li2 B18 O30'
_cell_volume   600.98528231
_cell_formula_units_Z   2
loop_
 _symmetry_equiv_pos_site_id
 _symmetry_equiv_pos_as_xyz
  1  'x, y, z'
loop_
 _atom_site_type_symbol
 _atom_site_label
 _atom_site_symmetry_multiplicity
 _atom_site_fract_x
 _atom_site_fract_y
 _atom_site_fract_z
 _atom_site_occupancy
  Sr  Sr0  1  0.49219200  0.49219200  0.49219200  1
  Sr  Sr1  1  0.99219200  0.99219200  0.99219200  1
  Li  Li0  1  0.23313300  0.23313300  0.23313300  1
  Li  Li1  1  0.73313300  0.73313300  0.73313300  1
  B  B0  1  0.62513000  0.76886600  0.10389300  1
  B  B1  1  0.71128600  0.27530900  0.83366000  1
  B  B2  1  0.33366000  0.77530900  0.21128600  1
  B  B3  1  0.21128600  0.33366000  0.77530900  1
  B  B4  1  0.26886600  0.12513000  0.60389300  1
  B  B5  1  0.60389300  0.26886600  0.12513000  1
  B  B6  1  0.12513000  0.60389300  0.26886600  1
  B  B7  1  0.27530900  0.83366000  0.71128600  1
  B  B8  1  0.76886600  0.10389300  0.62513000  1
  B  B9  1  0.10389300  0.62513000  0.76886600  1
  B  B10  1  0.28057900  0.93976200  0.42276800  1
  B  B11  1  0.42276800  0.28057900  0.93976200  1
  B  B12  1  0.93976200  0.42276800  0.28057900  1
  B  B13  1  0.78057900  0.92276800  0.43976200  1
  B  B14  1  0.43976200  0.78057900  0.92276800  1
  B  B15  1  0.92276800  0.43976200  0.78057900  1
  B  B16  1  0.83366000  0.71128600  0.27530900  1
  B  B17  1  0.77530900  0.21128600  0.33366000  1
  O  O0  1  0.76912100  0.79533000  0.12531400  1
  O  O1  1  0.12531400  0.76912100  0.79533000  1
  O  O2  1  0.23108100  0.50505500  0.73515200  1
  O  O3  1  0.50505500  0.73515200  0.23108100  1
  O  O4  1  0.79533000  0.12531400  0.76912100  1
  O  O5  1  0.00505500  0.73108100  0.23515200  1
  O  O6  1  0.73108100  0.23515200  0.00505500  1
  O  O7  1  0.23515200  0.00505500  0.73108100  1
  O  O8  1  0.27476100  0.25973700  0.92548700  1
  O  O9  1  0.25973700  0.92548700  0.27476100  1
  O  O10  1  0.92548700  0.27476100  0.25973700  1
  O  O11  1  0.75973700  0.77476100  0.42548700  1
  O  O12  1  0.77476100  0.42548700  0.75973700  1
  O  O13  1  0.42548700  0.75973700  0.77476100  1
  O  O14  1  0.26912100  0.62531400  0.29533000  1
  O  O15  1  0.29533000  0.26912100  0.62531400  1
  O  O16  1  0.30747700  0.81126300  0.54248400  1
  O  O17  1  0.54248400  0.30747700  0.81126300  1
  O  O18  1  0.81126300  0.54248400  0.30747700  1
  O  O19  1  0.80747700  0.04248400  0.31126300  1
  O  O20  1  0.31126300  0.80747700  0.04248400  1
  O  O21  1  0.04248400  0.31126300  0.80747700  1
  O  O22  1  0.27497400  0.09839700  0.44688900  1
  O  O23  1  0.44688900  0.27497400  0.09839700  1
  O  O24  1  0.09839700  0.44688900  0.27497400  1
  O  O25  1  0.77497400  0.94688900  0.59839700  1
  O  O26  1  0.59839700  0.77497400  0.94688900  1
  O  O27  1  0.94688900  0.59839700  0.77497400  1
  O  O28  1  0.73515200  0.23108100  0.50505500  1
  O  O29  1  0.62531400  0.29533000  0.26912100  1
loop_
_geom_bond_atom_site_label_1
_geom_bond_atom_site_label_2
_geom_bond_distance
_geom_bond_site_symmetry_2
Li0 O23 2.016873 1_555
Li0 O22 2.016873 1_555
Li0 O24 2.016873 1_555
Li0 O9 2.564882 1_545
Li0 O10 2.564882 1_455
Li0 O8 2.564882 1_554
Li1 O25 2.016873 1_555
Li1 O26 2.016873 1_555
Li1 O27 2.016873 1_555
Li1 O13 2.564882 1_555
Li1 O12 2.564882 1_555
Li1 O11 2.564882 1_555
B0 O0 1.362682 1_555
B0 O3 1.366877 1_555
B0 O26 1.407137 1_554
B1 O17 1.467333 1_555
B1 O12 1.476809 1_555
B1 O6 1.480989 1_556
B1 O4 1.496754 1_555
B2 O20 1.467333 1_555
B2 O9 1.476809 1_555
B2 O3 1.480989 1_555
B2 O14 1.496754 1_555
B3 O21 1.467333 1_555
B3 O8 1.476809 1_555
B3 O2 1.480989 1_555
B3 O15 1.496754 1_555
B4 O15 1.362682 1_555
B4 O7 1.366877 1_555
B4 O22 1.407137 1_555
B5 O29 1.362682 1_555
B5 O6 1.366877 1_555
B5 O23 1.407137 1_555
B6 O14 1.362682 1_555
B6 O5 1.366877 1_555
B6 O24 1.407137 1_555
B7 O16 1.467333 1_555
B7 O13 1.476809 1_555
B7 O7 1.480989 1_565
B7 O1 1.496754 1_555
B8 O4 1.362682 1_555
B8 O28 1.366877 1_555
B8 O25 1.407137 1_545
B9 O1 1.362682 1_555
B9 O2 1.366877 1_555
B9 O27 1.407137 1_455
B10 O9 1.357844 1_555
B10 O16 1.361183 1_555
B10 O22 1.414001 1_565
B11 O8 1.357844 1_555
B11 O17 1.361183 1_555
B11 O23 1.414001 1_556
B12 O10 1.357844 1_555
B12 O18 1.361184 1_555
B12 O24 1.414001 1_655
B13 O11 1.357844 1_555
B13 O19 1.361183 1_565
B13 O25 1.414001 1_555
B14 O13 1.357844 1_555
B14 O20 1.361183 1_556
B14 O26 1.414001 1_555
B15 O12 1.357844 1_555
B15 O21 1.361184 1_655
B15 O27 1.414001 1_555
B16 O18 1.467333 1_555
B16 O11 1.476809 1_555
B16 O5 1.480989 1_655
B16 O0 1.496754 1_555
B17 O19 1.467333 1_555
B17 O10 1.476809 1_555
B17 O28 1.480989 1_555
B17 O29 1.496754 1_555
O0 Sr1 2.739353 1_554
O1 Sr1 2.739353 1_455
O2 Sr0 2.730538 1_555
O3 Sr0 2.730538 1_555
O4 Sr1 2.739353 1_545
O5 Sr1 2.730538 1_454
O6 Sr1 2.730538 1_544
O7 Sr1 2.730538 1_445
O14 Sr0 2.739353 1_555
O15 Sr0 2.739353 1_555
O16 Sr0 2.938870 1_555
O17 Sr0 2.938870 1_555
O18 Sr0 2.938870 1_555
O19 Sr1 2.938870 1_544
O20 Sr1 2.938870 1_454
O21 Sr1 2.938870 1_445
O28 Sr0 2.730538 1_555
O29 Sr0 2.739353 1_555
