# generated using pymatgen
data_Nd2Ga2Co15
_symmetry_space_group_name_H-M   'P 1'
_cell_length_a   6.37114139
_cell_length_b   6.37114139
_cell_length_c   6.37114144
_cell_angle_alpha   83.12425809
_cell_angle_beta   83.12425809
_cell_angle_gamma   83.12426395
_symmetry_Int_Tables_number   1
_chemical_formula_structural   Nd2Ga2Co15
_chemical_formula_sum   'Nd2 Ga2 Co15'
_cell_volume   253.44622369
_cell_formula_units_Z   1
loop_
 _symmetry_equiv_pos_site_id
 _symmetry_equiv_pos_as_xyz
  1  'x, y, z'
loop_
 _atom_site_type_symbol
 _atom_site_label
 _atom_site_symmetry_multiplicity
 _atom_site_fract_x
 _atom_site_fract_y
 _atom_site_fract_z
 _atom_site_occupancy
  Nd  Nd0  1  0.64874100  0.64874100  0.64874100  1
  Nd  Nd1  1  0.35125900  0.35125900  0.35125900  1
  Ga  Ga0  1  0.89309400  0.89309400  0.89309400  1
  Ga  Ga1  1  0.10690600  0.10690600  0.10690600  1
  Co  Co0  1  0.00000000  0.00000000  0.50000000  1
  Co  Co1  1  0.50000000  0.00000000  0.00000000  1
  Co  Co2  1  0.00000000  0.50000000  0.00000000  1
  Co  Co3  1  0.71371200  0.28628800  0.00000000  1
  Co  Co4  1  0.00000000  0.71371200  0.28628800  1
  Co  Co5  1  0.28628800  0.00000000  0.71371200  1
  Co  Co6  1  0.00000000  0.28628800  0.71371200  1
  Co  Co7  1  0.71371200  0.00000000  0.28628800  1
  Co  Co8  1  0.28628800  0.71371200  0.00000000  1
  Co  Co9  1  0.34797900  0.34797900  0.84977600  1
  Co  Co10  1  0.84977600  0.34797900  0.34797900  1
  Co  Co11  1  0.34797900  0.84977600  0.34797900  1
  Co  Co12  1  0.65202100  0.65202100  0.15022400  1
  Co  Co13  1  0.15022400  0.65202100  0.65202100  1
  Co  Co14  1  0.65202100  0.15022400  0.65202100  1
loop_
_geom_bond_atom_site_label_1
_geom_bond_atom_site_label_2
_geom_bond_distance
_geom_bond_site_symmetry_2
Ga0 Ga1 2.626766 1_666
Ga0 Nd0 3.001975 1_555
Ga1 Nd1 3.001975 1_555
Co0 Co6 2.403220 1_555
Co0 Co7 2.403220 1_455
Co0 Co4 2.403220 1_545
Co0 Co5 2.403220 1_555
Co0 Co10 2.443170 1_455
Co0 Co13 2.443170 1_545
Co0 Co14 2.443170 1_455
Co0 Co11 2.443170 1_545
Co0 Ga0 2.548403 1_445
Co0 Ga1 2.548403 1_555
Co0 Nd0 3.331397 1_445
Co0 Nd1 3.331397 1_555
Co1 Co8 2.403220 1_545
Co1 Co3 2.403220 1_555
Co1 Co5 2.403220 1_554
Co1 Co7 2.403220 1_555
Co1 Co11 2.443170 1_545
Co1 Co14 2.443170 1_554
Co1 Co12 2.443170 1_545
Co1 Co9 2.443170 1_554
Co1 Ga1 2.548403 1_555
Co1 Ga0 2.548403 1_544
Co1 Nd0 3.331397 1_544
Co1 Nd1 3.331397 1_555
Co2 Co8 2.403220 1_555
Co2 Co3 2.403220 1_455
Co2 Co4 2.403220 1_555
Co2 Co6 2.403220 1_554
Co2 Co9 2.443170 1_554
Co2 Ga1 2.548403 1_555
Co2 Ga0 2.548403 1_454
Co2 Nd0 3.331397 1_454
Co2 Nd1 3.331397 1_555
Co3 Co7 2.420174 1_555
Co3 Co6 2.420174 1_654
Co3 Co9 2.593199 1_554
Co3 Ga1 2.753583 1_655
Co3 Ga0 2.753583 1_544
Co3 Nd1 3.044304 1_555
Co3 Nd0 3.044304 1_554
Co4 Co8 2.420174 1_555
Co4 Co7 2.420175 1_465
Co4 Ga1 2.753583 1_565
Co4 Ga0 2.753583 1_454
Co4 Nd0 3.044304 1_455
Co4 Nd1 3.044304 1_555
Co5 Co8 2.420174 1_546
Co5 Co6 2.420175 1_555
Co5 Co9 2.563503 1_555
Co5 Ga0 2.753583 1_445
Co5 Ga1 2.753583 1_556
Co5 Nd1 3.044304 1_555
Co5 Nd0 3.044304 1_545
Co6 Co9 2.563503 1_555
Co6 Ga0 2.753583 1_445
Co6 Ga1 2.753583 1_556
Co6 Nd1 3.044304 1_555
Co6 Nd0 3.044304 1_455
Co7 Ga1 2.753583 1_655
Co7 Ga0 2.753583 1_544
Co7 Nd0 3.044304 1_545
Co7 Nd1 3.044304 1_555
Co8 Co9 2.593199 1_554
Co8 Ga0 2.753583 1_454
Co8 Ga1 2.753583 1_565
Co8 Nd1 3.044304 1_555
Co8 Nd0 3.044304 1_554
Co9 Ga1 2.600328 1_556
Co9 Nd0 2.947541 1_555
Co9 Nd1 3.171269 1_555
Co9 Nd1 3.200172 1_556
Co10 Co2 2.443170 1_655
Co10 Co14 2.477603 1_555
Co10 Co12 2.477604 1_555
Co10 Co7 2.563502 1_555
Co10 Co3 2.563503 1_555
Co10 Co4 2.593199 1_655
Co10 Co6 2.593199 1_655
Co10 Ga1 2.600329 1_655
Co10 Nd0 2.947541 1_555
Co10 Nd1 3.171269 1_555
Co10 Nd1 3.200171 1_655
Co11 Co13 2.477603 1_555
Co11 Co12 2.477604 1_555
Co11 Co4 2.563502 1_555
Co11 Co8 2.563503 1_555
Co11 Co7 2.593199 1_565
Co11 Co5 2.593199 1_565
Co11 Ga1 2.600329 1_565
Co11 Nd0 2.947541 1_555
Co11 Nd1 3.171269 1_555
Co11 Nd1 3.200171 1_565
Co12 Co2 2.443170 1_655
Co12 Co7 2.563503 1_565
Co12 Co4 2.563503 1_655
Co12 Co8 2.593199 1_555
Co12 Co3 2.593199 1_555
Co12 Ga0 2.600328 1_554
Co12 Nd1 2.947541 1_555
Co12 Nd0 3.171269 1_555
Co12 Nd0 3.200172 1_554
Co13 Co2 2.443170 1_556
Co13 Co9 2.477604 1_555
Co13 Co5 2.563502 1_565
Co13 Co8 2.563503 1_556
Co13 Co6 2.593199 1_555
Co13 Co4 2.593199 1_555
Co13 Ga0 2.600329 1_455
Co13 Nd1 2.947541 1_555
Co13 Nd0 3.171269 1_555
Co13 Nd0 3.200171 1_455
Co14 Co9 2.477604 1_555
Co14 Co6 2.563502 1_655
Co14 Co3 2.563503 1_556
Co14 Co5 2.593199 1_555
Co14 Co7 2.593199 1_555
Co14 Ga0 2.600329 1_545
Co14 Nd1 2.947541 1_555
Co14 Nd0 3.171269 1_555
Co14 Nd0 3.200171 1_545
