# generated using pymatgen
data_Pr2In3Ni
_symmetry_space_group_name_H-M   'P 1'
_cell_length_a   3.86951200
_cell_length_b   4.80540896
_cell_length_c   8.31248024
_cell_angle_alpha   89.98362590
_cell_angle_beta   90.00000000
_cell_angle_gamma   90.00000000
_symmetry_Int_Tables_number   1
_chemical_formula_structural   Pr2In3Ni
_chemical_formula_sum   'Pr2 In3 Ni1'
_cell_volume   154.56713593
_cell_formula_units_Z   1
loop_
 _symmetry_equiv_pos_site_id
 _symmetry_equiv_pos_as_xyz
  1  'x, y, z'
loop_
 _atom_site_type_symbol
 _atom_site_label
 _atom_site_symmetry_multiplicity
 _atom_site_fract_x
 _atom_site_fract_y
 _atom_site_fract_z
 _atom_site_occupancy
  Pr  Pr0  1  0.00000000  0.99994700  0.02845300  1
  Pr  Pr1  1  0.00000000  0.49989100  0.48612300  1
  In  In0  1  0.50000000  0.50007500  0.83473400  1
  In  In1  1  0.50000000  0.49994500  0.18209600  1
  In  In2  1  0.50000000  0.99993800  0.64488100  1
  Ni  Ni0  1  0.50000000  0.00000300  0.32371300  1
loop_
_geom_bond_atom_site_label_1
_geom_bond_atom_site_label_2
_geom_bond_distance
_geom_bond_site_symmetry_2
In0 In2 2.873711 1_555
In0 In2 2.875565 1_545
In0 In1 2.887440 1_556
In0 Pr0 3.479733 1_556
In0 Pr0 3.479733 1_656
In0 Pr0 3.479947 1_646
In0 Pr0 3.479947 1_546
In0 Pr1 3.484344 1_655
In0 Pr1 3.484344 1_555
In1 Ni0 2.675034 1_555
In1 Ni0 2.676139 1_565
In1 Pr1 3.182784 1_555
In1 Pr1 3.182784 1_655
In1 Pr0 3.338515 1_655
In1 Pr0 3.338515 1_555
In1 Pr0 3.339027 1_645
In1 Pr0 3.339027 1_545
In2 Ni0 2.669703 1_565
In2 Pr1 3.354834 1_665
In2 Pr1 3.354834 1_565
In2 Pr1 3.355697 1_555
In2 Pr1 3.355697 1_655
In2 Pr0 3.729530 1_556
In2 Pr0 3.729530 1_656
Ni0 Pr0 3.125233 1_645
Ni0 Pr0 3.125233 1_545
Ni0 Pr1 3.367212 1_655
Ni0 Pr1 3.367212 1_555
Ni0 Pr1 3.367430 1_545
Ni0 Pr1 3.367430 1_645
