# generated using pymatgen
data_ZrCrAgS4
_symmetry_space_group_name_H-M   'P 1'
_cell_length_a   14.08267127
_cell_length_b   3.63743300
_cell_length_c   6.10882741
_cell_angle_alpha   90.00000000
_cell_angle_beta   114.38607278
_cell_angle_gamma   90.00000000
_symmetry_Int_Tables_number   1
_chemical_formula_structural   ZrCrAgS4
_chemical_formula_sum   'Zr2 Cr2 Ag2 S8'
_cell_volume   285.00554945
_cell_formula_units_Z   2
loop_
 _symmetry_equiv_pos_site_id
 _symmetry_equiv_pos_as_xyz
  1  'x, y, z'
loop_
 _atom_site_type_symbol
 _atom_site_label
 _atom_site_symmetry_multiplicity
 _atom_site_fract_x
 _atom_site_fract_y
 _atom_site_fract_z
 _atom_site_occupancy
  Zr  Zr0  1  0.24573500  0.00000000  0.22666300  1
  Zr  Zr1  1  0.74573500  0.50000000  0.22666300  1
  Cr  Cr0  1  0.75466500  0.00000000  0.77064200  1
  Cr  Cr1  1  0.25466500  0.50000000  0.77064200  1
  Ag  Ag0  1  0.99722900  0.50000000  0.48193500  1
  Ag  Ag1  1  0.49722900  0.00000000  0.48193500  1
  S  S0  1  0.12988500  0.50000000  0.95884100  1
  S  S1  1  0.86561200  0.50000000  0.01503900  1
  S  S2  1  0.62988500  0.00000000  0.95884100  1
  S  S3  1  0.36561200  0.00000000  0.01503900  1
  S  S4  1  0.15023500  0.00000000  0.51216900  1
  S  S5  1  0.85663700  0.00000000  0.53471100  1
  S  S6  1  0.65023500  0.50000000  0.51216900  1
  S  S7  1  0.35663700  0.50000000  0.53471100  1
loop_
_geom_bond_atom_site_label_1
_geom_bond_atom_site_label_2
_geom_bond_distance
_geom_bond_site_symmetry_2
Cr0 S5 2.418374 1_555
Cr0 S6 2.458895 1_555
Cr0 S6 2.458895 1_545
Cr0 S1 2.460012 1_546
Cr0 S1 2.460012 1_556
Cr0 S2 2.465337 1_555
Cr1 S7 2.418374 1_555
Cr1 S4 2.458895 1_565
Cr1 S4 2.458895 1_555
Cr1 S3 2.460012 1_556
Cr1 S3 2.460012 1_566
Cr1 S0 2.465337 1_555
Ag0 S1 2.684217 1_555
Ag0 S0 2.735551 1_655
Ag0 S4 2.766964 1_655
Ag0 S4 2.766964 1_665
Ag0 S5 2.803359 1_565
Ag0 S5 2.803359 1_555
Ag1 S3 2.684217 1_555
Ag1 S2 2.735551 1_555
Ag1 S6 2.766964 1_555
Ag1 S6 2.766964 1_545
Ag1 S7 2.803359 1_545
Ag1 S7 2.803359 1_555
S0 Zr0 2.538118 1_556
S0 Zr0 2.538118 1_566
S1 Zr1 2.514644 1_555
S2 Zr1 2.538118 1_546
S2 Zr1 2.538118 1_556
S3 Zr0 2.514644 1_555
S4 Zr0 2.605303 1_555
S5 Zr1 2.619393 1_555
S5 Zr1 2.619393 1_545
S6 Zr1 2.605303 1_555
S7 Zr0 2.619393 1_555
S7 Zr0 2.619393 1_565
