# generated using pymatgen
data_Zr2Zn
_symmetry_space_group_name_H-M   'P 1'
_cell_length_a   3.28730092
_cell_length_b   3.28730092
_cell_length_c   6.12774706
_cell_angle_alpha   105.55901587
_cell_angle_beta   105.55901587
_cell_angle_gamma   90.00000000
_symmetry_Int_Tables_number   1
_chemical_formula_structural   Zr2Zn
_chemical_formula_sum   'Zr2 Zn1'
_cell_volume   61.26933105
_cell_formula_units_Z   1
loop_
 _symmetry_equiv_pos_site_id
 _symmetry_equiv_pos_as_xyz
  1  'x, y, z'
loop_
 _atom_site_type_symbol
 _atom_site_label
 _atom_site_symmetry_multiplicity
 _atom_site_fract_x
 _atom_site_fract_y
 _atom_site_fract_z
 _atom_site_occupancy
  Zr  Zr0  1  0.65613837  0.65613837  0.31227574  1
  Zr  Zr1  1  0.34386163  0.34386163  0.68772426  1
  Zn  Zn0  1  0.00000000  -0.00000000  0.00000000  1
loop_
_geom_bond_atom_site_label_1
_geom_bond_atom_site_label_2
_geom_bond_distance
_geom_bond_site_symmetry_2
Zn0 Zr1 2.921973 1_554
Zn0 Zr0 2.921973 1_445
Zn0 Zr1 2.921975 1_544
Zn0 Zr0 2.921975 1_545
Zn0 Zr0 2.921975 1_455
Zn0 Zr1 2.921975 1_454
Zn0 Zr0 2.921977 1_555
Zn0 Zr1 2.921977 1_444
