# generated using pymatgen
data_Li6Ca17Hg9
_symmetry_space_group_name_H-M   'P 1'
_cell_length_a   13.56943323
_cell_length_b   13.56943323
_cell_length_c   13.56943323
_cell_angle_alpha   109.47122063
_cell_angle_beta   109.47122063
_cell_angle_gamma   109.47122063
_symmetry_Int_Tables_number   1
_chemical_formula_structural   Li6Ca17Hg9
_chemical_formula_sum   'Li12 Ca34 Hg18'
_cell_volume   1923.37175759
_cell_formula_units_Z   2
loop_
 _symmetry_equiv_pos_site_id
 _symmetry_equiv_pos_as_xyz
  1  'x, y, z'
loop_
 _atom_site_type_symbol
 _atom_site_label
 _atom_site_symmetry_multiplicity
 _atom_site_fract_x
 _atom_site_fract_y
 _atom_site_fract_z
 _atom_site_occupancy
  Li  Li0  1  0.69468788  0.84734394  0.84734394  1
  Li  Li1  1  0.84734394  0.00000000  0.15265606  1
  Li  Li2  1  0.84734394  0.15265606  0.00000000  1
  Li  Li3  1  0.00000000  0.84734394  0.15265606  1
  Li  Li4  1  0.84734394  0.69468788  0.84734394  1
  Li  Li5  1  0.15265606  0.84734394  0.00000000  1
  Li  Li6  1  0.00000000  0.15265606  0.84734394  1
  Li  Li7  1  0.15265606  0.00000000  0.84734394  1
  Li  Li8  1  0.84734394  0.84734394  0.69468788  1
  Li  Li9  1  0.30531212  0.15265606  0.15265606  1
  Li  Li10  1  0.15265606  0.30531212  0.15265606  1
  Li  Li11  1  0.15265606  0.15265606  0.30531212  1
  Ca  Ca0  1  0.54573636  0.80868118  0.00000000  1
  Ca  Ca1  1  0.73705518  0.19131882  0.19131882  1
  Ca  Ca2  1  0.54573636  0.00000000  0.80868118  1
  Ca  Ca3  1  0.80868118  0.54573636  0.00000000  1
  Ca  Ca4  1  0.00000000  0.54573636  0.80868118  1
  Ca  Ca5  1  0.19131882  0.73705518  0.19131882  1
  Ca  Ca6  1  0.19131882  0.19131882  0.73705518  1
  Ca  Ca7  1  0.00000000  0.80868118  0.54573636  1
  Ca  Ca8  1  0.80868118  0.00000000  0.54573636  1
  Ca  Ca9  1  0.45426364  0.45426364  0.26294482  1
  Ca  Ca10  1  0.26294482  0.45426364  0.45426364  1
  Ca  Ca11  1  0.45426364  0.26294482  0.45426364  1
  Ca  Ca12  1  0.45426364  0.19131882  0.00000000  1
  Ca  Ca13  1  0.26294482  0.80868118  0.80868118  1
  Ca  Ca14  1  0.45426364  0.00000000  0.19131882  1
  Ca  Ca15  1  0.19131882  0.45426364  0.00000000  1
  Ca  Ca16  1  0.00000000  0.45426364  0.19131882  1
  Ca  Ca17  1  0.80868118  0.26294482  0.80868118  1
  Ca  Ca18  1  0.80868118  0.80868118  0.26294482  1
  Ca  Ca19  1  0.00000000  0.19131882  0.45426364  1
  Ca  Ca20  1  0.19131882  0.00000000  0.45426364  1
  Ca  Ca21  1  0.54573636  0.54573636  0.73705518  1
  Ca  Ca22  1  0.73705518  0.54573636  0.54573636  1
  Ca  Ca23  1  0.54573636  0.73705518  0.54573636  1
  Ca  Ca24  1  0.50000000  0.75000000  0.25000000  1
  Ca  Ca25  1  0.75000000  0.50000000  0.25000000  1
  Ca  Ca26  1  0.25000000  0.75000000  0.50000000  1
  Ca  Ca27  1  0.25000000  0.50000000  0.75000000  1
  Ca  Ca28  1  0.50000000  0.25000000  0.75000000  1
  Ca  Ca29  1  0.75000000  0.25000000  0.50000000  1
  Ca  Ca30  1  0.00000000  0.50000000  0.50000000  1
  Ca  Ca31  1  0.50000000  0.00000000  0.50000000  1
  Ca  Ca32  1  0.50000000  0.50000000  0.00000000  1
  Ca  Ca33  1  0.00000000  0.00000000  0.00000000  1
  Hg  Hg0  1  0.41338023  0.70669011  0.70669011  1
  Hg  Hg1  1  0.70669011  0.00000000  0.29330989  1
  Hg  Hg2  1  0.70669011  0.29330989  0.00000000  1
  Hg  Hg3  1  0.00000000  0.70669011  0.29330989  1
  Hg  Hg4  1  0.70669011  0.41338023  0.70669011  1
  Hg  Hg5  1  0.29330989  0.70669011  0.00000000  1
  Hg  Hg6  1  0.00000000  0.29330989  0.70669011  1
  Hg  Hg7  1  0.29330989  0.00000000  0.70669011  1
  Hg  Hg8  1  0.70669011  0.70669011  0.41338023  1
  Hg  Hg9  1  0.58661977  0.29330989  0.29330989  1
  Hg  Hg10  1  0.29330989  0.58661977  0.29330989  1
  Hg  Hg11  1  0.29330989  0.29330989  0.58661977  1
  Hg  Hg12  1  0.00000000  0.24371299  0.24371299  1
  Hg  Hg13  1  0.75628701  0.00000000  0.75628701  1
  Hg  Hg14  1  0.75628701  0.75628701  0.00000000  1
  Hg  Hg15  1  0.00000000  0.75628701  0.75628701  1
  Hg  Hg16  1  0.24371299  0.00000000  0.24371299  1
  Hg  Hg17  1  0.24371299  0.24371299  0.00000000  1
loop_
_geom_bond_atom_site_label_1
_geom_bond_atom_site_label_2
_geom_bond_distance
_geom_bond_site_symmetry_2
Ca0 Hg14 3.165814 1_555
Ca0 Hg5 3.238458 1_555
Ca0 Hg0 3.299559 1_554
Ca0 Hg1 3.299559 1_565
Ca0 Ca32 4.024519 1_555
Ca1 Hg12 3.165814 1_655
Ca1 Hg9 3.238459 1_555
Ca1 Hg1 3.299559 1_555
Ca1 Hg2 3.299559 1_555
Ca1 Ca30 4.024519 1_655
Ca2 Hg13 3.165814 1_555
Ca2 Hg7 3.238458 1_555
Ca2 Hg0 3.299559 1_545
Ca2 Hg2 3.299559 1_556
Ca2 Ca31 4.024519 1_555
Ca3 Hg14 3.165814 1_555
Ca3 Hg2 3.238458 1_555
Ca3 Hg4 3.299559 1_554
Ca3 Hg3 3.299559 1_655
Ca3 Ca32 4.024519 1_555
Ca4 Hg15 3.165814 1_555
Ca4 Hg6 3.238458 1_555
Ca4 Hg4 3.299559 1_455
Ca4 Hg5 3.299559 1_556
Ca5 Hg16 3.165814 1_565
Ca5 Hg10 3.238459 1_555
Ca5 Hg3 3.299559 1_555
Ca5 Hg5 3.299559 1_555
Ca6 Hg17 3.165814 1_556
Ca6 Hg11 3.238459 1_555
Ca6 Hg6 3.299559 1_555
Ca6 Hg7 3.299559 1_555
Ca7 Hg15 3.165814 1_555
Ca7 Hg3 3.238458 1_555
Ca7 Hg8 3.299559 1_455
Ca7 Hg7 3.299559 1_565
Ca8 Hg13 3.165814 1_555
Ca8 Hg1 3.238458 1_555
Ca8 Hg8 3.299559 1_545
Ca8 Hg6 3.299559 1_655
Ca9 Hg17 3.165814 1_555
Ca9 Hg8 3.238458 1_555
Ca9 Hg10 3.299559 1_555
Ca9 Hg9 3.299559 1_555
Ca10 Hg12 3.165814 1_555
Ca10 Hg0 3.238458 1_555
Ca10 Hg11 3.299559 1_555
Ca10 Hg10 3.299559 1_555
Ca10 Ca30 4.024519 1_555
Ca11 Hg16 3.165814 1_555
Ca11 Hg4 3.238458 1_555
Ca11 Hg11 3.299559 1_555
Ca11 Hg9 3.299559 1_555
Ca11 Ca31 4.024519 1_555
Ca12 Hg17 3.165814 1_555
Ca12 Hg2 3.238458 1_555
Ca12 Hg9 3.299559 1_555
Ca12 Hg7 3.299559 1_554
Ca12 Ca32 4.024519 1_555
Ca13 Hg15 3.165814 1_555
Ca13 Hg0 3.238459 1_555
Ca13 Hg5 3.299559 1_556
Ca13 Hg7 3.299559 1_565
Ca13 Ca30 4.024519 1_555
Ca14 Hg16 3.165814 1_555
Ca14 Hg1 3.238458 1_555
Ca14 Hg9 3.299559 1_555
Ca14 Hg5 3.299559 1_545
Ca14 Ca31 4.024519 1_555
Ca15 Hg17 3.165814 1_555
Ca15 Hg5 3.238458 1_555
Ca15 Hg10 3.299559 1_555
Ca15 Hg6 3.299559 1_554
Ca15 Ca32 4.024519 1_555
Ca16 Hg12 3.165814 1_555
Ca16 Hg3 3.238458 1_555
Ca16 Hg10 3.299559 1_555
Ca16 Hg2 3.299559 1_455
Ca16 Ca30 4.024519 1_555
Ca17 Hg13 3.165814 1_555
Ca17 Hg4 3.238459 1_555
Ca17 Hg2 3.299559 1_556
Ca17 Hg6 3.299559 1_655
Ca17 Ca31 4.024519 1_555
Ca18 Hg14 3.165814 1_555
Ca18 Hg8 3.238459 1_555
Ca18 Hg1 3.299559 1_565
Ca18 Hg3 3.299559 1_655
Ca18 Ca32 4.024519 1_555
Ca19 Hg12 3.165814 1_555
Ca19 Hg6 3.238458 1_555
Ca19 Hg11 3.299559 1_555
Ca19 Hg1 3.299559 1_455
Ca19 Ca30 4.024519 1_555
Ca20 Hg16 3.165814 1_555
Ca20 Hg7 3.238458 1_555
Ca20 Hg11 3.299559 1_555
Ca20 Hg3 3.299559 1_545
Ca20 Ca31 4.024519 1_555
Ca21 Hg14 3.165814 1_556
Ca21 Hg11 3.238458 1_555
Ca21 Hg4 3.299559 1_555
Ca21 Hg0 3.299559 1_555
Ca21 Ca32 4.024519 1_556
Ca22 Hg15 3.165814 1_655
Ca22 Hg9 3.238458 1_555
Ca22 Hg4 3.299559 1_555
Ca22 Hg8 3.299559 1_555
Ca22 Ca30 4.024519 1_655
Ca23 Hg13 3.165814 1_565
Ca23 Hg10 3.238458 1_555
Ca23 Hg0 3.299559 1_555
Ca23 Hg8 3.299559 1_555
Ca23 Ca31 4.024519 1_565
Ca24 Hg5 3.308885 1_555
Ca24 Hg1 3.308885 1_565
Ca24 Hg10 3.308885 1_555
Ca24 Hg8 3.308885 1_555
Ca24 Ca31 3.917158 1_565
Ca24 Ca32 3.917158 1_555
Ca25 Hg2 3.308885 1_555
Ca25 Hg3 3.308885 1_655
Ca25 Hg9 3.308885 1_555
Ca25 Hg8 3.308885 1_555
Ca25 Ca30 3.917158 1_655
Ca25 Ca32 3.917158 1_555
Ca26 Hg3 3.308885 1_555
Ca26 Hg7 3.308885 1_565
Ca26 Hg0 3.308885 1_555
Ca26 Hg10 3.308885 1_555
Ca26 Ca30 3.917158 1_555
Ca26 Ca31 3.917158 1_565
Ca27 Hg5 3.308885 1_556
Ca27 Hg6 3.308885 1_555
Ca27 Hg0 3.308885 1_555
Ca27 Hg11 3.308885 1_555
Ca27 Ca30 3.917158 1_555
Ca27 Ca32 3.917158 1_556
Ca28 Hg2 3.308885 1_556
Ca28 Hg7 3.308885 1_555
Ca28 Hg4 3.308885 1_555
Ca28 Hg11 3.308885 1_555
Ca28 Ca31 3.917158 1_555
Ca28 Ca32 3.917158 1_556
Ca29 Hg6 3.308885 1_655
Ca29 Hg1 3.308885 1_555
Ca29 Hg9 3.308885 1_555
Ca29 Hg4 3.308885 1_555
Ca29 Ca31 3.917158 1_555
Ca29 Ca30 3.917158 1_655
Ca30 Ca4 4.024519 1_555
Ca30 Ca7 4.024519 1_555
Ca31 Ca5 4.024519 1_545
Ca31 Ca8 4.024519 1_555
Ca32 Ca9 4.024519 1_555
Ca32 Ca6 4.024519 1_554
Ca33 Li4 3.382674 1_444
Ca33 Li8 3.382674 1_444
Ca33 Li0 3.382674 1_444
Ca33 Li2 3.382674 1_455
Ca33 Li7 3.382674 1_554
Ca33 Li6 3.382674 1_554
Ca33 Li5 3.382674 1_545
Ca33 Li1 3.382674 1_455
Ca33 Li9 3.382674 1_555
Ca33 Li11 3.382674 1_555
Ca33 Li3 3.382674 1_545
Ca33 Li10 3.382674 1_555
Hg0 Li0 3.116719 1_555
Hg1 Li1 3.116719 1_555
Hg2 Li2 3.116719 1_555
Hg3 Li3 3.116719 1_555
Hg4 Li4 3.116719 1_555
Hg5 Li5 3.116719 1_555
Hg6 Li6 3.116719 1_555
Hg7 Li7 3.116719 1_555
Hg8 Li8 3.116719 1_555
Hg9 Li9 3.116719 1_555
Hg10 Li10 3.116719 1_555
Hg11 Li11 3.116719 1_555
Hg12 Li11 2.785107 1_555
Hg12 Li1 2.785107 1_455
Hg12 Li10 2.785107 1_555
Hg12 Li2 2.785107 1_455
Hg13 Li6 2.785107 1_655
Hg13 Li0 2.785107 1_545
Hg13 Li2 2.785107 1_556
Hg13 Li8 2.785107 1_545
Hg14 Li3 2.785107 1_655
Hg14 Li0 2.785107 1_554
Hg14 Li1 2.785107 1_565
Hg14 Li4 2.785107 1_554
Hg15 Li4 2.785107 1_455
Hg15 Li8 2.785107 1_455
Hg15 Li7 2.785107 1_565
Hg15 Li5 2.785107 1_556
Hg16 Li5 2.785107 1_545
Hg16 Li9 2.785107 1_555
Hg16 Li11 2.785107 1_555
Hg16 Li3 2.785107 1_545
Hg17 Li10 2.785107 1_555
Hg17 Li7 2.785107 1_554
Hg17 Li6 2.785107 1_554
Hg17 Li9 2.785107 1_555
