# generated using pymatgen
data_NdAlNi4
_symmetry_space_group_name_H-M   'P 1'
_cell_length_a   5.14069795
_cell_length_b   5.14069795
_cell_length_c   3.87767800
_cell_angle_alpha   90.00000000
_cell_angle_beta   90.00000000
_cell_angle_gamma   119.99999932
_symmetry_Int_Tables_number   1
_chemical_formula_structural   NdAlNi4
_chemical_formula_sum   'Nd1 Al1 Ni4'
_cell_volume   88.74554294
_cell_formula_units_Z   1
loop_
 _symmetry_equiv_pos_site_id
 _symmetry_equiv_pos_as_xyz
  1  'x, y, z'
loop_
 _atom_site_type_symbol
 _atom_site_label
 _atom_site_symmetry_multiplicity
 _atom_site_fract_x
 _atom_site_fract_y
 _atom_site_fract_z
 _atom_site_occupancy
  Nd  Nd0  1  0.66666700  0.33333300  0.00000000  1
  Al  Al0  1  0.00000000  0.00000000  0.00000000  1
  Ni  Ni0  1  0.33333300  0.66666700  0.00000000  1
  Ni  Ni1  1  0.66207300  0.83103700  0.50000000  1
  Ni  Ni2  1  0.16896300  0.83103700  0.50000000  1
  Ni  Ni3  1  0.16896300  0.33792700  0.50000000  1
loop_
_geom_bond_atom_site_label_1
_geom_bond_atom_site_label_2
_geom_bond_distance
_geom_bond_site_symmetry_2
Nd0 Ni0 2.967980 1_545
Nd0 Ni0 2.967980 1_655
Nd0 Ni0 2.967989 1_555
Nd0 Ni1 3.219656 1_544
Nd0 Ni1 3.219656 1_545
Nd0 Ni3 3.219656 1_655
Nd0 Ni3 3.219656 1_654
Nd0 Ni2 3.219660 1_655
Nd0 Ni2 3.219660 1_654
Nd0 Ni2 3.219660 1_544
Nd0 Ni2 3.219660 1_545
Nd0 Ni1 3.219664 1_555
Nd0 Ni3 3.219664 1_554
Nd0 Ni1 3.219664 1_554
Nd0 Ni3 3.219664 1_555
Al0 Ni2 2.454064 1_544
Al0 Ni2 2.454064 1_545
Al0 Ni1 2.454067 1_444
Al0 Ni1 2.454067 1_445
Al0 Ni3 2.454067 1_554
Al0 Ni3 2.454067 1_555
Al0 Nd0 2.967980 1_455
Al0 Ni0 2.967980 1_545
Al0 Ni0 2.967985 1_555
Al0 Ni0 2.967985 1_445
Al0 Nd0 2.967985 1_445
Al0 Nd0 2.967985 1_555
Ni0 Ni2 2.429208 1_554
Ni0 Ni2 2.429208 1_555
Ni0 Ni3 2.429208 1_554
Ni0 Ni1 2.429208 1_554
Ni0 Ni3 2.429208 1_555
Ni0 Ni1 2.429208 1_555
Ni1 Ni2 2.534930 1_555
Ni1 Ni3 2.534930 1_555
Ni1 Ni2 2.605768 1_655
Ni1 Ni3 2.605768 1_665
Ni2 Ni3 2.534930 1_555
Ni2 Ni3 2.605768 1_565
