# generated using pymatgen
data_Ba4Y2Cu6O13
_symmetry_space_group_name_H-M   'P 1'
_cell_length_a   12.66861511
_cell_length_b   12.64076388
_cell_length_c   5.51144181
_cell_angle_alpha   77.70507727
_cell_angle_beta   77.13990030
_cell_angle_gamma   25.15502243
_symmetry_Int_Tables_number   1
_chemical_formula_structural   Ba4Y2Cu6O13
_chemical_formula_sum   'Ba4 Y2 Cu6 O13'
_cell_volume   365.61805696
_cell_formula_units_Z   1
loop_
 _symmetry_equiv_pos_site_id
 _symmetry_equiv_pos_as_xyz
  1  'x, y, z'
loop_
 _atom_site_type_symbol
 _atom_site_label
 _atom_site_symmetry_multiplicity
 _atom_site_fract_x
 _atom_site_fract_y
 _atom_site_fract_z
 _atom_site_occupancy
  Ba  Ba0  1  0.16244700  0.64747400  0.83755300  1
  Ba  Ba1  1  0.64747400  0.16244700  0.35252600  1
  Ba  Ba2  1  0.83755300  0.35252600  0.16244700  1
  Ba  Ba3  1  0.35252600  0.83755300  0.64747400  1
  Y  Y0  1  0.00000000  0.50000000  0.00000000  1
  Y  Y1  1  0.50000000  0.00000000  0.50000000  1
  Cu  Cu0  1  0.56944900  0.06708000  0.93292000  1
  Cu  Cu1  1  0.06708000  0.56944900  0.43055100  1
  Cu  Cu2  1  0.43055100  0.93292000  0.06708000  1
  Cu  Cu3  1  0.93292000  0.43055100  0.56944900  1
  Cu  Cu4  1  0.25917500  0.74082500  0.25917500  1
  Cu  Cu5  1  0.74082500  0.25917500  0.74082500  1
  O  O0  1  0.31135300  0.31135300  0.68864700  1
  O  O1  1  0.80967200  0.80967200  0.19032800  1
  O  O2  1  0.30951100  0.30951100  0.19048900  1
  O  O3  1  0.80951100  0.80951100  0.69048900  1
  O  O4  1  0.19032800  0.19032800  0.80967200  1
  O  O5  1  0.68864700  0.68864700  0.31135300  1
  O  O6  1  0.19048900  0.19048900  0.30951100  1
  O  O7  1  0.69048900  0.69048900  0.80951100  1
  O  O8  1  0.69594000  0.15321100  0.84678900  1
  O  O9  1  0.15321100  0.69594000  0.30406000  1
  O  O10  1  0.30406000  0.84678900  0.15321100  1
  O  O11  1  0.84678900  0.30406000  0.69594000  1
  O  O12  1  0.50000000  0.50000000  0.50000000  1
loop_
_geom_bond_atom_site_label_1
_geom_bond_atom_site_label_2
_geom_bond_distance
_geom_bond_site_symmetry_2
Ba0 O8 2.721559 1_465
Ba0 O9 2.721559 1_556
Ba0 O9 2.879353 1_555
Ba0 O8 2.879353 1_555
Ba0 O0 2.927562 1_555
Ba0 O12 2.954192 1_555
Ba0 O3 3.028348 1_455
Ba0 O2 3.028348 1_556
Ba0 O1 3.032984 1_456
Ba1 O9 2.721559 1_645
Ba1 O8 2.721559 1_554
Ba1 O8 2.879353 1_555
Ba1 O9 2.879353 1_555
Ba1 O0 2.927562 1_555
Ba1 O12 2.954192 1_555
Ba1 O3 3.028348 1_545
Ba1 O2 3.028348 1_555
Ba1 O1 3.032984 1_545
Ba2 O11 2.721559 1_554
Ba2 O10 2.721559 1_645
Ba2 O10 2.879353 1_555
Ba2 O11 2.879353 1_555
Ba2 O5 2.927562 1_555
Ba2 O12 2.954192 1_555
Ba2 O7 3.028348 1_554
Ba2 O6 3.028348 1_655
Ba2 O4 3.032984 1_654
Ba3 O10 2.721559 1_556
Ba3 O11 2.721559 1_465
Ba3 O11 2.879353 1_555
Ba3 O10 2.879353 1_555
Ba3 O5 2.927562 1_555
Ba3 O12 2.954192 1_555
Ba3 O6 3.028348 1_565
Ba3 O7 3.028348 1_555
Ba3 O4 3.032984 1_565
Cu0 O2 1.937370 1_556
Cu0 O3 1.937370 1_545
Cu0 O1 1.972610 1_546
Cu0 O0 1.987388 1_555
Cu0 O8 2.564836 1_555
Cu1 O2 1.937370 1_555
Cu1 O3 1.937370 1_455
Cu1 O1 1.972610 1_455
Cu1 O0 1.987388 1_555
Cu1 O9 2.564836 1_555
Cu2 O6 1.937370 1_565
Cu2 O7 1.937370 1_554
Cu2 O4 1.972610 1_564
Cu2 O5 1.987388 1_555
Cu2 O10 2.564836 1_555
Cu3 O6 1.937370 1_655
Cu3 O7 1.937370 1_555
Cu3 O4 1.972610 1_655
Cu3 O5 1.987388 1_555
Cu3 O11 2.564836 1_555
Cu4 O10 1.832062 1_555
Cu4 O9 1.832062 1_555
Cu4 O12 1.898730 1_555
Cu5 O11 1.832062 1_555
Cu5 O8 1.832062 1_555
Cu5 O12 1.898730 1_555
O0 Y0 2.427224 1_556
O0 Y1 2.427224 1_555
O1 Y0 2.402802 1_655
O1 Y1 2.402802 1_565
O2 Y1 2.436915 1_555
O2 Y0 2.436915 1_555
O3 Y0 2.436915 1_656
O3 Y1 2.436915 1_565
O4 Y1 2.402802 1_555
O4 Y0 2.402802 1_556
O5 Y1 2.427224 1_565
O5 Y0 2.427224 1_655
O6 Y0 2.436915 1_555
O6 Y1 2.436915 1_555
O7 Y0 2.436915 1_656
O7 Y1 2.436915 1_565
