# generated using pymatgen
data_Ba(TbS2)2
_symmetry_space_group_name_H-M   'P 1'
_cell_length_a   4.06508932
_cell_length_b   12.31415063
_cell_length_c   14.59308917
_cell_angle_alpha   90.00000000
_cell_angle_beta   90.00000000
_cell_angle_gamma   90.00000000
_symmetry_Int_Tables_number   1
_chemical_formula_structural   Ba(TbS2)2
_chemical_formula_sum   'Ba4 Tb8 S16'
_cell_volume   730.50264111
_cell_formula_units_Z   4
loop_
 _symmetry_equiv_pos_site_id
 _symmetry_equiv_pos_as_xyz
  1  'x, y, z'
loop_
 _atom_site_type_symbol
 _atom_site_label
 _atom_site_symmetry_multiplicity
 _atom_site_fract_x
 _atom_site_fract_y
 _atom_site_fract_z
 _atom_site_occupancy
  Ba  Ba0  1  0.25000000  0.75742694  0.33851641  1
  Ba  Ba1  1  0.25000000  0.25742694  0.16148359  1
  Ba  Ba2  1  0.75000000  0.24257306  0.66148359  1
  Ba  Ba3  1  0.75000000  0.74257306  0.83851641  1
  Tb  Tb0  1  0.25000000  0.43198679  0.39136166  1
  Tb  Tb1  1  0.25000000  0.93198679  0.10863834  1
  Tb  Tb2  1  0.75000000  0.56801321  0.60863834  1
  Tb  Tb3  1  0.75000000  0.06801321  0.89136166  1
  Tb  Tb4  1  0.25000000  0.42126048  0.89801449  1
  Tb  Tb5  1  0.25000000  0.92126048  0.60198551  1
  Tb  Tb6  1  0.75000000  0.57873952  0.10198551  1
  Tb  Tb7  1  0.75000000  0.07873952  0.39801449  1
  S  S0  1  0.25000000  0.20729923  0.83566446  1
  S  S1  1  0.25000000  0.70729923  0.66433554  1
  S  S2  1  0.75000000  0.79270077  0.16433554  1
  S  S3  1  0.75000000  0.29270077  0.33566446  1
  S  S4  1  0.25000000  0.12428565  0.52302111  1
  S  S5  1  0.25000000  0.62428565  0.97697889  1
  S  S6  1  0.75000000  0.87571435  0.47697889  1
  S  S7  1  0.75000000  0.37571435  0.02302111  1
  S  S8  1  0.25000000  0.02245678  0.28302933  1
  S  S9  1  0.25000000  0.52245678  0.21697067  1
  S  S10  1  0.75000000  0.97754322  0.71697067  1
  S  S11  1  0.75000000  0.47754322  0.78302933  1
  S  S12  1  0.25000000  0.41955733  0.57706563  1
  S  S13  1  0.25000000  0.91955733  0.92293437  1
  S  S14  1  0.75000000  0.58044267  0.42293437  1
  S  S15  1  0.75000000  0.08044267  0.07706563  1
loop_
_geom_bond_atom_site_label_1
_geom_bond_atom_site_label_2
_geom_bond_distance
_geom_bond_site_symmetry_2
Ba0 S6 3.214927 1_455
Ba0 S6 3.214927 1_555
Ba0 S14 3.224701 1_455
Ba0 S14 3.224701 1_555
Ba0 S2 3.283420 1_555
Ba0 S2 3.283420 1_455
Ba0 S8 3.362567 1_565
Ba0 S9 3.393849 1_555
Ba1 S7 3.214927 1_455
Ba1 S7 3.214927 1_555
Ba1 S15 3.224701 1_455
Ba1 S15 3.224701 1_555
Ba1 S3 3.283420 1_455
Ba1 S3 3.283420 1_555
Ba1 S9 3.362567 1_555
Ba1 S8 3.393849 1_555
Ba2 S4 3.214927 1_655
Ba2 S4 3.214927 1_555
Ba2 S12 3.224701 1_655
Ba2 S12 3.224701 1_555
Ba2 S0 3.283420 1_655
Ba2 S0 3.283420 1_555
Ba2 S10 3.362567 1_545
Ba2 S11 3.393849 1_555
Ba3 S5 3.214927 1_555
Ba3 S5 3.214927 1_655
Ba3 S13 3.224701 1_555
Ba3 S13 3.224701 1_655
Ba3 S1 3.283420 1_555
Ba3 S1 3.283420 1_655
Ba3 S11 3.362567 1_555
Ba3 S10 3.393849 1_555
S0 Tb3 2.780961 1_455
S0 Tb3 2.780961 1_555
S0 Tb4 2.787435 1_555
S1 Tb2 2.780961 1_455
S1 Tb2 2.780961 1_555
S1 Tb5 2.787435 1_555
S2 Tb1 2.780961 1_555
S2 Tb1 2.780961 1_655
S2 Tb6 2.787435 1_555
S3 Tb0 2.780961 1_555
S3 Tb0 2.780961 1_655
S3 Tb7 2.787435 1_555
S4 Tb5 2.752869 1_545
S4 Tb7 2.788123 1_455
S4 Tb7 2.788123 1_555
S5 Tb4 2.752869 1_555
S5 Tb6 2.788123 1_556
S5 Tb6 2.788123 1_456
S6 Tb7 2.752869 1_565
S6 Tb5 2.788123 1_655
S6 Tb5 2.788123 1_555
S7 Tb6 2.752869 1_555
S7 Tb4 2.788123 1_554
S7 Tb4 2.788123 1_654
S8 Tb7 2.725296 1_455
S8 Tb7 2.725296 1_555
S8 Tb1 2.778069 1_545
S9 Tb6 2.725296 1_455
S9 Tb6 2.725296 1_555
S9 Tb0 2.778069 1_555
S10 Tb5 2.725296 1_555
S10 Tb5 2.725296 1_655
S10 Tb3 2.778069 1_565
S11 Tb4 2.725296 1_555
S11 Tb4 2.725296 1_655
S11 Tb2 2.778069 1_555
S12 Tb0 2.714313 1_555
S12 Tb2 2.772274 1_455
S12 Tb2 2.772274 1_555
S13 Tb1 2.714313 1_556
S13 Tb3 2.772274 1_565
S13 Tb3 2.772274 1_465
S14 Tb2 2.714313 1_555
S14 Tb0 2.772274 1_555
S14 Tb0 2.772274 1_655
S15 Tb3 2.714313 1_554
S15 Tb1 2.772274 1_545
S15 Tb1 2.772274 1_645
