# generated using pymatgen
data_Ba9Pr6Br34
_symmetry_space_group_name_H-M   'P 1'
_cell_length_a   14.32423300
_cell_length_b   14.32423300
_cell_length_c   14.32423300
_cell_angle_alpha   130.28714153
_cell_angle_beta   130.28714153
_cell_angle_gamma   72.94813739
_symmetry_Int_Tables_number   1
_chemical_formula_structural   Ba9Pr6Br34
_chemical_formula_sum   'Ba9 Pr6 Br34'
_cell_volume   1670.36701873
_cell_formula_units_Z   1
loop_
 _symmetry_equiv_pos_site_id
 _symmetry_equiv_pos_as_xyz
  1  'x, y, z'
loop_
 _atom_site_type_symbol
 _atom_site_label
 _atom_site_symmetry_multiplicity
 _atom_site_fract_x
 _atom_site_fract_y
 _atom_site_fract_z
 _atom_site_occupancy
  Ba  Ba0  1  0.00000000  0.00000000  0.00000000  1
  Ba  Ba1  1  0.15862000  0.70503900  0.17935400  1
  Ba  Ba2  1  0.52568500  0.97926600  0.82064600  1
  Ba  Ba3  1  0.97926600  0.15862000  0.45358100  1
  Ba  Ba4  1  0.70503900  0.52568500  0.54641900  1
  Ba  Ba5  1  0.84138000  0.29496100  0.82064600  1
  Ba  Ba6  1  0.47431500  0.02073400  0.17935400  1
  Ba  Ba7  1  0.02073400  0.84138000  0.54641900  1
  Ba  Ba8  1  0.29496100  0.47431500  0.45358100  1
  Pr  Pr0  1  0.68760100  0.68760100  0.00000000  1
  Pr  Pr1  1  0.31239900  0.31239900  0.00000000  1
  Pr  Pr2  1  0.17821800  0.60802700  0.78624600  1
  Pr  Pr3  1  0.82178200  0.39197300  0.21375400  1
  Pr  Pr4  1  0.39197300  0.17821800  0.57019100  1
  Pr  Pr5  1  0.60802700  0.82178200  0.42980900  1
  Br  Br0  1  0.92183300  0.42183300  0.50000000  1
  Br  Br1  1  0.42183300  0.92183300  0.50000000  1
  Br  Br2  1  0.07816700  0.57816700  0.50000000  1
  Br  Br3  1  0.57816700  0.07816700  0.50000000  1
  Br  Br4  1  0.75000000  0.25000000  0.50000000  1
  Br  Br5  1  0.25000000  0.75000000  0.50000000  1
  Br  Br6  1  0.00400600  0.70800100  0.87359100  1
  Br  Br7  1  0.83441000  0.13041500  0.12640900  1
  Br  Br8  1  0.13041500  0.00400600  0.29600400  1
  Br  Br9  1  0.70800100  0.83441000  0.70399600  1
  Br  Br10  1  0.99599400  0.29199900  0.12640900  1
  Br  Br11  1  0.16559000  0.86958500  0.87359100  1
  Br  Br12  1  0.86958500  0.99599400  0.70399600  1
  Br  Br13  1  0.29199900  0.16559000  0.29600400  1
  Br  Br14  1  0.95475900  0.85101200  0.28491300  1
  Br  Br15  1  0.56609900  0.66984600  0.71508700  1
  Br  Br16  1  0.66984600  0.95475900  0.10374700  1
  Br  Br17  1  0.85101200  0.56609900  0.89625300  1
  Br  Br18  1  0.04524100  0.14898800  0.71508700  1
  Br  Br19  1  0.43390100  0.33015400  0.28491300  1
  Br  Br20  1  0.33015400  0.04524100  0.89625300  1
  Br  Br21  1  0.14898800  0.43390100  0.10374700  1
  Br  Br22  1  0.35722300  0.78175300  0.13897700  1
  Br  Br23  1  0.64277700  0.21824700  0.86102300  1
  Br  Br24  1  0.21824700  0.35722300  0.57547000  1
  Br  Br25  1  0.78175300  0.64277700  0.42453000  1
  Br  Br26  1  0.55044100  0.41118300  0.71683200  1
  Br  Br27  1  0.69435100  0.83360900  0.28316800  1
  Br  Br28  1  0.83360900  0.55044100  0.13925800  1
  Br  Br29  1  0.41118300  0.69435100  0.86074200  1
  Br  Br30  1  0.44955900  0.58881700  0.28316800  1
  Br  Br31  1  0.30564900  0.16639100  0.71683200  1
  Br  Br32  1  0.16639100  0.44955900  0.86074200  1
  Br  Br33  1  0.58881700  0.30564900  0.13925800  1
loop_
_geom_bond_atom_site_label_1
_geom_bond_atom_site_label_2
_geom_bond_distance
_geom_bond_site_symmetry_2
Ba0 Br8 3.312959 1_555
Ba0 Br12 3.312959 1_444
Ba0 Br13 3.312972 1_555
Ba0 Br9 3.312972 1_444
Ba0 Br11 3.312972 1_544
Ba0 Br7 3.312972 1_455
Ba0 Br6 3.312972 1_544
Ba0 Br10 3.312972 1_455
Ba1 Br21 3.310218 1_555
Ba1 Br1 3.313682 1_555
Ba1 Br17 3.379118 1_454
Ba1 Br6 3.424955 1_554
Ba1 Br8 3.449510 1_565
Ba1 Br5 3.481069 1_555
Ba1 Br32 3.612816 1_554
Ba1 Br14 3.636780 1_455
Ba1 Br30 3.669991 1_555
Ba1 Br22 3.797139 1_555
Ba2 Br20 3.310218 1_565
Ba2 Br1 3.313682 1_555
Ba2 Br16 3.379118 1_556
Ba2 Br7 3.424955 1_566
Ba2 Br9 3.449498 1_555
Ba2 Br5 3.481069 1_555
Ba2 Br33 3.612816 1_566
Ba2 Br15 3.636780 1_555
Ba2 Br31 3.669991 1_565
Ba2 Br23 3.797161 1_565
Ba3 Br18 3.310218 1_655
Ba3 Br0 3.313682 1_555
Ba3 Br14 3.379118 1_545
Ba3 Br8 3.424964 1_655
Ba3 Br7 3.449507 1_555
Ba3 Br4 3.481069 1_555
Ba3 Br31 3.612816 1_655
Ba3 Br16 3.636780 1_545
Ba3 Br32 3.669991 1_655
Ba3 Br24 3.797151 1_655
Ba4 Br19 3.310218 1_555
Ba4 Br0 3.313682 1_555
Ba4 Br15 3.379118 1_555
Ba4 Br9 3.424952 1_555
Ba4 Br6 3.449507 1_655
Ba4 Br4 3.481069 1_555
Ba4 Br30 3.612816 1_555
Ba4 Br17 3.636780 1_555
Ba4 Br33 3.669991 1_555
Ba4 Br25 3.797151 1_555
Ba5 Br17 3.310218 1_555
Ba5 Br3 3.313682 1_555
Ba5 Br21 3.379118 1_656
Ba5 Br10 3.424955 1_556
Ba5 Br12 3.449510 1_545
Ba5 Br4 3.481069 1_555
Ba5 Br28 3.612816 1_556
Ba5 Br18 3.636780 1_655
Ba5 Br26 3.669991 1_555
Ba5 Br23 3.797139 1_555
Ba6 Br16 3.310218 1_545
Ba6 Br3 3.313682 1_555
Ba6 Br20 3.379118 1_554
Ba6 Br11 3.424955 1_544
Ba6 Br13 3.449498 1_555
Ba6 Br4 3.481069 1_555
Ba6 Br29 3.612816 1_544
Ba6 Br19 3.636780 1_555
Ba6 Br27 3.669991 1_545
Ba6 Br22 3.797161 1_545
Ba7 Br14 3.310218 1_455
Ba7 Br2 3.313682 1_555
Ba7 Br18 3.379118 1_565
Ba7 Br12 3.424964 1_455
Ba7 Br11 3.449507 1_555
Ba7 Br5 3.481069 1_555
Ba7 Br27 3.612816 1_455
Ba7 Br20 3.636780 1_565
Ba7 Br28 3.669991 1_455
Ba7 Br25 3.797151 1_455
Ba8 Br15 3.310218 1_555
Ba8 Br2 3.313682 1_555
Ba8 Br19 3.379118 1_555
Ba8 Br13 3.424952 1_555
Ba8 Br10 3.449507 1_455
Ba8 Br5 3.481069 1_555
Ba8 Br26 3.612816 1_555
Ba8 Br21 3.636780 1_555
Ba8 Br29 3.669991 1_555
Ba8 Br24 3.797151 1_555
Br0 Pr2 3.088835 1_655
Br0 Pr3 3.088848 1_555
Br1 Pr4 3.088835 1_565
Br1 Pr5 3.088835 1_555
Br2 Pr3 3.088835 1_455
Br2 Pr2 3.088848 1_555
Br3 Pr4 3.088835 1_555
Br3 Pr5 3.088835 1_545
Br6 Pr2 3.077047 1_555
Br7 Pr3 3.077061 1_555
Br8 Pr4 3.077056 1_555
Br9 Pr5 3.077070 1_555
Br10 Pr3 3.077047 1_555
Br11 Pr2 3.077061 1_555
Br12 Pr5 3.077056 1_555
Br13 Pr4 3.077070 1_555
Br14 Pr0 3.079141 1_555
Br15 Pr0 3.079141 1_556
Br16 Pr0 3.079141 1_555
Br17 Pr0 3.079141 1_556
Br18 Pr1 3.079141 1_556
Br19 Pr1 3.079141 1_555
Br20 Pr1 3.079141 1_556
Br21 Pr1 3.079141 1_555
Br22 Pr2 3.003900 1_554
Br22 Pr5 3.058467 1_555
Br23 Pr3 3.003900 1_556
Br23 Pr4 3.058467 1_555
Br24 Pr4 3.003900 1_555
Br24 Pr2 3.058479 1_555
Br25 Pr5 3.003900 1_555
Br25 Pr3 3.058479 1_555
Br26 Pr0 3.078395 1_556
Br26 Pr4 3.148321 1_555
Br27 Pr0 3.078395 1_555
Br27 Pr5 3.148321 1_555
Br28 Pr0 3.078395 1_555
Br28 Pr3 3.148309 1_555
Br29 Pr0 3.078395 1_556
Br29 Pr2 3.148329 1_555
Br30 Pr1 3.078395 1_555
Br30 Pr5 3.148321 1_555
Br31 Pr1 3.078395 1_556
Br31 Pr4 3.148321 1_555
Br32 Pr1 3.078395 1_556
Br32 Pr2 3.148309 1_555
Br33 Pr1 3.078395 1_555
Br33 Pr3 3.148329 1_555
