# generated using pymatgen
data_Sr7CrN6
_symmetry_space_group_name_H-M   'P 1'
_cell_length_a   11.86202742
_cell_length_b   6.75139491
_cell_length_c   13.67381832
_cell_angle_alpha   90.00000000
_cell_angle_beta   90.00000000
_cell_angle_gamma   90.00000000
_symmetry_Int_Tables_number   1
_chemical_formula_structural   Sr7CrN6
_chemical_formula_sum   'Sr28 Cr4 N24'
_cell_volume   1095.07090627
_cell_formula_units_Z   4
loop_
 _symmetry_equiv_pos_site_id
 _symmetry_equiv_pos_as_xyz
  1  'x, y, z'
loop_
 _atom_site_type_symbol
 _atom_site_label
 _atom_site_symmetry_multiplicity
 _atom_site_fract_x
 _atom_site_fract_y
 _atom_site_fract_z
 _atom_site_occupancy
  Sr  Sr0  1  0.03605642  0.73519509  0.97880761  1
  Sr  Sr1  1  0.46394358  0.76480491  0.47880761  1
  Sr  Sr2  1  0.53605642  0.76480491  0.02119239  1
  Sr  Sr3  1  0.96394358  0.73519509  0.52119239  1
  Sr  Sr4  1  0.96394358  0.26480491  0.02119239  1
  Sr  Sr5  1  0.53605642  0.23519509  0.52119239  1
  Sr  Sr6  1  0.46394358  0.23519509  0.97880761  1
  Sr  Sr7  1  0.03605642  0.26480491  0.47880761  1
  Sr  Sr8  1  0.22163480  0.85527460  0.62213247  1
  Sr  Sr9  1  0.27836520  0.64472540  0.12213247  1
  Sr  Sr10  1  0.72163480  0.64472540  0.37786753  1
  Sr  Sr11  1  0.77836520  0.85527460  0.87786753  1
  Sr  Sr12  1  0.77836520  0.14472540  0.37786753  1
  Sr  Sr13  1  0.72163480  0.35527460  0.87786753  1
  Sr  Sr14  1  0.27836520  0.35527460  0.62213247  1
  Sr  Sr15  1  0.22163480  0.14472540  0.12213247  1
  Sr  Sr16  1  0.28978291  0.61473802  0.86929239  1
  Sr  Sr17  1  0.21021709  0.88526198  0.36929239  1
  Sr  Sr18  1  0.78978291  0.88526198  0.13070761  1
  Sr  Sr19  1  0.71021709  0.61473802  0.63070761  1
  Sr  Sr20  1  0.71021709  0.38526198  0.13070761  1
  Sr  Sr21  1  0.78978291  0.11473802  0.63070761  1
  Sr  Sr22  1  0.21021709  0.11473802  0.86929239  1
  Sr  Sr23  1  0.28978291  0.38526198  0.36929239  1
  Sr  Sr24  1  -0.00000000  0.43582959  0.75000000  1
  Sr  Sr25  1  0.50000000  0.06417041  0.25000000  1
  Sr  Sr26  1  -0.00000000  0.56417041  0.25000000  1
  Sr  Sr27  1  0.50000000  0.93582959  0.75000000  1
  Cr  Cr0  1  -0.00000000  0.93076152  0.75000000  1
  Cr  Cr1  1  0.50000000  0.56923848  0.25000000  1
  Cr  Cr2  1  -0.00000000  0.06923848  0.25000000  1
  Cr  Cr3  1  0.50000000  0.43076152  0.75000000  1
  N  N0  1  0.11554041  0.77744589  0.78874765  1
  N  N1  1  0.38445959  0.72255411  0.28874765  1
  N  N2  1  0.61554041  0.72255411  0.21125235  1
  N  N3  1  0.88445959  0.77744589  0.71125235  1
  N  N4  1  0.88445959  0.22255411  0.21125235  1
  N  N5  1  0.61554041  0.27744589  0.71125235  1
  N  N6  1  0.38445959  0.27744589  0.78874765  1
  N  N7  1  0.11554041  0.22255411  0.28874765  1
  N  N8  1  0.16519806  0.58661573  0.49667679  1
  N  N9  1  0.33480194  0.91338427  0.99667679  1
  N  N10  1  0.66519806  0.91338427  0.50332321  1
  N  N11  1  0.83480194  0.58661573  0.00332321  1
  N  N12  1  0.83480194  0.41338427  0.50332321  1
  N  N13  1  0.66519806  0.08661573  0.00332321  1
  N  N14  1  0.33480194  0.08661573  0.49667679  1
  N  N15  1  0.16519806  0.41338427  0.99667679  1
  N  N16  1  0.45673883  0.58195947  0.64756176  1
  N  N17  1  0.04326117  0.91804053  0.14756176  1
  N  N18  1  0.95673883  0.91804053  0.35243824  1
  N  N19  1  0.54326117  0.58195947  0.85243824  1
  N  N20  1  0.54326117  0.41804053  0.35243824  1
  N  N21  1  0.95673883  0.08195947  0.85243824  1
  N  N22  1  0.04326117  0.08195947  0.64756176  1
  N  N23  1  0.45673883  0.41804053  0.14756176  1
loop_
_geom_bond_atom_site_label_1
_geom_bond_atom_site_label_2
_geom_bond_distance
_geom_bond_site_symmetry_2
Cr0 N0 1.797367 1_555
Cr0 N3 1.797367 1_455
Cr0 N21 1.807591 1_465
Cr0 N22 1.807591 1_565
Cr1 N1 1.797367 1_555
Cr1 N2 1.797367 1_555
Cr1 N20 1.807591 1_555
Cr1 N23 1.807591 1_555
Cr2 N7 1.797367 1_555
Cr2 N4 1.797367 1_455
Cr2 N17 1.807591 1_545
Cr2 N18 1.807591 1_445
Cr3 N6 1.797367 1_555
Cr3 N5 1.797367 1_555
Cr3 N19 1.807591 1_555
Cr3 N16 1.807591 1_555
N0 Sr16 2.586821 1_555
N0 Sr8 2.655260 1_555
N0 Sr24 2.734689 1_555
N0 Sr22 2.767642 1_565
N0 Sr0 2.779265 1_555
N1 Sr17 2.586821 1_555
N1 Sr9 2.655260 1_555
N1 Sr25 2.734689 1_565
N1 Sr23 2.767642 1_555
N1 Sr1 2.779265 1_555
N2 Sr18 2.586821 1_555
N2 Sr10 2.655260 1_555
N2 Sr25 2.734689 1_565
N2 Sr20 2.767642 1_555
N2 Sr2 2.779265 1_555
N3 Sr19 2.586821 1_555
N3 Sr11 2.655260 1_555
N3 Sr24 2.734689 1_655
N3 Sr21 2.767642 1_565
N3 Sr3 2.779265 1_555
N4 Sr20 2.586821 1_555
N4 Sr12 2.655260 1_555
N4 Sr26 2.734689 1_655
N4 Sr18 2.767642 1_545
N4 Sr4 2.779265 1_555
N5 Sr21 2.586821 1_555
N5 Sr13 2.655260 1_555
N5 Sr27 2.734689 1_545
N5 Sr19 2.767642 1_555
N5 Sr5 2.779265 1_555
N6 Sr22 2.586821 1_555
N6 Sr14 2.655260 1_555
N6 Sr27 2.734689 1_545
N6 Sr16 2.767642 1_555
N6 Sr6 2.779265 1_555
N7 Sr23 2.586821 1_555
N7 Sr15 2.655260 1_555
N7 Sr26 2.734689 1_555
N7 Sr17 2.767642 1_545
N7 Sr7 2.779265 1_555
N8 Sr8 2.584747 1_555
N8 Sr3 2.611083 1_455
N8 Sr23 2.658190 1_555
N8 Sr7 2.669619 1_555
N8 Sr14 2.680348 1_555
N8 Sr17 2.717449 1_555
N9 Sr9 2.584747 1_556
N9 Sr2 2.611083 1_556
N9 Sr22 2.658190 1_565
N9 Sr6 2.669619 1_565
N9 Sr15 2.680348 1_566
N9 Sr16 2.717449 1_555
N10 Sr10 2.584747 1_555
N10 Sr1 2.611083 1_555
N10 Sr21 2.658190 1_565
N10 Sr5 2.669619 1_565
N10 Sr12 2.680348 1_565
N10 Sr19 2.717449 1_555
N11 Sr11 2.584747 1_554
N11 Sr0 2.611083 1_654
N11 Sr20 2.658190 1_555
N11 Sr4 2.669619 1_555
N11 Sr13 2.680348 1_554
N11 Sr18 2.717449 1_555
N12 Sr12 2.584747 1_555
N12 Sr7 2.611083 1_655
N12 Sr19 2.658190 1_555
N12 Sr3 2.669619 1_555
N12 Sr10 2.680348 1_555
N12 Sr21 2.717449 1_555
N13 Sr13 2.584747 1_554
N13 Sr6 2.611083 1_554
N13 Sr18 2.658190 1_545
N13 Sr2 2.669619 1_545
N13 Sr11 2.680348 1_544
N13 Sr20 2.717449 1_555
N14 Sr14 2.584747 1_555
N14 Sr5 2.611083 1_555
N14 Sr17 2.658190 1_545
N14 Sr1 2.669619 1_545
N14 Sr8 2.680348 1_545
N14 Sr23 2.717449 1_555
N15 Sr15 2.584747 1_556
N15 Sr4 2.611083 1_456
N15 Sr16 2.658190 1_555
N15 Sr0 2.669619 1_555
N15 Sr9 2.680348 1_556
N15 Sr22 2.717449 1_555
N16 Sr1 2.618362 1_555
N16 Sr14 2.634401 1_555
N16 Sr27 2.816601 1_555
N16 Sr19 3.023694 1_555
N16 Sr5 3.058104 1_555
N17 Sr0 2.618362 1_554
N17 Sr15 2.634401 1_565
N17 Sr26 2.816601 1_555
N17 Sr18 3.023694 1_455
N17 Sr4 3.058104 1_465
N18 Sr3 2.618362 1_555
N18 Sr12 2.634401 1_565
N18 Sr26 2.816601 1_655
N18 Sr17 3.023694 1_655
N18 Sr7 3.058104 1_665
N19 Sr2 2.618362 1_556
N19 Sr13 2.634401 1_555
N19 Sr27 2.816601 1_555
N19 Sr16 3.023694 1_555
N19 Sr6 3.058104 1_555
N20 Sr5 2.618362 1_555
N20 Sr10 2.634401 1_555
N20 Sr25 2.816601 1_555
N20 Sr23 3.023694 1_555
N20 Sr1 3.058104 1_555
N21 Sr4 2.618362 1_556
N21 Sr11 2.634401 1_545
N21 Sr24 2.816601 1_655
N21 Sr22 3.023694 1_655
N21 Sr0 3.058104 1_645
N22 Sr7 2.618362 1_555
N22 Sr8 2.634401 1_545
N22 Sr24 2.816601 1_555
N22 Sr21 3.023694 1_455
N22 Sr3 3.058104 1_445
N23 Sr6 2.618362 1_554
N23 Sr9 2.634401 1_555
N23 Sr25 2.816601 1_555
N23 Sr20 3.023694 1_555
N23 Sr2 3.058104 1_555
