# generated using pymatgen
data_SrLa3(CuO4)2
_symmetry_space_group_name_H-M   'P 1'
_cell_length_a   7.08660882
_cell_length_b   7.08660882
_cell_length_c   5.37512000
_cell_angle_alpha   90.00000000
_cell_angle_beta   90.00000000
_cell_angle_gamma   135.42747932
_symmetry_Int_Tables_number   1
_chemical_formula_structural   SrLa3(CuO4)2
_chemical_formula_sum   'Sr1 La3 Cu2 O8'
_cell_volume   189.44604948
_cell_formula_units_Z   1
loop_
 _symmetry_equiv_pos_site_id
 _symmetry_equiv_pos_as_xyz
  1  'x, y, z'
loop_
 _atom_site_type_symbol
 _atom_site_label
 _atom_site_symmetry_multiplicity
 _atom_site_fract_x
 _atom_site_fract_y
 _atom_site_fract_z
 _atom_site_occupancy
  Sr  Sr0  1  0.64128600  0.35871400  0.00000000  1
  La  La0  1  0.13940000  0.86060000  0.50000000  1
  La  La1  1  0.85846600  0.14153400  0.50000000  1
  La  La2  1  0.35980200  0.64019800  0.00000000  1
  Cu  Cu0  1  0.50416000  0.49584000  0.50000000  1
  Cu  Cu1  1  0.99928800  0.00071200  0.00000000  1
  O  O0  1  0.24419200  0.25086500  0.25509000  1
  O  O1  1  0.74913500  0.75580800  0.74491000  1
  O  O2  1  0.74913500  0.75580800  0.25509000  1
  O  O3  1  0.24419200  0.25086500  0.74491000  1
  O  O4  1  0.31646300  0.68353700  0.50000000  1
  O  O5  1  0.83069500  0.16930500  0.00000000  1
  O  O6  1  0.18254900  0.81745100  0.00000000  1
  O  O7  1  0.68123400  0.31876600  0.50000000  1
loop_
_geom_bond_atom_site_label_1
_geom_bond_atom_site_label_2
_geom_bond_distance
_geom_bond_site_symmetry_2
La0 O4 2.322091 1_555
La0 O1 2.647103 1_455
La0 O2 2.647103 1_455
La0 O0 2.647103 1_565
La0 O3 2.647103 1_565
La0 O7 2.742913 1_455
La0 O7 2.742913 1_565
La0 O6 2.746488 1_555
La0 O6 2.746488 1_556
La1 O7 2.324307 1_555
La1 O3 2.605348 1_655
La1 O0 2.605348 1_655
La1 O2 2.605348 1_545
La1 O1 2.605348 1_545
La1 O5 2.712125 1_555
La1 O5 2.712125 1_556
La1 O4 2.743357 1_545
La1 O4 2.743357 1_655
La2 O6 2.324582 1_555
La2 O3 2.634976 1_554
La2 O0 2.634976 1_555
La2 O1 2.634976 1_554
La2 O2 2.634976 1_555
La2 O5 2.714459 1_565
La2 O5 2.714459 1_455
La2 O4 2.747002 1_554
La2 O4 2.747002 1_555
Cu0 O2 1.893185 1_555
Cu0 O1 1.893185 1_555
Cu0 O0 1.893185 1_555
Cu0 O3 1.893185 1_555
Cu0 O7 2.322235 1_555
Cu0 O4 2.461550 1_555
Cu1 O3 1.910845 1_654
Cu1 O0 1.910845 1_655
Cu1 O1 1.910845 1_544
Cu1 O2 1.910845 1_545
Cu1 O5 2.211011 1_555
Cu1 O6 2.403374 1_645
O0 Sr0 2.705333 1_555
O1 Sr0 2.705333 1_556
O2 Sr0 2.705333 1_555
O3 Sr0 2.705333 1_556
O5 Sr0 2.484002 1_555
O6 Sr0 2.741425 1_455
O6 Sr0 2.741425 1_565
O7 Sr0 2.738147 1_556
O7 Sr0 2.738147 1_555
