# generated using pymatgen
data_RbTmP2O7
_symmetry_space_group_name_H-M   'P 1'
_cell_length_a   10.92114600
_cell_length_b   7.83598000
_cell_length_c   8.75849729
_cell_angle_alpha   74.51244722
_cell_angle_beta   90.00000000
_cell_angle_gamma   90.00000000
_symmetry_Int_Tables_number   1
_chemical_formula_structural   RbTmP2O7
_chemical_formula_sum   'Rb4 Tm4 P8 O28'
_cell_volume   722.31694354
_cell_formula_units_Z   4
loop_
 _symmetry_equiv_pos_site_id
 _symmetry_equiv_pos_as_xyz
  1  'x, y, z'
loop_
 _atom_site_type_symbol
 _atom_site_label
 _atom_site_symmetry_multiplicity
 _atom_site_fract_x
 _atom_site_fract_y
 _atom_site_fract_z
 _atom_site_occupancy
  Rb  Rb0  1  0.81773600  0.81846600  0.55590800  1
  Rb  Rb1  1  0.18226400  0.18153400  0.44409200  1
  Rb  Rb2  1  0.31773600  0.18153400  0.94409200  1
  Rb  Rb3  1  0.68226400  0.81846600  0.05590800  1
  Tm  Tm0  1  0.40071100  0.76099100  0.75867500  1
  Tm  Tm1  1  0.59928900  0.23900900  0.24132500  1
  Tm  Tm2  1  0.90071100  0.23900900  0.74132500  1
  Tm  Tm3  1  0.09928900  0.76099100  0.25867500  1
  P  P0  1  0.13265400  0.56659400  0.69159700  1
  P  P1  1  0.86734600  0.43340600  0.30840300  1
  P  P2  1  0.63265400  0.43340600  0.80840300  1
  P  P3  1  0.36734600  0.56659400  0.19159700  1
  P  P4  1  0.09770700  0.86778000  0.82578600  1
  P  P5  1  0.90229300  0.13222000  0.17421400  1
  P  P6  1  0.59770700  0.13222000  0.67421400  1
  P  P7  1  0.40229300  0.86778000  0.32578600  1
  O  O0  1  0.07445900  0.38249200  0.73439200  1
  O  O1  1  0.92554100  0.61750800  0.26560800  1
  O  O2  1  0.57445900  0.61750800  0.76560800  1
  O  O3  1  0.42554100  0.38249200  0.23439200  1
  O  O4  1  0.22751100  0.91586200  0.75971500  1
  O  O5  1  0.77248900  0.08413800  0.24028500  1
  O  O6  1  0.72751100  0.08413800  0.74028500  1
  O  O7  1  0.27248900  0.91586200  0.25971500  1
  O  O8  1  0.26796800  0.55350500  0.73995100  1
  O  O9  1  0.73203200  0.44649500  0.26004900  1
  O  O10  1  0.76796800  0.44649500  0.76004900  1
  O  O11  1  0.23203200  0.55350500  0.23995100  1
  O  O12  1  0.10748100  0.67126100  0.52049200  1
  O  O13  1  0.89251900  0.32873900  0.47950800  1
  O  O14  1  0.60748100  0.32873900  0.97950800  1
  O  O15  1  0.39251900  0.67126100  0.02049200  1
  O  O16  1  0.40988000  0.84926000  0.50211300  1
  O  O17  1  0.59012000  0.15074000  0.49788700  1
  O  O18  1  0.90988000  0.15074000  0.99788700  1
  O  O19  1  0.09012000  0.84926000  0.00211300  1
  O  O20  1  0.06136100  0.67404900  0.80183700  1
  O  O21  1  0.93863900  0.32595100  0.19816300  1
  O  O22  1  0.56136100  0.32595100  0.69816300  1
  O  O23  1  0.43863900  0.67404900  0.30183700  1
  O  O24  1  0.50261600  0.00336700  0.77145300  1
  O  O25  1  0.49738400  0.99663300  0.22854700  1
  O  O26  1  0.00261600  0.99663300  0.72854700  1
  O  O27  1  0.99738400  0.00336700  0.27145300  1
loop_
_geom_bond_atom_site_label_1
_geom_bond_atom_site_label_2
_geom_bond_distance
_geom_bond_site_symmetry_2
O0 P0 1.528658 1_555
O0 Tm2 2.198170 1_455
O0 Rb2 3.371546 1_555
O0 Rb1 3.531133 1_555
O1 P1 1.528658 1_555
O1 Tm3 2.198170 1_655
O1 Rb3 3.371546 1_555
O1 Rb0 3.531133 1_555
O2 P2 1.528658 1_555
O2 Tm0 2.198170 1_555
O2 Rb0 3.371546 1_555
O2 Rb3 3.531133 1_556
O3 P3 1.528658 1_555
O3 Tm1 2.198170 1_555
O3 Rb1 3.371546 1_555
O3 Rb2 3.531133 1_554
O4 P4 1.539481 1_555
O4 Tm0 2.248702 1_555
O4 Rb1 3.024309 1_565
O4 Rb2 3.115771 1_565
O5 P5 1.539481 1_555
O5 Tm1 2.248702 1_555
O5 Rb0 3.024309 1_545
O5 Rb3 3.115771 1_545
O6 P6 1.539481 1_555
O6 Tm2 2.248702 1_555
O6 Rb3 3.024309 1_546
O6 Rb0 3.115771 1_545
O7 P7 1.539481 1_555
O7 Tm3 2.248702 1_555
O7 Rb2 3.024309 1_564
O7 Rb1 3.115771 1_565
O8 P0 1.533143 1_555
O8 Tm0 2.216832 1_555
O8 Rb2 3.033944 1_555
O9 P1 1.533143 1_555
O9 Tm1 2.216832 1_555
O9 Rb3 3.033944 1_555
O10 P2 1.533143 1_555
O10 Tm2 2.216832 1_555
O10 Rb0 3.033944 1_555
O11 P3 1.533143 1_555
O11 Tm3 2.216832 1_555
O11 Rb1 3.033944 1_555
O12 P0 1.528955 1_555
O12 Tm3 2.213530 1_555
O12 Rb0 3.410418 1_455
O13 P1 1.528955 1_555
O13 Tm2 2.213530 1_555
O13 Rb1 3.410418 1_655
O14 P2 1.528955 1_555
O14 Tm1 2.213530 1_556
O14 Rb2 3.410418 1_555
O15 P3 1.528955 1_555
O15 Tm0 2.213530 1_554
O15 Rb3 3.410418 1_555
O16 P7 1.514358 1_555
O16 Tm0 2.169752 1_555
O16 Rb1 3.536971 1_565
O17 P6 1.514358 1_555
O17 Tm1 2.169752 1_555
O17 Rb0 3.536971 1_545
O18 P5 1.514358 1_556
O18 Tm2 2.169752 1_555
O18 Rb3 3.536971 1_546
O19 P4 1.514358 1_554
O19 Tm3 2.169752 1_555
O19 Rb2 3.536971 1_564
O20 P4 1.635898 1_555
O20 P0 1.637577 1_555
O20 Rb0 3.420169 1_455
O21 P5 1.635898 1_555
O21 P1 1.637577 1_555
O21 Rb1 3.420169 1_655
O22 P6 1.635898 1_555
O22 P2 1.637577 1_555
O22 Rb2 3.420169 1_555
O23 P7 1.635898 1_555
O23 P3 1.637577 1_555
O23 Rb3 3.420169 1_555
O24 P6 1.537547 1_555
O24 Tm0 2.229753 1_545
O24 Rb2 3.072397 1_555
O24 Rb3 3.198094 1_546
O25 P7 1.537547 1_555
O25 Tm1 2.229753 1_565
O25 Rb3 3.072397 1_555
O25 Rb2 3.198094 1_564
O26 P4 1.537547 1_555
O26 Tm2 2.229753 1_465
O26 Rb0 3.072397 1_455
O26 Rb1 3.198094 1_565
O27 P5 1.537547 1_555
O27 Tm3 2.229753 1_645
O27 Rb1 3.072397 1_655
O27 Rb0 3.198094 1_545
