# generated using pymatgen
data_Cd2Ni(ClO2)6
_symmetry_space_group_name_H-M   'P 1'
_cell_length_a   14.54136718
_cell_length_b   11.47306247
_cell_length_c   10.49452033
_cell_angle_alpha   82.76799640
_cell_angle_beta   51.51010555
_cell_angle_gamma   45.72189805
_symmetry_Int_Tables_number   1
_chemical_formula_structural   Cd2Ni(ClO2)6
_chemical_formula_sum   'Cd4 Ni2 Cl12 O24'
_cell_volume   818.96755640
_cell_formula_units_Z   2
loop_
 _symmetry_equiv_pos_site_id
 _symmetry_equiv_pos_as_xyz
  1  'x, y, z'
loop_
 _atom_site_type_symbol
 _atom_site_label
 _atom_site_symmetry_multiplicity
 _atom_site_fract_x
 _atom_site_fract_y
 _atom_site_fract_z
 _atom_site_occupancy
  Cd  Cd0  1  0.01208100  0.48112900  0.00695900  1
  Cd  Cd1  1  0.49983000  0.00695900  0.48112900  1
  Cd  Cd2  1  0.76887100  0.23791900  0.75017000  1
  Cd  Cd3  1  0.24304100  0.75017000  0.23791900  1
  Ni  Ni0  1  0.99843300  0.50156700  0.50156700  1
  Ni  Ni1  1  0.74843300  0.25156700  0.25156700  1
  Cl  Cl0  1  0.85487600  0.78599400  0.20607400  1
  Cl  Cl1  1  0.15305600  0.20607400  0.78599400  1
  Cl  Cl2  1  0.46400600  0.39512400  0.09694400  1
  Cl  Cl3  1  0.04392600  0.09694400  0.39512400  1
  Cl  Cl4  1  0.40541300  0.20091900  0.76944300  1
  Cl  Cl5  1  0.62422400  0.76944300  0.20091900  1
  Cl  Cl6  1  0.04908100  0.84458700  0.62577600  1
  Cl  Cl7  1  0.48055700  0.62577600  0.84458700  1
  Cl  Cl8  1  0.88765000  0.44498200  0.30439000  1
  Cl  Cl9  1  0.36297800  0.30439000  0.44498200  1
  Cl  Cl10  1  0.80501800  0.36235000  0.88702200  1
  Cl  Cl11  1  0.94561000  0.88702200  0.36235000  1
  O  O0  1  0.09392700  0.57111600  0.78865000  1
  O  O1  1  0.54630600  0.78865000  0.57111600  1
  O  O2  1  0.67888400  0.15607300  0.70369400  1
  O  O3  1  0.46135000  0.70369400  0.15607300  1
  O  O4  1  0.86155100  0.48535400  0.55698900  1
  O  O5  1  0.09610600  0.55698900  0.48535400  1
  O  O6  1  0.76464600  0.38844900  0.15389400  1
  O  O7  1  0.69301100  0.15389400  0.38844900  1
  O  O8  1  0.14598300  0.37900500  0.24711800  1
  O  O9  1  0.22789300  0.24711800  0.37900500  1
  O  O10  1  0.87099500  0.10401700  0.02210700  1
  O  O11  1  0.00288200  0.02210700  0.10401700  1
  O  O12  1  0.76335500  0.75281200  0.62603700  1
  O  O13  1  0.85779600  0.62603700  0.75281200  1
  O  O14  1  0.49718800  0.48664600  0.39220400  1
  O  O15  1  0.62396300  0.39220400  0.48664500  1
  O  O16  1  0.87869500  0.79416200  0.80946700  1
  O  O17  1  0.51767700  0.80946700  0.79416200  1
  O  O18  1  0.45583800  0.37130500  0.73232300  1
  O  O19  1  0.44053300  0.73232300  0.37130500  1
  O  O20  1  0.55428900  0.09021600  0.85973500  1
  O  O21  1  0.49576000  0.85973500  0.09021600  1
  O  O22  1  0.15978400  0.69571100  0.75424000  1
  O  O23  1  0.39026500  0.75424000  0.69571100  1
loop_
_geom_bond_atom_site_label_1
_geom_bond_atom_site_label_2
_geom_bond_distance
_geom_bond_site_symmetry_2
Cd0 O0 2.336097 1_554
Cd0 Cl1 2.535915 1_554
Cd0 Cl0 2.560521 1_455
Cd0 Cl8 2.623105 1_455
Cd0 Cl4 2.803423 1_554
Cd0 Cl5 2.872338 1_455
Cd1 O1 2.336097 1_545
Cd1 Cl0 2.535924 1_545
Cd1 Cl1 2.560513 1_555
Cd1 Cl9 2.623106 1_555
Cd1 Cl5 2.803423 1_545
Cd1 Cl4 2.872338 1_555
Cd2 O2 2.336097 1_555
Cd2 Cl3 2.535921 1_655
Cd2 Cl2 2.560516 1_556
Cd2 Cl10 2.623097 1_555
Cd2 Cl6 2.803423 1_645
Cd2 Cl7 2.872338 1_555
Cd3 O3 2.336097 1_555
Cd3 Cl2 2.535924 1_555
Cd3 Cl3 2.560511 1_565
Cd3 Cl11 2.623110 1_455
Cd3 Cl7 2.803423 1_554
Cd3 Cl6 2.872338 1_555
Ni0 O9 1.820024 1_655
Ni0 O8 1.820028 1_655
Ni0 O12 1.825391 1_555
Ni0 O13 1.825391 1_555
Ni0 O4 1.839421 1_555
Ni0 O5 1.839421 1_655
Ni1 O10 1.820019 1_555
Ni1 O11 1.820026 1_655
Ni1 O15 1.825391 1_555
Ni1 O14 1.825393 1_555
Ni1 O6 1.839421 1_555
Ni1 O7 1.839421 1_555
Cl4 O20 2.368308 1_555
Cl4 O18 2.442330 1_555
Cl5 O21 2.368296 1_555
Cl5 O19 2.442330 1_555
Cl6 O22 2.368298 1_555
Cl6 O16 2.442330 1_455
Cl7 O23 2.368306 1_555
Cl7 O17 2.442330 1_555
