# generated using pymatgen
data_Li2CeO3
_symmetry_space_group_name_H-M   'P 1'
_cell_length_a   5.56470150
_cell_length_b   5.56470150
_cell_length_c   5.94952517
_cell_angle_alpha   77.97473256
_cell_angle_beta   77.97473256
_cell_angle_gamma   117.99327671
_symmetry_Int_Tables_number   1
_chemical_formula_structural   Li2CeO3
_chemical_formula_sum   'Li4 Ce2 O6'
_cell_volume   148.77638092
_cell_formula_units_Z   2
loop_
 _symmetry_equiv_pos_site_id
 _symmetry_equiv_pos_as_xyz
  1  'x, y, z'
loop_
 _atom_site_type_symbol
 _atom_site_label
 _atom_site_symmetry_multiplicity
 _atom_site_fract_x
 _atom_site_fract_y
 _atom_site_fract_z
 _atom_site_occupancy
  Li  Li0  1  0.73322400  0.26677600  0.75000000  1
  Li  Li1  1  0.42885500  0.57114500  0.75000000  1
  Li  Li2  1  0.26677600  0.73322400  0.25000000  1
  Li  Li3  1  0.57114500  0.42885500  0.25000000  1
  Ce  Ce0  1  0.09002200  0.90997800  0.75000000  1
  Ce  Ce1  1  0.90997800  0.09002200  0.25000000  1
  O  O0  1  0.83960500  0.68686500  0.52347800  1
  O  O1  1  0.68686500  0.83960500  0.02347800  1
  O  O2  1  0.00000000  0.50000000  0.00000000  1
  O  O3  1  0.31313500  0.16039500  0.97652200  1
  O  O4  1  0.50000000  0.00000000  0.50000000  1
  O  O5  1  0.16039500  0.31313500  0.47652200  1
loop_
_geom_bond_atom_site_label_1
_geom_bond_atom_site_label_2
_geom_bond_distance
_geom_bond_site_symmetry_2
Li0 O3 2.164986 1_555
Li0 O0 2.164986 1_555
Li0 O5 2.449946 1_655
Li0 O1 2.449946 1_546
Li0 O4 2.452809 1_555
Li0 O2 2.452809 1_656
Li1 O0 2.104399 1_555
Li1 O3 2.104399 1_555
Li1 O2 2.335134 1_556
Li1 O4 2.335134 1_565
Li1 O1 2.629299 1_556
Li1 O5 2.629299 1_555
Li2 O5 2.164986 1_555
Li2 O1 2.164986 1_555
Li2 O3 2.449946 1_564
Li2 O0 2.449946 1_455
Li2 O2 2.452809 1_555
Li2 O4 2.452809 1_565
Li3 O1 2.104399 1_555
Li3 O5 2.104399 1_555
Li3 O4 2.335134 1_555
Li3 O2 2.335134 1_655
Li3 O0 2.629299 1_555
Li3 O3 2.629299 1_554
Ce0 O2 2.206988 1_556
Ce0 O4 2.206988 1_565
Ce0 O3 2.270514 1_565
Ce0 O0 2.270514 1_455
Ce0 O1 2.285286 1_456
Ce0 O5 2.285286 1_565
Ce1 O4 2.206988 1_555
Ce1 O2 2.206988 1_655
Ce1 O5 2.270514 1_655
Ce1 O1 2.270514 1_545
Ce1 O0 2.285286 1_545
Ce1 O3 2.285286 1_654
