# generated using pymatgen
data_Sm2Cr2C3
_symmetry_space_group_name_H-M   'P 1'
_cell_length_a   5.44840786
_cell_length_b   5.44840786
_cell_length_c   5.68438645
_cell_angle_alpha   75.72733386
_cell_angle_beta   75.72733386
_cell_angle_gamma   37.16366675
_symmetry_Int_Tables_number   1
_chemical_formula_structural   Sm2Cr2C3
_chemical_formula_sum   'Sm2 Cr2 C3'
_cell_volume   98.42758026
_cell_formula_units_Z   1
loop_
 _symmetry_equiv_pos_site_id
 _symmetry_equiv_pos_as_xyz
  1  'x, y, z'
loop_
 _atom_site_type_symbol
 _atom_site_label
 _atom_site_symmetry_multiplicity
 _atom_site_fract_x
 _atom_site_fract_y
 _atom_site_fract_z
 _atom_site_occupancy
  Sm  Sm0  1  0.39903311  0.39903311  0.81840184  1
  Sm  Sm1  1  0.60096689  0.60096689  0.18159816  1
  Cr  Cr0  1  0.15906174  0.15906174  0.60221000  1
  Cr  Cr1  1  0.84093826  0.84093826  0.39779000  1
  C  C0  1  0.29459185  0.29459185  0.28472434  1
  C  C1  1  0.70540815  0.70540815  0.71527566  1
  C  C2  1  -0.00000000  -0.00000000  0.50000000  1
loop_
_geom_bond_atom_site_label_1
_geom_bond_atom_site_label_2
_geom_bond_distance
_geom_bond_site_symmetry_2
C0 Cr1 1.953613 1_455
C0 Cr1 1.953613 1_545
C0 Cr0 1.975451 1_555
C0 Sm0 2.588962 1_554
C0 Sm1 2.822667 1_455
C0 Sm1 2.822667 1_545
C0 Sm1 3.064728 1_555
C1 Cr0 1.953613 1_655
C1 Cr0 1.953613 1_565
C1 Cr1 1.975451 1_555
C1 Sm1 2.588962 1_556
C1 Sm0 2.822667 1_565
C1 Sm0 2.822667 1_655
C1 Sm0 3.064728 1_555
C2 Cr1 1.879696 1_445
C2 Cr0 1.879696 1_555
C2 Sm1 2.529000 1_545
C2 Sm1 2.529000 1_455
C2 Sm0 2.529000 1_455
C2 Sm0 2.529000 1_545
