# generated using pymatgen
data_La2Ge3
_symmetry_space_group_name_H-M   'P 1'
_cell_length_a   4.17089300
_cell_length_b   4.31354300
_cell_length_c   7.93153749
_cell_angle_alpha   74.22123733
_cell_angle_beta   74.75595197
_cell_angle_gamma   90.00000000
_symmetry_Int_Tables_number   1
_chemical_formula_structural   La2Ge3
_chemical_formula_sum   'La2 Ge3'
_cell_volume   132.09668962
_cell_formula_units_Z   1
loop_
 _symmetry_equiv_pos_site_id
 _symmetry_equiv_pos_as_xyz
  1  'x, y, z'
loop_
 _atom_site_type_symbol
 _atom_site_label
 _atom_site_symmetry_multiplicity
 _atom_site_fract_x
 _atom_site_fract_y
 _atom_site_fract_z
 _atom_site_occupancy
  La  La0  1  0.75034900  0.25034900  0.49930200  1
  La  La1  1  0.00031300  0.00031300  0.99937300  1
  Ge  Ge0  1  0.40838600  0.40838600  0.18322800  1
  Ge  Ge1  1  0.17844200  0.67844200  0.64311600  1
  Ge  Ge2  1  0.57750900  0.57750900  0.84498200  1
loop_
_geom_bond_atom_site_label_1
_geom_bond_atom_site_label_2
_geom_bond_distance
_geom_bond_site_symmetry_2
Ge0 Ge2 2.483484 1_554
Ge0 La0 3.120048 1_455
Ge0 La0 3.120048 1_555
Ge0 La1 3.289830 1_664
Ge0 La1 3.289833 1_564
Ge0 La1 3.289833 1_654
Ge0 La1 3.289836 1_554
Ge1 Ge2 2.558486 1_455
Ge1 Ge2 2.558487 1_555
Ge1 La0 3.180521 1_565
Ge1 La0 3.180521 1_465
Ge1 La0 3.180521 1_555
Ge1 La0 3.180521 1_455
Ge1 La1 3.390232 1_565
Ge1 La1 3.390235 1_555
Ge2 La1 3.207137 1_665
Ge2 La1 3.207140 1_565
Ge2 La1 3.207140 1_655
Ge2 La1 3.207142 1_555
Ge2 La0 3.330682 1_565
Ge2 La0 3.330682 1_555
