# generated using pymatgen
data_Li4Co3O7
_symmetry_space_group_name_H-M   'P 1'
_cell_length_a   7.84059285
_cell_length_b   7.84059285
_cell_length_c   12.63316940
_cell_angle_alpha   62.12238932
_cell_angle_beta   62.12238932
_cell_angle_gamma   21.43726981
_symmetry_Int_Tables_number   1
_chemical_formula_structural   Li4Co3O7
_chemical_formula_sum   'Li8 Co6 O14'
_cell_volume   249.64070264
_cell_formula_units_Z   2
loop_
 _symmetry_equiv_pos_site_id
 _symmetry_equiv_pos_as_xyz
  1  'x, y, z'
loop_
 _atom_site_type_symbol
 _atom_site_label
 _atom_site_symmetry_multiplicity
 _atom_site_fract_x
 _atom_site_fract_y
 _atom_site_fract_z
 _atom_site_occupancy
  Li  Li0  1  0.07076900  0.07076900  0.64563300  1
  Li  Li1  1  0.36013400  0.36013400  0.21086900  1
  Li  Li2  1  0.63986600  0.63986600  0.78913100  1
  Li  Li3  1  0.50000000  0.50000000  0.50000000  1
  Li  Li4  1  0.78687700  0.78687700  0.06767400  1
  Li  Li5  1  0.92923100  0.92923100  0.35436700  1
  Li  Li6  1  0.21312300  0.21312300  0.93232600  1
  Li  Li7  1  0.00000000  0.00000000  0.00000000  1
  Co  Co0  1  0.43040900  0.43040900  0.86523100  1
  Co  Co1  1  0.56959100  0.56959100  0.13476900  1
  Co  Co2  1  0.71430400  0.71430400  0.42749100  1
  Co  Co3  1  0.28569600  0.28569600  0.57250900  1
  Co  Co4  1  0.85423700  0.85423700  0.71897400  1
  Co  Co5  1  0.14576300  0.14576300  0.28102600  1
  O  O0  1  0.02766300  0.02766300  0.82467200  1
  O  O1  1  0.31465300  0.31465300  0.39734700  1
  O  O2  1  0.60383300  0.60383300  0.98361100  1
  O  O3  1  0.45547800  0.45547800  0.69770700  1
  O  O4  1  0.74613000  0.74613000  0.25080900  1
  O  O5  1  0.88838800  0.88838800  0.54147600  1
  O  O6  1  0.16965300  0.16965300  0.11178500  1
  O  O7  1  0.11161200  0.11161200  0.45852400  1
  O  O8  1  0.39616700  0.39616700  0.01638900  1
  O  O9  1  0.68534700  0.68534700  0.60265300  1
  O  O10  1  0.54452200  0.54452200  0.30229300  1
  O  O11  1  0.83034700  0.83034700  0.88821500  1
  O  O12  1  0.97233700  0.97233700  0.17532800  1
  O  O13  1  0.25387000  0.25387000  0.74919100  1
loop_
_geom_bond_atom_site_label_1
_geom_bond_atom_site_label_2
_geom_bond_distance
_geom_bond_site_symmetry_2
Li0 O0 2.031554 1_555
Li0 O7 2.137215 1_555
Li0 O3 2.145333 1_545
Li0 O3 2.145333 1_455
Li0 O9 2.150697 1_545
Li0 O9 2.150697 1_455
Li1 O1 2.114157 1_555
Li1 O12 2.139616 1_545
Li1 O12 2.139616 1_455
Li1 O4 2.150092 1_455
Li1 O4 2.150092 1_545
Li1 O8 2.246405 1_555
Li2 O9 2.114157 1_555
Li2 O0 2.139616 1_565
Li2 O0 2.139616 1_655
Li2 O13 2.150092 1_565
Li2 O13 2.150092 1_655
Li2 O2 2.246405 1_555
Li3 O7 2.121480 1_565
Li3 O5 2.121480 1_545
Li3 O7 2.121480 1_655
Li3 O5 2.121480 1_455
Li3 O3 2.253483 1_555
Li3 O10 2.253483 1_555
Li4 O11 2.035502 1_554
Li4 O8 2.084075 1_655
Li4 O8 2.084075 1_565
Li4 O4 2.089099 1_555
Li4 O6 2.177428 1_565
Li4 O6 2.177428 1_655
Li5 O12 2.031554 1_555
Li5 O5 2.137215 1_555
Li5 O10 2.145333 1_565
Li5 O10 2.145333 1_655
Li5 O1 2.150697 1_655
Li5 O1 2.150697 1_565
Li6 O6 2.035502 1_556
Li6 O2 2.084075 1_545
Li6 O2 2.084075 1_455
Li6 O13 2.089099 1_555
Li6 O11 2.177428 1_545
Li6 O11 2.177428 1_455
Li7 O12 2.046737 1_445
Li7 O0 2.046737 1_554
Li7 O2 2.100830 1_454
Li7 O2 2.100830 1_544
Li7 O8 2.100830 1_455
Li7 O8 2.100830 1_545
Co0 O8 1.722220 1_556
Co0 O3 1.962177 1_555
Co0 O0 1.975753 1_565
Co0 O0 1.975753 1_655
Co0 O11 2.039999 1_455
Co0 O11 2.039999 1_545
Co1 O2 1.722220 1_554
Co1 O10 1.962177 1_555
Co1 O12 1.975753 1_455
Co1 O12 1.975753 1_545
Co1 O6 2.039999 1_655
Co1 O6 2.039999 1_565
Co2 O1 2.025248 1_655
Co2 O1 2.025248 1_565
Co2 O9 2.038651 1_555
Co2 O4 2.044697 1_555
Co2 O7 2.047742 1_565
Co2 O7 2.047742 1_655
Co3 O9 2.025248 1_545
Co3 O9 2.025248 1_455
Co3 O1 2.038651 1_555
Co3 O13 2.044697 1_555
Co3 O5 2.047742 1_545
Co3 O5 2.047742 1_455
Co4 O11 1.989400 1_555
Co4 O13 2.025273 1_565
Co4 O13 2.025273 1_655
Co4 O5 2.045009 1_555
Co4 O3 2.057424 1_655
Co4 O3 2.057424 1_565
Co5 O6 1.989400 1_555
Co5 O4 2.025273 1_545
Co5 O4 2.025273 1_455
Co5 O7 2.045009 1_555
Co5 O10 2.057424 1_455
Co5 O10 2.057424 1_545
