# generated using pymatgen
data_Ca3Si3(BiO6)2
_symmetry_space_group_name_H-M   'P 1'
_cell_length_a   11.11996191
_cell_length_b   11.11996191
_cell_length_c   11.11996191
_cell_angle_alpha   109.47122063
_cell_angle_beta   109.47122063
_cell_angle_gamma   109.47122063
_symmetry_Int_Tables_number   1
_chemical_formula_structural   Ca3Si3(BiO6)2
_chemical_formula_sum   'Ca12 Si12 Bi8 O48'
_cell_volume   1058.49304242
_cell_formula_units_Z   4
loop_
 _symmetry_equiv_pos_site_id
 _symmetry_equiv_pos_as_xyz
  1  'x, y, z'
loop_
 _atom_site_type_symbol
 _atom_site_label
 _atom_site_symmetry_multiplicity
 _atom_site_fract_x
 _atom_site_fract_y
 _atom_site_fract_z
 _atom_site_occupancy
  Ca  Ca0  1  0.25000000  0.37500000  0.12500000  1
  Ca  Ca1  1  0.75000000  0.12500000  0.37500000  1
  Ca  Ca2  1  0.37500000  0.12500000  0.25000000  1
  Ca  Ca3  1  0.12500000  0.37500000  0.75000000  1
  Ca  Ca4  1  0.25000000  0.87500000  0.62500000  1
  Ca  Ca5  1  0.12500000  0.25000000  0.37500000  1
  Ca  Ca6  1  0.62500000  0.25000000  0.87500000  1
  Ca  Ca7  1  0.75000000  0.62500000  0.87500000  1
  Ca  Ca8  1  0.87500000  0.75000000  0.62500000  1
  Ca  Ca9  1  0.87500000  0.62500000  0.25000000  1
  Ca  Ca10  1  0.62500000  0.87500000  0.75000000  1
  Ca  Ca11  1  0.37500000  0.75000000  0.12500000  1
  Si  Si0  1  0.12500000  0.75000000  0.87500000  1
  Si  Si1  1  0.87500000  0.25000000  0.12500000  1
  Si  Si2  1  0.75000000  0.37500000  0.62500000  1
  Si  Si3  1  0.12500000  0.87500000  0.25000000  1
  Si  Si4  1  0.25000000  0.12500000  0.87500000  1
  Si  Si5  1  0.37500000  0.62500000  0.75000000  1
  Si  Si6  1  0.37500000  0.25000000  0.62500000  1
  Si  Si7  1  0.87500000  0.12500000  0.75000000  1
  Si  Si8  1  0.62500000  0.37500000  0.25000000  1
  Si  Si9  1  0.75000000  0.87500000  0.12500000  1
  Si  Si10  1  0.25000000  0.62500000  0.37500000  1
  Si  Si11  1  0.62500000  0.75000000  0.37500000  1
  Bi  Bi0  1  0.50000000  0.00000000  0.00000000  1
  Bi  Bi1  1  0.50000000  0.50000000  0.00000000  1
  Bi  Bi2  1  0.00000000  0.50000000  0.50000000  1
  Bi  Bi3  1  0.00000000  0.00000000  0.50000000  1
  Bi  Bi4  1  0.50000000  0.50000000  0.50000000  1
  Bi  Bi5  1  0.00000000  0.50000000  0.00000000  1
  Bi  Bi6  1  0.50000000  0.00000000  0.50000000  1
  Bi  Bi7  1  0.00000000  0.00000000  0.00000000  1
  O  O0  1  0.60014800  0.88947700  0.37338800  1
  O  O1  1  0.37338800  0.60014800  0.88947700  1
  O  O2  1  0.27324000  0.28932900  0.89985200  1
  O  O3  1  0.48391100  0.61052300  0.21067100  1
  O  O4  1  0.28932900  0.88947700  0.01608900  1
  O  O5  1  0.12661200  0.01608900  0.22676000  1
  O  O6  1  0.37338800  0.27324000  0.48391100  1
  O  O7  1  0.88947700  0.37338800  0.60014800  1
  O  O8  1  0.21067100  0.22676000  0.60014800  1
  O  O9  1  0.48391100  0.37338800  0.27324000  1
  O  O10  1  0.88947700  0.01608900  0.28932900  1
  O  O11  1  0.61052300  0.89985200  0.12661200  1
  O  O12  1  0.89985200  0.12661200  0.61052300  1
  O  O13  1  0.27324000  0.48391100  0.37338800  1
  O  O14  1  0.60014800  0.21067100  0.22676000  1
  O  O15  1  0.22676000  0.60014800  0.21067100  1
  O  O16  1  0.01608900  0.28932900  0.88947700  1
  O  O17  1  0.89985200  0.27324000  0.28932900  1
  O  O18  1  0.01608900  0.22676000  0.12661200  1
  O  O19  1  0.78932900  0.77324000  0.39985200  1
  O  O20  1  0.21067100  0.48391100  0.61052300  1
  O  O21  1  0.61052300  0.21067100  0.48391100  1
  O  O22  1  0.22676000  0.12661200  0.01608900  1
  O  O23  1  0.12661200  0.61052300  0.89985200  1
  O  O24  1  0.39985200  0.11052300  0.62661200  1
  O  O25  1  0.62661200  0.39985200  0.11052300  1
  O  O26  1  0.72676000  0.71067100  0.10014800  1
  O  O27  1  0.51608900  0.38947700  0.78932900  1
  O  O28  1  0.71067100  0.11052300  0.98391100  1
  O  O29  1  0.87338800  0.98391100  0.77324000  1
  O  O30  1  0.62661200  0.72676000  0.51608900  1
  O  O31  1  0.11052300  0.62661200  0.39985200  1
  O  O32  1  0.87338800  0.38947700  0.10014800  1
  O  O33  1  0.77324000  0.87338800  0.98391100  1
  O  O34  1  0.38947700  0.78932900  0.51608900  1
  O  O35  1  0.71067100  0.10014800  0.72676000  1
  O  O36  1  0.78932900  0.51608900  0.38947700  1
  O  O37  1  0.98391100  0.77324000  0.87338800  1
  O  O38  1  0.10014800  0.72676000  0.71067100  1
  O  O39  1  0.98391100  0.71067100  0.11052300  1
  O  O40  1  0.77324000  0.39985200  0.78932900  1
  O  O41  1  0.39985200  0.78932900  0.77324000  1
  O  O42  1  0.72676000  0.51608900  0.62661200  1
  O  O43  1  0.10014800  0.87338800  0.38947700  1
  O  O44  1  0.38947700  0.10014800  0.87338800  1
  O  O45  1  0.11052300  0.98391100  0.71067100  1
  O  O46  1  0.51608900  0.62661200  0.72676000  1
  O  O47  1  0.28932900  0.89985200  0.27324000  1
loop_
_geom_bond_atom_site_label_1
_geom_bond_atom_site_label_2
_geom_bond_distance
_geom_bond_site_symmetry_2
Ca0 O22 2.499587 1_555
Ca0 O13 2.499587 1_555
Ca0 O2 2.499587 1_554
Ca0 O15 2.499587 1_555
Ca0 O18 2.583713 1_555
Ca0 O9 2.583713 1_555
Ca0 O3 2.583713 1_555
Ca0 O16 2.583713 1_554
Ca1 O10 2.499587 1_555
Ca1 O21 2.499587 1_555
Ca1 O11 2.499587 1_545
Ca1 O7 2.499587 1_555
Ca1 O17 2.583713 1_555
Ca1 O14 2.583713 1_555
Ca1 O0 2.583713 1_545
Ca1 O12 2.583713 1_555
Ca2 O5 2.499587 1_555
Ca2 O47 2.499587 1_545
Ca2 O14 2.499587 1_555
Ca2 O9 2.499587 1_555
Ca2 O21 2.583713 1_555
Ca2 O6 2.583713 1_555
Ca2 O22 2.583713 1_555
Ca2 O4 2.583713 1_545
Ca3 O20 2.499587 1_555
Ca3 O16 2.499587 1_555
Ca3 O12 2.499587 1_455
Ca3 O1 2.499587 1_555
Ca3 O2 2.583713 1_555
Ca3 O8 2.583713 1_555
Ca3 O23 2.583713 1_555
Ca3 O7 2.583713 1_455
Ca4 O44 2.499587 1_565
Ca4 O34 2.499587 1_555
Ca4 O31 2.499587 1_555
Ca4 O45 2.499587 1_555
Ca4 O43 2.583713 1_555
Ca4 O24 2.583713 1_565
Ca4 O38 2.583713 1_555
Ca4 O41 2.583713 1_555
Ca5 O18 2.499587 1_555
Ca5 O6 2.499587 1_555
Ca5 O8 2.499587 1_555
Ca5 O17 2.499587 1_455
Ca5 O5 2.583713 1_555
Ca5 O20 2.583713 1_555
Ca5 O13 2.583713 1_555
Ca5 O10 2.583713 1_455
Ca6 O32 2.499587 1_556
Ca6 O27 2.499587 1_555
Ca6 O24 2.499587 1_555
Ca6 O28 2.499587 1_555
Ca6 O25 2.583713 1_556
Ca6 O40 2.583713 1_555
Ca6 O44 2.583713 1_555
Ca6 O35 2.583713 1_555
Ca7 O26 2.499587 1_556
Ca7 O42 2.499587 1_555
Ca7 O33 2.499587 1_555
Ca7 O40 2.499587 1_555
Ca7 O37 2.583713 1_555
Ca7 O39 2.583713 1_556
Ca7 O27 2.583713 1_555
Ca7 O46 2.583713 1_555
Ca8 O38 2.499587 1_655
Ca8 O30 2.499587 1_555
Ca8 O37 2.499587 1_555
Ca8 O19 2.499587 1_555
Ca8 O29 2.583713 1_555
Ca8 O45 2.583713 1_655
Ca8 O42 2.583713 1_555
Ca8 O36 2.583713 1_555
Ca9 O43 2.499587 1_655
Ca9 O39 2.499587 1_555
Ca9 O36 2.499587 1_555
Ca9 O25 2.499587 1_555
Ca9 O31 2.583713 1_655
Ca9 O32 2.583713 1_555
Ca9 O26 2.583713 1_555
Ca9 O19 2.583713 1_555
Ca10 O35 2.499587 1_565
Ca10 O29 2.499587 1_555
Ca10 O46 2.499587 1_555
Ca10 O41 2.499587 1_555
Ca10 O28 2.583713 1_565
Ca10 O30 2.583713 1_555
Ca10 O33 2.583713 1_555
Ca10 O34 2.583713 1_555
Ca11 O3 2.499587 1_555
Ca11 O4 2.499587 1_555
Ca11 O0 2.499587 1_555
Ca11 O23 2.499587 1_554
Ca11 O47 2.583713 1_555
Ca11 O15 2.583713 1_555
Ca11 O1 2.583713 1_554
Ca11 O11 2.583713 1_555
Bi0 O44 2.353099 1_554
Bi0 O14 2.353099 1_555
Bi0 O4 2.353099 1_545
Bi0 O28 2.353099 1_554
Bi0 O11 2.353099 1_545
Bi0 O41 2.353099 1_544
Bi1 O25 2.353099 1_555
Bi1 O27 2.353099 1_554
Bi1 O2 2.353099 1_554
Bi1 O3 2.353099 1_555
Bi1 O26 2.353099 1_555
Bi1 O1 2.353099 1_554
Bi2 O31 2.353099 1_555
Bi2 O38 2.353099 1_555
Bi2 O17 2.353099 1_455
Bi2 O20 2.353099 1_555
Bi2 O7 2.353099 1_455
Bi2 O36 2.353099 1_455
Bi3 O10 2.353099 1_455
Bi3 O43 2.353099 1_545
Bi3 O12 2.353099 1_455
Bi3 O19 2.353099 1_445
Bi3 O8 2.353099 1_555
Bi3 O45 2.353099 1_545
Bi4 O42 2.353099 1_555
Bi4 O30 2.353099 1_555
Bi4 O46 2.353099 1_555
Bi4 O13 2.353099 1_555
Bi4 O9 2.353099 1_555
Bi4 O6 2.353099 1_555
Bi5 O15 2.353099 1_555
Bi5 O16 2.353099 1_554
Bi5 O32 2.353099 1_455
Bi5 O40 2.353099 1_454
Bi5 O23 2.353099 1_554
Bi5 O39 2.353099 1_455
Bi6 O24 2.353099 1_555
Bi6 O0 2.353099 1_545
Bi6 O21 2.353099 1_555
Bi6 O47 2.353099 1_545
Bi6 O34 2.353099 1_545
Bi6 O35 2.353099 1_555
Bi7 O29 2.353099 1_444
Bi7 O37 2.353099 1_444
Bi7 O18 2.353099 1_555
Bi7 O33 2.353099 1_444
Bi7 O22 2.353099 1_555
Bi7 O5 2.353099 1_555
O0 Si11 1.668294 1_555
O1 Si5 1.668294 1_555
O2 Si4 1.668294 1_555
O3 Si11 1.668294 1_555
O4 Si0 1.668294 1_554
O5 Si3 1.668294 1_545
O6 Si6 1.668294 1_555
O7 Si2 1.668294 1_555
O8 Si6 1.668294 1_555
O9 Si8 1.668294 1_555
O10 Si9 1.668294 1_545
O11 Si9 1.668294 1_555
O12 Si7 1.668294 1_555
O13 Si10 1.668294 1_555
O14 Si8 1.668294 1_555
O15 Si10 1.668294 1_555
O16 Si7 1.668294 1_455
O17 Si1 1.668294 1_555
O18 Si1 1.668294 1_455
O19 Si11 1.668294 1_555
O20 Si5 1.668294 1_555
O21 Si2 1.668294 1_555
O22 Si4 1.668294 1_554
O23 Si0 1.668294 1_555
O24 Si6 1.668294 1_555
O25 Si8 1.668294 1_555
O26 Si9 1.668294 1_555
O27 Si6 1.668294 1_555
O28 Si1 1.668294 1_556
O29 Si7 1.668294 1_565
O30 Si11 1.668294 1_555
O31 Si10 1.668294 1_555
O32 Si1 1.668294 1_555
O33 Si9 1.668294 1_556
O34 Si10 1.668294 1_555
O35 Si7 1.668294 1_555
O36 Si8 1.668294 1_555
O37 Si0 1.668294 1_655
O38 Si0 1.668294 1_555
O39 Si3 1.668294 1_655
O40 Si2 1.668294 1_555
O41 Si5 1.668294 1_555
O42 Si2 1.668294 1_555
O43 Si3 1.668294 1_555
O44 Si4 1.668294 1_555
O45 Si4 1.668294 1_565
O46 Si5 1.668294 1_555
O47 Si3 1.668294 1_555
