# generated using pymatgen
data_Na5Sn13
_symmetry_space_group_name_H-M   'P 1'
_cell_length_a   9.16697384
_cell_length_b   10.87143033
_cell_length_c   50.91693262
_cell_angle_alpha   90.00000000
_cell_angle_beta   90.00000000
_cell_angle_gamma   114.93617755
_symmetry_Int_Tables_number   1
_chemical_formula_structural   Na5Sn13
_chemical_formula_sum   'Na40 Sn104'
_cell_volume   4601.25051355
_cell_formula_units_Z   8
loop_
 _symmetry_equiv_pos_site_id
 _symmetry_equiv_pos_as_xyz
  1  'x, y, z'
loop_
 _atom_site_type_symbol
 _atom_site_label
 _atom_site_symmetry_multiplicity
 _atom_site_fract_x
 _atom_site_fract_y
 _atom_site_fract_z
 _atom_site_occupancy
  Na  Na0  1  0.41609216  0.83218432  0.25000000  1
  Na  Na1  1  0.58390784  0.16781568  0.75000000  1
  Na  Na2  1  0.94295893  0.88591786  0.25000000  1
  Na  Na3  1  0.05704107  0.11408214  0.75000000  1
  Na  Na4  1  0.93057093  0.86114186  0.02063610  1
  Na  Na5  1  0.06942907  0.13885814  0.97936390  1
  Na  Na6  1  0.93057093  0.86114186  0.47936390  1
  Na  Na7  1  0.06942907  0.13885814  0.52063610  1
  Na  Na8  1  0.57803351  0.15606701  0.07472950  1
  Na  Na9  1  0.42196649  0.84393299  0.92527050  1
  Na  Na10  1  0.57803351  0.15606701  0.42527050  1
  Na  Na11  1  0.42196649  0.84393299  0.57472950  1
  Na  Na12  1  0.19801244  0.39602487  0.14266826  1
  Na  Na13  1  0.80198756  0.60397513  0.85733174  1
  Na  Na14  1  0.19801244  0.39602487  0.35733174  1
  Na  Na15  1  0.80198756  0.60397513  0.64266826  1
  Na  Na16  1  0.35737697  0.71475394  0.75000000  1
  Na  Na17  1  0.64262303  0.28524606  0.25000000  1
  Na  Na18  1  0.09538538  0.19077076  0.41401292  1
  Na  Na19  1  0.90461462  0.80922924  0.58598708  1
  Na  Na20  1  0.09538538  0.19077076  0.08598708  1
  Na  Na21  1  0.90461462  0.80922924  0.91401292  1
  Na  Na22  1  0.89956650  0.31542237  0.87527398  1
  Na  Na23  1  0.58414413  0.68457763  0.12472602  1
  Na  Na24  1  0.89956650  0.31542237  0.62472602  1
  Na  Na25  1  0.58414413  0.68457763  0.37527398  1
  Na  Na26  1  0.10043350  0.68457763  0.12472602  1
  Na  Na27  1  0.41585587  0.31542237  0.87527398  1
  Na  Na28  1  0.10043350  0.68457763  0.37527398  1
  Na  Na29  1  0.41585587  0.31542237  0.62472602  1
  Na  Na30  1  0.93132290  0.43320738  0.31283314  1
  Na  Na31  1  0.49811552  0.56679262  0.68716686  1
  Na  Na32  1  0.93132290  0.43320738  0.18716686  1
  Na  Na33  1  0.49811552  0.56679262  0.81283314  1
  Na  Na34  1  0.06867710  0.56679262  0.68716686  1
  Na  Na35  1  0.50188448  0.43320738  0.31283314  1
  Na  Na36  1  0.06867710  0.56679262  0.81283314  1
  Na  Na37  1  0.50188448  0.43320738  0.18716686  1
  Na  Na38  1  0.19785535  0.39571071  0.25000000  1
  Na  Na39  1  0.80214465  0.60428929  0.75000000  1
  Sn  Sn0  1  0.40040235  0.80080471  0.05072625  1
  Sn  Sn1  1  0.59959765  0.19919529  0.94927375  1
  Sn  Sn2  1  0.40040235  0.80080471  0.44927375  1
  Sn  Sn3  1  0.59959765  0.19919529  0.55072625  1
  Sn  Sn4  1  0.00119015  0.00238031  0.15246474  1
  Sn  Sn5  1  0.99880985  0.99761969  0.84753526  1
  Sn  Sn6  1  0.00119015  0.00238031  0.34753526  1
  Sn  Sn7  1  0.99880985  0.99761969  0.65246474  1
  Sn  Sn8  1  0.87166712  0.74333423  0.08045036  1
  Sn  Sn9  1  0.12833288  0.25666577  0.91954964  1
  Sn  Sn10  1  0.87166712  0.74333423  0.41954964  1
  Sn  Sn11  1  0.12833288  0.25666577  0.58045036  1
  Sn  Sn12  1  0.58359459  0.16718918  0.19089688  1
  Sn  Sn13  1  0.41640541  0.83281082  0.80910312  1
  Sn  Sn14  1  0.58359459  0.16718918  0.30910312  1
  Sn  Sn15  1  0.41640541  0.83281082  0.69089688  1
  Sn  Sn16  1  0.86054828  0.72109656  0.16941090  1
  Sn  Sn17  1  0.13945172  0.27890344  0.83058910  1
  Sn  Sn18  1  0.86054828  0.72109656  0.33058910  1
  Sn  Sn19  1  0.13945172  0.27890344  0.66941090  1
  Sn  Sn20  1  0.27831382  0.55662764  0.08178578  1
  Sn  Sn21  1  0.72168618  0.44337236  0.91821422  1
  Sn  Sn22  1  0.27831382  0.55662764  0.41821422  1
  Sn  Sn23  1  0.72168618  0.44337236  0.58178578  1
  Sn  Sn24  1  0.76997773  0.53995546  0.03819704  1
  Sn  Sn25  1  0.23002227  0.46004454  0.96180296  1
  Sn  Sn26  1  0.76997773  0.53995546  0.46180296  1
  Sn  Sn27  1  0.23002227  0.46004454  0.53819704  1
  Sn  Sn28  1  0.34003936  0.68007873  0.17823651  1
  Sn  Sn29  1  0.65996064  0.31992127  0.82176349  1
  Sn  Sn30  1  0.34003936  0.68007873  0.32176349  1
  Sn  Sn31  1  0.65996064  0.31992127  0.67823651  1
  Sn  Sn32  1  0.20286052  0.93787485  0.06897808  1
  Sn  Sn33  1  0.26498567  0.06212515  0.93102192  1
  Sn  Sn34  1  0.20286052  0.93787485  0.43102192  1
  Sn  Sn35  1  0.26498567  0.06212515  0.56897808  1
  Sn  Sn36  1  0.79713948  0.06212515  0.93102192  1
  Sn  Sn37  1  0.73501433  0.93787485  0.06897808  1
  Sn  Sn38  1  0.79713948  0.06212515  0.56897808  1
  Sn  Sn39  1  0.73501433  0.93787485  0.43102192  1
  Sn  Sn40  1  0.47373043  0.94746086  0.15314886  1
  Sn  Sn41  1  0.52626957  0.05253914  0.84685114  1
  Sn  Sn42  1  0.47373043  0.94746086  0.34685114  1
  Sn  Sn43  1  0.52626957  0.05253914  0.65314886  1
  Sn  Sn44  1  0.28805132  0.17101443  0.03169106  1
  Sn  Sn45  1  0.11703689  0.82898557  0.96830894  1
  Sn  Sn46  1  0.28805132  0.17101443  0.46830894  1
  Sn  Sn47  1  0.11703689  0.82898557  0.53169106  1
  Sn  Sn48  1  0.71194868  0.82898557  0.96830894  1
  Sn  Sn49  1  0.88296311  0.17101443  0.03169106  1
  Sn  Sn50  1  0.71194868  0.82898557  0.53169106  1
  Sn  Sn51  1  0.88296311  0.17101443  0.46830894  1
  Sn  Sn52  1  0.09501859  0.19003718  0.19726456  1
  Sn  Sn53  1  0.90498141  0.80996282  0.80273544  1
  Sn  Sn54  1  0.09501859  0.19003718  0.30273544  1
  Sn  Sn55  1  0.90498141  0.80996282  0.69726456  1
  Sn  Sn56  1  0.51023032  0.34404330  0.12224266  1
  Sn  Sn57  1  0.16618702  0.65595670  0.87775734  1
  Sn  Sn58  1  0.51023032  0.34404330  0.37775734  1
  Sn  Sn59  1  0.16618702  0.65595670  0.62224266  1
  Sn  Sn60  1  0.48976968  0.65595670  0.87775734  1
  Sn  Sn61  1  0.83381298  0.34404330  0.12224266  1
  Sn  Sn62  1  0.48976968  0.65595670  0.62224266  1
  Sn  Sn63  1  0.83381298  0.34404330  0.37775734  1
  Sn  Sn64  1  0.29103267  0.05606192  0.12209317  1
  Sn  Sn65  1  0.23497075  0.94393808  0.87790683  1
  Sn  Sn66  1  0.29103267  0.05606192  0.37790683  1
  Sn  Sn67  1  0.23497075  0.94393808  0.62209317  1
  Sn  Sn68  1  0.70896733  0.94393808  0.87790683  1
  Sn  Sn69  1  0.76502925  0.05606192  0.12209317  1
  Sn  Sn70  1  0.70896733  0.94393808  0.62209317  1
  Sn  Sn71  1  0.76502925  0.05606192  0.37790683  1
  Sn  Sn72  1  0.77670280  0.05992517  0.22081703  1
  Sn  Sn73  1  0.71677763  0.94007483  0.77918297  1
  Sn  Sn74  1  0.77670280  0.05992517  0.27918297  1
  Sn  Sn75  1  0.71677763  0.94007483  0.72081703  1
  Sn  Sn76  1  0.22329720  0.94007483  0.77918297  1
  Sn  Sn77  1  0.28322237  0.05992517  0.22081703  1
  Sn  Sn78  1  0.22329720  0.94007483  0.72081703  1
  Sn  Sn79  1  0.28322237  0.05992517  0.27918297  1
  Sn  Sn80  1  0.42754461  0.85508923  0.99433420  1
  Sn  Sn81  1  0.57245539  0.14491077  0.00566580  1
  Sn  Sn82  1  0.42754461  0.85508923  0.50566580  1
  Sn  Sn83  1  0.57245539  0.14491077  0.49433420  1
  Sn  Sn84  1  0.94223420  0.40675182  0.06652326  1
  Sn  Sn85  1  0.53548239  0.59324818  0.93347674  1
  Sn  Sn86  1  0.94223420  0.40675182  0.43347674  1
  Sn  Sn87  1  0.53548239  0.59324818  0.56652326  1
  Sn  Sn88  1  0.05776580  0.59324818  0.93347674  1
  Sn  Sn89  1  0.46451761  0.40675182  0.06652326  1
  Sn  Sn90  1  0.05776580  0.59324818  0.56652326  1
  Sn  Sn91  1  0.46451761  0.40675182  0.43347674  1
  Sn  Sn92  1  0.11948129  0.76531438  0.20659465  1
  Sn  Sn93  1  0.35416691  0.23468562  0.79340535  1
  Sn  Sn94  1  0.11948129  0.76531438  0.29340535  1
  Sn  Sn95  1  0.35416691  0.23468562  0.70659465  1
  Sn  Sn96  1  0.88051871  0.23468562  0.79340535  1
  Sn  Sn97  1  0.64583309  0.76531438  0.20659465  1
  Sn  Sn98  1  0.88051871  0.23468562  0.70659465  1
  Sn  Sn99  1  0.64583309  0.76531438  0.29340535  1
  Sn  Sn100  1  0.95534856  0.57835318  0.25000000  1
  Sn  Sn101  1  0.37699538  0.42164682  0.75000000  1
  Sn  Sn102  1  0.04465144  0.42164682  0.75000000  1
  Sn  Sn103  1  0.62300462  0.57835318  0.25000000  1
loop_
_geom_bond_atom_site_label_1
_geom_bond_atom_site_label_2
_geom_bond_distance
_geom_bond_site_symmetry_2
Na0 Sn97 3.337548 1_555
Na0 Sn94 3.337548 1_555
Na0 Sn92 3.337548 1_555
Na0 Sn99 3.337548 1_555
Na0 Sn72 3.516283 1_565
Na0 Sn74 3.516283 1_565
Na0 Sn77 3.516283 1_565
Na0 Sn79 3.516283 1_565
Na1 Sn98 3.337548 1_555
Na1 Sn96 3.337548 1_555
Na1 Sn93 3.337548 1_555
Na1 Sn95 3.337548 1_555
Na1 Sn75 3.516283 1_545
Na1 Sn73 3.516283 1_545
Na1 Sn76 3.516283 1_545
Na1 Sn78 3.516283 1_545
Na2 Sn77 3.246587 1_665
Na2 Sn79 3.246587 1_665
Na2 Sn72 3.246587 1_565
Na2 Sn74 3.246587 1_565
Na2 Sn92 3.318277 1_655
Na2 Sn97 3.318277 1_555
Na2 Sn94 3.318277 1_655
Na2 Sn99 3.318277 1_555
Na2 Sn103 3.393116 1_555
Na2 Sn100 3.393116 1_555
Na3 Sn75 3.246587 1_445
Na3 Sn78 3.246587 1_545
Na3 Sn73 3.246587 1_445
Na3 Sn76 3.246587 1_545
Na3 Sn98 3.318277 1_455
Na3 Sn96 3.318277 1_455
Na3 Sn95 3.318277 1_555
Na3 Sn93 3.318277 1_555
Na3 Sn102 3.393116 1_555
Na3 Sn101 3.393116 1_555
Na4 Sn8 3.259471 1_555
Na4 Sn48 3.262910 1_554
Na4 Sn45 3.262910 1_654
Na4 Sn24 3.290080 1_555
Na4 Sn32 3.350987 1_655
Na4 Sn37 3.350987 1_555
Na4 Na5 3.451263 1_664
Na4 Sn49 3.618774 1_565
Na4 Sn44 3.618774 1_665
Na5 Sn9 3.259471 1_555
Na5 Sn49 3.262910 1_456
Na5 Sn44 3.262910 1_556
Na5 Sn25 3.290080 1_555
Na5 Sn33 3.350987 1_555
Na5 Sn36 3.350987 1_455
Na5 Sn48 3.618774 1_445
Na5 Sn45 3.618774 1_545
Na6 Sn10 3.259471 1_555
Na6 Sn47 3.262910 1_655
Na6 Sn50 3.262910 1_555
Na6 Sn26 3.290080 1_555
Na6 Sn34 3.350987 1_655
Na6 Sn39 3.350987 1_555
Na6 Na7 3.451263 1_665
Na6 Sn51 3.618774 1_565
Na6 Sn46 3.618774 1_665
Na7 Sn11 3.259471 1_555
Na7 Sn51 3.262910 1_455
Na7 Sn46 3.262910 1_555
Na7 Sn27 3.290080 1_555
Na7 Sn35 3.350987 1_555
Na7 Sn38 3.350987 1_455
Na7 Sn47 3.618774 1_545
Na7 Sn50 3.618774 1_445
Na8 Sn37 3.265207 1_545
Na8 Sn32 3.265207 1_545
Na8 Sn84 3.328065 1_555
Na8 Sn89 3.328065 1_555
Na8 Sn61 3.389129 1_555
Na8 Sn56 3.389129 1_555
Na8 Sn69 3.392311 1_555
Na8 Sn64 3.392311 1_555
Na8 Sn49 3.501308 1_555
Na8 Sn44 3.501308 1_555
Na8 Sn81 3.518231 1_555
Na8 Sn0 3.709296 1_545
Na9 Sn33 3.265207 1_565
Na9 Sn36 3.265207 1_565
Na9 Sn88 3.328065 1_555
Na9 Sn85 3.328065 1_555
Na9 Sn57 3.389129 1_555
Na9 Sn60 3.389129 1_555
Na9 Sn65 3.392311 1_555
Na9 Sn68 3.392311 1_555
Na9 Sn45 3.501308 1_555
Na9 Sn48 3.501308 1_555
Na9 Sn80 3.518231 1_555
Na9 Sn1 3.709296 1_565
Na10 Sn39 3.265207 1_545
Na10 Sn34 3.265207 1_545
Na10 Sn86 3.328065 1_555
Na10 Sn91 3.328065 1_555
Na10 Sn63 3.389129 1_555
Na10 Sn58 3.389129 1_555
Na10 Sn71 3.392311 1_555
Na10 Sn66 3.392311 1_555
Na10 Sn51 3.501308 1_555
Na10 Sn46 3.501308 1_555
Na10 Sn83 3.518231 1_555
Na10 Sn2 3.709296 1_545
Na11 Sn35 3.265207 1_565
Na11 Sn38 3.265207 1_565
Na11 Sn90 3.328065 1_555
Na11 Sn87 3.328065 1_555
Na11 Sn59 3.389129 1_555
Na11 Sn62 3.389129 1_555
Na11 Sn67 3.392311 1_555
Na11 Sn70 3.392311 1_555
Na11 Sn47 3.501308 1_555
Na11 Sn50 3.501308 1_555
Na11 Sn82 3.518231 1_555
Na11 Sn3 3.709296 1_565
Na12 Sn56 3.310042 1_555
Na12 Sn61 3.310042 1_455
Na12 Sn28 3.334803 1_555
Na12 Sn52 3.442548 1_555
Na12 Na37 3.479507 1_555
Na12 Na32 3.479507 1_455
Na12 Sn20 3.480842 1_555
Na12 Na20 3.524668 1_555
Na12 Na23 3.720415 1_555
Na12 Na26 3.720415 1_555
Na13 Sn60 3.310042 1_555
Na13 Sn57 3.310042 1_655
Na13 Sn29 3.334803 1_555
Na13 Sn53 3.442548 1_555
Na13 Na33 3.479507 1_555
Na13 Na36 3.479507 1_655
Na13 Sn21 3.480842 1_555
Na13 Na21 3.524668 1_555
Na13 Na27 3.720415 1_555
Na13 Na22 3.720415 1_555
Na14 Sn58 3.310042 1_555
Na14 Sn63 3.310042 1_455
Na14 Sn30 3.334803 1_555
Na14 Sn54 3.442548 1_555
Na14 Na35 3.479507 1_555
Na14 Na30 3.479507 1_455
Na14 Sn22 3.480842 1_555
Na14 Na18 3.524668 1_555
Na14 Na25 3.720415 1_555
Na14 Na28 3.720415 1_555
Na15 Sn62 3.310042 1_555
Na15 Sn59 3.310042 1_655
Na15 Sn31 3.334803 1_555
Na15 Sn55 3.442548 1_555
Na15 Na31 3.479507 1_555
Na15 Na34 3.479507 1_655
Na15 Sn23 3.480842 1_555
Na15 Na19 3.524668 1_555
Na15 Na29 3.720415 1_555
Na15 Na24 3.720415 1_555
Na16 Sn15 3.226549 1_555
Na16 Sn13 3.226549 1_555
Na16 Sn101 3.266390 1_555
Na16 Sn102 3.266390 1_555
Na16 Sn76 3.501100 1_555
Na16 Sn75 3.501100 1_555
Na16 Sn78 3.501100 1_555
Na16 Sn73 3.501100 1_555
Na17 Sn14 3.226549 1_555
Na17 Sn12 3.226549 1_555
Na17 Sn100 3.266390 1_555
Na17 Sn103 3.266390 1_555
Na17 Sn72 3.501100 1_555
Na17 Sn74 3.501100 1_555
Na17 Sn77 3.501100 1_555
Na17 Sn79 3.501100 1_555
Na18 Sn66 3.309956 1_555
Na18 Sn71 3.309956 1_455
Na18 Sn46 3.335906 1_555
Na18 Sn51 3.335906 1_455
Na18 Sn91 3.353510 1_555
Na18 Sn86 3.353510 1_455
Na18 Sn39 3.400529 1_445
Na18 Sn34 3.400529 1_545
Na18 Sn22 3.612946 1_555
Na19 Sn70 3.309956 1_555
Na19 Sn67 3.309956 1_655
Na19 Sn47 3.335906 1_655
Na19 Sn50 3.335906 1_555
Na19 Sn87 3.353510 1_555
Na19 Sn90 3.353510 1_655
Na19 Sn38 3.400529 1_565
Na19 Sn35 3.400529 1_665
Na19 Sn23 3.612946 1_555
Na20 Sn64 3.309956 1_555
Na20 Sn69 3.309956 1_455
Na20 Sn44 3.335906 1_555
Na20 Sn49 3.335906 1_455
Na20 Sn89 3.353510 1_555
Na20 Sn84 3.353510 1_455
Na20 Sn37 3.400529 1_445
Na20 Sn32 3.400529 1_545
Na20 Sn20 3.612946 1_555
Na21 Sn65 3.309956 1_655
Na21 Sn68 3.309956 1_555
Na21 Sn48 3.335906 1_555
Na21 Sn45 3.335906 1_655
Na21 Sn85 3.353510 1_555
Na21 Sn88 3.353510 1_655
Na21 Sn36 3.400529 1_565
Na21 Sn33 3.400529 1_665
Na21 Sn21 3.612946 1_555
Na22 Sn17 3.302437 1_655
Na22 Sn9 3.319278 1_655
Na22 Sn21 3.359565 1_555
Na22 Sn57 3.473537 1_655
Na22 Sn29 3.512948 1_555
Na22 Sn68 3.664806 1_545
Na22 Sn41 3.704821 1_555
Na23 Sn16 3.302437 1_555
Na23 Sn8 3.319278 1_555
Na23 Sn20 3.359565 1_555
Na23 Sn56 3.473537 1_555
Na23 Sn28 3.512949 1_555
Na23 Sn69 3.664806 1_565
Na23 Sn40 3.704821 1_555
Na24 Sn19 3.302437 1_655
Na24 Sn11 3.319278 1_655
Na24 Sn23 3.359565 1_555
Na24 Sn59 3.473537 1_655
Na24 Sn31 3.512948 1_555
Na24 Sn70 3.664806 1_545
Na24 Sn43 3.704821 1_555
Na25 Sn18 3.302437 1_555
Na25 Sn10 3.319278 1_555
Na25 Sn22 3.359565 1_555
Na25 Sn58 3.473537 1_555
Na25 Sn30 3.512949 1_555
Na25 Sn71 3.664806 1_565
Na25 Sn42 3.704821 1_555
Na26 Sn16 3.302437 1_455
Na26 Sn8 3.319278 1_455
Na26 Sn20 3.359565 1_555
Na26 Sn61 3.473537 1_455
Na26 Sn28 3.512948 1_555
Na26 Sn64 3.664806 1_565
Na26 Sn40 3.704821 1_555
Na27 Sn17 3.302437 1_555
Na27 Sn9 3.319278 1_555
Na27 Sn21 3.359565 1_555
Na27 Sn60 3.473537 1_555
Na27 Sn29 3.512949 1_555
Na27 Sn65 3.664806 1_545
Na27 Sn41 3.704821 1_555
Na28 Sn18 3.302437 1_455
Na28 Sn10 3.319278 1_455
Na28 Sn22 3.359565 1_555
Na28 Sn63 3.473537 1_455
Na28 Sn30 3.512948 1_555
Na28 Sn66 3.664806 1_565
Na28 Sn42 3.704821 1_555
Na29 Sn19 3.302437 1_555
Na29 Sn11 3.319278 1_555
Na29 Sn23 3.359565 1_555
Na29 Sn62 3.473537 1_555
Na29 Sn31 3.512949 1_555
Na29 Sn67 3.664806 1_545
Na29 Sn43 3.704821 1_555
Na30 Sn14 3.284411 1_555
Na30 Sn94 3.426079 1_655
Na30 Sn63 3.454842 1_555
Na30 Sn100 3.532803 1_555
Na30 Sn18 3.570144 1_555
Na30 Sn54 3.584664 1_655
Na30 Sn30 3.601178 1_655
Na31 Sn15 3.284411 1_555
Na31 Sn95 3.426079 1_555
Na31 Sn62 3.454842 1_555
Na31 Sn101 3.532803 1_555
Na31 Sn19 3.570144 1_555
Na31 Sn55 3.584664 1_555
Na31 Sn31 3.601178 1_555
Na32 Sn12 3.284411 1_555
Na32 Sn92 3.426079 1_655
Na32 Sn61 3.454842 1_555
Na32 Sn100 3.532803 1_555
Na32 Sn16 3.570144 1_555
Na32 Sn52 3.584664 1_655
Na32 Sn28 3.601178 1_655
Na33 Sn13 3.284411 1_555
Na33 Sn93 3.426079 1_555
Na33 Sn60 3.454842 1_555
Na33 Sn101 3.532803 1_555
Na33 Sn17 3.570144 1_555
Na33 Sn53 3.584664 1_555
Na33 Sn29 3.601178 1_555
Na34 Sn15 3.284411 1_555
Na34 Sn98 3.426079 1_455
Na34 Sn59 3.454842 1_555
Na34 Sn102 3.532803 1_555
Na34 Sn19 3.570144 1_555
Na34 Sn55 3.584664 1_455
Na34 Sn31 3.601178 1_455
Na35 Sn14 3.284411 1_555
Na35 Sn99 3.426079 1_555
Na35 Sn58 3.454842 1_555
Na35 Sn103 3.532803 1_555
Na35 Sn18 3.570144 1_555
Na35 Sn54 3.584664 1_555
Na35 Sn30 3.601178 1_555
Na36 Sn13 3.284411 1_555
Na36 Sn96 3.426079 1_455
Na36 Sn57 3.454842 1_555
Na36 Sn102 3.532803 1_555
Na36 Sn17 3.570144 1_555
Na36 Sn53 3.584664 1_455
Na36 Sn29 3.601178 1_455
Na37 Sn12 3.284411 1_555
Na37 Sn97 3.426079 1_555
Na37 Sn56 3.454842 1_555
Na37 Sn103 3.532803 1_555
Na37 Sn16 3.570144 1_555
Na37 Sn52 3.584664 1_555
Na37 Sn28 3.601178 1_555
Na38 Sn52 3.364634 1_555
Na38 Sn54 3.364634 1_555
Na38 Sn100 3.550567 1_455
Na38 Sn103 3.550567 1_555
Na39 Sn53 3.364634 1_555
Na39 Sn55 3.364634 1_555
Na39 Sn102 3.550567 1_655
Na39 Sn101 3.550567 1_555
Sn0 Sn20 2.880120 1_555
Sn0 Sn80 2.920752 1_554
Sn0 Sn32 2.939182 1_555
Sn0 Sn37 2.939182 1_555
Sn1 Sn21 2.880120 1_555
Sn1 Sn81 2.920752 1_556
Sn1 Sn36 2.939182 1_555
Sn1 Sn33 2.939182 1_555
Sn2 Sn22 2.880120 1_555
Sn2 Sn82 2.920752 1_555
Sn2 Sn34 2.939182 1_555
Sn2 Sn39 2.939182 1_555
Sn3 Sn83 2.920752 1_555
Sn3 Sn38 2.939182 1_555
Sn3 Sn35 2.939182 1_555
Sn4 Sn69 2.912742 1_455
Sn4 Sn64 2.912742 1_555
Sn4 Sn52 2.936915 1_555
Sn5 Sn65 2.912742 1_655
Sn5 Sn68 2.912742 1_555
Sn5 Sn53 2.936915 1_555
Sn6 Sn71 2.912742 1_455
Sn6 Sn66 2.912742 1_555
Sn7 Sn70 2.912742 1_555
Sn10 Sn34 2.935539 1_655
Sn10 Sn39 2.935539 1_555
Sn10 Sn26 2.940782 1_555
Sn11 Sn38 2.935539 1_455
Sn11 Sn35 2.935539 1_555
Sn11 Sn27 2.940782 1_555
Sn12 Sn40 2.895863 1_545
Sn12 Sn72 2.924893 1_555
Sn12 Sn77 2.924893 1_555
Sn13 Sn41 2.895863 1_565
Sn13 Sn76 2.924893 1_555
Sn13 Sn73 2.924893 1_555
Sn14 Sn42 2.895863 1_545
Sn14 Sn74 2.924893 1_555
Sn14 Sn79 2.924893 1_555
Sn15 Sn43 2.895863 1_565
Sn15 Sn78 2.924893 1_555
Sn15 Sn75 2.924893 1_555
Sn16 Sn4 2.904034 1_665
Sn16 Sn92 2.913348 1_655
Sn16 Sn97 2.913348 1_555
Sn17 Sn5 2.904034 1_445
Sn17 Sn96 2.913348 1_455
Sn17 Sn93 2.913348 1_555
Sn18 Sn6 2.904034 1_665
Sn18 Sn94 2.913348 1_655
Sn18 Sn99 2.913348 1_555
Sn19 Sn7 2.904034 1_445
Sn19 Sn98 2.913348 1_455
Sn19 Sn95 2.913348 1_555
Sn20 Sn89 2.918475 1_555
Sn20 Sn84 2.918475 1_455
Sn21 Sn85 2.918475 1_555
Sn21 Sn88 2.918475 1_655
Sn22 Sn91 2.918475 1_555
Sn22 Sn86 2.918475 1_455
Sn23 Sn3 2.880120 1_555
Sn23 Sn87 2.918475 1_555
Sn23 Sn90 2.918475 1_655
Sn24 Sn84 2.932379 1_555
Sn24 Sn89 2.932379 1_555
Sn24 Sn8 2.940782 1_555
Sn25 Sn88 2.932379 1_555
Sn25 Sn85 2.932379 1_555
Sn25 Sn9 2.940782 1_555
Sn26 Sn86 2.932379 1_555
Sn26 Sn91 2.932379 1_555
Sn27 Sn90 2.932379 1_555
Sn27 Sn87 2.932379 1_555
Sn28 Sn40 2.929061 1_555
Sn28 Sn92 2.934481 1_555
Sn28 Sn97 2.934481 1_555
Sn29 Sn41 2.929061 1_555
Sn29 Sn96 2.934481 1_555
Sn29 Sn93 2.934481 1_555
Sn30 Sn42 2.929061 1_555
Sn30 Sn94 2.934481 1_555
Sn30 Sn99 2.934481 1_555
Sn31 Sn43 2.929061 1_555
Sn31 Sn98 2.934481 1_555
Sn31 Sn95 2.934481 1_555
Sn32 Sn8 2.935539 1_455
Sn32 Sn64 2.956784 1_565
Sn32 Sn44 2.994880 1_565
Sn33 Sn9 2.935539 1_555
Sn33 Sn65 2.956784 1_545
Sn33 Sn45 2.994880 1_545
Sn34 Sn66 2.956784 1_565
Sn34 Sn46 2.994880 1_565
Sn35 Sn67 2.956784 1_545
Sn35 Sn47 2.994880 1_545
Sn36 Sn9 2.935539 1_655
Sn36 Sn68 2.956784 1_545
Sn36 Sn48 2.994880 1_545
Sn37 Sn8 2.935539 1_555
Sn37 Sn69 2.956784 1_565
Sn37 Sn49 2.994880 1_565
Sn38 Sn70 2.956784 1_545
Sn38 Sn50 2.994880 1_545
Sn39 Sn71 2.956784 1_565
Sn39 Sn51 2.994880 1_565
Sn40 Sn69 2.892498 1_565
Sn40 Sn64 2.892498 1_565
Sn41 Sn65 2.892498 1_545
Sn41 Sn68 2.892498 1_545
Sn42 Sn71 2.892498 1_565
Sn42 Sn66 2.892498 1_565
Sn43 Sn67 2.892498 1_545
Sn43 Sn70 2.892498 1_545
Sn44 Sn89 2.972288 1_555
Sn44 Sn81 3.042607 1_555
Sn45 Sn88 2.972288 1_555
Sn45 Sn80 3.042607 1_555
Sn46 Sn91 2.972288 1_555
Sn46 Sn83 3.042607 1_555
Sn47 Sn90 2.972288 1_555
Sn47 Sn82 3.042607 1_555
Sn48 Sn85 2.972288 1_555
Sn48 Sn80 3.042607 1_555
Sn49 Sn84 2.972288 1_555
Sn49 Sn81 3.042607 1_555
Sn50 Sn87 2.972288 1_555
Sn50 Sn82 3.042607 1_555
Sn51 Sn86 2.972288 1_555
Sn51 Sn83 3.042607 1_555
Sn52 Sn77 2.910883 1_555
Sn52 Sn72 2.910883 1_455
Sn53 Sn76 2.910883 1_655
Sn53 Sn73 2.910883 1_555
Sn54 Sn79 2.910883 1_555
Sn54 Sn74 2.910883 1_455
Sn54 Sn6 2.936915 1_555
Sn55 Sn75 2.910883 1_555
Sn55 Sn78 2.910883 1_655
Sn55 Sn7 2.936915 1_555
Sn56 Sn64 2.921435 1_555
Sn56 Sn61 2.966274 1_555
Sn56 Sn89 2.988338 1_555
Sn57 Sn65 2.921435 1_555
Sn57 Sn60 2.966274 1_555
Sn57 Sn88 2.988337 1_555
Sn58 Sn66 2.921435 1_555
Sn58 Sn63 2.966274 1_555
Sn58 Sn91 2.988338 1_555
Sn59 Sn67 2.921435 1_555
Sn59 Sn62 2.966274 1_555
Sn59 Sn90 2.988337 1_555
Sn60 Sn68 2.921435 1_555
Sn60 Sn85 2.988338 1_555
Sn61 Sn69 2.921435 1_555
Sn61 Sn84 2.988337 1_555
Sn62 Sn70 2.921435 1_555
Sn62 Sn87 2.988338 1_555
Sn63 Sn71 2.921435 1_555
Sn63 Sn86 2.988337 1_555
Sn67 Sn7 2.912742 1_455
Sn72 Sn74 2.971815 1_555
Sn72 Sn97 2.996976 1_545
Sn73 Sn75 2.971815 1_555
Sn73 Sn96 2.996976 1_565
Sn74 Sn99 2.996976 1_545
Sn75 Sn98 2.996976 1_565
Sn76 Sn78 2.971815 1_555
Sn76 Sn93 2.996976 1_565
Sn77 Sn79 2.971815 1_555
Sn77 Sn92 2.996976 1_545
Sn78 Sn95 2.996976 1_565
Sn79 Sn94 2.996976 1_545
Sn80 Sn81 2.914729 1_566
Sn82 Sn83 2.914729 1_565
Sn100 Sn92 2.949701 1_655
Sn100 Sn94 2.949701 1_655
Sn100 Sn103 3.046588 1_555
Sn101 Sn93 2.949701 1_555
Sn101 Sn95 2.949701 1_555
Sn101 Sn102 3.046588 1_555
Sn102 Sn96 2.949701 1_455
Sn102 Sn98 2.949701 1_455
Sn103 Sn99 2.949701 1_555
Sn103 Sn97 2.949701 1_555
