# generated using pymatgen
data_Tb4Ga12Fe
_symmetry_space_group_name_H-M   'P 1'
_cell_length_a   7.40243685
_cell_length_b   7.40243685
_cell_length_c   7.40243447
_cell_angle_alpha   109.47120762
_cell_angle_beta   109.47120762
_cell_angle_gamma   109.47127922
_symmetry_Int_Tables_number   1
_chemical_formula_structural   Tb4Ga12Fe
_chemical_formula_sum   'Tb4 Ga12 Fe1'
_cell_volume   312.24962769
_cell_formula_units_Z   1
loop_
 _symmetry_equiv_pos_site_id
 _symmetry_equiv_pos_as_xyz
  1  'x, y, z'
loop_
 _atom_site_type_symbol
 _atom_site_label
 _atom_site_symmetry_multiplicity
 _atom_site_fract_x
 _atom_site_fract_y
 _atom_site_fract_z
 _atom_site_occupancy
  Tb  Tb0  1  0.00000000  0.00000000  0.50000000  1
  Tb  Tb1  1  0.00000000  0.50000000  0.00000000  1
  Tb  Tb2  1  0.50000000  0.00000000  0.00000000  1
  Tb  Tb3  1  0.50000000  0.50000000  0.50000000  1
  Ga  Ga0  1  0.75000000  0.25000000  0.50000000  1
  Ga  Ga1  1  0.75000000  0.50000000  0.25000000  1
  Ga  Ga2  1  0.50000000  0.25000000  0.75000000  1
  Ga  Ga3  1  0.25000000  0.50000000  0.75000000  1
  Ga  Ga4  1  0.25000000  0.75000000  0.50000000  1
  Ga  Ga5  1  0.50000000  0.75000000  0.25000000  1
  Ga  Ga6  1  0.71051552  0.71051552  0.00000000  1
  Ga  Ga7  1  0.28948548  -0.00000000  0.28948548  1
  Ga  Ga8  1  -0.00000000  0.28948548  0.28948548  1
  Ga  Ga9  1  0.28948448  0.28948448  -0.00000000  1
  Ga  Ga10  1  0.71051452  0.00000000  0.71051452  1
  Ga  Ga11  1  0.00000000  0.71051452  0.71051452  1
  Fe  Fe0  1  0.00000000  0.00000000  0.00000000  1
loop_
_geom_bond_atom_site_label_1
_geom_bond_atom_site_label_2
_geom_bond_distance
_geom_bond_site_symmetry_2
Ga0 Ga11 2.793590 1_655
Ga0 Ga7 2.793590 1_555
Ga0 Ga10 2.793591 1_555
Ga0 Ga8 2.793591 1_655
Ga0 Ga3 3.022031 1_655
Ga0 Ga5 3.022031 1_545
Ga0 Tb1 3.022031 1_656
Ga0 Tb2 3.022031 1_555
Ga0 Ga2 3.022031 1_555
Ga0 Ga1 3.022031 1_555
Ga0 Tb3 3.022033 1_555
Ga0 Tb0 3.022033 1_655
Ga1 Ga11 2.793591 1_655
Ga1 Ga8 2.793593 1_655
Ga1 Ga9 2.793596 1_555
Ga1 Ga6 2.793597 1_555
Ga1 Tb0 3.022031 1_665
Ga1 Ga4 3.022031 1_655
Ga1 Tb2 3.022031 1_555
Ga1 Ga2 3.022031 1_554
Ga1 Tb3 3.022031 1_555
Ga1 Tb1 3.022031 1_655
Ga1 Ga5 3.022033 1_555
Ga2 Ga7 2.793591 1_555
Ga2 Ga6 2.793596 1_556
Ga2 Ga9 2.793597 1_556
Ga2 Ga4 3.022031 1_545
Ga2 Tb0 3.022031 1_555
Ga2 Tb1 3.022031 1_656
Ga2 Tb2 3.022031 1_556
Ga2 Tb3 3.022031 1_555
Ga2 Ga3 3.022033 1_555
Ga3 Ga8 2.793591 1_555
Ga3 Ga6 2.793596 1_556
Ga3 Ga9 2.793597 1_556
Ga3 Tb0 3.022031 1_555
Ga3 Tb2 3.022031 1_566
Ga3 Ga5 3.022031 1_556
Ga3 Tb1 3.022031 1_556
Ga3 Ga4 3.022031 1_555
Ga3 Tb3 3.022031 1_555
Ga4 Ga8 2.793590 1_555
Ga4 Ga7 2.793591 1_565
Ga4 Tb2 3.022031 1_566
Ga4 Tb1 3.022031 1_555
Ga4 Ga5 3.022031 1_555
Ga4 Tb3 3.022033 1_555
Ga4 Tb0 3.022033 1_565
Ga5 Ga7 2.793593 1_565
Ga5 Ga9 2.793596 1_555
Ga5 Ga6 2.793597 1_555
Ga5 Tb1 3.022031 1_555
Ga5 Tb0 3.022031 1_665
Ga5 Tb3 3.022031 1_555
Ga5 Tb2 3.022031 1_565
Ga6 Tb0 3.040818 1_665
Ga6 Tb3 3.040818 1_554
Ga6 Tb1 3.040821 1_655
Ga6 Tb2 3.040821 1_565
Ga7 Tb1 3.040819 1_545
Ga7 Tb3 3.040819 1_555
Ga7 Tb2 3.040820 1_555
Ga7 Tb0 3.040820 1_555
Ga8 Tb2 3.040819 1_455
Ga8 Tb3 3.040819 1_555
Ga8 Tb1 3.040820 1_555
Ga8 Tb0 3.040820 1_555
Ga9 Tb0 3.040818 1_554
Ga9 Tb3 3.040818 1_555
Ga9 Tb2 3.040821 1_555
Ga9 Tb1 3.040821 1_555
Ga10 Ga4 2.793590 1_545
Ga10 Ga5 2.793591 1_545
Ga10 Ga2 2.793593 1_555
Ga10 Tb1 3.040819 1_656
Ga10 Tb3 3.040819 1_545
Ga10 Tb2 3.040820 1_556
Ga10 Tb0 3.040820 1_655
Ga11 Ga4 2.793591 1_555
Ga11 Ga3 2.793593 1_555
Ga11 Tb2 3.040819 1_566
Ga11 Tb3 3.040819 1_455
Ga11 Tb1 3.040820 1_556
Ga11 Tb0 3.040820 1_565
Fe0 Ga9 2.474395 1_555
Fe0 Ga6 2.474395 1_445
Fe0 Ga10 2.474405 1_454
Fe0 Ga7 2.474405 1_555
Fe0 Ga8 2.474405 1_555
Fe0 Ga11 2.474405 1_544
