# generated using pymatgen
data_Ba3PN
_symmetry_space_group_name_H-M   'P 1'
_cell_length_a   5.45072600
_cell_length_b   5.45072600
_cell_length_c   5.45072600
_cell_angle_alpha   90.00000000
_cell_angle_beta   90.00000000
_cell_angle_gamma   90.00000000
_symmetry_Int_Tables_number   1
_chemical_formula_structural   Ba3PN
_chemical_formula_sum   'Ba3 P1 N1'
_cell_volume   161.94332566
_cell_formula_units_Z   1
loop_
 _symmetry_equiv_pos_site_id
 _symmetry_equiv_pos_as_xyz
  1  'x, y, z'
loop_
 _atom_site_type_symbol
 _atom_site_label
 _atom_site_symmetry_multiplicity
 _atom_site_fract_x
 _atom_site_fract_y
 _atom_site_fract_z
 _atom_site_occupancy
  Ba  Ba0  1  0.00000000  0.50000000  0.50000000  1
  Ba  Ba1  1  0.50000000  0.00000000  0.50000000  1
  Ba  Ba2  1  0.50000000  0.50000000  0.00000000  1
  P  P0  1  0.00000000  0.00000000  0.00000000  1
  N  N0  1  0.50000000  0.50000000  0.50000000  1
loop_
_geom_bond_atom_site_label_1
_geom_bond_atom_site_label_2
_geom_bond_distance
_geom_bond_site_symmetry_2
Ba0 N0 2.725363 1_555
Ba0 N0 2.725363 1_455
Ba0 P0 3.854245 1_565
Ba0 P0 3.854245 1_555
Ba0 P0 3.854245 1_566
Ba0 P0 3.854245 1_556
Ba1 N0 2.725363 1_555
Ba1 N0 2.725363 1_545
Ba1 P0 3.854245 1_555
Ba1 P0 3.854245 1_655
Ba1 P0 3.854245 1_556
Ba1 P0 3.854245 1_656
Ba2 N0 2.725363 1_555
Ba2 N0 2.725363 1_554
Ba2 P0 3.854245 1_565
Ba2 P0 3.854245 1_555
Ba2 P0 3.854245 1_665
Ba2 P0 3.854245 1_655
