# generated using pymatgen
data_Cs2EuAuCl6
_symmetry_space_group_name_H-M   'P 1'
_cell_length_a   7.71264900
_cell_length_b   7.71264928
_cell_length_c   7.71264963
_cell_angle_alpha   59.99999944
_cell_angle_beta   59.99999841
_cell_angle_gamma   59.99999692
_symmetry_Int_Tables_number   1
_chemical_formula_structural   Cs2EuAuCl6
_chemical_formula_sum   'Cs2 Eu1 Au1 Cl6'
_cell_volume   324.41112422
_cell_formula_units_Z   1
loop_
 _symmetry_equiv_pos_site_id
 _symmetry_equiv_pos_as_xyz
  1  'x, y, z'
loop_
 _atom_site_type_symbol
 _atom_site_label
 _atom_site_symmetry_multiplicity
 _atom_site_fract_x
 _atom_site_fract_y
 _atom_site_fract_z
 _atom_site_occupancy
  Cs  Cs0  1  0.25000000  0.25000000  0.25000000  1
  Cs  Cs1  1  0.75000000  0.75000000  0.75000000  1
  Eu  Eu0  1  0.00000000  0.00000000  0.00000000  1
  Au  Au0  1  0.50000000  0.50000000  0.50000000  1
  Cl  Cl0  1  0.25277600  0.74722400  0.25277600  1
  Cl  Cl1  1  0.74722400  0.74722400  0.25277600  1
  Cl  Cl2  1  0.74722400  0.25277600  0.74722400  1
  Cl  Cl3  1  0.74722400  0.25277600  0.25277600  1
  Cl  Cl4  1  0.25277600  0.74722400  0.74722400  1
  Cl  Cl5  1  0.25277600  0.25277600  0.74722400  1
loop_
_geom_bond_atom_site_label_1
_geom_bond_atom_site_label_2
_geom_bond_distance
_geom_bond_site_symmetry_2
Au0 Cl5 2.696555 1_555
Au0 Cl2 2.696555 1_555
Au0 Cl0 2.696555 1_555
Au0 Cl1 2.696555 1_555
Au0 Cl3 2.696555 1_555
Au0 Cl4 2.696555 1_555
Cl0 Eu0 2.757112 1_565
Cl0 Cs1 3.856443 1_455
Cl0 Cs1 3.856443 1_554
Cl0 Cs0 3.856444 1_565
Cl0 Cs0 3.856444 1_555
Cl1 Eu0 2.757112 1_665
Cl1 Cs0 3.856443 1_655
Cl1 Cs0 3.856443 1_565
Cl1 Cs1 3.856444 1_555
Cl1 Cs1 3.856444 1_554
Cl2 Eu0 2.757112 1_656
Cl2 Cs0 3.856443 1_655
Cl2 Cs0 3.856443 1_556
Cl2 Cs1 3.856444 1_545
Cl2 Cs1 3.856444 1_555
Cl3 Eu0 2.757112 1_655
Cl3 Cs0 3.856443 1_655
Cl3 Cs0 3.856443 1_555
Cl3 Cs1 3.856444 1_545
Cl3 Cs1 3.856444 1_554
Cl4 Eu0 2.757112 1_566
Cl4 Cs1 3.856443 1_455
Cl4 Cs1 3.856443 1_555
Cl4 Cs0 3.856444 1_565
Cl4 Cs0 3.856444 1_556
Cl5 Eu0 2.757112 1_556
Cl5 Cs1 3.856443 1_455
Cl5 Cs1 3.856443 1_545
Cl5 Cs0 3.856444 1_555
Cl5 Cs0 3.856444 1_556
