# generated using pymatgen
data_MgCd2
_symmetry_space_group_name_H-M   'P 1'
_cell_length_a   5.28810585
_cell_length_b   5.28810585
_cell_length_c   5.14767004
_cell_angle_alpha   90.00000000
_cell_angle_beta   90.00000000
_cell_angle_gamma   119.22438621
_symmetry_Int_Tables_number   1
_chemical_formula_structural   MgCd2
_chemical_formula_sum   'Mg2 Cd4'
_cell_volume   125.62703245
_cell_formula_units_Z   2
loop_
 _symmetry_equiv_pos_site_id
 _symmetry_equiv_pos_as_xyz
  1  'x, y, z'
loop_
 _atom_site_type_symbol
 _atom_site_label
 _atom_site_symmetry_multiplicity
 _atom_site_fract_x
 _atom_site_fract_y
 _atom_site_fract_z
 _atom_site_occupancy
  Mg  Mg0  1  0.67786334  0.67786334  0.75000000  1
  Mg  Mg1  1  0.32213666  0.32213666  0.25000000  1
  Cd  Cd0  1  0.00601506  0.33910829  0.75000000  1
  Cd  Cd1  1  0.33910829  0.00601506  0.75000000  1
  Cd  Cd2  1  0.66089171  0.99398494  0.25000000  1
  Cd  Cd3  1  0.99398494  0.66089171  0.25000000  1
loop_
_geom_bond_atom_site_label_1
_geom_bond_atom_site_label_2
_geom_bond_distance
_geom_bond_site_symmetry_2
Cd0 Cd1 3.038898 1_555
Cd0 Mg0 3.042316 1_455
Cd0 Mg0 3.051779 1_445
Cd0 Cd1 3.078033 1_565
Cd0 Cd1 3.078033 1_455
Cd0 Mg1 3.094141 1_556
Cd0 Mg1 3.094141 1_555
Cd0 Mg0 3.101104 1_555
Cd0 Cd3 3.103209 1_455
Cd0 Cd3 3.103209 1_456
Cd0 Cd2 3.167622 1_445
Cd0 Cd2 3.167622 1_446
Cd1 Mg0 3.042316 1_545
Cd1 Mg0 3.051779 1_445
Cd1 Mg1 3.094141 1_556
Cd1 Mg1 3.094141 1_555
Cd1 Mg0 3.101104 1_555
Cd1 Cd2 3.103209 1_546
Cd1 Cd2 3.103209 1_545
Cd1 Cd3 3.167622 1_445
Cd1 Cd3 3.167622 1_446
Cd2 Cd3 3.038898 1_555
Cd2 Mg1 3.042316 1_565
Cd2 Mg1 3.051779 1_665
Cd2 Cd3 3.078033 1_455
Cd2 Cd3 3.078033 1_565
Cd2 Mg0 3.094141 1_554
Cd2 Mg0 3.094141 1_555
Cd2 Mg1 3.101104 1_555
Cd3 Mg1 3.042316 1_655
Cd3 Mg1 3.051779 1_665
Cd3 Mg0 3.094141 1_554
Cd3 Mg0 3.094141 1_555
Cd3 Mg1 3.101104 1_555
