# generated using pymatgen
data_SmZnRh
_symmetry_space_group_name_H-M   'P 1'
_cell_length_a   4.05603426
_cell_length_b   7.01668109
_cell_length_c   8.15538133
_cell_angle_alpha   90.00000000
_cell_angle_beta   90.00000000
_cell_angle_gamma   90.00000000
_symmetry_Int_Tables_number   1
_chemical_formula_structural   SmZnRh
_chemical_formula_sum   'Sm4 Zn4 Rh4'
_cell_volume   232.10132808
_cell_formula_units_Z   4
loop_
 _symmetry_equiv_pos_site_id
 _symmetry_equiv_pos_as_xyz
  1  'x, y, z'
loop_
 _atom_site_type_symbol
 _atom_site_label
 _atom_site_symmetry_multiplicity
 _atom_site_fract_x
 _atom_site_fract_y
 _atom_site_fract_z
 _atom_site_occupancy
  Sm  Sm0  1  0.25000000  0.53848655  0.81409065  1
  Sm  Sm1  1  0.75000000  0.46151345  0.18590935  1
  Sm  Sm2  1  0.25000000  0.03848655  0.68590935  1
  Sm  Sm3  1  0.75000000  0.96151345  0.31409065  1
  Zn  Zn0  1  0.25000000  0.13555497  0.06246902  1
  Zn  Zn1  1  0.75000000  0.86444503  0.93753098  1
  Zn  Zn2  1  0.25000000  0.63555497  0.43753098  1
  Zn  Zn3  1  0.75000000  0.36444503  0.56246902  1
  Rh  Rh0  1  0.75000000  0.74174108  0.62151097  1
  Rh  Rh1  1  0.25000000  0.25825892  0.37848903  1
  Rh  Rh2  1  0.75000000  0.24174108  0.87848903  1
  Rh  Rh3  1  0.25000000  0.75825892  0.12151097  1
loop_
_geom_bond_atom_site_label_1
_geom_bond_atom_site_label_2
_geom_bond_distance
_geom_bond_site_symmetry_2
Sm0 Zn3 3.132916 1_555
Sm0 Zn3 3.132916 1_455
Sm0 Zn2 3.145610 1_555
Sm0 Zn1 3.218283 1_555
Sm0 Zn1 3.218283 1_455
Sm1 Zn2 3.132916 1_555
Sm1 Zn2 3.132916 1_655
Sm1 Zn3 3.145610 1_555
Sm1 Zn0 3.218283 1_555
Sm1 Zn0 3.218283 1_655
Sm2 Zn1 3.132916 1_545
Sm2 Zn1 3.132916 1_445
Sm2 Zn0 3.145610 1_556
Sm2 Zn3 3.218283 1_555
Sm2 Zn3 3.218283 1_455
Sm3 Zn0 3.132916 1_565
Sm3 Zn0 3.132916 1_665
Sm3 Zn1 3.145610 1_554
Sm3 Zn2 3.218283 1_655
Sm3 Zn2 3.218283 1_555
Rh0 Zn2 2.630451 1_555
Rh0 Zn2 2.630451 1_655
Rh0 Zn3 2.690799 1_555
Rh0 Zn1 2.717272 1_555
Rh0 Sm0 2.934873 1_655
Rh0 Sm0 2.934873 1_555
Rh0 Sm3 2.943414 1_555
Rh0 Sm2 2.953660 1_565
Rh0 Sm2 2.953660 1_665
Rh1 Zn3 2.630451 1_455
Rh1 Zn3 2.630451 1_555
Rh1 Zn2 2.690799 1_555
Rh1 Zn0 2.717272 1_555
Rh1 Sm1 2.934873 1_555
Rh1 Sm1 2.934873 1_455
Rh1 Sm2 2.943414 1_555
Rh1 Sm3 2.953660 1_545
Rh1 Sm3 2.953660 1_445
Rh2 Zn0 2.630451 1_556
Rh2 Zn0 2.630451 1_656
Rh2 Zn1 2.690799 1_545
Rh2 Zn3 2.717272 1_555
Rh2 Sm2 2.934873 1_555
Rh2 Sm2 2.934873 1_655
Rh2 Sm1 2.943414 1_556
Rh2 Sm0 2.953660 1_555
Rh2 Sm0 2.953660 1_655
Rh3 Zn1 2.630451 1_454
Rh3 Zn1 2.630451 1_554
Rh3 Zn0 2.690799 1_565
Rh3 Zn2 2.717272 1_555
Rh3 Sm3 2.934873 1_555
Rh3 Sm3 2.934873 1_455
Rh3 Sm0 2.943414 1_554
Rh3 Sm1 2.953660 1_555
Rh3 Sm1 2.953660 1_455
