# generated using pymatgen
data_Na2AgAuBr6
_symmetry_space_group_name_H-M   'P 1'
_cell_length_a   7.60532093
_cell_length_b   7.60532093
_cell_length_c   7.60532093
_cell_angle_alpha   60.00000000
_cell_angle_beta   60.00000000
_cell_angle_gamma   60.00000000
_symmetry_Int_Tables_number   1
_chemical_formula_structural   Na2AgAuBr6
_chemical_formula_sum   'Na2 Ag1 Au1 Br6'
_cell_volume   311.05532252
_cell_formula_units_Z   1
loop_
 _symmetry_equiv_pos_site_id
 _symmetry_equiv_pos_as_xyz
  1  'x, y, z'
loop_
 _atom_site_type_symbol
 _atom_site_label
 _atom_site_symmetry_multiplicity
 _atom_site_fract_x
 _atom_site_fract_y
 _atom_site_fract_z
 _atom_site_occupancy
  Na  Na0  1  0.75000000  0.75000000  0.75000000  1
  Na  Na1  1  0.25000000  0.25000000  0.25000000  1
  Ag  Ag0  1  0.50000000  0.50000000  0.50000000  1
  Au  Au0  1  0.00000000  0.00000000  0.00000000  1
  Br  Br0  1  0.75189400  0.24810600  0.24810600  1
  Br  Br1  1  0.24810600  0.24810600  0.75189400  1
  Br  Br2  1  0.24810600  0.75189400  0.75189400  1
  Br  Br3  1  0.24810600  0.75189400  0.24810600  1
  Br  Br4  1  0.75189400  0.24810600  0.75189400  1
  Br  Br5  1  0.75189400  0.75189400  0.24810600  1
loop_
_geom_bond_atom_site_label_1
_geom_bond_atom_site_label_2
_geom_bond_distance
_geom_bond_site_symmetry_2
Ag0 Br2 2.709258 1_555
Ag0 Br4 2.709258 1_555
Ag0 Br5 2.709258 1_555
Ag0 Br1 2.709258 1_555
Ag0 Br3 2.709258 1_555
Ag0 Br0 2.709258 1_555
Au0 Br0 2.668516 1_455
Au0 Br3 2.668516 1_545
Au0 Br1 2.668516 1_554
Au0 Br2 2.668516 1_544
Au0 Br5 2.668516 1_445
Au0 Br4 2.668516 1_454
