# generated using pymatgen
data_MgAg14(PbO3)6
_symmetry_space_group_name_H-M   'P 1'
_cell_length_a   9.06027136
_cell_length_b   8.81444960
_cell_length_c   8.87964383
_cell_angle_alpha   72.79552886
_cell_angle_beta   107.87839175
_cell_angle_gamma   109.00599122
_symmetry_Int_Tables_number   1
_chemical_formula_structural   MgAg14(PbO3)6
_chemical_formula_sum   'Mg1 Ag14 Pb6 O18'
_cell_volume   622.81309978
_cell_formula_units_Z   1
loop_
 _symmetry_equiv_pos_site_id
 _symmetry_equiv_pos_as_xyz
  1  'x, y, z'
loop_
 _atom_site_type_symbol
 _atom_site_label
 _atom_site_symmetry_multiplicity
 _atom_site_fract_x
 _atom_site_fract_y
 _atom_site_fract_z
 _atom_site_occupancy
  Mg  Mg0  1  0.16802330  0.79605688  0.87778791  1
  Ag  Ag0  1  0.82663189  0.17050198  0.66363153  1
  Ag  Ag1  1  0.17389567  0.33894279  0.83421522  1
  Ag  Ag2  1  0.65288057  0.82415029  0.82397600  1
  Ag  Ag3  1  0.49568583  0.01385625  0.48654209  1
  Ag  Ag4  1  0.00197196  0.98098512  0.94000287  1
  Ag  Ag5  1  0.29543582  0.73027865  0.66483156  1
  Ag  Ag6  1  0.46510917  0.57008697  0.58583131  1
  Ag  Ag7  1  0.59452832  0.41510711  0.41481741  1
  Ag  Ag8  1  0.73612122  0.25076129  0.26658747  1
  Ag  Ag9  1  0.89177557  0.10005882  0.12097504  1
  Ag  Ag10  1  0.01163328  0.49796727  0.50173662  1
  Ag  Ag11  1  0.83006181  0.66098522  0.16120972  1
  Ag  Ag12  1  0.15892123  0.84840554  0.30522500  1
  Ag  Ag13  1  0.50183182  0.49096150  0.01183762  1
  Pb  Pb0  1  0.49076289  0.15594842  0.84320001  1
  Pb  Pb1  1  0.84181738  0.49075245  0.84266650  1
  Pb  Pb2  1  0.16916521  0.16476398  0.50448214  1
  Pb  Pb3  1  0.83504348  0.82774517  0.50525118  1
  Pb  Pb4  1  0.16964082  0.48461396  0.17906106  1
  Pb  Pb5  1  0.49537325  0.83072288  0.16813736  1
  O  O0  1  0.75966323  0.21425076  0.85479852  1
  O  O1  1  0.57137449  0.43370310  0.82995372  1
  O  O2  1  0.90616571  0.11630448  0.48778303  1
  O  O3  1  0.21853389  0.12812758  0.78382572  1
  O  O4  1  0.92194677  0.77319399  0.80221062  1
  O  O5  1  0.41715587  0.87105700  0.88508811  1
  O  O6  1  0.12166370  0.53680231  0.89890935  1
  O  O7  1  0.43540160  0.18855318  0.56686088  1
  O  O8  1  0.82722249  0.54043036  0.57250635  1
  O  O9  1  0.52985777  0.09881465  0.10943271  1
  O  O10  1  0.20188511  0.44279401  0.44905966  1
  O  O11  1  0.90406477  0.47227504  0.11662773  1
  O  O12  1  0.54796538  0.81987447  0.43176301  1
  O  O13  1  0.14059548  0.22022639  0.23623855  1
  O  O14  1  0.75385059  0.83894945  0.21487930  1
  O  O15  1  0.43487815  0.55237738  0.19380510  1
  O  O16  1  0.11301519  0.89399430  0.51414197  1
  O  O17  1  0.21930134  0.76948201  0.12609802  1
loop_
_geom_bond_atom_site_label_1
_geom_bond_atom_site_label_2
_geom_bond_distance
_geom_bond_site_symmetry_2
Mg0 O17 2.066085 1_556
Mg0 O4 2.080968 1_455
Mg0 O5 2.121276 1_555
Mg0 O6 2.145536 1_555
Mg0 O3 2.718509 1_565
Ag0 O2 2.131205 1_555
Ag0 O0 2.137841 1_555
Ag1 O6 2.211952 1_555
Ag1 O3 2.215674 1_555
Ag2 O5 2.538943 1_555
Ag2 O4 2.689951 1_555
Ag3 O12 2.132020 1_545
Ag3 O7 2.148210 1_555
Ag4 O4 2.300748 1_455
Ag4 O3 2.530693 1_565
Ag5 O16 2.378631 1_555
Ag5 O5 2.408564 1_555
Ag6 O1 2.236512 1_555
Ag6 O12 2.248327 1_555
Ag6 O10 2.388806 1_555
Ag7 O8 2.282819 1_555
Ag7 O15 2.323795 1_555
Ag7 O7 2.369416 1_555
Ag8 O9 2.260032 1_555
Ag8 O2 2.364380 1_555
Ag8 O11 2.381531 1_555
Ag9 O13 2.218334 1_655
Ag9 O14 2.277093 1_545
Ag9 O0 2.381717 1_554
Ag10 O8 2.125496 1_455
Ag10 O10 2.145270 1_555
Ag11 O14 2.124701 1_555
Ag11 O11 2.156852 1_555
Ag12 O17 2.179428 1_555
Ag12 O16 2.190773 1_555
Ag13 O1 2.138758 1_554
Ag13 O15 2.145936 1_555
O0 Pb1 2.284286 1_555
O0 Pb0 2.296099 1_555
O1 Pb0 2.293240 1_555
O1 Pb1 2.308835 1_555
O2 Pb2 2.244990 1_655
O2 Pb3 2.380986 1_545
O3 Pb0 2.303404 1_555
O3 Pb2 2.322949 1_555
O4 Pb1 2.303889 1_555
O4 Pb3 2.454815 1_555
O5 Pb0 2.323362 1_565
O5 Pb5 2.342553 1_556
O6 Pb4 2.319115 1_556
O6 Pb1 2.348396 1_455
O7 Pb2 2.255716 1_555
O7 Pb0 2.297020 1_555
O8 Pb1 2.277193 1_555
O8 Pb3 2.406187 1_555
O9 Pb5 2.200888 1_545
O9 Pb0 2.205806 1_554
O10 Pb4 2.255323 1_555
O10 Pb2 2.288850 1_555
O11 Pb4 2.270484 1_655
O11 Pb1 2.290323 1_554
O12 Pb5 2.220001 1_555
O12 Pb3 2.462314 1_555
O13 Pb4 2.177289 1_555
O13 Pb2 2.234837 1_555
O14 Pb5 2.229865 1_555
O14 Pb3 2.435392 1_555
O15 Pb4 2.251016 1_555
O15 Pb5 2.289512 1_555
O16 Pb2 2.253282 1_565
O16 Pb3 2.374312 1_455
O17 Pb5 2.313794 1_555
O17 Pb4 2.328950 1_555
