# generated using pymatgen
data_Na5La(MoO4)4
_symmetry_space_group_name_H-M   'P 1'
_cell_length_a   10.17573011
_cell_length_b   10.17573011
_cell_length_c   10.17573011
_cell_angle_alpha   109.34845848
_cell_angle_beta   109.34845848
_cell_angle_gamma   109.71702492
_symmetry_Int_Tables_number   1
_chemical_formula_structural   Na5La(MoO4)4
_chemical_formula_sum   'Na10 La2 Mo8 O32'
_cell_volume   811.08963203
_cell_formula_units_Z   2
loop_
 _symmetry_equiv_pos_site_id
 _symmetry_equiv_pos_as_xyz
  1  'x, y, z'
loop_
 _atom_site_type_symbol
 _atom_site_label
 _atom_site_symmetry_multiplicity
 _atom_site_fract_x
 _atom_site_fract_y
 _atom_site_fract_z
 _atom_site_occupancy
  Na  Na0  1  0.90877700  0.58090300  0.91909100  1
  Na  Na1  1  0.23968700  0.65877700  0.82787500  1
  Na  Na2  1  0.83090300  0.41181200  0.17212500  1
  Na  Na3  1  0.66181200  0.98968700  0.08090900  1
  Na  Na4  1  0.34122300  0.16909700  0.58090900  1
  Na  Na5  1  0.01031300  0.09122300  0.67212500  1
  Na  Na6  1  0.41909700  0.33818800  0.32787500  1
  Na  Na7  1  0.58818800  0.76031300  0.41909100  1
  Na  Na8  1  0.50000000  0.50000000  0.00000000  1
  Na  Na9  1  0.75000000  0.25000000  0.50000000  1
  La  La0  1  0.25000000  0.75000000  0.50000000  1
  La  La1  1  0.00000000  0.00000000  0.00000000  1
  Mo  Mo0  1  0.69795600  0.11604600  0.77588500  1
  Mo  Mo1  1  0.17207100  0.44795600  0.08191000  1
  Mo  Mo2  1  0.90983900  0.82792900  0.27588500  1
  Mo  Mo3  1  0.88395400  0.65983900  0.58191000  1
  Mo  Mo4  1  0.07792900  0.30204400  0.41809000  1
  Mo  Mo5  1  0.55204400  0.63395400  0.72411500  1
  Mo  Mo6  1  0.34016100  0.92207100  0.22411500  1
  Mo  Mo7  1  0.36604600  0.09016100  0.91809000  1
  O  O0  1  0.12160100  0.89504000  0.40112800  1
  O  O1  1  0.97047300  0.87160100  0.72656000  1
  O  O2  1  0.14504000  0.24391300  0.27344000  1
  O  O3  1  0.49391300  0.72047300  0.59887200  1
  O  O4  1  0.12839900  0.85496000  0.09887200  1
  O  O5  1  0.27952700  0.87839900  0.77344000  1
  O  O6  1  0.10496000  0.50608700  0.22656000  1
  O  O7  1  0.75608700  0.02952700  0.90112800  1
  O  O8  1  0.88860600  0.94159000  0.17364700  1
  O  O9  1  0.96495900  0.63860600  0.44701600  1
  O  O10  1  0.19159000  0.51794300  0.55298400  1
  O  O11  1  0.76794300  0.71495900  0.82635300  1
  O  O12  1  0.36139400  0.80841000  0.32635300  1
  O  O13  1  0.28504100  0.11139400  0.05298400  1
  O  O14  1  0.05841000  0.23205700  0.94701600  1
  O  O15  1  0.48205700  0.03504100  0.67364700  1
  O  O16  1  0.79451200  0.61940100  0.12234300  1
  O  O17  1  0.92216900  0.54451200  0.67511000  1
  O  O18  1  0.86940100  0.24705800  0.32489000  1
  O  O19  1  0.49705800  0.67216900  0.87765700  1
  O  O20  1  0.78739500  0.32790700  0.89441100  1
  O  O21  1  0.14298400  0.53739500  0.95948800  1
  O  O22  1  0.57790700  0.18349600  0.04051200  1
  O  O23  1  0.43349600  0.89298400  0.10559000  1
  O  O24  1  0.46260500  0.42209300  0.60558900  1
  O  O25  1  0.10701600  0.21260500  0.54051200  1
  O  O26  1  0.67209300  0.56650400  0.45948800  1
  O  O27  1  0.81650400  0.85701600  0.39441000  1
  O  O28  1  0.75294200  0.07783100  0.62234300  1
  O  O29  1  0.38059900  0.50294200  0.17511000  1
  O  O30  1  0.32783100  0.20548800  0.82489000  1
  O  O31  1  0.45548800  0.13059900  0.37765700  1
loop_
_geom_bond_atom_site_label_1
_geom_bond_atom_site_label_2
_geom_bond_distance
_geom_bond_site_symmetry_2
Na0 O20 2.331691 1_555
Na0 O4 2.413152 1_656
Na0 O17 2.443045 1_555
Na0 O11 2.465974 1_555
Na0 O21 2.495623 1_655
Na0 O16 2.673381 1_556
Na1 O21 2.331687 1_555
Na1 O5 2.413153 1_555
Na1 O19 2.443026 1_555
Na1 O10 2.465979 1_555
Na1 O23 2.495622 1_556
Na1 O17 2.673390 1_455
Na2 O22 2.331692 1_555
Na2 O6 2.413153 1_655
Na2 O16 2.443030 1_555
Na2 O9 2.465981 1_555
Na2 O20 2.495613 1_554
Na2 O18 2.673396 1_555
Na3 O23 2.331698 1_555
Na3 O7 2.413143 1_564
Na3 O18 2.443034 1_565
Na3 O8 2.465981 1_555
Na3 O22 2.495613 1_565
Na3 O19 2.673388 1_554
Na4 O24 2.331691 1_555
Na4 O0 2.413152 1_545
Na4 O30 2.443045 1_555
Na4 O15 2.465974 1_555
Na4 O25 2.495623 1_555
Na4 O31 2.673381 1_555
Na5 O25 2.331687 1_555
Na5 O1 2.413153 1_445
Na5 O28 2.443026 1_455
Na5 O14 2.465979 1_555
Na5 O27 2.495622 1_445
Na5 O30 2.673390 1_555
Na6 O26 2.331692 1_555
Na6 O2 2.413153 1_555
Na6 O31 2.443030 1_555
Na6 O13 2.465981 1_555
Na6 O24 2.495613 1_555
Na6 O29 2.673396 1_555
Na7 O27 2.331698 1_555
Na7 O3 2.413143 1_555
Na7 O29 2.443034 1_555
Na7 O12 2.465981 1_555
Na7 O26 2.495613 1_555
Na7 O28 2.673388 1_565
Na8 O29 2.464939 1_555
Na8 O30 2.464947 1_554
Na8 O16 2.464948 1_555
Na8 O19 2.464948 1_554
Na9 O18 2.464939 1_555
Na9 O17 2.464947 1_555
Na9 O31 2.464948 1_555
Na9 O28 2.464948 1_555
La0 O0 2.512286 1_555
La0 O5 2.512295 1_555
La0 O3 2.512295 1_555
La0 O6 2.512296 1_555
La0 O15 2.515721 1_565
La0 O9 2.515721 1_455
La0 O12 2.515721 1_555
La0 O10 2.515721 1_555
La1 O4 2.512286 1_545
La1 O1 2.512295 1_444
La1 O7 2.512295 1_454
La1 O2 2.512296 1_555
La1 O14 2.515721 1_554
La1 O8 2.515721 1_445
La1 O11 2.515721 1_444
La1 O13 2.515721 1_555
Mo0 O20 1.776639 1_555
Mo0 O28 1.796906 1_555
Mo0 O15 1.812088 1_555
Mo0 O7 1.828805 1_555
Mo1 O21 1.776639 1_554
Mo1 O29 1.796906 1_555
Mo1 O14 1.812088 1_554
Mo1 O6 1.828797 1_555
Mo2 O27 1.776630 1_555
Mo2 O16 1.796906 1_555
Mo2 O8 1.812088 1_555
Mo2 O0 1.828807 1_655
Mo3 O26 1.776639 1_555
Mo3 O17 1.796900 1_555
Mo3 O9 1.812088 1_555
Mo3 O1 1.828805 1_555
Mo4 O25 1.776639 1_555
Mo4 O18 1.796906 1_455
Mo4 O10 1.812088 1_555
Mo4 O2 1.828797 1_555
Mo5 O24 1.776639 1_555
Mo5 O19 1.796906 1_555
Mo5 O11 1.812088 1_555
Mo5 O3 1.828805 1_555
Mo6 O23 1.776630 1_555
Mo6 O31 1.796906 1_565
Mo6 O12 1.812088 1_555
Mo6 O4 1.828807 1_555
Mo7 O22 1.776639 1_556
Mo7 O30 1.796900 1_555
Mo7 O13 1.812088 1_556
Mo7 O5 1.828805 1_545
