# generated using pymatgen
data_Sr3MnF12
_symmetry_space_group_name_H-M   'P 1'
_cell_length_a   7.21463478
_cell_length_b   8.12276055
_cell_length_c   8.95741028
_cell_angle_alpha   116.96268441
_cell_angle_beta   112.07977256
_cell_angle_gamma   33.99927735
_symmetry_Int_Tables_number   1
_chemical_formula_structural   Sr3MnF12
_chemical_formula_sum   'Sr3 Mn1 F12'
_cell_volume   261.62478526
_cell_formula_units_Z   1
loop_
 _symmetry_equiv_pos_site_id
 _symmetry_equiv_pos_as_xyz
  1  'x, y, z'
loop_
 _atom_site_type_symbol
 _atom_site_label
 _atom_site_symmetry_multiplicity
 _atom_site_fract_x
 _atom_site_fract_y
 _atom_site_fract_z
 _atom_site_occupancy
  Sr  Sr0  1  0.50000000  0.00000000  0.00000000  1
  Sr  Sr1  1  0.00000000  0.50000000  0.50000000  1
  Sr  Sr2  1  0.00000000  0.00000000  0.50000000  1
  Mn  Mn0  1  0.00000000  0.00000000  0.00000000  1
  F  F0  1  0.99050800  0.53793300  0.81323500  1
  F  F1  1  0.00949200  0.46206700  0.18676500  1
  F  F2  1  0.66098300  0.99392600  0.49117400  1
  F  F3  1  0.00949200  0.27530200  0.81323500  1
  F  F4  1  0.33901700  0.00607400  0.50882600  1
  F  F5  1  0.99050800  0.72469800  0.18676500  1
  F  F6  1  0.27282900  0.81129800  0.84092100  1
  F  F7  1  0.33901700  0.49724800  0.49117400  1
  F  F8  1  0.72717100  0.18870200  0.15907900  1
  F  F9  1  0.66098300  0.50275200  0.50882600  1
  F  F10  1  0.72717100  0.02962300  0.84092100  1
  F  F11  1  0.27282900  0.97037700  0.15907900  1
loop_
_geom_bond_atom_site_label_1
_geom_bond_atom_site_label_2
_geom_bond_distance
_geom_bond_site_symmetry_2
F0 Sr0 2.478490 1_566
F0 Sr1 2.701389 1_655
F1 Sr0 2.478490 1_555
F1 Sr1 2.701389 1_555
F2 Sr1 2.440600 1_655
F2 Sr2 2.458091 1_665
F2 Sr1 2.670292 1_565
F3 Sr0 2.478490 1_556
F3 Sr2 2.701389 1_555
F4 Sr1 2.440600 1_555
F4 Sr2 2.458091 1_555
F4 Sr1 2.670292 1_645
F5 Sr0 2.478490 1_565
F5 Sr2 2.701389 1_665
F6 Mn0 1.838414 1_566
F6 Sr0 2.737714 1_566
F7 Sr2 2.440600 1_565
F7 Sr1 2.458091 1_555
F7 Sr2 2.670292 1_655
F8 Mn0 1.838414 1_655
F8 Sr0 2.737714 1_555
F9 Sr2 2.440600 1_655
F9 Sr1 2.458091 1_655
F9 Sr2 2.670292 1_565
F10 Mn0 1.838414 1_656
F10 Sr0 2.737714 1_556
F11 Mn0 1.838414 1_565
F11 Sr0 2.737714 1_565
