# generated using pymatgen
data_Lu2CoTe2(SO7)2
_symmetry_space_group_name_H-M   'P 1'
_cell_length_a   5.42695600
_cell_length_b   8.07561355
_cell_length_c   8.11441040
_cell_angle_alpha   112.83152341
_cell_angle_beta   107.37809322
_cell_angle_gamma   96.63936242
_symmetry_Int_Tables_number   1
_chemical_formula_structural   Lu2CoTe2(SO7)2
_chemical_formula_sum   'Lu2 Co1 Te2 S2 O14'
_cell_volume   301.76884199
_cell_formula_units_Z   1
loop_
 _symmetry_equiv_pos_site_id
 _symmetry_equiv_pos_as_xyz
  1  'x, y, z'
loop_
 _atom_site_type_symbol
 _atom_site_label
 _atom_site_symmetry_multiplicity
 _atom_site_fract_x
 _atom_site_fract_y
 _atom_site_fract_z
 _atom_site_occupancy
  Lu  Lu0  1  0.16155800  0.23262100  0.52636800  1
  Lu  Lu1  1  0.83844200  0.76737900  0.47363200  1
  Co  Co0  1  0.50000000  0.50000000  0.00000000  1
  Te  Te0  1  0.13228300  0.76760600  0.15240300  1
  Te  Te1  1  0.86771700  0.23239400  0.84759700  1
  S  S0  1  0.58125500  0.28216600  0.27382500  1
  S  S1  1  0.41874500  0.71783400  0.72617500  1
  O  O0  1  0.36918100  0.18794000  0.31384600  1
  O  O1  1  0.63081900  0.81206000  0.68615400  1
  O  O2  1  0.29069700  0.52425300  0.57156200  1
  O  O3  1  0.70930300  0.47574700  0.42843800  1
  O  O4  1  0.79120800  0.17835500  0.27183800  1
  O  O5  1  0.20879200  0.82164500  0.72816200  1
  O  O6  1  0.45722900  0.28003400  0.08339800  1
  O  O7  1  0.54277100  0.71996600  0.91660200  1
  O  O8  1  0.90039500  0.57878000  0.16483100  1
  O  O9  1  0.09960500  0.42122000  0.83516900  1
  O  O10  1  0.45432000  0.70170200  0.24124000  1
  O  O11  1  0.54568000  0.29829800  0.75876000  1
  O  O12  1  0.12699400  0.92885200  0.39508000  1
  O  O13  1  0.87300600  0.07114800  0.60492000  1
loop_
_geom_bond_atom_site_label_1
_geom_bond_atom_site_label_2
_geom_bond_distance
_geom_bond_site_symmetry_2
Lu0 O11 2.191540 1_555
Lu0 O12 2.221269 1_545
Lu0 O2 2.228618 1_555
Lu0 O4 2.260885 1_455
Lu0 O0 2.268367 1_555
Lu0 O13 2.308244 1_455
Lu0 O9 2.524171 1_555
Lu1 O10 2.191540 1_555
Lu1 O13 2.221269 1_565
Lu1 O3 2.228618 1_555
Lu1 O5 2.260885 1_655
Lu1 O1 2.268367 1_555
Lu1 O12 2.308244 1_655
Lu1 O8 2.524171 1_555
Co0 O8 2.049189 1_555
Co0 O9 2.049189 1_554
Co0 O10 2.110771 1_555
Co0 O11 2.110771 1_554
Co0 O6 2.144451 1_555
Co0 O7 2.144451 1_554
O0 S0 1.490506 1_555
O1 S1 1.490506 1_555
O2 S1 1.485505 1_555
O3 S0 1.485505 1_555
O4 S0 1.490866 1_555
O5 S1 1.490866 1_555
O6 S0 1.482022 1_555
O7 S1 1.482022 1_555
O8 Te0 1.915864 1_655
O9 Te1 1.915864 1_455
O10 Te0 1.901981 1_555
O11 Te1 1.901981 1_555
O12 Te0 1.904363 1_555
O13 Te1 1.904363 1_555
