# generated using pymatgen
data_Mg14CdFeO16
_symmetry_space_group_name_H-M   'P 1'
_cell_length_a   8.63119885
_cell_length_b   8.60254266
_cell_length_c   4.32318103
_cell_angle_alpha   90.00000000
_cell_angle_beta   90.00000000
_cell_angle_gamma   90.00000000
_symmetry_Int_Tables_number   1
_chemical_formula_structural   Mg14CdFeO16
_chemical_formula_sum   'Mg14 Cd1 Fe1 O16'
_cell_volume   320.99729957
_cell_formula_units_Z   1
loop_
 _symmetry_equiv_pos_site_id
 _symmetry_equiv_pos_as_xyz
  1  'x, y, z'
loop_
 _atom_site_type_symbol
 _atom_site_label
 _atom_site_symmetry_multiplicity
 _atom_site_fract_x
 _atom_site_fract_y
 _atom_site_fract_z
 _atom_site_occupancy
  Mg  Mg0  1  0.50000000  0.00000000  0.00000000  1
  Mg  Mg1  1  0.50000000  0.50000000  0.00000000  1
  Mg  Mg2  1  0.00000000  0.24487434  0.50000000  1
  Mg  Mg3  1  0.00000000  0.75512566  0.50000000  1
  Mg  Mg4  1  0.50000000  0.24880629  0.50000000  1
  Mg  Mg5  1  0.50000000  0.75119371  0.50000000  1
  Mg  Mg6  1  0.25015920  0.00000000  0.50000000  1
  Mg  Mg7  1  0.25540436  0.50000000  0.50000000  1
  Mg  Mg8  1  0.74984080  0.00000000  0.50000000  1
  Mg  Mg9  1  0.74459564  0.50000000  0.50000000  1
  Mg  Mg10  1  0.25405522  0.24728072  0.00000000  1
  Mg  Mg11  1  0.25405522  0.75271928  0.00000000  1
  Mg  Mg12  1  0.74594478  0.24728072  0.00000000  1
  Mg  Mg13  1  0.74594478  0.75271928  0.00000000  1
  Cd  Cd0  1  0.00000000  0.50000000  0.00000000  1
  Fe  Fe0  1  0.00000000  0.00000000  0.00000000  1
  O  O0  1  0.25892522  0.00000000  0.00000000  1
  O  O1  1  0.26515585  0.50000000  0.00000000  1
  O  O2  1  0.74107478  0.00000000  0.00000000  1
  O  O3  1  0.73484415  0.50000000  0.00000000  1
  O  O4  1  0.24860923  0.25057467  0.50000000  1
  O  O5  1  0.24860923  0.74942533  0.50000000  1
  O  O6  1  0.75139077  0.25057467  0.50000000  1
  O  O7  1  0.75139077  0.74942533  0.50000000  1
  O  O8  1  0.00000000  0.00000000  0.50000000  1
  O  O9  1  0.00000000  0.50000000  0.50000000  1
  O  O10  1  0.50000000  0.00000000  0.50000000  1
  O  O11  1  0.50000000  0.50000000  0.50000000  1
  O  O12  1  0.00000000  0.23650000  0.00000000  1
  O  O13  1  0.00000000  0.76350000  0.00000000  1
  O  O14  1  0.50000000  0.24866344  0.00000000  1
  O  O15  1  0.50000000  0.75133656  0.00000000  1
loop_
_geom_bond_atom_site_label_1
_geom_bond_atom_site_label_2
_geom_bond_distance
_geom_bond_site_symmetry_2
Mg0 O0 2.080764 1_555
Mg0 O2 2.080764 1_555
Mg0 O15 2.139138 1_545
Mg0 O14 2.139138 1_555
Mg0 O10 2.161591 1_555
Mg0 O10 2.161591 1_554
Mg1 O1 2.026987 1_555
Mg1 O3 2.026987 1_555
Mg1 O11 2.161591 1_554
Mg1 O11 2.161591 1_555
Mg1 O14 2.162133 1_555
Mg1 O15 2.162133 1_555
Mg2 O8 2.106542 1_555
Mg2 O4 2.146356 1_555
Mg2 O6 2.146356 1_455
Mg2 O12 2.162791 1_555
Mg2 O12 2.162791 1_556
Mg2 O9 2.194729 1_555
Mg3 O8 2.106542 1_565
Mg3 O5 2.146356 1_555
Mg3 O7 2.146356 1_455
Mg3 O13 2.162791 1_555
Mg3 O13 2.162791 1_556
Mg3 O9 2.194729 1_555
Mg4 O10 2.140367 1_555
Mg4 O11 2.160905 1_555
Mg4 O14 2.161591 1_556
Mg4 O14 2.161591 1_555
Mg4 O6 2.169857 1_555
Mg4 O4 2.169857 1_555
Mg5 O10 2.140367 1_565
Mg5 O11 2.160905 1_555
Mg5 O15 2.161591 1_555
Mg5 O15 2.161591 1_556
Mg5 O5 2.169857 1_555
Mg5 O7 2.169857 1_555
Mg6 O4 2.155621 1_555
Mg6 O5 2.155621 1_545
Mg6 O10 2.156426 1_555
Mg6 O8 2.159174 1_555
Mg6 O0 2.162914 1_556
Mg6 O0 2.162914 1_555
Mg7 O11 2.111154 1_555
Mg7 O5 2.146493 1_555
Mg7 O4 2.146493 1_555
Mg7 O1 2.163229 1_555
Mg7 O1 2.163229 1_556
Mg7 O9 2.204446 1_555
Mg8 O6 2.155621 1_555
Mg8 O7 2.155621 1_545
Mg8 O10 2.156426 1_555
Mg8 O8 2.159174 1_655
Mg8 O2 2.162914 1_556
Mg8 O2 2.162914 1_555
Mg9 O11 2.111154 1_555
Mg9 O7 2.146493 1_555
Mg9 O6 2.146493 1_555
Mg9 O3 2.163229 1_556
Mg9 O3 2.163229 1_555
Mg9 O9 2.204446 1_655
Mg10 O14 2.122832 1_555
Mg10 O0 2.127658 1_555
Mg10 O4 2.162287 1_554
Mg10 O4 2.162287 1_555
Mg10 O1 2.176139 1_555
Mg10 O12 2.194761 1_555
Mg11 O15 2.122832 1_555
Mg11 O0 2.127658 1_565
Mg11 O5 2.162287 1_555
Mg11 O5 2.162287 1_554
Mg11 O1 2.176139 1_555
Mg11 O13 2.194761 1_555
Mg12 O14 2.122832 1_555
Mg12 O2 2.127658 1_555
Mg12 O6 2.162287 1_555
Mg12 O6 2.162287 1_554
Mg12 O3 2.176139 1_555
Mg12 O12 2.194761 1_655
Mg13 O15 2.122832 1_555
Mg13 O2 2.127658 1_565
Mg13 O7 2.162287 1_555
Mg13 O7 2.162287 1_554
Mg13 O3 2.176139 1_555
Mg13 O13 2.194761 1_655
Cd0 O9 2.161591 1_555
Cd0 O9 2.161591 1_554
Cd0 O13 2.266770 1_555
Cd0 O12 2.266770 1_555
Cd0 O3 2.288613 1_455
Cd0 O1 2.288613 1_555
Fe0 O12 2.034501 1_555
Fe0 O13 2.034501 1_545
Fe0 O8 2.161591 1_554
Fe0 O8 2.161591 1_555
Fe0 O2 2.234835 1_455
Fe0 O0 2.234835 1_555
