# generated using pymatgen
data_Ba2FeGe2O7
_symmetry_space_group_name_H-M   'P 1'
_cell_length_a   8.52623210
_cell_length_b   8.52624090
_cell_length_c   11.01514269
_cell_angle_alpha   90.00020145
_cell_angle_beta   89.99989012
_cell_angle_gamma   90.00001720
_symmetry_Int_Tables_number   1
_chemical_formula_structural   Ba2FeGe2O7
_chemical_formula_sum   'Ba8 Fe4 Ge8 O28'
_cell_volume   800.76462112
_cell_formula_units_Z   4
loop_
 _symmetry_equiv_pos_site_id
 _symmetry_equiv_pos_as_xyz
  1  'x, y, z'
loop_
 _atom_site_type_symbol
 _atom_site_label
 _atom_site_symmetry_multiplicity
 _atom_site_fract_x
 _atom_site_fract_y
 _atom_site_fract_z
 _atom_site_occupancy
  Ba  Ba0  1  0.33374517  0.16631239  0.49615468  1
  Ba  Ba1  1  0.33373805  0.16631841  0.99615139  1
  Ba  Ba2  1  0.16631362  0.66625573  0.00384687  1
  Ba  Ba3  1  0.16631821  0.66626091  0.50384647  1
  Ba  Ba4  1  0.66625729  0.83368647  0.49615297  1
  Ba  Ba5  1  0.66626094  0.83368237  0.99615372  1
  Ba  Ba6  1  0.83368775  0.33374346  0.00384562  1
  Ba  Ba7  1  0.83368005  0.33373937  0.50384661  1
  Fe  Fe0  1  0.49999956  0.49999974  0.74999798  1
  Fe  Fe1  1  -0.00000077  -0.00000100  0.24999957  1
  Fe  Fe2  1  0.50000050  0.50000165  0.25000052  1
  Fe  Fe3  1  -0.00000017  0.00000188  0.75000050  1
  Ge  Ge0  1  0.13841588  0.36171441  0.26520131  1
  Ge  Ge1  1  0.13840740  0.36170795  0.76519496  1
  Ge  Ge2  1  0.36171538  0.86158844  0.23479824  1
  Ge  Ge3  1  0.36170684  0.86159080  0.73480571  1
  Ge  Ge4  1  0.86158790  0.63828249  0.26520249  1
  Ge  Ge5  1  0.86159112  0.63829387  0.76519495  1
  Ge  Ge6  1  0.63828530  0.13841351  0.23479888  1
  Ge  Ge7  1  0.63829286  0.13840740  0.73480435  1
  O  O0  1  0.00000196  0.49999853  0.32771585  1
  O  O1  1  0.00000058  0.50000219  0.82770074  1
  O  O2  1  0.49999789  0.00000326  0.17228357  1
  O  O3  1  0.50000084  0.99999687  0.67229924  1
  O  O4  1  0.13473897  0.36553464  0.10815542  1
  O  O5  1  0.13472873  0.36551720  0.60814019  1
  O  O6  1  0.36553354  0.86526438  0.39184517  1
  O  O7  1  0.36551677  0.86526952  0.89185947  1
  O  O8  1  0.86526248  0.63446488  0.10815453  1
  O  O9  1  0.86527077  0.63448428  0.60814167  1
  O  O10  1  0.63446501  0.13473794  0.39184529  1
  O  O11  1  0.63448339  0.13472921  0.89185803  1
  O  O12  1  0.31306255  0.42089145  0.33762240  1
  O  O13  1  0.31305929  0.42086663  0.83760347  1
  O  O14  1  0.18690765  0.92058477  0.16249766  1
  O  O15  1  0.18691148  0.92060556  0.66250222  1
  O  O16  1  0.68694130  0.57910791  0.33762393  1
  O  O17  1  0.68694135  0.57912805  0.83760433  1
  O  O18  1  0.81309025  0.07941125  0.16249762  1
  O  O19  1  0.81308673  0.07939400  0.66249844  1
  O  O20  1  0.57911336  0.31306391  0.16238008  1
  O  O21  1  0.57912646  0.31305640  0.66239556  1
  O  O22  1  0.92058781  0.81308923  0.33750279  1
  O  O23  1  0.92060248  0.81309076  0.83749900  1
  O  O24  1  0.42089374  0.68694168  0.16237830  1
  O  O25  1  0.42086615  0.68693939  0.66239491  1
  O  O26  1  0.07941408  0.18690765  0.33750075  1
  O  O27  1  0.07939151  0.18691519  0.83750061  1
loop_
_geom_bond_atom_site_label_1
_geom_bond_atom_site_label_2
_geom_bond_distance
_geom_bond_site_symmetry_2
Ba0 O5 2.699207 1_555
Ba0 O3 2.790141 1_545
Ba0 O26 2.790569 1_555
Ba0 O12 2.791424 1_555
Ba0 O10 2.822544 1_555
Ba0 O6 2.825262 1_545
Ba0 O21 3.048904 1_555
Ba0 O15 3.051832 1_545
Ba1 O4 2.699269 1_556
Ba1 O2 2.790063 1_556
Ba1 O27 2.790650 1_555
Ba1 O13 2.791325 1_555
Ba1 O11 2.822682 1_555
Ba1 O7 2.825182 1_545
Ba1 O20 3.048794 1_556
Ba1 O14 3.051970 1_546
Ba2 O7 2.699199 1_554
Ba2 O1 2.790126 1_554
Ba2 O14 2.790527 1_555
Ba2 O24 2.791423 1_555
Ba2 O4 2.822558 1_555
Ba2 O8 2.825280 1_455
Ba2 O13 3.048968 1_554
Ba2 O23 3.051866 1_454
Ba3 O6 2.699279 1_555
Ba3 O0 2.790059 1_555
Ba3 O15 2.790664 1_555
Ba3 O25 2.791322 1_555
Ba3 O5 2.822679 1_555
Ba3 O9 2.825184 1_455
Ba3 O12 3.048721 1_555
Ba3 O22 3.051928 1_455
Ba4 O9 2.699202 1_555
Ba4 O3 2.790125 1_555
Ba4 O22 2.790534 1_555
Ba4 O16 2.791389 1_555
Ba4 O6 2.822575 1_555
Ba4 O10 2.825292 1_565
Ba4 O25 3.048980 1_555
Ba4 O19 3.051802 1_565
Ba5 O8 2.699281 1_556
Ba5 O2 2.790073 1_566
Ba5 O23 2.790636 1_555
Ba5 O17 2.791367 1_555
Ba5 O7 2.822680 1_555
Ba5 O11 2.825190 1_565
Ba5 O24 3.048703 1_556
Ba5 O18 3.051916 1_566
Ba6 O11 2.699206 1_554
Ba6 O1 2.790141 1_654
Ba6 O18 2.790567 1_555
Ba6 O20 2.791398 1_555
Ba6 O8 2.822556 1_555
Ba6 O4 2.825293 1_655
Ba6 O17 3.048942 1_554
Ba6 O27 3.051770 1_654
Ba7 O10 2.699264 1_555
Ba7 O0 2.790074 1_655
Ba7 O19 2.790651 1_555
Ba7 O21 2.791361 1_555
Ba7 O9 2.822689 1_555
Ba7 O5 2.825190 1_655
Ba7 O16 3.048698 1_555
Ba7 O26 3.051965 1_655
Fe0 O21 1.981634 1_555
Fe0 O25 1.981638 1_555
Fe0 O13 1.981649 1_555
Fe0 O17 1.981651 1_555
Fe1 O14 1.981691 1_545
Fe1 O26 1.981692 1_555
Fe1 O18 1.981695 1_455
Fe1 O22 1.981705 1_445
Fe2 O20 1.981652 1_555
Fe2 O12 1.981655 1_555
Fe2 O24 1.981666 1_555
Fe2 O16 1.981672 1_555
Fe3 O15 1.981642 1_545
Fe3 O23 1.981648 1_445
Fe3 O27 1.981651 1_555
Fe3 O19 1.981665 1_455
Ge0 O4 1.730474 1_555
Ge0 O12 1.763038 1_555
Ge0 O26 1.763162 1_555
Ge0 O0 1.804735 1_555
Ge1 O5 1.730570 1_555
Ge1 O13 1.762968 1_555
Ge1 O27 1.763126 1_555
Ge1 O1 1.804715 1_555
Ge2 O6 1.730484 1_555
Ge2 O24 1.763035 1_555
Ge2 O14 1.763160 1_555
Ge2 O2 1.804734 1_565
Ge3 O7 1.730559 1_555
Ge3 O25 1.762976 1_555
Ge3 O15 1.763130 1_555
Ge3 O3 1.804715 1_555
Ge4 O8 1.730495 1_555
Ge4 O16 1.763033 1_555
Ge4 O22 1.763157 1_555
Ge4 O0 1.804735 1_655
Ge5 O9 1.730553 1_555
Ge5 O17 1.762974 1_555
Ge5 O23 1.763133 1_555
Ge5 O1 1.804720 1_655
Ge6 O10 1.730479 1_555
Ge6 O20 1.763045 1_555
Ge6 O18 1.763154 1_555
Ge6 O2 1.804737 1_555
Ge7 O11 1.730558 1_555
Ge7 O21 1.762972 1_555
Ge7 O19 1.763124 1_555
Ge7 O3 1.804721 1_545
