# generated using pymatgen
data_V11ReB8
_symmetry_space_group_name_H-M   'P 1'
_cell_length_a   3.03027600
_cell_length_b   5.75148500
_cell_length_c   11.50432111
_cell_angle_alpha   89.99191686
_cell_angle_beta   90.00000000
_cell_angle_gamma   90.00000000
_symmetry_Int_Tables_number   1
_chemical_formula_structural   V11ReB8
_chemical_formula_sum   'V11 Re1 B8'
_cell_volume   200.50405896
_cell_formula_units_Z   1
loop_
 _symmetry_equiv_pos_site_id
 _symmetry_equiv_pos_as_xyz
  1  'x, y, z'
loop_
 _atom_site_type_symbol
 _atom_site_label
 _atom_site_symmetry_multiplicity
 _atom_site_fract_x
 _atom_site_fract_y
 _atom_site_fract_z
 _atom_site_occupancy
  V  V0  1  0.50000000  0.82712900  0.09079100  1
  V  V1  1  0.50000000  0.82215400  0.58838400  1
  V  V2  1  0.50000000  0.17287100  0.90920900  1
  V  V3  1  0.50000000  0.17784600  0.41161600  1
  V  V4  1  0.50000000  0.68010700  0.83626100  1
  V  V5  1  0.50000000  0.67818600  0.33902000  1
  V  V6  1  0.50000000  0.31989300  0.16373900  1
  V  V7  1  0.50000000  0.32181400  0.66098000  1
  V  V8  1  0.00000000  0.50000000  0.50000000  1
  V  V9  1  0.00000000  0.00025800  0.74880400  1
  V  V10  1  0.00000000  0.99974200  0.25119600  1
  Re  Re0  1  0.00000000  0.50000000  0.00000000  1
  B  B0  1  0.00000000  0.38834900  0.80452600  1
  B  B1  1  0.00000000  0.38844100  0.30671900  1
  B  B2  1  0.00000000  0.61165100  0.19547400  1
  B  B3  1  0.00000000  0.61155900  0.69328100  1
  B  B4  1  0.00000000  0.11106400  0.05610600  1
  B  B5  1  0.00000000  0.11097700  0.55538900  1
  B  B6  1  0.00000000  0.88893600  0.94389400  1
  B  B7  1  0.00000000  0.88902300  0.44461100  1
loop_
_geom_bond_atom_site_label_1
_geom_bond_atom_site_label_2
_geom_bond_distance
_geom_bond_site_symmetry_2
Re0 V6 2.629923 1_555
Re0 V6 2.629923 1_455
Re0 V4 2.629923 1_454
Re0 V4 2.629923 1_554
Re0 V0 2.631941 1_455
Re0 V0 2.631941 1_555
Re0 V2 2.631941 1_554
Re0 V2 2.631941 1_454
B0 B3 1.812604 1_555
B0 V7 2.273627 1_555
B0 V7 2.273627 1_455
B0 V4 2.290181 1_555
B0 V4 2.290181 1_455
B0 V2 2.298149 1_555
B0 V2 2.298149 1_455
B0 V9 2.322415 1_555
B0 Re0 2.338773 1_556
B1 B2 1.812604 1_555
B1 V6 2.270885 1_555
B1 V6 2.270885 1_455
B1 V5 2.282763 1_555
B1 V5 2.282763 1_455
B1 V3 2.284428 1_455
B1 V3 2.284428 1_555
B1 V8 2.314377 1_555
B1 V10 2.325146 1_545
B2 V5 2.273627 1_455
B2 V5 2.273627 1_555
B2 V6 2.290181 1_555
B2 V6 2.290181 1_455
B2 V0 2.298149 1_555
B2 V0 2.298149 1_455
B2 V10 2.322415 1_555
B2 Re0 2.338773 1_555
B3 V4 2.270885 1_555
B3 V4 2.270885 1_455
B3 V7 2.282763 1_555
B3 V7 2.282763 1_455
B3 V1 2.284428 1_455
B3 V1 2.284428 1_555
B3 V8 2.314377 1_555
B3 V9 2.325146 1_565
B4 B6 1.816348 1_544
B4 V0 2.263079 1_445
B4 V0 2.263079 1_545
B4 V6 2.296061 1_455
B4 V6 2.296061 1_555
B4 V2 2.297340 1_554
B4 V2 2.297340 1_454
B4 Re0 2.328133 1_555
B4 V10 2.333831 1_545
B5 B7 1.803951 1_545
B5 V3 2.275770 1_555
B5 V3 2.275770 1_455
B5 V1 2.280133 1_545
B5 V1 2.280133 1_445
B5 V7 2.289573 1_555
B5 V7 2.289573 1_455
B5 V9 2.314351 1_555
B5 V8 2.326342 1_555
B6 V2 2.263079 1_565
B6 V2 2.263079 1_465
B6 V4 2.296061 1_455
B6 V4 2.296061 1_555
B6 V0 2.297340 1_456
B6 V0 2.297340 1_556
B6 Re0 2.328133 1_556
B6 V9 2.333831 1_565
B7 V1 2.275770 1_555
B7 V1 2.275770 1_455
B7 V3 2.280133 1_565
B7 V3 2.280133 1_465
B7 V5 2.289573 1_555
B7 V5 2.289573 1_455
B7 V10 2.314351 1_555
B7 V8 2.326342 1_555
