# generated using pymatgen
data_ThAg3
_symmetry_space_group_name_H-M   'P 1'
_cell_length_a   6.56283043
_cell_length_b   6.56283043
_cell_length_c   4.87680900
_cell_angle_alpha   90.00000000
_cell_angle_beta   90.00000000
_cell_angle_gamma   120.00000436
_symmetry_Int_Tables_number   1
_chemical_formula_structural   ThAg3
_chemical_formula_sum   'Th2 Ag6'
_cell_volume   181.90671285
_cell_formula_units_Z   2
loop_
 _symmetry_equiv_pos_site_id
 _symmetry_equiv_pos_as_xyz
  1  'x, y, z'
loop_
 _atom_site_type_symbol
 _atom_site_label
 _atom_site_symmetry_multiplicity
 _atom_site_fract_x
 _atom_site_fract_y
 _atom_site_fract_z
 _atom_site_occupancy
  Th  Th0  1  0.33333300  0.66666700  0.75000000  1
  Th  Th1  1  0.66666700  0.33333300  0.25000000  1
  Ag  Ag0  1  0.15116200  0.30232400  0.25000000  1
  Ag  Ag1  1  0.69767600  0.84883800  0.25000000  1
  Ag  Ag2  1  0.15116200  0.84883800  0.25000000  1
  Ag  Ag3  1  0.84883800  0.69767600  0.75000000  1
  Ag  Ag4  1  0.30232400  0.15116200  0.75000000  1
  Ag  Ag5  1  0.84883800  0.15116200  0.75000000  1
loop_
_geom_bond_atom_site_label_1
_geom_bond_atom_site_label_2
_geom_bond_distance
_geom_bond_site_symmetry_2
Ag0 Ag1 2.976152 1_445
Ag0 Ag2 2.976152 1_545
Ag0 Ag5 2.983003 1_454
Ag0 Ag5 2.983003 1_455
Ag0 Ag4 2.983003 1_555
Ag0 Ag4 2.983003 1_554
Ag0 Th0 3.199049 1_554
Ag0 Th0 3.199049 1_555
Ag0 Th1 3.286141 1_455
Ag0 Th1 3.286148 1_555
Ag1 Ag2 2.976152 1_655
Ag1 Ag5 2.983003 1_565
Ag1 Ag5 2.983003 1_564
Ag1 Ag3 2.983003 1_555
Ag1 Ag3 2.983003 1_554
Ag1 Th0 3.199049 1_554
Ag1 Th0 3.199049 1_555
Ag1 Th1 3.286141 1_565
Ag1 Th1 3.286148 1_555
Ag2 Ag3 2.983003 1_455
Ag2 Ag4 2.983003 1_564
Ag2 Ag3 2.983003 1_454
Ag2 Ag4 2.983003 1_565
Ag2 Th0 3.199045 1_555
Ag2 Th0 3.199045 1_554
Ag2 Th1 3.286145 1_455
Ag2 Th1 3.286145 1_565
Ag3 Ag4 2.976152 1_665
Ag3 Ag5 2.976152 1_565
Ag3 Th1 3.199049 1_555
Ag3 Th1 3.199049 1_556
Ag3 Th0 3.286141 1_655
Ag3 Th0 3.286148 1_555
Ag4 Ag5 2.976152 1_455
Ag4 Th1 3.199049 1_555
Ag4 Th1 3.199049 1_556
Ag4 Th0 3.286141 1_545
Ag4 Th0 3.286148 1_555
Ag5 Th1 3.199045 1_556
Ag5 Th1 3.199045 1_555
Ag5 Th0 3.286145 1_545
Ag5 Th0 3.286145 1_655
