# generated using pymatgen
data_Rb3TiF7
_symmetry_space_group_name_H-M   'P 1'
_cell_length_a   8.06004715
_cell_length_b   8.06004715
_cell_length_c   5.93620680
_cell_angle_alpha   90.00000000
_cell_angle_beta   90.00000000
_cell_angle_gamma   90.00000000
_symmetry_Int_Tables_number   1
_chemical_formula_structural   Rb3TiF7
_chemical_formula_sum   'Rb6 Ti2 F14'
_cell_volume   385.64187595
_cell_formula_units_Z   2
loop_
 _symmetry_equiv_pos_site_id
 _symmetry_equiv_pos_as_xyz
  1  'x, y, z'
loop_
 _atom_site_type_symbol
 _atom_site_label
 _atom_site_symmetry_multiplicity
 _atom_site_fract_x
 _atom_site_fract_y
 _atom_site_fract_z
 _atom_site_occupancy
  Rb  Rb0  1  0.18921034  0.68921034  0.50000000  1
  Rb  Rb1  1  0.68921034  0.81078966  0.50000000  1
  Rb  Rb2  1  0.31078966  0.18921034  0.50000000  1
  Rb  Rb3  1  0.81078966  0.31078966  0.50000000  1
  Rb  Rb4  1  0.50000000  0.50000000  0.00000000  1
  Rb  Rb5  1  -0.00000000  0.00000000  0.00000000  1
  Ti  Ti0  1  -0.00000000  0.50000000  0.00000000  1
  Ti  Ti1  1  0.50000000  0.00000000  0.00000000  1
  F  F0  1  0.38602257  0.88602257  0.77229645  1
  F  F1  1  0.61397743  0.11397743  0.77229645  1
  F  F2  1  0.11397743  0.38602257  0.77229645  1
  F  F3  1  0.88602257  0.61397743  0.77229645  1
  F  F4  1  0.38602257  0.88602257  0.22770355  1
  F  F5  1  0.88602257  0.61397743  0.22770355  1
  F  F6  1  0.11397743  0.38602257  0.22770355  1
  F  F7  1  0.61397743  0.11397743  0.22770355  1
  F  F8  1  -0.00000000  0.00000000  0.50000000  1
  F  F9  1  0.50000000  0.50000000  0.50000000  1
  F  F10  1  0.83548144  0.33548144  0.00000000  1
  F  F11  1  0.33548144  0.16451856  0.00000000  1
  F  F12  1  0.66451856  0.83548144  0.00000000  1
  F  F13  1  0.16451856  0.66451856  0.00000000  1
loop_
_geom_bond_atom_site_label_1
_geom_bond_atom_site_label_2
_geom_bond_distance
_geom_bond_site_symmetry_2
F0 Ti1 1.874824 1_566
F0 Rb0 2.765063 1_555
F0 Rb2 2.992019 1_565
F0 Rb1 2.992019 1_555
F1 Ti1 1.874824 1_556
F1 Rb3 2.765063 1_555
F1 Rb1 2.992019 1_545
F1 Rb2 2.992019 1_555
F2 Ti0 1.874824 1_556
F2 Rb2 2.765063 1_555
F2 Rb0 2.992019 1_555
F2 Rb3 2.992019 1_455
F3 Ti0 1.874824 1_656
F3 Rb1 2.765063 1_555
F3 Rb0 2.992019 1_655
F3 Rb3 2.992019 1_555
F4 Ti1 1.874824 1_565
F4 Rb0 2.765063 1_555
F4 Rb2 2.992019 1_565
F4 Rb1 2.992019 1_555
F5 Ti0 1.874824 1_655
F5 Rb1 2.765063 1_555
F5 Rb0 2.992019 1_655
F5 Rb3 2.992019 1_555
F6 Ti0 1.874824 1_555
F6 Rb2 2.765063 1_555
F6 Rb0 2.992019 1_555
F6 Rb3 2.992019 1_455
F7 Ti1 1.874824 1_555
F7 Rb3 2.765063 1_555
F7 Rb1 2.992019 1_545
F7 Rb2 2.992019 1_555
F8 Rb0 2.932692 1_545
F8 Rb1 2.932692 1_445
F8 Rb2 2.932692 1_555
F8 Rb3 2.932692 1_455
F8 Rb5 2.968103 1_556
F8 Rb5 2.968103 1_555
F9 Rb0 2.932692 1_555
F9 Rb1 2.932692 1_555
F9 Rb2 2.932692 1_555
F9 Rb3 2.932692 1_555
F9 Rb4 2.968103 1_555
F9 Rb4 2.968103 1_556
F10 Ti0 1.875286 1_655
F10 Rb3 2.981418 1_554
F10 Rb3 2.981418 1_555
F10 Rb4 3.011635 1_555
F10 Rb5 3.011635 1_655
F11 Ti1 1.875286 1_555
F11 Rb2 2.981418 1_554
F11 Rb2 2.981418 1_555
F11 Rb4 3.011635 1_555
F11 Rb5 3.011635 1_555
F12 Ti1 1.875286 1_565
F12 Rb1 2.981418 1_555
F12 Rb1 2.981418 1_554
F12 Rb4 3.011635 1_555
F12 Rb5 3.011635 1_665
F13 Ti0 1.875286 1_555
F13 Rb0 2.981418 1_555
F13 Rb0 2.981418 1_554
F13 Rb4 3.011635 1_555
F13 Rb5 3.011635 1_565
