# generated using pymatgen
data_Sr2NbCoO6
_symmetry_space_group_name_H-M   'P 1'
_cell_length_a   5.68535208
_cell_length_b   11.36238008
_cell_length_c   7.97028101
_cell_angle_alpha   90.00139129
_cell_angle_beta   90.00564031
_cell_angle_gamma   90.00441269
_symmetry_Int_Tables_number   1
_chemical_formula_structural   Sr2NbCoO6
_chemical_formula_sum   'Sr8 Nb4 Co4 O24'
_cell_volume   514.87322462
_cell_formula_units_Z   4
loop_
 _symmetry_equiv_pos_site_id
 _symmetry_equiv_pos_as_xyz
  1  'x, y, z'
loop_
 _atom_site_type_symbol
 _atom_site_label
 _atom_site_symmetry_multiplicity
 _atom_site_fract_x
 _atom_site_fract_y
 _atom_site_fract_z
 _atom_site_occupancy
  Sr  Sr0  1  0.99982200  0.49852300  0.00066900  1
  Sr  Sr1  1  0.49980100  0.75143100  0.50052400  1
  Sr  Sr2  1  0.00326400  0.00197500  0.99956300  1
  Sr  Sr3  1  0.50347500  0.24799500  0.49956900  1
  Sr  Sr4  1  0.99977000  0.49851600  0.49924900  1
  Sr  Sr5  1  0.49977700  0.75141700  0.99936500  1
  Sr  Sr6  1  0.00327600  0.00198300  0.50037100  1
  Sr  Sr7  1  0.50347000  0.24800600  0.00038500  1
  Nb  Nb0  1  0.50136200  0.50032100  0.24993900  1
  Nb  Nb1  1  0.00174200  0.74957400  0.74992800  1
  Nb  Nb2  1  0.50204300  0.99856000  0.25000200  1
  Nb  Nb3  1  0.00159400  0.25145000  0.75000900  1
  Co  Co0  1  0.50165900  0.49921900  0.74993400  1
  Co  Co1  1  0.00185100  0.75075400  0.24991600  1
  Co  Co2  1  0.50189300  0.00168800  0.75000300  1
  Co  Co3  1  0.00195600  0.24818600  0.25001100  1
  O  O0  1  0.50335500  0.50064100  0.50535200  1
  O  O1  1  0.00394800  0.74953700  0.00535600  1
  O  O2  1  0.49209600  0.00005300  0.49895000  1
  O  O3  1  0.99128500  0.24997600  0.99898300  1
  O  O4  1  0.50388000  0.50052700  0.99468000  1
  O  O5  1  0.00436200  0.74936300  0.49469000  1
  O  O6  1  0.49187100  0.99995300  0.00107800  1
  O  O7  1  0.99113500  0.24991500  0.50105000  1
  O  O8  1  0.75573900  0.37432200  0.25006500  1
  O  O9  1  0.25384200  0.62789800  0.75022700  1
  O  O10  1  0.74663400  0.87544200  0.25010000  1
  O  O11  1  0.23968900  0.12352100  0.74998700  1
  O  O12  1  0.25678100  0.62404700  0.24985300  1
  O  O13  1  0.75760700  0.87438500  0.74995300  1
  O  O14  1  0.24069200  0.12903100  0.25002600  1
  O  O15  1  0.74492300  0.37200800  0.74995300  1
  O  O16  1  0.25654600  0.37575200  0.25008200  1
  O  O17  1  0.75777100  0.62567500  0.75000300  1
  O  O18  1  0.24584400  0.87784500  0.25011200  1
  O  O19  1  0.73967400  0.12125500  0.75017400  1
  O  O20  1  0.75288200  0.62236600  0.25006900  1
  O  O21  1  0.25682700  0.87554800  0.74993900  1
  O  O22  1  0.74032600  0.12649100  0.24989500  1
  O  O23  1  0.24553800  0.37484800  0.74998500  1
loop_
_geom_bond_atom_site_label_1
_geom_bond_atom_site_label_2
_geom_bond_distance
_geom_bond_site_symmetry_2
Nb0 O12 1.977424 1_555
Nb0 O16 1.985030 1_555
Nb0 O20 1.991867 1_555
Nb0 O4 2.034539 1_554
Nb0 O8 2.035067 1_555
Nb0 O0 2.035747 1_555
Nb1 O17 1.976235 1_455
Nb1 O13 1.984434 1_455
Nb1 O9 1.991477 1_555
Nb1 O5 2.034376 1_555
Nb1 O1 2.035870 1_556
Nb1 O21 2.037573 1_555
Nb2 O10 1.972559 1_555
Nb2 O6 1.984895 1_555
Nb2 O2 1.985069 1_565
Nb2 O22 1.986939 1_565
Nb2 O18 2.000659 1_555
Nb2 O14 2.099011 1_565
Nb3 O23 1.972076 1_555
Nb3 O7 1.985234 1_455
Nb3 O3 1.985335 1_455
Nb3 O11 1.986346 1_555
Nb3 O15 2.001546 1_455
Nb3 O19 2.098930 1_455
Co0 O0 1.949479 1_555
Co0 O4 1.950790 1_555
Co0 O15 2.000587 1_555
Co0 O23 2.029043 1_555
Co0 O9 2.030550 1_555
Co0 O17 2.045576 1_555
Co1 O1 1.949298 1_555
Co1 O5 1.951033 1_555
Co1 O18 2.002318 1_555
Co1 O10 2.028029 1_455
Co1 O20 2.032569 1_455
Co1 O12 2.042964 1_555
Co2 O19 1.916499 1_555
Co2 O21 1.998786 1_545
Co2 O2 2.001818 1_555
Co2 O6 2.002052 1_546
Co2 O11 2.034427 1_555
Co2 O13 2.050900 1_545
Co3 O14 1.917171 1_555
Co3 O3 2.001781 1_454
Co3 O7 2.001899 1_455
Co3 O8 2.003475 1_455
Co3 O22 2.030813 1_455
Co3 O16 2.048330 1_555
O0 Sr4 2.822823 1_555
O0 Sr1 2.849905 1_555
O0 Sr4 2.863566 1_455
O0 Sr3 2.871029 1_555
O1 Sr5 2.819451 1_554
O1 Sr0 2.852455 1_455
O1 Sr5 2.866864 1_454
O1 Sr2 2.868672 1_564
O2 Sr6 2.779226 1_555
O2 Sr3 2.817953 1_555
O2 Sr1 2.825309 1_545
O2 Sr6 2.906340 1_655
O3 Sr7 2.773512 1_556
O3 Sr2 2.818714 1_655
O3 Sr0 2.824530 1_556
O3 Sr7 2.912060 1_656
O4 Sr0 2.820098 1_556
O4 Sr5 2.851048 1_555
O4 Sr0 2.866238 1_456
O4 Sr7 2.869602 1_556
O5 Sr1 2.817221 1_555
O5 Sr4 2.850569 1_455
O5 Sr1 2.869086 1_455
O5 Sr6 2.870728 1_565
O6 Sr2 2.778025 1_564
O6 Sr7 2.819244 1_565
O6 Sr5 2.824354 1_554
O6 Sr2 2.907565 1_664
O7 Sr3 2.772627 1_555
O7 Sr6 2.817954 1_655
O7 Sr4 2.825159 1_555
O7 Sr3 2.912942 1_655
O8 Sr4 2.803512 1_555
O8 Sr0 2.805138 1_555
O8 Sr3 2.841169 1_555
O8 Sr7 2.841856 1_555
O9 Sr5 2.804779 1_555
O9 Sr1 2.808360 1_555
O9 Sr0 2.869040 1_456
O9 Sr4 2.871955 1_455
O10 Sr1 2.817622 1_555
O10 Sr5 2.819281 1_554
O10 Sr6 2.859051 1_665
O10 Sr2 2.860700 1_664
O11 Sr6 2.769628 1_555
O11 Sr2 2.769715 1_555
O11 Sr7 2.869086 1_556
O11 Sr3 2.869403 1_555
O12 Sr5 2.826532 1_554
O12 Sr1 2.827469 1_555
O12 Sr0 2.848133 1_455
O12 Sr4 2.849751 1_455
O13 Sr2 2.830068 1_665
O13 Sr6 2.830234 1_665
O13 Sr1 2.837477 1_555
O13 Sr5 2.837780 1_555
O14 Sr6 2.808470 1_555
O14 Sr2 2.808979 1_554
O14 Sr3 2.830904 1_555
O14 Sr7 2.831750 1_555
O15 Sr3 2.802041 1_555
O15 Sr7 2.802506 1_556
O15 Sr4 2.856331 1_555
O15 Sr0 2.856339 1_556
O16 Sr4 2.832241 1_455
O16 Sr0 2.833349 1_455
O16 Sr3 2.834087 1_555
O16 Sr7 2.835328 1_555
O17 Sr0 2.823562 1_556
O17 Sr4 2.824097 1_555
O17 Sr5 2.853697 1_555
O17 Sr1 2.854203 1_555
O18 Sr6 2.805470 1_565
O18 Sr2 2.806958 1_564
O18 Sr1 2.851513 1_555
O18 Sr5 2.853543 1_554
O19 Sr7 2.802726 1_556
O19 Sr3 2.804745 1_555
O19 Sr2 2.834337 1_655
O19 Sr6 2.836806 1_655
O20 Sr4 2.809759 1_555
O20 Sr0 2.811253 1_555
O20 Sr1 2.864687 1_555
O20 Sr5 2.865910 1_554
O21 Sr5 2.801640 1_555
O21 Sr1 2.801709 1_555
O21 Sr6 2.845759 1_565
O21 Sr2 2.846210 1_565
O22 Sr7 2.770265 1_555
O22 Sr3 2.771270 1_555
O22 Sr2 2.866711 1_654
O22 Sr6 2.867343 1_655
O23 Sr0 2.814085 1_456
O23 Sr4 2.814339 1_455
O23 Sr7 2.865398 1_556
O23 Sr3 2.865716 1_555
