# generated using pymatgen
data_Ca4PbN4
_symmetry_space_group_name_H-M   'P 1'
_cell_length_a   11.96046500
_cell_length_b   3.59647000
_cell_length_c   16.13300000
_cell_angle_alpha   90.00000000
_cell_angle_beta   90.00000000
_cell_angle_gamma   90.00000000
_symmetry_Int_Tables_number   1
_chemical_formula_structural   Ca4PbN4
_chemical_formula_sum   'Ca16 Pb4 N16'
_cell_volume   693.96831226
_cell_formula_units_Z   4
loop_
 _symmetry_equiv_pos_site_id
 _symmetry_equiv_pos_as_xyz
  1  'x, y, z'
loop_
 _atom_site_type_symbol
 _atom_site_label
 _atom_site_symmetry_multiplicity
 _atom_site_fract_x
 _atom_site_fract_y
 _atom_site_fract_z
 _atom_site_occupancy
  Ca  Ca0  1  0.13003800  0.25000000  0.20607900  1
  Ca  Ca1  1  0.63003800  0.25000000  0.29392100  1
  Ca  Ca2  1  0.86996200  0.75000000  0.79392100  1
  Ca  Ca3  1  0.36996200  0.75000000  0.70607900  1
  Ca  Ca4  1  0.90201800  0.25000000  0.07114600  1
  Ca  Ca5  1  0.40201800  0.25000000  0.42885400  1
  Ca  Ca6  1  0.09798200  0.75000000  0.92885400  1
  Ca  Ca7  1  0.59798200  0.75000000  0.57114600  1
  Ca  Ca8  1  0.36067800  0.25000000  0.86924500  1
  Ca  Ca9  1  0.86067800  0.25000000  0.63075500  1
  Ca  Ca10  1  0.63932200  0.75000000  0.13075500  1
  Ca  Ca11  1  0.13932200  0.75000000  0.36924500  1
  Ca  Ca12  1  0.11427900  0.25000000  0.75048300  1
  Ca  Ca13  1  0.61427900  0.25000000  0.74951700  1
  Ca  Ca14  1  0.88572100  0.75000000  0.24951700  1
  Ca  Ca15  1  0.38572100  0.75000000  0.25048300  1
  Pb  Pb0  1  0.40365100  0.25000000  0.06871900  1
  Pb  Pb1  1  0.90365100  0.25000000  0.43128100  1
  Pb  Pb2  1  0.59634900  0.75000000  0.93128100  1
  Pb  Pb3  1  0.09634900  0.75000000  0.56871900  1
  N  N0  1  0.76647200  0.25000000  0.18424400  1
  N  N1  1  0.26647200  0.25000000  0.31575600  1
  N  N2  1  0.23352800  0.75000000  0.81575600  1
  N  N3  1  0.73352800  0.75000000  0.68424400  1
  N  N4  1  0.98146500  0.25000000  0.86165400  1
  N  N5  1  0.48146500  0.25000000  0.63834600  1
  N  N6  1  0.01853500  0.75000000  0.13834600  1
  N  N7  1  0.51853500  0.75000000  0.36165400  1
  N  N8  1  0.94656600  0.25000000  0.93634700  1
  N  N9  1  0.44656600  0.25000000  0.56365300  1
  N  N10  1  0.05343400  0.75000000  0.06365300  1
  N  N11  1  0.55343400  0.75000000  0.43634700  1
  N  N12  1  0.00594200  0.25000000  0.31607400  1
  N  N13  1  0.50594200  0.25000000  0.18392600  1
  N  N14  1  0.99405800  0.75000000  0.68392600  1
  N  N15  1  0.49405800  0.75000000  0.81607400  1
loop_
_geom_bond_atom_site_label_1
_geom_bond_atom_site_label_2
_geom_bond_distance
_geom_bond_site_symmetry_2
Ca0 N12 2.313441 1_555
Ca0 N1 2.407002 1_555
Ca0 N6 2.491242 1_555
Ca0 N6 2.491242 1_545
Ca1 N13 2.313441 1_555
Ca1 N0 2.407002 1_555
Ca1 N7 2.491242 1_545
Ca1 N7 2.491242 1_555
Ca2 N14 2.313441 1_555
Ca2 N3 2.407002 1_555
Ca2 N4 2.491242 1_565
Ca2 N4 2.491242 1_555
Ca3 N15 2.313441 1_555
Ca3 N2 2.407002 1_555
Ca3 N5 2.491242 1_565
Ca3 N5 2.491242 1_555
Ca4 N8 2.239032 1_554
Ca4 N0 2.440793 1_555
Ca4 N6 2.520142 1_655
Ca4 N6 2.520142 1_645
Ca4 N10 2.554996 1_645
Ca4 N10 2.554996 1_655
Ca5 N9 2.239032 1_555
Ca5 N1 2.440793 1_555
Ca5 N7 2.520142 1_545
Ca5 N7 2.520142 1_555
Ca5 N11 2.554996 1_545
Ca5 N11 2.554996 1_555
Ca6 N10 2.239032 1_556
Ca6 N2 2.440793 1_555
Ca6 N4 2.520142 1_455
Ca6 N4 2.520142 1_465
Ca6 N8 2.554996 1_455
Ca6 N8 2.554996 1_465
Ca7 N11 2.239032 1_555
Ca7 N3 2.440793 1_555
Ca7 N5 2.520142 1_555
Ca7 N5 2.520142 1_565
Ca7 N9 2.554996 1_555
Ca7 N9 2.554996 1_565
Ca8 N2 2.508199 1_545
Ca8 N2 2.508199 1_555
Ca8 N15 2.552337 1_555
Ca8 N15 2.552337 1_545
Ca8 Pb0 3.258900 1_556
Ca9 N3 2.508199 1_545
Ca9 N3 2.508199 1_555
Ca9 N14 2.552337 1_555
Ca9 N14 2.552337 1_545
Ca9 Pb1 3.258900 1_555
Ca10 N0 2.508199 1_555
Ca10 N0 2.508199 1_565
Ca10 N13 2.552337 1_565
Ca10 N13 2.552337 1_555
Ca10 Pb2 3.258900 1_554
Ca11 N1 2.508199 1_555
Ca11 N1 2.508199 1_565
Ca11 N12 2.552337 1_565
Ca11 N12 2.552337 1_555
Ca11 Pb3 3.258900 1_555
Ca12 N4 2.395852 1_455
Ca12 N2 2.525236 1_545
Ca12 N2 2.525236 1_555
Ca12 N14 2.540506 1_445
Ca12 N14 2.540506 1_455
Ca13 N5 2.395852 1_555
Ca13 N3 2.525236 1_545
Ca13 N3 2.525236 1_555
Ca13 N15 2.540506 1_545
Ca13 N15 2.540506 1_555
Ca14 N6 2.395852 1_655
Ca14 N0 2.525236 1_555
Ca14 N0 2.525236 1_565
Ca14 N12 2.540506 1_655
Ca14 N12 2.540506 1_665
Ca15 N7 2.395852 1_555
Ca15 N1 2.525236 1_555
Ca15 N1 2.525236 1_565
Ca15 N13 2.540506 1_555
Ca15 N13 2.540506 1_565
N4 N8 1.275268 1_555
N5 N9 1.275268 1_555
N10 N6 1.275268 1_555
N11 N7 1.275268 1_555
N12 Pb1 2.225162 1_455
N13 Pb0 2.225162 1_555
N14 Pb3 2.225162 1_655
N15 Pb2 2.225162 1_555
