# generated using pymatgen
data_Na2UTeO7
_symmetry_space_group_name_H-M   'P 1'
_cell_length_a   6.51009774
_cell_length_b   6.51009774
_cell_length_c   7.63293800
_cell_angle_alpha   90.00000000
_cell_angle_beta   90.00000000
_cell_angle_gamma   107.52148937
_symmetry_Int_Tables_number   1
_chemical_formula_structural   Na2UTeO7
_chemical_formula_sum   'Na4 U2 Te2 O14'
_cell_volume   308.48557652
_cell_formula_units_Z   2
loop_
 _symmetry_equiv_pos_site_id
 _symmetry_equiv_pos_as_xyz
  1  'x, y, z'
loop_
 _atom_site_type_symbol
 _atom_site_label
 _atom_site_symmetry_multiplicity
 _atom_site_fract_x
 _atom_site_fract_y
 _atom_site_fract_z
 _atom_site_occupancy
  Na  Na0  1  0.56206400  0.09802500  0.75000000  1
  Na  Na1  1  0.09802500  0.56206400  0.25000000  1
  Na  Na2  1  0.58807600  0.58807600  0.50000000  1
  Na  Na3  1  0.58807600  0.58807600  0.00000000  1
  U  U0  1  0.07838200  0.60498800  0.75000000  1
  U  U1  1  0.60498800  0.07838300  0.25000000  1
  Te  Te0  1  0.07399900  0.07399900  0.50000000  1
  Te  Te1  1  0.07399900  0.07399900  0.00000000  1
  O  O0  1  0.37841000  0.72434300  0.75000000  1
  O  O1  1  0.72434300  0.37841000  0.25000000  1
  O  O2  1  0.77613700  0.48335800  0.75000000  1
  O  O3  1  0.48335800  0.77613700  0.25000000  1
  O  O4  1  0.76837800  0.02832500  0.51365400  1
  O  O5  1  0.02832500  0.76837800  0.48634600  1
  O  O6  1  0.76837800  0.02832500  0.98634600  1
  O  O7  1  0.02832500  0.76837800  0.01365400  1
  O  O8  1  0.11918200  0.01106800  0.75000000  1
  O  O9  1  0.01106800  0.11918200  0.25000000  1
  O  O10  1  0.13294900  0.37673400  0.54898800  1
  O  O11  1  0.37673400  0.13294900  0.45101200  1
  O  O12  1  0.13294900  0.37673400  0.95101200  1
  O  O13  1  0.37673400  0.13294900  0.04898800  1
loop_
_geom_bond_atom_site_label_1
_geom_bond_atom_site_label_2
_geom_bond_distance
_geom_bond_site_symmetry_2
Na0 O0 2.365631 1_545
Na0 O6 2.373038 1_555
Na0 O4 2.373038 1_555
Na0 O2 2.475889 1_555
Na0 O13 2.623125 1_556
Na0 O11 2.623125 1_555
Na0 O8 2.765965 1_555
Na1 O1 2.365631 1_455
Na1 O5 2.373038 1_555
Na1 O7 2.373038 1_555
Na1 O3 2.475889 1_555
Na1 O10 2.623125 1_555
Na1 O12 2.623125 1_554
Na1 O9 2.765965 1_555
Na2 O2 2.471348 1_555
Na2 O3 2.471348 1_555
Na2 O0 2.649622 1_555
Na2 O1 2.649622 1_555
Na2 O5 2.752692 1_655
Na2 O4 2.752692 1_565
Na2 O10 2.890865 1_555
Na2 O11 2.890865 1_555
Na3 O3 2.471348 1_555
Na3 O2 2.471348 1_554
Na3 O0 2.649622 1_554
Na3 O1 2.649622 1_555
Na3 O7 2.752692 1_655
Na3 O6 2.752692 1_564
Na3 O13 2.890865 1_555
Na3 O12 2.890865 1_554
O0 U0 1.872152 1_555
O1 U1 1.872146 1_555
O2 U0 1.886923 1_655
O3 U1 1.886929 1_565
O4 Te0 1.923968 1_655
O4 U1 2.344423 1_555
O5 Te0 1.923968 1_565
O5 U0 2.344421 1_555
O6 Te1 1.923968 1_656
O6 U1 2.344423 1_556
O7 Te1 1.923968 1_565
O7 U0 2.344421 1_554
O8 Te1 1.992055 1_556
O8 Te0 1.992055 1_555
O8 U0 2.576136 1_545
O9 Te0 1.992055 1_555
O9 Te1 1.992055 1_555
O9 U1 2.576138 1_455
O10 Te0 1.927659 1_555
O10 U0 2.237457 1_555
O11 Te0 1.927659 1_555
O11 U1 2.237455 1_555
O12 Te1 1.927659 1_556
O12 U0 2.237457 1_555
O13 Te1 1.927659 1_555
O13 U1 2.237455 1_555
