# generated using pymatgen
data_Pr
_symmetry_space_group_name_H-M   'P 1'
_cell_length_a   7.62061512
_cell_length_b   7.62061512
_cell_length_c   11.89144308
_cell_angle_alpha   90.00000000
_cell_angle_beta   90.00000000
_cell_angle_gamma   121.11723978
_symmetry_Int_Tables_number   1
_chemical_formula_structural   Pr
_chemical_formula_sum   Pr16
_cell_volume   591.21441251
_cell_formula_units_Z   16
loop_
 _symmetry_equiv_pos_site_id
 _symmetry_equiv_pos_as_xyz
  1  'x, y, z'
loop_
 _atom_site_type_symbol
 _atom_site_label
 _atom_site_symmetry_multiplicity
 _atom_site_fract_x
 _atom_site_fract_y
 _atom_site_fract_z
 _atom_site_occupancy
  Pr  Pr0_0  1  0.42323337  0.07676663  0.12500000  1
  Pr  Pr0_1  1  0.42323337  0.07676663  0.62500000  1
  Pr  Pr0_2  1  0.42323337  0.57676664  0.12500000  1
  Pr  Pr0_3  1  0.42323337  0.57676664  0.62500000  1
  Pr  Pr0_4  1  0.92323337  0.07676663  0.12500000  1
  Pr  Pr0_5  1  0.92323337  0.07676663  0.62500000  1
  Pr  Pr0_6  1  0.92323337  0.57676664  0.12500000  1
  Pr  Pr0_7  1  0.92323337  0.57676664  0.62500000  1
  Pr  Pr1_0  1  0.07676664  0.42323337  0.37500000  1
  Pr  Pr1_1  1  0.07676664  0.42323337  0.87500000  1
  Pr  Pr1_2  1  0.07676664  0.92323336  0.37500000  1
  Pr  Pr1_3  1  0.07676664  0.92323336  0.87500000  1
  Pr  Pr1_4  1  0.57676664  0.42323337  0.37500000  1
  Pr  Pr1_5  1  0.57676664  0.42323337  0.87500000  1
  Pr  Pr1_6  1  0.57676664  0.92323336  0.37500000  1
  Pr  Pr1_7  1  0.57676664  0.92323336  0.87500000  1
loop_
_geom_bond_atom_site_label_1
_geom_bond_atom_site_label_2
_geom_bond_distance
_geom_bond_site_symmetry_2
Pr0_0 Pr1_6 3.604261 1_545
Pr0_0 Pr1_7 3.604261 1_544
Pr0_0 Pr1_2 3.739658 1_545
Pr0_0 Pr1_3 3.739658 1_544
Pr0_0 Pr1_4 3.739658 1_555
Pr0_0 Pr1_5 3.739658 1_554
Pr0_0 Pr0_6 3.745783 1_445
Pr0_0 Pr0_6 3.745783 1_555
Pr0_0 Pr0_2 3.810308 1_555
Pr0_0 Pr0_4 3.810308 1_455
Pr0_0 Pr0_2 3.810308 1_545
Pr0_0 Pr0_4 3.810308 1_555
Pr0_1 Pr1_7 3.604261 1_545
Pr0_1 Pr1_6 3.604261 1_545
Pr0_1 Pr1_3 3.739658 1_545
Pr0_1 Pr1_5 3.739658 1_555
Pr0_1 Pr1_2 3.739658 1_545
Pr0_1 Pr1_4 3.739658 1_555
Pr0_1 Pr0_7 3.745783 1_445
Pr0_1 Pr0_7 3.745783 1_555
Pr0_1 Pr0_5 3.810308 1_455
Pr0_1 Pr0_3 3.810308 1_555
Pr0_1 Pr0_3 3.810308 1_545
Pr0_1 Pr0_5 3.810308 1_555
Pr0_2 Pr1_4 3.604261 1_555
Pr0_2 Pr1_5 3.604261 1_554
Pr0_2 Pr1_6 3.739658 1_555
Pr0_2 Pr1_7 3.739658 1_554
Pr0_2 Pr1_1 3.739658 1_554
Pr0_2 Pr1_0 3.739658 1_555
Pr0_2 Pr0_4 3.745783 1_565
Pr0_2 Pr0_4 3.745783 1_455
Pr0_2 Pr0_6 3.810308 1_455
Pr0_2 Pr0_6 3.810308 1_555
Pr0_3 Pr1_5 3.604261 1_555
Pr0_3 Pr1_4 3.604261 1_555
Pr0_3 Pr1_7 3.739658 1_555
Pr0_3 Pr1_1 3.739658 1_555
Pr0_3 Pr1_6 3.739658 1_555
Pr0_3 Pr1_0 3.739658 1_555
Pr0_3 Pr0_5 3.745783 1_565
Pr0_3 Pr0_5 3.745783 1_455
Pr0_3 Pr0_7 3.810308 1_455
Pr0_3 Pr0_7 3.810308 1_555
Pr0_4 Pr1_3 3.604261 1_644
Pr0_4 Pr1_2 3.604261 1_645
Pr0_4 Pr1_6 3.739658 1_545
Pr0_4 Pr1_7 3.739658 1_544
Pr0_4 Pr1_1 3.739658 1_654
Pr0_4 Pr1_0 3.739658 1_655
Pr0_4 Pr0_6 3.810308 1_555
Pr0_4 Pr0_6 3.810308 1_545
Pr0_5 Pr1_3 3.604261 1_645
Pr0_5 Pr1_2 3.604261 1_645
Pr0_5 Pr1_7 3.739658 1_545
Pr0_5 Pr1_1 3.739658 1_655
Pr0_5 Pr1_6 3.739658 1_545
Pr0_5 Pr1_0 3.739658 1_655
Pr0_5 Pr0_7 3.810308 1_555
Pr0_5 Pr0_7 3.810308 1_545
Pr0_6 Pr1_1 3.604261 1_654
Pr0_6 Pr1_0 3.604261 1_655
Pr0_6 Pr1_2 3.739658 1_655
Pr0_6 Pr1_3 3.739658 1_654
Pr0_6 Pr1_4 3.739658 1_555
Pr0_6 Pr1_5 3.739658 1_554
Pr0_7 Pr1_1 3.604261 1_655
Pr0_7 Pr1_0 3.604261 1_655
Pr0_7 Pr1_3 3.739658 1_655
Pr0_7 Pr1_5 3.739658 1_555
Pr0_7 Pr1_2 3.739658 1_655
Pr0_7 Pr1_4 3.739658 1_555
Pr1_0 Pr1_6 3.745783 1_445
Pr1_0 Pr1_6 3.745783 1_555
Pr1_0 Pr1_4 3.810308 1_455
Pr1_0 Pr1_2 3.810308 1_555
Pr1_0 Pr1_2 3.810308 1_545
Pr1_0 Pr1_4 3.810308 1_555
Pr1_1 Pr1_7 3.745783 1_445
Pr1_1 Pr1_7 3.745783 1_555
Pr1_1 Pr1_3 3.810308 1_555
Pr1_1 Pr1_5 3.810308 1_455
Pr1_1 Pr1_3 3.810308 1_545
Pr1_1 Pr1_5 3.810308 1_555
Pr1_2 Pr1_4 3.745783 1_565
Pr1_2 Pr1_4 3.745783 1_455
Pr1_2 Pr1_6 3.810308 1_455
Pr1_2 Pr1_6 3.810308 1_555
Pr1_3 Pr1_5 3.745783 1_565
Pr1_3 Pr1_5 3.745783 1_455
Pr1_3 Pr1_7 3.810308 1_455
Pr1_3 Pr1_7 3.810308 1_555
Pr1_4 Pr1_6 3.810308 1_555
Pr1_4 Pr1_6 3.810308 1_545
Pr1_5 Pr1_7 3.810308 1_555
Pr1_5 Pr1_7 3.810308 1_545
