# generated using pymatgen
data_Na3Al3Si3O14
_symmetry_space_group_name_H-M   'P 1'
_cell_length_a   5.27856726
_cell_length_b   15.26840695
_cell_length_c   16.33745156
_cell_angle_alpha   90.00000000
_cell_angle_beta   90.00000000
_cell_angle_gamma   90.00000000
_symmetry_Int_Tables_number   1
_chemical_formula_structural   Na3Al3Si3O14
_chemical_formula_sum   'Na12 Al12 Si12 O56'
_cell_volume   1316.72202273
_cell_formula_units_Z   4
loop_
 _symmetry_equiv_pos_site_id
 _symmetry_equiv_pos_as_xyz
  1  'x, y, z'
loop_
 _atom_site_type_symbol
 _atom_site_label
 _atom_site_symmetry_multiplicity
 _atom_site_fract_x
 _atom_site_fract_y
 _atom_site_fract_z
 _atom_site_occupancy
  Na  Na0  1  0.96367930  0.24554400  0.91981079  1
  Na  Na1  1  0.46367930  0.75445600  0.08018921  1
  Na  Na2  1  0.46367930  0.74554400  0.58018921  1
  Na  Na3  1  0.96367930  0.25445600  0.41981079  1
  Na  Na4  1  0.45822438  0.25526717  0.59322713  1
  Na  Na5  1  0.95822438  0.74473283  0.40677287  1
  Na  Na6  1  0.95822438  0.75526717  0.90677287  1
  Na  Na7  1  0.45822438  0.24473283  0.09322713  1
  Na  Na8  1  0.54356194  0.48852925  0.77885195  1
  Na  Na9  1  0.04356194  0.51147075  0.22114805  1
  Na  Na10  1  0.04356194  0.98852925  0.72114805  1
  Na  Na11  1  0.54356194  0.01147075  0.27885195  1
  Al  Al0  1  0.98058043  0.24581447  0.70481685  1
  Al  Al1  1  0.48058043  0.75418553  0.29518315  1
  Al  Al2  1  0.48058043  0.74581447  0.79518315  1
  Al  Al3  1  0.98058043  0.25418553  0.20481685  1
  Al  Al4  1  0.49034827  0.39158201  0.95283686  1
  Al  Al5  1  0.99034827  0.60841799  0.04716314  1
  Al  Al6  1  0.99034827  0.89158201  0.54716314  1
  Al  Al7  1  0.49034827  0.10841799  0.45283686  1
  Al  Al8  1  0.50409290  0.10474680  0.94950894  1
  Al  Al9  1  0.00409290  0.89525320  0.05049106  1
  Al  Al10  1  0.00409290  0.60474680  0.55049106  1
  Al  Al11  1  0.50409290  0.39525320  0.44950894  1
  Si  Si0  1  0.48374840  0.25341929  0.80819530  1
  Si  Si1  1  0.98374840  0.74658071  0.19180470  1
  Si  Si2  1  0.98374840  0.75341929  0.69180470  1
  Si  Si3  1  0.48374840  0.24658071  0.30819530  1
  Si  Si4  1  0.00788593  0.39157197  0.56152678  1
  Si  Si5  1  0.50788593  0.60842803  0.43847322  1
  Si  Si6  1  0.50788593  0.89157197  0.93847322  1
  Si  Si7  1  0.00788593  0.10842803  0.06152678  1
  Si  Si8  1  0.99127581  0.11137380  0.55894768  1
  Si  Si9  1  0.49127581  0.88862620  0.44105232  1
  Si  Si10  1  0.49127581  0.61137380  0.94105232  1
  Si  Si11  1  0.99127581  0.38862620  0.05894768  1
  O  O0  1  0.15040638  0.48412676  0.85113617  1
  O  O1  1  0.65040638  0.51587324  0.14886383  1
  O  O2  1  0.65040638  0.98412676  0.64886383  1
  O  O3  1  0.15040638  0.01587324  0.35113617  1
  O  O4  1  0.58309224  0.17563913  0.86863108  1
  O  O5  1  0.08309224  0.82436087  0.13136892  1
  O  O6  1  0.08309224  0.67563913  0.63136892  1
  O  O7  1  0.58309224  0.32436087  0.36863108  1
  O  O8  1  0.17805184  0.24593555  0.79186047  1
  O  O9  1  0.67805184  0.75406445  0.20813953  1
  O  O10  1  0.67805184  0.74593555  0.70813953  1
  O  O11  1  0.17805184  0.25406445  0.29186047  1
  O  O12  1  0.07834511  0.33243196  0.64148003  1
  O  O13  1  0.57834511  0.66756804  0.35851997  1
  O  O14  1  0.57834511  0.83243196  0.85851997  1
  O  O15  1  0.07834511  0.16756804  0.14148003  1
  O  O16  1  0.72117444  0.14628006  0.52251554  1
  O  O17  1  0.22117444  0.85371994  0.47748446  1
  O  O18  1  0.22117444  0.64628006  0.97748446  1
  O  O19  1  0.72117444  0.35371994  0.02251554  1
  O  O20  1  0.20831639  0.14798659  0.49590033  1
  O  O21  1  0.70831639  0.85201341  0.50409967  1
  O  O22  1  0.70831639  0.64798659  0.00409967  1
  O  O23  1  0.20831639  0.35201341  0.99590033  1
  O  O24  1  0.04428090  0.14671618  0.65147067  1
  O  O25  1  0.54428090  0.85328382  0.34852933  1
  O  O26  1  0.54428090  0.64671618  0.84852933  1
  O  O27  1  0.04428090  0.35328382  0.15147067  1
  O  O28  1  0.65152414  0.25203058  0.72381384  1
  O  O29  1  0.15152414  0.74796942  0.27618616  1
  O  O30  1  0.15152414  0.75203058  0.77618616  1
  O  O31  1  0.65152414  0.24796942  0.22381384  1
  O  O32  1  0.20838424  0.36293103  0.48941794  1
  O  O33  1  0.70838424  0.63706897  0.51058206  1
  O  O34  1  0.70838424  0.86293103  0.01058206  1
  O  O35  1  0.20838424  0.13706897  0.98941794  1
  O  O36  1  0.54438996  0.34761016  0.85487551  1
  O  O37  1  0.04438996  0.65238984  0.14512449  1
  O  O38  1  0.04438996  0.84761016  0.64512449  1
  O  O39  1  0.54438996  0.15238984  0.35487551  1
  O  O40  1  0.59967910  0.48638182  0.63008394  1
  O  O41  1  0.09967910  0.51361818  0.36991606  1
  O  O42  1  0.09967910  0.98638182  0.86991606  1
  O  O43  1  0.59967910  0.01361818  0.13008394  1
  O  O44  1  0.72267859  0.36544940  0.52836478  1
  O  O45  1  0.22267859  0.63455060  0.47163522  1
  O  O46  1  0.22267859  0.86544940  0.97163522  1
  O  O47  1  0.72267859  0.13455060  0.02836478  1
  O  O48  1  0.00201738  0.00435285  0.56483741  1
  O  O49  1  0.50201738  0.99564715  0.43516259  1
  O  O50  1  0.50201738  0.50435285  0.93516259  1
  O  O51  1  0.00201738  0.49564715  0.06483741  1
  O  O52  1  0.02446194  0.49594768  0.58283217  1
  O  O53  1  0.52446194  0.50405232  0.41716783  1
  O  O54  1  0.52446194  0.99594768  0.91716783  1
  O  O55  1  0.02446194  0.00405232  0.08283217  1
loop_
_geom_bond_atom_site_label_1
_geom_bond_atom_site_label_2
_geom_bond_distance
_geom_bond_site_symmetry_2
Na0 O8 2.377016 1_655
Na0 O35 2.388479 1_655
Na0 O23 2.419813 1_655
Na0 O4 2.423684 1_555
Na0 O19 2.679942 1_556
Na0 O47 2.763260 1_556
Na0 O36 2.907317 1_555
Na1 O9 2.377016 1_555
Na1 O34 2.388479 1_555
Na1 O22 2.419813 1_555
Na1 O5 2.423684 1_555
Na1 O18 2.679942 1_554
Na1 O46 2.763260 1_554
Na1 O37 2.907317 1_555
Na2 O10 2.377016 1_555
Na2 O33 2.388479 1_555
Na2 O21 2.419813 1_555
Na2 O6 2.423684 1_555
Na2 O17 2.679942 1_555
Na2 O45 2.763260 1_555
Na2 O38 2.907317 1_555
Na3 O11 2.377016 1_655
Na3 O32 2.388479 1_655
Na3 O20 2.419813 1_655
Na3 O7 2.423684 1_555
Na3 O16 2.679942 1_555
Na3 O44 2.763260 1_555
Na3 O39 2.907317 1_555
Na4 O28 2.365412 1_555
Na4 O44 2.429349 1_555
Na4 O16 2.455653 1_555
Na4 O12 2.455704 1_555
Na4 O20 2.636581 1_555
Na4 O32 2.705149 1_555
Na4 O24 2.902891 1_555
Na5 O29 2.365412 1_655
Na5 O45 2.429349 1_655
Na5 O17 2.455653 1_655
Na5 O13 2.455704 1_555
Na5 O21 2.636581 1_555
Na5 O33 2.705149 1_555
Na5 O25 2.902891 1_555
Na6 O30 2.365412 1_655
Na6 O46 2.429349 1_655
Na6 O18 2.455653 1_655
Na6 O14 2.455704 1_555
Na6 O22 2.636581 1_556
Na6 O34 2.705149 1_556
Na6 O26 2.902891 1_555
Na7 O31 2.365412 1_555
Na7 O47 2.429349 1_555
Na7 O19 2.455653 1_555
Na7 O15 2.455704 1_555
Na7 O23 2.636581 1_554
Na7 O35 2.705149 1_554
Na7 O27 2.902891 1_555
Na8 O0 2.388723 1_555
Na8 O40 2.448694 1_555
Na8 O36 2.484368 1_555
Na8 O50 2.574478 1_555
Na8 O26 2.670084 1_555
Na9 O1 2.388723 1_455
Na9 O41 2.448694 1_555
Na9 O37 2.484368 1_555
Na9 O51 2.574478 1_555
Na9 O27 2.670084 1_555
Na10 O2 2.388723 1_455
Na10 O42 2.448694 1_555
Na10 O38 2.484368 1_555
Na10 O48 2.574478 1_565
Na10 O24 2.670084 1_565
Na11 O3 2.388723 1_555
Na11 O43 2.448694 1_555
Na11 O39 2.484368 1_555
Na11 O49 2.574478 1_545
Na11 O25 2.670084 1_545
Al0 O12 1.756725 1_655
Al0 O8 1.763184 1_655
Al0 O28 1.767007 1_555
Al0 O24 1.778211 1_655
Al1 O13 1.756725 1_555
Al1 O9 1.763184 1_555
Al1 O29 1.767007 1_555
Al1 O25 1.778211 1_555
Al2 O14 1.756725 1_555
Al2 O10 1.763184 1_555
Al2 O30 1.767007 1_555
Al2 O26 1.778211 1_555
Al3 O15 1.756725 1_655
Al3 O11 1.763184 1_655
Al3 O31 1.767007 1_555
Al3 O27 1.778211 1_655
Al4 O50 1.746961 1_555
Al4 O23 1.753931 1_555
Al4 O36 1.758843 1_555
Al4 O19 1.764839 1_556
Al5 O51 1.746961 1_655
Al5 O22 1.753931 1_555
Al5 O37 1.758843 1_655
Al5 O18 1.764839 1_654
Al6 O48 1.746961 1_665
Al6 O21 1.753931 1_555
Al6 O38 1.758843 1_655
Al6 O17 1.764839 1_655
Al7 O49 1.746961 1_545
Al7 O20 1.753931 1_555
Al7 O39 1.758843 1_555
Al7 O16 1.764839 1_555
Al8 O54 1.746507 1_545
Al8 O4 1.758250 1_555
Al8 O35 1.762139 1_555
Al8 O47 1.788324 1_556
Al9 O55 1.746507 1_565
Al9 O5 1.758250 1_555
Al9 O34 1.762139 1_455
Al9 O46 1.788324 1_554
Al10 O52 1.746507 1_555
Al10 O6 1.758250 1_555
Al10 O33 1.762139 1_455
Al10 O45 1.788324 1_555
Al11 O53 1.746507 1_555
Al11 O7 1.758250 1_555
Al11 O32 1.762139 1_555
Al11 O44 1.788324 1_555
O4 Si0 1.631020 1_555
O5 Si1 1.631020 1_455
O6 Si2 1.631020 1_455
O7 Si3 1.631020 1_555
O8 Si0 1.639545 1_555
O9 Si1 1.639545 1_555
O10 Si2 1.639545 1_555
O11 Si3 1.639545 1_555
O12 Si4 1.630930 1_555
O13 Si5 1.630930 1_555
O14 Si6 1.630930 1_555
O15 Si7 1.630930 1_555
O16 Si8 1.634344 1_555
O17 Si9 1.634344 1_555
O18 Si10 1.634344 1_555
O19 Si11 1.634344 1_555
O20 Si8 1.638907 1_455
O21 Si9 1.638907 1_555
O22 Si10 1.638907 1_554
O23 Si11 1.638907 1_456
O24 Si8 1.629226 1_455
O25 Si9 1.629226 1_555
O26 Si10 1.629226 1_555
O27 Si11 1.629226 1_455
O28 Si0 1.638671 1_555
O29 Si1 1.638671 1_455
O30 Si2 1.638671 1_455
O31 Si3 1.638671 1_555
O32 Si4 1.642919 1_555
O33 Si5 1.642919 1_555
O34 Si6 1.642919 1_554
O35 Si7 1.642919 1_556
O36 Si0 1.659017 1_555
O37 Si1 1.659017 1_455
O38 Si2 1.659017 1_455
O39 Si3 1.659017 1_555
O44 Si4 1.648969 1_655
O45 Si5 1.648969 1_555
O46 Si6 1.648969 1_555
O47 Si7 1.648969 1_655
O48 Si8 1.637852 1_455
O49 Si9 1.637852 1_555
O50 Si10 1.637852 1_555
O51 Si11 1.637852 1_455
O52 Si4 1.633565 1_555
O53 Si5 1.633565 1_555
O54 Si6 1.633565 1_555
O55 Si7 1.633565 1_555
