# generated using pymatgen
data_RbAlAgF6
_symmetry_space_group_name_H-M   'P 1'
_cell_length_a   7.16394100
_cell_length_b   7.33516000
_cell_length_c   10.47738800
_cell_angle_alpha   90.00000000
_cell_angle_beta   90.00000000
_cell_angle_gamma   90.00000000
_symmetry_Int_Tables_number   1
_chemical_formula_structural   RbAlAgF6
_chemical_formula_sum   'Rb4 Al4 Ag4 F24'
_cell_volume   550.57263124
_cell_formula_units_Z   4
loop_
 _symmetry_equiv_pos_site_id
 _symmetry_equiv_pos_as_xyz
  1  'x, y, z'
loop_
 _atom_site_type_symbol
 _atom_site_label
 _atom_site_symmetry_multiplicity
 _atom_site_fract_x
 _atom_site_fract_y
 _atom_site_fract_z
 _atom_site_occupancy
  Rb  Rb0  1  0.01792600  0.25000000  0.63595400  1
  Rb  Rb1  1  0.98207400  0.75000000  0.36404600  1
  Rb  Rb2  1  0.48207400  0.75000000  0.13595400  1
  Rb  Rb3  1  0.51792600  0.25000000  0.86404600  1
  Al  Al0  1  0.00000000  0.00000000  0.00000000  1
  Al  Al1  1  0.50000000  0.00000000  0.50000000  1
  Al  Al2  1  0.00000000  0.50000000  0.00000000  1
  Al  Al3  1  0.50000000  0.50000000  0.50000000  1
  Ag  Ag0  1  0.21556900  0.25000000  0.25356500  1
  Ag  Ag1  1  0.78443100  0.75000000  0.74643500  1
  Ag  Ag2  1  0.28443100  0.75000000  0.75356500  1
  Ag  Ag3  1  0.71556900  0.25000000  0.24643500  1
  F  F0  1  0.28718300  0.02582400  0.40839300  1
  F  F1  1  0.71281700  0.97417600  0.59160700  1
  F  F2  1  0.21281700  0.97417600  0.90839300  1
  F  F3  1  0.71281700  0.52582400  0.59160700  1
  F  F4  1  0.78718300  0.02582400  0.09160700  1
  F  F5  1  0.28718300  0.47417600  0.40839300  1
  F  F6  1  0.78718300  0.47417600  0.09160700  1
  F  F7  1  0.21281700  0.52582400  0.90839300  1
  F  F8  1  0.53955500  0.25000000  0.49765600  1
  F  F9  1  0.46044500  0.75000000  0.50234400  1
  F  F10  1  0.96044500  0.75000000  0.99765600  1
  F  F11  1  0.03955500  0.25000000  0.00234400  1
  F  F12  1  0.13513300  0.52127200  0.14705300  1
  F  F13  1  0.86486700  0.47872800  0.85294700  1
  F  F14  1  0.36486700  0.47872800  0.64705300  1
  F  F15  1  0.86486700  0.02127200  0.85294700  1
  F  F16  1  0.63513300  0.52127200  0.35294700  1
  F  F17  1  0.13513300  0.97872800  0.14705300  1
  F  F18  1  0.63513300  0.97872800  0.35294700  1
  F  F19  1  0.36486700  0.02127200  0.64705300  1
  F  F20  1  0.46175100  0.25000000  0.14556600  1
  F  F21  1  0.53824900  0.75000000  0.85443400  1
  F  F22  1  0.03824900  0.75000000  0.64556600  1
  F  F23  1  0.96175100  0.25000000  0.35443400  1
loop_
_geom_bond_atom_site_label_1
_geom_bond_atom_site_label_2
_geom_bond_distance
_geom_bond_site_symmetry_2
Al0 F2 1.811500 1_544
Al0 F4 1.811500 1_455
Al0 F17 1.826304 1_545
Al0 F15 1.826304 1_454
Al0 F11 1.855717 1_555
Al0 F10 1.855717 1_444
Al1 F1 1.811500 1_545
Al1 F0 1.811500 1_555
Al1 F19 1.826304 1_555
Al1 F18 1.826304 1_545
Al1 F9 1.855717 1_545
Al1 F8 1.855717 1_555
Al2 F7 1.811500 1_554
Al2 F6 1.811500 1_455
Al2 F12 1.826304 1_555
Al2 F13 1.826304 1_454
Al2 F11 1.855717 1_555
Al2 F10 1.855717 1_454
Al3 F3 1.811500 1_555
Al3 F5 1.811500 1_555
Al3 F16 1.826304 1_555
Al3 F14 1.826304 1_555
Al3 F9 1.855717 1_555
Al3 F8 1.855717 1_555
Ag0 F20 2.095424 1_555
Ag0 F23 2.103157 1_455
Ag0 F12 2.353047 1_555
Ag0 F17 2.353047 1_545
Ag0 F0 2.366149 1_555
Ag0 F5 2.366149 1_555
Ag1 F21 2.095424 1_555
Ag1 F22 2.103157 1_655
Ag1 F15 2.353047 1_565
Ag1 F13 2.353047 1_555
Ag1 F1 2.366149 1_555
Ag1 F3 2.366149 1_555
Ag2 F22 2.095424 1_555
Ag2 F21 2.103157 1_555
Ag2 F19 2.353047 1_565
Ag2 F14 2.353047 1_555
Ag2 F2 2.366149 1_555
Ag2 F7 2.366149 1_555
Ag3 F23 2.095424 1_555
Ag3 F20 2.103157 1_555
Ag3 F16 2.353047 1_555
Ag3 F18 2.353047 1_545
Ag3 F4 2.366149 1_555
Ag3 F6 2.366149 1_555
F0 Rb1 3.014453 1_445
F1 Rb0 3.014453 1_665
F2 Rb3 3.014453 1_565
F3 Rb0 3.014453 1_655
F4 Rb2 3.014453 1_545
F5 Rb1 3.014453 1_455
F6 Rb2 3.014453 1_555
F7 Rb3 3.014453 1_555
F12 Rb2 3.000987 1_555
F12 Rb1 3.030855 1_455
F13 Rb3 3.000987 1_555
F13 Rb0 3.030855 1_655
F14 Rb0 3.000987 1_555
F14 Rb3 3.030855 1_555
F15 Rb3 3.000987 1_555
F15 Rb0 3.030855 1_655
F16 Rb1 3.000987 1_555
F16 Rb2 3.030855 1_555
F17 Rb2 3.000987 1_555
F17 Rb1 3.030855 1_455
F18 Rb1 3.000987 1_555
F18 Rb2 3.030855 1_555
F19 Rb0 3.000987 1_555
F19 Rb3 3.030855 1_555
F20 Rb3 2.976921 1_554
F21 Rb2 2.976921 1_556
F22 Rb1 2.976921 1_455
F23 Rb0 2.976921 1_655
