# generated using pymatgen
data_Mg6CrSn
_symmetry_space_group_name_H-M   'P 1'
_cell_length_a   4.98341900
_cell_length_b   6.36707700
_cell_length_c   10.86317400
_cell_angle_alpha   90.00000000
_cell_angle_beta   90.00000000
_cell_angle_gamma   90.00000000
_symmetry_Int_Tables_number   1
_chemical_formula_structural   Mg6CrSn
_chemical_formula_sum   'Mg12 Cr2 Sn2'
_cell_volume   344.68647413
_cell_formula_units_Z   2
loop_
 _symmetry_equiv_pos_site_id
 _symmetry_equiv_pos_as_xyz
  1  'x, y, z'
loop_
 _atom_site_type_symbol
 _atom_site_label
 _atom_site_symmetry_multiplicity
 _atom_site_fract_x
 _atom_site_fract_y
 _atom_site_fract_z
 _atom_site_occupancy
  Mg  Mg0  1  0.00000000  0.25344400  0.08530700  1
  Mg  Mg1  1  0.00000000  0.74655600  0.08530700  1
  Mg  Mg2  1  0.00000000  0.50000000  0.83194900  1
  Mg  Mg3  1  0.50000000  0.25314700  0.91763800  1
  Mg  Mg4  1  0.50000000  0.74685300  0.91763800  1
  Mg  Mg5  1  0.50000000  0.50000000  0.66605800  1
  Mg  Mg6  1  0.00000000  0.75344400  0.58530700  1
  Mg  Mg7  1  0.00000000  0.24655600  0.58530700  1
  Mg  Mg8  1  0.00000000  0.00000000  0.33194900  1
  Mg  Mg9  1  0.50000000  0.75314700  0.41763800  1
  Mg  Mg10  1  0.50000000  0.24685300  0.41763800  1
  Mg  Mg11  1  0.50000000  0.00000000  0.16605800  1
  Cr  Cr0  1  0.50000000  0.50000000  0.16726600  1
  Cr  Cr1  1  0.50000000  0.00000000  0.66726600  1
  Sn  Sn0  1  0.00000000  0.50000000  0.32883900  1
  Sn  Sn1  1  0.00000000  0.00000000  0.82883900  1
loop_
_geom_bond_atom_site_label_1
_geom_bond_atom_site_label_2
_geom_bond_distance
_geom_bond_site_symmetry_2
Mg0 Sn0 3.076237 1_555
Mg0 Mg3 3.086451 1_554
Mg0 Mg3 3.086451 1_454
Mg0 Mg11 3.095503 1_555
Mg0 Mg11 3.095503 1_455
Mg0 Mg8 3.127739 1_555
Mg0 Mg1 3.139682 1_555
Mg0 Mg2 3.168502 1_554
Mg0 Sn1 3.219648 1_554
Mg0 Mg1 3.227395 1_545
Mg1 Sn0 3.076237 1_555
Mg1 Mg4 3.086451 1_554
Mg1 Mg4 3.086451 1_454
Mg1 Mg11 3.095503 1_565
Mg1 Mg11 3.095503 1_465
Mg1 Mg8 3.127739 1_565
Mg1 Mg2 3.168502 1_554
Mg1 Sn1 3.219648 1_564
Mg2 Mg5 3.075092 1_455
Mg2 Mg5 3.075092 1_555
Mg2 Mg4 3.089571 1_555
Mg2 Mg3 3.089571 1_455
Mg2 Mg4 3.089571 1_455
Mg2 Mg3 3.089571 1_555
Mg2 Mg7 3.127739 1_555
Mg2 Mg6 3.127739 1_555
Mg2 Sn1 3.183718 1_555
Mg2 Sn1 3.183718 1_565
Mg3 Sn1 3.120427 1_555
Mg3 Sn1 3.120427 1_655
Mg3 Mg4 3.143464 1_555
Mg3 Mg5 3.152681 1_555
Mg3 Mg4 3.223613 1_545
Mg4 Sn1 3.120427 1_565
Mg4 Sn1 3.120427 1_665
Mg4 Mg5 3.152681 1_555
Mg5 Mg7 3.095503 1_655
Mg5 Mg6 3.095503 1_555
Mg5 Mg7 3.095503 1_555
Mg5 Mg6 3.095503 1_655
Mg5 Mg9 3.143330 1_555
Mg6 Sn1 3.076237 1_565
Mg6 Mg9 3.086451 1_455
Mg6 Mg9 3.086451 1_555
Mg6 Mg7 3.139682 1_565
Mg6 Mg8 3.168502 1_565
Mg6 Sn0 3.219648 1_555
Mg6 Mg7 3.227395 1_555
Mg7 Sn1 3.076237 1_555
Mg7 Mg8 3.168502 1_555
Mg7 Sn0 3.219648 1_555
Mg8 Mg9 3.089571 1_545
Mg8 Mg9 3.089571 1_445
Mg8 Sn0 3.183718 1_555
Mg8 Sn0 3.183718 1_545
Mg9 Sn0 3.120427 1_555
Mg9 Sn0 3.120427 1_655
Mg10 Mg7 3.086451 1_655
Mg10 Mg7 3.086451 1_555
Mg10 Mg8 3.089571 1_655
Mg10 Mg8 3.089571 1_555
Mg10 Sn0 3.120427 1_555
Mg10 Sn0 3.120427 1_655
Mg10 Mg5 3.143330 1_555
Mg10 Mg9 3.143464 1_545
Mg10 Mg11 3.152681 1_555
Mg10 Mg9 3.223613 1_555
Mg11 Mg8 3.075092 1_655
Mg11 Mg8 3.075092 1_555
Mg11 Mg4 3.143330 1_544
Mg11 Mg3 3.143330 1_554
Mg11 Mg9 3.152681 1_545
Cr0 Sn0 3.047840 1_655
Cr0 Sn0 3.047840 1_555
Cr0 Mg0 3.076640 1_655
Cr0 Mg1 3.076640 1_655
Cr0 Mg1 3.076640 1_555
Cr0 Mg0 3.076640 1_555
Cr0 Mg3 3.134317 1_554
Cr0 Mg4 3.134317 1_554
Cr0 Mg9 3.161553 1_555
Cr0 Mg10 3.161553 1_555
Cr0 Mg11 3.183566 1_555
Cr0 Mg11 3.183566 1_565
Cr1 Sn1 3.047840 1_555
Cr1 Sn1 3.047840 1_655
Cr1 Mg7 3.076640 1_655
Cr1 Mg6 3.076640 1_645
Cr1 Mg6 3.076640 1_545
Cr1 Mg7 3.076640 1_555
Cr1 Mg10 3.134317 1_555
Cr1 Mg9 3.134317 1_545
Cr1 Mg4 3.161553 1_545
Cr1 Mg3 3.161553 1_555
Cr1 Mg5 3.183566 1_545
Cr1 Mg5 3.183566 1_555
