# generated using pymatgen
data_CaMg14ZnO16
_symmetry_space_group_name_H-M   'P 1'
_cell_length_a   8.59790000
_cell_length_b   8.59790000
_cell_length_c   4.32472000
_cell_angle_alpha   90.00000000
_cell_angle_beta   90.00000000
_cell_angle_gamma   90.00000000
_symmetry_Int_Tables_number   1
_chemical_formula_structural   CaMg14ZnO16
_chemical_formula_sum   'Ca1 Mg14 Zn1 O16'
_cell_volume   319.70010139
_cell_formula_units_Z   1
loop_
 _symmetry_equiv_pos_site_id
 _symmetry_equiv_pos_as_xyz
  1  'x, y, z'
loop_
 _atom_site_type_symbol
 _atom_site_label
 _atom_site_symmetry_multiplicity
 _atom_site_fract_x
 _atom_site_fract_y
 _atom_site_fract_z
 _atom_site_occupancy
  Ca  Ca0  1  0.00000000  0.00000000  0.00000000  1
  Mg  Mg0  1  0.50000000  0.00000000  0.00000000  1
  Mg  Mg1  1  0.00000000  0.50000000  0.00000000  1
  Mg  Mg2  1  0.25569300  0.00000000  0.50000000  1
  Mg  Mg3  1  0.74430700  0.00000000  0.50000000  1
  Mg  Mg4  1  0.25045400  0.50000000  0.50000000  1
  Mg  Mg5  1  0.74954600  0.50000000  0.50000000  1
  Mg  Mg6  1  0.00000000  0.25569300  0.50000000  1
  Mg  Mg7  1  0.50000000  0.25045400  0.50000000  1
  Mg  Mg8  1  0.00000000  0.74430700  0.50000000  1
  Mg  Mg9  1  0.50000000  0.74954600  0.50000000  1
  Mg  Mg10  1  0.25312100  0.25312100  0.00000000  1
  Mg  Mg11  1  0.74687900  0.25312100  0.00000000  1
  Mg  Mg12  1  0.25312100  0.74687900  0.00000000  1
  Mg  Mg13  1  0.74687900  0.74687900  0.00000000  1
  Zn  Zn0  1  0.50000000  0.50000000  0.00000000  1
  O  O0  1  0.00000000  0.26329400  0.00000000  1
  O  O1  1  0.50000000  0.24888800  0.00000000  1
  O  O2  1  0.00000000  0.73670600  0.00000000  1
  O  O3  1  0.50000000  0.75111200  0.00000000  1
  O  O4  1  0.25009300  0.25009300  0.50000000  1
  O  O5  1  0.74990700  0.25009300  0.50000000  1
  O  O6  1  0.25009300  0.74990700  0.50000000  1
  O  O7  1  0.74990700  0.74990700  0.50000000  1
  O  O8  1  0.00000000  0.00000000  0.50000000  1
  O  O9  1  0.50000000  0.00000000  0.50000000  1
  O  O10  1  0.00000000  0.50000000  0.50000000  1
  O  O11  1  0.50000000  0.50000000  0.50000000  1
  O  O12  1  0.26329400  0.00000000  0.00000000  1
  O  O13  1  0.73670600  0.00000000  0.00000000  1
  O  O14  1  0.24888800  0.50000000  0.00000000  1
  O  O15  1  0.75111200  0.50000000  0.00000000  1
loop_
_geom_bond_atom_site_label_1
_geom_bond_atom_site_label_2
_geom_bond_distance
_geom_bond_site_symmetry_2
Ca0 O8 2.162360 1_554
Ca0 O8 2.162360 1_555
Ca0 O0 2.263775 1_555
Ca0 O12 2.263775 1_555
Ca0 O13 2.263775 1_455
Ca0 O2 2.263775 1_545
Mg0 O13 2.035175 1_555
Mg0 O12 2.035175 1_555
Mg0 O3 2.139914 1_545
Mg0 O1 2.139914 1_555
Mg0 O9 2.162360 1_554
Mg0 O9 2.162360 1_555
Mg1 O2 2.035175 1_555
Mg1 O0 2.035175 1_555
Mg1 O14 2.139914 1_555
Mg1 O15 2.139914 1_455
Mg1 O10 2.162360 1_555
Mg1 O10 2.162360 1_554
Mg2 O9 2.100527 1_555
Mg2 O4 2.150814 1_555
Mg2 O6 2.150814 1_545
Mg2 O12 2.163347 1_556
Mg2 O12 2.163347 1_555
Mg2 O8 2.198423 1_555
Mg3 O9 2.100527 1_555
Mg3 O7 2.150814 1_545
Mg3 O5 2.150814 1_555
Mg3 O13 2.163347 1_555
Mg3 O13 2.163347 1_556
Mg3 O8 2.198423 1_655
Mg4 O11 2.145572 1_555
Mg4 O4 2.148678 1_555
Mg4 O6 2.148678 1_555
Mg4 O10 2.153378 1_555
Mg4 O14 2.162402 1_555
Mg4 O14 2.162402 1_556
Mg5 O11 2.145572 1_555
Mg5 O5 2.148678 1_555
Mg5 O7 2.148678 1_555
Mg5 O10 2.153378 1_655
Mg5 O15 2.162402 1_556
Mg5 O15 2.162402 1_555
Mg6 O10 2.100527 1_555
Mg6 O4 2.150814 1_555
Mg6 O5 2.150814 1_455
Mg6 O0 2.163347 1_555
Mg6 O0 2.163347 1_556
Mg6 O8 2.198423 1_555
Mg7 O11 2.145572 1_555
Mg7 O4 2.148678 1_555
Mg7 O5 2.148678 1_555
Mg7 O9 2.153378 1_555
Mg7 O1 2.162402 1_556
Mg7 O1 2.162402 1_555
Mg8 O10 2.100527 1_555
Mg8 O7 2.150814 1_455
Mg8 O6 2.150814 1_555
Mg8 O2 2.163347 1_555
Mg8 O2 2.163347 1_556
Mg8 O8 2.198423 1_565
Mg9 O11 2.145572 1_555
Mg9 O6 2.148678 1_555
Mg9 O7 2.148678 1_555
Mg9 O9 2.153378 1_565
Mg9 O3 2.162402 1_555
Mg9 O3 2.162402 1_556
Mg10 O1 2.122953 1_555
Mg10 O14 2.122953 1_555
Mg10 O4 2.162673 1_554
Mg10 O4 2.162673 1_555
Mg10 O12 2.178066 1_555
Mg10 O0 2.178066 1_555
Mg11 O1 2.122953 1_555
Mg11 O15 2.122953 1_555
Mg11 O5 2.162673 1_554
Mg11 O5 2.162673 1_555
Mg11 O13 2.178066 1_555
Mg11 O0 2.178066 1_655
Mg12 O14 2.122953 1_555
Mg12 O3 2.122953 1_555
Mg12 O6 2.162673 1_554
Mg12 O6 2.162673 1_555
Mg12 O2 2.178066 1_555
Mg12 O12 2.178066 1_565
Mg13 O15 2.122953 1_555
Mg13 O3 2.122953 1_555
Mg13 O7 2.162673 1_554
Mg13 O7 2.162673 1_555
Mg13 O2 2.178066 1_655
Mg13 O13 2.178066 1_565
O1 Zn0 2.159036 1_555
O3 Zn0 2.159036 1_555
O11 Zn0 2.162360 1_556
O11 Zn0 2.162360 1_555
O14 Zn0 2.159036 1_555
O15 Zn0 2.159036 1_555
