# generated using pymatgen
data_Li8(FeO2)5
_symmetry_space_group_name_H-M   'P 1'
_cell_length_a   5.50561887
_cell_length_b   6.80254771
_cell_length_c   15.60787904
_cell_angle_alpha   97.51396096
_cell_angle_beta   81.58491872
_cell_angle_gamma   115.04984074
_symmetry_Int_Tables_number   1
_chemical_formula_structural   Li8(FeO2)5
_chemical_formula_sum   'Li16 Fe10 O20'
_cell_volume   522.31944474
_cell_formula_units_Z   2
loop_
 _symmetry_equiv_pos_site_id
 _symmetry_equiv_pos_as_xyz
  1  'x, y, z'
loop_
 _atom_site_type_symbol
 _atom_site_label
 _atom_site_symmetry_multiplicity
 _atom_site_fract_x
 _atom_site_fract_y
 _atom_site_fract_z
 _atom_site_occupancy
  Li  Li0  1  0.85504200  0.34363000  0.03385900  1
  Li  Li1  1  0.37192400  0.35733600  0.52929900  1
  Li  Li2  1  0.42804300  0.04264800  0.07068400  1
  Li  Li3  1  0.94488600  0.05623100  0.56613400  1
  Li  Li4  1  0.48604100  0.16351700  0.22185100  1
  Li  Li5  1  0.99135400  0.16372300  0.71897500  1
  Li  Li6  1  0.31389800  0.23647200  0.37819100  1
  Li  Li7  1  0.80885800  0.23645400  0.88098800  1
  Li  Li8  1  0.10210500  0.70265200  0.13495800  1
  Li  Li9  1  0.63512400  0.71412200  0.63282200  1
  Li  Li10  1  0.69789700  0.69727600  0.46508400  1
  Li  Li11  1  0.16474500  0.68591300  0.96713700  1
  Li  Li12  1  0.05218800  0.87956700  0.27856400  1
  Li  Li13  1  0.54811700  0.87700100  0.77625100  1
  Li  Li14  1  0.74779200  0.52045700  0.32152500  1
  Li  Li15  1  0.25228300  0.52315000  0.82373100  1
  Fe  Fe0  1  0.90029200  0.70035900  0.79981700  1
  Fe  Fe1  1  0.39955500  0.69964400  0.30013700  1
  Fe  Fe2  1  0.79248700  0.89474500  0.10171200  1
  Fe  Fe3  1  0.32558500  0.91119800  0.58970700  1
  Fe  Fe4  1  0.47435900  0.48881900  0.01017200  1
  Fe  Fe5  1  0.00750900  0.50520600  0.49839100  1
  Fe  Fe6  1  0.09318800  0.29932300  0.19854500  1
  Fe  Fe7  1  0.59307100  0.30226700  0.70164400  1
  Fe  Fe8  1  0.70640000  0.10041400  0.40177300  1
  Fe  Fe9  1  0.20707700  0.09799200  0.89812200  1
  O  O0  1  0.77188600  0.17934200  0.13125400  1
  O  O1  1  0.28584700  0.18369800  0.62728500  1
  O  O2  1  0.02802100  0.22051100  0.46878100  1
  O  O3  1  0.51404400  0.21636200  0.97264000  1
  O  O4  1  0.83820100  0.62727600  0.04559500  1
  O  O5  1  0.37943500  0.65432800  0.54560600  1
  O  O6  1  0.42052000  0.74562400  0.05439700  1
  O  O7  1  0.96180800  0.77256900  0.55440800  1
  O  O8  1  0.39805100  0.40836400  0.27515600  1
  O  O9  1  0.89780700  0.41608700  0.77984300  1
  O  O10  1  0.40186200  0.99150700  0.32503800  1
  O  O11  1  0.90255100  0.98413400  0.81993900  1
  O  O12  1  0.13094500  0.01200800  0.16497600  1
  O  O13  1  0.63268200  0.01519300  0.66377100  1
  O  O14  1  0.66903500  0.38789000  0.43510300  1
  O  O15  1  0.16717500  0.38490000  0.93610500  1
  O  O16  1  0.07100600  0.58695200  0.24317400  1
  O  O17  1  0.58148000  0.59441700  0.74535300  1
  O  O18  1  0.72902400  0.81287400  0.35699600  1
  O  O19  1  0.21880200  0.80584700  0.85450700  1
loop_
_geom_bond_atom_site_label_1
_geom_bond_atom_site_label_2
_geom_bond_distance
_geom_bond_site_symmetry_2
Li0 O0 1.891221 1_555
Li0 O4 1.954296 1_555
Li0 O3 2.029646 1_554
Li0 O15 2.072664 1_654
Li1 O1 1.935199 1_555
Li1 O5 1.986445 1_555
Li1 O14 1.992131 1_555
Li1 O2 2.035839 1_555
Li2 O3 1.936324 1_554
Li2 O6 1.986635 1_545
Li2 O12 1.992944 1_555
Li2 O0 2.036010 1_555
Li3 O2 1.890649 1_655
Li3 O7 1.954612 1_545
Li3 O1 2.028861 1_655
Li3 O13 2.071959 1_555
Li4 O0 1.932042 1_555
Li4 O8 1.975835 1_555
Li4 O10 1.998230 1_545
Li4 O12 2.057851 1_555
Li5 O1 1.969890 1_655
Li5 O11 1.996735 1_545
Li5 O13 2.059970 1_555
Li5 O9 2.072171 1_555
Li6 O2 1.931916 1_555
Li6 O10 1.975823 1_545
Li6 O8 1.995760 1_555
Li6 O14 2.058297 1_555
Li7 O3 1.970595 1_555
Li7 O9 1.999168 1_555
Li7 O15 2.057694 1_655
Li7 O11 2.073225 1_545
Li8 O16 1.910623 1_555
Li8 O6 1.938231 1_555
Li8 O4 2.023508 1_455
Li8 O12 2.038189 1_565
Li9 O7 1.941218 1_555
Li9 O17 1.963088 1_555
Li9 O5 1.982760 1_555
Li9 O13 2.047120 1_565
Li10 O18 1.908403 1_555
Li10 O5 1.938122 1_555
Li10 O7 2.023152 1_555
Li10 O14 2.038286 1_555
Li11 O4 1.940866 1_456
Li11 O19 1.964895 1_555
Li11 O6 1.983732 1_556
Li11 O15 2.046846 1_555
Li12 O18 1.922036 1_455
Li12 O10 1.958351 1_555
Li12 O12 2.001172 1_565
Li12 O16 2.036754 1_555
Li13 O19 1.943375 1_555
Li13 O11 1.964475 1_555
Li13 O17 1.998033 1_555
Li13 O13 2.001069 1_565
Li14 O16 1.921664 1_655
Li14 O8 1.957835 1_555
Li14 O14 2.001437 1_555
Li14 O18 2.035512 1_555
Li15 O17 1.943848 1_555
Li15 O9 1.966114 1_455
Li15 O19 1.998887 1_555
Li15 O15 1.999484 1_555
Fe0 O17 1.878354 1_555
Fe0 O19 1.879088 1_655
Fe0 O11 1.909832 1_555
Fe0 O9 1.912599 1_555
Fe1 O16 1.941215 1_555
Fe1 O18 1.944332 1_555
Fe1 O8 1.965507 1_555
Fe1 O10 1.967575 1_555
Fe2 O0 1.977544 1_565
Fe2 O4 2.011824 1_555
Fe2 O12 2.038982 1_665
Fe2 O6 2.062973 1_555
Fe3 O5 1.918175 1_555
Fe3 O7 1.947257 1_455
Fe3 O1 1.962033 1_565
Fe3 O13 2.010155 1_565
Fe4 O6 1.918156 1_555
Fe4 O4 1.948271 1_555
Fe4 O3 1.961503 1_554
Fe4 O15 2.010599 1_554
Fe5 O2 1.978081 1_555
Fe5 O7 2.010677 1_455
Fe5 O14 2.039245 1_455
Fe5 O5 2.062099 1_555
Fe6 O0 1.998856 1_455
Fe6 O8 2.024444 1_555
Fe6 O16 2.037018 1_555
Fe6 O12 2.045005 1_555
Fe7 O1 2.008234 1_555
Fe7 O9 2.038674 1_555
Fe7 O17 2.039402 1_555
Fe7 O13 2.057073 1_555
Fe8 O2 1.997561 1_655
Fe8 O10 2.024427 1_545
Fe8 O18 2.037943 1_545
Fe8 O14 2.044621 1_555
Fe9 O3 2.008816 1_555
Fe9 O11 2.037628 1_445
Fe9 O19 2.039365 1_545
Fe9 O15 2.056994 1_555
