# generated using pymatgen
data_Ca(InS2)2
_symmetry_space_group_name_H-M   'P 1'
_cell_length_a   7.89061817
_cell_length_b   7.89061817
_cell_length_c   7.89061817
_cell_angle_alpha   120.55443886
_cell_angle_beta   118.92350551
_cell_angle_gamma   90.45846851
_symmetry_Int_Tables_number   1
_chemical_formula_structural   Ca(InS2)2
_chemical_formula_sum   'Ca2 In4 S8'
_cell_volume   348.66168905
_cell_formula_units_Z   2
loop_
 _symmetry_equiv_pos_site_id
 _symmetry_equiv_pos_as_xyz
  1  'x, y, z'
loop_
 _atom_site_type_symbol
 _atom_site_label
 _atom_site_symmetry_multiplicity
 _atom_site_fract_x
 _atom_site_fract_y
 _atom_site_fract_z
 _atom_site_occupancy
  Ca  Ca0  1  0.00000000  0.00000000  0.50000000  1
  Ca  Ca1  1  0.00000000  0.50000000  0.00000000  1
  In  In0  1  0.38597700  0.63597700  0.75000000  1
  In  In1  1  0.61402300  0.36402300  0.25000000  1
  In  In2  1  0.00000000  0.00000000  0.00000000  1
  In  In3  1  0.50000000  0.00000000  0.50000000  1
  S  S0  1  0.25100800  0.76782400  0.01681600  1
  S  S1  1  0.25100800  0.23419200  0.48318400  1
  S  S2  1  0.25548800  0.76197100  0.49351700  1
  S  S3  1  0.76845400  0.76197100  0.00648300  1
  S  S4  1  0.74899200  0.23217600  0.98318400  1
  S  S5  1  0.74899200  0.76580800  0.51681600  1
  S  S6  1  0.74451200  0.23802900  0.50648300  1
  S  S7  1  0.23154600  0.23802900  0.99351700  1
loop_
_geom_bond_atom_site_label_1
_geom_bond_atom_site_label_2
_geom_bond_distance
_geom_bond_site_symmetry_2
Ca0 S7 2.767126 1_555
Ca0 S6 2.767126 1_455
Ca0 S2 2.767126 1_545
Ca0 S3 2.767126 1_445
Ca0 S1 2.792875 1_555
Ca0 S5 2.792875 1_445
Ca1 S7 2.767126 1_554
Ca1 S2 2.767126 1_555
Ca1 S6 2.767126 1_454
Ca1 S3 2.767126 1_455
Ca1 S4 2.792875 1_454
Ca1 S0 2.792875 1_555
In0 S2 2.488120 1_555
In0 S3 2.488120 1_556
In0 S0 2.570727 1_556
In0 S1 2.570727 1_555
In1 S7 2.488120 1_554
In1 S6 2.488120 1_555
In1 S5 2.570727 1_555
In1 S4 2.570727 1_554
In2 S7 2.646033 1_554
In2 S3 2.646033 1_445
In2 S4 2.710663 1_454
In2 S0 2.710663 1_545
In2 S1 2.710663 1_555
In2 S5 2.710663 1_444
In3 S6 2.646033 1_555
In3 S2 2.646033 1_545
In3 S1 2.710663 1_555
In3 S4 2.710663 1_555
In3 S5 2.710663 1_545
In3 S0 2.710663 1_545
