# generated using pymatgen
data_K2AlB5O14
_symmetry_space_group_name_H-M   'P 1'
_cell_length_a   7.01358059
_cell_length_b   7.01358059
_cell_length_c   12.96608500
_cell_angle_alpha   90.00000000
_cell_angle_beta   90.00000000
_cell_angle_gamma   92.57996330
_symmetry_Int_Tables_number   1
_chemical_formula_structural   K2AlB5O14
_chemical_formula_sum   'K4 Al2 B10 O28'
_cell_volume   637.15927732
_cell_formula_units_Z   2
loop_
 _symmetry_equiv_pos_site_id
 _symmetry_equiv_pos_as_xyz
  1  'x, y, z'
loop_
 _atom_site_type_symbol
 _atom_site_label
 _atom_site_symmetry_multiplicity
 _atom_site_fract_x
 _atom_site_fract_y
 _atom_site_fract_z
 _atom_site_occupancy
  K  K0  1  0.09328800  0.46940600  0.60027700  1
  K  K1  1  0.53059400  0.90671200  0.89972300  1
  K  K2  1  0.90671200  0.53059400  0.10027700  1
  K  K3  1  0.46940600  0.09328800  0.39972300  1
  Al  Al0  1  0.60948700  0.39051300  0.75000000  1
  Al  Al1  1  0.39051300  0.60948700  0.25000000  1
  B  B0  1  0.70683300  0.76545900  0.67749300  1
  B  B1  1  0.23454100  0.29316700  0.82250700  1
  B  B2  1  0.29316700  0.23454100  0.17749300  1
  B  B3  1  0.76545900  0.70683300  0.32250700  1
  B  B4  1  0.83699100  0.83699100  0.50000000  1
  B  B5  1  0.16300900  0.16300900  0.00000000  1
  B  B6  1  0.73487600  0.09638000  0.62029400  1
  B  B7  1  0.90362000  0.26512400  0.87970600  1
  B  B8  1  0.26512400  0.90362000  0.12029400  1
  B  B9  1  0.09638000  0.73487600  0.37970600  1
  O  O0  1  0.81133800  0.18866200  0.25000000  1
  O  O1  1  0.18866200  0.81133800  0.75000000  1
  O  O2  1  0.65186300  0.64034800  0.75269800  1
  O  O3  1  0.35965200  0.34813700  0.74730200  1
  O  O4  1  0.34813700  0.35965200  0.25269800  1
  O  O5  1  0.64034800  0.65186300  0.24730200  1
  O  O6  1  0.48973900  0.48973900  0.50000000  1
  O  O7  1  0.51026100  0.51026100  0.00000000  1
  O  O8  1  0.70973500  0.28380100  0.63933800  1
  O  O9  1  0.71619900  0.29026500  0.86066200  1
  O  O10  1  0.29026500  0.71619900  0.13933800  1
  O  O11  1  0.28380100  0.70973500  0.36066200  1
  O  O12  1  0.79050800  0.70827500  0.58761200  1
  O  O13  1  0.29172500  0.20949200  0.91238800  1
  O  O14  1  0.20949200  0.29172500  0.08761200  1
  O  O15  1  0.70827500  0.79050800  0.41238800  1
  O  O16  1  0.68010800  0.95961100  0.69549200  1
  O  O17  1  0.04038900  0.31989200  0.80450800  1
  O  O18  1  0.31989200  0.04038900  0.19549200  1
  O  O19  1  0.95961100  0.68010800  0.30450800  1
  O  O20  1  0.80869100  0.03855600  0.52804800  1
  O  O21  1  0.96144400  0.19130900  0.97195200  1
  O  O22  1  0.19130900  0.96144400  0.02804800  1
  O  O23  1  0.03855600  0.80869100  0.47195200  1
  O  O24  1  0.93931100  0.18629700  0.32169200  1
  O  O25  1  0.81370300  0.06068900  0.17830800  1
  O  O26  1  0.06068900  0.81370300  0.82169200  1
  O  O27  1  0.18629700  0.93931100  0.67830800  1
loop_
_geom_bond_atom_site_label_1
_geom_bond_atom_site_label_2
_geom_bond_distance
_geom_bond_site_symmetry_2
K0 O12 2.768309 1_455
K0 O3 2.826768 1_555
K0 O17 2.866104 1_555
K0 O23 2.942885 1_555
K0 O8 2.978649 1_455
K0 O6 3.067013 1_555
K0 O1 3.134160 1_555
K1 O13 2.768309 1_565
K1 O2 2.826768 1_555
K1 O16 2.866104 1_555
K1 O22 2.942885 1_556
K1 O9 2.978649 1_565
K1 O7 3.067013 1_556
K1 O1 3.134160 1_555
K2 O14 2.768309 1_655
K2 O5 2.826768 1_555
K2 O19 2.866104 1_555
K2 O21 2.942885 1_554
K2 O10 2.978649 1_655
K2 O7 3.067013 1_555
K2 O0 3.134160 1_555
K3 O15 2.768309 1_545
K3 O4 2.826768 1_555
K3 O18 2.866104 1_555
K3 O20 2.942885 1_555
K3 O11 2.978649 1_545
K3 O6 3.067013 1_555
K3 O0 3.134160 1_555
Al0 O3 1.764372 1_555
Al0 O2 1.764372 1_555
Al0 O8 1.777829 1_555
Al0 O9 1.777829 1_555
Al1 O4 1.764372 1_555
Al1 O5 1.764372 1_555
Al1 O11 1.777829 1_555
Al1 O10 1.777829 1_555
B0 O2 1.356095 1_555
B0 O12 1.372813 1_555
B0 O16 1.402428 1_555
B1 O3 1.356095 1_555
B1 O13 1.372813 1_555
B1 O17 1.402428 1_555
B2 O4 1.356095 1_555
B2 O14 1.372813 1_555
B2 O18 1.402428 1_555
B3 O5 1.356095 1_555
B3 O15 1.372813 1_555
B3 O19 1.402428 1_555
B4 O15 1.478251 1_555
B4 O12 1.478251 1_555
B4 O23 1.481702 1_655
B4 O20 1.481702 1_565
B5 O14 1.478251 1_555
B5 O13 1.478251 1_554
B5 O21 1.481702 1_454
B5 O22 1.481702 1_545
B6 O8 1.356769 1_555
B6 O20 1.371852 1_555
B6 O16 1.408968 1_545
B7 O9 1.356769 1_555
B7 O21 1.371852 1_555
B7 O17 1.408968 1_655
B8 O10 1.356769 1_555
B8 O22 1.371852 1_555
B8 O18 1.408968 1_565
B9 O11 1.356769 1_555
B9 O23 1.371852 1_555
B9 O19 1.408968 1_455
O0 O24 1.292788 1_555
O0 O25 1.292788 1_555
O1 O26 1.292788 1_555
O1 O27 1.292788 1_555
