# generated using pymatgen
data_PbSe
_symmetry_space_group_name_H-M   'P 1'
_cell_length_a   4.41518400
_cell_length_b   4.45645100
_cell_length_c   13.21981800
_cell_angle_alpha   90.00000000
_cell_angle_beta   90.00000000
_cell_angle_gamma   90.00000000
_symmetry_Int_Tables_number   1
_chemical_formula_structural   PbSe
_chemical_formula_sum   'Pb4 Se4'
_cell_volume   260.11381519
_cell_formula_units_Z   4
loop_
 _symmetry_equiv_pos_site_id
 _symmetry_equiv_pos_as_xyz
  1  'x, y, z'
loop_
 _atom_site_type_symbol
 _atom_site_label
 _atom_site_symmetry_multiplicity
 _atom_site_fract_x
 _atom_site_fract_y
 _atom_site_fract_z
 _atom_site_occupancy
  Pb  Pb0  1  0.91028600  0.75000000  0.14041900  1
  Pb  Pb1  1  0.58971400  0.75000000  0.64041900  1
  Pb  Pb2  1  0.08971400  0.25000000  0.85958100  1
  Pb  Pb3  1  0.41028600  0.25000000  0.35958100  1
  Se  Se0  1  0.95175400  0.75000000  0.35769400  1
  Se  Se1  1  0.54824600  0.75000000  0.85769400  1
  Se  Se2  1  0.04824600  0.25000000  0.64230600  1
  Se  Se3  1  0.45175400  0.25000000  0.14230600  1
loop_
_geom_bond_atom_site_label_1
_geom_bond_atom_site_label_2
_geom_bond_distance
_geom_bond_site_symmetry_2
Pb0 Se0 2.878165 1_555
Pb0 Se3 3.010685 1_565
Pb0 Se3 3.010685 1_555
Pb0 Se3 3.268175 1_665
Pb0 Se3 3.268175 1_655
Pb1 Se1 2.878165 1_555
Pb1 Se2 3.010685 1_665
Pb1 Se2 3.010685 1_655
Pb1 Se2 3.268175 1_565
Pb1 Se2 3.268175 1_555
Pb2 Se2 2.878165 1_555
Pb2 Se1 3.010685 1_555
Pb2 Se1 3.010685 1_545
Pb2 Se1 3.268175 1_455
Pb2 Se1 3.268175 1_445
Pb3 Se3 2.878165 1_555
Pb3 Se0 3.010685 1_445
Pb3 Se0 3.010685 1_455
Pb3 Se0 3.268175 1_545
Pb3 Se0 3.268175 1_555
