# generated using pymatgen
data_SrH6(CO3)2
_symmetry_space_group_name_H-M   'P 1'
_cell_length_a   7.21248600
_cell_length_b   7.46693100
_cell_length_c   12.21164300
_cell_angle_alpha   90.00000000
_cell_angle_beta   90.00000000
_cell_angle_gamma   90.00000000
_symmetry_Int_Tables_number   1
_chemical_formula_structural   SrH6(CO3)2
_chemical_formula_sum   'Sr4 H24 C8 O24'
_cell_volume   657.65968601
_cell_formula_units_Z   4
loop_
 _symmetry_equiv_pos_site_id
 _symmetry_equiv_pos_as_xyz
  1  'x, y, z'
loop_
 _atom_site_type_symbol
 _atom_site_label
 _atom_site_symmetry_multiplicity
 _atom_site_fract_x
 _atom_site_fract_y
 _atom_site_fract_z
 _atom_site_occupancy
  Sr  Sr0  1  0.30723400  0.24438700  0.57200000  1
  Sr  Sr1  1  0.80723400  0.25561300  0.42800000  1
  Sr  Sr2  1  0.69276600  0.74438700  0.92800000  1
  Sr  Sr3  1  0.19276600  0.75561300  0.07200000  1
  H  H0  1  0.41052300  0.05947700  0.34232100  1
  H  H1  1  0.91052300  0.44052300  0.65767900  1
  H  H2  1  0.58947700  0.55947700  0.15767900  1
  H  H3  1  0.08947700  0.94052300  0.84232100  1
  H  H4  1  0.53104500  0.95525100  0.42917100  1
  H  H5  1  0.03104500  0.54474900  0.57082900  1
  H  H6  1  0.46895500  0.45525100  0.07082900  1
  H  H7  1  0.96895500  0.04474900  0.92917100  1
  H  H8  1  0.20403100  0.88748600  0.66706300  1
  H  H9  1  0.70403100  0.61251400  0.33293700  1
  H  H10  1  0.79596900  0.38748600  0.83293700  1
  H  H11  1  0.29596900  0.11251400  0.16706300  1
  H  H12  1  0.37110900  0.95360700  0.74364600  1
  H  H13  1  0.87110900  0.54639300  0.25635400  1
  H  H14  1  0.62889100  0.45360700  0.75635400  1
  H  H15  1  0.12889100  0.04639300  0.24364600  1
  H  H16  1  0.97195400  0.79826000  0.42155900  1
  H  H17  1  0.47195400  0.70174000  0.57844100  1
  H  H18  1  0.02804600  0.29826000  0.07844100  1
  H  H19  1  0.52804600  0.20174000  0.92155900  1
  H  H20  1  0.86691900  0.01404600  0.69018200  1
  H  H21  1  0.36691900  0.48595400  0.30981800  1
  H  H22  1  0.13308100  0.51404600  0.80981800  1
  H  H23  1  0.63308100  0.98595400  0.19018200  1
  C  C0  1  0.71325100  0.02353800  0.68739400  1
  C  C1  1  0.21325100  0.47646200  0.31260600  1
  C  C2  1  0.28674900  0.52353800  0.81260600  1
  C  C3  1  0.78674900  0.97646200  0.18739400  1
  C  C4  1  0.04366900  0.85883300  0.49264900  1
  C  C5  1  0.54366900  0.64116700  0.50735100  1
  C  C6  1  0.95633100  0.35883300  0.00735100  1
  C  C7  1  0.45633100  0.14116700  0.99264900  1
  O  O0  1  0.64415600  0.12005000  0.61207000  1
  O  O1  1  0.14415600  0.37995000  0.38793000  1
  O  O2  1  0.35584400  0.62005000  0.88793000  1
  O  O3  1  0.85584400  0.87995000  0.11207000  1
  O  O4  1  0.62246200  0.93706500  0.75908000  1
  O  O5  1  0.12246200  0.56293500  0.24092000  1
  O  O6  1  0.37753800  0.43706500  0.74092000  1
  O  O7  1  0.87753800  0.06293500  0.25908000  1
  O  O8  1  0.05127100  0.02895900  0.49686400  1
  O  O9  1  0.55127100  0.47104000  0.50313600  1
  O  O10  1  0.94872900  0.52896000  0.00313600  1
  O  O11  1  0.44872900  0.97104000  0.99686400  1
  O  O12  1  0.11172900  0.75367500  0.56372300  1
  O  O13  1  0.61172900  0.74632500  0.43627700  1
  O  O14  1  0.88827100  0.25367500  0.93627700  1
  O  O15  1  0.38827100  0.24632500  0.06372300  1
  O  O16  1  0.48500900  0.07864000  0.40957900  1
  O  O17  1  0.98500900  0.42136000  0.59042100  1
  O  O18  1  0.51499100  0.57864000  0.09042100  1
  O  O19  1  0.01499100  0.92136000  0.90957900  1
  O  O20  1  0.24215300  0.98293900  0.72027000  1
  O  O21  1  0.74215300  0.51706100  0.27973000  1
  O  O22  1  0.75784700  0.48293900  0.77973000  1
  O  O23  1  0.25784700  0.01706100  0.22027000  1
loop_
_geom_bond_atom_site_label_1
_geom_bond_atom_site_label_2
_geom_bond_distance
_geom_bond_site_symmetry_2
H0 O16 0.991803 1_555
H1 O17 0.991803 1_555
H2 O18 0.991803 1_555
H3 O19 0.991803 1_555
H4 O16 1.008142 1_565
H4 O13 1.667299 1_555
H5 O17 1.008142 1_455
H5 O12 1.667299 1_555
H6 O18 1.008142 1_555
H6 O15 1.667299 1_555
H7 O19 1.008142 1_645
H7 O14 1.667299 1_555
H8 O20 1.002880 1_555
H8 O12 1.741846 1_555
H9 O21 1.002880 1_555
H9 O13 1.741846 1_555
H10 O22 1.002880 1_555
H10 O14 1.741846 1_555
H11 O23 1.002880 1_555
H11 O15 1.741846 1_555
H12 O20 0.997261 1_555
H13 O21 0.997261 1_555
H14 O22 0.997261 1_555
H15 O23 0.997261 1_555
C0 H20 1.111114 1_555
C0 O4 1.269656 1_545
C0 O0 1.270343 1_555
C1 H21 1.111114 1_555
C1 O5 1.269656 1_555
C1 O1 1.270343 1_555
C2 H22 1.111114 1_555
C2 O6 1.269656 1_555
C2 O2 1.270343 1_555
C3 H23 1.111114 1_555
C3 O7 1.269656 1_565
C3 O3 1.270343 1_555
C4 H16 1.107137 1_455
C4 O12 1.269180 1_555
C4 O8 1.272543 1_565
C5 H17 1.107137 1_555
C5 O13 1.269180 1_555
C5 O9 1.272551 1_555
C6 H18 1.107137 1_655
C6 O14 1.269180 1_554
C6 O10 1.272551 1_555
C7 H19 1.107137 1_555
C7 O15 1.269180 1_556
C7 O11 1.272551 1_545
O0 Sr0 2.646981 1_555
O0 Sr1 2.731421 1_555
O1 Sr1 2.646981 1_455
O1 Sr0 2.731421 1_555
O2 Sr2 2.646981 1_555
O2 Sr3 2.731421 1_556
O3 Sr3 2.646981 1_655
O3 Sr2 2.731421 1_554
O4 Sr2 2.565564 1_555
O5 Sr3 2.565564 1_555
O6 Sr0 2.565564 1_555
O7 Sr1 2.565564 1_555
O8 Sr1 2.582525 1_455
O8 Sr0 2.614883 1_555
O9 Sr0 2.582520 1_555
O9 Sr1 2.614878 1_555
O10 Sr3 2.582520 1_655
O10 Sr2 2.614878 1_554
O11 Sr2 2.582520 1_555
O11 Sr3 2.614878 1_556
O16 Sr0 2.666407 1_555
O16 Sr1 2.682908 1_555
O17 Sr1 2.666407 1_555
O17 Sr0 2.682908 1_655
O18 Sr2 2.666407 1_554
O18 Sr3 2.682908 1_555
O19 Sr3 2.666407 1_556
O19 Sr2 2.682908 1_455
O20 Sr0 2.703668 1_565
O21 Sr1 2.703668 1_555
O22 Sr2 2.703668 1_555
O23 Sr3 2.703668 1_545
