# generated using pymatgen
data_LuSnF7
_symmetry_space_group_name_H-M   'P 1'
_cell_length_a   5.46829272
_cell_length_b   8.67819568
_cell_length_c   11.74439129
_cell_angle_alpha   62.73445897
_cell_angle_beta   90.00000000
_cell_angle_gamma   90.00000000
_symmetry_Int_Tables_number   1
_chemical_formula_structural   LuSnF7
_chemical_formula_sum   'Lu4 Sn4 F28'
_cell_volume   495.40587121
_cell_formula_units_Z   4
loop_
 _symmetry_equiv_pos_site_id
 _symmetry_equiv_pos_as_xyz
  1  'x, y, z'
loop_
 _atom_site_type_symbol
 _atom_site_label
 _atom_site_symmetry_multiplicity
 _atom_site_fract_x
 _atom_site_fract_y
 _atom_site_fract_z
 _atom_site_occupancy
  Lu  Lu0  1  0.25780322  0.81492324  0.26549760  1
  Lu  Lu1  1  0.74219678  0.18507676  0.73450240  1
  Lu  Lu2  1  0.75780322  0.18507676  0.23450240  1
  Lu  Lu3  1  0.24219678  0.81492324  0.76549760  1
  Sn  Sn0  1  0.75777271  0.72842570  0.04320483  1
  Sn  Sn1  1  0.24222729  0.27157430  0.95679517  1
  Sn  Sn2  1  0.25777271  0.27157430  0.45679517  1
  Sn  Sn3  1  0.74222729  0.72842570  0.54320483  1
  F  F0  1  0.95376588  0.70710000  0.41545256  1
  F  F1  1  0.04623412  0.29290000  0.58454744  1
  F  F2  1  0.45376588  0.29290000  0.08454744  1
  F  F3  1  0.54623412  0.70710000  0.91545256  1
  F  F4  1  0.47251997  0.72773479  0.14626405  1
  F  F5  1  0.52748003  0.27226521  0.85373595  1
  F  F6  1  0.97251997  0.27226521  0.35373595  1
  F  F7  1  0.02748003  0.72773479  0.64626405  1
  F  F8  1  0.95956977  0.74558107  0.17703160  1
  F  F9  1  0.04043023  0.25441893  0.82296840  1
  F  F10  1  0.45956977  0.25441893  0.32296840  1
  F  F11  1  0.54043023  0.74558107  0.67703160  1
  F  F12  1  0.77696841  0.47481295  0.14124210  1
  F  F13  1  0.22303159  0.52518705  0.85875790  1
  F  F14  1  0.27696841  0.52518705  0.35875790  1
  F  F15  1  0.72303159  0.47481295  0.64124210  1
  F  F16  1  0.93689497  0.27548545  0.04680414  1
  F  F17  1  0.06310503  0.72451455  0.95319586  1
  F  F18  1  0.43689497  0.72451455  0.45319586  1
  F  F19  1  0.56310503  0.27548545  0.54680414  1
  F  F20  1  0.74207871  0.98279897  0.44462558  1
  F  F21  1  0.25792129  0.01720103  0.55537442  1
  F  F22  1  0.24207871  0.01720103  0.05537442  1
  F  F23  1  0.75792129  0.98279897  0.94462558  1
  F  F24  1  0.58018483  0.96980393  0.23414497  1
  F  F25  1  0.41981517  0.03019607  0.76585503  1
  F  F26  1  0.08018483  0.03019607  0.26585503  1
  F  F27  1  0.91981517  0.96980393  0.73414497  1
loop_
_geom_bond_atom_site_label_1
_geom_bond_atom_site_label_2
_geom_bond_distance
_geom_bond_site_symmetry_2
F0 Sn3 1.969229 1_555
F0 Lu0 2.287224 1_655
F1 Sn2 1.969229 1_555
F1 Lu1 2.287224 1_455
F2 Sn1 1.969229 1_554
F2 Lu2 2.287224 1_555
F3 Sn0 1.969229 1_556
F3 Lu3 2.287224 1_555
F4 Sn0 1.972687 1_555
F4 Lu0 2.209703 1_555
F5 Sn1 1.972687 1_555
F5 Lu1 2.209703 1_555
F6 Sn2 1.972687 1_655
F6 Lu2 2.209703 1_555
F7 Sn3 1.972687 1_455
F7 Lu3 2.209703 1_555
F8 Sn0 1.981040 1_555
F8 Lu0 2.161954 1_655
F9 Sn1 1.981040 1_555
F9 Lu1 2.161954 1_455
F10 Sn2 1.981040 1_555
F10 Lu2 2.161954 1_555
F11 Sn3 1.981040 1_555
F11 Lu3 2.161954 1_555
F12 Sn0 1.964400 1_555
F12 Lu2 2.238192 1_555
F13 Sn1 1.964400 1_555
F13 Lu3 2.238192 1_555
F14 Sn2 1.964400 1_555
F14 Lu0 2.238192 1_555
F15 Sn3 1.964400 1_555
F15 Lu1 2.238192 1_555
F16 Sn1 1.984744 1_654
F16 Lu2 2.202132 1_555
F17 Sn0 1.984744 1_456
F17 Lu3 2.202132 1_555
F18 Sn3 1.984744 1_555
F18 Lu0 2.202132 1_555
F19 Sn2 1.984744 1_555
F19 Lu1 2.202132 1_555
F20 Sn3 1.967691 1_555
F20 Lu2 2.282472 1_565
F21 Sn2 1.967691 1_555
F21 Lu3 2.282472 1_545
F22 Sn1 1.967691 1_554
F22 Lu0 2.282472 1_545
F23 Sn0 1.967691 1_556
F23 Lu1 2.282472 1_565
F24 Lu2 2.107288 1_565
F24 Lu0 2.143928 1_555
F25 Lu3 2.107288 1_545
F25 Lu1 2.143928 1_555
F26 Lu0 2.107288 1_545
F26 Lu2 2.143928 1_455
F27 Lu1 2.107288 1_565
F27 Lu3 2.143928 1_655
