# generated using pymatgen
data_Li(CrS2)2
_symmetry_space_group_name_H-M   'P 1'
_cell_length_a   7.03467447
_cell_length_b   7.03467447
_cell_length_c   7.03467447
_cell_angle_alpha   119.85096188
_cell_angle_beta   119.85096188
_cell_angle_gamma   90.25833602
_symmetry_Int_Tables_number   1
_chemical_formula_structural   Li(CrS2)2
_chemical_formula_sum   'Li2 Cr4 S8'
_cell_volume   246.71154670
_cell_formula_units_Z   2
loop_
 _symmetry_equiv_pos_site_id
 _symmetry_equiv_pos_as_xyz
  1  'x, y, z'
loop_
 _atom_site_type_symbol
 _atom_site_label
 _atom_site_symmetry_multiplicity
 _atom_site_fract_x
 _atom_site_fract_y
 _atom_site_fract_z
 _atom_site_occupancy
  Li  Li0  1  0.00000000  -0.00000000  0.00000000  1
  Li  Li1  1  0.75000000  0.25000000  0.50000000  1
  Cr  Cr0  1  0.87500000  0.62500000  0.25000000  1
  Cr  Cr1  1  0.37500000  0.12500000  0.75000000  1
  Cr  Cr2  1  0.37500000  0.62500000  0.75000000  1
  Cr  Cr3  1  0.37500000  0.62500000  0.25000000  1
  S  S0  1  0.61360586  0.38418394  0.22942193  1
  S  S1  1  0.61581606  0.38639414  0.77057807  1
  S  S2  1  0.15476201  0.38418394  0.77057807  1
  S  S3  1  0.61581606  0.84523799  0.22942193  1
  S  S4  1  0.13639414  0.86581606  0.27057807  1
  S  S5  1  0.13418394  0.40476201  0.27057807  1
  S  S6  1  0.59523799  0.86581606  0.72942193  1
  S  S7  1  0.13418394  0.86360586  0.72942193  1
loop_
_geom_bond_atom_site_label_1
_geom_bond_atom_site_label_2
_geom_bond_distance
_geom_bond_site_symmetry_2
Li0 S5 2.326669 1_555
Li0 S6 2.326669 1_444
Li0 S4 2.326669 1_545
Li0 S7 2.326669 1_544
Li1 S3 2.326669 1_545
Li1 S2 2.326669 1_655
Li1 S1 2.326669 1_555
Li1 S0 2.326669 1_555
Cr0 S5 2.394079 1_655
Cr0 S3 2.394079 1_555
Cr0 S7 2.394079 1_655
Cr0 S1 2.394079 1_554
Cr0 S4 2.394758 1_655
Cr0 S0 2.394758 1_555
Cr1 S6 2.394079 1_545
Cr1 S2 2.394079 1_555
Cr1 S4 2.394079 1_545
Cr1 S0 2.394079 1_556
Cr1 S1 2.394758 1_555
Cr1 S7 2.394758 1_545
Cr2 S7 2.394079 1_555
Cr2 S1 2.394079 1_555
Cr2 S5 2.394079 1_555
Cr2 S3 2.394079 1_556
Cr2 S2 2.394758 1_555
Cr2 S6 2.394758 1_555
Cr3 S0 2.394079 1_555
Cr3 S4 2.394079 1_555
Cr3 S6 2.394079 1_555
Cr3 S2 2.394079 1_554
Cr3 S3 2.394758 1_555
Cr3 S5 2.394758 1_555
