# generated using pymatgen
data_CdGeN2
_symmetry_space_group_name_H-M   'P 1'
_cell_length_a   5.52620300
_cell_length_b   11.07878900
_cell_length_c   14.29200100
_cell_angle_alpha   90.00000000
_cell_angle_beta   90.00000000
_cell_angle_gamma   90.00000000
_symmetry_Int_Tables_number   1
_chemical_formula_structural   CdGeN2
_chemical_formula_sum   'Cd16 Ge16 N32'
_cell_volume   875.00828134
_cell_formula_units_Z   16
loop_
 _symmetry_equiv_pos_site_id
 _symmetry_equiv_pos_as_xyz
  1  'x, y, z'
loop_
 _atom_site_type_symbol
 _atom_site_label
 _atom_site_symmetry_multiplicity
 _atom_site_fract_x
 _atom_site_fract_y
 _atom_site_fract_z
 _atom_site_occupancy
  Cd  Cd0  1  0.72311800  0.97384900  0.43874300  1
  Cd  Cd1  1  0.22311800  0.52615100  0.56125700  1
  Cd  Cd2  1  0.27688200  0.47384900  0.06125700  1
  Cd  Cd3  1  0.77688200  0.02615100  0.93874300  1
  Cd  Cd4  1  0.27688200  0.02615100  0.56125700  1
  Cd  Cd5  1  0.77688200  0.47384900  0.43874300  1
  Cd  Cd6  1  0.72311800  0.52615100  0.93874300  1
  Cd  Cd7  1  0.22311800  0.97384900  0.06125700  1
  Cd  Cd8  1  0.79427000  0.25902300  0.31068600  1
  Cd  Cd9  1  0.29427000  0.24097700  0.68931400  1
  Cd  Cd10  1  0.20573000  0.75902300  0.18931400  1
  Cd  Cd11  1  0.70573000  0.74097700  0.81068600  1
  Cd  Cd12  1  0.20573000  0.74097700  0.68931400  1
  Cd  Cd13  1  0.70573000  0.75902300  0.31068600  1
  Cd  Cd14  1  0.79427000  0.24097700  0.81068600  1
  Cd  Cd15  1  0.29427000  0.25902300  0.18931400  1
  Ge  Ge0  1  0.68688800  0.02268400  0.18706500  1
  Ge  Ge1  1  0.18688800  0.47731600  0.81293500  1
  Ge  Ge2  1  0.31311200  0.52268400  0.31293500  1
  Ge  Ge3  1  0.81311200  0.97731600  0.68706500  1
  Ge  Ge4  1  0.31311200  0.97731600  0.81293500  1
  Ge  Ge5  1  0.81311200  0.52268400  0.18706500  1
  Ge  Ge6  1  0.68688800  0.47731600  0.68706500  1
  Ge  Ge7  1  0.18688800  0.02268400  0.31293500  1
  Ge  Ge8  1  0.78809900  0.27902200  0.06151000  1
  Ge  Ge9  1  0.28809900  0.22097800  0.93849000  1
  Ge  Ge10  1  0.21190100  0.77902200  0.43849000  1
  Ge  Ge11  1  0.71190100  0.72097800  0.56151000  1
  Ge  Ge12  1  0.21190100  0.72097800  0.93849000  1
  Ge  Ge13  1  0.71190100  0.77902200  0.06151000  1
  Ge  Ge14  1  0.78809900  0.22097800  0.56151000  1
  Ge  Ge15  1  0.28809900  0.27902200  0.43849000  1
  N  N0  1  0.63520800  0.47590900  0.29234800  1
  N  N1  1  0.13520800  0.02409100  0.70765200  1
  N  N2  1  0.36479200  0.97590900  0.20765200  1
  N  N3  1  0.86479200  0.52409100  0.79234800  1
  N  N4  1  0.36479200  0.52409100  0.70765200  1
  N  N5  1  0.86479200  0.97590900  0.29234800  1
  N  N6  1  0.63520800  0.02409100  0.79234800  1
  N  N7  1  0.13520800  0.47590900  0.20765200  1
  N  N8  1  0.62619100  0.27277100  0.45430000  1
  N  N9  1  0.12619100  0.22722900  0.54570000  1
  N  N10  1  0.37380900  0.77277100  0.04570000  1
  N  N11  1  0.87380900  0.72722900  0.95430000  1
  N  N12  1  0.37380900  0.72722900  0.54570000  1
  N  N13  1  0.87380900  0.77277100  0.45430000  1
  N  N14  1  0.62619100  0.22722900  0.95430000  1
  N  N15  1  0.12619100  0.27277100  0.04570000  1
  N  N16  1  0.69947000  0.44135700  0.08043500  1
  N  N17  1  0.19947000  0.05864300  0.91956500  1
  N  N18  1  0.30053000  0.94135700  0.41956500  1
  N  N19  1  0.80053000  0.55864300  0.58043500  1
  N  N20  1  0.30053000  0.55864300  0.91956500  1
  N  N21  1  0.80053000  0.94135700  0.08043500  1
  N  N22  1  0.69947000  0.05864300  0.58043500  1
  N  N23  1  0.19947000  0.44135700  0.41956500  1
  N  N24  1  0.68949000  0.19211800  0.16827300  1
  N  N25  1  0.18949000  0.30788200  0.83172700  1
  N  N26  1  0.31051000  0.69211800  0.33172700  1
  N  N27  1  0.81051000  0.80788200  0.66827300  1
  N  N28  1  0.31051000  0.80788200  0.83172700  1
  N  N29  1  0.81051000  0.69211800  0.16827300  1
  N  N30  1  0.68949000  0.30788200  0.66827300  1
  N  N31  1  0.18949000  0.19211800  0.33172700  1
loop_
_geom_bond_atom_site_label_1
_geom_bond_atom_site_label_2
_geom_bond_distance
_geom_bond_site_symmetry_2
Cd0 N5 2.234079 1_555
Cd0 N22 2.236170 1_565
Cd0 N18 2.378732 1_555
Cd0 N13 2.388631 1_555
Cd1 N4 2.234079 1_555
Cd1 N23 2.236170 1_555
Cd1 N19 2.378732 1_455
Cd1 N12 2.388631 1_555
Cd2 N7 2.234079 1_555
Cd2 N20 2.236170 1_554
Cd2 N16 2.378732 1_555
Cd2 N15 2.388631 1_555
Cd3 N6 2.234079 1_555
Cd3 N21 2.236170 1_546
Cd3 N17 2.378732 1_655
Cd3 N14 2.388631 1_555
Cd4 N1 2.234079 1_555
Cd4 N18 2.236170 1_545
Cd4 N22 2.378732 1_555
Cd4 N9 2.388631 1_555
Cd5 N0 2.234079 1_555
Cd5 N19 2.236170 1_555
Cd5 N23 2.378732 1_655
Cd5 N8 2.388631 1_555
Cd6 N3 2.234079 1_555
Cd6 N16 2.236170 1_556
Cd6 N20 2.378732 1_555
Cd6 N11 2.388631 1_555
Cd7 N2 2.234079 1_555
Cd7 N17 2.236170 1_564
Cd7 N21 2.378732 1_455
Cd7 N10 2.388631 1_555
Cd8 N24 2.242190 1_555
Cd8 N8 2.258058 1_555
Cd8 N31 2.325939 1_655
Cd8 N0 2.571956 1_555
Cd9 N25 2.242190 1_555
Cd9 N9 2.258058 1_555
Cd9 N30 2.325939 1_555
Cd9 N1 2.571956 1_555
Cd10 N26 2.242190 1_555
Cd10 N10 2.258058 1_555
Cd10 N29 2.325939 1_455
Cd10 N2 2.571956 1_555
Cd11 N27 2.242190 1_555
Cd11 N11 2.258058 1_555
Cd11 N28 2.325939 1_555
Cd11 N3 2.571956 1_555
Cd12 N28 2.242190 1_555
Cd12 N12 2.258058 1_555
Cd12 N27 2.325939 1_455
Cd12 N4 2.571956 1_555
Cd13 N29 2.242190 1_555
Cd13 N13 2.258058 1_555
Cd13 N26 2.325939 1_555
Cd13 N5 2.571956 1_555
Cd14 N30 2.242190 1_555
Cd14 N14 2.258058 1_555
Cd14 N25 2.325939 1_655
Cd14 N6 2.571956 1_555
Cd15 N31 2.242190 1_555
Cd15 N15 2.258058 1_555
Cd15 N24 2.325939 1_555
Cd15 N7 2.571956 1_555
Ge0 N5 1.870623 1_545
Ge0 N2 1.877072 1_545
Ge0 N21 1.878469 1_545
Ge0 N24 1.896294 1_555
Ge1 N4 1.870623 1_555
Ge1 N3 1.877072 1_455
Ge1 N20 1.878469 1_555
Ge1 N25 1.896294 1_555
Ge2 N7 1.870623 1_555
Ge2 N0 1.877072 1_555
Ge2 N23 1.878469 1_555
Ge2 N26 1.896294 1_555
Ge3 N6 1.870623 1_565
Ge3 N1 1.877072 1_665
Ge3 N22 1.878469 1_565
Ge3 N27 1.896294 1_555
Ge4 N1 1.870623 1_565
Ge4 N6 1.877072 1_565
Ge4 N17 1.878469 1_565
Ge4 N28 1.896294 1_555
Ge5 N0 1.870623 1_555
Ge5 N7 1.877072 1_655
Ge5 N16 1.878469 1_555
Ge5 N29 1.896294 1_555
Ge6 N3 1.870623 1_555
Ge6 N4 1.877072 1_555
Ge6 N19 1.878469 1_555
Ge6 N30 1.896294 1_555
Ge7 N2 1.870623 1_545
Ge7 N5 1.877072 1_445
Ge7 N18 1.878469 1_545
Ge7 N31 1.896294 1_555
Ge8 N14 1.864827 1_554
Ge8 N15 1.883253 1_655
Ge8 N16 1.883496 1_555
Ge8 N24 1.884717 1_555
Ge9 N15 1.864827 1_556
Ge9 N14 1.883253 1_555
Ge9 N17 1.883496 1_555
Ge9 N25 1.884717 1_555
Ge10 N12 1.864827 1_555
Ge10 N13 1.883253 1_455
Ge10 N18 1.883496 1_555
Ge10 N26 1.884717 1_555
Ge11 N13 1.864827 1_555
Ge11 N12 1.883253 1_555
Ge11 N19 1.883496 1_555
Ge11 N27 1.884717 1_555
Ge12 N10 1.864827 1_556
Ge12 N11 1.883253 1_455
Ge12 N20 1.883496 1_555
Ge12 N28 1.884717 1_555
Ge13 N11 1.864827 1_554
Ge13 N10 1.883253 1_555
Ge13 N21 1.883496 1_555
Ge13 N29 1.884717 1_555
Ge14 N8 1.864827 1_555
Ge14 N9 1.883253 1_655
Ge14 N22 1.883496 1_555
Ge14 N30 1.884717 1_555
Ge15 N9 1.864827 1_555
Ge15 N8 1.883253 1_555
Ge15 N23 1.883496 1_555
Ge15 N31 1.884717 1_555
