# generated using pymatgen
data_Tb12(MnC3)5
_symmetry_space_group_name_H-M   'P 1'
_cell_length_a   5.08161093
_cell_length_b   10.49989466
_cell_length_c   10.50339395
_cell_angle_alpha   120.01116590
_cell_angle_beta   90.00000083
_cell_angle_gamma   89.99999917
_symmetry_Int_Tables_number   1
_chemical_formula_structural   Tb12(MnC3)5
_chemical_formula_sum   'Tb12 Mn5 C15'
_cell_volume   485.28600107
_cell_formula_units_Z   1
loop_
 _symmetry_equiv_pos_site_id
 _symmetry_equiv_pos_as_xyz
  1  'x, y, z'
loop_
 _atom_site_type_symbol
 _atom_site_label
 _atom_site_symmetry_multiplicity
 _atom_site_fract_x
 _atom_site_fract_y
 _atom_site_fract_z
 _atom_site_occupancy
  Tb  Tb0  1  0.50000001  0.20671096  0.20700147  1
  Tb  Tb1  1  0.50000003  0.00000050  0.79042416  1
  Tb  Tb2  1  0.49999999  0.79329175  0.00029603  1
  Tb  Tb3  1  -0.00000003  0.73120813  0.18616520  1
  Tb  Tb4  1  -0.00000001  0.45559871  0.26937249  1
  Tb  Tb5  1  -0.00000000  0.54440939  0.81378109  1
  Tb  Tb6  1  0.00000003  0.81383709  0.54456761  1
  Tb  Tb7  1  0.00000005  0.18615961  0.73073192  1
  Tb  Tb8  1  -0.00000003  0.26879341  0.45495269  1
  Tb  Tb9  1  0.49999998  0.57311274  0.57241580  1
  Tb  Tb10  1  0.49999995  -0.00000693  0.43025446  1
  Tb  Tb11  1  0.50000002  0.42689223  0.99931280  1
  Mn  Mn0  1  0.00000001  0.84463566  0.84529463  1
  Mn  Mn1  1  -0.00000003  -0.00000398  0.15475301  1
  Mn  Mn2  1  0.00000001  0.15535882  0.00065563  1
  Mn  Mn3  1  0.50000001  0.66605060  0.33287202  1
  Mn  Mn4  1  0.50000002  0.33395089  0.66682183  1
  C  C0  1  0.00000001  0.67293692  0.67255577  1
  C  C1  1  0.00000001  -0.00000201  0.32680773  1
  C  C2  1  -0.00000003  0.32706558  0.99962329  1
  C  C3  1  -0.00000000  0.20583138  0.20547520  1
  C  C4  1  0.00000006  -0.00000250  0.79735638  1
  C  C5  1  -0.00000003  0.79417095  0.99964692  1
  C  C6  1  -0.00000003  0.54459249  0.54411389  1
  C  C7  1  0.00000000  -0.00000314  0.45527708  1
  C  C8  1  0.00000002  0.45540371  -0.00047689  1
  C  C9  1  0.49999997  0.71716476  0.19692953  1
  C  C10  1  0.49999999  0.47870157  0.28200418  1
  C  C11  1  0.50000001  0.52129913  0.80330569  1
  C  C12  1  0.50000000  0.80394677  0.52094341  1
  C  C13  1  0.50000001  0.19605599  0.71699775  1
  C  C14  1  0.49999999  0.28283879  0.47976723  1
loop_
_geom_bond_atom_site_label_1
_geom_bond_atom_site_label_2
_geom_bond_distance
_geom_bond_site_symmetry_2
C0 C6 1.348112 1_555
C0 Mn0 1.808304 1_555
C0 Tb6 2.446507 1_555
C0 Tb5 2.454388 1_555
C0 Tb9 2.749142 1_555
C0 Tb9 2.749142 1_455
C1 C7 1.349370 1_555
C1 Mn1 1.807148 1_555
C1 Tb3 2.444759 1_545
C1 Tb8 2.444811 1_555
C1 Tb10 2.763389 1_555
C1 Tb10 2.763390 1_455
C2 C8 1.348063 1_556
C2 Mn2 1.808351 1_556
C2 Tb7 2.446530 1_555
C2 Tb4 2.454347 1_556
C2 Tb11 2.749142 1_455
C2 Tb11 2.749142 1_555
C3 Mn2 1.941254 1_555
C3 Mn1 1.950134 1_555
C3 Tb4 2.359538 1_555
C3 Tb8 2.360179 1_555
C3 Tb0 2.540844 1_455
C3 Tb0 2.540844 1_555
C4 Mn2 1.932929 1_556
C4 Mn0 1.932941 1_545
C4 Tb7 2.383022 1_555
C4 Tb6 2.383028 1_545
C4 Tb1 2.541849 1_555
C4 Tb1 2.541849 1_455
C5 Mn0 1.941253 1_555
C5 Mn1 1.950036 1_566
C5 Tb5 2.359481 1_555
C5 Tb3 2.360216 1_556
C5 Tb2 2.540844 1_456
C5 Tb2 2.540844 1_556
C6 Tb4 2.550121 1_555
C6 Tb9 2.558258 1_455
C6 Tb9 2.558259 1_555
C6 Tb8 2.559328 1_555
C7 Tb10 2.554360 1_555
C7 Tb10 2.554361 1_455
C7 Tb6 2.556181 1_545
C7 Tb7 2.556216 1_555
C8 Tb5 2.550163 1_554
C8 Tb11 2.558253 1_554
C8 Tb11 2.558253 1_454
C8 Tb3 2.559376 1_555
C9 Mn3 1.758806 1_555
C9 Tb3 2.550862 1_555
C9 Tb3 2.550862 1_655
C9 Tb2 2.560446 1_555
C9 Tb11 2.696150 1_554
C9 Tb10 2.746751 1_565
C10 Mn3 1.761746 1_555
C10 Tb4 2.549499 1_655
C10 Tb4 2.549499 1_555
C10 Tb0 2.554612 1_555
C10 Tb9 2.694857 1_555
C10 Tb11 2.737957 1_554
C11 Mn4 1.761745 1_555
C11 Tb5 2.549504 1_655
C11 Tb5 2.549504 1_555
C11 Tb2 2.554631 1_556
C11 Tb11 2.694894 1_555
C11 Tb9 2.738070 1_555
C12 Mn3 1.771281 1_555
C12 Tb1 2.533875 1_565
C12 Tb6 2.549955 1_555
C12 Tb6 2.549955 1_655
C12 Tb10 2.665718 1_565
C12 Tb9 2.734514 1_555
C13 Mn4 1.771278 1_555
C13 Tb1 2.533894 1_555
C13 Tb7 2.549959 1_555
C13 Tb7 2.549960 1_655
C13 Tb10 2.665810 1_555
C13 Tb11 2.734573 1_555
C14 Mn4 1.758788 1_555
C14 Tb8 2.550867 1_655
C14 Tb8 2.550867 1_555
C14 Tb0 2.560494 1_555
C14 Tb9 2.696183 1_555
C14 Tb10 2.746901 1_555
