# generated using pymatgen
data_KTiO2F
_symmetry_space_group_name_H-M   'P 1'
_cell_length_a   3.87551400
_cell_length_b   3.87551400
_cell_length_c   4.18480400
_cell_angle_alpha   90.00000000
_cell_angle_beta   90.00000000
_cell_angle_gamma   90.00000000
_symmetry_Int_Tables_number   1
_chemical_formula_structural   KTiO2F
_chemical_formula_sum   'K1 Ti1 O2 F1'
_cell_volume   62.85411883
_cell_formula_units_Z   1
loop_
 _symmetry_equiv_pos_site_id
 _symmetry_equiv_pos_as_xyz
  1  'x, y, z'
loop_
 _atom_site_type_symbol
 _atom_site_label
 _atom_site_symmetry_multiplicity
 _atom_site_fract_x
 _atom_site_fract_y
 _atom_site_fract_z
 _atom_site_occupancy
  K  K0  1  0.00000000  0.00000000  0.00000000  1
  Ti  Ti0  1  0.50000000  0.50000000  0.50000000  1
  O  O0  1  0.50000000  0.00000000  0.50000000  1
  O  O1  1  0.00000000  0.50000000  0.50000000  1
  F  F0  1  0.50000000  0.50000000  0.00000000  1
loop_
_geom_bond_atom_site_label_1
_geom_bond_atom_site_label_2
_geom_bond_distance
_geom_bond_site_symmetry_2
K0 O0 2.851850 1_455
K0 O1 2.851850 1_545
K0 O0 2.851850 1_554
K0 O0 2.851850 1_454
K0 O1 2.851850 1_555
K0 O0 2.851850 1_555
K0 O1 2.851850 1_554
K0 O1 2.851850 1_544
O0 Ti0 1.937757 1_555
O0 Ti0 1.937757 1_545
O1 Ti0 1.937757 1_555
O1 Ti0 1.937757 1_455
F0 Ti0 2.092402 1_555
F0 Ti0 2.092402 1_554
F0 K0 2.740402 1_555
F0 K0 2.740402 1_655
F0 K0 2.740402 1_565
F0 K0 2.740402 1_665
