# generated using pymatgen
data_Li7Mn4CoO12
_symmetry_space_group_name_H-M   'P 1'
_cell_length_a   5.91747176
_cell_length_b   9.91604382
_cell_length_c   7.80055076
_cell_angle_alpha   90.30516852
_cell_angle_beta   76.25858159
_cell_angle_gamma   78.93558933
_symmetry_Int_Tables_number   1
_chemical_formula_structural   Li7Mn4CoO12
_chemical_formula_sum   'Li14 Mn8 Co2 O24'
_cell_volume   435.73171038
_cell_formula_units_Z   2
loop_
 _symmetry_equiv_pos_site_id
 _symmetry_equiv_pos_as_xyz
  1  'x, y, z'
loop_
 _atom_site_type_symbol
 _atom_site_label
 _atom_site_symmetry_multiplicity
 _atom_site_fract_x
 _atom_site_fract_y
 _atom_site_fract_z
 _atom_site_occupancy
  Li  Li0  1  0.16669700  0.00006600  0.33336900  1
  Li  Li1  1  0.66663700  0.99993400  0.33329800  1
  Li  Li2  1  0.87851900  0.24074300  0.26485000  1
  Li  Li3  1  0.37868800  0.24089500  0.26455900  1
  Li  Li4  1  0.45464600  0.75910500  0.40210900  1
  Li  Li5  1  0.95481300  0.75925600  0.40181900  1
  Li  Li6  1  0.04117900  0.24324100  0.57458600  1
  Li  Li7  1  0.54021300  0.24300700  0.57419000  1
  Li  Li8  1  0.79215500  0.75675900  0.09208000  1
  Li  Li9  1  0.29312100  0.75699200  0.09247700  1
  Li  Li10  1  0.62861400  0.74320000  0.75065000  1
  Li  Li11  1  0.12927600  0.74337100  0.75047000  1
  Li  Li12  1  0.70405800  0.25662800  0.91619600  1
  Li  Li13  1  0.20471900  0.25680000  0.91601500  1
  Mn  Mn0  1  0.99389800  0.99659200  0.00895300  1
  Mn  Mn1  1  0.83944000  0.00341100  0.65771100  1
  Mn  Mn2  1  0.58399900  0.49934100  0.16416700  1
  Mn  Mn3  1  0.24933600  0.50066000  0.50250400  1
  Mn  Mn4  1  0.49386700  0.99671500  0.00908700  1
  Mn  Mn5  1  0.33946400  0.00328300  0.65757600  1
  Mn  Mn6  1  0.08465100  0.49915200  0.16456100  1
  Mn  Mn7  1  0.74868200  0.50084500  0.50210400  1
  Co  Co0  1  0.91666600  0.50000000  0.83333300  1
  Co  Co1  1  0.41666600  0.50000000  0.83333300  1
  O  O0  1  0.17942100  0.10912700  0.10225600  1
  O  O1  1  0.67957700  0.10916500  0.10229300  1
  O  O2  1  0.65391400  0.89087200  0.56441200  1
  O  O3  1  0.15375400  0.89083500  0.56437500  1
  O  O4  1  0.78982100  0.61946700  0.30002300  1
  O  O5  1  0.28906500  0.61949400  0.30047000  1
  O  O6  1  0.04351100  0.38053200  0.36664500  1
  O  O7  1  0.54426800  0.38050600  0.36619600  1
  O  O8  1  0.85587900  0.11790600  0.47615500  1
  O  O9  1  0.35598300  0.11762500  0.47579400  1
  O  O10  1  0.47735100  0.88237500  0.19087300  1
  O  O11  1  0.97745400  0.88209400  0.19051300  1
  O  O12  1  0.45566800  0.61808600  0.63585100  1
  O  O13  1  0.95540200  0.61755600  0.63691700  1
  O  O14  1  0.87793000  0.38244300  0.02975100  1
  O  O15  1  0.37766400  0.38191400  0.03081400  1
  O  O16  1  0.02077200  0.10521300  0.78401700  1
  O  O17  1  0.52073000  0.10522400  0.78403600  1
  O  O18  1  0.31260400  0.89477600  0.88262900  1
  O  O19  1  0.81256000  0.89478700  0.88265100  1
  O  O20  1  0.62232300  0.61390500  0.96109000  1
  O  O21  1  0.12337500  0.61309900  0.95988700  1
  O  O22  1  0.70995900  0.38690100  0.70678000  1
  O  O23  1  0.21101400  0.38609600  0.70557600  1
loop_
_geom_bond_atom_site_label_1
_geom_bond_atom_site_label_2
_geom_bond_distance
_geom_bond_site_symmetry_2
Li0 O10 2.041761 1_545
Li0 O8 2.043729 1_455
Li0 O0 2.100682 1_555
Li0 O3 2.100769 1_545
Li0 O9 2.219548 1_555
Li0 O11 2.223978 1_445
Li1 O9 2.041761 1_565
Li1 O11 2.043723 1_555
Li1 O2 2.100694 1_555
Li1 O1 2.100764 1_565
Li1 O10 2.219548 1_555
Li1 O8 2.223979 1_565
Li2 O8 2.048805 1_555
Li2 O6 2.093136 1_655
Li2 O0 2.121305 1_655
Li2 O7 2.156660 1_555
Li2 O14 2.316491 1_555
Li2 O1 2.444837 1_555
Li3 O9 2.050996 1_555
Li3 O7 2.093595 1_555
Li3 O1 2.120760 1_555
Li3 O6 2.160799 1_555
Li3 O15 2.304158 1_555
Li3 O0 2.446125 1_555
Li4 O10 2.051002 1_555
Li4 O5 2.093606 1_555
Li4 O3 2.120771 1_555
Li4 O4 2.160796 1_555
Li4 O12 2.304139 1_555
Li4 O2 2.446123 1_555
Li5 O11 2.048817 1_555
Li5 O4 2.093140 1_555
Li5 O2 2.121291 1_555
Li5 O5 2.156663 1_655
Li5 O13 2.316485 1_555
Li5 O3 2.444834 1_655
Li6 O9 2.008173 1_555
Li6 O8 2.061399 1_455
Li6 O6 2.122432 1_555
Li6 O16 2.133151 1_555
Li6 O22 2.210586 1_455
Li6 O23 2.253791 1_555
Li7 O8 2.008666 1_555
Li7 O9 2.056936 1_555
Li7 O7 2.123579 1_555
Li7 O17 2.134029 1_555
Li7 O23 2.198526 1_555
Li7 O22 2.267720 1_555
Li8 O10 2.008174 1_555
Li8 O11 2.061403 1_555
Li8 O4 2.122449 1_555
Li8 O19 2.133139 1_554
Li8 O21 2.210584 1_654
Li8 O20 2.253772 1_554
Li9 O11 2.008676 1_455
Li9 O10 2.056943 1_555
Li9 O5 2.123567 1_555
Li9 O18 2.134047 1_554
Li9 O20 2.198530 1_554
Li9 O21 2.267713 1_554
Li10 O2 2.068970 1_555
Li10 O12 2.073482 1_555
Li10 O13 2.080194 1_555
Li10 O20 2.086034 1_555
Li10 O18 2.192246 1_555
Li10 O19 2.376655 1_555
Li11 O3 2.066511 1_555
Li11 O13 2.076918 1_455
Li11 O12 2.078449 1_555
Li11 O21 2.085943 1_555
Li11 O19 2.194388 1_455
Li11 O18 2.373530 1_555
Li12 O1 2.066515 1_556
Li12 O14 2.076918 1_556
Li12 O15 2.078460 1_556
Li12 O22 2.085943 1_555
Li12 O16 2.194372 1_655
Li12 O17 2.373527 1_555
Li13 O0 2.068993 1_556
Li13 O15 2.073478 1_556
Li13 O14 2.080199 1_456
Li13 O23 2.086033 1_555
Li13 O17 2.192249 1_555
Li13 O16 2.376646 1_555
Mn0 O11 1.816151 1_555
Mn0 O1 1.945969 1_565
Mn0 O0 1.954823 1_665
Mn0 O18 1.980596 1_654
Mn0 O19 2.012132 1_554
Mn0 O16 2.053639 1_664
Mn1 O8 1.816108 1_555
Mn1 O3 1.945945 1_645
Mn1 O2 1.954847 1_545
Mn1 O17 1.980605 1_555
Mn1 O16 2.012107 1_655
Mn1 O19 2.053681 1_545
Mn2 O20 1.949043 1_554
Mn2 O14 1.953229 1_555
Mn2 O7 1.969140 1_555
Mn2 O5 1.975543 1_555
Mn2 O15 2.250536 1_555
Mn2 O4 2.276392 1_555
Mn3 O23 1.949012 1_555
Mn3 O13 1.953225 1_455
Mn3 O5 1.969163 1_555
Mn3 O7 1.975552 1_555
Mn3 O12 2.250489 1_555
Mn3 O6 2.276431 1_555
Mn4 O10 1.816503 1_555
Mn4 O0 1.945719 1_565
Mn4 O1 1.954713 1_565
Mn4 O19 1.981134 1_554
Mn4 O18 2.013347 1_554
Mn4 O17 2.053790 1_564
Mn5 O9 1.816492 1_555
Mn5 O2 1.945727 1_545
Mn5 O3 1.954680 1_545
Mn5 O16 1.981147 1_555
Mn5 O17 2.013382 1_555
Mn5 O18 2.053793 1_545
Mn6 O15 1.949449 1_555
Mn6 O21 1.955252 1_554
Mn6 O6 1.968523 1_555
Mn6 O4 1.973718 1_455
Mn6 O14 2.254571 1_455
Mn6 O5 2.271765 1_555
Mn7 O12 1.949466 1_555
Mn7 O22 1.955247 1_555
Mn7 O4 1.968517 1_555
Mn7 O6 1.973698 1_655
Mn7 O13 2.254592 1_555
Mn7 O7 2.271742 1_555
Co0 O20 1.926374 1_555
Co0 O23 1.926390 1_655
Co0 O13 1.927071 1_555
Co0 O14 1.927089 1_556
Co0 O22 2.194733 1_555
Co0 O21 2.194747 1_655
Co1 O21 1.916134 1_555
Co1 O22 1.916139 1_555
Co1 O15 1.936862 1_556
Co1 O12 1.936868 1_555
Co1 O23 2.200356 1_555
Co1 O20 2.200385 1_555
