# generated using pymatgen
data_Ba4Nd5Cu9O22
_symmetry_space_group_name_H-M   'P 1'
_cell_length_a   3.90842000
_cell_length_b   11.71235700
_cell_length_c   12.31540137
_cell_angle_alpha   71.49931906
_cell_angle_beta   90.00000000
_cell_angle_gamma   90.00000000
_symmetry_Int_Tables_number   1
_chemical_formula_structural   Ba4Nd5Cu9O22
_chemical_formula_sum   'Ba4 Nd5 Cu9 O22'
_cell_volume   534.62462142
_cell_formula_units_Z   1
loop_
 _symmetry_equiv_pos_site_id
 _symmetry_equiv_pos_as_xyz
  1  'x, y, z'
loop_
 _atom_site_type_symbol
 _atom_site_label
 _atom_site_symmetry_multiplicity
 _atom_site_fract_x
 _atom_site_fract_y
 _atom_site_fract_z
 _atom_site_occupancy
  Ba  Ba0  1  0.50000000  0.27408800  0.18385900  1
  Ba  Ba1  1  0.50000000  0.60361700  0.18186500  1
  Ba  Ba2  1  0.50000000  0.39638300  0.81813500  1
  Ba  Ba3  1  0.50000000  0.72591200  0.81614100  1
  Nd  Nd0  1  0.50000000  0.83598700  0.49400100  1
  Nd  Nd1  1  0.50000000  0.50000000  0.50000000  1
  Nd  Nd2  1  0.50000000  0.16401300  0.50599900  1
  Nd  Nd3  1  0.50000000  0.94910800  0.15296500  1
  Nd  Nd4  1  0.50000000  0.05089200  0.84703500  1
  Cu  Cu0  1  0.00000000  0.05058500  0.34596700  1
  Cu  Cu1  1  0.00000000  0.71978600  0.34489800  1
  Cu  Cu2  1  0.00000000  0.38206600  0.35176500  1
  Cu  Cu3  1  0.00000000  0.94941500  0.65403300  1
  Cu  Cu4  1  0.00000000  0.61793400  0.64823500  1
  Cu  Cu5  1  0.00000000  0.28021400  0.65510200  1
  Cu  Cu6  1  0.00000000  0.83540000  0.99990000  1
  Cu  Cu7  1  0.00000000  0.50000000  0.00000000  1
  Cu  Cu8  1  0.00000000  0.16460000  0.00010000  1
  O  O0  1  0.00000000  0.87985000  0.36189500  1
  O  O1  1  0.00000000  0.54397700  0.36889000  1
  O  O2  1  0.00000000  0.20768000  0.37439200  1
  O  O3  1  0.50000000  0.04352200  0.36713300  1
  O  O4  1  0.50000000  0.71260000  0.36653600  1
  O  O5  1  0.50000000  0.37480300  0.37369900  1
  O  O6  1  0.00000000  0.79232000  0.62560800  1
  O  O7  1  0.00000000  0.45602300  0.63111000  1
  O  O8  1  0.00000000  0.12015000  0.63810500  1
  O  O9  1  0.50000000  0.95647800  0.63286700  1
  O  O10  1  0.50000000  0.62519700  0.62630100  1
  O  O11  1  0.50000000  0.28740000  0.63346400  1
  O  O12  1  0.00000000  0.09901600  0.16420900  1
  O  O13  1  0.00000000  0.79204000  0.16383400  1
  O  O14  1  0.00000000  0.44583400  0.16046500  1
  O  O15  1  0.00000000  0.90098400  0.83579100  1
  O  O16  1  0.00000000  0.55416600  0.83953500  1
  O  O17  1  0.00000000  0.20796000  0.83616600  1
  O  O18  1  0.50000000  0.15730800  0.00010300  1
  O  O19  1  0.50000000  0.50000000  0.00000000  1
  O  O20  1  0.50000000  0.84269200  0.99989700  1
  O  O21  1  0.00000000  0.00000000  0.00000000  1
loop_
_geom_bond_atom_site_label_1
_geom_bond_atom_site_label_2
_geom_bond_distance
_geom_bond_site_symmetry_2
Ba0 O14 2.753268 1_555
Ba0 O14 2.753268 1_655
Ba0 O19 2.885468 1_555
Ba0 O12 2.897756 1_555
Ba0 O12 2.897756 1_655
Ba0 O3 2.918698 1_555
Ba0 O5 2.933897 1_555
Ba0 O2 2.961699 1_655
Ba0 O2 2.961699 1_555
Ba0 O18 2.992736 1_555
Ba1 O14 2.759100 1_655
Ba1 O14 2.759100 1_555
Ba1 O19 2.866057 1_555
Ba1 O13 2.903024 1_555
Ba1 O13 2.903024 1_655
Ba1 O1 2.931032 1_655
Ba1 O1 2.931032 1_555
Ba1 O4 2.940085 1_555
Ba1 O5 2.957277 1_555
Ba1 O20 2.980011 1_554
Ba2 O16 2.759100 1_555
Ba2 O16 2.759100 1_655
Ba2 O19 2.866057 1_556
Ba2 O17 2.903024 1_555
Ba2 O17 2.903024 1_655
Ba2 O7 2.931032 1_655
Ba2 O7 2.931032 1_555
Ba2 O11 2.940085 1_555
Ba2 O10 2.957277 1_555
Ba2 O18 2.980011 1_556
Ba3 O16 2.753268 1_555
Ba3 O16 2.753268 1_655
Ba3 O19 2.885468 1_556
Ba3 O15 2.897756 1_655
Ba3 O15 2.897756 1_555
Ba3 O9 2.918698 1_555
Ba3 O10 2.933897 1_555
Ba3 O6 2.961699 1_555
Ba3 O6 2.961699 1_655
Ba3 O20 2.992736 1_555
Nd0 O3 2.437084 1_565
Nd0 O4 2.447937 1_555
Nd0 O6 2.486244 1_555
Nd0 O6 2.486244 1_655
Nd0 O10 2.489392 1_555
Nd0 O0 2.489850 1_555
Nd0 O0 2.489850 1_655
Nd0 O9 2.539292 1_555
Nd1 O5 2.452977 1_555
Nd1 O10 2.452977 1_555
Nd1 O7 2.482659 1_655
Nd1 O7 2.482659 1_555
Nd1 O1 2.482659 1_555
Nd1 O1 2.482659 1_655
Nd1 O11 2.510885 1_555
Nd1 O4 2.510885 1_555
Nd2 O9 2.437084 1_545
Nd2 O11 2.447937 1_555
Nd2 O2 2.486244 1_555
Nd2 O2 2.486244 1_655
Nd2 O5 2.489392 1_555
Nd2 O8 2.489850 1_555
Nd2 O8 2.489850 1_655
Nd2 O3 2.539292 1_555
Nd3 O18 2.564566 1_565
Nd3 O20 2.568685 1_554
Nd3 O21 2.647718 1_665
Nd3 O21 2.647718 1_565
Nd3 O13 2.657977 1_555
Nd3 O13 2.657977 1_655
Nd3 O12 2.659917 1_565
Nd3 O12 2.659917 1_665
Nd3 O0 3.126173 1_655
Nd3 O0 3.126173 1_555
Nd3 O4 3.157126 1_555
Nd3 O3 3.167106 1_565
Nd4 O20 2.564566 1_545
Nd4 O18 2.568685 1_556
Nd4 O21 2.647718 1_556
Nd4 O21 2.647718 1_656
Nd4 O17 2.657977 1_555
Nd4 O17 2.657977 1_655
Nd4 O15 2.659917 1_645
Nd4 O15 2.659917 1_545
Nd4 O8 3.126173 1_555
Nd4 O8 3.126173 1_655
Nd4 O11 3.157126 1_555
Nd4 O9 3.167106 1_545
Cu0 O0 1.946374 1_545
Cu0 O3 1.969782 1_455
Cu0 O3 1.969782 1_555
Cu0 O2 1.979076 1_555
Cu0 O12 2.127555 1_555
Cu1 O0 1.951272 1_555
Cu1 O4 1.970482 1_555
Cu1 O4 1.970482 1_455
Cu1 O1 1.985254 1_555
Cu1 O13 2.119179 1_555
Cu2 O5 1.970928 1_555
Cu2 O5 1.970928 1_455
Cu2 O2 1.971835 1_555
Cu2 O1 1.973443 1_555
Cu2 O14 2.234181 1_555
Cu3 O8 1.946374 1_565
Cu3 O9 1.969782 1_455
Cu3 O9 1.969782 1_555
Cu3 O6 1.979076 1_555
Cu3 O15 2.127555 1_555
Cu4 O10 1.970928 1_555
Cu4 O10 1.970928 1_455
Cu4 O6 1.971835 1_555
Cu4 O7 1.973443 1_555
Cu4 O16 2.234181 1_555
Cu5 O8 1.951272 1_555
Cu5 O11 1.970482 1_455
Cu5 O11 1.970482 1_555
Cu5 O7 1.985254 1_555
Cu5 O17 2.119179 1_555
Cu6 O13 1.919174 1_556
Cu6 O15 1.920811 1_555
Cu6 O21 1.928245 1_566
Cu6 O20 1.956075 1_555
Cu6 O20 1.956075 1_455
Cu7 O16 1.874075 1_554
Cu7 O14 1.874075 1_555
Cu7 O19 1.954210 1_555
Cu7 O19 1.954210 1_455
Cu8 O17 1.919174 1_554
Cu8 O12 1.920811 1_555
Cu8 O21 1.928245 1_555
Cu8 O18 1.956075 1_455
Cu8 O18 1.956075 1_555
