# generated using pymatgen
data_K2ZnH12(SeO7)2
_symmetry_space_group_name_H-M   'P 1'
_cell_length_a   12.57447500
_cell_length_b   6.37028300
_cell_length_c   9.26450273
_cell_angle_alpha   75.98366384
_cell_angle_beta   90.00000000
_cell_angle_gamma   90.00000000
_symmetry_Int_Tables_number   1
_chemical_formula_structural   K2ZnH12(SeO7)2
_chemical_formula_sum   'K4 Zn2 H24 Se4 O28'
_cell_volume   720.01895215
_cell_formula_units_Z   2
loop_
 _symmetry_equiv_pos_site_id
 _symmetry_equiv_pos_as_xyz
  1  'x, y, z'
loop_
 _atom_site_type_symbol
 _atom_site_label
 _atom_site_symmetry_multiplicity
 _atom_site_fract_x
 _atom_site_fract_y
 _atom_site_fract_z
 _atom_site_occupancy
  K  K0  1  0.15948900  0.65816900  0.63765900  1
  K  K1  1  0.65948900  0.34183100  0.86234100  1
  K  K2  1  0.84051100  0.34183100  0.36234100  1
  K  K3  1  0.34051100  0.65816900  0.13765900  1
  Zn  Zn0  1  0.50000000  0.00000000  0.50000000  1
  Zn  Zn1  1  0.00000000  0.00000000  0.00000000  1
  H  H0  1  0.41496300  0.68471400  0.70996700  1
  H  H1  1  0.91496300  0.31528600  0.79003300  1
  H  H2  1  0.58503700  0.31528600  0.29003300  1
  H  H3  1  0.08503700  0.68471400  0.20996700  1
  H  H4  1  0.37422700  0.90448500  0.74561700  1
  H  H5  1  0.87422700  0.09551500  0.75438300  1
  H  H6  1  0.62577300  0.09551500  0.25438300  1
  H  H7  1  0.12577300  0.90448500  0.24561700  1
  H  H8  1  0.40125100  0.06793000  0.23529400  1
  H  H9  1  0.90125100  0.93207000  0.26470600  1
  H  H10  1  0.59874900  0.93207000  0.76470600  1
  H  H11  1  0.09874900  0.06793000  0.73529400  1
  H  H12  1  0.31482300  0.98622800  0.36137100  1
  H  H13  1  0.81482300  0.01377200  0.13862900  1
  H  H14  1  0.68517700  0.01377200  0.63862900  1
  H  H15  1  0.18517700  0.98622800  0.86137100  1
  H  H16  1  0.55533600  0.66485000  0.40280600  1
  H  H17  1  0.05533600  0.33515000  0.09719400  1
  H  H18  1  0.44466400  0.33515000  0.59719400  1
  H  H19  1  0.94466400  0.66485000  0.90280600  1
  H  H20  1  0.63935300  0.66627900  0.53103500  1
  H  H21  1  0.13935300  0.33372100  0.96896500  1
  H  H22  1  0.36064700  0.33372100  0.46896500  1
  H  H23  1  0.86064700  0.66627900  0.03103500  1
  Se  Se0  1  0.36370800  0.27154300  0.91270100  1
  Se  Se1  1  0.86370800  0.72845700  0.58729900  1
  Se  Se2  1  0.63629200  0.72845700  0.08729900  1
  Se  Se3  1  0.13629200  0.27154300  0.41270100  1
  O  O0  1  0.25854800  0.43596500  0.90922600  1
  O  O1  1  0.75854800  0.56403500  0.59077400  1
  O  O2  1  0.74145200  0.56403500  0.09077400  1
  O  O3  1  0.24145200  0.43596500  0.40922600  1
  O  O4  1  0.42822900  0.24583900  0.07374800  1
  O  O5  1  0.92822900  0.75416100  0.42625200  1
  O  O6  1  0.57177100  0.75416100  0.92625200  1
  O  O7  1  0.07177100  0.24583900  0.57374800  1
  O  O8  1  0.44561200  0.38976900  0.77339400  1
  O  O9  1  0.94561200  0.61023100  0.72660600  1
  O  O10  1  0.55438800  0.61023100  0.22660600  1
  O  O11  1  0.05438800  0.38976900  0.27339400  1
  O  O12  1  0.32271200  0.02837300  0.89185200  1
  O  O13  1  0.82271200  0.97162700  0.60814800  1
  O  O14  1  0.67728800  0.97162700  0.10814800  1
  O  O15  1  0.17728800  0.02837300  0.39185200  1
  O  O16  1  0.38733900  0.83151200  0.66388500  1
  O  O17  1  0.88733900  0.16848800  0.83611500  1
  O  O18  1  0.61266100  0.16848800  0.33611500  1
  O  O19  1  0.11266100  0.83151200  0.16388500  1
  O  O20  1  0.38839900  0.95814400  0.33125900  1
  O  O21  1  0.88839900  0.04185600  0.16874100  1
  O  O22  1  0.61160100  0.04185600  0.66874100  1
  O  O23  1  0.11160100  0.95814400  0.83125900  1
  O  O24  1  0.56421600  0.70301900  0.50020800  1
  O  O25  1  0.06421600  0.29698100  0.99979200  1
  O  O26  1  0.43578400  0.29698100  0.49979200  1
  O  O27  1  0.93578400  0.70301900  0.00020800  1
loop_
_geom_bond_atom_site_label_1
_geom_bond_atom_site_label_2
_geom_bond_distance
_geom_bond_site_symmetry_2
K0 O9 2.807711 1_455
K0 O0 2.856578 1_555
K0 O15 2.862906 1_565
K0 O23 2.981865 1_555
K0 O3 2.999293 1_555
K0 O7 3.036430 1_555
K0 O16 3.101148 1_555
K1 O8 2.807711 1_555
K1 O1 2.856578 1_555
K1 O14 2.862906 1_546
K1 O22 2.981865 1_555
K1 O2 2.999293 1_556
K1 O6 3.036430 1_555
K1 O17 3.101148 1_555
K2 O11 2.807711 1_655
K2 O2 2.856578 1_555
K2 O13 2.862906 1_545
K2 O21 2.981865 1_555
K2 O1 2.999293 1_555
K2 O5 3.036430 1_555
K2 O18 3.101148 1_555
K3 O10 2.807711 1_555
K3 O3 2.856578 1_555
K3 O12 2.862906 1_564
K3 O20 2.981865 1_555
K3 O0 2.999293 1_554
K3 O4 3.036430 1_555
K3 O19 3.101148 1_555
H0 O16 0.991983 1_555
H1 O17 0.991983 1_555
H2 O18 0.991983 1_555
H3 O19 0.991983 1_555
H4 O16 0.993551 1_555
H5 O17 0.993551 1_555
H6 O18 0.993551 1_555
H7 O19 0.993551 1_555
H8 O20 1.002239 1_545
H8 O4 1.678639 1_555
H9 O21 1.002239 1_565
H9 O5 1.678639 1_555
H10 O22 1.002239 1_565
H10 O6 1.678639 1_555
H11 O23 1.002239 1_545
H11 O7 1.678639 1_555
H12 O20 0.994970 1_555
H13 O21 0.994970 1_555
H14 O22 0.994970 1_555
H15 O23 0.994970 1_555
H16 O24 0.996074 1_555
H16 O10 1.749593 1_555
H17 O25 0.996074 1_554
H17 O11 1.749593 1_555
H18 O26 0.996074 1_555
H18 O8 1.749593 1_555
H19 O27 0.996074 1_556
H19 O9 1.749593 1_555
H20 O24 0.998312 1_555
H20 O1 1.674026 1_555
H21 O25 0.998312 1_555
H21 O0 1.674026 1_555
H22 O26 0.998312 1_555
H22 O3 1.674026 1_555
H23 O27 0.998312 1_555
H23 O2 1.674026 1_555
O0 Se0 1.682362 1_555
O1 Se1 1.682362 1_555
O2 Se2 1.682362 1_555
O3 Se3 1.682362 1_555
O4 Se0 1.671177 1_554
O5 Se1 1.671177 1_555
O6 Se2 1.671177 1_556
O7 Se3 1.671177 1_555
O8 Se0 1.680102 1_555
O9 Se1 1.680102 1_555
O10 Se2 1.680102 1_555
O11 Se3 1.680102 1_555
O12 Se0 1.687478 1_555
O13 Se1 1.687478 1_555
O14 Se2 1.687478 1_555
O15 Se3 1.687478 1_555
O16 Zn0 2.162129 1_565
O17 Zn1 2.162129 1_656
O18 Zn0 2.162129 1_555
O19 Zn1 2.162129 1_565
O20 Zn0 2.164771 1_565
O21 Zn1 2.164771 1_655
O22 Zn0 2.164771 1_555
O23 Zn1 2.164771 1_566
O24 Zn0 2.056544 1_565
O25 Zn1 2.056544 1_556
O26 Zn0 2.056544 1_555
O27 Zn1 2.056544 1_665
