# generated using pymatgen
data_K2Zr6BeCl15
_symmetry_space_group_name_H-M   'P 1'
_cell_length_a   10.12414442
_cell_length_b   10.12414442
_cell_length_c   14.38136200
_cell_angle_alpha   90.00000000
_cell_angle_beta   90.00000000
_cell_angle_gamma   110.16018647
_symmetry_Int_Tables_number   1
_chemical_formula_structural   K2Zr6BeCl15
_chemical_formula_sum   'K4 Zr12 Be2 Cl30'
_cell_volume   1383.75321988
_cell_formula_units_Z   2
loop_
 _symmetry_equiv_pos_site_id
 _symmetry_equiv_pos_as_xyz
  1  'x, y, z'
loop_
 _atom_site_type_symbol
 _atom_site_label
 _atom_site_symmetry_multiplicity
 _atom_site_fract_x
 _atom_site_fract_y
 _atom_site_fract_z
 _atom_site_occupancy
  K  K0  1  0.00000000  0.00000000  0.25000000  1
  K  K1  1  0.00000000  0.00000000  0.75000000  1
  K  K2  1  0.50000000  0.00000000  0.00000000  1
  K  K3  1  0.00000000  0.50000000  0.50000000  1
  Zr  Zr0  1  0.00526300  0.26792400  0.00000000  1
  Zr  Zr1  1  0.99473700  0.73207600  0.00000000  1
  Zr  Zr2  1  0.73207600  0.99473700  0.50000000  1
  Zr  Zr3  1  0.26792400  0.00526300  0.50000000  1
  Zr  Zr4  1  0.82233700  0.44048600  0.11847700  1
  Zr  Zr5  1  0.17766300  0.55951400  0.88152300  1
  Zr  Zr6  1  0.17766300  0.55951400  0.11847700  1
  Zr  Zr7  1  0.55951400  0.17766300  0.38152300  1
  Zr  Zr8  1  0.82233700  0.44048600  0.88152300  1
  Zr  Zr9  1  0.44048600  0.82233700  0.61847700  1
  Zr  Zr10  1  0.44048600  0.82233700  0.38152300  1
  Zr  Zr11  1  0.55951400  0.17766300  0.61847700  1
  Be  Be0  1  0.00000000  0.50000000  0.00000000  1
  Be  Be1  1  0.50000000  0.00000000  0.50000000  1
  Cl  Cl0  1  0.62675600  0.37324400  0.25000000  1
  Cl  Cl1  1  0.37324400  0.62675600  0.75000000  1
  Cl  Cl2  1  0.37324400  0.62675600  0.25000000  1
  Cl  Cl3  1  0.62675600  0.37324400  0.75000000  1
  Cl  Cl4  1  0.00000000  0.50000000  0.25370500  1
  Cl  Cl5  1  0.00000000  0.50000000  0.74629500  1
  Cl  Cl6  1  0.50000000  0.00000000  0.24629500  1
  Cl  Cl7  1  0.50000000  0.00000000  0.75370500  1
  Cl  Cl8  1  0.19272800  0.30946100  0.12830900  1
  Cl  Cl9  1  0.80727200  0.69053900  0.87169100  1
  Cl  Cl10  1  0.80727200  0.69053900  0.12830900  1
  Cl  Cl11  1  0.69053900  0.80727200  0.37169100  1
  Cl  Cl12  1  0.19272800  0.30946100  0.87169100  1
  Cl  Cl13  1  0.30946100  0.19272800  0.62830900  1
  Cl  Cl14  1  0.30946100  0.19272800  0.37169100  1
  Cl  Cl15  1  0.69053900  0.80727200  0.62830900  1
  Cl  Cl16  1  0.38328200  0.63743600  0.00000000  1
  Cl  Cl17  1  0.61671800  0.36256400  0.00000000  1
  Cl  Cl18  1  0.36256400  0.61671800  0.50000000  1
  Cl  Cl19  1  0.63743600  0.38328200  0.50000000  1
  Cl  Cl20  1  0.82218800  0.19054700  0.37581100  1
  Cl  Cl21  1  0.17781200  0.80945300  0.62418900  1
  Cl  Cl22  1  0.17781200  0.80945300  0.37581100  1
  Cl  Cl23  1  0.80945300  0.17781200  0.12418900  1
  Cl  Cl24  1  0.82218800  0.19054700  0.62418900  1
  Cl  Cl25  1  0.19054700  0.82218800  0.87581100  1
  Cl  Cl26  1  0.19054700  0.82218800  0.12418900  1
  Cl  Cl27  1  0.80945300  0.17781200  0.87581100  1
  Cl  Cl28  1  0.00000000  0.00000000  0.00000000  1
  Cl  Cl29  1  0.00000000  0.00000000  0.50000000  1
loop_
_geom_bond_atom_site_label_1
_geom_bond_atom_site_label_2
_geom_bond_distance
_geom_bond_site_symmetry_2
Be0 Zr0 2.368463 1_555
Be0 Zr1 2.368463 1_455
Be0 Zr6 2.398838 1_555
Be0 Zr4 2.398838 1_455
Be0 Zr5 2.398838 1_554
Be0 Zr8 2.398838 1_454
Be1 Zr3 2.368463 1_555
Be1 Zr2 2.368463 1_545
Be1 Zr11 2.398838 1_555
Be1 Zr9 2.398838 1_545
Be1 Zr10 2.398838 1_545
Be1 Zr7 2.398838 1_555
Cl0 Zr7 2.651932 1_555
Cl0 Zr4 2.651932 1_555
Cl1 Zr5 2.651932 1_555
Cl1 Zr9 2.651932 1_555
Cl2 Zr6 2.651932 1_555
Cl2 Zr10 2.651932 1_555
Cl3 Zr8 2.651932 1_555
Cl3 Zr11 2.651932 1_555
Cl4 Zr6 2.575536 1_555
Cl4 Zr4 2.575536 1_455
Cl4 K3 3.542058 1_555
Cl5 Zr8 2.575536 1_455
Cl5 Zr5 2.575536 1_555
Cl5 K3 3.542058 1_555
Cl6 Zr7 2.575536 1_555
Cl6 Zr10 2.575536 1_545
Cl6 K2 3.542058 1_555
Cl7 Zr11 2.575536 1_555
Cl7 Zr9 2.575536 1_545
Cl7 K2 3.542058 1_556
Cl8 Zr0 2.575614 1_555
Cl8 Zr6 2.591961 1_555
Cl8 K0 3.531584 1_555
Cl9 Zr1 2.575614 1_556
Cl9 Zr8 2.591961 1_555
Cl9 K1 3.531584 1_665
Cl10 Zr1 2.575614 1_555
Cl10 Zr4 2.591961 1_555
Cl10 K0 3.531584 1_665
Cl11 Zr2 2.575614 1_555
Cl11 Zr10 2.591961 1_555
Cl11 K0 3.531584 1_665
Cl12 Zr0 2.575614 1_556
Cl12 Zr5 2.591961 1_555
Cl12 K1 3.531584 1_555
Cl13 Zr3 2.575614 1_555
Cl13 Zr11 2.591961 1_555
Cl13 K1 3.531584 1_555
Cl14 Zr3 2.575614 1_555
Cl14 Zr7 2.591961 1_555
Cl14 K0 3.531584 1_555
Cl15 Zr2 2.575614 1_555
Cl15 Zr9 2.591961 1_555
Cl15 K1 3.531584 1_665
Cl16 Zr6 2.593655 1_555
Cl16 Zr5 2.593655 1_554
Cl16 K2 3.446769 1_565
Cl17 Zr4 2.593655 1_555
Cl17 Zr8 2.593655 1_554
Cl17 K2 3.446769 1_555
Cl18 Zr9 2.593655 1_555
Cl18 Zr10 2.593655 1_555
Cl18 K3 3.446769 1_555
Cl19 Zr11 2.593655 1_555
Cl19 Zr7 2.593655 1_555
Cl19 K3 3.446769 1_655
Cl20 Zr2 2.589486 1_545
Cl20 Zr7 2.618549 1_555
Cl20 K3 3.515442 1_655
Cl20 K0 3.553827 1_655
Cl21 Zr3 2.589486 1_565
Cl21 Zr9 2.618549 1_555
Cl21 K3 3.515442 1_555
Cl21 K1 3.553827 1_565
Cl22 Zr3 2.589486 1_565
Cl22 Zr10 2.618549 1_555
Cl22 K3 3.515442 1_555
Cl22 K0 3.553827 1_565
Cl23 Zr0 2.589486 1_655
Cl23 Zr4 2.618549 1_555
Cl23 K2 3.515442 1_555
Cl23 K0 3.553827 1_655
Cl24 Zr2 2.589486 1_545
Cl24 Zr11 2.618549 1_555
Cl24 K3 3.515442 1_655
Cl24 K1 3.553827 1_655
Cl25 Zr1 2.589486 1_456
Cl25 Zr5 2.618549 1_555
Cl25 K2 3.515442 1_566
Cl25 K1 3.553827 1_565
Cl26 Zr1 2.589486 1_455
Cl26 Zr6 2.618549 1_555
Cl26 K2 3.515442 1_565
Cl26 K0 3.553827 1_565
Cl27 Zr0 2.589486 1_656
Cl27 Zr8 2.618549 1_555
Cl27 K2 3.515442 1_556
Cl27 K1 3.553827 1_655
Cl28 Zr1 2.694602 1_445
Cl28 Zr0 2.694602 1_555
Cl28 K0 3.595340 1_555
Cl28 K1 3.595340 1_554
Cl29 Zr2 2.694602 1_445
Cl29 Zr3 2.694602 1_555
Cl29 K0 3.595340 1_555
Cl29 K1 3.595340 1_555
