# generated using pymatgen
data_Na11B21(ClO18)2
_symmetry_space_group_name_H-M   'P 1'
_cell_length_a   8.92044215
_cell_length_b   9.04560904
_cell_length_c   24.01420428
_cell_angle_alpha   97.50872982
_cell_angle_beta   90.00000002
_cell_angle_gamma   60.45669201
_symmetry_Int_Tables_number   1
_chemical_formula_structural   Na11B21(ClO18)2
_chemical_formula_sum   'Na22 B42 Cl4 O72'
_cell_volume   1666.66334548
_cell_formula_units_Z   2
loop_
 _symmetry_equiv_pos_site_id
 _symmetry_equiv_pos_as_xyz
  1  'x, y, z'
loop_
 _atom_site_type_symbol
 _atom_site_label
 _atom_site_symmetry_multiplicity
 _atom_site_fract_x
 _atom_site_fract_y
 _atom_site_fract_z
 _atom_site_occupancy
  Na  Na0  1  0.72089440  0.24561914  0.16191465  1
  Na  Na1  1  0.96654198  0.75362380  0.33812154  1
  Na  Na2  1  0.27983422  0.75362380  0.83812154  1
  Na  Na3  1  0.03348646  0.24561914  0.66191465  1
  Na  Na4  1  0.45888638  0.02179296  0.34530027  1
  Na  Na5  1  0.48281894  0.97515758  0.15421623  1
  Na  Na6  1  0.54202348  0.97515758  0.65421623  1
  Na  Na7  1  0.51932065  0.02179296  0.84530027  1
  Na  Na8  1  0.75611931  0.18909357  0.02011104  1
  Na  Na9  1  0.93579283  0.81076001  0.48002081  1
  Na  Na10  1  0.25344717  0.81076001  0.98002081  1
  Na  Na11  1  0.05478713  0.18909357  0.52011104  1
  Na  Na12  1  0.98461457  0.72162764  0.15732614  1
  Na  Na13  1  0.70592794  0.27965673  0.34274346  1
  Na  Na14  1  0.01441533  0.27965673  0.84274346  1
  Na  Na15  1  0.29375780  0.72162764  0.65732614  1
  Na  Na16  1  0.44328121  0.12217012  0.00567624  1
  Na  Na17  1  0.43454867  0.12217012  0.50567624  1
  Na  Na18  1  0.98257859  0.33943119  0.97227120  1
  Na  Na19  1  0.32482103  0.66513685  0.52720767  1
  Na  Na20  1  0.01004212  0.66513685  0.02720767  1
  Na  Na21  1  0.67799022  0.33943119  0.47227120  1
  B  B0  1  0.28283955  0.37962648  0.21028352  1
  B  B1  1  0.66212904  0.62035414  0.28975857  1
  B  B2  1  0.71751682  0.62035414  0.78975857  1
  B  B3  1  0.33753397  0.37962648  0.71028352  1
  B  B4  1  0.18445577  0.36209065  0.10830024  1
  B  B5  1  0.54707330  0.63928682  0.39193679  1
  B  B6  1  0.81363988  0.63928682  0.89193679  1
  B  B7  1  0.45345358  0.36209066  0.60830024  1
  B  B8  1  0.88208962  0.43075676  0.08671772  1
  B  B9  1  0.31325542  0.56981827  0.41338758  1
  B  B10  1  0.11692631  0.56981827  0.91338758  1
  B  B11  1  0.68715362  0.43075676  0.58671772  1
  B  B12  1  0.16817700  0.93952380  0.20105677  1
  B  B13  1  0.10771831  0.06092822  0.29926181  1
  B  B14  1  0.83135347  0.06092822  0.79926181  1
  B  B15  1  0.89229920  0.93952380  0.70105677  1
  B  B16  1  0.35908241  0.50123405  0.07961644  1
  B  B17  1  0.85947551  0.49920317  0.42002987  1
  B  B18  1  0.64132131  0.49920317  0.92002987  1
  B  B19  1  0.13968354  0.50123405  0.57961644  1
  B  B20  1  0.55571404  0.16236704  0.25050082  1
  B  B21  1  0.71815207  0.83740988  0.24953329  1
  B  B22  1  0.44443806  0.83740988  0.74953329  1
  B  B23  1  0.28191893  0.16236704  0.75050082  1
  B  B24  1  0.74991530  0.56844507  0.19037327  1
  B  B25  1  0.31835664  0.43148586  0.30969144  1
  B  B26  1  0.25015750  0.43148586  0.80969144  1
  B  B27  1  0.68163963  0.56844507  0.69037327  1
  B  B28  1  0.88641977  0.00005799  0.25005524  1
  B  B29  1  0.11352224  0.00005799  0.75005524  1
  B  B30  1  0.27903467  0.81427083  0.09783184  1
  B  B31  1  0.09283070  0.18481164  0.40258325  1
  B  B32  1  0.72235766  0.18481164  0.90258325  1
  B  B33  1  0.90669450  0.81427083  0.59783184  1
  B  B34  1  0.57803933  0.58462381  0.06213521  1
  B  B35  1  0.16141342  0.41665564  0.43777317  1
  B  B36  1  0.42193094  0.41665564  0.93777317  1
  B  B37  1  0.83733685  0.58462381  0.56213521  1
  B  B38  1  0.11388744  0.12546185  0.07879254  1
  B  B39  1  0.24020463  0.87343685  0.42113381  1
  B  B40  1  0.88635852  0.87343685  0.92113381  1
  B  B41  1  0.76065070  0.12546185  0.57879254  1
  Cl  Cl0  1  0.72810921  0.96708050  0.07393348  1
  Cl  Cl1  1  0.69212805  0.04087207  0.42598588  1
  Cl  Cl2  1  0.26699987  0.04087207  0.92598588  1
  Cl  Cl3  1  0.30481029  0.96708050  0.57393348  1
  O  O0  1  0.14872675  0.95734950  0.07155114  1
  O  O1  1  0.10660754  0.04205175  0.42883333  1
  O  O2  1  0.85134071  0.04205175  0.92883333  1
  O  O3  1  0.89392375  0.95734950  0.57155114  1
  O  O4  1  0.74793754  0.53281270  0.04942843  1
  O  O5  1  0.28191258  0.46555701  0.45081728  1
  O  O6  1  0.25253041  0.46555701  0.95081728  1
  O  O7  1  0.71924976  0.53281270  0.54942843  1
  O  O8  1  0.29206614  0.86416660  0.15679427  1
  O  O9  1  0.15636389  0.13627342  0.34364580  1
  O  O10  1  0.70736269  0.13627342  0.84364580  1
  O  O11  1  0.84376726  0.86416660  0.65679427  1
  O  O12  1  0.72318209  0.15025705  0.24389715  1
  O  O13  1  0.87349130  0.84978124  0.25617041  1
  O  O14  1  0.27672745  0.84978124  0.75617041  1
  O  O15  1  0.12656086  0.15025705  0.74389715  1
  O  O16  1  0.21577247  0.00037704  0.25011812  1
  O  O17  1  0.78385049  0.00037704  0.75011812  1
  O  O18  1  0.46570944  0.27615275  0.30652661  1
  O  O19  1  0.74209289  0.72371571  0.19340244  1
  O  O20  1  0.53419140  0.72371571  0.69340244  1
  O  O21  1  0.25813781  0.27615275  0.80652661  1
  O  O22  1  0.22850312  0.17671544  0.09889127  1
  O  O23  1  0.40370155  0.82274225  0.39978238  1
  O  O24  1  0.77355620  0.82274225  0.89978238  1
  O  O25  1  0.59478144  0.17671544  0.59889127  1
  O  O26  1  0.69669812  0.75358105  0.29763525  1
  O  O27  1  0.45025616  0.24622151  0.20227214  1
  O  O28  1  0.30352233  0.24622151  0.70227214  1
  O  O29  1  0.54972082  0.75358105  0.79763525  1
  O  O30  1  0.02009423  0.47248968  0.08454014  1
  O  O31  1  0.49232989  0.52782756  0.41549439  1
  O  O32  1  0.97984255  0.52782756  0.91549439  1
  O  O33  1  0.50741609  0.47248968  0.58454014  1
  O  O34  1  0.95534794  0.24308450  0.06186302  1
  O  O35  1  0.19772370  0.75651882  0.43834892  1
  O  O36  1  0.04575748  0.75651882  0.93834892  1
  O  O37  1  0.80156755  0.24308450  0.56186302  1
  O  O38  1  0.21838519  0.47776347  0.26358153  1
  O  O39  1  0.69614575  0.52223690  0.23635128  1
  O  O40  1  0.78161735  0.52223690  0.73635128  1
  O  O41  1  0.30385135  0.47776347  0.76358153  1
  O  O42  1  0.32891932  0.36738146  0.07786764  1
  O  O43  1  0.69728865  0.63154129  0.42063528  1
  O  O44  1  0.67117006  0.63154129  0.92063528  1
  O  O45  1  0.30369923  0.36738146  0.57786764  1
  O  O46  1  0.00724413  0.95735581  0.19812026  1
  O  O47  1  0.96461363  0.04289145  0.30203586  1
  O  O48  1  0.99249492  0.04289145  0.80203586  1
  O  O49  1  0.03540006  0.95735581  0.69812026  1
  O  O50  1  0.53241024  0.45676209  0.06747064  1
  O  O51  1  0.99027049  0.54251137  0.43176046  1
  O  O52  1  0.46721814  0.54251137  0.93176046  1
  O  O53  1  0.01082767  0.45676209  0.56747064  1
  O  O54  1  0.80335592  0.44803958  0.14277422  1
  O  O55  1  0.25109947  0.55128419  0.35741517  1
  O  O56  1  0.19761635  0.55128419  0.85741517  1
  O  O57  1  0.74860451  0.44803958  0.64277422  1
  O  O58  1  0.56251687  0.99996416  0.24996079  1
  O  O59  1  0.43751897  0.99996416  0.74996079  1
  O  O60  1  0.23259240  0.67209366  0.08958466  1
  O  O61  1  0.90606811  0.32695983  0.41107650  1
  O  O62  1  0.76697207  0.32695983  0.91107650  1
  O  O63  1  0.09531394  0.67209366  0.58958466  1
  O  O64  1  0.17214309  0.42870226  0.16830586  1
  O  O65  1  0.59996053  0.57131482  0.33140638  1
  O  O66  1  0.82872465  0.57131482  0.83140638  1
  O  O67  1  0.39915465  0.42870226  0.66830586  1
  O  O68  1  0.45055512  0.75179774  0.06763244  1
  O  O69  1  0.20341056  0.24785336  0.43398675  1
  O  O70  1  0.54873608  0.24785336  0.93398675  1
  O  O71  1  0.79764714  0.75179774  0.56763244  1
loop_
_geom_bond_atom_site_label_1
_geom_bond_atom_site_label_2
_geom_bond_distance
_geom_bond_site_symmetry_2
Na0 O12 2.246542 1_555
Na0 O54 2.377645 1_555
Na0 O27 2.598722 1_555
Na0 O39 2.791269 1_555
Na0 O46 2.846753 1_645
Na1 O13 2.248092 1_555
Na1 O55 2.376539 1_655
Na1 O26 2.596217 1_555
Na1 O38 2.789645 1_655
Na1 O47 2.854132 1_565
Na2 O14 2.248092 1_555
Na2 O56 2.376539 1_555
Na2 O29 2.596216 1_555
Na2 O41 2.789645 1_555
Na2 O48 2.854132 1_465
Na3 O15 2.246542 1_555
Na3 O57 2.377645 1_455
Na3 O28 2.598722 1_555
Na3 O40 2.791269 1_455
Na3 O49 2.846753 1_545
Na4 O9 2.368844 1_555
Na4 O58 2.416034 1_545
Na4 O26 2.428018 1_545
Na4 O23 2.585690 1_545
Na4 O18 2.619649 1_555
Na4 O69 2.859545 1_555
Na5 O8 2.368170 1_555
Na5 O58 2.421720 1_555
Na5 O27 2.446682 1_565
Na5 O19 2.603766 1_555
Na5 O22 2.605760 1_565
Na5 O68 2.822004 1_555
Na6 O11 2.368170 1_555
Na6 O59 2.421720 1_555
Na6 O28 2.446682 1_565
Na6 O20 2.603766 1_555
Na6 O25 2.605760 1_565
Na6 O71 2.822004 1_555
Na7 O10 2.368844 1_555
Na7 O59 2.416034 1_545
Na7 O29 2.428018 1_545
Na7 O24 2.585690 1_545
Na7 O21 2.619650 1_555
Na7 O70 2.859545 1_555
Na8 O34 2.265003 1_555
Na8 O2 2.327915 1_554
Na8 O50 2.377722 1_555
Na8 O70 2.701839 1_554
Na9 O35 2.332962 1_655
Na9 O3 2.340715 1_555
Na9 O51 2.359922 1_555
Na9 O71 2.677873 1_555
Na10 O36 2.332962 1_555
Na10 O0 2.340715 1_556
Na10 O52 2.359922 1_555
Na10 O68 2.677873 1_556
Na11 O37 2.265003 1_455
Na11 O1 2.327915 1_555
Na11 O53 2.377722 1_555
Na11 O69 2.701839 1_555
Na12 O19 2.320913 1_555
Na12 O46 2.329315 1_655
Na12 O64 2.387506 1_655
Na12 O13 2.471510 1_555
Na12 O30 2.549740 1_655
Na12 O60 2.563675 1_655
Na13 O18 2.325730 1_555
Na13 O47 2.333772 1_555
Na13 O65 2.378293 1_555
Na13 O12 2.474765 1_555
Na13 O31 2.545378 1_555
Na13 O61 2.575485 1_555
Na14 O21 2.325730 1_555
Na14 O48 2.333772 1_455
Na14 O66 2.378293 1_455
Na14 O15 2.474765 1_555
Na14 O32 2.545378 1_455
Na14 O62 2.575485 1_455
Na15 O20 2.320913 1_555
Na15 O49 2.329315 1_555
Na15 O67 2.387506 1_555
Na15 O14 2.471510 1_555
Na15 O33 2.549740 1_555
Na15 O63 2.563675 1_555
Na16 O42 2.393655 1_555
Na16 O70 2.589867 1_554
Na16 O22 2.775627 1_555
Na17 O45 2.393655 1_555
Na17 O69 2.589867 1_555
Na17 O25 2.775627 1_555
Na18 O32 2.308680 1_555
Na18 O62 2.458053 1_555
Na18 O34 2.479156 1_556
Na18 O4 2.533042 1_556
Na19 O33 2.326638 1_555
Na19 O35 2.461483 1_555
Na19 O63 2.507496 1_555
Na19 O5 2.566479 1_555
Na20 O30 2.326638 1_555
Na20 O36 2.461483 1_554
Na20 O60 2.507496 1_555
Na20 O6 2.566479 1_554
Na21 O31 2.308680 1_555
Na21 O61 2.458053 1_555
Na21 O37 2.479156 1_555
Na21 O7 2.533042 1_555
B0 O64 1.368575 1_555
B0 O27 1.373185 1_555
B0 O38 1.398747 1_555
B1 O65 1.364972 1_555
B1 O26 1.374805 1_555
B1 O39 1.400569 1_555
B2 O66 1.364972 1_555
B2 O29 1.374805 1_555
B2 O40 1.400569 1_555
B3 O67 1.368575 1_555
B3 O28 1.373185 1_555
B3 O41 1.398747 1_555
B4 O64 1.469482 1_555
B4 O30 1.475638 1_555
B4 O42 1.505668 1_555
B4 O22 1.506133 1_555
B5 O65 1.481180 1_555
B5 O43 1.481711 1_555
B5 O31 1.486476 1_555
B5 O23 1.500103 1_555
B6 O66 1.481180 1_555
B6 O44 1.481711 1_555
B6 O32 1.486476 1_555
B6 O24 1.500103 1_555
B7 O67 1.469482 1_555
B7 O33 1.475638 1_555
B7 O45 1.505668 1_555
B7 O25 1.506133 1_555
B8 O30 1.457467 1_655
B8 O54 1.471926 1_555
B8 O4 1.487539 1_555
B8 O34 1.518663 1_555
B9 O31 1.450951 1_555
B9 O55 1.474788 1_555
B9 O5 1.502375 1_555
B9 O35 1.514124 1_555
B10 O32 1.450951 1_455
B10 O56 1.474788 1_555
B10 O6 1.502375 1_555
B10 O36 1.514124 1_555
B11 O33 1.457467 1_555
B11 O57 1.471926 1_555
B11 O7 1.487539 1_555
B11 O37 1.518663 1_555
B12 O46 1.366210 1_555
B12 O8 1.372425 1_555
B12 O16 1.390080 1_565
B13 O47 1.367073 1_455
B13 O9 1.375004 1_555
B13 O16 1.390056 1_555
B14 O48 1.367073 1_555
B14 O10 1.375004 1_555
B14 O17 1.390056 1_555
B15 O49 1.366210 1_655
B15 O11 1.372425 1_555
B15 O17 1.390080 1_565
B16 O42 1.359459 1_555
B16 O60 1.379375 1_555
B16 O50 1.411903 1_555
B17 O43 1.346806 1_555
B17 O61 1.385758 1_555
B17 O51 1.419870 1_555
B18 O44 1.346806 1_555
B18 O62 1.385758 1_555
B18 O52 1.419870 1_555
B19 O45 1.359459 1_555
B19 O63 1.379375 1_555
B19 O53 1.411903 1_555
B20 O58 1.438407 1_545
B20 O12 1.450149 1_555
B20 O27 1.525647 1_555
B20 O18 1.528816 1_555
B21 O58 1.439637 1_555
B21 O13 1.451323 1_555
B21 O26 1.522491 1_555
B21 O19 1.530136 1_555
B22 O59 1.439637 1_555
B22 O14 1.451323 1_555
B22 O29 1.522491 1_555
B22 O20 1.530136 1_555
B23 O59 1.438407 1_545
B23 O15 1.450149 1_555
B23 O28 1.525647 1_555
B23 O21 1.528816 1_555
B24 O19 1.363627 1_555
B24 O54 1.372100 1_555
B24 O39 1.393624 1_555
B25 O18 1.363287 1_555
B25 O55 1.371839 1_555
B25 O38 1.396287 1_555
B26 O21 1.363287 1_555
B26 O56 1.371839 1_555
B26 O41 1.396287 1_555
B27 O20 1.363627 1_555
B27 O57 1.372100 1_555
B27 O40 1.393624 1_555
B28 O13 1.445495 1_545
B28 O12 1.445563 1_555
B28 O46 1.526386 1_645
B28 O47 1.528058 1_555
B29 O14 1.445495 1_545
B29 O15 1.445563 1_555
B29 O49 1.526386 1_545
B29 O48 1.528058 1_455
B30 O8 1.451486 1_555
B30 O0 1.467786 1_555
B30 O68 1.492152 1_555
B30 O60 1.524375 1_555
B31 O9 1.452359 1_555
B31 O1 1.461611 1_555
B31 O61 1.513083 1_455
B31 O69 1.519623 1_555
B32 O10 1.452359 1_555
B32 O2 1.461611 1_555
B32 O62 1.513083 1_555
B32 O70 1.519623 1_555
B33 O11 1.451486 1_555
B33 O3 1.467786 1_555
B33 O71 1.492152 1_555
B33 O63 1.524375 1_655
B34 O68 1.359905 1_555
B34 O4 1.368161 1_555
B34 O50 1.422241 1_555
B35 O69 1.371020 1_555
B35 O5 1.371822 1_555
B35 O51 1.405919 1_455
B36 O70 1.371020 1_555
B36 O6 1.371822 1_555
B36 O52 1.405918 1_555
B37 O71 1.359905 1_555
B37 O7 1.368160 1_555
B37 O53 1.422241 1_655
B38 O22 1.379210 1_555
B38 O0 1.379897 1_545
B38 O34 1.388004 1_455
B39 O23 1.370878 1_555
B39 O1 1.383662 1_565
B39 O35 1.393740 1_555
B40 O24 1.370878 1_555
B40 O2 1.383662 1_565
B40 O36 1.393740 1_655
B41 O25 1.379210 1_555
B41 O3 1.379897 1_545
B41 O37 1.388004 1_555
Cl0 Na8 2.634249 1_565
Cl0 Na20 2.732941 1_655
Cl0 Na16 2.862931 1_565
Cl0 Na5 2.883668 1_555
Cl0 Na0 3.043849 1_565
Cl0 Na12 3.213675 1_555
Cl1 Na9 2.642940 1_545
Cl1 Na21 2.724783 1_555
Cl1 Na17 2.729180 1_555
Cl1 Na4 2.894783 1_555
Cl1 Na1 3.080632 1_545
Cl1 Na13 3.172890 1_555
Cl2 Na10 2.642939 1_545
Cl2 Na18 2.724783 1_455
Cl2 Na16 2.729180 1_556
Cl2 Na7 2.894783 1_555
Cl2 Na2 3.080632 1_545
Cl2 Na14 3.172890 1_555
Cl3 Na11 2.634249 1_565
Cl3 Na19 2.732941 1_555
Cl3 Na17 2.862931 1_565
Cl3 Na6 2.883668 1_555
Cl3 Na3 3.043849 1_565
Cl3 Na15 3.213675 1_555
