# generated using pymatgen
data_BaHfTiInO6
_symmetry_space_group_name_H-M   'P 1'
_cell_length_a   5.75745272
_cell_length_b   5.75745272
_cell_length_c   5.75745272
_cell_angle_alpha   60.00000000
_cell_angle_beta   60.00000000
_cell_angle_gamma   60.00000000
_symmetry_Int_Tables_number   1
_chemical_formula_structural   BaHfTiInO6
_chemical_formula_sum   'Ba1 Hf1 Ti1 In1 O6'
_cell_volume   134.95101106
_cell_formula_units_Z   1
loop_
 _symmetry_equiv_pos_site_id
 _symmetry_equiv_pos_as_xyz
  1  'x, y, z'
loop_
 _atom_site_type_symbol
 _atom_site_label
 _atom_site_symmetry_multiplicity
 _atom_site_fract_x
 _atom_site_fract_y
 _atom_site_fract_z
 _atom_site_occupancy
  Ba  Ba0  1  0.75000000  0.75000000  0.75000000  1
  Hf  Hf0  1  0.00000000  -0.00000000  -0.00000000  1
  Ti  Ti0  1  0.50000000  0.50000000  0.50000000  1
  In  In0  1  0.25000000  0.25000000  0.25000000  1
  O  O0  1  0.74395800  0.25604200  0.25604200  1
  O  O1  1  0.25604200  0.74395800  0.74395800  1
  O  O2  1  0.74395800  0.25604200  0.74395800  1
  O  O3  1  0.25604200  0.74395800  0.25604200  1
  O  O4  1  0.74395800  0.74395800  0.25604200  1
  O  O5  1  0.25604200  0.25604200  0.74395800  1
loop_
_geom_bond_atom_site_label_1
_geom_bond_atom_site_label_2
_geom_bond_distance
_geom_bond_site_symmetry_2
Ba0 O0 2.879147 1_556
Ba0 O3 2.879147 1_655
Ba0 O4 2.879147 1_556
Ba0 O0 2.879147 1_565
Ba0 O1 2.879147 1_655
Ba0 O3 2.879147 1_556
Ba0 O2 2.879147 1_565
Ba0 O5 2.879147 1_655
Ba0 O5 2.879147 1_565
Ba0 O2 2.879147 1_555
Ba0 O1 2.879147 1_555
Ba0 O4 2.879147 1_555
Hf0 O3 2.084763 1_545
Hf0 O2 2.084763 1_454
Hf0 O4 2.084763 1_445
Hf0 O1 2.084763 1_544
Hf0 O5 2.084763 1_554
Hf0 O0 2.084763 1_455
O0 Ti0 1.986371 1_555
O1 Ti0 1.986371 1_555
O2 Ti0 1.986371 1_555
O3 Ti0 1.986371 1_555
O4 Ti0 1.986371 1_555
O5 Ti0 1.986371 1_555
