# generated using pymatgen
data_LaGePd
_symmetry_space_group_name_H-M   'P 1'
_cell_length_a   5.74694579
_cell_length_b   5.74694579
_cell_length_c   7.67467346
_cell_angle_alpha   50.93336412
_cell_angle_beta   50.93336412
_cell_angle_gamma   46.84431703
_symmetry_Int_Tables_number   1
_chemical_formula_structural   LaGePd
_chemical_formula_sum   'La2 Ge2 Pd2'
_cell_volume   134.39753747
_cell_formula_units_Z   2
loop_
 _symmetry_equiv_pos_site_id
 _symmetry_equiv_pos_as_xyz
  1  'x, y, z'
loop_
 _atom_site_type_symbol
 _atom_site_label
 _atom_site_symmetry_multiplicity
 _atom_site_fract_x
 _atom_site_fract_y
 _atom_site_fract_z
 _atom_site_occupancy
  La  La0  1  0.53351500  0.53351500  0.70601000  1
  La  La1  1  0.46648500  0.46648500  0.29399000  1
  Ge  Ge0  1  0.83924700  0.83924700  0.11073500  1
  Ge  Ge1  1  0.16075300  0.16075300  0.88926500  1
  Pd  Pd0  1  0.18561900  0.18561900  0.27811300  1
  Pd  Pd1  1  0.81438100  0.81438100  0.72188700  1
loop_
_geom_bond_atom_site_label_1
_geom_bond_atom_site_label_2
_geom_bond_distance
_geom_bond_site_symmetry_2
La0 Pd1 3.047216 1_555
La0 Pd1 3.191879 1_455
La0 Pd1 3.191879 1_545
La0 Pd0 3.257537 1_556
La0 Pd0 3.367493 1_655
La0 Pd0 3.367493 1_565
La1 Pd0 3.047216 1_555
La1 Pd0 3.191879 1_565
La1 Pd0 3.191879 1_655
La1 Pd1 3.257537 1_554
La1 Pd1 3.367493 1_455
La1 Pd1 3.367493 1_545
Ge0 Ge1 2.543628 1_664
Ge0 Pd0 2.575852 1_565
Ge0 Pd0 2.575852 1_655
Ge0 La1 3.136736 1_555
Ge0 Pd1 3.170140 1_554
Ge0 La0 3.212886 1_564
Ge0 La0 3.212886 1_654
Ge0 La0 3.321688 1_555
Ge0 La1 3.404410 1_655
Ge0 La1 3.404410 1_565
Ge1 Pd1 2.575852 1_545
Ge1 Pd1 2.575852 1_455
Ge1 La0 3.136736 1_555
Ge1 Pd0 3.170140 1_556
Ge1 La1 3.212886 1_546
Ge1 La1 3.212886 1_456
Ge1 La1 3.321688 1_555
Ge1 La0 3.404410 1_455
Ge1 La0 3.404410 1_545
Pd0 Pd1 2.934669 1_445
