# generated using pymatgen
data_Y3BeCrS7
_symmetry_space_group_name_H-M   'P 1'
_cell_length_a   9.58863345
_cell_length_b   9.58863345
_cell_length_c   6.00610000
_cell_angle_alpha   90.00000000
_cell_angle_beta   90.00000000
_cell_angle_gamma   119.99999623
_symmetry_Int_Tables_number   1
_chemical_formula_structural   Y3BeCrS7
_chemical_formula_sum   'Y6 Be2 Cr2 S14'
_cell_volume   478.22980692
_cell_formula_units_Z   2
loop_
 _symmetry_equiv_pos_site_id
 _symmetry_equiv_pos_as_xyz
  1  'x, y, z'
loop_
 _atom_site_type_symbol
 _atom_site_label
 _atom_site_symmetry_multiplicity
 _atom_site_fract_x
 _atom_site_fract_y
 _atom_site_fract_z
 _atom_site_occupancy
  Y  Y0  1  0.24498100  0.39301000  0.26508800  1
  Y  Y1  1  0.60699000  0.85197100  0.26508800  1
  Y  Y2  1  0.14802900  0.75501900  0.26508800  1
  Y  Y3  1  0.75501900  0.60699000  0.76508800  1
  Y  Y4  1  0.39301000  0.14802900  0.76508800  1
  Y  Y5  1  0.85197100  0.24498100  0.76508800  1
  Be  Be0  1  0.33333300  0.66666700  0.84816800  1
  Be  Be1  1  0.66666700  0.33333300  0.34816800  1
  Cr  Cr0  1  0.00000000  0.00000000  0.46091500  1
  Cr  Cr1  1  0.00000000  0.00000000  0.96091500  1
  S  S0  1  0.13849500  0.22686000  0.70386200  1
  S  S1  1  0.77314000  0.91163500  0.70386200  1
  S  S2  1  0.08836500  0.86150500  0.70386200  1
  S  S3  1  0.86150500  0.77314000  0.20386200  1
  S  S4  1  0.22686000  0.08836500  0.20386200  1
  S  S5  1  0.91163500  0.13849500  0.20386200  1
  S  S6  1  0.10285200  0.52009100  0.98461200  1
  S  S7  1  0.47990900  0.58276100  0.98461200  1
  S  S8  1  0.41723900  0.89714800  0.98461200  1
  S  S9  1  0.89714800  0.47990900  0.48461200  1
  S  S10  1  0.52009100  0.41723900  0.48461200  1
  S  S11  1  0.58276100  0.10285200  0.48461200  1
  S  S12  1  0.33333300  0.66666700  0.49835500  1
  S  S13  1  0.66666700  0.33333300  0.99835500  1
loop_
_geom_bond_atom_site_label_1
_geom_bond_atom_site_label_2
_geom_bond_distance
_geom_bond_site_symmetry_2
Be0 S12 2.101012 1_555
Be0 S8 2.103548 1_555
Be0 S6 2.103550 1_555
Be0 S7 2.103556 1_555
Be1 S13 2.101012 1_554
Be1 S11 2.103548 1_555
Be1 S9 2.103550 1_555
Be1 S10 2.103556 1_555
Cr0 S2 2.394952 1_545
Cr0 S1 2.394952 1_445
Cr0 S0 2.394952 1_555
Cr0 S5 2.447493 1_455
Cr0 S4 2.447493 1_555
Cr0 S3 2.447493 1_445
Cr1 S5 2.394952 1_456
Cr1 S4 2.394952 1_556
Cr1 S3 2.394952 1_446
Cr1 S2 2.447493 1_545
Cr1 S1 2.447493 1_445
Cr1 S0 2.447493 1_555
S0 Y5 2.861966 1_455
S0 Y4 2.916689 1_555
S0 Y0 2.983103 1_555
S1 Y3 2.861966 1_555
S1 Y5 2.916689 1_565
S1 Y1 2.983103 1_555
S2 Y4 2.861966 1_565
S2 Y3 2.916689 1_455
S2 Y2 2.983103 1_555
S3 Y2 2.861966 1_655
S3 Y1 2.916689 1_555
S3 Y3 2.983103 1_554
S4 Y0 2.861966 1_555
S4 Y2 2.916689 1_545
S4 Y4 2.983103 1_554
S5 Y1 2.861966 1_545
S5 Y0 2.916689 1_655
S5 Y5 2.983103 1_554
S6 Y2 2.669079 1_556
S6 Y0 2.800093 1_556
S6 Y5 2.852751 1_455
S7 Y0 2.669079 1_556
S7 Y1 2.800093 1_556
S7 Y3 2.852751 1_555
S8 Y1 2.669079 1_556
S8 Y2 2.800093 1_556
S8 Y4 2.852751 1_565
S9 Y5 2.669079 1_555
S9 Y3 2.800093 1_555
S9 Y2 2.852751 1_655
S10 Y3 2.669079 1_555
S10 Y4 2.800093 1_555
S10 Y0 2.852751 1_555
S11 Y4 2.669079 1_555
S11 Y5 2.800093 1_555
S11 Y1 2.852751 1_545
S12 Y2 2.709780 1_555
S12 Y1 2.709786 1_555
S12 Y0 2.709788 1_555
S13 Y5 2.709780 1_555
S13 Y4 2.709786 1_555
S13 Y3 2.709788 1_555
