# generated using pymatgen
data_Mg4Al2H12CO18
_symmetry_space_group_name_H-M   'P 1'
_cell_length_a   5.32541999
_cell_length_b   5.32541999
_cell_length_c   15.05333200
_cell_angle_alpha   90.00000000
_cell_angle_beta   90.00000000
_cell_angle_gamma   119.99999994
_symmetry_Int_Tables_number   1
_chemical_formula_structural   Mg4Al2H12CO18
_chemical_formula_sum   'Mg4 Al2 H12 C1 O18'
_cell_volume   369.71834573
_cell_formula_units_Z   1
loop_
 _symmetry_equiv_pos_site_id
 _symmetry_equiv_pos_as_xyz
  1  'x, y, z'
loop_
 _atom_site_type_symbol
 _atom_site_label
 _atom_site_symmetry_multiplicity
 _atom_site_fract_x
 _atom_site_fract_y
 _atom_site_fract_z
 _atom_site_occupancy
  Mg  Mg0  1  0.66666700  0.33333300  0.74426400  1
  Mg  Mg1  1  0.66666700  0.33333300  0.25573600  1
  Mg  Mg2  1  0.33333300  0.66666700  0.74426400  1
  Mg  Mg3  1  0.33333300  0.66666700  0.25573600  1
  Al  Al0  1  0.00000000  0.00000000  0.74435400  1
  Al  Al1  1  0.00000000  0.00000000  0.25564600  1
  H  H0  1  0.68379000  0.00000000  0.61292200  1
  H  H1  1  0.00000000  0.68379000  0.61292200  1
  H  H2  1  0.31621000  0.31621000  0.61292200  1
  H  H3  1  0.68379000  0.00000000  0.38707800  1
  H  H4  1  0.00000000  0.68379000  0.38707800  1
  H  H5  1  0.31621000  0.31621000  0.38707800  1
  H  H6  1  0.00000000  0.30805200  0.87620800  1
  H  H7  1  0.69194800  0.69194800  0.87620800  1
  H  H8  1  0.30805200  0.00000000  0.87620800  1
  H  H9  1  0.00000000  0.30805200  0.12379200  1
  H  H10  1  0.69194800  0.69194800  0.12379200  1
  H  H11  1  0.30805200  0.00000000  0.12379200  1
  C  C0  1  0.00000000  0.00000000  0.00000000  1
  O  O0  1  0.75916600  0.75916600  0.00000000  1
  O  O1  1  0.24083400  0.00000000  0.00000000  1
  O  O2  1  0.00000000  0.24083400  0.00000000  1
  O  O3  1  0.41421200  0.41421200  0.50000000  1
  O  O4  1  0.58578800  0.00000000  0.50000000  1
  O  O5  1  0.00000000  0.58578800  0.50000000  1
  O  O6  1  0.69030900  0.69030900  0.81110300  1
  O  O7  1  0.30969100  0.00000000  0.81110300  1
  O  O8  1  0.00000000  0.30969100  0.81110300  1
  O  O9  1  0.69030900  0.69030900  0.18889700  1
  O  O10  1  0.30969100  0.00000000  0.18889700  1
  O  O11  1  0.00000000  0.30969100  0.18889700  1
  O  O12  1  0.00000000  0.68931600  0.67851700  1
  O  O13  1  0.31068400  0.31068400  0.67851700  1
  O  O14  1  0.68931600  0.00000000  0.67851700  1
  O  O15  1  0.00000000  0.68931600  0.32148300  1
  O  O16  1  0.31068400  0.31068400  0.32148300  1
  O  O17  1  0.68931600  0.00000000  0.32148300  1
loop_
_geom_bond_atom_site_label_1
_geom_bond_atom_site_label_2
_geom_bond_distance
_geom_bond_site_symmetry_2
Mg0 O14 2.087894 1_555
Mg0 O12 2.087897 1_655
Mg0 O13 2.087899 1_555
Mg0 O8 2.098285 1_655
Mg0 O7 2.098288 1_555
Mg0 O6 2.098290 1_555
Mg1 O17 2.087894 1_555
Mg1 O15 2.087897 1_655
Mg1 O16 2.087899 1_555
Mg1 O11 2.098285 1_655
Mg1 O10 2.098288 1_555
Mg1 O9 2.098290 1_555
Mg2 O12 2.087894 1_555
Mg2 O14 2.087897 1_565
Mg2 O13 2.087899 1_555
Mg2 O7 2.098285 1_565
Mg2 O8 2.098288 1_555
Mg2 O6 2.098290 1_555
Mg3 O15 2.087894 1_555
Mg3 O17 2.087897 1_565
Mg3 O16 2.087899 1_555
Mg3 O10 2.098285 1_565
Mg3 O11 2.098288 1_555
Mg3 O9 2.098290 1_555
Al0 O14 1.928641 1_455
Al0 O12 1.928641 1_545
Al0 O13 1.928641 1_555
Al0 O8 1.931214 1_555
Al0 O7 1.931214 1_555
Al0 O6 1.931214 1_445
Al1 O17 1.928641 1_455
Al1 O15 1.928641 1_545
Al1 O16 1.928641 1_555
Al1 O11 1.931214 1_555
Al1 O10 1.931214 1_555
Al1 O9 1.931214 1_445
H0 O14 0.987862 1_555
H1 O12 0.987862 1_555
H2 O13 0.987862 1_555
H3 O17 0.987862 1_555
H4 O15 0.987862 1_555
H5 O16 0.987862 1_555
H6 O8 0.980086 1_555
H7 O6 0.980086 1_555
H8 O7 0.980086 1_555
H9 O11 0.980086 1_555
H10 O9 0.980086 1_555
H11 O10 0.980086 1_555
C0 O1 1.282542 1_555
C0 O2 1.282542 1_555
C0 O0 1.282542 1_445
