# generated using pymatgen
data_RhN3Cl6O
_symmetry_space_group_name_H-M   'P 1'
_cell_length_a   6.91090000
_cell_length_b   11.80387400
_cell_length_c   13.66739700
_cell_angle_alpha   90.00000000
_cell_angle_beta   90.00000000
_cell_angle_gamma   90.00000000
_symmetry_Int_Tables_number   1
_chemical_formula_structural   RhN3Cl6O
_chemical_formula_sum   'Rh4 N12 Cl24 O4'
_cell_volume   1114.92327919
_cell_formula_units_Z   4
loop_
 _symmetry_equiv_pos_site_id
 _symmetry_equiv_pos_as_xyz
  1  'x, y, z'
loop_
 _atom_site_type_symbol
 _atom_site_label
 _atom_site_symmetry_multiplicity
 _atom_site_fract_x
 _atom_site_fract_y
 _atom_site_fract_z
 _atom_site_occupancy
  Rh  Rh0  1  0.25000000  0.73033400  0.59541500  1
  Rh  Rh1  1  0.25000000  0.23033400  0.90458500  1
  Rh  Rh2  1  0.75000000  0.26966600  0.40458500  1
  Rh  Rh3  1  0.75000000  0.76966600  0.09541500  1
  N  N0  1  0.25000000  0.97320500  0.03199700  1
  N  N1  1  0.25000000  0.47320500  0.46800300  1
  N  N2  1  0.75000000  0.02679500  0.96800300  1
  N  N3  1  0.75000000  0.52679500  0.53199700  1
  N  N4  1  0.25000000  0.50170500  0.79715900  1
  N  N5  1  0.25000000  0.00170500  0.70284100  1
  N  N6  1  0.75000000  0.49829500  0.20284100  1
  N  N7  1  0.75000000  0.99829500  0.29715900  1
  N  N8  1  0.25000000  0.60777000  0.12950100  1
  N  N9  1  0.25000000  0.10777000  0.37049900  1
  N  N10  1  0.75000000  0.39223000  0.87049900  1
  N  N11  1  0.75000000  0.89223000  0.62950100  1
  Cl  Cl0  1  0.25000000  0.87396700  0.74195200  1
  Cl  Cl1  1  0.25000000  0.37396700  0.75804800  1
  Cl  Cl2  1  0.75000000  0.12603300  0.25804800  1
  Cl  Cl3  1  0.75000000  0.62603300  0.24195200  1
  Cl  Cl4  1  0.25000000  0.60473700  0.45534500  1
  Cl  Cl5  1  0.25000000  0.10473700  0.04465500  1
  Cl  Cl6  1  0.75000000  0.39526300  0.54465500  1
  Cl  Cl7  1  0.75000000  0.89526300  0.95534500  1
  Cl  Cl8  1  0.01282100  0.62745500  0.67327000  1
  Cl  Cl9  1  0.48717900  0.12745500  0.82673000  1
  Cl  Cl10  1  0.51282100  0.37254500  0.32673000  1
  Cl  Cl11  1  0.98717900  0.87254500  0.17327000  1
  Cl  Cl12  1  0.98717900  0.37254500  0.32673000  1
  Cl  Cl13  1  0.51282100  0.87254500  0.17327000  1
  Cl  Cl14  1  0.48717900  0.62745500  0.67327000  1
  Cl  Cl15  1  0.01282100  0.12745500  0.82673000  1
  Cl  Cl16  1  0.01271700  0.84204000  0.51444400  1
  Cl  Cl17  1  0.48728300  0.34204000  0.98555600  1
  Cl  Cl18  1  0.51271700  0.15796000  0.48555600  1
  Cl  Cl19  1  0.98728300  0.65796000  0.01444400  1
  Cl  Cl20  1  0.98728300  0.15796000  0.48555600  1
  Cl  Cl21  1  0.51271700  0.65796000  0.01444400  1
  Cl  Cl22  1  0.48728300  0.84204000  0.51444400  1
  Cl  Cl23  1  0.01271700  0.34204000  0.98555600  1
  O  O0  1  0.25000000  0.01308100  0.35492900  1
  O  O1  1  0.25000000  0.51308100  0.14507100  1
  O  O2  1  0.75000000  0.98691900  0.64507100  1
  O  O3  1  0.75000000  0.48691900  0.85492900  1
loop_
_geom_bond_atom_site_label_1
_geom_bond_atom_site_label_2
_geom_bond_distance
_geom_bond_site_symmetry_2
N8 O1 1.137775 1_555
N9 O0 1.137775 1_555
N10 O3 1.137775 1_555
N11 O2 1.137775 1_555
Cl0 N5 1.599753 1_565
Cl0 Rh0 2.624042 1_555
Cl1 N4 1.599753 1_555
Cl1 Rh1 2.624042 1_555
Cl2 N7 1.599753 1_545
Cl2 Rh2 2.624042 1_555
Cl3 N6 1.599753 1_555
Cl3 Rh3 2.624042 1_555
Cl4 N1 1.562196 1_555
Cl4 Rh0 2.421321 1_555
Cl5 N0 1.562196 1_545
Cl5 Rh1 2.421321 1_554
Cl6 N3 1.562196 1_555
Cl6 Rh2 2.421321 1_555
Cl7 N2 1.562196 1_565
Cl7 Rh3 2.421321 1_556
Cl8 Rh0 2.300797 1_555
Cl9 Rh1 2.300797 1_555
Cl10 Rh2 2.300797 1_555
Cl11 Rh3 2.300797 1_555
Cl12 Rh2 2.300797 1_555
Cl13 Rh3 2.300797 1_555
Cl14 Rh0 2.300797 1_555
Cl15 Rh1 2.300797 1_555
Cl16 Rh0 2.377474 1_555
Cl17 Rh1 2.377474 1_555
Cl18 Rh2 2.377474 1_555
Cl19 Rh3 2.377474 1_555
Cl20 Rh2 2.377474 1_555
Cl21 Rh3 2.377474 1_555
Cl22 Rh0 2.377474 1_555
Cl23 Rh1 2.377474 1_555
