# generated using pymatgen
data_Ca3Sb2O7
_symmetry_space_group_name_H-M   'P 1'
_cell_length_a   10.42383735
_cell_length_b   10.42383735
_cell_length_c   5.94648700
_cell_angle_alpha   90.00000000
_cell_angle_beta   90.00000000
_cell_angle_gamma   148.03625084
_symmetry_Int_Tables_number   1
_chemical_formula_structural   Ca3Sb2O7
_chemical_formula_sum   'Ca6 Sb4 O14'
_cell_volume   342.04668809
_cell_formula_units_Z   2
loop_
 _symmetry_equiv_pos_site_id
 _symmetry_equiv_pos_as_xyz
  1  'x, y, z'
loop_
 _atom_site_type_symbol
 _atom_site_label
 _atom_site_symmetry_multiplicity
 _atom_site_fract_x
 _atom_site_fract_y
 _atom_site_fract_z
 _atom_site_occupancy
  Ca  Ca0  1  0.23069700  0.23069700  0.30544300  1
  Ca  Ca1  1  0.76930300  0.76930300  0.80544300  1
  Ca  Ca2  1  0.04475600  0.43108200  0.18782900  1
  Ca  Ca3  1  0.95524400  0.56891800  0.68782900  1
  Ca  Ca4  1  0.43108200  0.04475600  0.18782900  1
  Ca  Ca5  1  0.56891800  0.95524400  0.68782900  1
  Sb  Sb0  1  0.84856900  0.64303400  0.24850300  1
  Sb  Sb1  1  0.15143100  0.35696600  0.74850300  1
  Sb  Sb2  1  0.35696600  0.15143100  0.74850300  1
  Sb  Sb3  1  0.64303400  0.84856900  0.24850300  1
  O  O0  1  0.65038000  0.05419800  0.29496200  1
  O  O1  1  0.34962000  0.94580200  0.79496200  1
  O  O2  1  0.94580200  0.34962000  0.79496200  1
  O  O3  1  0.05419800  0.65038000  0.29496200  1
  O  O4  1  0.42317300  0.68144700  0.95658600  1
  O  O5  1  0.57682700  0.31855300  0.45658600  1
  O  O6  1  0.31855300  0.57682700  0.45658600  1
  O  O7  1  0.68144700  0.42317300  0.95658600  1
  O  O8  1  0.97064800  0.12997500  0.05374000  1
  O  O9  1  0.02935200  0.87002500  0.55374000  1
  O  O10  1  0.62304900  0.62304900  0.19131700  1
  O  O11  1  0.37695100  0.37695100  0.69131700  1
  O  O12  1  0.12997500  0.97064800  0.05374000  1
  O  O13  1  0.87002500  0.02935200  0.55374000  1
loop_
_geom_bond_atom_site_label_1
_geom_bond_atom_site_label_2
_geom_bond_distance
_geom_bond_site_symmetry_2
Ca0 O10 2.352153 1_555
Ca0 O8 2.421056 1_455
Ca0 O12 2.421056 1_545
Ca0 O11 2.443345 1_555
Ca0 O13 2.707578 1_455
Ca0 O9 2.707578 1_545
Ca0 O5 3.009602 1_555
Ca0 O6 3.009602 1_555
Ca1 O11 2.352153 1_555
Ca1 O9 2.421056 1_655
Ca1 O13 2.421056 1_565
Ca1 O10 2.443345 1_556
Ca1 O12 2.707578 1_656
Ca1 O8 2.707578 1_566
Ca1 O4 3.009602 1_555
Ca1 O7 3.009602 1_555
Ca2 O3 2.293306 1_555
Ca2 O0 2.310050 1_455
Ca2 O6 2.377094 1_555
Ca2 O2 2.399286 1_454
Ca2 O4 2.606554 1_554
Ca2 O8 2.640058 1_455
Ca3 O2 2.293306 1_555
Ca3 O1 2.310050 1_655
Ca3 O7 2.377094 1_555
Ca3 O3 2.399286 1_655
Ca3 O5 2.606554 1_555
Ca3 O9 2.640058 1_655
Ca4 O0 2.293306 1_555
Ca4 O3 2.310050 1_545
Ca4 O5 2.377094 1_555
Ca4 O1 2.399286 1_544
Ca4 O7 2.606554 1_554
Ca4 O12 2.640058 1_545
Ca5 O1 2.293306 1_555
Ca5 O2 2.310050 1_565
Ca5 O4 2.377094 1_555
Ca5 O0 2.399286 1_565
Ca5 O6 2.606554 1_555
Ca5 O13 2.640058 1_565
O0 Sb3 2.097152 1_545
O1 Sb2 2.097152 1_565
O2 Sb1 2.097152 1_655
O3 Sb0 2.097152 1_455
O4 Sb3 2.127472 1_556
O4 Sb1 2.176810 1_555
O5 Sb2 2.127472 1_555
O5 Sb0 2.176810 1_555
O6 Sb1 2.127472 1_555
O6 Sb3 2.176810 1_555
O7 Sb0 2.127472 1_556
O7 Sb2 2.176810 1_555
O8 Sb3 2.147303 1_545
O8 Sb1 2.208758 1_654
O9 Sb2 2.147303 1_565
O9 Sb0 2.208758 1_455
O10 Sb3 2.203244 1_555
O10 Sb0 2.203244 1_555
O11 Sb1 2.203244 1_555
O11 Sb2 2.203244 1_555
O12 Sb0 2.147303 1_455
O12 Sb2 2.208758 1_564
O13 Sb1 2.147303 1_655
O13 Sb3 2.208758 1_545
