# generated using pymatgen
data_SmFeCu
_symmetry_space_group_name_H-M   'P 1'
_cell_length_a   5.25750270
_cell_length_b   5.25750440
_cell_length_c   8.73279700
_cell_angle_alpha   90.00000000
_cell_angle_beta   90.00000000
_cell_angle_gamma   59.52887364
_symmetry_Int_Tables_number   1
_chemical_formula_structural   SmFeCu
_chemical_formula_sum   'Sm4 Fe4 Cu4'
_cell_volume   208.04713819
_cell_formula_units_Z   4
loop_
 _symmetry_equiv_pos_site_id
 _symmetry_equiv_pos_as_xyz
  1  'x, y, z'
loop_
 _atom_site_type_symbol
 _atom_site_label
 _atom_site_symmetry_multiplicity
 _atom_site_fract_x
 _atom_site_fract_y
 _atom_site_fract_z
 _atom_site_occupancy
  Sm  Sm0  1  0.33319800  0.33315300  0.56287200  1
  Sm  Sm1  1  0.66781700  0.66777900  0.43560400  1
  Sm  Sm2  1  0.66781700  0.66777900  0.06439600  1
  Sm  Sm3  1  0.33319800  0.33315300  0.93712800  1
  Fe  Fe0  1  0.83545800  0.83558100  0.75000000  1
  Fe  Fe1  1  0.16980600  0.66376800  0.25000000  1
  Fe  Fe2  1  0.66368700  0.16985400  0.25000000  1
  Fe  Fe3  1  0.16715500  0.16711300  0.25000000  1
  Cu  Cu0  1  0.99770400  0.99767300  0.49782000  1
  Cu  Cu1  1  0.99770400  0.99767300  0.00218000  1
  Cu  Cu2  1  0.83601900  0.33048800  0.75000000  1
  Cu  Cu3  1  0.33043500  0.83598600  0.75000000  1
loop_
_geom_bond_atom_site_label_1
_geom_bond_atom_site_label_2
_geom_bond_distance
_geom_bond_site_symmetry_2
Fe0 Sm3 3.079086 1_565
Fe0 Sm0 3.079086 1_565
Fe0 Sm3 3.079829 1_655
Fe0 Sm0 3.079829 1_655
Fe0 Sm2 3.143537 1_556
Fe0 Sm1 3.143537 1_555
Fe1 Fe2 2.578155 1_555
Fe1 Fe3 2.618261 1_555
Fe1 Fe3 2.639298 1_565
Fe1 Fe2 2.641865 1_465
Fe1 Sm1 3.088130 1_455
Fe1 Sm2 3.088130 1_455
Fe1 Sm2 3.088533 1_555
Fe1 Sm1 3.088533 1_555
Fe1 Sm0 3.116102 1_555
Fe1 Sm3 3.116102 1_554
Fe2 Fe3 2.617856 1_555
Fe2 Fe3 2.639706 1_655
Fe2 Sm2 3.088249 1_545
Fe2 Sm1 3.088249 1_545
Fe2 Sm2 3.088422 1_555
Fe2 Sm1 3.088422 1_555
Fe2 Sm0 3.115829 1_555
Fe2 Sm3 3.115829 1_554
Fe3 Sm1 3.072338 1_545
Fe3 Sm2 3.072338 1_545
Fe3 Sm2 3.072356 1_455
Fe3 Sm1 3.072356 1_455
Fe3 Sm0 3.124452 1_555
Fe3 Sm3 3.124452 1_554
Cu0 Fe1 2.640665 1_655
Cu0 Fe2 2.640957 1_565
Cu0 Fe0 2.653484 1_555
Cu0 Fe3 2.660032 1_665
Cu0 Cu3 2.669167 1_655
Cu0 Cu2 2.669385 1_565
Cu0 Sm1 3.059799 1_555
Cu0 Sm0 3.064247 1_565
Cu0 Sm0 3.064310 1_655
Cu0 Sm1 3.085160 1_565
Cu0 Sm1 3.085190 1_655
Cu0 Sm0 3.114506 1_665
Cu1 Fe1 2.640665 1_655
Cu1 Fe2 2.640957 1_565
Cu1 Fe0 2.653484 1_554
Cu1 Fe3 2.660032 1_665
Cu1 Cu3 2.669167 1_654
Cu1 Cu2 2.669385 1_564
Cu1 Sm2 3.059799 1_555
Cu1 Sm3 3.064247 1_564
Cu1 Sm3 3.064310 1_654
Cu1 Sm2 3.085160 1_565
Cu1 Sm2 3.085190 1_655
Cu1 Sm3 3.114506 1_664
Cu2 Cu3 2.581086 1_645
Cu2 Fe0 2.603473 1_545
Cu2 Cu3 2.638934 1_555
Cu2 Fe0 2.654034 1_555
Cu2 Sm3 3.088749 1_655
Cu2 Sm0 3.088749 1_655
Cu2 Sm3 3.101872 1_555
Cu2 Sm0 3.101872 1_555
Cu2 Sm2 3.142336 1_556
Cu2 Sm1 3.142336 1_555
Cu3 Fe0 2.603423 1_455
Cu3 Fe0 2.654081 1_555
Cu3 Sm3 3.088919 1_565
Cu3 Sm0 3.088919 1_565
Cu3 Sm3 3.101706 1_555
Cu3 Sm0 3.101706 1_555
Cu3 Sm2 3.142537 1_556
Cu3 Sm1 3.142537 1_555
