# generated using pymatgen
data_Na(AsO3)2
_symmetry_space_group_name_H-M   'P 1'
_cell_length_a   9.39059200
_cell_length_b   5.64886800
_cell_length_c   9.10687806
_cell_angle_alpha   79.50941038
_cell_angle_beta   90.00000000
_cell_angle_gamma   90.00000000
_symmetry_Int_Tables_number   1
_chemical_formula_structural   Na(AsO3)2
_chemical_formula_sum   'Na4 As8 O24'
_cell_volume   475.01055125
_cell_formula_units_Z   4
loop_
 _symmetry_equiv_pos_site_id
 _symmetry_equiv_pos_as_xyz
  1  'x, y, z'
loop_
 _atom_site_type_symbol
 _atom_site_label
 _atom_site_symmetry_multiplicity
 _atom_site_fract_x
 _atom_site_fract_y
 _atom_site_fract_z
 _atom_site_occupancy
  Na  Na0  1  0.31000400  0.39717900  0.48329900  1
  Na  Na1  1  0.81000400  0.60282100  0.01670100  1
  Na  Na2  1  0.68999600  0.60282100  0.51670100  1
  Na  Na3  1  0.18999600  0.39717900  0.98329900  1
  As  As0  1  0.41393200  0.81557500  0.73724300  1
  As  As1  1  0.91393200  0.18442500  0.76275700  1
  As  As2  1  0.58606800  0.18442500  0.26275700  1
  As  As3  1  0.08606800  0.81557500  0.23724300  1
  As  As4  1  0.39594100  0.86682400  0.08473600  1
  As  As5  1  0.89594100  0.13317600  0.41526400  1
  As  As6  1  0.60405900  0.13317600  0.91526400  1
  As  As7  1  0.10405900  0.86682400  0.58473600  1
  O  O0  1  0.41653300  0.16970300  0.96794600  1
  O  O1  1  0.91653300  0.83029700  0.53205400  1
  O  O2  1  0.58346700  0.83029700  0.03205400  1
  O  O3  1  0.08346700  0.16970300  0.46794600  1
  O  O4  1  0.35563000  0.57355000  0.18458200  1
  O  O5  1  0.85563000  0.42645000  0.31541800  1
  O  O6  1  0.64437000  0.42645000  0.81541800  1
  O  O7  1  0.14437000  0.57355000  0.68458200  1
  O  O8  1  0.29475400  0.97495900  0.60683900  1
  O  O9  1  0.79475400  0.02504100  0.89316100  1
  O  O10  1  0.70524600  0.02504100  0.39316100  1
  O  O11  1  0.20524600  0.97495900  0.10683900  1
  O  O12  1  0.32988300  0.74324100  0.90820000  1
  O  O13  1  0.82988300  0.25675900  0.59180000  1
  O  O14  1  0.67011700  0.25675900  0.09180000  1
  O  O15  1  0.17011700  0.74324100  0.40820000  1
  O  O16  1  0.46884100  0.57650300  0.65959300  1
  O  O17  1  0.96884100  0.42349700  0.84040700  1
  O  O18  1  0.53115900  0.42349700  0.34040700  1
  O  O19  1  0.03115900  0.57650300  0.15959300  1
  O  O20  1  0.44773200  0.98053400  0.26260500  1
  O  O21  1  0.94773200  0.01946600  0.23739500  1
  O  O22  1  0.55226800  0.01946600  0.73739500  1
  O  O23  1  0.05226800  0.98053400  0.76260500  1
loop_
_geom_bond_atom_site_label_1
_geom_bond_atom_site_label_2
_geom_bond_distance
_geom_bond_site_symmetry_2
Na0 O15 2.351162 1_555
Na0 O18 2.440909 1_555
Na0 O8 2.449015 1_545
Na0 O3 2.502324 1_555
Na0 O16 2.533916 1_555
Na0 O7 2.727090 1_555
Na0 O4 2.754940 1_555
Na1 O14 2.351162 1_555
Na1 O19 2.440909 1_655
Na1 O9 2.449015 1_564
Na1 O2 2.502324 1_555
Na1 O17 2.533916 1_554
Na1 O6 2.727090 1_554
Na1 O5 2.754940 1_555
Na2 O13 2.351162 1_555
Na2 O16 2.440909 1_555
Na2 O10 2.449015 1_565
Na2 O1 2.502324 1_555
Na2 O18 2.533916 1_555
Na2 O5 2.727090 1_555
Na2 O6 2.754940 1_555
Na3 O12 2.351162 1_555
Na3 O17 2.440909 1_455
Na3 O11 2.449015 1_546
Na3 O0 2.502324 1_555
Na3 O19 2.533916 1_556
Na3 O4 2.727090 1_556
Na3 O7 2.754940 1_555
As0 O16 1.713915 1_555
As0 O12 1.726888 1_555
As0 O22 1.736280 1_565
As0 O8 1.756157 1_555
As1 O17 1.713915 1_555
As1 O13 1.726888 1_555
As1 O23 1.736280 1_645
As1 O9 1.756157 1_555
As2 O18 1.713915 1_555
As2 O14 1.726888 1_555
As2 O20 1.736280 1_545
As2 O10 1.756157 1_555
As3 O19 1.713915 1_555
As3 O15 1.726888 1_555
As3 O21 1.736280 1_465
As3 O11 1.756157 1_555
As4 O4 1.779352 1_555
As4 O2 1.846578 1_555
As4 O0 1.852898 1_564
As4 O20 1.910985 1_555
As4 O11 1.914462 1_555
As4 O12 1.966093 1_554
As5 O5 1.779352 1_555
As5 O3 1.846578 1_655
As5 O1 1.852898 1_545
As5 O21 1.910985 1_555
As5 O10 1.914462 1_555
As5 O13 1.966093 1_555
As6 O6 1.779352 1_555
As6 O0 1.846578 1_555
As6 O2 1.852898 1_546
As6 O22 1.910985 1_555
As6 O9 1.914462 1_555
As6 O14 1.966093 1_556
As7 O7 1.779352 1_555
As7 O1 1.846578 1_455
As7 O3 1.852898 1_565
As7 O23 1.910985 1_555
As7 O8 1.914462 1_555
As7 O15 1.966093 1_555
