# generated using pymatgen
data_Nd2Sn4Pd
_symmetry_space_group_name_H-M   'P 1'
_cell_length_a   4.53939400
_cell_length_b   4.49713900
_cell_length_c   9.40678350
_cell_angle_alpha   76.17028535
_cell_angle_beta   90.00000000
_cell_angle_gamma   90.00000000
_symmetry_Int_Tables_number   1
_chemical_formula_structural   Nd2Sn4Pd
_chemical_formula_sum   'Nd2 Sn4 Pd1'
_cell_volume   186.46582165
_cell_formula_units_Z   1
loop_
 _symmetry_equiv_pos_site_id
 _symmetry_equiv_pos_as_xyz
  1  'x, y, z'
loop_
 _atom_site_type_symbol
 _atom_site_label
 _atom_site_symmetry_multiplicity
 _atom_site_fract_x
 _atom_site_fract_y
 _atom_site_fract_z
 _atom_site_occupancy
  Nd  Nd0  1  0.25000000  0.89521200  0.20957500  1
  Nd  Nd1  1  0.75000000  0.10373500  0.79253100  1
  Sn  Sn0  1  0.25000000  0.54023300  0.91953500  1
  Sn  Sn1  1  0.75000000  0.43900600  0.12198900  1
  Sn  Sn2  1  0.25000000  0.26296200  0.47407500  1
  Sn  Sn3  1  0.75000000  0.76123200  0.47753600  1
  Pd  Pd0  1  0.25000000  0.68262000  0.63476000  1
loop_
_geom_bond_atom_site_label_1
_geom_bond_atom_site_label_2
_geom_bond_distance
_geom_bond_site_symmetry_2
Nd0 Sn1 3.293569 1_455
Nd0 Sn1 3.293569 1_555
Nd0 Sn1 3.293575 1_465
Nd0 Sn1 3.293575 1_565
Nd0 Sn2 3.300447 1_555
Nd0 Sn2 3.300448 1_565
Nd0 Sn3 3.337988 1_555
Nd0 Sn3 3.337988 1_455
Nd0 Sn0 3.474848 1_554
Nd0 Sn0 3.474854 1_564
Nd1 Sn0 3.399021 1_645
Nd1 Sn0 3.399021 1_545
Nd1 Sn0 3.399021 1_555
Nd1 Sn0 3.399021 1_655
Nd1 Pd0 3.504901 1_655
Nd1 Pd0 3.504901 1_555
Nd1 Pd0 3.504904 1_645
Nd1 Pd0 3.504904 1_545
Nd1 Sn3 3.651614 1_555
Nd1 Sn3 3.651617 1_545
Nd1 Sn2 3.689535 1_655
Nd1 Sn2 3.689535 1_555
Nd1 Sn1 3.756586 1_546
Nd1 Sn1 3.756586 1_556
Sn0 Sn1 2.927658 1_456
Sn0 Sn1 2.927658 1_556
Sn2 Sn3 3.195087 1_545
Sn2 Sn3 3.195087 1_445
Sn2 Sn3 3.195090 1_555
Sn2 Sn3 3.195090 1_455
Pd0 Sn0 2.601159 1_555
Pd0 Sn2 2.685187 1_565
Pd0 Sn2 2.685191 1_555
Pd0 Sn3 2.685870 1_455
Pd0 Sn3 2.685870 1_555
