# generated using pymatgen
data_Ca5Pb3
_symmetry_space_group_name_H-M   'P 1'
_cell_length_a   9.42514228
_cell_length_b   9.42514228
_cell_length_c   6.92773576
_cell_angle_alpha   90.00000000
_cell_angle_beta   90.00000000
_cell_angle_gamma   120.00000704
_symmetry_Int_Tables_number   1
_chemical_formula_structural   Ca5Pb3
_chemical_formula_sum   'Ca10 Pb6'
_cell_volume   532.96384108
_cell_formula_units_Z   2
loop_
 _symmetry_equiv_pos_site_id
 _symmetry_equiv_pos_as_xyz
  1  'x, y, z'
loop_
 _atom_site_type_symbol
 _atom_site_label
 _atom_site_symmetry_multiplicity
 _atom_site_fract_x
 _atom_site_fract_y
 _atom_site_fract_z
 _atom_site_occupancy
  Ca  Ca0  1  0.66666700  0.33333300  0.50000000  1
  Ca  Ca1  1  0.33333300  0.66666700  0.50000000  1
  Ca  Ca2  1  0.33333300  0.66666700  -0.00000000  1
  Ca  Ca3  1  0.66666700  0.33333300  -0.00000000  1
  Ca  Ca4  1  0.72784216  0.72784216  0.25000000  1
  Ca  Ca5  1  0.27215684  -0.00000000  0.25000000  1
  Ca  Ca6  1  -0.00000000  0.27215684  0.25000000  1
  Ca  Ca7  1  0.27215784  0.27215784  0.75000000  1
  Ca  Ca8  1  0.72784316  0.00000000  0.75000000  1
  Ca  Ca9  1  0.00000000  0.72784316  0.75000000  1
  Pb  Pb0  1  0.38455839  0.38455839  0.25000000  1
  Pb  Pb1  1  0.61544161  -0.00000000  0.25000000  1
  Pb  Pb2  1  -0.00000000  0.61544161  0.25000000  1
  Pb  Pb3  1  0.61544161  0.61544161  0.75000000  1
  Pb  Pb4  1  0.38455839  0.00000000  0.75000000  1
  Pb  Pb5  1  0.00000000  0.38455839  0.75000000  1
loop_
_geom_bond_atom_site_label_1
_geom_bond_atom_site_label_2
_geom_bond_distance
_geom_bond_site_symmetry_2
Ca0 Pb5 3.403852 1_655
Ca0 Pb1 3.403852 1_555
Ca0 Pb4 3.403854 1_555
Ca0 Pb2 3.403854 1_655
Ca0 Pb3 3.403860 1_555
Ca0 Pb0 3.403860 1_555
Ca1 Pb2 3.403852 1_555
Ca1 Pb4 3.403852 1_565
Ca1 Pb1 3.403854 1_565
Ca1 Pb5 3.403854 1_555
Ca1 Pb3 3.403860 1_555
Ca1 Pb0 3.403860 1_555
Ca2 Pb2 3.403852 1_555
Ca2 Pb4 3.403852 1_564
Ca2 Pb1 3.403854 1_565
Ca2 Pb5 3.403854 1_554
Ca2 Pb0 3.403860 1_555
Ca2 Pb3 3.403860 1_554
Ca3 Pb5 3.403852 1_654
Ca3 Pb1 3.403852 1_555
Ca3 Pb2 3.403854 1_655
Ca3 Pb4 3.403854 1_554
Ca3 Pb3 3.403860 1_554
Ca3 Pb0 3.403860 1_555
Ca4 Pb1 3.227949 1_565
Ca4 Pb2 3.227949 1_655
Ca4 Pb0 3.235498 1_555
Ca4 Pb3 3.622249 1_555
Ca4 Pb3 3.622249 1_554
Ca5 Pb2 3.227947 1_545
Ca5 Pb0 3.227947 1_555
Ca5 Pb1 3.235508 1_555
Ca5 Pb4 3.622252 1_555
Ca5 Pb4 3.622252 1_554
Ca6 Pb1 3.227947 1_455
Ca6 Pb0 3.227947 1_555
Ca6 Pb2 3.235508 1_555
Ca6 Pb5 3.622252 1_555
Ca6 Pb5 3.622252 1_554
Ca7 Pb4 3.227949 1_555
Ca7 Pb5 3.227949 1_555
Ca7 Pb3 3.235498 1_555
Ca7 Pb0 3.622249 1_555
Ca7 Pb0 3.622249 1_556
Ca8 Pb5 3.227947 1_655
Ca8 Pb3 3.227947 1_545
Ca8 Pb4 3.235508 1_555
Ca8 Pb1 3.622252 1_556
Ca8 Pb1 3.622252 1_555
Ca9 Pb4 3.227947 1_565
Ca9 Pb3 3.227947 1_455
Ca9 Pb5 3.235508 1_555
Ca9 Pb2 3.622252 1_555
Ca9 Pb2 3.622252 1_556
