# generated using pymatgen
data_KNdEuWO6
_symmetry_space_group_name_H-M   'P 1'
_cell_length_a   8.48994097
_cell_length_b   8.48380834
_cell_length_c   8.51352539
_cell_angle_alpha   90.00000000
_cell_angle_beta   90.00000000
_cell_angle_gamma   90.00000000
_symmetry_Int_Tables_number   1
_chemical_formula_structural   KNdEuWO6
_chemical_formula_sum   'K4 Nd4 Eu4 W4 O24'
_cell_volume   613.20396576
_cell_formula_units_Z   4
loop_
 _symmetry_equiv_pos_site_id
 _symmetry_equiv_pos_as_xyz
  1  'x, y, z'
loop_
 _atom_site_type_symbol
 _atom_site_label
 _atom_site_symmetry_multiplicity
 _atom_site_fract_x
 _atom_site_fract_y
 _atom_site_fract_z
 _atom_site_occupancy
  K  K0  1  -0.00000000  0.50000000  0.50000000  1
  K  K1  1  0.50000000  0.50000000  -0.00000000  1
  K  K2  1  0.50000000  0.00000000  0.00000000  1
  K  K3  1  -0.00000000  -0.00000000  0.50000000  1
  Nd  Nd0  1  0.75000000  0.75000000  0.75000000  1
  Nd  Nd1  1  0.25000000  0.25000000  0.75000000  1
  Nd  Nd2  1  0.25000000  0.75000000  0.25000000  1
  Nd  Nd3  1  0.75000000  0.25000000  0.25000000  1
  Eu  Eu0  1  0.50000000  0.00000000  0.50000000  1
  Eu  Eu1  1  -0.00000000  0.50000000  -0.00000000  1
  Eu  Eu2  1  -0.00000000  -0.00000000  0.00000000  1
  Eu  Eu3  1  0.50000000  0.50000000  0.50000000  1
  W  W0  1  0.25000000  0.25000000  0.25000000  1
  W  W1  1  0.75000000  0.75000000  0.25000000  1
  W  W2  1  0.75000000  0.25000000  0.75000000  1
  W  W3  1  0.25000000  0.75000000  0.75000000  1
  O  O0  1  0.02289717  0.22073984  0.26782590  1
  O  O1  1  0.97710283  0.77926016  0.26782590  1
  O  O2  1  0.97710283  0.22073984  0.73217410  1
  O  O3  1  0.02289717  0.77926016  0.73217410  1
  O  O4  1  0.27342047  0.02272202  0.22240248  1
  O  O5  1  0.27342047  0.97727798  0.77759752  1
  O  O6  1  0.72657953  0.97727798  0.22240248  1
  O  O7  1  0.72657953  0.02272202  0.77759752  1
  O  O8  1  0.21108863  0.27618692  0.02193385  1
  O  O9  1  0.78891137  0.27618692  0.97806615  1
  O  O10  1  0.21108863  0.72381308  0.97806615  1
  O  O11  1  0.78891137  0.72381308  0.02193385  1
  O  O12  1  0.47710283  0.27926016  0.23217410  1
  O  O13  1  0.52289717  0.72073984  0.23217410  1
  O  O14  1  0.52289717  0.27926016  0.76782590  1
  O  O15  1  0.47710283  0.72073984  0.76782590  1
  O  O16  1  0.22657953  0.47727798  0.27759752  1
  O  O17  1  0.22657953  0.52272202  0.72240248  1
  O  O18  1  0.77342047  0.52272202  0.27759752  1
  O  O19  1  0.77342047  0.47727798  0.72240248  1
  O  O20  1  0.28891137  0.22381308  0.47806615  1
  O  O21  1  0.71108863  0.22381308  0.52193385  1
  O  O22  1  0.28891137  0.77618692  0.52193385  1
  O  O23  1  0.71108863  0.77618692  0.47806615  1
loop_
_geom_bond_atom_site_label_1
_geom_bond_atom_site_label_2
_geom_bond_distance
_geom_bond_site_symmetry_2
K0 O18 2.706040 1_455
K0 O16 2.706040 1_555
K0 O17 2.706040 1_555
K0 O19 2.706040 1_455
K0 O2 3.091582 1_455
K0 O3 3.091582 1_555
K0 O0 3.091582 1_555
K0 O1 3.091582 1_455
K1 O12 2.729812 1_555
K1 O13 2.729812 1_555
K1 O15 2.729812 1_554
K1 O14 2.729812 1_554
K1 O10 3.107521 1_554
K1 O11 3.107521 1_555
K1 O9 3.107521 1_554
K1 O8 3.107521 1_555
K2 O7 2.706040 1_554
K2 O5 2.706040 1_544
K2 O4 2.706040 1_555
K2 O6 2.706040 1_545
K2 O12 3.091582 1_555
K2 O13 3.091582 1_545
K2 O15 3.091582 1_544
K2 O14 3.091582 1_554
K3 O3 2.729812 1_545
K3 O2 2.729812 1_455
K3 O0 2.729812 1_555
K3 O1 2.729812 1_445
K3 O22 3.107521 1_545
K3 O20 3.107521 1_555
K3 O23 3.107521 1_445
K3 O21 3.107521 1_455
Nd0 O19 2.334105 1_555
Nd0 O7 2.334105 1_565
Nd0 O15 2.335078 1_555
Nd0 O3 2.335078 1_655
Nd0 O23 2.349096 1_555
Nd0 O11 2.349096 1_556
Nd1 O17 2.334105 1_555
Nd1 O5 2.334105 1_545
Nd1 O14 2.335078 1_555
Nd1 O2 2.335078 1_455
Nd1 O20 2.349096 1_555
Nd1 O8 2.349096 1_556
Nd2 O16 2.334105 1_555
Nd2 O4 2.334105 1_565
Nd2 O13 2.335078 1_555
Nd2 O1 2.335078 1_455
Nd2 O22 2.349096 1_555
Nd2 O10 2.349096 1_554
Nd3 O6 2.334105 1_545
Nd3 O18 2.334105 1_555
Nd3 O12 2.335078 1_555
Nd3 O0 2.335078 1_655
Nd3 O21 2.349096 1_555
Nd3 O9 2.349096 1_554
Eu0 O21 2.617631 1_555
Eu0 O22 2.617631 1_545
Eu0 O20 2.617631 1_555
Eu0 O23 2.617631 1_545
Eu1 O11 2.617631 1_455
Eu1 O10 2.617631 1_554
Eu1 O9 2.617631 1_454
Eu1 O8 2.617631 1_555
Eu2 O10 2.955807 1_544
Eu2 O9 2.955807 1_454
Eu2 O8 2.955807 1_555
Eu2 O11 2.955807 1_445
Eu2 O0 2.957009 1_555
Eu2 O1 2.957009 1_445
Eu2 O2 2.957009 1_454
Eu2 O3 2.957009 1_544
Eu2 O5 3.001796 1_544
Eu2 O7 3.001796 1_454
Eu2 O6 3.001796 1_445
Eu2 O4 3.001796 1_555
Eu3 O20 2.955807 1_555
Eu3 O23 2.955807 1_555
Eu3 O21 2.955807 1_555
Eu3 O22 2.955807 1_555
Eu3 O14 2.957009 1_555
Eu3 O15 2.957009 1_555
Eu3 O12 2.957009 1_555
Eu3 O13 2.957009 1_555
Eu3 O16 3.001796 1_555
Eu3 O19 3.001796 1_555
Eu3 O17 3.001796 1_555
Eu3 O18 3.001796 1_555
O0 W0 1.949919 1_555
O1 W1 1.949919 1_555
O2 W2 1.949919 1_555
O3 W3 1.949919 1_555
O4 W0 1.952595 1_555
O5 W3 1.952595 1_555
O6 W1 1.952595 1_555
O7 W2 1.952595 1_555
O8 W0 1.982041 1_555
O9 W2 1.982041 1_555
O10 W3 1.982041 1_555
O11 W1 1.982041 1_555
O12 W0 1.949919 1_555
O13 W1 1.949919 1_555
O14 W2 1.949919 1_555
O15 W3 1.949919 1_555
O16 W0 1.952595 1_555
O17 W3 1.952595 1_555
O18 W1 1.952595 1_555
O19 W2 1.952595 1_555
O20 W0 1.982041 1_555
O21 W2 1.982041 1_555
O22 W3 1.982041 1_555
O23 W1 1.982041 1_555
