# generated using pymatgen
data_Mg14CdCoO16
_symmetry_space_group_name_H-M   'P 1'
_cell_length_a   8.63259177
_cell_length_b   8.59463082
_cell_length_c   4.30605108
_cell_angle_alpha   90.00000000
_cell_angle_beta   90.00000000
_cell_angle_gamma   90.00000000
_symmetry_Int_Tables_number   1
_chemical_formula_structural   Mg14CdCoO16
_chemical_formula_sum   'Mg14 Cd1 Co1 O16'
_cell_volume   319.48289238
_cell_formula_units_Z   1
loop_
 _symmetry_equiv_pos_site_id
 _symmetry_equiv_pos_as_xyz
  1  'x, y, z'
loop_
 _atom_site_type_symbol
 _atom_site_label
 _atom_site_symmetry_multiplicity
 _atom_site_fract_x
 _atom_site_fract_y
 _atom_site_fract_z
 _atom_site_occupancy
  Mg  Mg0  1  0.50000000  0.00000000  0.00000000  1
  Mg  Mg1  1  0.50000000  0.50000000  0.00000000  1
  Mg  Mg2  1  0.00000000  0.24460014  0.50000000  1
  Mg  Mg3  1  0.00000000  0.75539986  0.50000000  1
  Mg  Mg4  1  0.50000000  0.24902887  0.50000000  1
  Mg  Mg5  1  0.50000000  0.75097113  0.50000000  1
  Mg  Mg6  1  0.25034814  0.00000000  0.50000000  1
  Mg  Mg7  1  0.25566915  0.50000000  0.50000000  1
  Mg  Mg8  1  0.74965186  0.00000000  0.50000000  1
  Mg  Mg9  1  0.74433085  0.50000000  0.50000000  1
  Mg  Mg10  1  0.25277420  0.24606422  0.00000000  1
  Mg  Mg11  1  0.25277420  0.75393578  0.00000000  1
  Mg  Mg12  1  0.74722580  0.24606422  0.00000000  1
  Mg  Mg13  1  0.74722580  0.75393578  0.00000000  1
  Cd  Cd0  1  0.00000000  0.50000000  0.00000000  1
  Co  Co0  1  0.00000000  0.00000000  0.00000000  1
  O  O0  1  0.25814214  0.00000000  0.00000000  1
  O  O1  1  0.26487359  0.50000000  0.00000000  1
  O  O2  1  0.74185786  0.00000000  0.00000000  1
  O  O3  1  0.73512641  0.50000000  0.00000000  1
  O  O4  1  0.24846436  0.25040403  0.50000000  1
  O  O5  1  0.24846436  0.74959597  0.50000000  1
  O  O6  1  0.75153564  0.25040403  0.50000000  1
  O  O7  1  0.75153564  0.74959597  0.50000000  1
  O  O8  1  0.00000000  0.00000000  0.50000000  1
  O  O9  1  0.00000000  0.50000000  0.50000000  1
  O  O10  1  0.50000000  0.00000000  0.50000000  1
  O  O11  1  0.50000000  0.50000000  0.50000000  1
  O  O12  1  0.00000000  0.23441652  0.00000000  1
  O  O13  1  0.00000000  0.76558348  0.00000000  1
  O  O14  1  0.50000000  0.24845594  0.00000000  1
  O  O15  1  0.50000000  0.75154406  0.00000000  1
loop_
_geom_bond_atom_site_label_1
_geom_bond_atom_site_label_2
_geom_bond_distance
_geom_bond_site_symmetry_2
Mg0 O0 2.087860 1_555
Mg0 O2 2.087860 1_555
Mg0 O14 2.135387 1_555
Mg0 O15 2.135387 1_545
Mg0 O10 2.153026 1_554
Mg0 O10 2.153026 1_555
Mg1 O3 2.029750 1_555
Mg1 O1 2.029750 1_555
Mg1 O11 2.153026 1_554
Mg1 O11 2.153026 1_555
Mg1 O15 2.161928 1_555
Mg1 O14 2.161928 1_555
Mg2 O8 2.102248 1_555
Mg2 O4 2.145471 1_555
Mg2 O6 2.145471 1_455
Mg2 O12 2.154804 1_556
Mg2 O12 2.154804 1_555
Mg2 O9 2.195068 1_555
Mg3 O8 2.102248 1_565
Mg3 O5 2.145471 1_555
Mg3 O7 2.145471 1_455
Mg3 O13 2.154804 1_555
Mg3 O13 2.154804 1_556
Mg3 O9 2.195068 1_555
Mg4 O10 2.140311 1_555
Mg4 O14 2.153031 1_555
Mg4 O14 2.153031 1_556
Mg4 O11 2.157004 1_555
Mg4 O6 2.171437 1_555
Mg4 O4 2.171437 1_555
Mg5 O10 2.140311 1_565
Mg5 O15 2.153031 1_556
Mg5 O15 2.153031 1_555
Mg5 O11 2.157004 1_555
Mg5 O7 2.171437 1_555
Mg5 O5 2.171437 1_555
Mg6 O4 2.152192 1_555
Mg6 O5 2.152192 1_545
Mg6 O0 2.154077 1_555
Mg6 O0 2.154077 1_556
Mg6 O10 2.155143 1_555
Mg6 O8 2.161153 1_555
Mg7 O11 2.109208 1_555
Mg7 O4 2.146087 1_555
Mg7 O5 2.146087 1_555
Mg7 O1 2.154491 1_556
Mg7 O1 2.154491 1_555
Mg7 O9 2.207087 1_555
Mg8 O6 2.152192 1_555
Mg8 O7 2.152192 1_545
Mg8 O2 2.154077 1_555
Mg8 O2 2.154077 1_556
Mg8 O10 2.155143 1_555
Mg8 O8 2.161153 1_655
Mg9 O11 2.109208 1_555
Mg9 O6 2.146087 1_555
Mg9 O7 2.146087 1_555
Mg9 O3 2.154491 1_556
Mg9 O3 2.154491 1_555
Mg9 O9 2.207087 1_655
Mg10 O0 2.115339 1_555
Mg10 O14 2.134298 1_555
Mg10 O4 2.153670 1_554
Mg10 O4 2.153670 1_555
Mg10 O12 2.184392 1_555
Mg10 O1 2.184982 1_555
Mg11 O0 2.115339 1_565
Mg11 O15 2.134298 1_555
Mg11 O5 2.153670 1_554
Mg11 O5 2.153670 1_555
Mg11 O13 2.184392 1_555
Mg11 O1 2.184982 1_555
Mg12 O2 2.115339 1_555
Mg12 O14 2.134298 1_555
Mg12 O6 2.153670 1_554
Mg12 O6 2.153670 1_555
Mg12 O12 2.184392 1_655
Mg12 O3 2.184982 1_555
Mg13 O2 2.115339 1_565
Mg13 O15 2.134298 1_555
Mg13 O7 2.153670 1_554
Mg13 O7 2.153670 1_555
Mg13 O13 2.184392 1_655
Mg13 O3 2.184982 1_555
Cd0 O9 2.153026 1_555
Cd0 O9 2.153026 1_554
Cd0 O13 2.282592 1_555
Cd0 O12 2.282592 1_555
Cd0 O3 2.286546 1_455
Cd0 O1 2.286546 1_555
Co0 O13 2.014723 1_545
Co0 O12 2.014723 1_555
Co0 O8 2.153026 1_554
Co0 O8 2.153026 1_555
Co0 O0 2.228436 1_555
Co0 O2 2.228436 1_455
