# generated using pymatgen
data_Mg2Sc3TiS8
_symmetry_space_group_name_H-M   'P 1'
_cell_length_a   7.53950853
_cell_length_b   7.46647653
_cell_length_c   7.53878302
_cell_angle_alpha   59.67467228
_cell_angle_beta   60.00814092
_cell_angle_gamma   59.67924626
_symmetry_Int_Tables_number   1
_chemical_formula_structural   Mg2Sc3TiS8
_chemical_formula_sum   'Mg2 Sc3 Ti1 S8'
_cell_volume   298.63006687
_cell_formula_units_Z   1
loop_
 _symmetry_equiv_pos_site_id
 _symmetry_equiv_pos_as_xyz
  1  'x, y, z'
loop_
 _atom_site_type_symbol
 _atom_site_label
 _atom_site_symmetry_multiplicity
 _atom_site_fract_x
 _atom_site_fract_y
 _atom_site_fract_z
 _atom_site_occupancy
  Mg  Mg0  1  0.87539700  0.87396900  0.87530800  1
  Mg  Mg1  1  0.12461200  0.12602300  0.12471000  1
  Sc  Sc0  1  0.50001400  0.50000300  0.49997700  1
  Sc  Sc1  1  0.49999700  0.49998900  0.99999000  1
  Sc  Sc2  1  0.99998500  0.50000300  0.50002100  1
  Ti  Ti0  1  0.50000400  0.00000600  0.50000700  1
  S  S0  1  0.73686000  0.75161800  0.73679100  1
  S  S1  1  0.26309900  0.24841100  0.72528300  1
  S  S2  1  0.25823800  0.72549800  0.25815900  1
  S  S3  1  0.72524500  0.24851400  0.26309600  1
  S  S4  1  0.74174500  0.27450500  0.74183100  1
  S  S5  1  0.27475100  0.75148600  0.73689300  1
  S  S6  1  0.26313600  0.24837300  0.26322600  1
  S  S7  1  0.73692000  0.75159700  0.27470900  1
loop_
_geom_bond_atom_site_label_1
_geom_bond_atom_site_label_2
_geom_bond_distance
_geom_bond_site_symmetry_2
Mg0 S4 2.429767 1_565
Mg0 S7 2.456249 1_556
Mg0 S0 2.456251 1_555
Mg0 S5 2.456273 1_655
Mg1 S2 2.429700 1_545
Mg1 S6 2.456158 1_555
Mg1 S3 2.456352 1_455
Mg1 S1 2.456407 1_554
S0 Ti0 2.512944 1_565
S0 Sc2 2.595021 1_555
S0 Sc1 2.595511 1_555
S1 Ti0 2.513519 1_555
S1 Sc2 2.594600 1_455
S1 Sc0 2.595584 1_555
S2 Sc0 2.570015 1_555
S2 Sc1 2.570839 1_554
S2 Sc2 2.571200 1_455
S3 Ti0 2.513826 1_555
S3 Sc1 2.594436 1_554
S3 Sc0 2.594900 1_555
S4 Sc0 2.569964 1_555
S4 Sc1 2.570657 1_555
S4 Sc2 2.571143 1_555
S5 Ti0 2.513953 1_565
S5 Sc1 2.594378 1_555
S5 Sc0 2.595045 1_555
S6 Ti0 2.512988 1_555
S6 Sc2 2.595235 1_455
S6 Sc1 2.595449 1_554
S7 Ti0 2.513655 1_565
S7 Sc2 2.594585 1_555
S7 Sc0 2.595562 1_555
