# generated using pymatgen
data_FeH12C5NCl2O5
_symmetry_space_group_name_H-M   'P 1'
_cell_length_a   8.83819400
_cell_length_b   8.46890500
_cell_length_c   18.25864419
_cell_angle_alpha   88.04625508
_cell_angle_beta   90.00000000
_cell_angle_gamma   90.00000000
_symmetry_Int_Tables_number   1
_chemical_formula_structural   FeH12C5NCl2O5
_chemical_formula_sum   'Fe4 H48 C20 N4 Cl8 O20'
_cell_volume   1365.86185862
_cell_formula_units_Z   4
loop_
 _symmetry_equiv_pos_site_id
 _symmetry_equiv_pos_as_xyz
  1  'x, y, z'
loop_
 _atom_site_type_symbol
 _atom_site_label
 _atom_site_symmetry_multiplicity
 _atom_site_fract_x
 _atom_site_fract_y
 _atom_site_fract_z
 _atom_site_occupancy
  Fe  Fe0  1  0.24926800  0.92716900  0.58601600  1
  Fe  Fe1  1  0.74926800  0.07283100  0.91398400  1
  Fe  Fe2  1  0.75073200  0.07283100  0.41398400  1
  Fe  Fe3  1  0.25073200  0.92716900  0.08601600  1
  H  H0  1  0.29779600  0.58874400  0.33833400  1
  H  H1  1  0.79779600  0.41125600  0.16166600  1
  H  H2  1  0.70220400  0.41125600  0.66166600  1
  H  H3  1  0.20220400  0.58874400  0.83833400  1
  H  H4  1  0.03971500  0.59779100  0.29976900  1
  H  H5  1  0.53971500  0.40220900  0.20023100  1
  H  H6  1  0.96028500  0.40220900  0.70023100  1
  H  H7  1  0.46028500  0.59779100  0.79976900  1
  H  H8  1  0.06661100  0.68470800  0.38682400  1
  H  H9  1  0.56661100  0.31529200  0.11317600  1
  H  H10  1  0.93338900  0.31529200  0.61317600  1
  H  H11  1  0.43338900  0.68470800  0.88682400  1
  H  H12  1  0.98575800  0.49011500  0.38227000  1
  H  H13  1  0.48575800  0.50988500  0.11773000  1
  H  H14  1  0.01424200  0.50988500  0.61773000  1
  H  H15  1  0.51424200  0.49011500  0.88227000  1
  H  H16  1  0.38481600  0.42637700  0.43929300  1
  H  H17  1  0.88481600  0.57362300  0.06070700  1
  H  H18  1  0.61518400  0.57362300  0.56070700  1
  H  H19  1  0.11518400  0.42637700  0.93929300  1
  H  H20  1  0.19227000  0.38874100  0.46580800  1
  H  H21  1  0.69227000  0.61125900  0.03419200  1
  H  H22  1  0.80773000  0.61125900  0.53419200  1
  H  H23  1  0.30773000  0.38874100  0.96580800  1
  H  H24  1  0.26775700  0.58639500  0.46791600  1
  H  H25  1  0.76775700  0.41360500  0.03208400  1
  H  H26  1  0.73224300  0.41360500  0.53208400  1
  H  H27  1  0.23224300  0.58639500  0.96791600  1
  H  H28  1  0.34635200  0.31068700  0.32382700  1
  H  H29  1  0.84635200  0.68931300  0.17617300  1
  H  H30  1  0.65364800  0.68931300  0.67617300  1
  H  H31  1  0.15364800  0.31068700  0.82382700  1
  H  H32  1  0.20176300  0.38569700  0.26234800  1
  H  H33  1  0.70176300  0.61430300  0.23765200  1
  H  H34  1  0.79823700  0.61430300  0.73765200  1
  H  H35  1  0.29823700  0.38569700  0.76234800  1
  H  H36  1  0.14964400  0.27124400  0.34259100  1
  H  H37  1  0.64964400  0.72875600  0.15740900  1
  H  H38  1  0.85035600  0.72875600  0.65740900  1
  H  H39  1  0.35035600  0.27124400  0.84259100  1
  H  H40  1  0.37969000  0.79932500  0.26627600  1
  H  H41  1  0.87969000  0.20067500  0.23372400  1
  H  H42  1  0.62031000  0.20067500  0.73372400  1
  H  H43  1  0.12031000  0.79932500  0.76627600  1
  H  H44  1  0.47372200  0.78659400  0.33831000  1
  H  H45  1  0.97372200  0.21340600  0.16169000  1
  H  H46  1  0.52627800  0.21340600  0.66169000  1
  H  H47  1  0.02627800  0.78659400  0.83831000  1
  C  C0  1  0.06703800  0.57412000  0.35758000  1
  C  C1  1  0.56703800  0.42588000  0.14242000  1
  C  C2  1  0.93296200  0.42588000  0.64242000  1
  C  C3  1  0.43296200  0.57412000  0.85758000  1
  C  C4  1  0.26969200  0.47452800  0.43963500  1
  C  C5  1  0.76969200  0.52547200  0.06036500  1
  C  C6  1  0.73030800  0.52547200  0.56036500  1
  C  C7  1  0.23030800  0.47452800  0.93963500  1
  C  C8  1  0.23091400  0.35718400  0.31953600  1
  C  C9  1  0.73091400  0.64281600  0.18046400  1
  C  C10  1  0.76908600  0.64281600  0.68046400  1
  C  C11  1  0.26908600  0.35718400  0.81953600  1
  C  C12  1  0.02962500  0.08453300  0.49273000  1
  C  C13  1  0.52962500  0.91546700  0.00727000  1
  C  C14  1  0.97037500  0.91546700  0.50727000  1
  C  C15  1  0.47037500  0.08453300  0.99273000  1
  C  C16  1  0.47098800  0.94570400  0.46999100  1
  C  C17  1  0.97098800  0.05429600  0.03000900  1
  C  C18  1  0.52901200  0.05429600  0.53000900  1
  C  C19  1  0.02901200  0.94570400  0.96999100  1
  N  N0  1  0.22158700  0.50407400  0.36209200  1
  N  N1  1  0.72158700  0.49592600  0.13790800  1
  N  N2  1  0.77841300  0.49592600  0.63790800  1
  N  N3  1  0.27841300  0.50407400  0.86209200  1
  Cl  Cl0  1  0.33948600  0.69247500  0.63430800  1
  Cl  Cl1  1  0.83948600  0.30752500  0.86569200  1
  Cl  Cl2  1  0.66051400  0.30752500  0.36569200  1
  Cl  Cl3  1  0.16051400  0.69247500  0.13430800  1
  Cl  Cl4  1  0.15337800  0.02670800  0.69105000  1
  Cl  Cl5  1  0.65337800  0.97329200  0.80895000  1
  Cl  Cl6  1  0.84662200  0.97329200  0.30895000  1
  Cl  Cl7  1  0.34662200  0.02670800  0.19105000  1
  O  O0  1  0.15385600  0.11952500  0.52224600  1
  O  O1  1  0.65385600  0.88047500  0.97775400  1
  O  O2  1  0.84614400  0.88047500  0.47775400  1
  O  O3  1  0.34614400  0.11952500  0.02224600  1
  O  O4  1  0.05144500  0.82471900  0.54768700  1
  O  O5  1  0.55144500  0.17528100  0.95231300  1
  O  O6  1  0.94855500  0.17528100  0.45231300  1
  O  O7  1  0.44855500  0.82471900  0.04768700  1
  O  O8  1  0.34784600  0.87424800  0.48218900  1
  O  O9  1  0.84784600  0.12575200  0.01781100  1
  O  O10  1  0.65215400  0.12575200  0.51781100  1
  O  O11  1  0.15215400  0.87424800  0.98218900  1
  O  O12  1  0.44754700  0.06334300  0.58718700  1
  O  O13  1  0.94754700  0.93665700  0.91281300  1
  O  O14  1  0.55245300  0.93665700  0.41281300  1
  O  O15  1  0.05245300  0.06334300  0.08718700  1
  O  O16  1  0.41926400  0.72221500  0.30303700  1
  O  O17  1  0.91926400  0.27778500  0.19696300  1
  O  O18  1  0.58073600  0.27778500  0.69696300  1
  O  O19  1  0.08073600  0.72221500  0.80303700  1
loop_
_geom_bond_atom_site_label_1
_geom_bond_atom_site_label_2
_geom_bond_distance
_geom_bond_site_symmetry_2
Fe0 O4 2.083475 1_555
Fe0 O12 2.098360 1_565
Fe0 O0 2.142727 1_565
Fe0 O8 2.147489 1_555
Fe1 O5 2.083475 1_555
Fe1 O13 2.098360 1_545
Fe1 O1 2.142727 1_545
Fe1 O9 2.147489 1_556
Fe2 O6 2.083475 1_555
Fe2 O14 2.098360 1_545
Fe2 O2 2.142727 1_545
Fe2 O10 2.147489 1_555
Fe3 O7 2.083475 1_555
Fe3 O15 2.098360 1_565
Fe3 O3 2.142727 1_565
Fe3 O11 2.147489 1_554
H0 N0 1.065275 1_555
H1 N1 1.065275 1_555
H2 N2 1.065275 1_555
H3 N3 1.065275 1_555
H40 O16 0.984592 1_555
H41 O17 0.984592 1_555
H42 O18 0.984592 1_555
H43 O19 0.984592 1_555
H44 O16 0.983692 1_555
H45 O17 0.983692 1_555
H46 O18 0.983692 1_555
H47 O19 0.983692 1_555
C0 H8 1.093784 1_555
C0 H4 1.094651 1_555
C0 H12 1.097062 1_455
C0 N0 1.490346 1_555
C1 H9 1.093784 1_555
C1 H5 1.094651 1_555
C1 H13 1.097062 1_555
C1 N1 1.490346 1_555
C2 H10 1.093784 1_555
C2 H6 1.094651 1_555
C2 H14 1.097062 1_655
C2 N2 1.490346 1_555
C3 H11 1.093784 1_555
C3 H7 1.094651 1_555
C3 H15 1.097062 1_555
C3 N3 1.490346 1_555
C4 H24 1.094459 1_555
C4 H20 1.095792 1_555
C4 H16 1.096259 1_555
C4 N0 1.491238 1_555
C5 H25 1.094459 1_555
C5 H21 1.095792 1_555
C5 H17 1.096259 1_555
C5 N1 1.491238 1_555
C6 H26 1.094459 1_555
C6 H22 1.095792 1_555
C6 H18 1.096259 1_555
C6 N2 1.491238 1_555
C7 H27 1.094459 1_555
C7 H23 1.095792 1_555
C7 H19 1.096259 1_555
C7 N3 1.491238 1_555
C8 H32 1.094440 1_555
C8 H28 1.095461 1_555
C8 H36 1.096337 1_555
C8 N0 1.491303 1_555
C9 H33 1.094440 1_555
C9 H29 1.095461 1_555
C9 H37 1.096337 1_555
C9 N1 1.491303 1_555
C10 H34 1.094440 1_555
C10 H30 1.095461 1_555
C10 H38 1.096337 1_555
C10 N2 1.491303 1_555
C11 H35 1.094440 1_555
C11 H31 1.095461 1_555
C11 H39 1.096337 1_555
C11 N3 1.491303 1_555
C12 O0 1.262815 1_555
C12 O6 1.268838 1_455
C13 O1 1.262815 1_554
C13 O7 1.268838 1_555
C14 O2 1.262815 1_555
C14 O4 1.268838 1_655
C15 O3 1.262815 1_556
C15 O5 1.268838 1_555
C16 O8 1.261403 1_555
C16 O14 1.272655 1_555
C17 O9 1.261403 1_555
C17 O15 1.272655 1_655
C18 O10 1.261403 1_555
C18 O12 1.272655 1_555
C19 O11 1.261403 1_555
C19 O13 1.272655 1_455
Cl0 Fe0 2.290049 1_555
Cl1 Fe1 2.290049 1_555
Cl2 Fe2 2.290049 1_555
Cl3 Fe3 2.290049 1_555
Cl4 Fe0 2.284071 1_545
Cl5 Fe1 2.284071 1_565
Cl6 Fe2 2.284071 1_565
Cl7 Fe3 2.284071 1_545
