# generated using pymatgen
data_AlOF
_symmetry_space_group_name_H-M   'P 1'
_cell_length_a   4.92452700
_cell_length_b   8.63979800
_cell_length_c   9.06976300
_cell_angle_alpha   90.00000000
_cell_angle_beta   90.00000000
_cell_angle_gamma   90.00000000
_symmetry_Int_Tables_number   1
_chemical_formula_structural   AlOF
_chemical_formula_sum   'Al12 O12 F12'
_cell_volume   385.89046741
_cell_formula_units_Z   12
loop_
 _symmetry_equiv_pos_site_id
 _symmetry_equiv_pos_as_xyz
  1  'x, y, z'
loop_
 _atom_site_type_symbol
 _atom_site_label
 _atom_site_symmetry_multiplicity
 _atom_site_fract_x
 _atom_site_fract_y
 _atom_site_fract_z
 _atom_site_occupancy
  Al  Al0  1  0.06088000  0.92703400  0.13251400  1
  Al  Al1  1  0.06088000  0.57296600  0.13251400  1
  Al  Al2  1  0.12532700  0.25000000  0.57558100  1
  Al  Al3  1  0.37467300  0.25000000  0.07558100  1
  Al  Al4  1  0.43912000  0.57296600  0.63251400  1
  Al  Al5  1  0.43912000  0.92703400  0.63251400  1
  Al  Al6  1  0.56088000  0.07296600  0.36748600  1
  Al  Al7  1  0.56088000  0.42703400  0.36748600  1
  Al  Al8  1  0.62532700  0.75000000  0.92441900  1
  Al  Al9  1  0.87467300  0.75000000  0.42441900  1
  Al  Al10  1  0.93912000  0.42703400  0.86748600  1
  Al  Al11  1  0.93912000  0.07296600  0.86748600  1
  O  O0  1  0.03721300  0.25000000  0.76560100  1
  O  O1  1  0.19283500  0.08657700  0.01684200  1
  O  O2  1  0.19283500  0.41342300  0.01684200  1
  O  O3  1  0.30716500  0.08657700  0.51684200  1
  O  O4  1  0.30716500  0.41342300  0.51684200  1
  O  O5  1  0.46278700  0.25000000  0.26560100  1
  O  O6  1  0.53721300  0.75000000  0.73439900  1
  O  O7  1  0.69283500  0.58657700  0.48315800  1
  O  O8  1  0.69283500  0.91342300  0.48315800  1
  O  O9  1  0.80716500  0.58657700  0.98315800  1
  O  O10  1  0.80716500  0.91342300  0.98315800  1
  O  O11  1  0.96278700  0.75000000  0.23439900  1
  F  F0  1  0.12753400  0.94420800  0.74553700  1
  F  F1  1  0.12753400  0.55579200  0.74553700  1
  F  F2  1  0.19523000  0.75000000  0.51993700  1
  F  F3  1  0.30477000  0.75000000  0.01993700  1
  F  F4  1  0.37246600  0.55579200  0.24553700  1
  F  F5  1  0.37246600  0.94420800  0.24553700  1
  F  F6  1  0.62753400  0.05579200  0.75446300  1
  F  F7  1  0.62753400  0.44420800  0.75446300  1
  F  F8  1  0.69523000  0.25000000  0.98006300  1
  F  F9  1  0.80477000  0.25000000  0.48006300  1
  F  F10  1  0.87246600  0.44420800  0.25446300  1
  F  F11  1  0.87246600  0.05579200  0.25446300  1
loop_
_geom_bond_atom_site_label_1
_geom_bond_atom_site_label_2
_geom_bond_distance
_geom_bond_site_symmetry_2
Al0 F11 1.822575 1_465
Al0 O10 1.846591 1_454
Al0 O1 1.850121 1_565
Al0 O11 1.851147 1_455
Al0 F5 1.851285 1_555
Al0 F3 2.196481 1_555
Al1 F10 1.822575 1_455
Al1 O9 1.846591 1_454
Al1 O2 1.850121 1_555
Al1 O11 1.851147 1_455
Al1 F4 1.851285 1_555
Al1 F3 2.196481 1_555
Al2 O4 1.754782 1_555
Al2 O3 1.754782 1_555
Al2 O0 1.777222 1_555
Al2 F9 1.800686 1_455
Al3 O2 1.754782 1_555
Al3 O1 1.754782 1_555
Al3 O5 1.777222 1_555
Al3 F8 1.800686 1_554
Al4 F7 1.822575 1_555
Al4 O7 1.846591 1_555
Al4 O4 1.850121 1_555
Al4 O6 1.851147 1_555
Al4 F1 1.851285 1_555
Al4 F2 2.196481 1_555
Al5 F6 1.822575 1_565
Al5 O8 1.846591 1_555
Al5 O3 1.850121 1_565
Al5 O6 1.851147 1_555
Al5 F0 1.851285 1_555
Al5 F2 2.196481 1_555
Al6 F5 1.822575 1_545
Al6 O3 1.846591 1_555
Al6 O8 1.850121 1_545
Al6 O5 1.851147 1_555
Al6 F11 1.851285 1_555
Al6 F9 2.196481 1_555
Al7 F4 1.822575 1_555
Al7 O4 1.846591 1_555
Al7 O7 1.850121 1_555
Al7 O5 1.851147 1_555
Al7 F10 1.851285 1_555
Al7 F9 2.196481 1_555
Al8 O9 1.754782 1_555
Al8 O10 1.754782 1_555
Al8 O6 1.777222 1_555
Al8 F3 1.800686 1_556
Al9 O8 1.754782 1_555
Al9 O7 1.754782 1_555
Al9 O11 1.777222 1_555
Al9 F2 1.800686 1_655
Al10 F1 1.822575 1_655
Al10 O2 1.846591 1_656
Al10 O9 1.850121 1_555
Al10 O0 1.851147 1_655
Al10 F7 1.851285 1_555
Al10 F8 2.196481 1_555
Al11 F0 1.822575 1_645
Al11 O1 1.846591 1_656
Al11 O10 1.850121 1_545
Al11 O0 1.851147 1_655
Al11 F6 1.851285 1_555
Al11 F8 2.196481 1_555
