# generated using pymatgen
data_BaAl2Sb2O7
_symmetry_space_group_name_H-M   'P 1'
_cell_length_a   8.76911051
_cell_length_b   8.76911051
_cell_length_c   8.76911031
_cell_angle_alpha   36.63098977
_cell_angle_beta   36.63098977
_cell_angle_gamma   36.63098980
_symmetry_Int_Tables_number   1
_chemical_formula_structural   BaAl2Sb2O7
_chemical_formula_sum   'Ba1 Al2 Sb2 O7'
_cell_volume   214.95522087
_cell_formula_units_Z   1
loop_
 _symmetry_equiv_pos_site_id
 _symmetry_equiv_pos_as_xyz
  1  'x, y, z'
loop_
 _atom_site_type_symbol
 _atom_site_label
 _atom_site_symmetry_multiplicity
 _atom_site_fract_x
 _atom_site_fract_y
 _atom_site_fract_z
 _atom_site_occupancy
  Ba  Ba0  1  0.50000000  0.50000000  0.50000000  1
  Al  Al0  1  0.92931500  0.92931500  0.92931500  1
  Al  Al1  1  0.07068500  0.07068500  0.07068500  1
  Sb  Sb0  1  0.72071500  0.72071500  0.72071500  1
  Sb  Sb1  1  0.27928500  0.27928500  0.27928500  1
  O  O0  1  0.97533100  0.57123000  0.16209300  1
  O  O1  1  0.16209300  0.97533100  0.57123000  1
  O  O2  1  0.57123000  0.16209300  0.97533100  1
  O  O3  1  0.02466900  0.83790700  0.42877000  1
  O  O4  1  0.42877000  0.02466900  0.83790700  1
  O  O5  1  0.00000000  0.00000000  0.00000000  1
  O  O6  1  0.83790700  0.42877000  0.02466900  1
loop_
_geom_bond_atom_site_label_1
_geom_bond_atom_site_label_2
_geom_bond_distance
_geom_bond_site_symmetry_2
Ba0 O2 2.815901 1_555
Ba0 O6 2.815901 1_555
Ba0 O1 2.815902 1_555
Ba0 O3 2.815902 1_555
Ba0 O0 2.815902 1_555
Ba0 O4 2.815902 1_555
Al0 O5 1.732792 1_666
Al0 O1 1.786200 1_655
Al0 O2 1.786200 1_565
Al0 O0 1.786200 1_556
Al1 O5 1.732792 1_555
Al1 O3 1.786200 1_545
Al1 O6 1.786200 1_455
Al1 O4 1.786200 1_554
O0 Sb1 1.984017 1_655
O1 Sb1 1.984017 1_565
O2 Sb1 1.984017 1_556
O3 Sb0 1.984017 1_455
O4 Sb0 1.984017 1_545
O6 Sb0 1.984017 1_554
