# generated using pymatgen
data_Na26(Ge3Au8)5
_symmetry_space_group_name_H-M   'P 1'
_cell_length_a   12.87827026
_cell_length_b   12.87831267
_cell_length_c   12.87814059
_cell_angle_alpha   70.71094787
_cell_angle_beta   71.14920054
_cell_angle_gamma   110.27754314
_symmetry_Int_Tables_number   1
_chemical_formula_structural   Na26(Ge3Au8)5
_chemical_formula_sum   'Na26 Ge15 Au40'
_cell_volume   1643.89718050
_cell_formula_units_Z   1
loop_
 _symmetry_equiv_pos_site_id
 _symmetry_equiv_pos_as_xyz
  1  'x, y, z'
loop_
 _atom_site_type_symbol
 _atom_site_label
 _atom_site_symmetry_multiplicity
 _atom_site_fract_x
 _atom_site_fract_y
 _atom_site_fract_z
 _atom_site_occupancy
  Na  Na0  1  0.99969169  0.61898383  0.00034221  1
  Na  Na1  1  0.38081210  0.38108432  0.61941133  1
  Na  Na2  1  0.61932579  0.00003158  0.99965898  1
  Na  Na3  1  0.00049506  0.00022308  0.38058849  1
  Na  Na4  1  0.00049526  0.38108327  0.99972890  1
  Na  Na5  1  0.61932544  0.61898281  0.38070894  1
  Na  Na6  1  0.38081187  0.00022390  0.00027086  1
  Na  Na7  1  0.99969147  0.00003304  0.61929205  1
  Na  Na8  1  0.19845798  0.50146126  0.30300297  1
  Na  Na9  1  0.80446358  0.50146108  0.69699718  1
  Na  Na10  1  0.30083096  0.80083145  0.49999888  1
  Na  Na11  1  0.69570184  0.19570102  0.50000017  1
  Na  Na12  1  0.49998908  0.69070199  0.80928698  1
  Na  Na13  1  0.49998916  0.30927631  0.19071141  1
  Na  Na14  1  0.69053027  0.57723486  0.11329392  1
  Na  Na15  1  0.30939331  0.42304027  0.88635375  1
  Na  Na16  1  0.69052979  0.80382506  0.88670527  1
  Na  Na17  1  0.30939425  0.19574635  0.11364568  1
  Na  Na18  1  0.88704992  0.30822809  0.80699936  1
  Na  Na19  1  0.11522850  0.69405007  0.19299904  1
  Na  Na20  1  0.11522737  0.30822662  0.57882245  1
  Na  Na21  1  0.88704917  0.69405163  0.42117716  1
  Na  Na22  1  0.42152171  0.11570864  0.69418817  1
  Na  Na23  1  0.57830572  0.88436857  0.30606249  1
  Na  Na24  1  0.19043061  0.88436956  0.69393723  1
  Na  Na25  1  0.80989618  0.11570901  0.30581416  1
  Ge  Ge0  1  0.80199821  0.49561964  0.30637703  1
  Ge  Ge1  1  0.19781019  0.50669777  0.69111026  1
  Ge  Ge2  1  0.80199655  0.10837734  0.69361946  1
  Ge  Ge3  1  0.19780758  0.88891414  0.30889255  1
  Ge  Ge4  1  0.69416675  0.19925650  0.10649501  1
  Ge  Ge5  1  0.30575003  0.80066114  0.89350511  1
  Ge  Ge6  1  0.30574807  0.19926000  0.49491146  1
  Ge  Ge7  1  0.69417246  0.80066083  0.50508610  1
  Ge  Ge8  1  0.50888342  0.30888254  0.79999649  1
  Ge  Ge9  1  0.49151867  0.69073304  0.19921509  1
  Ge  Ge10  1  0.88994664  0.69073589  0.80078454  1
  Ge  Ge11  1  0.10887746  0.30887899  0.20000499  1
  Ge  Ge12  1  0.90479642  0.40479234  0.50000086  1
  Ge  Ge13  1  0.49996878  0.90617187  0.59379937  1
  Ge  Ge14  1  0.49996450  0.09376370  0.40619759  1
  Au  Au0  1  0.89742202  0.73308695  0.16433579  1
  Au  Au1  1  0.10364651  0.26896925  0.83467322  1
  Au  Au2  1  0.89742191  0.06175695  0.83566487  1
  Au  Au3  1  0.10364722  0.93832420  0.16532260  1
  Au  Au4  1  0.83472893  0.10299031  0.06276035  1
  Au  Au5  1  0.16574851  0.89748556  0.93724305  1
  Au  Au6  1  0.16574873  0.10299098  0.73173814  1
  Au  Au7  1  0.83473079  0.89748863  0.26826200  1
  Au  Au8  1  0.26926776  0.16583073  0.89656344  1
  Au  Au9  1  0.73080296  0.83412445  0.10332188  1
  Au  Au10  1  0.93744786  0.83412628  0.89667731  1
  Au  Au11  1  0.06239315  0.16583101  0.10343939  1
  Au  Au12  1  0.00064026  0.00063840  -0.00000082  1
  Au  Au13  1  0.95760306  0.41063012  0.25830307  1
  Au  Au14  1  0.33541199  0.59167459  0.45142181  1
  Au  Au15  1  0.66893271  0.21590712  0.74169608  1
  Au  Au16  1  0.04310119  0.78683734  0.54857656  1
  Au  Au17  1  0.45214795  0.04424061  0.21731442  1
  Au  Au18  1  0.26155543  0.66946332  0.78268551  1
  Au  Au19  1  0.54818033  0.33030667  0.40879357  1
  Au  Au20  1  0.73910063  0.95697426  0.59120755  1
  Au  Au21  1  0.59123845  0.54865725  0.66298407  1
  Au  Au22  1  0.40938906  0.74595927  0.04153229  1
  Au  Au23  1  0.78748936  0.45092235  0.95846767  1
  Au  Au24  1  0.21164037  0.25422144  0.33701688  1
  Au  Au25  1  0.04309508  0.59167494  0.74373648  1
  Au  Au26  1  0.66893424  0.41063027  0.54697270  1
  Au  Au27  1  0.33541099  0.78683405  0.25626266  1
  Au  Au28  1  0.95760059  0.21590397  0.45302875  1
  Au  Au29  1  0.54818115  0.95697083  0.78213120  1
  Au  Au30  1  0.73910278  0.33030934  0.21787331  1
  Au  Au31  1  0.45214673  0.66946460  0.59209221  1
  Au  Au32  1  0.26155751  0.04424192  0.40790672  1
  Au  Au33  1  0.40938351  0.45092120  0.33657166  1
  Au  Au34  1  0.59123634  0.25422087  0.95742235  1
  Au  Au35  1  0.21164316  0.54865746  0.04257944  1
  Au  Au36  1  0.78749074  0.74595265  0.66343040  1
  Au  Au37  1  0.40773186  0.49933845  0.09160762  1
  Au  Au38  1  0.59094786  0.49933782  0.90839265  1
  Au  Au39  1  0.07805650  0.57806017  0.49999719  1
loop_
_geom_bond_atom_site_label_1
_geom_bond_atom_site_label_2
_geom_bond_distance
_geom_bond_site_symmetry_2
Na0 Na4 3.069966 1_654
Na0 Na24 3.506079 1_654
Na1 Na5 3.069908 1_555
Na2 Na6 3.069972 1_556
Na2 Na23 3.506054 1_546
Na3 Na7 3.069919 1_455
Na10 Na23 3.155508 1_555
Na10 Na24 3.155533 1_555
Na11 Na25 3.138995 1_555
Na11 Na22 3.139017 1_555
Na12 Na15 3.031971 1_555
Na12 Na16 3.033213 1_555
Na13 Na17 3.031958 1_555
Na13 Na14 3.033218 1_555
Na18 Na9 3.132063 1_555
Na19 Na8 3.132060 1_555
Na20 Na8 3.132033 1_555
Na21 Na9 3.132042 1_555
Na22 Na24 3.405850 1_545
Na23 Na25 3.405860 1_565
Na23 Na5 3.506132 1_555
Na24 Na7 3.506097 1_465
Ge0 Na11 3.282749 1_555
Ge0 Na14 3.312726 1_555
Ge0 Na0 3.333805 1_555
Ge0 Na5 3.333874 1_555
Ge0 Na19 3.393822 1_655
Ge0 Na21 3.393843 1_555
Ge1 Na10 3.226970 1_555
Ge1 Na4 3.353632 1_555
Ge1 Na1 3.353646 1_555
Ge2 Na11 3.282685 1_555
Ge2 Na16 3.312758 1_545
Ge2 Na2 3.333843 1_555
Ge2 Na7 3.333895 1_555
Ge2 Na20 3.393827 1_655
Ge2 Na18 3.393834 1_555
Ge3 Na10 3.226898 1_555
Ge3 Na6 3.353649 1_565
Ge3 Na3 3.353700 1_565
Ge4 Na18 3.291256 1_554
Ge4 Na2 3.298436 1_554
Ge4 Na4 3.301723 1_654
Ge4 Na13 3.340005 1_555
Ge4 Na23 3.423264 1_545
Ge4 Na25 3.424433 1_555
Ge5 Na19 3.291235 1_556
Ge5 Na0 3.298400 1_456
Ge5 Na6 3.301732 1_566
Ge5 Na12 3.340018 1_555
Ge5 Na24 3.423254 1_555
Ge5 Na22 3.424425 1_565
Ge6 Na20 3.291217 1_555
Ge6 Na7 3.298397 1_455
Ge6 Na1 3.301691 1_555
Ge6 Na13 3.340008 1_555
Ge6 Na24 3.423294 1_545
Ge6 Na22 3.424462 1_555
Ge7 Na21 3.291197 1_555
Ge7 Na5 3.298388 1_555
Ge7 Na3 3.301671 1_665
Ge7 Na12 3.340015 1_555
Ge7 Na23 3.423283 1_555
Ge7 Na25 3.424440 1_565
Ge8 Na9 3.228056 1_555
Ge8 Na22 3.256014 1_555
Ge8 Na1 3.332619 1_555
Ge8 Na6 3.332648 1_556
Ge8 Na17 3.442367 1_556
Ge8 Na15 3.442415 1_555
Ge9 Na8 3.191111 1_555
Ge9 Na23 3.269556 1_555
Ge9 Na2 3.337525 1_564
Ge9 Na5 3.337544 1_555
Ge10 Na9 3.191129 1_555
Ge10 Na24 3.269559 1_655
Ge10 Na7 3.337510 1_565
Ge10 Na0 3.337565 1_556
Ge11 Na8 3.228066 1_555
Ge11 Na25 3.255997 1_455
Ge11 Na3 3.332622 1_555
Ge11 Na4 3.332641 1_554
Ge11 Na15 3.442392 1_554
Ge11 Na17 3.442437 1_555
Ge12 Na11 3.078318 1_555
Ge12 Na8 3.276956 1_655
Ge12 Na9 3.277009 1_555
Ge13 Ge14 2.795957 1_565
Ge13 Na11 3.202800 1_565
Ge13 Na12 3.211627 1_555
Ge13 Na10 3.248015 1_555
Ge13 Na23 3.646298 1_555
Ge13 Na24 3.646312 1_555
Ge14 Na11 3.202911 1_555
Ge14 Na13 3.211599 1_555
Ge14 Na10 3.247934 1_545
Ge14 Na24 3.646269 1_545
Ge14 Na23 3.646270 1_545
Au0 Ge0 2.540729 1_555
Au0 Au12 2.882339 1_665
Au0 Na21 3.127366 1_555
Au0 Na19 3.127420 1_655
Au0 Na14 3.139476 1_555
Au0 Na5 3.154108 1_555
Au0 Na0 3.154127 1_555
Au1 Ge1 2.549517 1_555
Au1 Au12 2.893262 1_556
Au1 Na20 3.108656 1_555
Au1 Na18 3.108729 1_455
Au1 Na15 3.125470 1_555
Au1 Na1 3.146344 1_555
Au1 Na4 3.146416 1_555
Au2 Ge2 2.540763 1_555
Au2 Na20 3.127379 1_655
Au2 Na18 3.127432 1_555
Au2 Na16 3.139463 1_545
Au2 Na2 3.154110 1_555
Au2 Na7 3.154114 1_555
Au3 Ge3 2.549553 1_555
Au3 Na21 3.108705 1_455
Au3 Na19 3.108758 1_555
Au3 Na17 3.125423 1_565
Au3 Na3 3.146363 1_565
Au3 Na6 3.146367 1_565
Au4 Ge4 2.547352 1_555
Au4 Na25 3.107198 1_555
Au4 Na23 3.112955 1_545
Au4 Na4 3.114907 1_654
Au4 Na2 3.119738 1_554
Au4 Na18 3.141424 1_554
Au5 Ge5 2.547334 1_555
Au5 Na22 3.107212 1_565
Au5 Na24 3.112969 1_555
Au5 Na6 3.114895 1_566
Au5 Na0 3.119718 1_456
Au5 Na19 3.141371 1_556
Au6 Ge6 2.547286 1_555
Au6 Na22 3.107243 1_555
Au6 Na24 3.112994 1_545
Au6 Na1 3.114912 1_555
Au6 Na7 3.119723 1_455
Au6 Na20 3.141407 1_555
Au7 Ge7 2.547260 1_555
Au7 Na25 3.107242 1_565
Au7 Na23 3.113016 1_555
Au7 Na3 3.114873 1_665
Au7 Na5 3.119754 1_555
Au7 Na21 3.141389 1_555
Au8 Ge8 2.555182 1_555
Au8 Na17 3.120587 1_556
Au8 Na15 3.120641 1_555
Au8 Na22 3.120910 1_555
Au8 Na1 3.142793 1_555
Au8 Na6 3.142811 1_556
Au9 Ge9 2.553639 1_555
Au9 Na16 3.117221 1_554
Au9 Na14 3.117263 1_555
Au9 Na23 3.126654 1_555
Au9 Na5 3.144586 1_555
Au9 Na2 3.144592 1_564
Au10 Ge10 2.553638 1_555
Au10 Au12 2.899384 1_666
Au10 Na14 3.117240 1_556
Au10 Na16 3.117257 1_555
Au10 Na24 3.126631 1_655
Au10 Na7 3.144565 1_565
Au10 Na0 3.144622 1_556
Au11 Ge11 2.555164 1_555
Au11 Au12 2.883927 1_555
Au11 Na15 3.120613 1_554
Au11 Na17 3.120629 1_555
Au11 Na25 3.120897 1_455
Au11 Na3 3.142762 1_555
Au11 Na4 3.142817 1_554
Au12 Au2 2.882344 1_454
Au12 Au8 2.883875 1_554
Au12 Au3 2.893236 1_545
Au12 Au9 2.899410 1_445
Au12 Au6 2.914709 1_554
Au12 Au7 2.914736 1_445
Au12 Au5 2.914754 1_544
Au12 Au4 2.914788 1_455
Au13 Ge0 2.600619 1_555
Au13 Ge11 2.747785 1_655
Au13 Au35 2.900728 1_655
Au13 Au28 2.902159 1_555
Au13 Au30 2.923045 1_555
Au13 Ge12 2.932339 1_555
Au13 Na11 3.127096 1_555
Au13 Na19 3.143794 1_655
Au13 Na8 3.225618 1_655
Au13 Na0 3.235559 1_555
Au13 Na25 3.335126 1_555
Au13 Na4 3.366406 1_654
Au14 Ge1 2.599075 1_555
Au14 Ge9 2.735629 1_555
Au14 Au33 2.904916 1_555
Au14 Au27 2.908644 1_555
Au14 Au31 2.908685 1_555
Au14 Au39 3.097029 1_555
Au14 Na10 3.099967 1_555
Au14 Na20 3.149551 1_555
Au14 Na8 3.215438 1_555
Au14 Na1 3.227613 1_555
Au14 Na23 3.298323 1_555
Au14 Na5 3.326725 1_555
Au15 Ge2 2.600619 1_555
Au15 Ge8 2.747781 1_555
Au15 Au34 2.900740 1_555
Au15 Au26 2.902126 1_555
Au15 Au29 2.923102 1_545
Au15 Ge12 2.932334 1_555
Au15 Na11 3.127090 1_555
Au15 Na18 3.143791 1_555
Au15 Na9 3.225623 1_555
Au15 Na2 3.235597 1_555
Au15 Na22 3.335106 1_555
Au15 Na6 3.366409 1_556
Au16 Ge3 2.599036 1_555
Au16 Ge10 2.735653 1_455
Au16 Au36 2.904964 1_455
Au16 Au25 2.908619 1_555
Au16 Au32 2.908666 1_565
Au16 Au39 3.096995 1_555
Au16 Na10 3.099913 1_555
Au16 Na21 3.149580 1_455
Au16 Na9 3.215494 1_455
Au16 Na3 3.227618 1_565
Au16 Na24 3.298280 1_555
Au16 Na7 3.326713 1_465
Au17 Ge4 2.582046 1_555
Au17 Ge3 2.743099 1_545
Au17 Au32 2.855852 1_555
Au17 Ge14 2.902328 1_555
Au17 Au27 2.908705 1_545
Au17 Au34 2.917536 1_554
Au17 Na13 3.127366 1_555
Au17 Na23 3.185710 1_545
Au17 Na10 3.243286 1_545
Au17 Na2 3.289441 1_554
Au17 Na17 3.364595 1_555
Au17 Na6 3.364994 1_555
Au18 Ge5 2.582032 1_555
Au18 Ge1 2.743103 1_555
Au18 Au31 2.855847 1_555
Au18 Ge13 2.902421 1_555
Au18 Au25 2.908725 1_555
Au18 Au35 2.917556 1_556
Au18 Na12 3.127357 1_555
Au18 Na24 3.185726 1_555
Au18 Na10 3.243308 1_555
Au18 Na0 3.289428 1_456
Au18 Na15 3.364613 1_555
Au18 Na4 3.365000 1_555
Au19 Ge6 2.588332 1_555
Au19 Ge0 2.737160 1_555
Au19 Au30 2.860767 1_555
Au19 Ge14 2.904491 1_555
Au19 Au33 2.918421 1_555
Au19 Au26 2.923071 1_555
Au19 Na13 3.139828 1_555
Au19 Na22 3.177628 1_555
Au19 Na11 3.220788 1_555
Au19 Na1 3.286523 1_555
Au19 Na5 3.365686 1_555
Au19 Na14 3.378009 1_555
Au20 Ge7 2.588362 1_555
Au20 Ge2 2.737131 1_565
Au20 Au29 2.860765 1_555
Au20 Ge13 2.904431 1_555
Au20 Au36 2.918440 1_555
Au20 Au28 2.923037 1_565
Au20 Na12 3.139814 1_555
Au20 Na25 3.177615 1_565
Au20 Na11 3.220777 1_565
Au20 Na3 3.286523 1_665
Au20 Na7 3.365668 1_565
Au20 Na16 3.377987 1_555
Au21 Ge8 2.587339 1_555
Au21 Ge7 2.709397 1_555
Au21 Au36 2.900259 1_555
Au21 Au26 2.900736 1_555
Au21 Au31 2.917642 1_555
Au21 Au38 3.009340 1_555
Au21 Na9 3.140045 1_555
Au21 Na1 3.169369 1_555
Au21 Na15 3.189796 1_555
Au21 Na12 3.257828 1_555
Au21 Na5 3.303595 1_555
Au21 Na21 3.354590 1_555
Au22 Ge9 2.589073 1_555
Au22 Ge5 2.705619 1_554
Au22 Au35 2.900307 1_555
Au22 Au27 2.904933 1_555
Au22 Au29 2.918274 1_554
Au22 Au37 3.015733 1_555
Au22 Na8 3.128525 1_555
Au22 Na2 3.172847 1_564
Au22 Na16 3.181641 1_554
Au22 Na12 3.246500 1_554
Au22 Na6 3.309421 1_565
Au22 Na19 3.348260 1_555
Au23 Ge10 2.589090 1_555
Au23 Ge4 2.705630 1_556
Au23 Au34 2.900302 1_555
Au23 Au25 2.904939 1_655
Au23 Au30 2.918341 1_556
Au23 Au38 3.015657 1_555
Au23 Na9 3.128515 1_555
Au23 Na0 3.172872 1_556
Au23 Na14 3.181617 1_556
Au23 Na13 3.246468 1_556
Au23 Na4 3.309448 1_655
Au23 Na18 3.348299 1_555
Au24 Ge11 2.587334 1_555
Au24 Ge6 2.709370 1_555
Au24 Au33 2.900286 1_555
Au24 Au28 2.900737 1_455
Au24 Au32 2.917611 1_555
Au24 Au37 3.009346 1_555
Au24 Na8 3.140069 1_555
Au24 Na3 3.169371 1_555
Au24 Na17 3.189816 1_555
Au24 Na13 3.257832 1_555
Au24 Na7 3.303598 1_455
Au24 Na20 3.354591 1_555
Au25 Ge1 2.599157 1_555
Au25 Ge10 2.735698 1_455
Au25 Au39 3.096977 1_555
Au25 Na10 3.099937 1_555
Au25 Na18 3.149546 1_455
Au25 Na9 3.215429 1_455
Au25 Na4 3.227623 1_555
Au25 Na24 3.298349 1_555
Au25 Na0 3.326708 1_456
Au26 Ge0 2.600595 1_555
Au26 Ge8 2.747737 1_555
Au26 Ge12 2.932395 1_555
Au26 Na11 3.127137 1_555
Au26 Na21 3.143792 1_555
Au26 Na9 3.225602 1_555
Au26 Na5 3.235578 1_555
Au26 Na22 3.335127 1_555
Au26 Na1 3.366455 1_555
Au27 Ge3 2.599074 1_555
Au27 Ge9 2.735690 1_555
Au27 Au39 3.096948 1_555
Au27 Na10 3.099917 1_555
Au27 Na19 3.149530 1_555
Au27 Na8 3.215457 1_555
Au27 Na6 3.227601 1_565
Au27 Na23 3.298334 1_555
Au27 Na2 3.326691 1_564
Au28 Ge2 2.600548 1_555
Au28 Ge11 2.747733 1_655
Au28 Ge12 2.932346 1_555
Au28 Na11 3.127101 1_555
Au28 Na20 3.143787 1_655
Au28 Na8 3.225643 1_655
Au28 Na7 3.235580 1_555
Au28 Na25 3.335088 1_555
Au28 Na3 3.366450 1_655
Au29 Ge5 2.588322 1_555
Au29 Ge2 2.737128 1_565
Au29 Ge13 2.904432 1_555
Au29 Na12 3.139824 1_555
Au29 Na22 3.177710 1_565
Au29 Na11 3.220792 1_565
Au29 Na6 3.286502 1_566
Au29 Na2 3.365610 1_565
Au29 Na16 3.377980 1_555
Au30 Ge4 2.588331 1_555
Au30 Ge0 2.737124 1_555
Au30 Ge14 2.904469 1_555
Au30 Na13 3.139865 1_555
Au30 Na25 3.177672 1_555
Au30 Na11 3.220738 1_555
Au30 Na4 3.286505 1_654
Au30 Na0 3.365634 1_555
Au30 Na14 3.378034 1_555
Au31 Ge7 2.582112 1_555
Au31 Ge1 2.743062 1_555
Au31 Ge13 2.902446 1_555
Au31 Na12 3.127338 1_555
Au31 Na23 3.185658 1_555
Au31 Na10 3.243310 1_555
Au31 Na5 3.289453 1_555
Au31 Na15 3.364583 1_555
Au31 Na1 3.365040 1_555
Au32 Ge6 2.582088 1_555
Au32 Ge3 2.743123 1_545
Au32 Ge14 2.902346 1_555
Au32 Na13 3.127325 1_555
Au32 Na24 3.185664 1_545
Au32 Na10 3.243329 1_545
Au32 Na7 3.289446 1_455
Au32 Na17 3.364570 1_555
Au32 Na3 3.365032 1_555
Au33 Ge9 2.589063 1_555
Au33 Ge6 2.705579 1_555
Au33 Au37 3.015667 1_555
Au33 Na8 3.128500 1_555
Au33 Na5 3.172893 1_555
Au33 Na14 3.181692 1_555
Au33 Na13 3.246568 1_555
Au33 Na1 3.309371 1_555
Au33 Na20 3.348201 1_555
Au34 Ge8 2.587382 1_555
Au34 Ge4 2.709386 1_556
Au34 Au38 3.009356 1_555
Au34 Na9 3.140047 1_555
Au34 Na6 3.169372 1_556
Au34 Na17 3.189769 1_556
Au34 Na13 3.257762 1_556
Au34 Na2 3.303679 1_555
Au34 Na18 3.354637 1_555
Au35 Ge11 2.587381 1_555
Au35 Ge5 2.709407 1_554
Au35 Au37 3.009362 1_555
Au35 Na8 3.140026 1_555
Au35 Na4 3.169371 1_554
Au35 Na15 3.189785 1_554
Au35 Na12 3.257782 1_554
Au35 Na0 3.303659 1_455
Au35 Na19 3.354633 1_555
Au36 Ge10 2.589025 1_555
Au36 Ge7 2.705596 1_555
Au36 Au38 3.015650 1_555
Au36 Na9 3.128488 1_555
Au36 Na7 3.172911 1_565
Au36 Na16 3.181686 1_555
Au36 Na12 3.246534 1_555
Au36 Na3 3.309401 1_665
Au36 Na21 3.348200 1_555
Au37 Au38 2.745326 1_554
Au37 Na12 3.156459 1_554
Au37 Na13 3.156480 1_555
Au37 Na8 3.167736 1_555
Au37 Ge11 3.240419 1_555
Au37 Ge9 3.246474 1_555
Au37 Na15 3.545832 1_554
Au37 Na17 3.545871 1_555
Au37 Na16 3.557829 1_554
Au37 Na14 3.557833 1_555
Au38 Na13 3.156428 1_556
Au38 Na12 3.156522 1_555
Au38 Na9 3.167705 1_555
Au38 Ge8 3.240401 1_555
Au38 Ge10 3.246444 1_555
Au38 Na17 3.545837 1_556
Au38 Na15 3.545872 1_555
Au38 Na14 3.557808 1_556
Au38 Na16 3.557871 1_555
Au39 Ge12 2.550804 1_455
Au39 Na9 3.159886 1_455
Au39 Na8 3.159894 1_555
Au39 Na10 3.279725 1_555
