# generated using pymatgen
data_Sb6O13
_symmetry_space_group_name_H-M   'P 1'
_cell_length_a   7.30056382
_cell_length_b   7.30056382
_cell_length_c   7.30056382
_cell_angle_alpha   120.60391903
_cell_angle_beta   120.46052229
_cell_angle_gamma   89.08065804
_symmetry_Int_Tables_number   1
_chemical_formula_structural   Sb6O13
_chemical_formula_sum   'Sb6 O13'
_cell_volume   272.88829478
_cell_formula_units_Z   1
loop_
 _symmetry_equiv_pos_site_id
 _symmetry_equiv_pos_as_xyz
  1  'x, y, z'
loop_
 _atom_site_type_symbol
 _atom_site_label
 _atom_site_symmetry_multiplicity
 _atom_site_fract_x
 _atom_site_fract_y
 _atom_site_fract_z
 _atom_site_occupancy
  Sb  Sb0  1  0.24699207  0.99965653  0.24733554  1
  Sb  Sb1  1  0.75232099  0.99965653  0.75266446  1
  Sb  Sb2  1  0.74572179  0.99557991  0.24985812  1
  Sb  Sb3  1  0.74572179  0.49586368  0.75014188  1
  Sb  Sb4  1  0.25735529  0.52163927  0.26428398  1
  Sb  Sb5  1  0.25735529  0.99307231  0.73571602  1
  O  O0  1  0.42657613  0.92657613  0.50000000  1
  O  O1  1  0.81328512  0.31328512  0.50000000  1
  O  O2  1  0.41741848  0.93038059  0.09503417  1
  O  O3  1  0.83534641  0.32238431  0.90496583  1
  O  O4  1  0.83534641  0.93038059  0.51296211  1
  O  O5  1  0.41741848  0.32238431  0.48703789  1
  O  O6  1  0.06558325  0.06558325  0.00000000  1
  O  O7  1  0.67956092  0.67956092  0.00000000  1
  O  O8  1  0.07670744  0.05587949  0.40254214  1
  O  O9  1  0.65333836  0.67416630  0.59745786  1
  O  O10  1  0.65333836  0.05587949  0.97917205  1
  O  O11  1  0.07670744  0.67416630  0.02082795  1
  O  O12  1  0.16890598  0.66890598  0.50000000  1
loop_
_geom_bond_atom_site_label_1
_geom_bond_atom_site_label_2
_geom_bond_distance
_geom_bond_site_symmetry_2
O0 Sb0 1.983357 1_555
O0 Sb1 1.983357 1_555
O0 Sb5 2.451305 1_555
O0 Sb4 2.451306 1_555
O1 Sb2 1.941294 1_545
O1 Sb3 1.941294 1_555
O2 Sb0 1.962141 1_555
O2 Sb2 1.997715 1_555
O2 Sb5 2.560010 1_554
O3 Sb1 1.962141 1_545
O3 Sb3 1.997715 1_555
O3 Sb4 2.560005 1_656
O4 Sb1 1.962141 1_555
O4 Sb2 1.997715 1_555
O4 Sb5 2.560004 1_655
O5 Sb0 1.962141 1_545
O5 Sb3 1.997715 1_555
O5 Sb4 2.560004 1_555
O6 Sb0 1.919886 1_545
O6 Sb1 1.919886 1_444
O7 Sb3 1.934137 1_554
O7 Sb2 1.934137 1_555
O8 Sb0 1.983969 1_545
O8 Sb2 2.019605 1_445
O8 Sb5 2.393679 1_545
O9 Sb1 1.983962 1_555
O9 Sb3 2.019611 1_555
O9 Sb4 2.393689 1_555
O10 Sb1 1.983964 1_545
O10 Sb2 2.019606 1_546
O10 Sb5 2.393691 1_545
O11 Sb0 1.983964 1_555
O11 Sb3 2.019606 1_454
O11 Sb4 2.393690 1_555
O12 Sb4 1.937724 1_555
O12 Sb5 1.937730 1_555
