# generated using pymatgen
data_MgCd
_symmetry_space_group_name_H-M   'P 1'
_cell_length_a   6.42915092
_cell_length_b   10.17167884
_cell_length_c   10.43490610
_cell_angle_alpha   90.00000000
_cell_angle_beta   90.00000000
_cell_angle_gamma   90.00000000
_symmetry_Int_Tables_number   1
_chemical_formula_structural   MgCd
_chemical_formula_sum   'Mg16 Cd16'
_cell_volume   682.39338050
_cell_formula_units_Z   16
loop_
 _symmetry_equiv_pos_site_id
 _symmetry_equiv_pos_as_xyz
  1  'x, y, z'
loop_
 _atom_site_type_symbol
 _atom_site_label
 _atom_site_symmetry_multiplicity
 _atom_site_fract_x
 _atom_site_fract_y
 _atom_site_fract_z
 _atom_site_occupancy
  Mg  Mg0_0  1  0.00000000  0.00000000  0.04680081  1
  Mg  Mg0_1  1  0.00000000  0.00000000  0.54680081  1
  Mg  Mg0_2  1  0.00000000  0.50000000  0.04680081  1
  Mg  Mg0_3  1  0.00000000  0.50000000  0.54680081  1
  Mg  Mg0_4  1  0.50000000  0.00000000  0.04680081  1
  Mg  Mg0_5  1  0.50000000  0.00000000  0.54680081  1
  Mg  Mg0_6  1  0.50000000  0.50000000  0.04680081  1
  Mg  Mg0_7  1  0.50000000  0.50000000  0.54680081  1
  Mg  Mg1_0  1  0.25000000  0.25000000  0.45319919  1
  Mg  Mg1_1  1  0.25000000  0.25000000  0.95319919  1
  Mg  Mg1_2  1  0.25000000  0.75000000  0.45319919  1
  Mg  Mg1_3  1  0.25000000  0.75000000  0.95319919  1
  Mg  Mg1_4  1  0.75000000  0.25000000  0.45319919  1
  Mg  Mg1_5  1  0.75000000  0.25000000  0.95319919  1
  Mg  Mg1_6  1  0.75000000  0.75000000  0.45319919  1
  Mg  Mg1_7  1  0.75000000  0.75000000  0.95319919  1
  Cd  Cd0_0  1  0.25000000  0.00000000  0.29974954  1
  Cd  Cd0_1  1  0.25000000  0.00000000  0.79974954  1
  Cd  Cd0_2  1  0.25000000  0.50000000  0.29974954  1
  Cd  Cd0_3  1  0.25000000  0.50000000  0.79974954  1
  Cd  Cd0_4  1  0.75000000  0.00000000  0.29974954  1
  Cd  Cd0_5  1  0.75000000  0.00000000  0.79974954  1
  Cd  Cd0_6  1  0.75000000  0.50000000  0.29974954  1
  Cd  Cd0_7  1  0.75000000  0.50000000  0.79974954  1
  Cd  Cd1_0  1  0.00000000  0.25000000  0.20025046  1
  Cd  Cd1_1  1  0.00000000  0.25000000  0.70025046  1
  Cd  Cd1_2  1  0.00000000  0.75000000  0.20025046  1
  Cd  Cd1_3  1  0.00000000  0.75000000  0.70025046  1
  Cd  Cd1_4  1  0.50000000  0.25000000  0.20025046  1
  Cd  Cd1_5  1  0.50000000  0.25000000  0.70025046  1
  Cd  Cd1_6  1  0.50000000  0.75000000  0.20025046  1
  Cd  Cd1_7  1  0.50000000  0.75000000  0.70025046  1
loop_
_geom_bond_atom_site_label_1
_geom_bond_atom_site_label_2
_geom_bond_distance
_geom_bond_site_symmetry_2
Mg0_0 Mg1_5 3.162879 1_454
Mg0_0 Mg1_7 3.162879 1_444
Mg0_0 Mg1_3 3.162879 1_544
Mg0_0 Mg1_1 3.162879 1_554
Mg0_0 Mg0_4 3.214575 1_555
Mg0_0 Mg0_4 3.214575 1_455
Mg0_1 Mg1_0 3.162879 1_555
Mg0_1 Mg1_6 3.162879 1_445
Mg0_1 Mg1_4 3.162879 1_455
Mg0_1 Mg1_2 3.162879 1_545
Mg0_1 Mg0_5 3.214575 1_455
Mg0_1 Mg0_5 3.214575 1_555
Mg0_2 Mg1_7 3.162879 1_454
Mg0_2 Mg1_5 3.162879 1_454
Mg0_2 Mg1_3 3.162879 1_554
Mg0_2 Mg1_1 3.162879 1_554
Mg0_2 Mg0_6 3.214575 1_455
Mg0_2 Mg0_6 3.214575 1_555
Mg0_3 Mg1_0 3.162879 1_555
Mg0_3 Mg1_4 3.162879 1_455
Mg0_3 Mg1_2 3.162879 1_555
Mg0_3 Mg1_6 3.162879 1_455
Mg0_3 Mg0_7 3.214575 1_555
Mg0_3 Mg0_7 3.214575 1_455
Mg0_4 Mg1_3 3.162879 1_544
Mg0_4 Mg1_1 3.162879 1_554
Mg0_4 Mg1_7 3.162879 1_544
Mg0_4 Mg1_5 3.162879 1_554
Mg0_5 Mg1_0 3.162879 1_555
Mg0_5 Mg1_2 3.162879 1_545
Mg0_5 Mg1_6 3.162879 1_545
Mg0_5 Mg1_4 3.162879 1_555
Mg0_6 Mg1_3 3.162879 1_554
Mg0_6 Mg1_7 3.162879 1_554
Mg0_6 Mg1_1 3.162879 1_554
Mg0_6 Mg1_5 3.162879 1_554
Mg0_7 Mg1_0 3.162879 1_555
Mg0_7 Mg1_2 3.162879 1_555
Mg0_7 Mg1_6 3.162879 1_555
Mg0_7 Mg1_4 3.162879 1_555
Mg1_0 Mg1_4 3.214575 1_455
Mg1_0 Mg1_4 3.214575 1_555
Mg1_1 Mg1_5 3.214575 1_455
Mg1_1 Mg1_5 3.214575 1_555
Mg1_2 Mg1_6 3.214575 1_455
Mg1_2 Mg1_6 3.214575 1_555
Mg1_3 Mg1_7 3.214575 1_455
Mg1_3 Mg1_7 3.214575 1_555
Cd0_0 Mg1_0 3.005060 1_555
Cd0_0 Mg1_2 3.005060 1_545
Cd0_0 Mg0_1 3.037966 1_555
Cd0_0 Mg0_5 3.037966 1_555
Cd0_0 Mg0_0 3.090358 1_555
Cd0_0 Mg0_4 3.090358 1_555
Cd0_0 Cd1_2 3.182421 1_545
Cd0_0 Cd1_4 3.182421 1_555
Cd0_0 Cd1_6 3.182421 1_545
Cd0_0 Cd1_0 3.182421 1_555
Cd0_0 Cd0_4 3.214575 1_455
Cd0_0 Cd0_4 3.214575 1_555
Cd0_1 Mg1_1 3.005060 1_555
Cd0_1 Mg1_3 3.005060 1_545
Cd0_1 Mg0_4 3.037966 1_556
Cd0_1 Mg0_0 3.037966 1_556
Cd0_1 Mg0_5 3.090358 1_555
Cd0_1 Mg0_1 3.090358 1_555
Cd0_1 Cd1_1 3.182421 1_555
Cd0_1 Cd1_3 3.182421 1_545
Cd0_1 Cd1_5 3.182421 1_555
Cd0_1 Cd1_7 3.182421 1_545
Cd0_1 Cd0_5 3.214575 1_455
Cd0_1 Cd0_5 3.214575 1_555
Cd0_2 Mg1_0 3.005060 1_555
Cd0_2 Mg1_2 3.005060 1_555
Cd0_2 Mg0_3 3.037966 1_555
Cd0_2 Mg0_7 3.037966 1_555
Cd0_2 Mg0_2 3.090358 1_555
Cd0_2 Mg0_6 3.090358 1_555
Cd0_2 Cd1_4 3.182421 1_555
Cd0_2 Cd1_6 3.182421 1_555
Cd0_2 Cd1_2 3.182421 1_555
Cd0_2 Cd1_0 3.182421 1_555
Cd0_2 Cd0_6 3.214575 1_455
Cd0_2 Cd0_6 3.214575 1_555
Cd0_3 Mg1_1 3.005060 1_555
Cd0_3 Mg1_3 3.005060 1_555
Cd0_3 Mg0_2 3.037966 1_556
Cd0_3 Mg0_6 3.037966 1_556
Cd0_3 Mg0_3 3.090358 1_555
Cd0_3 Mg0_7 3.090358 1_555
Cd0_3 Cd1_7 3.182421 1_555
Cd0_3 Cd1_1 3.182421 1_555
Cd0_3 Cd1_5 3.182421 1_555
Cd0_3 Cd1_3 3.182421 1_555
Cd0_3 Cd0_7 3.214575 1_455
Cd0_3 Cd0_7 3.214575 1_555
Cd0_4 Mg1_6 3.005060 1_545
Cd0_4 Mg1_4 3.005060 1_555
Cd0_4 Mg0_1 3.037966 1_655
Cd0_4 Mg0_5 3.037966 1_555
Cd0_4 Mg0_0 3.090358 1_655
Cd0_4 Mg0_4 3.090358 1_555
Cd0_4 Cd1_2 3.182421 1_645
Cd0_4 Cd1_0 3.182421 1_655
Cd0_4 Cd1_4 3.182421 1_555
Cd0_4 Cd1_6 3.182421 1_545
Cd0_5 Mg1_7 3.005060 1_545
Cd0_5 Mg1_5 3.005060 1_555
Cd0_5 Mg0_0 3.037966 1_656
Cd0_5 Mg0_4 3.037966 1_556
Cd0_5 Mg0_1 3.090358 1_655
Cd0_5 Mg0_5 3.090358 1_555
Cd0_5 Cd1_3 3.182421 1_645
Cd0_5 Cd1_1 3.182421 1_655
Cd0_5 Cd1_5 3.182421 1_555
Cd0_5 Cd1_7 3.182421 1_545
Cd0_6 Mg1_6 3.005060 1_555
Cd0_6 Mg1_4 3.005060 1_555
Cd0_6 Mg0_3 3.037966 1_655
Cd0_6 Mg0_7 3.037966 1_555
Cd0_6 Mg0_2 3.090358 1_655
Cd0_6 Mg0_6 3.090358 1_555
Cd0_6 Cd1_2 3.182421 1_655
Cd0_6 Cd1_0 3.182421 1_655
Cd0_6 Cd1_4 3.182421 1_555
Cd0_6 Cd1_6 3.182421 1_555
Cd0_7 Mg1_7 3.005060 1_555
Cd0_7 Mg1_5 3.005060 1_555
Cd0_7 Mg0_2 3.037966 1_656
Cd0_7 Mg0_6 3.037966 1_556
Cd0_7 Mg0_3 3.090358 1_655
Cd0_7 Mg0_7 3.090358 1_555
Cd0_7 Cd1_3 3.182421 1_655
Cd0_7 Cd1_1 3.182421 1_655
Cd0_7 Cd1_7 3.182421 1_555
Cd0_7 Cd1_5 3.182421 1_555
Cd1_0 Mg0_0 3.005060 1_555
Cd1_0 Mg0_2 3.005060 1_555
Cd1_0 Mg1_5 3.037966 1_454
Cd1_0 Mg1_1 3.037966 1_554
Cd1_0 Mg1_4 3.090358 1_455
Cd1_0 Mg1_0 3.090358 1_555
Cd1_0 Cd1_4 3.214575 1_455
Cd1_0 Cd1_4 3.214575 1_555
Cd1_1 Mg0_3 3.005060 1_555
Cd1_1 Mg0_1 3.005060 1_555
Cd1_1 Mg1_4 3.037966 1_455
Cd1_1 Mg1_0 3.037966 1_555
Cd1_1 Mg1_5 3.090358 1_455
Cd1_1 Mg1_1 3.090358 1_555
Cd1_1 Cd1_5 3.214575 1_555
Cd1_1 Cd1_5 3.214575 1_455
Cd1_2 Mg0_0 3.005060 1_565
Cd1_2 Mg0_2 3.005060 1_555
Cd1_2 Mg1_7 3.037966 1_454
Cd1_2 Mg1_3 3.037966 1_554
Cd1_2 Mg1_6 3.090358 1_455
Cd1_2 Mg1_2 3.090358 1_555
Cd1_2 Cd1_6 3.214575 1_455
Cd1_2 Cd1_6 3.214575 1_555
Cd1_3 Mg0_3 3.005060 1_555
Cd1_3 Mg0_1 3.005060 1_565
Cd1_3 Mg1_6 3.037966 1_455
Cd1_3 Mg1_2 3.037966 1_555
Cd1_3 Mg1_7 3.090358 1_455
Cd1_3 Mg1_3 3.090358 1_555
Cd1_3 Cd1_7 3.214575 1_455
Cd1_3 Cd1_7 3.214575 1_555
Cd1_4 Mg0_6 3.005060 1_555
Cd1_4 Mg0_4 3.005060 1_555
Cd1_4 Mg1_1 3.037966 1_554
Cd1_4 Mg1_5 3.037966 1_554
Cd1_4 Mg1_0 3.090358 1_555
Cd1_4 Mg1_4 3.090358 1_555
Cd1_5 Mg0_7 3.005060 1_555
Cd1_5 Mg0_5 3.005060 1_555
Cd1_5 Mg1_0 3.037966 1_555
Cd1_5 Mg1_4 3.037966 1_555
Cd1_5 Mg1_1 3.090358 1_555
Cd1_5 Mg1_5 3.090358 1_555
Cd1_6 Mg0_6 3.005060 1_555
Cd1_6 Mg0_4 3.005060 1_565
Cd1_6 Mg1_3 3.037966 1_554
Cd1_6 Mg1_7 3.037966 1_554
Cd1_6 Mg1_2 3.090358 1_555
Cd1_6 Mg1_6 3.090358 1_555
Cd1_7 Mg0_7 3.005060 1_555
Cd1_7 Mg0_5 3.005060 1_565
Cd1_7 Mg1_2 3.037966 1_555
Cd1_7 Mg1_6 3.037966 1_555
Cd1_7 Mg1_3 3.090358 1_555
Cd1_7 Mg1_7 3.090358 1_555
