# generated using pymatgen
data_K3Cd(BO2)5
_symmetry_space_group_name_H-M   'P 1'
_cell_length_a   19.47403500
_cell_length_b   7.79708800
_cell_length_c   8.42597022
_cell_angle_alpha   59.03764637
_cell_angle_beta   90.00000000
_cell_angle_gamma   90.00000000
_symmetry_Int_Tables_number   1
_chemical_formula_structural   K3Cd(BO2)5
_chemical_formula_sum   'K12 Cd4 B20 O40'
_cell_volume   1097.09750599
_cell_formula_units_Z   4
loop_
 _symmetry_equiv_pos_site_id
 _symmetry_equiv_pos_as_xyz
  1  'x, y, z'
loop_
 _atom_site_type_symbol
 _atom_site_label
 _atom_site_symmetry_multiplicity
 _atom_site_fract_x
 _atom_site_fract_y
 _atom_site_fract_z
 _atom_site_occupancy
  K  K0  1  0.57820600  0.13520900  0.35825500  1
  K  K1  1  0.92179400  0.13520900  0.85825500  1
  K  K2  1  0.42179400  0.86479100  0.64174500  1
  K  K3  1  0.07820600  0.86479100  0.14174500  1
  K  K4  1  0.56558300  0.15619900  0.79887800  1
  K  K5  1  0.93441700  0.15619900  0.29887800  1
  K  K6  1  0.43441700  0.84380100  0.20112200  1
  K  K7  1  0.06558300  0.84380100  0.70112200  1
  K  K8  1  0.75254600  0.72552200  0.55467000  1
  K  K9  1  0.74745400  0.72552200  0.05467000  1
  K  K10  1  0.24745400  0.27447800  0.44533000  1
  K  K11  1  0.25254600  0.27447800  0.94533000  1
  Cd  Cd0  1  0.59744100  0.62776300  0.34774700  1
  Cd  Cd1  1  0.90255900  0.62776300  0.84774700  1
  Cd  Cd2  1  0.40255900  0.37223700  0.65225300  1
  Cd  Cd3  1  0.09744100  0.37223700  0.15225300  1
  B  B0  1  0.71700900  0.30953800  0.49900800  1
  B  B1  1  0.78299100  0.30953800  0.99900800  1
  B  B2  1  0.28299100  0.69046200  0.50099200  1
  B  B3  1  0.21700900  0.69046200  0.00099200  1
  B  B4  1  0.56998400  0.64921400  0.68800500  1
  B  B5  1  0.93001600  0.64921400  0.18800500  1
  B  B6  1  0.43001600  0.35078600  0.31199500  1
  B  B7  1  0.06998400  0.35078600  0.81199500  1
  B  B8  1  0.65801300  0.43169100  0.93633400  1
  B  B9  1  0.84198700  0.43169100  0.43633400  1
  B  B10  1  0.34198700  0.56830900  0.06366600  1
  B  B11  1  0.15801300  0.56830900  0.56366600  1
  B  B12  1  0.68955600  0.06289900  0.13379100  1
  B  B13  1  0.81044400  0.06289900  0.63379100  1
  B  B14  1  0.31044400  0.93710100  0.86620900  1
  B  B15  1  0.18955600  0.93710100  0.36620900  1
  B  B16  1  0.57440900  0.66187800  0.97541900  1
  B  B17  1  0.92559100  0.66187800  0.47541900  1
  B  B18  1  0.42559100  0.33812200  0.02458100  1
  B  B19  1  0.07440900  0.33812200  0.52458100  1
  O  O0  1  0.87175600  0.52599500  0.53629500  1
  O  O1  1  0.62824400  0.52599500  0.03629500  1
  O  O2  1  0.12824400  0.47400500  0.46370500  1
  O  O3  1  0.37175600  0.47400500  0.96370500  1
  O  O4  1  0.64844400  0.33898600  0.48450800  1
  O  O5  1  0.85155600  0.33898600  0.98450800  1
  O  O6  1  0.35155600  0.66101400  0.51549200  1
  O  O7  1  0.14844400  0.66101400  0.01549200  1
  O  O8  1  0.54799800  0.73671100  0.07557400  1
  O  O9  1  0.95200200  0.73671100  0.57557400  1
  O  O10  1  0.45200200  0.26328900  0.92442600  1
  O  O11  1  0.04799800  0.26328900  0.42442600  1
  O  O12  1  0.62684600  0.52406100  0.74797600  1
  O  O13  1  0.87315400  0.52406100  0.24797600  1
  O  O14  1  0.37315400  0.47593900  0.25202400  1
  O  O15  1  0.12684600  0.47593900  0.75202400  1
  O  O16  1  0.64169100  0.21526900  0.04083800  1
  O  O17  1  0.85830900  0.21526900  0.54083800  1
  O  O18  1  0.35830900  0.78473100  0.95916200  1
  O  O19  1  0.14169100  0.78473100  0.45916200  1
  O  O20  1  0.53586200  0.70334100  0.52845900  1
  O  O21  1  0.96413800  0.70334100  0.02845900  1
  O  O22  1  0.46413800  0.29665900  0.47154100  1
  O  O23  1  0.03586200  0.29665900  0.97154100  1
  O  O24  1  0.73380000  0.46120600  0.92234500  1
  O  O25  1  0.76620000  0.46120600  0.42234500  1
  O  O26  1  0.26620000  0.53879400  0.07765500  1
  O  O27  1  0.23380000  0.53879400  0.57765500  1
  O  O28  1  0.45234100  0.26769500  0.20507900  1
  O  O29  1  0.04765900  0.26769500  0.70507900  1
  O  O30  1  0.54765900  0.73230500  0.79492100  1
  O  O31  1  0.95234100  0.73230500  0.29492100  1
  O  O32  1  0.67209200  0.87373900  0.25650700  1
  O  O33  1  0.82790800  0.87373900  0.75650700  1
  O  O34  1  0.32790800  0.12626100  0.74349300  1
  O  O35  1  0.17209200  0.12626100  0.24349300  1
  O  O36  1  0.73978400  0.10892300  0.60036600  1
  O  O37  1  0.76021600  0.10892300  0.10036600  1
  O  O38  1  0.26021600  0.89107700  0.39963400  1
  O  O39  1  0.23978400  0.89107700  0.89963400  1
loop_
_geom_bond_atom_site_label_1
_geom_bond_atom_site_label_2
_geom_bond_distance
_geom_bond_site_symmetry_2
K0 O4 2.695603 1_555
K0 O16 2.711724 1_555
K0 O28 2.714577 1_555
K0 O22 2.943925 1_555
K0 O1 3.014609 1_555
K0 O20 3.017704 1_545
K0 O32 3.167425 1_545
K1 O5 2.695603 1_555
K1 O17 2.711724 1_555
K1 O29 2.714577 1_655
K1 O23 2.943925 1_655
K1 O0 3.014609 1_555
K1 O21 3.017704 1_546
K1 O33 3.167425 1_545
K2 O6 2.695603 1_555
K2 O18 2.711724 1_555
K2 O30 2.714577 1_555
K2 O20 2.943925 1_555
K2 O3 3.014609 1_555
K2 O22 3.017704 1_565
K2 O34 3.167425 1_565
K3 O7 2.695603 1_555
K3 O19 2.711724 1_555
K3 O31 2.714577 1_455
K3 O21 2.943925 1_455
K3 O2 3.014609 1_555
K3 O23 3.017704 1_564
K3 O35 3.167425 1_565
K4 O16 2.744359 1_556
K4 O10 2.759996 1_555
K4 O4 2.786949 1_555
K4 O8 2.899054 1_546
K4 O12 2.927176 1_555
K4 O22 3.098610 1_555
K5 O17 2.744359 1_555
K5 O11 2.759996 1_655
K5 O5 2.786949 1_554
K5 O9 2.899054 1_545
K5 O13 2.927176 1_555
K5 O23 3.098610 1_654
K6 O18 2.744359 1_554
K6 O8 2.759996 1_555
K6 O6 2.786949 1_555
K6 O10 2.899054 1_564
K6 O14 2.927176 1_555
K6 O20 3.098610 1_555
K7 O19 2.744359 1_555
K7 O9 2.759996 1_455
K7 O7 2.786949 1_556
K7 O11 2.899054 1_565
K7 O15 2.927176 1_555
K7 O21 3.098610 1_456
K8 O32 2.667318 1_555
K8 O24 2.721902 1_555
K8 O25 2.815225 1_555
K8 O0 2.842793 1_555
K8 O33 2.898964 1_555
K8 O12 2.912037 1_555
K8 O36 3.214178 1_565
K9 O33 2.667318 1_554
K9 O25 2.721902 1_555
K9 O24 2.815225 1_554
K9 O1 2.842793 1_555
K9 O32 2.898964 1_555
K9 O13 2.912037 1_555
K9 O37 3.214178 1_565
K10 O34 2.667318 1_555
K10 O26 2.721902 1_555
K10 O27 2.815225 1_555
K10 O2 2.842793 1_555
K10 O35 2.898964 1_555
K10 O14 2.912037 1_555
K10 O38 3.214178 1_545
K11 O35 2.667318 1_556
K11 O27 2.721902 1_555
K11 O26 2.815225 1_556
K11 O3 2.842793 1_555
K11 O34 2.898964 1_555
K11 O15 2.912037 1_555
K11 O39 3.214178 1_545
Cd0 O4 2.171278 1_555
Cd0 O32 2.205817 1_555
Cd0 O8 2.214385 1_555
Cd0 O20 2.242126 1_555
Cd1 O5 2.171278 1_555
Cd1 O33 2.205817 1_555
Cd1 O9 2.214385 1_555
Cd1 O21 2.242126 1_556
Cd2 O6 2.171278 1_555
Cd2 O34 2.205817 1_555
Cd2 O10 2.214385 1_555
Cd2 O22 2.242126 1_555
Cd3 O7 2.171278 1_555
Cd3 O35 2.205817 1_555
Cd3 O11 2.214385 1_555
Cd3 O23 2.242126 1_554
B0 O4 1.349682 1_555
B0 O25 1.395489 1_555
B0 O36 1.413606 1_555
B1 O5 1.349682 1_555
B1 O24 1.395489 1_555
B1 O37 1.413606 1_556
B2 O6 1.349682 1_555
B2 O27 1.395489 1_555
B2 O38 1.413606 1_555
B3 O7 1.349682 1_555
B3 O26 1.395489 1_555
B3 O39 1.413606 1_554
B4 O20 1.357612 1_555
B4 O12 1.387946 1_555
B4 O30 1.421569 1_555
B5 O21 1.357612 1_555
B5 O13 1.387946 1_555
B5 O31 1.421569 1_555
B6 O22 1.357612 1_555
B6 O14 1.387946 1_555
B6 O28 1.421569 1_555
B7 O23 1.357612 1_555
B7 O15 1.387946 1_555
B7 O29 1.421569 1_555
B8 O16 1.481559 1_556
B8 O24 1.489013 1_555
B8 O1 1.491107 1_556
B8 O12 1.493263 1_555
B9 O17 1.481559 1_555
B9 O25 1.489013 1_555
B9 O0 1.491107 1_555
B9 O13 1.493263 1_555
B10 O18 1.481559 1_554
B10 O26 1.489013 1_555
B10 O3 1.491107 1_554
B10 O14 1.493263 1_555
B11 O19 1.481559 1_555
B11 O27 1.489013 1_555
B11 O2 1.491107 1_555
B11 O15 1.493263 1_555
B12 O32 1.338264 1_545
B12 O16 1.391509 1_555
B12 O37 1.413356 1_555
B13 O33 1.338264 1_545
B13 O17 1.391509 1_555
B13 O36 1.413356 1_555
B14 O34 1.338264 1_565
B14 O18 1.391509 1_555
B14 O39 1.413356 1_555
B15 O35 1.338264 1_565
B15 O19 1.391509 1_555
B15 O38 1.413356 1_555
B16 O8 1.350485 1_556
B16 O1 1.387643 1_556
B16 O30 1.423597 1_555
B17 O9 1.350485 1_555
B17 O0 1.387643 1_555
B17 O31 1.423597 1_555
B18 O10 1.350485 1_554
B18 O3 1.387643 1_554
B18 O28 1.423597 1_555
B19 O11 1.350485 1_555
B19 O2 1.387643 1_555
B19 O29 1.423597 1_555
