# generated using pymatgen
data_Sr6Mg(Te4O11)2
_symmetry_space_group_name_H-M   'P 1'
_cell_length_a   7.73768260
_cell_length_b   9.91462612
_cell_length_c   9.71502442
_cell_angle_alpha   103.68713795
_cell_angle_beta   106.59575191
_cell_angle_gamma   99.39313290
_symmetry_Int_Tables_number   1
_chemical_formula_structural   Sr6Mg(Te4O11)2
_chemical_formula_sum   'Sr6 Mg1 Te8 O22'
_cell_volume   672.31554024
_cell_formula_units_Z   1
loop_
 _symmetry_equiv_pos_site_id
 _symmetry_equiv_pos_as_xyz
  1  'x, y, z'
loop_
 _atom_site_type_symbol
 _atom_site_label
 _atom_site_symmetry_multiplicity
 _atom_site_fract_x
 _atom_site_fract_y
 _atom_site_fract_z
 _atom_site_occupancy
  Sr  Sr0  1  0.30323017  0.05271545  0.15958911  1
  Sr  Sr1  1  0.71417730  0.94056342  0.89583748  1
  Sr  Sr2  1  0.86398673  0.06141434  0.33072669  1
  Sr  Sr3  1  0.13703956  0.92053204  0.69228355  1
  Sr  Sr4  1  0.25740235  0.54148805  0.55489917  1
  Sr  Sr5  1  0.68438544  0.45565383  0.39674419  1
  Mg  Mg0  1  0.57725282  0.51698518  0.84890304  1
  Te  Te0  1  0.04078848  0.33105585  0.17663109  1
  Te  Te1  1  0.92584616  0.61996501  0.80649789  1
  Te  Te2  1  0.06114041  0.26606337  0.79133856  1
  Te  Te3  1  0.96207562  0.73485924  0.20118094  1
  Te  Te4  1  0.39667193  0.74281679  0.01198731  1
  Te  Te5  1  0.55938594  0.27461686  0.98082280  1
  Te  Te6  1  0.50801417  0.80754754  0.45472342  1
  Te  Te7  1  0.52029731  0.19960272  0.57619632  1
  O  O0  1  0.96927067  0.52416495  0.62434119  1
  O  O1  1  0.97393829  0.46102864  0.31710420  1
  O  O2  1  0.45203793  0.60446397  0.38734823  1
  O  O3  1  0.51289636  0.39679371  0.62394377  1
  O  O4  1  0.81340203  0.18523530  0.10618660  1
  O  O5  1  0.25010574  0.85866131  0.93236159  1
  O  O6  1  0.74217143  0.20626721  0.73057048  1
  O  O7  1  0.34512689  0.85652218  0.29873364  1
  O  O8  1  0.37214830  0.81508836  0.58951374  1
  O  O9  1  0.61330745  0.19396281  0.41528214  1
  O  O10  1  0.05311328  0.14232902  0.60959671  1
  O  O11  1  0.91516127  0.82125702  0.37951150  1
  O  O12  1  0.47776002  0.28345700  0.14564888  1
  O  O13  1  0.45679127  0.67546763  0.83009366  1
  O  O14  1  0.59490617  0.90949783  0.11401998  1
  O  O15  1  0.45715296  0.08558082  0.85842162  1
  O  O16  1  0.97196780  0.90007103  0.13006773  1
  O  O17  1  0.06493781  0.13037264  0.89853861  1
  O  O18  1  0.16858811  0.24244733  0.31154250  1
  O  O19  1  0.86361190  0.78273958  0.74330283  1
  O  O20  1  0.71875120  0.61621123  0.07145443  1
  O  O21  1  0.35949171  0.35678673  0.86516641  1
loop_
_geom_bond_atom_site_label_1
_geom_bond_atom_site_label_2
_geom_bond_distance
_geom_bond_site_symmetry_2
Mg0 O13 1.971752 1_555
Mg0 O20 2.032437 1_556
Mg0 O3 2.096784 1_555
Mg0 O21 2.187251 1_555
O0 Te1 1.948110 1_555
O0 Sr5 2.495158 1_555
O0 Sr4 2.498838 1_655
O1 Te0 1.891857 1_655
O1 Sr4 2.538974 1_655
O1 Sr5 2.567471 1_555
O2 Te6 1.897339 1_555
O2 Sr5 2.500627 1_555
O2 Sr4 2.623352 1_555
O3 Te7 1.913978 1_555
O3 Sr4 2.653277 1_555
O3 Sr5 3.000522 1_555
O4 Te0 1.915160 1_655
O4 Te5 2.417374 1_554
O4 Sr1 2.607685 1_544
O4 Sr2 2.712066 1_555
O5 Te4 1.883674 1_556
O5 Sr0 2.440766 1_566
O5 Sr3 2.503648 1_555
O6 Te7 1.909521 1_555
O6 Te2 2.305613 1_655
O7 Te6 1.891508 1_555
O7 Sr0 2.629840 1_565
O8 Te6 1.895066 1_555
O8 Sr3 2.561955 1_555
O8 Sr4 2.621340 1_555
O8 Sr1 3.175251 1_555
O9 Te7 1.891924 1_555
O9 Sr5 2.622714 1_555
O9 Sr2 2.719474 1_555
O9 Sr0 2.782215 1_555
O10 Te2 1.874490 1_555
O10 Sr2 2.539392 1_455
O10 Sr3 2.628095 1_545
O11 Te3 1.904072 1_555
O11 Sr2 2.604902 1_565
O11 Sr3 2.863978 1_655
O12 Te5 1.870856 1_554
O12 Sr0 2.513636 1_555
O12 Sr5 2.516312 1_555
O13 Te4 1.948712 1_556
O13 Sr4 2.566457 1_555
O13 Sr1 2.837730 1_555
O14 Te4 1.896099 1_555
O14 Sr2 2.451063 1_565
O14 Sr1 2.602519 1_554
O14 Sr0 2.936858 1_565
O15 Te5 1.864539 1_555
O15 Sr3 2.561529 1_545
O15 Sr1 2.631034 1_545
O16 Te3 1.921215 1_555
O16 Sr2 2.635931 1_565
O16 Sr0 2.655394 1_665
O16 Sr1 2.723787 1_554
O17 Te2 1.885166 1_555
O17 Sr3 2.774780 1_545
O17 Sr0 3.023354 1_556
O17 Sr1 3.029379 1_445
O18 Te0 1.885639 1_555
O18 Sr0 2.647135 1_555
O18 Sr2 2.799948 1_455
O18 Sr4 3.153074 1_555
O19 Te1 1.940877 1_555
O19 Sr1 2.540365 1_555
O19 Sr3 2.562080 1_655
O20 Te3 1.933123 1_555
O21 Te5 2.042129 1_555
O21 Te2 2.173465 1_555
