# generated using pymatgen
data_CsMnBi
_symmetry_space_group_name_H-M   'P 1'
_cell_length_a   4.96172600
_cell_length_b   4.96172600
_cell_length_c   9.17174000
_cell_angle_alpha   90.00000000
_cell_angle_beta   90.00000000
_cell_angle_gamma   90.00000000
_symmetry_Int_Tables_number   1
_chemical_formula_structural   CsMnBi
_chemical_formula_sum   'Cs2 Mn2 Bi2'
_cell_volume   225.79654391
_cell_formula_units_Z   2
loop_
 _symmetry_equiv_pos_site_id
 _symmetry_equiv_pos_as_xyz
  1  'x, y, z'
loop_
 _atom_site_type_symbol
 _atom_site_label
 _atom_site_symmetry_multiplicity
 _atom_site_fract_x
 _atom_site_fract_y
 _atom_site_fract_z
 _atom_site_occupancy
  Cs  Cs0  1  0.00000000  0.50000000  0.35270900  1
  Cs  Cs1  1  0.50000000  0.00000000  0.64729100  1
  Mn  Mn0  1  0.00000000  0.00000000  0.00000000  1
  Mn  Mn1  1  0.50000000  0.50000000  0.00000000  1
  Bi  Bi0  1  0.00000000  0.50000000  0.82698600  1
  Bi  Bi1  1  0.50000000  0.00000000  0.17301400  1
loop_
_geom_bond_atom_site_label_1
_geom_bond_atom_site_label_2
_geom_bond_distance
_geom_bond_site_symmetry_2
Cs0 Mn0 4.076716 1_565
Cs0 Mn1 4.076716 1_455
Cs0 Mn0 4.076716 1_555
Cs0 Mn1 4.076716 1_555
Cs0 Cs1 4.428233 1_465
Cs0 Cs1 4.428233 1_455
Cs0 Cs1 4.428233 1_565
Cs0 Cs1 4.428233 1_555
Cs1 Mn1 4.076716 1_546
Cs1 Mn0 4.076716 1_656
Cs1 Mn0 4.076716 1_556
Cs1 Mn1 4.076716 1_556
Bi0 Mn0 2.944952 1_556
Bi0 Mn1 2.944952 1_556
Bi0 Mn0 2.944952 1_566
Bi0 Mn1 2.944952 1_456
Bi0 Cs1 3.876293 1_555
Bi0 Cs1 3.876293 1_565
Bi0 Cs1 3.876293 1_465
Bi0 Cs1 3.876293 1_455
Bi0 Cs0 4.349945 1_555
Bi1 Mn0 2.944952 1_555
Bi1 Mn0 2.944952 1_655
Bi1 Mn1 2.944952 1_555
Bi1 Mn1 2.944952 1_545
Bi1 Cs0 3.876293 1_645
Bi1 Cs0 3.876293 1_555
Bi1 Cs0 3.876293 1_655
Bi1 Cs0 3.876293 1_545
Bi1 Cs1 4.349945 1_555
