# generated using pymatgen
data_MgAl(Bi3O5)4
_symmetry_space_group_name_H-M   'P 1'
_cell_length_a   8.68972287
_cell_length_b   9.10160916
_cell_length_c   8.78700335
_cell_angle_alpha   108.12606634
_cell_angle_beta   110.50659794
_cell_angle_gamma   107.46661583
_symmetry_Int_Tables_number   1
_chemical_formula_structural   MgAl(Bi3O5)4
_chemical_formula_sum   'Mg1 Al1 Bi12 O20'
_cell_volume   549.41004292
_cell_formula_units_Z   1
loop_
 _symmetry_equiv_pos_site_id
 _symmetry_equiv_pos_as_xyz
  1  'x, y, z'
loop_
 _atom_site_type_symbol
 _atom_site_label
 _atom_site_symmetry_multiplicity
 _atom_site_fract_x
 _atom_site_fract_y
 _atom_site_fract_z
 _atom_site_occupancy
  Mg  Mg0  1  0.15666555  0.11224812  0.33140378  1
  Al  Al0  1  0.99136114  0.99053916  0.96886343  1
  Bi  Bi0  1  0.81622302  0.63696512  0.50277762  1
  Bi  Bi1  1  0.24497434  0.76938287  0.88718455  1
  Bi  Bi2  1  0.78184153  0.27160885  0.08144756  1
  Bi  Bi3  1  0.63239461  0.48357218  0.79380737  1
  Bi  Bi4  1  0.14398572  0.41880634  0.54514259  1
  Bi  Bi5  1  0.68900275  0.85015230  0.21855518  1
  Bi  Bi6  1  0.25170522  0.09031246  0.74020006  1
  Bi  Bi7  1  0.29531810  0.44780980  0.15955439  1
  Bi  Bi8  1  0.52810396  0.81181580  0.65705100  1
  Bi  Bi9  1  0.11416092  0.75482503  0.30385934  1
  Bi  Bi10  1  0.50403094  0.15814253  0.30259928  1
  Bi  Bi11  1  0.85497893  0.21116124  0.70920778  1
  O  O0  1  0.17801762  0.19954445  0.15411999  1
  O  O1  1  0.79150756  0.01702883  0.94404095  1
  O  O2  1  0.04939946  0.88252634  0.10011936  1
  O  O3  1  0.02315129  0.94961876  0.77673458  1
  O  O4  1  0.66130990  0.76093168  0.40715916  1
  O  O5  1  0.40227817  0.78026752  0.14301975  1
  O  O6  1  0.59915608  0.22053291  0.81864014  1
  O  O7  1  0.75418909  0.38280409  0.63653325  1
  O  O8  1  0.35456718  0.31763945  0.57109368  1
  O  O9  1  0.75260990  0.11876366  0.37413161  1
  O  O10  1  0.24029502  0.83794857  0.62224964  1
  O  O11  1  0.27711192  0.56547128  0.39752792  1
  O  O12  1  0.42203256  0.67437513  0.79362721  1
  O  O13  1  0.84908728  0.58111924  0.22409205  1
  O  O14  1  0.57447170  0.38887510  0.28076434  1
  O  O15  1  0.12805926  0.33998848  0.75612731  1
  O  O16  1  0.68059997  0.66138196  0.67490210  1
  O  O17  1  0.44051037  0.03990885  0.01542022  1
  O  O18  1  0.99347875  0.39273036  0.01194167  1
  O  O19  1  0.05913420  0.97405854  0.43895811  1
loop_
_geom_bond_atom_site_label_1
_geom_bond_atom_site_label_2
_geom_bond_distance
_geom_bond_site_symmetry_2
Mg0 O19 1.963236 1_545
Mg0 O8 1.992633 1_555
Mg0 O0 1.994137 1_555
Mg0 O2 2.056597 1_545
Al0 O3 1.749987 1_655
Al0 O1 1.772120 1_565
Al0 O2 1.773872 1_656
Al0 O0 1.808459 1_666
Bi0 O4 2.121391 1_555
Bi0 O14 2.204040 1_555
Bi0 O16 2.218734 1_555
Bi0 O13 2.477746 1_555
Bi0 O3 2.599848 1_655
Bi1 O5 2.135204 1_556
Bi1 O17 2.154096 1_566
Bi1 O12 2.243517 1_555
Bi1 O10 2.581371 1_555
Bi2 O6 2.095131 1_554
Bi2 O18 2.226953 1_555
Bi2 O1 2.298020 1_554
Bi2 O13 2.479900 1_555
Bi2 O17 2.803493 1_555
Bi3 O8 2.145052 1_555
Bi3 O7 2.165627 1_555
Bi3 O16 2.199542 1_555
Bi3 O6 2.411797 1_555
Bi4 O15 2.217767 1_555
Bi4 O8 2.257899 1_555
Bi4 O12 2.405353 1_555
Bi4 O11 2.450362 1_555
Bi5 O4 2.112662 1_555
Bi5 O5 2.163398 1_555
Bi5 O9 2.175137 1_565
Bi5 O19 2.732535 1_655
Bi6 O10 2.160992 1_545
Bi6 O3 2.205245 1_545
Bi6 O19 2.239966 1_545
Bi6 O6 2.623205 1_555
Bi6 O17 2.667008 1_556
Bi6 O15 2.776915 1_555
Bi7 O11 2.117686 1_555
Bi7 O0 2.159456 1_555
Bi7 O18 2.288185 1_455
Bi7 O14 2.575435 1_555
Bi8 O16 2.175425 1_555
Bi8 O12 2.207169 1_555
Bi8 O11 2.320075 1_555
Bi8 O1 2.354958 1_565
Bi8 O10 2.504295 1_555
Bi8 O4 2.801022 1_555
Bi9 O13 2.071179 1_455
Bi9 O19 2.261859 1_555
Bi9 O10 2.374363 1_555
Bi9 O2 2.419533 1_555
Bi9 O11 2.680240 1_555
Bi10 O14 2.093556 1_555
Bi10 O17 2.192797 1_555
Bi10 O9 2.200716 1_555
Bi10 O7 2.577975 1_555
Bi11 O15 2.125883 1_655
Bi11 O7 2.160018 1_555
Bi11 O18 2.254639 1_556
Bi11 O9 2.518482 1_555
Bi11 O6 2.726583 1_555
