# generated using pymatgen
data_Sm4Fe34C3
_symmetry_space_group_name_H-M   'P 1'
_cell_length_a   6.49543320
_cell_length_b   6.48024869
_cell_length_c   12.99644770
_cell_angle_alpha   83.61427879
_cell_angle_beta   83.82558406
_cell_angle_gamma   83.81974698
_symmetry_Int_Tables_number   1
_chemical_formula_structural   Sm4Fe34C3
_chemical_formula_sum   'Sm4 Fe34 C3'
_cell_volume   537.95795071
_cell_formula_units_Z   1
loop_
 _symmetry_equiv_pos_site_id
 _symmetry_equiv_pos_as_xyz
  1  'x, y, z'
loop_
 _atom_site_type_symbol
 _atom_site_label
 _atom_site_symmetry_multiplicity
 _atom_site_fract_x
 _atom_site_fract_y
 _atom_site_fract_z
 _atom_site_occupancy
  Sm  Sm0  1  0.66584100  0.65049500  0.32635400  1
  Sm  Sm1  1  0.66225900  0.66191900  0.82388400  1
  Sm  Sm2  1  0.33415900  0.34950500  0.17364600  1
  Sm  Sm3  1  0.33774100  0.33808100  0.67611600  1
  Fe  Fe0  1  0.34081200  0.34424600  0.42861200  1
  Fe  Fe1  1  0.34263800  0.34204200  0.92580300  1
  Fe  Fe2  1  0.34147800  0.85475200  0.17136000  1
  Fe  Fe3  1  0.34176000  0.84991600  0.67182200  1
  Fe  Fe4  1  0.85313500  0.34229600  0.17100000  1
  Fe  Fe5  1  0.84910800  0.34214200  0.67203600  1
  Fe  Fe6  1  0.65918800  0.65575400  0.07138800  1
  Fe  Fe7  1  0.65736200  0.65795800  0.57419700  1
  Fe  Fe8  1  0.65852200  0.14524800  0.32864000  1
  Fe  Fe9  1  0.65824000  0.15008400  0.82817800  1
  Fe  Fe10  1  0.14686500  0.65770400  0.32900000  1
  Fe  Fe11  1  0.15089200  0.65785800  0.82796400  1
  Fe  Fe12  1  0.90311300  0.90409600  0.45245900  1
  Fe  Fe13  1  0.90585400  0.90534100  0.95063100  1
  Fe  Fe14  1  0.09688700  0.09590400  0.04754100  1
  Fe  Fe15  1  0.09414600  0.09465900  0.54936900  1
  Fe  Fe16  1  0.00000000  0.00000000  0.25000000  1
  Fe  Fe17  1  0.00000000  0.00000000  0.75000000  1
  Fe  Fe18  1  0.00098800  0.50054400  0.99930000  1
  Fe  Fe19  1  0.99901200  0.49945600  0.50070000  1
  Fe  Fe20  1  0.50116800  0.99826300  0.99877200  1
  Fe  Fe21  1  0.49883200  0.00173700  0.50122800  1
  Fe  Fe22  1  0.28523300  0.71643500  0.99934100  1
  Fe  Fe23  1  0.28525100  0.71575600  0.50029300  1
  Fe  Fe24  1  0.71379000  0.00064400  0.14196000  1
  Fe  Fe25  1  0.71258700  0.00051600  0.64420400  1
  Fe  Fe26  1  0.00171600  0.28504200  0.35779000  1
  Fe  Fe27  1  0.99854700  0.28760300  0.85623800  1
  Fe  Fe28  1  0.28621000  0.99935600  0.35804000  1
  Fe  Fe29  1  0.28741300  0.99948400  0.85579600  1
  Fe  Fe30  1  0.99828400  0.71495800  0.14221000  1
  Fe  Fe31  1  0.00145300  0.71239700  0.64376200  1
  Fe  Fe32  1  0.71476700  0.28356500  0.50065900  1
  Fe  Fe33  1  0.71474900  0.28424400  0.99970700  1
  C  C0  1  0.49918500  0.49974000  0.99857000  1
  C  C1  1  0.50081500  0.50026000  0.50143000  1
  C  C2  1  0.50000000  0.00000000  0.25000000  1
loop_
_geom_bond_atom_site_label_1
_geom_bond_atom_site_label_2
_geom_bond_distance
_geom_bond_site_symmetry_2
Fe0 Fe19 2.469775 1_455
Fe0 Fe21 2.474360 1_555
Fe0 Fe26 2.557798 1_555
Fe0 Fe10 2.569830 1_555
Fe0 Fe15 2.664295 1_555
Fe1 Fe18 2.482656 1_555
Fe1 Fe20 2.483713 1_545
Fe1 Fe11 2.563100 1_555
Fe1 Fe29 2.564215 1_545
Fe1 Fe9 2.569452 1_555
Fe1 Fe27 2.571487 1_455
Fe1 Fe14 2.653111 1_556
Fe2 Fe20 2.493025 1_554
Fe2 Fe30 2.574160 1_455
Fe3 Fe31 2.546180 1_555
Fe3 Fe7 2.569452 1_555
Fe3 Sm1 3.086581 1_555
Fe3 Sm3 3.167375 1_565
Fe3 Sm3 3.313945 1_555
Fe4 Fe6 2.569830 1_555
Fe4 Fe8 2.575732 1_555
Fe4 Sm0 3.064453 1_555
Fe4 Sm2 3.133769 1_655
Fe4 Sm2 3.362788 1_555
Fe5 Fe9 2.536390 1_555
Fe5 Fe7 2.563100 1_555
Fe5 Sm1 3.084595 1_555
Fe5 Sm3 3.177254 1_655
Fe5 Sm3 3.319160 1_555
Fe9 Sm3 3.086581 1_555
Fe9 Sm1 3.167375 1_545
Fe9 Sm1 3.313945 1_555
Fe10 Fe16 2.476471 1_565
Fe10 Fe19 2.489077 1_455
Fe10 Fe28 2.560124 1_555
Fe10 Fe23 2.568077 1_555
Fe10 Fe2 2.575732 1_555
Fe10 Fe26 2.659733 1_555
Fe10 Fe12 2.666414 1_455
Fe10 Fe30 2.681207 1_455
Fe10 Sm2 3.064453 1_555
Fe10 Sm0 3.133769 1_455
Fe10 Sm0 3.362788 1_555
Fe11 Fe17 2.479744 1_565
Fe11 Fe18 2.487599 1_555
Fe11 Fe3 2.536390 1_555
Fe11 Fe29 2.547157 1_555
Fe11 Fe22 2.558089 1_555
Fe11 Fe31 2.652547 1_555
Fe11 Fe27 2.666075 1_455
Fe11 Fe13 2.668367 1_455
Fe11 Sm3 3.084595 1_555
Fe11 Sm1 3.177254 1_455
Fe11 Sm1 3.319160 1_555
Fe12 Fe15 2.379714 1_665
Fe12 Fe8 2.647961 1_565
Fe12 Fe19 2.650186 1_555
Fe12 Fe7 2.653111 1_555
Fe12 Fe16 2.658948 1_665
Fe12 Fe21 2.659188 1_565
Fe12 Fe32 2.732416 1_565
Fe12 Fe26 2.741056 1_665
Fe12 Fe23 2.747367 1_655
Fe12 Fe28 2.753962 1_655
Fe12 Fe31 2.759791 1_655
Fe12 Fe25 2.765590 1_565
Fe12 Sm0 3.074063 1_555
Fe13 Fe14 2.379714 1_666
Fe13 Fe17 2.632720 1_665
Fe13 Fe18 2.651229 1_655
Fe13 Fe20 2.655723 1_555
Fe13 Fe9 2.659859 1_565
Fe13 Fe6 2.664295 1_556
Fe13 Fe22 2.735951 1_655
Fe13 Fe27 2.736791 1_565
Fe13 Fe33 2.738316 1_565
Fe13 Fe29 2.744979 1_655
Fe13 Fe30 2.749663 1_556
Fe13 Fe24 2.762127 1_566
Fe13 Sm1 3.062902 1_555
Fe14 Fe2 2.647961 1_545
Fe14 Fe18 2.650186 1_554
Fe14 Fe16 2.658948 1_555
Fe14 Fe20 2.659188 1_544
Fe14 Fe4 2.666414 1_455
Fe14 Fe22 2.732416 1_544
Fe14 Fe30 2.741056 1_445
Fe14 Fe33 2.747367 1_454
Fe14 Fe24 2.753962 1_455
Fe14 Fe27 2.759791 1_454
Fe14 Fe29 2.765590 1_544
Fe14 Sm2 3.074063 1_555
Fe15 Fe17 2.632720 1_555
Fe15 Fe19 2.651229 1_455
Fe15 Fe21 2.655723 1_555
Fe15 Fe3 2.659859 1_545
Fe15 Fe5 2.668367 1_455
Fe15 Fe32 2.735951 1_455
Fe15 Fe31 2.736791 1_545
Fe15 Fe23 2.738316 1_545
Fe15 Fe25 2.744979 1_455
Fe15 Fe26 2.749663 1_555
Fe15 Fe28 2.762127 1_545
Fe15 Sm3 3.062902 1_555
Fe16 Fe30 2.440889 1_445
Fe16 Fe26 2.440889 1_555
Fe16 Fe24 2.446683 1_455
Fe16 Fe28 2.446683 1_545
Fe16 Fe2 2.475292 1_545
Fe16 Fe8 2.475292 1_455
Fe16 Fe4 2.476471 1_455
Fe16 Sm0 3.304649 1_445
Fe16 Sm2 3.304649 1_555
Fe17 Fe25 2.434250 1_455
Fe17 Fe29 2.434250 1_545
Fe17 Fe27 2.438403 1_455
Fe17 Fe31 2.438403 1_545
Fe17 Fe5 2.479744 1_455
Fe17 Fe9 2.485132 1_455
Fe17 Fe3 2.485132 1_545
Fe17 Sm1 3.263167 1_445
Fe17 Sm3 3.263167 1_555
Fe18 Fe22 2.433643 1_555
Fe18 Fe30 2.437688 1_456
Fe18 Fe27 2.437859 1_455
Fe18 Fe33 2.445175 1_455
Fe18 Fe6 2.469775 1_456
Fe18 Fe4 2.489077 1_456
Fe18 Sm2 3.298621 1_556
Fe18 Sm1 3.344416 1_455
Fe19 Fe32 2.433643 1_555
Fe19 Fe26 2.437688 1_655
Fe19 Fe31 2.437859 1_655
Fe19 Fe23 2.445175 1_655
Fe19 Fe7 2.482656 1_555
Fe19 Fe5 2.487599 1_555
Fe19 Sm0 3.298621 1_555
Fe19 Sm3 3.344416 1_655
Fe20 Fe22 2.418481 1_555
Fe20 Fe33 2.433395 1_565
Fe20 Fe29 2.435155 1_555
Fe20 Fe24 2.436084 1_566
Fe20 Fe6 2.474360 1_556
Fe20 Fe9 2.483703 1_565
Fe20 Sm1 3.333318 1_555
Fe20 Sm2 3.407587 1_566
Fe21 Fe32 2.418481 1_555
Fe21 Fe23 2.433395 1_545
Fe21 Fe25 2.435155 1_555
Fe21 Fe28 2.436084 1_545
Fe21 Fe3 2.483703 1_545
Fe21 Fe7 2.483713 1_545
Fe21 Fe8 2.493025 1_555
Fe21 Sm3 3.333318 1_555
Fe21 Sm0 3.407587 1_545
Fe22 Fe29 2.466516 1_555
Fe22 Fe30 2.485389 1_456
Fe23 Fe31 2.476992 1_555
Fe23 Fe3 2.556568 1_555
Fe24 Fe30 2.470933 1_545
Fe24 Fe4 2.560124 1_555
Fe25 Fe32 2.466516 1_555
Fe25 Fe31 2.500469 1_645
Fe25 Fe5 2.547157 1_555
Fe25 Fe7 2.564215 1_545
Fe25 Fe9 2.653531 1_555
Fe25 Fe3 2.669317 1_545
Fe25 Sm1 3.037264 1_545
Fe25 Sm3 3.118202 1_555
Fe26 Fe28 2.470933 1_545
Fe26 Fe32 2.485389 1_455
Fe26 Fe8 2.574160 1_455
Fe26 Fe4 2.681207 1_455
Fe26 Sm0 3.065793 1_455
Fe26 Sm2 3.070020 1_555
Fe27 Fe33 2.476992 1_555
Fe27 Fe29 2.500469 1_645
Fe27 Fe9 2.546180 1_555
Fe27 Fe5 2.652547 1_555
Fe27 Sm3 3.052304 1_655
Fe27 Sm1 3.108348 1_555
Fe29 Fe3 2.653531 1_555
Fe29 Fe9 2.669317 1_565
Fe29 Sm3 3.037264 1_565
Fe29 Sm1 3.118202 1_555
Fe30 Fe6 2.557798 1_555
Fe30 Fe4 2.659733 1_555
Fe30 Sm2 3.065793 1_655
Fe30 Sm0 3.070020 1_555
Fe31 Fe7 2.571487 1_455
Fe31 Fe5 2.666075 1_455
Fe31 Sm1 3.052304 1_455
Fe31 Sm3 3.108348 1_555
Fe32 Fe5 2.558089 1_555
Fe33 Fe9 2.556568 1_555
Fe33 Fe4 2.568077 1_556
C0 Fe22 1.866342 1_555
C0 Fe33 1.868075 1_555
C0 Fe1 1.902167 1_555
C0 Fe6 1.910113 1_556
C0 Sm2 2.545859 1_556
C0 Sm1 2.563669 1_555
C1 Fe32 1.866342 1_555
C1 Fe23 1.868075 1_555
C1 Fe7 1.902167 1_555
C1 Fe0 1.910113 1_555
C1 Sm0 2.545859 1_555
C1 Sm3 2.563669 1_555
C2 Fe28 1.865609 1_545
C2 Fe24 1.865609 1_555
C2 Fe2 1.907816 1_545
C2 Fe8 1.907816 1_555
C2 Sm0 2.545480 1_545
C2 Sm2 2.545480 1_555
