# generated using pymatgen
data_ScSiRu
_symmetry_space_group_name_H-M   'P 1'
_cell_length_a   4.15907812
_cell_length_b   6.66004450
_cell_length_c   6.93508041
_cell_angle_alpha   90.00000000
_cell_angle_beta   90.00000000
_cell_angle_gamma   90.00000000
_symmetry_Int_Tables_number   1
_chemical_formula_structural   ScSiRu
_chemical_formula_sum   'Sc4 Si4 Ru4'
_cell_volume   192.09926789
_cell_formula_units_Z   4
loop_
 _symmetry_equiv_pos_site_id
 _symmetry_equiv_pos_as_xyz
  1  'x, y, z'
loop_
 _atom_site_type_symbol
 _atom_site_label
 _atom_site_symmetry_multiplicity
 _atom_site_fract_x
 _atom_site_fract_y
 _atom_site_fract_z
 _atom_site_occupancy
  Sc  Sc0  1  0.25000000  0.99244771  0.31285879  1
  Sc  Sc1  1  0.25000000  0.49244771  0.18714121  1
  Sc  Sc2  1  0.75000000  0.00755229  0.68714121  1
  Sc  Sc3  1  0.75000000  0.50755229  0.81285879  1
  Si  Si0  1  0.25000000  0.29665862  0.61117741  1
  Si  Si1  1  0.25000000  0.79665862  0.88882259  1
  Si  Si2  1  0.75000000  0.70334138  0.38882259  1
  Si  Si3  1  0.75000000  0.20334138  0.11117741  1
  Ru  Ru0  1  0.25000000  0.15688202  0.93837274  1
  Ru  Ru1  1  0.25000000  0.65688202  0.56162726  1
  Ru  Ru2  1  0.75000000  0.84311798  0.06162726  1
  Ru  Ru3  1  0.75000000  0.34311798  0.43837274  1
loop_
_geom_bond_atom_site_label_1
_geom_bond_atom_site_label_2
_geom_bond_distance
_geom_bond_site_symmetry_2
Sc0 Si3 2.872903 1_465
Sc0 Si3 2.872903 1_565
Sc0 Si2 2.882606 1_455
Sc0 Si2 2.882606 1_555
Sc0 Si0 2.895705 1_565
Sc1 Si2 2.872903 1_555
Sc1 Si2 2.872903 1_455
Sc1 Si3 2.882606 1_555
Sc1 Si3 2.882606 1_455
Sc1 Si1 2.895705 1_554
Sc2 Si1 2.872903 1_545
Sc2 Si1 2.872903 1_645
Sc2 Si0 2.882606 1_555
Sc2 Si0 2.882606 1_655
Sc2 Si2 2.895705 1_545
Sc3 Si0 2.872903 1_555
Sc3 Si0 2.872903 1_655
Sc3 Si1 2.882606 1_655
Sc3 Si1 2.882606 1_555
Sc3 Si3 2.895705 1_556
Ru0 Si3 2.420004 1_556
Ru0 Si3 2.420004 1_456
Ru0 Si1 2.423589 1_545
Ru0 Si0 2.452660 1_555
Ru0 Sc0 2.818548 1_546
Ru0 Sc1 2.823316 1_556
Ru0 Sc2 2.889506 1_555
Ru0 Sc2 2.889506 1_455
Ru1 Si2 2.420004 1_455
Ru1 Si2 2.420004 1_555
Ru1 Si0 2.423589 1_555
Ru1 Si1 2.452660 1_555
Ru1 Sc1 2.818548 1_555
Ru1 Sc0 2.823316 1_555
Ru1 Sc3 2.889506 1_555
Ru1 Sc3 2.889506 1_455
Ru2 Si1 2.420004 1_654
Ru2 Si1 2.420004 1_554
Ru2 Si3 2.423589 1_565
Ru2 Si2 2.452660 1_555
Ru2 Sc2 2.818548 1_564
Ru2 Sc3 2.823316 1_554
Ru2 Sc0 2.889506 1_555
Ru2 Sc0 2.889506 1_655
Ru3 Si0 2.420004 1_655
Ru3 Si0 2.420004 1_555
Ru3 Si2 2.423589 1_555
Ru3 Si3 2.452660 1_555
Ru3 Sc3 2.818548 1_555
Ru3 Sc2 2.823316 1_555
Ru3 Sc1 2.889506 1_555
Ru3 Sc1 2.889506 1_655
