# generated using pymatgen
data_Sr2Pr2MgFe2(RuO6)2
_symmetry_space_group_name_H-M   'P 1'
_cell_length_a   6.06479319
_cell_length_b   5.56755899
_cell_length_c   8.36081408
_cell_angle_alpha   89.71904782
_cell_angle_beta   91.51965159
_cell_angle_gamma   88.58204922
_symmetry_Int_Tables_number   1
_chemical_formula_structural   Sr2Pr2MgFe2(RuO6)2
_chemical_formula_sum   'Sr2 Pr2 Mg1 Fe2 Ru2 O12'
_cell_volume   282.12195653
_cell_formula_units_Z   1
loop_
 _symmetry_equiv_pos_site_id
 _symmetry_equiv_pos_as_xyz
  1  'x, y, z'
loop_
 _atom_site_type_symbol
 _atom_site_label
 _atom_site_symmetry_multiplicity
 _atom_site_fract_x
 _atom_site_fract_y
 _atom_site_fract_z
 _atom_site_occupancy
  Sr  Sr0  1  0.57542300  0.52872000  0.73866900  1
  Sr  Sr1  1  0.92595400  0.05670700  0.27370000  1
  Pr  Pr0  1  0.05715700  0.96955400  0.73295900  1
  Pr  Pr1  1  0.39080500  0.47406600  0.29683800  1
  Mg  Mg0  1  0.78340800  0.61407900  0.10342100  1
  Fe  Fe0  1  0.14941900  0.44677400  0.93698100  1
  Fe  Fe1  1  0.49703600  0.00866300  0.52774400  1
  Ru  Ru0  1  0.98400000  0.50736500  0.50901700  1
  Ru  Ru1  1  0.49727800  0.01518000  0.99972900  1
  O  O0  1  0.97198100  0.39713000  0.74679200  1
  O  O1  1  0.43433400  0.12170200  0.77079200  1
  O  O2  1  0.00997100  0.59378200  0.27221200  1
  O  O3  1  0.55939100  0.83643400  0.21406300  1
  O  O4  1  0.18530900  0.21400200  0.47874500  1
  O  O5  1  0.65276300  0.30281800  0.07646300  1
  O  O6  1  0.78037700  0.84419700  0.92655700  1
  O  O7  1  0.27542200  0.71107700  0.54486900  1
  O  O8  1  0.79343200  0.80045200  0.54772400  1
  O  O9  1  0.30226900  0.74090600  0.92926100  1
  O  O10  1  0.22206500  0.19707500  0.08916400  1
  O  O11  1  0.69030000  0.30979000  0.46763300  1
loop_
_geom_bond_atom_site_label_1
_geom_bond_atom_site_label_2
_geom_bond_distance
_geom_bond_site_symmetry_2
Mg0 O5 1.934961 1_555
Mg0 O2 1.944293 1_655
Mg0 O6 1.951217 1_554
Mg0 O3 2.056405 1_555
Fe0 O9 1.903285 1_555
Fe0 O10 1.915293 1_556
Fe0 O0 1.921260 1_455
Fe1 O8 2.117086 1_545
Fe1 O11 2.134817 1_555
Fe1 O7 2.165668 1_545
Fe1 O1 2.170650 1_555
Fe1 O4 2.212781 1_555
O0 Ru0 2.081355 1_555
O0 Pr0 2.427401 1_645
O0 Sr0 2.495845 1_555
O1 Ru1 2.024880 1_555
O1 Sr0 2.457985 1_555
O1 Pr0 2.471928 1_545
O2 Ru0 2.046260 1_455
O2 Pr1 2.391341 1_555
O2 Sr1 2.615003 1_465
O3 Ru1 2.066816 1_564
O3 Pr1 2.391776 1_555
O3 Sr1 2.603280 1_565
O4 Ru0 2.035712 1_455
O4 Sr1 2.473844 1_455
O4 Pr1 2.476100 1_555
O4 Pr0 2.661842 1_545
O5 Ru1 1.979434 1_554
O5 Pr1 2.631625 1_555
O5 Sr1 2.657567 1_555
O6 Ru1 2.051561 1_565
O6 Pr0 2.473025 1_655
O6 Sr0 2.670091 1_555
O7 Ru0 2.138786 1_455
O7 Pr0 2.516861 1_555
O7 Pr1 2.566995 1_555
O7 Sr0 2.588960 1_555
O8 Ru0 2.008703 1_555
O8 Pr0 2.408434 1_655
O8 Sr0 2.602482 1_555
O8 Sr1 2.837748 1_565
O9 Ru1 2.034444 1_565
O9 Pr0 2.506099 1_555
O9 Sr0 2.596321 1_555
O10 Ru1 2.088207 1_554
O10 Sr1 2.533946 1_455
O10 Pr1 2.539784 1_555
O11 Ru0 2.137881 1_555
O11 Pr1 2.437680 1_555
O11 Sr1 2.588965 1_555
O11 Sr0 2.678629 1_555
