# generated using pymatgen
data_Y5P12Ru19
_symmetry_space_group_name_H-M   'P 1'
_cell_length_a   12.44859620
_cell_length_b   12.44859620
_cell_length_c   3.96946914
_cell_angle_alpha   90.00000000
_cell_angle_beta   90.00000000
_cell_angle_gamma   119.99999583
_symmetry_Int_Tables_number   1
_chemical_formula_structural   Y5P12Ru19
_chemical_formula_sum   'Y5 P12 Ru19'
_cell_volume   532.72593356
_cell_formula_units_Z   1
loop_
 _symmetry_equiv_pos_site_id
 _symmetry_equiv_pos_as_xyz
  1  'x, y, z'
loop_
 _atom_site_type_symbol
 _atom_site_label
 _atom_site_symmetry_multiplicity
 _atom_site_fract_x
 _atom_site_fract_y
 _atom_site_fract_z
 _atom_site_occupancy
  Y  Y0  1  0.00000000  0.18352172  0.50000000  1
  Y  Y1  1  0.81647828  0.81647828  0.50000000  1
  Y  Y2  1  0.18352172  0.00000000  0.50000000  1
  Y  Y3  1  0.66666700  0.33333300  0.00000000  1
  Y  Y4  1  0.33333300  0.66666700  0.00000000  1
  P  P0  1  0.00000000  0.81480322  -0.00000000  1
  P  P1  1  0.18519678  0.18519678  -0.00000000  1
  P  P2  1  0.81480322  0.00000000  0.00000000  1
  P  P3  1  0.69453054  0.17174223  0.50000000  1
  P  P4  1  0.82825777  0.52278831  0.50000000  1
  P  P5  1  0.47721169  0.30546946  0.50000000  1
  P  P6  1  0.17174223  0.69453054  0.50000000  1
  P  P7  1  0.52278831  0.82825777  0.50000000  1
  P  P8  1  0.30546946  0.47721169  0.50000000  1
  P  P9  1  1.00000000  0.37259857  -0.00000000  1
  P  P10  1  0.62740143  0.62740143  -0.00000000  1
  P  P11  1  0.37259857  1.00000000  0.00000000  1
  Ru  Ru0  1  -0.00000000  0.55405880  -0.00000000  1
  Ru  Ru1  1  0.44594120  0.44594120  -0.00000000  1
  Ru  Ru2  1  0.55405880  -0.00000000  0.00000000  1
  Ru  Ru3  1  0.00000000  0.71664356  0.50000000  1
  Ru  Ru4  1  0.28335644  0.28335644  0.50000000  1
  Ru  Ru5  1  0.71664356  0.00000000  0.50000000  1
  Ru  Ru6  1  0.80741936  0.18502454  0.00000000  1
  Ru  Ru7  1  0.81497546  0.62239582  0.00000000  1
  Ru  Ru8  1  0.37760418  0.19258064  -0.00000000  1
  Ru  Ru9  1  0.18502454  0.80741936  -0.00000000  1
  Ru  Ru10  1  0.62239582  0.81497546  0.00000000  1
  Ru  Ru11  1  0.19258064  0.37760418  0.00000000  1
  Ru  Ru12  1  0.87425955  0.36675453  0.50000000  1
  Ru  Ru13  1  0.63324547  0.50750502  0.50000000  1
  Ru  Ru14  1  0.49249498  0.12574045  0.50000000  1
  Ru  Ru15  1  0.36675453  0.87425955  0.50000000  1
  Ru  Ru16  1  0.50750502  0.63324547  0.50000000  1
  Ru  Ru17  1  0.12574045  0.49249498  0.50000000  1
  Ru  Ru18  1  -0.00000000  -0.00000000  0.00000000  1
loop_
_geom_bond_atom_site_label_1
_geom_bond_atom_site_label_2
_geom_bond_distance
_geom_bond_site_symmetry_2
P0 Ru18 2.305440 1_565
P0 Ru3 2.330737 1_555
P0 Ru3 2.330737 1_554
P0 Ru7 2.350597 1_455
P0 Ru9 2.350603 1_555
P0 Y1 3.034236 1_455
P0 Y1 3.034236 1_454
P0 Y2 3.034236 1_565
P0 Y2 3.034236 1_564
P1 Ru18 2.305440 1_555
P1 Ru4 2.330737 1_555
P1 Ru4 2.330737 1_554
P1 Ru11 2.350591 1_555
P1 Ru8 2.350591 1_555
P1 Y2 3.034236 1_555
P1 Y0 3.034236 1_554
P1 Y0 3.034236 1_555
P1 Y2 3.034236 1_554
P2 Ru18 2.305440 1_655
P2 Ru5 2.330737 1_555
P2 Ru5 2.330737 1_554
P2 Ru10 2.350597 1_545
P2 Ru6 2.350603 1_555
P2 Y1 3.034236 1_545
P2 Y1 3.034236 1_544
P2 Y0 3.034236 1_655
P2 Y0 3.034236 1_654
P3 Ru14 2.283241 1_555
P3 Ru5 2.288041 1_555
P3 Ru12 2.338314 1_555
P3 Ru6 2.389359 1_556
P3 Ru6 2.389359 1_555
P3 Ru2 2.798086 1_556
P3 Ru2 2.798086 1_555
P3 Y3 2.967098 1_556
P3 Y3 2.967098 1_555
P4 Ru12 2.283241 1_555
P4 Ru3 2.288041 1_655
P4 Ru13 2.338314 1_555
P4 Ru7 2.389366 1_555
P4 Ru7 2.389366 1_556
P4 Ru0 2.798086 1_655
P4 Ru0 2.798086 1_656
P4 Y3 2.967104 1_556
P4 Y3 2.967104 1_555
P5 Ru13 2.283242 1_555
P5 Ru4 2.288041 1_555
P5 Ru14 2.338314 1_555
P5 Ru8 2.389362 1_556
P5 Ru8 2.389362 1_555
P5 Ru1 2.798086 1_556
P5 Ru1 2.798086 1_555
P5 Y3 2.967107 1_555
P5 Y3 2.967107 1_556
P6 Ru17 2.283241 1_555
P6 Ru3 2.288041 1_555
P6 Ru15 2.338314 1_555
P6 Ru9 2.389359 1_555
P6 Ru9 2.389359 1_556
P6 Ru0 2.798086 1_555
P6 Ru0 2.798086 1_556
P6 Y4 2.967098 1_555
P6 Y4 2.967098 1_556
P7 Ru15 2.283241 1_555
P7 Ru5 2.288041 1_565
P7 Ru16 2.338314 1_555
P7 Ru10 2.389366 1_556
P7 Ru10 2.389366 1_555
P7 Ru2 2.798086 1_566
P7 Ru2 2.798086 1_565
P7 Y4 2.967104 1_555
P7 Y4 2.967104 1_556
P8 Ru16 2.283242 1_555
P8 Ru4 2.288041 1_555
P8 Ru17 2.338314 1_555
P8 Ru11 2.389362 1_556
P8 Ru11 2.389362 1_555
P8 Ru1 2.798086 1_556
P8 Ru1 2.798086 1_555
P8 Y4 2.967107 1_556
P8 Y4 2.967107 1_555
P9 Ru0 2.258925 1_655
P9 Ru6 2.366812 1_555
P9 Ru11 2.366818 1_655
P9 Ru12 2.506138 1_555
P9 Ru12 2.506138 1_554
P9 Ru17 2.506138 1_655
P9 Ru17 2.506138 1_654
P9 Y0 3.078842 1_655
P9 Y0 3.078842 1_654
P10 Ru1 2.258925 1_555
P10 Ru7 2.366805 1_555
P10 Ru10 2.366805 1_555
P10 Ru16 2.506138 1_555
P10 Ru16 2.506138 1_554
P10 Ru13 2.506138 1_554
P10 Ru13 2.506138 1_555
P10 Y1 3.078842 1_555
P10 Y1 3.078842 1_554
P11 Ru2 2.258925 1_565
P11 Ru9 2.366812 1_555
P11 Ru8 2.366818 1_565
P11 Ru15 2.506138 1_555
P11 Ru15 2.506138 1_554
P11 Ru14 2.506138 1_565
P11 Ru14 2.506138 1_564
P11 Y2 3.078842 1_565
P11 Y2 3.078842 1_564
Ru0 Ru9 2.826345 1_555
Ru0 Ru7 2.826354 1_455
Ru0 Ru17 2.859417 1_554
Ru0 Ru17 2.859417 1_555
Ru0 Ru12 2.859417 1_455
Ru0 Ru12 2.859417 1_454
Ru1 Ru8 2.826342 1_555
Ru1 Ru11 2.826342 1_555
Ru1 Ru13 2.859417 1_554
Ru1 Ru13 2.859417 1_555
Ru1 Ru16 2.859417 1_555
Ru1 Ru16 2.859417 1_554
Ru2 Ru6 2.826345 1_555
Ru3 Ru7 2.813986 1_455
Ru3 Ru7 2.813986 1_456
Ru3 Ru9 2.813986 1_556
Ru3 Ru9 2.813986 1_555
Ru3 Y1 3.098901 1_455
Ru3 Y2 3.098901 1_565
Ru4 Ru8 2.813978 1_555
Ru4 Ru8 2.813978 1_556
Ru4 Y0 3.098901 1_555
Ru4 Y2 3.098901 1_555
Ru5 Ru6 2.813986 1_556
Ru5 Ru6 2.813986 1_555
Ru5 Y1 3.098901 1_545
Ru5 Y0 3.098901 1_655
Ru6 Y3 3.116662 1_555
Ru6 Y0 3.119567 1_655
Ru6 Y0 3.119567 1_654
Ru7 Y3 3.116683 1_555
Ru7 Y1 3.119558 1_555
Ru7 Y1 3.119558 1_554
Ru8 Y3 3.116684 1_555
Ru8 Y2 3.119562 1_554
Ru8 Y2 3.119562 1_555
Ru9 Y4 3.116662 1_555
Ru9 Y2 3.119567 1_565
Ru9 Y2 3.119567 1_564
Ru10 Ru16 2.804830 1_555
Ru10 Ru16 2.804830 1_554
Ru10 Ru5 2.813986 1_565
Ru10 Ru5 2.813986 1_564
Ru10 Ru2 2.826354 1_565
Ru10 Y4 3.116683 1_555
Ru10 Y1 3.119558 1_555
Ru10 Y1 3.119558 1_554
Ru11 Ru17 2.804836 1_555
Ru11 Ru17 2.804836 1_554
Ru11 Ru4 2.813978 1_554
Ru11 Ru4 2.813978 1_555
Ru11 Y4 3.116684 1_555
Ru11 Y0 3.119562 1_554
Ru11 Y0 3.119562 1_555
Ru12 Ru17 2.711166 1_655
Ru12 Ru6 2.804828 1_555
Ru12 Ru6 2.804828 1_556
Ru12 Y3 3.116949 1_556
Ru12 Y3 3.116949 1_555
Ru12 Y0 3.350146 1_655
Ru13 Ru16 2.711165 1_555
Ru13 Ru7 2.804830 1_555
Ru13 Ru7 2.804830 1_556
Ru13 Y3 3.116958 1_556
Ru13 Y3 3.116958 1_555
Ru13 Y1 3.350146 1_555
Ru14 Ru15 2.711166 1_545
Ru14 Ru8 2.804836 1_556
Ru14 Ru8 2.804836 1_555
Ru14 Ru2 2.859417 1_556
Ru14 Ru2 2.859417 1_555
Ru14 Y3 3.116953 1_555
Ru14 Y3 3.116953 1_556
Ru14 Y2 3.350146 1_555
Ru15 Ru9 2.804828 1_555
Ru15 Ru9 2.804828 1_556
Ru15 Ru2 2.859417 1_566
Ru15 Ru2 2.859417 1_565
Ru15 Y4 3.116949 1_555
Ru15 Y4 3.116949 1_556
Ru15 Y2 3.350146 1_565
Ru16 Y4 3.116958 1_556
Ru16 Y4 3.116958 1_555
Ru16 Y1 3.350146 1_555
Ru17 Y4 3.116953 1_555
Ru17 Y4 3.116953 1_556
Ru17 Y0 3.350146 1_555
Ru18 Y2 3.026303 1_554
Ru18 Y0 3.026303 1_554
Ru18 Y2 3.026303 1_555
Ru18 Y0 3.026303 1_555
Ru18 Y1 3.026304 1_444
Ru18 Y1 3.026304 1_445
