# generated using pymatgen
data_Dy5(GeSb)2
_symmetry_space_group_name_H-M   'P 1'
_cell_length_a   8.50971876
_cell_length_b   8.50971876
_cell_length_c   7.92802895
_cell_angle_alpha   90.00000000
_cell_angle_beta   90.00000000
_cell_angle_gamma   124.62711550
_symmetry_Int_Tables_number   1
_chemical_formula_structural   Dy5(GeSb)2
_chemical_formula_sum   'Dy10 Ge4 Sb4'
_cell_volume   472.41706134
_cell_formula_units_Z   2
loop_
 _symmetry_equiv_pos_site_id
 _symmetry_equiv_pos_as_xyz
  1  'x, y, z'
loop_
 _atom_site_type_symbol
 _atom_site_label
 _atom_site_symmetry_multiplicity
 _atom_site_fract_x
 _atom_site_fract_y
 _atom_site_fract_z
 _atom_site_occupancy
  Dy  Dy0  1  0.03575078  0.28850671  0.33849837  1
  Dy  Dy1  1  0.96424922  0.71149329  0.66150163  1
  Dy  Dy2  1  0.46424922  0.21149329  0.83849837  1
  Dy  Dy3  1  0.78850671  0.53575078  0.16150163  1
  Dy  Dy4  1  0.53575078  0.78850671  0.16150163  1
  Dy  Dy5  1  0.21149329  0.46424922  0.83849837  1
  Dy  Dy6  1  0.71149329  0.96424922  0.66150163  1
  Dy  Dy7  1  0.28850671  0.03575078  0.33849837  1
  Dy  Dy8  1  0.00000000  0.00000000  0.00000000  1
  Dy  Dy9  1  0.50000000  0.50000000  0.50000000  1
  Ge  Ge0  1  0.35820622  0.35820622  0.14059990  1
  Ge  Ge1  1  0.64179378  0.64179378  0.85940010  1
  Ge  Ge2  1  0.14179378  0.14179378  0.64059890  1
  Ge  Ge3  1  0.85820622  0.85820622  0.35940110  1
  Sb  Sb0  1  0.79579407  0.20420593  0.00000000  1
  Sb  Sb1  1  0.20420593  0.79579407  0.00000000  1
  Sb  Sb2  1  0.70420593  0.29579407  0.50000000  1
  Sb  Sb3  1  0.29579407  0.70420593  0.50000000  1
loop_
_geom_bond_atom_site_label_1
_geom_bond_atom_site_label_2
_geom_bond_distance
_geom_bond_site_symmetry_2
Dy0 Ge0 2.914328 1_555
Dy0 Ge2 3.064267 1_555
Dy0 Ge3 3.071014 1_445
Dy0 Sb2 3.130833 1_455
Dy0 Sb3 3.186494 1_555
Dy0 Sb0 3.197081 1_455
Dy1 Ge1 2.914328 1_555
Dy1 Ge3 3.064267 1_555
Dy1 Ge2 3.071014 1_665
Dy1 Sb3 3.130833 1_655
Dy1 Sb2 3.186494 1_555
Dy1 Sb1 3.197081 1_656
Dy2 Ge2 2.914333 1_555
Dy2 Ge0 3.064273 1_556
Dy2 Ge1 3.071013 1_555
Dy2 Sb0 3.130833 1_556
Dy2 Sb1 3.186494 1_546
Dy2 Sb2 3.197081 1_555
Dy3 Ge3 2.914333 1_555
Dy3 Ge1 3.064273 1_554
Dy3 Ge0 3.071013 1_555
Dy3 Sb0 3.130833 1_555
Dy3 Sb1 3.186494 1_655
Dy3 Sb2 3.197081 1_555
Dy4 Ge3 2.914333 1_555
Dy4 Ge1 3.064273 1_554
Dy4 Ge0 3.071013 1_555
Dy4 Sb1 3.130833 1_555
Dy4 Sb0 3.186494 1_565
Dy4 Sb3 3.197081 1_555
Dy5 Ge2 2.914333 1_555
Dy5 Ge0 3.064273 1_556
Dy5 Ge1 3.071013 1_555
Dy5 Sb1 3.130833 1_556
Dy5 Sb0 3.186494 1_456
Dy5 Sb3 3.197081 1_555
Dy6 Ge1 2.914328 1_555
Dy6 Ge3 3.064267 1_555
Dy6 Ge2 3.071014 1_665
Dy6 Sb2 3.130833 1_565
Dy6 Sb3 3.186494 1_555
Dy6 Sb0 3.197081 1_566
Dy7 Ge0 2.914328 1_555
Dy7 Ge2 3.064267 1_555
Dy7 Ge3 3.071014 1_445
Dy7 Sb3 3.130833 1_545
Dy7 Sb2 3.186494 1_555
Dy7 Sb1 3.197081 1_545
Dy8 Ge1 3.044049 1_444
Dy8 Ge0 3.044049 1_555
Dy8 Ge3 3.062027 1_445
Dy8 Ge2 3.062027 1_554
Dy8 Sb1 3.077541 1_545
Dy8 Sb0 3.077541 1_455
Dy9 Ge3 3.044046 1_555
Dy9 Ge2 3.044046 1_555
Dy9 Ge0 3.062019 1_555
Dy9 Ge1 3.062019 1_555
Dy9 Sb2 3.077541 1_555
Dy9 Sb3 3.077541 1_555
