# generated using pymatgen
data_Eu3(GeIr)4
_symmetry_space_group_name_H-M   'P 1'
_cell_length_a   6.69421702
_cell_length_b   6.69421702
_cell_length_c   6.69421702
_cell_angle_alpha   109.47122063
_cell_angle_beta   109.47122063
_cell_angle_gamma   109.47122063
_symmetry_Int_Tables_number   1
_chemical_formula_structural   Eu3(GeIr)4
_chemical_formula_sum   'Eu3 Ge4 Ir4'
_cell_volume   230.92846709
_cell_formula_units_Z   1
loop_
 _symmetry_equiv_pos_site_id
 _symmetry_equiv_pos_as_xyz
  1  'x, y, z'
loop_
 _atom_site_type_symbol
 _atom_site_label
 _atom_site_symmetry_multiplicity
 _atom_site_fract_x
 _atom_site_fract_y
 _atom_site_fract_z
 _atom_site_occupancy
  Eu  Eu0  1  0.50000000  0.50000000  0.00000000  1
  Eu  Eu1  1  0.50000000  0.00000000  0.50000000  1
  Eu  Eu2  1  0.00000000  0.50000000  0.50000000  1
  Ge  Ge0  1  0.00000000  0.37767400  0.00000000  1
  Ge  Ge1  1  0.00000000  0.00000000  0.37767400  1
  Ge  Ge2  1  0.62232600  0.62232600  0.62232600  1
  Ge  Ge3  1  0.37767400  0.00000000  0.00000000  1
  Ir  Ir0  1  0.00000000  0.73618800  0.00000000  1
  Ir  Ir1  1  0.00000000  0.00000000  0.73618800  1
  Ir  Ir2  1  0.26381200  0.26381200  0.26381200  1
  Ir  Ir3  1  0.73618800  0.00000000  0.00000000  1
loop_
_geom_bond_atom_site_label_1
_geom_bond_atom_site_label_2
_geom_bond_distance
_geom_bond_site_symmetry_2
Eu0 Ge0 3.169613 1_555
Eu0 Ge1 3.169613 1_665
Eu0 Ge3 3.169613 1_555
Eu0 Ge2 3.169613 1_554
Eu0 Ir0 3.189817 1_655
Eu0 Ir3 3.189817 1_565
Eu0 Ir2 3.189817 1_555
Eu0 Ir1 3.189817 1_554
Eu1 Ge1 3.169613 1_555
Eu1 Ge3 3.169613 1_555
Eu1 Ge0 3.169613 1_656
Eu1 Ge2 3.169613 1_545
Eu1 Ir3 3.189817 1_556
Eu1 Ir1 3.189817 1_655
Eu1 Ir2 3.189817 1_555
Eu1 Ir0 3.189817 1_545
Eu2 Ge1 3.169613 1_555
Eu2 Ge0 3.169613 1_555
Eu2 Ge3 3.169613 1_566
Eu2 Ge2 3.169613 1_455
Eu2 Ir1 3.189817 1_565
Eu2 Ir3 3.189817 1_455
Eu2 Ir0 3.189817 1_556
Eu2 Ir2 3.189817 1_555
Ge0 Ir0 2.399971 1_555
Ge0 Ir3 2.556202 1_455
Ge0 Ir2 2.556202 1_555
Ge0 Ir1 2.556202 1_554
Ge1 Ir1 2.399971 1_555
Ge1 Ir3 2.556202 1_455
Ge1 Ir2 2.556202 1_555
Ge1 Ir0 2.556202 1_545
Ge2 Ir2 2.399971 1_555
Ge2 Ir0 2.556202 1_656
Ge2 Ir3 2.556202 1_566
Ge2 Ir1 2.556202 1_665
Ge3 Ir3 2.399971 1_555
Ge3 Ir0 2.556202 1_545
Ge3 Ir1 2.556202 1_554
Ge3 Ir2 2.556202 1_555
