# generated using pymatgen
data_Ni(BW)2
_symmetry_space_group_name_H-M   'P 1'
_cell_length_a   4.49446490
_cell_length_b   4.49446490
_cell_length_c   4.49446490
_cell_angle_alpha   138.39807714
_cell_angle_beta   119.21974410
_cell_angle_gamma   76.35318224
_symmetry_Int_Tables_number   1
_chemical_formula_structural   Ni(BW)2
_chemical_formula_sum   'Ni1 B2 W2'
_cell_volume   51.28700116
_cell_formula_units_Z   1
loop_
 _symmetry_equiv_pos_site_id
 _symmetry_equiv_pos_as_xyz
  1  'x, y, z'
loop_
 _atom_site_type_symbol
 _atom_site_label
 _atom_site_symmetry_multiplicity
 _atom_site_fract_x
 _atom_site_fract_y
 _atom_site_fract_z
 _atom_site_occupancy
  Ni  Ni0  1  -0.00000000  -0.00000000  0.00000000  1
  B  B0  1  0.70380702  0.50000000  0.20380702  1
  B  B1  1  0.29619298  0.50000000  0.79619298  1
  W  W0  1  0.70059029  0.20059029  0.50000000  1
  W  W1  1  0.29940971  0.79940971  0.50000000  1
loop_
_geom_bond_atom_site_label_1
_geom_bond_atom_site_label_2
_geom_bond_distance
_geom_bond_site_symmetry_2
Ni0 W0 2.650233 1_455
Ni0 W0 2.650233 1_444
Ni0 W1 2.650233 1_544
Ni0 W1 2.650233 1_555
Ni0 W1 2.679316 1_444
Ni0 W1 2.679316 1_545
Ni0 W0 2.679316 1_454
Ni0 W0 2.679316 1_555
B0 B1 1.853570 1_554
B0 Ni0 2.088450 1_655
B0 Ni0 2.088450 1_666
B0 W0 2.327128 1_565
B0 W1 2.327128 1_544
B0 W0 2.327128 1_554
B0 W1 2.327128 1_555
B0 W1 2.508063 1_655
B0 W0 2.508063 1_555
B1 Ni0 2.088450 1_555
B1 Ni0 2.088450 1_566
B1 W0 2.327128 1_555
B1 W1 2.327128 1_556
B1 W0 2.327128 1_566
B1 W1 2.327128 1_545
B1 W0 2.508063 1_455
B1 W1 2.508063 1_555
