# generated using pymatgen
data_Mn3NiSn2(PO4)6
_symmetry_space_group_name_H-M   'P 1'
_cell_length_a   8.57090060
_cell_length_b   8.57090060
_cell_length_c   8.57090084
_cell_angle_alpha   61.50476187
_cell_angle_beta   61.50476187
_cell_angle_gamma   61.50475711
_symmetry_Int_Tables_number   1
_chemical_formula_structural   Mn3NiSn2(PO4)6
_chemical_formula_sum   'Mn3 Ni1 Sn2 P6 O24'
_cell_volume   460.24725397
_cell_formula_units_Z   1
loop_
 _symmetry_equiv_pos_site_id
 _symmetry_equiv_pos_as_xyz
  1  'x, y, z'
loop_
 _atom_site_type_symbol
 _atom_site_label
 _atom_site_symmetry_multiplicity
 _atom_site_fract_x
 _atom_site_fract_y
 _atom_site_fract_z
 _atom_site_occupancy
  Mn  Mn0  1  0.14949200  0.14949200  0.14949200  1
  Mn  Mn1  1  0.34920900  0.34920900  0.34920900  1
  Mn  Mn2  1  0.65063700  0.65063700  0.65063700  1
  Ni  Ni0  1  0.85233200  0.85233200  0.85233200  1
  Sn  Sn0  1  0.99888000  0.99888000  0.99888000  1
  Sn  Sn1  1  0.49937500  0.49937500  0.49937500  1
  P  P0  1  0.45312500  0.75197000  0.04833900  1
  P  P1  1  0.55150400  0.24931300  0.94873400  1
  P  P2  1  0.94873400  0.55150400  0.24931300  1
  P  P3  1  0.24931300  0.94873400  0.55150400  1
  P  P4  1  0.75197000  0.04833900  0.45312500  1
  P  P5  1  0.04833900  0.45312500  0.75197000  1
  O  O0  1  0.32359500  0.09557000  0.51418900  1
  O  O1  1  0.51418900  0.32359500  0.09557000  1
  O  O2  1  0.90441400  0.06716000  0.24757600  1
  O  O3  1  0.09557000  0.51418900  0.32359500  1
  O  O4  1  0.82375400  0.00826600  0.60116000  1
  O  O5  1  0.59793800  0.25192500  0.43328000  1
  O  O6  1  0.06716000  0.24757600  0.90441400  1
  O  O7  1  0.25192500  0.43328000  0.59793800  1
  O  O8  1  0.39983400  0.18057500  0.98564300  1
  O  O9  1  0.43328000  0.59793800  0.25192500  1
  O  O10  1  0.75306600  0.09571200  0.93047100  1
  O  O11  1  0.98564300  0.39983400  0.18057500  1
  O  O12  1  0.00826600  0.60116000  0.82375400  1
  O  O13  1  0.24757600  0.90441400  0.06716000  1
  O  O14  1  0.56910100  0.40316400  0.74559700  1
  O  O15  1  0.60116000  0.82375400  0.00826600  1
  O  O16  1  0.74559700  0.56910100  0.40316400  1
  O  O17  1  0.93047100  0.75306600  0.09571200  1
  O  O18  1  0.40316400  0.74559700  0.56910100  1
  O  O19  1  0.18057500  0.98564300  0.39983400  1
  O  O20  1  0.90116200  0.48450600  0.67943000  1
  O  O21  1  0.09571200  0.93047100  0.75306600  1
  O  O22  1  0.48450600  0.67943000  0.90116200  1
  O  O23  1  0.67943000  0.90116200  0.48450600  1
loop_
_geom_bond_atom_site_label_1
_geom_bond_atom_site_label_2
_geom_bond_distance
_geom_bond_site_symmetry_2
Mn0 O11 1.990047 1_455
Mn0 O8 1.990047 1_554
Mn0 O19 1.990047 1_545
Mn0 O13 2.186392 1_545
Mn0 O6 2.186392 1_554
Mn0 O2 2.186392 1_455
Mn1 O3 1.999913 1_555
Mn1 O0 1.999913 1_555
Mn1 O1 1.999913 1_555
Mn1 O5 2.226100 1_555
Mn1 O7 2.226100 1_555
Mn1 O9 2.226100 1_555
Mn2 O20 1.987956 1_555
Mn2 O23 1.987956 1_555
Mn2 O22 1.987956 1_555
Mn2 O18 2.207747 1_555
Mn2 O16 2.207747 1_555
Mn2 O14 2.207747 1_555
Ni0 O12 1.981438 1_655
Ni0 O15 1.981438 1_556
Ni0 O4 1.981439 1_565
Ni0 O10 2.149331 1_565
Ni0 O17 2.149331 1_556
Ni0 O21 2.149331 1_655
O0 P3 1.509198 1_545
O1 P1 1.509198 1_554
O2 P4 1.603272 1_555
O2 Sn0 2.152427 1_544
O3 P2 1.509198 1_455
O4 P4 1.494574 1_555
O5 P4 1.596742 1_555
O5 Sn1 2.124351 1_555
O6 P5 1.603272 1_555
O6 Sn0 2.152427 1_445
O7 P5 1.596742 1_555
O7 Sn1 2.124352 1_555
O8 P1 1.515777 1_555
O9 P0 1.596742 1_555
O9 Sn1 2.124352 1_555
O10 P1 1.584504 1_555
O10 Sn0 2.125403 1_545
O11 P2 1.515777 1_555
O12 P5 1.494574 1_555
O13 P0 1.603272 1_555
O13 Sn0 2.152427 1_454
O14 P1 1.594195 1_555
O14 Sn1 2.136206 1_555
O15 P0 1.494574 1_555
O16 P2 1.594195 1_555
O16 Sn1 2.136206 1_555
O17 P2 1.584504 1_555
O17 Sn0 2.125403 1_554
O18 P3 1.594195 1_555
O18 Sn1 2.136205 1_555
O19 P3 1.515777 1_555
O20 P5 1.521567 1_655
O21 P3 1.584505 1_555
O21 Sn0 2.125403 1_455
O22 P0 1.521567 1_556
O23 P4 1.521567 1_565
