# generated using pymatgen
data_Re(WO4)2
_symmetry_space_group_name_H-M   'P 1'
_cell_length_a   5.81731100
_cell_length_b   5.09010100
_cell_length_c   10.66090972
_cell_angle_alpha   61.74652989
_cell_angle_beta   90.00000000
_cell_angle_gamma   90.00000000
_symmetry_Int_Tables_number   1
_chemical_formula_structural   Re(WO4)2
_chemical_formula_sum   'Re2 W4 O16'
_cell_volume   278.06790012
_cell_formula_units_Z   2
loop_
 _symmetry_equiv_pos_site_id
 _symmetry_equiv_pos_as_xyz
  1  'x, y, z'
loop_
 _atom_site_type_symbol
 _atom_site_label
 _atom_site_symmetry_multiplicity
 _atom_site_fract_x
 _atom_site_fract_y
 _atom_site_fract_z
 _atom_site_occupancy
  Re  Re0  1  0.64850600  0.00000000  0.75000000  1
  Re  Re1  1  0.35149400  0.00000000  0.25000000  1
  W  W0  1  0.83328900  0.26140600  0.00365800  1
  W  W1  1  0.83328900  0.73859400  0.49634200  1
  W  W2  1  0.16671100  0.73859400  0.99634200  1
  W  W3  1  0.16671100  0.26140600  0.50365800  1
  O  O0  1  0.65686500  0.43969900  0.63626400  1
  O  O1  1  0.65686500  0.56030100  0.86373600  1
  O  O2  1  0.34313500  0.56030100  0.36373600  1
  O  O3  1  0.34313500  0.43969900  0.13626400  1
  O  O4  1  0.11144000  0.97315100  0.10822800  1
  O  O5  1  0.11144000  0.02684900  0.39177200  1
  O  O6  1  0.88856000  0.02684900  0.89177200  1
  O  O7  1  0.88856000  0.97315100  0.60822800  1
  O  O8  1  0.40254500  0.01910400  0.61939200  1
  O  O9  1  0.40254500  0.98089600  0.88060800  1
  O  O10  1  0.59745500  0.98089600  0.38060800  1
  O  O11  1  0.59745500  0.01910400  0.11939200  1
  O  O12  1  0.10670100  0.45386400  0.61150700  1
  O  O13  1  0.89329900  0.54613600  0.38849300  1
  O  O14  1  0.10670100  0.54613600  0.88849300  1
  O  O15  1  0.89329900  0.45386400  0.11150700  1
loop_
_geom_bond_atom_site_label_1
_geom_bond_atom_site_label_2
_geom_bond_distance
_geom_bond_site_symmetry_2
O0 W1 1.855946 1_555
O0 Re0 1.977999 1_555
O1 W0 1.855946 1_556
O1 Re0 1.977999 1_565
O2 W3 1.855946 1_555
O2 Re1 1.977999 1_565
O3 W2 1.855946 1_554
O3 Re1 1.977999 1_555
O4 W2 2.073616 1_554
O4 Re1 2.109205 1_565
O4 W0 2.113112 1_465
O5 W3 2.073616 1_555
O5 Re1 2.109205 1_555
O5 W1 2.113112 1_445
O6 W0 2.073616 1_556
O6 Re0 2.109205 1_555
O6 W2 2.113112 1_645
O7 W1 2.073616 1_555
O7 Re0 2.109205 1_565
O7 W3 2.113112 1_665
O8 W3 1.866798 1_555
O8 Re0 1.966551 1_555
O9 W2 1.866798 1_555
O9 Re0 1.966551 1_565
O10 W1 1.866798 1_555
O10 Re1 1.966551 1_565
O11 W0 1.866798 1_555
O11 Re1 1.966551 1_555
O12 W3 1.862761 1_555
O12 W1 2.110215 1_455
O13 W1 1.862761 1_555
O13 W3 2.110215 1_655
O14 W2 1.862761 1_555
O14 W0 2.110215 1_456
O15 W0 1.862761 1_555
O15 W2 2.110215 1_654
