# generated using pymatgen
data_Cr2CuS4
_symmetry_space_group_name_H-M   'P 1'
_cell_length_a   5.63195300
_cell_length_b   6.95037100
_cell_length_c   11.95759700
_cell_angle_alpha   90.00000000
_cell_angle_beta   90.00000000
_cell_angle_gamma   90.00000000
_symmetry_Int_Tables_number   1
_chemical_formula_structural   Cr2CuS4
_chemical_formula_sum   'Cr8 Cu4 S16'
_cell_volume   468.07012372
_cell_formula_units_Z   4
loop_
 _symmetry_equiv_pos_site_id
 _symmetry_equiv_pos_as_xyz
  1  'x, y, z'
loop_
 _atom_site_type_symbol
 _atom_site_label
 _atom_site_symmetry_multiplicity
 _atom_site_fract_x
 _atom_site_fract_y
 _atom_site_fract_z
 _atom_site_occupancy
  Cr  Cr0  1  0.50000000  0.00000000  0.00000000  1
  Cr  Cr1  1  0.00000000  0.00000000  0.50000000  1
  Cr  Cr2  1  0.00000000  0.50000000  0.50000000  1
  Cr  Cr3  1  0.50000000  0.50000000  0.00000000  1
  Cr  Cr4  1  0.02011000  0.75000000  0.24443400  1
  Cr  Cr5  1  0.97989000  0.25000000  0.75556600  1
  Cr  Cr6  1  0.52011000  0.25000000  0.25556600  1
  Cr  Cr7  1  0.47989000  0.75000000  0.74443400  1
  Cu  Cu0  1  0.89871600  0.25000000  0.09132000  1
  Cu  Cu1  1  0.10128400  0.75000000  0.90868000  1
  Cu  Cu2  1  0.39871600  0.75000000  0.40868000  1
  Cu  Cu3  1  0.60128400  0.25000000  0.59132000  1
  S  S0  1  0.73298700  0.99132900  0.16977200  1
  S  S1  1  0.26701300  0.00867100  0.83022800  1
  S  S2  1  0.23298700  0.00867100  0.33022800  1
  S  S3  1  0.76701300  0.99132900  0.66977200  1
  S  S4  1  0.76701300  0.50867100  0.66977200  1
  S  S5  1  0.23298700  0.49132900  0.33022800  1
  S  S6  1  0.26701300  0.49132900  0.83022800  1
  S  S7  1  0.73298700  0.50867100  0.16977200  1
  S  S8  1  0.26211400  0.75000000  0.08250700  1
  S  S9  1  0.73788600  0.25000000  0.91749300  1
  S  S10  1  0.76211400  0.25000000  0.41749300  1
  S  S11  1  0.23788600  0.75000000  0.58250700  1
  S  S12  1  0.29180200  0.25000000  0.08769600  1
  S  S13  1  0.70819800  0.75000000  0.91230400  1
  S  S14  1  0.79180200  0.75000000  0.41230400  1
  S  S15  1  0.20819800  0.25000000  0.58769600  1
loop_
_geom_bond_atom_site_label_1
_geom_bond_atom_site_label_2
_geom_bond_distance
_geom_bond_site_symmetry_2
Cr0 S12 2.343877 1_555
Cr0 S13 2.343877 1_544
Cr0 S9 2.405731 1_554
Cr0 S8 2.405731 1_545
Cr0 S0 2.417973 1_545
Cr0 S1 2.417973 1_554
Cr1 S14 2.343877 1_445
Cr1 S15 2.343877 1_555
Cr1 S10 2.405731 1_455
Cr1 S11 2.405731 1_545
Cr1 S2 2.417973 1_555
Cr1 S3 2.417973 1_445
Cr2 S14 2.343877 1_455
Cr2 S15 2.343877 1_555
Cr2 S10 2.405731 1_455
Cr2 S11 2.405731 1_555
Cr2 S5 2.417973 1_555
Cr2 S4 2.417973 1_455
Cr3 S12 2.343877 1_555
Cr3 S13 2.343877 1_554
Cr3 S9 2.405731 1_554
Cr3 S8 2.405731 1_555
Cr3 S7 2.417973 1_555
Cr3 S6 2.417973 1_554
Cr4 S8 2.367856 1_555
Cr4 S14 2.383836 1_455
Cr4 S5 2.392100 1_555
Cr4 S2 2.392100 1_565
Cr4 S0 2.495069 1_455
Cr4 S7 2.495069 1_455
Cr5 S9 2.367856 1_555
Cr5 S15 2.383836 1_655
Cr5 S3 2.392100 1_545
Cr5 S4 2.392100 1_555
Cr5 S1 2.495069 1_655
Cr5 S6 2.495069 1_655
Cr6 S10 2.367856 1_555
Cr6 S12 2.383836 1_555
Cr6 S7 2.392100 1_555
Cr6 S0 2.392100 1_545
Cr6 S2 2.495069 1_555
Cr6 S5 2.495069 1_555
Cr7 S11 2.367856 1_555
Cr7 S13 2.383836 1_555
Cr7 S1 2.392100 1_565
Cr7 S6 2.392100 1_555
Cr7 S3 2.495069 1_555
Cr7 S4 2.495069 1_555
Cu0 S12 2.214266 1_655
Cu0 S0 2.232380 1_545
Cu0 S7 2.232380 1_555
Cu0 S9 2.267341 1_554
Cu1 S13 2.214266 1_455
Cu1 S6 2.232380 1_555
Cu1 S1 2.232380 1_565
Cu1 S8 2.267341 1_556
Cu2 S14 2.214266 1_555
Cu2 S5 2.232380 1_555
Cu2 S2 2.232380 1_565
Cu2 S11 2.267341 1_555
Cu3 S15 2.214266 1_555
Cu3 S3 2.232380 1_545
Cu3 S4 2.232380 1_555
Cu3 S10 2.267341 1_555
