# generated using pymatgen
data_Np2Se5
_symmetry_space_group_name_H-M   'P 1'
_cell_length_a   7.72538300
_cell_length_b   7.74173100
_cell_length_c   10.72896700
_cell_angle_alpha   90.00000000
_cell_angle_beta   90.00000000
_cell_angle_gamma   90.00000000
_symmetry_Int_Tables_number   1
_chemical_formula_structural   Np2Se5
_chemical_formula_sum   'Np8 Se20'
_cell_volume   641.67631014
_cell_formula_units_Z   4
loop_
 _symmetry_equiv_pos_site_id
 _symmetry_equiv_pos_as_xyz
  1  'x, y, z'
loop_
 _atom_site_type_symbol
 _atom_site_label
 _atom_site_symmetry_multiplicity
 _atom_site_fract_x
 _atom_site_fract_y
 _atom_site_fract_z
 _atom_site_occupancy
  Np  Np0  1  0.75359400  0.49947600  0.15149700  1
  Np  Np1  1  0.74640600  0.99947600  0.34850300  1
  Np  Np2  1  0.25359400  0.50052400  0.34850300  1
  Np  Np3  1  0.24640600  0.00052400  0.15149700  1
  Np  Np4  1  0.24640600  0.50052400  0.84850300  1
  Np  Np5  1  0.25359400  0.00052400  0.65149700  1
  Np  Np6  1  0.74640600  0.49947600  0.65149700  1
  Np  Np7  1  0.75359400  0.99947600  0.84850300  1
  Se  Se0  1  0.62337200  0.12659300  0.60356300  1
  Se  Se1  1  0.87662800  0.62659300  0.89643700  1
  Se  Se2  1  0.12337200  0.87340700  0.89643700  1
  Se  Se3  1  0.37662800  0.37340700  0.60356300  1
  Se  Se4  1  0.37662800  0.87340700  0.39643700  1
  Se  Se5  1  0.12337200  0.37340700  0.10356300  1
  Se  Se6  1  0.87662800  0.12659300  0.10356300  1
  Se  Se7  1  0.62337200  0.62659300  0.39643700  1
  Se  Se8  1  0.12022000  0.62983100  0.60148700  1
  Se  Se9  1  0.37978000  0.12983100  0.89851300  1
  Se  Se10  1  0.62022000  0.37016900  0.89851300  1
  Se  Se11  1  0.87978000  0.87016900  0.60148700  1
  Se  Se12  1  0.87978000  0.37016900  0.39851300  1
  Se  Se13  1  0.62022000  0.87016900  0.10148700  1
  Se  Se14  1  0.37978000  0.62983100  0.10148700  1
  Se  Se15  1  0.12022000  0.12983100  0.39851300  1
  Se  Se16  1  0.00000000  0.25000000  0.74821200  1
  Se  Se17  1  0.50000000  0.75000000  0.75178800  1
  Se  Se18  1  0.00000000  0.75000000  0.25178800  1
  Se  Se19  1  0.50000000  0.25000000  0.24821200  1
loop_
_geom_bond_atom_site_label_1
_geom_bond_atom_site_label_2
_geom_bond_distance
_geom_bond_site_symmetry_2
Np0 Se18 2.922851 1_655
Np0 Se19 2.940247 1_555
Np0 Se7 2.981051 1_555
Np0 Se12 2.996018 1_555
Np0 Se1 3.059491 1_554
Np0 Se5 3.062295 1_655
Np0 Se10 3.070988 1_554
Np0 Se6 3.082416 1_555
Np0 Se13 3.096018 1_555
Np0 Se14 3.105807 1_555
Np1 Se19 2.922851 1_565
Np1 Se18 2.940247 1_655
Np1 Se6 2.981051 1_565
Np1 Se13 2.996018 1_555
Np1 Se0 3.059491 1_565
Np1 Se4 3.062295 1_555
Np1 Se11 3.070988 1_555
Np1 Se7 3.082416 1_555
Np1 Se12 3.096018 1_565
Np1 Se15 3.105807 1_665
Np2 Se19 2.922851 1_555
Np2 Se18 2.940247 1_555
Np2 Se5 2.981051 1_555
Np2 Se14 2.996018 1_555
Np2 Se3 3.059491 1_555
Np2 Se7 3.062295 1_555
Np2 Se8 3.070988 1_555
Np2 Se4 3.082416 1_555
Np2 Se15 3.096018 1_555
Np2 Se12 3.105807 1_455
Np3 Se18 2.922851 1_545
Np3 Se19 2.940247 1_555
Np3 Se4 2.981051 1_545
Np3 Se15 2.996018 1_555
Np3 Se2 3.059491 1_544
Np3 Se6 3.062295 1_455
Np3 Se9 3.070988 1_554
Np3 Se5 3.082416 1_555
Np3 Se14 3.096018 1_545
Np3 Se13 3.105807 1_545
Np4 Se16 2.922851 1_555
Np4 Se17 2.940247 1_555
Np4 Se3 2.981051 1_555
Np4 Se8 2.996018 1_555
Np4 Se5 3.059491 1_556
Np4 Se1 3.062295 1_455
Np4 Se14 3.070988 1_556
Np4 Se2 3.082416 1_555
Np4 Se9 3.096018 1_555
Np4 Se10 3.105807 1_555
Np5 Se17 2.922851 1_545
Np5 Se16 2.940247 1_555
Np5 Se2 2.981051 1_545
Np5 Se9 2.996018 1_555
Np5 Se4 3.059491 1_545
Np5 Se0 3.062295 1_555
Np5 Se15 3.070988 1_555
Np5 Se3 3.082416 1_555
Np5 Se8 3.096018 1_545
Np5 Se11 3.105807 1_445
Np6 Se17 2.922851 1_555
Np6 Se16 2.940247 1_655
Np6 Se1 2.981051 1_555
Np6 Se10 2.996018 1_555
Np6 Se7 3.059491 1_555
Np6 Se3 3.062295 1_555
Np6 Se12 3.070988 1_555
Np6 Se0 3.082416 1_555
Np6 Se11 3.096018 1_555
Np6 Se8 3.105807 1_655
Np7 Se16 2.922851 1_665
Np7 Se17 2.940247 1_555
Np7 Se0 2.981051 1_565
Np7 Se11 2.996018 1_555
Np7 Se6 3.059491 1_566
Np7 Se2 3.062295 1_655
Np7 Se13 3.070988 1_556
Np7 Se1 3.082416 1_555
Np7 Se10 3.096018 1_565
Np7 Se9 3.105807 1_565
Se0 Se3 2.699000 1_555
Se0 Se11 2.804487 1_545
Se1 Se2 2.699000 1_655
Se1 Se10 2.804487 1_555
Se2 Se9 2.804487 1_565
Se3 Se8 2.804487 1_555
Se4 Se7 2.699000 1_555
Se5 Se6 2.699000 1_455
Se10 Se9 2.629111 1_555
Se11 Se8 2.629111 1_655
Se12 Se15 2.629111 1_655
Se12 Se7 2.804487 1_555
Se13 Se14 2.629111 1_555
Se13 Se6 2.804487 1_565
Se14 Se5 2.804487 1_555
Se15 Se4 2.804487 1_545
