# generated using pymatgen
data_La2CdPb
_symmetry_space_group_name_H-M   'P 1'
_cell_length_a   14.00243820
_cell_length_b   14.00243820
_cell_length_c   14.00243820
_cell_angle_alpha   126.76689285
_cell_angle_beta   117.78477459
_cell_angle_gamma   86.28966138
_symmetry_Int_Tables_number   1
_chemical_formula_structural   La2CdPb
_chemical_formula_sum   'La2 Cd1 Pb1'
_cell_volume   1854.64593909
_cell_formula_units_Z   1
loop_
 _symmetry_equiv_pos_site_id
 _symmetry_equiv_pos_as_xyz
  1  'x, y, z'
loop_
 _atom_site_type_symbol
 _atom_site_label
 _atom_site_symmetry_multiplicity
 _atom_site_fract_x
 _atom_site_fract_y
 _atom_site_fract_z
 _atom_site_occupancy
  La  La0  1  0.00000000  0.26083600  0.26083600  1
  La  La1  1  0.00000000  0.73916400  0.73916400  1
  Cd  Cd0  1  0.00000000  0.00000000  0.00000000  1
  Pb  Pb0  1  0.00000000  0.50000000  0.50000000  1
loop_
_geom_bond_atom_site_label_1
_geom_bond_atom_site_label_2
_geom_bond_distance
_geom_bond_site_symmetry_2
La0 Pb0 3.000712 1_555
La1 Pb0 3.000712 1_555
Cd0 La0 3.272624 1_555
Cd0 La1 3.272624 1_544
