# generated using pymatgen
data_La2Fe14B
_symmetry_space_group_name_H-M   'P 1'
_cell_length_a   8.78969900
_cell_length_b   8.78969900
_cell_length_c   12.26178400
_cell_angle_alpha   90.00000000
_cell_angle_beta   90.00000000
_cell_angle_gamma   90.00000000
_symmetry_Int_Tables_number   1
_chemical_formula_structural   La2Fe14B
_chemical_formula_sum   'La8 Fe56 B4'
_cell_volume   947.33082205
_cell_formula_units_Z   4
loop_
 _symmetry_equiv_pos_site_id
 _symmetry_equiv_pos_as_xyz
  1  'x, y, z'
loop_
 _atom_site_type_symbol
 _atom_site_label
 _atom_site_symmetry_multiplicity
 _atom_site_fract_x
 _atom_site_fract_y
 _atom_site_fract_z
 _atom_site_occupancy
  La  La0  1  0.23139900  0.76860100  0.50000000  1
  La  La1  1  0.76860100  0.23139900  0.50000000  1
  La  La2  1  0.26860100  0.26860100  0.00000000  1
  La  La3  1  0.73139900  0.73139900  0.00000000  1
  La  La4  1  0.64102500  0.64102500  0.50000000  1
  La  La5  1  0.35897500  0.35897500  0.50000000  1
  La  La6  1  0.85897500  0.14102500  0.00000000  1
  La  La7  1  0.14102500  0.85897500  0.00000000  1
  Fe  Fe0  1  0.00000000  0.50000000  0.50000000  1
  Fe  Fe1  1  0.50000000  0.00000000  0.00000000  1
  Fe  Fe2  1  0.50000000  0.00000000  0.50000000  1
  Fe  Fe3  1  0.00000000  0.50000000  0.00000000  1
  Fe  Fe4  1  0.50000000  0.50000000  0.11347400  1
  Fe  Fe5  1  0.00000000  0.00000000  0.61347400  1
  Fe  Fe6  1  0.50000000  0.50000000  0.88652600  1
  Fe  Fe7  1  0.00000000  0.00000000  0.38652600  1
  Fe  Fe8  1  0.18183700  0.81816300  0.25420700  1
  Fe  Fe9  1  0.81816300  0.18183700  0.25420700  1
  Fe  Fe10  1  0.31816300  0.31816300  0.75420700  1
  Fe  Fe11  1  0.68183700  0.68183700  0.75420700  1
  Fe  Fe12  1  0.81816300  0.18183700  0.74579300  1
  Fe  Fe13  1  0.18183700  0.81816300  0.74579300  1
  Fe  Fe14  1  0.68183700  0.68183700  0.24579300  1
  Fe  Fe15  1  0.31816300  0.31816300  0.24579300  1
  Fe  Fe16  1  0.40183300  0.59816700  0.29237900  1
  Fe  Fe17  1  0.59816700  0.40183300  0.29237900  1
  Fe  Fe18  1  0.09816700  0.09816700  0.79237900  1
  Fe  Fe19  1  0.90183300  0.90183300  0.79237900  1
  Fe  Fe20  1  0.59816700  0.40183300  0.70762100  1
  Fe  Fe21  1  0.40183300  0.59816700  0.70762100  1
  Fe  Fe22  1  0.90183300  0.90183300  0.20762100  1
  Fe  Fe23  1  0.09816700  0.09816700  0.20762100  1
  Fe  Fe24  1  0.13935900  0.53709000  0.32297000  1
  Fe  Fe25  1  0.86064100  0.46291000  0.32297000  1
  Fe  Fe26  1  0.36064100  0.03709000  0.82297000  1
  Fe  Fe27  1  0.63935900  0.96291000  0.82297000  1
  Fe  Fe28  1  0.86064100  0.46291000  0.67703000  1
  Fe  Fe29  1  0.13935900  0.53709000  0.67703000  1
  Fe  Fe30  1  0.63935900  0.96291000  0.17703000  1
  Fe  Fe31  1  0.36064100  0.03709000  0.17703000  1
  Fe  Fe32  1  0.53709000  0.13935900  0.32297000  1
  Fe  Fe33  1  0.46291000  0.86064100  0.32297000  1
  Fe  Fe34  1  0.03709000  0.36064100  0.82297000  1
  Fe  Fe35  1  0.96291000  0.63935900  0.82297000  1
  Fe  Fe36  1  0.46291000  0.86064100  0.67703000  1
  Fe  Fe37  1  0.53709000  0.13935900  0.67703000  1
  Fe  Fe38  1  0.96291000  0.63935900  0.17703000  1
  Fe  Fe39  1  0.03709000  0.36064100  0.17703000  1
  Fe  Fe40  1  0.93162000  0.72455700  0.37223800  1
  Fe  Fe41  1  0.06838000  0.27544300  0.37223800  1
  Fe  Fe42  1  0.56838000  0.22455700  0.87223800  1
  Fe  Fe43  1  0.43162000  0.77544300  0.87223800  1
  Fe  Fe44  1  0.06838000  0.27544300  0.62776200  1
  Fe  Fe45  1  0.93162000  0.72455700  0.62776200  1
  Fe  Fe46  1  0.43162000  0.77544300  0.12776200  1
  Fe  Fe47  1  0.56838000  0.22455700  0.12776200  1
  Fe  Fe48  1  0.72455700  0.93162000  0.37223800  1
  Fe  Fe49  1  0.27544300  0.06838000  0.37223800  1
  Fe  Fe50  1  0.22455700  0.56838000  0.87223800  1
  Fe  Fe51  1  0.77544300  0.43162000  0.87223800  1
  Fe  Fe52  1  0.27544300  0.06838000  0.62776200  1
  Fe  Fe53  1  0.72455700  0.93162000  0.62776200  1
  Fe  Fe54  1  0.77544300  0.43162000  0.12776200  1
  Fe  Fe55  1  0.22455700  0.56838000  0.12776200  1
  B  B0  1  0.87660300  0.87660300  0.50000000  1
  B  B1  1  0.12339700  0.12339700  0.50000000  1
  B  B2  1  0.62339700  0.37660300  0.00000000  1
  B  B3  1  0.37660300  0.62339700  0.00000000  1
loop_
_geom_bond_atom_site_label_1
_geom_bond_atom_site_label_2
_geom_bond_distance
_geom_bond_site_symmetry_2
Fe0 Fe29 2.513697 1_555
Fe0 Fe24 2.513697 1_555
Fe0 Fe28 2.513697 1_455
Fe0 Fe25 2.513697 1_455
Fe0 Fe40 2.590616 1_455
Fe0 Fe41 2.590616 1_555
Fe0 Fe44 2.590616 1_555
Fe0 Fe45 2.590616 1_455
Fe0 La1 3.116218 1_455
Fe0 La0 3.116218 1_555
Fe0 La5 3.390034 1_555
Fe0 La4 3.390034 1_455
Fe1 Fe26 2.513697 1_554
Fe1 Fe31 2.513697 1_555
Fe1 Fe27 2.513697 1_544
Fe1 Fe30 2.513697 1_545
Fe1 Fe46 2.590616 1_545
Fe1 Fe47 2.590616 1_555
Fe1 Fe43 2.590616 1_544
Fe1 Fe42 2.590616 1_554
Fe1 La2 3.116218 1_555
Fe1 La3 3.116218 1_545
Fe1 La7 3.390034 1_545
Fe1 La6 3.390034 1_555
Fe2 Fe32 2.513697 1_555
Fe2 Fe37 2.513697 1_555
Fe2 Fe36 2.513697 1_545
Fe2 Fe33 2.513697 1_545
Fe2 Fe49 2.590616 1_555
Fe2 Fe48 2.590616 1_545
Fe2 Fe53 2.590616 1_545
Fe2 Fe52 2.590616 1_555
Fe2 La1 3.116218 1_555
Fe2 La0 3.116218 1_545
Fe2 La5 3.390034 1_555
Fe2 La4 3.390034 1_545
Fe3 Fe39 2.513697 1_555
Fe3 Fe34 2.513697 1_554
Fe3 Fe38 2.513697 1_455
Fe3 Fe35 2.513697 1_454
Fe3 Fe55 2.590616 1_555
Fe3 Fe54 2.590616 1_455
Fe3 Fe50 2.590616 1_554
Fe3 Fe51 2.590616 1_454
Fe3 La2 3.116218 1_555
Fe3 La3 3.116218 1_455
Fe3 La6 3.390034 1_455
Fe3 La7 3.390034 1_555
Fe4 La2 3.195262 1_555
Fe4 La3 3.195262 1_555
Fe5 La0 3.195262 1_545
Fe5 La1 3.195262 1_455
Fe6 La2 3.195262 1_556
Fe6 La3 3.195262 1_556
Fe7 Fe9 2.782351 1_455
Fe7 Fe8 2.782351 1_545
Fe7 La0 3.195262 1_545
Fe7 La1 3.195262 1_455
Fe8 La0 3.076185 1_555
Fe8 La7 3.158046 1_555
Fe9 La1 3.076185 1_555
Fe9 La6 3.158046 1_555
Fe10 Fe21 2.631431 1_555
Fe10 Fe20 2.631431 1_555
Fe10 Fe34 2.637029 1_555
Fe10 Fe26 2.637029 1_555
Fe10 Fe29 2.658666 1_555
Fe10 Fe37 2.658666 1_555
Fe10 Fe44 2.713883 1_555
Fe10 Fe52 2.713883 1_555
Fe10 Fe50 2.758369 1_555
Fe10 Fe42 2.758369 1_555
Fe10 Fe18 2.774429 1_555
Fe10 Fe6 2.782351 1_555
Fe10 La2 3.076185 1_556
Fe10 La5 3.158046 1_555
Fe11 Fe21 2.631431 1_555
Fe11 Fe20 2.631431 1_555
Fe11 Fe27 2.637029 1_555
Fe11 Fe35 2.637029 1_555
Fe11 Fe28 2.658666 1_555
Fe11 Fe36 2.658666 1_555
Fe11 Fe53 2.713883 1_555
Fe11 Fe45 2.713883 1_555
Fe11 Fe51 2.758369 1_555
Fe11 Fe43 2.758369 1_555
Fe11 Fe19 2.774429 1_555
Fe11 Fe6 2.782351 1_555
Fe11 La3 3.076185 1_556
Fe11 La4 3.158046 1_555
Fe12 Fe19 2.631431 1_545
Fe12 Fe18 2.631431 1_655
Fe12 Fe28 2.637029 1_555
Fe12 Fe37 2.637029 1_555
Fe12 Fe27 2.658666 1_545
Fe12 Fe34 2.658666 1_655
Fe12 Fe42 2.713883 1_555
Fe12 Fe51 2.713883 1_555
Fe12 Fe44 2.758369 1_655
Fe12 Fe53 2.758369 1_545
Fe12 Fe20 2.774429 1_555
Fe12 Fe5 2.782351 1_655
Fe12 La1 3.076185 1_555
Fe12 La6 3.158046 1_556
Fe13 Fe19 2.631431 1_455
Fe13 Fe18 2.631431 1_565
Fe13 Fe29 2.637029 1_555
Fe13 Fe36 2.637029 1_555
Fe13 Fe35 2.658666 1_455
Fe13 Fe26 2.658666 1_565
Fe13 Fe50 2.713883 1_555
Fe13 Fe43 2.713883 1_555
Fe13 Fe52 2.758369 1_565
Fe13 Fe45 2.758369 1_455
Fe13 Fe21 2.774429 1_555
Fe13 Fe5 2.782351 1_565
Fe13 La0 3.076185 1_555
Fe13 La7 3.158046 1_556
Fe14 Fe16 2.631431 1_555
Fe14 Fe17 2.631431 1_555
Fe14 Fe30 2.637029 1_555
Fe14 Fe38 2.637029 1_555
Fe14 Fe25 2.658666 1_555
Fe14 Fe33 2.658666 1_555
Fe14 Fe40 2.713883 1_555
Fe14 Fe48 2.713883 1_555
Fe14 Fe54 2.758369 1_555
Fe14 Fe46 2.758369 1_555
Fe14 Fe22 2.774429 1_555
Fe14 Fe4 2.782351 1_555
Fe14 La3 3.076185 1_555
Fe14 La4 3.158046 1_555
Fe15 Fe16 2.631431 1_555
Fe15 Fe17 2.631431 1_555
Fe15 Fe31 2.637029 1_555
Fe15 Fe39 2.637029 1_555
Fe15 Fe32 2.658666 1_555
Fe15 Fe24 2.658666 1_555
Fe15 Fe49 2.713883 1_555
Fe15 Fe41 2.713883 1_555
Fe15 Fe55 2.758369 1_555
Fe15 Fe47 2.758369 1_555
Fe15 Fe23 2.774429 1_555
Fe15 Fe4 2.782351 1_555
Fe15 La2 3.076185 1_555
Fe15 La5 3.158046 1_555
Fe16 Fe24 2.398222 1_555
Fe16 Fe33 2.398222 1_555
Fe16 Fe17 2.440532 1_555
Fe16 Fe4 2.510248 1_555
Fe16 Fe55 2.563373 1_555
Fe16 Fe46 2.563373 1_555
Fe16 Fe8 2.774429 1_555
Fe16 La0 3.312024 1_555
Fe16 La4 3.323134 1_555
Fe16 La5 3.323134 1_555
Fe17 Fe25 2.398222 1_555
Fe17 Fe32 2.398222 1_555
Fe17 Fe4 2.510248 1_555
Fe17 Fe47 2.563373 1_555
Fe17 Fe54 2.563373 1_555
Fe17 Fe9 2.774429 1_555
Fe17 La1 3.312024 1_555
Fe17 La4 3.323134 1_555
Fe17 La5 3.323134 1_555
Fe18 Fe26 2.398222 1_555
Fe18 Fe34 2.398222 1_555
Fe18 Fe19 2.440532 1_445
Fe18 Fe5 2.510248 1_555
Fe18 Fe44 2.563373 1_555
Fe18 Fe52 2.563373 1_555
Fe18 La2 3.312024 1_556
Fe18 La6 3.323134 1_456
Fe18 La7 3.323134 1_546
Fe19 Fe27 2.398222 1_555
Fe19 Fe35 2.398222 1_555
Fe19 Fe5 2.510248 1_665
Fe19 Fe53 2.563373 1_555
Fe19 Fe45 2.563373 1_555
Fe19 La3 3.312024 1_556
Fe19 La6 3.323134 1_566
Fe19 La7 3.323134 1_656
Fe20 Fe37 2.398222 1_555
Fe20 Fe28 2.398222 1_555
Fe20 Fe21 2.440532 1_555
Fe20 Fe6 2.510248 1_555
Fe20 Fe51 2.563373 1_555
Fe20 Fe42 2.563373 1_555
Fe20 La1 3.312024 1_555
Fe20 La4 3.323134 1_555
Fe20 La5 3.323134 1_555
Fe21 Fe29 2.398222 1_555
Fe21 Fe36 2.398222 1_555
Fe21 Fe6 2.510248 1_555
Fe21 Fe50 2.563373 1_555
Fe21 Fe43 2.563373 1_555
Fe21 La0 3.312024 1_555
Fe21 La4 3.323134 1_555
Fe21 La5 3.323134 1_555
Fe22 Fe30 2.398222 1_555
Fe22 Fe38 2.398222 1_555
Fe22 Fe23 2.440532 1_665
Fe22 Fe7 2.510248 1_665
Fe22 Fe48 2.563373 1_555
Fe22 Fe40 2.563373 1_555
Fe22 Fe8 2.631431 1_655
Fe22 Fe9 2.631431 1_565
Fe22 La3 3.312024 1_555
Fe22 La7 3.323134 1_655
Fe22 La6 3.323134 1_565
Fe23 Fe39 2.398222 1_555
Fe23 Fe31 2.398222 1_555
Fe23 Fe7 2.510248 1_555
Fe23 Fe49 2.563373 1_555
Fe23 Fe41 2.563373 1_555
Fe23 Fe9 2.631431 1_455
Fe23 Fe8 2.631431 1_545
Fe23 La2 3.312024 1_555
Fe23 La7 3.323134 1_545
Fe23 La6 3.323134 1_455
Fe24 Fe41 2.458304 1_555
Fe24 Fe55 2.523044 1_555
Fe24 Fe40 2.532641 1_455
Fe24 Fe39 2.532923 1_555
Fe24 Fe38 2.532923 1_455
Fe24 Fe25 2.535130 1_455
Fe24 Fe8 2.637029 1_555
Fe24 La0 3.083392 1_555
Fe24 La5 3.299889 1_555
Fe25 Fe40 2.458304 1_555
Fe25 Fe54 2.523044 1_555
Fe25 Fe41 2.532641 1_655
Fe25 Fe38 2.532923 1_555
Fe25 Fe39 2.532923 1_655
Fe25 Fe9 2.637029 1_555
Fe25 La1 3.083392 1_555
Fe25 La4 3.299889 1_555
Fe26 Fe43 2.458304 1_545
Fe26 Fe52 2.523044 1_555
Fe26 Fe42 2.532641 1_555
Fe26 Fe37 2.532923 1_555
Fe26 Fe36 2.532923 1_545
Fe26 Fe27 2.535130 1_545
Fe26 La2 3.083392 1_556
Fe26 La7 3.299889 1_546
Fe27 Fe42 2.458304 1_565
Fe27 Fe53 2.523044 1_555
Fe27 Fe43 2.532641 1_555
Fe27 Fe36 2.532923 1_555
Fe27 Fe37 2.532923 1_565
Fe27 La3 3.083392 1_556
Fe27 La6 3.299889 1_566
Fe28 Fe45 2.458304 1_555
Fe28 Fe51 2.523044 1_555
Fe28 Fe44 2.532641 1_655
Fe28 Fe34 2.532923 1_655
Fe28 Fe35 2.532923 1_555
Fe28 Fe29 2.535130 1_655
Fe28 La1 3.083392 1_555
Fe28 La4 3.299889 1_555
Fe29 Fe44 2.458304 1_555
Fe29 Fe50 2.523044 1_555
Fe29 Fe45 2.532641 1_455
Fe29 Fe34 2.532923 1_555
Fe29 Fe35 2.532923 1_455
Fe29 La0 3.083392 1_555
Fe29 La5 3.299889 1_555
Fe30 Fe47 2.458304 1_565
Fe30 Fe48 2.523044 1_555
Fe30 Fe46 2.532641 1_555
Fe30 Fe33 2.532923 1_555
Fe30 Fe32 2.532923 1_565
Fe30 Fe31 2.535130 1_565
Fe30 Fe9 2.658666 1_565
Fe30 La3 3.083392 1_555
Fe30 La6 3.299889 1_565
Fe31 Fe46 2.458304 1_545
Fe31 Fe49 2.523044 1_555
Fe31 Fe47 2.532641 1_555
Fe31 Fe33 2.532923 1_545
Fe31 Fe32 2.532923 1_555
Fe31 Fe8 2.658666 1_545
Fe31 La2 3.083392 1_555
Fe31 La7 3.299889 1_545
Fe32 Fe49 2.458304 1_555
Fe32 Fe47 2.523044 1_555
Fe32 Fe48 2.532641 1_545
Fe32 Fe33 2.535130 1_545
Fe32 Fe9 2.637029 1_555
Fe32 La1 3.083392 1_555
Fe32 La5 3.299889 1_555
Fe33 Fe48 2.458304 1_555
Fe33 Fe46 2.523044 1_555
Fe33 Fe49 2.532641 1_565
Fe33 Fe8 2.637029 1_555
Fe33 La0 3.083392 1_555
Fe33 La4 3.299889 1_555
Fe34 Fe51 2.458304 1_455
Fe34 Fe44 2.523044 1_555
Fe34 Fe50 2.532641 1_555
Fe34 Fe35 2.535130 1_455
Fe34 La2 3.083392 1_556
Fe34 La6 3.299889 1_456
Fe35 Fe50 2.458304 1_655
Fe35 Fe45 2.523044 1_555
Fe35 Fe51 2.532641 1_555
Fe35 La3 3.083392 1_556
Fe35 La7 3.299889 1_656
Fe36 Fe53 2.458304 1_555
Fe36 Fe43 2.523044 1_555
Fe36 Fe52 2.532641 1_565
Fe36 Fe37 2.535130 1_565
Fe36 La0 3.083392 1_555
Fe36 La4 3.299889 1_555
Fe37 Fe52 2.458304 1_555
Fe37 Fe42 2.523044 1_555
Fe37 Fe53 2.532641 1_545
Fe37 La1 3.083392 1_555
Fe37 La5 3.299889 1_555
Fe38 Fe55 2.458304 1_655
Fe38 Fe40 2.523044 1_555
Fe38 Fe54 2.532641 1_555
Fe38 Fe39 2.535130 1_655
Fe38 Fe8 2.658666 1_655
Fe38 La3 3.083392 1_555
Fe38 La7 3.299889 1_655
Fe39 Fe54 2.458304 1_455
Fe39 Fe41 2.523044 1_555
Fe39 Fe55 2.532641 1_555
Fe39 Fe9 2.658666 1_455
Fe39 La2 3.083392 1_555
Fe39 La6 3.299889 1_455
Fe40 Fe8 2.758369 1_655
Fe40 La4 3.085035 1_555
Fe40 La0 3.089843 1_655
Fe41 Fe9 2.758369 1_455
Fe41 La5 3.085035 1_555
Fe41 La1 3.089843 1_455
Fe42 La6 3.085035 1_556
Fe42 La2 3.089843 1_556
Fe43 La7 3.085035 1_556
Fe43 La3 3.089843 1_556
Fe44 La5 3.085035 1_555
Fe44 La1 3.089843 1_455
Fe45 La4 3.085035 1_555
Fe45 La0 3.089843 1_655
Fe46 Fe8 2.713883 1_555
Fe46 La7 3.085035 1_555
Fe46 La3 3.089843 1_555
Fe47 Fe9 2.713883 1_555
Fe47 La6 3.085035 1_555
Fe47 La2 3.089843 1_555
Fe48 Fe9 2.758369 1_565
Fe48 La4 3.085035 1_555
Fe48 La1 3.089843 1_565
Fe49 Fe8 2.758369 1_545
Fe49 La5 3.085035 1_555
Fe49 La0 3.089843 1_545
Fe50 La7 3.085035 1_556
Fe50 La2 3.089843 1_556
Fe51 La6 3.085035 1_556
Fe51 La3 3.089843 1_556
Fe52 La5 3.085035 1_555
Fe52 La0 3.089843 1_545
Fe53 La4 3.085035 1_555
Fe53 La1 3.089843 1_565
Fe54 Fe9 2.713883 1_555
Fe54 La6 3.085035 1_555
Fe54 La3 3.089843 1_555
Fe55 Fe8 2.713883 1_555
Fe55 La7 3.085035 1_555
Fe55 La2 3.089843 1_555
B0 Fe5 2.070939 1_665
B0 Fe7 2.070939 1_665
B0 Fe40 2.115213 1_555
B0 Fe48 2.115213 1_555
B0 Fe45 2.115213 1_555
B0 Fe53 2.115213 1_555
B0 La4 2.928355 1_555
B0 La0 3.259837 1_655
B0 La1 3.259837 1_565
B1 Fe5 2.070939 1_555
B1 Fe7 2.070939 1_555
B1 Fe41 2.115213 1_555
B1 Fe49 2.115213 1_555
B1 Fe52 2.115213 1_555
B1 Fe44 2.115213 1_555
B1 La5 2.928355 1_555
B1 La0 3.259837 1_545
B1 La1 3.259837 1_455
B2 Fe6 2.070939 1_554
B2 Fe4 2.070939 1_555
B2 Fe47 2.115213 1_555
B2 Fe54 2.115213 1_555
B2 Fe42 2.115213 1_554
B2 Fe51 2.115213 1_554
B2 La6 2.928355 1_555
B2 La2 3.259837 1_555
B2 La3 3.259837 1_555
B3 Fe6 2.070939 1_554
B3 Fe4 2.070939 1_555
B3 Fe46 2.115213 1_555
B3 Fe55 2.115213 1_555
B3 Fe43 2.115213 1_554
B3 Fe50 2.115213 1_554
B3 La7 2.928355 1_555
B3 La2 3.259837 1_555
B3 La3 3.259837 1_555
