# generated using pymatgen
data_TbGa3(BO3)4
_symmetry_space_group_name_H-M   'P 1'
_cell_length_a   6.06376141
_cell_length_b   6.06376141
_cell_length_c   6.06376111
_cell_angle_alpha   104.01177330
_cell_angle_beta   104.01177330
_cell_angle_gamma   104.01178159
_symmetry_Int_Tables_number   1
_chemical_formula_structural   TbGa3(BO3)4
_chemical_formula_sum   'Tb1 Ga3 B4 O12'
_cell_volume   198.89003663
_cell_formula_units_Z   1
loop_
 _symmetry_equiv_pos_site_id
 _symmetry_equiv_pos_as_xyz
  1  'x, y, z'
loop_
 _atom_site_type_symbol
 _atom_site_label
 _atom_site_symmetry_multiplicity
 _atom_site_fract_x
 _atom_site_fract_y
 _atom_site_fract_z
 _atom_site_occupancy
  Tb  Tb0  1  0.50000000  0.50000000  0.50000000  1
  Ga  Ga0  1  0.04816100  0.95183900  0.50000000  1
  Ga  Ga1  1  0.95183900  0.50000000  0.04816100  1
  Ga  Ga2  1  0.50000000  0.04816100  0.95183900  1
  B  B0  1  0.44973500  0.55026500  0.00000000  1
  B  B1  1  0.55026500  0.00000000  0.44973500  1
  B  B2  1  0.00000000  0.44973500  0.55026500  1
  B  B3  1  0.00000000  0.00000000  0.00000000  1
  O  O0  1  0.29231900  0.52467400  0.12975400  1
  O  O1  1  0.52467400  0.12975400  0.29231900  1
  O  O2  1  0.70768100  0.87024600  0.47532600  1
  O  O3  1  0.12975400  0.29231900  0.52467400  1
  O  O4  1  0.47532600  0.70768100  0.87024600  1
  O  O5  1  0.87024600  0.47532600  0.70768100  1
  O  O6  1  0.85501200  0.14498800  0.00000000  1
  O  O7  1  0.14498800  0.00000000  0.85501200  1
  O  O8  1  0.00000000  0.85501200  0.14498800  1
  O  O9  1  0.59436300  0.40563700  0.00000000  1
  O  O10  1  0.40563700  0.00000000  0.59436300  1
  O  O11  1  0.00000000  0.59436300  0.40563700  1
loop_
_geom_bond_atom_site_label_1
_geom_bond_atom_site_label_2
_geom_bond_distance
_geom_bond_site_symmetry_2
Ga0 O2 1.962048 1_455
Ga0 O3 1.962048 1_565
Ga0 O7 2.016099 1_565
Ga0 O8 2.016099 1_555
Ga0 O10 2.030596 1_565
Ga0 O11 2.030596 1_555
Ga1 O5 1.962048 1_554
Ga1 O0 1.962048 1_655
Ga1 O6 2.016099 1_555
Ga1 O8 2.016099 1_655
Ga1 O11 2.030596 1_655
Ga1 O9 2.030596 1_555
Ga2 O1 1.962048 1_556
Ga2 O4 1.962048 1_545
Ga2 O6 2.016099 1_556
Ga2 O7 2.016099 1_555
Ga2 O10 2.030596 1_555
Ga2 O9 2.030596 1_556
B0 O0 1.380339 1_555
B0 O4 1.380339 1_554
B0 O9 1.382266 1_555
B1 O1 1.380339 1_555
B1 O2 1.380340 1_545
B1 O10 1.382266 1_555
B2 O5 1.380339 1_455
B2 O3 1.380340 1_555
B2 O11 1.382266 1_555
B3 O8 1.385706 1_545
B3 O7 1.385706 1_554
B3 O6 1.385706 1_455
O0 Tb0 2.352338 1_555
O1 Tb0 2.352338 1_555
O2 Tb0 2.352338 1_555
O3 Tb0 2.352338 1_555
O4 Tb0 2.352338 1_555
O5 Tb0 2.352338 1_555
