# generated using pymatgen
data_K2Fe2SeS3
_symmetry_space_group_name_H-M   'P 1'
_cell_length_a   5.45218256
_cell_length_b   6.68242367
_cell_length_c   6.69702897
_cell_angle_alpha   116.07857186
_cell_angle_beta   101.02191780
_cell_angle_gamma   101.88592719
_symmetry_Int_Tables_number   1
_chemical_formula_structural   K2Fe2SeS3
_chemical_formula_sum   'K2 Fe2 Se1 S3'
_cell_volume   203.14305797
_cell_formula_units_Z   1
loop_
 _symmetry_equiv_pos_site_id
 _symmetry_equiv_pos_as_xyz
  1  'x, y, z'
loop_
 _atom_site_type_symbol
 _atom_site_label
 _atom_site_symmetry_multiplicity
 _atom_site_fract_x
 _atom_site_fract_y
 _atom_site_fract_z
 _atom_site_occupancy
  K  K0  1  0.24475200  0.36073100  0.64035000  1
  K  K1  1  0.74468400  0.63409000  0.35116700  1
  Fe  Fe0  1  0.24878000  0.99637900  0.00941200  1
  Fe  Fe1  1  0.75691700  0.00616700  0.00267500  1
  Se  Se0  1  0.40125200  0.91438300  0.68599000  1
  S  S0  1  0.10440200  0.29699400  0.09458200  1
  S  S1  1  0.59782100  0.08553800  0.29495000  1
  S  S2  1  0.90139200  0.70571700  0.92087400  1
loop_
_geom_bond_atom_site_label_1
_geom_bond_atom_site_label_2
_geom_bond_distance
_geom_bond_site_symmetry_2
K0 Se0 3.386457 1_545
K0 S0 3.399084 1_555
K0 S1 3.412023 1_455
K0 S2 3.415168 1_455
K0 S1 3.443680 1_555
K0 S2 3.447011 1_555
K0 S0 3.451914 1_556
K0 Se0 3.480687 1_555
K1 S2 3.353933 1_554
K1 S0 3.358188 1_555
K1 Se0 3.376368 1_555
K1 S0 3.402764 1_655
K1 S1 3.417927 1_555
K1 S1 3.429598 1_565
K1 Se0 3.439027 1_655
K1 S2 3.534889 1_555
Fe0 S2 2.180400 1_454
Fe0 S1 2.184723 1_565
Fe0 S0 2.189993 1_565
Fe0 Se0 2.348485 1_554
Fe1 S0 2.175045 1_655
Fe1 S1 2.188836 1_555
Fe1 S2 2.191124 1_544
Fe1 Se0 2.329880 1_544
