# generated using pymatgen
data_Zr2CuRe
_symmetry_space_group_name_H-M   'P 1'
_cell_length_a   4.67030311
_cell_length_b   4.67030311
_cell_length_c   4.67030311
_cell_angle_alpha   60.00000000
_cell_angle_beta   60.00000000
_cell_angle_gamma   60.00000000
_symmetry_Int_Tables_number   1
_chemical_formula_structural   Zr2CuRe
_chemical_formula_sum   'Zr2 Cu1 Re1'
_cell_volume   72.03112638
_cell_formula_units_Z   1
loop_
 _symmetry_equiv_pos_site_id
 _symmetry_equiv_pos_as_xyz
  1  'x, y, z'
loop_
 _atom_site_type_symbol
 _atom_site_label
 _atom_site_symmetry_multiplicity
 _atom_site_fract_x
 _atom_site_fract_y
 _atom_site_fract_z
 _atom_site_occupancy
  Zr  Zr0  1  0.25000000  0.25000000  0.25000000  1
  Zr  Zr1  1  0.75000000  0.75000000  0.75000000  1
  Cu  Cu0  1  0.50000000  0.50000000  0.50000000  1
  Re  Re0  1  0.00000000  0.00000000  0.00000000  1
loop_
_geom_bond_atom_site_label_1
_geom_bond_atom_site_label_2
_geom_bond_distance
_geom_bond_site_symmetry_2
Cu0 Zr1 2.859965 1_555
Cu0 Zr1 2.859965 1_455
Cu0 Zr0 2.859965 1_555
Cu0 Zr0 2.859965 1_556
Cu0 Zr1 2.859965 1_554
Cu0 Zr1 2.859965 1_545
Cu0 Zr0 2.859965 1_655
Cu0 Zr0 2.859965 1_565
Re0 Zr0 2.859965 1_455
Re0 Zr1 2.859965 1_445
Re0 Zr1 2.859965 1_544
Re0 Zr0 2.859965 1_555
Re0 Zr0 2.859965 1_554
Re0 Zr1 2.859965 1_454
Re0 Zr1 2.859965 1_444
Re0 Zr0 2.859965 1_545
