# generated using pymatgen
data_Mg14MnSnO16
_symmetry_space_group_name_H-M   'P 1'
_cell_length_a   8.70360300
_cell_length_b   8.70360300
_cell_length_c   4.38117800
_cell_angle_alpha   90.00000000
_cell_angle_beta   90.00000000
_cell_angle_gamma   90.00000000
_symmetry_Int_Tables_number   1
_chemical_formula_structural   Mg14MnSnO16
_chemical_formula_sum   'Mg14 Mn1 Sn1 O16'
_cell_volume   331.88608538
_cell_formula_units_Z   1
loop_
 _symmetry_equiv_pos_site_id
 _symmetry_equiv_pos_as_xyz
  1  'x, y, z'
loop_
 _atom_site_type_symbol
 _atom_site_label
 _atom_site_symmetry_multiplicity
 _atom_site_fract_x
 _atom_site_fract_y
 _atom_site_fract_z
 _atom_site_occupancy
  Mg  Mg0  1  0.50000000  0.00000000  0.00000000  1
  Mg  Mg1  1  0.00000000  0.50000000  0.00000000  1
  Mg  Mg2  1  0.25079000  0.00000000  0.50000000  1
  Mg  Mg3  1  0.74921000  0.00000000  0.50000000  1
  Mg  Mg4  1  0.24096400  0.50000000  0.50000000  1
  Mg  Mg5  1  0.75903600  0.50000000  0.50000000  1
  Mg  Mg6  1  0.00000000  0.25079000  0.50000000  1
  Mg  Mg7  1  0.50000000  0.24096400  0.50000000  1
  Mg  Mg8  1  0.00000000  0.74921000  0.50000000  1
  Mg  Mg9  1  0.50000000  0.75903600  0.50000000  1
  Mg  Mg10  1  0.24641100  0.24641100  0.00000000  1
  Mg  Mg11  1  0.75358900  0.24641100  0.00000000  1
  Mg  Mg12  1  0.24641100  0.75358900  0.00000000  1
  Mg  Mg13  1  0.75358900  0.75358900  0.00000000  1
  Mn  Mn0  1  0.00000000  0.00000000  0.00000000  1
  Sn  Sn0  1  0.50000000  0.50000000  0.00000000  1
  O  O0  1  0.00000000  0.25340400  0.00000000  1
  O  O1  1  0.50000000  0.22890700  0.00000000  1
  O  O2  1  0.00000000  0.74659600  0.00000000  1
  O  O3  1  0.50000000  0.77109300  0.00000000  1
  O  O4  1  0.24993500  0.24993500  0.50000000  1
  O  O5  1  0.75006500  0.24993500  0.50000000  1
  O  O6  1  0.24993500  0.75006500  0.50000000  1
  O  O7  1  0.75006500  0.75006500  0.50000000  1
  O  O8  1  0.00000000  0.00000000  0.50000000  1
  O  O9  1  0.50000000  0.00000000  0.50000000  1
  O  O10  1  0.00000000  0.50000000  0.50000000  1
  O  O11  1  0.50000000  0.50000000  0.50000000  1
  O  O12  1  0.25340400  0.00000000  0.00000000  1
  O  O13  1  0.74659600  0.00000000  0.00000000  1
  O  O14  1  0.22890700  0.50000000  0.00000000  1
  O  O15  1  0.77109300  0.50000000  0.00000000  1
loop_
_geom_bond_atom_site_label_1
_geom_bond_atom_site_label_2
_geom_bond_distance
_geom_bond_site_symmetry_2
Mg0 O1 1.992316 1_555
Mg0 O3 1.992316 1_545
Mg0 O13 2.146274 1_555
Mg0 O12 2.146274 1_555
Mg0 O9 2.190589 1_555
Mg0 O9 2.190589 1_554
Mg1 O14 1.992316 1_555
Mg1 O15 1.992316 1_455
Mg1 O2 2.146274 1_555
Mg1 O0 2.146274 1_555
Mg1 O10 2.190589 1_554
Mg1 O10 2.190589 1_555
Mg2 O9 2.169025 1_555
Mg2 O4 2.175348 1_555
Mg2 O6 2.175348 1_545
Mg2 O8 2.182777 1_555
Mg2 O12 2.190707 1_555
Mg2 O12 2.190707 1_556
Mg3 O9 2.169025 1_555
Mg3 O5 2.175348 1_555
Mg3 O7 2.175348 1_545
Mg3 O8 2.182777 1_655
Mg3 O13 2.190707 1_556
Mg3 O13 2.190707 1_555
Mg4 O10 2.097255 1_555
Mg4 O4 2.177867 1_555
Mg4 O6 2.177867 1_555
Mg4 O14 2.193101 1_556
Mg4 O14 2.193101 1_555
Mg4 O11 2.254547 1_555
Mg5 O10 2.097255 1_655
Mg5 O7 2.177867 1_555
Mg5 O5 2.177867 1_555
Mg5 O15 2.193101 1_556
Mg5 O15 2.193101 1_555
Mg5 O11 2.254547 1_555
Mg6 O10 2.169025 1_555
Mg6 O4 2.175348 1_555
Mg6 O5 2.175348 1_455
Mg6 O8 2.182777 1_555
Mg6 O0 2.190707 1_555
Mg6 O0 2.190707 1_556
Mg7 O9 2.097255 1_555
Mg7 O4 2.177867 1_555
Mg7 O5 2.177867 1_555
Mg7 O1 2.193101 1_555
Mg7 O1 2.193101 1_556
Mg7 O11 2.254547 1_555
Mg8 O10 2.169025 1_555
Mg8 O6 2.175348 1_555
Mg8 O7 2.175348 1_455
Mg8 O8 2.182777 1_565
Mg8 O2 2.190707 1_555
Mg8 O2 2.190707 1_556
Mg9 O9 2.097255 1_565
Mg9 O7 2.177867 1_555
Mg9 O6 2.177867 1_555
Mg9 O3 2.193101 1_556
Mg9 O3 2.193101 1_555
Mg9 O11 2.254547 1_555
Mg10 O0 2.145527 1_555
Mg10 O12 2.145527 1_555
Mg10 O4 2.191018 1_554
Mg10 O4 2.191018 1_555
Mg10 O1 2.212390 1_555
Mg10 O14 2.212390 1_555
Mg11 O13 2.145527 1_555
Mg11 O0 2.145527 1_655
Mg11 O5 2.191018 1_554
Mg11 O5 2.191018 1_555
Mg11 O1 2.212390 1_555
Mg11 O15 2.212390 1_555
Mg12 O2 2.145527 1_555
Mg12 O12 2.145527 1_565
Mg12 O6 2.191018 1_554
Mg12 O6 2.191018 1_555
Mg12 O3 2.212390 1_555
Mg12 O14 2.212390 1_555
Mg13 O13 2.145527 1_565
Mg13 O2 2.145527 1_655
Mg13 O7 2.191018 1_554
Mg13 O7 2.191018 1_555
Mg13 O15 2.212390 1_555
Mg13 O3 2.212390 1_555
Mn0 O8 2.190589 1_554
Mn0 O8 2.190589 1_555
Mn0 O0 2.205528 1_555
Mn0 O12 2.205528 1_555
Mn0 O13 2.205528 1_455
Mn0 O2 2.205528 1_545
O1 Sn0 2.359486 1_555
O3 Sn0 2.359486 1_555
O11 Sn0 2.190589 1_555
O11 Sn0 2.190589 1_556
O14 Sn0 2.359486 1_555
O15 Sn0 2.359486 1_555
