# generated using pymatgen
data_NaYTiO4
_symmetry_space_group_name_H-M   'P 1'
_cell_length_a   5.30364800
_cell_length_b   5.43983200
_cell_length_c   12.47126600
_cell_angle_alpha   90.00000000
_cell_angle_beta   90.00000000
_cell_angle_gamma   90.00000000
_symmetry_Int_Tables_number   1
_chemical_formula_structural   NaYTiO4
_chemical_formula_sum   'Na4 Y4 Ti4 O16'
_cell_volume   359.80792302
_cell_formula_units_Z   4
loop_
 _symmetry_equiv_pos_site_id
 _symmetry_equiv_pos_as_xyz
  1  'x, y, z'
loop_
 _atom_site_type_symbol
 _atom_site_label
 _atom_site_symmetry_multiplicity
 _atom_site_fract_x
 _atom_site_fract_y
 _atom_site_fract_z
 _atom_site_occupancy
  Na  Na0  1  0.75000000  0.99834900  0.58657200  1
  Na  Na1  1  0.75000000  0.49834900  0.41342800  1
  Na  Na2  1  0.25000000  0.00165100  0.41342800  1
  Na  Na3  1  0.25000000  0.50165100  0.58657200  1
  Y  Y0  1  0.75000000  0.97470400  0.89391900  1
  Y  Y1  1  0.75000000  0.47470400  0.10608100  1
  Y  Y2  1  0.25000000  0.52529600  0.89391900  1
  Y  Y3  1  0.25000000  0.02529600  0.10608100  1
  Ti  Ti0  1  0.25000000  0.00864300  0.73753700  1
  Ti  Ti1  1  0.75000000  0.49135700  0.73753700  1
  Ti  Ti2  1  0.25000000  0.50864300  0.26246300  1
  Ti  Ti3  1  0.75000000  0.99135700  0.26246300  1
  O  O0  1  0.25000000  0.54896200  0.40236700  1
  O  O1  1  0.75000000  0.45103800  0.59763300  1
  O  O2  1  0.25000000  0.04896200  0.59763300  1
  O  O3  1  0.75000000  0.95103800  0.40236700  1
  O  O4  1  0.25000000  0.42765900  0.06395400  1
  O  O5  1  0.75000000  0.57234100  0.93604600  1
  O  O6  1  0.25000000  0.92765900  0.93604600  1
  O  O7  1  0.75000000  0.07234100  0.06395400  1
  O  O8  1  0.50000000  0.75000000  0.75645900  1
  O  O9  1  0.00000000  0.25000000  0.24354100  1
  O  O10  1  0.50000000  0.25000000  0.24354100  1
  O  O11  1  0.00000000  0.75000000  0.75645900  1
  O  O12  1  0.00000000  0.75000000  0.21046900  1
  O  O13  1  0.50000000  0.25000000  0.78953100  1
  O  O14  1  0.00000000  0.25000000  0.78953100  1
  O  O15  1  0.50000000  0.75000000  0.21046900  1
loop_
_geom_bond_atom_site_label_1
_geom_bond_atom_site_label_2
_geom_bond_distance
_geom_bond_site_symmetry_2
Na0 O3 2.311641 1_555
Na0 O1 2.466413 1_565
Na0 O2 2.669645 1_665
Na0 O2 2.669645 1_565
Na0 O8 2.841143 1_555
Na0 O11 2.841143 1_655
Na0 O1 2.980474 1_555
Na1 O1 2.311641 1_555
Na1 O3 2.466413 1_555
Na1 O0 2.669645 1_555
Na1 O0 2.669645 1_655
Na1 O9 2.841143 1_655
Na1 O10 2.841143 1_555
Na1 O3 2.980474 1_545
Na2 O2 2.311641 1_555
Na2 O0 2.466413 1_545
Na2 O3 2.669645 1_445
Na2 O3 2.669645 1_545
Na2 O9 2.841143 1_555
Na2 O10 2.841143 1_555
Na2 O0 2.980474 1_555
Na3 O0 2.311641 1_555
Na3 O2 2.466413 1_555
Na3 O1 2.669645 1_555
Na3 O1 2.669645 1_455
Na3 O11 2.841143 1_555
Na3 O8 2.841143 1_555
Na3 O2 2.980474 1_565
O0 Ti2 1.758511 1_555
O1 Ti1 1.758511 1_555
O2 Ti0 1.758511 1_555
O3 Ti3 1.758511 1_555
O4 Y2 2.186055 1_554
O4 Y3 2.250958 1_555
O4 Ti2 2.514550 1_555
O4 Y1 2.715453 1_555
O4 Y1 2.715453 1_455
O5 Y1 2.186055 1_556
O5 Y0 2.250958 1_555
O5 Ti1 2.514550 1_555
O5 Y2 2.715453 1_555
O5 Y2 2.715453 1_655
O6 Y3 2.186055 1_566
O6 Y2 2.250958 1_555
O6 Ti0 2.514550 1_565
O6 Y0 2.715453 1_455
O6 Y0 2.715453 1_555
O7 Y0 2.186055 1_544
O7 Y1 2.250958 1_555
O7 Ti3 2.514550 1_545
O7 Y3 2.715453 1_655
O7 Y3 2.715453 1_555
O8 Ti0 1.947641 1_565
O8 Ti1 1.947641 1_555
O8 Y0 2.488174 1_555
O8 Y2 2.488174 1_555
O9 Ti2 1.947641 1_555
O9 Ti3 1.947641 1_445
O9 Y1 2.488174 1_455
O9 Y3 2.488174 1_555
O10 Ti2 1.947641 1_555
O10 Ti3 1.947641 1_545
O10 Y1 2.488174 1_555
O10 Y3 2.488174 1_555
O11 Ti0 1.947641 1_565
O11 Ti1 1.947641 1_455
O11 Y0 2.488174 1_455
O11 Y2 2.488174 1_555
O12 Ti3 1.975429 1_455
O12 Ti2 1.975429 1_555
O12 Y3 2.386536 1_565
O12 Y1 2.386536 1_455
O13 Ti0 1.975429 1_555
O13 Ti1 1.975429 1_555
O13 Y2 2.386536 1_555
O13 Y0 2.386536 1_545
O14 Ti1 1.975429 1_455
O14 Ti0 1.975429 1_555
O14 Y2 2.386536 1_555
O14 Y0 2.386536 1_445
O15 Ti3 1.975429 1_555
O15 Ti2 1.975429 1_555
O15 Y3 2.386536 1_565
O15 Y1 2.386536 1_555
