# generated using pymatgen
data_Li9Mn2Co5O16
_symmetry_space_group_name_H-M   'P 1'
_cell_length_a   5.67747430
_cell_length_b   5.62054700
_cell_length_c   8.00827344
_cell_angle_alpha   89.99620647
_cell_angle_beta   91.19996473
_cell_angle_gamma   90.00150535
_symmetry_Int_Tables_number   1
_chemical_formula_structural   Li9Mn2Co5O16
_chemical_formula_sum   'Li9 Mn2 Co5 O16'
_cell_volume   255.49205569
_cell_formula_units_Z   1
loop_
 _symmetry_equiv_pos_site_id
 _symmetry_equiv_pos_as_xyz
  1  'x, y, z'
loop_
 _atom_site_type_symbol
 _atom_site_label
 _atom_site_symmetry_multiplicity
 _atom_site_fract_x
 _atom_site_fract_y
 _atom_site_fract_z
 _atom_site_occupancy
  Li  Li0  1  0.50000000  0.00000000  -0.00000000  1
  Li  Li1  1  0.24430907  0.74189053  0.76255517  1
  Li  Li2  1  0.75550631  0.74225491  0.23764808  1
  Li  Li3  1  0.50000000  0.50000000  -0.00000000  1
  Li  Li4  1  0.00000000  0.50000000  0.50000000  1
  Li  Li5  1  0.75569093  0.25810947  0.23744483  1
  Li  Li6  1  0.24449369  0.25774509  0.76235192  1
  Li  Li7  1  0.00000000  0.00000000  0.50000000  1
  Li  Li8  1  0.00000000  0.50000000  -0.00000000  1
  Mn  Mn0  1  0.00000000  0.00000000  -0.00000000  1
  Mn  Mn1  1  0.50000000  0.50000000  0.50000000  1
  Co  Co0  1  0.75235189  0.74882254  0.75177147  1
  Co  Co1  1  0.24764811  0.25117746  0.24822853  1
  Co  Co2  1  0.75234107  0.25134288  0.75176775  1
  Co  Co3  1  0.50000000  0.00000000  0.50000000  1
  Co  Co4  1  0.24765893  0.74865712  0.24823225  1
  O  O0  1  0.23803537  0.23745954  0.01127457  1
  O  O1  1  0.98203959  0.00004937  0.76008725  1
  O  O2  1  0.47925082  -0.00005180  0.26277661  1
  O  O3  1  0.23810992  0.76261790  0.01129441  1
  O  O4  1  0.72838678  0.74886346  0.50793985  1
  O  O5  1  0.48124490  0.49993665  0.26143341  1
  O  O6  1  0.97729987  0.50005310  0.74657512  1
  O  O7  1  0.72837926  0.25118111  0.50796097  1
  O  O8  1  0.76196463  0.76254046  0.98872543  1
  O  O9  1  0.51875510  0.50006335  0.73856659  1
  O  O10  1  0.02270013  0.49994690  0.25342488  1
  O  O11  1  0.76189008  0.23738210  0.98870559  1
  O  O12  1  0.27161322  0.25113654  0.49206015  1
  O  O13  1  0.01796041  -0.00004937  0.23991275  1
  O  O14  1  0.52074918  0.00005180  0.73722339  1
  O  O15  1  0.27162074  0.74881889  0.49203903  1
loop_
_geom_bond_atom_site_label_1
_geom_bond_atom_site_label_2
_geom_bond_distance
_geom_bond_site_symmetry_2
Li0 O11 2.001156 1_554
Li0 O3 2.001156 1_545
Li0 O0 2.001811 1_555
Li0 O8 2.001811 1_544
Li0 O14 2.110143 1_554
Li0 O2 2.110143 1_555
Li1 O3 1.996429 1_556
Li1 O6 2.038092 1_455
Li1 O1 2.078907 1_465
Li1 O9 2.079634 1_555
Li1 O14 2.150122 1_565
Li1 O15 2.175492 1_555
Li2 O8 1.997794 1_554
Li2 O10 2.040600 1_655
Li2 O13 2.077800 1_665
Li2 O5 2.080408 1_555
Li2 O2 2.147476 1_565
Li2 O4 2.173573 1_555
Li3 O0 2.098370 1_555
Li3 O8 2.098370 1_554
Li3 O3 2.098448 1_555
Li3 O11 2.098448 1_554
Li3 O9 2.098562 1_554
Li3 O5 2.098562 1_555
Li4 O10 1.981534 1_555
Li4 O6 1.981534 1_455
Li4 O15 2.083744 1_555
Li4 O7 2.083744 1_455
Li4 O12 2.083933 1_555
Li4 O4 2.083933 1_455
Li5 O11 1.996429 1_554
Li5 O10 2.038092 1_655
Li5 O13 2.078907 1_655
Li5 O5 2.079634 1_555
Li5 O2 2.150122 1_555
Li5 O7 2.175492 1_555
Li6 O0 1.997794 1_556
Li6 O6 2.040600 1_455
Li6 O1 2.077800 1_455
Li6 O9 2.080408 1_555
Li6 O14 2.147476 1_555
Li6 O12 2.173573 1_555
Li7 O13 2.087476 1_555
Li7 O1 2.087476 1_455
Li7 O4 2.092469 1_445
Li7 O12 2.092469 1_555
Li7 O7 2.092738 1_455
Li7 O15 2.092738 1_545
Li8 O8 2.001743 1_454
Li8 O0 2.001743 1_555
Li8 O3 2.002311 1_555
Li8 O11 2.002311 1_454
Li8 O6 2.030888 1_454
Li8 O10 2.030888 1_555
Mn0 O0 1.900171 1_555
Mn0 O8 1.900171 1_444
Mn0 O11 1.900213 1_454
Mn0 O3 1.900213 1_545
Mn0 O13 1.921857 1_555
Mn0 O1 1.921857 1_454
Mn1 O15 1.907275 1_555
Mn1 O7 1.907275 1_555
Mn1 O12 1.907441 1_555
Mn1 O4 1.907441 1_555
Mn1 O5 1.911244 1_555
Mn1 O9 1.911244 1_555
Co0 O6 1.894771 1_555
Co0 O8 1.898805 1_555
Co0 O1 1.922260 1_565
Co0 O9 1.928471 1_555
Co0 O14 1.931351 1_565
Co0 O4 1.954560 1_555
Co1 O10 1.894771 1_555
Co1 O0 1.898805 1_555
Co1 O13 1.922260 1_555
Co1 O5 1.928471 1_555
Co1 O2 1.931351 1_555
Co1 O12 1.954560 1_555
Co2 O6 1.894512 1_555
Co2 O11 1.898719 1_555
Co2 O1 1.922622 1_555
Co2 O9 1.928311 1_555
Co2 O14 1.931523 1_555
Co2 O7 1.954361 1_555
Co3 O2 1.900935 1_555
Co3 O14 1.900935 1_555
Co3 O4 1.916873 1_545
Co3 O12 1.916873 1_555
Co3 O7 1.916988 1_555
Co3 O15 1.916988 1_545
Co4 O10 1.894512 1_555
Co4 O3 1.898719 1_555
Co4 O13 1.922622 1_565
Co4 O5 1.928311 1_555
Co4 O2 1.931523 1_565
Co4 O15 1.954361 1_555
