# generated using pymatgen
data_Li4Ti3V3(NiO8)2
_symmetry_space_group_name_H-M   'P 1'
_cell_length_a   5.89982661
_cell_length_b   5.89982661
_cell_length_c   9.69622433
_cell_angle_alpha   89.52747633
_cell_angle_beta   89.52747633
_cell_angle_gamma   60.37576513
_symmetry_Int_Tables_number   1
_chemical_formula_structural   Li4Ti3V3(NiO8)2
_chemical_formula_sum   'Li4 Ti3 V3 Ni2 O16'
_cell_volume   293.37562715
_cell_formula_units_Z   1
loop_
 _symmetry_equiv_pos_site_id
 _symmetry_equiv_pos_as_xyz
  1  'x, y, z'
loop_
 _atom_site_type_symbol
 _atom_site_label
 _atom_site_symmetry_multiplicity
 _atom_site_fract_x
 _atom_site_fract_y
 _atom_site_fract_z
 _atom_site_occupancy
  Li  Li0  1  0.33748400  0.33748400  0.10895800  1
  Li  Li1  1  0.00256900  0.00256900  0.00143900  1
  Li  Li2  1  0.00678400  0.00678400  0.50109600  1
  Li  Li3  1  0.66923400  0.66923400  0.60780600  1
  Ti  Ti0  1  0.65876900  0.16808400  0.78392800  1
  Ti  Ti1  1  0.16808400  0.65876900  0.78392800  1
  Ti  Ti2  1  0.82945900  0.82945900  0.27741200  1
  V  V0  1  0.16850900  0.16850900  0.78979000  1
  V  V1  1  0.33363100  0.83319300  0.28872900  1
  V  V2  1  0.83319300  0.33363100  0.28872900  1
  Ni  Ni0  1  0.33466800  0.33466800  0.51056400  1
  Ni  Ni1  1  0.66685900  0.66685900  0.01075500  1
  O  O0  1  0.68370500  0.17236700  0.39328100  1
  O  O1  1  0.48487300  0.48487300  0.66919400  1
  O  O2  1  0.33714100  0.33714100  0.89718300  1
  O  O3  1  0.00195200  0.00195200  0.68533500  1
  O  O4  1  0.00300000  0.00300000  0.18548900  1
  O  O5  1  0.17236700  0.68370500  0.39328100  1
  O  O6  1  0.48638200  0.03986200  0.66793300  1
  O  O7  1  0.03986200  0.48638200  0.66793300  1
  O  O8  1  0.84246800  0.84246800  0.89485300  1
  O  O9  1  0.16512400  0.16512400  0.39118000  1
  O  O10  1  0.96598400  0.52119400  0.17145400  1
  O  O11  1  0.52119400  0.96598400  0.17145400  1
  O  O12  1  0.67197300  0.67197300  0.39601500  1
  O  O13  1  0.83917400  0.32559300  0.89237500  1
  O  O14  1  0.52134500  0.52134500  0.16896900  1
  O  O15  1  0.32559300  0.83917400  0.89237500  1
loop_
_geom_bond_atom_site_label_1
_geom_bond_atom_site_label_2
_geom_bond_distance
_geom_bond_site_symmetry_2
Li0 O14 1.968769 1_555
Li0 O10 1.996561 1_455
Li0 O11 1.996561 1_545
Li0 O2 2.053454 1_554
Li1 O4 1.784637 1_555
Li1 O8 1.940814 1_444
Li1 O15 1.961363 1_544
Li1 O13 1.961363 1_454
Li2 O3 1.786632 1_555
Li2 O9 1.926437 1_555
Li2 O5 1.963564 1_545
Li2 O0 1.963564 1_455
Li3 O1 1.966911 1_555
Li3 O6 1.990893 1_565
Li3 O7 1.990893 1_655
Li3 O12 2.053497 1_555
Ni0 O9 2.090088 1_555
Ni0 O0 2.116745 1_555
Ni0 O5 2.116745 1_555
Ni0 O6 2.143438 1_555
Ni0 O7 2.143438 1_555
Ni0 O1 2.181233 1_555
Ni1 O13 2.097657 1_554
Ni1 O15 2.097657 1_554
Ni1 O8 2.105375 1_554
Ni1 O14 2.124304 1_555
Ni1 O11 2.191989 1_555
Ni1 O10 2.191989 1_555
O0 V2 1.873414 1_555
O0 Ti2 2.096729 1_545
O1 Ti0 1.967795 1_555
O1 Ti1 1.967795 1_555
O2 Ti0 1.978395 1_555
O2 Ti1 1.978395 1_555
O2 V0 2.019085 1_555
O3 V0 1.986074 1_555
O3 Ti1 1.998917 1_545
O3 Ti0 1.998917 1_455
O4 V2 1.973451 1_455
O4 V1 1.973451 1_545
O4 Ti2 1.974151 1_445
O5 V1 1.873414 1_555
O5 Ti2 2.096729 1_455
O6 Ti0 1.914467 1_555
O6 V0 2.015013 1_555
O7 Ti1 1.914467 1_555
O7 V0 2.015013 1_555
O8 Ti1 1.987147 1_655
O8 Ti0 1.987147 1_565
O9 V1 1.975173 1_545
O9 V2 1.975173 1_455
O10 Ti2 1.892339 1_555
O10 V2 1.988218 1_555
O11 Ti2 1.892339 1_555
O11 V1 1.988218 1_555
O12 Ti2 1.966554 1_555
O12 V1 2.027902 1_555
O12 V2 2.027902 1_555
O13 V0 1.956200 1_655
O13 Ti0 2.028429 1_555
O14 V2 1.989877 1_555
O14 V1 1.989877 1_555
O15 V0 1.956200 1_565
O15 Ti1 2.028429 1_555
