# generated using pymatgen
data_TiNbCrO6
_symmetry_space_group_name_H-M   'P 1'
_cell_length_a   4.70436200
_cell_length_b   9.40811500
_cell_length_c   9.08635200
_cell_angle_alpha   89.99991954
_cell_angle_beta   90.00079917
_cell_angle_gamma   89.99834965
_symmetry_Int_Tables_number   1
_chemical_formula_structural   TiNbCrO6
_chemical_formula_sum   'Ti4 Nb4 Cr4 O24'
_cell_volume   402.15447677
_cell_formula_units_Z   4
loop_
 _symmetry_equiv_pos_site_id
 _symmetry_equiv_pos_as_xyz
  1  'x, y, z'
loop_
 _atom_site_type_symbol
 _atom_site_label
 _atom_site_symmetry_multiplicity
 _atom_site_fract_x
 _atom_site_fract_y
 _atom_site_fract_z
 _atom_site_occupancy
  Ti  Ti0  1  0.49998500  0.25001100  0.49817100  1
  Ti  Ti1  1  0.49998200  0.75000800  0.49816900  1
  Ti  Ti2  1  0.99998100  0.99999200  0.99815600  1
  Ti  Ti3  1  0.99997400  0.49998700  0.99815500  1
  Nb  Nb0  1  0.49999400  0.25000500  0.83430400  1
  Nb  Nb1  1  0.49998500  0.75001200  0.83430700  1
  Nb  Nb2  1  0.99999200  0.99999400  0.33428700  1
  Nb  Nb3  1  0.99998900  0.49998700  0.33428800  1
  Cr  Cr0  1  0.50000300  0.74999500  0.16721100  1
  Cr  Cr1  1  0.00000900  0.50001000  0.66721600  1
  Cr  Cr2  1  0.49998200  0.24998700  0.16721600  1
  Cr  Cr3  1  0.99999500  0.00001000  0.66720400  1
  O  O0  1  0.19425200  0.40264800  0.16490500  1
  O  O1  1  0.19425600  0.90265000  0.16490500  1
  O  O2  1  0.80575000  0.09735300  0.16490000  1
  O  O3  1  0.80574600  0.59735200  0.16490000  1
  O  O4  1  0.30580000  0.15291000  0.66484100  1
  O  O5  1  0.30579800  0.65291300  0.66484300  1
  O  O6  1  0.69420500  0.34708600  0.66484600  1
  O  O7  1  0.69420100  0.84708700  0.66484700  1
  O  O8  1  0.20035800  0.40026800  0.49810800  1
  O  O9  1  0.20036200  0.90026800  0.49810600  1
  O  O10  1  0.79965600  0.09972200  0.49810900  1
  O  O11  1  0.79965700  0.59972300  0.49811000  1
  O  O12  1  0.30047900  0.15023900  0.99813700  1
  O  O13  1  0.30048300  0.65024000  0.99813800  1
  O  O14  1  0.69953900  0.34977100  0.99813500  1
  O  O15  1  0.69953800  0.84977200  0.99813600  1
  O  O16  1  0.19361300  0.40312000  0.83722700  1
  O  O17  1  0.19361400  0.90312200  0.83722600  1
  O  O18  1  0.80640100  0.09687000  0.83722800  1
  O  O19  1  0.80639800  0.59687100  0.83722900  1
  O  O20  1  0.30611800  0.15319600  0.33711200  1
  O  O21  1  0.30612500  0.65319700  0.33711100  1
  O  O22  1  0.69389000  0.34681100  0.33710800  1
  O  O23  1  0.69389200  0.84681300  0.33710900  1
loop_
_geom_bond_atom_site_label_1
_geom_bond_atom_site_label_2
_geom_bond_distance
_geom_bond_site_symmetry_2
Nb0 O12 1.994515 1_555
Nb0 O14 1.994550 1_555
Nb0 O6 2.009943 1_555
Nb0 O4 2.009984 1_555
Nb0 O16 2.037920 1_555
Nb0 O18 2.038139 1_555
Nb1 O13 1.994499 1_555
Nb1 O15 1.994528 1_555
Nb1 O7 2.009942 1_555
Nb1 O5 2.009993 1_555
Nb1 O17 2.037853 1_555
Nb1 O19 2.038199 1_555
Nb2 O10 1.996069 1_565
Nb2 O9 1.996094 1_655
Nb2 O1 2.010631 1_655
Nb2 O2 2.010662 1_565
Nb2 O23 2.037472 1_555
Nb2 O20 2.037698 1_665
Nb3 O8 1.996068 1_655
Nb3 O11 1.996096 1_555
Nb3 O0 2.010615 1_655
Nb3 O3 2.010697 1_555
Nb3 O22 2.037435 1_555
Nb3 O21 2.037784 1_655
Cr0 O21 2.011104 1_555
Cr0 O23 2.011181 1_555
Cr0 O13 2.030244 1_554
Cr0 O15 2.030404 1_554
Cr0 O3 2.032594 1_555
Cr0 O1 2.032686 1_555
Cr1 O19 2.011570 1_455
Cr1 O16 2.011643 1_555
Cr1 O11 2.032074 1_455
Cr1 O8 2.032229 1_555
Cr1 O5 2.034540 1_555
Cr1 O6 2.034729 1_455
Cr2 O20 2.011016 1_555
Cr2 O22 2.011205 1_555
Cr2 O12 2.030218 1_554
Cr2 O14 2.030523 1_554
Cr2 O2 2.032618 1_555
Cr2 O0 2.032670 1_555
Cr3 O18 2.011606 1_555
Cr3 O17 2.011743 1_645
Cr3 O10 2.031965 1_555
Cr3 O9 2.032199 1_645
Cr3 O4 2.034573 1_655
Cr3 O7 2.034688 1_545
O0 Ti3 1.992372 1_454
O1 Ti2 1.992371 1_454
O2 Ti2 1.992345 1_544
O3 Ti3 1.992363 1_554
O4 Ti0 1.990633 1_555
O5 Ti1 1.990633 1_555
O6 Ti0 1.990614 1_555
O7 Ti1 1.990650 1_555
O8 Ti0 1.996270 1_555
O9 Ti1 1.996266 1_555
O10 Ti0 1.996629 1_555
O11 Ti1 1.996615 1_555
O12 Ti2 1.999156 1_445
O13 Ti3 1.999232 1_455
O14 Ti3 1.998740 1_555
O15 Ti2 1.998793 1_555
O16 Ti3 1.948980 1_455
O17 Ti2 1.948994 1_455
O18 Ti2 1.948878 1_545
O19 Ti3 1.948882 1_555
O20 Ti0 1.950151 1_555
O21 Ti1 1.950105 1_555
O22 Ti0 1.950214 1_555
O23 Ti1 1.950226 1_555
