# generated using pymatgen
data_HoCdIn
_symmetry_space_group_name_H-M   'P 1'
_cell_length_a   4.80994177
_cell_length_b   4.80994177
_cell_length_c   7.42883856
_cell_angle_alpha   90.00000000
_cell_angle_beta   90.00000000
_cell_angle_gamma   120.00000210
_symmetry_Int_Tables_number   1
_chemical_formula_structural   HoCdIn
_chemical_formula_sum   'Ho2 Cd2 In2'
_cell_volume   148.84394806
_cell_formula_units_Z   2
loop_
 _symmetry_equiv_pos_site_id
 _symmetry_equiv_pos_as_xyz
  1  'x, y, z'
loop_
 _atom_site_type_symbol
 _atom_site_label
 _atom_site_symmetry_multiplicity
 _atom_site_fract_x
 _atom_site_fract_y
 _atom_site_fract_z
 _atom_site_occupancy
  Ho  Ho0  1  -0.00000000  -0.00000000  0.26378235  1
  Ho  Ho1  1  -0.00000000  -0.00000000  0.73621765  1
  Cd  Cd0  1  0.33333300  0.66666700  0.47065729  1
  Cd  Cd1  1  0.66666700  0.33333300  0.52934271  1
  In  In0  1  0.66666700  0.33333300  0.94373162  1
  In  In1  1  0.33333300  0.66666700  0.05626838  1
loop_
_geom_bond_atom_site_label_1
_geom_bond_atom_site_label_2
_geom_bond_distance
_geom_bond_site_symmetry_2
Ho0 In1 3.176212 1_545
Ho0 In1 3.176216 1_555
Ho0 In1 3.176216 1_445
Ho0 In0 3.655795 1_454
Ho0 In0 3.655798 1_444
Ho0 In0 3.655798 1_554
Ho1 In0 3.176212 1_455
Ho1 In0 3.176216 1_445
Ho1 In0 3.176216 1_555
Ho1 In1 3.655795 1_546
Ho1 In1 3.655798 1_446
Ho1 In1 3.655798 1_556
Cd0 Cd1 2.811031 1_455
Cd0 Cd1 2.811031 1_565
Cd0 Cd1 2.811039 1_555
Cd0 In1 3.078428 1_555
Cd0 Ho0 3.173911 1_565
Cd0 Ho0 3.173914 1_665
Cd0 Ho0 3.173914 1_555
Cd0 Ho1 3.406434 1_565
Cd0 Ho1 3.406437 1_665
Cd0 Ho1 3.406437 1_555
Cd1 In0 3.078428 1_555
Cd1 Ho1 3.173911 1_655
Cd1 Ho1 3.173914 1_555
Cd1 Ho1 3.173914 1_665
Cd1 Ho0 3.406434 1_655
Cd1 Ho0 3.406437 1_665
Cd1 Ho0 3.406437 1_555
In0 In1 2.900130 1_546
In0 In1 2.900130 1_656
In0 In1 2.900138 1_556
