# generated using pymatgen
data_LaMg14Mn
_symmetry_space_group_name_H-M   'P 1'
_cell_length_a   6.54519164
_cell_length_b   6.54519108
_cell_length_c   10.27676314
_cell_angle_alpha   90.00000000
_cell_angle_beta   90.00000000
_cell_angle_gamma   120.00000281
_symmetry_Int_Tables_number   1
_chemical_formula_structural   LaMg14Mn
_chemical_formula_sum   'La1 Mg14 Mn1'
_cell_volume   381.26914755
_cell_formula_units_Z   1
loop_
 _symmetry_equiv_pos_site_id
 _symmetry_equiv_pos_as_xyz
  1  'x, y, z'
loop_
 _atom_site_type_symbol
 _atom_site_label
 _atom_site_symmetry_multiplicity
 _atom_site_fract_x
 _atom_site_fract_y
 _atom_site_fract_z
 _atom_site_occupancy
  La  La0  1  0.16666700  0.33333300  0.62500000  1
  Mg  Mg0  1  0.16423500  0.83211700  0.12500000  1
  Mg  Mg1  1  0.18009228  0.84004564  0.62500000  1
  Mg  Mg2  1  0.66788300  0.33576500  0.12500000  1
  Mg  Mg3  1  0.65995436  0.31990772  0.62500000  1
  Mg  Mg4  1  0.66788300  0.83211700  0.12500000  1
  Mg  Mg5  1  0.65995436  0.84004564  0.62500000  1
  Mg  Mg6  1  0.33315510  0.16684490  0.36216221  1
  Mg  Mg7  1  0.33315510  0.16684490  0.88783779  1
  Mg  Mg8  1  0.33315510  0.66631119  0.36216221  1
  Mg  Mg9  1  0.33315510  0.66631119  0.88783779  1
  Mg  Mg10  1  0.83368881  0.16684490  0.36216221  1
  Mg  Mg11  1  0.83368881  0.16684490  0.88783779  1
  Mg  Mg12  1  0.83333300  0.66666700  0.38143500  1
  Mg  Mg13  1  0.83333300  0.66666700  0.86856500  1
  Mn  Mn0  1  0.16666700  0.33333300  0.12500000  1
loop_
_geom_bond_atom_site_label_1
_geom_bond_atom_site_label_2
_geom_bond_distance
_geom_bond_site_symmetry_2
La0 Mg5 3.273480 1_555
La0 Mg1 3.273480 1_555
La0 Mg5 3.273480 1_445
La0 Mg1 3.273480 1_545
La0 Mg3 3.273480 1_555
La0 Mg3 3.273480 1_455
La0 Mg7 3.295205 1_555
La0 Mg6 3.295205 1_555
La0 Mg9 3.295211 1_555
La0 Mg8 3.295211 1_555
La0 Mg11 3.295211 1_455
La0 Mg10 3.295211 1_455
Mg0 Mg8 3.088720 1_555
Mg0 Mg9 3.088720 1_554
Mg0 Mg6 3.088727 1_565
Mg0 Mg7 3.088727 1_564
Mg0 Mg13 3.234655 1_454
Mg0 Mg12 3.234655 1_455
Mg0 Mg2 3.248719 1_455
Mg0 Mg4 3.248719 1_455
Mg0 Mn0 3.272625 1_565
Mg0 Mn0 3.272625 1_555
Mg0 Mg2 3.296472 1_565
Mg0 Mg4 3.296473 1_555
Mg1 Mg3 3.140789 1_565
Mg1 Mg5 3.140789 1_555
Mg1 Mg12 3.182553 1_455
Mg1 Mg13 3.182553 1_455
Mg1 Mg9 3.275968 1_555
Mg1 Mg8 3.275968 1_555
Mg1 Mg7 3.275975 1_565
Mg1 Mg6 3.275975 1_565
Mg1 Mg3 3.404402 1_455
Mg1 Mg5 3.404402 1_455
Mg2 Mg6 3.088727 1_555
Mg2 Mg7 3.088727 1_554
Mg2 Mg4 3.248719 1_555
Mg2 Mn0 3.272625 1_655
Mg2 Mn0 3.272625 1_555
Mg2 Mg4 3.296472 1_545
Mg3 Mg5 3.140789 1_545
Mg3 Mg7 3.275975 1_555
Mg3 Mg6 3.275975 1_555
Mg3 Mg5 3.404402 1_555
Mg4 Mg8 3.088727 1_555
Mg4 Mg9 3.088727 1_554
Mg4 Mn0 3.272625 1_665
Mg4 Mn0 3.272625 1_555
Mg5 Mg9 3.275974 1_555
Mg5 Mg8 3.275974 1_555
Mg6 Mn0 3.082621 1_555
Mg6 Mg8 3.269102 1_555
Mg6 Mg8 3.276089 1_545
Mg7 Mn0 3.082621 1_556
Mg7 Mg9 3.269102 1_555
Mg7 Mg9 3.276089 1_545
Mg8 Mn0 3.082628 1_555
Mg9 Mn0 3.082628 1_556
Mg10 Mn0 3.082628 1_655
Mg10 Mg2 3.088720 1_555
Mg10 Mg4 3.088727 1_545
Mg10 Mg8 3.269102 1_655
Mg10 Mg6 3.269103 1_655
Mg10 Mg3 3.275968 1_555
Mg10 Mg5 3.275974 1_545
Mg10 Mg8 3.276089 1_545
Mg10 Mg6 3.276089 1_555
Mg10 Mg12 3.278584 1_545
Mg10 Mg12 3.278584 1_555
Mg11 Mn0 3.082628 1_656
Mg11 Mg2 3.088720 1_556
Mg11 Mg4 3.088727 1_546
Mg11 Mg9 3.269102 1_655
Mg11 Mg7 3.269103 1_655
Mg11 Mg3 3.275968 1_555
Mg11 Mg5 3.275974 1_545
Mg11 Mg9 3.276089 1_545
Mg11 Mg7 3.276089 1_555
Mg11 Mg13 3.278584 1_545
Mg11 Mg13 3.278584 1_555
Mg12 Mg5 3.182546 1_555
Mg12 Mg3 3.182553 1_555
Mg12 Mg4 3.234648 1_555
Mg12 Mg2 3.234655 1_555
Mg12 Mg6 3.278584 1_665
Mg12 Mg6 3.278584 1_555
Mg12 Mg8 3.278584 1_555
Mg12 Mg8 3.278584 1_655
Mg13 Mg5 3.182546 1_555
Mg13 Mg3 3.182553 1_555
Mg13 Mg4 3.234648 1_556
Mg13 Mg2 3.234655 1_556
Mg13 Mg7 3.278584 1_665
Mg13 Mg7 3.278584 1_555
Mg13 Mg9 3.278584 1_555
Mg13 Mg9 3.278584 1_655
