# generated using pymatgen
data_CaMg6V
_symmetry_space_group_name_H-M   'P 1'
_cell_length_a   5.22392700
_cell_length_b   6.52296900
_cell_length_c   11.19081100
_cell_angle_alpha   90.00000000
_cell_angle_beta   90.00000000
_cell_angle_gamma   90.00000000
_symmetry_Int_Tables_number   1
_chemical_formula_structural   CaMg6V
_chemical_formula_sum   'Ca2 Mg12 V2'
_cell_volume   381.33263555
_cell_formula_units_Z   2
loop_
 _symmetry_equiv_pos_site_id
 _symmetry_equiv_pos_as_xyz
  1  'x, y, z'
loop_
 _atom_site_type_symbol
 _atom_site_label
 _atom_site_symmetry_multiplicity
 _atom_site_fract_x
 _atom_site_fract_y
 _atom_site_fract_z
 _atom_site_occupancy
  Ca  Ca0  1  0.50000000  0.50000000  0.33456700  1
  Ca  Ca1  1  0.50000000  0.00000000  0.83456700  1
  Mg  Mg0  1  0.50000000  0.74806200  0.08234600  1
  Mg  Mg1  1  0.50000000  0.25193800  0.08234600  1
  Mg  Mg2  1  0.00000000  0.73465100  0.91508500  1
  Mg  Mg3  1  0.00000000  0.26534900  0.91508500  1
  Mg  Mg4  1  0.00000000  0.50000000  0.16270700  1
  Mg  Mg5  1  0.00000000  0.50000000  0.67317100  1
  Mg  Mg6  1  0.50000000  0.24806200  0.58234600  1
  Mg  Mg7  1  0.50000000  0.75193800  0.58234600  1
  Mg  Mg8  1  0.00000000  0.23465100  0.41508500  1
  Mg  Mg9  1  0.00000000  0.76534900  0.41508500  1
  Mg  Mg10  1  0.00000000  0.00000000  0.66270700  1
  Mg  Mg11  1  0.00000000  0.00000000  0.17317100  1
  V  V0  1  0.50000000  0.50000000  0.83469600  1
  V  V1  1  0.50000000  0.00000000  0.33469600  1
loop_
_geom_bond_atom_site_label_1
_geom_bond_atom_site_label_2
_geom_bond_distance
_geom_bond_site_symmetry_2
Ca0 Mg6 3.223259 1_555
Ca0 Mg7 3.223259 1_555
Ca0 Mg4 3.243648 1_555
Ca0 Mg4 3.243648 1_655
Ca0 Mg1 3.253472 1_555
Ca0 Mg0 3.253472 1_555
Ca0 Mg8 3.260392 1_655
Ca0 Mg9 3.260392 1_555
Ca0 Mg9 3.260392 1_655
Ca0 Mg8 3.260392 1_555
Ca0 V1 3.261485 1_565
Ca0 V1 3.261485 1_555
Ca1 Mg1 3.223259 1_556
Ca1 Mg0 3.223259 1_546
Ca1 Mg10 3.243648 1_555
Ca1 Mg10 3.243648 1_655
Ca1 Mg7 3.253472 1_545
Ca1 Mg6 3.253472 1_555
Ca1 Mg3 3.260392 1_555
Ca1 Mg2 3.260392 1_645
Ca1 Mg2 3.260392 1_545
Ca1 Mg3 3.260392 1_655
Ca1 V0 3.261485 1_545
Ca1 V0 3.261485 1_555
Mg0 Mg4 3.201461 1_555
Mg0 Mg4 3.201461 1_655
Mg0 V0 3.209195 1_554
Mg0 Mg2 3.214590 1_654
Mg0 Mg2 3.214590 1_554
Mg0 Mg1 3.236201 1_555
Mg0 Mg11 3.249022 1_665
Mg0 Mg11 3.249022 1_565
Mg0 V1 3.267368 1_565
Mg0 Mg1 3.286768 1_565
Mg1 Mg4 3.201461 1_555
Mg1 Mg4 3.201461 1_655
Mg1 V0 3.209195 1_554
Mg1 Mg3 3.214590 1_654
Mg1 Mg3 3.214590 1_554
Mg1 Mg11 3.249022 1_655
Mg1 Mg11 3.249022 1_555
Mg1 V1 3.267368 1_555
Mg2 Mg3 3.061242 1_555
Mg2 Mg5 3.109953 1_555
Mg2 V0 3.158238 1_455
Mg2 V0 3.158238 1_555
Mg2 Mg4 3.165714 1_556
Mg2 Mg3 3.461727 1_565
Mg3 Mg5 3.109953 1_555
Mg3 V0 3.158238 1_455
Mg3 V0 3.158238 1_555
Mg3 Mg4 3.165714 1_556
Mg4 Mg9 3.312498 1_555
Mg4 Mg8 3.312498 1_555
Mg5 V0 3.176438 1_455
Mg5 V0 3.176438 1_555
Mg5 Mg7 3.249022 1_555
Mg5 Mg6 3.249022 1_455
Mg5 Mg6 3.249022 1_555
Mg5 Mg7 3.249022 1_455
Mg5 Mg9 3.367126 1_555
Mg5 Mg8 3.367126 1_555
Mg6 V1 3.209195 1_555
Mg6 Mg8 3.214590 1_555
Mg6 Mg8 3.214590 1_655
Mg6 Mg7 3.236201 1_545
Mg6 V0 3.267368 1_555
Mg6 Mg7 3.286768 1_555
Mg7 V1 3.209195 1_565
Mg7 Mg9 3.214590 1_655
Mg7 Mg9 3.214590 1_555
Mg7 V0 3.267368 1_555
Mg8 Mg9 3.061242 1_545
Mg8 V1 3.158238 1_455
Mg8 V1 3.158238 1_555
Mg8 Mg9 3.461727 1_555
Mg9 V1 3.158238 1_565
Mg9 V1 3.158238 1_465
Mg10 Mg8 3.165714 1_555
Mg10 Mg9 3.165714 1_545
Mg10 Mg6 3.201461 1_555
Mg10 Mg7 3.201461 1_445
Mg10 Mg7 3.201461 1_545
Mg10 Mg6 3.201461 1_455
Mg10 Mg5 3.263586 1_545
Mg10 Mg5 3.263586 1_555
Mg10 Mg2 3.312498 1_545
Mg10 Mg3 3.312498 1_555
Mg11 Mg8 3.109953 1_555
Mg11 Mg9 3.109953 1_545
Mg11 V1 3.176438 1_455
Mg11 V1 3.176438 1_555
Mg11 Mg4 3.263586 1_555
Mg11 Mg4 3.263586 1_545
Mg11 Mg2 3.367126 1_544
Mg11 Mg3 3.367126 1_554
