# generated using pymatgen
data_KCdN3
_symmetry_space_group_name_H-M   'P 1'
_cell_length_a   4.56706800
_cell_length_b   4.56706800
_cell_length_c   4.56706800
_cell_angle_alpha   90.00000000
_cell_angle_beta   90.00000000
_cell_angle_gamma   90.00000000
_symmetry_Int_Tables_number   1
_chemical_formula_structural   KCdN3
_chemical_formula_sum   'K1 Cd1 N3'
_cell_volume   95.26040725
_cell_formula_units_Z   1
loop_
 _symmetry_equiv_pos_site_id
 _symmetry_equiv_pos_as_xyz
  1  'x, y, z'
loop_
 _atom_site_type_symbol
 _atom_site_label
 _atom_site_symmetry_multiplicity
 _atom_site_fract_x
 _atom_site_fract_y
 _atom_site_fract_z
 _atom_site_occupancy
  K  K0  1  0.50000000  0.50000000  0.50000000  1
  Cd  Cd0  1  0.00000000  0.00000000  0.00000000  1
  N  N0  1  0.50000000  0.00000000  0.00000000  1
  N  N1  1  0.00000000  0.50000000  0.00000000  1
  N  N2  1  0.00000000  0.00000000  0.50000000  1
loop_
_geom_bond_atom_site_label_1
_geom_bond_atom_site_label_2
_geom_bond_distance
_geom_bond_site_symmetry_2
K0 N0 3.229405 1_556
K0 N2 3.229405 1_565
K0 N0 3.229405 1_566
K0 N0 3.229405 1_555
K0 N0 3.229405 1_565
K0 N2 3.229405 1_665
K0 N1 3.229405 1_656
K0 N2 3.229405 1_655
K0 N2 3.229405 1_555
K0 N1 3.229405 1_556
K0 N1 3.229405 1_655
K0 N1 3.229405 1_555
Cd0 N1 2.283534 1_555
Cd0 N1 2.283534 1_545
Cd0 N0 2.283534 1_455
Cd0 N0 2.283534 1_555
Cd0 N2 2.283534 1_555
Cd0 N2 2.283534 1_554
