# generated using pymatgen
data_As2PbS4
_symmetry_space_group_name_H-M   'P 1'
_cell_length_a   3.76709800
_cell_length_b   9.46676400
_cell_length_c   18.62956300
_cell_angle_alpha   90.00000000
_cell_angle_beta   90.00000000
_cell_angle_gamma   90.00000000
_symmetry_Int_Tables_number   1
_chemical_formula_structural   As2PbS4
_chemical_formula_sum   'As8 Pb4 S16'
_cell_volume   664.37171823
_cell_formula_units_Z   4
loop_
 _symmetry_equiv_pos_site_id
 _symmetry_equiv_pos_as_xyz
  1  'x, y, z'
loop_
 _atom_site_type_symbol
 _atom_site_label
 _atom_site_symmetry_multiplicity
 _atom_site_fract_x
 _atom_site_fract_y
 _atom_site_fract_z
 _atom_site_occupancy
  As  As0  1  0.25000000  0.83734400  0.99381700  1
  As  As1  1  0.25000000  0.33734400  0.50618300  1
  As  As2  1  0.75000000  0.16265600  0.00618300  1
  As  As3  1  0.75000000  0.66265600  0.49381700  1
  As  As4  1  0.75000000  0.50006500  0.88162700  1
  As  As5  1  0.75000000  0.00006500  0.61837300  1
  As  As6  1  0.25000000  0.49993500  0.11837300  1
  As  As7  1  0.25000000  0.99993500  0.38162700  1
  Pb  Pb0  1  0.25000000  0.15669300  0.81433300  1
  Pb  Pb1  1  0.25000000  0.65669300  0.68566700  1
  Pb  Pb2  1  0.75000000  0.84330700  0.18566700  1
  Pb  Pb3  1  0.75000000  0.34330700  0.31433300  1
  S  S0  1  0.25000000  0.30527300  0.95392300  1
  S  S1  1  0.25000000  0.80527300  0.54607700  1
  S  S2  1  0.75000000  0.69472700  0.04607700  1
  S  S3  1  0.75000000  0.19472700  0.45392300  1
  S  S4  1  0.75000000  0.99074300  0.91901600  1
  S  S5  1  0.75000000  0.49074300  0.58098400  1
  S  S6  1  0.25000000  0.00925700  0.08098400  1
  S  S7  1  0.25000000  0.50925700  0.41901600  1
  S  S8  1  0.25000000  0.65178400  0.85250800  1
  S  S9  1  0.25000000  0.15178400  0.64749200  1
  S  S10  1  0.75000000  0.34821600  0.14749200  1
  S  S11  1  0.75000000  0.84821600  0.35250800  1
  S  S12  1  0.25000000  0.12699000  0.27790500  1
  S  S13  1  0.25000000  0.62699000  0.22209500  1
  S  S14  1  0.75000000  0.87301000  0.72209500  1
  S  S15  1  0.75000000  0.37301000  0.77790500  1
loop_
_geom_bond_atom_site_label_1
_geom_bond_atom_site_label_2
_geom_bond_distance
_geom_bond_site_symmetry_2
As0 S6 2.299048 1_566
As0 S2 2.513652 1_456
As0 S2 2.513652 1_556
As0 S4 2.756536 1_555
As0 S4 2.756536 1_455
As1 S7 2.299048 1_555
As1 S3 2.513652 1_455
As1 S3 2.513652 1_555
As1 S5 2.756536 1_455
As1 S5 2.756536 1_555
As2 S4 2.299048 1_544
As2 S0 2.513652 1_554
As2 S0 2.513652 1_654
As2 S6 2.756536 1_555
As2 S6 2.756536 1_655
As3 S5 2.299048 1_555
As3 S1 2.513652 1_655
As3 S1 2.513652 1_555
As3 S7 2.756536 1_655
As3 S7 2.756536 1_555
As4 S15 2.276070 1_555
As4 S8 2.430012 1_655
As4 S8 2.430012 1_555
As4 S0 2.960112 1_555
As4 S0 2.960112 1_655
As5 S14 2.276070 1_545
As5 S9 2.430012 1_555
As5 S9 2.430012 1_655
As5 S1 2.960112 1_645
As5 S1 2.960112 1_545
As6 S13 2.276070 1_555
As6 S10 2.430012 1_455
As6 S10 2.430012 1_555
As6 S2 2.960112 1_455
As6 S2 2.960112 1_555
As7 S12 2.276070 1_565
As7 S11 2.430012 1_455
As7 S11 2.430012 1_555
As7 S3 2.960112 1_565
As7 S3 2.960112 1_465
Pb0 S15 2.863893 1_555
Pb0 S15 2.863893 1_455
Pb0 S0 2.956526 1_555
Pb0 S9 3.108522 1_555
Pb0 S4 3.133545 1_445
Pb0 S4 3.133545 1_545
Pb1 S14 2.863893 1_555
Pb1 S14 2.863893 1_455
Pb1 S1 2.956526 1_555
Pb1 S8 3.108522 1_555
Pb1 S5 3.133545 1_455
Pb1 S5 3.133545 1_555
Pb2 S13 2.863893 1_655
Pb2 S13 2.863893 1_555
Pb2 S2 2.956526 1_555
Pb2 S11 3.108522 1_555
Pb2 S6 3.133545 1_565
Pb2 S6 3.133545 1_665
Pb3 S12 2.863893 1_655
Pb3 S12 2.863893 1_555
Pb3 S3 2.956526 1_555
Pb3 S10 3.108522 1_555
Pb3 S7 3.133545 1_655
Pb3 S7 3.133545 1_555
