# generated using pymatgen
data_U6Cu3Ni3Sb8
_symmetry_space_group_name_H-M   'P 1'
_cell_length_a   8.27762228
_cell_length_b   8.27741144
_cell_length_c   9.53967286
_cell_angle_alpha   54.85392087
_cell_angle_beta   54.85107098
_cell_angle_gamma   70.36302122
_symmetry_Int_Tables_number   1
_chemical_formula_structural   U6Cu3Ni3Sb8
_chemical_formula_sum   'U6 Cu3 Ni3 Sb8'
_cell_volume   437.00069489
_cell_formula_units_Z   1
loop_
 _symmetry_equiv_pos_site_id
 _symmetry_equiv_pos_as_xyz
  1  'x, y, z'
loop_
 _atom_site_type_symbol
 _atom_site_label
 _atom_site_symmetry_multiplicity
 _atom_site_fract_x
 _atom_site_fract_y
 _atom_site_fract_z
 _atom_site_occupancy
  U  U0  1  0.87414361  0.37146624  0.63548555  1
  U  U1  1  0.62854176  0.12586255  0.36450229  1
  U  U2  1  0.36912768  0.63088923  0.00000298  1
  U  U3  1  0.13095604  0.86904273  0.49999883  1
  U  U4  1  0.24188388  0.24263191  0.88626843  1
  U  U5  1  0.75738207  0.75809758  0.11372255  1
  Cu  Cu0  1  0.62520821  0.37477494  0.50001612  1
  Cu  Cu1  1  0.24894262  0.25012235  0.37643648  1
  Cu  Cu2  1  0.74988383  0.75104072  0.62355775  1
  Ni  Ni0  1  0.37449677  0.87546215  0.12487863  1
  Ni  Ni1  1  0.12454552  0.62549066  0.87511810  1
  Ni  Ni2  1  0.87480410  0.12521923  0.00002021  1
  Sb  Sb0  1  0.34158428  0.50355022  0.40829777  1
  Sb  Sb1  1  0.00282658  0.83842497  0.24738147  1
  Sb  Sb2  1  0.16157964  0.99714417  0.75261698  1
  Sb  Sb3  1  0.49641093  0.65840947  0.59171321  1
  Sb  Sb4  1  -0.00071228  0.34204911  0.24770570  1
  Sb  Sb5  1  0.84060169  0.50020771  0.91171990  1
  Sb  Sb6  1  0.65796893  0.00070408  0.75228178  1
  Sb  Sb7  1  0.49982413  0.15940998  0.08827526  1
loop_
_geom_bond_atom_site_label_1
_geom_bond_atom_site_label_2
_geom_bond_distance
_geom_bond_site_symmetry_2
Cu0 Sb3 2.649940 1_555
Cu0 Sb0 2.650101 1_555
Cu0 Sb6 2.657117 1_555
Cu0 Sb4 2.657141 1_655
Cu0 U1 2.984014 1_555
Cu0 U0 2.984026 1_555
Cu0 U4 3.012001 1_555
Cu0 U5 3.012224 1_555
Cu1 Sb4 2.673398 1_555
Cu1 Sb2 2.676577 1_545
Cu1 Sb0 2.676670 1_555
Cu1 Sb7 2.681149 1_555
Cu1 U1 2.914596 1_555
Cu1 U0 2.945621 1_455
Cu1 U3 2.959301 1_545
Cu1 U2 2.963461 1_555
Cu2 Sb6 2.673333 1_565
Cu2 Sb1 2.676411 1_655
Cu2 Sb3 2.676897 1_555
Cu2 Sb5 2.681272 1_555
Cu2 U0 2.914360 1_555
Cu2 U1 2.945842 1_565
Cu2 U3 2.959344 1_655
Cu2 U2 2.963397 1_556
Ni0 Sb0 2.644622 1_555
Ni0 Sb7 2.645588 1_565
Ni0 Sb6 2.646519 1_564
Ni0 Sb1 2.646988 1_555
Ni0 U4 2.879748 1_564
Ni0 U2 2.901285 1_555
Ni0 U3 2.901618 1_555
Ni0 U5 2.943006 1_555
Ni1 Sb3 2.644274 1_555
Ni1 Sb5 2.645373 1_455
Ni1 Sb4 2.646447 1_556
Ni1 Sb2 2.646833 1_555
Ni1 U5 2.879567 1_456
Ni1 U2 2.901628 1_556
Ni1 U3 2.901742 1_555
Ni1 U4 2.942752 1_555
Ni2 Sb1 2.658156 1_645
Ni2 Sb2 2.658499 1_644
Ni2 Sb5 2.664170 1_554
Ni2 Sb7 2.664272 1_555
Ni2 U1 2.845738 1_555
Ni2 U0 2.846310 1_554
Ni2 U4 2.885990 1_654
Ni2 U5 2.886526 1_545
Sb0 U3 3.271606 1_555
Sb0 U2 3.278152 1_555
Sb0 U1 3.310644 1_555
Sb0 U5 3.332146 1_555
Sb0 U0 3.365050 1_455
Sb0 U4 3.415193 1_555
Sb1 U4 3.210646 1_564
Sb1 U1 3.260118 1_465
Sb1 U2 3.262140 1_555
Sb1 U3 3.289900 1_555
Sb1 U5 3.326030 1_455
Sb1 U0 3.395949 1_455
Sb2 U5 3.210534 1_456
Sb2 U0 3.260362 1_465
Sb2 U2 3.262253 1_556
Sb2 U3 3.289717 1_555
Sb2 U4 3.326114 1_565
Sb2 U1 3.395946 1_565
Sb3 U3 3.271509 1_555
Sb3 U2 3.278313 1_556
Sb3 U0 3.310908 1_555
Sb3 U4 3.331963 1_555
Sb3 U1 3.365223 1_565
Sb3 U5 3.415291 1_555
Sb4 U5 3.278310 1_455
Sb4 U2 3.279886 1_555
Sb4 U4 3.283621 1_554
Sb4 U0 3.357439 1_455
Sb4 U1 3.364548 1_455
Sb4 U3 3.407766 1_545
Sb5 U0 3.216943 1_555
Sb5 U4 3.247388 1_655
Sb5 U3 3.283415 1_655
Sb5 U1 3.294852 1_556
Sb5 U5 3.311202 1_556
Sb5 U2 3.396665 1_556
Sb6 U4 3.278534 1_555
Sb6 U2 3.279690 1_546
Sb6 U5 3.283759 1_546
Sb6 U1 3.357515 1_555
Sb6 U0 3.364583 1_555
Sb6 U3 3.407533 1_645
Sb7 U1 3.216770 1_555
Sb7 U5 3.247503 1_545
Sb7 U3 3.283577 1_545
Sb7 U0 3.294757 1_554
Sb7 U4 3.311731 1_554
Sb7 U2 3.396700 1_555
