# generated using pymatgen
data_Zn(SbN2)2
_symmetry_space_group_name_H-M   'P 1'
_cell_length_a   8.84672066
_cell_length_b   8.84672066
_cell_length_c   8.84672066
_cell_angle_alpha   90.00000000
_cell_angle_beta   90.00000000
_cell_angle_gamma   90.00000000
_symmetry_Int_Tables_number   1
_chemical_formula_structural   Zn(SbN2)2
_chemical_formula_sum   'Zn8 Sb16 N32'
_cell_volume   692.38387216
_cell_formula_units_Z   8
loop_
 _symmetry_equiv_pos_site_id
 _symmetry_equiv_pos_as_xyz
  1  'x, y, z'
loop_
 _atom_site_type_symbol
 _atom_site_label
 _atom_site_symmetry_multiplicity
 _atom_site_fract_x
 _atom_site_fract_y
 _atom_site_fract_z
 _atom_site_occupancy
  Zn  Zn0  1  0.37500000  0.37500000  0.37500000  1
  Zn  Zn1  1  0.37500000  0.87500000  0.87500000  1
  Zn  Zn2  1  0.87500000  0.37500000  0.87500000  1
  Zn  Zn3  1  0.87500000  0.87500000  0.37500000  1
  Zn  Zn4  1  0.62500000  0.62500000  0.62500000  1
  Zn  Zn5  1  0.62500000  0.12500000  0.12500000  1
  Zn  Zn6  1  0.12500000  0.62500000  0.12500000  1
  Zn  Zn7  1  0.12500000  0.12500000  0.62500000  1
  Sb  Sb0  1  -0.00000000  0.00000000  0.00000000  1
  Sb  Sb1  1  -0.00000000  0.25000000  0.25000000  1
  Sb  Sb2  1  0.25000000  0.00000000  0.25000000  1
  Sb  Sb3  1  0.25000000  0.25000000  0.00000000  1
  Sb  Sb4  1  -0.00000000  0.50000000  0.50000000  1
  Sb  Sb5  1  -0.00000000  0.75000000  0.75000000  1
  Sb  Sb6  1  0.25000000  0.50000000  0.75000000  1
  Sb  Sb7  1  0.25000000  0.75000000  0.50000000  1
  Sb  Sb8  1  0.50000000  0.00000000  0.50000000  1
  Sb  Sb9  1  0.50000000  0.25000000  0.75000000  1
  Sb  Sb10  1  0.75000000  0.00000000  0.75000000  1
  Sb  Sb11  1  0.75000000  0.25000000  0.50000000  1
  Sb  Sb12  1  0.50000000  0.50000000  0.00000000  1
  Sb  Sb13  1  0.50000000  0.75000000  0.25000000  1
  Sb  Sb14  1  0.75000000  0.50000000  0.25000000  1
  Sb  Sb15  1  0.75000000  0.75000000  0.00000000  1
  N  N0  1  0.75993300  0.75993300  0.75993300  1
  N  N1  1  0.75993300  0.49006700  0.49006700  1
  N  N2  1  0.49006700  0.75993300  0.49006700  1
  N  N3  1  0.49006700  0.49006700  0.75993300  1
  N  N4  1  0.24006700  0.24006700  0.24006700  1
  N  N5  1  0.24006700  0.00993300  0.00993300  1
  N  N6  1  0.00993300  0.24006700  0.00993300  1
  N  N7  1  0.00993300  0.00993300  0.24006700  1
  N  N8  1  0.75993300  0.25993300  0.25993300  1
  N  N9  1  0.75993300  0.99006700  0.99006700  1
  N  N10  1  0.49006700  0.25993300  0.99006700  1
  N  N11  1  0.49006700  0.99006700  0.25993300  1
  N  N12  1  0.24006700  0.74006700  0.74006700  1
  N  N13  1  0.24006700  0.50993300  0.50993300  1
  N  N14  1  0.00993300  0.74006700  0.50993300  1
  N  N15  1  0.00993300  0.50993300  0.74006700  1
  N  N16  1  0.25993300  0.75993300  0.25993300  1
  N  N17  1  0.25993300  0.49006700  0.99006700  1
  N  N18  1  0.99006700  0.75993300  0.99006700  1
  N  N19  1  0.99006700  0.49006700  0.25993300  1
  N  N20  1  0.74006700  0.24006700  0.74006700  1
  N  N21  1  0.74006700  0.00993300  0.50993300  1
  N  N22  1  0.50993300  0.24006700  0.50993300  1
  N  N23  1  0.50993300  0.00993300  0.74006700  1
  N  N24  1  0.25993300  0.25993300  0.75993300  1
  N  N25  1  0.25993300  0.99006700  0.49006700  1
  N  N26  1  0.99006700  0.25993300  0.49006700  1
  N  N27  1  0.99006700  0.99006700  0.75993300  1
  N  N28  1  0.74006700  0.74006700  0.24006700  1
  N  N29  1  0.74006700  0.50993300  0.00993300  1
  N  N30  1  0.50993300  0.74006700  0.00993300  1
  N  N31  1  0.50993300  0.50993300  0.24006700  1
loop_
_geom_bond_atom_site_label_1
_geom_bond_atom_site_label_2
_geom_bond_distance
_geom_bond_site_symmetry_2
N0 Zn4 2.067574 1_555
N0 Sb10 2.127438 1_565
N0 Sb15 2.127438 1_556
N0 Sb5 2.127438 1_655
N1 Zn4 2.067574 1_555
N1 Sb14 2.127438 1_555
N1 Sb11 2.127438 1_555
N1 Sb4 2.127438 1_655
N2 Zn4 2.067574 1_555
N2 Sb13 2.127438 1_555
N2 Sb7 2.127438 1_555
N2 Sb8 2.127438 1_565
N3 Zn4 2.067574 1_555
N3 Sb9 2.127438 1_555
N3 Sb6 2.127438 1_555
N3 Sb12 2.127438 1_556
N4 Zn0 2.067574 1_555
N4 Sb2 2.127438 1_555
N4 Sb3 2.127438 1_555
N4 Sb1 2.127438 1_555
N5 Zn1 2.067574 1_544
N5 Sb0 2.127438 1_555
N5 Sb3 2.127438 1_555
N5 Sb2 2.127438 1_555
N6 Zn2 2.067574 1_454
N6 Sb0 2.127438 1_555
N6 Sb1 2.127438 1_555
N6 Sb3 2.127438 1_555
N7 Zn3 2.067574 1_445
N7 Sb0 2.127438 1_555
N7 Sb1 2.127438 1_555
N7 Sb2 2.127438 1_555
N8 Zn5 2.067574 1_555
N8 Sb1 2.127438 1_655
N8 Sb14 2.127438 1_555
N8 Sb11 2.127438 1_555
N9 Zn5 2.067574 1_566
N9 Sb10 2.127438 1_565
N9 Sb15 2.127438 1_556
N9 Sb0 2.127438 1_666
N10 Zn5 2.067574 1_556
N10 Sb9 2.127438 1_555
N10 Sb3 2.127438 1_556
N10 Sb12 2.127438 1_556
N11 Zn5 2.067574 1_565
N11 Sb13 2.127438 1_555
N11 Sb2 2.127438 1_565
N11 Sb8 2.127438 1_565
N12 Zn1 2.067574 1_555
N12 Sb7 2.127438 1_555
N12 Sb6 2.127438 1_555
N12 Sb5 2.127438 1_555
N13 Zn0 2.067574 1_555
N13 Sb6 2.127438 1_555
N13 Sb4 2.127438 1_555
N13 Sb7 2.127438 1_555
N14 Zn3 2.067574 1_455
N14 Sb4 2.127438 1_555
N14 Sb5 2.127438 1_555
N14 Sb7 2.127438 1_555
N15 Zn2 2.067574 1_455
N15 Sb4 2.127438 1_555
N15 Sb5 2.127438 1_555
N15 Sb6 2.127438 1_555
N16 Zn6 2.067574 1_555
N16 Sb2 2.127438 1_565
N16 Sb13 2.127438 1_555
N16 Sb7 2.127438 1_555
N17 Zn6 2.067574 1_556
N17 Sb6 2.127438 1_555
N17 Sb3 2.127438 1_556
N17 Sb12 2.127438 1_556
N18 Zn6 2.067574 1_656
N18 Sb5 2.127438 1_655
N18 Sb15 2.127438 1_556
N18 Sb0 2.127438 1_666
N19 Zn6 2.067574 1_655
N19 Sb14 2.127438 1_555
N19 Sb1 2.127438 1_655
N19 Sb4 2.127438 1_655
N20 Zn2 2.067574 1_555
N20 Sb11 2.127438 1_555
N20 Sb9 2.127438 1_555
N20 Sb10 2.127438 1_555
N21 Zn3 2.067574 1_545
N21 Sb8 2.127438 1_555
N21 Sb10 2.127438 1_555
N21 Sb11 2.127438 1_555
N22 Zn0 2.067574 1_555
N22 Sb11 2.127438 1_555
N22 Sb8 2.127438 1_555
N22 Sb9 2.127438 1_555
N23 Zn1 2.067574 1_545
N23 Sb8 2.127438 1_555
N23 Sb10 2.127438 1_555
N23 Sb9 2.127438 1_555
N24 Zn7 2.067574 1_555
N24 Sb3 2.127438 1_556
N24 Sb9 2.127438 1_555
N24 Sb6 2.127438 1_555
N25 Zn7 2.067574 1_565
N25 Sb7 2.127438 1_555
N25 Sb2 2.127438 1_565
N25 Sb8 2.127438 1_565
N26 Zn7 2.067574 1_655
N26 Sb11 2.127438 1_555
N26 Sb1 2.127438 1_655
N26 Sb4 2.127438 1_655
N27 Zn7 2.067574 1_665
N27 Sb5 2.127438 1_655
N27 Sb10 2.127438 1_565
N27 Sb0 2.127438 1_666
N28 Zn3 2.067574 1_555
N28 Sb14 2.127438 1_555
N28 Sb13 2.127438 1_555
N28 Sb15 2.127438 1_555
N29 Zn2 2.067574 1_554
N29 Sb12 2.127438 1_555
N29 Sb15 2.127438 1_555
N29 Sb14 2.127438 1_555
N30 Zn1 2.067574 1_554
N30 Sb12 2.127438 1_555
N30 Sb15 2.127438 1_555
N30 Sb13 2.127438 1_555
N31 Zn0 2.067574 1_555
N31 Sb12 2.127438 1_555
N31 Sb14 2.127438 1_555
N31 Sb13 2.127438 1_555
