# generated using pymatgen
data_Mg30CdFeO32
_symmetry_space_group_name_H-M   'P 1'
_cell_length_a   8.57692500
_cell_length_b   8.57692500
_cell_length_c   8.56223000
_cell_angle_alpha   90.00000000
_cell_angle_beta   90.00000000
_cell_angle_gamma   90.00000000
_symmetry_Int_Tables_number   1
_chemical_formula_structural   Mg30CdFeO32
_chemical_formula_sum   'Mg30 Cd1 Fe1 O32'
_cell_volume   629.86882634
_cell_formula_units_Z   1
loop_
 _symmetry_equiv_pos_site_id
 _symmetry_equiv_pos_as_xyz
  1  'x, y, z'
loop_
 _atom_site_type_symbol
 _atom_site_label
 _atom_site_symmetry_multiplicity
 _atom_site_fract_x
 _atom_site_fract_y
 _atom_site_fract_z
 _atom_site_occupancy
  Mg  Mg0  1  0.50000000  0.00000000  0.00000000  1
  Mg  Mg1  1  0.50000000  0.00000000  0.50000000  1
  Mg  Mg2  1  0.00000000  0.50000000  0.00000000  1
  Mg  Mg3  1  0.00000000  0.50000000  0.50000000  1
  Mg  Mg4  1  0.50000000  0.50000000  0.00000000  1
  Mg  Mg5  1  0.50000000  0.50000000  0.50000000  1
  Mg  Mg6  1  0.25338900  0.00000000  0.24791400  1
  Mg  Mg7  1  0.25338900  0.00000000  0.75208600  1
  Mg  Mg8  1  0.74661100  0.00000000  0.24791400  1
  Mg  Mg9  1  0.74661100  0.00000000  0.75208600  1
  Mg  Mg10  1  0.24997900  0.50000000  0.24976400  1
  Mg  Mg11  1  0.24997900  0.50000000  0.75023600  1
  Mg  Mg12  1  0.75002100  0.50000000  0.24976400  1
  Mg  Mg13  1  0.75002100  0.50000000  0.75023600  1
  Mg  Mg14  1  0.00000000  0.25338900  0.24791400  1
  Mg  Mg15  1  0.00000000  0.25338900  0.75208600  1
  Mg  Mg16  1  0.50000000  0.24997900  0.24976400  1
  Mg  Mg17  1  0.50000000  0.24997900  0.75023600  1
  Mg  Mg18  1  0.00000000  0.74661100  0.24791400  1
  Mg  Mg19  1  0.00000000  0.74661100  0.75208600  1
  Mg  Mg20  1  0.50000000  0.75002100  0.24976400  1
  Mg  Mg21  1  0.50000000  0.75002100  0.75023600  1
  Mg  Mg22  1  0.24960500  0.24960500  0.00000000  1
  Mg  Mg23  1  0.25217500  0.25217500  0.50000000  1
  Mg  Mg24  1  0.75039500  0.24960500  0.00000000  1
  Mg  Mg25  1  0.74782500  0.25217500  0.50000000  1
  Mg  Mg26  1  0.24960500  0.75039500  0.00000000  1
  Mg  Mg27  1  0.25217500  0.74782500  0.50000000  1
  Mg  Mg28  1  0.75039500  0.75039500  0.00000000  1
  Mg  Mg29  1  0.74782500  0.74782500  0.50000000  1
  Cd  Cd0  1  0.00000000  0.00000000  0.50000000  1
  Fe  Fe0  1  0.00000000  0.00000000  0.00000000  1
  O  O0  1  0.00000000  0.25758900  0.00000000  1
  O  O1  1  0.00000000  0.26340000  0.50000000  1
  O  O2  1  0.50000000  0.25081900  0.00000000  1
  O  O3  1  0.50000000  0.25171200  0.50000000  1
  O  O4  1  0.00000000  0.74241100  0.00000000  1
  O  O5  1  0.00000000  0.73660000  0.50000000  1
  O  O6  1  0.50000000  0.74918100  0.00000000  1
  O  O7  1  0.50000000  0.74828800  0.50000000  1
  O  O8  1  0.24914500  0.24914500  0.25049600  1
  O  O9  1  0.24914500  0.24914500  0.74950400  1
  O  O10  1  0.75085500  0.24914500  0.25049600  1
  O  O11  1  0.75085500  0.24914500  0.74950400  1
  O  O12  1  0.24914500  0.75085500  0.25049600  1
  O  O13  1  0.24914500  0.75085500  0.74950400  1
  O  O14  1  0.75085500  0.75085500  0.25049600  1
  O  O15  1  0.75085500  0.75085500  0.74950400  1
  O  O16  1  0.00000000  0.00000000  0.23741500  1
  O  O17  1  0.00000000  0.00000000  0.76258500  1
  O  O18  1  0.50000000  0.00000000  0.24904100  1
  O  O19  1  0.50000000  0.00000000  0.75095900  1
  O  O20  1  0.00000000  0.50000000  0.24904100  1
  O  O21  1  0.00000000  0.50000000  0.75095900  1
  O  O22  1  0.50000000  0.50000000  0.25000900  1
  O  O23  1  0.50000000  0.50000000  0.74999100  1
  O  O24  1  0.25758900  0.00000000  0.00000000  1
  O  O25  1  0.26340000  0.00000000  0.50000000  1
  O  O26  1  0.74241100  0.00000000  0.00000000  1
  O  O27  1  0.73660000  0.00000000  0.50000000  1
  O  O28  1  0.25081900  0.50000000  0.00000000  1
  O  O29  1  0.25171200  0.50000000  0.50000000  1
  O  O30  1  0.74918100  0.50000000  0.00000000  1
  O  O31  1  0.74828800  0.50000000  0.50000000  1
loop_
_geom_bond_atom_site_label_1
_geom_bond_atom_site_label_2
_geom_bond_distance
_geom_bond_site_symmetry_2
Mg0 O26 2.079141 1_555
Mg0 O24 2.079141 1_555
Mg0 O18 2.132346 1_555
Mg0 O19 2.132346 1_554
Mg0 O6 2.151256 1_545
Mg0 O2 2.151256 1_555
Mg1 O25 2.029300 1_555
Mg1 O27 2.029300 1_555
Mg1 O19 2.148769 1_555
Mg1 O18 2.148769 1_555
Mg1 O3 2.158915 1_555
Mg1 O7 2.158915 1_545
Mg2 O4 2.079141 1_555
Mg2 O0 2.079141 1_555
Mg2 O20 2.132346 1_555
Mg2 O21 2.132346 1_554
Mg2 O30 2.151256 1_455
Mg2 O28 2.151256 1_555
Mg3 O1 2.029300 1_555
Mg3 O5 2.029300 1_555
Mg3 O21 2.148769 1_555
Mg3 O20 2.148769 1_555
Mg3 O29 2.158915 1_555
Mg3 O31 2.158915 1_455
Mg4 O30 2.137207 1_555
Mg4 O2 2.137207 1_555
Mg4 O28 2.137207 1_555
Mg4 O6 2.137207 1_555
Mg4 O22 2.140635 1_555
Mg4 O23 2.140635 1_554
Mg5 O31 2.129548 1_555
Mg5 O7 2.129548 1_555
Mg5 O29 2.129548 1_555
Mg5 O3 2.129548 1_555
Mg5 O23 2.140480 1_555
Mg5 O22 2.140480 1_555
Mg6 O18 2.115186 1_555
Mg6 O24 2.123002 1_555
Mg6 O8 2.137322 1_555
Mg6 O12 2.137322 1_545
Mg6 O25 2.160125 1_555
Mg6 O16 2.175157 1_555
Mg7 O19 2.115186 1_555
Mg7 O24 2.123002 1_556
Mg7 O9 2.137322 1_555
Mg7 O13 2.137322 1_545
Mg7 O25 2.160125 1_555
Mg7 O17 2.175157 1_555
Mg8 O18 2.115186 1_555
Mg8 O26 2.123002 1_555
Mg8 O10 2.137322 1_555
Mg8 O14 2.137322 1_545
Mg8 O27 2.160125 1_555
Mg8 O16 2.175157 1_655
Mg9 O19 2.115186 1_555
Mg9 O26 2.123002 1_556
Mg9 O11 2.137322 1_555
Mg9 O15 2.137322 1_545
Mg9 O27 2.160125 1_555
Mg9 O17 2.175157 1_655
Mg10 O28 2.138549 1_555
Mg10 O29 2.142630 1_555
Mg10 O20 2.144060 1_555
Mg10 O22 2.144412 1_555
Mg10 O12 2.151586 1_555
Mg10 O8 2.151586 1_555
Mg11 O28 2.138549 1_556
Mg11 O29 2.142630 1_555
Mg11 O21 2.144060 1_555
Mg11 O23 2.144412 1_555
Mg11 O13 2.151586 1_555
Mg11 O9 2.151586 1_555
Mg12 O30 2.138549 1_555
Mg12 O31 2.142630 1_555
Mg12 O20 2.144060 1_655
Mg12 O22 2.144412 1_555
Mg12 O14 2.151586 1_555
Mg12 O10 2.151586 1_555
Mg13 O30 2.138549 1_556
Mg13 O31 2.142630 1_555
Mg13 O21 2.144060 1_655
Mg13 O23 2.144412 1_555
Mg13 O15 2.151586 1_555
Mg13 O11 2.151586 1_555
Mg14 O20 2.115186 1_555
Mg14 O0 2.123002 1_555
Mg14 O8 2.137322 1_555
Mg14 O10 2.137322 1_455
Mg14 O1 2.160125 1_555
Mg14 O16 2.175157 1_555
Mg15 O21 2.115186 1_555
Mg15 O0 2.123002 1_556
Mg15 O9 2.137322 1_555
Mg15 O11 2.137322 1_455
Mg15 O1 2.160125 1_555
Mg15 O17 2.175157 1_555
Mg16 O2 2.138549 1_555
Mg16 O3 2.142630 1_555
Mg16 O18 2.144060 1_555
Mg16 O22 2.144412 1_555
Mg16 O10 2.151586 1_555
Mg16 O8 2.151586 1_555
Mg17 O2 2.138549 1_556
Mg17 O3 2.142630 1_555
Mg17 O19 2.144060 1_555
Mg17 O23 2.144412 1_555
Mg17 O11 2.151586 1_555
Mg17 O9 2.151586 1_555
Mg18 O20 2.115186 1_555
Mg18 O4 2.123002 1_555
Mg18 O12 2.137322 1_555
Mg18 O14 2.137322 1_455
Mg18 O5 2.160125 1_555
Mg18 O16 2.175157 1_565
Mg19 O21 2.115186 1_555
Mg19 O4 2.123002 1_556
Mg19 O13 2.137322 1_555
Mg19 O15 2.137322 1_455
Mg19 O5 2.160125 1_555
Mg19 O17 2.175157 1_565
Mg20 O6 2.138549 1_555
Mg20 O7 2.142630 1_555
Mg20 O18 2.144060 1_565
Mg20 O22 2.144412 1_555
Mg20 O14 2.151586 1_555
Mg20 O12 2.151586 1_555
Mg21 O6 2.138549 1_556
Mg21 O7 2.142630 1_555
Mg21 O19 2.144060 1_565
Mg21 O23 2.144412 1_555
Mg21 O15 2.151586 1_555
Mg21 O13 2.151586 1_555
Mg22 O0 2.141938 1_555
Mg22 O24 2.141938 1_555
Mg22 O8 2.144812 1_555
Mg22 O9 2.144812 1_554
Mg22 O2 2.147644 1_555
Mg22 O28 2.147644 1_555
Mg23 O3 2.125580 1_555
Mg23 O29 2.125580 1_555
Mg23 O9 2.136627 1_555
Mg23 O8 2.136627 1_555
Mg23 O1 2.165028 1_555
Mg23 O25 2.165028 1_555
Mg24 O26 2.141938 1_555
Mg24 O0 2.141938 1_655
Mg24 O10 2.144812 1_555
Mg24 O11 2.144812 1_554
Mg24 O2 2.147644 1_555
Mg24 O30 2.147644 1_555
Mg25 O3 2.125580 1_555
Mg25 O31 2.125580 1_555
Mg25 O11 2.136627 1_555
Mg25 O10 2.136627 1_555
Mg25 O27 2.165028 1_555
Mg25 O1 2.165028 1_655
Mg26 O4 2.141938 1_555
Mg26 O24 2.141938 1_565
Mg26 O12 2.144812 1_555
Mg26 O13 2.144812 1_554
Mg26 O28 2.147644 1_555
Mg26 O6 2.147644 1_555
Mg27 O29 2.125580 1_555
Mg27 O7 2.125580 1_555
Mg27 O13 2.136627 1_555
Mg27 O12 2.136627 1_555
Mg27 O5 2.165028 1_555
Mg27 O25 2.165028 1_565
Mg28 O26 2.141938 1_565
Mg28 O4 2.141938 1_655
Mg28 O14 2.144812 1_555
Mg28 O15 2.144812 1_554
Mg28 O6 2.147644 1_555
Mg28 O30 2.147644 1_555
Mg29 O31 2.125580 1_555
Mg29 O7 2.125580 1_555
Mg29 O15 2.136627 1_555
Mg29 O14 2.136627 1_555
Mg29 O27 2.165028 1_565
Mg29 O5 2.165028 1_655
Cd0 O17 2.248313 1_555
Cd0 O16 2.248313 1_555
Cd0 O5 2.259162 1_545
Cd0 O27 2.259162 1_455
Cd0 O1 2.259162 1_555
Cd0 O25 2.259162 1_555
Fe0 O16 2.032802 1_555
Fe0 O17 2.032802 1_554
Fe0 O0 2.209322 1_555
Fe0 O24 2.209322 1_555
Fe0 O26 2.209322 1_455
Fe0 O4 2.209322 1_545
