# generated using pymatgen
data_LaSm(CoO3)2
_symmetry_space_group_name_H-M   'P 1'
_cell_length_a   7.57148000
_cell_length_b   7.57148000
_cell_length_c   7.57266500
_cell_angle_alpha   90.00000000
_cell_angle_beta   90.00000000
_cell_angle_gamma   90.00000000
_symmetry_Int_Tables_number   1
_chemical_formula_structural   LaSm(CoO3)2
_chemical_formula_sum   'La4 Sm4 Co8 O24'
_cell_volume   434.12050936
_cell_formula_units_Z   4
loop_
 _symmetry_equiv_pos_site_id
 _symmetry_equiv_pos_as_xyz
  1  'x, y, z'
loop_
 _atom_site_type_symbol
 _atom_site_label
 _atom_site_symmetry_multiplicity
 _atom_site_fract_x
 _atom_site_fract_y
 _atom_site_fract_z
 _atom_site_occupancy
  La  La0  1  0.50000000  0.00000000  0.00000000  1
  La  La1  1  0.50000000  0.50000000  0.00000000  1
  La  La2  1  0.00000000  0.50000000  0.00000000  1
  La  La3  1  0.00000000  0.00000000  0.50000000  1
  Sm  Sm0  1  0.00000000  0.00000000  0.00000000  1
  Sm  Sm1  1  0.50000000  0.00000000  0.50000000  1
  Sm  Sm2  1  0.50000000  0.50000000  0.50000000  1
  Sm  Sm3  1  0.00000000  0.50000000  0.50000000  1
  Co  Co0  1  0.25000300  0.74999700  0.74967200  1
  Co  Co1  1  0.25000300  0.25000300  0.74967200  1
  Co  Co2  1  0.74999700  0.74999700  0.74967200  1
  Co  Co3  1  0.74999700  0.25000300  0.74967200  1
  Co  Co4  1  0.25000300  0.74999700  0.25032800  1
  Co  Co5  1  0.25000300  0.25000300  0.25032800  1
  Co  Co6  1  0.74999700  0.74999700  0.25032800  1
  Co  Co7  1  0.74999700  0.25000300  0.25032800  1
  O  O0  1  0.24780300  0.75219700  0.00000000  1
  O  O1  1  0.24780300  0.24780300  0.00000000  1
  O  O2  1  0.75219700  0.75219700  0.00000000  1
  O  O3  1  0.75219700  0.24780300  0.00000000  1
  O  O4  1  0.25212000  0.74788000  0.50000000  1
  O  O5  1  0.25212000  0.25212000  0.50000000  1
  O  O6  1  0.74788000  0.74788000  0.50000000  1
  O  O7  1  0.74788000  0.25212000  0.50000000  1
  O  O8  1  0.50000000  0.74999100  0.74551600  1
  O  O9  1  0.50000000  0.25000900  0.74551600  1
  O  O10  1  0.00000000  0.74997300  0.74987400  1
  O  O11  1  0.00000000  0.25002700  0.74987400  1
  O  O12  1  0.50000000  0.74999100  0.25448400  1
  O  O13  1  0.50000000  0.25000900  0.25448400  1
  O  O14  1  0.00000000  0.74997300  0.25012600  1
  O  O15  1  0.00000000  0.25002700  0.25012600  1
  O  O16  1  0.25002700  0.00000000  0.74987400  1
  O  O17  1  0.25000900  0.50000000  0.74551600  1
  O  O18  1  0.74997300  0.00000000  0.74987400  1
  O  O19  1  0.74999100  0.50000000  0.74551600  1
  O  O20  1  0.25002700  0.00000000  0.25012600  1
  O  O21  1  0.25000900  0.50000000  0.25448400  1
  O  O22  1  0.74997300  0.00000000  0.25012600  1
  O  O23  1  0.74999100  0.50000000  0.25448400  1
loop_
_geom_bond_atom_site_label_1
_geom_bond_atom_site_label_2
_geom_bond_distance
_geom_bond_site_symmetry_2
La0 O2 2.677026 1_545
La0 O1 2.677026 1_555
La0 O0 2.677026 1_545
La0 O3 2.677026 1_555
La0 O22 2.677662 1_555
La0 O20 2.677662 1_555
La0 O18 2.677662 1_554
La0 O16 2.677662 1_554
La0 O9 2.701299 1_554
La0 O13 2.701299 1_555
La0 O12 2.701299 1_545
La0 O8 2.701299 1_544
La1 O0 2.700447 1_555
La1 O3 2.700447 1_555
La1 O2 2.700447 1_555
La1 O1 2.700447 1_555
La1 O12 2.701203 1_555
La1 O19 2.701203 1_554
La1 O13 2.701203 1_555
La1 O8 2.701203 1_554
La1 O23 2.701203 1_555
La1 O21 2.701203 1_555
La1 O9 2.701203 1_554
La1 O17 2.701203 1_554
La2 O1 2.677026 1_555
La2 O3 2.677026 1_455
La2 O0 2.677026 1_555
La2 O2 2.677026 1_455
La2 O15 2.677662 1_555
La2 O14 2.677662 1_555
La2 O10 2.677662 1_554
La2 O11 2.677662 1_554
La2 O21 2.701299 1_555
La2 O17 2.701299 1_554
La2 O23 2.701299 1_455
La2 O19 2.701299 1_454
La3 O18 2.676602 1_455
La3 O10 2.676602 1_545
La3 O16 2.676602 1_555
La3 O11 2.676602 1_555
La3 O20 2.676602 1_555
La3 O15 2.676602 1_555
La3 O22 2.676602 1_455
La3 O14 2.676602 1_545
La3 O6 2.699623 1_445
La3 O4 2.699623 1_545
La3 O7 2.699623 1_455
La3 O5 2.699623 1_555
Co0 O4 1.890818 1_555
Co0 O10 1.892893 1_555
Co0 O16 1.892893 1_565
Co0 O17 1.893109 1_555
Co0 O8 1.893109 1_555
Co0 O0 1.895796 1_556
Co1 O5 1.890818 1_555
Co1 O11 1.892893 1_555
Co1 O16 1.892893 1_555
Co1 O17 1.893109 1_555
Co1 O9 1.893109 1_555
Co1 O1 1.895796 1_556
Co2 O6 1.890818 1_555
Co2 O10 1.892893 1_655
Co2 O18 1.892893 1_565
Co2 O8 1.893109 1_555
Co2 O19 1.893109 1_555
Co2 O2 1.895796 1_556
Co3 O7 1.890818 1_555
Co3 O18 1.892893 1_555
Co3 O11 1.892893 1_655
Co3 O9 1.893109 1_555
Co3 O19 1.893109 1_555
Co3 O3 1.895796 1_556
Co4 O4 1.890818 1_555
Co4 O14 1.892893 1_555
Co4 O20 1.892893 1_565
Co4 O21 1.893109 1_555
Co4 O12 1.893109 1_555
Co4 O0 1.895796 1_555
Co5 O5 1.890818 1_555
Co5 O20 1.892893 1_555
Co5 O15 1.892893 1_555
Co5 O21 1.893109 1_555
Co5 O13 1.893109 1_555
Co5 O1 1.895796 1_555
Co6 O6 1.890818 1_555
Co6 O14 1.892893 1_655
Co6 O22 1.892893 1_565
Co6 O23 1.893109 1_555
Co6 O12 1.893109 1_555
Co6 O2 1.895796 1_555
Co7 O7 1.890818 1_555
Co7 O22 1.892893 1_555
Co7 O15 1.892893 1_655
Co7 O13 1.893109 1_555
Co7 O23 1.893109 1_555
Co7 O3 1.895796 1_555
O0 Sm0 2.653398 1_565
O1 Sm0 2.653398 1_555
O2 Sm0 2.653398 1_665
O3 Sm0 2.653398 1_655
O4 Sm2 2.654222 1_555
O4 Sm1 2.677019 1_565
O4 Sm3 2.677019 1_555
O5 Sm2 2.654222 1_555
O5 Sm3 2.677019 1_555
O5 Sm1 2.677019 1_555
O6 Sm2 2.654222 1_555
O6 Sm3 2.677019 1_655
O6 Sm1 2.677019 1_565
O7 Sm2 2.654222 1_555
O7 Sm3 2.677019 1_655
O7 Sm1 2.677019 1_555
O8 Sm2 2.653180 1_555
O8 Sm1 2.653277 1_565
O9 Sm2 2.653180 1_555
O9 Sm1 2.653277 1_555
O10 Sm3 2.676313 1_555
O10 Sm0 2.677951 1_566
O11 Sm3 2.676313 1_555
O11 Sm0 2.677951 1_556
O12 Sm2 2.653180 1_555
O12 Sm1 2.653277 1_565
O13 Sm2 2.653180 1_555
O13 Sm1 2.653277 1_555
O14 Sm3 2.676313 1_555
O14 Sm0 2.677951 1_565
O15 Sm3 2.676313 1_555
O15 Sm0 2.677951 1_555
O16 Sm1 2.676313 1_555
O16 Sm0 2.677951 1_556
O17 Sm2 2.653180 1_555
O17 Sm3 2.653277 1_555
O18 Sm1 2.676313 1_555
O18 Sm0 2.677951 1_656
O19 Sm2 2.653180 1_555
O19 Sm3 2.653277 1_655
O20 Sm1 2.676313 1_555
O20 Sm0 2.677951 1_555
O21 Sm2 2.653180 1_555
O21 Sm3 2.653277 1_555
O22 Sm1 2.676313 1_555
O22 Sm0 2.677951 1_655
O23 Sm2 2.653180 1_555
O23 Sm3 2.653277 1_655
