# generated using pymatgen
data_TmTlO3
_symmetry_space_group_name_H-M   'P 1'
_cell_length_a   5.74099800
_cell_length_b   5.84091900
_cell_length_c   8.49032100
_cell_angle_alpha   90.00000000
_cell_angle_beta   90.00000000
_cell_angle_gamma   90.00000000
_symmetry_Int_Tables_number   1
_chemical_formula_structural   TmTlO3
_chemical_formula_sum   'Tm4 Tl4 O12'
_cell_volume   284.70342348
_cell_formula_units_Z   4
loop_
 _symmetry_equiv_pos_site_id
 _symmetry_equiv_pos_as_xyz
  1  'x, y, z'
loop_
 _atom_site_type_symbol
 _atom_site_label
 _atom_site_symmetry_multiplicity
 _atom_site_fract_x
 _atom_site_fract_y
 _atom_site_fract_z
 _atom_site_occupancy
  Tm  Tm0  1  0.00000000  0.50000000  0.00000000  1
  Tm  Tm1  1  0.00000000  0.50000000  0.50000000  1
  Tm  Tm2  1  0.50000000  0.00000000  0.00000000  1
  Tm  Tm3  1  0.50000000  0.00000000  0.50000000  1
  Tl  Tl0  1  0.01478300  0.95295000  0.75000000  1
  Tl  Tl1  1  0.48521700  0.45295000  0.75000000  1
  Tl  Tl2  1  0.51478300  0.54705000  0.25000000  1
  Tl  Tl3  1  0.98521700  0.04705000  0.25000000  1
  O  O0  1  0.12539900  0.40789500  0.25000000  1
  O  O1  1  0.17448400  0.17868200  0.57252500  1
  O  O2  1  0.17448400  0.17868200  0.92747500  1
  O  O3  1  0.32551600  0.67868200  0.92747500  1
  O  O4  1  0.32551600  0.67868200  0.57252500  1
  O  O5  1  0.37460100  0.90789500  0.25000000  1
  O  O6  1  0.62539900  0.09210500  0.75000000  1
  O  O7  1  0.67448400  0.32131800  0.07252500  1
  O  O8  1  0.67448400  0.32131800  0.42747500  1
  O  O9  1  0.82551600  0.82131800  0.07252500  1
  O  O10  1  0.82551600  0.82131800  0.42747500  1
  O  O11  1  0.87460100  0.59210500  0.75000000  1
loop_
_geom_bond_atom_site_label_1
_geom_bond_atom_site_label_2
_geom_bond_distance
_geom_bond_site_symmetry_2
O0 Tl3 2.256089 1_455
O0 Tm1 2.305004 1_555
O0 Tm0 2.305004 1_555
O0 Tl2 2.378630 1_555
O1 Tl0 2.202159 1_545
O1 Tm1 2.214710 1_555
O1 Tm3 2.227278 1_555
O2 Tl0 2.202159 1_545
O2 Tm0 2.214710 1_556
O2 Tm2 2.227278 1_556
O3 Tl1 2.202159 1_555
O3 Tm2 2.214710 1_566
O3 Tm0 2.227278 1_556
O4 Tl1 2.202159 1_555
O4 Tm3 2.214710 1_565
O4 Tm1 2.227278 1_555
O5 Tl2 2.256089 1_555
O5 Tm3 2.305004 1_565
O5 Tm2 2.305004 1_565
O5 Tl3 2.378630 1_465
O6 Tl1 2.256089 1_555
O6 Tm2 2.305004 1_556
O6 Tm3 2.305004 1_555
O6 Tl0 2.378630 1_645
O7 Tl2 2.202159 1_555
O7 Tm2 2.214710 1_555
O7 Tm0 2.227278 1_655
O8 Tl2 2.202159 1_555
O8 Tm3 2.214710 1_555
O8 Tm1 2.227278 1_655
O9 Tl3 2.202159 1_565
O9 Tm0 2.214710 1_655
O9 Tm2 2.227278 1_565
O10 Tl3 2.202159 1_565
O10 Tm1 2.214710 1_655
O10 Tm3 2.227278 1_565
O11 Tl0 2.256089 1_655
O11 Tm1 2.305004 1_655
O11 Tm0 2.305004 1_656
O11 Tl1 2.378630 1_555
