# generated using pymatgen
data_BaTi2As2O
_symmetry_space_group_name_H-M   'P 1'
_cell_length_a   4.06497100
_cell_length_b   4.06497100
_cell_length_c   7.36739300
_cell_angle_alpha   90.00000000
_cell_angle_beta   90.00000000
_cell_angle_gamma   90.00000000
_symmetry_Int_Tables_number   1
_chemical_formula_structural   BaTi2As2O
_chemical_formula_sum   'Ba1 Ti2 As2 O1'
_cell_volume   121.73872259
_cell_formula_units_Z   1
loop_
 _symmetry_equiv_pos_site_id
 _symmetry_equiv_pos_as_xyz
  1  'x, y, z'
loop_
 _atom_site_type_symbol
 _atom_site_label
 _atom_site_symmetry_multiplicity
 _atom_site_fract_x
 _atom_site_fract_y
 _atom_site_fract_z
 _atom_site_occupancy
  Ba  Ba0  1  0.50000000  0.50000000  0.50000000  1
  Ti  Ti0  1  0.00000000  0.50000000  0.00000000  1
  Ti  Ti1  1  0.50000000  0.00000000  0.00000000  1
  As  As0  1  0.00000000  0.00000000  0.24300500  1
  As  As1  1  0.00000000  0.00000000  0.75699500  1
  O  O0  1  0.50000000  0.50000000  0.00000000  1
loop_
_geom_bond_atom_site_label_1
_geom_bond_atom_site_label_2
_geom_bond_distance
_geom_bond_site_symmetry_2
As0 Ti1 2.708546 1_555
As0 Ti0 2.708546 1_545
As0 Ti1 2.708546 1_455
As0 Ti0 2.708546 1_555
As0 Ba0 3.441932 1_545
As0 Ba0 3.441932 1_455
As0 Ba0 3.441932 1_555
As0 Ba0 3.441932 1_445
As1 Ti0 2.708546 1_556
As1 Ti0 2.708546 1_546
As1 Ti1 2.708546 1_456
As1 Ti1 2.708546 1_556
As1 Ba0 3.441932 1_545
As1 Ba0 3.441932 1_455
As1 Ba0 3.441932 1_555
As1 Ba0 3.441932 1_445
O0 Ti0 2.032485 1_655
O0 Ti1 2.032485 1_555
O0 Ti1 2.032485 1_565
O0 Ti0 2.032485 1_555
