# generated using pymatgen
data_Ba2NdInTe5
_symmetry_space_group_name_H-M   'P 1'
_cell_length_a   10.59040576
_cell_length_b   10.59040576
_cell_length_c   14.39691300
_cell_angle_alpha   90.00000000
_cell_angle_beta   90.00000000
_cell_angle_gamma   154.72375158
_symmetry_Int_Tables_number   1
_chemical_formula_structural   Ba2NdInTe5
_chemical_formula_sum   'Ba4 Nd2 In2 Te10'
_cell_volume   689.45386467
_cell_formula_units_Z   2
loop_
 _symmetry_equiv_pos_site_id
 _symmetry_equiv_pos_as_xyz
  1  'x, y, z'
loop_
 _atom_site_type_symbol
 _atom_site_label
 _atom_site_symmetry_multiplicity
 _atom_site_fract_x
 _atom_site_fract_y
 _atom_site_fract_z
 _atom_site_occupancy
  Ba  Ba0  1  0.12856200  0.87143800  0.81698200  1
  Ba  Ba1  1  0.87143800  0.12856200  0.31698200  1
  Ba  Ba2  1  0.11814700  0.88185300  0.18145400  1
  Ba  Ba3  1  0.88185300  0.11814700  0.68145400  1
  Nd  Nd0  1  0.20950700  0.79049300  0.51783900  1
  Nd  Nd1  1  0.79049300  0.20950700  0.01783900  1
  In  In0  1  0.44365800  0.55634200  0.93455700  1
  In  In1  1  0.55634200  0.44365800  0.43455700  1
  Te  Te0  1  0.35830500  0.64169500  0.50134200  1
  Te  Te1  1  0.64169500  0.35830500  0.00134200  1
  Te  Te2  1  0.29227500  0.70772500  0.16506500  1
  Te  Te3  1  0.70772500  0.29227500  0.66506500  1
  Te  Te4  1  0.31205500  0.68794500  0.86156500  1
  Te  Te5  1  0.68794500  0.31205500  0.36156500  1
  Te  Te6  1  0.50368500  0.49631500  0.76295300  1
  Te  Te7  1  0.49631500  0.50368500  0.26295300  1
  Te  Te8  1  0.04747900  0.95252100  0.55024400  1
  Te  Te9  1  0.95252100  0.04747900  0.05024400  1
loop_
_geom_bond_atom_site_label_1
_geom_bond_atom_site_label_2
_geom_bond_distance
_geom_bond_site_symmetry_2
Ba0 Te1 3.533764 1_456
Ba0 Te1 3.533764 1_566
Ba0 Te6 3.554591 1_455
Ba0 Te6 3.554591 1_565
Ba0 Te3 3.581813 1_455
Ba0 Te3 3.581813 1_565
Ba0 Te4 3.846299 1_555
Ba0 Te8 4.189922 1_555
Ba1 Te0 3.533764 1_655
Ba1 Te0 3.533764 1_545
Ba1 Te7 3.554591 1_545
Ba1 Te7 3.554591 1_655
Ba1 Te2 3.581813 1_545
Ba1 Te2 3.581813 1_655
Ba1 Te5 3.846299 1_555
Ba1 Te9 4.189922 1_555
Ba2 Te1 3.511376 1_455
Ba2 Te1 3.511376 1_565
Ba2 Te2 3.606540 1_555
Ba2 Te7 3.617443 1_565
Ba2 Te7 3.617443 1_455
Ba2 Te5 3.764812 1_565
Ba2 Te5 3.764812 1_455
Ba2 Te9 3.909730 1_465
Ba3 Te0 3.511376 1_545
Ba3 Te0 3.511376 1_655
Ba3 Te3 3.606540 1_555
Ba3 Te6 3.617443 1_655
Ba3 Te6 3.617443 1_545
Ba3 Te4 3.764812 1_545
Ba3 Te4 3.764812 1_655
Ba3 Te8 3.909730 1_645
Nd0 Te0 3.084460 1_555
Nd0 Te3 3.140545 1_455
Nd0 Te3 3.140545 1_565
Nd0 Te5 3.260282 1_565
Nd0 Te5 3.260282 1_455
Nd0 Te8 3.381076 1_555
Nd1 Te1 3.084460 1_555
Nd1 Te2 3.140545 1_545
Nd1 Te2 3.140545 1_655
Nd1 Te4 3.260282 1_654
Nd1 Te4 3.260282 1_544
Nd1 Te9 3.381076 1_555
In0 Te6 2.764567 1_555
In0 Te9 2.859462 1_566
In0 Te9 2.859462 1_456
In0 Te4 2.915867 1_555
In1 Te7 2.764567 1_555
In1 Te8 2.859462 1_545
In1 Te8 2.859462 1_655
In1 Te5 2.915867 1_555
