# generated using pymatgen
data_Rb2LaNb2ClO7
_symmetry_space_group_name_H-M   'P 1'
_cell_length_a   3.92904500
_cell_length_b   3.92904500
_cell_length_c   15.18542700
_cell_angle_alpha   90.00000000
_cell_angle_beta   90.00000000
_cell_angle_gamma   90.00000000
_symmetry_Int_Tables_number   1
_chemical_formula_structural   Rb2LaNb2ClO7
_chemical_formula_sum   'Rb2 La1 Nb2 Cl1 O7'
_cell_volume   234.42342895
_cell_formula_units_Z   1
loop_
 _symmetry_equiv_pos_site_id
 _symmetry_equiv_pos_as_xyz
  1  'x, y, z'
loop_
 _atom_site_type_symbol
 _atom_site_label
 _atom_site_symmetry_multiplicity
 _atom_site_fract_x
 _atom_site_fract_y
 _atom_site_fract_z
 _atom_site_occupancy
  Rb  Rb0  1  0.50000000  0.50000000  0.36644000  1
  Rb  Rb1  1  0.50000000  0.50000000  0.63356000  1
  La  La0  1  0.50000000  0.50000000  0.00000000  1
  Nb  Nb0  1  0.00000000  0.00000000  0.15292000  1
  Nb  Nb1  1  0.00000000  0.00000000  0.84708000  1
  Cl  Cl0  1  0.00000000  0.00000000  0.50000000  1
  O  O0  1  0.00000000  0.50000000  0.12404700  1
  O  O1  1  0.00000000  0.50000000  0.87595300  1
  O  O2  1  0.50000000  0.00000000  0.12404700  1
  O  O3  1  0.50000000  0.00000000  0.87595300  1
  O  O4  1  0.00000000  0.00000000  0.27203600  1
  O  O5  1  0.00000000  0.00000000  0.72796400  1
  O  O6  1  0.00000000  0.00000000  0.00000000  1
loop_
_geom_bond_atom_site_label_1
_geom_bond_atom_site_label_2
_geom_bond_distance
_geom_bond_site_symmetry_2
La0 O1 2.721709 1_554
La0 O3 2.721709 1_564
La0 O0 2.721709 1_655
La0 O2 2.721709 1_555
La0 O1 2.721709 1_654
La0 O3 2.721709 1_554
La0 O2 2.721709 1_565
La0 O0 2.721709 1_555
La0 O6 2.778254 1_665
La0 O6 2.778254 1_555
La0 O6 2.778254 1_565
La0 O6 2.778254 1_655
Nb0 O4 1.808827 1_555
Nb0 O0 2.012855 1_545
Nb0 O0 2.012855 1_555
Nb0 O2 2.012855 1_455
Nb0 O2 2.012855 1_555
Nb0 O6 2.322155 1_555
Nb1 O5 1.808827 1_555
Nb1 O3 2.012855 1_555
Nb1 O1 2.012855 1_555
Nb1 O3 2.012855 1_455
Nb1 O1 2.012855 1_545
Nb1 O6 2.322155 1_556
Cl0 Rb1 3.439790 1_555
Cl0 Rb1 3.439790 1_455
Cl0 Rb0 3.439790 1_545
Cl0 Rb0 3.439790 1_445
Cl0 Rb1 3.439790 1_545
Cl0 Rb1 3.439790 1_445
Cl0 Rb0 3.439790 1_455
Cl0 Rb0 3.439790 1_555
O4 Rb0 3.126309 1_455
O4 Rb0 3.126309 1_555
O4 Rb0 3.126309 1_545
O4 Rb0 3.126309 1_445
O5 Rb1 3.126309 1_445
O5 Rb1 3.126309 1_545
O5 Rb1 3.126309 1_555
O5 Rb1 3.126309 1_455
