# generated using pymatgen
data_K3TbF6
_symmetry_space_group_name_H-M   'P 1'
_cell_length_a   6.57910787
_cell_length_b   6.28211110
_cell_length_c   10.81647570
_cell_angle_alpha   55.84394152
_cell_angle_beta   90.00000000
_cell_angle_gamma   90.00000000
_symmetry_Int_Tables_number   1
_chemical_formula_structural   K3TbF6
_chemical_formula_sum   'K6 Tb2 F12'
_cell_volume   369.94093277
_cell_formula_units_Z   2
loop_
 _symmetry_equiv_pos_site_id
 _symmetry_equiv_pos_as_xyz
  1  'x, y, z'
loop_
 _atom_site_type_symbol
 _atom_site_label
 _atom_site_symmetry_multiplicity
 _atom_site_fract_x
 _atom_site_fract_y
 _atom_site_fract_z
 _atom_site_occupancy
  K  K0  1  0.50000000  0.50000000  0.00000000  1
  K  K1  1  0.00000000  0.50000000  0.50000000  1
  K  K2  1  0.05866457  0.72433302  0.75559842  1
  K  K3  1  0.94133543  0.27566698  0.24440158  1
  K  K4  1  0.55866457  0.27566698  0.74440158  1
  K  K5  1  0.44133543  0.72433302  0.25559842  1
  Tb  Tb0  1  0.50000000  0.00000000  0.50000000  1
  Tb  Tb1  1  0.00000000  0.00000000  0.00000000  1
  F  F0  1  0.77292488  0.75666374  0.57468609  1
  F  F1  1  0.22707512  0.24333626  0.42531391  1
  F  F2  1  0.27292488  0.24333626  0.92531391  1
  F  F3  1  0.72707512  0.75666374  0.07468609  1
  F  F4  1  0.43785454  0.89502957  0.72649250  1
  F  F5  1  0.56214546  0.10497043  0.27350750  1
  F  F6  1  0.93785454  0.10497043  0.77350750  1
  F  F7  1  0.06214546  0.89502957  0.22649250  1
  F  F8  1  0.32442905  0.66415137  0.55234522  1
  F  F9  1  0.67557095  0.33584863  0.44765478  1
  F  F10  1  0.82442905  0.33584863  0.94765478  1
  F  F11  1  0.17557095  0.66415137  0.05234522  1
loop_
_geom_bond_atom_site_label_1
_geom_bond_atom_site_label_2
_geom_bond_distance
_geom_bond_site_symmetry_2
F0 Tb0 2.197026 1_565
F0 K1 2.635704 1_655
F0 K2 2.637846 1_655
F0 K4 2.873817 1_555
F1 Tb0 2.197026 1_555
F1 K1 2.635704 1_555
F1 K3 2.637846 1_455
F1 K5 2.873817 1_555
F2 Tb1 2.197026 1_556
F2 K0 2.635704 1_556
F2 K4 2.637846 1_555
F2 K2 2.873817 1_555
F3 Tb1 2.197026 1_665
F3 K0 2.635704 1_555
F3 K5 2.637846 1_555
F3 K3 2.873817 1_555
F4 Tb0 2.188545 1_565
F4 K0 2.614154 1_556
F4 K4 2.628169 1_565
F4 K2 2.663384 1_555
F5 Tb0 2.188545 1_555
F5 K0 2.614154 1_555
F5 K5 2.628169 1_545
F5 K3 2.663384 1_555
F6 Tb1 2.188545 1_656
F6 K1 2.614154 1_655
F6 K2 2.628169 1_645
F6 K4 2.663384 1_555
F7 Tb1 2.188545 1_565
F7 K1 2.614154 1_555
F7 K3 2.628169 1_465
F7 K5 2.663384 1_555
F8 Tb0 2.182857 1_565
F8 K1 2.568170 1_555
F8 K4 2.636948 1_555
F8 K2 2.994465 1_555
F8 K5 3.110369 1_555
F9 Tb0 2.182857 1_555
F9 K1 2.568170 1_655
F9 K5 2.636948 1_555
F9 K3 2.994465 1_555
F9 K4 3.110369 1_555
F10 Tb1 2.182857 1_656
F10 K0 2.568170 1_556
F10 K2 2.636948 1_655
F10 K4 2.994465 1_555
F10 K3 3.110369 1_556
F11 Tb1 2.182857 1_565
F11 K0 2.568170 1_555
F11 K3 2.636948 1_455
F11 K5 2.994465 1_555
F11 K2 3.110369 1_554
