# generated using pymatgen
data_BaSi(HO2)2
_symmetry_space_group_name_H-M   'P 1'
_cell_length_a   7.22146964
_cell_length_b   7.61251235
_cell_length_c   7.68599251
_cell_angle_alpha   88.77800331
_cell_angle_beta   92.82077394
_cell_angle_gamma   77.76652292
_symmetry_Int_Tables_number   1
_chemical_formula_structural   BaSi(HO2)2
_chemical_formula_sum   'Ba4 Si4 H8 O16'
_cell_volume   412.21288246
_cell_formula_units_Z   4
loop_
 _symmetry_equiv_pos_site_id
 _symmetry_equiv_pos_as_xyz
  1  'x, y, z'
loop_
 _atom_site_type_symbol
 _atom_site_label
 _atom_site_symmetry_multiplicity
 _atom_site_fract_x
 _atom_site_fract_y
 _atom_site_fract_z
 _atom_site_occupancy
  Ba  Ba0  1  0.08498900  0.78913200  0.19565000  1
  Ba  Ba1  1  0.91501100  0.21086800  0.80435000  1
  Ba  Ba2  1  0.40977900  0.70057500  0.69581800  1
  Ba  Ba3  1  0.59022100  0.29942500  0.30418200  1
  Si  Si0  1  0.58299200  0.76127300  0.21804900  1
  Si  Si1  1  0.41700800  0.23872700  0.78195100  1
  Si  Si2  1  0.10669600  0.25414800  0.27265300  1
  Si  Si3  1  0.89330400  0.74585200  0.72734700  1
  H  H0  1  0.76398100  0.59139100  0.00963800  1
  H  H1  1  0.23601900  0.40860900  0.99036200  1
  H  H2  1  0.28939100  0.08901000  0.50070400  1
  H  H3  1  0.71060900  0.91099000  0.49929600  1
  H  H4  1  0.05327900  0.39172700  0.52414300  1
  H  H5  1  0.94672100  0.60827300  0.47585700  1
  H  H6  1  0.39056900  0.95098300  0.99135800  1
  H  H7  1  0.60943100  0.04901700  0.00864200  1
  O  O0  1  0.69585500  0.91527300  0.27471500  1
  O  O1  1  0.30414500  0.08472700  0.72528500  1
  O  O2  1  0.97240300  0.16391700  0.14650200  1
  O  O3  1  0.02759700  0.83608300  0.85349800  1
  O  O4  1  0.73713400  0.58760700  0.13932200  1
  O  O5  1  0.26286600  0.41239300  0.86067800  1
  O  O6  1  0.42672900  0.82861300  0.04174800  1
  O  O7  1  0.57327100  0.17138700  0.95825200  1
  O  O8  1  0.97468800  0.33388200  0.44644900  1
  O  O9  1  0.02531200  0.66611800  0.55355100  1
  O  O10  1  0.20531800  0.40810500  0.19307100  1
  O  O11  1  0.79468200  0.59189500  0.80692900  1
  O  O12  1  0.46611500  0.67444800  0.35746100  1
  O  O13  1  0.53388500  0.32555200  0.64253900  1
  O  O14  1  0.27603900  0.08981700  0.36948200  1
  O  O15  1  0.72396100  0.91018300  0.63051800  1
loop_
_geom_bond_atom_site_label_1
_geom_bond_atom_site_label_2
_geom_bond_distance
_geom_bond_site_symmetry_2
Ba0 O3 2.646716 1_554
Ba0 O2 2.807919 1_465
Ba0 O10 2.846891 1_555
Ba0 O6 2.857692 1_555
Ba0 H5 2.863324 1_455
Ba0 O0 2.870112 1_455
Ba0 O12 2.912474 1_555
Ba0 O9 2.967747 1_555
Ba0 O14 3.196135 1_565
Ba0 O4 3.225781 1_455
Ba1 O2 2.646716 1_556
Ba1 O3 2.807919 1_645
Ba1 O11 2.846891 1_555
Ba1 O7 2.857692 1_555
Ba1 H4 2.863324 1_655
Ba1 O1 2.870112 1_655
Ba1 O13 2.912474 1_555
Ba1 O8 2.967747 1_555
Ba1 O15 3.196135 1_545
Ba1 O5 3.225781 1_655
Ba2 O12 2.657092 1_555
Ba2 O11 2.810951 1_555
Ba2 O13 2.850062 1_555
Ba2 O6 2.857161 1_556
Ba2 O1 2.878361 1_565
Ba2 O5 2.923005 1_555
Ba2 O9 2.999169 1_555
Ba2 O3 3.053851 1_555
Ba2 O15 3.091577 1_555
Ba3 O13 2.657092 1_555
Ba3 O10 2.810951 1_555
Ba3 O12 2.850062 1_555
Ba3 O7 2.857161 1_554
Ba3 O0 2.878361 1_545
Ba3 O4 2.923005 1_555
Ba3 O8 2.999169 1_555
Ba3 O2 3.053851 1_555
Ba3 O14 3.091577 1_555
H0 O4 1.025715 1_555
H0 O11 1.584518 1_554
H1 O5 1.025715 1_555
H1 O10 1.584518 1_556
H2 O14 1.008198 1_555
H3 O15 1.008198 1_555
H4 O8 0.977944 1_455
H5 O9 0.977944 1_655
H6 O6 0.978534 1_556
H7 O7 0.978534 1_554
O0 Si0 1.618670 1_555
O1 Si1 1.618670 1_555
O2 Si2 1.603304 1_655
O3 Si3 1.603304 1_455
O4 Si0 1.682183 1_555
O5 Si1 1.682183 1_555
O6 Si0 1.716700 1_555
O7 Si1 1.716700 1_555
O8 Si2 1.725176 1_655
O9 Si3 1.725176 1_455
O10 Si2 1.618943 1_555
O11 Si3 1.618943 1_555
O12 Si0 1.610161 1_555
O13 Si1 1.610161 1_555
O14 Si2 1.684247 1_555
O15 Si3 1.684247 1_555
