# generated using pymatgen
data_Ca3(SiP2)2
_symmetry_space_group_name_H-M   'P 1'
_cell_length_a   17.26389198
_cell_length_b   6.93381266
_cell_length_c   7.09579263
_cell_angle_alpha   68.18350292
_cell_angle_beta   90.00000000
_cell_angle_gamma   90.00000000
_symmetry_Int_Tables_number   1
_chemical_formula_structural   Ca3(SiP2)2
_chemical_formula_sum   'Ca12 Si8 P16'
_cell_volume   788.56404637
_cell_formula_units_Z   4
loop_
 _symmetry_equiv_pos_site_id
 _symmetry_equiv_pos_as_xyz
  1  'x, y, z'
loop_
 _atom_site_type_symbol
 _atom_site_label
 _atom_site_symmetry_multiplicity
 _atom_site_fract_x
 _atom_site_fract_y
 _atom_site_fract_z
 _atom_site_occupancy
  Ca  Ca0  1  0.31616001  0.48785174  0.21605991  1
  Ca  Ca1  1  0.81616001  0.01214826  0.78394009  1
  Ca  Ca2  1  0.68383999  0.51214826  0.78394009  1
  Ca  Ca3  1  0.18383999  0.98785174  0.21605991  1
  Ca  Ca4  1  0.06234849  0.48791460  0.25625915  1
  Ca  Ca5  1  0.56234849  0.01208540  0.74374085  1
  Ca  Ca6  1  0.93765151  0.51208540  0.74374085  1
  Ca  Ca7  1  0.43765151  0.98791460  0.25625915  1
  Ca  Ca8  1  0.55817177  0.49539376  0.26130337  1
  Ca  Ca9  1  0.05817177  0.00460624  0.73869663  1
  Ca  Ca10  1  0.44182823  0.50460624  0.73869663  1
  Ca  Ca11  1  0.94182823  0.99539376  0.26130337  1
  Si  Si0  1  0.74155647  0.08555025  0.31622428  1
  Si  Si1  1  0.24155647  0.41444975  0.68377572  1
  Si  Si2  1  0.25844353  0.91444975  0.68377572  1
  Si  Si3  1  0.75844353  0.58555025  0.31622428  1
  Si  Si4  1  0.87160736  0.47171012  0.21213064  1
  Si  Si5  1  0.37160736  0.02828988  0.78786936  1
  Si  Si6  1  0.12839264  0.52828988  0.78786936  1
  Si  Si7  1  0.62839264  0.97171012  0.21213064  1
  P  P0  1  0.69952606  0.27684358  0.49872134  1
  P  P1  1  0.19952606  0.22315642  0.50127866  1
  P  P2  1  0.30047394  0.72315642  0.50127866  1
  P  P3  1  0.80047394  0.77684358  0.49872134  1
  P  P4  1  0.81397931  0.27879951  0.04626332  1
  P  P5  1  0.31397931  0.22120049  0.95373668  1
  P  P6  1  0.18602069  0.72120049  0.95373668  1
  P  P7  1  0.68602069  0.77879951  0.04626332  1
  P  P8  1  0.93154608  0.26130609  0.49240943  1
  P  P9  1  0.43154608  0.23869391  0.50759057  1
  P  P10  1  0.06845392  0.73869391  0.50759057  1
  P  P11  1  0.56845392  0.76130609  0.49240943  1
  P  P12  1  0.56156052  0.24329592  0.01067177  1
  P  P13  1  0.06156052  0.25670408  0.98932823  1
  P  P14  1  0.43843948  0.75670408  0.98932823  1
  P  P15  1  0.93843948  0.74329592  0.01067177  1
loop_
_geom_bond_atom_site_label_1
_geom_bond_atom_site_label_2
_geom_bond_distance
_geom_bond_site_symmetry_2
Ca0 P14 2.879362 1_554
Ca0 P9 2.928435 1_555
Ca0 P1 2.959397 1_555
Ca0 P6 2.981925 1_554
Ca0 P2 3.047229 1_555
Ca0 P5 3.072891 1_554
Ca1 P15 2.879362 1_546
Ca1 P8 2.928435 1_555
Ca1 P0 2.959397 1_555
Ca1 P7 2.981925 1_546
Ca1 P3 3.047229 1_545
Ca1 P4 3.072891 1_556
Ca2 P12 2.879362 1_556
Ca2 P11 2.928435 1_555
Ca2 P3 2.959397 1_555
Ca2 P4 2.981925 1_556
Ca2 P0 3.047229 1_555
Ca2 P7 3.072891 1_556
Ca3 P13 2.879362 1_564
Ca3 P10 2.928435 1_555
Ca3 P2 2.959397 1_555
Ca3 P5 2.981925 1_564
Ca3 P1 3.047229 1_565
Ca3 P6 3.072891 1_554
Ca4 P13 2.900841 1_554
Ca4 P8 2.901560 1_455
Ca4 P15 2.907711 1_455
Ca4 P10 2.918932 1_555
Ca4 P6 3.033509 1_554
Ca4 P1 3.103066 1_555
Ca5 P12 2.900841 1_556
Ca5 P9 2.901560 1_555
Ca5 P14 2.907711 1_545
Ca5 P11 2.918932 1_545
Ca5 P7 3.033509 1_546
Ca5 P0 3.103066 1_555
Ca6 P15 2.900841 1_556
Ca6 P10 2.901560 1_655
Ca6 P13 2.907711 1_655
Ca6 P8 2.918932 1_555
Ca6 P4 3.033509 1_556
Ca6 P3 3.103066 1_555
Ca7 P14 2.900841 1_554
Ca7 P11 2.901560 1_555
Ca7 P12 2.907711 1_565
Ca7 P9 2.918932 1_565
Ca7 P5 3.033509 1_564
Ca7 P2 3.103066 1_555
Ca8 P11 2.892682 1_555
Ca8 P12 2.921016 1_555
Ca8 P14 2.946356 1_554
Ca8 P9 2.947714 1_555
Ca8 P7 2.971999 1_555
Ca8 P0 3.031861 1_555
Ca9 P10 2.892682 1_545
Ca9 P13 2.921016 1_555
Ca9 P15 2.946356 1_446
Ca9 P8 2.947714 1_455
Ca9 P6 2.971999 1_545
Ca9 P1 3.031861 1_555
Ca10 P9 2.892682 1_555
Ca10 P14 2.921016 1_555
Ca10 P12 2.946356 1_556
Ca10 P11 2.947714 1_555
Ca10 P5 2.971999 1_555
Ca10 P2 3.031861 1_555
Ca11 P8 2.892682 1_565
Ca11 P15 2.921016 1_555
Ca11 P13 2.946356 1_664
Ca11 P10 2.947714 1_655
Ca11 P4 2.971999 1_565
Ca11 P3 3.031861 1_555
Si0 Si7 2.327816 1_545
Si1 Si6 2.327816 1_555
Si2 Si5 2.327816 1_565
Si3 Si4 2.327816 1_555
P0 Si3 2.287586 1_555
P0 Si0 2.288976 1_555
P1 Si2 2.287586 1_545
P1 Si1 2.288976 1_555
P2 Si1 2.287586 1_555
P2 Si2 2.288976 1_555
P3 Si0 2.287586 1_565
P3 Si3 2.288976 1_555
P4 Si0 2.262825 1_555
P4 Si4 2.309623 1_555
P5 Si1 2.262825 1_555
P5 Si5 2.309623 1_555
P6 Si2 2.262825 1_555
P6 Si6 2.309623 1_555
P7 Si3 2.262825 1_555
P7 Si7 2.309623 1_555
P8 Si4 2.235600 1_555
P9 Si5 2.235600 1_555
P10 Si6 2.235600 1_555
P11 Si7 2.235600 1_555
P12 Si7 2.218114 1_545
P13 Si6 2.218114 1_555
P14 Si5 2.218114 1_565
P15 Si4 2.218114 1_555
