# generated using pymatgen
data_Cs3FeF6
_symmetry_space_group_name_H-M   'P 1'
_cell_length_a   6.68843030
_cell_length_b   6.68843030
_cell_length_c   6.68843030
_cell_angle_alpha   60.00000000
_cell_angle_beta   60.00000000
_cell_angle_gamma   60.00000000
_symmetry_Int_Tables_number   1
_chemical_formula_structural   Cs3FeF6
_chemical_formula_sum   'Cs3 Fe1 F6'
_cell_volume   211.57172109
_cell_formula_units_Z   1
loop_
 _symmetry_equiv_pos_site_id
 _symmetry_equiv_pos_as_xyz
  1  'x, y, z'
loop_
 _atom_site_type_symbol
 _atom_site_label
 _atom_site_symmetry_multiplicity
 _atom_site_fract_x
 _atom_site_fract_y
 _atom_site_fract_z
 _atom_site_occupancy
  Cs  Cs0  1  0.25000000  0.25000000  0.25000000  1
  Cs  Cs1  1  0.75000000  0.75000000  0.75000000  1
  Cs  Cs2  1  0.50000000  0.50000000  0.50000000  1
  Fe  Fe0  1  0.00000000  -0.00000000  0.00000000  1
  F  F0  1  0.79471355  0.20528645  0.20528645  1
  F  F1  1  0.20528645  0.79471355  0.79471355  1
  F  F2  1  0.20528645  0.79471355  0.20528645  1
  F  F3  1  0.79471355  0.20528645  0.79471355  1
  F  F4  1  0.20528645  0.20528645  0.79471355  1
  F  F5  1  0.79471355  0.79471355  0.20528645  1
loop_
_geom_bond_atom_site_label_1
_geom_bond_atom_site_label_2
_geom_bond_distance
_geom_bond_site_symmetry_2
Cs0 F4 3.370853 1_555
Cs0 F5 3.370853 1_455
Cs0 F5 3.370853 1_545
Cs0 F4 3.370853 1_554
Cs0 F0 3.370853 1_555
Cs0 F1 3.370853 1_554
Cs0 F3 3.370853 1_554
Cs0 F1 3.370853 1_545
Cs0 F2 3.370853 1_545
Cs0 F2 3.370853 1_555
Cs0 F0 3.370853 1_455
Cs0 F3 3.370853 1_455
Cs1 F5 3.370853 1_555
Cs1 F4 3.370853 1_565
Cs1 F5 3.370853 1_556
Cs1 F4 3.370853 1_655
Cs1 F3 3.370853 1_555
Cs1 F0 3.370853 1_556
Cs1 F1 3.370853 1_555
Cs1 F2 3.370853 1_655
Cs1 F3 3.370853 1_565
Cs1 F0 3.370853 1_565
Cs1 F1 3.370853 1_655
Cs1 F2 3.370853 1_556
Cs2 F0 2.787657 1_555
Cs2 F1 2.787657 1_555
Cs2 F4 2.787657 1_555
Cs2 F2 2.787657 1_555
Cs2 F5 2.787657 1_555
Cs2 F3 2.787657 1_555
F0 Fe0 1.941778 1_655
F1 Fe0 1.941778 1_566
F2 Fe0 1.941778 1_565
F3 Fe0 1.941778 1_656
F4 Fe0 1.941778 1_556
F5 Fe0 1.941778 1_665
