# generated using pymatgen
data_LiMn6N7
_symmetry_space_group_name_H-M   'P 1'
_cell_length_a   13.00233388
_cell_length_b   5.65481000
_cell_length_c   7.95383811
_cell_angle_alpha   90.00000000
_cell_angle_beta   82.02367282
_cell_angle_gamma   90.00000000
_symmetry_Int_Tables_number   1
_chemical_formula_structural   LiMn6N7
_chemical_formula_sum   'Li4 Mn24 N28'
_cell_volume   579.15396508
_cell_formula_units_Z   4
loop_
 _symmetry_equiv_pos_site_id
 _symmetry_equiv_pos_as_xyz
  1  'x, y, z'
loop_
 _atom_site_type_symbol
 _atom_site_label
 _atom_site_symmetry_multiplicity
 _atom_site_fract_x
 _atom_site_fract_y
 _atom_site_fract_z
 _atom_site_occupancy
  Li  Li0  1  0.25080900  0.43456600  0.58828200  1
  Li  Li1  1  0.74919100  0.56543400  0.41171800  1
  Li  Li2  1  0.24919100  0.43456600  0.91171800  1
  Li  Li3  1  0.75080900  0.56543400  0.08828200  1
  Mn  Mn0  1  0.46530000  0.27413400  0.56593000  1
  Mn  Mn1  1  0.53470000  0.72586600  0.43407000  1
  Mn  Mn2  1  0.03470000  0.27413400  0.93407000  1
  Mn  Mn3  1  0.96530000  0.72586600  0.06593000  1
  Mn  Mn4  1  0.56160500  0.79253200  0.74979900  1
  Mn  Mn5  1  0.43839500  0.20746800  0.25020100  1
  Mn  Mn6  1  0.93839500  0.79253200  0.75020100  1
  Mn  Mn7  1  0.06160500  0.20746800  0.24979900  1
  Mn  Mn8  1  0.67264000  0.09423500  0.96410700  1
  Mn  Mn9  1  0.32736000  0.90576500  0.03589300  1
  Mn  Mn10  1  0.82736000  0.09423500  0.53589300  1
  Mn  Mn11  1  0.17264000  0.90576500  0.46410700  1
  Mn  Mn12  1  0.25000000  0.42280200  0.25000000  1
  Mn  Mn13  1  0.75000000  0.57719800  0.75000000  1
  Mn  Mn14  1  0.25000000  0.02781600  0.75000000  1
  Mn  Mn15  1  0.75000000  0.97218400  0.25000000  1
  Mn  Mn16  1  0.45000500  0.23801900  0.93770400  1
  Mn  Mn17  1  0.54999500  0.76198100  0.06229600  1
  Mn  Mn18  1  0.04999500  0.23801900  0.56229600  1
  Mn  Mn19  1  0.95000500  0.76198100  0.43770400  1
  Mn  Mn20  1  0.64483900  0.25282000  0.61776700  1
  Mn  Mn21  1  0.35516100  0.74718000  0.38223300  1
  Mn  Mn22  1  0.85516100  0.25282000  0.88223300  1
  Mn  Mn23  1  0.14483900  0.74718000  0.11776700  1
  N  N0  1  0.55707100  0.00798600  0.59067400  1
  N  N1  1  0.44292900  0.99201400  0.40932600  1
  N  N2  1  0.94292900  0.00798600  0.90932600  1
  N  N3  1  0.05707100  0.99201400  0.09067400  1
  N  N4  1  0.04820900  0.87802100  0.59304900  1
  N  N5  1  0.95179100  0.12197900  0.40695100  1
  N  N6  1  0.45179100  0.87802100  0.90695100  1
  N  N7  1  0.54820900  0.12197900  0.09304900  1
  N  N8  1  0.75000000  0.23614800  0.75000000  1
  N  N9  1  0.25000000  0.76385200  0.25000000  1
  N  N10  1  0.07412000  0.47405600  0.11009200  1
  N  N11  1  0.92588000  0.52594400  0.88990800  1
  N  N12  1  0.42588000  0.47405600  0.38990800  1
  N  N13  1  0.57412000  0.52594400  0.61009200  1
  N  N14  1  0.36114900  0.23863000  0.73985000  1
  N  N15  1  0.63885100  0.76137000  0.26015000  1
  N  N16  1  0.13885100  0.23863000  0.76015000  1
  N  N17  1  0.86114900  0.76137000  0.23985000  1
  N  N18  1  0.22168600  0.82772200  0.92131600  1
  N  N19  1  0.77831400  0.17227800  0.07868400  1
  N  N20  1  0.27831400  0.82772200  0.57868400  1
  N  N21  1  0.72168600  0.17227800  0.42131600  1
  N  N22  1  0.00000000  0.50000000  0.50000000  1
  N  N23  1  0.50000000  0.50000000  0.00000000  1
  N  N24  1  0.17006000  0.22177800  0.39525600  1
  N  N25  1  0.82994000  0.77822200  0.60474400  1
  N  N26  1  0.32994000  0.22177800  0.10474400  1
  N  N27  1  0.67006000  0.77822200  0.89525600  1
loop_
_geom_bond_atom_site_label_1
_geom_bond_atom_site_label_2
_geom_bond_distance
_geom_bond_site_symmetry_2
Li0 N16 2.159438 1_555
Li0 N20 2.251415 1_555
Li0 N14 2.284572 1_555
Li0 N24 2.314026 1_555
Li1 N17 2.159438 1_555
Li1 N21 2.251415 1_555
Li1 N15 2.284572 1_555
Li1 N25 2.314026 1_555
Li2 N14 2.159438 1_555
Li2 N18 2.251415 1_555
Li2 N16 2.284572 1_555
Li2 N26 2.314026 1_556
Li3 N15 2.159438 1_555
Li3 N19 2.251415 1_555
Li3 N17 2.284572 1_555
Li3 N27 2.314026 1_554
Mn0 N14 1.807731 1_555
Mn0 N12 1.923560 1_555
Mn0 N0 1.947511 1_555
Mn0 N1 2.069247 1_545
Mn0 N13 2.071447 1_555
Mn1 N15 1.807731 1_555
Mn1 N13 1.923560 1_555
Mn1 N1 1.947511 1_555
Mn1 N0 2.069247 1_565
Mn1 N12 2.071447 1_555
Mn2 N16 1.807731 1_555
Mn2 N10 1.923560 1_556
Mn2 N2 1.947511 1_455
Mn2 N3 2.069247 1_546
Mn2 N11 2.071447 1_455
Mn3 N17 1.807731 1_555
Mn3 N11 1.923560 1_554
Mn3 N3 1.947511 1_655
Mn3 N2 2.069247 1_564
Mn3 N10 2.071447 1_655
Mn4 N0 1.763645 1_565
Mn4 N6 1.827432 1_555
Mn4 N13 1.866453 1_555
Mn4 N27 1.945872 1_555
Mn5 N1 1.763645 1_545
Mn5 N7 1.827432 1_555
Mn5 N12 1.866453 1_555
Mn5 N26 1.945872 1_555
Mn6 N2 1.763645 1_565
Mn6 N4 1.827432 1_655
Mn6 N11 1.866453 1_555
Mn6 N25 1.945872 1_555
Mn7 N3 1.763645 1_545
Mn7 N5 1.827432 1_455
Mn7 N10 1.866453 1_555
Mn7 N24 1.945872 1_555
Mn8 N7 1.798198 1_556
Mn8 N19 1.805738 1_556
Mn8 N27 1.870686 1_545
Mn8 N8 2.020017 1_555
Mn9 N6 1.798198 1_554
Mn9 N18 1.805738 1_554
Mn9 N26 1.870686 1_565
Mn9 N9 2.020017 1_555
Mn10 N5 1.798198 1_555
Mn10 N21 1.805738 1_555
Mn10 N25 1.870686 1_545
Mn10 N8 2.020017 1_555
Mn11 N4 1.798198 1_555
Mn11 N20 1.805738 1_555
Mn11 N24 1.870686 1_565
Mn11 N9 2.020017 1_555
Mn12 N24 1.836876 1_555
Mn12 N26 1.836876 1_555
Mn12 N9 1.928573 1_555
Mn13 N27 1.836876 1_555
Mn13 N25 1.836876 1_555
Mn13 N8 1.928573 1_555
Mn14 N18 1.770119 1_545
Mn14 N20 1.770119 1_545
Mn14 N16 1.866511 1_555
Mn14 N14 1.866511 1_555
Mn15 N21 1.770119 1_565
Mn15 N19 1.770119 1_565
Mn15 N17 1.866511 1_555
Mn15 N15 1.866511 1_555
Mn16 N23 1.718189 1_556
Mn16 N26 1.906599 1_556
Mn16 N7 2.006375 1_556
Mn16 N6 2.050110 1_545
Mn16 N14 2.077481 1_555
Mn17 N23 1.718189 1_555
Mn17 N27 1.906599 1_554
Mn17 N6 2.006375 1_554
Mn17 N7 2.050110 1_565
Mn17 N15 2.077481 1_555
Mn18 N22 1.718189 1_555
Mn18 N24 1.906599 1_555
Mn18 N5 2.006375 1_455
Mn18 N4 2.050110 1_545
Mn18 N16 2.077481 1_555
Mn19 N22 1.718189 1_655
Mn19 N25 1.906599 1_555
Mn19 N4 2.006375 1_655
Mn19 N5 2.050110 1_565
Mn19 N17 2.077481 1_555
Mn20 N21 1.792777 1_555
Mn20 N13 1.802825 1_555
Mn20 N0 1.825873 1_555
Mn20 N8 1.839516 1_555
Mn21 N20 1.792777 1_555
Mn21 N12 1.802825 1_555
Mn21 N1 1.825873 1_555
Mn21 N9 1.839516 1_555
Mn22 N19 1.792777 1_556
Mn22 N11 1.802825 1_555
Mn22 N2 1.825873 1_555
Mn22 N8 1.839516 1_555
Mn23 N18 1.792777 1_554
Mn23 N10 1.802825 1_555
Mn23 N3 1.825873 1_555
Mn23 N9 1.839516 1_555
