# generated using pymatgen
data_Li9Mn2Co5O16
_symmetry_space_group_name_H-M   'P 1'
_cell_length_a   2.90082700
_cell_length_b   9.82535300
_cell_length_c   10.40916738
_cell_angle_alpha   80.80073629
_cell_angle_beta   90.00000000
_cell_angle_gamma   90.00000000
_symmetry_Int_Tables_number   1
_chemical_formula_structural   Li9Mn2Co5O16
_chemical_formula_sum   'Li9 Mn2 Co5 O16'
_cell_volume   292.86265469
_cell_formula_units_Z   1
loop_
 _symmetry_equiv_pos_site_id
 _symmetry_equiv_pos_as_xyz
  1  'x, y, z'
loop_
 _atom_site_type_symbol
 _atom_site_label
 _atom_site_symmetry_multiplicity
 _atom_site_fract_x
 _atom_site_fract_y
 _atom_site_fract_z
 _atom_site_occupancy
  Li  Li0  1  0.50000000  0.00209100  0.26964900  1
  Li  Li1  1  0.50000000  0.00685600  0.72557600  1
  Li  Li2  1  0.00000000  0.74846100  0.38062100  1
  Li  Li3  1  0.00000000  0.74669800  0.86345300  1
  Li  Li4  1  0.50000000  0.49805200  0.50468200  1
  Li  Li5  1  0.50000000  0.49555400  0.99820000  1
  Li  Li6  1  0.00000000  0.24979600  0.13399200  1
  Li  Li7  1  0.00000000  0.25353500  0.62364800  1
  Li  Li8  1  0.00000000  0.00011000  0.49924400  1
  Mn  Mn0  1  0.00000000  0.00177400  0.00158600  1
  Mn  Mn1  1  0.50000000  0.74343200  0.13034700  1
  Co  Co0  1  0.50000000  0.76795600  0.60763500  1
  Co  Co1  1  0.00000000  0.48287700  0.25806600  1
  Co  Co2  1  0.00000000  0.50737800  0.74734200  1
  Co  Co3  1  0.50000000  0.23001300  0.39180900  1
  Co  Co4  1  0.50000000  0.25399700  0.86889100  1
  O  O0  1  0.50000000  0.11069200  0.05825600  1
  O  O1  1  0.50000000  0.13709500  0.55551300  1
  O  O2  1  0.00000000  0.85513000  0.18471000  1
  O  O3  1  0.00000000  0.86453400  0.68488100  1
  O  O4  1  0.50000000  0.62408800  0.29336800  1
  O  O5  1  0.50000000  0.61523100  0.81173200  1
  O  O6  1  0.00000000  0.36386000  0.92351300  1
  O  O7  1  0.00000000  0.37953500  0.42456100  1
  O  O8  1  0.50000000  0.86655500  0.44594600  1
  O  O9  1  0.50000000  0.87604200  0.95915000  1
  O  O10  1  0.00000000  0.63592700  0.57258800  1
  O  O11  1  0.00000000  0.63753000  0.07064200  1
  O  O12  1  0.50000000  0.38986800  0.69041000  1
  O  O13  1  0.50000000  0.38338300  0.18417500  1
  O  O14  1  0.00000000  0.13339700  0.31559100  1
  O  O15  1  0.00000000  0.13855500  0.82022300  1
loop_
_geom_bond_atom_site_label_1
_geom_bond_atom_site_label_2
_geom_bond_distance
_geom_bond_site_symmetry_2
Li0 O14 2.047947 1_555
Li0 O14 2.047947 1_655
Li0 O8 2.087974 1_545
Li0 O0 2.286859 1_555
Li0 O2 2.319176 1_645
Li0 O2 2.319176 1_545
Li1 O1 2.011682 1_555
Li1 O3 2.104271 1_545
Li1 O3 2.104271 1_645
Li1 O15 2.270756 1_555
Li1 O15 2.270756 1_655
Li1 O9 2.562048 1_545
Li2 O8 2.040753 1_555
Li2 O8 2.040753 1_455
Li2 O10 2.123437 1_555
Li2 O2 2.138618 1_555
Li2 O4 2.185579 1_455
Li2 O4 2.185579 1_555
Li3 O3 2.026683 1_555
Li3 O5 2.069882 1_455
Li3 O5 2.069882 1_555
Li3 O11 2.249904 1_556
Li3 O9 2.261811 1_455
Li3 O9 2.261811 1_555
Li4 O12 2.051915 1_555
Li4 O7 2.113233 1_655
Li4 O7 2.113233 1_555
Li4 O10 2.178216 1_555
Li4 O10 2.178216 1_655
Li4 O4 2.345386 1_555
Li5 O13 2.068815 1_556
Li5 O5 2.102454 1_555
Li5 O6 2.168874 1_655
Li5 O6 2.168874 1_555
Li5 O11 2.225884 1_656
Li5 O11 2.225884 1_556
Li6 O14 2.046936 1_555
Li6 O13 2.078110 1_455
Li6 O13 2.078110 1_555
Li6 O0 2.222093 1_455
Li6 O0 2.222093 1_555
Li6 O6 2.295871 1_554
Li7 O1 2.043287 1_455
Li7 O1 2.043287 1_555
Li7 O12 2.163004 1_555
Li7 O12 2.163004 1_455
Li7 O15 2.173481 1_555
Li7 O7 2.237607 1_555
Li8 O8 2.089544 1_445
Li8 O8 2.089544 1_545
Li8 O1 2.123755 1_455
Li8 O1 2.123755 1_555
Li8 O14 2.137537 1_555
Li8 O3 2.164560 1_545
Mn0 O0 1.949037 1_455
Mn0 O0 1.949037 1_555
Mn0 O9 1.999853 1_444
Mn0 O9 1.999853 1_544
Mn0 O15 2.135146 1_554
Mn0 O2 2.198026 1_545
Mn1 O4 1.902179 1_555
Mn1 O11 1.944065 1_555
Mn1 O11 1.944065 1_655
Mn1 O2 1.956253 1_655
Mn1 O2 1.956253 1_555
Mn1 O9 2.032451 1_554
Co0 O8 1.802731 1_555
Co0 O3 1.973478 1_555
Co0 O3 1.973478 1_655
Co0 O10 2.017649 1_655
Co0 O10 2.017649 1_555
Co0 O5 2.397049 1_555
Co1 O7 1.863298 1_555
Co1 O13 1.972642 1_555
Co1 O13 1.972642 1_455
Co1 O4 2.080085 1_555
Co1 O4 2.080085 1_455
Co1 O11 2.273150 1_555
Co2 O5 1.975595 1_555
Co2 O5 1.975595 1_455
Co2 O12 2.001677 1_455
Co2 O12 2.001677 1_555
Co2 O10 2.041956 1_555
Co2 O6 2.127070 1_555
Co3 O1 1.799934 1_555
Co3 O14 1.968522 1_555
Co3 O14 1.968522 1_655
Co3 O7 2.130338 1_655
Co3 O7 2.130338 1_555
Co3 O13 2.429125 1_555
Co4 O6 1.946382 1_555
Co4 O6 1.946382 1_655
Co4 O15 1.957192 1_555
Co4 O15 1.957192 1_655
Co4 O12 2.107305 1_555
Co4 O0 2.231701 1_556
