# generated using pymatgen
data_V4Zn(PO4)6
_symmetry_space_group_name_H-M   'P 1'
_cell_length_a   6.24628100
_cell_length_b   8.23074459
_cell_length_c   9.46252824
_cell_angle_alpha   109.36969860
_cell_angle_beta   106.50881465
_cell_angle_gamma   101.06158102
_symmetry_Int_Tables_number   1
_chemical_formula_structural   V4Zn(PO4)6
_chemical_formula_sum   'V4 Zn1 P6 O24'
_cell_volume   417.43403937
_cell_formula_units_Z   1
loop_
 _symmetry_equiv_pos_site_id
 _symmetry_equiv_pos_as_xyz
  1  'x, y, z'
loop_
 _atom_site_type_symbol
 _atom_site_label
 _atom_site_symmetry_multiplicity
 _atom_site_fract_x
 _atom_site_fract_y
 _atom_site_fract_z
 _atom_site_occupancy
  V  V0  1  0.37632900  0.47847300  0.11882500  1
  V  V1  1  0.94437000  0.28243300  0.47829200  1
  V  V2  1  0.62367100  0.52152700  0.88117500  1
  V  V3  1  0.05563000  0.71756700  0.52170800  1
  Zn  Zn0  1  0.00000000  0.00000000  0.00000000  1
  P  P0  1  0.78360000  0.83931900  0.23947900  1
  P  P1  1  0.21640000  0.16068100  0.76052100  1
  P  P2  1  0.61808500  0.75936800  0.65271500  1
  P  P3  1  0.38191500  0.24063200  0.34728500  1
  P  P4  1  0.89148800  0.39348000  0.16366500  1
  P  P5  1  0.10851200  0.60652000  0.83633500  1
  O  O0  1  0.74452600  0.94788900  0.78326800  1
  O  O1  1  0.25547400  0.05211100  0.21673200  1
  O  O2  1  0.14574200  0.80537100  0.91087000  1
  O  O3  1  0.85425800  0.19462900  0.08913000  1
  O  O4  1  0.19982500  0.96245900  0.69937400  1
  O  O5  1  0.80017500  0.03754100  0.30062600  1
  O  O6  1  0.36658900  0.73109600  0.53394500  1
  O  O7  1  0.63341100  0.26890400  0.46605500  1
  O  O8  1  0.07791100  0.54452300  0.65280800  1
  O  O9  1  0.92208900  0.45547700  0.34719200  1
  O  O10  1  0.76373500  0.70544100  0.54324700  1
  O  O11  1  0.23626500  0.29455900  0.45675300  1
  O  O12  1  0.98416000  0.80428700  0.35307100  1
  O  O13  1  0.67541500  0.44882900  0.08057900  1
  O  O14  1  0.32458500  0.55117100  0.91942100  1
  O  O15  1  0.54596400  0.72398300  0.23437900  1
  O  O16  1  0.45403600  0.27601700  0.76562100  1
  O  O17  1  0.10210000  0.51394900  0.15231100  1
  O  O18  1  0.01584000  0.19571300  0.64692900  1
  O  O19  1  0.42503600  0.37953300  0.27248400  1
  O  O20  1  0.57496400  0.62046700  0.72751600  1
  O  O21  1  0.22028100  0.22779900  0.93812200  1
  O  O22  1  0.77971900  0.77220100  0.06187800  1
  O  O23  1  0.89790000  0.48605100  0.84768900  1
loop_
_geom_bond_atom_site_label_1
_geom_bond_atom_site_label_2
_geom_bond_distance
_geom_bond_site_symmetry_2
O0 P2 1.503760 1_555
O0 Zn0 2.056768 1_666
O1 P3 1.503760 1_555
O1 Zn0 2.056768 1_555
O2 P5 1.491746 1_555
O2 Zn0 2.050856 1_566
O3 P4 1.491746 1_555
O3 Zn0 2.050856 1_655
O4 P1 1.510728 1_565
O4 V3 1.973680 1_555
O5 P0 1.510728 1_545
O5 V1 1.973680 1_555
O6 P2 1.570946 1_555
O6 V3 1.891854 1_555
O7 P3 1.570946 1_555
O7 V1 1.891854 1_555
O8 P5 1.580793 1_555
O8 V1 2.059122 1_455
O8 V3 2.176426 1_555
O9 P4 1.580793 1_555
O9 V3 2.059122 1_655
O9 V1 2.176426 1_555
O10 P2 1.575825 1_555
O10 V3 1.878997 1_655
O11 P3 1.575825 1_555
O11 V1 1.878997 1_455
O12 P0 1.544923 1_555
O12 V3 1.930817 1_655
O13 P4 1.586720 1_555
O13 V0 2.044791 1_555
O13 V2 2.121152 1_554
O14 P5 1.586720 1_555
O14 V2 2.044791 1_555
O14 V0 2.121152 1_556
O15 P0 1.579546 1_555
O15 V0 1.859022 1_555
O16 P1 1.579546 1_555
O16 V2 1.859022 1_555
O17 P4 1.541366 1_455
O17 V0 1.886463 1_555
O18 P1 1.544923 1_555
O18 V1 1.930817 1_455
O19 P3 1.551622 1_555
O19 V0 1.870544 1_555
O20 P2 1.551622 1_555
O20 V2 1.870544 1_555
O21 P1 1.576678 1_555
O21 V0 2.017846 1_556
O21 Zn0 2.438777 1_556
O22 P0 1.576678 1_555
O22 V2 2.017846 1_554
O22 Zn0 2.438777 1_665
O23 P5 1.541366 1_655
O23 V2 1.886463 1_555
