# generated using pymatgen
data_SrCaPrSbO6
_symmetry_space_group_name_H-M   'P 1'
_cell_length_a   5.88812195
_cell_length_b   5.88812195
_cell_length_c   5.88812195
_cell_angle_alpha   60.00000000
_cell_angle_beta   60.00000000
_cell_angle_gamma   60.00000000
_symmetry_Int_Tables_number   1
_chemical_formula_structural   SrCaPrSbO6
_chemical_formula_sum   'Sr1 Ca1 Pr1 Sb1 O6'
_cell_volume   144.34953557
_cell_formula_units_Z   1
loop_
 _symmetry_equiv_pos_site_id
 _symmetry_equiv_pos_as_xyz
  1  'x, y, z'
loop_
 _atom_site_type_symbol
 _atom_site_label
 _atom_site_symmetry_multiplicity
 _atom_site_fract_x
 _atom_site_fract_y
 _atom_site_fract_z
 _atom_site_occupancy
  Sr  Sr0  1  0.25000000  0.25000000  0.25000000  1
  Ca  Ca0  1  0.00000000  0.00000000  0.00000000  1
  Pr  Pr0  1  0.75000000  0.75000000  0.75000000  1
  Sb  Sb0  1  0.50000000  0.50000000  0.50000000  1
  O  O0  1  0.73700103  0.26299897  0.26299897  1
  O  O1  1  0.26299897  0.73700103  0.73700103  1
  O  O2  1  0.73700103  0.26299897  0.73700103  1
  O  O3  1  0.26299897  0.73700103  0.26299897  1
  O  O4  1  0.73700103  0.73700103  0.26299897  1
  O  O5  1  0.26299897  0.26299897  0.73700103  1
loop_
_geom_bond_atom_site_label_1
_geom_bond_atom_site_label_2
_geom_bond_distance
_geom_bond_site_symmetry_2
Ca0 O2 2.190009 1_454
Ca0 O1 2.190009 1_544
Ca0 O4 2.190009 1_445
Ca0 O3 2.190009 1_545
Ca0 O5 2.190009 1_554
Ca0 O0 2.190009 1_455
O0 Sb0 1.973522 1_555
O0 Sr0 2.946050 1_655
O0 Pr0 2.946050 1_545
O0 Pr0 2.946050 1_554
O0 Sr0 2.946050 1_555
O1 Sb0 1.973522 1_555
O1 Pr0 2.946050 1_555
O1 Sr0 2.946050 1_556
O1 Pr0 2.946050 1_455
O1 Sr0 2.946050 1_565
O2 Sb0 1.973522 1_555
O2 Pr0 2.946050 1_555
O2 Sr0 2.946050 1_556
O2 Sr0 2.946050 1_655
O2 Pr0 2.946050 1_545
O3 Sb0 1.973522 1_555
O3 Sr0 2.946050 1_565
O3 Pr0 2.946050 1_455
O3 Pr0 2.946050 1_554
O3 Sr0 2.946050 1_555
O4 Sb0 1.973522 1_555
O4 Pr0 2.946050 1_555
O4 Sr0 2.946050 1_565
O4 Sr0 2.946050 1_655
O4 Pr0 2.946050 1_554
O5 Sb0 1.973522 1_555
O5 Sr0 2.946050 1_556
O5 Pr0 2.946050 1_455
O5 Pr0 2.946050 1_545
O5 Sr0 2.946050 1_555
