# generated using pymatgen
data_La4Mn3NiO12
_symmetry_space_group_name_H-M   'P 1'
_cell_length_a   5.58592000
_cell_length_b   5.60577589
_cell_length_c   7.87874719
_cell_angle_alpha   89.82393637
_cell_angle_beta   89.64362383
_cell_angle_gamma   89.45684582
_symmetry_Int_Tables_number   1
_chemical_formula_structural   La4Mn3NiO12
_chemical_formula_sum   'La4 Mn3 Ni1 O12'
_cell_volume   246.69350734
_cell_formula_units_Z   1
loop_
 _symmetry_equiv_pos_site_id
 _symmetry_equiv_pos_as_xyz
  1  'x, y, z'
loop_
 _atom_site_type_symbol
 _atom_site_label
 _atom_site_symmetry_multiplicity
 _atom_site_fract_x
 _atom_site_fract_y
 _atom_site_fract_z
 _atom_site_occupancy
  La  La0  1  0.49598100  0.52981600  0.75238900  1
  La  La1  1  0.01387000  0.03387900  0.75389900  1
  La  La2  1  0.50401900  0.47018400  0.24761100  1
  La  La3  1  0.98613000  0.96612100  0.24610100  1
  Mn  Mn0  1  0.50000000  0.00000000  0.50000000  1
  Mn  Mn1  1  0.00000000  0.50000000  0.50000000  1
  Mn  Mn2  1  0.50000000  0.00000000  0.00000000  1
  Ni  Ni0  1  0.00000000  0.50000000  0.00000000  1
  O  O0  1  0.58455800  0.98592600  0.75846700  1
  O  O1  1  0.92271600  0.48570800  0.74304500  1
  O  O2  1  0.41544200  0.01407400  0.24153300  1
  O  O3  1  0.07728400  0.51429200  0.25695500  1
  O  O4  1  0.23162700  0.78556300  0.95773200  1
  O  O5  1  0.27959600  0.28364400  0.54465500  1
  O  O6  1  0.76779000  0.20931300  0.45401600  1
  O  O7  1  0.71249800  0.72766800  0.04473500  1
  O  O8  1  0.76837300  0.21443700  0.04226800  1
  O  O9  1  0.72040400  0.71635600  0.45534500  1
  O  O10  1  0.23221000  0.79068700  0.54598400  1
  O  O11  1  0.28750200  0.27233200  0.95526500  1
loop_
_geom_bond_atom_site_label_1
_geom_bond_atom_site_label_2
_geom_bond_distance
_geom_bond_site_symmetry_2
La0 O1 2.394864 1_555
La0 O11 2.447246 1_555
La0 O5 2.472688 1_555
La0 O4 2.607246 1_555
La0 O0 2.609525 1_555
La0 O10 2.632184 1_555
La0 O7 2.841472 1_556
La0 O9 2.848773 1_555
La1 O0 2.415686 1_445
La1 O4 2.444334 1_545
La1 O10 2.446790 1_545
La1 O1 2.580053 1_455
La1 O11 2.592688 1_555
La1 O5 2.622245 1_555
La1 O8 2.831254 1_456
La1 O6 2.905081 1_455
La2 O3 2.394864 1_555
La2 O7 2.447246 1_555
La2 O9 2.472688 1_555
La2 O8 2.607246 1_555
La2 O2 2.609525 1_555
La2 O6 2.632184 1_555
La2 O11 2.841472 1_554
La2 O5 2.848773 1_555
La3 O2 2.415686 1_665
La3 O8 2.444334 1_565
La3 O6 2.446790 1_565
La3 O3 2.580053 1_655
La3 O7 2.592688 1_555
La3 O9 2.622245 1_555
La3 O4 2.831254 1_654
La3 O10 2.905081 1_655
Mn0 O10 1.941530 1_545
Mn0 O6 1.941530 1_555
Mn0 O9 2.031923 1_545
Mn0 O5 2.031923 1_555
Mn0 O0 2.094398 1_545
Mn0 O2 2.094398 1_555
Mn1 O1 1.961892 1_455
Mn1 O3 1.961892 1_555
Mn1 O9 2.000573 1_455
Mn1 O5 2.000573 1_555
Mn1 O10 2.125711 1_555
Mn1 O6 2.125711 1_455
Mn2 O7 1.957379 1_545
Mn2 O11 1.957379 1_554
Mn2 O2 1.959511 1_555
Mn2 O0 1.959511 1_544
Mn2 O8 1.961142 1_555
Mn2 O4 1.961142 1_544
Ni0 O11 2.070999 1_554
Ni0 O7 2.070999 1_455
Ni0 O3 2.074571 1_555
Ni0 O1 2.074571 1_454
Ni0 O4 2.092403 1_554
Ni0 O8 2.092403 1_455
