# generated using pymatgen
data_Ce2CuSi3
_symmetry_space_group_name_H-M   'P 1'
_cell_length_a   4.08432353
_cell_length_b   4.08432353
_cell_length_c   8.06255299
_cell_angle_alpha   90.00000000
_cell_angle_beta   90.00000000
_cell_angle_gamma   120.00000309
_symmetry_Int_Tables_number   1
_chemical_formula_structural   Ce2CuSi3
_chemical_formula_sum   'Ce2 Cu1 Si3'
_cell_volume   116.47788418
_cell_formula_units_Z   1
loop_
 _symmetry_equiv_pos_site_id
 _symmetry_equiv_pos_as_xyz
  1  'x, y, z'
loop_
 _atom_site_type_symbol
 _atom_site_label
 _atom_site_symmetry_multiplicity
 _atom_site_fract_x
 _atom_site_fract_y
 _atom_site_fract_z
 _atom_site_occupancy
  Ce  Ce0  1  0.33333300  0.66666700  0.75200783  1
  Ce  Ce1  1  0.33333300  0.66666700  0.24799217  1
  Cu  Cu0  1  0.66666700  0.33333300  0.50000000  1
  Si  Si0  1  0.66666700  0.33333300  -0.00000000  1
  Si  Si1  1  -0.00000000  -0.00000000  0.50000000  1
  Si  Si2  1  -0.00000000  -0.00000000  -0.00000000  1
loop_
_geom_bond_atom_site_label_1
_geom_bond_atom_site_label_2
_geom_bond_distance
_geom_bond_site_symmetry_2
Ce0 Si0 3.091659 1_456
Ce0 Si0 3.091659 1_566
Ce0 Si2 3.091659 1_566
Ce0 Si2 3.091662 1_666
Ce0 Si2 3.091662 1_556
Ce0 Si0 3.091664 1_556
Ce0 Cu0 3.112696 1_455
Ce0 Cu0 3.112696 1_565
Ce0 Si1 3.112696 1_565
Ce0 Si1 3.112698 1_555
Ce0 Si1 3.112698 1_665
Ce0 Cu0 3.112701 1_555
Ce1 Si0 3.091659 1_455
Ce1 Si0 3.091659 1_565
Ce1 Si2 3.091659 1_565
Ce1 Si2 3.091662 1_555
Ce1 Si2 3.091662 1_665
Ce1 Si0 3.091664 1_555
Ce1 Cu0 3.112696 1_455
Ce1 Cu0 3.112696 1_565
Ce1 Si1 3.112696 1_565
Ce1 Si1 3.112698 1_665
Ce1 Si1 3.112698 1_555
Ce1 Cu0 3.112701 1_555
Cu0 Si1 2.358083 1_655
Cu0 Si1 2.358086 1_665
Cu0 Si1 2.358086 1_555
Si0 Si2 2.358083 1_655
Si0 Si2 2.358086 1_555
Si0 Si2 2.358086 1_665
