# generated using pymatgen
data_YbSiAu
_symmetry_space_group_name_H-M   'P 1'
_cell_length_a   4.24168470
_cell_length_b   4.24168470
_cell_length_c   3.74940740
_cell_angle_alpha   90.00000000
_cell_angle_beta   90.00000000
_cell_angle_gamma   119.99998746
_symmetry_Int_Tables_number   1
_chemical_formula_structural   YbSiAu
_chemical_formula_sum   'Yb1 Si1 Au1'
_cell_volume   58.42114771
_cell_formula_units_Z   1
loop_
 _symmetry_equiv_pos_site_id
 _symmetry_equiv_pos_as_xyz
  1  'x, y, z'
loop_
 _atom_site_type_symbol
 _atom_site_label
 _atom_site_symmetry_multiplicity
 _atom_site_fract_x
 _atom_site_fract_y
 _atom_site_fract_z
 _atom_site_occupancy
  Yb  Yb0  1  0.00000000  0.00000000  0.00000000  1
  Si  Si0  1  0.66666700  0.33333300  0.50000000  1
  Au  Au0  1  0.33333300  0.66666700  0.50000000  1
loop_
_geom_bond_atom_site_label_1
_geom_bond_atom_site_label_2
_geom_bond_distance
_geom_bond_site_symmetry_2
Si0 Yb0 3.084120 1_655
Si0 Yb0 3.084120 1_656
Si0 Yb0 3.084124 1_555
Si0 Yb0 3.084124 1_556
Si0 Yb0 3.084124 1_666
Si0 Yb0 3.084124 1_665
Au0 Si0 2.448936 1_565
Au0 Si0 2.448936 1_455
Au0 Si0 2.448943 1_555
Au0 Yb0 3.084120 1_565
Au0 Yb0 3.084120 1_566
Au0 Yb0 3.084124 1_555
Au0 Yb0 3.084124 1_556
Au0 Yb0 3.084124 1_666
Au0 Yb0 3.084124 1_665
