# generated using pymatgen
data_Sc2OsRu
_symmetry_space_group_name_H-M   'P 1'
_cell_length_a   10.63268574
_cell_length_b   10.63268574
_cell_length_c   10.63268574
_cell_angle_alpha   127.31373703
_cell_angle_beta   117.61359950
_cell_angle_gamma   86.00407811
_symmetry_Int_Tables_number   1
_chemical_formula_structural   Sc2OsRu
_chemical_formula_sum   'Sc2 Os1 Ru1'
_cell_volume   808.17171104
_cell_formula_units_Z   1
loop_
 _symmetry_equiv_pos_site_id
 _symmetry_equiv_pos_as_xyz
  1  'x, y, z'
loop_
 _atom_site_type_symbol
 _atom_site_label
 _atom_site_symmetry_multiplicity
 _atom_site_fract_x
 _atom_site_fract_y
 _atom_site_fract_z
 _atom_site_occupancy
  Sc  Sc0  1  0.00000000  0.24836900  0.24836900  1
  Sc  Sc1  1  0.00000000  0.75163100  0.75163100  1
  Os  Os0  1  0.00000000  0.50000000  0.50000000  1
  Ru  Ru0  1  0.00000000  0.00000000  0.00000000  1
loop_
_geom_bond_atom_site_label_1
_geom_bond_atom_site_label_2
_geom_bond_distance
_geom_bond_site_symmetry_2
Os0 Sc1 2.374496 1_555
Os0 Sc0 2.374496 1_555
Ru0 Sc0 2.343715 1_555
Ru0 Sc1 2.343715 1_544
