# generated using pymatgen
data_HoFe3(BO3)4
_symmetry_space_group_name_H-M   'P 1'
_cell_length_a   9.60005791
_cell_length_b   9.60005791
_cell_length_c   7.62754800
_cell_angle_alpha   90.00000000
_cell_angle_beta   90.00000000
_cell_angle_gamma   119.99999937
_symmetry_Int_Tables_number   1
_chemical_formula_structural   HoFe3(BO3)4
_chemical_formula_sum   'Ho3 Fe9 B12 O36'
_cell_volume   608.78408335
_cell_formula_units_Z   3
loop_
 _symmetry_equiv_pos_site_id
 _symmetry_equiv_pos_as_xyz
  1  'x, y, z'
loop_
 _atom_site_type_symbol
 _atom_site_label
 _atom_site_symmetry_multiplicity
 _atom_site_fract_x
 _atom_site_fract_y
 _atom_site_fract_z
 _atom_site_occupancy
  Ho  Ho0  1  0.66443500  0.00000000  0.33333300  1
  Ho  Ho1  1  0.00000000  0.66443500  0.66666700  1
  Ho  Ho2  1  0.33556500  0.33556500  0.00000000  1
  Fe  Fe0  1  0.54925600  0.21213600  0.65494200  1
  Fe  Fe1  1  0.78786400  0.33712100  0.98827600  1
  Fe  Fe2  1  0.21213600  0.54925600  0.34505800  1
  Fe  Fe3  1  0.66287900  0.45074400  0.32160900  1
  Fe  Fe4  1  0.33712100  0.78786400  0.01172400  1
  Fe  Fe5  1  0.45074400  0.66287900  0.67839100  1
  Fe  Fe6  1  0.11604000  0.00000000  0.33333300  1
  Fe  Fe7  1  0.00000000  0.11604000  0.66666700  1
  Fe  Fe8  1  0.88396000  0.88396000  0.00000000  1
  B  B0  1  0.22132000  0.00000000  0.83333300  1
  B  B1  1  0.00000000  0.22132000  0.16666700  1
  B  B2  1  0.77868000  0.77868000  0.50000000  1
  B  B3  1  0.12528900  0.44856700  0.84932500  1
  B  B4  1  0.55143300  0.67672200  0.18265800  1
  B  B5  1  0.44856700  0.12528900  0.15067500  1
  B  B6  1  0.32327800  0.87471100  0.51599100  1
  B  B7  1  0.67672200  0.55143300  0.81734200  1
  B  B8  1  0.87471100  0.32327800  0.48400900  1
  B  B9  1  0.66876800  0.00000000  0.83333300  1
  B  B10  1  0.00000000  0.66876800  0.16666700  1
  B  B11  1  0.33123200  0.33123200  0.50000000  1
  O  O0  1  0.12445100  0.30577200  0.82332300  1
  O  O1  1  0.69422800  0.81867900  0.15665600  1
  O  O2  1  0.30577200  0.12445100  0.17667700  1
  O  O3  1  0.18132100  0.87554900  0.48999000  1
  O  O4  1  0.81867900  0.69422800  0.84334400  1
  O  O5  1  0.87554900  0.18132100  0.51001000  1
  O  O6  1  0.36126200  0.14748000  0.81374600  1
  O  O7  1  0.85252000  0.21378200  0.14707900  1
  O  O8  1  0.14748000  0.36126200  0.18625400  1
  O  O9  1  0.78621800  0.63873800  0.48041200  1
  O  O10  1  0.21378200  0.85252000  0.85292100  1
  O  O11  1  0.63873800  0.78621800  0.51958800  1
  O  O12  1  0.32957200  0.47434000  0.50847700  1
  O  O13  1  0.52566000  0.85523200  0.84181000  1
  O  O14  1  0.47434000  0.32957200  0.49152300  1
  O  O15  1  0.14476800  0.67042800  0.17514400  1
  O  O16  1  0.85523200  0.52566000  0.15819000  1
  O  O17  1  0.67042800  0.14476800  0.82485600  1
  O  O18  1  0.07789400  0.00000000  0.83333300  1
  O  O19  1  0.00000000  0.07789400  0.16666700  1
  O  O20  1  0.92210600  0.92210600  0.50000000  1
  O  O21  1  0.47469300  0.00852300  0.51685500  1
  O  O22  1  0.99147700  0.46617000  0.85018800  1
  O  O23  1  0.00852300  0.47469300  0.48314500  1
  O  O24  1  0.53383000  0.52530700  0.18352200  1
  O  O25  1  0.46617000  0.99147700  0.14981200  1
  O  O26  1  0.52530700  0.53383000  0.81647800  1
  O  O27  1  0.27630000  0.58122400  0.87540300  1
  O  O28  1  0.41877600  0.69507600  0.20873600  1
  O  O29  1  0.58122400  0.27630000  0.12459700  1
  O  O30  1  0.30492400  0.72370000  0.54206900  1
  O  O31  1  0.69507600  0.41877600  0.79126400  1
  O  O32  1  0.72370000  0.30492400  0.45793100  1
  O  O33  1  0.81245700  0.00000000  0.83333300  1
  O  O34  1  0.00000000  0.81245700  0.16666700  1
  O  O35  1  0.18754300  0.18754300  0.50000000  1
loop_
_geom_bond_atom_site_label_1
_geom_bond_atom_site_label_2
_geom_bond_distance
_geom_bond_site_symmetry_2
Ho0 O1 2.329321 1_545
Ho0 O5 2.329321 1_555
Ho0 O25 2.330924 1_545
Ho0 O21 2.330928 1_555
Ho0 O7 2.405173 1_555
Ho0 O11 2.405178 1_545
Ho1 O4 2.329321 1_455
Ho1 O3 2.329321 1_555
Ho1 O22 2.330924 1_455
Ho1 O23 2.330928 1_555
Ho1 O10 2.405173 1_555
Ho1 O9 2.405178 1_455
Ho2 O2 2.329321 1_555
Ho2 O0 2.329321 1_554
Ho2 O24 2.330928 1_555
Ho2 O26 2.330928 1_554
Ho2 O6 2.405173 1_554
Ho2 O8 2.405173 1_555
Fe0 O6 1.997349 1_555
Fe0 O21 2.010821 1_555
Fe0 O14 2.037843 1_555
Fe0 O31 2.049176 1_555
Fe0 O17 2.050231 1_555
Fe0 O32 2.089113 1_555
Fe1 O7 1.997352 1_556
Fe1 O22 2.010823 1_555
Fe1 O17 2.037854 1_555
Fe1 O29 2.049170 1_556
Fe1 O16 2.050224 1_556
Fe1 O31 2.089112 1_555
Fe2 O8 1.997349 1_555
Fe2 O23 2.010821 1_555
Fe2 O12 2.037843 1_555
Fe2 O28 2.049176 1_555
Fe2 O15 2.050231 1_555
Fe2 O30 2.089113 1_555
Fe3 O9 1.997346 1_555
Fe3 O24 2.010813 1_555
Fe3 O16 2.037850 1_555
Fe3 O32 2.049182 1_555
Fe3 O14 2.050225 1_555
Fe3 O29 2.089118 1_555
Fe4 O10 1.997352 1_554
Fe4 O25 2.010823 1_555
Fe4 O15 2.037854 1_555
Fe4 O27 2.049170 1_554
Fe4 O13 2.050224 1_554
Fe4 O28 2.089112 1_555
Fe5 O11 1.997346 1_555
Fe5 O26 2.010813 1_555
Fe5 O13 2.037850 1_555
Fe5 O30 2.049182 1_555
Fe5 O12 2.050225 1_555
Fe5 O27 2.089118 1_555
Fe6 O2 1.999170 1_555
Fe6 O3 1.999175 1_545
Fe6 O34 2.023099 1_545
Fe6 O35 2.023104 1_555
Fe6 O19 2.061376 1_555
Fe6 O20 2.061381 1_445
Fe7 O0 1.999170 1_555
Fe7 O5 1.999175 1_455
Fe7 O33 2.023099 1_455
Fe7 O35 2.023104 1_555
Fe7 O18 2.061376 1_555
Fe7 O20 2.061381 1_445
Fe8 O4 1.999170 1_554
Fe8 O1 1.999170 1_555
Fe8 O34 2.023104 1_655
Fe8 O33 2.023104 1_564
Fe8 O19 2.061381 1_665
Fe8 O18 2.061381 1_664
B0 O18 1.376898 1_555
B0 O6 1.389114 1_555
B0 O10 1.389115 1_545
B1 O19 1.376898 1_555
B1 O8 1.389114 1_555
B1 O7 1.389115 1_455
B2 O20 1.376898 1_555
B2 O11 1.389115 1_555
B2 O9 1.389115 1_555
B3 O22 1.376913 1_455
B3 O0 1.381150 1_555
B3 O27 1.384502 1_555
B4 O24 1.376913 1_555
B4 O1 1.381150 1_555
B4 O28 1.384502 1_555
B5 O25 1.376913 1_545
B5 O2 1.381150 1_555
B5 O29 1.384502 1_555
B6 O21 1.376913 1_565
B6 O3 1.381149 1_555
B6 O30 1.384502 1_555
B7 O26 1.376913 1_555
B7 O4 1.381150 1_555
B7 O31 1.384502 1_555
B8 O23 1.376913 1_655
B8 O5 1.381149 1_555
B8 O32 1.384502 1_555
B9 O33 1.379423 1_555
B9 O17 1.383394 1_555
B9 O13 1.383394 1_545
B10 O34 1.379423 1_555
B10 O15 1.383394 1_555
B10 O16 1.383394 1_455
B11 O35 1.379423 1_555
B11 O12 1.383394 1_555
B11 O14 1.383394 1_555
