# generated using pymatgen
data_La(SeO4)3
_symmetry_space_group_name_H-M   'P 1'
_cell_length_a   9.85158089
_cell_length_b   9.85158089
_cell_length_c   6.34355700
_cell_angle_alpha   90.00000000
_cell_angle_beta   90.00000000
_cell_angle_gamma   119.99999256
_symmetry_Int_Tables_number   1
_chemical_formula_structural   La(SeO4)3
_chemical_formula_sum   'La2 Se6 O24'
_cell_volume   533.18186110
_cell_formula_units_Z   2
loop_
 _symmetry_equiv_pos_site_id
 _symmetry_equiv_pos_as_xyz
  1  'x, y, z'
loop_
 _atom_site_type_symbol
 _atom_site_label
 _atom_site_symmetry_multiplicity
 _atom_site_fract_x
 _atom_site_fract_y
 _atom_site_fract_z
 _atom_site_occupancy
  La  La0  1  0.66666700  0.33333300  0.75000000  1
  La  La1  1  0.33333300  0.66666700  0.25000000  1
  Se  Se0  1  0.60987100  0.70177300  0.75000000  1
  Se  Se1  1  0.39012900  0.29822700  0.25000000  1
  Se  Se2  1  0.09190100  0.39012900  0.75000000  1
  Se  Se3  1  0.90809900  0.60987100  0.25000000  1
  Se  Se4  1  0.29822700  0.90809900  0.75000000  1
  Se  Se5  1  0.70177300  0.09190100  0.25000000  1
  O  O0  1  0.96244200  0.45192000  0.75000000  1
  O  O1  1  0.03755800  0.54808000  0.25000000  1
  O  O2  1  0.48947900  0.03755800  0.75000000  1
  O  O3  1  0.51052100  0.96244200  0.25000000  1
  O  O4  1  0.54808000  0.51052100  0.75000000  1
  O  O5  1  0.45192000  0.48947900  0.25000000  1
  O  O6  1  0.80479000  0.81545800  0.75000000  1
  O  O7  1  0.19521000  0.18454200  0.25000000  1
  O  O8  1  0.01066900  0.19521000  0.75000000  1
  O  O9  1  0.98933100  0.80479000  0.25000000  1
  O  O10  1  0.18454200  0.98933100  0.75000000  1
  O  O11  1  0.81545800  0.01066900  0.25000000  1
  O  O12  1  0.54288400  0.75056900  0.96326100  1
  O  O13  1  0.45711600  0.24943100  0.03673900  1
  O  O14  1  0.20768500  0.45711600  0.96326100  1
  O  O15  1  0.45711600  0.24943100  0.46326100  1
  O  O16  1  0.79231500  0.54288400  0.03673900  1
  O  O17  1  0.54288400  0.75056900  0.53673900  1
  O  O18  1  0.24943100  0.79231500  0.96326100  1
  O  O19  1  0.79231500  0.54288400  0.46326100  1
  O  O20  1  0.75056900  0.20768500  0.03673900  1
  O  O21  1  0.20768500  0.45711600  0.53673900  1
  O  O22  1  0.75056900  0.20768500  0.46326100  1
  O  O23  1  0.24943100  0.79231500  0.53673900  1
loop_
_geom_bond_atom_site_label_1
_geom_bond_atom_site_label_2
_geom_bond_distance
_geom_bond_site_symmetry_2
La0 O4 2.539925 1_555
La0 O0 2.539925 1_555
La0 O2 2.539925 1_555
La0 O20 2.558740 1_556
La0 O22 2.558740 1_555
La0 O19 2.558746 1_555
La0 O16 2.558746 1_556
La0 O13 2.558747 1_556
La0 O15 2.558747 1_555
La1 O5 2.539925 1_555
La1 O1 2.539925 1_555
La1 O3 2.539925 1_555
La1 O23 2.558740 1_555
La1 O18 2.558740 1_554
La1 O21 2.558746 1_555
La1 O14 2.558746 1_554
La1 O17 2.558747 1_555
La1 O12 2.558747 1_554
O0 Se2 1.665388 1_655
O1 Se3 1.665388 1_455
O2 Se4 1.665403 1_545
O3 Se5 1.665403 1_565
O4 Se0 1.665407 1_555
O5 Se1 1.665407 1_555
O6 Se0 1.670659 1_555
O7 Se1 1.670659 1_555
O8 Se2 1.670661 1_555
O9 Se3 1.670661 1_555
O10 Se4 1.670643 1_555
O11 Se5 1.670643 1_555
O12 Se0 1.677496 1_555
O13 Se1 1.677496 1_555
O14 Se2 1.677500 1_555
O15 Se1 1.677496 1_555
O16 Se3 1.677500 1_555
O17 Se0 1.677496 1_555
O18 Se4 1.677501 1_555
O19 Se3 1.677500 1_555
O20 Se5 1.677501 1_555
O21 Se2 1.677500 1_555
O22 Se5 1.677501 1_555
O23 Se4 1.677501 1_555
