# generated using pymatgen
data_ZnCrAs2O7
_symmetry_space_group_name_H-M   'P 1'
_cell_length_a   8.65619200
_cell_length_b   7.35977200
_cell_length_c   9.79367763
_cell_angle_alpha   67.11981009
_cell_angle_beta   90.00000000
_cell_angle_gamma   90.00000000
_symmetry_Int_Tables_number   1
_chemical_formula_structural   ZnCrAs2O7
_chemical_formula_sum   'Zn4 Cr4 As8 O28'
_cell_volume   574.84067820
_cell_formula_units_Z   4
loop_
 _symmetry_equiv_pos_site_id
 _symmetry_equiv_pos_as_xyz
  1  'x, y, z'
loop_
 _atom_site_type_symbol
 _atom_site_label
 _atom_site_symmetry_multiplicity
 _atom_site_fract_x
 _atom_site_fract_y
 _atom_site_fract_z
 _atom_site_occupancy
  Zn  Zn0  1  0.07025700  0.73007900  0.89626000  1
  Zn  Zn1  1  0.57025700  0.26992100  0.60374000  1
  Zn  Zn2  1  0.92974300  0.26992100  0.10374000  1
  Zn  Zn3  1  0.42974300  0.73007900  0.39626000  1
  Cr  Cr0  1  0.94384900  0.20050400  0.66713000  1
  Cr  Cr1  1  0.44384900  0.79949600  0.83287000  1
  Cr  Cr2  1  0.05615100  0.79949600  0.33287000  1
  Cr  Cr3  1  0.55615100  0.20050400  0.16713000  1
  As  As0  1  0.77436000  0.56460900  0.74940000  1
  As  As1  1  0.27436000  0.43539100  0.75060000  1
  As  As2  1  0.22564000  0.43539100  0.25060000  1
  As  As3  1  0.72564000  0.56460900  0.24940000  1
  As  As4  1  0.72797900  0.96916300  0.96292000  1
  As  As5  1  0.22797900  0.03083700  0.53708000  1
  As  As6  1  0.27202100  0.03083700  0.03708000  1
  As  As7  1  0.77202100  0.96916300  0.46292000  1
  O  O0  1  0.73450100  0.13538100  0.04704100  1
  O  O1  1  0.23450100  0.86461900  0.45295900  1
  O  O2  1  0.26549900  0.86461900  0.95295900  1
  O  O3  1  0.76549900  0.13538100  0.54704100  1
  O  O4  1  0.59684500  0.64294500  0.76572500  1
  O  O5  1  0.09684500  0.35705500  0.73427500  1
  O  O6  1  0.40315500  0.35705500  0.23427500  1
  O  O7  1  0.90315500  0.64294500  0.26572500  1
  O  O8  1  0.89925700  0.53383800  0.89300900  1
  O  O9  1  0.39925700  0.46616200  0.60699100  1
  O  O10  1  0.10074300  0.46616200  0.10699100  1
  O  O11  1  0.60074300  0.53383800  0.39300900  1
  O  O12  1  0.86111000  0.74610600  0.58759300  1
  O  O13  1  0.36111000  0.25389400  0.91240700  1
  O  O14  1  0.13889000  0.25389400  0.41240700  1
  O  O15  1  0.63889000  0.74610600  0.08759300  1
  O  O16  1  0.91282200  0.02250100  0.32968700  1
  O  O17  1  0.41282200  0.97749900  0.17031300  1
  O  O18  1  0.08717800  0.97749900  0.67031300  1
  O  O19  1  0.58717800  0.02250100  0.82968700  1
  O  O20  1  0.73592800  0.36375400  0.20117400  1
  O  O21  1  0.23592800  0.63624600  0.29882600  1
  O  O22  1  0.26407200  0.63624600  0.79882600  1
  O  O23  1  0.76407200  0.36375400  0.70117400  1
  O  O24  1  0.59680500  0.93652300  0.39982800  1
  O  O25  1  0.09680500  0.06347700  0.10017200  1
  O  O26  1  0.40319500  0.06347700  0.60017200  1
  O  O27  1  0.90319500  0.93652300  0.89982800  1
loop_
_geom_bond_atom_site_label_1
_geom_bond_atom_site_label_2
_geom_bond_distance
_geom_bond_site_symmetry_2
Cr0 O5 2.025601 1_655
Cr0 O18 2.047983 1_645
Cr0 O23 2.070735 1_555
Cr0 O3 2.105877 1_555
Cr0 O27 2.376796 1_545
Cr1 O4 2.025601 1_555
Cr1 O19 2.047983 1_565
Cr1 O22 2.070735 1_555
Cr1 O2 2.105877 1_555
Cr1 O26 2.376796 1_565
Cr2 O7 2.025601 1_455
Cr2 O16 2.047983 1_465
Cr2 O21 2.070735 1_555
Cr2 O1 2.105877 1_555
Cr2 O25 2.376796 1_565
Cr3 O6 2.025601 1_555
Cr3 O17 2.047983 1_545
Cr3 O20 2.070735 1_555
Cr3 O0 2.105877 1_555
Cr3 O24 2.376796 1_545
As0 O4 1.670564 1_555
As0 O8 1.717726 1_555
As0 O23 1.720216 1_555
As0 O12 1.792590 1_555
As1 O5 1.670564 1_555
As1 O9 1.717726 1_555
As1 O22 1.720216 1_555
As1 O13 1.792590 1_555
As2 O6 1.670564 1_555
As2 O10 1.717726 1_555
As2 O21 1.720216 1_555
As2 O14 1.792590 1_555
As3 O7 1.670564 1_555
As3 O11 1.717726 1_555
As3 O20 1.720216 1_555
As3 O15 1.792590 1_555
As4 O27 1.689770 1_555
As4 O19 1.715772 1_565
As4 O0 1.721093 1_566
As4 O15 1.794960 1_556
As5 O26 1.689770 1_555
As5 O18 1.715772 1_545
As5 O1 1.721093 1_545
As5 O14 1.794960 1_555
As6 O25 1.689770 1_555
As6 O17 1.715772 1_545
As6 O2 1.721093 1_544
As6 O13 1.794960 1_554
As7 O24 1.689770 1_555
As7 O16 1.715772 1_565
As7 O3 1.721093 1_565
As7 O12 1.794960 1_555
O0 Zn2 2.138376 1_555
O1 Zn3 2.138376 1_555
O2 Zn0 2.138376 1_555
O3 Zn1 2.138376 1_555
O8 Zn0 2.076960 1_655
O8 Zn2 2.232624 1_556
O9 Zn1 2.076960 1_555
O9 Zn3 2.232624 1_555
O10 Zn2 2.076960 1_455
O10 Zn0 2.232624 1_554
O11 Zn3 2.076960 1_555
O11 Zn1 2.232624 1_555
O16 Zn2 2.258464 1_555
O17 Zn3 2.258464 1_555
O18 Zn0 2.258464 1_555
O19 Zn1 2.258464 1_555
O20 Zn2 2.171312 1_555
O21 Zn3 2.171312 1_555
O22 Zn0 2.171312 1_555
O23 Zn1 2.171312 1_555
O24 Zn3 2.107674 1_555
O25 Zn2 2.107674 1_455
O26 Zn1 2.107674 1_555
O27 Zn0 2.107674 1_655
