# generated using pymatgen
data_ZnSi4H36(C6N)2
_symmetry_space_group_name_H-M   'P 1'
_cell_length_a   12.75381800
_cell_length_b   18.38495300
_cell_length_c   12.73672470
_cell_angle_alpha   90.00000000
_cell_angle_beta   116.77501479
_cell_angle_gamma   90.00000000
_symmetry_Int_Tables_number   1
_chemical_formula_structural   ZnSi4H36(C6N)2
_chemical_formula_sum   'Zn4 Si16 H144 C48 N8'
_cell_volume   2666.28209615
_cell_formula_units_Z   4
loop_
 _symmetry_equiv_pos_site_id
 _symmetry_equiv_pos_as_xyz
  1  'x, y, z'
loop_
 _atom_site_type_symbol
 _atom_site_label
 _atom_site_symmetry_multiplicity
 _atom_site_fract_x
 _atom_site_fract_y
 _atom_site_fract_z
 _atom_site_occupancy
  Zn  Zn0  1  0.51632600  0.86585900  0.24367200  1
  Zn  Zn1  1  0.48367400  0.36585900  0.25632800  1
  Zn  Zn2  1  0.48367400  0.13414100  0.75632800  1
  Zn  Zn3  1  0.51632600  0.63414100  0.74367200  1
  Si  Si0  1  0.26870300  0.93082900  0.08751000  1
  Si  Si1  1  0.73129700  0.43082900  0.41249000  1
  Si  Si2  1  0.73129700  0.06917100  0.91249000  1
  Si  Si3  1  0.26870300  0.56917100  0.58751000  1
  Si  Si4  1  0.30259000  0.78818300  0.23376800  1
  Si  Si5  1  0.69741000  0.28818300  0.26623200  1
  Si  Si6  1  0.69741000  0.21181700  0.76623200  1
  Si  Si7  1  0.30259000  0.71181700  0.73376800  1
  Si  Si8  1  0.74976900  0.80551000  0.26206500  1
  Si  Si9  1  0.25023100  0.30551000  0.23793500  1
  Si  Si10  1  0.25023100  0.19449000  0.73793500  1
  Si  Si11  1  0.74976900  0.69449000  0.76206500  1
  Si  Si12  1  0.74414800  0.93302800  0.42513000  1
  Si  Si13  1  0.25585200  0.43302800  0.07487000  1
  Si  Si14  1  0.25585200  0.06697200  0.57487000  1
  Si  Si15  1  0.74414800  0.56697200  0.92513000  1
  H  H0  1  0.42372800  0.97798900  0.03648100  1
  H  H1  1  0.57627200  0.47798900  0.46351900  1
  H  H2  1  0.57627200  0.02201100  0.96351900  1
  H  H3  1  0.42372800  0.52201100  0.53648100  1
  H  H4  1  0.31745300  0.04571300  0.01595100  1
  H  H5  1  0.68254700  0.54571300  0.48404900  1
  H  H6  1  0.68254700  0.95428700  0.98404900  1
  H  H7  1  0.31745300  0.45428700  0.51595100  1
  H  H8  1  0.42719700  0.02600800  0.16031000  1
  H  H9  1  0.57280300  0.52600800  0.33969000  1
  H  H10  1  0.57280300  0.97399200  0.83969000  1
  H  H11  1  0.42719700  0.47399200  0.66031000  1
  H  H12  1  0.10309900  0.86132700  0.92948900  1
  H  H13  1  0.89690100  0.36132700  0.57051100  1
  H  H14  1  0.89690100  0.13867300  0.07051100  1
  H  H15  1  0.10309900  0.63867300  0.42948900  1
  H  H16  1  0.12130500  0.94822600  0.87968600  1
  H  H17  1  0.87869500  0.44822600  0.62031400  1
  H  H18  1  0.87869500  0.05177400  0.12031400  1
  H  H19  1  0.12130500  0.55177400  0.37968600  1
  H  H20  1  0.21830300  0.87658800  0.88922600  1
  H  H21  1  0.78169700  0.37658800  0.61077400  1
  H  H22  1  0.78169700  0.12341200  0.11077400  1
  H  H23  1  0.21830300  0.62341200  0.38922600  1
  H  H24  1  0.10830800  0.93529700  0.14912000  1
  H  H25  1  0.89169200  0.43529700  0.35088000  1
  H  H26  1  0.89169200  0.06470300  0.85088000  1
  H  H27  1  0.10830800  0.56470300  0.64912000  1
  H  H28  1  0.22198500  0.99766200  0.23350600  1
  H  H29  1  0.77801500  0.49766200  0.26649400  1
  H  H30  1  0.77801500  0.00233800  0.76649400  1
  H  H31  1  0.22198500  0.50233800  0.73350600  1
  H  H32  1  0.11955500  0.01908600  0.08642600  1
  H  H33  1  0.88044500  0.51908600  0.41357400  1
  H  H34  1  0.88044500  0.98091400  0.91357400  1
  H  H35  1  0.11955500  0.48091400  0.58642600  1
  H  H36  1  0.38647800  0.82630500  0.44417100  1
  H  H37  1  0.61352200  0.32630500  0.05582900  1
  H  H38  1  0.61352200  0.17369500  0.55582900  1
  H  H39  1  0.38647800  0.67369500  0.94417100  1
  H  H40  1  0.23594300  0.85245800  0.36646000  1
  H  H41  1  0.76405700  0.35245800  0.13354000  1
  H  H42  1  0.76405700  0.14754200  0.63354000  1
  H  H43  1  0.23594300  0.64754200  0.86646000  1
  H  H44  1  0.27369900  0.76051300  0.41030600  1
  H  H45  1  0.72630100  0.26051300  0.08969400  1
  H  H46  1  0.72630100  0.23948700  0.58969400  1
  H  H47  1  0.27369900  0.73948700  0.91030600  1
  H  H48  1  0.40551300  0.68998300  0.18083500  1
  H  H49  1  0.59448700  0.18998300  0.31916500  1
  H  H50  1  0.59448700  0.31001700  0.81916500  1
  H  H51  1  0.40551300  0.81001700  0.68083500  1
  H  H52  1  0.49264900  0.72031000  0.32908800  1
  H  H53  1  0.50735100  0.22031000  0.17091200  1
  H  H54  1  0.50735100  0.27969000  0.67091200  1
  H  H55  1  0.49264900  0.77969000  0.82908800  1
  H  H56  1  0.37039400  0.66247700  0.29528400  1
  H  H57  1  0.62960600  0.16247700  0.20471600  1
  H  H58  1  0.62960600  0.33752300  0.70471600  1
  H  H59  1  0.37039400  0.83752300  0.79528400  1
  H  H60  1  0.14651900  0.73984700  0.04408600  1
  H  H61  1  0.85348100  0.23984700  0.45591400  1
  H  H62  1  0.85348100  0.26015300  0.95591400  1
  H  H63  1  0.14651900  0.76015300  0.54408600  1
  H  H64  1  0.12819800  0.71007600  0.16772500  1
  H  H65  1  0.87180200  0.21007600  0.33227500  1
  H  H66  1  0.87180200  0.28992400  0.83227500  1
  H  H67  1  0.12819800  0.78992400  0.66772500  1
  H  H68  1  0.08481300  0.79944000  0.11269700  1
  H  H69  1  0.91518700  0.29944000  0.38730300  1
  H  H70  1  0.91518700  0.20056000  0.88730300  1
  H  H71  1  0.08481300  0.70056000  0.61269700  1
  H  H72  1  0.95130800  0.85975900  0.34405500  1
  H  H73  1  0.04869200  0.35975900  0.15594500  1
  H  H74  1  0.04869200  0.14024100  0.65594500  1
  H  H75  1  0.95130800  0.64024100  0.84405500  1
  H  H76  1  0.92210200  0.80328200  0.22100900  1
  H  H77  1  0.07789800  0.30328200  0.27899100  1
  H  H78  1  0.07789800  0.19671800  0.77899100  1
  H  H79  1  0.92210200  0.69671800  0.72100900  1
  H  H80  1  0.86176300  0.89244400  0.19871800  1
  H  H81  1  0.13823700  0.39244400  0.30128200  1
  H  H82  1  0.13823700  0.10755600  0.80128200  1
  H  H83  1  0.86176300  0.60755600  0.69871800  1
  H  H84  1  0.72566100  0.69405300  0.36297300  1
  H  H85  1  0.27433900  0.19405300  0.13702700  1
  H  H86  1  0.27433900  0.30594700  0.63702700  1
  H  H87  1  0.72566100  0.80594700  0.86297300  1
  H  H88  1  0.83940200  0.68199400  0.32020200  1
  H  H89  1  0.16059800  0.18199400  0.17979800  1
  H  H90  1  0.16059800  0.31800600  0.67979800  1
  H  H91  1  0.83940200  0.81800600  0.82020200  1
  H  H92  1  0.86558000  0.73458100  0.44643600  1
  H  H93  1  0.13442000  0.23458100  0.05356400  1
  H  H94  1  0.13442000  0.26541900  0.55356400  1
  H  H95  1  0.86558000  0.76541900  0.94643600  1
  H  H96  1  0.56409300  0.75316200  0.10366500  1
  H  H97  1  0.43590700  0.25316200  0.39633500  1
  H  H98  1  0.43590700  0.24683800  0.89633500  1
  H  H99  1  0.56409300  0.74683800  0.60366500  1
  H  H100  1  0.62216300  0.82251100  0.04652500  1
  H  H101  1  0.37783700  0.32251100  0.45347500  1
  H  H102  1  0.37783700  0.17748900  0.95347500  1
  H  H103  1  0.62216300  0.67748900  0.54652500  1
  H  H104  1  0.68627700  0.73462100  0.07658000  1
  H  H105  1  0.31372300  0.23462100  0.42342000  1
  H  H106  1  0.31372300  0.26537900  0.92342000  1
  H  H107  1  0.68627700  0.76537900  0.57658000  1
  H  H108  1  0.58946600  0.92306600  0.49528800  1
  H  H109  1  0.41053400  0.42306600  0.00471200  1
  H  H110  1  0.41053400  0.07693400  0.50471200  1
  H  H111  1  0.58946600  0.57693400  0.99528800  1
  H  H112  1  0.66590800  0.00714300  0.53727500  1
  H  H113  1  0.33409200  0.50714300  0.96272500  1
  H  H114  1  0.33409200  0.99285700  0.46272500  1
  H  H115  1  0.66590800  0.49285700  0.03727500  1
  H  H116  1  0.55749200  0.99493700  0.39053800  1
  H  H117  1  0.44250800  0.49493700  0.10946200  1
  H  H118  1  0.44250800  0.00506300  0.60946200  1
  H  H119  1  0.55749200  0.50506300  0.89053800  1
  H  H120  1  0.94177800  0.87710200  0.54553900  1
  H  H121  1  0.05822200  0.37710200  0.95446100  1
  H  H122  1  0.05822200  0.12289800  0.45446100  1
  H  H123  1  0.94177800  0.62289800  0.04553900  1
  H  H124  1  0.90295000  0.93859700  0.62935700  1
  H  H125  1  0.09705000  0.43859700  0.87064300  1
  H  H126  1  0.09705000  0.06140300  0.37064300  1
  H  H127  1  0.90295000  0.56140300  0.12935700  1
  H  H128  1  0.84061000  0.85011700  0.59944800  1
  H  H129  1  0.15939000  0.35011700  0.90055200  1
  H  H130  1  0.15939000  0.14988300  0.40055200  1
  H  H131  1  0.84061000  0.64988300  0.09944800  1
  H  H132  1  0.87619800  0.00322800  0.36233600  1
  H  H133  1  0.12380200  0.50322800  0.13766400  1
  H  H134  1  0.12380200  0.99677200  0.63766400  1
  H  H135  1  0.87619800  0.49677200  0.86233600  1
  H  H136  1  0.73346500  0.04265800  0.30459600  1
  H  H137  1  0.26653500  0.54265800  0.19540400  1
  H  H138  1  0.26653500  0.95734200  0.69540400  1
  H  H139  1  0.73346500  0.45734200  0.80459600  1
  H  H140  1  0.83439700  0.05552900  0.45454000  1
  H  H141  1  0.16560300  0.55552900  0.04546000  1
  H  H142  1  0.16560300  0.94447100  0.54546000  1
  H  H143  1  0.83439700  0.44447100  0.95454000  1
  C  C0  1  0.36929400  0.00150100  0.07490200  1
  C  C1  1  0.63070600  0.50150100  0.42509800  1
  C  C2  1  0.63070600  0.99849900  0.92509800  1
  C  C3  1  0.36929400  0.49849900  0.57490200  1
  C  C4  1  0.16911400  0.90070800  0.93258400  1
  C  C5  1  0.83088600  0.40070800  0.56741600  1
  C  C6  1  0.83088600  0.09929200  0.06741600  1
  C  C7  1  0.16911400  0.59929200  0.43258400  1
  C  C8  1  0.17109000  0.97474900  0.14493700  1
  C  C9  1  0.82891000  0.47474900  0.35506300  1
  C  C10  1  0.82891000  0.02525100  0.85506300  1
  C  C11  1  0.17109000  0.52525100  0.64493700  1
  C  C12  1  0.29934700  0.80919600  0.37697100  1
  C  C13  1  0.70065300  0.30919600  0.12302900  1
  C  C14  1  0.70065300  0.19080400  0.62302900  1
  C  C15  1  0.29934700  0.69080400  0.87697100  1
  C  C16  1  0.40298500  0.70806500  0.26189500  1
  C  C17  1  0.59701500  0.20806500  0.23810500  1
  C  C18  1  0.59701500  0.29193500  0.73810500  1
  C  C19  1  0.40298500  0.79193500  0.76189500  1
  C  C20  1  0.15108200  0.75719800  0.12860400  1
  C  C21  1  0.84891800  0.25719800  0.37139600  1
  C  C22  1  0.84891800  0.24280200  0.87139600  1
  C  C23  1  0.15108200  0.74280200  0.62860400  1
  C  C24  1  0.88352100  0.84460900  0.25625900  1
  C  C25  1  0.11647900  0.34460900  0.24374100  1
  C  C26  1  0.11647900  0.15539100  0.74374100  1
  C  C27  1  0.88352100  0.65539100  0.75625900  1
  C  C28  1  0.79913300  0.72147100  0.35704000  1
  C  C29  1  0.20086700  0.22147100  0.14296000  1
  C  C30  1  0.20086700  0.27852900  0.64296000  1
  C  C31  1  0.79913300  0.77852900  0.85704000  1
  C  C32  1  0.64553500  0.77651100  0.10821700  1
  C  C33  1  0.35446500  0.27651100  0.39178300  1
  C  C34  1  0.35446500  0.22348900  0.89178300  1
  C  C35  1  0.64553500  0.72348900  0.60821700  1
  C  C36  1  0.62810200  0.96711800  0.46554900  1
  C  C37  1  0.37189800  0.46711800  0.03445100  1
  C  C38  1  0.37189800  0.03288200  0.53445100  1
  C  C39  1  0.62810200  0.53288200  0.96554900  1
  C  C40  1  0.86859300  0.89553300  0.56186200  1
  C  C41  1  0.13140700  0.39553300  0.93813800  1
  C  C42  1  0.13140700  0.10446700  0.43813800  1
  C  C43  1  0.86859300  0.60446700  0.06186200  1
  C  C44  1  0.80243700  0.01585400  0.38161700  1
  C  C45  1  0.19756300  0.51585400  0.11838300  1
  C  C46  1  0.19756300  0.98414600  0.61838300  1
  C  C47  1  0.80243700  0.48414600  0.88161700  1
  N  N0  1  0.35415800  0.86096100  0.18056600  1
  N  N1  1  0.64584200  0.36096100  0.31943400  1
  N  N2  1  0.64584200  0.13903900  0.81943400  1
  N  N3  1  0.35415800  0.63903900  0.68056600  1
  N  N4  1  0.67902700  0.86862000  0.31207500  1
  N  N5  1  0.32097300  0.36862000  0.18792500  1
  N  N6  1  0.32097300  0.13138000  0.68792500  1
  N  N7  1  0.67902700  0.63138000  0.81207500  1
loop_
_geom_bond_atom_site_label_1
_geom_bond_atom_site_label_2
_geom_bond_distance
_geom_bond_site_symmetry_2
C0 H8 1.099056 1_555
C0 H4 1.101969 1_555
C0 H0 1.101993 1_545
C0 Si0 1.882942 1_545
C1 H9 1.099056 1_555
C1 H5 1.101969 1_555
C1 H1 1.101993 1_555
C1 Si1 1.882942 1_555
C2 H10 1.099056 1_555
C2 H6 1.101969 1_555
C2 H2 1.101993 1_565
C2 Si2 1.882942 1_565
C3 H11 1.099056 1_555
C3 H7 1.101969 1_555
C3 H3 1.101993 1_555
C3 Si3 1.882942 1_555
C4 H12 1.097598 1_555
C4 H20 1.098779 1_555
C4 H16 1.103991 1_555
C4 Si0 1.885607 1_556
C5 H13 1.097598 1_555
C5 H21 1.098779 1_555
C5 H17 1.103991 1_555
C5 Si1 1.885607 1_555
C6 H14 1.097598 1_555
C6 H22 1.098779 1_555
C6 H18 1.103991 1_555
C6 Si2 1.885607 1_554
C7 H15 1.097598 1_555
C7 H23 1.098779 1_555
C7 H19 1.103991 1_555
C7 Si3 1.885607 1_555
C8 H24 1.099320 1_555
C8 H32 1.100230 1_565
C8 H28 1.100737 1_555
C8 Si0 1.886077 1_555
C9 H25 1.099320 1_555
C9 H33 1.100230 1_555
C9 H29 1.100737 1_555
C9 Si1 1.886077 1_555
C10 H26 1.099320 1_555
C10 H34 1.100230 1_545
C10 H30 1.100737 1_555
C10 Si2 1.886077 1_555
C11 H27 1.099320 1_555
C11 H35 1.100230 1_555
C11 H31 1.100737 1_555
C11 Si3 1.886077 1_555
C12 H40 1.098591 1_555
C12 H36 1.099753 1_555
C12 H44 1.101583 1_555
C12 Si4 1.882995 1_555
C13 H41 1.098591 1_555
C13 H37 1.099753 1_555
C13 H45 1.101583 1_555
C13 Si5 1.882995 1_555
C14 H42 1.098591 1_555
C14 H38 1.099753 1_555
C14 H46 1.101583 1_555
C14 Si6 1.882995 1_555
C15 H43 1.098591 1_555
C15 H39 1.099753 1_555
C15 H47 1.101583 1_555
C15 Si7 1.882995 1_555
C16 H48 1.098852 1_555
C16 H52 1.099575 1_555
C16 H56 1.102431 1_555
C16 Si4 1.877275 1_555
C17 H49 1.098852 1_555
C17 H53 1.099575 1_555
C17 H57 1.102431 1_555
C17 Si5 1.877275 1_555
C18 H50 1.098852 1_555
C18 H54 1.099575 1_555
C18 H58 1.102431 1_555
C18 Si6 1.877275 1_555
C19 H51 1.098852 1_555
C19 H55 1.099575 1_555
C19 H59 1.102431 1_555
C19 Si7 1.877275 1_555
C20 H68 1.097377 1_555
C20 H60 1.098871 1_555
C20 H64 1.102279 1_555
C20 Si4 1.876301 1_555
C21 H69 1.097377 1_555
C21 H61 1.098871 1_555
C21 H65 1.102279 1_555
C21 Si5 1.876301 1_555
C22 H70 1.097377 1_555
C22 H62 1.098871 1_555
C22 H66 1.102279 1_555
C22 Si6 1.876301 1_555
C23 H71 1.097377 1_555
C23 H63 1.098871 1_555
C23 H67 1.102279 1_555
C23 Si7 1.876301 1_555
C24 H80 1.097411 1_555
C24 H72 1.097466 1_555
C24 H76 1.104546 1_555
C24 Si8 1.883020 1_555
C25 H81 1.097411 1_555
C25 H73 1.097466 1_555
C25 H77 1.104546 1_555
C25 Si9 1.883020 1_555
C26 H82 1.097411 1_555
C26 H74 1.097466 1_555
C26 H78 1.104546 1_555
C26 Si10 1.883020 1_555
C27 H83 1.097411 1_555
C27 H75 1.097466 1_555
C27 H79 1.104546 1_555
C27 Si11 1.883020 1_555
C28 H84 1.096204 1_555
C28 H92 1.096967 1_555
C28 H88 1.108053 1_555
C28 Si8 1.886980 1_555
C29 H85 1.096204 1_555
C29 H93 1.096967 1_555
C29 H89 1.108053 1_555
C29 Si9 1.886980 1_555
C30 H86 1.096204 1_555
C30 H94 1.096967 1_555
C30 H90 1.108053 1_555
C30 Si10 1.886980 1_555
C31 H87 1.096204 1_555
C31 H95 1.096967 1_555
C31 H91 1.108053 1_555
C31 Si11 1.886980 1_555
C32 H100 1.100208 1_555
C32 H96 1.101030 1_555
C32 H104 1.101881 1_555
C32 Si8 1.882609 1_555
C33 H101 1.100208 1_555
C33 H97 1.101030 1_555
C33 H105 1.101881 1_555
C33 Si9 1.882609 1_555
C34 H102 1.100208 1_555
C34 H98 1.101030 1_555
C34 H106 1.101881 1_555
C34 Si10 1.882609 1_555
C35 H103 1.100208 1_555
C35 H99 1.101030 1_555
C35 H107 1.101881 1_555
C35 Si11 1.882609 1_555
C36 H116 1.100075 1_555
C36 H108 1.100169 1_555
C36 H112 1.100766 1_565
C36 Si12 1.880106 1_555
C37 H117 1.100075 1_555
C37 H109 1.100169 1_555
C37 H113 1.100766 1_554
C37 Si13 1.880106 1_555
C38 H118 1.100075 1_555
C38 H110 1.100169 1_555
C38 H114 1.100766 1_545
C38 Si14 1.880106 1_555
C39 H119 1.100075 1_555
C39 H111 1.100169 1_555
C39 H115 1.100766 1_556
C39 Si15 1.880106 1_555
C40 H120 1.097313 1_555
C40 H128 1.098934 1_555
C40 H124 1.103846 1_555
C40 Si12 1.880632 1_555
C41 H121 1.097313 1_555
C41 H129 1.098934 1_555
C41 H125 1.103846 1_555
C41 Si13 1.880632 1_556
C42 H122 1.097313 1_555
C42 H130 1.098934 1_555
C42 H126 1.103846 1_555
C42 Si14 1.880632 1_555
C43 H123 1.097313 1_555
C43 H131 1.098934 1_555
C43 H127 1.103846 1_555
C43 Si15 1.880632 1_554
C44 H136 1.096130 1_555
C44 H132 1.098781 1_555
C44 H140 1.104434 1_555
C44 Si12 1.884088 1_545
C45 H137 1.096130 1_555
C45 H133 1.098781 1_555
C45 H141 1.104434 1_555
C45 Si13 1.884088 1_555
C46 H138 1.096130 1_555
C46 H134 1.098781 1_555
C46 H142 1.104434 1_555
C46 Si14 1.884088 1_565
C47 H139 1.096130 1_555
C47 H135 1.098781 1_555
C47 H143 1.104434 1_555
C47 Si15 1.884088 1_555
N0 Si0 1.754637 1_555
N0 Si4 1.756005 1_555
N0 Zn0 1.853125 1_555
N1 Si1 1.754637 1_555
N1 Si5 1.756005 1_555
N1 Zn1 1.853125 1_555
N2 Si2 1.754637 1_555
N2 Si6 1.756005 1_555
N2 Zn2 1.853125 1_555
N3 Si3 1.754637 1_555
N3 Si7 1.756005 1_555
N3 Zn3 1.853125 1_555
N4 Si8 1.756064 1_555
N4 Si12 1.757250 1_555
N4 Zn0 1.854361 1_555
N5 Si9 1.756064 1_555
N5 Si13 1.757250 1_555
N5 Zn1 1.854361 1_555
N6 Si10 1.756064 1_555
N6 Si14 1.757250 1_555
N6 Zn2 1.854361 1_555
N7 Si11 1.756064 1_555
N7 Si15 1.757250 1_555
N7 Zn3 1.854361 1_555
