# generated using pymatgen
data_AcEuMg2
_symmetry_space_group_name_H-M   'P 1'
_cell_length_a   5.78467033
_cell_length_b   5.78467033
_cell_length_c   5.78467033
_cell_angle_alpha   60.00000000
_cell_angle_beta   60.00000000
_cell_angle_gamma   60.00000000
_symmetry_Int_Tables_number   1
_chemical_formula_structural   AcEuMg2
_chemical_formula_sum   'Ac1 Eu1 Mg2'
_cell_volume   136.87396346
_cell_formula_units_Z   1
loop_
 _symmetry_equiv_pos_site_id
 _symmetry_equiv_pos_as_xyz
  1  'x, y, z'
loop_
 _atom_site_type_symbol
 _atom_site_label
 _atom_site_symmetry_multiplicity
 _atom_site_fract_x
 _atom_site_fract_y
 _atom_site_fract_z
 _atom_site_occupancy
  Ac  Ac0  1  0.50000000  0.50000000  0.50000000  1
  Eu  Eu0  1  0.00000000  0.00000000  0.00000000  1
  Mg  Mg0  1  0.25000000  0.25000000  0.25000000  1
  Mg  Mg1  1  0.75000000  0.75000000  0.75000000  1
loop_
_geom_bond_atom_site_label_1
_geom_bond_atom_site_label_2
_geom_bond_distance
_geom_bond_site_symmetry_2
Ac0 Mg0 3.542373 1_555
Ac0 Mg1 3.542373 1_455
Ac0 Mg1 3.542373 1_545
Ac0 Mg0 3.542373 1_655
Ac0 Mg0 3.542373 1_556
Ac0 Mg1 3.542373 1_555
Ac0 Mg1 3.542373 1_554
Ac0 Mg0 3.542373 1_565
Eu0 Mg0 3.542373 1_555
Eu0 Mg1 3.542373 1_454
Eu0 Mg1 3.542373 1_444
Eu0 Mg1 3.542373 1_445
Eu0 Mg0 3.542373 1_545
Eu0 Mg1 3.542373 1_544
Eu0 Mg0 3.542373 1_554
Eu0 Mg0 3.542373 1_455
