# generated using pymatgen
data_Tm3Sn
_symmetry_space_group_name_H-M   'P 1'
_cell_length_a   6.09647794
_cell_length_b   6.09647794
_cell_length_c   6.09647794
_cell_angle_alpha   136.07181001
_cell_angle_beta   136.07181001
_cell_angle_gamma   63.86933536
_symmetry_Int_Tables_number   1
_chemical_formula_structural   Tm3Sn
_chemical_formula_sum   'Tm3 Sn1'
_cell_volume   107.60413127
_cell_formula_units_Z   1
loop_
 _symmetry_equiv_pos_site_id
 _symmetry_equiv_pos_as_xyz
  1  'x, y, z'
loop_
 _atom_site_type_symbol
 _atom_site_label
 _atom_site_symmetry_multiplicity
 _atom_site_fract_x
 _atom_site_fract_y
 _atom_site_fract_z
 _atom_site_occupancy
  Tm  Tm0  1  0.75000000  0.25000000  0.50000000  1
  Tm  Tm1  1  0.25000000  0.75000000  0.50000000  1
  Tm  Tm2  1  0.50000000  0.50000000  0.00000000  1
  Sn  Sn0  1  -0.00000000  0.00000000  0.00000000  1
loop_
_geom_bond_atom_site_label_1
_geom_bond_atom_site_label_2
_geom_bond_distance
_geom_bond_site_symmetry_2
Tm0 Tm1 3.224744 1_656
Tm0 Tm1 3.224744 1_544
Tm0 Tm1 3.224744 1_555
Tm0 Tm1 3.224744 1_645
Tm0 Tm2 3.448406 1_656
Tm0 Tm2 3.448406 1_545
Tm0 Tm2 3.448406 1_555
Tm0 Tm2 3.448406 1_556
Tm1 Tm2 3.448406 1_555
Tm1 Tm2 3.448406 1_566
Tm1 Tm2 3.448406 1_455
Tm1 Tm2 3.448406 1_556
Sn0 Tm2 3.224744 1_545
Sn0 Tm2 3.224744 1_455
Sn0 Tm2 3.224744 1_556
Sn0 Tm2 3.224744 1_444
Sn0 Tm1 3.448406 1_545
Sn0 Tm0 3.448406 1_555
Sn0 Tm0 3.448406 1_455
Sn0 Tm0 3.448406 1_454
Sn0 Tm0 3.448406 1_444
Sn0 Tm1 3.448406 1_444
Sn0 Tm1 3.448406 1_555
Sn0 Tm1 3.448406 1_544
