# generated using pymatgen
data_Ba(YTe2)2
_symmetry_space_group_name_H-M   'P 1'
_cell_length_a   4.49142526
_cell_length_b   13.80364589
_cell_length_c   16.29629380
_cell_angle_alpha   90.00000000
_cell_angle_beta   90.00000000
_cell_angle_gamma   90.00000000
_symmetry_Int_Tables_number   1
_chemical_formula_structural   Ba(YTe2)2
_chemical_formula_sum   'Ba4 Y8 Te16'
_cell_volume   1010.33833729
_cell_formula_units_Z   4
loop_
 _symmetry_equiv_pos_site_id
 _symmetry_equiv_pos_as_xyz
  1  'x, y, z'
loop_
 _atom_site_type_symbol
 _atom_site_label
 _atom_site_symmetry_multiplicity
 _atom_site_fract_x
 _atom_site_fract_y
 _atom_site_fract_z
 _atom_site_occupancy
  Ba  Ba0  1  0.25000000  0.23856345  0.33037883  1
  Ba  Ba1  1  0.75000000  0.76143655  0.66962117  1
  Ba  Ba2  1  0.25000000  0.73856345  0.16962117  1
  Ba  Ba3  1  0.75000000  0.26143655  0.83037883  1
  Y  Y0  1  0.25000000  0.55893860  0.39043788  1
  Y  Y1  1  0.75000000  0.44106140  0.60956212  1
  Y  Y2  1  0.25000000  0.05893860  0.10956212  1
  Y  Y3  1  0.75000000  0.94106140  0.89043788  1
  Y  Y4  1  0.75000000  0.41893429  0.09653430  1
  Y  Y5  1  0.25000000  0.58106571  0.90346570  1
  Y  Y6  1  0.75000000  0.91893429  0.40346570  1
  Y  Y7  1  0.25000000  0.08106571  0.59653430  1
  Te  Te0  1  0.75000000  0.02758855  0.71581316  1
  Te  Te1  1  0.25000000  0.97241145  0.28418684  1
  Te  Te2  1  0.75000000  0.52758855  0.78418684  1
  Te  Te3  1  0.25000000  0.47241145  0.21581316  1
  Te  Te4  1  0.75000000  0.40993111  0.42401361  1
  Te  Te5  1  0.25000000  0.59006889  0.57598639  1
  Te  Te6  1  0.75000000  0.90993111  0.07598639  1
  Te  Te7  1  0.25000000  0.09006889  0.92401361  1
  Te  Te8  1  0.75000000  0.20433875  0.16059672  1
  Te  Te9  1  0.25000000  0.79566125  0.83940328  1
  Te  Te10  1  0.75000000  0.70433875  0.33940328  1
  Te  Te11  1  0.25000000  0.29566125  0.66059672  1
  Te  Te12  1  0.75000000  0.12677234  0.47158413  1
  Te  Te13  1  0.25000000  0.87322766  0.52841587  1
  Te  Te14  1  0.75000000  0.62677234  0.02841587  1
  Te  Te15  1  0.25000000  0.37322766  0.97158413  1
loop_
_geom_bond_atom_site_label_1
_geom_bond_atom_site_label_2
_geom_bond_distance
_geom_bond_site_symmetry_2
Ba0 Te12 3.566459 1_455
Ba0 Te12 3.566459 1_555
Ba0 Te8 3.594677 1_555
Ba0 Te8 3.594677 1_455
Ba0 Te4 3.600997 1_455
Ba0 Te4 3.600997 1_555
Ba0 Te3 3.728990 1_555
Ba0 Te1 3.750193 1_545
Ba1 Te13 3.566459 1_555
Ba1 Te13 3.566459 1_655
Ba1 Te9 3.594677 1_655
Ba1 Te9 3.594677 1_555
Ba1 Te5 3.600997 1_555
Ba1 Te5 3.600997 1_655
Ba1 Te2 3.728990 1_555
Ba1 Te0 3.750193 1_565
Ba2 Te14 3.566459 1_455
Ba2 Te14 3.566459 1_555
Ba2 Te10 3.594677 1_555
Ba2 Te10 3.594677 1_455
Ba2 Te6 3.600997 1_455
Ba2 Te6 3.600997 1_555
Ba2 Te1 3.728990 1_555
Ba2 Te3 3.750193 1_555
Ba3 Te15 3.566459 1_555
Ba3 Te15 3.566459 1_655
Ba3 Te11 3.594677 1_555
Ba3 Te11 3.594677 1_655
Ba3 Te7 3.600997 1_555
Ba3 Te7 3.600997 1_655
Ba3 Te0 3.728990 1_555
Ba3 Te2 3.750193 1_555
Te0 Y7 3.060475 1_555
Te0 Y7 3.060475 1_655
Te0 Y3 3.086224 1_545
Te1 Y6 3.060475 1_555
Te1 Y6 3.060475 1_455
Te1 Y2 3.086224 1_565
Te2 Y5 3.060475 1_655
Te2 Y5 3.060475 1_555
Te2 Y1 3.086224 1_555
Te3 Y4 3.060475 1_455
Te3 Y4 3.060475 1_555
Te3 Y0 3.086224 1_555
Te4 Y1 3.054134 1_555
Te4 Y0 3.094063 1_655
Te4 Y0 3.094063 1_555
Te5 Y0 3.054134 1_555
Te5 Y1 3.094063 1_555
Te5 Y1 3.094063 1_455
Te6 Y3 3.054134 1_554
Te6 Y2 3.094063 1_665
Te6 Y2 3.094063 1_565
Te7 Y2 3.054134 1_556
Te7 Y3 3.094063 1_445
Te7 Y3 3.094063 1_545
Te8 Y2 3.124607 1_655
Te8 Y2 3.124607 1_555
Te8 Y4 3.140785 1_555
Te9 Y3 3.124607 1_555
Te9 Y3 3.124607 1_455
Te9 Y5 3.140785 1_555
Te10 Y0 3.124607 1_655
Te10 Y0 3.124607 1_555
Te10 Y6 3.140785 1_555
Te11 Y1 3.124607 1_555
Te11 Y1 3.124607 1_455
Te11 Y7 3.140785 1_555
Te12 Y6 3.076198 1_545
Te12 Y7 3.096368 1_555
Te12 Y7 3.096368 1_655
Te13 Y7 3.076198 1_565
Te13 Y6 3.096368 1_455
Te13 Y6 3.096368 1_555
Te14 Y4 3.076198 1_555
Te14 Y5 3.096368 1_654
Te14 Y5 3.096368 1_554
Te15 Y5 3.076198 1_555
Te15 Y4 3.096368 1_556
Te15 Y4 3.096368 1_456
