# generated using pymatgen
data_Yb3O4
_symmetry_space_group_name_H-M   'P 1'
_cell_length_a   3.40785900
_cell_length_b   8.99614500
_cell_length_c   11.82841300
_cell_angle_alpha   90.00000000
_cell_angle_beta   90.00000000
_cell_angle_gamma   90.00000000
_symmetry_Int_Tables_number   1
_chemical_formula_structural   Yb3O4
_chemical_formula_sum   'Yb12 O16'
_cell_volume   362.63067991
_cell_formula_units_Z   4
loop_
 _symmetry_equiv_pos_site_id
 _symmetry_equiv_pos_as_xyz
  1  'x, y, z'
loop_
 _atom_site_type_symbol
 _atom_site_label
 _atom_site_symmetry_multiplicity
 _atom_site_fract_x
 _atom_site_fract_y
 _atom_site_fract_z
 _atom_site_occupancy
  Yb  Yb0  1  0.25000000  0.74459000  0.33959700  1
  Yb  Yb1  1  0.25000000  0.24459000  0.16040300  1
  Yb  Yb2  1  0.75000000  0.25541000  0.66040300  1
  Yb  Yb3  1  0.75000000  0.75541000  0.83959700  1
  Yb  Yb4  1  0.25000000  0.40354500  0.39548800  1
  Yb  Yb5  1  0.25000000  0.90354500  0.10451200  1
  Yb  Yb6  1  0.75000000  0.59645500  0.60451200  1
  Yb  Yb7  1  0.75000000  0.09645500  0.89548800  1
  Yb  Yb8  1  0.25000000  0.42893300  0.88875700  1
  Yb  Yb9  1  0.25000000  0.92893300  0.61124300  1
  Yb  Yb10  1  0.75000000  0.57106700  0.11124300  1
  Yb  Yb11  1  0.75000000  0.07106700  0.38875700  1
  O  O0  1  0.25000000  0.21151600  0.79800900  1
  O  O1  1  0.25000000  0.71151600  0.70199100  1
  O  O2  1  0.75000000  0.78848400  0.20199100  1
  O  O3  1  0.75000000  0.28848400  0.29800900  1
  O  O4  1  0.25000000  0.16071100  0.51457600  1
  O  O5  1  0.25000000  0.66071100  0.98542400  1
  O  O6  1  0.75000000  0.83928900  0.48542400  1
  O  O7  1  0.75000000  0.33928900  0.01457600  1
  O  O8  1  0.25000000  0.00531000  0.28028100  1
  O  O9  1  0.25000000  0.50531000  0.21971900  1
  O  O10  1  0.75000000  0.99469000  0.71971900  1
  O  O11  1  0.75000000  0.49469000  0.78028100  1
  O  O12  1  0.25000000  0.41217600  0.58894300  1
  O  O13  1  0.25000000  0.91217600  0.91105700  1
  O  O14  1  0.75000000  0.58782400  0.41105700  1
  O  O15  1  0.75000000  0.08782400  0.08894300  1
loop_
_geom_bond_atom_site_label_1
_geom_bond_atom_site_label_2
_geom_bond_distance
_geom_bond_site_symmetry_2
O0 Yb8 2.231099 1_555
O0 Yb7 2.303102 1_555
O0 Yb7 2.303102 1_455
O0 Yb2 2.389264 1_455
O0 Yb2 2.389264 1_555
O1 Yb9 2.231099 1_555
O1 Yb6 2.303102 1_455
O1 Yb6 2.303102 1_555
O1 Yb3 2.389264 1_455
O1 Yb3 2.389264 1_555
O2 Yb10 2.231099 1_555
O2 Yb5 2.303102 1_655
O2 Yb5 2.303102 1_555
O2 Yb0 2.389264 1_555
O2 Yb0 2.389264 1_655
O3 Yb11 2.231099 1_555
O3 Yb4 2.303102 1_555
O3 Yb4 2.303102 1_655
O3 Yb1 2.389264 1_655
O3 Yb1 2.389264 1_555
O4 Yb9 2.378041 1_545
O4 Yb11 2.401790 1_455
O4 Yb11 2.401790 1_555
O4 Yb2 2.569911 1_455
O4 Yb2 2.569911 1_555
O4 Yb4 2.599339 1_555
O5 Yb8 2.378041 1_555
O5 Yb10 2.401790 1_456
O5 Yb10 2.401790 1_556
O5 Yb3 2.569911 1_455
O5 Yb3 2.569911 1_555
O5 Yb5 2.599339 1_556
O6 Yb11 2.378041 1_565
O6 Yb9 2.401790 1_655
O6 Yb9 2.401790 1_555
O6 Yb0 2.569911 1_655
O6 Yb0 2.569911 1_555
O6 Yb6 2.599339 1_555
O7 Yb10 2.378041 1_555
O7 Yb8 2.401790 1_654
O7 Yb8 2.401790 1_554
O7 Yb1 2.569911 1_655
O7 Yb1 2.569911 1_555
O7 Yb7 2.599339 1_554
O8 Yb11 2.213518 1_555
O8 Yb11 2.213518 1_455
O8 Yb5 2.271707 1_545
O8 Yb0 2.448166 1_545
O8 Yb1 2.577655 1_555
O9 Yb10 2.213518 1_455
O9 Yb10 2.213518 1_555
O9 Yb4 2.271707 1_555
O9 Yb1 2.448166 1_555
O9 Yb0 2.577655 1_555
O10 Yb9 2.213518 1_555
O10 Yb9 2.213518 1_655
O10 Yb7 2.271707 1_565
O10 Yb2 2.448166 1_565
O10 Yb3 2.577655 1_555
O11 Yb8 2.213518 1_555
O11 Yb8 2.213518 1_655
O11 Yb6 2.271707 1_555
O11 Yb3 2.448166 1_555
O11 Yb2 2.577655 1_555
O12 Yb4 2.289583 1_555
O12 Yb2 2.367859 1_455
O12 Yb2 2.367859 1_555
O12 Yb6 2.384448 1_455
O12 Yb6 2.384448 1_555
O13 Yb5 2.289583 1_556
O13 Yb3 2.367859 1_555
O13 Yb3 2.367859 1_455
O13 Yb7 2.384448 1_465
O13 Yb7 2.384448 1_565
O14 Yb6 2.289583 1_555
O14 Yb0 2.367859 1_555
O14 Yb0 2.367859 1_655
O14 Yb4 2.384448 1_555
O14 Yb4 2.384448 1_655
O15 Yb7 2.289583 1_554
O15 Yb1 2.367859 1_555
O15 Yb1 2.367859 1_655
O15 Yb5 2.384448 1_645
O15 Yb5 2.384448 1_545
