# generated using pymatgen
data_V2SiPb5O12
_symmetry_space_group_name_H-M   'P 1'
_cell_length_a   7.46158100
_cell_length_b   10.17016200
_cell_length_c   10.19924222
_cell_angle_alpha   60.57946912
_cell_angle_beta   90.00000000
_cell_angle_gamma   90.00000000
_symmetry_Int_Tables_number   1
_chemical_formula_structural   V2SiPb5O12
_chemical_formula_sum   'V4 Si2 Pb10 O24'
_cell_volume   674.16105583
_cell_formula_units_Z   2
loop_
 _symmetry_equiv_pos_site_id
 _symmetry_equiv_pos_as_xyz
  1  'x, y, z'
loop_
 _atom_site_type_symbol
 _atom_site_label
 _atom_site_symmetry_multiplicity
 _atom_site_fract_x
 _atom_site_fract_y
 _atom_site_fract_z
 _atom_site_occupancy
  V  V0  1  0.00000000  0.60493100  0.01643400  1
  V  V1  1  0.50000000  0.98007000  0.62516600  1
  V  V2  1  0.50000000  0.62222900  0.39434900  1
  V  V3  1  0.50000000  0.39441200  0.98418000  1
  Si  Si0  1  0.00000000  0.01766700  0.37694500  1
  Si  Si1  1  0.00000000  0.38144700  0.60008700  1
  Pb  Pb0  1  0.00000000  0.23034700  0.02690600  1
  Pb  Pb1  1  0.00000000  0.03140900  0.73291000  1
  Pb  Pb2  1  0.00000000  0.74077500  0.26144600  1
  Pb  Pb3  1  0.50000000  0.75016500  0.99736800  1
  Pb  Pb4  1  0.50000000  0.00988900  0.25261300  1
  Pb  Pb5  1  0.50000000  0.25518700  0.74310100  1
  Pb  Pb6  1  0.75234600  0.32297000  0.34435600  1
  Pb  Pb7  1  0.23231100  0.66571300  0.65702400  1
  Pb  Pb8  1  0.76768900  0.66571300  0.65702400  1
  Pb  Pb9  1  0.24765400  0.32297000  0.34435600  1
  O  O0  1  0.82355100  0.08324500  0.26357700  1
  O  O1  1  0.82339700  0.26718600  0.64655500  1
  O  O2  1  0.81543300  0.65787700  0.08283300  1
  O  O3  1  0.31696000  0.91635100  0.74386300  1
  O  O4  1  0.31550200  0.74039700  0.34510500  1
  O  O5  1  0.31663700  0.34051300  0.91816100  1
  O  O6  1  0.68304000  0.91635100  0.74386300  1
  O  O7  1  0.68449800  0.74039700  0.34510500  1
  O  O8  1  0.68336300  0.34051300  0.91816100  1
  O  O9  1  0.17644900  0.08324500  0.26357700  1
  O  O10  1  0.17660300  0.26718600  0.64655500  1
  O  O11  1  0.18456700  0.65787700  0.08283300  1
  O  O12  1  0.00000000  0.83053900  0.47800500  1
  O  O13  1  0.00000000  0.49011000  0.67837500  1
  O  O14  1  0.00000000  0.68662600  0.81993000  1
  O  O15  1  0.50000000  0.17945500  0.51887000  1
  O  O16  1  0.50000000  0.51578700  0.30239000  1
  O  O17  1  0.50000000  0.29814200  0.18286400  1
  O  O18  1  0.00000000  0.10005500  0.48389000  1
  O  O19  1  0.00000000  0.48781900  0.41297200  1
  O  O20  1  0.00000000  0.40496100  0.10585400  1
  O  O21  1  0.50000000  0.89756100  0.50818500  1
  O  O22  1  0.50000000  0.50834000  0.59290300  1
  O  O23  1  0.50000000  0.59357300  0.90131000  1
loop_
_geom_bond_atom_site_label_1
_geom_bond_atom_site_label_2
_geom_bond_distance
_geom_bond_site_symmetry_2
O0 Si0 1.660589 1_655
O0 Pb0 2.500099 1_655
O0 Pb4 2.545470 1_555
O1 Si1 1.664437 1_655
O1 Pb1 2.487406 1_655
O1 Pb5 2.586366 1_555
O2 V0 1.733034 1_655
O2 Pb3 2.525185 1_554
O2 Pb2 2.726702 1_655
O3 V1 1.726305 1_555
O3 Pb1 2.616612 1_565
O3 Pb3 2.667175 1_555
O4 V2 1.731679 1_555
O4 Pb2 2.503365 1_555
O4 Pb4 2.785110 1_565
O5 V3 1.728699 1_555
O5 Pb0 2.616593 1_556
O5 Pb5 2.708333 1_555
O6 V1 1.726305 1_555
O6 Pb1 2.616612 1_665
O6 Pb3 2.667175 1_555
O7 V2 1.731679 1_555
O7 Pb2 2.503365 1_655
O7 Pb4 2.785110 1_565
O8 V3 1.728699 1_555
O8 Pb0 2.616593 1_656
O8 Pb5 2.708333 1_555
O9 Si0 1.660589 1_555
O9 Pb0 2.500099 1_555
O9 Pb4 2.545470 1_555
O10 Si1 1.664437 1_555
O10 Pb1 2.487406 1_555
O10 Pb5 2.586366 1_555
O11 V0 1.733034 1_555
O11 Pb3 2.525185 1_554
O11 Pb2 2.726702 1_555
O12 Si0 1.660463 1_565
O12 Pb7 2.478212 1_555
O12 Pb8 2.478212 1_455
O12 Pb2 2.773608 1_555
O13 Si1 1.650991 1_555
O13 Pb8 2.420646 1_455
O13 Pb7 2.420646 1_555
O14 V0 1.752475 1_556
O14 Pb7 2.481483 1_555
O14 Pb8 2.481483 1_455
O15 V1 1.768465 1_545
O15 Pb6 2.508282 1_555
O15 Pb9 2.508282 1_555
O15 Pb5 2.748460 1_555
O16 V2 1.746150 1_555
O16 Pb6 2.597954 1_555
O16 Pb9 2.597954 1_555
O16 Pb3 2.841627 1_554
O17 V3 1.765170 1_554
O17 Pb6 2.594338 1_555
O17 Pb9 2.594338 1_555
O17 Pb4 2.655444 1_555
O18 Si0 1.670245 1_555
O18 Pb1 2.279488 1_555
O18 Pb9 2.722130 1_555
O18 Pb6 2.722130 1_455
O19 Si1 1.668573 1_555
O19 Pb2 2.258478 1_555
O19 Pb9 2.804984 1_555
O19 Pb6 2.804984 1_455
O20 V0 1.773588 1_555
O20 Pb0 2.281848 1_555
O20 Pb9 2.834521 1_555
O20 Pb6 2.834521 1_455
O21 V1 1.763876 1_555
O21 Pb4 2.274674 1_565
O22 V2 1.771501 1_555
O22 Pb5 2.258444 1_555
O23 V3 1.770630 1_555
O23 Pb3 2.242537 1_555
