# generated using pymatgen
data_Rb2NdI5
_symmetry_space_group_name_H-M   'P 1'
_cell_length_a   9.35556503
_cell_length_b   10.01095027
_cell_length_c   14.80339678
_cell_angle_alpha   90.00000000
_cell_angle_beta   90.00000000
_cell_angle_gamma   90.00000000
_symmetry_Int_Tables_number   1
_chemical_formula_structural   Rb2NdI5
_chemical_formula_sum   'Rb8 Nd4 I20'
_cell_volume   1386.45796064
_cell_formula_units_Z   4
loop_
 _symmetry_equiv_pos_site_id
 _symmetry_equiv_pos_as_xyz
  1  'x, y, z'
loop_
 _atom_site_type_symbol
 _atom_site_label
 _atom_site_symmetry_multiplicity
 _atom_site_fract_x
 _atom_site_fract_y
 _atom_site_fract_z
 _atom_site_occupancy
  Rb  Rb0  1  0.93844796  0.00421873  0.82747151  1
  Rb  Rb1  1  0.06155204  0.99578127  0.17252849  1
  Rb  Rb2  1  0.43844796  0.99578127  0.67252849  1
  Rb  Rb3  1  0.06155204  0.50421873  0.17252849  1
  Rb  Rb4  1  0.56155204  0.00421873  0.32747151  1
  Rb  Rb5  1  0.93844796  0.49578127  0.82747151  1
  Rb  Rb6  1  0.56155204  0.49578127  0.32747151  1
  Rb  Rb7  1  0.43844796  0.50421873  0.67252849  1
  Nd  Nd0  1  0.92068019  0.75000000  0.50519423  1
  Nd  Nd1  1  0.07931981  0.25000000  0.49480577  1
  Nd  Nd2  1  0.42068019  0.25000000  0.99480577  1
  Nd  Nd3  1  0.57931981  0.75000000  0.00519423  1
  I  I0  1  0.11935770  0.75000000  0.67926171  1
  I  I1  1  0.88064230  0.25000000  0.32073829  1
  I  I2  1  0.61935770  0.25000000  0.82073829  1
  I  I3  1  0.38064230  0.75000000  0.17926171  1
  I  I4  1  0.83251448  0.04534890  0.57306815  1
  I  I5  1  0.16748552  0.95465110  0.42693185  1
  I  I6  1  0.33251448  0.95465110  0.92693185  1
  I  I7  1  0.16748552  0.54534890  0.42693185  1
  I  I8  1  0.66748552  0.04534890  0.07306815  1
  I  I9  1  0.83251448  0.45465110  0.57306815  1
  I  I10  1  0.66748552  0.45465110  0.07306815  1
  I  I11  1  0.33251448  0.54534890  0.92693185  1
  I  I12  1  0.57505428  0.75000000  0.50957524  1
  I  I13  1  0.42494572  0.25000000  0.49042476  1
  I  I14  1  0.07505428  0.25000000  0.99042476  1
  I  I15  1  0.92494572  0.75000000  0.00957524  1
  I  I16  1  0.65669524  0.75000000  0.79715161  1
  I  I17  1  0.34330476  0.25000000  0.20284839  1
  I  I18  1  0.15669524  0.25000000  0.70284839  1
  I  I19  1  0.84330476  0.75000000  0.29715161  1
loop_
_geom_bond_atom_site_label_1
_geom_bond_atom_site_label_2
_geom_bond_distance
_geom_bond_site_symmetry_2
I0 Nd0 3.177226 1_455
I0 Rb0 3.762333 1_465
I0 Rb5 3.762333 1_455
I0 Rb7 3.869864 1_555
I0 Rb2 3.869864 1_555
I1 Nd1 3.177226 1_655
I1 Rb1 3.762333 1_645
I1 Rb3 3.762333 1_655
I1 Rb4 3.869864 1_555
I1 Rb6 3.869864 1_555
I2 Nd2 3.177226 1_555
I2 Rb2 3.762333 1_545
I2 Rb7 3.762333 1_555
I2 Rb5 3.869864 1_555
I2 Rb0 3.869864 1_555
I3 Nd3 3.177226 1_555
I3 Rb6 3.762333 1_555
I3 Rb4 3.762333 1_565
I3 Rb3 3.869864 1_555
I3 Rb1 3.869864 1_555
I4 Nd0 3.229880 1_545
I4 Nd1 3.297138 1_655
I4 Rb0 3.915963 1_555
I4 Rb2 4.000740 1_545
I5 Nd1 3.229880 1_565
I5 Nd0 3.297138 1_455
I5 Rb1 3.915963 1_555
I5 Rb4 4.000740 1_565
I6 Nd2 3.229880 1_565
I6 Nd3 3.297138 1_556
I6 Rb2 3.915963 1_555
I6 Rb0 4.000740 1_465
I7 Nd1 3.229880 1_555
I7 Nd0 3.297138 1_455
I7 Rb3 3.915963 1_555
I7 Rb6 4.000740 1_555
I8 Nd3 3.229880 1_545
I8 Nd2 3.297138 1_554
I8 Rb4 3.915963 1_555
I8 Rb1 4.000740 1_645
I9 Nd0 3.229880 1_555
I9 Nd1 3.297138 1_655
I9 Rb5 3.915963 1_555
I9 Rb7 4.000740 1_555
I10 Nd3 3.229880 1_555
I10 Nd2 3.297138 1_554
I10 Rb6 3.915963 1_555
I10 Rb3 4.000740 1_655
I11 Nd2 3.229880 1_555
I11 Nd3 3.297138 1_556
I11 Rb7 3.915963 1_555
I11 Rb5 4.000740 1_455
I12 Nd0 3.234176 1_555
I12 Rb7 3.675112 1_555
I12 Rb2 3.675112 1_555
I12 Rb6 3.709437 1_555
I12 Rb4 3.709437 1_565
I13 Nd1 3.234176 1_555
I13 Rb4 3.675112 1_555
I13 Rb6 3.675112 1_555
I13 Rb2 3.709437 1_545
I13 Rb7 3.709437 1_555
I14 Nd2 3.234176 1_555
I14 Rb0 3.675112 1_455
I14 Rb5 3.675112 1_455
I14 Rb1 3.709437 1_546
I14 Rb3 3.709437 1_556
I15 Nd3 3.234176 1_555
I15 Rb3 3.675112 1_655
I15 Rb1 3.675112 1_655
I15 Rb5 3.709437 1_554
I15 Rb0 3.709437 1_564
I16 Nd3 3.163669 1_556
I16 Rb7 3.691421 1_555
I16 Rb2 3.691421 1_555
I16 Rb0 3.691422 1_565
I16 Rb5 3.691422 1_555
I17 Nd2 3.163669 1_554
I17 Rb6 3.691421 1_555
I17 Rb4 3.691421 1_555
I17 Rb1 3.691422 1_545
I17 Rb3 3.691422 1_555
I18 Nd1 3.163669 1_555
I18 Rb5 3.691421 1_455
I18 Rb0 3.691421 1_455
I18 Rb2 3.691422 1_545
I18 Rb7 3.691422 1_555
I19 Nd0 3.163669 1_555
I19 Rb3 3.691421 1_655
I19 Rb1 3.691421 1_655
I19 Rb4 3.691422 1_565
I19 Rb6 3.691422 1_555
