# generated using pymatgen
data_Mo6H10N2Cl14O
_symmetry_space_group_name_H-M   'P 1'
_cell_length_a   9.90784600
_cell_length_b   13.31671377
_cell_length_c   13.35217108
_cell_angle_alpha   75.57172935
_cell_angle_beta   71.61487753
_cell_angle_gamma   70.59330224
_symmetry_Int_Tables_number   1
_chemical_formula_structural   Mo6H10N2Cl14O
_chemical_formula_sum   'Mo12 H20 N4 Cl28 O2'
_cell_volume   1556.13468645
_cell_formula_units_Z   2
loop_
 _symmetry_equiv_pos_site_id
 _symmetry_equiv_pos_as_xyz
  1  'x, y, z'
loop_
 _atom_site_type_symbol
 _atom_site_label
 _atom_site_symmetry_multiplicity
 _atom_site_fract_x
 _atom_site_fract_y
 _atom_site_fract_z
 _atom_site_occupancy
  Mo  Mo0  1  0.57823200  0.05708300  0.30914000  1
  Mo  Mo1  1  0.07011300  0.31177200  0.06062300  1
  Mo  Mo2  1  0.42815800  0.93759400  0.68009400  1
  Mo  Mo3  1  0.92977300  0.69104100  0.93525900  1
  Mo  Mo4  1  0.30451800  0.15549300  0.51915000  1
  Mo  Mo5  1  0.80167700  0.52473800  0.16232300  1
  Mo  Mo6  1  0.71113100  0.83287200  0.47183500  1
  Mo  Mo7  1  0.19784900  0.47478300  0.83598700  1
  Mo  Mo8  1  0.32873400  0.91331000  0.47581500  1
  Mo  Mo9  1  0.83139900  0.47544300  0.91281800  1
  Mo  Mo10  1  0.67638300  0.08501100  0.52406900  1
  Mo  Mo11  1  0.16657000  0.52344000  0.08549800  1
  H  H0  1  0.78481100  0.50984200  0.52355600  1
  H  H1  1  0.27584900  0.52210000  0.51690600  1
  H  H2  1  0.81308200  0.37269200  0.54841000  1
  H  H3  1  0.32089300  0.54515100  0.38103700  1
  H  H4  1  0.74085200  0.44407100  0.65118300  1
  H  H5  1  0.24051900  0.65065000  0.44880900  1
  H  H6  1  0.64005600  0.45450200  0.56772900  1
  H  H7  1  0.14123800  0.56996300  0.44954600  1
  H  H8  1  0.87324500  0.03007200  0.02272400  1
  H  H9  1  0.37983300  0.02196800  0.02587100  1
  H  H10  1  0.03559400  0.96879900  0.94222900  1
  H  H11  1  0.54444800  0.93664700  0.97206800  1
  H  H12  1  0.02133300  0.07801200  0.99031900  1
  H  H13  1  0.52423000  0.98982600  0.07890400  1
  H  H14  1  0.92374200  0.08936100  0.89749200  1
  H  H15  1  0.42802300  0.89711400  0.09018700  1
  H  H16  1  0.23156400  0.83457900  0.23777900  1
  H  H17  1  0.72592200  0.24211400  0.83325100  1
  H  H18  1  0.28666200  0.75234500  0.15934600  1
  H  H19  1  0.78534500  0.16289900  0.75109200  1
  N  N0  1  0.74534900  0.44537400  0.57160700  1
  N  N1  1  0.24528700  0.57070500  0.44943600  1
  N  N2  1  0.96518100  0.04166900  0.96244800  1
  N  N3  1  0.47049600  0.96059500  0.04193500  1
  Cl  Cl0  1  0.85659000  0.00611700  0.36786800  1
  Cl  Cl1  1  0.32905600  0.31995500  0.95417600  1
  Cl  Cl2  1  0.16773100  0.03936100  0.66819900  1
  Cl  Cl3  1  0.64272700  0.60703400  0.03164400  1
  Cl  Cl4  1  0.22263600  0.10386300  0.38563100  1
  Cl  Cl5  1  0.79655200  0.34038800  0.15170800  1
  Cl  Cl6  1  0.70020700  0.85265300  0.65989100  1
  Cl  Cl7  1  0.28405900  0.60116800  0.89694000  1
  Cl  Cl8  1  0.48301400  0.24074500  0.37216300  1
  Cl  Cl9  1  0.01047700  0.43526300  0.25168700  1
  Cl  Cl10  1  0.41106200  0.77421200  0.63017700  1
  Cl  Cl11  1  0.02343700  0.63428500  0.75238000  1
  Cl  Cl12  1  0.62531700  0.85909400  0.30437900  1
  Cl  Cl13  1  0.06491300  0.35216300  0.81548800  1
  Cl  Cl14  1  0.43488600  0.13369100  0.67215700  1
  Cl  Cl15  1  0.86122900  0.70109000  0.13167100  1
  Cl  Cl16  1  0.62500600  0.10424300  0.11217800  1
  Cl  Cl17  1  0.13201800  0.11368600  0.09313600  1
  Cl  Cl18  1  0.35115100  0.89115700  0.87153400  1
  Cl  Cl19  1  0.82597100  0.88455400  0.88454000  1
  Cl  Cl20  1  0.12286400  0.32634100  0.53995900  1
  Cl  Cl21  1  0.61189800  0.54963700  0.32671900  1
  Cl  Cl22  1  0.87960200  0.64780500  0.45870700  1
  Cl  Cl23  1  0.38000900  0.44964100  0.66429200  1
  Cl  Cl24  1  0.81849000  0.18124200  0.56684700  1
  Cl  Cl25  1  0.30221900  0.56743800  0.18521700  1
  Cl  Cl26  1  0.18083200  0.82195100  0.43238900  1
  Cl  Cl27  1  0.67204800  0.44013100  0.82459400  1
  O  O0  1  0.27968500  0.82683800  0.16258100  1
  O  O1  1  0.77656300  0.16656900  0.82566000  1
loop_
_geom_bond_atom_site_label_1
_geom_bond_atom_site_label_2
_geom_bond_distance
_geom_bond_site_symmetry_2
H0 N0 1.044923 1_555
H1 N1 1.036077 1_555
H2 N0 1.034275 1_555
H3 N1 1.031957 1_555
H4 N0 1.045314 1_555
H5 N1 1.047889 1_555
H6 N0 1.025888 1_555
H7 N1 1.033762 1_555
H8 N2 1.034600 1_554
H9 N3 1.033038 1_545
H10 N2 1.031068 1_465
H11 N3 1.034709 1_556
H12 N2 1.039960 1_455
H13 N3 1.038202 1_555
H14 N2 1.049277 1_555
H15 N3 1.049175 1_555
H16 O0 0.981334 1_555
H17 O1 0.978457 1_555
H18 O0 0.982146 1_555
H19 O1 0.983892 1_555
Cl0 Mo10 2.477470 1_555
Cl0 Mo0 2.921775 1_555
Cl0 Mo6 2.945864 1_545
Cl1 Mo7 2.514514 1_555
Cl1 Mo1 2.534268 1_556
Cl2 Mo4 2.519268 1_555
Cl2 Mo2 2.519341 1_545
Cl2 Mo8 3.121738 1_545
Cl3 Mo5 2.521746 1_555
Cl3 Mo9 2.533807 1_554
Cl3 Mo3 3.175553 1_554
Cl4 Mo4 2.490579 1_555
Cl4 Mo8 2.548969 1_545
Cl5 Mo5 2.512001 1_555
Cl5 Mo1 2.536890 1_655
Cl6 Mo2 2.506951 1_555
Cl6 Mo6 2.554454 1_555
Cl6 Mo10 3.147568 1_565
Cl7 Mo7 2.510173 1_555
Cl7 Mo11 2.533453 1_556
Cl8 Mo4 2.510522 1_555
Cl8 Mo0 2.563484 1_555
Cl8 Mo10 3.130503 1_555
Cl9 Mo5 2.516694 1_455
Cl9 Mo11 2.537337 1_555
Cl9 Mo1 3.171086 1_555
Cl10 Mo2 2.499079 1_555
Cl10 Mo8 2.549191 1_555
Cl11 Mo7 2.517933 1_555
Cl11 Mo3 2.533603 1_455
Cl12 Mo0 2.533886 1_565
Cl12 Mo6 2.541041 1_555
Cl12 Mo8 3.092967 1_555
Cl13 Mo7 2.520992 1_555
Cl13 Mo9 2.525727 1_455
Cl14 Mo10 2.584301 1_555
Cl14 Mo2 2.609258 1_545
Cl14 Mo4 2.654476 1_555
Cl15 Mo5 2.514017 1_555
Cl15 Mo3 2.519480 1_554
Cl15 Mo11 3.150106 1_655
Cl16 Mo0 2.475267 1_555
Cl17 Mo1 2.458668 1_555
Cl18 Mo2 2.407067 1_555
Cl19 Mo3 2.442435 1_555
Cl20 Mo4 2.402316 1_555
Cl21 Mo5 2.410088 1_555
Cl22 Mo6 2.487485 1_555
Cl23 Mo7 2.448666 1_555
Cl24 Mo10 2.453959 1_555
Cl25 Mo11 2.441980 1_555
Cl26 Mo8 2.456818 1_555
Cl27 Mo9 2.458468 1_555
