# generated using pymatgen
data_MgFe4(S3O23)2
_symmetry_space_group_name_H-M   'P 1'
_cell_length_a   7.70456179
_cell_length_b   17.96342639
_cell_length_c   7.64266835
_cell_angle_alpha   89.81422010
_cell_angle_beta   102.07020019
_cell_angle_gamma   101.27656741
_symmetry_Int_Tables_number   1
_chemical_formula_structural   MgFe4(S3O23)2
_chemical_formula_sum   'Mg1 Fe4 S6 O46'
_cell_volume   1013.61263141
_cell_formula_units_Z   1
loop_
 _symmetry_equiv_pos_site_id
 _symmetry_equiv_pos_as_xyz
  1  'x, y, z'
loop_
 _atom_site_type_symbol
 _atom_site_label
 _atom_site_symmetry_multiplicity
 _atom_site_fract_x
 _atom_site_fract_y
 _atom_site_fract_z
 _atom_site_occupancy
  Mg  Mg0  1  0.00000000  -0.00000000  -0.00000000  1
  Fe  Fe0  1  0.26714691  0.69303915  0.54376149  1
  Fe  Fe1  1  0.73285309  0.30696085  0.45623851  1
  Fe  Fe2  1  0.32670333  0.30646096  0.04524016  1
  Fe  Fe3  1  0.67329667  0.69353904  0.95475984  1
  S  S0  1  0.05349823  0.25213228  0.68283408  1
  S  S1  1  0.94650177  0.74786772  0.31716592  1
  S  S2  1  0.27268369  0.57068387  0.84071016  1
  S  S3  1  0.72731631  0.42931613  0.15928984  1
  S  S4  1  0.44543930  0.81862738  0.86039832  1
  S  S5  1  0.55456070  0.18137262  0.13960168  1
  O  O0  1  0.22725454  0.29944942  0.79719201  1
  O  O1  1  0.77274546  0.70055058  0.20280799  1
  O  O2  1  0.08706084  0.23649695  0.50721193  1
  O  O3  1  0.91293916  0.76350305  0.49278807  1
  O  O4  1  0.07901321  0.69305427  0.33546519  1
  O  O5  1  0.92098679  0.30694573  0.66453481  1
  O  O6  1  0.01218607  0.81442781  0.22294578  1
  O  O7  1  0.98781393  0.18557219  0.77705422  1
  O  O8  1  0.43933239  0.63182724  0.91830906  1
  O  O9  1  0.56066761  0.36817276  0.08169094  1
  O  O10  1  0.32621984  0.50199441  0.78914944  1
  O  O11  1  0.67378016  0.49800559  0.21085056  1
  O  O12  1  0.17640271  0.60506644  0.67246408  1
  O  O13  1  0.82359729  0.39493356  0.32753592  1
  O  O14  1  0.15490809  0.55986656  0.96756957  1
  O  O15  1  0.84509191  0.44013344  0.03243043  1
  O  O16  1  0.48961834  0.90044094  0.84685875  1
  O  O17  1  0.51038166  0.09955906  0.15314125  1
  O  O18  1  0.37787479  0.21139566  0.13343999  1
  O  O19  1  0.62212521  0.78860434  0.86656001  1
  O  O20  1  0.36409878  0.79154113  0.00875772  1
  O  O21  1  0.63590122  0.20845887  0.99124228  1
  O  O22  1  0.32260189  0.78457202  0.68231773  1
  O  O23  1  0.67739811  0.21542798  0.31768227  1
  O  O24  1  0.48331833  0.33628225  0.44305393  1
  O  O25  1  0.51668167  0.66371775  0.55694607  1
  O  O26  1  0.47911848  0.70331654  0.41454696  1
  O  O27  1  0.52088152  0.29668346  0.58545304  1
  O  O28  1  0.23338840  0.53115462  0.35615097  1
  O  O29  1  0.76661160  0.46884538  0.64384903  1
  O  O30  1  0.20096846  0.03785940  0.86409437  1
  O  O31  1  0.79903154  0.96214060  0.13590563  1
  O  O32  1  0.18101788  0.37612811  0.13296001  1
  O  O33  1  0.81898212  0.62387189  0.86703999  1
  O  O34  1  0.23823563  0.01308996  0.29605162  1
  O  O35  1  0.76176437  0.98691004  0.70394838  1
  O  O36  1  0.11296954  0.30719447  0.17082814  1
  O  O37  1  0.88703046  0.69280553  0.82917186  1
  O  O38  1  0.07706234  0.91867560  0.86404077  1
  O  O39  1  0.92293766  0.08132440  0.13595923  1
  O  O40  1  0.28273102  0.06023844  0.43681927  1
  O  O41  1  0.71726898  0.93976156  0.56318073  1
  O  O42  1  0.28854378  0.47921157  0.43713990  1
  O  O43  1  0.71145622  0.52078843  0.56286010  1
  O  O44  1  0.55405999  0.92850511  0.47906633  1
  O  O45  1  0.44594001  0.07149489  0.52093367  1
loop_
_geom_bond_atom_site_label_1
_geom_bond_atom_site_label_2
_geom_bond_distance
_geom_bond_site_symmetry_2
Mg0 O39 2.042898 1_455
Mg0 O38 2.042898 1_544
Mg0 O30 2.048179 1_554
Mg0 O31 2.048179 1_445
Mg0 O34 2.577129 1_555
Mg0 O35 2.577129 1_444
Fe0 O22 1.885408 1_555
Fe0 O4 1.915828 1_555
Fe0 O12 1.949125 1_555
Fe0 O26 2.057160 1_555
Fe0 O25 2.073275 1_555
Fe1 O23 1.885408 1_555
Fe1 O5 1.915828 1_555
Fe1 O13 1.949125 1_555
Fe1 O27 2.057160 1_555
Fe1 O24 2.073275 1_555
Fe2 O0 1.884975 1_554
Fe2 O9 1.888471 1_555
Fe2 O18 1.915921 1_555
Fe2 O32 2.035927 1_555
Fe2 O36 2.074305 1_555
Fe3 O1 1.884975 1_556
Fe3 O8 1.888471 1_555
Fe3 O19 1.915921 1_555
Fe3 O33 2.035927 1_555
Fe3 O37 2.074305 1_555
O0 S0 1.532635 1_555
O1 S1 1.532635 1_555
O2 S0 1.457160 1_555
O3 S1 1.457160 1_555
O4 S1 1.537508 1_455
O5 S0 1.537508 1_655
O6 S1 1.454096 1_455
O7 S0 1.454096 1_655
O8 S2 1.529988 1_555
O9 S3 1.529988 1_555
O10 S2 1.455369 1_555
O11 S3 1.455369 1_555
O12 S2 1.536313 1_555
O13 S3 1.536313 1_555
O14 S2 1.448767 1_555
O15 S3 1.448767 1_555
O16 S4 1.450706 1_555
O17 S5 1.450706 1_555
O18 S5 1.551236 1_555
O19 S4 1.551236 1_555
O20 S4 1.445503 1_554
O21 S5 1.445503 1_556
O22 S4 1.537060 1_555
O23 S5 1.537060 1_555
O24 O27 1.310699 1_555
O25 O26 1.310699 1_555
O28 O42 1.214766 1_555
O29 O43 1.214766 1_555
O32 O36 1.303539 1_555
O33 O37 1.303539 1_555
O34 O40 1.315442 1_555
O35 O41 1.315442 1_555
O40 O45 1.264386 1_555
O41 O44 1.264386 1_555
