# generated using pymatgen
data_BaNa2Sn
_symmetry_space_group_name_H-M   'P 1'
_cell_length_a   5.58381732
_cell_length_b   5.58381732
_cell_length_c   5.58381732
_cell_angle_alpha   60.00000000
_cell_angle_beta   60.00000000
_cell_angle_gamma   60.00000000
_symmetry_Int_Tables_number   1
_chemical_formula_structural   BaNa2Sn
_chemical_formula_sum   'Ba1 Na2 Sn1'
_cell_volume   123.10582587
_cell_formula_units_Z   1
loop_
 _symmetry_equiv_pos_site_id
 _symmetry_equiv_pos_as_xyz
  1  'x, y, z'
loop_
 _atom_site_type_symbol
 _atom_site_label
 _atom_site_symmetry_multiplicity
 _atom_site_fract_x
 _atom_site_fract_y
 _atom_site_fract_z
 _atom_site_occupancy
  Ba  Ba0  1  0.50000000  0.50000000  0.50000000  1
  Na  Na0  1  0.25000000  0.25000000  0.25000000  1
  Na  Na1  1  0.75000000  0.75000000  0.75000000  1
  Sn  Sn0  1  0.00000000  0.00000000  -0.00000000  1
loop_
_geom_bond_atom_site_label_1
_geom_bond_atom_site_label_2
_geom_bond_distance
_geom_bond_site_symmetry_2
Ba0 Na0 3.419376 1_565
Ba0 Na1 3.419376 1_555
Ba0 Na0 3.419376 1_655
Ba0 Na1 3.419376 1_554
Ba0 Na1 3.419376 1_545
Ba0 Na0 3.419376 1_556
Ba0 Na1 3.419376 1_455
Ba0 Na0 3.419376 1_555
Na0 Sn0 3.419376 1_565
Na0 Sn0 3.419376 1_555
Na0 Sn0 3.419376 1_655
Na0 Sn0 3.419376 1_556
Na1 Sn0 3.419376 1_656
Na1 Sn0 3.419376 1_666
Na1 Sn0 3.419376 1_566
Na1 Sn0 3.419376 1_665
