# generated using pymatgen
data_BaB2H10O9
_symmetry_space_group_name_H-M   'P 1'
_cell_length_a   8.86606100
_cell_length_b   6.86362000
_cell_length_c   18.72773635
_cell_angle_alpha   89.53931861
_cell_angle_beta   90.00000000
_cell_angle_gamma   90.00000000
_symmetry_Int_Tables_number   1
_chemical_formula_structural   BaB2H10O9
_chemical_formula_sum   'Ba4 B8 H40 O36'
_cell_volume   1139.60722650
_cell_formula_units_Z   4
loop_
 _symmetry_equiv_pos_site_id
 _symmetry_equiv_pos_as_xyz
  1  'x, y, z'
loop_
 _atom_site_type_symbol
 _atom_site_label
 _atom_site_symmetry_multiplicity
 _atom_site_fract_x
 _atom_site_fract_y
 _atom_site_fract_z
 _atom_site_occupancy
  Ba  Ba0  1  0.49685600  0.90024000  0.80148000  1
  Ba  Ba1  1  0.99685600  0.09976000  0.69852000  1
  Ba  Ba2  1  0.50314400  0.09976000  0.19852000  1
  Ba  Ba3  1  0.00314400  0.90024000  0.30148000  1
  B  B0  1  0.71016300  0.16164700  0.03439900  1
  B  B1  1  0.21016300  0.83835300  0.46560100  1
  B  B2  1  0.28983700  0.83835300  0.96560100  1
  B  B3  1  0.78983700  0.16164700  0.53439900  1
  B  B4  1  0.65620300  0.63638400  0.28141500  1
  B  B5  1  0.15620300  0.36361600  0.21858500  1
  B  B6  1  0.34379700  0.36361600  0.71858500  1
  B  B7  1  0.84379700  0.63638400  0.78141500  1
  H  H0  1  0.21873600  0.78333300  0.60042500  1
  H  H1  1  0.71873600  0.21666700  0.89957500  1
  H  H2  1  0.78126400  0.21666700  0.39957500  1
  H  H3  1  0.28126400  0.78333300  0.10042500  1
  H  H4  1  0.22639900  0.46598400  0.38413400  1
  H  H5  1  0.72639900  0.53401600  0.11586600  1
  H  H6  1  0.77360100  0.53401600  0.61586600  1
  H  H7  1  0.27360100  0.46598400  0.88413400  1
  H  H8  1  0.61642500  0.28268700  0.48440600  1
  H  H9  1  0.11642500  0.71731300  0.01559400  1
  H  H10  1  0.38357500  0.71731300  0.51559400  1
  H  H11  1  0.88357500  0.28268700  0.98440600  1
  H  H12  1  0.31006400  0.47717000  0.37964600  1
  H  H13  1  0.81006400  0.52283000  0.12035400  1
  H  H14  1  0.68993600  0.52283000  0.62035400  1
  H  H15  1  0.18993600  0.47717000  0.87964600  1
  H  H16  1  0.79881200  0.30109800  0.32356500  1
  H  H17  1  0.29881200  0.69890200  0.17643500  1
  H  H18  1  0.20118800  0.69890200  0.67643500  1
  H  H19  1  0.70118800  0.30109800  0.82356500  1
  H  H20  1  0.44175600  0.56055500  0.27822100  1
  H  H21  1  0.94175600  0.43944500  0.22177900  1
  H  H22  1  0.55824400  0.43944500  0.72177900  1
  H  H23  1  0.05824400  0.56055500  0.77822100  1
  H  H24  1  0.77056000  0.58808500  0.37036900  1
  H  H25  1  0.27056000  0.41191500  0.12963100  1
  H  H26  1  0.22944000  0.41191500  0.62963100  1
  H  H27  1  0.72944000  0.58808500  0.87036900  1
  H  H28  1  0.32324900  0.12652700  0.52667700  1
  H  H29  1  0.82324900  0.87347300  0.97332300  1
  H  H30  1  0.67675100  0.87347300  0.47332300  1
  H  H31  1  0.17675100  0.12652700  0.02667700  1
  H  H32  1  0.69123200  0.98658400  0.64876800  1
  H  H33  1  0.19123200  0.01341600  0.85123200  1
  H  H34  1  0.30876800  0.01341600  0.35123200  1
  H  H35  1  0.80876800  0.98658400  0.14876800  1
  H  H36  1  0.63481500  0.94713200  0.39697200  1
  H  H37  1  0.13481500  0.05286800  0.10302800  1
  H  H38  1  0.36518500  0.05286800  0.60302800  1
  H  H39  1  0.86518500  0.94713200  0.89697200  1
  O  O0  1  0.30994900  0.97323600  0.29974500  1
  O  O1  1  0.80994900  0.02676400  0.20025500  1
  O  O2  1  0.69005100  0.02676400  0.70025500  1
  O  O3  1  0.19005100  0.97323600  0.79974500  1
  O  O4  1  0.64369400  0.77650200  0.23220400  1
  O  O5  1  0.14369400  0.22349800  0.26779600  1
  O  O6  1  0.35630600  0.22349800  0.76779600  1
  O  O7  1  0.85630600  0.77650200  0.73220400  1
  O  O8  1  0.64428200  0.82802700  0.42560500  1
  O  O9  1  0.14428200  0.17197300  0.07439500  1
  O  O10  1  0.35571800  0.17197300  0.57439500  1
  O  O11  1  0.85571800  0.82802700  0.92560500  1
  O  O12  1  0.53648800  0.50906500  0.29672600  1
  O  O13  1  0.03648800  0.49093500  0.20327400  1
  O  O14  1  0.46351200  0.49093500  0.70327400  1
  O  O15  1  0.96351200  0.50906500  0.79672600  1
  O  O16  1  0.70400000  0.17577100  0.84913000  1
  O  O17  1  0.20400000  0.82422900  0.65087000  1
  O  O18  1  0.29600000  0.82422900  0.15087000  1
  O  O19  1  0.79600000  0.17577100  0.34913000  1
  O  O20  1  0.71866200  0.99695000  0.55746500  1
  O  O21  1  0.21866200  0.00305000  0.94253500  1
  O  O22  1  0.28133800  0.00305000  0.44253500  1
  O  O23  1  0.78133800  0.99695000  0.05746500  1
  O  O24  1  0.77356100  0.29174300  0.98375500  1
  O  O25  1  0.27356100  0.70825700  0.51624500  1
  O  O26  1  0.22643900  0.70825700  0.01624500  1
  O  O27  1  0.72643900  0.29174300  0.48375500  1
  O  O28  1  0.79216400  0.59191100  0.31870000  1
  O  O29  1  0.29216400  0.40808900  0.18130000  1
  O  O30  1  0.20783600  0.40808900  0.68130000  1
  O  O31  1  0.70783600  0.59191100  0.81870000  1
  O  O32  1  0.42911900  0.81741200  0.93794500  1
  O  O33  1  0.92911900  0.18258800  0.56205500  1
  O  O34  1  0.57088100  0.18258800  0.06205500  1
  O  O35  1  0.07088100  0.81741200  0.43794500  1
loop_
_geom_bond_atom_site_label_1
_geom_bond_atom_site_label_2
_geom_bond_distance
_geom_bond_site_symmetry_2
Ba0 O6 2.617438 1_565
Ba0 O32 2.681791 1_555
Ba0 O2 2.693577 1_565
Ba0 O3 2.766051 1_555
Ba0 O16 2.787975 1_565
Ba0 O31 2.840872 1_555
Ba1 O7 2.617438 1_545
Ba1 O33 2.681791 1_555
Ba1 O3 2.693577 1_645
Ba1 O2 2.766051 1_555
Ba1 O17 2.787975 1_645
Ba1 O30 2.840872 1_655
Ba2 O4 2.617438 1_545
Ba2 O34 2.681791 1_555
Ba2 O0 2.693577 1_545
Ba2 O1 2.766051 1_555
Ba2 O18 2.787975 1_545
Ba2 O29 2.840872 1_555
Ba3 O5 2.617438 1_565
Ba3 O35 2.681791 1_555
Ba3 O1 2.693577 1_465
Ba3 O0 2.766051 1_555
Ba3 O19 2.787975 1_465
Ba3 O28 2.840872 1_455
B0 O34 1.347237 1_555
B0 O23 1.361913 1_545
B0 O24 1.413932 1_554
B1 O35 1.347237 1_555
B1 O22 1.361913 1_565
B1 O25 1.413932 1_555
B2 O32 1.347237 1_555
B2 O21 1.361913 1_565
B2 O26 1.413932 1_556
B3 O33 1.347237 1_555
B3 O20 1.361913 1_545
B3 O27 1.413932 1_555
B4 O4 1.331282 1_555
B4 O12 1.403000 1_555
B4 O28 1.424922 1_555
B5 O5 1.331282 1_555
B5 O13 1.403000 1_555
B5 O29 1.424922 1_555
B6 O6 1.331282 1_555
B6 O14 1.403000 1_555
B6 O30 1.424922 1_555
B7 O7 1.331282 1_555
B7 O15 1.403000 1_555
B7 O31 1.424922 1_555
H0 O17 0.996303 1_555
H1 O16 0.996303 1_555
H2 O19 0.996303 1_555
H3 O18 0.996303 1_555
H8 O27 0.977439 1_555
H9 O26 0.977439 1_555
H10 O25 0.977439 1_555
H11 O24 0.977439 1_555
H12 H4 0.750394 1_555
H13 H5 0.750394 1_555
H14 H6 0.750394 1_555
H15 H7 0.750394 1_555
H16 O19 0.981409 1_555
H17 O18 0.981409 1_555
H18 O17 0.981409 1_555
H19 O16 0.981409 1_555
H20 O12 0.973889 1_555
H21 O13 0.973889 1_655
H22 O14 0.973889 1_555
H23 O15 0.973889 1_455
H24 O28 0.986561 1_555
H25 O29 0.986561 1_555
H26 O30 0.986561 1_555
H27 O31 0.986561 1_555
H28 O10 0.991595 1_555
H29 O11 0.991595 1_555
H30 O8 0.991595 1_555
H31 O9 0.991595 1_555
H32 O2 1.005082 1_565
H33 O3 1.005082 1_545
H34 O0 1.005082 1_545
H35 O1 1.005082 1_565
H36 O8 0.977667 1_555
H37 O9 0.977667 1_555
H38 O10 0.977667 1_555
H39 O11 0.977667 1_555
