# generated using pymatgen
data_Nb5Pt3O
_symmetry_space_group_name_H-M   'P 1'
_cell_length_a   8.06049214
_cell_length_b   8.06049214
_cell_length_c   5.07838200
_cell_angle_alpha   90.00000000
_cell_angle_beta   90.00000000
_cell_angle_gamma   120.00000114
_symmetry_Int_Tables_number   1
_chemical_formula_structural   Nb5Pt3O
_chemical_formula_sum   'Nb10 Pt6 O2'
_cell_volume   285.74530938
_cell_formula_units_Z   2
loop_
 _symmetry_equiv_pos_site_id
 _symmetry_equiv_pos_as_xyz
  1  'x, y, z'
loop_
 _atom_site_type_symbol
 _atom_site_label
 _atom_site_symmetry_multiplicity
 _atom_site_fract_x
 _atom_site_fract_y
 _atom_site_fract_z
 _atom_site_occupancy
  Nb  Nb0  1  0.23754100  0.23754100  0.75000000  1
  Nb  Nb1  1  0.33333300  0.66666700  0.50000000  1
  Nb  Nb2  1  0.23754100  0.00000000  0.25000000  1
  Nb  Nb3  1  0.76245900  0.00000000  0.75000000  1
  Nb  Nb4  1  0.00000000  0.76245900  0.75000000  1
  Nb  Nb5  1  0.00000000  0.23754100  0.25000000  1
  Nb  Nb6  1  0.76245900  0.76245900  0.25000000  1
  Nb  Nb7  1  0.33333300  0.66666700  0.00000000  1
  Nb  Nb8  1  0.66666700  0.33333300  0.50000000  1
  Nb  Nb9  1  0.66666700  0.33333300  0.00000000  1
  Pt  Pt0  1  0.00000000  0.40422400  0.75000000  1
  Pt  Pt1  1  0.00000000  0.59577600  0.25000000  1
  Pt  Pt2  1  0.40422400  0.40422400  0.25000000  1
  Pt  Pt3  1  0.40422400  0.00000000  0.75000000  1
  Pt  Pt4  1  0.59577600  0.59577600  0.75000000  1
  Pt  Pt5  1  0.59577600  0.00000000  0.25000000  1
  O  O0  1  0.00000000  0.00000000  0.50000000  1
  O  O1  1  0.00000000  0.00000000  0.00000000  1
loop_
_geom_bond_atom_site_label_1
_geom_bond_atom_site_label_2
_geom_bond_distance
_geom_bond_site_symmetry_2
Nb0 O0 2.297376 1_555
Nb0 O1 2.297376 1_556
Nb0 Pt3 2.836137 1_555
Nb0 Pt0 2.836137 1_555
Nb0 Pt2 2.872736 1_556
Nb0 Pt2 2.872736 1_555
Nb0 Pt4 2.887550 1_555
Nb1 Nb7 2.539191 1_555
Nb1 Nb7 2.539191 1_556
Nb1 Pt1 2.760822 1_555
Nb1 Pt3 2.760822 1_565
Nb1 Pt5 2.760824 1_565
Nb1 Pt0 2.760824 1_555
Nb1 Pt4 2.760829 1_555
Nb1 Pt2 2.760829 1_555
Nb2 O1 2.297376 1_555
Nb2 O0 2.297376 1_555
Nb2 Pt1 2.836137 1_545
Nb2 Pt2 2.836137 1_555
Nb2 Pt3 2.872736 1_555
Nb2 Pt3 2.872736 1_554
Nb2 Pt5 2.887550 1_555
Nb3 O1 2.297376 1_656
Nb3 O0 2.297376 1_655
Nb3 Pt0 2.836137 1_655
Nb3 Pt4 2.836137 1_545
Nb3 Pt5 2.872736 1_555
Nb3 Pt5 2.872736 1_556
Nb3 Pt3 2.887550 1_555
Nb4 O0 2.297376 1_565
Nb4 O1 2.297376 1_566
Nb4 Pt3 2.836137 1_565
Nb4 Pt4 2.836137 1_455
Nb4 Pt1 2.872736 1_555
Nb4 Pt1 2.872736 1_556
Nb4 Pt0 2.887550 1_555
Nb5 O1 2.297376 1_555
Nb5 O0 2.297376 1_555
Nb5 Pt5 2.836137 1_455
Nb5 Pt2 2.836137 1_555
Nb5 Pt0 2.872736 1_555
Nb5 Pt0 2.872736 1_554
Nb5 Pt1 2.887550 1_555
Nb6 O0 2.297376 1_665
Nb6 O1 2.297376 1_665
Nb6 Pt1 2.836137 1_655
Nb6 Pt5 2.836137 1_565
Nb6 Pt4 2.872736 1_555
Nb6 Pt4 2.872736 1_554
Nb6 Pt2 2.887550 1_555
Nb7 Pt1 2.760822 1_555
Nb7 Pt3 2.760822 1_564
Nb7 Pt5 2.760824 1_565
Nb7 Pt0 2.760824 1_554
Nb7 Pt4 2.760829 1_554
Nb7 Pt2 2.760829 1_555
Nb8 Nb9 2.539191 1_555
Nb8 Nb9 2.539191 1_556
Nb8 Pt5 2.760822 1_555
Nb8 Pt0 2.760822 1_655
Nb8 Pt1 2.760824 1_655
Nb8 Pt3 2.760824 1_555
Nb8 Pt4 2.760829 1_555
Nb8 Pt2 2.760829 1_555
Nb9 Pt5 2.760822 1_555
Nb9 Pt0 2.760822 1_654
Nb9 Pt1 2.760824 1_655
Nb9 Pt3 2.760824 1_554
Nb9 Pt4 2.760829 1_554
Nb9 Pt2 2.760829 1_555
