# generated using pymatgen
data_BaYb2Si3O10
_symmetry_space_group_name_H-M   'P 1'
_cell_length_a   12.21456000
_cell_length_b   5.55063300
_cell_length_c   7.02073854
_cell_angle_alpha   73.99245077
_cell_angle_beta   90.00000000
_cell_angle_gamma   90.00000000
_symmetry_Int_Tables_number   1
_chemical_formula_structural   BaYb2Si3O10
_chemical_formula_sum   'Ba2 Yb4 Si6 O20'
_cell_volume   457.53925953
_cell_formula_units_Z   2
loop_
 _symmetry_equiv_pos_site_id
 _symmetry_equiv_pos_as_xyz
  1  'x, y, z'
loop_
 _atom_site_type_symbol
 _atom_site_label
 _atom_site_symmetry_multiplicity
 _atom_site_fract_x
 _atom_site_fract_y
 _atom_site_fract_z
 _atom_site_occupancy
  Ba  Ba0  1  0.25000000  0.25093600  0.99833500  1
  Ba  Ba1  1  0.75000000  0.74906400  0.00166500  1
  Yb  Yb0  1  0.10350300  0.85406500  0.67371900  1
  Yb  Yb1  1  0.60350300  0.14593500  0.32628100  1
  Yb  Yb2  1  0.89649700  0.14593500  0.32628100  1
  Yb  Yb3  1  0.39649700  0.85406500  0.67371900  1
  Si  Si0  1  0.25000000  0.41422000  0.48874700  1
  Si  Si1  1  0.75000000  0.58578000  0.51125300  1
  Si  Si2  1  0.06471500  0.69304200  0.21758200  1
  Si  Si3  1  0.56471500  0.30695800  0.78241800  1
  Si  Si4  1  0.93528500  0.30695800  0.78241800  1
  Si  Si5  1  0.43528500  0.69304200  0.21758200  1
  O  O0  1  0.25000000  0.61685300  0.61667300  1
  O  O1  1  0.75000000  0.38314700  0.38332700  1
  O  O2  1  0.25000000  0.13017200  0.63324600  1
  O  O3  1  0.75000000  0.86982800  0.36675400  1
  O  O4  1  0.14291500  0.44959500  0.33656500  1
  O  O5  1  0.64291500  0.55040500  0.66343500  1
  O  O6  1  0.85708500  0.55040500  0.66343500  1
  O  O7  1  0.35708500  0.44959500  0.33656500  1
  O  O8  1  0.94625600  0.57420100  0.18062700  1
  O  O9  1  0.44625600  0.42579900  0.81937300  1
  O  O10  1  0.05374400  0.42579900  0.81937300  1
  O  O11  1  0.55374400  0.57420100  0.18062700  1
  O  O12  1  0.12373400  0.82245500  0.00612200  1
  O  O13  1  0.62373400  0.17754500  0.99387800  1
  O  O14  1  0.87626600  0.17754500  0.99387800  1
  O  O15  1  0.37626600  0.82245500  0.00612200  1
  O  O16  1  0.04936000  0.88583000  0.35161800  1
  O  O17  1  0.54936000  0.11417000  0.64838200  1
  O  O18  1  0.95064000  0.11417000  0.64838200  1
  O  O19  1  0.45064000  0.88583000  0.35161800  1
loop_
_geom_bond_atom_site_label_1
_geom_bond_atom_site_label_2
_geom_bond_distance
_geom_bond_site_symmetry_2
Ba0 O9 2.755831 1_555
Ba0 O10 2.755831 1_555
Ba0 O12 2.822485 1_546
Ba0 O15 2.822485 1_546
Ba0 O2 2.822570 1_555
Ba0 O0 2.881601 1_555
Ba0 O7 3.163820 1_556
Ba0 O4 3.163820 1_556
Ba1 O11 2.755831 1_555
Ba1 O8 2.755831 1_555
Ba1 O14 2.822485 1_564
Ba1 O13 2.822485 1_564
Ba1 O3 2.822570 1_555
Ba1 O1 2.881601 1_555
Ba1 O6 3.163820 1_554
Ba1 O5 3.163820 1_554
O0 Si0 1.621366 1_555
O0 Yb0 2.320953 1_555
O0 Yb3 2.320953 1_555
O1 Si1 1.621366 1_555
O1 Yb2 2.320953 1_555
O1 Yb1 2.320953 1_555
O2 Si0 1.622602 1_555
O2 Yb3 2.321910 1_545
O2 Yb0 2.321910 1_545
O3 Si1 1.622602 1_555
O3 Yb2 2.321910 1_565
O3 Yb1 2.321910 1_565
O4 Si0 1.665907 1_555
O4 Si2 1.677374 1_555
O5 Si1 1.665907 1_555
O5 Si3 1.677374 1_555
O6 Si1 1.665907 1_555
O6 Si4 1.677374 1_555
O7 Si0 1.665907 1_555
O7 Si5 1.677374 1_555
O8 Si2 1.640252 1_655
O8 Yb2 2.392749 1_555
O9 Si3 1.640252 1_555
O9 Yb3 2.392749 1_555
O10 Si4 1.640252 1_455
O10 Yb0 2.392749 1_555
O11 Si5 1.640252 1_555
O11 Yb1 2.392749 1_555
O12 Si2 1.628362 1_555
O12 Yb0 2.304830 1_554
O13 Si3 1.628362 1_555
O13 Yb1 2.304830 1_556
O14 Si4 1.628362 1_555
O14 Yb2 2.304830 1_556
O15 Si5 1.628362 1_555
O15 Yb3 2.304830 1_554
O16 Si2 1.619014 1_555
O16 Yb0 2.315689 1_555
O16 Yb2 2.336808 1_465
O17 Si3 1.619014 1_555
O17 Yb1 2.315689 1_555
O17 Yb3 2.336808 1_545
O18 Si4 1.619014 1_555
O18 Yb2 2.315689 1_555
O18 Yb0 2.336808 1_645
O19 Si5 1.619014 1_555
O19 Yb3 2.315689 1_555
O19 Yb1 2.336808 1_565
