# generated using pymatgen
data_LaZnPd
_symmetry_space_group_name_H-M   'P 1'
_cell_length_a   7.27158800
_cell_length_b   4.44243400
_cell_length_c   8.21231700
_cell_angle_alpha   90.00000000
_cell_angle_beta   90.00000000
_cell_angle_gamma   90.00000000
_symmetry_Int_Tables_number   1
_chemical_formula_structural   LaZnPd
_chemical_formula_sum   'La4 Zn4 Pd4'
_cell_volume   265.28699090
_cell_formula_units_Z   4
loop_
 _symmetry_equiv_pos_site_id
 _symmetry_equiv_pos_as_xyz
  1  'x, y, z'
loop_
 _atom_site_type_symbol
 _atom_site_label
 _atom_site_symmetry_multiplicity
 _atom_site_fract_x
 _atom_site_fract_y
 _atom_site_fract_z
 _atom_site_occupancy
  La  La0  1  0.03229500  0.25000000  0.30439800  1
  La  La1  1  0.53229500  0.25000000  0.19560200  1
  La  La2  1  0.96770500  0.75000000  0.69560200  1
  La  La3  1  0.46770500  0.75000000  0.80439800  1
  Zn  Zn0  1  0.65383200  0.25000000  0.57056500  1
  Zn  Zn1  1  0.15383200  0.25000000  0.92943500  1
  Zn  Zn2  1  0.34616800  0.75000000  0.42943500  1
  Zn  Zn3  1  0.84616800  0.75000000  0.07056500  1
  Pd  Pd0  1  0.27140100  0.25000000  0.60675800  1
  Pd  Pd1  1  0.77140100  0.25000000  0.89324200  1
  Pd  Pd2  1  0.72859900  0.75000000  0.39324200  1
  Pd  Pd3  1  0.22859900  0.75000000  0.10675800  1
loop_
_geom_bond_atom_site_label_1
_geom_bond_atom_site_label_2
_geom_bond_distance
_geom_bond_site_symmetry_2
La0 Pd0 3.031283 1_555
La0 Pd3 3.099321 1_545
La0 Pd3 3.099321 1_555
La0 Zn1 3.203627 1_554
La0 Pd2 3.216048 1_445
La0 Pd2 3.216048 1_455
La0 Zn3 3.233140 1_445
La0 Zn3 3.233140 1_455
La0 Zn2 3.346245 1_545
La0 Zn2 3.346245 1_555
La0 Zn0 3.514482 1_455
La1 Pd1 3.031283 1_554
La1 Pd2 3.099321 1_555
La1 Pd2 3.099321 1_545
La1 Zn0 3.203627 1_555
La1 Pd3 3.216048 1_545
La1 Pd3 3.216048 1_555
La1 Zn2 3.233140 1_555
La1 Zn2 3.233140 1_545
La1 Zn3 3.346245 1_545
La1 Zn3 3.346245 1_555
La1 Zn1 3.514482 1_554
La2 Pd2 3.031283 1_555
La2 Pd1 3.099321 1_565
La2 Pd1 3.099321 1_555
La2 Zn3 3.203627 1_556
La2 Pd0 3.216048 1_655
La2 Pd0 3.216048 1_665
La2 Zn1 3.233140 1_655
La2 Zn1 3.233140 1_665
La2 Zn0 3.346245 1_565
La2 Zn0 3.346245 1_555
La2 Zn2 3.514482 1_655
La3 Pd3 3.031283 1_556
La3 Pd0 3.099321 1_555
La3 Pd0 3.099321 1_565
La3 Zn2 3.203627 1_555
La3 Pd1 3.216048 1_555
La3 Pd1 3.216048 1_565
La3 Zn0 3.233140 1_565
La3 Zn0 3.233140 1_555
La3 Zn1 3.346245 1_555
La3 Zn1 3.346245 1_565
La3 Zn3 3.514482 1_556
Pd0 Zn2 2.711089 1_545
Pd0 Zn2 2.711089 1_555
Pd0 Zn1 2.784418 1_555
Pd0 Zn0 2.796720 1_555
Pd1 Zn3 2.711089 1_546
Pd1 Zn3 2.711089 1_556
Pd1 Zn0 2.784418 1_555
Pd1 Zn1 2.796720 1_655
Pd2 Zn0 2.711089 1_555
Pd2 Zn0 2.711089 1_565
Pd2 Zn3 2.784418 1_555
Pd2 Zn2 2.796720 1_555
Pd3 Zn1 2.711089 1_564
Pd3 Zn1 2.711089 1_554
Pd3 Zn2 2.784418 1_555
Pd3 Zn3 2.796720 1_455
