# generated using pymatgen
data_La2EuO4
_symmetry_space_group_name_H-M   'P 1'
_cell_length_a   7.28787665
_cell_length_b   7.28787665
_cell_length_c   7.28787665
_cell_angle_alpha   60.00000000
_cell_angle_beta   60.00000000
_cell_angle_gamma   60.00000000
_symmetry_Int_Tables_number   1
_chemical_formula_structural   La2EuO4
_chemical_formula_sum   'La4 Eu2 O8'
_cell_volume   273.70834745
_cell_formula_units_Z   2
loop_
 _symmetry_equiv_pos_site_id
 _symmetry_equiv_pos_as_xyz
  1  'x, y, z'
loop_
 _atom_site_type_symbol
 _atom_site_label
 _atom_site_symmetry_multiplicity
 _atom_site_fract_x
 _atom_site_fract_y
 _atom_site_fract_z
 _atom_site_occupancy
  La  La0  1  0.12500000  0.12500000  0.12500000  1
  La  La1  1  0.12500000  0.12500000  0.62500000  1
  La  La2  1  0.12500000  0.62500000  0.12500000  1
  La  La3  1  0.62500000  0.12500000  0.12500000  1
  Eu  Eu0  1  0.75000000  0.75000000  0.75000000  1
  Eu  Eu1  1  0.50000000  0.50000000  0.50000000  1
  O  O0  1  0.91342700  0.36219100  0.36219100  1
  O  O1  1  0.36219100  0.91342700  0.36219100  1
  O  O2  1  0.88780900  0.88780900  0.88780900  1
  O  O3  1  0.36219100  0.36219100  0.91342700  1
  O  O4  1  0.33657300  0.88780900  0.88780900  1
  O  O5  1  0.88780900  0.33657300  0.88780900  1
  O  O6  1  0.36219100  0.36219100  0.36219100  1
  O  O7  1  0.88780900  0.88780900  0.33657300  1
loop_
_geom_bond_atom_site_label_1
_geom_bond_atom_site_label_2
_geom_bond_distance
_geom_bond_site_symmetry_2
La0 O3 2.451755 1_554
La0 O1 2.451755 1_545
La0 O0 2.451755 1_455
La0 O4 2.451755 1_544
La0 O7 2.451755 1_445
La0 O5 2.451755 1_454
La1 O6 2.451755 1_555
La1 O5 2.451755 1_455
La1 O4 2.451755 1_545
La1 O1 2.451755 1_545
La1 O0 2.451755 1_455
La1 O2 2.451755 1_445
La2 O6 2.451755 1_555
La2 O3 2.451755 1_554
La2 O7 2.451755 1_455
La2 O0 2.451755 1_455
La2 O4 2.451755 1_554
La2 O2 2.451755 1_454
La3 O6 2.451755 1_555
La3 O3 2.451755 1_554
La3 O5 2.451755 1_554
La3 O7 2.451755 1_545
La3 O1 2.451755 1_545
La3 O2 2.451755 1_544
Eu0 O2 2.460108 1_555
Eu0 O7 2.460108 1_555
Eu0 O4 2.460108 1_555
Eu0 O5 2.460108 1_555
Eu1 O0 2.460108 1_555
Eu1 O1 2.460108 1_555
Eu1 O3 2.460108 1_555
Eu1 O6 2.460108 1_555
