# generated using pymatgen
data_Na7Sr6Nd7Ti20O60
_symmetry_space_group_name_H-M   'P 1'
_cell_length_a   5.55122939
_cell_length_b   5.55122938
_cell_length_c   55.79316891
_cell_angle_alpha   89.86946228
_cell_angle_beta   119.82814963
_cell_angle_gamma   120.15712714
_symmetry_Int_Tables_number   1
_chemical_formula_structural   Na7Sr6Nd7Ti20O60
_chemical_formula_sum   'Na7 Sr6 Nd7 Ti20 O60'
_cell_volume   1217.38764399
_cell_formula_units_Z   1
loop_
 _symmetry_equiv_pos_site_id
 _symmetry_equiv_pos_as_xyz
  1  'x, y, z'
loop_
 _atom_site_type_symbol
 _atom_site_label
 _atom_site_symmetry_multiplicity
 _atom_site_fract_x
 _atom_site_fract_y
 _atom_site_fract_z
 _atom_site_occupancy
  Na  Na0  1  0.46030074  0.23324996  0.96935507  1
  Na  Na1  1  0.45735652  0.22885618  0.86862127  1
  Na  Na2  1  0.48246458  0.23946913  0.77219337  1
  Na  Na3  1  0.49940864  0.24919092  0.67485996  1
  Na  Na4  1  0.51426089  0.25905837  0.57733193  1
  Na  Na5  1  0.53330069  0.27788400  0.48111847  1
  Na  Na6  1  0.52510838  0.28133614  0.38064445  1
  Sr  Sr0  1  0.47579662  0.73347438  0.82092710  1
  Sr  Sr1  1  0.49488959  0.74700200  0.72418916  1
  Sr  Sr2  1  0.50580537  0.75410974  0.62599151  1
  Sr  Sr3  1  0.52525620  0.76457005  0.52898262  1
  Sr  Sr4  1  0.50135074  0.75184995  0.22532007  1
  Sr  Sr5  1  0.50430600  0.74949884  0.12538048  1
  Nd  Nd0  1  0.46512943  0.70175233  0.91668818  1
  Nd  Nd1  1  0.55754230  0.76441117  0.43219535  1
  Nd  Nd2  1  0.53485868  0.75804270  0.32929014  1
  Nd  Nd3  1  0.49799125  0.26586609  0.27638573  1
  Nd  Nd4  1  0.48571423  0.25026375  0.17359780  1
  Nd  Nd5  1  0.47941927  0.71181975  0.01912390  1
  Nd  Nd6  1  0.48124330  0.24816372  0.07294070  1
  Ti  Ti0  1  0.97053905  0.48954825  0.94600873  1
  Ti  Ti1  1  0.96101896  0.48481602  0.84458350  1
  Ti  Ti2  1  0.98351544  0.98459298  0.89681084  1
  Ti  Ti3  1  0.98461346  0.49105089  0.74756643  1
  Ti  Ti4  1  0.97864582  0.98562007  0.79642659  1
  Ti  Ti5  1  0.00415915  0.50196533  0.65061245  1
  Ti  Ti6  1  0.99699800  0.99693735  0.69939354  1
  Ti  Ti7  1  0.02373519  0.51190363  0.55356388  1
  Ti  Ti8  1  0.01344082  0.00934095  0.60227818  1
  Ti  Ti9  1  0.02364636  0.51075972  0.45344061  1
  Ti  Ti10  1  0.03056743  0.02117683  0.50517443  1
  Ti  Ti11  1  0.02961197  0.51123573  0.35408477  1
  Ti  Ti12  1  0.01930151  0.01879430  0.40380958  1
  Ti  Ti13  1  0.00507110  0.50321087  0.25082820  1
  Ti  Ti14  1  0.01269917  0.00736068  0.30200598  1
  Ti  Ti15  1  0.99953009  0.49940488  0.14989350  1
  Ti  Ti16  1  0.00396270  0.00219233  0.20061550  1
  Ti  Ti17  1  0.98946650  0.48916226  0.04786288  1
  Ti  Ti18  1  0.99752393  0.99352600  0.09910499  1
  Ti  Ti19  1  0.97943373  0.98343210  0.99628658  1
  O  O0  1  0.08073853  0.76267131  0.98434098  1
  O  O1  1  0.01117150  0.79320782  0.93102370  1
  O  O2  1  0.04005807  0.24794028  0.97678490  1
  O  O3  1  0.06347290  0.75934677  0.88228197  1
  O  O4  1  0.51990876  0.72779098  0.97678490  1
  O  O5  1  0.01175822  0.78110654  0.82875545  1
  O  O6  1  0.03496052  0.24896954  0.87674413  1
  O  O7  1  0.51702916  0.29906549  0.93102370  1
  O  O8  1  0.03346161  0.75264935  0.77861110  1
  O  O9  1  0.51847176  0.73248078  0.87674413  1
  O  O10  1  0.00458257  0.77039615  0.72710659  1
  O  O11  1  0.00740343  0.23627202  0.77386859  1
  O  O12  1  0.50644797  0.27579629  0.82875545  1
  O  O13  1  0.95617539  0.26208574  0.92182611  1
  O  O14  1  0.02941190  0.75055432  0.67799662  1
  O  O15  1  0.50241385  0.73128244  0.77386859  1
  O  O16  1  0.00223144  0.76794666  0.62678545  1
  O  O17  1  0.00352169  0.23563810  0.67357545  1
  O  O18  1  0.50066979  0.26648337  0.72710659  1
  O  O19  1  0.96067375  0.25540187  0.82160756  1
  O  O20  1  0.03233363  0.74832973  0.57806634  1
  O  O21  1  0.50011639  0.73223280  0.67357545  1
  O  O22  1  0.99108743  0.76583597  0.52590568  1
  O  O23  1  0.00141347  0.23235931  0.57303921  1
  O  O24  1  0.49990787  0.26562309  0.62678545  1
  O  O25  1  0.96252706  0.25109337  0.72136204  1
  O  O26  1  0.01993018  0.74056427  0.47604945  1
  O  O27  1  0.49803274  0.72897858  0.57303921  1
  O  O28  1  0.96696072  0.76574553  0.42466086  1
  O  O29  1  0.97827475  0.21017789  0.46932253  1
  O  O30  1  0.49322080  0.26796934  0.52590568  1
  O  O31  1  0.96319093  0.24947304  0.62126640  1
  O  O32  1  0.05361676  0.73670858  0.37903253  1
  O  O33  1  0.48304746  0.71495060  0.46932253  1
  O  O34  1  0.96067023  0.75579647  0.32406027  1
  O  O35  1  0.97191363  0.19355702  0.36737695  1
  O  O36  1  0.48086310  0.27964790  0.42466086  1
  O  O37  1  0.94902745  0.24609241  0.51951199  1
  O  O38  1  0.08118651  0.74063922  0.28218257  1
  O  O39  1  0.48021250  0.70185589  0.36737695  1
  O  O40  1  0.01149517  0.79424855  0.22952767  1
  O  O41  1  0.00222462  0.20540574  0.26978568  1
  O  O42  1  0.48480619  0.27993243  0.32406027  1
  O  O43  1  0.92643140  0.24016927  0.41666007  1
  O  O44  1  0.05727717  0.75121183  0.18084890  1
  O  O45  1  0.49245110  0.69563222  0.26978568  1
  O  O46  1  0.01762598  0.80048593  0.13017629  1
  O  O47  1  0.01460431  0.21955227  0.17199629  1
  O  O48  1  0.50102812  0.28378150  0.22952767  1
  O  O49  1  0.91308527  0.23464610  0.31477314  1
  O  O50  1  0.06859855  0.75807202  0.08266706  1
  O  O51  1  0.50041063  0.70535859  0.17199629  1
  O  O52  1  0.02463554  0.80606541  0.03240036  1
  O  O53  1  0.01460713  0.21834774  0.07254952  1
  O  O54  1  0.50127699  0.28413695  0.13017629  1
  O  O55  1  0.91061879  0.24764009  0.21582589  1
  O  O56  1  0.50714746  0.71088807  0.07254952  1
  O  O57  1  0.51793816  0.29936803  0.03240036  1
  O  O58  1  0.91877061  0.25409319  0.11728638  1
  O  O59  1  0.95388654  0.26034697  0.02142335  1
loop_
_geom_bond_atom_site_label_1
_geom_bond_atom_site_label_2
_geom_bond_distance
_geom_bond_site_symmetry_2
Na0 O1 2.314563 1_545
Na0 O7 2.314564 1_555
Na0 O2 2.602703 1_555
Na0 O4 2.602703 1_555
Na0 O59 2.763875 1_556
Na0 O13 2.820457 1_455
Na0 O0 2.859202 1_655
Na0 O0 2.859202 1_545
Na0 O4 2.990926 1_545
Na0 O2 2.990926 1_655
Na1 O5 2.370319 1_545
Na1 O12 2.370320 1_555
Na1 O9 2.652631 1_555
Na1 O6 2.652631 1_555
Na1 O19 2.777777 1_455
Na1 O13 2.797439 1_555
Na1 O3 2.842148 1_655
Na1 O3 2.842148 1_545
Na1 O6 2.948537 1_655
Na1 O9 2.948537 1_545
Na2 O10 2.568378 1_545
Na2 O18 2.568379 1_555
Na2 O19 2.672143 1_555
Na2 O15 2.676173 1_555
Na2 O11 2.676173 1_555
Na2 O8 2.785614 1_655
Na2 O8 2.785615 1_545
Na2 O11 2.877808 1_655
Na2 O15 2.877808 1_545
Na2 O25 2.901929 1_455
Na3 O25 2.584247 1_555
Na3 O17 2.680352 1_555
Na3 O21 2.680352 1_555
Na3 O16 2.684903 1_545
Na3 O24 2.684904 1_555
Na3 O14 2.774101 1_545
Na3 O14 2.774102 1_655
Na3 O21 2.872835 1_545
Na3 O17 2.872835 1_655
Na3 O10 2.913214 1_655
Na3 O18 2.913214 1_555
Na3 O31 2.991960 1_455
Na4 O31 2.505530 1_555
Na4 O23 2.661252 1_555
Na4 O27 2.661252 1_555
Na4 O20 2.772123 1_655
Na4 O20 2.772123 1_545
Na4 O16 2.800493 1_655
Na4 O24 2.800493 1_555
Na4 O22 2.814314 1_445
Na4 O30 2.814315 1_555
Na4 O27 2.905124 1_545
Na4 O23 2.905124 1_655
Na5 O37 2.331377 1_555
Na5 O22 2.614724 1_555
Na5 O30 2.614724 1_555
Na5 O29 2.624466 1_455
Na5 O33 2.624466 1_555
Na5 O26 2.785645 1_655
Na5 O26 2.785646 1_545
Na6 O43 2.260380 1_555
Na6 O35 2.540207 1_455
Na6 O39 2.540207 1_555
Na6 O28 2.586324 1_555
Na6 O36 2.586325 1_555
Na6 O32 2.795645 1_545
Na6 O32 2.795645 1_655
Nd0 O3 2.283474 1_555
Nd0 O6 2.384842 1_555
Nd0 O9 2.384842 1_555
Nd0 O1 2.475778 1_655
Nd0 O7 2.475778 1_555
Nd0 O13 2.809916 1_455
Nd0 O13 2.809917 1_565
Nd1 O29 2.296251 1_565
Nd1 O33 2.296251 1_555
Nd1 O36 2.505153 1_555
Nd1 O28 2.505153 1_555
Nd1 O26 2.585521 1_655
Nd1 O32 2.821799 1_555
Nd1 O43 2.870738 1_455
Nd1 O43 2.870739 1_565
Nd1 O28 3.094900 1_455
Nd1 O36 3.094900 1_565
Nd2 O35 2.290861 1_565
Nd2 O39 2.290862 1_555
Nd2 O42 2.527551 1_555
Nd2 O34 2.527551 1_555
Nd2 O38 2.536074 1_555
Nd2 O49 2.857432 1_455
Nd2 O49 2.857432 1_565
Nd3 O49 2.327419 1_555
Nd3 O41 2.426253 1_555
Nd3 O45 2.426253 1_555
Nd3 O40 2.624124 1_545
Nd3 O48 2.624124 1_555
Nd3 O34 2.699436 1_555
Nd3 O42 2.699437 1_555
Nd3 O38 2.814456 1_655
Nd3 O38 2.814456 1_545
Nd4 O55 2.370815 1_555
Nd4 O46 2.470169 1_545
Nd4 O54 2.470170 1_555
Nd4 O47 2.489207 1_555
Nd4 O51 2.489207 1_555
Nd5 O0 2.257541 1_554
Nd5 O2 2.479053 1_554
Nd5 O4 2.479054 1_554
Nd5 O52 2.482610 1_655
Nd5 O57 2.482611 1_555
Nd5 O59 2.798785 1_565
Nd5 O59 2.798786 1_455
Nd5 O53 2.907420 1_665
Nd5 O56 2.907420 1_555
Nd6 O52 2.373944 1_545
Nd6 O57 2.373944 1_555
Nd6 O58 2.442083 1_555
Nd6 O56 2.500211 1_555
Nd6 O53 2.500211 1_555
O0 Ti19 1.825190 1_455
O0 Ti0 2.242385 1_455
O1 Ti0 1.841347 1_455
O1 Ti2 2.158497 1_455
O2 Ti19 1.820347 1_445
O2 Ti0 2.178667 1_455
O3 Ti2 1.826957 1_455
O3 Ti1 2.241348 1_455
O4 Ti19 1.820347 1_555
O4 Ti0 2.178666 1_455
O5 Ti1 1.827522 1_455
O5 Ti4 2.108709 1_455
O5 Sr0 2.651437 1_455
O5 Sr0 2.949665 1_555
O6 Ti2 1.838040 1_445
O6 Ti1 2.213326 1_455
O6 Sr0 3.003625 1_445
O7 Ti0 1.841347 1_555
O7 Ti2 2.158496 1_445
O8 Ti4 1.858846 1_455
O8 Ti3 2.081121 1_455
O8 Sr0 2.471678 1_555
O8 Sr1 3.005757 1_455
O9 Ti2 1.838040 1_555
O9 Ti1 2.213325 1_455
O9 Sr0 3.003625 1_555
O10 Ti3 1.914460 1_455
O10 Ti6 1.988365 1_455
O10 Sr1 2.687330 1_455
O10 Sr1 2.871858 1_555
O11 Ti4 1.874646 1_445
O11 Ti3 2.038501 1_455
O11 Sr0 2.702469 1_555
O11 Sr1 2.753084 1_445
O12 Ti1 1.827522 1_555
O12 Ti4 2.108709 1_445
O12 Sr0 2.651437 1_555
O12 Sr0 2.949665 1_545
O13 Ti0 1.794645 1_555
O13 Ti2 2.190729 1_545
O14 Ti6 1.948494 1_455
O14 Ti5 1.964810 1_555
O14 Sr1 2.597213 1_555
O14 Sr2 2.921542 1_455
O15 Ti4 1.874645 1_555
O15 Ti3 2.038500 1_455
O15 Sr0 2.702469 1_555
O15 Sr1 2.753084 1_555
O16 Ti8 1.913555 1_565
O16 Ti5 1.985013 1_555
O16 Sr2 2.695933 1_455
O16 Sr2 2.856811 1_555
O17 Ti5 1.953932 1_555
O17 Ti6 1.956298 1_445
O17 Sr2 2.672471 1_445
O17 Sr1 2.840233 1_555
O18 Ti3 1.914459 1_555
O18 Ti6 1.988365 1_445
O18 Sr1 2.687329 1_555
O18 Sr1 2.871858 1_545
O19 Ti1 1.807677 1_555
O19 Ti4 2.127389 1_545
O19 Sr0 2.775651 1_655
O19 Sr0 2.775651 1_545
O20 Ti7 1.863871 1_555
O20 Ti8 2.058581 1_565
O20 Sr2 2.642582 1_555
O20 Sr3 2.831362 1_455
O21 Ti5 1.953931 1_555
O21 Ti6 1.956297 1_555
O21 Sr2 2.672472 1_555
O21 Sr1 2.840233 1_555
O22 Ti10 1.824188 1_665
O22 Ti7 2.090397 1_655
O22 Sr3 2.672068 1_555
O22 Sr3 2.887387 1_655
O23 Ti7 1.880749 1_555
O23 Ti8 2.040567 1_555
O23 Sr3 2.537960 1_445
O23 Sr2 2.935759 1_555
O24 Ti8 1.913555 1_555
O24 Ti5 1.985012 1_655
O24 Sr2 2.695933 1_555
O24 Sr2 2.856811 1_545
O25 Ti3 1.895624 1_555
O25 Ti6 2.010468 1_545
O25 Sr1 2.775074 1_655
O25 Sr1 2.775074 1_545
O26 Ti9 1.810710 1_555
O26 Ti10 2.212297 1_565
O26 Sr3 2.827285 1_555
O27 Ti7 1.880749 1_555
O27 Ti8 2.040567 1_665
O27 Sr3 2.537961 1_555
O27 Sr2 2.935760 1_555
O28 Ti12 1.824781 1_665
O28 Ti9 2.148362 1_655
O29 Ti9 1.850908 1_655
O29 Ti10 2.214731 1_655
O30 Ti10 1.824187 1_555
O30 Ti7 2.090396 1_655
O30 Sr3 2.672068 1_555
O30 Sr3 2.887387 1_545
O31 Ti8 1.910802 1_655
O31 Ti5 2.004209 1_655
O31 Sr2 2.779473 1_545
O31 Sr2 2.779473 1_655
O32 Ti11 1.782598 1_555
O32 Ti12 2.229561 1_565
O33 Ti9 1.850908 1_555
O33 Ti10 2.214731 1_665
O34 Ti14 1.867657 1_665
O34 Ti11 2.160938 1_655
O35 Ti11 1.850771 1_655
O35 Ti12 2.204023 1_655
O36 Ti12 1.824780 1_555
O36 Ti9 2.148361 1_655
O37 Ti10 1.826550 1_655
O37 Ti7 2.138436 1_655
O37 Sr3 2.805435 1_545
O37 Sr3 2.805435 1_655
O38 Ti13 1.921354 1_555
O38 Ti14 2.133409 1_565
O39 Ti11 1.850771 1_555
O39 Ti12 2.204022 1_665
O40 Ti16 1.977187 1_565
O40 Ti13 1.999841 1_555
O40 Sr4 2.607590 1_455
O40 Sr4 2.963692 1_555
O41 Ti13 1.958164 1_555
O41 Ti14 2.096405 1_555
O41 Sr4 2.521407 1_445
O42 Ti14 1.867656 1_555
O42 Ti11 2.160938 1_655
O43 Ti12 1.816126 1_655
O43 Ti9 2.203764 1_655
O44 Ti16 1.997750 1_565
O44 Ti15 2.012359 1_455
O44 Sr4 2.477872 1_555
O44 Sr5 3.085581 1_455
O45 Ti13 1.958164 1_555
O45 Ti14 2.096404 1_665
O45 Sr4 2.521407 1_555
O46 Ti15 1.986610 1_455
O46 Ti18 2.021211 1_455
O46 Sr5 2.589046 1_455
O46 Sr5 2.989739 1_555
O47 Ti15 1.990081 1_455
O47 Ti16 2.005612 1_555
O47 Sr5 2.621567 1_445
O47 Sr4 2.984052 1_555
O48 Ti16 1.977186 1_555
O48 Ti13 1.999841 1_655
O48 Sr4 2.607590 1_555
O48 Sr4 2.963692 1_545
O49 Ti14 1.871381 1_655
O49 Ti11 2.278727 1_655
O50 Ti18 1.894406 1_455
O50 Ti17 2.167454 1_455
O50 Sr5 2.431608 1_555
O51 Ti15 1.990080 1_455
O51 Ti16 2.005612 1_665
O51 Sr5 2.621568 1_555
O51 Sr4 2.984053 1_555
O52 Ti17 1.921645 1_455
O52 Ti19 2.197378 1_454
O53 Ti18 1.942731 1_445
O53 Ti17 2.046161 1_455
O53 Sr5 2.964304 1_555
O54 Ti15 1.986610 1_555
O54 Ti18 2.021210 1_445
O54 Sr5 2.589046 1_555
O54 Sr5 2.989739 1_545
O55 Ti16 1.999324 1_655
O55 Ti13 2.085206 1_655
O55 Sr4 2.815158 1_655
O55 Sr4 2.815158 1_545
O56 Ti18 1.942730 1_555
O56 Ti17 2.046161 1_455
O56 Sr5 2.964305 1_555
O57 Ti17 1.921644 1_555
O57 Ti19 2.197378 1_444
O58 Ti15 1.987876 1_555
O58 Ti18 2.096572 1_545
O58 Sr5 2.810039 1_545
O58 Sr5 2.810040 1_655
O59 Ti17 1.815244 1_555
O59 Ti19 2.185582 1_544
