# generated using pymatgen
data_SrCa3Hf4O12
_symmetry_space_group_name_H-M   'P 1'
_cell_length_a   8.08516000
_cell_length_b   5.64676900
_cell_length_c   5.79170158
_cell_angle_alpha   89.97439760
_cell_angle_beta   90.00000000
_cell_angle_gamma   90.00000000
_symmetry_Int_Tables_number   1
_chemical_formula_structural   SrCa3Hf4O12
_chemical_formula_sum   'Sr1 Ca3 Hf4 O12'
_cell_volume   264.42028782
_cell_formula_units_Z   1
loop_
 _symmetry_equiv_pos_site_id
 _symmetry_equiv_pos_as_xyz
  1  'x, y, z'
loop_
 _atom_site_type_symbol
 _atom_site_label
 _atom_site_symmetry_multiplicity
 _atom_site_fract_x
 _atom_site_fract_y
 _atom_site_fract_z
 _atom_site_occupancy
  Sr  Sr0  1  0.50000000  0.48865000  0.54133300  1
  Ca  Ca0  1  0.50000000  0.01237700  0.04538300  1
  Ca  Ca1  1  0.00000000  0.51170100  0.45479800  1
  Ca  Ca2  1  0.00000000  0.98952300  0.95632500  1
  Hf  Hf0  1  0.24757800  0.00034400  0.50000200  1
  Hf  Hf1  1  0.75199100  0.49934900  0.00016200  1
  Hf  Hf2  1  0.75242200  0.00034400  0.50000200  1
  Hf  Hf3  1  0.24800900  0.49934900  0.00016200  1
  O  O0  1  0.50000000  0.59929400  0.97939700  1
  O  O1  1  0.50000000  0.92073400  0.46633400  1
  O  O2  1  0.00000000  0.40185300  0.03102100  1
  O  O3  1  0.00000000  0.10131500  0.53404000  1
  O  O4  1  0.30029400  0.20147700  0.79655300  1
  O  O5  1  0.70542600  0.28981300  0.28802700  1
  O  O6  1  0.80390800  0.79355200  0.20684800  1
  O  O7  1  0.19623000  0.70274100  0.70409400  1
  O  O8  1  0.19609200  0.79355200  0.20684800  1
  O  O9  1  0.80377000  0.70274100  0.70409400  1
  O  O10  1  0.69970600  0.20147700  0.79655300  1
  O  O11  1  0.29457400  0.28981300  0.28802700  1
loop_
_geom_bond_atom_site_label_1
_geom_bond_atom_site_label_2
_geom_bond_distance
_geom_bond_site_symmetry_2
Ca0 O0 2.363853 1_544
Ca0 O10 2.413059 1_554
Ca0 O4 2.413059 1_554
Ca0 O1 2.492111 1_545
Ca0 O5 2.681377 1_555
Ca0 O11 2.681377 1_555
Ca0 O6 2.904804 1_545
Ca0 O8 2.904804 1_545
Ca1 O3 2.362163 1_555
Ca1 O7 2.401448 1_555
Ca1 O9 2.401448 1_455
Ca1 O2 2.531827 1_555
Ca1 O6 2.665864 1_455
Ca1 O8 2.665864 1_555
Ca1 O11 2.859422 1_555
Ca1 O5 2.859422 1_455
Ca2 O2 2.368373 1_566
Ca2 O8 2.417025 1_556
Ca2 O6 2.417025 1_456
Ca2 O3 2.525629 1_565
Ca2 O7 2.697362 1_555
Ca2 O9 2.697362 1_455
Ca2 O10 2.860519 1_465
Ca2 O4 2.860519 1_565
Hf0 O11 2.078851 1_555
Hf0 O3 2.090665 1_555
Hf0 O7 2.095677 1_545
Hf0 O1 2.098892 1_545
Hf0 O8 2.102694 1_545
Hf0 O4 2.103155 1_555
Hf1 O5 2.078363 1_555
Hf1 O2 2.087042 1_655
Hf1 O6 2.090655 1_555
Hf1 O10 2.097680 1_554
Hf1 O9 2.105444 1_554
Hf1 O0 2.117513 1_554
Hf2 O5 2.078851 1_555
Hf2 O3 2.090665 1_655
Hf2 O9 2.095677 1_545
Hf2 O1 2.098892 1_545
Hf2 O6 2.102694 1_545
Hf2 O10 2.103155 1_555
Hf3 O11 2.078363 1_555
Hf3 O2 2.087042 1_555
Hf3 O8 2.090655 1_555
Hf3 O4 2.097680 1_554
Hf3 O7 2.105444 1_554
Hf3 O0 2.117513 1_554
O0 Sr0 2.613202 1_555
O1 Sr0 2.478051 1_555
O4 Sr0 2.723877 1_555
O5 Sr0 2.484556 1_555
O7 Sr0 2.895376 1_555
O9 Sr0 2.895376 1_555
O10 Sr0 2.723877 1_555
O11 Sr0 2.484556 1_555
