# generated using pymatgen
data_Ru3C9Se2O9
_symmetry_space_group_name_H-M   'P 1'
_cell_length_a   7.04951100
_cell_length_b   9.80639969
_cell_length_c   13.89004449
_cell_angle_alpha   82.64893986
_cell_angle_beta   85.02839697
_cell_angle_gamma   69.05088034
_symmetry_Int_Tables_number   1
_chemical_formula_structural   Ru3C9Se2O9
_chemical_formula_sum   'Ru6 C18 Se4 O18'
_cell_volume   888.51211494
_cell_formula_units_Z   2
loop_
 _symmetry_equiv_pos_site_id
 _symmetry_equiv_pos_as_xyz
  1  'x, y, z'
loop_
 _atom_site_type_symbol
 _atom_site_label
 _atom_site_symmetry_multiplicity
 _atom_site_fract_x
 _atom_site_fract_y
 _atom_site_fract_z
 _atom_site_occupancy
  Ru  Ru0  1  0.58430200  0.69625300  0.65674800  1
  Ru  Ru1  1  0.41569800  0.30374700  0.34325200  1
  Ru  Ru2  1  0.65934300  0.76723200  0.84261800  1
  Ru  Ru3  1  0.34065700  0.23276800  0.15738200  1
  Ru  Ru4  1  0.71282500  0.39906000  0.75518400  1
  Ru  Ru5  1  0.28717500  0.60094000  0.24481600  1
  C  C0  1  0.69018700  0.59235500  0.54585200  1
  C  C1  1  0.30981300  0.40764500  0.45414800  1
  C  C2  1  0.63448500  0.87377100  0.61486200  1
  C  C3  1  0.36551500  0.12622900  0.38513800  1
  C  C4  1  0.31204100  0.77346300  0.61434400  1
  C  C5  1  0.68795900  0.22653700  0.38565600  1
  C  C6  1  0.83054800  0.88366600  0.81997900  1
  C  C7  1  0.16945200  0.11633400  0.18002100  1
  C  C8  1  0.73980000  0.68879800  0.96994700  1
  C  C9  1  0.26020000  0.31120200  0.03005300  1
  C  C10  1  0.42744500  0.93088300  0.87906800  1
  C  C11  1  0.57255500  0.06911700  0.12093200  1
  C  C12  1  0.51785200  0.31133000  0.73453400  1
  C  C13  1  0.48214800  0.68867000  0.26546600  1
  C  C14  1  0.91912900  0.26993600  0.67505900  1
  C  C15  1  0.08087100  0.73006400  0.32494100  1
  C  C16  1  0.79526800  0.28850900  0.87512900  1
  C  C17  1  0.20473200  0.71149100  0.12487100  1
  Se  Se0  1  0.44423600  0.61742300  0.82113200  1
  Se  Se1  1  0.55576400  0.38257700  0.17886800  1
  Se  Se2  1  0.91150200  0.56998700  0.74866500  1
  Se  Se3  1  0.08849800  0.43001300  0.25133500  1
  O  O0  1  0.75574300  0.53377800  0.47623200  1
  O  O1  1  0.24425700  0.46622200  0.52376800  1
  O  O2  1  0.66389500  0.98137900  0.58546100  1
  O  O3  1  0.33610500  0.01862100  0.41453900  1
  O  O4  1  0.14706200  0.81943900  0.58812200  1
  O  O5  1  0.85293800  0.18056100  0.41187800  1
  O  O6  1  0.93676000  0.95197300  0.80652000  1
  O  O7  1  0.06324000  0.04802700  0.19348000  1
  O  O8  1  0.78761600  0.63640700  0.04797900  1
  O  O9  1  0.21238400  0.36359300  0.95202100  1
  O  O10  1  0.29086400  0.03032900  0.90302100  1
  O  O11  1  0.70913600  0.96967100  0.09697900  1
  O  O12  1  0.40237700  0.25526900  0.72402000  1
  O  O13  1  0.59762300  0.74473100  0.27598000  1
  O  O14  1  0.04449500  0.19240700  0.62741000  1
  O  O15  1  0.95550500  0.80759300  0.37259000  1
  O  O16  1  0.83864000  0.22510900  0.95121800  1
  O  O17  1  0.16136000  0.77489100  0.04878200  1
loop_
_geom_bond_atom_site_label_1
_geom_bond_atom_site_label_2
_geom_bond_distance
_geom_bond_site_symmetry_2
Ru0 Se0 2.547426 1_555
Ru0 Se2 2.558749 1_555
Ru1 Se1 2.547426 1_555
Ru1 Se3 2.558749 1_555
Ru2 Se0 2.516024 1_555
Ru2 Se2 2.527740 1_555
Ru3 Se1 2.516024 1_555
Ru3 Se3 2.527740 1_555
Ru4 Se0 2.512290 1_555
Ru4 Se2 2.529287 1_555
Ru5 Se1 2.512290 1_555
Ru5 Se3 2.529287 1_555
C0 O0 1.163417 1_555
C0 Ru0 1.904318 1_555
C1 O1 1.163417 1_555
C1 Ru1 1.904318 1_555
C2 O2 1.163958 1_555
C2 Ru0 1.907772 1_555
C3 O3 1.163958 1_555
C3 Ru1 1.907772 1_555
C4 O4 1.159738 1_555
C4 Ru0 1.909605 1_555
C5 O5 1.159738 1_555
C5 Ru1 1.909605 1_555
C6 O6 1.160428 1_555
C6 Ru2 1.920150 1_555
C7 O7 1.160428 1_555
C7 Ru3 1.920150 1_555
C8 O8 1.161610 1_556
C8 Ru2 1.885489 1_555
C9 O9 1.161610 1_554
C9 Ru3 1.885489 1_555
C10 O10 1.159673 1_565
C10 Ru2 1.921643 1_555
C11 O11 1.159673 1_545
C11 Ru3 1.921643 1_555
C12 O12 1.160771 1_555
C12 Ru4 1.920573 1_555
C13 O13 1.160771 1_555
C13 Ru5 1.920573 1_555
C14 O14 1.159323 1_655
C14 Ru4 1.928820 1_555
C15 O15 1.159323 1_455
C15 Ru5 1.928820 1_555
C16 O16 1.161443 1_555
C16 Ru4 1.882510 1_555
C17 O17 1.161443 1_555
C17 Ru5 1.882510 1_555
