# generated using pymatgen
data_KLaH2S2O9
_symmetry_space_group_name_H-M   'P 1'
_cell_length_a   7.32855988
_cell_length_b   7.32855988
_cell_length_c   13.33299200
_cell_angle_alpha   90.00000000
_cell_angle_beta   90.00000000
_cell_angle_gamma   119.99999896
_symmetry_Int_Tables_number   1
_chemical_formula_structural   KLaH2S2O9
_chemical_formula_sum   'K3 La3 H6 S6 O27'
_cell_volume   620.14827039
_cell_formula_units_Z   3
loop_
 _symmetry_equiv_pos_site_id
 _symmetry_equiv_pos_as_xyz
  1  'x, y, z'
loop_
 _atom_site_type_symbol
 _atom_site_label
 _atom_site_symmetry_multiplicity
 _atom_site_fract_x
 _atom_site_fract_y
 _atom_site_fract_z
 _atom_site_occupancy
  K  K0  1  0.00000000  0.44794400  0.83333300  1
  K  K1  1  0.55205600  0.55205600  0.50000000  1
  K  K2  1  0.44794400  0.00000000  0.16666700  1
  La  La0  1  0.44098900  0.00000000  0.66666700  1
  La  La1  1  0.00000000  0.44098900  0.33333300  1
  La  La2  1  0.55901100  0.55901100  0.00000000  1
  H  H0  1  0.05970000  0.08380400  0.62208000  1
  H  H1  1  0.91619600  0.97589600  0.28874700  1
  H  H2  1  0.02410400  0.94030000  0.95541400  1
  H  H3  1  0.08380400  0.05970000  0.37792000  1
  H  H4  1  0.97589600  0.91619600  0.71125300  1
  H  H5  1  0.94030000  0.02410400  0.04458600  1
  S  S0  1  0.99498300  0.43819300  0.57355000  1
  S  S1  1  0.56180700  0.55678900  0.24021700  1
  S  S2  1  0.44321100  0.00501700  0.90688400  1
  S  S3  1  0.43819300  0.99498300  0.42645000  1
  S  S4  1  0.55678900  0.56180700  0.75978300  1
  S  S5  1  0.00501700  0.44321100  0.09311600  1
  O  O0  1  0.11865700  0.37041700  0.50912400  1
  O  O1  1  0.62958300  0.74824000  0.17579000  1
  O  O2  1  0.25176000  0.88134300  0.84245700  1
  O  O3  1  0.37041700  0.11865700  0.49087600  1
  O  O4  1  0.74824000  0.62958300  0.82421000  1
  O  O5  1  0.88134300  0.25176000  0.15754300  1
  O  O6  1  0.88591800  0.50791500  0.50087000  1
  O  O7  1  0.49208500  0.37800300  0.16753700  1
  O  O8  1  0.62199700  0.11408200  0.83420400  1
  O  O9  1  0.50791500  0.88591800  0.49913000  1
  O  O10  1  0.37800300  0.49208500  0.83246300  1
  O  O11  1  0.11408200  0.62199700  0.16579600  1
  O  O12  1  0.13382100  0.61257000  0.64149700  1
  O  O13  1  0.38743000  0.52125100  0.30816300  1
  O  O14  1  0.47874900  0.86617900  0.97483000  1
  O  O15  1  0.61257000  0.13382100  0.35850300  1
  O  O16  1  0.52125100  0.38743000  0.69183700  1
  O  O17  1  0.86617900  0.47874900  0.02517000  1
  O  O18  1  0.83992300  0.25700900  0.63503000  1
  O  O19  1  0.74299100  0.58291400  0.30169700  1
  O  O20  1  0.41708600  0.16007700  0.96836300  1
  O  O21  1  0.25700900  0.83992300  0.36497000  1
  O  O22  1  0.58291400  0.74299100  0.69830300  1
  O  O23  1  0.16007700  0.41708600  0.03163700  1
  O  O24  1  0.09474900  0.00000000  0.66666700  1
  O  O25  1  0.00000000  0.09474900  0.33333300  1
  O  O26  1  0.90525100  0.90525100  0.00000000  1
loop_
_geom_bond_atom_site_label_1
_geom_bond_atom_site_label_2
_geom_bond_distance
_geom_bond_site_symmetry_2
K0 O10 2.623499 1_555
K0 O8 2.623499 1_455
K0 O4 2.765313 1_455
K0 O2 2.765313 1_555
K0 O12 2.788592 1_555
K0 O17 2.788604 1_456
K0 O18 2.946739 1_455
K0 O23 2.946751 1_556
K1 O9 2.623499 1_555
K1 O6 2.623499 1_555
K1 O3 2.765313 1_555
K1 O0 2.765313 1_555
K1 O13 2.788604 1_555
K1 O16 2.788604 1_555
K1 O19 2.946739 1_555
K1 O22 2.946739 1_555
K2 O7 2.623499 1_555
K2 O11 2.623499 1_545
K2 O1 2.765313 1_545
K2 O5 2.765313 1_555
K2 O15 2.788592 1_555
K2 O14 2.788604 1_544
K2 O21 2.946739 1_545
K2 O20 2.946751 1_554
La0 O9 2.517805 1_545
La0 O8 2.517805 1_555
La0 O24 2.537441 1_555
La0 O22 2.601226 1_545
La0 O18 2.601228 1_555
La0 O16 2.617281 1_555
La0 O12 2.617281 1_545
La0 O2 2.639476 1_545
La0 O3 2.639488 1_555
La1 O6 2.517805 1_455
La1 O11 2.517805 1_555
La1 O25 2.537441 1_555
La1 O19 2.601226 1_455
La1 O21 2.601228 1_555
La1 O13 2.617281 1_555
La1 O15 2.617281 1_455
La1 O5 2.639476 1_455
La1 O0 2.639488 1_555
La2 O7 2.517805 1_555
La2 O10 2.517805 1_554
La2 O26 2.537441 1_555
La2 O23 2.601228 1_555
La2 O20 2.601228 1_554
La2 O17 2.617281 1_555
La2 O14 2.617281 1_554
La2 O1 2.639476 1_555
La2 O4 2.639476 1_554
H0 O24 0.976898 1_555
H1 O25 0.976890 1_665
H2 O26 0.976890 1_456
H3 O25 0.976898 1_555
H4 O24 0.976890 1_665
H5 O26 0.976890 1_545
O0 S0 1.502078 1_455
O1 S1 1.502091 1_555
O2 S2 1.502090 1_565
O3 S3 1.502078 1_545
O4 S4 1.502091 1_555
O5 S5 1.502090 1_655
O6 S0 1.499131 1_555
O7 S1 1.499126 1_555
O8 S2 1.499127 1_555
O9 S3 1.499131 1_555
O10 S4 1.499126 1_555
O11 S5 1.499127 1_555
O12 S0 1.479469 1_455
O13 S1 1.479463 1_555
O14 S2 1.479457 1_565
O15 S3 1.479469 1_545
O16 S4 1.479463 1_555
O17 S5 1.479457 1_655
O18 S0 1.489117 1_555
O19 S1 1.489115 1_555
O20 S2 1.489113 1_555
O21 S3 1.489117 1_555
O22 S4 1.489115 1_555
O23 S5 1.489113 1_555
