# generated using pymatgen
data_Nb13Co40Si31
_symmetry_space_group_name_H-M   'P 1'
_cell_length_a   17.15330398
_cell_length_b   17.15330398
_cell_length_c   7.87363400
_cell_angle_alpha   90.00000000
_cell_angle_beta   90.00000000
_cell_angle_gamma   119.99999992
_symmetry_Int_Tables_number   1
_chemical_formula_structural   Nb13Co40Si31
_chemical_formula_sum   'Nb26 Co80 Si62'
_cell_volume   2006.32563894
_cell_formula_units_Z   2
loop_
 _symmetry_equiv_pos_site_id
 _symmetry_equiv_pos_as_xyz
  1  'x, y, z'
loop_
 _atom_site_type_symbol
 _atom_site_label
 _atom_site_symmetry_multiplicity
 _atom_site_fract_x
 _atom_site_fract_y
 _atom_site_fract_z
 _atom_site_occupancy
  Nb  Nb0  1  0.72732600  0.72732600  0.70209700  1
  Nb  Nb1  1  0.27267400  0.00000000  0.70209700  1
  Nb  Nb2  1  0.00000000  0.27267400  0.70209700  1
  Nb  Nb3  1  0.27267400  0.27267400  0.70209700  1
  Nb  Nb4  1  0.72732600  0.00000000  0.70209700  1
  Nb  Nb5  1  0.00000000  0.72732600  0.70209700  1
  Nb  Nb6  1  0.27267400  0.27267400  0.29790300  1
  Nb  Nb7  1  0.72732600  0.00000000  0.29790300  1
  Nb  Nb8  1  0.00000000  0.72732600  0.29790300  1
  Nb  Nb9  1  0.72732600  0.72732600  0.29790300  1
  Nb  Nb10  1  0.27267400  0.00000000  0.29790300  1
  Nb  Nb11  1  0.00000000  0.27267400  0.29790300  1
  Nb  Nb12  1  0.42301900  0.57698100  0.50000000  1
  Nb  Nb13  1  0.42301900  0.84603800  0.50000000  1
  Nb  Nb14  1  0.15396200  0.57698100  0.50000000  1
  Nb  Nb15  1  0.57698100  0.42301900  0.50000000  1
  Nb  Nb16  1  0.84603800  0.42301900  0.50000000  1
  Nb  Nb17  1  0.57698100  0.15396200  0.50000000  1
  Nb  Nb18  1  0.75608800  0.24391200  0.00000000  1
  Nb  Nb19  1  0.75608800  0.51217600  0.00000000  1
  Nb  Nb20  1  0.48782400  0.24391200  0.00000000  1
  Nb  Nb21  1  0.24391200  0.75608800  0.00000000  1
  Nb  Nb22  1  0.51217600  0.75608800  0.00000000  1
  Nb  Nb23  1  0.24391200  0.48782400  0.00000000  1
  Nb  Nb24  1  0.00000000  0.00000000  0.80040300  1
  Nb  Nb25  1  0.00000000  0.00000000  0.19959700  1
  Co  Co0  1  0.89712100  0.34225100  0.77120600  1
  Co  Co1  1  0.65774900  0.55487000  0.77120600  1
  Co  Co2  1  0.44513000  0.10287900  0.77120600  1
  Co  Co3  1  0.34225100  0.89712100  0.77120600  1
  Co  Co4  1  0.55487000  0.65774900  0.77120600  1
  Co  Co5  1  0.10287900  0.44513000  0.77120600  1
  Co  Co6  1  0.10287900  0.65774900  0.77120600  1
  Co  Co7  1  0.34225100  0.44513000  0.77120600  1
  Co  Co8  1  0.55487000  0.89712100  0.77120600  1
  Co  Co9  1  0.65774900  0.10287900  0.77120600  1
  Co  Co10  1  0.44513000  0.34225100  0.77120600  1
  Co  Co11  1  0.89712100  0.55487000  0.77120600  1
  Co  Co12  1  0.10287900  0.65774900  0.22879400  1
  Co  Co13  1  0.34225100  0.44513000  0.22879400  1
  Co  Co14  1  0.55487000  0.89712100  0.22879400  1
  Co  Co15  1  0.65774900  0.10287900  0.22879400  1
  Co  Co16  1  0.44513000  0.34225100  0.22879400  1
  Co  Co17  1  0.89712100  0.55487000  0.22879400  1
  Co  Co18  1  0.89712100  0.34225100  0.22879400  1
  Co  Co19  1  0.65774900  0.55487000  0.22879400  1
  Co  Co20  1  0.44513000  0.10287900  0.22879400  1
  Co  Co21  1  0.34225100  0.89712100  0.22879400  1
  Co  Co22  1  0.55487000  0.65774900  0.22879400  1
  Co  Co23  1  0.10287900  0.44513000  0.22879400  1
  Co  Co24  1  0.91452800  0.23555100  0.00000000  1
  Co  Co25  1  0.76444900  0.67897700  0.00000000  1
  Co  Co26  1  0.32102300  0.08547200  0.00000000  1
  Co  Co27  1  0.23555100  0.91452800  0.00000000  1
  Co  Co28  1  0.67897700  0.76444900  0.00000000  1
  Co  Co29  1  0.08547200  0.32102300  0.00000000  1
  Co  Co30  1  0.08547200  0.76444900  0.00000000  1
  Co  Co31  1  0.23555100  0.32102300  0.00000000  1
  Co  Co32  1  0.67897700  0.91452800  0.00000000  1
  Co  Co33  1  0.76444900  0.08547200  0.00000000  1
  Co  Co34  1  0.32102300  0.23555100  0.00000000  1
  Co  Co35  1  0.91452800  0.67897700  0.00000000  1
  Co  Co36  1  0.91123200  0.08876800  0.75665500  1
  Co  Co37  1  0.91123200  0.82246400  0.75665500  1
  Co  Co38  1  0.17753600  0.08876800  0.75665500  1
  Co  Co39  1  0.08876800  0.91123200  0.75665500  1
  Co  Co40  1  0.82246400  0.91123200  0.75665500  1
  Co  Co41  1  0.08876800  0.17753600  0.75665500  1
  Co  Co42  1  0.08876800  0.91123200  0.24334500  1
  Co  Co43  1  0.08876800  0.17753600  0.24334500  1
  Co  Co44  1  0.82246400  0.91123200  0.24334500  1
  Co  Co45  1  0.91123200  0.08876800  0.24334500  1
  Co  Co46  1  0.17753600  0.08876800  0.24334500  1
  Co  Co47  1  0.91123200  0.82246400  0.24334500  1
  Co  Co48  1  0.73835200  0.26164800  0.65736200  1
  Co  Co49  1  0.73835200  0.47670400  0.65736200  1
  Co  Co50  1  0.52329600  0.26164800  0.65736200  1
  Co  Co51  1  0.26164800  0.73835200  0.65736200  1
  Co  Co52  1  0.47670400  0.73835200  0.65736200  1
  Co  Co53  1  0.26164800  0.52329600  0.65736200  1
  Co  Co54  1  0.26164800  0.73835200  0.34263800  1
  Co  Co55  1  0.26164800  0.52329600  0.34263800  1
  Co  Co56  1  0.47670400  0.73835200  0.34263800  1
  Co  Co57  1  0.73835200  0.26164800  0.34263800  1
  Co  Co58  1  0.52329600  0.26164800  0.34263800  1
  Co  Co59  1  0.73835200  0.47670400  0.34263800  1
  Co  Co60  1  0.85824000  0.14176000  0.50000000  1
  Co  Co61  1  0.85824000  0.71648000  0.50000000  1
  Co  Co62  1  0.28352000  0.14176000  0.50000000  1
  Co  Co63  1  0.14176000  0.85824000  0.50000000  1
  Co  Co64  1  0.71648000  0.85824000  0.50000000  1
  Co  Co65  1  0.14176000  0.28352000  0.50000000  1
  Co  Co66  1  0.45549900  0.54450100  0.00000000  1
  Co  Co67  1  0.45549900  0.91099800  0.00000000  1
  Co  Co68  1  0.08900200  0.54450100  0.00000000  1
  Co  Co69  1  0.54450100  0.45549900  0.00000000  1
  Co  Co70  1  0.91099800  0.45549900  0.00000000  1
  Co  Co71  1  0.54450100  0.08900200  0.00000000  1
  Co  Co72  1  0.58152000  0.58152000  0.50000000  1
  Co  Co73  1  0.41848000  0.00000000  0.50000000  1
  Co  Co74  1  0.00000000  0.41848000  0.50000000  1
  Co  Co75  1  0.41848000  0.41848000  0.50000000  1
  Co  Co76  1  0.58152000  0.00000000  0.50000000  1
  Co  Co77  1  0.00000000  0.58152000  0.50000000  1
  Co  Co78  1  0.66666700  0.33333300  0.00000000  1
  Co  Co79  1  0.33333300  0.66666700  0.00000000  1
  Si  Si0  1  0.87153100  0.28223300  0.50000000  1
  Si  Si1  1  0.71776700  0.58929800  0.50000000  1
  Si  Si2  1  0.41070200  0.12846900  0.50000000  1
  Si  Si3  1  0.28223300  0.87153100  0.50000000  1
  Si  Si4  1  0.58929800  0.71776700  0.50000000  1
  Si  Si5  1  0.12846900  0.41070200  0.50000000  1
  Si  Si6  1  0.12846900  0.71776700  0.50000000  1
  Si  Si7  1  0.28223300  0.41070200  0.50000000  1
  Si  Si8  1  0.58929800  0.87153100  0.50000000  1
  Si  Si9  1  0.71776700  0.12846900  0.50000000  1
  Si  Si10  1  0.41070200  0.28223300  0.50000000  1
  Si  Si11  1  0.87153100  0.58929800  0.50000000  1
  Si  Si12  1  0.82122600  0.17877400  0.76469300  1
  Si  Si13  1  0.82122600  0.64245300  0.76469300  1
  Si  Si14  1  0.35754700  0.17877400  0.76469300  1
  Si  Si15  1  0.17877400  0.82122600  0.76469300  1
  Si  Si16  1  0.64245300  0.82122600  0.76469300  1
  Si  Si17  1  0.17877400  0.35754700  0.76469300  1
  Si  Si18  1  0.17877400  0.82122600  0.23530700  1
  Si  Si19  1  0.17877400  0.35754700  0.23530700  1
  Si  Si20  1  0.64245300  0.82122600  0.23530700  1
  Si  Si21  1  0.82122600  0.17877400  0.23530700  1
  Si  Si22  1  0.35754700  0.17877400  0.23530700  1
  Si  Si23  1  0.82122600  0.64245300  0.23530700  1
  Si  Si24  1  0.39507000  0.60493000  0.81849300  1
  Si  Si25  1  0.39507000  0.79014000  0.81849300  1
  Si  Si26  1  0.20986000  0.60493000  0.81849300  1
  Si  Si27  1  0.60493000  0.39507000  0.81849300  1
  Si  Si28  1  0.79014000  0.39507000  0.81849300  1
  Si  Si29  1  0.60493000  0.20986000  0.81849300  1
  Si  Si30  1  0.60493000  0.39507000  0.18150700  1
  Si  Si31  1  0.60493000  0.20986000  0.18150700  1
  Si  Si32  1  0.79014000  0.39507000  0.18150700  1
  Si  Si33  1  0.39507000  0.60493000  0.18150700  1
  Si  Si34  1  0.20986000  0.60493000  0.18150700  1
  Si  Si35  1  0.39507000  0.79014000  0.18150700  1
  Si  Si36  1  0.85468500  0.85468500  0.50000000  1
  Si  Si37  1  0.14531500  0.00000000  0.50000000  1
  Si  Si38  1  0.00000000  0.14531500  0.50000000  1
  Si  Si39  1  0.14531500  0.14531500  0.50000000  1
  Si  Si40  1  0.85468500  0.00000000  0.50000000  1
  Si  Si41  1  0.00000000  0.85468500  0.50000000  1
  Si  Si42  1  0.83875300  0.83875300  0.00000000  1
  Si  Si43  1  0.16124700  0.00000000  0.00000000  1
  Si  Si44  1  0.00000000  0.16124700  0.00000000  1
  Si  Si45  1  0.16124700  0.16124700  0.00000000  1
  Si  Si46  1  0.83875300  0.00000000  0.00000000  1
  Si  Si47  1  0.00000000  0.83875300  0.00000000  1
  Si  Si48  1  0.61232800  0.61232800  0.00000000  1
  Si  Si49  1  0.38767200  0.00000000  0.00000000  1
  Si  Si50  1  0.00000000  0.38767200  0.00000000  1
  Si  Si51  1  0.38767200  0.38767200  0.00000000  1
  Si  Si52  1  0.61232800  0.00000000  0.00000000  1
  Si  Si53  1  0.00000000  0.61232800  0.00000000  1
  Si  Si54  1  0.50000000  0.50000000  0.73907200  1
  Si  Si55  1  0.50000000  0.00000000  0.73907200  1
  Si  Si56  1  0.00000000  0.50000000  0.73907200  1
  Si  Si57  1  0.50000000  0.50000000  0.26092800  1
  Si  Si58  1  0.50000000  0.00000000  0.26092800  1
  Si  Si59  1  0.00000000  0.50000000  0.26092800  1
  Si  Si60  1  0.66666700  0.33333300  0.50000000  1
  Si  Si61  1  0.33333300  0.66666700  0.50000000  1
loop_
_geom_bond_atom_site_label_1
_geom_bond_atom_site_label_2
_geom_bond_distance
_geom_bond_site_symmetry_2
Nb0 Si16 2.702164 1_555
Nb0 Si13 2.702164 1_555
Nb0 Si36 2.702709 1_555
Nb0 Si1 2.788621 1_555
Nb0 Si4 2.788621 1_555
Nb0 Si42 3.025718 1_556
Nb0 Si48 3.064780 1_556
Nb0 Nb9 3.182476 1_555
Nb1 Si15 2.702178 1_545
Nb1 Si14 2.702179 1_555
Nb1 Si37 2.702709 1_555
Nb1 Si3 2.788621 1_545
Nb1 Si2 2.788621 1_555
Nb1 Si43 3.025718 1_556
Nb1 Si49 3.064780 1_556
Nb1 Nb10 3.182476 1_555
Nb2 Si12 2.702178 1_455
Nb2 Si17 2.702179 1_555
Nb2 Si38 2.702709 1_555
Nb2 Si0 2.788621 1_455
Nb2 Si5 2.788621 1_555
Nb2 Si44 3.025718 1_556
Nb2 Si50 3.064780 1_556
Nb3 Si17 2.702164 1_555
Nb3 Si14 2.702164 1_555
Nb3 Si39 2.702709 1_555
Nb3 Si7 2.788621 1_555
Nb3 Si10 2.788621 1_555
Nb3 Si45 3.025718 1_556
Nb3 Si51 3.064780 1_556
Nb3 Nb6 3.182476 1_555
Nb4 Si12 2.702178 1_555
Nb4 Si16 2.702179 1_545
Nb4 Si40 2.702709 1_555
Nb4 Si9 2.788621 1_555
Nb4 Si8 2.788621 1_545
Nb4 Si46 3.025718 1_556
Nb4 Si52 3.064780 1_556
Nb4 Nb7 3.182476 1_555
Nb5 Si15 2.702178 1_555
Nb5 Si13 2.702179 1_455
Nb5 Si41 2.702709 1_555
Nb5 Si6 2.788621 1_555
Nb5 Si11 2.788621 1_455
Nb5 Si47 3.025718 1_556
Nb5 Si53 3.064780 1_556
Nb5 Nb8 3.182476 1_555
Nb6 Si19 2.702164 1_555
Nb6 Si22 2.702164 1_555
Nb6 Si39 2.702709 1_555
Nb6 Si10 2.788621 1_555
Nb6 Si7 2.788621 1_555
Nb6 Si45 3.025718 1_555
Nb6 Si51 3.064780 1_555
Nb7 Si21 2.702178 1_555
Nb7 Si20 2.702179 1_545
Nb7 Si40 2.702709 1_555
Nb7 Si9 2.788621 1_555
Nb7 Si8 2.788621 1_545
Nb7 Si46 3.025718 1_555
Nb7 Si52 3.064780 1_555
Nb8 Si18 2.702178 1_555
Nb8 Si23 2.702179 1_455
Nb8 Si41 2.702709 1_555
Nb8 Si6 2.788621 1_555
Nb8 Si11 2.788621 1_455
Nb8 Si47 3.025718 1_555
Nb8 Si53 3.064780 1_555
Nb9 Si20 2.702164 1_555
Nb9 Si23 2.702164 1_555
Nb9 Si36 2.702709 1_555
Nb9 Si4 2.788621 1_555
Nb9 Si1 2.788621 1_555
Nb9 Si42 3.025718 1_555
Nb9 Si48 3.064780 1_555
Nb10 Si18 2.702178 1_545
Nb10 Si22 2.702179 1_555
Nb10 Si37 2.702709 1_555
Nb10 Si3 2.788621 1_545
Nb10 Si2 2.788621 1_555
Nb10 Si43 3.025718 1_555
Nb10 Si49 3.064780 1_555
Nb11 Si21 2.702178 1_455
Nb11 Si19 2.702179 1_555
Nb11 Si38 2.702709 1_555
Nb11 Si0 2.788621 1_455
Nb11 Si5 2.788621 1_555
Nb11 Si44 3.025718 1_555
Nb11 Si50 3.064780 1_555
Nb11 Nb2 3.182476 1_555
Nb12 Si33 2.641604 1_555
Nb12 Si24 2.641604 1_555
Nb12 Si7 2.660679 1_555
Nb12 Si4 2.660679 1_555
Nb12 Si61 2.664606 1_555
Nb12 Si54 2.962143 1_555
Nb12 Si57 2.962143 1_555
Nb13 Si25 2.641604 1_555
Nb13 Si35 2.641604 1_555
Nb13 Si3 2.660679 1_555
Nb13 Si8 2.660679 1_555
Nb13 Si61 2.664592 1_555
Nb13 Si55 2.962143 1_565
Nb13 Si58 2.962143 1_565
Nb14 Si26 2.641604 1_555
Nb14 Si34 2.641604 1_555
Nb14 Si6 2.660679 1_555
Nb14 Si5 2.660679 1_555
Nb14 Si61 2.664592 1_555
Nb14 Si56 2.962143 1_555
Nb14 Si59 2.962143 1_555
Nb15 Si30 2.641604 1_555
Nb15 Si27 2.641604 1_555
Nb15 Si10 2.660679 1_555
Nb15 Si1 2.660679 1_555
Nb15 Si60 2.664606 1_555
Nb15 Si54 2.962143 1_555
Nb15 Si57 2.962143 1_555
Nb16 Si28 2.641604 1_555
Nb16 Si32 2.641604 1_555
Nb16 Si0 2.660679 1_555
Nb16 Si11 2.660679 1_555
Nb16 Si60 2.664592 1_555
Nb16 Si56 2.962143 1_655
Nb16 Si59 2.962143 1_655
Nb17 Si31 2.641604 1_555
Nb17 Si29 2.641604 1_555
Nb17 Si9 2.660679 1_555
Nb17 Si2 2.660679 1_555
Nb17 Si60 2.664592 1_555
Nb17 Si58 2.962143 1_555
Nb17 Si55 2.962143 1_555
Nb18 Si21 2.679154 1_555
Nb18 Si12 2.679154 1_554
Nb18 Si32 2.755355 1_555
Nb18 Si28 2.755355 1_554
Nb18 Si29 2.755355 1_554
Nb18 Si31 2.755355 1_555
Nb19 Si23 2.679165 1_555
Nb19 Si13 2.679165 1_554
Nb19 Si32 2.755355 1_555
Nb19 Si28 2.755355 1_554
Nb19 Si30 2.755355 1_555
Nb19 Si27 2.755355 1_554
Nb20 Si22 2.679165 1_555
Nb20 Si14 2.679165 1_554
Nb20 Si29 2.755355 1_554
Nb20 Si31 2.755355 1_555
Nb20 Si27 2.755355 1_554
Nb20 Si30 2.755355 1_555
Nb21 Si18 2.679154 1_555
Nb21 Si15 2.679154 1_554
Nb21 Si35 2.755355 1_555
Nb21 Si25 2.755355 1_554
Nb21 Si34 2.755355 1_555
Nb21 Si26 2.755355 1_554
Nb22 Si20 2.679165 1_555
Nb22 Si16 2.679165 1_554
Nb22 Si25 2.755355 1_554
Nb22 Si35 2.755355 1_555
Nb22 Si24 2.755355 1_554
Nb22 Si33 2.755355 1_555
Nb23 Si19 2.679165 1_555
Nb23 Si17 2.679165 1_554
Nb23 Si26 2.755355 1_554
Nb23 Si34 2.755355 1_555
Nb23 Si24 2.755355 1_554
Nb23 Si33 2.755355 1_555
Co0 Si0 2.315274 1_555
Co0 Si50 2.364637 1_656
Co0 Si56 2.392707 1_655
Co0 Si12 2.431092 1_555
Co0 Si28 2.447371 1_555
Co0 Co48 2.523221 1_555
Co0 Co70 2.571585 1_556
Co0 Nb2 2.634546 1_655
Co0 Co74 2.660134 1_655
Co0 Co24 2.688992 1_556
Co0 Nb18 2.803976 1_556
Co0 Nb16 2.908789 1_555
Co1 Si1 2.315274 1_555
Co1 Si48 2.364637 1_556
Co1 Si54 2.392707 1_555
Co1 Si13 2.431092 1_555
Co1 Si27 2.447371 1_555
Co1 Co49 2.523221 1_555
Co1 Co69 2.571585 1_556
Co1 Nb0 2.634546 1_555
Co1 Co72 2.660134 1_555
Co1 Co25 2.688992 1_556
Co1 Nb19 2.803976 1_556
Co1 Nb15 2.908789 1_555
Co2 Si2 2.315274 1_555
Co2 Si49 2.364637 1_556
Co2 Si55 2.392707 1_555
Co2 Si14 2.431107 1_555
Co2 Si29 2.447371 1_555
Co2 Co50 2.523221 1_555
Co2 Co71 2.571585 1_556
Co2 Nb1 2.634546 1_555
Co2 Co73 2.660134 1_555
Co2 Co26 2.688992 1_556
Co2 Nb20 2.803976 1_556
Co2 Nb17 2.908789 1_555
Co3 Si3 2.315274 1_555
Co3 Si49 2.364637 1_566
Co3 Si55 2.392707 1_565
Co3 Si15 2.431092 1_555
Co3 Si25 2.447371 1_555
Co3 Co51 2.523221 1_555
Co3 Co67 2.571585 1_556
Co3 Nb1 2.634546 1_565
Co3 Co73 2.660134 1_565
Co3 Nb21 2.803976 1_556
Co3 Nb13 2.908789 1_555
Co4 Si4 2.315274 1_555
Co4 Si48 2.364637 1_556
Co4 Si54 2.392707 1_555
Co4 Si16 2.431092 1_555
Co4 Si24 2.447371 1_555
Co4 Co52 2.523221 1_555
Co4 Co66 2.571585 1_556
Co4 Nb0 2.634546 1_555
Co4 Co72 2.660134 1_555
Co4 Nb22 2.803976 1_556
Co4 Nb12 2.908789 1_555
Co5 Si5 2.315274 1_555
Co5 Si50 2.364637 1_556
Co5 Si56 2.392707 1_555
Co5 Si17 2.431107 1_555
Co5 Si26 2.447371 1_555
Co5 Co53 2.523221 1_555
Co5 Co68 2.571585 1_556
Co5 Nb2 2.634546 1_555
Co5 Co74 2.660134 1_555
Co5 Nb23 2.803976 1_556
Co5 Nb14 2.908789 1_555
Co6 Si6 2.315274 1_555
Co6 Si53 2.364637 1_556
Co6 Si56 2.392707 1_555
Co6 Si15 2.431092 1_555
Co6 Si26 2.447371 1_555
Co6 Co68 2.571585 1_556
Co6 Nb5 2.634546 1_555
Co6 Co77 2.660134 1_555
Co6 Nb21 2.803976 1_556
Co6 Nb14 2.908789 1_555
Co7 Si7 2.315274 1_555
Co7 Si51 2.364637 1_556
Co7 Si54 2.392707 1_555
Co7 Si17 2.431092 1_555
Co7 Si24 2.447371 1_555
Co7 Nb3 2.634546 1_555
Co7 Co75 2.660134 1_555
Co7 Nb23 2.803976 1_556
Co7 Nb12 2.908789 1_555
Co8 Si8 2.315274 1_555
Co8 Si52 2.364637 1_566
Co8 Si55 2.392707 1_565
Co8 Si16 2.431107 1_555
Co8 Si25 2.447371 1_555
Co8 Nb4 2.634546 1_565
Co8 Nb22 2.803976 1_556
Co8 Nb13 2.908789 1_555
Co9 Si9 2.315274 1_555
Co9 Si52 2.364637 1_556
Co9 Si55 2.392707 1_555
Co9 Si12 2.431092 1_555
Co9 Si29 2.447371 1_555
Co9 Nb4 2.634546 1_555
Co9 Nb18 2.803976 1_556
Co9 Nb17 2.908789 1_555
Co10 Si10 2.315274 1_555
Co10 Si51 2.364637 1_556
Co10 Si54 2.392707 1_555
Co10 Si14 2.431092 1_555
Co10 Si27 2.447371 1_555
Co10 Co50 2.523221 1_555
Co10 Co69 2.571585 1_556
Co10 Nb3 2.634546 1_555
Co10 Co75 2.660134 1_555
Co10 Co34 2.688992 1_556
Co10 Nb20 2.803976 1_556
Co10 Nb15 2.908789 1_555
Co11 Si11 2.315274 1_555
Co11 Si53 2.364637 1_656
Co11 Si56 2.392707 1_655
Co11 Si13 2.431107 1_555
Co11 Si28 2.447371 1_555
Co11 Co49 2.523221 1_555
Co11 Co70 2.571585 1_556
Co11 Nb5 2.634546 1_655
Co11 Co77 2.660134 1_655
Co11 Co35 2.688992 1_556
Co11 Nb19 2.803976 1_556
Co11 Nb16 2.908789 1_555
Co12 Si6 2.315274 1_555
Co12 Si53 2.364637 1_555
Co12 Si59 2.392707 1_555
Co12 Si18 2.431092 1_555
Co12 Si34 2.447371 1_555
Co12 Co54 2.523221 1_555
Co12 Co68 2.571585 1_555
Co12 Nb8 2.634546 1_555
Co12 Co77 2.660134 1_555
Co12 Co30 2.688992 1_555
Co12 Nb21 2.803976 1_555
Co12 Nb14 2.908789 1_555
Co13 Si7 2.315274 1_555
Co13 Si51 2.364637 1_555
Co13 Si57 2.392707 1_555
Co13 Si19 2.431092 1_555
Co13 Si33 2.447371 1_555
Co13 Co55 2.523221 1_555
Co13 Co66 2.571585 1_555
Co13 Nb6 2.634546 1_555
Co13 Co75 2.660134 1_555
Co13 Co31 2.688992 1_555
Co13 Nb23 2.803976 1_555
Co13 Nb12 2.908789 1_555
Co14 Si8 2.315274 1_555
Co14 Si52 2.364637 1_565
Co14 Si58 2.392707 1_565
Co14 Si20 2.431107 1_555
Co14 Si35 2.447371 1_555
Co14 Co56 2.523221 1_555
Co14 Co67 2.571585 1_555
Co14 Nb7 2.634546 1_565
Co14 Co76 2.660134 1_565
Co14 Co32 2.688992 1_555
Co14 Nb22 2.803976 1_555
Co14 Nb13 2.908789 1_555
Co15 Si9 2.315274 1_555
Co15 Si52 2.364637 1_555
Co15 Si58 2.392707 1_555
Co15 Si21 2.431092 1_555
Co15 Si31 2.447371 1_555
Co15 Co57 2.523221 1_555
Co15 Co71 2.571585 1_555
Co15 Nb7 2.634546 1_555
Co15 Co76 2.660134 1_555
Co15 Co33 2.688992 1_555
Co15 Nb18 2.803976 1_555
Co15 Nb17 2.908789 1_555
Co16 Si10 2.315274 1_555
Co16 Si51 2.364637 1_555
Co16 Si57 2.392707 1_555
Co16 Si22 2.431092 1_555
Co16 Si30 2.447371 1_555
Co16 Co58 2.523221 1_555
Co16 Co69 2.571585 1_555
Co16 Nb6 2.634546 1_555
Co16 Co75 2.660134 1_555
Co16 Co34 2.688992 1_555
Co16 Nb20 2.803976 1_555
Co16 Nb15 2.908789 1_555
Co17 Si11 2.315274 1_555
Co17 Si53 2.364637 1_655
Co17 Si59 2.392707 1_655
Co17 Si23 2.431107 1_555
Co17 Si32 2.447371 1_555
Co17 Co59 2.523221 1_555
Co17 Co70 2.571585 1_555
Co17 Nb8 2.634546 1_655
Co17 Co77 2.660134 1_655
Co17 Co35 2.688992 1_555
Co17 Nb19 2.803976 1_555
Co17 Nb16 2.908789 1_555
Co18 Si0 2.315274 1_555
Co18 Si50 2.364637 1_655
Co18 Si59 2.392707 1_655
Co18 Si21 2.431092 1_555
Co18 Si32 2.447371 1_555
Co18 Co57 2.523221 1_555
Co18 Co70 2.571585 1_555
Co18 Nb11 2.634546 1_655
Co18 Co74 2.660134 1_655
Co18 Co24 2.688992 1_555
Co18 Nb18 2.803976 1_555
Co18 Nb16 2.908789 1_555
Co19 Si1 2.315274 1_555
Co19 Si48 2.364637 1_555
Co19 Si57 2.392707 1_555
Co19 Si23 2.431092 1_555
Co19 Si30 2.447371 1_555
Co19 Co59 2.523221 1_555
Co19 Co69 2.571585 1_555
Co19 Nb9 2.634546 1_555
Co19 Co72 2.660134 1_555
Co19 Co25 2.688992 1_555
Co19 Nb19 2.803976 1_555
Co19 Nb15 2.908789 1_555
Co20 Si2 2.315274 1_555
Co20 Si49 2.364637 1_555
Co20 Si58 2.392707 1_555
Co20 Si22 2.431107 1_555
Co20 Si31 2.447371 1_555
Co20 Co58 2.523221 1_555
Co20 Co71 2.571585 1_555
Co20 Nb10 2.634546 1_555
Co20 Co73 2.660134 1_555
Co20 Co26 2.688992 1_555
Co20 Nb20 2.803976 1_555
Co20 Nb17 2.908789 1_555
Co21 Si3 2.315274 1_555
Co21 Si49 2.364637 1_565
Co21 Si58 2.392707 1_565
Co21 Si18 2.431092 1_555
Co21 Si35 2.447371 1_555
Co21 Co54 2.523221 1_555
Co21 Co67 2.571585 1_555
Co21 Nb10 2.634546 1_565
Co21 Co73 2.660134 1_565
Co21 Co27 2.688992 1_555
Co21 Nb21 2.803976 1_555
Co21 Nb13 2.908789 1_555
Co22 Si4 2.315274 1_555
Co22 Si48 2.364637 1_555
Co22 Si57 2.392707 1_555
Co22 Si20 2.431092 1_555
Co22 Si33 2.447371 1_555
Co22 Co56 2.523221 1_555
Co22 Co66 2.571585 1_555
Co22 Nb9 2.634546 1_555
Co22 Co72 2.660134 1_555
Co22 Co28 2.688992 1_555
Co22 Nb22 2.803976 1_555
Co22 Nb12 2.908789 1_555
Co23 Si5 2.315274 1_555
Co23 Si50 2.364637 1_555
Co23 Si59 2.392707 1_555
Co23 Si19 2.431107 1_555
Co23 Si34 2.447371 1_555
Co23 Co55 2.523221 1_555
Co23 Co68 2.571585 1_555
Co23 Nb11 2.634546 1_555
Co23 Co74 2.660134 1_555
Co23 Co29 2.688992 1_555
Co23 Nb23 2.803976 1_555
Co23 Nb14 2.908789 1_555
Co24 Si50 2.265547 1_655
Co24 Si21 2.320301 1_555
Co24 Si12 2.320301 1_554
Co24 Si44 2.375436 1_655
Co24 Co29 2.539407 1_655
Co24 Co33 2.574351 1_555
Co24 Nb11 2.668925 1_655
Co24 Nb2 2.668925 1_654
Co24 Nb18 2.792243 1_555
Co25 Si48 2.265547 1_555
Co25 Si23 2.320293 1_555
Co25 Si13 2.320293 1_554
Co25 Si42 2.375436 1_555
Co25 Co28 2.539407 1_555
Co25 Co35 2.574351 1_555
Co25 Nb0 2.668925 1_554
Co25 Nb9 2.668925 1_555
Co25 Nb19 2.792243 1_555
Co26 Si49 2.265547 1_555
Co26 Si22 2.320302 1_555
Co26 Si14 2.320302 1_554
Co26 Si43 2.375436 1_555
Co26 Co27 2.539407 1_545
Co26 Co34 2.574351 1_555
Co26 Nb10 2.668925 1_555
Co26 Nb1 2.668925 1_554
Co26 Nb20 2.792243 1_555
Co27 Si49 2.265547 1_565
Co27 Si18 2.320301 1_555
Co27 Si15 2.320301 1_554
Co27 Si43 2.375436 1_565
Co27 Co30 2.574351 1_555
Co27 Nb10 2.668925 1_565
Co27 Nb1 2.668925 1_564
Co27 Co3 2.688992 1_554
Co27 Nb21 2.792243 1_555
Co28 Si48 2.265547 1_555
Co28 Si20 2.320293 1_555
Co28 Si16 2.320293 1_554
Co28 Si42 2.375436 1_555
Co28 Co32 2.574351 1_555
Co28 Nb9 2.668925 1_555
Co28 Nb0 2.668925 1_554
Co28 Co4 2.688992 1_554
Co28 Nb22 2.792243 1_555
Co29 Si50 2.265547 1_555
Co29 Si19 2.320302 1_555
Co29 Si17 2.320302 1_554
Co29 Si44 2.375436 1_555
Co29 Co31 2.574351 1_555
Co29 Nb11 2.668925 1_555
Co29 Nb2 2.668925 1_554
Co29 Co5 2.688992 1_554
Co29 Nb23 2.792243 1_555
Co30 Si53 2.265547 1_555
Co30 Si15 2.320301 1_554
Co30 Si18 2.320301 1_555
Co30 Si47 2.375436 1_555
Co30 Co35 2.539407 1_455
Co30 Nb8 2.668925 1_555
Co30 Nb5 2.668925 1_554
Co30 Co6 2.688992 1_554
Co30 Nb21 2.792243 1_555
Co31 Si51 2.265547 1_555
Co31 Si19 2.320293 1_555
Co31 Si17 2.320293 1_554
Co31 Si45 2.375436 1_555
Co31 Co34 2.539407 1_555
Co31 Nb6 2.668925 1_555
Co31 Nb3 2.668925 1_554
Co31 Co7 2.688992 1_554
Co31 Nb23 2.792243 1_555
Co32 Si52 2.265547 1_565
Co32 Si20 2.320302 1_555
Co32 Si16 2.320302 1_554
Co32 Si46 2.375436 1_565
Co32 Co33 2.539407 1_565
Co32 Nb7 2.668925 1_565
Co32 Nb4 2.668925 1_564
Co32 Co8 2.688992 1_554
Co32 Nb22 2.792243 1_555
Co33 Si52 2.265547 1_555
Co33 Si21 2.320301 1_555
Co33 Si12 2.320301 1_554
Co33 Si46 2.375436 1_555
Co33 Nb7 2.668925 1_555
Co33 Nb4 2.668925 1_554
Co33 Co9 2.688992 1_554
Co33 Nb18 2.792243 1_555
Co34 Si51 2.265547 1_555
Co34 Si22 2.320293 1_555
Co34 Si14 2.320293 1_554
Co34 Si45 2.375436 1_555
Co34 Nb6 2.668925 1_555
Co34 Nb3 2.668925 1_554
Co34 Nb20 2.792243 1_555
Co35 Si53 2.265547 1_655
Co35 Si23 2.320302 1_555
Co35 Si13 2.320302 1_554
Co35 Si47 2.375436 1_655
Co35 Nb8 2.668925 1_655
Co35 Nb5 2.668925 1_654
Co35 Nb19 2.792243 1_555
Co36 Si44 2.375336 1_656
Co36 Si46 2.375336 1_556
Co36 Si40 2.421998 1_555
Co36 Si38 2.421998 1_655
Co36 Co60 2.561726 1_555
Co36 Co41 2.637332 1_655
Co36 Co40 2.637332 1_545
Co36 Nb24 2.659731 1_655
Co36 Si12 2.674863 1_555
Co36 Nb4 2.766066 1_555
Co36 Nb2 2.766066 1_655
Co37 Si42 2.375336 1_556
Co37 Si47 2.375336 1_656
Co37 Si36 2.421998 1_555
Co37 Si41 2.421998 1_655
Co37 Co61 2.561726 1_555
Co37 Co40 2.637332 1_555
Co37 Co39 2.637332 1_655
Co37 Nb24 2.659731 1_665
Co37 Si13 2.674848 1_555
Co37 Nb5 2.766066 1_655
Co37 Nb0 2.766066 1_555
Co38 Si45 2.375336 1_556
Co38 Si43 2.375336 1_556
Co38 Si39 2.421998 1_555
Co38 Si37 2.421998 1_555
Co38 Co62 2.561726 1_555
Co38 Co41 2.637332 1_555
Co38 Co39 2.637332 1_545
Co38 Nb24 2.659731 1_555
Co38 Si14 2.674848 1_555
Co38 Nb1 2.766066 1_555
Co38 Nb3 2.766066 1_555
Co39 Si43 2.375336 1_566
Co39 Si47 2.375336 1_556
Co39 Si37 2.421998 1_565
Co39 Si41 2.421998 1_555
Co39 Co63 2.561726 1_555
Co39 Nb24 2.659731 1_565
Co39 Si15 2.674863 1_555
Co39 Nb5 2.766066 1_555
Co39 Nb1 2.766066 1_565
Co40 Si42 2.375336 1_556
Co40 Si46 2.375336 1_566
Co40 Si36 2.421998 1_555
Co40 Si40 2.421998 1_565
Co40 Co64 2.561726 1_555
Co40 Nb24 2.659731 1_665
Co40 Si16 2.674848 1_555
Co40 Nb4 2.766066 1_565
Co40 Nb0 2.766066 1_555
Co41 Si45 2.375336 1_556
Co41 Si44 2.375336 1_556
Co41 Si39 2.421998 1_555
Co41 Si38 2.421998 1_555
Co41 Co65 2.561726 1_555
Co41 Nb24 2.659731 1_555
Co41 Si17 2.674848 1_555
Co41 Nb2 2.766066 1_555
Co41 Nb3 2.766066 1_555
Co42 Si43 2.375336 1_565
Co42 Si47 2.375336 1_555
Co42 Si37 2.421998 1_565
Co42 Si41 2.421998 1_555
Co42 Co63 2.561726 1_555
Co42 Co46 2.637332 1_565
Co42 Co47 2.637332 1_455
Co42 Nb25 2.659731 1_565
Co42 Si18 2.674863 1_555
Co42 Nb10 2.766066 1_565
Co42 Nb8 2.766066 1_555
Co43 Si45 2.375336 1_555
Co43 Si44 2.375336 1_555
Co43 Si39 2.421998 1_555
Co43 Si38 2.421998 1_555
Co43 Co65 2.561726 1_555
Co43 Co46 2.637332 1_555
Co43 Co45 2.637332 1_455
Co43 Nb25 2.659731 1_555
Co43 Si19 2.674848 1_555
Co43 Nb11 2.766066 1_555
Co43 Nb6 2.766066 1_555
Co44 Si42 2.375336 1_555
Co44 Si46 2.375336 1_565
Co44 Si36 2.421998 1_555
Co44 Si40 2.421998 1_565
Co44 Co64 2.561726 1_555
Co44 Co47 2.637332 1_555
Co44 Co45 2.637332 1_565
Co44 Nb25 2.659731 1_665
Co44 Si20 2.674848 1_555
Co44 Nb7 2.766066 1_565
Co44 Nb9 2.766066 1_555
Co45 Si44 2.375336 1_655
Co45 Si46 2.375336 1_555
Co45 Si40 2.421998 1_555
Co45 Si38 2.421998 1_655
Co45 Co60 2.561726 1_555
Co45 Nb25 2.659731 1_655
Co45 Si21 2.674863 1_555
Co45 Nb7 2.766066 1_555
Co45 Nb11 2.766066 1_655
Co46 Si45 2.375336 1_555
Co46 Si43 2.375336 1_555
Co46 Si39 2.421998 1_555
Co46 Si37 2.421998 1_555
Co46 Co62 2.561726 1_555
Co46 Nb25 2.659731 1_555
Co46 Si22 2.674848 1_555
Co46 Nb10 2.766066 1_555
Co46 Nb6 2.766066 1_555
Co47 Si42 2.375336 1_555
Co47 Si47 2.375336 1_655
Co47 Si36 2.421998 1_555
Co47 Si41 2.421998 1_655
Co47 Co61 2.561726 1_555
Co47 Nb25 2.659731 1_665
Co47 Si23 2.674848 1_555
Co47 Nb8 2.766066 1_655
Co47 Nb9 2.766066 1_555
Co48 Si28 2.367162 1_555
Co48 Si29 2.367162 1_555
Co48 Si60 2.463971 1_555
Co48 Si0 2.464131 1_555
Co48 Si9 2.464131 1_555
Co48 Co57 2.478022 1_555
Co48 Co9 2.523221 1_555
Co48 Si12 2.603208 1_555
Co48 Nb16 2.737921 1_555
Co48 Nb17 2.737921 1_555
Co48 Nb18 2.748787 1_556
Co49 Si28 2.367162 1_555
Co49 Si27 2.367162 1_555
Co49 Si60 2.463984 1_555
Co49 Si1 2.464131 1_555
Co49 Si11 2.464131 1_555
Co49 Co59 2.478022 1_555
Co49 Si13 2.603222 1_555
Co49 Nb16 2.737921 1_555
Co49 Nb15 2.737921 1_555
Co49 Nb19 2.748787 1_556
Co50 Si29 2.367162 1_555
Co50 Si27 2.367162 1_555
Co50 Si60 2.463984 1_555
Co50 Si10 2.464131 1_555
Co50 Si2 2.464131 1_555
Co50 Co58 2.478022 1_555
Co50 Si14 2.603222 1_555
Co50 Nb17 2.737921 1_555
Co50 Nb15 2.737921 1_555
Co50 Nb20 2.748787 1_556
Co51 Si25 2.367162 1_555
Co51 Si26 2.367162 1_555
Co51 Si61 2.463971 1_555
Co51 Si3 2.464131 1_555
Co51 Si6 2.464131 1_555
Co51 Co54 2.478022 1_555
Co51 Co6 2.523221 1_555
Co51 Si15 2.603208 1_555
Co51 Nb13 2.737921 1_555
Co51 Nb14 2.737921 1_555
Co51 Nb21 2.748787 1_556
Co52 Si25 2.367162 1_555
Co52 Si24 2.367162 1_555
Co52 Si61 2.463984 1_555
Co52 Si4 2.464131 1_555
Co52 Si8 2.464131 1_555
Co52 Co56 2.478022 1_555
Co52 Co8 2.523221 1_555
Co52 Si16 2.603222 1_555
Co52 Nb13 2.737921 1_555
Co52 Nb12 2.737921 1_555
Co52 Nb22 2.748787 1_556
Co53 Si26 2.367162 1_555
Co53 Si24 2.367162 1_555
Co53 Si61 2.463984 1_555
Co53 Si7 2.464131 1_555
Co53 Si5 2.464131 1_555
Co53 Co55 2.478022 1_555
Co53 Co7 2.523221 1_555
Co53 Si17 2.603222 1_555
Co53 Nb14 2.737921 1_555
Co53 Nb12 2.737921 1_555
Co53 Nb23 2.748787 1_556
Co54 Si35 2.367162 1_555
Co54 Si34 2.367162 1_555
Co54 Si61 2.463971 1_555
Co54 Si3 2.464131 1_555
Co54 Si6 2.464131 1_555
Co54 Si18 2.603208 1_555
Co54 Nb13 2.737921 1_555
Co54 Nb14 2.737921 1_555
Co54 Nb21 2.748787 1_555
Co55 Si34 2.367162 1_555
Co55 Si33 2.367162 1_555
Co55 Si61 2.463984 1_555
Co55 Si7 2.464131 1_555
Co55 Si5 2.464131 1_555
Co55 Si19 2.603222 1_555
Co55 Nb14 2.737921 1_555
Co55 Nb12 2.737921 1_555
Co55 Nb23 2.748787 1_555
Co56 Si35 2.367162 1_555
Co56 Si33 2.367162 1_555
Co56 Si61 2.463984 1_555
Co56 Si4 2.464131 1_555
Co56 Si8 2.464131 1_555
Co56 Si20 2.603222 1_555
Co56 Nb13 2.737921 1_555
Co56 Nb12 2.737921 1_555
Co56 Nb22 2.748787 1_555
Co57 Si32 2.367162 1_555
Co57 Si31 2.367162 1_555
Co57 Si60 2.463971 1_555
Co57 Si0 2.464131 1_555
Co57 Si9 2.464131 1_555
Co57 Si21 2.603208 1_555
Co57 Nb16 2.737921 1_555
Co57 Nb17 2.737921 1_555
Co57 Nb18 2.748787 1_555
Co58 Si31 2.367162 1_555
Co58 Si30 2.367162 1_555
Co58 Si60 2.463984 1_555
Co58 Si10 2.464131 1_555
Co58 Si2 2.464131 1_555
Co58 Si22 2.603222 1_555
Co58 Nb17 2.737921 1_555
Co58 Nb15 2.737921 1_555
Co58 Nb20 2.748787 1_555
Co59 Si32 2.367162 1_555
Co59 Si30 2.367162 1_555
Co59 Si60 2.463984 1_555
Co59 Si1 2.464131 1_555
Co59 Si11 2.464131 1_555
Co59 Si23 2.603222 1_555
Co59 Nb16 2.737921 1_555
Co59 Nb15 2.737921 1_555
Co59 Nb19 2.748787 1_555
Co60 Si9 2.304059 1_555
Co60 Si0 2.304059 1_555
Co60 Si12 2.356437 1_555
Co60 Si21 2.356437 1_555
Co60 Si40 2.401743 1_555
Co60 Si38 2.401743 1_655
Co60 Nb7 2.833229 1_555
Co60 Nb4 2.833229 1_555
Co60 Nb2 2.833229 1_655
Co60 Nb11 2.833229 1_655
Co61 Si11 2.304059 1_555
Co61 Si1 2.304059 1_555
Co61 Si13 2.356430 1_555
Co61 Si23 2.356430 1_555
Co61 Si36 2.401743 1_555
Co61 Si41 2.401743 1_655
Co61 Nb9 2.833229 1_555
Co61 Nb0 2.833229 1_555
Co61 Nb5 2.833229 1_655
Co61 Nb8 2.833229 1_655
Co62 Si2 2.304059 1_555
Co62 Si10 2.304059 1_555
Co62 Si14 2.356430 1_555
Co62 Si22 2.356430 1_555
Co62 Si39 2.401743 1_555
Co62 Si37 2.401743 1_555
Co62 Nb3 2.833229 1_555
Co62 Nb6 2.833229 1_555
Co62 Nb1 2.833229 1_555
Co62 Nb10 2.833229 1_555
Co63 Si6 2.304059 1_555
Co63 Si3 2.304059 1_555
Co63 Si15 2.356437 1_555
Co63 Si18 2.356437 1_555
Co63 Si37 2.401743 1_565
Co63 Si41 2.401743 1_555
Co63 Nb8 2.833229 1_555
Co63 Nb5 2.833229 1_555
Co63 Nb10 2.833229 1_565
Co63 Nb1 2.833229 1_565
Co64 Si8 2.304059 1_555
Co64 Si4 2.304059 1_555
Co64 Si16 2.356430 1_555
Co64 Si20 2.356430 1_555
Co64 Si36 2.401743 1_555
Co64 Si40 2.401743 1_565
Co64 Nb9 2.833229 1_555
Co64 Nb0 2.833229 1_555
Co64 Nb7 2.833229 1_565
Co64 Nb4 2.833229 1_565
Co65 Si5 2.304059 1_555
Co65 Si7 2.304059 1_555
Co65 Si17 2.356430 1_555
Co65 Si19 2.356430 1_555
Co65 Si39 2.401743 1_555
Co65 Si38 2.401743 1_555
Co65 Nb6 2.833229 1_555
Co65 Nb3 2.833229 1_555
Co65 Nb2 2.833229 1_555
Co65 Nb11 2.833229 1_555
Co66 Si33 2.294719 1_555
Co66 Si24 2.294719 1_554
Co66 Si48 2.336794 1_555
Co66 Si51 2.336794 1_555
Co66 Si57 2.443119 1_555
Co66 Si54 2.443119 1_554
Co66 Co7 2.571585 1_554
Co67 Si25 2.294719 1_554
Co67 Si35 2.294719 1_555
Co67 Si49 2.336794 1_565
Co67 Si52 2.336794 1_565
Co67 Si58 2.443119 1_565
Co67 Si55 2.443119 1_564
Co67 Co8 2.571585 1_554
Co68 Si34 2.294719 1_555
Co68 Si26 2.294719 1_554
Co68 Si53 2.336794 1_555
Co68 Si50 2.336794 1_555
Co68 Si59 2.443119 1_555
Co68 Si56 2.443119 1_554
Co69 Si30 2.294719 1_555
Co69 Si27 2.294719 1_554
Co69 Si48 2.336794 1_555
Co69 Si51 2.336794 1_555
Co69 Si57 2.443119 1_555
Co69 Si54 2.443119 1_554
Co70 Si28 2.294719 1_554
Co70 Si32 2.294719 1_555
Co70 Si50 2.336794 1_655
Co70 Si53 2.336794 1_655
Co70 Si59 2.443119 1_655
Co70 Si56 2.443119 1_654
Co71 Si31 2.294719 1_555
Co71 Si29 2.294719 1_554
Co71 Si52 2.336794 1_555
Co71 Si49 2.336794 1_555
Co71 Si58 2.443119 1_555
Co71 Si55 2.443119 1_554
Co71 Co9 2.571585 1_554
Co72 Si4 2.273315 1_555
Co72 Si1 2.273315 1_555
Co72 Si54 2.344919 1_555
Co72 Si57 2.344919 1_555
Co72 Nb12 2.680735 1_555
Co72 Nb15 2.680735 1_555
Co72 Nb0 2.964340 1_555
Co72 Nb9 2.964340 1_555
Co73 Si2 2.273315 1_555
Co73 Si3 2.273315 1_545
Co73 Si55 2.344919 1_555
Co73 Si58 2.344919 1_555
Co73 Nb13 2.680735 1_545
Co73 Nb17 2.680735 1_555
Co73 Nb1 2.964340 1_555
Co73 Nb10 2.964340 1_555
Co74 Si5 2.273315 1_555
Co74 Si0 2.273315 1_455
Co74 Si56 2.344919 1_555
Co74 Si59 2.344919 1_555
Co74 Nb16 2.680735 1_455
Co74 Nb14 2.680735 1_555
Co74 Nb2 2.964340 1_555
Co74 Nb11 2.964340 1_555
Co75 Si7 2.273315 1_555
Co75 Si10 2.273315 1_555
Co75 Si54 2.344919 1_555
Co75 Si57 2.344919 1_555
Co75 Nb15 2.680735 1_555
Co75 Nb12 2.680735 1_555
Co75 Nb3 2.964340 1_555
Co75 Nb6 2.964340 1_555
Co76 Si8 2.273315 1_545
Co76 Si9 2.273315 1_555
Co76 Si55 2.344919 1_555
Co76 Si58 2.344919 1_555
Co76 Co8 2.660134 1_545
Co76 Co9 2.660134 1_555
Co76 Nb17 2.680735 1_555
Co76 Nb13 2.680735 1_545
Co76 Nb4 2.964340 1_555
Co76 Nb7 2.964340 1_555
Co77 Si11 2.273315 1_455
Co77 Si6 2.273315 1_555
Co77 Si56 2.344919 1_555
Co77 Si59 2.344919 1_555
Co77 Nb14 2.680735 1_555
Co77 Nb16 2.680735 1_455
Co77 Nb5 2.964340 1_555
Co77 Nb8 2.964340 1_555
Co78 Si32 2.325238 1_555
Co78 Si28 2.325238 1_554
Co78 Si29 2.325238 1_554
Co78 Si31 2.325238 1_555
Co78 Si27 2.325249 1_554
Co78 Si30 2.325249 1_555
Co78 Nb18 2.656733 1_555
Co78 Nb19 2.656748 1_555
Co78 Nb20 2.656748 1_555
Co79 Si35 2.325238 1_555
Co79 Si25 2.325238 1_554
Co79 Si34 2.325238 1_555
Co79 Si26 2.325238 1_554
Co79 Si33 2.325249 1_555
Co79 Si24 2.325249 1_554
Co79 Nb21 2.656733 1_555
Co79 Nb22 2.656748 1_555
Co79 Nb23 2.656748 1_555
Si0 Si12 2.589619 1_555
Si0 Si21 2.589619 1_555
Si0 Si9 2.637561 1_555
Si1 Si13 2.589619 1_555
Si1 Si23 2.589619 1_555
Si1 Si11 2.637561 1_555
Si2 Si22 2.589628 1_555
Si3 Si6 2.637561 1_555
Si4 Si8 2.637561 1_555
Si5 Si7 2.637561 1_555
Si10 Si14 2.589619 1_555
Si10 Si22 2.589619 1_555
Si10 Si2 2.637561 1_555
Si11 Si13 2.589628 1_555
Si11 Si23 2.589628 1_555
Si12 Si9 2.589619 1_555
Si14 Si2 2.589628 1_555
Si15 Si6 2.589619 1_555
Si15 Si3 2.589619 1_555
Si16 Si4 2.589619 1_555
Si16 Si8 2.589628 1_555
Si17 Si7 2.589619 1_555
Si17 Si5 2.589628 1_555
Si18 Si6 2.589619 1_555
Si18 Si3 2.589619 1_555
Si19 Si7 2.589619 1_555
Si19 Si5 2.589628 1_555
Si20 Si4 2.589619 1_555
Si20 Si8 2.589628 1_555
Si21 Si9 2.589619 1_555
Si36 Si41 2.492632 1_655
Si36 Si40 2.492632 1_565
Si37 Si39 2.492632 1_555
Si37 Si41 2.492632 1_545
Si38 Si39 2.492632 1_555
Si38 Si40 2.492632 1_455
