# generated using pymatgen
data_Sr3Ta
_symmetry_space_group_name_H-M   'P 1'
_cell_length_a   6.54328110
_cell_length_b   6.54328110
_cell_length_c   6.54328110
_cell_angle_alpha   131.26096104
_cell_angle_beta   131.26096104
_cell_angle_gamma   71.39879335
_symmetry_Int_Tables_number   1
_chemical_formula_structural   Sr3Ta
_chemical_formula_sum   'Sr3 Ta1'
_cell_volume   154.93554125
_cell_formula_units_Z   1
loop_
 _symmetry_equiv_pos_site_id
 _symmetry_equiv_pos_as_xyz
  1  'x, y, z'
loop_
 _atom_site_type_symbol
 _atom_site_label
 _atom_site_symmetry_multiplicity
 _atom_site_fract_x
 _atom_site_fract_y
 _atom_site_fract_z
 _atom_site_occupancy
  Sr  Sr0  1  0.75000000  0.25000000  0.50000000  1
  Sr  Sr1  1  0.25000000  0.75000000  0.50000000  1
  Sr  Sr2  1  0.50000000  0.50000000  0.00000000  1
  Ta  Ta0  1  0.00000000  0.00000000  0.00000000  1
loop_
_geom_bond_atom_site_label_1
_geom_bond_atom_site_label_2
_geom_bond_distance
_geom_bond_site_symmetry_2
Sr0 Sr2 3.787919 1_545
Sr0 Sr2 3.787919 1_556
Sr0 Sr2 3.787919 1_555
Sr0 Ta0 3.787919 1_655
Sr0 Ta0 3.787919 1_656
Sr0 Ta0 3.787919 1_666
Sr0 Ta0 3.787919 1_555
Sr0 Sr2 3.787919 1_656
Sr0 Sr1 3.818218 1_544
Sr0 Sr1 3.818218 1_645
Sr0 Sr1 3.818218 1_555
Sr0 Sr1 3.818218 1_656
Sr1 Ta0 3.787919 1_555
Sr1 Sr2 3.787919 1_556
Sr1 Sr2 3.787919 1_555
Sr1 Sr2 3.787919 1_566
Sr1 Ta0 3.787919 1_566
Sr1 Ta0 3.787919 1_565
Sr1 Sr2 3.787919 1_455
Sr1 Ta0 3.787919 1_666
Sr2 Ta0 3.818218 1_565
Sr2 Ta0 3.818218 1_655
Sr2 Ta0 3.818218 1_666
Sr2 Ta0 3.818218 1_554
