# generated using pymatgen
data_Cu2As3
_symmetry_space_group_name_H-M   'P 1'
_cell_length_a   4.05733300
_cell_length_b   4.05733286
_cell_length_c   6.09021200
_cell_angle_alpha   90.00000000
_cell_angle_beta   90.00000000
_cell_angle_gamma   120.00000929
_symmetry_Int_Tables_number   1
_chemical_formula_structural   Cu2As3
_chemical_formula_sum   'Cu2 As3'
_cell_volume   86.82490032
_cell_formula_units_Z   1
loop_
 _symmetry_equiv_pos_site_id
 _symmetry_equiv_pos_as_xyz
  1  'x, y, z'
loop_
 _atom_site_type_symbol
 _atom_site_label
 _atom_site_symmetry_multiplicity
 _atom_site_fract_x
 _atom_site_fract_y
 _atom_site_fract_z
 _atom_site_occupancy
  Cu  Cu0  1  0.33333300  0.66666700  0.78303100  1
  Cu  Cu1  1  0.66666700  0.33333300  0.21696900  1
  As  As0  1  0.00000000  0.00000000  0.00000000  1
  As  As1  1  0.33333300  0.66666700  0.35066200  1
  As  As2  1  0.66666700  0.33333300  0.64933800  1
loop_
_geom_bond_atom_site_label_1
_geom_bond_atom_site_label_2
_geom_bond_distance
_geom_bond_site_symmetry_2
As0 Cu0 2.689493 1_544
As0 Cu1 2.689493 1_455
As0 Cu0 2.689495 1_554
As0 Cu1 2.689495 1_445
As0 Cu0 2.689495 1_444
As0 Cu1 2.689495 1_555
As1 Cu1 2.479971 1_565
As1 Cu1 2.479971 1_455
As1 Cu1 2.479978 1_555
As1 Cu0 2.633219 1_555
As2 Cu0 2.479971 1_545
As2 Cu0 2.479971 1_655
As2 Cu0 2.479978 1_555
As2 Cu1 2.633219 1_555
