# generated using pymatgen
data_Li5Al(SiO4)2
_symmetry_space_group_name_H-M   'P 1'
_cell_length_a   5.16467285
_cell_length_b   5.16467285
_cell_length_c   6.34127673
_cell_angle_alpha   89.89682422
_cell_angle_beta   89.89682422
_cell_angle_gamma   90.45821368
_symmetry_Int_Tables_number   1
_chemical_formula_structural   Li5Al(SiO4)2
_chemical_formula_sum   'Li5 Al1 Si2 O8'
_cell_volume   169.14027486
_cell_formula_units_Z   1
loop_
 _symmetry_equiv_pos_site_id
 _symmetry_equiv_pos_as_xyz
  1  'x, y, z'
loop_
 _atom_site_type_symbol
 _atom_site_label
 _atom_site_symmetry_multiplicity
 _atom_site_fract_x
 _atom_site_fract_y
 _atom_site_fract_z
 _atom_site_occupancy
  Li  Li0  1  0.32615700  0.67384300  0.00000000  1
  Li  Li1  1  0.69352300  0.30647700  0.50000000  1
  Li  Li2  1  0.68455900  0.31544100  0.00000000  1
  Li  Li3  1  0.17930800  0.19981200  0.23963200  1
  Li  Li4  1  0.80018800  0.82069200  0.76036800  1
  Al  Al0  1  0.32328100  0.67671900  0.50000000  1
  Si  Si0  1  0.81878500  0.82944700  0.24819700  1
  Si  Si1  1  0.17055300  0.18121500  0.75180300  1
  O  O0  1  0.13910500  0.76670100  0.27687000  1
  O  O1  1  0.80210700  0.14268800  0.25245900  1
  O  O2  1  0.85731200  0.19789300  0.74754100  1
  O  O3  1  0.23329900  0.86089500  0.72313000  1
  O  O4  1  0.70752100  0.69537900  0.03633000  1
  O  O5  1  0.66528900  0.70561000  0.46189400  1
  O  O6  1  0.29439000  0.33471100  0.53810600  1
  O  O7  1  0.30462100  0.29247900  0.96367000  1
loop_
_geom_bond_atom_site_label_1
_geom_bond_atom_site_label_2
_geom_bond_distance
_geom_bond_site_symmetry_2
Li0 O7 1.985717 1_554
Li0 O4 1.985717 1_555
Li0 O0 2.061583 1_555
Li0 O3 2.061583 1_554
Li1 O2 1.871714 1_555
Li1 O1 1.871714 1_555
Li1 O6 2.081377 1_555
Li1 O5 2.081377 1_555
Li2 O1 1.932498 1_555
Li2 O2 1.932498 1_554
Li2 O7 1.978785 1_554
Li2 O4 1.978785 1_555
Li3 O7 1.923071 1_554
Li3 O1 1.969512 1_455
Li3 O6 2.103136 1_555
Li3 O0 2.256764 1_545
Li4 O4 1.923071 1_556
Li4 O2 1.969512 1_565
Li4 O5 2.103136 1_555
Li4 O3 2.256764 1_655
Al0 O0 1.769843 1_555
Al0 O3 1.769843 1_555
Al0 O6 1.787400 1_555
Al0 O5 1.787400 1_555
O0 Si0 1.698349 1_455
O1 Si0 1.621038 1_545
O2 Si1 1.621038 1_655
O3 Si1 1.698349 1_565
O4 Si0 1.616921 1_555
O5 Si0 1.690784 1_555
O6 Si1 1.690784 1_555
O7 Si1 1.616921 1_555
