# generated using pymatgen
data_K2VCl6
_symmetry_space_group_name_H-M   'P 1'
_cell_length_a   6.86923807
_cell_length_b   6.86923589
_cell_length_c   6.86923589
_cell_angle_alpha   60.00002098
_cell_angle_beta   59.99998951
_cell_angle_gamma   59.99998951
_symmetry_Int_Tables_number   1
_chemical_formula_structural   K2VCl6
_chemical_formula_sum   'K2 V1 Cl6'
_cell_volume   229.19779281
_cell_formula_units_Z   1
loop_
 _symmetry_equiv_pos_site_id
 _symmetry_equiv_pos_as_xyz
  1  'x, y, z'
loop_
 _atom_site_type_symbol
 _atom_site_label
 _atom_site_symmetry_multiplicity
 _atom_site_fract_x
 _atom_site_fract_y
 _atom_site_fract_z
 _atom_site_occupancy
  K  K0  1  0.25000000  0.25000000  0.25000000  1
  K  K1  1  0.75000000  0.75000000  0.75000000  1
  V  V0  1  0.00000000  0.00000000  -0.00000000  1
  Cl  Cl0  1  0.76182463  0.23817537  0.23817537  1
  Cl  Cl1  1  0.23817537  0.76182463  0.76182463  1
  Cl  Cl2  1  0.23817337  0.76182663  0.23817337  1
  Cl  Cl3  1  0.76182663  0.23817337  0.76182663  1
  Cl  Cl4  1  0.23817237  0.23817237  0.76182763  1
  Cl  Cl5  1  0.76182763  0.76182763  0.23817237  1
loop_
_geom_bond_atom_site_label_1
_geom_bond_atom_site_label_2
_geom_bond_distance
_geom_bond_site_symmetry_2
Cl0 V0 2.313770 1_655
Cl0 K0 3.436539 1_555
Cl0 K1 3.436539 1_554
Cl0 K0 3.436539 1_655
Cl0 K1 3.436539 1_545
Cl1 V0 2.313770 1_566
Cl1 K0 3.436539 1_556
Cl1 K1 3.436539 1_555
Cl1 K0 3.436539 1_565
Cl1 K1 3.436539 1_455
Cl2 V0 2.313752 1_565
Cl2 K0 3.436539 1_555
Cl2 K1 3.436539 1_455
Cl2 K1 3.436539 1_554
Cl2 K0 3.436539 1_565
Cl3 V0 2.313752 1_656
Cl3 K1 3.436539 1_545
Cl3 K0 3.436539 1_655
Cl3 K0 3.436539 1_556
Cl3 K1 3.436539 1_555
Cl4 V0 2.313742 1_556
Cl4 K1 3.436539 1_455
Cl4 K0 3.436539 1_555
Cl4 K0 3.436539 1_556
Cl4 K1 3.436539 1_545
Cl5 V0 2.313742 1_665
Cl5 K0 3.436539 1_565
Cl5 K1 3.436539 1_555
Cl5 K1 3.436539 1_554
Cl5 K0 3.436539 1_655
