# generated using pymatgen
data_Nb2Co4P3
_symmetry_space_group_name_H-M   'P 1'
_cell_length_a   11.91821975
_cell_length_b   11.91821975
_cell_length_c   3.60721700
_cell_angle_alpha   90.00000000
_cell_angle_beta   90.00000000
_cell_angle_gamma   119.99999862
_symmetry_Int_Tables_number   1
_chemical_formula_structural   Nb2Co4P3
_chemical_formula_sum   'Nb8 Co16 P12'
_cell_volume   443.73704236
_cell_formula_units_Z   4
loop_
 _symmetry_equiv_pos_site_id
 _symmetry_equiv_pos_as_xyz
  1  'x, y, z'
loop_
 _atom_site_type_symbol
 _atom_site_label
 _atom_site_symmetry_multiplicity
 _atom_site_fract_x
 _atom_site_fract_y
 _atom_site_fract_z
 _atom_site_occupancy
  Nb  Nb0  1  0.82394500  0.00000000  0.50000000  1
  Nb  Nb1  1  0.00000000  0.82394500  0.50000000  1
  Nb  Nb2  1  0.17605500  0.17605500  0.50000000  1
  Nb  Nb3  1  0.33333300  0.66666700  0.00000000  1
  Nb  Nb4  1  0.66666700  0.33333300  0.00000000  1
  Nb  Nb5  1  0.44770400  0.00000000  0.00000000  1
  Nb  Nb6  1  0.00000000  0.44770400  0.00000000  1
  Nb  Nb7  1  0.55229600  0.55229600  0.00000000  1
  Co  Co0  1  0.27578100  0.00000000  0.50000000  1
  Co  Co1  1  0.00000000  0.27578100  0.50000000  1
  Co  Co2  1  0.72421900  0.72421900  0.50000000  1
  Co  Co3  1  0.62940900  0.80804900  0.00000000  1
  Co  Co4  1  0.19195100  0.82136000  0.00000000  1
  Co  Co5  1  0.17864000  0.37059100  0.00000000  1
  Co  Co6  1  0.37059100  0.17864000  0.00000000  1
  Co  Co7  1  0.80804900  0.62940900  0.00000000  1
  Co  Co8  1  0.82136000  0.19195100  0.00000000  1
  Co  Co9  1  0.51688500  0.87090300  0.50000000  1
  Co  Co10  1  0.12909700  0.64598200  0.50000000  1
  Co  Co11  1  0.35401800  0.48311500  0.50000000  1
  Co  Co12  1  0.48311500  0.35401800  0.50000000  1
  Co  Co13  1  0.87090300  0.51688500  0.50000000  1
  Co  Co14  1  0.64598200  0.12909700  0.50000000  1
  Co  Co15  1  0.00000000  0.00000000  0.00000000  1
  P  P0  1  0.17584900  0.00000000  0.00000000  1
  P  P1  1  0.00000000  0.17584900  0.00000000  1
  P  P2  1  0.82415100  0.82415100  0.00000000  1
  P  P3  1  0.51607600  0.68788700  0.50000000  1
  P  P4  1  0.31211300  0.82818900  0.50000000  1
  P  P5  1  0.17181100  0.48392400  0.50000000  1
  P  P6  1  0.48392400  0.17181100  0.50000000  1
  P  P7  1  0.68788700  0.51607600  0.50000000  1
  P  P8  1  0.82818900  0.31211300  0.50000000  1
  P  P9  1  0.65027500  0.00000000  0.00000000  1
  P  P10  1  0.00000000  0.65027500  0.00000000  1
  P  P11  1  0.34972500  0.34972500  0.00000000  1
loop_
_geom_bond_atom_site_label_1
_geom_bond_atom_site_label_2
_geom_bond_distance
_geom_bond_site_symmetry_2
Nb0 P9 2.745402 1_556
Nb0 P9 2.745402 1_555
Nb0 P2 2.765965 1_545
Nb0 P2 2.765965 1_546
Nb0 P1 2.765965 1_655
Nb0 P1 2.765965 1_656
Nb1 P10 2.745402 1_555
Nb1 P10 2.745402 1_556
Nb1 P2 2.765965 1_455
Nb1 P2 2.765965 1_456
Nb1 P0 2.765965 1_566
Nb1 P0 2.765965 1_565
Nb2 P11 2.745402 1_555
Nb2 P11 2.745402 1_556
Nb2 P0 2.765965 1_555
Nb2 P0 2.765965 1_556
Nb2 P1 2.765965 1_555
Nb2 P1 2.765965 1_556
Nb3 P4 2.740375 1_555
Nb3 P4 2.740375 1_554
Nb3 P5 2.740380 1_554
Nb3 P5 2.740380 1_555
Nb3 P3 2.740384 1_555
Nb3 P3 2.740384 1_554
Nb4 P8 2.740375 1_555
Nb4 P8 2.740375 1_554
Nb4 P6 2.740380 1_554
Nb4 P6 2.740380 1_555
Nb4 P7 2.740384 1_555
Nb4 P7 2.740384 1_554
Nb5 P9 2.414286 1_555
Nb5 P6 2.597770 1_554
Nb5 P6 2.597770 1_555
Nb5 P4 2.597770 1_544
Nb5 P4 2.597770 1_545
Nb6 P10 2.414286 1_555
Nb6 P5 2.597770 1_554
Nb6 P5 2.597770 1_555
Nb6 P8 2.597770 1_455
Nb6 P8 2.597770 1_454
Nb7 P11 2.414286 1_555
Nb7 P3 2.597770 1_555
Nb7 P7 2.597770 1_555
Nb7 P7 2.597770 1_554
Nb7 P3 2.597770 1_554
Co0 P0 2.161368 1_555
Co0 P0 2.161368 1_556
Co0 P4 2.295032 1_545
Co0 P6 2.295032 1_555
Co0 Nb5 2.729738 1_556
Co0 Nb5 2.729738 1_555
Co0 Nb2 2.882581 1_555
Co0 Nb1 2.882581 1_545
Co1 P1 2.161368 1_556
Co1 P1 2.161368 1_555
Co1 P8 2.295032 1_455
Co1 P5 2.295032 1_555
Co1 Nb6 2.729738 1_555
Co1 Nb6 2.729738 1_556
Co1 Nb2 2.882581 1_555
Co1 Nb0 2.882581 1_455
Co2 P2 2.161368 1_556
Co2 P2 2.161368 1_555
Co2 P7 2.295032 1_555
Co2 P3 2.295032 1_555
Co2 Nb7 2.729738 1_555
Co2 Nb7 2.729738 1_556
Co2 Nb1 2.882581 1_655
Co2 Nb0 2.882581 1_565
Co3 P9 2.174065 1_565
Co3 P2 2.231223 1_555
Co3 P3 2.279041 1_555
Co3 P3 2.279041 1_554
Co3 Nb7 2.708194 1_555
Co3 Nb0 2.925418 1_565
Co3 Nb0 2.925418 1_564
Co4 P10 2.174065 1_555
Co4 P0 2.231223 1_565
Co4 P4 2.279041 1_555
Co4 P4 2.279041 1_554
Co4 Nb5 2.708194 1_565
Co4 Nb1 2.925418 1_555
Co4 Nb1 2.925418 1_554
Co5 P11 2.174065 1_555
Co5 P1 2.231223 1_555
Co5 P5 2.279041 1_554
Co5 P5 2.279041 1_555
Co5 Nb6 2.708194 1_555
Co5 Nb2 2.925418 1_555
Co5 Nb2 2.925418 1_554
Co6 P11 2.174065 1_555
Co6 P0 2.231223 1_555
Co6 P6 2.279041 1_555
Co6 P6 2.279041 1_554
Co6 Nb5 2.708194 1_555
Co6 Nb2 2.925418 1_555
Co6 Nb2 2.925418 1_554
Co7 P10 2.174065 1_655
Co7 P2 2.231223 1_555
Co7 P7 2.279041 1_555
Co7 P7 2.279041 1_554
Co7 Nb7 2.708194 1_555
Co7 Nb1 2.925418 1_655
Co7 Nb1 2.925418 1_654
Co8 P9 2.174065 1_555
Co8 P1 2.231223 1_655
Co8 P8 2.279041 1_554
Co8 P8 2.279041 1_555
Co8 Nb6 2.708194 1_655
Co8 Nb0 2.925418 1_555
Co8 Nb0 2.925418 1_554
Co9 P3 2.176420 1_555
Co9 P4 2.229995 1_555
Co9 P9 2.387814 1_566
Co9 P9 2.387814 1_565
Co9 Nb5 2.751134 1_565
Co9 Nb5 2.751134 1_566
Co10 P4 2.176420 1_555
Co10 P5 2.229995 1_555
Co10 P10 2.387814 1_555
Co10 P10 2.387814 1_556
Co10 Nb6 2.751134 1_555
Co10 Nb6 2.751134 1_556
Co11 P5 2.176420 1_555
Co11 P3 2.229995 1_555
Co11 P11 2.387814 1_555
Co11 P11 2.387814 1_556
Co11 Nb7 2.751134 1_555
Co11 Nb7 2.751134 1_556
Co12 P6 2.176420 1_555
Co12 P7 2.229995 1_555
Co12 P11 2.387814 1_555
Co12 P11 2.387814 1_556
Co12 Nb7 2.751134 1_555
Co12 Nb7 2.751134 1_556
Co13 P7 2.176420 1_555
Co13 P8 2.229995 1_555
Co13 P10 2.387814 1_656
Co13 P10 2.387814 1_655
Co13 Nb6 2.751134 1_656
Co13 Nb6 2.751134 1_655
Co14 P8 2.176420 1_555
Co14 P6 2.229995 1_555
Co14 P9 2.387814 1_556
Co14 P9 2.387814 1_555
Co14 Nb5 2.751134 1_555
Co14 Nb5 2.751134 1_556
Co15 P1 2.095807 1_555
Co15 P0 2.095807 1_555
Co15 P2 2.095807 1_445
Co15 Nb1 2.766895 1_545
Co15 Nb1 2.766895 1_544
Co15 Nb0 2.766895 1_455
Co15 Nb0 2.766895 1_454
Co15 Nb2 2.766895 1_555
Co15 Nb2 2.766895 1_554
