# generated using pymatgen
data_CeMg5
_symmetry_space_group_name_H-M   'P 1'
_cell_length_a   5.79836578
_cell_length_b   5.79836578
_cell_length_c   5.35231200
_cell_angle_alpha   90.00000000
_cell_angle_beta   90.00000000
_cell_angle_gamma   119.99999747
_symmetry_Int_Tables_number   1
_chemical_formula_structural   CeMg5
_chemical_formula_sum   'Ce1 Mg5'
_cell_volume   155.84155799
_cell_formula_units_Z   1
loop_
 _symmetry_equiv_pos_site_id
 _symmetry_equiv_pos_as_xyz
  1  'x, y, z'
loop_
 _atom_site_type_symbol
 _atom_site_label
 _atom_site_symmetry_multiplicity
 _atom_site_fract_x
 _atom_site_fract_y
 _atom_site_fract_z
 _atom_site_occupancy
  Ce  Ce0  1  0.00000000  0.00000000  0.50000000  1
  Mg  Mg0  1  0.64758200  0.00000000  0.00000000  1
  Mg  Mg1  1  0.35241800  0.35241800  0.00000000  1
  Mg  Mg2  1  0.00000000  0.64758200  0.00000000  1
  Mg  Mg3  1  0.66666700  0.33333300  0.50000000  1
  Mg  Mg4  1  0.33333300  0.66666700  0.50000000  1
loop_
_geom_bond_atom_site_label_1
_geom_bond_atom_site_label_2
_geom_bond_distance
_geom_bond_site_symmetry_2
Ce0 Mg3 3.347685 1_455
Ce0 Mg4 3.347685 1_545
Ce0 Mg3 3.347690 1_555
Ce0 Mg4 3.347690 1_445
Ce0 Mg4 3.347690 1_555
Ce0 Mg3 3.347690 1_445
Ce0 Mg0 3.367119 1_456
Ce0 Mg2 3.367119 1_545
Ce0 Mg0 3.367119 1_455
Ce0 Mg2 3.367119 1_546
Ce0 Mg1 3.367119 1_555
Ce0 Mg1 3.367119 1_556
Mg0 Mg1 3.256087 1_555
Mg0 Mg1 3.256088 1_545
Mg0 Mg2 3.256088 1_655
Mg0 Mg2 3.256088 1_545
Mg0 Mg3 3.270449 1_555
Mg0 Mg3 3.270449 1_554
Mg0 Mg4 3.270450 1_545
Mg0 Mg4 3.270450 1_544
Mg1 Mg2 3.256087 1_555
Mg1 Mg2 3.256088 1_655
Mg1 Mg3 3.270452 1_554
Mg1 Mg4 3.270452 1_555
Mg1 Mg3 3.270452 1_555
Mg1 Mg4 3.270452 1_554
Mg2 Mg4 3.270449 1_554
Mg2 Mg4 3.270449 1_555
Mg2 Mg3 3.270450 1_455
Mg2 Mg3 3.270450 1_454
Mg3 Mg4 3.347685 1_545
Mg3 Mg4 3.347685 1_655
Mg3 Mg4 3.347695 1_555
