# generated using pymatgen
data_Mg13Al16
_symmetry_space_group_name_H-M   'P 1'
_cell_length_a   9.02693266
_cell_length_b   9.02693266
_cell_length_c   9.02693266
_cell_angle_alpha   109.47122063
_cell_angle_beta   109.47122063
_cell_angle_gamma   109.47122063
_symmetry_Int_Tables_number   1
_chemical_formula_structural   Mg13Al16
_chemical_formula_sum   'Mg13 Al16'
_cell_volume   566.23761623
_cell_formula_units_Z   1
loop_
 _symmetry_equiv_pos_site_id
 _symmetry_equiv_pos_as_xyz
  1  'x, y, z'
loop_
 _atom_site_type_symbol
 _atom_site_label
 _atom_site_symmetry_multiplicity
 _atom_site_fract_x
 _atom_site_fract_y
 _atom_site_fract_z
 _atom_site_occupancy
  Mg  Mg0  1  0.40240200  0.68732700  0.00000000  1
  Mg  Mg1  1  0.71507600  0.31267300  0.31267300  1
  Mg  Mg2  1  0.40240200  0.00000000  0.68732700  1
  Mg  Mg3  1  0.68732700  0.40240200  0.00000000  1
  Mg  Mg4  1  0.00000000  0.40240200  0.68732700  1
  Mg  Mg5  1  0.31267300  0.71507600  0.31267300  1
  Mg  Mg6  1  0.31267300  0.31267300  0.71507600  1
  Mg  Mg7  1  0.00000000  0.68732700  0.40240200  1
  Mg  Mg8  1  0.68732700  0.00000000  0.40240200  1
  Mg  Mg9  1  0.59759800  0.59759800  0.28492400  1
  Mg  Mg10  1  0.28492400  0.59759800  0.59759800  1
  Mg  Mg11  1  0.59759800  0.28492400  0.59759800  1
  Mg  Mg12  1  0.00000000  0.00000000  0.00000000  1
  Al  Al0  1  0.36652000  0.18576200  0.00000000  1
  Al  Al1  1  0.18075700  0.81423800  0.81423800  1
  Al  Al2  1  0.36652000  0.00000000  0.18576200  1
  Al  Al3  1  0.18576200  0.36652000  0.00000000  1
  Al  Al4  1  0.00000000  0.36652000  0.18576200  1
  Al  Al5  1  0.81423800  0.18075700  0.81423800  1
  Al  Al6  1  0.81423800  0.81423800  0.18075700  1
  Al  Al7  1  0.00000000  0.18576200  0.36652000  1
  Al  Al8  1  0.18576200  0.00000000  0.36652000  1
  Al  Al9  1  0.63348000  0.63348000  0.81924300  1
  Al  Al10  1  0.81924300  0.63348000  0.63348000  1
  Al  Al11  1  0.63348000  0.81924300  0.63348000  1
  Al  Al12  1  0.65663600  0.00000000  0.00000000  1
  Al  Al13  1  0.00000000  0.65663600  0.00000000  1
  Al  Al14  1  0.00000000  0.00000000  0.65663600  1
  Al  Al15  1  0.34336400  0.34336400  0.34336400  1
loop_
_geom_bond_atom_site_label_1
_geom_bond_atom_site_label_2
_geom_bond_distance
_geom_bond_site_symmetry_2
Mg0 Mg9 3.113671 1_555
Mg0 Mg6 3.113674 1_554
Mg0 Mg5 3.142167 1_555
Mg0 Mg10 3.142167 1_554
Mg0 Mg8 3.142168 1_565
Mg0 Mg4 3.142168 1_554
Mg1 Mg7 3.113674 1_655
Mg1 Mg4 3.113674 1_655
Mg1 Mg8 3.142167 1_555
Mg1 Mg3 3.142167 1_555
Mg1 Mg11 3.142176 1_555
Mg1 Mg9 3.142176 1_555
Mg2 Mg5 3.113674 1_545
Mg2 Mg6 3.142167 1_555
Mg2 Mg3 3.142168 1_556
Mg2 Mg7 3.142168 1_545
Mg3 Mg9 3.113671 1_555
Mg3 Mg6 3.113674 1_554
Mg3 Mg7 3.142168 1_655
Mg4 Mg6 3.142167 1_555
Mg4 Mg8 3.142168 1_455
Mg5 Mg8 3.113674 1_565
Mg5 Mg7 3.142167 1_555
Mg5 Mg9 3.142176 1_555
Mg7 Mg9 3.142167 1_455
Mg8 Mg9 3.142167 1_545
Mg10 Mg4 3.113671 1_555
Mg10 Mg7 3.113671 1_555
Mg10 Mg2 3.142167 1_565
Mg10 Mg5 3.142176 1_555
Mg10 Mg6 3.142176 1_555
Mg11 Mg2 3.113671 1_555
Mg11 Mg8 3.113671 1_555
Mg11 Mg4 3.142167 1_655
Mg11 Mg3 3.142167 1_556
Mg11 Mg6 3.142176 1_555
Al0 Al3 2.664539 1_555
Al0 Al2 2.738303 1_555
Al0 Al1 2.738303 1_544
Al0 Mg3 2.904330 1_555
Al0 Mg2 2.949485 1_554
Al0 Mg1 2.949490 1_555
Al0 Al14 3.060256 1_554
Al0 Al15 3.060256 1_555
Al0 Mg6 3.109014 1_554
Al0 Mg9 3.109020 1_555
Al0 Mg12 3.171706 1_555
Al1 Al10 2.664524 1_455
Al1 Al2 2.738303 1_566
Al1 Mg10 2.904330 1_555
Al1 Mg2 2.949490 1_565
Al1 Mg0 2.949490 1_556
Al1 Al13 3.060251 1_556
Al1 Al14 3.060251 1_565
Al1 Mg4 3.109022 1_555
Al1 Mg7 3.109022 1_555
Al1 Mg12 3.171699 1_566
Al2 Al8 2.664539 1_555
Al2 Mg8 2.904330 1_555
Al2 Mg0 2.949485 1_545
Al2 Mg1 2.949490 1_555
Al2 Mg5 3.109014 1_545
Al2 Mg11 3.109020 1_555
Al2 Mg12 3.171706 1_555
Al3 Al4 2.738303 1_555
Al3 Al5 2.738303 1_454
Al3 Mg0 2.904330 1_555
Al3 Mg4 2.949485 1_554
Al3 Mg5 2.949490 1_555
Al3 Mg6 3.109014 1_554
Al3 Mg9 3.109020 1_555
Al3 Mg12 3.171706 1_555
Al4 Al7 2.664539 1_555
Al4 Al5 2.738303 1_454
Al4 Mg7 2.904330 1_555
Al4 Mg3 2.949485 1_455
Al4 Mg5 2.949490 1_555
Al4 Mg1 3.109014 1_455
Al4 Mg10 3.109020 1_555
Al4 Mg12 3.171706 1_555
Al5 Mg11 2.904330 1_555
Al5 Mg4 2.949490 1_655
Al5 Mg3 2.949490 1_556
Al5 Mg2 3.109022 1_555
Al5 Mg8 3.109022 1_555
Al5 Mg12 3.171699 1_656
Al6 Al9 2.664524 1_554
Al6 Al8 2.738303 1_665
Al6 Al7 2.738303 1_665
Al6 Mg9 2.904330 1_555
Al6 Mg7 2.949490 1_655
Al6 Mg8 2.949490 1_565
Al6 Mg0 3.109022 1_555
Al6 Mg3 3.109022 1_555
Al6 Mg12 3.171699 1_665
Al7 Al8 2.738303 1_555
Al7 Mg4 2.904330 1_555
Al7 Mg8 2.949485 1_455
Al7 Mg6 2.949490 1_555
Al7 Mg1 3.109014 1_455
Al7 Mg10 3.109020 1_555
Al7 Mg12 3.171706 1_555
Al8 Mg2 2.904330 1_555
Al8 Mg7 2.949485 1_545
Al8 Mg6 2.949490 1_555
Al8 Mg5 3.109014 1_545
Al8 Mg11 3.109020 1_555
Al8 Mg12 3.171706 1_555
Al9 Mg6 2.904330 1_555
Al9 Mg11 2.949495 1_555
Al9 Mg10 2.949495 1_555
Al9 Mg3 3.109016 1_556
Al9 Mg0 3.109016 1_556
Al9 Mg12 3.171708 1_666
Al10 Al9 2.738317 1_555
Al10 Al11 2.738317 1_555
Al10 Mg1 2.904330 1_555
Al10 Mg11 2.949495 1_555
Al10 Mg9 2.949495 1_555
Al10 Al14 3.060254 1_665
Al10 Al13 3.060254 1_656
Al10 Mg7 3.109016 1_655
Al10 Mg4 3.109016 1_655
Al10 Mg12 3.171708 1_666
Al11 Al5 2.664524 1_565
Al11 Al9 2.738317 1_555
Al11 Mg5 2.904330 1_555
Al11 Mg9 2.949495 1_555
Al11 Mg10 2.949495 1_555
Al11 Al14 3.060254 1_665
Al11 Al12 3.060254 1_566
Al11 Mg8 3.109016 1_565
Al11 Mg2 3.109016 1_565
Al11 Mg12 3.171708 1_666
Al12 Mg1 2.985777 1_555
Al12 Mg2 2.985781 1_554
Al12 Mg0 2.985781 1_545
Al12 Al6 3.060251 1_545
Al12 Al5 3.060251 1_554
Al12 Al9 3.060254 1_544
Al12 Al7 3.060256 1_655
Al12 Al4 3.060256 1_655
Al12 Mg12 3.099524 1_655
Al13 Mg5 2.985777 1_555
Al13 Mg3 2.985781 1_455
Al13 Mg4 2.985781 1_554
Al13 Al6 3.060251 1_455
Al13 Al9 3.060254 1_454
Al13 Al8 3.060256 1_565
Al13 Al2 3.060256 1_565
Al13 Mg12 3.099524 1_565
Al14 Mg6 2.985777 1_555
Al14 Mg7 2.985781 1_545
Al14 Mg8 2.985781 1_455
Al14 Al5 3.060251 1_455
Al14 Al3 3.060256 1_556
Al14 Mg12 3.099524 1_556
Al15 Mg9 2.985787 1_555
Al15 Mg11 2.985787 1_555
Al15 Mg10 2.985787 1_555
Al15 Al7 3.060256 1_555
Al15 Al4 3.060256 1_555
Al15 Al8 3.060256 1_555
Al15 Al2 3.060256 1_555
Al15 Al3 3.060256 1_555
Al15 Mg12 3.099524 1_555
