# generated using pymatgen
data_MnCu2Sn3S8
_symmetry_space_group_name_H-M   'P 1'
_cell_length_a   7.38018749
_cell_length_b   7.38018749
_cell_length_c   7.38018779
_cell_angle_alpha   60.54227240
_cell_angle_beta   60.54227240
_cell_angle_gamma   60.54227304
_symmetry_Int_Tables_number   1
_chemical_formula_structural   MnCu2Sn3S8
_chemical_formula_sum   'Mn1 Cu2 Sn3 S8'
_cell_volume   287.72381600
_cell_formula_units_Z   1
loop_
 _symmetry_equiv_pos_site_id
 _symmetry_equiv_pos_as_xyz
  1  'x, y, z'
loop_
 _atom_site_type_symbol
 _atom_site_label
 _atom_site_symmetry_multiplicity
 _atom_site_fract_x
 _atom_site_fract_y
 _atom_site_fract_z
 _atom_site_occupancy
  Mn  Mn0  1  0.00000000  0.00000000  0.00000000  1
  Cu  Cu0  1  0.38139900  0.38139900  0.38139900  1
  Cu  Cu1  1  0.61860100  0.61860100  0.61860100  1
  Sn  Sn0  1  0.00000000  0.50000000  0.00000000  1
  Sn  Sn1  1  0.00000000  0.00000000  0.50000000  1
  Sn  Sn2  1  0.50000000  0.00000000  0.00000000  1
  S  S0  1  0.75828800  0.23709900  0.75828800  1
  S  S1  1  0.74913800  0.74913800  0.74913800  1
  S  S2  1  0.76290100  0.24171200  0.24171200  1
  S  S3  1  0.24171200  0.24171200  0.76290100  1
  S  S4  1  0.24171200  0.76290100  0.24171200  1
  S  S5  1  0.25086200  0.25086200  0.25086200  1
  S  S6  1  0.23709900  0.75828800  0.75828800  1
  S  S7  1  0.75828800  0.75828800  0.23709900  1
loop_
_geom_bond_atom_site_label_1
_geom_bond_atom_site_label_2
_geom_bond_distance
_geom_bond_site_symmetry_2
Mn0 S3 2.532968 1_554
Mn0 S7 2.532968 1_445
Mn0 S4 2.532968 1_545
Mn0 S2 2.532968 1_455
Mn0 S0 2.532968 1_454
Mn0 S6 2.532968 1_544
Cu0 S4 2.321308 1_555
Cu0 S2 2.321308 1_555
Cu0 S3 2.321308 1_555
Cu0 S5 2.350091 1_555
Cu1 S0 2.321308 1_555
Cu1 S6 2.321308 1_555
Cu1 S7 2.321308 1_555
Cu1 S1 2.350091 1_555
S0 Sn2 2.596880 1_556
S0 Sn1 2.596880 1_655
S1 Sn1 2.628908 1_665
S1 Sn2 2.628908 1_566
S1 Sn0 2.628908 1_656
S2 Sn0 2.596880 1_655
S2 Sn1 2.596880 1_655
S3 Sn2 2.596880 1_556
S3 Sn0 2.596880 1_556
S4 Sn2 2.596880 1_565
S4 Sn1 2.596880 1_565
S5 Sn1 2.628908 1_555
S5 Sn2 2.628908 1_555
S5 Sn0 2.628908 1_555
S6 Sn0 2.596880 1_556
S6 Sn1 2.596880 1_565
S7 Sn0 2.596880 1_655
S7 Sn2 2.596880 1_565
