# generated using pymatgen
data_Er2SO2
_symmetry_space_group_name_H-M   'P 1'
_cell_length_a   3.73803603
_cell_length_b   3.73803622
_cell_length_c   6.52200321
_cell_angle_alpha   90.00000000
_cell_angle_beta   90.00000000
_cell_angle_gamma   119.99998941
_symmetry_Int_Tables_number   1
_chemical_formula_structural   Er2SO2
_chemical_formula_sum   'Er2 S1 O2'
_cell_volume   78.92210756
_cell_formula_units_Z   1
loop_
 _symmetry_equiv_pos_site_id
 _symmetry_equiv_pos_as_xyz
  1  'x, y, z'
loop_
 _atom_site_type_symbol
 _atom_site_label
 _atom_site_symmetry_multiplicity
 _atom_site_fract_x
 _atom_site_fract_y
 _atom_site_fract_z
 _atom_site_occupancy
  Er  Er0  1  0.66666700  0.33333300  0.71643399  1
  Er  Er1  1  0.33333300  0.66666700  0.28356601  1
  S  S0  1  -0.00000000  -0.00000000  -0.00000000  1
  O  O0  1  0.66666700  0.33333300  0.37080870  1
  O  O1  1  0.33333300  0.66666700  0.62919130  1
loop_
_geom_bond_atom_site_label_1
_geom_bond_atom_site_label_2
_geom_bond_distance
_geom_bond_site_symmetry_2
Er0 O1 2.231902 1_655
Er0 O1 2.231902 1_545
Er0 O1 2.231908 1_555
Er0 O0 2.254169 1_555
Er0 S0 2.842178 1_656
Er0 S0 2.842181 1_556
Er0 S0 2.842181 1_666
Er1 O0 2.231902 1_455
Er1 O0 2.231902 1_565
Er1 O0 2.231908 1_555
Er1 O1 2.254169 1_555
Er1 S0 2.842178 1_565
Er1 S0 2.842181 1_665
Er1 S0 2.842181 1_555
