# generated using pymatgen
data_CrGa
_symmetry_space_group_name_H-M   'P 1'
_cell_length_a   7.79108226
_cell_length_b   7.79108226
_cell_length_c   7.79108201
_cell_angle_alpha   109.33931002
_cell_angle_beta   109.33931002
_cell_angle_gamma   109.33931536
_symmetry_Int_Tables_number   1
_chemical_formula_structural   CrGa
_chemical_formula_sum   'Cr13 Ga13'
_cell_volume   365.82592881
_cell_formula_units_Z   13
loop_
 _symmetry_equiv_pos_site_id
 _symmetry_equiv_pos_as_xyz
  1  'x, y, z'
loop_
 _atom_site_type_symbol
 _atom_site_label
 _atom_site_symmetry_multiplicity
 _atom_site_fract_x
 _atom_site_fract_y
 _atom_site_fract_z
 _atom_site_occupancy
  Cr  Cr0  1  0.50000000  0.50000000  0.50000000  1
  Cr  Cr1  1  0.85421300  0.19796700  0.19796700  1
  Cr  Cr2  1  0.19796700  0.85421300  0.19796700  1
  Cr  Cr3  1  0.19796700  0.19796700  0.85421300  1
  Cr  Cr4  1  0.14578700  0.80203300  0.80203300  1
  Cr  Cr5  1  0.80203300  0.14578700  0.80203300  1
  Cr  Cr6  1  0.80203300  0.80203300  0.14578700  1
  Cr  Cr7  1  0.39350900  0.17690600  0.17690600  1
  Cr  Cr8  1  0.17690600  0.39350900  0.17690600  1
  Cr  Cr9  1  0.17690600  0.17690600  0.39350900  1
  Cr  Cr10  1  0.60649100  0.82309400  0.82309400  1
  Cr  Cr11  1  0.82309400  0.60649100  0.82309400  1
  Cr  Cr12  1  0.82309400  0.82309400  0.60649100  1
  Ga  Ga0  1  0.00000000  0.00000000  0.00000000  1
  Ga  Ga1  1  0.19162200  0.54290200  0.54290200  1
  Ga  Ga2  1  0.54290200  0.19162200  0.54290200  1
  Ga  Ga3  1  0.54290200  0.54290200  0.19162200  1
  Ga  Ga4  1  0.80837800  0.45709800  0.45709800  1
  Ga  Ga5  1  0.45709800  0.80837800  0.45709800  1
  Ga  Ga6  1  0.45709800  0.45709800  0.80837800  1
  Ga  Ga7  1  0.11484900  0.50000000  0.88515100  1
  Ga  Ga8  1  0.88515100  0.11484900  0.50000000  1
  Ga  Ga9  1  0.50000000  0.88515100  0.11484900  1
  Ga  Ga10  1  0.88515100  0.50000000  0.11484900  1
  Ga  Ga11  1  0.11484900  0.88515100  0.50000000  1
  Ga  Ga12  1  0.50000000  0.11484900  0.88515100  1
loop_
_geom_bond_atom_site_label_1
_geom_bond_atom_site_label_2
_geom_bond_distance
_geom_bond_site_symmetry_2
Cr0 Cr12 2.529444 1_555
Cr0 Cr9 2.529444 1_555
Cr0 Cr11 2.529444 1_555
Cr0 Cr10 2.529444 1_555
Cr0 Cr7 2.529444 1_555
Cr0 Cr8 2.529444 1_555
Cr0 Ga6 2.643052 1_555
Cr0 Ga3 2.643052 1_555
Cr0 Ga5 2.643052 1_555
Cr0 Ga4 2.643052 1_555
Cr0 Ga1 2.643052 1_555
Cr0 Ga2 2.643052 1_555
Cr1 Ga4 2.556348 1_555
Cr1 Cr8 2.563341 1_655
Cr1 Cr9 2.563341 1_655
Cr1 Ga8 2.598430 1_555
Cr1 Ga10 2.598430 1_555
Cr1 Ga0 2.606339 1_655
Cr1 Ga1 2.685763 1_655
Cr1 Ga9 2.700269 1_545
Cr1 Ga12 2.700269 1_554
Cr1 Cr10 2.769257 1_544
Cr1 Cr5 2.841758 1_554
Cr1 Cr6 2.841758 1_545
Cr2 Ga5 2.556348 1_555
Cr2 Cr7 2.563341 1_565
Cr2 Cr9 2.563341 1_565
Cr2 Ga11 2.598430 1_555
Cr2 Ga9 2.598430 1_555
Cr2 Ga0 2.606339 1_565
Cr2 Ga2 2.685763 1_565
Cr2 Ga10 2.700269 1_455
Cr2 Ga7 2.700269 1_554
Cr2 Cr4 2.841758 1_554
Cr2 Cr6 2.841758 1_455
Cr3 Ga6 2.556348 1_555
Cr3 Cr7 2.563341 1_556
Cr3 Cr8 2.563341 1_556
Cr3 Ga12 2.598430 1_555
Cr3 Ga7 2.598430 1_555
Cr3 Ga0 2.606339 1_556
Cr3 Ga3 2.685763 1_556
Cr3 Ga8 2.700269 1_455
Cr3 Ga11 2.700269 1_545
Cr3 Cr4 2.841758 1_545
Cr3 Cr5 2.841758 1_455
Cr4 Ga1 2.556348 1_555
Cr4 Ga11 2.598430 1_555
Cr4 Ga7 2.598430 1_555
Cr4 Ga0 2.606339 1_566
Cr4 Ga4 2.685763 1_455
Cr4 Ga12 2.700269 1_565
Cr4 Ga9 2.700269 1_556
Cr4 Cr7 2.769257 1_566
Cr5 Ga2 2.556348 1_555
Cr5 Ga8 2.598430 1_555
Cr5 Ga12 2.598430 1_555
Cr5 Ga0 2.606339 1_656
Cr5 Ga5 2.685763 1_545
Cr5 Ga7 2.700269 1_655
Cr5 Ga10 2.700269 1_556
Cr5 Cr8 2.769257 1_656
Cr6 Ga3 2.556348 1_555
Cr6 Ga10 2.598430 1_555
Cr6 Ga9 2.598430 1_555
Cr6 Ga0 2.606339 1_665
Cr6 Ga6 2.685763 1_554
Cr6 Ga11 2.700269 1_655
Cr6 Ga8 2.700269 1_565
Cr6 Cr9 2.769256 1_665
Cr7 Ga0 2.518566 1_555
Cr7 Ga12 2.622201 1_554
Cr7 Ga9 2.622201 1_545
Cr7 Ga3 2.644960 1_555
Cr7 Ga2 2.644960 1_555
Cr7 Ga4 2.734137 1_555
Cr7 Cr9 2.753548 1_555
Cr7 Cr8 2.753548 1_555
Cr8 Ga0 2.518566 1_555
Cr8 Ga7 2.622201 1_554
Cr8 Ga10 2.622201 1_455
Cr8 Ga3 2.644960 1_555
Cr8 Ga1 2.644960 1_555
Cr8 Ga5 2.734137 1_555
Cr8 Cr9 2.753548 1_555
Cr9 Ga0 2.518566 1_555
Cr9 Ga11 2.622201 1_545
Cr9 Ga8 2.622201 1_455
Cr9 Ga1 2.644961 1_555
Cr9 Ga2 2.644961 1_555
Cr9 Ga6 2.734137 1_555
Cr10 Ga0 2.518566 1_666
Cr10 Cr5 2.563341 1_565
Cr10 Cr6 2.563341 1_556
Cr10 Ga9 2.622201 1_556
Cr10 Ga12 2.622201 1_565
Cr10 Ga6 2.644960 1_555
Cr10 Ga5 2.644960 1_555
Cr10 Ga1 2.734137 1_555
Cr10 Cr12 2.753548 1_555
Cr10 Cr11 2.753548 1_555
Cr11 Ga0 2.518566 1_666
Cr11 Cr4 2.563341 1_655
Cr11 Cr6 2.563341 1_556
Cr11 Ga10 2.622201 1_556
Cr11 Ga7 2.622201 1_655
Cr11 Ga6 2.644960 1_555
Cr11 Ga4 2.644960 1_555
Cr11 Ga2 2.734137 1_555
Cr11 Cr12 2.753548 1_555
Cr11 Cr2 2.769257 1_656
Cr12 Ga0 2.518566 1_666
Cr12 Cr4 2.563341 1_655
Cr12 Cr5 2.563341 1_565
Cr12 Ga11 2.622201 1_655
Cr12 Ga8 2.622201 1_565
Cr12 Ga5 2.644961 1_555
Cr12 Ga4 2.644961 1_555
Cr12 Ga3 2.734137 1_555
Cr12 Cr3 2.769256 1_665
Ga1 Ga4 2.620919 1_455
Ga1 Ga5 2.828629 1_555
Ga1 Ga6 2.828629 1_555
Ga1 Ga7 3.015616 1_555
Ga1 Ga11 3.015616 1_555
Ga2 Ga5 2.620919 1_545
Ga2 Ga4 2.828629 1_555
Ga2 Ga6 2.828629 1_555
Ga2 Ga8 3.015616 1_555
Ga3 Ga6 2.620919 1_554
Ga3 Ga5 2.828629 1_555
Ga3 Ga4 2.828629 1_555
Ga3 Ga9 3.015616 1_555
Ga4 Ga8 3.015616 1_555
Ga5 Ga9 3.015616 1_555
Ga6 Ga7 3.015616 1_555
Ga10 Ga4 3.015616 1_555
Ga10 Ga3 3.015616 1_555
Ga11 Ga5 3.015616 1_555
Ga12 Ga2 3.015616 1_555
Ga12 Ga6 3.015616 1_555
