# generated using pymatgen
data_Sm2O3
_symmetry_space_group_name_H-M   'P 1'
_cell_length_a   3.89182800
_cell_length_b   3.89182800
_cell_length_c   5.71361200
_cell_angle_alpha   90.00000000
_cell_angle_beta   90.00000000
_cell_angle_gamma   90.00000000
_symmetry_Int_Tables_number   1
_chemical_formula_structural   Sm2O3
_chemical_formula_sum   'Sm2 O3'
_cell_volume   86.54022531
_cell_formula_units_Z   1
loop_
 _symmetry_equiv_pos_site_id
 _symmetry_equiv_pos_as_xyz
  1  'x, y, z'
loop_
 _atom_site_type_symbol
 _atom_site_label
 _atom_site_symmetry_multiplicity
 _atom_site_fract_x
 _atom_site_fract_y
 _atom_site_fract_z
 _atom_site_occupancy
  Sm  Sm0  1  0.50000000  0.00000000  0.78670900  1
  Sm  Sm1  1  0.00000000  0.50000000  0.21329100  1
  O  O0  1  0.00000000  0.00000000  0.00000000  1
  O  O1  1  0.50000000  0.50000000  0.00000000  1
  O  O2  1  0.00000000  0.00000000  0.50000000  1
loop_
_geom_bond_atom_site_label_1
_geom_bond_atom_site_label_2
_geom_bond_distance
_geom_bond_site_symmetry_2
O0 Sm1 2.296022 1_555
O0 Sm1 2.296022 1_545
O0 Sm0 2.296022 1_454
O0 Sm0 2.296022 1_554
O1 Sm1 2.296022 1_555
O1 Sm1 2.296022 1_655
O1 Sm0 2.296022 1_554
O1 Sm0 2.296022 1_564
O2 Sm0 2.543639 1_555
O2 Sm0 2.543639 1_455
O2 Sm1 2.543639 1_555
O2 Sm1 2.543639 1_545
