# generated using pymatgen
data_Ni6W6C
_symmetry_space_group_name_H-M   'P 1'
_cell_length_a   7.67069974
_cell_length_b   7.67069974
_cell_length_c   7.67069974
_cell_angle_alpha   60.00000000
_cell_angle_beta   60.00000000
_cell_angle_gamma   60.00000000
_symmetry_Int_Tables_number   1
_chemical_formula_structural   Ni6W6C
_chemical_formula_sum   'Ni12 W12 C2'
_cell_volume   319.14640082
_cell_formula_units_Z   2
loop_
 _symmetry_equiv_pos_site_id
 _symmetry_equiv_pos_as_xyz
  1  'x, y, z'
loop_
 _atom_site_type_symbol
 _atom_site_label
 _atom_site_symmetry_multiplicity
 _atom_site_fract_x
 _atom_site_fract_y
 _atom_site_fract_z
 _atom_site_occupancy
  Ni  Ni0  1  0.41653658  0.41653658  0.75039027  1
  Ni  Ni1  1  0.41653658  0.75039027  0.41653658  1
  Ni  Ni2  1  0.75039027  0.41653658  0.41653658  1
  Ni  Ni3  1  0.41653658  0.41653658  0.41653658  1
  Ni  Ni4  1  0.83346342  0.83346342  0.49960973  1
  Ni  Ni5  1  0.83346342  0.49960973  0.83346342  1
  Ni  Ni6  1  0.49960973  0.83346342  0.83346342  1
  Ni  Ni7  1  0.83346342  0.83346342  0.83346342  1
  Ni  Ni8  1  0.62500000  0.62500000  0.12500000  1
  Ni  Ni9  1  0.62500000  0.12500000  0.62500000  1
  Ni  Ni10  1  0.12500000  0.62500000  0.62500000  1
  Ni  Ni11  1  0.62500000  0.62500000  0.62500000  1
  W  W0  1  0.04937579  0.04937579  0.45062421  1
  W  W1  1  0.45062421  0.04937579  0.45062421  1
  W  W2  1  0.04937579  0.45062421  0.45062421  1
  W  W3  1  0.45062421  0.45062421  0.04937579  1
  W  W4  1  0.04937579  0.45062421  0.04937579  1
  W  W5  1  0.45062421  0.04937579  0.04937579  1
  W  W6  1  0.20062421  0.20062421  0.79937579  1
  W  W7  1  0.79937579  0.20062421  0.79937579  1
  W  W8  1  0.20062421  0.79937579  0.79937579  1
  W  W9  1  0.79937579  0.79937579  0.20062421  1
  W  W10  1  0.20062421  0.79937579  0.20062421  1
  W  W11  1  0.79937579  0.20062421  0.20062421  1
  C  C0  1  0.25000000  0.25000000  0.25000000  1
  C  C1  1  0.00000000  0.00000000  0.00000000  1
loop_
_geom_bond_atom_site_label_1
_geom_bond_atom_site_label_2
_geom_bond_distance
_geom_bond_site_symmetry_2
Ni0 Ni11 2.349478 1_555
Ni0 Ni10 2.349478 1_555
Ni0 Ni9 2.349478 1_555
Ni0 Ni1 2.560891 1_555
Ni0 Ni2 2.560891 1_555
Ni0 Ni3 2.560891 1_555
Ni0 W3 2.581526 1_556
Ni0 W4 2.581526 1_556
Ni0 W5 2.581526 1_556
Ni0 W7 2.669369 1_555
Ni0 W8 2.669369 1_555
Ni0 W6 2.669369 1_555
Ni1 Ni11 2.349478 1_555
Ni1 Ni10 2.349478 1_555
Ni1 Ni8 2.349478 1_555
Ni1 Ni2 2.560891 1_555
Ni1 Ni3 2.560891 1_555
Ni1 W1 2.581526 1_565
Ni1 W0 2.581526 1_565
Ni1 W5 2.581526 1_565
Ni1 W8 2.669369 1_555
Ni1 W9 2.669369 1_555
Ni1 W10 2.669369 1_555
Ni2 Ni8 2.349478 1_555
Ni2 Ni9 2.349478 1_555
Ni2 Ni3 2.560891 1_555
Ni2 W2 2.581526 1_655
Ni2 W4 2.581526 1_655
Ni2 W0 2.581526 1_655
Ni2 W7 2.669369 1_555
Ni2 W9 2.669369 1_555
Ni2 W11 2.669369 1_555
Ni3 Ni8 2.349478 1_555
Ni3 Ni9 2.349478 1_555
Ni3 W3 2.581526 1_555
Ni3 W1 2.581526 1_555
Ni3 W2 2.581526 1_555
Ni3 W10 2.669369 1_555
Ni3 W11 2.669369 1_555
Ni3 W6 2.669369 1_555
Ni4 Ni9 2.349478 1_565
Ni4 Ni5 2.560891 1_555
Ni4 Ni6 2.560891 1_555
Ni4 Ni7 2.560891 1_555
Ni4 W9 2.581526 1_555
Ni4 W11 2.581526 1_565
Ni4 W10 2.581526 1_655
Ni4 W2 2.669369 1_655
Ni4 W1 2.669369 1_565
Ni4 W0 2.669369 1_665
Ni5 Ni8 2.349478 1_556
Ni5 Ni6 2.560891 1_555
Ni5 Ni7 2.560891 1_555
Ni5 W7 2.581526 1_555
Ni5 W11 2.581526 1_556
Ni5 W6 2.581526 1_655
Ni5 W3 2.669369 1_556
Ni5 W2 2.669369 1_655
Ni5 W4 2.669369 1_656
Ni6 Ni8 2.349478 1_556
Ni6 Ni9 2.349478 1_565
Ni6 Ni7 2.560891 1_555
Ni6 W8 2.581526 1_555
Ni6 W6 2.581526 1_565
Ni6 W10 2.581526 1_556
Ni6 W3 2.669369 1_556
Ni6 W1 2.669369 1_565
Ni6 W5 2.669369 1_566
Ni7 Ni8 2.349478 1_556
Ni7 Ni9 2.349478 1_565
Ni7 W9 2.581526 1_556
Ni7 W7 2.581526 1_565
Ni7 W8 2.581526 1_655
Ni7 W5 2.669369 1_566
Ni7 W0 2.669369 1_665
Ni7 W4 2.669369 1_656
Ni8 W3 2.693648 1_555
Ni8 W10 2.693648 1_555
Ni8 W11 2.693648 1_555
Ni8 W5 2.693648 1_565
Ni8 W4 2.693648 1_655
Ni8 W9 2.693648 1_555
Ni9 W1 2.693648 1_555
Ni9 W7 2.693648 1_555
Ni9 W5 2.693648 1_556
Ni9 W0 2.693648 1_655
Ni9 W11 2.693648 1_555
Ni9 W6 2.693648 1_555
Ni10 Ni3 2.349478 1_555
Ni10 Ni7 2.349478 1_455
Ni10 Ni5 2.349478 1_455
Ni10 Ni4 2.349478 1_455
Ni10 W2 2.693648 1_555
Ni10 W4 2.693648 1_556
Ni10 W0 2.693648 1_565
Ni10 W10 2.693648 1_555
Ni10 W8 2.693648 1_555
Ni10 W6 2.693648 1_555
Ni11 Ni2 2.349478 1_555
Ni11 Ni4 2.349478 1_555
Ni11 Ni5 2.349478 1_555
Ni11 Ni6 2.349478 1_555
Ni11 W3 2.693648 1_556
Ni11 W2 2.693648 1_655
Ni11 W7 2.693648 1_555
Ni11 W1 2.693648 1_565
Ni11 W8 2.693648 1_555
Ni11 W9 2.693648 1_555
C0 W5 2.176373 1_555
C0 W0 2.176373 1_555
C0 W4 2.176373 1_555
C0 W1 2.176373 1_555
C0 W2 2.176373 1_555
C0 W3 2.176373 1_555
C1 W8 2.176373 1_544
C1 W9 2.176373 1_445
C1 W7 2.176373 1_454
C1 W11 2.176373 1_455
C1 W10 2.176373 1_545
C1 W6 2.176373 1_554
