# generated using pymatgen
data_Sb4ClO6
_symmetry_space_group_name_H-M   'P 1'
_cell_length_a   9.82820010
_cell_length_b   9.82820010
_cell_length_c   10.98136570
_cell_angle_alpha   69.18075124
_cell_angle_beta   69.18075124
_cell_angle_gamma   24.23553371
_symmetry_Int_Tables_number   1
_chemical_formula_structural   Sb4ClO6
_chemical_formula_sum   'Sb8 Cl2 O12'
_cell_volume   405.62848278
_cell_formula_units_Z   2
loop_
 _symmetry_equiv_pos_site_id
 _symmetry_equiv_pos_as_xyz
  1  'x, y, z'
loop_
 _atom_site_type_symbol
 _atom_site_label
 _atom_site_symmetry_multiplicity
 _atom_site_fract_x
 _atom_site_fract_y
 _atom_site_fract_z
 _atom_site_occupancy
  Sb  Sb0  1  0.92279800  0.92279800  0.47178200  1
  Sb  Sb1  1  0.07720200  0.07720200  0.52821800  1
  Sb  Sb2  1  0.73354500  0.73354500  0.67931100  1
  Sb  Sb3  1  0.26645500  0.26645500  0.32068900  1
  Sb  Sb4  1  0.69245700  0.69245700  0.15322300  1
  Sb  Sb5  1  0.30754300  0.30754300  0.84677700  1
  Sb  Sb6  1  0.50145100  0.50145100  0.21160800  1
  Sb  Sb7  1  0.49854900  0.49854900  0.78839200  1
  Cl  Cl0  1  0.88652100  0.88652100  0.99747100  1
  Cl  Cl1  1  0.11347900  0.11347900  0.00252900  1
  O  O0  1  0.58581300  0.58581300  0.27484200  1
  O  O1  1  0.41418700  0.41418700  0.72515800  1
  O  O2  1  0.73507800  0.73507800  0.29954400  1
  O  O3  1  0.26492200  0.26492200  0.70045600  1
  O  O4  1  0.43353900  0.43353900  0.41566500  1
  O  O5  1  0.56646100  0.56646100  0.58433500  1
  O  O6  1  0.96795100  0.96795100  0.27718600  1
  O  O7  1  0.03204900  0.03204900  0.72281400  1
  O  O8  1  0.81547300  0.81547300  0.50146100  1
  O  O9  1  0.18452700  0.18452700  0.49853900  1
  O  O10  1  0.20277300  0.20277300  0.20707400  1
  O  O11  1  0.79722700  0.79722700  0.79292600  1
loop_
_geom_bond_atom_site_label_1
_geom_bond_atom_site_label_2
_geom_bond_distance
_geom_bond_site_symmetry_2
O0 Sb6 1.982255 1_555
O0 Sb4 1.998540 1_555
O1 Sb7 1.982255 1_555
O1 Sb5 1.998540 1_555
O2 Sb4 2.051744 1_555
O2 Sb3 2.185394 1_565
O2 Sb3 2.185394 1_655
O3 Sb5 2.051744 1_555
O3 Sb2 2.185394 1_455
O3 Sb2 2.185394 1_545
O4 Sb0 2.141607 1_455
O4 Sb0 2.141607 1_545
O4 Sb6 2.144390 1_555
O5 Sb1 2.141607 1_565
O5 Sb1 2.141607 1_655
O5 Sb7 2.144390 1_555
O6 Sb0 1.992811 1_555
O6 Sb6 2.202865 1_565
O6 Sb6 2.202865 1_655
O7 Sb1 1.992811 1_555
O7 Sb7 2.202865 1_545
O7 Sb7 2.202865 1_455
O8 Sb0 1.967705 1_555
O8 Sb2 2.014386 1_555
O9 Sb1 1.967705 1_555
O9 Sb3 2.014386 1_555
O10 Sb3 2.040744 1_555
O10 Sb4 2.175051 1_455
O10 Sb4 2.175051 1_545
O11 Sb2 2.040744 1_555
O11 Sb5 2.175051 1_565
O11 Sb5 2.175051 1_655
