# generated using pymatgen
data_YMg14SnO16
_symmetry_space_group_name_H-M   'P 1'
_cell_length_a   4.45197900
_cell_length_b   8.82375500
_cell_length_c   8.94801800
_cell_angle_alpha   90.00000000
_cell_angle_beta   90.00000000
_cell_angle_gamma   90.00000000
_symmetry_Int_Tables_number   1
_chemical_formula_structural   YMg14SnO16
_chemical_formula_sum   'Y1 Mg14 Sn1 O16'
_cell_volume   351.50652981
_cell_formula_units_Z   1
loop_
 _symmetry_equiv_pos_site_id
 _symmetry_equiv_pos_as_xyz
  1  'x, y, z'
loop_
 _atom_site_type_symbol
 _atom_site_label
 _atom_site_symmetry_multiplicity
 _atom_site_fract_x
 _atom_site_fract_y
 _atom_site_fract_z
 _atom_site_occupancy
  Y  Y0  1  0.00000000  0.00000000  0.00000000  1
  Mg  Mg0  1  0.00000000  0.50000000  0.00000000  1
  Mg  Mg1  1  0.00000000  0.50000000  0.50000000  1
  Mg  Mg2  1  0.50000000  0.00000000  0.25536400  1
  Mg  Mg3  1  0.50000000  0.00000000  0.74463600  1
  Mg  Mg4  1  0.50000000  0.50000000  0.25147800  1
  Mg  Mg5  1  0.50000000  0.50000000  0.74852200  1
  Mg  Mg6  1  0.50000000  0.26400300  0.00000000  1
  Mg  Mg7  1  0.50000000  0.26161700  0.50000000  1
  Mg  Mg8  1  0.50000000  0.73599700  0.00000000  1
  Mg  Mg9  1  0.50000000  0.73838300  0.50000000  1
  Mg  Mg10  1  0.00000000  0.26239400  0.25388900  1
  Mg  Mg11  1  0.00000000  0.26239400  0.74611100  1
  Mg  Mg12  1  0.00000000  0.73760600  0.25388900  1
  Mg  Mg13  1  0.00000000  0.73760600  0.74611100  1
  Sn  Sn0  1  0.00000000  0.00000000  0.50000000  1
  O  O0  1  0.00000000  0.26040200  0.00000000  1
  O  O1  1  0.00000000  0.27405700  0.50000000  1
  O  O2  1  0.00000000  0.73959800  0.00000000  1
  O  O3  1  0.00000000  0.72594300  0.50000000  1
  O  O4  1  0.50000000  0.24837400  0.25129800  1
  O  O5  1  0.50000000  0.24837400  0.74870200  1
  O  O6  1  0.50000000  0.75162600  0.25129800  1
  O  O7  1  0.50000000  0.75162600  0.74870200  1
  O  O8  1  0.50000000  0.00000000  0.00000000  1
  O  O9  1  0.50000000  0.00000000  0.50000000  1
  O  O10  1  0.50000000  0.50000000  0.00000000  1
  O  O11  1  0.50000000  0.50000000  0.50000000  1
  O  O12  1  0.00000000  0.00000000  0.24135400  1
  O  O13  1  0.00000000  0.00000000  0.75864600  1
  O  O14  1  0.00000000  0.50000000  0.24645800  1
  O  O15  1  0.00000000  0.50000000  0.75354200  1
loop_
_geom_bond_atom_site_label_1
_geom_bond_atom_site_label_2
_geom_bond_distance
_geom_bond_site_symmetry_2
Mg0 O0 2.114154 1_555
Mg0 O2 2.114154 1_555
Mg0 O15 2.205311 1_554
Mg0 O14 2.205311 1_555
Mg0 O10 2.225989 1_455
Mg0 O10 2.225989 1_555
Mg1 O3 1.993666 1_555
Mg1 O1 1.993666 1_555
Mg1 O11 2.225989 1_555
Mg1 O11 2.225989 1_455
Mg1 O14 2.268698 1_555
Mg1 O15 2.268698 1_555
Mg2 O9 2.189007 1_555
Mg2 O4 2.191893 1_555
Mg2 O6 2.191893 1_545
Mg2 O12 2.229517 1_655
Mg2 O12 2.229517 1_555
Mg2 O8 2.285002 1_555
Mg3 O9 2.189007 1_555
Mg3 O7 2.191893 1_545
Mg3 O5 2.191893 1_555
Mg3 O13 2.229517 1_555
Mg3 O13 2.229517 1_655
Mg3 O8 2.285002 1_556
Mg4 O4 2.220287 1_555
Mg4 O6 2.220287 1_555
Mg4 O11 2.223779 1_555
Mg4 O14 2.226443 1_555
Mg4 O14 2.226443 1_655
Mg4 O10 2.250230 1_555
Mg5 O5 2.220287 1_555
Mg5 O7 2.220287 1_555
Mg5 O11 2.223779 1_555
Mg5 O15 2.226443 1_555
Mg5 O15 2.226443 1_655
Mg5 O10 2.250230 1_556
Mg6 O10 2.082380 1_555
Mg6 O0 2.226216 1_555
Mg6 O0 2.226216 1_655
Mg6 O5 2.252844 1_554
Mg6 O4 2.252844 1_555
Mg6 O8 2.329498 1_555
Mg7 O11 2.103433 1_555
Mg7 O5 2.228456 1_555
Mg7 O4 2.228456 1_555
Mg7 O1 2.228694 1_655
Mg7 O1 2.228694 1_555
Mg7 O9 2.308444 1_555
Mg8 O10 2.082380 1_555
Mg8 O2 2.226216 1_555
Mg8 O2 2.226216 1_655
Mg8 O7 2.252844 1_554
Mg8 O6 2.252844 1_555
Mg8 O8 2.329498 1_565
Mg9 O11 2.103433 1_555
Mg9 O7 2.228456 1_555
Mg9 O6 2.228456 1_555
Mg9 O3 2.228694 1_655
Mg9 O3 2.228694 1_555
Mg9 O9 2.308444 1_565
Mg10 O14 2.097631 1_555
Mg10 O1 2.204609 1_555
Mg10 O4 2.229545 1_555
Mg10 O4 2.229545 1_455
Mg10 O0 2.271871 1_555
Mg10 O12 2.318016 1_555
Mg11 O15 2.097631 1_555
Mg11 O1 2.204609 1_555
Mg11 O5 2.229545 1_455
Mg11 O5 2.229545 1_555
Mg11 O0 2.271871 1_556
Mg11 O13 2.318016 1_555
Mg12 O14 2.097631 1_555
Mg12 O3 2.204609 1_555
Mg12 O6 2.229545 1_455
Mg12 O6 2.229545 1_555
Mg12 O2 2.271871 1_555
Mg12 O12 2.318016 1_565
Mg13 O15 2.097631 1_555
Mg13 O3 2.204609 1_555
Mg13 O7 2.229545 1_455
Mg13 O7 2.229545 1_555
Mg13 O2 2.271871 1_556
Mg13 O13 2.318016 1_565
O0 Y0 2.297723 1_555
O1 Sn0 2.418212 1_555
O2 Y0 2.297723 1_565
O3 Sn0 2.418212 1_565
O8 Y0 2.225989 1_555
O8 Y0 2.225989 1_655
O9 Sn0 2.225989 1_655
O9 Sn0 2.225989 1_555
O12 Y0 2.159640 1_555
O12 Sn0 2.314369 1_555
O13 Y0 2.159640 1_556
O13 Sn0 2.314369 1_555
