# generated using pymatgen
data_CaCu2(MoO4)2
_symmetry_space_group_name_H-M   'P 1'
_cell_length_a   9.00875600
_cell_length_b   6.75879800
_cell_length_c   13.19799755
_cell_angle_alpha   88.83812428
_cell_angle_beta   90.00000000
_cell_angle_gamma   90.00000000
_symmetry_Int_Tables_number   1
_chemical_formula_structural   CaCu2(MoO4)2
_chemical_formula_sum   'Ca4 Cu8 Mo8 O32'
_cell_volume   803.43922935
_cell_formula_units_Z   4
loop_
 _symmetry_equiv_pos_site_id
 _symmetry_equiv_pos_as_xyz
  1  'x, y, z'
loop_
 _atom_site_type_symbol
 _atom_site_label
 _atom_site_symmetry_multiplicity
 _atom_site_fract_x
 _atom_site_fract_y
 _atom_site_fract_z
 _atom_site_occupancy
  Ca  Ca0  1  0.16510200  0.12313100  0.04648100  1
  Ca  Ca1  1  0.83489800  0.87686900  0.95351900  1
  Ca  Ca2  1  0.66510200  0.87686900  0.45351900  1
  Ca  Ca3  1  0.33489800  0.12313100  0.54648100  1
  Cu  Cu0  1  0.18753100  0.76694700  0.85744500  1
  Cu  Cu1  1  0.04978400  0.38880200  0.62347600  1
  Cu  Cu2  1  0.95021600  0.61119800  0.37652400  1
  Cu  Cu3  1  0.81246900  0.23305300  0.14255500  1
  Cu  Cu4  1  0.31246900  0.76694700  0.35744500  1
  Cu  Cu5  1  0.45021600  0.38880200  0.12347600  1
  Cu  Cu6  1  0.68753100  0.23305300  0.64255500  1
  Cu  Cu7  1  0.54978400  0.61119800  0.87652400  1
  Mo  Mo0  1  0.45822900  0.09448700  0.84474300  1
  Mo  Mo1  1  0.04177100  0.09448700  0.34474300  1
  Mo  Mo2  1  0.07868000  0.60590400  0.13721600  1
  Mo  Mo3  1  0.95822900  0.90551300  0.65525700  1
  Mo  Mo4  1  0.92132000  0.39409600  0.86278400  1
  Mo  Mo5  1  0.57868000  0.39409600  0.36278400  1
  Mo  Mo6  1  0.42132000  0.60590400  0.63721600  1
  Mo  Mo7  1  0.54177100  0.90551300  0.15525700  1
  O  O0  1  0.22774100  0.02207000  0.38894900  1
  O  O1  1  0.00163000  0.66956100  0.60371300  1
  O  O2  1  0.56823600  0.18928100  0.45528400  1
  O  O3  1  0.06823600  0.81071900  0.04471600  1
  O  O4  1  0.27225900  0.02207000  0.88894900  1
  O  O5  1  0.77225900  0.97793000  0.61105100  1
  O  O6  1  0.09317100  0.09091000  0.61038600  1
  O  O7  1  0.90167500  0.48725700  0.13311400  1
  O  O8  1  0.59832500  0.48725700  0.63311400  1
  O  O9  1  0.88349900  0.31230300  0.73557400  1
  O  O10  1  0.38349900  0.68769700  0.76442600  1
  O  O11  1  0.09832500  0.51274300  0.86688600  1
  O  O12  1  0.90682900  0.90909000  0.38961400  1
  O  O13  1  0.53274200  0.87721400  0.29102400  1
  O  O14  1  0.27823600  0.43471800  0.59974100  1
  O  O15  1  0.22176400  0.43471800  0.09974100  1
  O  O16  1  0.03274200  0.12278600  0.20897600  1
  O  O17  1  0.40167500  0.51274300  0.36688600  1
  O  O18  1  0.46725800  0.12278600  0.70897600  1
  O  O19  1  0.43176400  0.81071900  0.54471600  1
  O  O20  1  0.49837000  0.66956100  0.10371300  1
  O  O21  1  0.11650100  0.68769700  0.26442600  1
  O  O22  1  0.72774100  0.97793000  0.11105100  1
  O  O23  1  0.40682900  0.09091000  0.11038600  1
  O  O24  1  0.93176400  0.18928100  0.95528400  1
  O  O25  1  0.77823600  0.56528200  0.90025900  1
  O  O26  1  0.99837000  0.33043900  0.39628700  1
  O  O27  1  0.50163000  0.33043900  0.89628700  1
  O  O28  1  0.59317100  0.90909000  0.88961400  1
  O  O29  1  0.72176400  0.56528200  0.40025900  1
  O  O30  1  0.61650100  0.31230300  0.23557400  1
  O  O31  1  0.96725800  0.87721400  0.79102400  1
loop_
_geom_bond_atom_site_label_1
_geom_bond_atom_site_label_2
_geom_bond_distance
_geom_bond_site_symmetry_2
Ca0 O3 2.285301 1_545
Ca0 O15 2.291231 1_555
Ca0 O23 2.343829 1_555
Ca0 O4 2.403901 1_554
Ca0 O16 2.453765 1_555
Ca0 O24 2.458765 1_454
Ca1 O24 2.285301 1_565
Ca1 O25 2.291231 1_555
Ca1 O28 2.343829 1_555
Ca1 O22 2.403901 1_556
Ca1 O31 2.453765 1_555
Ca1 O3 2.458765 1_656
Ca2 O2 2.285301 1_565
Ca2 O29 2.291231 1_555
Ca2 O12 2.343829 1_555
Ca2 O5 2.403901 1_555
Ca2 O13 2.453765 1_555
Ca2 O19 2.458765 1_555
Ca3 O19 2.285301 1_545
Ca3 O14 2.291231 1_555
Ca3 O6 2.343829 1_555
Ca3 O0 2.403901 1_555
Ca3 O18 2.453765 1_555
Ca3 O2 2.458765 1_555
Cu0 O11 1.898575 1_555
Cu0 O4 1.938523 1_565
Cu0 O10 2.222041 1_555
Cu0 O31 2.288054 1_455
Cu1 O1 1.958829 1_555
Cu1 O6 2.061668 1_555
Cu1 O14 2.103839 1_555
Cu1 O9 2.160834 1_455
Cu2 O26 1.958829 1_555
Cu2 O12 2.061668 1_555
Cu2 O29 2.103839 1_555
Cu2 O21 2.160834 1_655
Cu3 O7 1.898575 1_555
Cu3 O22 1.938523 1_545
Cu3 O30 2.222041 1_555
Cu3 O16 2.288054 1_655
Cu4 O17 1.898575 1_555
Cu4 O0 1.938523 1_565
Cu4 O21 2.222041 1_555
Cu4 O13 2.288054 1_555
Cu5 O20 1.958829 1_555
Cu5 O23 2.061668 1_555
Cu5 O15 2.103839 1_555
Cu5 O30 2.160834 1_555
Cu6 O8 1.898575 1_555
Cu6 O5 1.938523 1_545
Cu6 O9 2.222041 1_555
Cu6 O18 2.288054 1_555
Cu7 O27 1.958829 1_555
Cu7 O28 2.061668 1_555
Cu7 O25 2.103839 1_555
Cu7 O10 2.160834 1_555
Mo0 O27 1.789659 1_555
Mo0 O18 1.800010 1_555
Mo0 O28 1.835376 1_545
Mo0 O4 1.837172 1_555
Mo1 O26 1.789659 1_455
Mo1 O16 1.800010 1_555
Mo1 O12 1.835376 1_445
Mo1 O0 1.837172 1_555
Mo2 O7 1.786193 1_455
Mo2 O15 1.807775 1_555
Mo2 O21 1.810554 1_555
Mo2 O3 1.829481 1_555
Mo3 O1 1.789659 1_655
Mo3 O31 1.800010 1_555
Mo3 O6 1.835376 1_665
Mo3 O5 1.837172 1_555
Mo4 O11 1.786193 1_655
Mo4 O25 1.807775 1_555
Mo4 O9 1.810554 1_555
Mo4 O24 1.829481 1_555
Mo5 O17 1.786193 1_555
Mo5 O29 1.807775 1_555
Mo5 O30 1.810554 1_555
Mo5 O2 1.829481 1_555
Mo6 O8 1.786193 1_555
Mo6 O14 1.807775 1_555
Mo6 O10 1.810554 1_555
Mo6 O19 1.829481 1_555
Mo7 O20 1.789659 1_555
Mo7 O13 1.800010 1_555
Mo7 O23 1.835376 1_565
Mo7 O22 1.837172 1_555
