# generated using pymatgen
data_ZrSn
_symmetry_space_group_name_H-M   'P 1'
_cell_length_a   5.31840900
_cell_length_b   5.60390700
_cell_length_c   12.60079100
_cell_angle_alpha   90.00000000
_cell_angle_beta   90.00000000
_cell_angle_gamma   90.00000000
_symmetry_Int_Tables_number   1
_chemical_formula_structural   ZrSn
_chemical_formula_sum   'Zr8 Sn8'
_cell_volume   375.55232960
_cell_formula_units_Z   8
loop_
 _symmetry_equiv_pos_site_id
 _symmetry_equiv_pos_as_xyz
  1  'x, y, z'
loop_
 _atom_site_type_symbol
 _atom_site_label
 _atom_site_symmetry_multiplicity
 _atom_site_fract_x
 _atom_site_fract_y
 _atom_site_fract_z
 _atom_site_occupancy
  Zr  Zr0  1  0.00000000  0.67780600  0.00000000  1
  Zr  Zr1  1  0.00000000  0.16679000  0.37545100  1
  Zr  Zr2  1  0.00000000  0.66140600  0.50000000  1
  Zr  Zr3  1  0.00000000  0.16679000  0.62454900  1
  Zr  Zr4  1  0.50000000  0.33859400  0.00000000  1
  Zr  Zr5  1  0.50000000  0.83321000  0.12454900  1
  Zr  Zr6  1  0.50000000  0.32219400  0.50000000  1
  Zr  Zr7  1  0.50000000  0.83321000  0.87545100  1
  Sn  Sn0  1  0.00000000  0.16738800  0.12257300  1
  Sn  Sn1  1  0.00000000  0.65979400  0.25025400  1
  Sn  Sn2  1  0.00000000  0.65979400  0.74974600  1
  Sn  Sn3  1  0.00000000  0.16738800  0.87742700  1
  Sn  Sn4  1  0.50000000  0.34020600  0.24974600  1
  Sn  Sn5  1  0.50000000  0.83261200  0.37742700  1
  Sn  Sn6  1  0.50000000  0.83261200  0.62257300  1
  Sn  Sn7  1  0.50000000  0.34020600  0.75025400  1
loop_
_geom_bond_atom_site_label_1
_geom_bond_atom_site_label_2
_geom_bond_distance
_geom_bond_site_symmetry_2
Zr0 Zr7 3.208247 1_454
Zr0 Zr5 3.208247 1_455
Zr0 Zr7 3.208247 1_554
Zr0 Zr5 3.208247 1_555
Zr0 Zr4 3.268767 1_455
Zr0 Zr4 3.268767 1_555
Zr1 Zr3 3.138832 1_555
Zr1 Zr2 3.185254 1_555
Zr1 Zr6 3.208247 1_555
Zr1 Zr6 3.208247 1_455
Zr1 Zr2 3.237900 1_545
Zr2 Zr3 3.185254 1_555
Zr2 Zr3 3.237900 1_565
Zr2 Zr6 3.268767 1_555
Zr2 Zr6 3.268767 1_455
Zr3 Zr6 3.208247 1_555
Zr3 Zr6 3.208247 1_455
Zr4 Zr5 3.185254 1_555
Zr4 Zr7 3.185254 1_554
Zr4 Zr7 3.237900 1_544
Zr4 Zr5 3.237900 1_545
Zr5 Zr7 3.138832 1_554
Sn0 Sn3 3.089034 1_554
Sn0 Zr0 3.148447 1_545
Sn0 Zr1 3.186465 1_555
Sn0 Sn1 3.194178 1_555
Sn0 Zr4 3.221396 1_455
Sn0 Zr4 3.221396 1_555
Sn0 Zr0 3.250700 1_555
Sn0 Sn4 3.252264 1_455
Sn0 Sn4 3.252264 1_555
Sn0 Zr5 3.252538 1_445
Sn0 Zr5 3.252538 1_545
Sn0 Sn1 3.267986 1_545
Sn1 Zr2 3.147010 1_555
Sn1 Zr0 3.155013 1_555
Sn1 Zr1 3.181437 1_555
Sn1 Sn4 3.206069 1_455
Sn1 Sn4 3.206069 1_555
Sn1 Zr5 3.244191 1_555
Sn1 Zr5 3.244191 1_455
Sn1 Zr1 3.249761 1_565
Sn1 Sn5 3.252264 1_555
Sn1 Sn5 3.252264 1_455
Sn2 Zr2 3.147010 1_555
Sn2 Zr0 3.155013 1_556
Sn2 Zr3 3.181437 1_555
Sn2 Sn3 3.194178 1_555
Sn2 Sn7 3.206069 1_455
Sn2 Sn7 3.206069 1_555
Sn2 Zr7 3.244191 1_455
Sn2 Zr7 3.244191 1_555
Sn2 Zr3 3.249761 1_565
Sn2 Sn6 3.252264 1_555
Sn2 Sn6 3.252264 1_455
Sn2 Sn3 3.267986 1_565
Sn3 Zr0 3.148447 1_546
Sn3 Zr3 3.186465 1_555
Sn3 Zr4 3.221396 1_456
Sn3 Zr4 3.221396 1_556
Sn3 Zr0 3.250700 1_556
Sn3 Sn7 3.252264 1_455
Sn3 Sn7 3.252264 1_555
Sn3 Zr7 3.252538 1_445
Sn3 Zr7 3.252538 1_545
Sn4 Zr4 3.147010 1_555
Sn4 Zr6 3.155013 1_555
Sn4 Zr5 3.181437 1_555
Sn4 Sn5 3.194178 1_555
Sn4 Zr1 3.244191 1_555
Sn4 Zr1 3.244191 1_655
Sn4 Zr5 3.249761 1_545
Sn4 Sn5 3.267986 1_545
Sn5 Sn6 3.089034 1_555
Sn5 Zr6 3.148447 1_565
Sn5 Zr5 3.186465 1_555
Sn5 Zr2 3.221396 1_555
Sn5 Zr2 3.221396 1_655
Sn5 Zr6 3.250700 1_555
Sn5 Zr1 3.252538 1_565
Sn5 Zr1 3.252538 1_665
Sn6 Zr6 3.148447 1_565
Sn6 Zr7 3.186465 1_555
Sn6 Sn7 3.194178 1_555
Sn6 Zr2 3.221396 1_555
Sn6 Zr2 3.221396 1_655
Sn6 Zr6 3.250700 1_555
Sn6 Zr3 3.252538 1_565
Sn6 Zr3 3.252538 1_665
Sn6 Sn7 3.267986 1_565
Sn7 Zr4 3.147010 1_556
Sn7 Zr6 3.155013 1_555
Sn7 Zr7 3.181437 1_555
Sn7 Zr3 3.244191 1_655
Sn7 Zr3 3.244191 1_555
Sn7 Zr7 3.249761 1_545
