# generated using pymatgen
data_SrLiTi4CrO11
_symmetry_space_group_name_H-M   'P 1'
_cell_length_a   5.83632382
_cell_length_b   10.01627229
_cell_length_c   13.97670538
_cell_angle_alpha   90.00000000
_cell_angle_beta   90.00000000
_cell_angle_gamma   90.00000000
_symmetry_Int_Tables_number   1
_chemical_formula_structural   SrLiTi4CrO11
_chemical_formula_sum   'Sr4 Li4 Ti16 Cr4 O44'
_cell_volume   817.05315800
_cell_formula_units_Z   4
loop_
 _symmetry_equiv_pos_site_id
 _symmetry_equiv_pos_as_xyz
  1  'x, y, z'
loop_
 _atom_site_type_symbol
 _atom_site_label
 _atom_site_symmetry_multiplicity
 _atom_site_fract_x
 _atom_site_fract_y
 _atom_site_fract_z
 _atom_site_occupancy
  Sr  Sr0  1  0.25000000  0.39566110  0.59423145  1
  Sr  Sr1  1  0.25000000  0.10433890  0.09423145  1
  Sr  Sr2  1  0.75000000  0.60433890  0.40576855  1
  Sr  Sr3  1  0.75000000  0.89566110  0.90576855  1
  Li  Li0  1  0.25000000  0.08120489  0.54127030  1
  Li  Li1  1  0.25000000  0.41879511  0.04127030  1
  Li  Li2  1  0.75000000  0.91879511  0.45872970  1
  Li  Li3  1  0.75000000  0.58120489  0.95872970  1
  Ti  Ti0  1  0.00159029  0.83646455  0.67186282  1
  Ti  Ti1  1  0.49840971  0.66353545  0.17186282  1
  Ti  Ti2  1  0.50159029  0.16353545  0.32813718  1
  Ti  Ti3  1  0.99840971  0.33646455  0.82813718  1
  Ti  Ti4  1  0.99840971  0.16353545  0.32813718  1
  Ti  Ti5  1  0.50159029  0.33646455  0.82813718  1
  Ti  Ti6  1  0.49840971  0.83646455  0.67186282  1
  Ti  Ti7  1  0.00159029  0.66353545  0.17186282  1
  Ti  Ti8  1  0.25000000  0.07140365  0.83789992  1
  Ti  Ti9  1  0.25000000  0.42859635  0.33789992  1
  Ti  Ti10  1  0.75000000  0.92859635  0.16210008  1
  Ti  Ti11  1  0.75000000  0.57140365  0.66210008  1
  Ti  Ti12  1  0.25000000  0.73672377  0.49134518  1
  Ti  Ti13  1  0.25000000  0.76327623  0.99134518  1
  Ti  Ti14  1  0.75000000  0.26327623  0.50865482  1
  Ti  Ti15  1  0.75000000  0.23672377  0.00865482  1
  Cr  Cr0  1  0.25000000  0.60096926  0.82501482  1
  Cr  Cr1  1  0.25000000  0.89903074  0.32501482  1
  Cr  Cr2  1  0.75000000  0.39903074  0.17498518  1
  Cr  Cr3  1  0.75000000  0.10096926  0.67498518  1
  O  O0  1  0.25000000  0.89544475  0.58718092  1
  O  O1  1  0.25000000  0.60455525  0.08718092  1
  O  O2  1  0.75000000  0.10455525  0.41281908  1
  O  O3  1  0.75000000  0.39544475  0.91281908  1
  O  O4  1  0.00225477  0.49923196  0.74483516  1
  O  O5  1  0.49774523  0.00076804  0.24483516  1
  O  O6  1  0.50225477  0.50076804  0.25516484  1
  O  O7  1  0.99774523  0.99923196  0.75516484  1
  O  O8  1  0.99774523  0.50076804  0.25516484  1
  O  O9  1  0.50225477  0.99923196  0.75516484  1
  O  O10  1  0.49774523  0.49923196  0.74483516  1
  O  O11  1  0.00225477  0.00076804  0.24483516  1
  O  O12  1  0.25000000  0.42810385  0.89820941  1
  O  O13  1  0.25000000  0.07189615  0.39820941  1
  O  O14  1  0.75000000  0.57189615  0.10179059  1
  O  O15  1  0.75000000  0.92810385  0.60179059  1
  O  O16  1  0.25000000  0.24836813  0.76024558  1
  O  O17  1  0.25000000  0.25163187  0.26024558  1
  O  O18  1  0.75000000  0.75163187  0.23975442  1
  O  O19  1  0.75000000  0.74836813  0.73975442  1
  O  O20  1  0.02443239  0.68804280  0.91666789  1
  O  O21  1  0.47556761  0.81195720  0.41666789  1
  O  O22  1  0.52443239  0.31195720  0.08333211  1
  O  O23  1  0.97556761  0.18804280  0.58333211  1
  O  O24  1  0.97556761  0.31195720  0.08333211  1
  O  O25  1  0.52443239  0.18804280  0.58333211  1
  O  O26  1  0.47556761  0.68804280  0.91666789  1
  O  O27  1  0.02443239  0.81195720  0.41666789  1
  O  O28  1  0.00891625  0.17448924  0.91030948  1
  O  O29  1  0.49108375  0.32551076  0.41030948  1
  O  O30  1  0.50891625  0.82551076  0.08969052  1
  O  O31  1  0.99108375  0.67448924  0.58969052  1
  O  O32  1  0.99108375  0.82551076  0.08969052  1
  O  O33  1  0.50891625  0.67448924  0.58969052  1
  O  O34  1  0.49108375  0.17448924  0.91030948  1
  O  O35  1  0.00891625  0.32551076  0.41030948  1
  O  O36  1  0.25000000  0.94184286  0.93425360  1
  O  O37  1  0.25000000  0.55815714  0.43425360  1
  O  O38  1  0.75000000  0.05815714  0.06574640  1
  O  O39  1  0.75000000  0.44184286  0.56574640  1
  O  O40  1  0.25000000  0.76432728  0.74623067  1
  O  O41  1  0.25000000  0.73567272  0.24623067  1
  O  O42  1  0.75000000  0.23567272  0.25376933  1
  O  O43  1  0.75000000  0.26432728  0.75376933  1
loop_
_geom_bond_atom_site_label_1
_geom_bond_atom_site_label_2
_geom_bond_distance
_geom_bond_site_symmetry_2
Li0 O0 1.968165 1_545
Li0 O13 2.001693 1_555
Li0 O23 2.013983 1_455
Li0 O25 2.013983 1_555
Li1 O1 1.968165 1_555
Li1 O12 2.001693 1_554
Li1 O24 2.013983 1_455
Li1 O22 2.013983 1_555
Li2 O2 1.968165 1_565
Li2 O15 2.001693 1_555
Li2 O27 2.013983 1_655
Li2 O21 2.013983 1_555
Li3 O3 1.968165 1_555
Li3 O14 2.001693 1_556
Li3 O20 2.013983 1_655
Li3 O26 2.013983 1_555
Cr0 O40 1.972255 1_555
Cr0 O12 2.011106 1_555
Cr0 O26 2.033412 1_555
Cr0 O20 2.033412 1_555
Cr0 O10 2.094029 1_555
Cr0 O4 2.094029 1_555
Cr1 O41 1.972255 1_555
Cr1 O13 2.011106 1_565
Cr1 O27 2.033412 1_555
Cr1 O21 2.033412 1_555
Cr1 O5 2.094029 1_565
Cr1 O11 2.094029 1_565
Cr2 O42 1.972255 1_555
Cr2 O14 2.011106 1_555
Cr2 O24 2.033412 1_555
Cr2 O22 2.033412 1_555
Cr2 O6 2.094029 1_555
Cr2 O8 2.094029 1_555
Cr3 O43 1.972255 1_555
Cr3 O15 2.011106 1_545
Cr3 O23 2.033412 1_555
Cr3 O25 2.033412 1_555
Cr3 O7 2.094029 1_545
Cr3 O9 2.094029 1_545
O0 Ti6 1.962591 1_555
O0 Ti0 1.962591 1_555
O0 Ti12 2.078849 1_555
O1 Ti7 1.962591 1_555
O1 Ti1 1.962591 1_555
O1 Ti13 2.078849 1_554
O2 Ti4 1.962591 1_555
O2 Ti2 1.962591 1_555
O2 Ti14 2.078849 1_555
O3 Ti5 1.962591 1_555
O3 Ti3 1.962591 1_555
O3 Ti15 2.078849 1_556
O4 Ti3 2.003502 1_455
O4 Ti11 2.006799 1_455
O4 Sr0 2.756386 1_555
O5 Ti2 2.003502 1_555
O5 Ti10 2.006799 1_545
O5 Sr1 2.756386 1_555
O6 Ti1 2.003502 1_555
O6 Ti9 2.006799 1_555
O6 Sr2 2.756386 1_555
O7 Ti0 2.003502 1_655
O7 Ti8 2.006799 1_665
O7 Sr3 2.756386 1_555
O8 Ti7 2.003502 1_655
O8 Ti9 2.006799 1_655
O8 Sr2 2.756386 1_555
O9 Ti6 2.003502 1_555
O9 Ti8 2.006799 1_565
O9 Sr3 2.756386 1_555
O10 Ti5 2.003502 1_555
O10 Ti11 2.006799 1_555
O10 Sr0 2.756386 1_555
O11 Ti4 2.003502 1_455
O11 Ti10 2.006799 1_445
O11 Sr1 2.756386 1_555
O12 Ti3 1.989418 1_455
O12 Ti5 1.989418 1_555
O13 Ti2 1.989418 1_555
O13 Ti4 1.989418 1_455
O14 Ti1 1.989418 1_555
O14 Ti7 1.989418 1_655
O15 Ti6 1.989418 1_555
O15 Ti0 1.989418 1_655
O16 Ti3 1.958348 1_455
O16 Ti5 1.958348 1_555
O16 Ti8 2.078420 1_555
O16 Sr0 2.749640 1_555
O17 Ti2 1.958348 1_555
O17 Ti4 1.958348 1_455
O17 Ti9 2.078420 1_555
O17 Sr1 2.749640 1_555
O18 Ti7 1.958348 1_655
O18 Ti1 1.958348 1_555
O18 Ti10 2.078420 1_555
O18 Sr2 2.749640 1_555
O19 Ti0 1.958348 1_655
O19 Ti6 1.958348 1_555
O19 Ti11 2.078420 1_555
O19 Sr3 2.749640 1_555
O20 Ti13 1.841299 1_555
O20 Sr3 2.629287 1_455
O21 Ti12 1.841299 1_555
O21 Sr2 2.629287 1_555
O22 Ti15 1.841299 1_555
O22 Sr1 2.629287 1_555
O23 Ti14 1.841299 1_555
O23 Sr0 2.629287 1_655
O24 Ti15 1.841299 1_555
O24 Sr1 2.629287 1_655
O25 Ti14 1.841299 1_555
O25 Sr0 2.629287 1_555
O26 Ti13 1.841299 1_555
O26 Sr3 2.629287 1_555
O27 Ti12 1.841299 1_555
O27 Sr2 2.629287 1_455
O28 Ti3 1.988706 1_455
O28 Ti8 2.017457 1_555
O28 Ti15 2.135750 1_456
O28 Sr1 3.013566 1_556
O28 Sr3 3.176058 1_445
O29 Ti2 1.988706 1_555
O29 Ti9 2.017457 1_555
O29 Ti14 2.135750 1_555
O29 Sr0 3.013566 1_555
O29 Sr2 3.176058 1_555
O30 Ti1 1.988706 1_555
O30 Ti10 2.017457 1_555
O30 Ti13 2.135750 1_554
O30 Sr3 3.013566 1_554
O30 Sr1 3.176058 1_565
O31 Ti0 1.988706 1_655
O31 Ti11 2.017457 1_555
O31 Ti12 2.135750 1_655
O31 Sr2 3.013566 1_555
O31 Sr0 3.176058 1_655
O32 Ti7 1.988706 1_655
O32 Ti10 2.017457 1_555
O32 Ti13 2.135750 1_654
O32 Sr3 3.013566 1_554
O32 Sr1 3.176058 1_665
O33 Ti6 1.988706 1_555
O33 Ti11 2.017457 1_555
O33 Ti12 2.135750 1_555
O33 Sr2 3.013566 1_555
O33 Sr0 3.176058 1_555
O34 Ti5 1.988706 1_555
O34 Ti8 2.017457 1_555
O34 Ti15 2.135750 1_556
O34 Sr1 3.013566 1_556
O34 Sr3 3.176058 1_545
O35 Ti4 1.988706 1_455
O35 Ti9 2.017457 1_555
O35 Ti14 2.135750 1_455
O35 Sr0 3.013566 1_555
O35 Sr2 3.176058 1_455
O36 Ti8 1.870210 1_565
O36 Ti13 1.958499 1_555
O36 Sr1 2.765615 1_566
O36 Sr3 2.981299 1_555
O36 Sr3 2.981299 1_455
O37 Ti9 1.870210 1_555
O37 Ti12 1.958499 1_555
O37 Sr0 2.765615 1_555
O37 Sr2 2.981299 1_455
O37 Sr2 2.981299 1_555
O38 Ti10 1.870210 1_545
O38 Ti15 1.958499 1_555
O38 Sr3 2.765615 1_544
O38 Sr1 2.981299 1_655
O38 Sr1 2.981299 1_555
O39 Ti11 1.870210 1_555
O39 Ti14 1.958499 1_555
O39 Sr2 2.765615 1_555
O39 Sr0 2.981299 1_655
O39 Sr0 2.981299 1_555
O40 Ti6 1.924677 1_555
O40 Ti0 1.924677 1_555
O41 Ti7 1.924677 1_555
O41 Ti1 1.924677 1_555
O42 Ti2 1.924677 1_555
O42 Ti4 1.924677 1_555
O43 Ti5 1.924677 1_555
O43 Ti3 1.924677 1_555
