# generated using pymatgen
data_LiGa(SeO3)2
_symmetry_space_group_name_H-M   'P 1'
_cell_length_a   9.09429516
_cell_length_b   9.09429516
_cell_length_c   9.09429516
_cell_angle_alpha   107.66507236
_cell_angle_beta   107.66507236
_cell_angle_gamma   113.14724687
_symmetry_Int_Tables_number   1
_chemical_formula_structural   LiGa(SeO3)2
_chemical_formula_sum   'Li4 Ga4 Se8 O24'
_cell_volume   577.20915075
_cell_formula_units_Z   4
loop_
 _symmetry_equiv_pos_site_id
 _symmetry_equiv_pos_as_xyz
  1  'x, y, z'
loop_
 _atom_site_type_symbol
 _atom_site_label
 _atom_site_symmetry_multiplicity
 _atom_site_fract_x
 _atom_site_fract_y
 _atom_site_fract_z
 _atom_site_occupancy
  Li  Li0  1  0.68922800  0.87500000  0.31422800  1
  Li  Li1  1  0.56077200  0.37500000  0.68577200  1
  Li  Li2  1  0.62500000  0.31077200  0.18577200  1
  Li  Li3  1  0.12500000  0.43922800  0.81422800  1
  Ga  Ga0  1  0.41267400  0.87500000  0.03767400  1
  Ga  Ga1  1  0.83732600  0.37500000  0.96232600  1
  Ga  Ga2  1  0.62500000  0.58732600  0.46232600  1
  Ga  Ga3  1  0.12500000  0.16267400  0.53767400  1
  Se  Se0  1  0.85577000  0.13455100  0.17175200  1
  Se  Se1  1  0.28720100  0.61544900  0.22121900  1
  Se  Se2  1  0.96279900  0.68401800  0.82824800  1
  Se  Se3  1  0.39423000  0.06598200  0.77878100  1
  Se  Se4  1  0.31598200  0.14423000  0.27878100  1
  Se  Se5  1  0.38455100  0.60577000  0.67175200  1
  Se  Se6  1  0.86544900  0.03720100  0.72121900  1
  Se  Se7  1  0.93401800  0.71279900  0.32824800  1
  O  O0  1  0.68024200  0.04770100  0.22097700  1
  O  O1  1  0.42327600  0.70229900  0.13254100  1
  O  O2  1  0.82672400  0.45926500  0.77902300  1
  O  O3  1  0.56975800  0.29073500  0.86745900  1
  O  O4  1  0.54073500  0.31975800  0.36745900  1
  O  O5  1  0.29770100  0.43024200  0.72097700  1
  O  O6  1  0.95229900  0.17327600  0.63254100  1
  O  O7  1  0.70926500  0.57672400  0.27902300  1
  O  O8  1  0.84021900  0.31609600  0.15845500  1
  O  O9  1  0.09235900  0.43390400  0.02412300  1
  O  O10  1  0.15764100  0.68176400  0.84154400  1
  O  O11  1  0.40978100  0.06823600  0.97587700  1
  O  O12  1  0.31823600  0.15978100  0.47587700  1
  O  O13  1  0.56609600  0.59021900  0.65845500  1
  O  O14  1  0.68390400  0.84235900  0.52412300  1
  O  O15  1  0.93176400  0.90764100  0.34154400  1
  O  O16  1  0.04260900  0.25504800  0.37755900  1
  O  O17  1  0.37251000  0.49495200  0.28756000  1
  O  O18  1  0.87749000  0.66505000  0.62244100  1
  O  O19  1  0.20739100  0.08495000  0.71244000  1
  O  O20  1  0.33495000  0.95739100  0.21244000  1
  O  O21  1  0.50504800  0.79260900  0.87755900  1
  O  O22  1  0.74495200  0.12251000  0.78756000  1
  O  O23  1  0.91505000  0.62749000  0.12244100  1
loop_
_geom_bond_atom_site_label_1
_geom_bond_atom_site_label_2
_geom_bond_distance
_geom_bond_site_symmetry_2
Li0 O1 2.014906 1_555
Li0 O0 2.014906 1_565
Li0 O14 2.030479 1_555
Li0 O15 2.030481 1_555
Li1 O2 2.014906 1_555
Li1 O3 2.014906 1_555
Li1 O13 2.030479 1_555
Li1 O12 2.030479 1_555
Li2 O4 2.014906 1_555
Li2 O7 2.014906 1_555
Li2 O8 2.030479 1_555
Li2 O11 2.030479 1_554
Li3 O5 2.014906 1_555
Li3 O6 2.014906 1_455
Li3 O9 2.030479 1_556
Li3 O10 2.030481 1_555
Ga0 O21 1.990626 1_554
Ga0 O20 1.990633 1_555
Ga0 O11 2.007877 1_564
Ga0 O10 2.007880 1_554
Ga0 O0 2.027644 1_565
Ga0 O1 2.027644 1_555
Ga1 O23 1.990633 1_556
Ga1 O22 1.990636 1_555
Ga1 O8 2.007877 1_556
Ga1 O9 2.007877 1_656
Ga1 O3 2.027644 1_555
Ga1 O2 2.027644 1_555
Ga2 O18 1.990633 1_555
Ga2 O17 1.990636 1_555
Ga2 O14 2.007877 1_555
Ga2 O13 2.007877 1_555
Ga2 O7 2.027644 1_555
Ga2 O4 2.027644 1_555
Ga3 O16 1.990626 1_555
Ga3 O19 1.990633 1_555
Ga3 O12 2.007877 1_555
Ga3 O15 2.007880 1_445
Ga3 O5 2.027644 1_555
Ga3 O6 2.027644 1_455
O0 Se0 1.740541 1_555
O1 Se1 1.740541 1_555
O2 Se2 1.740541 1_555
O3 Se3 1.740541 1_555
O4 Se4 1.740541 1_555
O5 Se5 1.740541 1_555
O6 Se6 1.740541 1_555
O7 Se7 1.740541 1_555
O8 Se0 1.747818 1_555
O9 Se1 1.747818 1_555
O10 Se2 1.747820 1_455
O11 Se3 1.747818 1_555
O12 Se4 1.747818 1_555
O13 Se5 1.747818 1_555
O14 Se6 1.747818 1_565
O15 Se7 1.747820 1_555
O16 Se0 1.718246 1_455
O17 Se1 1.718236 1_555
O18 Se2 1.718245 1_555
O19 Se3 1.718245 1_555
O20 Se4 1.718245 1_565
O21 Se5 1.718246 1_555
O22 Se6 1.718236 1_555
O23 Se7 1.718245 1_555
