# generated using pymatgen
data_Pr3Sc
_symmetry_space_group_name_H-M   'P 1'
_cell_length_a   7.35502817
_cell_length_b   7.35502817
_cell_length_c   5.76207285
_cell_angle_alpha   90.00000000
_cell_angle_beta   90.00000000
_cell_angle_gamma   119.99999504
_symmetry_Int_Tables_number   1
_chemical_formula_structural   Pr3Sc
_chemical_formula_sum   'Pr6 Sc2'
_cell_volume   269.94673487
_cell_formula_units_Z   2
loop_
 _symmetry_equiv_pos_site_id
 _symmetry_equiv_pos_as_xyz
  1  'x, y, z'
loop_
 _atom_site_type_symbol
 _atom_site_label
 _atom_site_symmetry_multiplicity
 _atom_site_fract_x
 _atom_site_fract_y
 _atom_site_fract_z
 _atom_site_occupancy
  Pr  Pr0  1  0.17117564  0.34235229  0.25000000  1
  Pr  Pr1  1  0.17117564  0.82882436  0.25000000  1
  Pr  Pr2  1  0.65764771  0.82882436  0.25000000  1
  Pr  Pr3  1  0.82882436  0.65764771  0.75000000  1
  Pr  Pr4  1  0.34235229  0.17117564  0.75000000  1
  Pr  Pr5  1  0.82882436  0.17117564  0.75000000  1
  Sc  Sc0  1  0.33333300  0.66666700  0.75000000  1
  Sc  Sc1  1  0.66666700  0.33333300  0.25000000  1
loop_
_geom_bond_atom_site_label_1
_geom_bond_atom_site_label_2
_geom_bond_distance
_geom_bond_site_symmetry_2
Pr0 Sc0 3.545105 1_554
Pr0 Sc0 3.545105 1_555
Pr0 Pr1 3.578016 1_555
Pr0 Pr2 3.578016 1_555
Pr0 Pr5 3.613257 1_455
Pr0 Pr5 3.613257 1_454
Pr0 Pr4 3.613265 1_554
Pr0 Pr4 3.613265 1_555
Pr0 Sc1 3.677955 1_455
Pr0 Sc1 3.677970 1_555
Pr0 Pr1 3.777012 1_545
Pr0 Pr2 3.777013 1_445
Pr1 Sc0 3.545105 1_554
Pr1 Sc0 3.545105 1_555
Pr1 Pr2 3.578016 1_555
Pr1 Pr3 3.613257 1_454
Pr1 Pr4 3.613257 1_565
Pr1 Pr3 3.613257 1_455
Pr1 Pr4 3.613257 1_564
Pr1 Sc1 3.677963 1_455
Pr1 Sc1 3.677963 1_565
Pr1 Pr2 3.777012 1_455
Pr2 Sc0 3.545105 1_555
Pr2 Sc0 3.545105 1_554
Pr2 Pr5 3.613257 1_564
Pr2 Pr5 3.613257 1_565
Pr2 Pr3 3.613265 1_555
Pr2 Pr3 3.613265 1_554
Pr2 Sc1 3.677955 1_565
Pr2 Sc1 3.677970 1_555
Pr3 Sc1 3.545105 1_556
Pr3 Sc1 3.545105 1_555
Pr3 Pr5 3.578016 1_555
Pr3 Pr4 3.578016 1_555
Pr3 Sc0 3.677955 1_655
Pr3 Sc0 3.677970 1_555
Pr3 Pr5 3.777012 1_565
Pr3 Pr4 3.777013 1_665
Pr4 Sc1 3.545105 1_556
Pr4 Sc1 3.545105 1_555
Pr4 Pr5 3.578016 1_555
Pr4 Sc0 3.677955 1_545
Pr4 Sc0 3.677970 1_555
Pr4 Pr5 3.777012 1_455
Pr5 Sc1 3.545105 1_556
Pr5 Sc1 3.545105 1_555
Pr5 Sc0 3.677963 1_545
Pr5 Sc0 3.677963 1_655
