# generated using pymatgen
data_Dy11Cd45
_symmetry_space_group_name_H-M   'P 1'
_cell_length_a   15.39810010
_cell_length_b   15.39810010
_cell_length_c   15.39810010
_cell_angle_alpha   60.00000000
_cell_angle_beta   60.00000000
_cell_angle_gamma   60.00000000
_symmetry_Int_Tables_number   1
_chemical_formula_structural   Dy11Cd45
_chemical_formula_sum   'Dy22 Cd90'
_cell_volume   2581.58493523
_cell_formula_units_Z   2
loop_
 _symmetry_equiv_pos_site_id
 _symmetry_equiv_pos_as_xyz
  1  'x, y, z'
loop_
 _atom_site_type_symbol
 _atom_site_label
 _atom_site_symmetry_multiplicity
 _atom_site_fract_x
 _atom_site_fract_y
 _atom_site_fract_z
 _atom_site_occupancy
  Dy  Dy0  1  0.00000000  0.00000000  0.00000000  1
  Dy  Dy1  1  0.01367400  0.33358500  0.63906700  1
  Dy  Dy2  1  0.01367400  0.01367400  0.63906700  1
  Dy  Dy3  1  0.33358500  0.01367400  0.63906700  1
  Dy  Dy4  1  0.01367400  0.63906700  0.33358500  1
  Dy  Dy5  1  0.33358500  0.63906700  0.01367400  1
  Dy  Dy6  1  0.01367400  0.63906700  0.01367400  1
  Dy  Dy7  1  0.63906700  0.01367400  0.01367400  1
  Dy  Dy8  1  0.63906700  0.33358500  0.01367400  1
  Dy  Dy9  1  0.63906700  0.01367400  0.33358500  1
  Dy  Dy10  1  0.33358500  0.01367400  0.01367400  1
  Dy  Dy11  1  0.01367400  0.01367400  0.33358500  1
  Dy  Dy12  1  0.01367400  0.33358500  0.01367400  1
  Dy  Dy13  1  0.25000000  0.25000000  0.25000000  1
  Dy  Dy14  1  0.40637000  0.40637000  0.78089100  1
  Dy  Dy15  1  0.40637000  0.78089100  0.40637000  1
  Dy  Dy16  1  0.78089100  0.40637000  0.40637000  1
  Dy  Dy17  1  0.40637000  0.40637000  0.40637000  1
  Dy  Dy18  1  0.66207000  0.66207000  0.01379100  1
  Dy  Dy19  1  0.66207000  0.01379100  0.66207000  1
  Dy  Dy20  1  0.01379100  0.66207000  0.66207000  1
  Dy  Dy21  1  0.66207000  0.66207000  0.66207000  1
  Cd  Cd0  1  0.08334400  0.08334400  0.74996800  1
  Cd  Cd1  1  0.08334400  0.74996800  0.08334400  1
  Cd  Cd2  1  0.74996800  0.08334400  0.08334400  1
  Cd  Cd3  1  0.08334400  0.08334400  0.08334400  1
  Cd  Cd4  1  0.91333100  0.91333100  0.26000800  1
  Cd  Cd5  1  0.91333100  0.26000800  0.91333100  1
  Cd  Cd6  1  0.26000800  0.91333100  0.91333100  1
  Cd  Cd7  1  0.91333100  0.91333100  0.91333100  1
  Cd  Cd8  1  0.15628600  0.15628600  0.84371400  1
  Cd  Cd9  1  0.84371400  0.15628600  0.84371400  1
  Cd  Cd10  1  0.15628600  0.84371400  0.84371400  1
  Cd  Cd11  1  0.84371400  0.84371400  0.15628600  1
  Cd  Cd12  1  0.15628600  0.84371400  0.15628600  1
  Cd  Cd13  1  0.84371400  0.15628600  0.15628600  1
  Cd  Cd14  1  0.39072000  0.20084700  0.01771300  1
  Cd  Cd15  1  0.39072000  0.39072000  0.01771300  1
  Cd  Cd16  1  0.20084700  0.39072000  0.01771300  1
  Cd  Cd17  1  0.39072000  0.01771300  0.20084700  1
  Cd  Cd18  1  0.20084700  0.01771300  0.39072000  1
  Cd  Cd19  1  0.39072000  0.01771300  0.39072000  1
  Cd  Cd20  1  0.01771300  0.39072000  0.39072000  1
  Cd  Cd21  1  0.01771300  0.20084700  0.39072000  1
  Cd  Cd22  1  0.01771300  0.39072000  0.20084700  1
  Cd  Cd23  1  0.20084700  0.39072000  0.39072000  1
  Cd  Cd24  1  0.39072000  0.39072000  0.20084700  1
  Cd  Cd25  1  0.39072000  0.20084700  0.39072000  1
  Cd  Cd26  1  0.16335500  0.16335500  0.50993500  1
  Cd  Cd27  1  0.16335500  0.50993500  0.16335500  1
  Cd  Cd28  1  0.50993500  0.16335500  0.16335500  1
  Cd  Cd29  1  0.16335500  0.16335500  0.16335500  1
  Cd  Cd30  1  0.26321000  0.61148100  0.86209800  1
  Cd  Cd31  1  0.26321000  0.26321000  0.86209800  1
  Cd  Cd32  1  0.61148100  0.26321000  0.86209800  1
  Cd  Cd33  1  0.26321000  0.86209800  0.61148100  1
  Cd  Cd34  1  0.61148100  0.86209800  0.26321000  1
  Cd  Cd35  1  0.26321000  0.86209800  0.26321000  1
  Cd  Cd36  1  0.86209800  0.26321000  0.26321000  1
  Cd  Cd37  1  0.86209800  0.61148100  0.26321000  1
  Cd  Cd38  1  0.86209800  0.26321000  0.61148100  1
  Cd  Cd39  1  0.61148100  0.26321000  0.26321000  1
  Cd  Cd40  1  0.26321000  0.26321000  0.61148100  1
  Cd  Cd41  1  0.26321000  0.61148100  0.26321000  1
  Cd  Cd42  1  0.50000000  0.50000000  0.50000000  1
  Cd  Cd43  1  0.64054300  0.45013600  0.26877700  1
  Cd  Cd44  1  0.64054300  0.64054300  0.26877700  1
  Cd  Cd45  1  0.45013600  0.64054300  0.26877700  1
  Cd  Cd46  1  0.64054300  0.26877700  0.45013600  1
  Cd  Cd47  1  0.45013600  0.26877700  0.64054300  1
  Cd  Cd48  1  0.64054300  0.26877700  0.64054300  1
  Cd  Cd49  1  0.26877700  0.64054300  0.64054300  1
  Cd  Cd50  1  0.26877700  0.45013600  0.64054300  1
  Cd  Cd51  1  0.26877700  0.64054300  0.45013600  1
  Cd  Cd52  1  0.45013600  0.64054300  0.64054300  1
  Cd  Cd53  1  0.64054300  0.64054300  0.45013600  1
  Cd  Cd54  1  0.64054300  0.45013600  0.64054300  1
  Cd  Cd55  1  0.51250200  0.83359800  0.14139700  1
  Cd  Cd56  1  0.51250200  0.51250200  0.14139700  1
  Cd  Cd57  1  0.83359800  0.51250200  0.14139700  1
  Cd  Cd58  1  0.51250200  0.14139700  0.83359800  1
  Cd  Cd59  1  0.83359800  0.14139700  0.51250200  1
  Cd  Cd60  1  0.51250200  0.14139700  0.51250200  1
  Cd  Cd61  1  0.14139700  0.51250200  0.51250200  1
  Cd  Cd62  1  0.14139700  0.83359800  0.51250200  1
  Cd  Cd63  1  0.14139700  0.51250200  0.83359800  1
  Cd  Cd64  1  0.83359800  0.51250200  0.51250200  1
  Cd  Cd65  1  0.51250200  0.51250200  0.83359800  1
  Cd  Cd66  1  0.51250200  0.83359800  0.51250200  1
  Cd  Cd67  1  0.75000000  0.75000000  0.75000000  1
  Cd  Cd68  1  0.83006100  0.83006100  0.50981700  1
  Cd  Cd69  1  0.83006100  0.50981700  0.83006100  1
  Cd  Cd70  1  0.50981700  0.83006100  0.83006100  1
  Cd  Cd71  1  0.83006100  0.83006100  0.83006100  1
  Cd  Cd72  1  0.91144500  0.91144500  0.58855500  1
  Cd  Cd73  1  0.58855500  0.91144500  0.58855500  1
  Cd  Cd74  1  0.91144500  0.58855500  0.58855500  1
  Cd  Cd75  1  0.58855500  0.58855500  0.91144500  1
  Cd  Cd76  1  0.91144500  0.58855500  0.91144500  1
  Cd  Cd77  1  0.58855500  0.91144500  0.91144500  1
  Cd  Cd78  1  0.76399400  0.06747100  0.40454100  1
  Cd  Cd79  1  0.76399400  0.76399400  0.40454100  1
  Cd  Cd80  1  0.06747100  0.76399400  0.40454100  1
  Cd  Cd81  1  0.76399400  0.40454100  0.06747100  1
  Cd  Cd82  1  0.06747100  0.40454100  0.76399400  1
  Cd  Cd83  1  0.76399400  0.40454100  0.76399400  1
  Cd  Cd84  1  0.40454100  0.76399400  0.76399400  1
  Cd  Cd85  1  0.40454100  0.06747100  0.76399400  1
  Cd  Cd86  1  0.40454100  0.76399400  0.06747100  1
  Cd  Cd87  1  0.06747100  0.76399400  0.76399400  1
  Cd  Cd88  1  0.76399400  0.76399400  0.06747100  1
  Cd  Cd89  1  0.76399400  0.06747100  0.76399400  1
loop_
_geom_bond_atom_site_label_1
_geom_bond_atom_site_label_2
_geom_bond_distance
_geom_bond_site_symmetry_2
Cd0 Cd26 3.017814 1_555
Cd0 Cd9 3.018419 1_455
Cd0 Cd8 3.018419 1_555
Cd0 Cd10 3.018419 1_545
Cd0 Dy0 3.143526 1_556
Cd0 Dy2 3.167435 1_555
Cd0 Dy3 3.167435 1_555
Cd0 Dy1 3.167435 1_555
Cd1 Cd27 3.017814 1_555
Cd1 Cd12 3.018419 1_555
Cd1 Cd10 3.018419 1_554
Cd1 Cd11 3.018419 1_455
Cd1 Dy0 3.143526 1_565
Cd1 Dy6 3.167435 1_555
Cd1 Dy4 3.167435 1_555
Cd1 Dy5 3.167435 1_555
Cd2 Cd28 3.017814 1_555
Cd2 Cd9 3.018419 1_554
Cd2 Dy0 3.143526 1_655
Cd2 Dy7 3.167435 1_555
Cd2 Dy8 3.167435 1_555
Cd2 Dy9 3.167435 1_555
Cd3 Cd8 3.018419 1_554
Cd3 Dy0 3.143526 1_555
Cd3 Dy12 3.167435 1_555
Cd3 Dy10 3.167435 1_555
Cd3 Dy11 3.167435 1_555
Cd4 Cd68 3.140723 1_555
Cd4 Cd80 3.252823 1_655
Cd4 Cd78 3.252823 1_565
Cd4 Cd79 3.252834 1_555
Cd4 Dy0 3.268950 1_665
Cd4 Dy11 3.456371 1_665
Cd4 Dy4 3.456384 1_655
Cd4 Dy9 3.456384 1_565
Cd5 Cd8 3.069562 1_655
Cd5 Cd9 3.069574 1_555
Cd5 Cd69 3.140723 1_555
Cd5 Cd82 3.252823 1_655
Cd5 Cd81 3.252823 1_556
Cd5 Cd83 3.252834 1_555
Cd5 Dy0 3.268950 1_656
Cd5 Dy12 3.456371 1_656
Cd5 Dy1 3.456384 1_655
Cd5 Dy8 3.456384 1_556
Cd6 Cd8 3.069562 1_565
Cd6 Cd70 3.140723 1_555
Cd6 Cd86 3.252823 1_556
Cd6 Cd85 3.252823 1_565
Cd6 Cd84 3.252834 1_555
Cd6 Dy0 3.268950 1_566
Cd6 Dy10 3.456371 1_566
Cd6 Dy3 3.456384 1_565
Cd6 Dy5 3.456384 1_556
Cd7 Cd9 3.069561 1_565
Cd7 Cd71 3.140735 1_555
Cd7 Cd89 3.252834 1_565
Cd7 Cd88 3.252834 1_556
Cd7 Cd87 3.252834 1_655
Cd7 Dy0 3.268937 1_666
Cd7 Dy7 3.456383 1_566
Cd7 Dy2 3.456383 1_665
Cd7 Dy6 3.456383 1_656
Cd8 Cd82 3.122232 1_555
Cd8 Cd85 3.122232 1_555
Cd8 Dy0 3.403316 1_556
Cd8 Dy3 3.811456 1_555
Cd8 Dy1 3.811456 1_555
Cd8 Dy10 3.811456 1_556
Cd8 Dy12 3.811456 1_556
Cd9 Dy0 3.403316 1_656
Cd9 Dy2 3.811456 1_655
Cd9 Dy7 3.811456 1_556
Cd9 Dy1 3.811456 1_655
Cd9 Dy8 3.811456 1_556
Cd10 Cd33 3.023989 1_555
Cd10 Cd30 3.023989 1_555
Cd10 Cd7 3.069561 1_455
Cd10 Cd6 3.069574 1_555
Cd10 Cd84 3.122232 1_555
Cd10 Cd87 3.122232 1_555
Cd10 Dy0 3.403316 1_566
Cd10 Dy2 3.811456 1_565
Cd10 Dy6 3.811456 1_556
Cd10 Dy5 3.811456 1_556
Cd10 Dy3 3.811456 1_565
Cd11 Cd2 3.018419 1_565
Cd11 Cd37 3.023989 1_555
Cd11 Cd34 3.023989 1_555
Cd11 Cd7 3.069561 1_554
Cd11 Cd4 3.069574 1_555
Cd11 Cd79 3.122232 1_555
Cd11 Cd88 3.122232 1_555
Cd11 Dy0 3.403316 1_665
Cd11 Dy7 3.811456 1_565
Cd11 Dy6 3.811456 1_655
Cd11 Dy4 3.811456 1_655
Cd11 Dy9 3.811456 1_565
Cd12 Cd3 3.018419 1_565
Cd12 Cd35 3.023976 1_555
Cd12 Cd41 3.023986 1_555
Cd12 Cd6 3.069562 1_554
Cd12 Cd4 3.069562 1_455
Cd12 Cd86 3.122232 1_555
Cd12 Cd80 3.122232 1_555
Cd12 Dy0 3.403316 1_565
Cd12 Dy4 3.811456 1_555
Cd12 Dy5 3.811456 1_555
Cd12 Dy10 3.811456 1_565
Cd12 Dy11 3.811456 1_565
Cd13 Cd2 3.018419 1_555
Cd13 Cd3 3.018419 1_655
Cd13 Cd36 3.023976 1_555
Cd13 Cd39 3.023986 1_555
Cd13 Cd5 3.069562 1_554
Cd13 Cd4 3.069562 1_545
Cd13 Cd81 3.122232 1_555
Cd13 Cd78 3.122232 1_555
Cd13 Dy0 3.403316 1_655
Cd13 Dy9 3.811456 1_555
Cd13 Dy8 3.811456 1_555
Cd13 Dy12 3.811456 1_655
Cd13 Dy11 3.811456 1_655
Cd14 Cd17 2.819916 1_555
Cd14 Cd58 2.820304 1_554
Cd14 Cd15 2.923683 1_555
Cd14 Cd16 2.923683 1_555
Cd14 Cd29 3.239540 1_555
Cd14 Cd28 3.239540 1_555
Cd14 Cd32 3.322194 1_554
Cd14 Cd31 3.322206 1_554
Cd14 Dy13 3.373159 1_555
Cd14 Dy14 3.422644 1_554
Cd14 Dy10 3.442960 1_555
Cd14 Dy7 3.442960 1_555
Cd15 Cd24 2.819916 1_555
Cd15 Cd65 2.820296 1_554
Cd15 Cd16 2.923683 1_555
Cd15 Cd28 3.239540 1_555
Cd15 Cd27 3.239540 1_555
Cd15 Cd32 3.322201 1_554
Cd15 Cd30 3.322201 1_554
Cd15 Dy13 3.373159 1_555
Cd15 Dy14 3.422638 1_554
Cd15 Dy8 3.442960 1_555
Cd15 Dy5 3.442960 1_555
Cd16 Cd22 2.819916 1_555
Cd16 Cd63 2.820304 1_554
Cd16 Cd29 3.239540 1_555
Cd16 Cd27 3.239540 1_555
Cd16 Cd30 3.322194 1_554
Cd16 Cd31 3.322206 1_554
Cd16 Dy13 3.373159 1_555
Cd16 Dy14 3.422644 1_554
Cd16 Dy12 3.442960 1_555
Cd16 Dy6 3.442960 1_555
Cd17 Cd55 2.820304 1_545
Cd17 Cd19 2.923683 1_555
Cd17 Cd18 2.923683 1_555
Cd17 Cd29 3.239540 1_555
Cd17 Cd28 3.239540 1_555
Cd17 Cd34 3.322194 1_545
Cd17 Cd35 3.322206 1_545
Cd17 Dy13 3.373159 1_555
Cd17 Dy15 3.422644 1_545
Cd17 Dy10 3.442960 1_555
Cd17 Dy7 3.442960 1_555
Cd18 Cd21 2.819916 1_555
Cd18 Cd62 2.820304 1_545
Cd18 Cd19 2.923683 1_555
Cd18 Cd29 3.239540 1_555
Cd18 Cd26 3.239540 1_555
Cd18 Cd33 3.322194 1_545
Cd18 Cd35 3.322206 1_545
Cd18 Dy13 3.373159 1_555
Cd18 Dy15 3.422644 1_545
Cd18 Dy2 3.442960 1_555
Cd18 Dy11 3.442960 1_555
Cd19 Cd25 2.819916 1_555
Cd19 Cd66 2.820296 1_545
Cd19 Cd28 3.239540 1_555
Cd19 Cd26 3.239540 1_555
Cd19 Cd33 3.322201 1_545
Cd19 Cd34 3.322201 1_545
Cd19 Dy13 3.373159 1_555
Cd19 Dy15 3.422638 1_545
Cd19 Dy9 3.442960 1_555
Cd19 Dy3 3.442960 1_555
Cd20 Cd23 2.819916 1_555
Cd20 Cd64 2.820296 1_455
Cd20 Cd22 2.923683 1_555
Cd20 Cd21 2.923683 1_555
Cd20 Cd26 3.239540 1_555
Cd20 Cd27 3.239540 1_555
Cd20 Cd38 3.322201 1_455
Cd20 Cd37 3.322201 1_455
Cd20 Dy13 3.373159 1_555
Cd20 Dy16 3.422638 1_455
Cd20 Dy1 3.442960 1_555
Cd20 Dy4 3.442960 1_555
Cd21 Cd59 2.820304 1_455
Cd21 Cd22 2.923683 1_555
Cd21 Cd29 3.239540 1_555
Cd21 Cd26 3.239540 1_555
Cd21 Cd38 3.322194 1_455
Cd21 Cd36 3.322206 1_455
Cd21 Dy13 3.373159 1_555
Cd21 Dy16 3.422644 1_455
Cd21 Dy2 3.442960 1_555
Cd21 Dy11 3.442960 1_555
Cd22 Cd57 2.820304 1_455
Cd22 Cd29 3.239540 1_555
Cd22 Cd27 3.239540 1_555
Cd22 Cd37 3.322194 1_455
Cd22 Cd36 3.322206 1_455
Cd22 Dy13 3.373159 1_555
Cd22 Dy16 3.422644 1_455
Cd22 Dy12 3.442960 1_555
Cd22 Dy6 3.442960 1_555
Cd23 Cd61 2.820291 1_555
Cd23 Cd25 2.923683 1_555
Cd23 Cd24 2.923683 1_555
Cd23 Cd26 3.239540 1_555
Cd23 Cd27 3.239540 1_555
Cd23 Cd41 3.322193 1_555
Cd23 Cd40 3.322193 1_555
Cd23 Dy13 3.373159 1_555
Cd23 Dy17 3.422653 1_555
Cd23 Dy4 3.442960 1_555
Cd23 Dy1 3.442960 1_555
Cd24 Cd56 2.820291 1_555
Cd24 Cd25 2.923683 1_555
Cd24 Cd28 3.239540 1_555
Cd24 Cd27 3.239540 1_555
Cd24 Cd39 3.322193 1_555
Cd24 Cd41 3.322193 1_555
Cd24 Dy13 3.373159 1_555
Cd24 Dy17 3.422653 1_555
Cd24 Dy5 3.442960 1_555
Cd24 Dy8 3.442960 1_555
Cd25 Cd60 2.820291 1_555
Cd25 Cd28 3.239540 1_555
Cd25 Cd26 3.239540 1_555
Cd25 Cd39 3.322193 1_555
Cd25 Cd40 3.322193 1_555
Cd25 Dy13 3.373159 1_555
Cd25 Dy17 3.422653 1_555
Cd25 Dy3 3.442960 1_555
Cd25 Dy9 3.442960 1_555
Cd26 Dy13 3.268032 1_555
Cd26 Dy1 3.274806 1_555
Cd26 Dy2 3.274806 1_555
Cd26 Dy3 3.274806 1_555
Cd27 Dy13 3.268032 1_555
Cd27 Dy5 3.274806 1_555
Cd27 Dy6 3.274806 1_555
Cd27 Dy4 3.274806 1_555
Cd28 Dy13 3.268032 1_555
Cd28 Dy7 3.274806 1_555
Cd28 Dy8 3.274806 1_555
Cd28 Dy9 3.274806 1_555
Cd29 Cd3 3.017814 1_555
Cd29 Dy13 3.268032 1_555
Cd29 Dy12 3.274806 1_555
Cd29 Dy10 3.274806 1_555
Cd29 Dy11 3.274806 1_555
Cd30 Cd52 3.172598 1_555
Cd30 Cd49 3.172598 1_555
Cd30 Cd65 3.222473 1_555
Cd30 Cd63 3.222473 1_555
Cd30 Dy14 3.260147 1_555
Cd30 Dy6 3.283751 1_556
Cd30 Dy5 3.283762 1_556
Cd30 Cd87 3.287639 1_555
Cd30 Cd84 3.287651 1_555
Cd31 Cd8 3.023976 1_555
Cd31 Cd47 3.172598 1_555
Cd31 Cd50 3.172598 1_555
Cd31 Cd63 3.222473 1_555
Cd31 Cd58 3.222473 1_555
Cd31 Dy14 3.260173 1_555
Cd31 Dy10 3.283752 1_556
Cd31 Dy12 3.283752 1_556
Cd31 Cd85 3.287639 1_555
Cd31 Cd82 3.287639 1_555
Cd32 Cd9 3.023989 1_555
Cd32 Cd54 3.172598 1_555
Cd32 Cd48 3.172598 1_555
Cd32 Cd65 3.222473 1_555
Cd32 Cd58 3.222473 1_555
Cd32 Dy14 3.260147 1_555
Cd32 Dy7 3.283751 1_556
Cd32 Dy8 3.283762 1_556
Cd32 Cd89 3.287639 1_555
Cd32 Cd83 3.287651 1_555
Cd33 Cd52 3.172598 1_555
Cd33 Cd49 3.172598 1_555
Cd33 Cd66 3.222473 1_555
Cd33 Cd62 3.222473 1_555
Cd33 Dy15 3.260147 1_555
Cd33 Dy2 3.283751 1_565
Cd33 Dy3 3.283762 1_565
Cd33 Cd87 3.287639 1_555
Cd33 Cd84 3.287651 1_555
Cd34 Cd53 3.172598 1_555
Cd34 Cd44 3.172598 1_555
Cd34 Cd66 3.222473 1_555
Cd34 Cd55 3.222473 1_555
Cd34 Dy15 3.260147 1_555
Cd34 Dy7 3.283751 1_565
Cd34 Dy9 3.283762 1_565
Cd34 Cd88 3.287639 1_555
Cd34 Cd79 3.287651 1_555
Cd35 Cd45 3.172598 1_555
Cd35 Cd51 3.172598 1_555
Cd35 Cd55 3.222473 1_555
Cd35 Cd62 3.222473 1_555
Cd35 Dy15 3.260173 1_555
Cd35 Dy11 3.283752 1_565
Cd35 Dy10 3.283752 1_565
Cd35 Cd80 3.287639 1_555
Cd35 Cd86 3.287639 1_555
Cd36 Cd43 3.172598 1_555
Cd36 Cd46 3.172598 1_555
Cd36 Cd59 3.222473 1_555
Cd36 Cd57 3.222473 1_555
Cd36 Dy16 3.260173 1_555
Cd36 Dy12 3.283752 1_655
Cd36 Dy11 3.283752 1_655
Cd36 Cd78 3.287639 1_555
Cd36 Cd81 3.287639 1_555
Cd37 Cd53 3.172598 1_555
Cd37 Cd44 3.172598 1_555
Cd37 Cd64 3.222473 1_555
Cd37 Cd57 3.222473 1_555
Cd37 Dy16 3.260147 1_555
Cd37 Dy6 3.283751 1_655
Cd37 Dy4 3.283762 1_655
Cd37 Cd88 3.287639 1_555
Cd37 Cd79 3.287651 1_555
Cd38 Cd9 3.023989 1_555
Cd38 Cd54 3.172598 1_555
Cd38 Cd48 3.172598 1_555
Cd38 Cd64 3.222473 1_555
Cd38 Cd59 3.222473 1_555
Cd38 Dy16 3.260147 1_555
Cd38 Dy2 3.283751 1_655
Cd38 Dy1 3.283762 1_655
Cd38 Cd89 3.287639 1_555
Cd38 Cd83 3.287651 1_555
Cd39 Cd43 3.172598 1_555
Cd39 Cd46 3.172598 1_555
Cd39 Cd60 3.222473 1_555
Cd39 Cd56 3.222473 1_555
Cd39 Dy17 3.260164 1_555
Cd39 Dy9 3.283748 1_555
Cd39 Dy8 3.283748 1_555
Cd39 Cd78 3.287648 1_555
Cd39 Cd81 3.287648 1_555
Cd40 Cd8 3.023986 1_555
Cd40 Cd50 3.172598 1_555
Cd40 Cd47 3.172598 1_555
Cd40 Cd61 3.222473 1_555
Cd40 Cd60 3.222473 1_555
Cd40 Dy17 3.260164 1_555
Cd40 Dy3 3.283748 1_555
Cd40 Dy1 3.283748 1_555
Cd40 Cd85 3.287648 1_555
Cd40 Cd82 3.287648 1_555
Cd41 Cd45 3.172598 1_555
Cd41 Cd51 3.172598 1_555
Cd41 Cd61 3.222473 1_555
Cd41 Cd56 3.222473 1_555
Cd41 Dy17 3.260164 1_555
Cd41 Dy4 3.283748 1_555
Cd41 Dy5 3.283748 1_555
Cd41 Cd86 3.287648 1_555
Cd41 Cd80 3.287648 1_555
Cd42 Cd53 3.363960 1_555
Cd42 Cd54 3.363960 1_555
Cd42 Cd52 3.363960 1_555
Cd42 Cd44 3.363966 1_555
Cd42 Cd48 3.363966 1_555
Cd42 Cd49 3.363966 1_555
Cd42 Cd46 3.363973 1_555
Cd42 Cd43 3.363973 1_555
Cd42 Cd50 3.363973 1_555
Cd42 Cd47 3.363973 1_555
Cd42 Cd51 3.363973 1_555
Cd42 Cd45 3.363973 1_555
Cd42 Dy17 3.531488 1_555
Cd42 Dy14 3.531501 1_555
Cd42 Dy16 3.531501 1_555
Cd42 Dy15 3.531501 1_555
Cd43 Cd46 2.792584 1_555
Cd43 Cd44 2.931906 1_555
Cd43 Cd45 2.931906 1_555
Cd43 Cd81 2.943476 1_555
Cd43 Cd56 2.957476 1_555
Cd43 Cd57 2.957476 1_555
Cd43 Dy17 3.362666 1_555
Cd43 Dy16 3.362692 1_555
Cd43 Dy18 3.625274 1_555
Cd44 Cd53 2.792584 1_555
Cd44 Cd45 2.931906 1_555
Cd44 Cd88 2.943483 1_555
Cd44 Cd55 2.957476 1_555
Cd44 Cd57 2.957476 1_555
Cd44 Dy15 3.362679 1_555
Cd44 Dy16 3.362679 1_555
Cd44 Dy18 3.625261 1_555
Cd45 Cd51 2.792584 1_555
Cd45 Cd86 2.943476 1_555
Cd45 Cd56 2.957476 1_555
Cd45 Cd55 2.957476 1_555
Cd45 Dy17 3.362666 1_555
Cd45 Dy15 3.362692 1_555
Cd45 Dy18 3.625274 1_555
Cd46 Cd47 2.931906 1_555
Cd46 Cd48 2.931906 1_555
Cd46 Cd78 2.943476 1_555
Cd46 Cd60 2.957476 1_555
Cd46 Cd59 2.957476 1_555
Cd46 Dy17 3.362666 1_555
Cd46 Dy16 3.362692 1_555
Cd46 Dy19 3.625274 1_555
Cd47 Cd50 2.792584 1_555
Cd47 Cd48 2.931906 1_555
Cd47 Cd85 2.943476 1_555
Cd47 Cd60 2.957476 1_555
Cd47 Cd58 2.957476 1_555
Cd47 Dy17 3.362666 1_555
Cd47 Dy14 3.362692 1_555
Cd47 Dy19 3.625274 1_555
Cd48 Cd54 2.792584 1_555
Cd48 Cd89 2.943483 1_555
Cd48 Cd58 2.957476 1_555
Cd48 Cd59 2.957476 1_555
Cd48 Dy14 3.362679 1_555
Cd48 Dy16 3.362679 1_555
Cd48 Dy19 3.625261 1_555
Cd49 Cd52 2.792584 1_555
Cd49 Cd50 2.931906 1_555
Cd49 Cd51 2.931906 1_555
Cd49 Cd87 2.943483 1_555
Cd49 Cd63 2.957476 1_555
Cd49 Cd62 2.957476 1_555
Cd49 Dy14 3.362679 1_555
Cd49 Dy15 3.362679 1_555
Cd49 Dy20 3.625261 1_555
Cd50 Cd51 2.931906 1_555
Cd50 Cd82 2.943476 1_555
Cd50 Cd61 2.957476 1_555
Cd50 Cd63 2.957476 1_555
Cd50 Dy17 3.362666 1_555
Cd50 Dy14 3.362692 1_555
Cd50 Dy20 3.625274 1_555
Cd51 Cd80 2.943476 1_555
Cd51 Cd61 2.957476 1_555
Cd51 Cd62 2.957476 1_555
Cd51 Dy17 3.362666 1_555
Cd51 Dy15 3.362692 1_555
Cd51 Dy20 3.625274 1_555
Cd52 Cd53 2.931906 1_555
Cd52 Cd54 2.931906 1_555
Cd52 Cd84 2.943489 1_555
Cd52 Cd66 2.957476 1_555
Cd52 Cd65 2.957476 1_555
Cd52 Dy15 3.362666 1_555
Cd52 Dy14 3.362666 1_555
Cd52 Dy21 3.625292 1_555
Cd53 Cd54 2.931906 1_555
Cd53 Cd79 2.943489 1_555
Cd53 Cd66 2.957476 1_555
Cd53 Cd64 2.957476 1_555
Cd53 Dy16 3.362666 1_555
Cd53 Dy15 3.362666 1_555
Cd53 Dy21 3.625292 1_555
Cd54 Cd83 2.943489 1_555
Cd54 Cd64 2.957476 1_555
Cd54 Cd65 2.957476 1_555
Cd54 Dy16 3.362666 1_555
Cd54 Dy14 3.362666 1_555
Cd54 Dy21 3.625292 1_555
Cd55 Cd77 2.891115 1_554
Cd55 Cd86 3.178376 1_555
Cd55 Cd88 3.178389 1_555
Cd55 Dy18 3.274509 1_555
Cd55 Dy15 3.365060 1_555
Cd55 Dy10 3.387062 1_565
Cd55 Dy7 3.387072 1_565
Cd56 Cd75 2.891115 1_554
Cd56 Cd81 3.178388 1_555
Cd56 Cd86 3.178388 1_555
Cd56 Dy18 3.274532 1_555
Cd56 Dy17 3.365056 1_555
Cd56 Dy5 3.387060 1_555
Cd56 Dy8 3.387060 1_555
Cd57 Cd76 2.891115 1_554
Cd57 Cd81 3.178376 1_555
Cd57 Cd88 3.178389 1_555
Cd57 Dy18 3.274509 1_555
Cd57 Dy16 3.365060 1_555
Cd57 Dy12 3.387062 1_655
Cd57 Dy6 3.387072 1_655
Cd58 Cd77 2.891115 1_545
Cd58 Cd85 3.178376 1_555
Cd58 Cd89 3.178389 1_555
Cd58 Dy19 3.274509 1_555
Cd58 Dy14 3.365060 1_555
Cd58 Dy10 3.387062 1_556
Cd58 Dy7 3.387072 1_556
Cd59 Cd72 2.891115 1_545
Cd59 Cd78 3.178376 1_555
Cd59 Cd89 3.178389 1_555
Cd59 Dy19 3.274509 1_555
Cd59 Dy16 3.365060 1_555
Cd59 Dy11 3.387062 1_655
Cd59 Dy2 3.387072 1_655
Cd60 Cd73 2.891115 1_545
Cd60 Cd78 3.178388 1_555
Cd60 Cd85 3.178388 1_555
Cd60 Dy19 3.274532 1_555
Cd60 Dy17 3.365056 1_555
Cd60 Dy9 3.387060 1_555
Cd60 Dy3 3.387060 1_555
Cd61 Cd74 2.891115 1_455
Cd61 Cd82 3.178388 1_555
Cd61 Cd80 3.178388 1_555
Cd61 Dy20 3.274532 1_555
Cd61 Dy17 3.365056 1_555
Cd61 Dy4 3.387060 1_555
Cd61 Dy1 3.387060 1_555
Cd62 Cd72 2.891115 1_455
Cd62 Cd80 3.178376 1_555
Cd62 Cd87 3.178389 1_555
Cd62 Dy20 3.274509 1_555
Cd62 Dy15 3.365060 1_555
Cd62 Dy11 3.387062 1_565
Cd62 Dy2 3.387072 1_565
Cd63 Cd76 2.891115 1_455
Cd63 Cd82 3.178376 1_555
Cd63 Cd87 3.178389 1_555
Cd63 Dy20 3.274509 1_555
Cd63 Dy14 3.365060 1_555
Cd63 Dy12 3.387062 1_556
Cd63 Dy6 3.387072 1_556
Cd64 Cd74 2.891127 1_555
Cd64 Cd79 3.178388 1_555
Cd64 Cd83 3.178388 1_555
Cd64 Dy21 3.274529 1_555
Cd64 Dy16 3.365034 1_555
Cd64 Dy4 3.387071 1_655
Cd64 Dy1 3.387071 1_655
Cd65 Cd75 2.891127 1_555
Cd65 Cd84 3.178388 1_555
Cd65 Cd83 3.178388 1_555
Cd65 Dy21 3.274529 1_555
Cd65 Dy14 3.365034 1_555
Cd65 Dy8 3.387071 1_556
Cd65 Dy5 3.387071 1_556
Cd66 Cd73 2.891127 1_555
Cd66 Cd84 3.178388 1_555
Cd66 Cd79 3.178388 1_555
Cd66 Dy21 3.274529 1_555
Cd66 Dy15 3.365034 1_555
Cd66 Dy9 3.387071 1_565
Cd66 Dy3 3.387071 1_565
Cd67 Cd70 3.019700 1_555
Cd67 Cd68 3.019700 1_555
Cd67 Cd69 3.019700 1_555
Cd67 Cd71 3.019700 1_555
Cd67 Dy21 3.316499 1_555
Cd67 Dy18 3.316511 1_556
Cd67 Dy20 3.316511 1_655
Cd67 Dy19 3.316511 1_565
Cd68 Cd78 3.005121 1_565
Cd68 Cd80 3.005121 1_655
Cd68 Cd79 3.005121 1_555
Cd68 Cd72 3.036424 1_555
Cd68 Cd73 3.036424 1_555
Cd68 Cd74 3.036424 1_555
Cd68 Dy21 3.666224 1_555
Cd68 Dy20 3.666235 1_655
Cd68 Dy19 3.666235 1_565
Cd69 Cd82 3.005121 1_655
Cd69 Cd81 3.005121 1_556
Cd69 Cd83 3.005121 1_555
Cd69 Cd76 3.036424 1_555
Cd69 Cd74 3.036424 1_555
Cd69 Cd75 3.036424 1_555
Cd69 Dy21 3.666224 1_555
Cd69 Dy20 3.666235 1_655
Cd69 Dy18 3.666235 1_556
Cd70 Cd86 3.005121 1_556
Cd70 Cd85 3.005121 1_565
Cd70 Cd84 3.005121 1_555
Cd70 Cd77 3.036424 1_555
Cd70 Cd75 3.036424 1_555
Cd70 Cd73 3.036424 1_555
Cd70 Dy21 3.666224 1_555
Cd70 Dy19 3.666235 1_565
Cd70 Dy18 3.666235 1_556
Cd71 Cd89 3.005121 1_565
Cd71 Cd88 3.005121 1_556
Cd71 Cd87 3.005121 1_655
Cd71 Cd77 3.036424 1_555
Cd71 Cd76 3.036424 1_555
Cd71 Cd72 3.036424 1_555
Cd71 Dy20 3.666225 1_655
Cd71 Dy19 3.666225 1_565
Cd71 Dy18 3.666225 1_556
Cd72 Dy20 3.145726 1_655
Cd72 Dy19 3.145726 1_565
Cd72 Dy2 3.238413 1_665
Cd72 Dy11 3.238413 1_665
Cd73 Dy21 3.145725 1_555
Cd73 Dy19 3.145738 1_565
Cd73 Dy9 3.238413 1_565
Cd73 Dy3 3.238413 1_565
Cd74 Dy21 3.145725 1_555
Cd74 Dy20 3.145738 1_655
Cd74 Dy4 3.238413 1_655
Cd74 Dy1 3.238413 1_655
Cd75 Dy21 3.145725 1_555
Cd75 Dy18 3.145738 1_556
Cd75 Dy5 3.238413 1_556
Cd75 Dy8 3.238413 1_556
Cd76 Dy20 3.145726 1_655
Cd76 Dy18 3.145726 1_556
Cd76 Dy6 3.238413 1_656
Cd76 Dy12 3.238413 1_656
Cd77 Dy19 3.145726 1_565
Cd77 Dy18 3.145726 1_556
Cd77 Dy7 3.238413 1_566
Cd77 Dy10 3.238413 1_566
Cd78 Dy9 3.190710 1_555
Cd78 Dy11 3.190710 1_655
Cd78 Dy19 3.266066 1_555
Cd79 Dy4 3.190710 1_655
Cd79 Dy9 3.190710 1_565
Cd79 Dy21 3.266064 1_555
Cd80 Dy4 3.190710 1_555
Cd80 Dy11 3.190710 1_565
Cd80 Dy20 3.266066 1_555
Cd81 Dy8 3.190710 1_555
Cd81 Dy12 3.190710 1_655
Cd81 Dy18 3.266066 1_555
Cd82 Dy1 3.190710 1_555
Cd82 Dy12 3.190710 1_556
Cd82 Dy20 3.266066 1_555
Cd83 Cd9 3.122232 1_555
Cd83 Dy8 3.190710 1_556
Cd83 Dy1 3.190710 1_655
Cd83 Dy21 3.266064 1_555
Cd84 Dy5 3.190710 1_556
Cd84 Dy3 3.190710 1_565
Cd84 Dy21 3.266064 1_555
Cd85 Dy3 3.190710 1_555
Cd85 Dy10 3.190710 1_556
Cd85 Dy19 3.266066 1_555
Cd86 Dy5 3.190710 1_555
Cd86 Dy10 3.190710 1_565
Cd86 Dy18 3.266066 1_555
Cd87 Dy2 3.190710 1_565
Cd87 Dy6 3.190710 1_556
Cd87 Dy20 3.266053 1_555
Cd88 Dy7 3.190710 1_565
Cd88 Dy6 3.190710 1_655
Cd88 Dy18 3.266053 1_555
Cd89 Cd9 3.122232 1_555
Cd89 Dy7 3.190710 1_556
Cd89 Dy2 3.190710 1_655
Cd89 Dy19 3.266053 1_555
