# generated using pymatgen
data_LaMgMnS4
_symmetry_space_group_name_H-M   'P 1'
_cell_length_a   8.03012991
_cell_length_b   7.73772540
_cell_length_c   7.73761453
_cell_angle_alpha   59.92268097
_cell_angle_beta   58.72536529
_cell_angle_gamma   58.75446318
_symmetry_Int_Tables_number   1
_chemical_formula_structural   LaMgMnS4
_chemical_formula_sum   'La2 Mg2 Mn2 S8'
_cell_volume   333.15315067
_cell_formula_units_Z   2
loop_
 _symmetry_equiv_pos_site_id
 _symmetry_equiv_pos_as_xyz
  1  'x, y, z'
loop_
 _atom_site_type_symbol
 _atom_site_label
 _atom_site_symmetry_multiplicity
 _atom_site_fract_x
 _atom_site_fract_y
 _atom_site_fract_z
 _atom_site_occupancy
  La  La0  1  0.49984900  0.50015500  0.49998000  1
  La  La1  1  0.00004500  0.50001900  0.49995800  1
  Mg  Mg0  1  0.87252500  0.87755300  0.87736900  1
  Mg  Mg1  1  0.12747600  0.12242000  0.12260700  1
  Mn  Mn0  1  0.49991800  0.49982100  0.00014400  1
  Mn  Mn1  1  0.50031600  0.00006800  0.49999500  1
  S  S0  1  0.70553700  0.76366900  0.76358500  1
  S  S1  1  0.27614800  0.21844500  0.72921200  1
  S  S2  1  0.27606000  0.72930200  0.21852200  1
  S  S3  1  0.73277700  0.23624200  0.23651500  1
  S  S4  1  0.72390900  0.27051700  0.78150200  1
  S  S5  1  0.26719100  0.76373500  0.76348200  1
  S  S6  1  0.29440900  0.23637900  0.23641600  1
  S  S7  1  0.72384200  0.78167000  0.27071400  1
loop_
_geom_bond_atom_site_label_1
_geom_bond_atom_site_label_2
_geom_bond_distance
_geom_bond_site_symmetry_2
La0 S1 2.828967 1_555
La0 S2 2.829058 1_555
La0 S7 2.829422 1_555
La0 S4 2.830657 1_555
La0 S5 2.840276 1_555
La0 S3 2.841774 1_555
La1 S2 2.828037 1_555
La1 S1 2.829775 1_555
La1 S4 2.829865 1_455
La1 S7 2.830324 1_455
La1 S6 2.840716 1_555
La1 S0 2.841291 1_455
Mg0 S4 2.472625 1_565
Mg0 S7 2.474232 1_556
Mg0 S5 2.564916 1_655
Mg0 S0 2.564960 1_555
Mg1 S2 2.473588 1_545
Mg1 S1 2.474480 1_554
Mg1 S3 2.565125 1_455
Mg1 S6 2.565181 1_555
Mn0 S2 2.404541 1_555
Mn0 S4 2.404978 1_554
Mn0 S6 2.615887 1_555
Mn0 S3 2.618543 1_555
Mn0 S0 2.618814 1_554
Mn0 S5 2.619511 1_554
Mn1 S1 2.403074 1_555
Mn1 S7 2.403533 1_545
Mn1 S3 2.614132 1_555
Mn1 S0 2.616216 1_545
Mn1 S5 2.618556 1_545
Mn1 S6 2.619869 1_555
