# generated using pymatgen
data_MgB6(H3O4)4
_symmetry_space_group_name_H-M   'P 1'
_cell_length_a   10.54204121
_cell_length_b   10.90629985
_cell_length_c   11.42556593
_cell_angle_alpha   94.89192310
_cell_angle_beta   90.00000000
_cell_angle_gamma   90.00000000
_symmetry_Int_Tables_number   1
_chemical_formula_structural   MgB6(H3O4)4
_chemical_formula_sum   'Mg4 B24 H48 O64'
_cell_volume   1308.86538753
_cell_formula_units_Z   4
loop_
 _symmetry_equiv_pos_site_id
 _symmetry_equiv_pos_as_xyz
  1  'x, y, z'
loop_
 _atom_site_type_symbol
 _atom_site_label
 _atom_site_symmetry_multiplicity
 _atom_site_fract_x
 _atom_site_fract_y
 _atom_site_fract_z
 _atom_site_occupancy
  Mg  Mg0  1  0.50000000  0.00000000  0.50000000  1
  Mg  Mg1  1  0.00000000  0.00000000  0.00000000  1
  Mg  Mg2  1  0.50000000  0.50000000  0.00000000  1
  Mg  Mg3  1  0.00000000  0.50000000  0.50000000  1
  B  B0  1  0.60213038  0.90935991  0.24520455  1
  B  B1  1  0.10213038  0.09064009  0.25479545  1
  B  B2  1  0.39786962  0.09064009  0.75479545  1
  B  B3  1  0.89786962  0.90935991  0.74520455  1
  B  B4  1  0.60475325  0.74643554  0.40034584  1
  B  B5  1  0.10475325  0.25356446  0.09965416  1
  B  B6  1  0.39524675  0.25356446  0.59965416  1
  B  B7  1  0.89524675  0.74643554  0.90034584  1
  B  B8  1  0.38871307  0.80740576  0.30678400  1
  B  B9  1  0.88871307  0.19259424  0.19321600  1
  B  B10  1  0.61128693  0.19259424  0.69321600  1
  B  B11  1  0.11128693  0.80740576  0.80678400  1
  B  B12  1  0.41003467  0.90248907  0.11764705  1
  B  B13  1  0.91003467  0.09751093  0.38235295  1
  B  B14  1  0.58996533  0.09751093  0.88235295  1
  B  B15  1  0.08996533  0.90248907  0.61764705  1
  B  B16  1  0.41593071  0.60415552  0.38478799  1
  B  B17  1  0.91593071  0.39584448  0.11521201  1
  B  B18  1  0.58406929  0.39584448  0.61521201  1
  B  B19  1  0.08406929  0.60415552  0.88478799  1
  B  B20  1  0.79724751  0.79392772  0.29046080  1
  B  B21  1  0.29724751  0.20607228  0.20953920  1
  B  B22  1  0.20275249  0.20607228  0.70953920  1
  B  B23  1  0.70275249  0.79392772  0.79046080  1
  H  H0  1  0.66688473  0.07008241  0.32823913  1
  H  H1  1  0.16688473  0.92991759  0.17176087  1
  H  H2  1  0.33311527  0.92991759  0.67176087  1
  H  H3  1  0.83311527  0.07008241  0.82823913  1
  H  H4  1  0.27878604  0.89846728  0.44295485  1
  H  H5  1  0.77878604  0.10153272  0.05704515  1
  H  H6  1  0.72121396  0.10153272  0.55704515  1
  H  H7  1  0.22121396  0.89846728  0.94295485  1
  H  H8  1  0.68011735  0.84152004  0.55010852  1
  H  H9  1  0.18011735  0.15847996  0.94989148  1
  H  H10  1  0.31988265  0.15847996  0.44989148  1
  H  H11  1  0.81988265  0.84152004  0.05010852  1
  H  H12  1  0.96891690  0.84016714  0.23253177  1
  H  H13  1  0.46891690  0.15983286  0.26746823  1
  H  H14  1  0.03108310  0.15983286  0.76746823  1
  H  H15  1  0.53108310  0.84016714  0.73253177  1
  H  H16  1  0.39824400  0.99213496  0.96731698  1
  H  H17  1  0.89824400  0.00786504  0.53268302  1
  H  H18  1  0.60175600  0.00786504  0.03268302  1
  H  H19  1  0.10175600  0.99213496  0.46731698  1
  H  H20  1  0.40798066  0.44440637  0.46021816  1
  H  H21  1  0.90798066  0.55559363  0.03978184  1
  H  H22  1  0.59201934  0.55559363  0.53978184  1
  H  H23  1  0.09201934  0.44440637  0.96021816  1
  H  H24  1  0.66809254  0.42553198  0.81851804  1
  H  H25  1  0.16809254  0.57446802  0.68148196  1
  H  H26  1  0.33190746  0.57446802  0.18148196  1
  H  H27  1  0.83190746  0.42553198  0.31851804  1
  H  H28  1  0.70074807  0.56280597  0.87163344  1
  H  H29  1  0.20074807  0.43719403  0.62836656  1
  H  H30  1  0.29925193  0.43719403  0.12836656  1
  H  H31  1  0.79925193  0.56280597  0.37163344  1
  H  H32  1  0.52011583  0.29846638  0.12657918  1
  H  H33  1  0.02011583  0.70153362  0.37342082  1
  H  H34  1  0.47988417  0.70153362  0.87342082  1
  H  H35  1  0.97988417  0.29846638  0.62657918  1
  H  H36  1  0.65967843  0.33966269  0.09897265  1
  H  H37  1  0.15967843  0.66033731  0.40102735  1
  H  H38  1  0.34032157  0.66033731  0.90102735  1
  H  H39  1  0.84032157  0.33966269  0.59897265  1
  H  H40  1  0.29136222  0.42077790  0.88337048  1
  H  H41  1  0.79136222  0.57922210  0.61662952  1
  H  H42  1  0.70863778  0.57922210  0.11662952  1
  H  H43  1  0.20863778  0.42077790  0.38337048  1
  H  H44  1  0.39527599  0.31583079  0.84598133  1
  H  H45  1  0.89527599  0.68416921  0.65401867  1
  H  H46  1  0.60472401  0.68416921  0.15401867  1
  H  H47  1  0.10472401  0.31583079  0.34598133  1
  O  O0  1  0.58803205  0.02184530  0.32759708  1
  O  O1  1  0.08803205  0.97815470  0.17240292  1
  O  O2  1  0.41196795  0.97815470  0.67240292  1
  O  O3  1  0.91196795  0.02184530  0.82759708  1
  O  O4  1  0.36528379  0.89436436  0.40830793  1
  O  O5  1  0.86528379  0.10563564  0.09169207  1
  O  O6  1  0.63471621  0.10563564  0.59169207  1
  O  O7  1  0.13471621  0.89436436  0.90830793  1
  O  O8  1  0.60326407  0.83883445  0.50227446  1
  O  O9  1  0.10326407  0.16116555  0.99772554  1
  O  O10  1  0.39673593  0.16116555  0.49772554  1
  O  O11  1  0.89673593  0.83883445  0.00227446  1
  O  O12  1  0.92760212  0.78182178  0.28133328  1
  O  O13  1  0.42760212  0.21817822  0.21866672  1
  O  O14  1  0.07239788  0.21817822  0.71866672  1
  O  O15  1  0.57239788  0.78182178  0.78133328  1
  O  O16  1  0.34900104  0.94236600  0.02117884  1
  O  O17  1  0.84900104  0.05763400  0.47882116  1
  O  O18  1  0.65099896  0.05763400  0.97882116  1
  O  O19  1  0.15099896  0.94236600  0.52117884  1
  O  O20  1  0.36187268  0.49256222  0.40352612  1
  O  O21  1  0.86187268  0.50743778  0.09647388  1
  O  O22  1  0.63812732  0.50743778  0.59647388  1
  O  O23  1  0.13812732  0.49256222  0.90352612  1
  O  O24  1  0.53542522  0.80237601  0.29885026  1
  O  O25  1  0.03542522  0.19762399  0.20114974  1
  O  O26  1  0.46457478  0.19762399  0.70114974  1
  O  O27  1  0.96457478  0.80237601  0.79885026  1
  O  O28  1  0.53860021  0.92429780  0.13301281  1
  O  O29  1  0.03860021  0.07570220  0.36698719  1
  O  O30  1  0.46139979  0.07570220  0.86698719  1
  O  O31  1  0.96139979  0.92429780  0.63301281  1
  O  O32  1  0.73432608  0.87523186  0.22541518  1
  O  O33  1  0.23432608  0.12476814  0.27458482  1
  O  O34  1  0.26567392  0.12476814  0.77458482  1
  O  O35  1  0.76567392  0.87523186  0.72541518  1
  O  O36  1  0.73512416  0.71836862  0.36262761  1
  O  O37  1  0.23512416  0.28163138  0.13737239  1
  O  O38  1  0.26487584  0.28163138  0.63737239  1
  O  O39  1  0.76487584  0.71836862  0.86262761  1
  O  O40  1  0.53636613  0.63425733  0.42458383  1
  O  O41  1  0.03636613  0.36574267  0.07541617  1
  O  O42  1  0.46363387  0.36574267  0.57541617  1
  O  O43  1  0.96363387  0.63425733  0.92458383  1
  O  O44  1  0.34354368  0.68203191  0.32265173  1
  O  O45  1  0.84354368  0.31796809  0.17734827  1
  O  O46  1  0.65645632  0.31796809  0.67734827  1
  O  O47  1  0.15645632  0.68203191  0.82265173  1
  O  O48  1  0.33850608  0.84545877  0.19668199  1
  O  O49  1  0.83850608  0.15454123  0.30331801  1
  O  O50  1  0.66149392  0.15454123  0.80331801  1
  O  O51  1  0.16149392  0.84545877  0.69668199  1
  O  O52  1  0.65393188  0.48686425  0.88535559  1
  O  O53  1  0.15393188  0.51313575  0.61464441  1
  O  O54  1  0.34606812  0.51313575  0.11464441  1
  O  O55  1  0.84606812  0.48686425  0.38535559  1
  O  O56  1  0.37979944  0.39272456  0.89321813  1
  O  O57  1  0.87979944  0.60727544  0.60678187  1
  O  O58  1  0.62020056  0.60727544  0.10678187  1
  O  O59  1  0.12020056  0.39272456  0.39321813  1
  O  O60  1  0.57205881  0.34257109  0.07103532  1
  O  O61  1  0.07205881  0.65742891  0.42896468  1
  O  O62  1  0.42794119  0.65742891  0.92896468  1
  O  O63  1  0.92794119  0.34257109  0.57103532  1
loop_
_geom_bond_atom_site_label_1
_geom_bond_atom_site_label_2
_geom_bond_distance
_geom_bond_site_symmetry_2
Mg0 O6 2.058137 1_555
Mg0 O4 2.058137 1_545
Mg0 O10 2.069571 1_555
Mg0 O8 2.069571 1_545
Mg0 O0 2.208659 1_555
Mg0 O2 2.208659 1_545
Mg1 O5 2.058137 1_455
Mg1 O7 2.058137 1_544
Mg1 O11 2.069571 1_445
Mg1 O9 2.069571 1_554
Mg1 O3 2.208659 1_454
Mg1 O1 2.208659 1_545
Mg2 O56 2.054165 1_554
Mg2 O58 2.054165 1_555
Mg2 O54 2.082699 1_555
Mg2 O52 2.082699 1_554
Mg2 O60 2.102720 1_555
Mg2 O62 2.102720 1_554
Mg3 O59 2.054165 1_555
Mg3 O57 2.054165 1_455
Mg3 O53 2.082699 1_555
Mg3 O55 2.082699 1_455
Mg3 O63 2.102720 1_455
Mg3 O61 2.102720 1_555
B0 O32 1.455152 1_555
B0 O28 1.467603 1_555
B0 O0 1.488743 1_565
B0 O24 1.534139 1_555
B1 O33 1.455152 1_555
B1 O29 1.467603 1_555
B1 O1 1.488743 1_545
B1 O25 1.534139 1_555
B2 O34 1.455152 1_555
B2 O30 1.467603 1_555
B2 O2 1.488743 1_545
B2 O26 1.534139 1_555
B3 O35 1.455152 1_555
B3 O31 1.467603 1_555
B3 O3 1.488743 1_565
B3 O27 1.534139 1_555
B4 O36 1.464865 1_555
B4 O40 1.466649 1_555
B4 O8 1.473730 1_555
B4 O24 1.540072 1_555
B5 O37 1.464865 1_555
B5 O41 1.466649 1_555
B5 O9 1.473730 1_554
B5 O25 1.540072 1_555
B6 O38 1.464865 1_555
B6 O42 1.466649 1_555
B6 O10 1.473730 1_555
B6 O26 1.540072 1_555
B7 O39 1.464865 1_555
B7 O43 1.466649 1_555
B7 O11 1.473730 1_556
B7 O27 1.540072 1_555
B8 O4 1.455459 1_555
B8 O48 1.457372 1_555
B8 O44 1.473628 1_555
B8 O24 1.549997 1_555
B9 O5 1.455459 1_555
B9 O49 1.457372 1_555
B9 O45 1.473628 1_555
B9 O25 1.549997 1_655
B10 O6 1.455459 1_555
B10 O50 1.457372 1_555
B10 O46 1.473628 1_555
B10 O26 1.549997 1_555
B11 O7 1.455459 1_555
B11 O51 1.457372 1_555
B11 O47 1.473628 1_555
B11 O27 1.549997 1_455
B12 O48 1.366276 1_555
B12 O16 1.378312 1_555
B12 O28 1.384641 1_555
B13 O49 1.366276 1_555
B13 O17 1.378312 1_555
B13 O29 1.384641 1_655
B14 O50 1.366276 1_555
B14 O18 1.378312 1_555
B14 O30 1.384641 1_555
B15 O51 1.366276 1_555
B15 O19 1.378312 1_555
B15 O31 1.384641 1_455
B16 O20 1.377063 1_555
B16 O40 1.378781 1_555
B16 O44 1.382235 1_555
B17 O21 1.377063 1_555
B17 O41 1.378781 1_655
B17 O45 1.382235 1_555
B18 O22 1.377063 1_555
B18 O42 1.378781 1_555
B18 O46 1.382235 1_555
B19 O23 1.377063 1_555
B19 O43 1.378781 1_455
B19 O47 1.382235 1_555
B20 O32 1.375134 1_555
B20 O36 1.379768 1_555
B20 O12 1.383617 1_555
B21 O33 1.375134 1_555
B21 O37 1.379768 1_555
B21 O13 1.383617 1_555
B22 O34 1.375134 1_555
B22 O38 1.379768 1_555
B22 O14 1.383617 1_555
B23 O35 1.375134 1_555
B23 O39 1.379768 1_555
B23 O15 1.383617 1_555
H0 O0 0.983449 1_555
H1 O1 0.983449 1_555
H2 O2 0.983449 1_555
H3 O3 0.983449 1_555
H4 O4 0.993570 1_555
H4 O19 1.664276 1_555
H5 O5 0.993570 1_555
H5 O18 1.664276 1_554
H6 O6 0.993570 1_555
H6 O17 1.664276 1_555
H7 O7 0.993570 1_555
H7 O16 1.664276 1_556
H8 O8 0.976336 1_555
H9 O9 0.976336 1_555
H10 O10 0.976336 1_555
H11 O11 0.976336 1_555
H12 O12 0.982868 1_555
H13 O13 0.982868 1_555
H14 O14 0.982868 1_555
H15 O15 0.982868 1_555
H16 O16 0.999902 1_556
H16 O30 1.663188 1_565
H17 O17 0.999902 1_555
H17 O31 1.663188 1_545
H18 O18 0.999902 1_554
H18 O28 1.663188 1_545
H19 O19 0.999902 1_555
H19 O29 1.663188 1_565
H20 O20 0.994832 1_555
H21 O21 0.994832 1_555
H22 O22 0.994832 1_555
H23 O23 0.994832 1_555
H24 O52 0.982738 1_555
H25 O53 0.982738 1_555
H26 O54 0.982738 1_555
H27 O55 0.982738 1_555
H28 O52 0.988076 1_555
H29 O53 0.988076 1_555
H30 O54 0.988076 1_555
H31 O55 0.988076 1_555
H32 O60 0.992993 1_555
H33 O61 0.992993 1_555
H34 O62 0.992993 1_555
H35 O63 0.992993 1_555
H36 O60 0.978685 1_555
H37 O61 0.978685 1_555
H38 O62 0.978685 1_555
H39 O63 0.978685 1_555
H40 O56 0.990627 1_555
H41 O57 0.990627 1_555
H42 O58 0.990627 1_555
H43 O59 0.990627 1_555
H44 O56 0.971598 1_555
H45 O57 0.971598 1_555
H46 O58 0.971598 1_555
H47 O59 0.971598 1_555
