# generated using pymatgen
data_Ca(Si9O19)2
_symmetry_space_group_name_H-M   'P 1'
_cell_length_a   13.18310507
_cell_length_b   13.18310507
_cell_length_c   15.15897032
_cell_angle_alpha   90.00000000
_cell_angle_beta   90.00000000
_cell_angle_gamma   119.99999976
_symmetry_Int_Tables_number   1
_chemical_formula_structural   Ca(Si9O19)2
_chemical_formula_sum   'Ca2 Si36 O76'
_cell_volume   2281.58032158
_cell_formula_units_Z   2
loop_
 _symmetry_equiv_pos_site_id
 _symmetry_equiv_pos_as_xyz
  1  'x, y, z'
loop_
 _atom_site_type_symbol
 _atom_site_label
 _atom_site_symmetry_multiplicity
 _atom_site_fract_x
 _atom_site_fract_y
 _atom_site_fract_z
 _atom_site_occupancy
  Ca  Ca0  1  0.00000000  0.00000000  0.75000000  1
  Ca  Ca1  1  0.00000000  0.00000000  0.25000000  1
  Si  Si0  1  0.57441282  0.66753829  0.75000000  1
  Si  Si1  1  0.42558718  0.33246171  0.25000000  1
  Si  Si2  1  0.09312547  0.42558718  0.75000000  1
  Si  Si3  1  0.90687453  0.33246171  0.25000000  1
  Si  Si4  1  0.90687453  0.57441282  0.25000000  1
  Si  Si5  1  0.09312547  0.66753829  0.75000000  1
  Si  Si6  1  0.33246171  0.90687453  0.75000000  1
  Si  Si7  1  0.66753829  0.57441282  0.25000000  1
  Si  Si8  1  0.66753829  0.09312547  0.25000000  1
  Si  Si9  1  0.33246171  0.42558718  0.75000000  1
  Si  Si10  1  0.42558718  0.09312547  0.25000000  1
  Si  Si11  1  0.57441282  0.90687453  0.75000000  1
  Si  Si12  1  0.99970895  0.23606117  0.89614230  1
  Si  Si13  1  0.00029105  0.76393883  0.10385770  1
  Si  Si14  1  0.23635222  0.00029105  0.89614230  1
  Si  Si15  1  0.00029105  0.76393883  0.39614230  1
  Si  Si16  1  0.76364778  0.76393883  0.10385770  1
  Si  Si17  1  0.76364778  0.99970895  0.10385770  1
  Si  Si18  1  0.99970895  0.23606117  0.60385770  1
  Si  Si19  1  0.23635222  0.23606117  0.89614230  1
  Si  Si20  1  0.76393883  0.76364778  0.89614230  1
  Si  Si21  1  0.76364778  0.99970895  0.39614230  1
  Si  Si22  1  0.23606117  0.99970895  0.10385770  1
  Si  Si23  1  0.23606117  0.23635222  0.10385770  1
  Si  Si24  1  0.23635222  0.00029105  0.60385770  1
  Si  Si25  1  0.76393883  0.00029105  0.89614230  1
  Si  Si26  1  0.23635222  0.23606117  0.60385770  1
  Si  Si27  1  0.76364778  0.76393883  0.39614230  1
  Si  Si28  1  0.23606117  0.23635222  0.39614230  1
  Si  Si29  1  0.76393883  0.00029105  0.60385770  1
  Si  Si30  1  0.76393883  0.76364778  0.60385770  1
  Si  Si31  1  0.23606117  0.99970895  0.39614230  1
  Si  Si32  1  0.00029105  0.23635222  0.10385770  1
  Si  Si33  1  0.99970895  0.76364778  0.89614230  1
  Si  Si34  1  0.99970895  0.76364778  0.60385770  1
  Si  Si35  1  0.00029105  0.23635222  0.39614230  1
  O  O0  1  0.73550290  0.73550290  -0.00000000  1
  O  O1  1  0.26449710  0.26449710  -0.00000000  1
  O  O2  1  1.00000000  0.26449710  -0.00000000  1
  O  O3  1  0.26449710  0.26449710  0.50000000  1
  O  O4  1  0.00000000  0.73550290  -0.00000000  1
  O  O5  1  0.73550290  0.73550290  0.50000000  1
  O  O6  1  0.26449710  1.00000000  -0.00000000  1
  O  O7  1  0.00000000  0.73550290  0.50000000  1
  O  O8  1  0.73550290  0.00000000  -0.00000000  1
  O  O9  1  1.00000000  0.26449710  0.50000000  1
  O  O10  1  0.73550290  0.00000000  0.50000000  1
  O  O11  1  0.26449710  1.00000000  0.50000000  1
  O  O12  1  0.90435268  0.09564732  0.37496808  1
  O  O13  1  0.09564732  0.90435268  0.62503192  1
  O  O14  1  0.19129464  0.09564732  0.37496808  1
  O  O15  1  0.09564732  0.90435268  0.87496808  1
  O  O16  1  0.80870536  0.90435268  0.62503192  1
  O  O17  1  0.90435268  0.09564732  0.12503192  1
  O  O18  1  0.90435268  0.80870536  0.37496808  1
  O  O19  1  0.80870536  0.90435268  0.87496808  1
  O  O20  1  0.09564732  0.19129464  0.62503192  1
  O  O21  1  0.19129464  0.09564732  0.12503192  1
  O  O22  1  0.09564732  0.19129464  0.87496808  1
  O  O23  1  0.90435268  0.80870536  0.12503192  1
  O  O24  1  0.65074283  0.67889752  0.83791020  1
  O  O25  1  0.34925717  0.32110248  0.16208980  1
  O  O26  1  0.02815470  0.34925717  0.83791020  1
  O  O27  1  0.34925717  0.32110248  0.33791020  1
  O  O28  1  0.97184530  0.32110248  0.16208980  1
  O  O29  1  0.97184530  0.65074283  0.16208980  1
  O  O30  1  0.65074283  0.67889752  0.66208980  1
  O  O31  1  0.02815470  0.67889752  0.83791020  1
  O  O32  1  0.32110248  0.97184530  0.83791020  1
  O  O33  1  0.97184530  0.65074283  0.33791020  1
  O  O34  1  0.67889752  0.65074283  0.16208980  1
  O  O35  1  0.67889752  0.02815470  0.16208980  1
  O  O36  1  0.02815470  0.34925717  0.66208980  1
  O  O37  1  0.32110248  0.34925717  0.83791020  1
  O  O38  1  0.02815470  0.67889752  0.66208980  1
  O  O39  1  0.97184530  0.32110248  0.33791020  1
  O  O40  1  0.67889752  0.02815470  0.33791020  1
  O  O41  1  0.32110248  0.34925717  0.66208980  1
  O  O42  1  0.32110248  0.97184530  0.66208980  1
  O  O43  1  0.67889752  0.65074283  0.33791020  1
  O  O44  1  0.34925717  0.02815470  0.16208980  1
  O  O45  1  0.65074283  0.97184530  0.83791020  1
  O  O46  1  0.65074283  0.97184530  0.66208980  1
  O  O47  1  0.34925717  0.02815470  0.33791020  1
  O  O48  1  0.45767622  0.54232378  0.75000000  1
  O  O49  1  0.54232378  0.45767622  0.25000000  1
  O  O50  1  0.08464757  0.54232378  0.75000000  1
  O  O51  1  0.91535243  0.45767622  0.25000000  1
  O  O52  1  0.45767622  0.91535243  0.75000000  1
  O  O53  1  0.54232378  0.08464757  0.25000000  1
  O  O54  1  0.22960585  0.77039415  0.75000000  1
  O  O55  1  0.77039415  0.22960585  0.25000000  1
  O  O56  1  0.54078829  0.77039415  0.75000000  1
  O  O57  1  0.45921171  0.22960585  0.25000000  1
  O  O58  1  0.22960585  0.45921171  0.75000000  1
  O  O59  1  0.77039415  0.54078829  0.25000000  1
  O  O60  1  0.66666700  0.33333300  0.93095717  1
  O  O61  1  0.33333300  0.66666700  0.06904283  1
  O  O62  1  0.33333300  0.66666700  0.43095717  1
  O  O63  1  0.66666700  0.33333300  0.56904283  1
  O  O64  1  0.87603504  0.12396496  0.86467524  1
  O  O65  1  0.12396496  0.87603504  0.13532476  1
  O  O66  1  0.24792991  0.12396496  0.86467524  1
  O  O67  1  0.12396496  0.87603504  0.36467524  1
  O  O68  1  0.75207009  0.87603504  0.13532476  1
  O  O69  1  0.87603504  0.12396496  0.63532476  1
  O  O70  1  0.87603504  0.75207009  0.86467524  1
  O  O71  1  0.75207009  0.87603504  0.36467524  1
  O  O72  1  0.12396496  0.24792991  0.13532476  1
  O  O73  1  0.24792991  0.12396496  0.63532476  1
  O  O74  1  0.12396496  0.24792991  0.36467524  1
  O  O75  1  0.87603504  0.75207009  0.63532476  1
loop_
_geom_bond_atom_site_label_1
_geom_bond_atom_site_label_2
_geom_bond_distance
_geom_bond_site_symmetry_2
Ca0 O15 2.891112 1_545
Ca0 O13 2.891112 1_545
Ca0 O16 2.891112 1_445
Ca0 O19 2.891112 1_445
Ca0 O22 2.891112 1_555
Ca0 O20 2.891112 1_555
Ca1 O17 2.891112 1_455
Ca1 O12 2.891112 1_455
Ca1 O18 2.891112 1_445
Ca1 O23 2.891112 1_445
Ca1 O21 2.891112 1_555
Ca1 O14 2.891112 1_555
O0 Si16 1.617951 1_555
O0 Si20 1.617951 1_554
O1 Si23 1.617951 1_555
O1 Si19 1.617951 1_554
O2 Si32 1.617951 1_655
O2 Si12 1.617951 1_554
O3 Si28 1.617951 1_555
O3 Si26 1.617951 1_555
O4 Si33 1.617951 1_454
O4 Si13 1.617951 1_555
O5 Si27 1.617951 1_555
O5 Si30 1.617951 1_555
O6 Si14 1.617951 1_564
O6 Si22 1.617951 1_555
O7 Si34 1.617951 1_455
O7 Si15 1.617951 1_555
O8 Si17 1.617951 1_545
O8 Si25 1.617951 1_554
O9 Si35 1.617951 1_655
O9 Si18 1.617951 1_555
O10 Si21 1.617951 1_545
O10 Si29 1.617951 1_555
O11 Si24 1.617951 1_565
O11 Si31 1.617951 1_555
O12 Si35 1.672533 1_655
O12 Si21 1.672533 1_545
O13 Si24 1.672533 1_565
O13 Si34 1.672533 1_455
O14 Si31 1.672533 1_545
O14 Si28 1.672533 1_555
O15 Si14 1.672533 1_565
O15 Si33 1.672533 1_455
O16 Si29 1.672533 1_565
O16 Si30 1.672533 1_555
O17 Si32 1.672533 1_655
O17 Si17 1.672533 1_545
O18 Si15 1.672533 1_655
O18 Si27 1.672533 1_555
O19 Si25 1.672533 1_565
O19 Si20 1.672533 1_555
O20 Si18 1.672533 1_455
O20 Si26 1.672533 1_555
O21 Si22 1.672533 1_545
O21 Si23 1.672533 1_555
O22 Si12 1.672533 1_455
O22 Si19 1.672533 1_555
O23 Si13 1.672533 1_655
O23 Si16 1.672533 1_555
O24 Si20 1.608456 1_555
O24 Si0 1.631014 1_555
O25 Si23 1.608456 1_555
O25 Si1 1.631014 1_555
O26 Si12 1.608456 1_455
O26 Si2 1.631014 1_555
O27 Si28 1.608456 1_555
O27 Si1 1.631014 1_555
O28 Si32 1.608456 1_655
O28 Si3 1.631014 1_555
O29 Si13 1.608456 1_655
O29 Si4 1.631014 1_555
O30 Si30 1.608456 1_555
O30 Si0 1.631014 1_555
O31 Si33 1.608456 1_455
O31 Si5 1.631014 1_555
O32 Si14 1.608456 1_565
O32 Si6 1.631014 1_555
O33 Si15 1.608456 1_655
O33 Si4 1.631014 1_555
O34 Si16 1.608456 1_555
O34 Si7 1.631014 1_555
O35 Si17 1.608456 1_545
O35 Si8 1.631014 1_555
O36 Si18 1.608456 1_455
O36 Si2 1.631014 1_555
O37 Si19 1.608456 1_555
O37 Si9 1.631014 1_555
O38 Si34 1.608456 1_455
O38 Si5 1.631014 1_555
O39 Si35 1.608456 1_655
O39 Si3 1.631014 1_555
O40 Si21 1.608456 1_545
O40 Si8 1.631014 1_555
O41 Si26 1.608456 1_555
O41 Si9 1.631014 1_555
O42 Si24 1.608456 1_565
O42 Si6 1.631014 1_555
O43 Si27 1.608456 1_555
O43 Si7 1.631014 1_555
O44 Si22 1.608456 1_545
O44 Si10 1.631014 1_555
O45 Si25 1.608456 1_565
O45 Si11 1.631014 1_555
O46 Si29 1.608456 1_565
O46 Si11 1.631014 1_555
O47 Si31 1.608456 1_545
O47 Si10 1.631014 1_555
O48 Si0 1.597768 1_555
O48 Si9 1.597768 1_555
O49 Si7 1.597768 1_555
O49 Si1 1.597768 1_555
O50 Si2 1.597768 1_555
O50 Si5 1.597768 1_555
O51 Si4 1.597768 1_555
O51 Si3 1.597768 1_555
O52 Si11 1.597768 1_555
O52 Si6 1.597768 1_555
O53 Si10 1.597768 1_555
O53 Si8 1.597768 1_555
O54 Si6 1.623633 1_555
O54 Si5 1.623633 1_555
O55 Si3 1.623633 1_555
O55 Si8 1.623633 1_555
O56 Si11 1.623633 1_555
O56 Si0 1.623633 1_555
O57 Si10 1.623633 1_555
O57 Si1 1.623633 1_555
O58 Si2 1.623633 1_555
O58 Si9 1.623633 1_555
O59 Si4 1.623633 1_555
O59 Si7 1.623633 1_555
O64 Si25 1.631014 1_555
O64 Si12 1.631014 1_555
O65 Si13 1.631014 1_555
O65 Si22 1.631014 1_555
O66 Si19 1.631014 1_555
O66 Si14 1.631014 1_555
O67 Si15 1.631014 1_555
O67 Si31 1.631014 1_555
O68 Si16 1.631014 1_555
O68 Si17 1.631014 1_555
O69 Si18 1.631014 1_555
O69 Si29 1.631014 1_555
O70 Si20 1.631014 1_555
O70 Si33 1.631014 1_555
O71 Si27 1.631014 1_555
O71 Si21 1.631014 1_555
O72 Si23 1.631014 1_555
O72 Si32 1.631014 1_555
O73 Si26 1.631014 1_555
O73 Si24 1.631014 1_555
O74 Si28 1.631014 1_555
O74 Si35 1.631014 1_555
O75 Si30 1.631014 1_555
O75 Si34 1.631014 1_555
