# generated using pymatgen
data_Sc2(VSi)3
_symmetry_space_group_name_H-M   'P 1'
_cell_length_a   5.38199200
_cell_length_b   7.41692602
_cell_length_c   7.41692586
_cell_angle_alpha   59.99223337
_cell_angle_beta   90.00000000
_cell_angle_gamma   90.00000000
_symmetry_Int_Tables_number   1
_chemical_formula_structural   Sc2(VSi)3
_chemical_formula_sum   'Sc4 V6 Si6'
_cell_volume   256.38202307
_cell_formula_units_Z   2
loop_
 _symmetry_equiv_pos_site_id
 _symmetry_equiv_pos_as_xyz
  1  'x, y, z'
loop_
 _atom_site_type_symbol
 _atom_site_label
 _atom_site_symmetry_multiplicity
 _atom_site_fract_x
 _atom_site_fract_y
 _atom_site_fract_z
 _atom_site_occupancy
  Sc  Sc0  1  0.50000200  0.33336500  0.33337200  1
  Sc  Sc1  1  0.50000200  0.66662800  0.66663500  1
  Sc  Sc2  1  0.00000200  0.66663500  0.66662800  1
  Sc  Sc3  1  0.00000200  0.33337200  0.33336500  1
  V  V0  1  0.74999400  0.24607800  0.75392200  1
  V  V1  1  0.75000300  0.75393900  0.00002600  1
  V  V2  1  0.75000300  0.99997400  0.24606100  1
  V  V3  1  0.24999400  0.75392200  0.24607800  1
  V  V4  1  0.25000300  0.24606100  0.99997400  1
  V  V5  1  0.25000300  0.00002600  0.75393900  1
  Si  Si0  1  0.74998000  0.62511800  0.37488200  1
  Si  Si1  1  0.75000800  0.37485200  0.00001100  1
  Si  Si2  1  0.75000800  0.99998900  0.62514800  1
  Si  Si3  1  0.24998000  0.37488200  0.62511800  1
  Si  Si4  1  0.25000800  0.62514800  0.99998900  1
  Si  Si5  1  0.25000800  0.00001100  0.37485200  1
loop_
_geom_bond_atom_site_label_1
_geom_bond_atom_site_label_2
_geom_bond_distance
_geom_bond_site_symmetry_2
Sc0 Si0 2.693272 1_555
Sc0 Si3 2.693373 1_555
Sc0 Si2 2.693577 1_545
Sc0 Si4 2.693589 1_554
Sc0 Si5 2.693911 1_555
Sc0 Si1 2.693970 1_555
Sc1 Si0 2.693272 1_555
Sc1 Si3 2.693373 1_555
Sc1 Si1 2.693577 1_556
Sc1 Si5 2.693589 1_565
Sc1 Si4 2.693911 1_555
Sc1 Si2 2.693970 1_555
Sc2 Si3 2.693272 1_555
Sc2 Si0 2.693373 1_455
Sc2 Si5 2.693577 1_565
Sc2 Si1 2.693589 1_456
Sc2 Si2 2.693911 1_455
Sc2 Si4 2.693970 1_555
Sc3 Si3 2.693272 1_555
Sc3 Si0 2.693373 1_455
Sc3 Si4 2.693577 1_554
Sc3 Si2 2.693589 1_445
Sc3 Si1 2.693911 1_455
Sc3 Si5 2.693970 1_555
Si0 V1 2.446588 1_555
Si0 V2 2.446588 1_555
Si0 V0 2.810982 1_555
Si0 V3 2.855432 1_555
Si0 V3 2.855574 1_655
Si1 V2 2.446616 1_545
Si1 V0 2.446909 1_554
Si1 V1 2.811716 1_555
Si1 V4 2.855529 1_654
Si1 V4 2.855580 1_554
Si2 V1 2.446616 1_556
Si2 V0 2.446909 1_565
Si2 V2 2.811716 1_555
Si2 V5 2.855529 1_665
Si2 V5 2.855580 1_565
Si3 V4 2.446588 1_555
Si3 V5 2.446588 1_555
Si3 V3 2.810982 1_555
Si3 V0 2.855432 1_455
Si3 V0 2.855574 1_555
Si4 V5 2.446616 1_565
Si4 V3 2.446909 1_556
Si4 V4 2.811716 1_555
Si4 V1 2.855529 1_556
Si4 V1 2.855580 1_456
Si5 V4 2.446616 1_554
Si5 V3 2.446909 1_545
Si5 V5 2.811716 1_555
Si5 V2 2.855529 1_545
Si5 V2 2.855580 1_445
