# generated using pymatgen
data_Li15V6(P8O29)2
_symmetry_space_group_name_H-M   'P 1'
_cell_length_a   9.84681100
_cell_length_b   9.85071526
_cell_length_c   13.84921173
_cell_angle_alpha   90.15927655
_cell_angle_beta   89.98908215
_cell_angle_gamma   119.94397151
_symmetry_Int_Tables_number   1
_chemical_formula_structural   Li15V6(P8O29)2
_chemical_formula_sum   'Li15 V6 P16 O58'
_cell_volume   1164.02385151
_cell_formula_units_Z   1
loop_
 _symmetry_equiv_pos_site_id
 _symmetry_equiv_pos_as_xyz
  1  'x, y, z'
loop_
 _atom_site_type_symbol
 _atom_site_label
 _atom_site_symmetry_multiplicity
 _atom_site_fract_x
 _atom_site_fract_y
 _atom_site_fract_z
 _atom_site_occupancy
  Li  Li0  1  0.23209100  0.32938300  0.93532500  1
  Li  Li1  1  0.09550100  0.32451700  0.44178300  1
  Li  Li2  1  0.67868500  0.77373800  0.43887400  1
  Li  Li3  1  0.33697100  0.66838300  0.11866000  1
  Li  Li4  1  0.67002800  0.90285800  0.93607300  1
  Li  Li5  1  0.09804000  0.76370400  0.93714200  1
  Li  Li6  1  0.77139700  0.08994600  0.56196000  1
  Li  Li7  1  0.22978600  0.90332500  0.43785700  1
  Li  Li8  1  0.89434800  0.23631900  0.05906000  1
  Li  Li9  1  0.33537300  0.09967100  0.06183200  1
  Li  Li10  1  0.66472100  0.33130500  0.38302300  1
  Li  Li11  1  0.31732200  0.22689500  0.56322900  1
  Li  Li12  1  0.90957400  0.68561500  0.56202100  1
  Li  Li13  1  0.76405600  0.66175500  0.06097200  1
  Li  Li14  1  0.99808300  0.99756300  0.99776200  1
  V  V0  1  0.56567200  0.99927200  0.75014700  1
  V  V1  1  0.43366900  0.00170800  0.24920500  1
  V  V2  1  0.99927800  0.43256000  0.24976300  1
  V  V3  1  0.00062900  0.56709100  0.74943600  1
  V  V4  1  0.43347200  0.43435100  0.75122100  1
  V  V5  1  0.56701300  0.56634300  0.25008300  1
  P  P0  1  0.22545800  0.31569900  0.15540700  1
  P  P1  1  0.08577000  0.31823200  0.65734600  1
  P  P2  1  0.67903100  0.76901700  0.65790300  1
  P  P3  1  0.33267800  0.66886400  0.87549700  1
  P  P4  1  0.32940100  0.66627800  0.37496400  1
  P  P5  1  0.68387500  0.91082800  0.15559700  1
  P  P6  1  0.77000300  0.09211300  0.34340100  1
  P  P7  1  0.08755300  0.77153000  0.15602900  1
  P  P8  1  0.91103500  0.22783100  0.84237900  1
  P  P9  1  0.23186800  0.91065700  0.65828000  1
  P  P10  1  0.31297600  0.08525500  0.84436900  1
  P  P11  1  0.66709300  0.33180800  0.62713700  1
  P  P12  1  0.67088400  0.33500100  0.12337000  1
  P  P13  1  0.32143700  0.23192500  0.34401900  1
  P  P14  1  0.91118800  0.67930600  0.34396100  1
  P  P15  1  0.77531500  0.68800500  0.84212100  1
  O  O0  1  0.24409900  0.25097000  0.43276600  1
  O  O1  1  0.24595900  0.33069700  0.65635100  1
  O  O2  1  0.99674600  0.21888700  0.93144800  1
  O  O3  1  0.07499100  0.32778000  0.15523300  1
  O  O4  1  0.37011900  0.48035300  0.16317600  1
  O  O5  1  0.32004900  0.51264400  0.84098400  1
  O  O6  1  0.51989900  0.62611800  0.67412100  1
  O  O7  1  0.79064700  0.78647700  0.93142700  1
  O  O8  1  0.67351600  0.75018700  0.15508800  1
  O  O9  1  0.18055600  0.51656900  0.32499600  1
  O  O10  1  0.09797400  0.47897600  0.67981800  1
  O  O11  1  0.47997300  0.66904700  0.33604600  1
  O  O12  1  0.33394300  0.67790800  0.98475700  1
  O  O13  1  0.31006200  0.64805000  0.48169200  1
  O  O14  1  0.48930600  0.81157800  0.83581000  1
  O  O15  1  0.10465300  0.62396600  0.16674000  1
  O  O16  1  0.18979900  0.68093100  0.83563100  1
  O  O17  1  0.66690500  0.92096700  0.65979400  1
  O  O18  1  0.78420800  0.00107400  0.25003800  1
  O  O19  1  0.75572600  0.99804300  0.43221000  1
  O  O20  1  0.77421100  0.00424500  0.06716100  1
  O  O21  1  0.51881400  0.88977500  0.16566900  1
  O  O22  1  0.32515300  0.81248200  0.33554000  1
  O  O23  1  0.74391500  0.08215200  0.84118900  1
  O  O24  1  0.37990700  0.89797200  0.67734500  1
  O  O25  1  0.08353600  0.74672900  0.65733300  1
  O  O26  1  0.99535000  0.20669500  0.74853900  1
  O  O27  1  0.99173100  0.24627500  0.56723300  1
  O  O28  1  0.00718900  0.75457500  0.43315700  1
  O  O29  1  0.92372400  0.25168600  0.34344300  1
  O  O30  1  0.63088300  0.12010300  0.32870400  1
  O  O31  1  0.24925700  0.91943900  0.15410700  1
  O  O32  1  0.67481400  0.18588300  0.66824600  1
  O  O33  1  0.46926900  0.08836000  0.83192000  1
  O  O34  1  0.22090200  0.99486400  0.93320400  1
  O  O35  1  0.24548600  0.00060300  0.56775700  1
  O  O36  1  0.20797500  0.99766400  0.74979000  1
  O  O37  1  0.32571100  0.07847400  0.34414400  1
  O  O38  1  0.81735500  0.32949000  0.17169800  1
  O  O39  1  0.90855300  0.38034600  0.83184600  1
  O  O40  1  0.51702300  0.19040500  0.16090300  1
  O  O41  1  0.69020800  0.33307700  0.01633700  1
  O  O42  1  0.67541700  0.33003300  0.51826200  1
  O  O43  1  0.51428700  0.32510100  0.66231600  1
  O  O44  1  0.88592600  0.51208600  0.32669200  1
  O  O45  1  0.81451000  0.48645400  0.66629200  1
  O  O46  1  0.33009900  0.24805900  0.84450700  1
  O  O47  1  0.21596800  0.21831300  0.25050200  1
  O  O48  1  0.22343200  0.22172200  0.06731900  1
  O  O49  1  0.48933800  0.37029100  0.32800000  1
  O  O50  1  0.67820700  0.48792000  0.16101100  1
  O  O51  1  0.62570400  0.53240700  0.83617000  1
  O  O52  1  0.92264400  0.66714300  0.83778500  1
  O  O53  1  0.99431400  0.76638100  0.06735100  1
  O  O54  1  0.00072100  0.78491000  0.25082100  1
  O  O55  1  0.75204500  0.67110300  0.34595400  1
  O  O56  1  0.76207700  0.76358700  0.56750200  1
  O  O57  1  0.79394000  0.79355400  0.74891100  1
loop_
_geom_bond_atom_site_label_1
_geom_bond_atom_site_label_2
_geom_bond_distance
_geom_bond_site_symmetry_2
Li0 O46 1.980103 1_555
Li0 O2 2.009866 1_455
Li0 O5 2.041552 1_555
Li0 O48 2.096208 1_556
Li1 O0 1.933701 1_555
Li1 O27 1.969056 1_455
Li1 O29 2.003643 1_455
Li1 O9 2.308952 1_555
Li2 O19 1.947802 1_555
Li2 O55 1.980283 1_555
Li2 O56 1.985238 1_555
Li2 O11 2.213275 1_555
Li3 O12 1.858080 1_554
Li3 O21 2.116685 1_555
Li3 O4 2.127758 1_555
Li3 O15 2.206745 1_555
Li4 O7 2.021882 1_555
Li4 O23 2.026132 1_565
Li4 O14 2.073636 1_555
Li4 O20 2.076918 1_566
Li5 O34 1.975410 1_555
Li5 O52 2.033383 1_455
Li5 O16 2.046027 1_555
Li5 O53 2.078864 1_456
Li6 O27 1.935957 1_555
Li6 O19 1.980902 1_545
Li6 O17 1.991851 1_545
Li6 O32 2.203017 1_555
Li7 O28 1.936195 1_555
Li7 O37 1.984558 1_565
Li7 O35 2.005302 1_565
Li7 O22 2.126475 1_555
Li8 O20 1.984896 1_555
Li8 O3 2.035700 1_655
Li8 O2 2.083282 1_554
Li8 O38 2.129975 1_555
Li9 O48 1.997175 1_555
Li9 O31 2.003378 1_545
Li9 O40 2.068544 1_555
Li9 O34 2.082927 1_544
Li10 O42 1.876360 1_555
Li10 O30 2.074786 1_555
Li10 O49 2.091602 1_555
Li10 O44 2.158488 1_555
Li11 O35 1.974837 1_555
Li11 O1 1.977931 1_555
Li11 O0 2.003558 1_555
Li11 O43 2.168211 1_555
Li12 O56 1.954069 1_555
Li12 O28 1.981068 1_655
Li12 O25 2.001509 1_655
Li12 O45 2.234374 1_555
Li13 O53 1.969126 1_555
Li13 O8 2.005285 1_555
Li13 O50 2.033236 1_555
Li13 O7 2.118426 1_554
Li14 O7 2.256074 1_555
Li14 O2 2.374171 1_565
Li14 O34 2.381453 1_655
Li14 O48 2.413532 1_666
Li14 O20 2.435421 1_566
Li14 O53 2.458484 1_556
O0 P13 1.505571 1_555
O1 P1 1.519852 1_555
O1 V4 2.071090 1_555
O2 P8 1.522139 1_555
O3 P0 1.544472 1_555
O3 V2 2.023710 1_455
O4 P0 1.537527 1_555
O4 V5 2.068997 1_555
O5 P3 1.554659 1_555
O5 V4 2.059524 1_555
O6 P2 1.512250 1_555
O6 V4 1.959294 1_555
O7 P15 1.529919 1_555
O8 P5 1.534058 1_555
O8 V5 2.055978 1_555
O9 P4 1.624437 1_555
O9 V2 1.864920 1_455
O10 P1 1.557532 1_555
O10 V3 1.851323 1_555
O11 P4 1.564901 1_555
O11 V5 2.008482 1_555
O12 P3 1.515226 1_555
O13 P4 1.490139 1_555
O14 P3 1.580051 1_555
O14 V0 2.003823 1_555
O15 P7 1.552061 1_555
O15 V2 2.003061 1_455
O16 P3 1.570333 1_555
O16 V3 2.015033 1_555
O17 P2 1.560001 1_555
O17 V0 1.978942 1_555
O18 P5 1.610679 1_545
O18 P6 1.616905 1_555
O19 P6 1.505794 1_565
O20 P5 1.525385 1_545
O21 P5 1.538740 1_555
O21 V1 2.042682 1_565
O22 P4 1.561600 1_555
O22 V1 2.017289 1_565
O23 P8 1.552414 1_555
O23 V0 1.975197 1_545
O24 P9 1.546747 1_555
O24 V0 1.879140 1_555
O25 P9 1.544805 1_555
O25 V3 1.998708 1_555
O26 P8 1.610054 1_555
O26 P1 1.620386 1_655
O27 P1 1.502546 1_655
O28 P14 1.504974 1_455
O29 P6 1.544913 1_555
O29 V2 2.024966 1_555
O30 P6 1.539978 1_555
O30 V1 2.018953 1_555
O31 P7 1.530714 1_555
O31 V1 2.052948 1_565
O32 P11 1.584263 1_555
O32 V0 1.964589 1_545
O33 P10 1.533649 1_555
O33 V0 1.944091 1_545
O34 P10 1.525845 1_565
O35 P9 1.504071 1_545
O36 P9 1.609735 1_555
O36 P10 1.622595 1_565
O37 P13 1.533049 1_555
O37 V1 2.055997 1_555
O38 P12 1.615487 1_555
O38 V2 1.894102 1_555
O39 P8 1.522138 1_555
O39 V3 1.963388 1_655
O40 P12 1.563289 1_555
O40 V1 2.028179 1_555
O41 P12 1.495721 1_555
O42 P11 1.510570 1_555
O43 P11 1.551246 1_555
O43 V4 2.038297 1_555
O44 P14 1.556033 1_555
O44 V2 1.965299 1_555
O45 P11 1.584288 1_555
O45 V3 1.964181 1_655
O46 P10 1.526578 1_555
O46 V4 2.054443 1_555
O47 P0 1.606543 1_555
O47 P13 1.623095 1_555
O48 P0 1.523471 1_555
O49 P13 1.546701 1_555
O49 V5 2.003951 1_555
O50 P12 1.559900 1_555
O50 V5 2.038607 1_555
O51 P15 1.507165 1_555
O51 V4 2.017258 1_555
O52 P15 1.564594 1_555
O52 V3 1.951063 1_655
O53 P7 1.519002 1_655
O54 P7 1.607162 1_555
O54 P14 1.617021 1_455
O55 P14 1.528569 1_555
O55 V5 2.064875 1_555
O56 P2 1.510603 1_555
O57 P15 1.611854 1_555
O57 P2 1.628831 1_555
