# generated using pymatgen
data_Li5Mn2CoO8
_symmetry_space_group_name_H-M   'P 1'
_cell_length_a   2.88876085
_cell_length_b   19.96541540
_cell_length_c   5.08016834
_cell_angle_alpha   92.19609317
_cell_angle_beta   73.95362776
_cell_angle_gamma   86.22413123
_symmetry_Int_Tables_number   1
_chemical_formula_structural   Li5Mn2CoO8
_chemical_formula_sum   'Li10 Mn4 Co2 O16'
_cell_volume   280.48475885
_cell_formula_units_Z   2
loop_
 _symmetry_equiv_pos_site_id
 _symmetry_equiv_pos_as_xyz
  1  'x, y, z'
loop_
 _atom_site_type_symbol
 _atom_site_label
 _atom_site_symmetry_multiplicity
 _atom_site_fract_x
 _atom_site_fract_y
 _atom_site_fract_z
 _atom_site_occupancy
  Li  Li0  1  0.11499300  0.37749600  0.37710100  1
  Li  Li1  1  0.63506100  0.87248600  0.87285700  1
  Li  Li2  1  0.69207200  0.05968700  0.57202800  1
  Li  Li3  1  0.18132000  0.56404100  0.06896300  1
  Li  Li4  1  0.05791000  0.19040200  0.67823100  1
  Li  Li5  1  0.56863900  0.68590500  0.18088900  1
  Li  Li6  1  0.42049200  0.32217400  0.81141600  1
  Li  Li7  1  0.93731800  0.81844400  0.30922000  1
  Li  Li8  1  0.81262700  0.43156100  0.94076900  1
  Li  Li9  1  0.32956800  0.92782500  0.43877300  1
  Mn  Mn0  1  0.00824100  0.99360000  0.01167900  1
  Mn  Mn1  1  0.74155600  0.25652900  0.23890900  1
  Mn  Mn2  1  0.49092500  0.49847000  0.50923600  1
  Mn  Mn3  1  0.25932500  0.75139400  0.74010800  1
  Co  Co0  1  0.87502000  0.62492100  0.62483300  1
  Co  Co1  1  0.37497900  0.12507400  0.12512200  1
  O  O0  1  0.37214700  0.02896000  0.25897900  1
  O  O1  1  0.85383800  0.53503100  0.75486200  1
  O  O2  1  0.37771900  0.22118400  0.99141000  1
  O  O3  1  0.89628800  0.71482100  0.49468000  1
  O  O4  1  0.70662300  0.15907800  0.38052200  1
  O  O5  1  0.24119900  0.65538100  0.86989600  1
  O  O6  1  0.04334200  0.09106000  0.86979100  1
  O  O7  1  0.50882000  0.59448600  0.37972600  1
  O  O8  1  0.10787100  0.27856700  0.48917900  1
  O  O9  1  0.62744600  0.77381900  0.99011600  1
  O  O10  1  0.12270200  0.47604300  0.25936900  1
  O  O11  1  0.64198300  0.97153500  0.76128500  1
  O  O12  1  0.45612100  0.41709200  0.65877200  1
  O  O13  1  0.97563000  0.91192400  0.15641100  1
  O  O14  1  0.77432300  0.33814700  0.09388200  1
  O  O15  1  0.29390200  0.83286300  0.59098400  1
loop_
_geom_bond_atom_site_label_1
_geom_bond_atom_site_label_2
_geom_bond_distance
_geom_bond_site_symmetry_2
Li0 O8 2.076277 1_555
Li0 O10 2.077978 1_555
Li0 O12 2.106914 1_555
Li0 O14 2.110403 1_455
Li0 O12 2.122419 1_455
Li0 O14 2.125167 1_555
Li1 O11 2.077796 1_555
Li1 O9 2.079507 1_555
Li1 O15 2.107995 1_555
Li1 O13 2.112230 1_556
Li1 O15 2.122936 1_655
Li1 O13 2.126580 1_456
Li2 O11 2.032049 1_545
Li2 O6 2.097176 1_555
Li2 O6 2.137740 1_655
Li2 O0 2.138247 1_555
Li2 O0 2.191883 1_655
Li2 O4 2.241066 1_555
Li3 O10 2.032232 1_555
Li3 O5 2.112933 1_554
Li3 O7 2.141215 1_555
Li3 O1 2.147671 1_454
Li3 O7 2.170557 1_455
Li3 O1 2.173275 1_554
Li4 O8 2.031774 1_555
Li4 O4 2.096808 1_555
Li4 O4 2.137256 1_455
Li4 O2 2.138905 1_555
Li4 O2 2.192631 1_455
Li4 O6 2.240307 1_555
Li5 O9 2.031654 1_554
Li5 O7 2.113759 1_555
Li5 O5 2.142541 1_554
Li5 O3 2.146139 1_555
Li5 O5 2.171528 1_654
Li5 O3 2.171863 1_455
Li6 O14 2.006073 1_556
Li6 O14 2.012682 1_456
Li6 O12 2.073026 1_555
Li6 O2 2.242441 1_555
Li6 O8 2.250558 1_555
Li6 O8 2.290586 1_655
Li7 O15 2.003398 1_555
Li7 O15 2.003869 1_655
Li7 O13 2.046694 1_555
Li7 O9 2.240454 1_554
Li7 O9 2.294553 1_654
Li7 O3 2.302591 1_555
Li8 O12 2.004152 1_655
Li8 O12 2.004864 1_555
Li8 O14 2.046086 1_556
Li8 O10 2.237595 1_656
Li8 O10 2.292151 1_556
Li8 O1 2.300764 1_555
Li9 O13 2.005608 1_455
Li9 O13 2.012121 1_555
Li9 O15 2.072977 1_555
Li9 O0 2.244666 1_565
Li9 O11 2.252128 1_555
Li9 O11 2.292221 1_455
Mn0 O13 1.811763 1_455
Mn0 O11 1.921998 1_454
Mn0 O11 1.930584 1_554
Mn0 O0 1.984488 1_465
Mn0 O0 1.985384 1_565
Mn0 O6 2.099805 1_564
Mn1 O14 1.811337 1_555
Mn1 O8 1.921484 1_655
Mn1 O8 1.930140 1_555
Mn1 O2 1.984920 1_654
Mn1 O2 1.985904 1_554
Mn1 O4 2.099118 1_555
Mn2 O12 1.816834 1_555
Mn2 O10 1.925846 1_555
Mn2 O10 1.926315 1_655
Mn2 O1 1.985738 1_555
Mn2 O1 1.990133 1_455
Mn2 O7 2.049718 1_555
Mn3 O15 1.817582 1_555
Mn3 O9 1.926190 1_555
Mn3 O9 1.926808 1_455
Mn3 O3 1.985324 1_455
Mn3 O3 1.989580 1_555
Mn3 O5 2.050155 1_555
Co0 O1 1.934939 1_555
Co0 O3 1.935359 1_555
Co0 O5 1.947680 1_655
Co0 O7 1.947737 1_555
Co0 O7 1.951164 1_655
Co0 O5 1.951239 1_555
Co1 O6 1.940794 1_554
Co1 O4 1.941014 1_555
Co1 O2 2.059731 1_554
Co1 O0 2.060068 1_555
Co1 O6 2.060766 1_654
Co1 O4 2.060828 1_455
