# generated using pymatgen
data_Na2TbO3
_symmetry_space_group_name_H-M   'P 1'
_cell_length_a   5.98299837
_cell_length_b   5.98299837
_cell_length_c   5.95769651
_cell_angle_alpha   80.07803245
_cell_angle_beta   80.07803245
_cell_angle_gamma   119.73390482
_symmetry_Int_Tables_number   1
_chemical_formula_structural   Na2TbO3
_chemical_formula_sum   'Na4 Tb2 O6'
_cell_volume   173.93469033
_cell_formula_units_Z   2
loop_
 _symmetry_equiv_pos_site_id
 _symmetry_equiv_pos_as_xyz
  1  'x, y, z'
loop_
 _atom_site_type_symbol
 _atom_site_label
 _atom_site_symmetry_multiplicity
 _atom_site_fract_x
 _atom_site_fract_y
 _atom_site_fract_z
 _atom_site_occupancy
  Na  Na0  1  0.50000000  0.50000000  0.00000000  1
  Na  Na1  1  0.84045900  0.15954100  0.00000000  1
  Na  Na2  1  0.15954100  0.84045900  0.00000000  1
  Na  Na3  1  0.00000000  0.00000000  0.50000000  1
  Tb  Tb0  1  0.66486600  0.33513400  0.50000000  1
  Tb  Tb1  1  0.33513400  0.66486600  0.50000000  1
  O  O0  1  0.56215200  0.92532700  0.72225500  1
  O  O1  1  0.07467300  0.43784800  0.27774500  1
  O  O2  1  0.43784800  0.07467300  0.27774500  1
  O  O3  1  0.92532700  0.56215200  0.72225500  1
  O  O4  1  0.28691800  0.28691800  0.72745300  1
  O  O5  1  0.71308200  0.71308200  0.27254700  1
loop_
_geom_bond_atom_site_label_1
_geom_bond_atom_site_label_2
_geom_bond_distance
_geom_bond_site_symmetry_2
Na0 O5 2.387824 1_555
Na0 O4 2.387824 1_554
Na0 O2 2.598120 1_555
Na0 O3 2.598120 1_554
Na0 O0 2.598120 1_554
Na0 O1 2.598120 1_555
Na1 O3 2.433501 1_554
Na1 O2 2.433501 1_555
Na1 O4 2.532203 1_654
Na1 O5 2.532203 1_545
Na1 O1 2.628383 1_655
Na1 O0 2.628383 1_544
Na2 O0 2.433501 1_554
Na2 O1 2.433501 1_555
Na2 O5 2.532203 1_455
Na2 O4 2.532203 1_564
Na2 O2 2.628383 1_565
Na2 O3 2.628383 1_454
Na3 O3 2.501052 1_445
Na3 O1 2.501052 1_555
Na3 O0 2.501052 1_445
Na3 O2 2.501052 1_555
Na3 O5 2.531821 1_445
Na3 O4 2.531821 1_555
O0 Tb0 2.291023 1_565
O0 Tb1 2.293007 1_555
O1 Tb0 2.291023 1_455
O1 Tb1 2.293007 1_555
O2 Tb1 2.291023 1_545
O2 Tb0 2.293007 1_555
O3 Tb1 2.291023 1_655
O3 Tb0 2.293007 1_555
O4 Tb0 2.279267 1_555
O4 Tb1 2.279267 1_555
O5 Tb0 2.279267 1_555
O5 Tb1 2.279267 1_555
