# generated using pymatgen
data_Sr2LiV2(Si2O7)2
_symmetry_space_group_name_H-M   'P 1'
_cell_length_a   5.46374748
_cell_length_b   7.19658480
_cell_length_c   7.83543490
_cell_angle_alpha   91.84512950
_cell_angle_beta   109.22917199
_cell_angle_gamma   89.22030001
_symmetry_Int_Tables_number   1
_chemical_formula_structural   Sr2LiV2(Si2O7)2
_chemical_formula_sum   'Sr2 Li1 V2 Si4 O14'
_cell_volume   290.75071005
_cell_formula_units_Z   1
loop_
 _symmetry_equiv_pos_site_id
 _symmetry_equiv_pos_as_xyz
  1  'x, y, z'
loop_
 _atom_site_type_symbol
 _atom_site_label
 _atom_site_symmetry_multiplicity
 _atom_site_fract_x
 _atom_site_fract_y
 _atom_site_fract_z
 _atom_site_occupancy
  Sr  Sr0  1  0.17223700  0.76738100  0.38816900  1
  Sr  Sr1  1  0.80976500  0.25165600  0.60297700  1
  Li  Li0  1  0.87421800  0.51454900  0.99856800  1
  V  V0  1  0.92017200  0.77300100  0.79318700  1
  V  V1  1  0.10723900  0.25299900  0.23853400  1
  Si  Si0  1  0.40093100  0.48120600  0.79016700  1
  Si  Si1  1  0.59035200  0.53128600  0.22869300  1
  Si  Si2  1  0.59313800  0.98244200  0.21662200  1
  Si  Si3  1  0.40215700  0.03416300  0.78399400  1
  O  O0  1  0.62177300  0.75930500  0.27674600  1
  O  O1  1  0.36512700  0.25735800  0.72740200  1
  O  O2  1  0.49616000  0.49167900  0.01228500  1
  O  O3  1  0.49118700  0.01148400  0.00184000  1
  O  O4  1  0.64996400  0.54663700  0.73970800  1
  O  O5  1  0.88616800  0.44833500  0.30959700  1
  O  O6  1  0.39262100  0.07037700  0.31375900  1
  O  O7  1  0.11215600  0.95562800  0.68696800  1
  O  O8  1  0.00396600  0.26159100  0.01470700  1
  O  O9  1  0.01905800  0.74647100  0.03893000  1
  O  O10  1  0.88431100  0.07038200  0.30906900  1
  O  O11  1  0.61778600  0.95197300  0.70090300  1
  O  O12  1  0.12296700  0.57643000  0.69614600  1
  O  O13  1  0.39155000  0.44885200  0.32269400  1
loop_
_geom_bond_atom_site_label_1
_geom_bond_atom_site_label_2
_geom_bond_distance
_geom_bond_site_symmetry_2
Li0 O9 1.830055 1_656
Li0 O8 1.937312 1_656
Li0 O4 2.013457 1_555
Li0 O2 2.112351 1_556
Li0 O5 2.477833 1_556
O0 Si1 1.670115 1_555
O0 Si2 1.678813 1_555
O0 Sr0 2.843085 1_655
O0 Sr0 2.864189 1_555
O1 Si0 1.664166 1_555
O1 Si3 1.671974 1_555
O1 Sr1 2.865607 1_455
O1 Sr1 2.899811 1_555
O2 Si1 1.618453 1_555
O2 Si0 1.643627 1_554
O3 Si2 1.608774 1_545
O3 Si3 1.626557 1_554
O4 Si0 1.616539 1_555
O4 V0 2.150115 1_555
O4 Sr1 2.614550 1_555
O5 Si1 1.641265 1_555
O5 V1 2.022754 1_655
O5 Sr0 2.732514 1_655
O5 Sr1 2.884382 1_555
O6 Si2 1.636893 1_545
O6 V1 1.973498 1_555
O6 Sr0 2.675881 1_545
O6 Sr1 2.918976 1_555
O7 Si3 1.615938 1_565
O7 V0 2.050207 1_455
O7 Sr1 2.641907 1_465
O7 Sr0 2.777457 1_555
O8 V1 1.658964 1_555
O8 Sr1 3.044837 1_454
O9 V0 1.836174 1_454
O9 Sr0 2.584484 1_555
O10 Si2 1.641640 1_545
O10 V1 2.012448 1_655
O10 Sr0 2.639181 1_645
O10 Sr1 2.753362 1_555
O11 Si3 1.619638 1_565
O11 V0 2.031390 1_555
O11 Sr1 2.653032 1_565
O11 Sr0 3.105563 1_555
O12 Si0 1.608129 1_555
O12 V0 2.061572 1_455
O12 Sr1 2.846091 1_455
O12 Sr0 2.904411 1_555
O13 Si1 1.626935 1_555
O13 V1 2.039490 1_555
O13 Sr0 2.684813 1_555
O13 Sr1 2.977460 1_555
