# generated using pymatgen
data_MnCdSe4
_symmetry_space_group_name_H-M   'P 1'
_cell_length_a   6.58204300
_cell_length_b   6.56522900
_cell_length_c   6.59281920
_cell_angle_alpha   89.24975088
_cell_angle_beta   90.00000000
_cell_angle_gamma   90.00000000
_symmetry_Int_Tables_number   1
_chemical_formula_structural   MnCdSe4
_chemical_formula_sum   'Mn2 Cd2 Se8'
_cell_volume   284.86856430
_cell_formula_units_Z   2
loop_
 _symmetry_equiv_pos_site_id
 _symmetry_equiv_pos_as_xyz
  1  'x, y, z'
loop_
 _atom_site_type_symbol
 _atom_site_label
 _atom_site_symmetry_multiplicity
 _atom_site_fract_x
 _atom_site_fract_y
 _atom_site_fract_z
 _atom_site_occupancy
  Mn  Mn0  1  0.00000000  0.00000000  0.00000000  1
  Mn  Mn1  1  0.50000000  0.50000000  0.00000000  1
  Cd  Cd0  1  0.00000000  0.50000000  0.50000000  1
  Cd  Cd1  1  0.50000000  0.00000000  0.50000000  1
  Se  Se0  1  0.61380900  0.11137700  0.09177100  1
  Se  Se1  1  0.11380900  0.38862300  0.90822900  1
  Se  Se2  1  0.40307800  0.59967900  0.38096600  1
  Se  Se3  1  0.90307800  0.90032100  0.61903400  1
  Se  Se4  1  0.38619100  0.88862300  0.90822900  1
  Se  Se5  1  0.88619100  0.61137700  0.09177100  1
  Se  Se6  1  0.59692200  0.40032100  0.61903400  1
  Se  Se7  1  0.09692200  0.09967900  0.38096600  1
loop_
_geom_bond_atom_site_label_1
_geom_bond_atom_site_label_2
_geom_bond_distance
_geom_bond_site_symmetry_2
Mn0 Se7 2.680786 1_555
Mn0 Se3 2.680786 1_444
Mn0 Se4 2.715457 1_544
Mn0 Se0 2.715457 1_455
Mn0 Se5 2.719635 1_445
Mn0 Se1 2.719635 1_554
Mn1 Se2 2.680786 1_555
Mn1 Se6 2.680786 1_554
Mn1 Se5 2.715457 1_555
Mn1 Se1 2.715457 1_554
Mn1 Se4 2.719635 1_554
Mn1 Se0 2.719635 1_555
Cd0 Se3 2.825647 1_455
Cd0 Se7 2.825647 1_555
Cd0 Se6 2.840685 1_455
Cd0 Se2 2.840685 1_555
Cd0 Se1 2.878856 1_555
Cd0 Se5 2.878856 1_455
Cd1 Se6 2.825647 1_555
Cd1 Se2 2.825647 1_545
Cd1 Se3 2.840685 1_545
Cd1 Se7 2.840685 1_555
Cd1 Se4 2.878856 1_545
Cd1 Se0 2.878856 1_555
Se0 Se4 2.427729 1_544
Se1 Se5 2.427729 1_456
Se2 Se6 2.398039 1_555
Se3 Se7 2.398039 1_665
