# generated using pymatgen
data_Li9Mn2Co5O16
_symmetry_space_group_name_H-M   'P 1'
_cell_length_a   5.91067995
_cell_length_b   5.91067995
_cell_length_c   10.28765501
_cell_angle_alpha   71.99916609
_cell_angle_beta   71.99916609
_cell_angle_gamma   58.72393150
_symmetry_Int_Tables_number   1
_chemical_formula_structural   Li9Mn2Co5O16
_chemical_formula_sum   'Li9 Mn2 Co5 O16'
_cell_volume   287.22095823
_cell_formula_units_Z   1
loop_
 _symmetry_equiv_pos_site_id
 _symmetry_equiv_pos_as_xyz
  1  'x, y, z'
loop_
 _atom_site_type_symbol
 _atom_site_label
 _atom_site_symmetry_multiplicity
 _atom_site_fract_x
 _atom_site_fract_y
 _atom_site_fract_z
 _atom_site_occupancy
  Li  Li0  1  0.75684600  0.75684600  0.73581800  1
  Li  Li1  1  0.74208200  0.74208200  0.26342400  1
  Li  Li2  1  0.25640700  0.74467300  0.72970700  1
  Li  Li3  1  0.25532700  0.74359300  0.27029300  1
  Li  Li4  1  0.74467300  0.25640700  0.72970700  1
  Li  Li5  1  0.74359300  0.25532700  0.27029300  1
  Li  Li6  1  0.25791800  0.25791800  0.73657600  1
  Li  Li7  1  0.24315400  0.24315400  0.26418200  1
  Li  Li8  1  0.50000000  0.50000000  0.50000000  1
  Mn  Mn0  1  0.00000000  0.50000000  0.00000000  1
  Mn  Mn1  1  0.50000000  0.00000000  0.00000000  1
  Co  Co0  1  0.00000000  0.50000000  0.50000000  1
  Co  Co1  1  0.50000000  0.50000000  0.00000000  1
  Co  Co2  1  0.00000000  0.00000000  0.00000000  1
  Co  Co3  1  0.00000000  0.00000000  0.50000000  1
  Co  Co4  1  0.50000000  0.00000000  0.50000000  1
  O  O0  1  0.85612000  0.85612000  0.88512200  1
  O  O1  1  0.88300800  0.88300800  0.38486600  1
  O  O2  1  0.36049900  0.89187400  0.89409800  1
  O  O3  1  0.35171200  0.88650700  0.38894000  1
  O  O4  1  0.89187400  0.36049900  0.89409800  1
  O  O5  1  0.88650700  0.35171200  0.38894000  1
  O  O6  1  0.36144000  0.36144000  0.88569300  1
  O  O7  1  0.36296100  0.36296100  0.38242800  1
  O  O8  1  0.63703900  0.63703900  0.61757200  1
  O  O9  1  0.63856000  0.63856000  0.11430700  1
  O  O10  1  0.11349300  0.64828800  0.61106000  1
  O  O11  1  0.10812600  0.63950100  0.10590200  1
  O  O12  1  0.64828800  0.11349300  0.61106000  1
  O  O13  1  0.63950100  0.10812600  0.10590200  1
  O  O14  1  0.11699200  0.11699200  0.61513400  1
  O  O15  1  0.14388000  0.14388000  0.11487800  1
loop_
_geom_bond_atom_site_label_1
_geom_bond_atom_site_label_2
_geom_bond_distance
_geom_bond_site_symmetry_2
Li0 O12 1.983710 1_565
Li0 O10 1.983710 1_655
Li0 O8 2.016992 1_555
Li0 O0 2.125905 1_555
Li0 O2 2.297988 1_555
Li0 O4 2.297988 1_555
Li1 O3 2.124765 1_555
Li1 O5 2.124765 1_555
Li1 O9 2.156670 1_555
Li1 O11 2.180130 1_655
Li1 O13 2.180130 1_565
Li1 O1 2.226069 1_555
Li2 O14 2.006351 1_565
Li2 O10 2.023536 1_555
Li2 O8 2.039723 1_555
Li2 O6 2.236181 1_555
Li2 O0 2.298419 1_455
Li2 O2 2.470639 1_555
Li3 O1 2.006351 1_455
Li3 O3 2.023536 1_555
Li3 O7 2.039723 1_555
Li3 O9 2.236181 1_555
Li3 O15 2.298419 1_565
Li3 O11 2.470639 1_555
Li4 O14 2.006351 1_655
Li4 O12 2.023536 1_555
Li4 O8 2.039723 1_555
Li4 O6 2.236181 1_555
Li4 O0 2.298419 1_545
Li4 O4 2.470639 1_555
Li5 O1 2.006351 1_545
Li5 O5 2.023536 1_555
Li5 O7 2.039723 1_555
Li5 O9 2.236181 1_555
Li5 O15 2.298419 1_655
Li5 O13 2.470639 1_555
Li6 O12 2.124765 1_555
Li6 O10 2.124765 1_555
Li6 O6 2.156670 1_555
Li6 O4 2.180130 1_455
Li6 O2 2.180130 1_545
Li6 O14 2.226069 1_555
Li7 O3 1.983710 1_545
Li7 O5 1.983710 1_455
Li7 O7 2.016992 1_555
Li7 O15 2.125905 1_555
Li7 O13 2.297988 1_555
Li7 O11 2.297988 1_555
Li8 O5 2.054088 1_555
Li8 O12 2.054088 1_555
Li8 O10 2.054088 1_555
Li8 O3 2.054088 1_555
Li8 O8 2.160429 1_555
Li8 O7 2.160429 1_555
Mn0 O15 1.943087 1_555
Mn0 O0 1.943087 1_454
Mn0 O11 1.951417 1_555
Mn0 O4 1.951417 1_454
Mn0 O9 1.960469 1_455
Mn0 O6 1.960469 1_554
Mn1 O15 1.943087 1_555
Mn1 O0 1.943087 1_544
Mn1 O13 1.951417 1_555
Mn1 O2 1.951417 1_544
Mn1 O9 1.960469 1_545
Mn1 O6 1.960469 1_554
Co0 O7 1.979647 1_555
Co0 O8 1.979647 1_455
Co0 O5 2.055914 1_455
Co0 O10 2.055914 1_555
Co0 O14 2.056594 1_555
Co0 O1 2.056594 1_455
Co1 O11 2.060176 1_555
Co1 O2 2.060176 1_554
Co1 O13 2.060176 1_555
Co1 O4 2.060176 1_554
Co1 O9 2.147385 1_555
Co1 O6 2.147385 1_554
Co2 O2 1.928022 1_544
Co2 O11 1.928022 1_545
Co2 O13 1.928022 1_455
Co2 O4 1.928022 1_454
Co2 O15 2.199202 1_555
Co2 O0 2.199202 1_444
Co3 O5 1.906507 1_455
Co3 O12 1.906507 1_455
Co3 O3 1.906507 1_545
Co3 O10 1.906507 1_545
Co3 O14 1.966786 1_555
Co3 O1 1.966786 1_445
Co4 O7 1.979647 1_555
Co4 O8 1.979647 1_545
Co4 O3 2.055914 1_545
Co4 O12 2.055914 1_555
Co4 O14 2.056594 1_555
Co4 O1 2.056594 1_545
