# generated using pymatgen
data_VO2
_symmetry_space_group_name_H-M   'P 1'
_cell_length_a   5.00778928
_cell_length_b   9.16625622
_cell_length_c   5.01785027
_cell_angle_alpha   91.24666752
_cell_angle_beta   111.80029952
_cell_angle_gamma   91.09005279
_symmetry_Int_Tables_number   1
_chemical_formula_structural   VO2
_chemical_formula_sum   'V6 O12'
_cell_volume   213.71848652
_cell_formula_units_Z   6
loop_
 _symmetry_equiv_pos_site_id
 _symmetry_equiv_pos_as_xyz
  1  'x, y, z'
loop_
 _atom_site_type_symbol
 _atom_site_label
 _atom_site_symmetry_multiplicity
 _atom_site_fract_x
 _atom_site_fract_y
 _atom_site_fract_z
 _atom_site_occupancy
  V  V0  1  0.49603900  0.50968700  0.48992200  1
  V  V1  1  0.93335000  0.75255500  0.58179800  1
  V  V2  1  0.56520200  0.75659900  0.93360700  1
  V  V3  1  0.98310600  0.00956400  0.00175000  1
  V  V4  1  0.42748700  0.25753100  0.07138600  1
  V  V5  1  0.07740300  0.25121400  0.44124900  1
  O  O0  1  0.30184100  0.12048400  0.30540100  1
  O  O1  1  0.79943900  0.62097200  0.80722700  1
  O  O2  1  0.19606800  0.38664300  0.19881800  1
  O  O3  1  0.69059500  0.88688500  0.70232500  1
  O  O4  1  0.10311700  0.13955900  0.76882400  1
  O  O5  1  0.59045400  0.63144900  0.26111900  1
  O  O6  1  0.75512500  0.13104400  0.09826200  1
  O  O7  1  0.26173300  0.63894600  0.61069300  1
  O  O8  1  0.40138500  0.35436500  0.73797500  1
  O  O9  1  0.89140100  0.84883000  0.24367500  1
  O  O10  1  0.73797100  0.34918500  0.39714900  1
  O  O11  1  0.23079100  0.85448900  0.90631400  1
loop_
_geom_bond_atom_site_label_1
_geom_bond_atom_site_label_2
_geom_bond_distance
_geom_bond_site_symmetry_2
O0 V5 1.936128 1_555
O0 V4 1.983865 1_555
O0 V3 1.991858 1_455
O1 V1 1.943190 1_555
O1 V2 1.974162 1_555
O1 V0 1.989382 1_555
O2 V4 1.929297 1_555
O2 V0 1.973926 1_555
O2 V5 1.987095 1_555
O3 V2 1.934014 1_555
O3 V3 1.974030 1_566
O3 V1 1.982510 1_555
O4 V5 1.920124 1_555
O4 V3 1.924102 1_456
O4 V4 2.035416 1_556
O5 V0 1.796171 1_555
O5 V2 1.991467 1_554
O5 V1 2.137203 1_555
O6 V3 1.792610 1_555
O6 V4 1.992308 1_555
O6 V5 2.137018 1_655
O7 V0 1.922916 1_555
O7 V1 1.924680 1_455
O7 V2 2.032405 1_555
O8 V4 1.873628 1_556
O8 V5 1.956864 1_555
O8 V0 2.071370 1_555
O9 V1 1.873233 1_555
O9 V2 1.950996 1_554
O9 V3 2.078801 1_565
O10 V5 1.879388 1_655
O10 V4 1.948881 1_555
O10 V0 2.075069 1_555
O11 V2 1.876308 1_555
O11 V1 1.955148 1_455
O11 V3 2.065670 1_466
