# generated using pymatgen
data_Rb2MnSO4F3
_symmetry_space_group_name_H-M   'P 1'
_cell_length_a   11.36641800
_cell_length_b   7.48220600
_cell_length_c   8.94542962
_cell_angle_alpha   86.77934558
_cell_angle_beta   90.00000000
_cell_angle_gamma   90.00000000
_symmetry_Int_Tables_number   1
_chemical_formula_structural   Rb2MnSO4F3
_chemical_formula_sum   'Rb8 Mn4 S4 O16 F12'
_cell_volume   759.57036165
_cell_formula_units_Z   4
loop_
 _symmetry_equiv_pos_site_id
 _symmetry_equiv_pos_as_xyz
  1  'x, y, z'
loop_
 _atom_site_type_symbol
 _atom_site_label
 _atom_site_symmetry_multiplicity
 _atom_site_fract_x
 _atom_site_fract_y
 _atom_site_fract_z
 _atom_site_occupancy
  Rb  Rb0  1  0.19131400  0.29949300  0.67220400  1
  Rb  Rb1  1  0.69131400  0.70050700  0.82779600  1
  Rb  Rb2  1  0.80868600  0.70050700  0.32779600  1
  Rb  Rb3  1  0.30868600  0.29949300  0.17220400  1
  Rb  Rb4  1  0.30925500  0.80827800  0.83240000  1
  Rb  Rb5  1  0.80925500  0.19172200  0.66760000  1
  Rb  Rb6  1  0.69074500  0.19172200  0.16760000  1
  Rb  Rb7  1  0.19074500  0.80827800  0.33240000  1
  Mn  Mn0  1  0.50000000  0.00000000  0.50000000  1
  Mn  Mn1  1  0.00000000  0.00000000  0.00000000  1
  Mn  Mn2  1  0.50000000  0.50000000  0.50000000  1
  Mn  Mn3  1  0.00000000  0.50000000  0.00000000  1
  S  S0  1  0.50170800  0.25270000  0.80308000  1
  S  S1  1  0.00170800  0.74730000  0.69692000  1
  S  S2  1  0.49829200  0.74730000  0.19692000  1
  S  S3  1  0.99829200  0.25270000  0.30308000  1
  O  O0  1  0.40267600  0.18076100  0.89359000  1
  O  O1  1  0.90267600  0.81923900  0.60641000  1
  O  O2  1  0.59732400  0.81923900  0.10641000  1
  O  O3  1  0.09732400  0.18076100  0.39359000  1
  O  O4  1  0.59238800  0.33853800  0.89169000  1
  O  O5  1  0.09238800  0.66146200  0.60831000  1
  O  O6  1  0.40761200  0.66146200  0.10831000  1
  O  O7  1  0.90761200  0.33853800  0.39169000  1
  O  O8  1  0.44610300  0.39495100  0.69204600  1
  O  O9  1  0.94610300  0.60504900  0.80795400  1
  O  O10  1  0.55389700  0.60504900  0.30795400  1
  O  O11  1  0.05389700  0.39495100  0.19204600  1
  O  O12  1  0.05662100  0.88956000  0.78529700  1
  O  O13  1  0.55662100  0.11044000  0.71470300  1
  O  O14  1  0.94337900  0.11044000  0.21470300  1
  O  O15  1  0.44337900  0.88956000  0.28529700  1
  F  F0  1  0.34294700  0.52098000  0.44488800  1
  F  F1  1  0.84294700  0.47902000  0.05511200  1
  F  F2  1  0.65705300  0.47902000  0.55511200  1
  F  F3  1  0.15705300  0.52098000  0.94488800  1
  F  F4  1  0.15861500  0.02304500  0.04568800  1
  F  F5  1  0.65861500  0.97695500  0.45431200  1
  F  F6  1  0.84138500  0.97695500  0.95431200  1
  F  F7  1  0.34138500  0.02304500  0.54568800  1
  F  F8  1  0.00121100  0.76599600  0.10017300  1
  F  F9  1  0.50121100  0.23400400  0.39982700  1
  F  F10  1  0.99878900  0.23400400  0.89982700  1
  F  F11  1  0.49878900  0.76599600  0.60017300  1
loop_
_geom_bond_atom_site_label_1
_geom_bond_atom_site_label_2
_geom_bond_distance
_geom_bond_site_symmetry_2
Mn0 O13 2.228025 1_555
Mn0 O15 2.228025 1_545
Mn1 O14 2.228025 1_455
Mn1 O12 2.228025 1_544
Mn2 O8 1.947477 1_555
Mn2 O10 1.947477 1_555
Mn3 O11 1.947477 1_555
Mn3 O9 1.947477 1_454
O0 S0 1.470835 1_555
O0 Rb3 2.896722 1_556
O0 Rb4 3.060378 1_545
O0 Rb0 3.207047 1_555
O1 S1 1.470835 1_655
O1 Rb2 2.896722 1_555
O1 Rb5 3.060378 1_565
O1 Rb1 3.207047 1_555
O2 S2 1.470835 1_555
O2 Rb1 2.896722 1_554
O2 Rb6 3.060378 1_565
O2 Rb2 3.207047 1_555
O3 S3 1.470835 1_455
O3 Rb0 2.896722 1_555
O3 Rb7 3.060378 1_545
O3 Rb3 3.207047 1_555
O4 S0 1.469815 1_555
O4 Rb6 2.871168 1_556
O4 Rb1 2.958400 1_555
O4 Rb5 3.398341 1_555
O5 S1 1.469815 1_555
O5 Rb7 2.871168 1_555
O5 Rb0 2.958400 1_555
O5 Rb4 3.398341 1_555
O6 S2 1.469815 1_555
O6 Rb4 2.871168 1_554
O6 Rb3 2.958400 1_555
O6 Rb7 3.398341 1_555
O7 S3 1.469815 1_555
O7 Rb5 2.871168 1_555
O7 Rb2 2.958400 1_555
O7 Rb6 3.398341 1_555
O8 S0 1.549212 1_555
O8 Rb0 2.990472 1_555
O9 S1 1.549212 1_655
O9 Rb1 2.990472 1_555
O10 S2 1.549212 1_555
O10 Rb2 2.990472 1_555
O11 S3 1.549212 1_455
O11 Rb3 2.990472 1_555
O12 S1 1.497372 1_555
O12 Rb4 2.960470 1_555
O12 Rb0 3.525115 1_565
O13 S0 1.497372 1_555
O13 Rb5 2.960470 1_555
O13 Rb1 3.525115 1_545
O14 S3 1.497372 1_555
O14 Rb6 2.960470 1_555
O14 Rb2 3.525115 1_545
O15 S2 1.497372 1_555
O15 Rb7 2.960470 1_555
O15 Rb3 3.525115 1_565
F0 Mn2 1.856256 1_555
F0 Rb7 2.895384 1_555
F0 Rb3 3.049964 1_555
F0 Rb0 3.077843 1_555
F1 Mn3 1.856256 1_655
F1 Rb6 2.895384 1_555
F1 Rb2 3.049964 1_555
F1 Rb1 3.077843 1_554
F2 Mn2 1.856256 1_555
F2 Rb5 2.895384 1_555
F2 Rb1 3.049964 1_555
F2 Rb2 3.077843 1_555
F3 Mn3 1.856256 1_556
F3 Rb4 2.895384 1_555
F3 Rb0 3.049964 1_555
F3 Rb3 3.077843 1_556
F4 Mn1 1.858784 1_555
F4 Rb3 2.954990 1_555
F4 Rb7 2.971618 1_545
F4 Rb4 3.082007 1_544
F5 Mn0 1.858784 1_565
F5 Rb2 2.954990 1_555
F5 Rb6 2.971618 1_565
F5 Rb5 3.082007 1_565
F6 Mn1 1.858784 1_666
F6 Rb1 2.954990 1_555
F6 Rb5 2.971618 1_565
F6 Rb6 3.082007 1_566
F7 Mn0 1.858784 1_555
F7 Rb0 2.954990 1_555
F7 Rb4 2.971618 1_545
F7 Rb7 3.082007 1_545
F8 Mn1 1.921564 1_565
F8 Mn3 2.228139 1_555
F8 Rb2 3.010446 1_455
F8 Rb7 3.021672 1_555
F9 Mn0 1.921564 1_555
F9 Mn2 2.228139 1_555
F9 Rb3 3.010446 1_555
F9 Rb6 3.021672 1_555
F10 Mn1 1.921564 1_656
F10 Mn3 2.228139 1_656
F10 Rb0 3.010446 1_655
F10 Rb5 3.021672 1_555
F11 Mn0 1.921564 1_565
F11 Mn2 2.228139 1_555
F11 Rb1 3.010446 1_555
F11 Rb4 3.021672 1_555
