# generated using pymatgen
data_Mg3Sb
_symmetry_space_group_name_H-M   'P 1'
_cell_length_a   6.67413932
_cell_length_b   6.67413932
_cell_length_c   20.14748400
_cell_angle_alpha   90.00000000
_cell_angle_beta   90.00000000
_cell_angle_gamma   119.99999323
_symmetry_Int_Tables_number   1
_chemical_formula_structural   Mg3Sb
_chemical_formula_sum   'Mg24 Sb8'
_cell_volume   777.21650869
_cell_formula_units_Z   8
loop_
 _symmetry_equiv_pos_site_id
 _symmetry_equiv_pos_as_xyz
  1  'x, y, z'
loop_
 _atom_site_type_symbol
 _atom_site_label
 _atom_site_symmetry_multiplicity
 _atom_site_fract_x
 _atom_site_fract_y
 _atom_site_fract_z
 _atom_site_occupancy
  Mg  Mg0_0  1  0.00000000  0.00000000  0.00000000  1
  Mg  Mg0_1  1  0.00000000  0.00000000  0.50000000  1
  Mg  Mg0_2  1  0.00000000  0.50000000  0.00000000  1
  Mg  Mg0_3  1  0.00000000  0.50000000  0.50000000  1
  Mg  Mg0_4  1  0.50000000  0.00000000  0.00000000  1
  Mg  Mg0_5  1  0.50000000  0.00000000  0.50000000  1
  Mg  Mg0_6  1  0.50000000  0.50000000  0.00000000  1
  Mg  Mg0_7  1  0.50000000  0.50000000  0.50000000  1
  Mg  Mg1_0  1  0.33333350  0.16666650  0.37753950  1
  Mg  Mg1_1  1  0.33333350  0.16666650  0.87753950  1
  Mg  Mg1_2  1  0.33333350  0.66666650  0.37753950  1
  Mg  Mg1_3  1  0.33333350  0.66666650  0.87753950  1
  Mg  Mg1_4  1  0.83333350  0.16666650  0.37753950  1
  Mg  Mg1_5  1  0.83333350  0.16666650  0.87753950  1
  Mg  Mg1_6  1  0.83333350  0.66666650  0.37753950  1
  Mg  Mg1_7  1  0.83333350  0.66666650  0.87753950  1
  Mg  Mg2_0  1  0.33333350  0.16666650  0.12246050  1
  Mg  Mg2_1  1  0.33333350  0.16666650  0.62246050  1
  Mg  Mg2_2  1  0.33333350  0.66666650  0.12246050  1
  Mg  Mg2_3  1  0.33333350  0.66666650  0.62246050  1
  Mg  Mg2_4  1  0.83333350  0.16666650  0.12246050  1
  Mg  Mg2_5  1  0.83333350  0.16666650  0.62246050  1
  Mg  Mg2_6  1  0.83333350  0.66666650  0.12246050  1
  Mg  Mg2_7  1  0.83333350  0.66666650  0.62246050  1
  Sb  Sb0_0  1  0.00000000  0.00000000  0.25000000  1
  Sb  Sb0_1  1  0.00000000  0.00000000  0.75000000  1
  Sb  Sb0_2  1  0.00000000  0.50000000  0.25000000  1
  Sb  Sb0_3  1  0.00000000  0.50000000  0.75000000  1
  Sb  Sb0_4  1  0.50000000  0.00000000  0.25000000  1
  Sb  Sb0_5  1  0.50000000  0.00000000  0.75000000  1
  Sb  Sb0_6  1  0.50000000  0.50000000  0.25000000  1
  Sb  Sb0_7  1  0.50000000  0.50000000  0.75000000  1
loop_
_geom_bond_atom_site_label_1
_geom_bond_atom_site_label_2
_geom_bond_distance
_geom_bond_site_symmetry_2
Mg0_0 Mg1_5 3.130404 1_454
Mg0_0 Mg2_4 3.130404 1_455
Mg0_0 Mg1_7 3.130406 1_444
Mg0_0 Mg1_1 3.130406 1_554
Mg0_0 Mg2_6 3.130406 1_445
Mg0_0 Mg2_0 3.130406 1_555
Mg0_0 Mg0_2 3.337070 1_555
Mg0_0 Mg0_2 3.337070 1_545
Mg0_0 Mg0_4 3.337070 1_455
Mg0_0 Mg0_4 3.337070 1_555
Mg0_0 Mg0_6 3.337070 1_445
Mg0_0 Mg0_6 3.337070 1_555
Mg0_1 Mg2_5 3.130404 1_455
Mg0_1 Mg1_4 3.130404 1_455
Mg0_1 Mg2_7 3.130406 1_445
Mg0_1 Mg2_1 3.130406 1_555
Mg0_1 Mg1_0 3.130406 1_555
Mg0_1 Mg1_6 3.130406 1_445
Mg0_1 Mg0_5 3.337070 1_555
Mg0_1 Mg0_3 3.337070 1_545
Mg0_1 Mg0_3 3.337070 1_555
Mg0_1 Mg0_5 3.337070 1_455
Mg0_1 Mg0_7 3.337070 1_555
Mg0_1 Mg0_7 3.337070 1_445
Mg0_2 Mg1_7 3.130404 1_454
Mg0_2 Mg2_6 3.130404 1_455
Mg0_2 Mg1_3 3.130406 1_554
Mg0_2 Mg1_5 3.130406 1_454
Mg0_2 Mg2_2 3.130406 1_555
Mg0_2 Mg2_4 3.130406 1_455
Mg0_2 Mg0_6 3.337070 1_455
Mg0_2 Mg0_6 3.337070 1_555
Mg0_2 Mg0_4 3.337070 1_455
Mg0_2 Mg0_4 3.337070 1_565
Mg0_3 Mg1_6 3.130404 1_455
Mg0_3 Mg2_7 3.130404 1_455
Mg0_3 Mg1_2 3.130406 1_555
Mg0_3 Mg2_5 3.130406 1_455
Mg0_3 Mg1_4 3.130406 1_455
Mg0_3 Mg2_3 3.130406 1_555
Mg0_3 Mg0_7 3.337070 1_455
Mg0_3 Mg0_7 3.337070 1_555
Mg0_3 Mg0_5 3.337070 1_565
Mg0_3 Mg0_5 3.337070 1_455
Mg0_4 Mg1_1 3.130404 1_554
Mg0_4 Mg2_0 3.130404 1_555
Mg0_4 Mg1_3 3.130406 1_544
Mg0_4 Mg1_5 3.130406 1_554
Mg0_4 Mg2_4 3.130406 1_555
Mg0_4 Mg2_2 3.130406 1_545
Mg0_4 Mg0_6 3.337070 1_555
Mg0_4 Mg0_6 3.337070 1_545
Mg0_5 Mg2_1 3.130404 1_555
Mg0_5 Mg1_0 3.130404 1_555
Mg0_5 Mg1_4 3.130406 1_555
Mg0_5 Mg2_5 3.130406 1_555
Mg0_5 Mg2_3 3.130406 1_545
Mg0_5 Mg1_2 3.130406 1_545
Mg0_5 Mg0_7 3.337070 1_555
Mg0_5 Mg0_7 3.337070 1_545
Mg0_6 Mg1_3 3.130404 1_554
Mg0_6 Mg2_2 3.130404 1_555
Mg0_6 Mg1_1 3.130406 1_554
Mg0_6 Mg1_7 3.130406 1_554
Mg0_6 Mg2_0 3.130406 1_555
Mg0_6 Mg2_6 3.130406 1_555
Mg0_7 Mg1_2 3.130404 1_555
Mg0_7 Mg2_3 3.130404 1_555
Mg0_7 Mg2_1 3.130406 1_555
Mg0_7 Mg1_0 3.130406 1_555
Mg0_7 Mg2_7 3.130406 1_555
Mg0_7 Mg1_6 3.130406 1_555
Mg1_0 Sb0_4 3.211674 1_555
Mg1_0 Sb0_6 3.211676 1_555
Mg1_0 Sb0_0 3.211676 1_555
Mg1_1 Sb0_5 3.211674 1_555
Mg1_1 Sb0_7 3.211676 1_555
Mg1_1 Sb0_1 3.211676 1_555
Mg1_2 Sb0_6 3.211674 1_555
Mg1_2 Sb0_2 3.211676 1_555
Mg1_2 Sb0_4 3.211676 1_565
Mg1_3 Sb0_7 3.211674 1_555
Mg1_3 Sb0_5 3.211676 1_565
Mg1_3 Sb0_3 3.211676 1_555
Mg1_4 Sb0_0 3.211674 1_655
Mg1_4 Sb0_2 3.211676 1_655
Mg1_4 Sb0_4 3.211676 1_555
Mg1_5 Sb0_1 3.211674 1_655
Mg1_5 Sb0_5 3.211676 1_555
Mg1_5 Sb0_3 3.211676 1_655
Mg1_6 Sb0_2 3.211674 1_655
Mg1_6 Sb0_0 3.211676 1_665
Mg1_6 Sb0_6 3.211676 1_555
Mg1_7 Sb0_3 3.211674 1_655
Mg1_7 Sb0_1 3.211676 1_665
Mg1_7 Sb0_7 3.211676 1_555
Mg2_0 Sb0_4 3.211674 1_555
Mg2_0 Sb0_6 3.211676 1_555
Mg2_0 Sb0_0 3.211676 1_555
Mg2_1 Sb0_5 3.211674 1_555
Mg2_1 Sb0_1 3.211676 1_555
Mg2_1 Sb0_7 3.211676 1_555
Mg2_2 Sb0_6 3.211674 1_555
Mg2_2 Sb0_4 3.211676 1_565
Mg2_2 Sb0_2 3.211676 1_555
Mg2_3 Sb0_7 3.211674 1_555
Mg2_3 Sb0_3 3.211676 1_555
Mg2_3 Sb0_5 3.211676 1_565
Mg2_4 Sb0_0 3.211674 1_655
Mg2_4 Sb0_2 3.211676 1_655
Mg2_4 Sb0_4 3.211676 1_555
Mg2_5 Sb0_1 3.211674 1_655
Mg2_5 Sb0_3 3.211676 1_655
Mg2_5 Sb0_5 3.211676 1_555
Mg2_6 Sb0_2 3.211674 1_655
Mg2_6 Sb0_0 3.211676 1_665
Mg2_6 Sb0_6 3.211676 1_555
Mg2_7 Sb0_3 3.211674 1_655
Mg2_7 Sb0_1 3.211676 1_665
Mg2_7 Sb0_7 3.211676 1_555
