# generated using pymatgen
data_PrIn4Ni
_symmetry_space_group_name_H-M   'P 1'
_cell_length_a   8.73426725
_cell_length_b   8.73426725
_cell_length_c   7.25475300
_cell_angle_alpha   90.00000000
_cell_angle_beta   90.00000000
_cell_angle_gamma   150.02610099
_symmetry_Int_Tables_number   1
_chemical_formula_structural   PrIn4Ni
_chemical_formula_sum   'Pr2 In8 Ni2'
_cell_volume   276.50483834
_cell_formula_units_Z   2
loop_
 _symmetry_equiv_pos_site_id
 _symmetry_equiv_pos_as_xyz
  1  'x, y, z'
loop_
 _atom_site_type_symbol
 _atom_site_label
 _atom_site_symmetry_multiplicity
 _atom_site_fract_x
 _atom_site_fract_y
 _atom_site_fract_z
 _atom_site_occupancy
  Pr  Pr0  1  0.88138700  0.11861300  0.75000000  1
  Pr  Pr1  1  0.11861300  0.88138700  0.25000000  1
  In  In0  1  0.50000000  0.50000000  0.00000000  1
  In  In1  1  0.50000000  0.50000000  0.50000000  1
  In  In2  1  0.07535200  0.92464800  0.75000000  1
  In  In3  1  0.92464800  0.07535200  0.25000000  1
  In  In4  1  0.68892000  0.31108000  0.95178600  1
  In  In5  1  0.31108000  0.68892000  0.04821400  1
  In  In6  1  0.68892000  0.31108000  0.54821400  1
  In  In7  1  0.31108000  0.68892000  0.45178600  1
  Ni  Ni0  1  0.22636700  0.77363300  0.75000000  1
  Ni  Ni1  1  0.77363300  0.22636700  0.25000000  1
loop_
_geom_bond_atom_site_label_1
_geom_bond_atom_site_label_2
_geom_bond_distance
_geom_bond_site_symmetry_2
In0 In2 3.163514 1_654
In0 In3 3.163514 1_565
In0 In2 3.163514 1_544
In0 In3 3.163514 1_455
In0 In5 3.207032 1_555
In0 In4 3.207032 1_554
In0 Pr0 3.520956 1_564
In0 Pr1 3.520956 1_655
In0 Pr0 3.520956 1_454
In0 Pr1 3.520956 1_545
In1 In2 3.163514 1_655
In1 In3 3.163514 1_565
In1 In2 3.163514 1_545
In1 In3 3.163514 1_455
In1 In6 3.207032 1_555
In1 In7 3.207032 1_555
In1 Pr0 3.520956 1_565
In1 Pr1 3.520956 1_655
In1 Pr0 3.520956 1_455
In1 Pr1 3.520956 1_545
In2 Ni0 2.548278 1_555
In2 Pr0 3.273031 1_465
In2 Pr1 3.700103 1_555
In2 Pr1 3.700103 1_556
In3 Ni1 2.548278 1_555
In3 Pr1 3.273031 1_645
In3 Pr0 3.700103 1_554
In3 Pr0 3.700103 1_555
In4 Ni1 2.593067 1_556
In4 Ni0 2.764764 1_655
In4 Ni0 2.764764 1_545
In4 Pr1 3.345102 1_656
In4 Pr1 3.345102 1_546
In4 Pr0 3.562433 1_555
In5 Ni0 2.593067 1_554
In5 Ni1 2.764764 1_565
In5 Ni1 2.764764 1_455
In5 Pr0 3.345102 1_564
In5 Pr0 3.345102 1_454
In5 Pr1 3.562433 1_555
In6 Ni1 2.593067 1_555
In6 Ni0 2.764764 1_655
In6 Ni0 2.764764 1_545
In6 Pr1 3.345102 1_655
In6 Pr1 3.345102 1_545
In6 Pr0 3.562433 1_555
In7 Ni0 2.593067 1_555
In7 Ni1 2.764764 1_565
In7 Ni1 2.764764 1_455
In7 Pr0 3.345102 1_565
In7 Pr0 3.345102 1_455
In7 Pr1 3.562433 1_555
Ni0 Pr0 3.456057 1_565
Ni0 Pr0 3.456057 1_455
Ni1 Pr1 3.456057 1_655
Ni1 Pr1 3.456057 1_545
