# generated using pymatgen
data_Li32Ti13Cr3O48
_symmetry_space_group_name_H-M   'P 1'
_cell_length_a   5.09028200
_cell_length_b   8.84759283
_cell_length_c   19.64748235
_cell_angle_alpha   98.45499367
_cell_angle_beta   94.69302906
_cell_angle_gamma   89.95419623
_symmetry_Int_Tables_number   1
_chemical_formula_structural   Li32Ti13Cr3O48
_chemical_formula_sum   'Li32 Ti13 Cr3 O48'
_cell_volume   872.25067838
_cell_formula_units_Z   1
loop_
 _symmetry_equiv_pos_site_id
 _symmetry_equiv_pos_as_xyz
  1  'x, y, z'
loop_
 _atom_site_type_symbol
 _atom_site_label
 _atom_site_symmetry_multiplicity
 _atom_site_fract_x
 _atom_site_fract_y
 _atom_site_fract_z
 _atom_site_occupancy
  Li  Li0  1  0.98923100  0.16902000  0.25008500  1
  Li  Li1  1  0.87414700  0.37643900  0.37490400  1
  Li  Li2  1  0.75058900  0.24980600  0.99979300  1
  Li  Li3  1  0.74075400  0.91929100  0.99975400  1
  Li  Li4  1  0.99101800  0.17002000  0.74946200  1
  Li  Li5  1  0.76055900  0.58028900  0.49932300  1
  Li  Li6  1  0.87548700  0.37618500  0.87502800  1
  Li  Li7  1  0.75354200  0.24970100  0.50020600  1
  Li  Li8  1  0.74009500  0.91870500  0.49950300  1
  Li  Li9  1  0.62506200  0.12498800  0.12492700  1
  Li  Li10  1  0.76092700  0.58003800  0.99919200  1
  Li  Li11  1  0.51108800  0.33015300  0.24983100  1
  Li  Li12  1  0.62382300  0.12558500  0.62508300  1
  Li  Li13  1  0.49861700  0.00065300  0.24960500  1
  Li  Li14  1  0.49299800  0.66958500  0.25001600  1
  Li  Li15  1  0.50644200  0.32824100  0.74963900  1
  Li  Li16  1  0.37397700  0.87461100  0.37526500  1
  Li  Li17  1  0.50007600  0.99982500  0.75005300  1
  Li  Li18  1  0.24624100  0.75015800  0.99995300  1
  Li  Li19  1  0.49370100  0.67210200  0.75067500  1
  Li  Li20  1  0.23996800  0.42015500  0.00020300  1
  Li  Li21  1  0.37664500  0.87443500  0.87484800  1
  Li  Li22  1  0.26079600  0.08094800  0.50064100  1
  Li  Li23  1  0.24521200  0.75133400  0.49992100  1
  Li  Li24  1  0.12495200  0.62500100  0.12500300  1
  Li  Li25  1  0.24040100  0.41941400  0.50075300  1
  Li  Li26  1  0.01011700  0.82966200  0.25042000  1
  Li  Li27  1  0.26114900  0.08048400  0.00020600  1
  Li  Li28  1  0.12476500  0.62402300  0.62499300  1
  Li  Li29  1  0.99672200  0.50098900  0.25046600  1
  Li  Li30  1  0.00878300  0.83040400  0.75040700  1
  Li  Li31  1  0.99939200  0.49985200  0.75004500  1
  Ti  Ti0  1  0.88340900  0.04062700  0.37712500  1
  Ti  Ti1  1  0.87082800  0.03921400  0.87284100  1
  Ti  Ti2  1  0.62619000  0.79086700  0.12497200  1
  Ti  Ti3  1  0.62395800  0.45888500  0.12490300  1
  Ti  Ti4  1  0.62731500  0.79149400  0.62441200  1
  Ti  Ti5  1  0.62425400  0.45868900  0.62404800  1
  Ti  Ti6  1  0.37337600  0.54025500  0.37313000  1
  Ti  Ti7  1  0.37889800  0.20854700  0.37486600  1
  Ti  Ti8  1  0.37726500  0.54113500  0.87631300  1
  Ti  Ti9  1  0.37019500  0.20877300  0.87542000  1
  Ti  Ti10  1  0.12348300  0.95897100  0.12516800  1
  Ti  Ti11  1  0.12656200  0.29135900  0.12522500  1
  Ti  Ti12  1  0.12666100  0.96115700  0.62632400  1
  Cr  Cr0  1  0.86880100  0.70991400  0.37543700  1
  Cr  Cr1  1  0.87814300  0.70908000  0.87457800  1
  Cr  Cr2  1  0.12344500  0.29063700  0.62510300  1
  O  O0  1  0.96301900  0.10591200  0.06825700  1
  O  O1  1  0.92876300  0.78456600  0.06830800  1
  O  O2  1  0.92815000  0.42730100  0.06723400  1
  O  O3  1  0.96409300  0.11140100  0.56932900  1
  O  O4  1  0.82123400  0.96530000  0.18178800  1
  O  O5  1  0.82194500  0.32245000  0.18257400  1
  O  O6  1  0.92830200  0.78590200  0.56850300  1
  O  O7  1  0.92559900  0.42820800  0.56728600  1
  O  O8  1  0.78753700  0.64351800  0.18134000  1
  O  O9  1  0.71561400  0.85095200  0.31939900  1
  O  O10  1  0.82100400  0.96569300  0.68172700  1
  O  O11  1  0.83038100  0.32043200  0.68198300  1
  O  O12  1  0.67473900  0.53325100  0.31811900  1
  O  O13  1  0.67662900  0.17607300  0.31728800  1
  O  O14  1  0.78498400  0.64263000  0.68169500  1
  O  O15  1  0.70894600  0.85790100  0.81804400  1
  O  O16  1  0.46274000  0.60636100  0.06821600  1
  O  O17  1  0.58073700  0.71687900  0.43111600  1
  O  O18  1  0.57165300  0.07256800  0.43289400  1
  O  O19  1  0.68168100  0.53762000  0.81909400  1
  O  O20  1  0.67886900  0.17689700  0.81726300  1
  O  O21  1  0.42785800  0.92723500  0.06713000  1
  O  O22  1  0.42872400  0.28448400  0.06826700  1
  O  O23  1  0.53412500  0.39411400  0.43176700  1
  O  O24  1  0.46374000  0.60582400  0.56802300  1
  O  O25  1  0.57611400  0.71674500  0.93040200  1
  O  O26  1  0.57235400  0.07266100  0.93284400  1
  O  O27  1  0.32224900  0.82246700  0.18271300  1
  O  O28  1  0.32126400  0.46558900  0.18157800  1
  O  O29  1  0.42805400  0.92730200  0.56717500  1
  O  O30  1  0.42308500  0.28308500  0.56959700  1
  O  O31  1  0.53721500  0.39411600  0.93179500  1
  O  O32  1  0.28737100  0.14358300  0.18150800  1
  O  O33  1  0.21274800  0.35658900  0.31809700  1
  O  O34  1  0.32185200  0.82334700  0.68273300  1
  O  O35  1  0.31900800  0.46304400  0.68110800  1
  O  O36  1  0.17411300  0.67973800  0.31858300  1
  O  O37  1  0.17843700  0.03443400  0.31826300  1
  O  O38  1  0.28969900  0.14286500  0.68173800  1
  O  O39  1  0.21541000  0.35732400  0.81842500  1
  O  O40  1  0.06877700  0.57503400  0.43159400  1
  O  O41  1  0.07039800  0.21510000  0.43173900  1
  O  O42  1  0.16870200  0.67931400  0.81790200  1
  O  O43  1  0.17890100  0.03427200  0.81826000  1
  O  O44  1  0.04036300  0.89577400  0.43225500  1
  O  O45  1  0.07537500  0.57103700  0.93284700  1
  O  O46  1  0.07237600  0.21398900  0.93166000  1
  O  O47  1  0.03500900  0.88741700  0.93048000  1
loop_
_geom_bond_atom_site_label_1
_geom_bond_atom_site_label_2
_geom_bond_distance
_geom_bond_site_symmetry_2
Li0 O37 2.096649 1_655
Li0 O32 2.100972 1_655
Li0 O13 2.144458 1_555
Li0 O5 2.161039 1_555
Li0 O4 2.210002 1_545
Li0 O33 2.221776 1_655
Li1 O12 2.113666 1_555
Li1 O33 2.122245 1_655
Li1 O23 2.129067 1_555
Li1 O40 2.134521 1_655
Li1 O41 2.136927 1_655
Li1 O13 2.159044 1_555
Li2 O26 2.051963 1_555
Li2 O2 2.057480 1_556
Li2 O46 2.192854 1_655
Li2 O22 2.197015 1_556
Li2 O31 2.203795 1_555
Li2 O0 2.205196 1_556
Li3 O47 2.096565 1_655
Li3 O1 2.100066 1_556
Li3 O21 2.147454 1_556
Li3 O26 2.154681 1_565
Li3 O25 2.206336 1_555
Li3 O0 2.217684 1_566
Li4 O38 2.091938 1_655
Li4 O43 2.109100 1_655
Li4 O11 2.130029 1_555
Li4 O20 2.150650 1_555
Li4 O10 2.212408 1_545
Li4 O39 2.230764 1_655
Li5 O17 2.089955 1_555
Li5 O24 2.097437 1_555
Li5 O40 2.134890 1_655
Li5 O7 2.154597 1_555
Li5 O23 2.216596 1_555
Li5 O6 2.229665 1_555
Li6 O31 2.120343 1_555
Li6 O19 2.122016 1_555
Li6 O39 2.125658 1_655
Li6 O45 2.129696 1_655
Li6 O46 2.141638 1_655
Li6 O20 2.151091 1_555
Li7 O7 2.049306 1_555
Li7 O18 2.062728 1_555
Li7 O41 2.176657 1_655
Li7 O3 2.176866 1_555
Li7 O23 2.223798 1_555
Li7 O30 2.243116 1_555
Li8 O44 2.091450 1_655
Li8 O6 2.095319 1_555
Li8 O29 2.147595 1_555
Li8 O18 2.153939 1_565
Li8 O17 2.184127 1_555
Li8 O3 2.268968 1_565
Li9 O32 2.115681 1_555
Li9 O0 2.117857 1_555
Li9 O22 2.122996 1_555
Li9 O4 2.126202 1_545
Li9 O5 2.138835 1_555
Li9 O21 2.142528 1_545
Li10 O16 2.107286 1_556
Li10 O25 2.108436 1_555
Li10 O45 2.139669 1_655
Li10 O2 2.163585 1_556
Li10 O31 2.207222 1_555
Li10 O1 2.222279 1_556
Li11 O33 2.097715 1_555
Li11 O28 2.103917 1_555
Li11 O5 2.137792 1_555
Li11 O13 2.161430 1_555
Li11 O12 2.198534 1_555
Li11 O32 2.219200 1_555
Li12 O38 2.101055 1_555
Li12 O30 2.106312 1_555
Li12 O3 2.117894 1_555
Li12 O10 2.127247 1_545
Li12 O11 2.138003 1_555
Li12 O29 2.143712 1_545
Li13 O13 2.048520 1_555
Li13 O27 2.053915 1_545
Li13 O4 2.191974 1_545
Li13 O32 2.192138 1_555
Li13 O37 2.192191 1_555
Li13 O9 2.266864 1_545
Li14 O8 2.088219 1_555
Li14 O12 2.090809 1_555
Li14 O27 2.160941 1_555
Li14 O36 2.186268 1_555
Li14 O9 2.196411 1_555
Li14 O28 2.219528 1_555
Li15 O39 2.076555 1_555
Li15 O35 2.099035 1_555
Li15 O20 2.158499 1_555
Li15 O38 2.192180 1_555
Li15 O11 2.195955 1_555
Li15 O19 2.269295 1_555
Li16 O44 2.102770 1_555
Li16 O36 2.121497 1_555
Li16 O9 2.125328 1_555
Li16 O17 2.125646 1_555
Li16 O37 2.127341 1_565
Li16 O18 2.143664 1_565
Li17 O34 2.051603 1_555
Li17 O20 2.055171 1_565
Li17 O15 2.179537 1_555
Li17 O43 2.190697 1_565
Li17 O10 2.191089 1_555
Li17 O38 2.193654 1_565
Li18 O45 2.050974 1_555
Li18 O21 2.060542 1_556
Li18 O47 2.176985 1_555
Li18 O1 2.177635 1_456
Li18 O16 2.211247 1_556
Li18 O25 2.242797 1_555
Li19 O14 2.080266 1_555
Li19 O19 2.096761 1_555
Li19 O34 2.161048 1_555
Li19 O15 2.186437 1_555
Li19 O42 2.195024 1_555
Li19 O35 2.267262 1_555
Li20 O31 2.095251 1_554
Li20 O22 2.100553 1_555
Li20 O45 2.138137 1_554
Li20 O2 2.138974 1_455
Li20 O16 2.212096 1_555
Li20 O46 2.227270 1_554
Li21 O15 2.094917 1_555
Li21 O25 2.105474 1_555
Li21 O47 2.122712 1_555
Li21 O43 2.127476 1_565
Li21 O42 2.143278 1_555
Li21 O26 2.143855 1_565
Li22 O3 2.097815 1_455
Li22 O41 2.106349 1_555
Li22 O18 2.143941 1_555
Li22 O29 2.149479 1_545
Li22 O30 2.196162 1_555
Li22 O44 2.203954 1_545
Li23 O40 2.056945 1_555
Li23 O29 2.057253 1_555
Li23 O6 2.178348 1_455
Li23 O44 2.181415 1_555
Li23 O24 2.223926 1_555
Li23 O17 2.256808 1_555
Li24 O8 2.111698 1_455
Li24 O16 2.118455 1_555
Li24 O28 2.121414 1_555
Li24 O1 2.123526 1_455
Li24 O27 2.140219 1_555
Li24 O2 2.141107 1_455
Li25 O23 2.089141 1_555
Li25 O30 2.102695 1_555
Li25 O7 2.143661 1_455
Li25 O40 2.204378 1_555
Li25 O24 2.208062 1_555
Li25 O41 2.223711 1_555
Li26 O9 2.092000 1_455
Li26 O4 2.108261 1_455
Li26 O36 2.141869 1_555
Li26 O27 2.149158 1_555
Li26 O37 2.213298 1_565
Li26 O8 2.220856 1_455
Li27 O0 2.093870 1_455
Li27 O46 2.094408 1_554
Li27 O26 2.140520 1_554
Li27 O21 2.151119 1_545
Li27 O22 2.208971 1_555
Li27 O47 2.275222 1_544
Li28 O35 2.121998 1_555
Li28 O24 2.125715 1_555
Li28 O14 2.126164 1_455
Li28 O7 2.133524 1_455
Li28 O6 2.137007 1_455
Li28 O34 2.152156 1_555
Li29 O5 2.062646 1_555
Li29 O36 2.071169 1_655
Li29 O12 2.186027 1_555
Li29 O8 2.198514 1_555
Li29 O33 2.205666 1_655
Li29 O28 2.213487 1_655
Li30 O15 2.095431 1_455
Li30 O10 2.104602 1_455
Li30 O42 2.133333 1_555
Li30 O34 2.152566 1_555
Li30 O43 2.210675 1_565
Li30 O14 2.229848 1_455
Li31 O42 2.057433 1_655
Li31 O11 2.058643 1_555
Li31 O19 2.189163 1_555
Li31 O35 2.194882 1_655
Li31 O14 2.201623 1_555
Li31 O39 2.204206 1_655
Cr0 O17 1.895563 1_555
Cr0 O9 1.907705 1_555
Cr0 O40 1.969553 1_655
Cr0 O36 1.982439 1_655
Cr0 O12 1.997485 1_555
Cr0 O44 2.003970 1_655
Cr1 O42 1.918200 1_655
Cr1 O47 1.918967 1_655
Cr1 O25 1.955785 1_555
Cr1 O19 1.956401 1_555
Cr1 O15 1.995240 1_555
Cr1 O45 2.007843 1_655
Cr2 O3 1.928511 1_455
Cr2 O11 1.931153 1_455
Cr2 O30 1.941844 1_555
Cr2 O35 1.964220 1_555
Cr2 O38 1.983856 1_555
Cr2 O7 2.000894 1_455
O0 Ti10 1.970780 1_645
O0 Ti11 1.986849 1_655
O1 Ti2 1.968987 1_555
O1 Ti10 1.981376 1_655
O2 Ti3 1.988163 1_555
O2 Ti11 1.994392 1_655
O3 Ti12 1.997530 1_645
O4 Ti10 1.967067 1_655
O4 Ti2 1.981947 1_555
O5 Ti11 1.985862 1_655
O5 Ti3 1.992517 1_555
O6 Ti4 1.953390 1_555
O6 Ti12 2.002797 1_655
O7 Ti5 1.964748 1_555
O8 Ti2 1.968422 1_555
O8 Ti3 1.977324 1_555
O9 Ti0 2.028839 1_565
O10 Ti12 1.967602 1_655
O10 Ti4 1.981403 1_555
O11 Ti5 2.026049 1_555
O12 Ti6 1.943377 1_555
O13 Ti7 1.960465 1_555
O13 Ti0 2.033698 1_555
O14 Ti5 1.977173 1_555
O14 Ti4 1.982911 1_555
O15 Ti1 1.939227 1_565
O16 Ti3 1.972944 1_555
O16 Ti2 1.978789 1_555
O17 Ti6 2.033823 1_555
O18 Ti7 1.982014 1_555
O18 Ti0 1.997888 1_555
O19 Ti8 1.985109 1_555
O20 Ti1 1.961059 1_555
O20 Ti9 2.013023 1_555
O21 Ti10 1.993458 1_555
O21 Ti2 1.994987 1_555
O22 Ti11 1.970597 1_555
O22 Ti3 1.980751 1_555
O23 Ti7 1.971680 1_555
O23 Ti6 1.987648 1_555
O24 Ti5 1.961226 1_555
O24 Ti4 1.983772 1_555
O25 Ti8 1.977097 1_555
O26 Ti1 1.993866 1_555
O26 Ti9 1.997420 1_555
O27 Ti2 1.987985 1_555
O27 Ti10 1.993237 1_555
O28 Ti3 1.969438 1_555
O28 Ti11 1.976206 1_555
O29 Ti4 1.986447 1_555
O29 Ti12 1.995647 1_555
O30 Ti5 1.985324 1_555
O31 Ti8 1.952745 1_555
O31 Ti9 1.988148 1_555
O32 Ti11 1.969181 1_555
O32 Ti10 1.977007 1_545
O33 Ti6 1.954242 1_555
O33 Ti7 1.987066 1_555
O34 Ti12 1.979248 1_555
O34 Ti4 2.001498 1_555
O35 Ti5 1.986156 1_555
O36 Ti6 1.977221 1_555
O37 Ti0 1.965002 1_455
O37 Ti7 1.991010 1_555
O38 Ti12 1.948925 1_545
O39 Ti9 1.972045 1_555
O39 Ti8 1.980418 1_555
O40 Ti6 2.001223 1_555
O41 Ti0 1.946382 1_455
O41 Ti7 1.996475 1_555
O42 Ti8 2.037134 1_555
O43 Ti1 1.967835 1_455
O43 Ti9 1.976528 1_555
O44 Ti0 1.928478 1_465
O45 Ti8 1.964043 1_555
O46 Ti9 1.944300 1_555
O46 Ti1 2.015503 1_455
O47 Ti1 2.018725 1_465
