# generated using pymatgen
data_CuP6Pd11O34
_symmetry_space_group_name_H-M   'P 1'
_cell_length_a   14.71580939
_cell_length_b   15.63310957
_cell_length_c   20.26330811
_cell_angle_alpha   102.19321171
_cell_angle_beta   111.20080666
_cell_angle_gamma   96.81095352
_symmetry_Int_Tables_number   1
_chemical_formula_structural   CuP6Pd11O34
_chemical_formula_sum   'Cu2 P12 Pd22 O68'
_cell_volume   4149.72888005
_cell_formula_units_Z   2
loop_
 _symmetry_equiv_pos_site_id
 _symmetry_equiv_pos_as_xyz
  1  'x, y, z'
loop_
 _atom_site_type_symbol
 _atom_site_label
 _atom_site_symmetry_multiplicity
 _atom_site_fract_x
 _atom_site_fract_y
 _atom_site_fract_z
 _atom_site_occupancy
  Cu  Cu0  1  0.38434723  0.38130101  0.30650643  1
  Cu  Cu1  1  0.61565277  0.61869899  0.69349357  1
  P  P0  1  0.11463345  0.56585913  0.26934626  1
  P  P1  1  0.88536655  0.43414087  0.73065374  1
  P  P2  1  0.25957235  0.42228196  0.03692139  1
  P  P3  1  0.74042765  0.57771804  0.96307861  1
  P  P4  1  0.67729803  0.54089385  0.26873822  1
  P  P5  1  0.32270197  0.45910615  0.73126178  1
  P  P6  1  0.64504725  0.18909881  0.33431984  1
  P  P7  1  0.35495275  0.81090119  0.66568016  1
  P  P8  1  0.22696557  0.06423251  0.10852661  1
  P  P9  1  0.77303443  0.93576749  0.89147339  1
  P  P10  1  0.09241834  0.22137737  0.34518721  1
  P  P11  1  0.90758166  0.77862263  0.65481279  1
  Pd  Pd0  1  0.26667437  0.26837238  0.11488891  1
  Pd  Pd1  1  0.73332563  0.73162762  0.88511109  1
  Pd  Pd2  1  0.17454940  0.38826278  0.30363612  1
  Pd  Pd3  1  0.82545060  0.61173722  0.69636388  1
  Pd  Pd4  1  0.23776549  0.47456832  0.18840805  1
  Pd  Pd5  1  0.76223451  0.52543168  0.81159195  1
  Pd  Pd6  1  0.44719048  0.46598311  0.18775363  1
  Pd  Pd7  1  0.55280952  0.53401689  0.81224637  1
  Pd  Pd8  1  0.58687023  0.36694909  0.29830496  1
  Pd  Pd9  1  0.41312977  0.63305091  0.70169504  1
  Pd  Pd10  1  0.42069630  0.18021788  0.24213110  1
  Pd  Pd11  1  0.57930370  0.81978212  0.75786890  1
  Pd  Pd12  1  0.21584407  0.19006666  0.24807440  1
  Pd  Pd13  1  0.78415593  0.80993334  0.75192560  1
  Pd  Pd14  1  0.34051220  0.58206642  0.38284153  1
  Pd  Pd15  1  0.65948780  0.41793358  0.61715847  1
  Pd  Pd16  1  0.56827621  0.57200645  0.38170393  1
  Pd  Pd17  1  0.43172379  0.42799355  0.61829607  1
  Pd  Pd18  1  0.55037995  0.30467387  0.43451353  1
  Pd  Pd19  1  0.44962005  0.69532613  0.56548647  1
  Pd  Pd20  1  0.32497404  0.31594583  0.43807952  1
  Pd  Pd21  1  0.67502596  0.68405417  0.56192048  1
  O  O0  1  0.03134726  0.61536044  0.25755270  1
  O  O1  1  0.96865274  0.38463956  0.74244730  1
  O  O2  1  0.22601851  0.43829667  0.96218189  1
  O  O3  1  0.77398149  0.56170333  0.03781811  1
  O  O4  1  0.76537202  0.58420562  0.25767611  1
  O  O5  1  0.23462798  0.41579438  0.74232389  1
  O  O6  1  0.72361253  0.13491079  0.34039938  1
  O  O7  1  0.27638747  0.86508921  0.65960062  1
  O  O8  1  0.63983681  0.22702298  0.41068682  1
  O  O9  1  0.36016319  0.77297702  0.58931318  1
  O  O10  1  0.18343083  0.97335821  0.05427402  1
  O  O11  1  0.81656917  0.02664179  0.94572598  1
  O  O12  1  0.00399626  0.17735263  0.35548268  1
  O  O13  1  0.99600374  0.82264737  0.64451732  1
  O  O14  1  0.45416234  0.37359256  0.44667330  1
  O  O15  1  0.54583766  0.62640744  0.55332670  1
  O  O16  1  0.23663318  0.31844348  0.02947612  1
  O  O17  1  0.76336682  0.68155652  0.97052388  1
  O  O18  1  0.21162509  0.13918157  0.06630970  1
  O  O19  1  0.78837491  0.86081843  0.93369030  1
  O  O20  1  0.18692943  0.25477024  0.41940208  1
  O  O21  1  0.81307057  0.74522976  0.58059792  1
  O  O22  1  0.08201559  0.47003034  0.27707257  1
  O  O23  1  0.91798441  0.52996966  0.72292743  1
  O  O24  1  0.07105254  0.30465431  0.31429633  1
  O  O25  1  0.92894746  0.69534569  0.68570367  1
  O  O26  1  0.14674342  0.55378889  0.20219282  1
  O  O27  1  0.85325658  0.44621111  0.79780718  1
  O  O28  1  0.20284774  0.46851814  0.08247397  1
  O  O29  1  0.79715226  0.53148186  0.91752603  1
  O  O30  1  0.37524790  0.45994820  0.08150509  1
  O  O31  1  0.62475210  0.54005180  0.91849491  1
  O  O32  1  0.57698136  0.53813367  0.20298061  1
  O  O33  1  0.42301864  0.46186633  0.79701939  1
  O  O34  1  0.68160992  0.44182125  0.27272421  1
  O  O35  1  0.31839008  0.55817875  0.72727579  1
  O  O36  1  0.66429454  0.27057063  0.30320305  1
  O  O37  1  0.33570546  0.72942937  0.69679695  1
  O  O38  1  0.53921748  0.12848185  0.28074967  1
  O  O39  1  0.46078252  0.87151815  0.71925033  1
  O  O40  1  0.34232668  0.07617414  0.15414868  1
  O  O41  1  0.65767332  0.92382586  0.84585132  1
  O  O42  1  0.17466249  0.07968133  0.16433758  1
  O  O43  1  0.82533751  0.92031867  0.83566242  1
  O  O44  1  0.11842193  0.15309968  0.28874430  1
  O  O45  1  0.88157807  0.84690032  0.71125570  1
  O  O46  1  0.20935337  0.61741484  0.34042392  1
  O  O47  1  0.79064663  0.38258516  0.65957608  1
  O  O48  1  0.46415667  0.54181725  0.41481168  1
  O  O49  1  0.53584333  0.45818275  0.58518832  1
  O  O50  1  0.67231301  0.59413397  0.34164973  1
  O  O51  1  0.32768699  0.40586603  0.65835027  1
  O  O52  1  0.32639201  0.39042493  0.18279668  1
  O  O53  1  0.67360799  0.60957507  0.81720332  1
  O  O54  1  0.31049734  0.24337809  0.21196102  1
  O  O55  1  0.68950266  0.75662191  0.78803898  1
  O  O56  1  0.28829607  0.46805777  0.29561288  1
  O  O57  1  0.71170393  0.53194223  0.70438712  1
  O  O58  1  0.27630216  0.30970541  0.32826678  1
  O  O59  1  0.72369784  0.69029459  0.67173322  1
  O  O60  1  0.49869955  0.45867440  0.29485884  1
  O  O61  1  0.50130045  0.54132560  0.70514116  1
  O  O62  1  0.48398089  0.29829476  0.32442703  1
  O  O63  1  0.51601911  0.70170524  0.67557297  1
  O  O64  1  0.38446900  0.68766933  0.46343043  1
  O  O65  1  0.61553100  0.31233067  0.53656957  1
  O  O66  1  0.36663154  0.32099115  0.53976208  1
  O  O67  1  0.63336846  0.67900885  0.46023792  1
loop_
_geom_bond_atom_site_label_1
_geom_bond_atom_site_label_2
_geom_bond_distance
_geom_bond_site_symmetry_2
Cu0 O62 2.056866 1_555
Cu0 O56 2.059518 1_555
Cu0 O58 2.066065 1_555
Cu0 O60 2.067763 1_555
Cu0 O52 2.380166 1_555
Cu0 O54 2.386172 1_555
Cu1 O63 2.056866 1_555
Cu1 O57 2.059518 1_555
Cu1 O59 2.066065 1_555
Cu1 O61 2.067763 1_555
Cu1 O53 2.380166 1_555
Cu1 O55 2.386172 1_555
O0 P0 1.499787 1_555
O1 P1 1.499787 1_555
O2 P2 1.499576 1_556
O3 P3 1.499576 1_554
O4 P4 1.501540 1_555
O5 P5 1.501540 1_555
O6 P6 1.497618 1_555
O7 P7 1.497618 1_555
O8 P6 1.568767 1_555
O8 Pd18 2.007702 1_555
O9 P7 1.568767 1_555
O9 Pd19 2.007702 1_555
O10 P8 1.500742 1_565
O11 P9 1.500742 1_545
O12 P10 1.501635 1_555
O13 P11 1.501635 1_555
O14 Pd18 1.930905 1_555
O14 Pd20 1.935096 1_555
O15 Pd19 1.930905 1_555
O15 Pd21 1.935096 1_555
O16 P2 1.581649 1_555
O16 Pd0 1.976006 1_555
O17 P3 1.581649 1_555
O17 Pd1 1.976006 1_555
O18 P8 1.581795 1_555
O18 Pd0 1.974743 1_555
O19 P9 1.581795 1_555
O19 Pd1 1.974743 1_555
O20 P10 1.565822 1_555
O20 Pd20 2.003705 1_555
O21 P11 1.565822 1_555
O21 Pd21 2.003705 1_555
O22 P0 1.575465 1_555
O22 Pd2 1.987803 1_555
O23 P1 1.575465 1_555
O23 Pd3 1.987803 1_555
O24 P10 1.576240 1_555
O24 Pd2 1.989916 1_555
O25 P11 1.576240 1_555
O25 Pd3 1.989916 1_555
O26 P0 1.577425 1_555
O26 Pd4 1.980890 1_555
O27 P1 1.577425 1_555
O27 Pd5 1.980890 1_555
O28 P2 1.577926 1_555
O28 Pd4 1.996422 1_555
O29 P3 1.577926 1_555
O29 Pd5 1.996422 1_555
O30 P2 1.576652 1_555
O30 Pd6 2.001712 1_555
O31 P3 1.576652 1_555
O31 Pd7 2.001712 1_555
O32 P4 1.579401 1_555
O32 Pd6 1.982732 1_555
O33 P5 1.579401 1_555
O33 Pd7 1.982732 1_555
O34 P4 1.575378 1_555
O34 Pd8 1.993579 1_555
O35 P5 1.575378 1_555
O35 Pd9 1.993579 1_555
O36 P6 1.575702 1_555
O36 Pd8 1.991652 1_555
O37 P7 1.575702 1_555
O37 Pd9 1.991652 1_555
O38 P6 1.579380 1_555
O38 Pd10 1.980733 1_555
O39 P7 1.579380 1_555
O39 Pd11 1.980733 1_555
O40 P8 1.577420 1_555
O40 Pd10 1.999275 1_555
O41 P9 1.577420 1_555
O41 Pd11 1.999275 1_555
O42 P8 1.577338 1_555
O42 Pd12 1.998901 1_555
O43 P9 1.577338 1_555
O43 Pd13 1.998901 1_555
O44 P10 1.578479 1_555
O44 Pd12 1.981835 1_555
O45 P11 1.578479 1_555
O45 Pd13 1.981835 1_555
O46 P0 1.567813 1_555
O46 Pd14 2.005791 1_555
O47 P1 1.567813 1_555
O47 Pd15 2.005791 1_555
O48 Pd14 1.928073 1_555
O48 Pd16 1.930323 1_555
O49 Pd15 1.928073 1_555
O49 Pd17 1.930323 1_555
O50 P4 1.566636 1_555
O50 Pd16 2.003508 1_555
O51 P5 1.566636 1_555
O51 Pd17 2.003508 1_555
O52 Pd6 1.971819 1_555
O52 Pd4 1.973633 1_555
O52 Pd0 1.981169 1_555
O53 Pd7 1.971819 1_555
O53 Pd5 1.973633 1_555
O53 Pd1 1.981169 1_555
O54 Pd12 1.972249 1_555
O54 Pd10 1.973882 1_555
O54 Pd0 1.976009 1_555
O55 Pd13 1.972249 1_555
O55 Pd11 1.973882 1_555
O55 Pd1 1.976009 1_555
O56 Pd2 2.042458 1_555
O56 Pd4 2.055555 1_555
O56 Pd14 2.062365 1_555
O57 Pd3 2.042458 1_555
O57 Pd5 2.055555 1_555
O57 Pd15 2.062365 1_555
O58 Pd2 2.038137 1_555
O58 Pd12 2.050859 1_555
O58 Pd20 2.052535 1_555
O59 Pd3 2.038137 1_555
O59 Pd13 2.050859 1_555
O59 Pd21 2.052535 1_555
O60 Pd8 2.040263 1_555
O60 Pd6 2.057494 1_555
O60 Pd16 2.057586 1_555
O61 Pd9 2.040263 1_555
O61 Pd7 2.057494 1_555
O61 Pd17 2.057586 1_555
O62 Pd8 2.039316 1_555
O62 Pd10 2.055295 1_555
O62 Pd18 2.060877 1_555
O63 Pd9 2.039316 1_555
O63 Pd11 2.055295 1_555
O63 Pd19 2.060877 1_555
O64 Pd19 1.909008 1_555
O64 Pd14 1.911669 1_555
O65 Pd18 1.909008 1_555
O65 Pd15 1.911669 1_555
O66 Pd20 1.906224 1_555
O66 Pd17 1.908171 1_555
O67 Pd21 1.906224 1_555
O67 Pd16 1.908171 1_555
