# generated using pymatgen
data_La2MnNiO6
_symmetry_space_group_name_H-M   'P 1'
_cell_length_a   5.54253000
_cell_length_b   5.54475223
_cell_length_c   7.82138389
_cell_angle_alpha   89.85683163
_cell_angle_beta   89.99967341
_cell_angle_gamma   89.99995848
_symmetry_Int_Tables_number   1
_chemical_formula_structural   La2MnNiO6
_chemical_formula_sum   'La4 Mn2 Ni2 O12'
_cell_volume   240.36567157
_cell_formula_units_Z   2
loop_
 _symmetry_equiv_pos_site_id
 _symmetry_equiv_pos_as_xyz
  1  'x, y, z'
loop_
 _atom_site_type_symbol
 _atom_site_label
 _atom_site_symmetry_multiplicity
 _atom_site_fract_x
 _atom_site_fract_y
 _atom_site_fract_z
 _atom_site_occupancy
  La  La0  1  0.46849400  0.50606800  0.75003600  1
  La  La1  1  0.03150500  0.00606400  0.25005300  1
  La  La2  1  0.53150600  0.49393200  0.24996400  1
  La  La3  1  0.96849500  0.99393600  0.74994700  1
  Mn  Mn0  1  0.50000000  0.00000000  0.50000000  1
  Mn  Mn1  1  0.00000000  0.50000000  0.00000000  1
  Ni  Ni0  1  0.00000000  0.50000000  0.50000000  1
  Ni  Ni1  1  0.50000000  0.00000000  0.00000000  1
  O  O0  1  0.29034900  0.27410700  0.46083400  1
  O  O1  1  0.20965400  0.77411100  0.96083200  1
  O  O2  1  0.70965100  0.72589300  0.53916600  1
  O  O3  1  0.79034600  0.22588900  0.03916800  1
  O  O4  1  0.72360200  0.70767200  0.96080800  1
  O  O5  1  0.77639400  0.20766900  0.46080900  1
  O  O6  1  0.27639800  0.29232800  0.03919200  1
  O  O7  1  0.22360600  0.79233100  0.53919100  1
  O  O8  1  0.51399100  0.07339500  0.74189300  1
  O  O9  1  0.98600800  0.57339500  0.24189400  1
  O  O10  1  0.48600900  0.92660500  0.25810700  1
  O  O11  1  0.01399200  0.42660500  0.75810600  1
loop_
_geom_bond_atom_site_label_1
_geom_bond_atom_site_label_2
_geom_bond_distance
_geom_bond_site_symmetry_2
La0 O8 2.413280 1_555
La0 O4 2.444524 1_555
La0 O2 2.445877 1_555
La0 O11 2.558084 1_555
La0 O1 2.645284 1_555
La0 O7 2.658593 1_555
La0 O6 2.763972 1_556
La0 O0 2.785706 1_555
La1 O9 2.413262 1_445
La1 O5 2.444440 1_455
La1 O3 2.445971 1_455
La1 O10 2.558088 1_545
La1 O0 2.645234 1_555
La1 O6 2.658680 1_555
La1 O7 2.763860 1_545
La1 O1 2.785805 1_544
La2 O10 2.413280 1_555
La2 O6 2.444524 1_555
La2 O0 2.445877 1_555
La2 O9 2.558084 1_555
La2 O3 2.645284 1_555
La2 O5 2.658593 1_555
La2 O4 2.763972 1_554
La2 O2 2.785706 1_555
La3 O11 2.413262 1_665
La3 O7 2.444440 1_655
La3 O1 2.445971 1_655
La3 O8 2.558088 1_565
La3 O2 2.645234 1_555
La3 O4 2.658680 1_555
La3 O5 2.763860 1_565
La3 O3 2.785805 1_566
Mn0 O0 1.936934 1_555
Mn0 O2 1.936934 1_545
Mn0 O8 1.937758 1_555
Mn0 O10 1.937758 1_545
Mn0 O5 1.940327 1_555
Mn0 O7 1.940327 1_545
Mn1 O1 1.936963 1_554
Mn1 O3 1.936963 1_455
Mn1 O9 1.937765 1_455
Mn1 O11 1.937765 1_554
Mn1 O4 1.940357 1_454
Mn1 O6 1.940357 1_555
Ni0 O11 2.059820 1_555
Ni0 O9 2.059820 1_455
Ni0 O0 2.062596 1_555
Ni0 O2 2.062596 1_455
Ni0 O7 2.063915 1_555
Ni0 O5 2.063915 1_455
Ni1 O10 2.059827 1_545
Ni1 O8 2.059827 1_554
Ni1 O1 2.062576 1_544
Ni1 O3 2.062576 1_555
Ni1 O4 2.063887 1_544
Ni1 O6 2.063887 1_555
