# generated using pymatgen
data_Ba4SiAs4
_symmetry_space_group_name_H-M   'P 1'
_cell_length_a   13.44389665
_cell_length_b   13.44389665
_cell_length_c   13.44389665
_cell_angle_alpha   90.00000000
_cell_angle_beta   90.00000000
_cell_angle_gamma   90.00000000
_symmetry_Int_Tables_number   1
_chemical_formula_structural   Ba4SiAs4
_chemical_formula_sum   'Ba32 Si8 As32'
_cell_volume   2429.82779403
_cell_formula_units_Z   8
loop_
 _symmetry_equiv_pos_site_id
 _symmetry_equiv_pos_as_xyz
  1  'x, y, z'
loop_
 _atom_site_type_symbol
 _atom_site_label
 _atom_site_symmetry_multiplicity
 _atom_site_fract_x
 _atom_site_fract_y
 _atom_site_fract_z
 _atom_site_occupancy
  Ba  Ba0  1  0.14483378  0.14483378  0.14483378  1
  Ba  Ba1  1  0.35516622  0.64483378  0.35516622  1
  Ba  Ba2  1  0.64483378  0.35516622  0.35516622  1
  Ba  Ba3  1  0.35516622  0.35516622  0.64483378  1
  Ba  Ba4  1  0.14483378  0.85516622  0.85516622  1
  Ba  Ba5  1  0.85516622  0.85516622  0.14483378  1
  Ba  Ba6  1  0.85516622  0.14483378  0.85516622  1
  Ba  Ba7  1  0.64483378  0.64483378  0.64483378  1
  Ba  Ba8  1  0.90486695  0.86788303  0.64482882  1
  Ba  Ba9  1  0.90486695  0.13211697  0.35517118  1
  Ba  Ba10  1  0.86788303  0.64482882  0.90486695  1
  Ba  Ba11  1  0.13211697  0.64482882  0.09513305  1
  Ba  Ba12  1  0.64482882  0.90486695  0.86788303  1
  Ba  Ba13  1  0.35517118  0.09513305  0.86788303  1
  Ba  Ba14  1  0.59513305  0.85517118  0.36788303  1
  Ba  Ba15  1  0.59513305  0.14482882  0.63211697  1
  Ba  Ba16  1  0.40486695  0.85517118  0.63211697  1
  Ba  Ba17  1  0.14482882  0.63211697  0.59513305  1
  Ba  Ba18  1  0.63211697  0.40486695  0.85517118  1
  Ba  Ba19  1  0.63211697  0.59513305  0.14482882  1
  Ba  Ba20  1  0.85517118  0.36788303  0.59513305  1
  Ba  Ba21  1  0.36788303  0.59513305  0.85517118  1
  Ba  Ba22  1  0.85517118  0.63211697  0.40486695  1
  Ba  Ba23  1  0.14482882  0.36788303  0.40486695  1
  Ba  Ba24  1  0.36788303  0.40486695  0.14482882  1
  Ba  Ba25  1  0.35517118  0.90486695  0.13211697  1
  Ba  Ba26  1  0.64482882  0.09513305  0.13211697  1
  Ba  Ba27  1  0.86788303  0.35517118  0.09513305  1
  Ba  Ba28  1  0.13211697  0.35517118  0.90486695  1
  Ba  Ba29  1  0.09513305  0.13211697  0.64482882  1
  Ba  Ba30  1  0.09513305  0.86788303  0.35517118  1
  Ba  Ba31  1  0.40486695  0.14482882  0.36788303  1
  Si  Si0  1  -0.00000000  -0.00000000  -0.00000000  1
  Si  Si1  1  0.75000000  -0.00000000  0.50000000  1
  Si  Si2  1  0.50000000  0.75000000  -0.00000000  1
  Si  Si3  1  0.50000000  0.25000000  -0.00000000  1
  Si  Si4  1  -0.00000000  0.50000000  0.25000000  1
  Si  Si5  1  -0.00000000  0.50000000  0.75000000  1
  Si  Si6  1  0.25000000  -0.00000000  0.50000000  1
  Si  Si7  1  0.50000000  0.50000000  0.50000000  1
  As  As0  1  0.60219335  0.84766804  0.11111195  1
  As  As1  1  0.65233196  0.10219335  0.38888805  1
  As  As2  1  0.89780665  0.61111195  0.65233196  1
  As  As3  1  0.10219335  0.61111195  0.34766804  1
  As  As4  1  0.61111195  0.65233196  0.89780665  1
  As  As5  1  0.38888805  0.34766804  0.89780665  1
  As  As6  1  0.84766804  0.88888805  0.39780665  1
  As  As7  1  0.84766804  0.11111195  0.60219335  1
  As  As8  1  0.15233196  0.88888805  0.60219335  1
  As  As9  1  0.39663842  0.39663842  0.39663842  1
  As  As10  1  0.60219335  0.15233196  0.88888805  1
  As  As11  1  0.65233196  0.89780665  0.61111195  1
  As  As12  1  0.88888805  0.39780665  0.84766804  1
  As  As13  1  0.39780665  0.84766804  0.88888805  1
  As  As14  1  0.88888805  0.60219335  0.15233196  1
  As  As15  1  0.11111195  0.39780665  0.15233196  1
  As  As16  1  0.39780665  0.15233196  0.11111195  1
  As  As17  1  0.38888805  0.65233196  0.10219335  1
  As  As18  1  0.61111195  0.34766804  0.10219335  1
  As  As19  1  0.89780665  0.38888805  0.34766804  1
  As  As20  1  0.10219335  0.38888805  0.65233196  1
  As  As21  1  0.34766804  0.10219335  0.61111195  1
  As  As22  1  0.34766804  0.89780665  0.38888805  1
  As  As23  1  0.15233196  0.11111195  0.39780665  1
  As  As24  1  0.10336158  0.89663842  0.10336158  1
  As  As25  1  0.10336158  0.10336158  0.89663842  1
  As  As26  1  0.89663842  0.10336158  0.10336158  1
  As  As27  1  0.60336158  0.60336158  0.39663842  1
  As  As28  1  0.39663842  0.60336158  0.60336158  1
  As  As29  1  0.60336158  0.39663842  0.60336158  1
  As  As30  1  0.89663842  0.89663842  0.89663842  1
  As  As31  1  0.11111195  0.60219335  0.84766804  1
loop_
_geom_bond_atom_site_label_1
_geom_bond_atom_site_label_2
_geom_bond_distance
_geom_bond_site_symmetry_2
Ba0 Si0 3.372529 1_555
Ba1 Si7 3.372529 1_555
Ba2 Si7 3.372529 1_555
Ba3 Si7 3.372529 1_555
Ba4 Si0 3.372529 1_566
Ba5 Si0 3.372529 1_665
Ba6 Si0 3.372529 1_656
Ba7 Si7 3.372529 1_555
Ba8 Si1 3.358662 1_565
Ba9 Si1 3.358662 1_555
Ba10 Si5 3.358662 1_655
Ba11 Si4 3.358662 1_555
Ba12 Si2 3.358662 1_556
Ba13 Si3 3.358662 1_556
Ba14 Si1 3.358662 1_565
Ba15 Si1 3.358662 1_555
Ba16 Si6 3.358662 1_565
Ba17 Si5 3.358662 1_555
Ba18 Si3 3.358662 1_556
Ba19 Si2 3.358662 1_555
Ba20 Si5 3.358662 1_655
Ba21 Si2 3.358662 1_556
Ba22 Si4 3.358662 1_655
Ba23 Si4 3.358662 1_555
Ba24 Si3 3.358662 1_555
Ba25 Si2 3.358662 1_555
Ba26 Si3 3.358662 1_555
Ba27 Si4 3.358662 1_655
Ba28 Si5 3.358662 1_555
Ba29 Si6 3.358662 1_555
Ba30 Si6 3.358662 1_565
Ba31 Si6 3.358662 1_555
As0 Si2 2.417226 1_555
As0 Ba26 3.387700 1_565
As0 Ba12 3.407698 1_554
As0 Ba25 3.420484 1_555
As0 Ba5 3.432505 1_555
As0 Ba19 3.448724 1_555
As0 Ba14 3.454781 1_555
As1 Si1 2.417226 1_555
As1 Ba31 3.387700 1_555
As1 Ba15 3.407698 1_555
As1 Ba14 3.420484 1_545
As1 Ba2 3.432505 1_555
As1 Ba9 3.448724 1_555
As1 Ba26 3.454781 1_555
As2 Si5 2.417226 1_655
As2 Ba22 3.387700 1_555
As2 Ba20 3.407698 1_555
As2 Ba17 3.420484 1_655
As2 Ba7 3.432505 1_555
As2 Ba10 3.448724 1_555
As2 Ba8 3.454781 1_555
As3 Si4 2.417226 1_555
As3 Ba17 3.387700 1_555
As3 Ba23 3.407698 1_555
As3 Ba22 3.420484 1_455
As3 Ba1 3.432505 1_555
As3 Ba11 3.448724 1_555
As3 Ba30 3.454781 1_555
As4 Si2 2.417226 1_556
As4 Ba18 3.387700 1_555
As4 Ba21 3.407698 1_555
As4 Ba19 3.420484 1_556
As4 Ba7 3.432505 1_555
As4 Ba12 3.448724 1_555
As4 Ba10 3.454781 1_555
As5 Si3 2.417226 1_556
As5 Ba21 3.387700 1_555
As5 Ba18 3.407698 1_555
As5 Ba24 3.420484 1_556
As5 Ba3 3.432505 1_555
As5 Ba13 3.448724 1_555
As5 Ba28 3.454781 1_555
As6 Si1 2.417226 1_565
As6 Ba30 3.387700 1_655
As6 Ba9 3.407698 1_565
As6 Ba8 3.420484 1_555
As6 Ba5 3.432505 1_555
As6 Ba14 3.448724 1_555
As6 Ba22 3.454781 1_555
As7 Si1 2.417226 1_555
As7 Ba29 3.387700 1_655
As7 Ba8 3.407698 1_545
As7 Ba9 3.420484 1_555
As7 Ba6 3.432505 1_555
As7 Ba15 3.448724 1_555
As7 Ba20 3.454781 1_555
As8 Si6 2.417226 1_565
As8 Ba8 3.387700 1_455
As8 Ba29 3.407698 1_565
As8 Ba30 3.420484 1_555
As8 Ba4 3.432505 1_555
As8 Ba16 3.448724 1_555
As8 Ba17 3.454781 1_555
As9 Si7 2.406827 1_555
As9 Ba23 3.409099 1_555
As9 Ba24 3.409099 1_555
As9 Ba31 3.409099 1_555
As9 Ba2 3.428611 1_555
As9 Ba3 3.428611 1_555
As9 Ba1 3.428611 1_555
As10 Si3 2.417226 1_556
As10 Ba12 3.387700 1_545
As10 Ba26 3.407698 1_556
As10 Ba13 3.420484 1_555
As10 Ba6 3.432505 1_555
As10 Ba18 3.448724 1_555
As10 Ba15 3.454781 1_555
As11 Si1 2.417226 1_565
As11 Ba16 3.387700 1_555
As11 Ba14 3.407698 1_555
As11 Ba15 3.420484 1_565
As11 Ba7 3.432505 1_555
As11 Ba8 3.448724 1_555
As11 Ba12 3.454781 1_555
As12 Si5 2.417226 1_655
As12 Ba27 3.387700 1_556
As12 Ba28 3.407698 1_655
As12 Ba10 3.420484 1_555
As12 Ba6 3.432505 1_555
As12 Ba20 3.448724 1_555
As12 Ba18 3.454781 1_555
As13 Si2 2.417226 1_556
As13 Ba13 3.387700 1_565
As13 Ba25 3.407698 1_556
As13 Ba12 3.420484 1_555
As13 Ba4 3.432505 1_555
As13 Ba21 3.448724 1_555
As13 Ba16 3.454781 1_555
As14 Si4 2.417226 1_655
As14 Ba10 3.387700 1_554
As14 Ba11 3.407698 1_655
As14 Ba27 3.420484 1_555
As14 Ba5 3.432505 1_555
As14 Ba22 3.448724 1_555
As14 Ba19 3.454781 1_555
As15 Si4 2.417226 1_555
As15 Ba28 3.387700 1_554
As15 Ba27 3.407698 1_455
As15 Ba11 3.420484 1_555
As15 Ba0 3.432505 1_555
As15 Ba23 3.448724 1_555
As15 Ba24 3.454781 1_555
As16 Si3 2.417226 1_555
As16 Ba25 3.387700 1_545
As16 Ba13 3.407698 1_554
As16 Ba26 3.420484 1_555
As16 Ba0 3.432505 1_555
As16 Ba24 3.448724 1_555
As16 Ba31 3.454781 1_555
As17 Si2 2.417226 1_555
As17 Ba24 3.387700 1_555
As17 Ba19 3.407698 1_555
As17 Ba21 3.420484 1_554
As17 Ba1 3.432505 1_555
As17 Ba25 3.448724 1_555
As17 Ba11 3.454781 1_555
As18 Si3 2.417226 1_555
As18 Ba19 3.387700 1_555
As18 Ba24 3.407698 1_555
As18 Ba18 3.420484 1_554
As18 Ba2 3.432505 1_555
As18 Ba26 3.448724 1_555
As18 Ba27 3.454781 1_555
As19 Si4 2.417226 1_655
As19 Ba20 3.387700 1_555
As19 Ba22 3.407698 1_555
As19 Ba23 3.420484 1_655
As19 Ba2 3.432505 1_555
As19 Ba27 3.448724 1_555
As19 Ba9 3.454781 1_555
As20 Si5 2.417226 1_555
As20 Ba23 3.387700 1_555
As20 Ba17 3.407698 1_555
As20 Ba20 3.420484 1_455
As20 Ba3 3.432505 1_555
As20 Ba28 3.448724 1_555
As20 Ba29 3.454781 1_555
As21 Si6 2.417226 1_555
As21 Ba15 3.387700 1_555
As21 Ba31 3.407698 1_555
As21 Ba16 3.420484 1_545
As21 Ba3 3.432505 1_555
As21 Ba29 3.448724 1_555
As21 Ba13 3.454781 1_555
As22 Si6 2.417226 1_565
As22 Ba14 3.387700 1_555
As22 Ba16 3.407698 1_555
As22 Ba31 3.420484 1_565
As22 Ba1 3.432505 1_555
As22 Ba30 3.448724 1_555
As22 Ba25 3.454781 1_555
As23 Si6 2.417226 1_555
As23 Ba9 3.387700 1_455
As23 Ba30 3.407698 1_545
As23 Ba29 3.420484 1_555
As23 Ba0 3.432505 1_555
As23 Ba31 3.448724 1_555
As23 Ba23 3.454781 1_555
As24 Si0 2.406827 1_565
As24 Ba30 3.409099 1_555
As24 Ba25 3.409099 1_555
As24 Ba11 3.409099 1_555
As24 Ba0 3.428611 1_565
As24 Ba4 3.428611 1_554
As24 Ba5 3.428611 1_455
As25 Si0 2.406827 1_556
As25 Ba28 3.409099 1_555
As25 Ba13 3.409099 1_555
As25 Ba29 3.409099 1_555
As25 Ba0 3.428611 1_556
As25 Ba6 3.428611 1_455
As25 Ba4 3.428611 1_545
As26 Si0 2.406827 1_655
As26 Ba27 3.409099 1_555
As26 Ba9 3.409099 1_555
As26 Ba26 3.409099 1_555
As26 Ba0 3.428611 1_655
As26 Ba5 3.428611 1_545
As26 Ba6 3.428611 1_554
As27 Si7 2.406827 1_555
As27 Ba19 3.409099 1_555
As27 Ba22 3.409099 1_555
As27 Ba14 3.409099 1_555
As27 Ba2 3.428611 1_555
As27 Ba1 3.428611 1_555
As27 Ba7 3.428611 1_555
As28 Si7 2.406827 1_555
As28 Ba17 3.409099 1_555
As28 Ba21 3.409099 1_555
As28 Ba16 3.409099 1_555
As28 Ba3 3.428611 1_555
As28 Ba1 3.428611 1_555
As28 Ba7 3.428611 1_555
As29 Si7 2.406827 1_555
As29 Ba15 3.409099 1_555
As29 Ba18 3.409099 1_555
As29 Ba20 3.409099 1_555
As29 Ba2 3.428611 1_555
As29 Ba3 3.428611 1_555
As29 Ba7 3.428611 1_555
As30 Si0 2.406827 1_666
As30 Ba10 3.409099 1_555
As30 Ba12 3.409099 1_555
As30 Ba8 3.409099 1_555
As30 Ba4 3.428611 1_655
As30 Ba5 3.428611 1_556
As30 Ba6 3.428611 1_565
As31 Si5 2.417226 1_555
As31 Ba11 3.387700 1_556
As31 Ba10 3.407698 1_455
As31 Ba28 3.420484 1_555
As31 Ba4 3.432505 1_555
As31 Ba17 3.448724 1_555
As31 Ba21 3.454781 1_555
