# generated using pymatgen
data_NpRe2
_symmetry_space_group_name_H-M   'P 1'
_cell_length_a   5.16983130
_cell_length_b   5.16983130
_cell_length_c   9.40073400
_cell_angle_alpha   90.00000000
_cell_angle_beta   90.00000000
_cell_angle_gamma   120.80556030
_symmetry_Int_Tables_number   1
_chemical_formula_structural   NpRe2
_chemical_formula_sum   'Np4 Re8'
_cell_volume   215.80538007
_cell_formula_units_Z   4
loop_
 _symmetry_equiv_pos_site_id
 _symmetry_equiv_pos_as_xyz
  1  'x, y, z'
loop_
 _atom_site_type_symbol
 _atom_site_label
 _atom_site_symmetry_multiplicity
 _atom_site_fract_x
 _atom_site_fract_y
 _atom_site_fract_z
 _atom_site_occupancy
  Np  Np0  1  0.66902000  0.33098000  0.55264700  1
  Np  Np1  1  0.33098000  0.66902000  0.44735300  1
  Np  Np2  1  0.33098000  0.66902000  0.05264700  1
  Np  Np3  1  0.66902000  0.33098000  0.94735300  1
  Re  Re0  1  0.00000000  0.00000000  0.50000000  1
  Re  Re1  1  0.00000000  0.00000000  0.00000000  1
  Re  Re2  1  0.16985100  0.33698600  0.75000000  1
  Re  Re3  1  0.16906700  0.83093300  0.75000000  1
  Re  Re4  1  0.66301400  0.83014900  0.75000000  1
  Re  Re5  1  0.83014900  0.66301400  0.25000000  1
  Re  Re6  1  0.83093300  0.16906700  0.25000000  1
  Re  Re7  1  0.33698600  0.16985100  0.25000000  1
loop_
_geom_bond_atom_site_label_1
_geom_bond_atom_site_label_2
_geom_bond_distance
_geom_bond_site_symmetry_2
Np0 Re0 3.012276 1_665
Np0 Re0 3.012276 1_555
Np0 Re0 3.016563 1_655
Np0 Np1 3.101575 1_655
Np0 Np1 3.101575 1_545
Np0 Re3 3.156222 1_655
Np0 Re3 3.156222 1_545
Np0 Re2 3.172481 1_655
Np0 Re4 3.172481 1_545
Np0 Re4 3.191337 1_555
Np0 Re2 3.191337 1_555
Np0 Re6 3.195877 1_555
Np0 Np1 3.196291 1_555
Np0 Re5 3.204764 1_555
Np0 Re7 3.204764 1_555
Np1 Re0 3.012276 1_665
Np1 Re0 3.012276 1_555
Np1 Re0 3.016563 1_565
Np1 Re6 3.156222 1_565
Np1 Re6 3.156222 1_455
Np1 Re7 3.172481 1_565
Np1 Re5 3.172481 1_455
Np1 Re5 3.191337 1_555
Np1 Re7 3.191337 1_555
Np1 Re3 3.195877 1_555
Np1 Re4 3.204764 1_555
Np1 Re2 3.204764 1_555
Np2 Re1 3.012276 1_665
Np2 Re1 3.012276 1_555
Np2 Re1 3.016563 1_565
Np2 Np3 3.101575 1_454
Np2 Np3 3.101575 1_564
Np2 Re6 3.156222 1_565
Np2 Re6 3.156222 1_455
Np2 Re7 3.172481 1_565
Np2 Re5 3.172481 1_455
Np2 Re5 3.191337 1_555
Np2 Re7 3.191337 1_555
Np2 Re3 3.195877 1_554
Np2 Np3 3.196291 1_554
Np2 Re4 3.204764 1_554
Np2 Re2 3.204764 1_554
Np3 Re1 3.012276 1_666
Np3 Re1 3.012276 1_556
Np3 Re1 3.016563 1_656
Np3 Re3 3.156222 1_655
Np3 Re3 3.156222 1_545
Np3 Re2 3.172481 1_655
Np3 Re4 3.172481 1_545
Np3 Re4 3.191337 1_555
Np3 Re2 3.191337 1_555
Np3 Re6 3.195877 1_556
Np3 Re7 3.204764 1_556
Np3 Re5 3.204764 1_556
Re0 Re5 2.786154 1_445
Re0 Re2 2.786154 1_555
Re0 Re7 2.786154 1_555
Re0 Re4 2.786154 1_445
Re0 Re3 2.798887 1_545
Re0 Re6 2.798887 1_455
Re1 Re2 2.786154 1_554
Re1 Re5 2.786154 1_445
Re1 Re4 2.786154 1_444
Re1 Re7 2.786154 1_555
Re1 Re3 2.798887 1_544
Re1 Re6 2.798887 1_455
Re2 Re4 2.518463 1_555
Re2 Re3 2.555701 1_555
Re2 Re4 2.588293 1_445
Re2 Re3 2.614135 1_545
Re3 Re4 2.555701 1_555
Re3 Re4 2.614135 1_455
Re5 Re7 2.518463 1_555
Re5 Re6 2.555701 1_555
Re5 Re7 2.588293 1_665
Re5 Re6 2.614135 1_565
Re6 Re7 2.555701 1_555
Re6 Re7 2.614135 1_655
