# generated using pymatgen
data_Ti3MnNi2(PO4)6
_symmetry_space_group_name_H-M   'P 1'
_cell_length_a   8.51507515
_cell_length_b   8.51507515
_cell_length_c   8.51507518
_cell_angle_alpha   61.17009290
_cell_angle_beta   61.17009290
_cell_angle_gamma   61.17009443
_symmetry_Int_Tables_number   1
_chemical_formula_structural   Ti3MnNi2(PO4)6
_chemical_formula_sum   'Ti3 Mn1 Ni2 P6 O24'
_cell_volume   448.05947324
_cell_formula_units_Z   1
loop_
 _symmetry_equiv_pos_site_id
 _symmetry_equiv_pos_as_xyz
  1  'x, y, z'
loop_
 _atom_site_type_symbol
 _atom_site_label
 _atom_site_symmetry_multiplicity
 _atom_site_fract_x
 _atom_site_fract_y
 _atom_site_fract_z
 _atom_site_occupancy
  Ti  Ti0  1  0.14331500  0.14331500  0.14331500  1
  Ti  Ti1  1  0.35429600  0.35429600  0.35429600  1
  Ti  Ti2  1  0.64612800  0.64612800  0.64612800  1
  Mn  Mn0  1  0.85569500  0.85569500  0.85569500  1
  Ni  Ni0  1  0.99785100  0.99785100  0.99785100  1
  Ni  Ni1  1  0.49861600  0.49861600  0.49861600  1
  P  P0  1  0.54280300  0.25507900  0.95312000  1
  P  P1  1  0.95312000  0.54280400  0.25507900  1
  P  P2  1  0.25507900  0.95312000  0.54280300  1
  P  P3  1  0.75309700  0.05018200  0.44965700  1
  P  P4  1  0.05018200  0.44965700  0.75309700  1
  P  P5  1  0.44965700  0.75309700  0.05018200  1
  O  O0  1  0.33765600  0.10925800  0.47916100  1
  O  O1  1  0.47916100  0.33765600  0.10925800  1
  O  O2  1  0.90933300  0.05973800  0.25005200  1
  O  O3  1  0.10925800  0.47916100  0.33765600  1
  O  O4  1  0.81970600  0.02262600  0.59662200  1
  O  O5  1  0.58911900  0.24563600  0.42677600  1
  O  O6  1  0.05973800  0.25005200  0.90933300  1
  O  O7  1  0.24563600  0.42677600  0.58911900  1
  O  O8  1  0.38022200  0.18580100  0.00186000  1
  O  O9  1  0.42677600  0.58911900  0.24563600  1
  O  O10  1  0.73608400  0.10336800  0.95131700  1
  O  O11  1  0.00186000  0.38022200  0.18580100  1
  O  O12  1  0.02262600  0.59662200  0.81970600  1
  O  O13  1  0.25005200  0.90933300  0.05973800  1
  O  O14  1  0.55105700  0.41526600  0.75673500  1
  O  O15  1  0.59662200  0.81970600  0.02262600  1
  O  O16  1  0.75673500  0.55105700  0.41526600  1
  O  O17  1  0.95131700  0.73608400  0.10336800  1
  O  O18  1  0.41526600  0.75673500  0.55105700  1
  O  O19  1  0.18580100  0.00186000  0.38022200  1
  O  O20  1  0.88138400  0.50344600  0.68793600  1
  O  O21  1  0.10336800  0.95131700  0.73608400  1
  O  O22  1  0.50344600  0.68793600  0.88138400  1
  O  O23  1  0.68793600  0.88138400  0.50344600  1
loop_
_geom_bond_atom_site_label_1
_geom_bond_atom_site_label_2
_geom_bond_distance
_geom_bond_site_symmetry_2
Mn0 O15 2.046622 1_556
Mn0 O4 2.046622 1_565
Mn0 O12 2.046622 1_655
Mn0 O21 2.220978 1_655
Mn0 O17 2.220978 1_556
Mn0 O10 2.220978 1_565
Ni0 O17 2.123573 1_556
Ni0 O21 2.123573 1_655
Ni0 O10 2.123573 1_565
Ni0 O6 2.145903 1_665
Ni0 O2 2.145903 1_566
Ni0 O13 2.145903 1_656
Ni1 O16 2.161100 1_555
Ni1 O14 2.161100 1_555
Ni1 O18 2.161100 1_555
Ni1 O7 2.196276 1_555
Ni1 O9 2.196276 1_555
Ni1 O5 2.196276 1_555
O0 P2 1.547572 1_545
O0 Ti1 1.872004 1_555
O1 P0 1.547572 1_554
O1 Ti1 1.872004 1_555
O2 P3 1.567040 1_555
O2 Ti0 2.073484 1_655
O3 P1 1.547570 1_455
O3 Ti1 1.872004 1_555
O4 P3 1.488552 1_555
O5 P3 1.570336 1_555
O5 Ti1 2.022453 1_555
O6 P4 1.567040 1_555
O6 Ti0 2.073484 1_556
O7 P4 1.570336 1_555
O7 Ti1 2.022453 1_555
O8 P0 1.560175 1_554
O8 Ti0 1.895081 1_555
O9 P5 1.570336 1_555
O9 Ti1 2.022453 1_555
O10 P0 1.523821 1_555
O11 P1 1.560183 1_455
O11 Ti0 1.895081 1_555
O12 P4 1.488552 1_555
O13 P5 1.567040 1_555
O13 Ti0 2.073484 1_565
O14 P0 1.562414 1_555
O14 Ti2 2.102537 1_555
O15 P5 1.488552 1_555
O16 P1 1.562414 1_555
O16 Ti2 2.102537 1_555
O17 P1 1.523815 1_555
O18 P2 1.562414 1_555
O18 Ti2 2.102538 1_555
O19 P2 1.560175 1_545
O19 Ti0 1.895081 1_555
O20 P4 1.572479 1_655
O20 Ti2 1.881264 1_555
O21 P2 1.523821 1_555
O22 P5 1.572479 1_556
O22 Ti2 1.881264 1_555
O23 P3 1.572479 1_565
O23 Ti2 1.881264 1_555
