# generated using pymatgen
data_CsHfMg6
_symmetry_space_group_name_H-M   'P 1'
_cell_length_a   5.34652600
_cell_length_b   7.22320500
_cell_length_c   11.21706100
_cell_angle_alpha   90.00000000
_cell_angle_beta   90.00000000
_cell_angle_gamma   90.00000000
_symmetry_Int_Tables_number   1
_chemical_formula_structural   CsHfMg6
_chemical_formula_sum   'Cs2 Hf2 Mg12'
_cell_volume   433.19227703
_cell_formula_units_Z   2
loop_
 _symmetry_equiv_pos_site_id
 _symmetry_equiv_pos_as_xyz
  1  'x, y, z'
loop_
 _atom_site_type_symbol
 _atom_site_label
 _atom_site_symmetry_multiplicity
 _atom_site_fract_x
 _atom_site_fract_y
 _atom_site_fract_z
 _atom_site_occupancy
  Cs  Cs0  1  0.00000000  0.50000000  0.37062200  1
  Cs  Cs1  1  0.00000000  0.00000000  0.87062200  1
  Hf  Hf0  1  0.50000000  0.50000000  0.14859000  1
  Hf  Hf1  1  0.50000000  0.00000000  0.64859000  1
  Mg  Mg0  1  0.00000000  0.29215300  0.09661500  1
  Mg  Mg1  1  0.00000000  0.70784700  0.09661500  1
  Mg  Mg2  1  0.00000000  0.50000000  0.82317700  1
  Mg  Mg3  1  0.50000000  0.28973800  0.90924600  1
  Mg  Mg4  1  0.50000000  0.71026200  0.90924600  1
  Mg  Mg5  1  0.50000000  0.50000000  0.64588900  1
  Mg  Mg6  1  0.00000000  0.79215300  0.59661500  1
  Mg  Mg7  1  0.00000000  0.20784700  0.59661500  1
  Mg  Mg8  1  0.00000000  0.00000000  0.32317700  1
  Mg  Mg9  1  0.50000000  0.78973800  0.40924600  1
  Mg  Mg10  1  0.50000000  0.21026200  0.40924600  1
  Mg  Mg11  1  0.50000000  0.00000000  0.14588900  1
loop_
_geom_bond_atom_site_label_1
_geom_bond_atom_site_label_2
_geom_bond_distance
_geom_bond_site_symmetry_2
Cs0 Mg6 3.298393 1_555
Cs0 Mg7 3.298393 1_555
Cs0 Mg1 3.420628 1_555
Cs0 Mg0 3.420628 1_555
Cs0 Mg9 3.422573 1_455
Cs0 Mg9 3.422573 1_555
Cs0 Mg10 3.422573 1_555
Cs0 Mg10 3.422573 1_455
Cs0 Mg8 3.650603 1_555
Cs0 Mg8 3.650603 1_565
Cs0 Hf0 3.653650 1_555
Cs0 Hf0 3.653650 1_455
Cs0 Mg5 4.084133 1_455
Cs0 Mg5 4.084133 1_555
Cs1 Mg0 3.298393 1_556
Cs1 Mg1 3.298393 1_546
Cs1 Mg7 3.420628 1_555
Cs1 Mg6 3.420628 1_545
Cs1 Mg3 3.422573 1_455
Cs1 Mg3 3.422573 1_555
Cs1 Mg4 3.422573 1_445
Cs1 Mg4 3.422573 1_545
Cs1 Mg2 3.650603 1_555
Cs1 Mg2 3.650603 1_545
Cs1 Hf1 3.653650 1_555
Cs1 Hf1 3.653650 1_455
Cs1 Mg11 4.084133 1_556
Cs1 Mg11 4.084133 1_456
Hf0 Mg4 3.084551 1_554
Hf0 Mg3 3.084551 1_554
Hf0 Mg0 3.120929 1_555
Hf0 Mg1 3.120929 1_655
Hf0 Mg0 3.120929 1_655
Hf0 Mg1 3.120929 1_555
Hf0 Mg9 3.595628 1_555
Hf0 Mg10 3.595628 1_555
Hf0 Mg11 3.611730 1_555
Hf0 Mg11 3.611730 1_565
Hf1 Mg10 3.084551 1_555
Hf1 Mg9 3.084551 1_545
Hf1 Mg7 3.120929 1_555
Hf1 Mg7 3.120929 1_655
Hf1 Mg6 3.120929 1_645
Hf1 Mg6 3.120929 1_545
Hf1 Mg3 3.595628 1_555
Hf1 Mg4 3.595628 1_545
Hf1 Mg5 3.611730 1_545
Hf1 Mg5 3.611730 1_555
Mg0 Mg1 3.002643 1_555
Mg0 Mg8 3.303301 1_555
Mg0 Mg3 3.400574 1_454
Mg0 Mg3 3.400574 1_554
Mg0 Mg2 3.414894 1_554
Mg0 Mg11 3.450378 1_455
Mg0 Mg11 3.450378 1_555
Mg1 Mg8 3.303301 1_565
Mg1 Mg4 3.400574 1_554
Mg1 Mg4 3.400574 1_454
Mg1 Mg2 3.414894 1_554
Mg1 Mg11 3.450378 1_565
Mg1 Mg11 3.450378 1_465
Mg2 Mg3 3.222586 1_555
Mg2 Mg4 3.222586 1_455
Mg2 Mg4 3.222586 1_555
Mg2 Mg3 3.222586 1_455
Mg2 Mg7 3.303301 1_555
Mg2 Mg6 3.303301 1_555
Mg2 Mg5 3.331826 1_455
Mg2 Mg5 3.331826 1_555
Mg3 Mg4 3.037531 1_555
Mg3 Mg5 3.321642 1_555
Mg4 Mg5 3.321642 1_555
Mg5 Mg9 3.380239 1_555
Mg5 Mg6 3.450378 1_655
Mg5 Mg7 3.450378 1_555
Mg5 Mg7 3.450378 1_655
Mg5 Mg6 3.450378 1_555
Mg6 Mg7 3.002643 1_565
Mg6 Mg9 3.400574 1_455
Mg6 Mg9 3.400574 1_555
Mg6 Mg8 3.414894 1_565
Mg7 Mg8 3.414894 1_555
Mg8 Mg9 3.222586 1_545
Mg8 Mg9 3.222586 1_445
Mg10 Mg9 3.037531 1_545
Mg10 Mg8 3.222586 1_555
Mg10 Mg8 3.222586 1_655
Mg10 Mg11 3.321642 1_555
Mg10 Mg5 3.380239 1_555
Mg10 Mg7 3.400574 1_655
Mg10 Mg7 3.400574 1_555
Mg11 Mg9 3.321642 1_545
Mg11 Mg8 3.331826 1_555
Mg11 Mg8 3.331826 1_655
Mg11 Mg4 3.380239 1_544
Mg11 Mg3 3.380239 1_554
