# generated using pymatgen
data_IrSe2
_symmetry_space_group_name_H-M   'P 1'
_cell_length_a   3.76584221
_cell_length_b   5.98587002
_cell_length_c   21.15801080
_cell_angle_alpha   90.00000000
_cell_angle_beta   90.00000000
_cell_angle_gamma   90.00000000
_symmetry_Int_Tables_number   1
_chemical_formula_structural   IrSe2
_chemical_formula_sum   'Ir8 Se16'
_cell_volume   476.94053617
_cell_formula_units_Z   8
loop_
 _symmetry_equiv_pos_site_id
 _symmetry_equiv_pos_as_xyz
  1  'x, y, z'
loop_
 _atom_site_type_symbol
 _atom_site_label
 _atom_site_symmetry_multiplicity
 _atom_site_fract_x
 _atom_site_fract_y
 _atom_site_fract_z
 _atom_site_occupancy
  Ir  Ir0  1  0.25000000  0.94161486  0.80489765  1
  Ir  Ir1  1  0.75000000  0.05838514  0.19510235  1
  Ir  Ir2  1  0.75000000  0.44161486  0.69510235  1
  Ir  Ir3  1  0.25000000  0.55838514  0.30489765  1
  Ir  Ir4  1  0.25000000  0.93013790  0.57640308  1
  Ir  Ir5  1  0.75000000  0.06986210  0.42359692  1
  Ir  Ir6  1  0.75000000  0.43013790  0.92359692  1
  Ir  Ir7  1  0.25000000  0.56986210  0.07640308  1
  Se  Se0  1  0.25000000  0.57220097  0.86133512  1
  Se  Se1  1  0.75000000  0.42779903  0.13866488  1
  Se  Se2  1  0.75000000  0.07220097  0.63866488  1
  Se  Se3  1  0.25000000  0.92779903  0.36133512  1
  Se  Se4  1  0.25000000  0.18261771  0.26184744  1
  Se  Se5  1  0.75000000  0.81738229  0.73815256  1
  Se  Se6  1  0.75000000  0.68261771  0.23815256  1
  Se  Se7  1  0.25000000  0.31738229  0.76184744  1
  Se  Se8  1  0.25000000  0.27628334  0.99113449  1
  Se  Se9  1  0.75000000  0.72371666  0.00886551  1
  Se  Se10  1  0.75000000  0.77628334  0.50886551  1
  Se  Se11  1  0.25000000  0.22371666  0.49113449  1
  Se  Se12  1  0.25000000  0.95116979  0.12208991  1
  Se  Se13  1  0.75000000  0.04883021  0.87791009  1
  Se  Se14  1  0.75000000  0.45116979  0.37791009  1
  Se  Se15  1  0.25000000  0.54883021  0.62208991  1
loop_
_geom_bond_atom_site_label_1
_geom_bond_atom_site_label_2
_geom_bond_distance
_geom_bond_site_symmetry_2
Ir0 Se7 2.426724 1_565
Ir0 Se5 2.468336 1_555
Ir0 Se5 2.468336 1_455
Ir0 Se0 2.513080 1_555
Ir0 Se13 2.518664 1_565
Ir0 Se13 2.518664 1_465
Ir1 Se6 2.426724 1_545
Ir1 Se4 2.468336 1_555
Ir1 Se4 2.468336 1_655
Ir1 Se1 2.513080 1_555
Ir1 Se12 2.518664 1_545
Ir1 Se12 2.518664 1_645
Ir2 Se5 2.426724 1_555
Ir2 Se7 2.468336 1_555
Ir2 Se7 2.468336 1_655
Ir2 Se2 2.513080 1_555
Ir2 Se15 2.518664 1_555
Ir2 Se15 2.518664 1_655
Ir3 Se4 2.426724 1_555
Ir3 Se6 2.468336 1_555
Ir3 Se6 2.468336 1_455
Ir3 Se3 2.513080 1_555
Ir3 Se14 2.518664 1_455
Ir3 Se14 2.518664 1_555
Ir4 Se2 2.450285 1_465
Ir4 Se2 2.450285 1_565
Ir4 Se15 2.478712 1_555
Ir4 Se11 2.518534 1_565
Ir4 Se10 2.536824 1_555
Ir4 Se10 2.536824 1_455
Ir5 Se3 2.450285 1_645
Ir5 Se3 2.450285 1_545
Ir5 Se14 2.478712 1_555
Ir5 Se10 2.518534 1_545
Ir5 Se11 2.536824 1_655
Ir5 Se11 2.536824 1_555
Ir6 Se0 2.450285 1_655
Ir6 Se0 2.450285 1_555
Ir6 Se13 2.478712 1_555
Ir6 Se9 2.518534 1_556
Ir6 Se8 2.536824 1_655
Ir6 Se8 2.536824 1_555
Ir7 Se1 2.450285 1_455
Ir7 Se1 2.450285 1_555
Ir7 Se12 2.478712 1_555
Ir7 Se8 2.518534 1_554
Ir7 Se9 2.536824 1_555
Ir7 Se9 2.536824 1_455
Se0 Se7 2.599507 1_555
Se1 Se6 2.599507 1_555
Se2 Se5 2.599507 1_545
Se3 Se4 2.599507 1_565
