# generated using pymatgen
data_Fe6P4H23O21
_symmetry_space_group_name_H-M   'P 1'
_cell_length_a   11.07706691
_cell_length_b   11.07706691
_cell_length_c   20.15008703
_cell_angle_alpha   87.42309214
_cell_angle_beta   87.42309214
_cell_angle_gamma   28.11989479
_symmetry_Int_Tables_number   1
_chemical_formula_structural   Fe6P4H23O21
_chemical_formula_sum   'Fe12 P8 H46 O42'
_cell_volume   1164.05545560
_cell_formula_units_Z   2
loop_
 _symmetry_equiv_pos_site_id
 _symmetry_equiv_pos_as_xyz
  1  'x, y, z'
loop_
 _atom_site_type_symbol
 _atom_site_label
 _atom_site_symmetry_multiplicity
 _atom_site_fract_x
 _atom_site_fract_y
 _atom_site_fract_z
 _atom_site_occupancy
  Fe  Fe0  1  0.31334900  0.72743800  0.16070300  1
  Fe  Fe1  1  0.68665100  0.27256200  0.83929700  1
  Fe  Fe2  1  0.27256200  0.68665100  0.33929700  1
  Fe  Fe3  1  0.72743800  0.31334900  0.66070300  1
  Fe  Fe4  1  0.15999400  0.07436200  0.42205400  1
  Fe  Fe5  1  0.84000600  0.92563800  0.57794600  1
  Fe  Fe6  1  0.92563800  0.84000600  0.07794600  1
  Fe  Fe7  1  0.07436200  0.15999400  0.92205400  1
  Fe  Fe8  1  0.00000000  0.00000000  0.00000000  1
  Fe  Fe9  1  0.00000000  0.00000000  0.50000000  1
  Fe  Fe10  1  0.50000000  0.00000000  0.00000000  1
  Fe  Fe11  1  0.00000000  0.50000000  0.50000000  1
  P  P0  1  0.57886100  0.61917700  0.02666900  1
  P  P1  1  0.42113900  0.38082300  0.97333100  1
  P  P2  1  0.38082300  0.42113900  0.47333100  1
  P  P3  1  0.61917700  0.57886100  0.52666900  1
  P  P4  1  0.47285300  0.31761800  0.17405500  1
  P  P5  1  0.52714700  0.68238200  0.82594500  1
  P  P6  1  0.68238200  0.52714700  0.32594500  1
  P  P7  1  0.31761800  0.47285300  0.67405500  1
  H  H0  1  0.57318700  0.75300200  0.22830600  1
  H  H1  1  0.42681300  0.24699800  0.77169400  1
  H  H2  1  0.24699800  0.42681300  0.27169400  1
  H  H3  1  0.75300200  0.57318700  0.72830600  1
  H  H4  1  0.35173900  0.07095600  0.14334700  1
  H  H5  1  0.64826100  0.92904400  0.85665300  1
  H  H6  1  0.92904400  0.64826100  0.35665300  1
  H  H7  1  0.07095600  0.35173900  0.64334700  1
  H  H8  1  0.84852400  0.12964000  0.12138000  1
  H  H9  1  0.15147600  0.87036000  0.87862000  1
  H  H10  1  0.87036000  0.15147600  0.37862000  1
  H  H11  1  0.12964000  0.84852400  0.62138000  1
  H  H12  1  0.84850600  0.93697500  0.31974600  1
  H  H13  1  0.15149400  0.06302500  0.68025400  1
  H  H14  1  0.06302500  0.15149400  0.18025400  1
  H  H15  1  0.93697500  0.84850600  0.81974600  1
  H  H16  1  0.29407500  0.20053000  0.12133500  1
  H  H17  1  0.70592500  0.79947000  0.87866500  1
  H  H18  1  0.79947000  0.70592500  0.37866500  1
  H  H19  1  0.20053000  0.29407500  0.62133500  1
  H  H20  1  0.95459300  0.04540700  0.25000000  1
  H  H21  1  0.04540700  0.95459300  0.75000000  1
  H  H22  1  0.54308800  0.93501500  0.26779500  1
  H  H23  1  0.45691200  0.06498500  0.73220500  1
  H  H24  1  0.06498500  0.45691200  0.23220500  1
  H  H25  1  0.93501500  0.54308800  0.76779500  1
  H  H26  1  0.38754200  0.01213600  0.49035300  1
  H  H27  1  0.61245800  0.98786400  0.50964700  1
  H  H28  1  0.98786400  0.61245800  0.00964700  1
  H  H29  1  0.01213600  0.38754200  0.99035300  1
  H  H30  1  0.11926100  0.15912000  0.16361600  1
  H  H31  1  0.88073900  0.84088000  0.83638400  1
  H  H32  1  0.84088000  0.88073900  0.33638400  1
  H  H33  1  0.15912000  0.11926100  0.66361600  1
  H  H34  1  0.51840600  0.23273800  0.29867000  1
  H  H35  1  0.48159400  0.76726200  0.70133000  1
  H  H36  1  0.76726200  0.48159400  0.20133000  1
  H  H37  1  0.23273800  0.51840600  0.79867000  1
  H  H38  1  0.24881800  0.30982000  0.10192300  1
  H  H39  1  0.75118200  0.69018000  0.89807700  1
  H  H40  1  0.69018000  0.75118200  0.39807700  1
  H  H41  1  0.30982000  0.24881800  0.60192300  1
  H  H42  1  0.47740200  0.99722800  0.23452100  1
  H  H43  1  0.52259800  0.00277200  0.76547900  1
  H  H44  1  0.00277200  0.52259800  0.26547900  1
  H  H45  1  0.99722800  0.47740200  0.73452100  1
  O  O0  1  0.22299200  0.17239300  0.46815700  1
  O  O1  1  0.77700800  0.82760700  0.53184300  1
  O  O2  1  0.82760700  0.77700800  0.03184300  1
  O  O3  1  0.17239300  0.22299200  0.96815700  1
  O  O4  1  0.57238400  0.35834900  0.17958000  1
  O  O5  1  0.42761600  0.64165100  0.82042000  1
  O  O6  1  0.64165100  0.42761600  0.32042000  1
  O  O7  1  0.35834900  0.57238400  0.67958000  1
  O  O8  1  0.03701800  0.99121400  0.40034500  1
  O  O9  1  0.96298200  0.00878600  0.59965500  1
  O  O10  1  0.00878600  0.96298200  0.09965500  1
  O  O11  1  0.99121400  0.03701800  0.90034500  1
  O  O12  1  0.65462000  0.68519400  0.01235300  1
  O  O13  1  0.34538000  0.31480600  0.98764700  1
  O  O14  1  0.31480600  0.34538000  0.48764700  1
  O  O15  1  0.68519400  0.65462000  0.51235300  1
  O  O16  1  0.63270100  0.61647200  0.23468900  1
  O  O17  1  0.36729900  0.38352800  0.76531100  1
  O  O18  1  0.38352800  0.36729900  0.26531100  1
  O  O19  1  0.61647200  0.63270100  0.73468900  1
  O  O20  1  0.68011300  0.17892100  0.00928500  1
  O  O21  1  0.31988700  0.82107900  0.99071500  1
  O  O22  1  0.82107900  0.31988700  0.49071500  1
  O  O23  1  0.17892100  0.68011300  0.50928500  1
  O  O24  1  0.13559300  0.86440700  0.25000000  1
  O  O25  1  0.86440700  0.13559300  0.75000000  1
  O  O26  1  0.34598000  0.79326400  0.49854900  1
  O  O27  1  0.65402000  0.20673600  0.50145100  1
  O  O28  1  0.20673600  0.65402000  0.00145100  1
  O  O29  1  0.79326400  0.34598000  0.99854900  1
  O  O30  1  0.67112600  0.04763200  0.16371900  1
  O  O31  1  0.32887400  0.95236800  0.83628200  1
  O  O32  1  0.95236800  0.32887400  0.33628200  1
  O  O33  1  0.04763200  0.67112600  0.66371900  1
  O  O34  1  0.54677500  0.61935800  0.10241000  1
  O  O35  1  0.45322500  0.38064200  0.89759000  1
  O  O36  1  0.38064200  0.45322500  0.39759000  1
  O  O37  1  0.61935800  0.54677500  0.60241000  1
  O  O38  1  0.46446900  0.79179000  0.35170700  1
  O  O39  1  0.53553100  0.20821000  0.64829300  1
  O  O40  1  0.20821000  0.53553100  0.14829300  1
  O  O41  1  0.79179000  0.46446900  0.85170700  1
loop_
_geom_bond_atom_site_label_1
_geom_bond_atom_site_label_2
_geom_bond_distance
_geom_bond_site_symmetry_2
Fe0 O34 1.972734 1_555
Fe0 O24 2.018392 1_555
Fe0 O10 2.064043 1_555
Fe0 O4 2.087711 1_555
Fe1 O35 1.972734 1_555
Fe1 O25 2.018392 1_555
Fe1 O11 2.064043 1_555
Fe1 O5 2.087711 1_555
Fe2 O36 1.972734 1_555
Fe2 O24 2.018392 1_555
Fe2 O8 2.064043 1_555
Fe2 O6 2.087711 1_555
Fe3 O37 1.972734 1_555
Fe3 O25 2.018392 1_555
Fe3 O9 2.064043 1_555
Fe3 O7 2.087711 1_555
Fe4 O0 2.003698 1_555
Fe4 O38 2.128241 1_545
Fe4 O32 2.169510 1_455
Fe4 O26 2.203225 1_545
Fe4 O8 2.279957 1_545
Fe4 O22 2.294771 1_455
Fe5 O1 2.003698 1_555
Fe5 O39 2.128241 1_565
Fe5 O33 2.169526 1_655
Fe5 O27 2.203225 1_565
Fe5 O9 2.279957 1_565
Fe5 O23 2.294771 1_655
Fe6 O2 2.003698 1_555
Fe6 O40 2.128241 1_655
Fe6 O30 2.169526 1_565
Fe6 O28 2.203225 1_655
Fe6 O10 2.279957 1_655
Fe6 O20 2.294771 1_565
Fe7 O3 2.003698 1_555
Fe7 O41 2.128241 1_455
Fe7 O31 2.169510 1_545
Fe7 O29 2.203225 1_455
Fe7 O11 2.279957 1_455
Fe7 O21 2.294771 1_545
Fe8 O11 2.020654 1_454
Fe8 O10 2.020654 1_545
Fe8 O20 2.026048 1_455
Fe8 O21 2.026048 1_544
Fe8 O29 2.108962 1_454
Fe8 O28 2.108962 1_545
Fe9 O9 2.020654 1_455
Fe9 O8 2.020654 1_545
Fe9 O23 2.026048 1_545
Fe9 O22 2.026048 1_455
Fe9 O27 2.108962 1_455
Fe9 O26 2.108962 1_545
Fe10 O2 1.984328 1_545
Fe10 O3 1.984328 1_554
Fe10 O12 2.140248 1_545
Fe10 O13 2.140248 1_554
Fe11 O1 1.984328 1_455
Fe11 O0 1.984328 1_555
Fe11 O15 2.140248 1_455
Fe11 O14 2.140248 1_555
H0 O16 0.984805 1_555
H1 O17 0.984805 1_555
H2 O18 0.984805 1_555
H3 O19 0.984805 1_555
H8 O10 0.986463 1_645
H9 O11 0.986463 1_465
H10 O8 0.986463 1_645
H11 O9 0.986463 1_465
H12 H32 0.760966 1_555
H13 H33 0.760966 1_555
H14 H30 0.760966 1_555
H15 H31 0.760966 1_555
H16 H38 0.880016 1_555
H16 H4 1.007912 1_555
H17 H39 0.880016 1_555
H17 H5 1.007912 1_555
H18 H40 0.880016 1_555
H18 H6 1.007912 1_555
H19 H41 0.880016 1_555
H19 H7 1.007912 1_555
H20 O24 0.974152 1_645
H21 O25 0.974152 1_465
H22 H42 0.756113 1_555
H23 H43 0.756113 1_555
H24 H44 0.756113 1_555
H25 H45 0.756113 1_555
H26 O0 0.983902 1_555
H27 O1 0.983902 1_555
H28 O2 0.983902 1_555
H29 O3 0.983902 1_555
H34 O18 0.988829 1_555
H35 O19 0.988829 1_555
H36 O16 0.988829 1_555
H37 O17 0.988829 1_555
O4 P4 1.524623 1_555
O5 P5 1.524623 1_555
O6 P6 1.524623 1_555
O7 P7 1.524623 1_555
O12 P0 1.537516 1_555
O13 P1 1.537516 1_555
O14 P2 1.537516 1_555
O15 P3 1.537516 1_555
O16 P6 1.905262 1_555
O17 P7 1.905262 1_555
O18 P4 1.905262 1_555
O19 P5 1.905262 1_555
O20 P1 1.574897 1_554
O21 P0 1.574897 1_556
O22 P3 1.574897 1_555
O23 P2 1.574897 1_555
O26 P3 1.573239 1_555
O27 P2 1.573239 1_555
O28 P1 1.573239 1_554
O29 P0 1.573239 1_556
O30 P4 1.496624 1_555
O31 P5 1.496627 1_555
O32 P6 1.496627 1_555
O33 P7 1.496624 1_555
O34 P0 1.551070 1_555
O35 P1 1.551070 1_555
O36 P2 1.551070 1_555
O37 P3 1.551070 1_555
O38 P6 1.494005 1_555
O39 P7 1.494005 1_555
O40 P4 1.494005 1_555
O41 P5 1.494005 1_555
