# generated using pymatgen
data_V5B3
_symmetry_space_group_name_H-M   'P 1'
_cell_length_a   5.64337800
_cell_length_b   5.64337800
_cell_length_c   6.54254214
_cell_angle_alpha   115.54902759
_cell_angle_beta   115.54902759
_cell_angle_gamma   90.00000000
_symmetry_Int_Tables_number   1
_chemical_formula_structural   V5B3
_chemical_formula_sum   'V10 B6'
_cell_volume   165.12049894
_cell_formula_units_Z   2
loop_
 _symmetry_equiv_pos_site_id
 _symmetry_equiv_pos_as_xyz
  1  'x, y, z'
loop_
 _atom_site_type_symbol
 _atom_site_label
 _atom_site_symmetry_multiplicity
 _atom_site_fract_x
 _atom_site_fract_y
 _atom_site_fract_z
 _atom_site_occupancy
  V  V0  1  0.50000000  0.50000000  0.00000000  1
  V  V1  1  0.00000000  0.00000000  0.00000000  1
  V  V2  1  0.03127500  0.53127500  0.71436400  1
  V  V3  1  0.68308800  0.18308800  0.71436400  1
  V  V4  1  0.18308800  0.03127500  0.71436400  1
  V  V5  1  0.53127500  0.68308800  0.71436400  1
  V  V6  1  0.96872500  0.46872500  0.28563600  1
  V  V7  1  0.31691200  0.81691200  0.28563600  1
  V  V8  1  0.81691200  0.96872500  0.28563600  1
  V  V9  1  0.46872500  0.31691200  0.28563600  1
  B  B0  1  0.25000000  0.25000000  0.50000000  1
  B  B1  1  0.75000000  0.75000000  0.50000000  1
  B  B2  1  0.61351500  0.11351500  0.00000000  1
  B  B3  1  0.38648500  0.88648500  0.00000000  1
  B  B4  1  0.88648500  0.61351500  0.00000000  1
  B  B5  1  0.11351500  0.38648500  0.00000000  1
loop_
_geom_bond_atom_site_label_1
_geom_bond_atom_site_label_2
_geom_bond_distance
_geom_bond_site_symmetry_2
B0 V5 2.362876 1_555
B0 V8 2.362876 1_445
B0 V3 2.362878 1_555
B0 V7 2.362878 1_545
B0 V2 2.362880 1_555
B0 V6 2.362880 1_455
B0 V9 2.362883 1_555
B0 V4 2.362883 1_555
B0 V0 2.592344 1_556
B0 V1 2.592344 1_555
B1 V4 2.362876 1_665
B1 V9 2.362876 1_555
B1 V3 2.362878 1_565
B1 V7 2.362878 1_555
B1 V6 2.362880 1_555
B1 V2 2.362880 1_655
B1 V8 2.362883 1_555
B1 V5 2.362883 1_555
B1 V1 2.592344 1_666
B1 V0 2.592344 1_555
B2 B3 1.811913 1_545
B2 V9 2.223608 1_555
B2 V8 2.223608 1_545
B2 V4 2.223611 1_554
B2 V5 2.223611 1_544
B2 V3 2.250880 1_554
B2 V6 2.250886 1_555
B2 V1 2.273212 1_655
B2 V0 2.273212 1_555
B3 V4 2.223608 1_564
B3 V5 2.223608 1_554
B3 V9 2.223611 1_565
B3 V8 2.223611 1_555
B3 V7 2.250880 1_555
B3 V2 2.250886 1_554
B3 V1 2.273212 1_565
B3 V0 2.273212 1_555
B4 B5 1.811913 1_655
B4 V6 2.223607 1_555
B4 V2 2.223607 1_654
B4 V3 2.223612 1_554
B4 V7 2.223612 1_655
B4 V8 2.250883 1_555
B4 V5 2.250883 1_554
B4 V0 2.273212 1_555
B4 V1 2.273212 1_665
B5 V6 2.223607 1_455
B5 V2 2.223607 1_554
B5 V3 2.223612 1_454
B5 V7 2.223612 1_555
B5 V4 2.250883 1_554
B5 V9 2.250883 1_555
B5 V1 2.273212 1_555
B5 V0 2.273212 1_555
