# generated using pymatgen
data_NaSrYFeO6
_symmetry_space_group_name_H-M   'P 1'
_cell_length_a   5.75039629
_cell_length_b   5.75039629
_cell_length_c   5.75039629
_cell_angle_alpha   60.00000000
_cell_angle_beta   60.00000000
_cell_angle_gamma   60.00000000
_symmetry_Int_Tables_number   1
_chemical_formula_structural   NaSrYFeO6
_chemical_formula_sum   'Na1 Sr1 Y1 Fe1 O6'
_cell_volume   134.45542429
_cell_formula_units_Z   1
loop_
 _symmetry_equiv_pos_site_id
 _symmetry_equiv_pos_as_xyz
  1  'x, y, z'
loop_
 _atom_site_type_symbol
 _atom_site_label
 _atom_site_symmetry_multiplicity
 _atom_site_fract_x
 _atom_site_fract_y
 _atom_site_fract_z
 _atom_site_occupancy
  Na  Na0  1  0.25000000  0.25000000  0.25000000  1
  Sr  Sr0  1  0.75000000  0.75000000  0.75000000  1
  Y  Y0  1  0.50000000  0.50000000  0.50000000  1
  Fe  Fe0  1  0.00000000  0.00000000  0.00000000  1
  O  O0  1  0.77063452  0.22936548  0.22936548  1
  O  O1  1  0.22936548  0.77063452  0.77063452  1
  O  O2  1  0.77063452  0.22936548  0.77063452  1
  O  O3  1  0.22936548  0.77063452  0.22936548  1
  O  O4  1  0.77063452  0.77063452  0.22936548  1
  O  O5  1  0.22936548  0.22936548  0.77063452  1
loop_
_geom_bond_atom_site_label_1
_geom_bond_atom_site_label_2
_geom_bond_distance
_geom_bond_site_symmetry_2
Na0 O4 2.880091 1_455
Na0 O1 2.880091 1_554
Na0 O3 2.880091 1_545
Na0 O2 2.880091 1_455
Na0 O2 2.880091 1_554
Na0 O5 2.880091 1_555
Na0 O5 2.880091 1_554
Na0 O1 2.880091 1_545
Na0 O0 2.880091 1_455
Na0 O4 2.880091 1_545
Na0 O3 2.880091 1_555
Na0 O0 2.880091 1_555
Fe0 O4 1.865266 1_445
Fe0 O3 1.865266 1_545
Fe0 O5 1.865266 1_554
Fe0 O2 1.865266 1_454
Fe0 O1 1.865266 1_544
Fe0 O0 1.865266 1_455
O0 Y0 2.200878 1_555
O0 Sr0 2.880091 1_554
O0 Sr0 2.880091 1_545
O1 Y0 2.200878 1_555
O1 Sr0 2.880091 1_455
O1 Sr0 2.880091 1_555
O2 Y0 2.200878 1_555
O2 Sr0 2.880091 1_555
O2 Sr0 2.880091 1_545
O3 Y0 2.200878 1_555
O3 Sr0 2.880091 1_455
O3 Sr0 2.880091 1_554
O4 Y0 2.200878 1_555
O4 Sr0 2.880091 1_554
O4 Sr0 2.880091 1_555
O5 Y0 2.200878 1_555
O5 Sr0 2.880091 1_455
O5 Sr0 2.880091 1_545
