# generated using pymatgen
data_CsMg30SiO32
_symmetry_space_group_name_H-M   'P 1'
_cell_length_a   8.67205200
_cell_length_b   8.67205200
_cell_length_c   8.70247200
_cell_angle_alpha   90.00000000
_cell_angle_beta   90.00000000
_cell_angle_gamma   90.00000000
_symmetry_Int_Tables_number   1
_chemical_formula_structural   CsMg30SiO32
_chemical_formula_sum   'Cs1 Mg30 Si1 O32'
_cell_volume   654.46493274
_cell_formula_units_Z   1
loop_
 _symmetry_equiv_pos_site_id
 _symmetry_equiv_pos_as_xyz
  1  'x, y, z'
loop_
 _atom_site_type_symbol
 _atom_site_label
 _atom_site_symmetry_multiplicity
 _atom_site_fract_x
 _atom_site_fract_y
 _atom_site_fract_z
 _atom_site_occupancy
  Cs  Cs0  1  0.50000000  0.50000000  0.00000000  1
  Mg  Mg0  1  0.00000000  0.50000000  0.00000000  1
  Mg  Mg1  1  0.50000000  0.00000000  0.00000000  1
  Mg  Mg2  1  0.00000000  0.00000000  0.50000000  1
  Mg  Mg3  1  0.00000000  0.50000000  0.50000000  1
  Mg  Mg4  1  0.50000000  0.00000000  0.50000000  1
  Mg  Mg5  1  0.50000000  0.50000000  0.50000000  1
  Mg  Mg6  1  0.24750000  0.24750000  0.00000000  1
  Mg  Mg7  1  0.24750000  0.75250000  0.00000000  1
  Mg  Mg8  1  0.75250000  0.24750000  0.00000000  1
  Mg  Mg9  1  0.75250000  0.75250000  0.00000000  1
  Mg  Mg10  1  0.25058500  0.25058500  0.50000000  1
  Mg  Mg11  1  0.25058500  0.74941500  0.50000000  1
  Mg  Mg12  1  0.74941500  0.25058500  0.50000000  1
  Mg  Mg13  1  0.74941500  0.74941500  0.50000000  1
  Mg  Mg14  1  0.00000000  0.25093800  0.25315500  1
  Mg  Mg15  1  0.00000000  0.74906200  0.25315500  1
  Mg  Mg16  1  0.50000000  0.24654900  0.25641000  1
  Mg  Mg17  1  0.50000000  0.75345100  0.25641000  1
  Mg  Mg18  1  0.00000000  0.25093800  0.74684500  1
  Mg  Mg19  1  0.00000000  0.74906200  0.74684500  1
  Mg  Mg20  1  0.50000000  0.24654900  0.74359000  1
  Mg  Mg21  1  0.50000000  0.75345100  0.74359000  1
  Mg  Mg22  1  0.25093800  0.00000000  0.25315500  1
  Mg  Mg23  1  0.24654900  0.50000000  0.25641000  1
  Mg  Mg24  1  0.74906200  0.00000000  0.25315500  1
  Mg  Mg25  1  0.75345100  0.50000000  0.25641000  1
  Mg  Mg26  1  0.25093800  0.00000000  0.74684500  1
  Mg  Mg27  1  0.24654900  0.50000000  0.74359000  1
  Mg  Mg28  1  0.74906200  0.00000000  0.74684500  1
  Mg  Mg29  1  0.75345100  0.50000000  0.74359000  1
  Si  Si0  1  0.00000000  0.00000000  0.00000000  1
  O  O0  1  0.00000000  0.00000000  0.22745300  1
  O  O1  1  0.00000000  0.50000000  0.25538500  1
  O  O2  1  0.50000000  0.00000000  0.25538500  1
  O  O3  1  0.50000000  0.50000000  0.28522800  1
  O  O4  1  0.00000000  0.00000000  0.77254700  1
  O  O5  1  0.00000000  0.50000000  0.74461500  1
  O  O6  1  0.50000000  0.00000000  0.74461500  1
  O  O7  1  0.50000000  0.50000000  0.71477200  1
  O  O8  1  0.24934800  0.24934800  0.24893600  1
  O  O9  1  0.24934800  0.75065200  0.24893600  1
  O  O10  1  0.75065200  0.24934800  0.24893600  1
  O  O11  1  0.75065200  0.75065200  0.24893600  1
  O  O12  1  0.24934800  0.24934800  0.75106400  1
  O  O13  1  0.24934800  0.75065200  0.75106400  1
  O  O14  1  0.75065200  0.24934800  0.75106400  1
  O  O15  1  0.75065200  0.75065200  0.75106400  1
  O  O16  1  0.00000000  0.21434100  0.00000000  1
  O  O17  1  0.00000000  0.78565900  0.00000000  1
  O  O18  1  0.50000000  0.21290800  0.00000000  1
  O  O19  1  0.50000000  0.78709200  0.00000000  1
  O  O20  1  0.00000000  0.24394800  0.50000000  1
  O  O21  1  0.00000000  0.75605200  0.50000000  1
  O  O22  1  0.50000000  0.24169300  0.50000000  1
  O  O23  1  0.50000000  0.75830700  0.50000000  1
  O  O24  1  0.21434100  0.00000000  0.00000000  1
  O  O25  1  0.21290800  0.50000000  0.00000000  1
  O  O26  1  0.78565900  0.00000000  0.00000000  1
  O  O27  1  0.78709200  0.50000000  0.00000000  1
  O  O28  1  0.24394800  0.00000000  0.50000000  1
  O  O29  1  0.24169300  0.50000000  0.50000000  1
  O  O30  1  0.75605200  0.00000000  0.50000000  1
  O  O31  1  0.75830700  0.50000000  0.50000000  1
loop_
_geom_bond_atom_site_label_1
_geom_bond_atom_site_label_2
_geom_bond_distance
_geom_bond_site_symmetry_2
Cs0 O3 2.482189 1_555
Cs0 O7 2.482189 1_554
Cs0 O18 2.489677 1_555
Cs0 O19 2.489677 1_555
Cs0 O27 2.489677 1_555
Cs0 O25 2.489677 1_555
Mg0 O25 1.846349 1_555
Mg0 O27 1.846349 1_455
Mg0 O1 2.222481 1_555
Mg0 O5 2.222481 1_554
Mg0 O17 2.477250 1_555
Mg0 O16 2.477250 1_555
Mg1 O19 1.846349 1_545
Mg1 O18 1.846349 1_555
Mg1 O6 2.222481 1_554
Mg1 O2 2.222481 1_555
Mg1 O24 2.477250 1_555
Mg1 O26 2.477250 1_555
Mg2 O20 2.115530 1_555
Mg2 O28 2.115530 1_555
Mg2 O30 2.115530 1_455
Mg2 O21 2.115530 1_545
Mg2 O0 2.371833 1_555
Mg2 O4 2.371833 1_555
Mg3 O29 2.095974 1_555
Mg3 O31 2.095974 1_455
Mg3 O1 2.128755 1_555
Mg3 O5 2.128755 1_555
Mg3 O21 2.220496 1_555
Mg3 O20 2.220496 1_555
Mg4 O22 2.095974 1_555
Mg4 O23 2.095974 1_545
Mg4 O6 2.128755 1_555
Mg4 O2 2.128755 1_555
Mg4 O30 2.220496 1_555
Mg4 O28 2.220496 1_555
Mg5 O7 1.869047 1_555
Mg5 O3 1.869047 1_555
Mg5 O31 2.240052 1_555
Mg5 O23 2.240052 1_555
Mg5 O22 2.240052 1_555
Mg5 O29 2.240052 1_555
Mg6 O24 2.165510 1_555
Mg6 O16 2.165510 1_555
Mg6 O8 2.166477 1_555
Mg6 O12 2.166477 1_554
Mg6 O25 2.210146 1_555
Mg6 O18 2.210146 1_555
Mg7 O17 2.165510 1_555
Mg7 O24 2.165510 1_565
Mg7 O9 2.166477 1_555
Mg7 O13 2.166477 1_554
Mg7 O25 2.210146 1_555
Mg7 O19 2.210146 1_555
Mg8 O26 2.165510 1_555
Mg8 O16 2.165510 1_655
Mg8 O10 2.166477 1_555
Mg8 O14 2.166477 1_554
Mg8 O18 2.210146 1_555
Mg8 O27 2.210146 1_555
Mg9 O26 2.165510 1_565
Mg9 O17 2.165510 1_655
Mg9 O11 2.166477 1_555
Mg9 O15 2.166477 1_554
Mg9 O27 2.210146 1_555
Mg9 O19 2.210146 1_555
Mg10 O22 2.164314 1_555
Mg10 O29 2.164314 1_555
Mg10 O20 2.173848 1_555
Mg10 O28 2.173848 1_555
Mg10 O12 2.184930 1_555
Mg10 O8 2.184930 1_555
Mg11 O23 2.164314 1_555
Mg11 O29 2.164314 1_555
Mg11 O28 2.173848 1_565
Mg11 O21 2.173848 1_555
Mg11 O13 2.184930 1_555
Mg11 O9 2.184930 1_555
Mg12 O31 2.164314 1_555
Mg12 O22 2.164314 1_555
Mg12 O20 2.173848 1_655
Mg12 O30 2.173848 1_555
Mg12 O14 2.184930 1_555
Mg12 O10 2.184930 1_555
Mg13 O23 2.164314 1_555
Mg13 O31 2.164314 1_555
Mg13 O21 2.173848 1_655
Mg13 O30 2.173848 1_565
Mg13 O15 2.184930 1_555
Mg13 O11 2.184930 1_555
Mg14 O20 2.149017 1_555
Mg14 O1 2.159966 1_555
Mg14 O8 2.162714 1_555
Mg14 O10 2.162714 1_455
Mg14 O0 2.187612 1_555
Mg14 O16 2.225817 1_555
Mg15 O21 2.149017 1_555
Mg15 O1 2.159966 1_555
Mg15 O9 2.162714 1_555
Mg15 O11 2.162714 1_455
Mg15 O0 2.187612 1_565
Mg15 O17 2.225817 1_555
Mg16 O22 2.120253 1_555
Mg16 O2 2.138104 1_555
Mg16 O10 2.174776 1_555
Mg16 O8 2.174776 1_555
Mg16 O3 2.212202 1_555
Mg16 O18 2.250391 1_555
Mg17 O23 2.120253 1_555
Mg17 O2 2.138104 1_565
Mg17 O11 2.174776 1_555
Mg17 O9 2.174776 1_555
Mg17 O3 2.212202 1_555
Mg17 O19 2.250391 1_555
Mg18 O20 2.149017 1_555
Mg18 O5 2.159966 1_555
Mg18 O12 2.162714 1_555
Mg18 O14 2.162714 1_455
Mg18 O4 2.187612 1_555
Mg18 O16 2.225817 1_556
Mg19 O21 2.149017 1_555
Mg19 O5 2.159966 1_555
Mg19 O13 2.162714 1_555
Mg19 O15 2.162714 1_455
Mg19 O4 2.187612 1_565
Mg19 O17 2.225817 1_556
Mg20 O22 2.120253 1_555
Mg20 O6 2.138104 1_555
Mg20 O14 2.174776 1_555
Mg20 O12 2.174776 1_555
Mg20 O7 2.212202 1_555
Mg20 O18 2.250391 1_556
Mg21 O23 2.120253 1_555
Mg21 O6 2.138104 1_565
Mg21 O15 2.174776 1_555
Mg21 O13 2.174776 1_555
Mg21 O7 2.212202 1_555
Mg21 O19 2.250391 1_556
Mg22 O28 2.149017 1_555
Mg22 O2 2.159966 1_555
Mg22 O8 2.162714 1_555
Mg22 O9 2.162714 1_545
Mg22 O0 2.187612 1_555
Mg22 O24 2.225817 1_555
Mg23 O29 2.120253 1_555
Mg23 O1 2.138104 1_555
Mg23 O8 2.174776 1_555
Mg23 O9 2.174776 1_555
Mg23 O3 2.212202 1_555
Mg23 O25 2.250391 1_555
Mg24 O30 2.149017 1_555
Mg24 O2 2.159966 1_555
Mg24 O10 2.162714 1_555
Mg24 O11 2.162714 1_545
Mg24 O0 2.187612 1_655
Mg24 O26 2.225817 1_555
Mg25 O31 2.120253 1_555
Mg25 O1 2.138104 1_655
Mg25 O10 2.174776 1_555
Mg25 O11 2.174776 1_555
Mg25 O3 2.212202 1_555
Mg25 O27 2.250391 1_555
Mg26 O28 2.149017 1_555
Mg26 O6 2.159966 1_555
Mg26 O12 2.162714 1_555
Mg26 O13 2.162714 1_545
Mg26 O4 2.187612 1_555
Mg26 O24 2.225817 1_556
Mg27 O29 2.120253 1_555
Mg27 O5 2.138104 1_555
Mg27 O13 2.174776 1_555
Mg27 O12 2.174776 1_555
Mg27 O7 2.212202 1_555
Mg27 O25 2.250391 1_556
Mg28 O30 2.149017 1_555
Mg28 O6 2.159966 1_555
Mg28 O14 2.162714 1_555
Mg28 O15 2.162714 1_545
Mg28 O4 2.187612 1_655
Mg28 O26 2.225817 1_556
Mg29 O31 2.120253 1_555
Mg29 O5 2.138104 1_655
Mg29 O14 2.174776 1_555
Mg29 O15 2.174776 1_555
Mg29 O7 2.212202 1_555
Mg29 O27 2.250391 1_556
O0 Si0 1.979403 1_555
O4 Si0 1.979403 1_556
O16 Si0 1.858776 1_555
O17 Si0 1.858776 1_565
O24 Si0 1.858776 1_555
O26 Si0 1.858776 1_655
