# generated using pymatgen
data_Y2Fe17
_symmetry_space_group_name_H-M   'P 1'
_cell_length_a   8.52030785
_cell_length_b   8.52030785
_cell_length_c   8.21171400
_cell_angle_alpha   90.00000000
_cell_angle_beta   90.00000000
_cell_angle_gamma   119.99999882
_symmetry_Int_Tables_number   1
_chemical_formula_structural   Y2Fe17
_chemical_formula_sum   'Y4 Fe34'
_cell_volume   516.26778406
_cell_formula_units_Z   2
loop_
 _symmetry_equiv_pos_site_id
 _symmetry_equiv_pos_as_xyz
  1  'x, y, z'
loop_
 _atom_site_type_symbol
 _atom_site_label
 _atom_site_symmetry_multiplicity
 _atom_site_fract_x
 _atom_site_fract_y
 _atom_site_fract_z
 _atom_site_occupancy
  Y  Y0  1  0.00000000  0.00000000  0.25000000  1
  Y  Y1  1  0.00000000  0.00000000  0.75000000  1
  Y  Y2  1  0.33333300  0.66666700  0.75000000  1
  Y  Y3  1  0.66666700  0.33333300  0.25000000  1
  Fe  Fe0  1  0.33333300  0.66666700  0.39354500  1
  Fe  Fe1  1  0.66666700  0.33333300  0.60645500  1
  Fe  Fe2  1  0.66666700  0.33333300  0.89354500  1
  Fe  Fe3  1  0.33333300  0.66666700  0.10645500  1
  Fe  Fe4  1  0.50000000  0.50000000  0.50000000  1
  Fe  Fe5  1  0.50000000  0.00000000  0.50000000  1
  Fe  Fe6  1  0.00000000  0.50000000  0.50000000  1
  Fe  Fe7  1  0.50000000  0.50000000  0.00000000  1
  Fe  Fe8  1  0.50000000  0.00000000  0.00000000  1
  Fe  Fe9  1  0.00000000  0.50000000  0.00000000  1
  Fe  Fe10  1  0.32875800  0.36904000  0.25000000  1
  Fe  Fe11  1  0.63096000  0.95971900  0.25000000  1
  Fe  Fe12  1  0.04028100  0.67124200  0.25000000  1
  Fe  Fe13  1  0.63096000  0.67124200  0.25000000  1
  Fe  Fe14  1  0.04028100  0.36904000  0.25000000  1
  Fe  Fe15  1  0.32875800  0.95971900  0.25000000  1
  Fe  Fe16  1  0.67124200  0.63096000  0.75000000  1
  Fe  Fe17  1  0.36904000  0.04028100  0.75000000  1
  Fe  Fe18  1  0.95971900  0.32875800  0.75000000  1
  Fe  Fe19  1  0.36904000  0.32875800  0.75000000  1
  Fe  Fe20  1  0.95971900  0.63096000  0.75000000  1
  Fe  Fe21  1  0.67124200  0.04028100  0.75000000  1
  Fe  Fe22  1  0.16615900  0.83384100  0.51641800  1
  Fe  Fe23  1  0.16615900  0.33231900  0.51641800  1
  Fe  Fe24  1  0.66768100  0.83384100  0.51641800  1
  Fe  Fe25  1  0.83384100  0.16615900  0.48358200  1
  Fe  Fe26  1  0.83384100  0.66768100  0.48358200  1
  Fe  Fe27  1  0.33231900  0.16615900  0.48358200  1
  Fe  Fe28  1  0.83384100  0.16615900  0.01641800  1
  Fe  Fe29  1  0.83384100  0.66768100  0.01641800  1
  Fe  Fe30  1  0.33231900  0.16615900  0.01641800  1
  Fe  Fe31  1  0.16615900  0.83384100  0.98358200  1
  Fe  Fe32  1  0.16615900  0.33231900  0.98358200  1
  Fe  Fe33  1  0.66768100  0.83384100  0.98358200  1
loop_
_geom_bond_atom_site_label_1
_geom_bond_atom_site_label_2
_geom_bond_distance
_geom_bond_site_symmetry_2
Fe0 Fe3 2.357501 1_555
Fe0 Fe6 2.610328 1_555
Fe0 Fe5 2.610328 1_565
Fe0 Fe4 2.610335 1_555
Fe0 Fe22 2.665446 1_555
Fe0 Fe24 2.665446 1_555
Fe0 Fe23 2.665446 1_555
Fe0 Fe15 2.778989 1_555
Fe0 Fe12 2.778989 1_555
Fe0 Fe13 2.778989 1_555
Fe0 Fe10 2.778989 1_555
Fe0 Fe14 2.778989 1_555
Fe0 Fe11 2.778989 1_555
Fe0 Y2 2.927107 1_555
Fe1 Fe2 2.357501 1_555
Fe1 Fe5 2.610328 1_555
Fe1 Fe6 2.610328 1_655
Fe1 Fe4 2.610335 1_555
Fe1 Fe25 2.665446 1_555
Fe1 Fe26 2.665446 1_555
Fe1 Fe27 2.665446 1_555
Fe1 Fe21 2.778989 1_555
Fe1 Fe18 2.778989 1_555
Fe1 Fe16 2.778989 1_555
Fe1 Fe19 2.778989 1_555
Fe1 Fe20 2.778989 1_555
Fe1 Fe17 2.778989 1_555
Fe1 Y3 2.927107 1_555
Fe2 Fe9 2.610328 1_656
Fe2 Fe8 2.610328 1_556
Fe2 Fe7 2.610335 1_556
Fe2 Fe28 2.665446 1_556
Fe2 Fe29 2.665446 1_556
Fe2 Fe30 2.665446 1_556
Fe2 Fe21 2.778989 1_555
Fe2 Fe20 2.778989 1_555
Fe2 Y3 2.927107 1_556
Fe3 Fe8 2.610328 1_565
Fe3 Fe9 2.610328 1_555
Fe3 Fe7 2.610335 1_555
Fe3 Fe31 2.665446 1_554
Fe3 Fe33 2.665446 1_554
Fe3 Fe32 2.665446 1_554
Fe3 Y2 2.927107 1_554
Fe4 Y2 3.203775 1_555
Fe4 Y3 3.203775 1_555
Fe5 Y2 3.203770 1_545
Fe5 Y3 3.203770 1_555
Fe6 Y3 3.203770 1_455
Fe6 Y2 3.203770 1_555
Fe7 Y2 3.203775 1_554
Fe7 Y3 3.203775 1_555
Fe8 Y2 3.203770 1_544
Fe8 Y3 3.203770 1_555
Fe9 Y3 3.203770 1_455
Fe9 Y2 3.203770 1_554
Fe10 Fe4 2.441379 1_555
Fe10 Fe7 2.441379 1_555
Fe10 Fe14 2.457913 1_555
Fe10 Fe32 2.523885 1_554
Fe10 Fe23 2.523885 1_555
Fe10 Fe13 2.574854 1_555
Fe10 Fe30 2.592411 1_555
Fe10 Fe27 2.592411 1_555
Fe10 Fe3 2.778989 1_555
Fe10 Y0 2.987550 1_555
Fe10 Y3 3.042635 1_555
Fe11 Fe8 2.441376 1_565
Fe11 Fe5 2.441376 1_565
Fe11 Fe13 2.457913 1_555
Fe11 Fe33 2.523885 1_554
Fe11 Fe24 2.523885 1_555
Fe11 Fe15 2.574854 1_555
Fe11 Fe28 2.592405 1_565
Fe11 Fe25 2.592405 1_565
Fe11 Fe3 2.778989 1_555
Fe11 Y0 2.987553 1_665
Fe11 Y3 3.042618 1_565
Fe12 Fe9 2.441380 1_555
Fe12 Fe6 2.441380 1_555
Fe12 Fe15 2.457913 1_555
Fe12 Fe31 2.523885 1_554
Fe12 Fe22 2.523885 1_555
Fe12 Fe14 2.574854 1_555
Fe12 Fe29 2.592400 1_455
Fe12 Fe26 2.592400 1_455
Fe12 Fe3 2.778989 1_555
Fe12 Y0 2.987545 1_565
Fe12 Y3 3.042625 1_455
Fe13 Fe4 2.441379 1_555
Fe13 Fe7 2.441379 1_555
Fe13 Fe33 2.523885 1_554
Fe13 Fe24 2.523885 1_555
Fe13 Fe26 2.592411 1_555
Fe13 Fe29 2.592411 1_555
Fe13 Fe3 2.778989 1_555
Fe13 Y0 2.987550 1_665
Fe13 Y3 3.042635 1_555
Fe14 Fe9 2.441376 1_555
Fe14 Fe6 2.441376 1_555
Fe14 Fe32 2.523885 1_554
Fe14 Fe23 2.523885 1_555
Fe14 Fe28 2.592405 1_455
Fe14 Fe25 2.592405 1_455
Fe14 Fe3 2.778989 1_555
Fe14 Y0 2.987553 1_555
Fe14 Y3 3.042618 1_455
Fe15 Fe8 2.441380 1_565
Fe15 Fe5 2.441380 1_565
Fe15 Fe31 2.523885 1_554
Fe15 Fe22 2.523885 1_555
Fe15 Fe30 2.592400 1_565
Fe15 Fe27 2.592400 1_565
Fe15 Fe3 2.778989 1_555
Fe15 Y0 2.987545 1_565
Fe15 Y3 3.042625 1_565
Fe16 Fe4 2.441379 1_555
Fe16 Fe7 2.441379 1_556
Fe16 Fe20 2.457913 1_555
Fe16 Fe26 2.523885 1_555
Fe16 Fe29 2.523885 1_556
Fe16 Fe19 2.574854 1_555
Fe16 Fe33 2.592411 1_555
Fe16 Fe24 2.592411 1_555
Fe16 Fe2 2.778989 1_555
Fe16 Y1 2.987550 1_665
Fe16 Y2 3.042635 1_555
Fe17 Fe5 2.441376 1_555
Fe17 Fe8 2.441376 1_556
Fe17 Fe19 2.457913 1_555
Fe17 Fe27 2.523885 1_555
Fe17 Fe30 2.523885 1_556
Fe17 Fe21 2.574854 1_555
Fe17 Fe31 2.592405 1_545
Fe17 Fe22 2.592405 1_545
Fe17 Fe2 2.778989 1_555
Fe17 Y1 2.987553 1_555
Fe17 Y2 3.042618 1_545
Fe18 Fe9 2.441380 1_656
Fe18 Fe6 2.441380 1_655
Fe18 Fe21 2.457913 1_555
Fe18 Fe25 2.523885 1_555
Fe18 Fe28 2.523885 1_556
Fe18 Fe20 2.574854 1_555
Fe18 Fe23 2.592400 1_655
Fe18 Fe32 2.592400 1_655
Fe18 Fe2 2.778989 1_555
Fe18 Y1 2.987545 1_655
Fe18 Y2 3.042625 1_655
Fe19 Fe4 2.441379 1_555
Fe19 Fe7 2.441379 1_556
Fe19 Fe27 2.523885 1_555
Fe19 Fe30 2.523885 1_556
Fe19 Fe32 2.592411 1_555
Fe19 Fe23 2.592411 1_555
Fe19 Fe2 2.778989 1_555
Fe19 Y1 2.987550 1_555
Fe19 Y2 3.042635 1_555
Fe20 Fe6 2.441376 1_655
Fe20 Fe9 2.441376 1_656
Fe20 Fe26 2.523885 1_555
Fe20 Fe29 2.523885 1_556
Fe20 Fe22 2.592405 1_655
Fe20 Fe31 2.592405 1_655
Fe20 Y1 2.987553 1_665
Fe20 Y2 3.042618 1_655
Fe21 Fe5 2.441380 1_555
Fe21 Fe8 2.441380 1_556
Fe21 Fe25 2.523885 1_555
Fe21 Fe28 2.523885 1_556
Fe21 Fe33 2.592400 1_545
Fe21 Fe24 2.592400 1_545
Fe21 Y1 2.987545 1_655
Fe21 Y2 3.042625 1_545
Fe22 Fe27 2.466890 1_565
Fe22 Fe26 2.466890 1_455
Fe22 Fe5 2.467042 1_565
Fe22 Fe6 2.467042 1_555
Fe22 Y1 3.113194 1_565
Fe22 Y2 3.125006 1_555
Fe22 Y0 3.286196 1_565
Fe23 Fe25 2.466890 1_455
Fe23 Fe27 2.466904 1_555
Fe23 Fe6 2.467035 1_555
Fe23 Fe4 2.467042 1_555
Fe23 Y1 3.113200 1_555
Fe23 Y2 3.125006 1_555
Fe23 Y0 3.286201 1_555
Fe24 Fe25 2.466890 1_565
Fe24 Fe26 2.466904 1_555
Fe24 Fe5 2.467035 1_565
Fe24 Fe4 2.467042 1_555
Fe24 Y1 3.113200 1_665
Fe24 Y2 3.125006 1_555
Fe24 Y0 3.286201 1_665
Fe25 Fe6 2.467042 1_655
Fe25 Fe5 2.467042 1_555
Fe25 Y0 3.113194 1_655
Fe25 Y3 3.125006 1_555
Fe25 Y1 3.286196 1_655
Fe26 Fe6 2.467035 1_655
Fe26 Fe4 2.467042 1_555
Fe26 Y0 3.113200 1_665
Fe26 Y3 3.125006 1_555
Fe26 Y1 3.286201 1_665
Fe27 Fe5 2.467035 1_555
Fe27 Fe4 2.467042 1_555
Fe27 Y0 3.113200 1_555
Fe27 Y3 3.125006 1_555
Fe27 Y1 3.286201 1_555
Fe28 Fe33 2.466890 1_544
Fe28 Fe32 2.466890 1_654
Fe28 Fe9 2.467042 1_655
Fe28 Fe8 2.467042 1_555
Fe28 Y0 3.113194 1_655
Fe28 Y3 3.125006 1_555
Fe28 Y1 3.286196 1_654
Fe29 Fe31 2.466890 1_654
Fe29 Fe33 2.466904 1_554
Fe29 Fe9 2.467035 1_655
Fe29 Fe7 2.467042 1_555
Fe29 Y0 3.113200 1_665
Fe29 Y3 3.125006 1_555
Fe29 Y1 3.286201 1_664
Fe30 Fe31 2.466890 1_544
Fe30 Fe32 2.466904 1_554
Fe30 Fe8 2.467035 1_555
Fe30 Fe7 2.467042 1_555
Fe30 Y0 3.113200 1_555
Fe30 Y3 3.125006 1_555
Fe30 Y1 3.286201 1_554
Fe31 Fe8 2.467042 1_566
Fe31 Fe9 2.467042 1_556
Fe31 Y1 3.113194 1_565
Fe31 Y2 3.125006 1_555
Fe31 Y0 3.286196 1_566
Fe32 Fe9 2.467035 1_556
Fe32 Fe7 2.467042 1_556
Fe32 Y1 3.113200 1_555
Fe32 Y2 3.125006 1_555
Fe32 Y0 3.286201 1_556
Fe33 Fe8 2.467035 1_566
Fe33 Fe7 2.467042 1_556
Fe33 Y1 3.113200 1_665
Fe33 Y2 3.125006 1_555
Fe33 Y0 3.286201 1_666
