# generated using pymatgen
data_HfNb2VC4
_symmetry_space_group_name_H-M   'P 1'
_cell_length_a   10.43246514
_cell_length_b   10.43246514
_cell_length_c   10.43246505
_cell_angle_alpha   17.41386407
_cell_angle_beta   17.41386407
_cell_angle_gamma   17.41386529
_symmetry_Int_Tables_number   1
_chemical_formula_structural   HfNb2VC4
_chemical_formula_sum   'Hf1 Nb2 V1 C4'
_cell_volume   88.74675770
_cell_formula_units_Z   1
loop_
 _symmetry_equiv_pos_site_id
 _symmetry_equiv_pos_as_xyz
  1  'x, y, z'
loop_
 _atom_site_type_symbol
 _atom_site_label
 _atom_site_symmetry_multiplicity
 _atom_site_fract_x
 _atom_site_fract_y
 _atom_site_fract_z
 _atom_site_occupancy
  Hf  Hf0  1  0.00300700  0.00300700  0.00300700  1
  Nb  Nb0  1  0.49703100  0.49703100  0.49703100  1
  Nb  Nb1  1  0.24868000  0.24868000  0.24868000  1
  V  V0  1  0.75167100  0.75167100  0.75167100  1
  C  C0  1  0.87317400  0.87317400  0.87317400  1
  C  C1  1  0.62475000  0.62475000  0.62475000  1
  C  C2  1  0.38028400  0.38028400  0.38028400  1
  C  C3  1  0.12140300  0.12140300  0.12140300  1
loop_
_geom_bond_atom_site_label_1
_geom_bond_atom_site_label_2
_geom_bond_distance
_geom_bond_site_symmetry_2
C0 Nb1 2.239275 1_665
C0 Nb1 2.239275 1_656
C0 Nb1 2.239275 1_566
C0 Nb0 2.250724 1_556
C0 Nb0 2.250724 1_655
C0 Nb0 2.250724 1_565
C1 Nb1 2.249406 1_556
C1 Nb1 2.249406 1_655
C1 Nb1 2.249406 1_565
C1 Hf0 2.289515 1_665
C1 Hf0 2.289515 1_566
C1 Hf0 2.289515 1_656
C2 V0 2.168077 1_554
C2 V0 2.168077 1_545
C2 V0 2.168077 1_455
C2 Hf0 2.271383 1_556
C2 Hf0 2.271383 1_565
C2 Hf0 2.271383 1_655
C3 V0 2.140922 1_445
C3 V0 2.140923 1_454
C3 V0 2.140923 1_544
C3 Nb0 2.241459 1_554
C3 Nb0 2.241459 1_455
C3 Nb0 2.241459 1_545
