# generated using pymatgen
data_Sr2EuBiO6
_symmetry_space_group_name_H-M   'P 1'
_cell_length_a   5.97331410
_cell_length_b   6.16451400
_cell_length_c   8.55512909
_cell_angle_alpha   90.00000000
_cell_angle_beta   89.93675650
_cell_angle_gamma   90.00000000
_symmetry_Int_Tables_number   1
_chemical_formula_structural   Sr2EuBiO6
_chemical_formula_sum   'Sr4 Eu2 Bi2 O12'
_cell_volume   315.02172004
_cell_formula_units_Z   2
loop_
 _symmetry_equiv_pos_site_id
 _symmetry_equiv_pos_as_xyz
  1  'x, y, z'
loop_
 _atom_site_type_symbol
 _atom_site_label
 _atom_site_symmetry_multiplicity
 _atom_site_fract_x
 _atom_site_fract_y
 _atom_site_fract_z
 _atom_site_occupancy
  Sr  Sr0  1  0.01356100  0.45030100  0.25306000  1
  Sr  Sr1  1  0.98643900  0.54969900  0.74694000  1
  Sr  Sr2  1  0.48643900  0.95030100  0.24694000  1
  Sr  Sr3  1  0.51356100  0.04969900  0.75306000  1
  Eu  Eu0  1  0.00000000  0.00000000  0.50000000  1
  Eu  Eu1  1  0.50000000  0.50000000  0.00000000  1
  Bi  Bi0  1  0.00000000  0.00000000  0.00000000  1
  Bi  Bi1  1  0.50000000  0.50000000  0.50000000  1
  O  O0  1  0.89927300  0.04371400  0.23942900  1
  O  O1  1  0.10072700  0.95628600  0.76057100  1
  O  O2  1  0.60072700  0.54371400  0.26057100  1
  O  O3  1  0.39927300  0.45628600  0.73942900  1
  O  O4  1  0.19263600  0.71582900  0.05832500  1
  O  O5  1  0.80736400  0.28417100  0.94167500  1
  O  O6  1  0.30736400  0.21582900  0.44167500  1
  O  O7  1  0.69263600  0.78417100  0.55832500  1
  O  O8  1  0.28979800  0.19430700  0.04810700  1
  O  O9  1  0.71020200  0.80569300  0.95189300  1
  O  O10  1  0.21020200  0.69430700  0.45189300  1
  O  O11  1  0.78979800  0.30569300  0.54810700  1
loop_
_geom_bond_atom_site_label_1
_geom_bond_atom_site_label_2
_geom_bond_distance
_geom_bond_site_symmetry_2
Eu0 O10 2.301288 1_545
Eu0 O11 2.301288 1_455
Eu0 O6 2.321199 1_555
Eu0 O7 2.321199 1_445
Eu0 O0 2.325297 1_455
Eu0 O1 2.325297 1_545
Eu1 O9 2.301288 1_554
Eu1 O8 2.301288 1_555
Eu1 O4 2.321199 1_555
Eu1 O5 2.321199 1_554
Eu1 O2 2.325297 1_555
Eu1 O3 2.325297 1_554
Bi0 O8 2.145286 1_555
Bi0 O9 2.145286 1_444
Bi0 O0 2.151193 1_455
Bi0 O1 2.151193 1_544
Bi0 O5 2.154767 1_454
Bi0 O4 2.154767 1_545
Bi1 O10 2.145286 1_555
Bi1 O11 2.145286 1_555
Bi1 O2 2.151193 1_555
Bi1 O3 2.151193 1_555
Bi1 O7 2.154767 1_555
Bi1 O6 2.154767 1_555
O0 Sr2 2.533075 1_545
O0 Sr0 2.600370 1_655
O1 Sr3 2.533075 1_565
O1 Sr1 2.600370 1_455
O2 Sr0 2.533075 1_655
O2 Sr2 2.600370 1_555
O3 Sr1 2.533075 1_455
O3 Sr3 2.600370 1_555
O4 Sr0 2.568082 1_555
O4 Sr2 2.789119 1_555
O4 Sr1 3.109606 1_454
O5 Sr1 2.568082 1_555
O5 Sr3 2.789119 1_555
O5 Sr0 3.109606 1_656
O6 Sr2 2.568082 1_545
O6 Sr0 2.789119 1_555
O6 Sr3 3.109606 1_555
O7 Sr3 2.568082 1_565
O7 Sr1 2.789119 1_555
O7 Sr2 3.109606 1_555
O8 Sr2 2.557379 1_545
O8 Sr0 2.877676 1_555
O8 Sr3 2.990843 1_554
O9 Sr3 2.557379 1_565
O9 Sr1 2.877676 1_555
O9 Sr2 2.990843 1_556
O10 Sr0 2.557379 1_555
O10 Sr2 2.877676 1_555
O10 Sr1 2.990843 1_455
O11 Sr1 2.557379 1_555
O11 Sr3 2.877676 1_555
O11 Sr0 2.990843 1_655
