# generated using pymatgen
data_Nd2CoNiO6
_symmetry_space_group_name_H-M   'P 1'
_cell_length_a   5.61993400
_cell_length_b   5.42834700
_cell_length_c   9.39619848
_cell_angle_alpha   54.86985012
_cell_angle_beta   90.00000000
_cell_angle_gamma   90.00000000
_symmetry_Int_Tables_number   1
_chemical_formula_structural   Nd2CoNiO6
_chemical_formula_sum   'Nd4 Co2 Ni2 O12'
_cell_volume   234.43533920
_cell_formula_units_Z   2
loop_
 _symmetry_equiv_pos_site_id
 _symmetry_equiv_pos_as_xyz
  1  'x, y, z'
loop_
 _atom_site_type_symbol
 _atom_site_label
 _atom_site_symmetry_multiplicity
 _atom_site_fract_x
 _atom_site_fract_y
 _atom_site_fract_z
 _atom_site_occupancy
  Nd  Nd0  1  0.55541800  0.73596100  0.75040100  1
  Nd  Nd1  1  0.05541800  0.26403900  0.74959900  1
  Nd  Nd2  1  0.44458200  0.26403900  0.24959900  1
  Nd  Nd3  1  0.94458200  0.73596100  0.25040100  1
  Co  Co0  1  0.50000000  0.00000000  0.00000000  1
  Co  Co1  1  0.00000000  0.00000000  0.50000000  1
  Ni  Ni0  1  0.50000000  0.50000000  0.50000000  1
  Ni  Ni1  1  0.00000000  0.50000000  0.00000000  1
  O  O0  1  0.79207200  0.25404300  0.95416300  1
  O  O1  1  0.29207200  0.74595700  0.54583700  1
  O  O2  1  0.20005000  0.32400500  0.45753200  1
  O  O3  1  0.70005000  0.67599500  0.04246800  1
  O  O4  1  0.20792800  0.74595700  0.04583700  1
  O  O5  1  0.70792800  0.25404300  0.45416300  1
  O  O6  1  0.79995000  0.67599500  0.54246800  1
  O  O7  1  0.29995000  0.32400500  0.95753200  1
  O  O8  1  0.97961600  0.83885700  0.74325000  1
  O  O9  1  0.47961600  0.16114300  0.75675000  1
  O  O10  1  0.02038400  0.16114300  0.25675000  1
  O  O11  1  0.52038400  0.83885700  0.24325000  1
loop_
_geom_bond_atom_site_label_1
_geom_bond_atom_site_label_2
_geom_bond_distance
_geom_bond_site_symmetry_2
Nd0 O9 2.381287 1_565
Nd0 O1 2.401631 1_555
Nd0 O7 2.416817 1_555
Nd0 O8 2.440613 1_555
Nd0 O0 2.552214 1_555
Nd0 O6 2.558071 1_555
Nd0 O3 2.696263 1_556
Nd0 O5 2.717085 1_565
Nd1 O8 2.381287 1_445
Nd1 O0 2.401631 1_455
Nd1 O6 2.416817 1_455
Nd1 O9 2.440613 1_555
Nd1 O1 2.552214 1_555
Nd1 O7 2.558071 1_555
Nd1 O2 2.696263 1_555
Nd1 O4 2.717085 1_546
Nd2 O11 2.381287 1_545
Nd2 O5 2.401631 1_555
Nd2 O3 2.416817 1_555
Nd2 O10 2.440613 1_555
Nd2 O4 2.552214 1_555
Nd2 O2 2.558071 1_555
Nd2 O7 2.696263 1_554
Nd2 O1 2.717085 1_545
Nd3 O10 2.381287 1_665
Nd3 O4 2.401631 1_655
Nd3 O2 2.416817 1_655
Nd3 O11 2.440613 1_555
Nd3 O5 2.552214 1_555
Nd3 O3 2.558071 1_555
Nd3 O6 2.696263 1_555
Nd3 O0 2.717085 1_564
Co0 O11 1.923904 1_545
Co0 O9 1.923904 1_554
Co0 O7 1.925853 1_554
Co0 O3 1.925853 1_545
Co0 O0 2.024341 1_554
Co0 O4 2.024341 1_545
Co1 O10 1.923904 1_555
Co1 O8 1.923904 1_445
Co1 O2 1.925853 1_555
Co1 O6 1.925853 1_445
Co1 O5 2.024341 1_455
Co1 O1 2.024341 1_545
Ni0 O1 1.998844 1_555
Ni0 O5 1.998844 1_555
Ni0 O11 2.027210 1_555
Ni0 O9 2.027210 1_555
Ni0 O2 2.086210 1_555
Ni0 O6 2.086210 1_555
Ni1 O4 1.998844 1_555
Ni1 O0 1.998844 1_454
Ni1 O8 2.027210 1_454
Ni1 O10 2.027210 1_555
Ni1 O3 2.086210 1_455
Ni1 O7 2.086210 1_554
