# generated using pymatgen
data_CsFeO2
_symmetry_space_group_name_H-M   'P 1'
_cell_length_a   6.08200296
_cell_length_b   6.08200144
_cell_length_c   6.08200295
_cell_angle_alpha   90.00000000
_cell_angle_beta   60.00001658
_cell_angle_gamma   120.00001650
_symmetry_Int_Tables_number   1
_chemical_formula_structural   CsFeO2
_chemical_formula_sum   'Cs2 Fe2 O4'
_cell_volume   159.08336718
_cell_formula_units_Z   2
loop_
 _symmetry_equiv_pos_site_id
 _symmetry_equiv_pos_as_xyz
  1  'x, y, z'
loop_
 _atom_site_type_symbol
 _atom_site_label
 _atom_site_symmetry_multiplicity
 _atom_site_fract_x
 _atom_site_fract_y
 _atom_site_fract_z
 _atom_site_occupancy
  Cs  Cs0  1  0.75000000  0.37500000  0.37500000  1
  Cs  Cs1  1  0.25000000  0.62500000  0.62500000  1
  Fe  Fe0  1  0.74999900  0.87500100  0.87500100  1
  Fe  Fe1  1  0.25000100  0.12500000  0.12499800  1
  O  O0  1  0.50000000  0.50000000  -0.00000000  1
  O  O1  1  0.50000000  -0.00000000  -0.00000000  1
  O  O2  1  0.00000000  -0.00000000  0.50000000  1
  O  O3  1  0.00000000  -0.00000000  -0.00000000  1
loop_
_geom_bond_atom_site_label_1
_geom_bond_atom_site_label_2
_geom_bond_distance
_geom_bond_site_symmetry_2
Cs0 O2 3.565889 1_665
Cs0 O3 3.565889 1_665
Cs0 O1 3.565889 1_665
Cs0 O1 3.565890 1_555
Cs0 O2 3.565890 1_555
Cs0 O2 3.565890 1_655
Cs0 O0 3.565890 1_555
Cs0 O1 3.565890 1_556
Cs0 O3 3.565890 1_655
Cs0 O0 3.565891 1_556
Cs0 O3 3.565891 1_556
Cs0 O0 3.565891 1_655
Cs1 O2 3.565889 1_555
Cs1 O3 3.565889 1_556
Cs1 O1 3.565889 1_456
Cs1 O1 3.565890 1_566
Cs1 O2 3.565890 1_665
Cs1 O2 3.565890 1_565
Cs1 O0 3.565890 1_556
Cs1 O1 3.565890 1_565
Cs1 O3 3.565890 1_566
Cs1 O0 3.565891 1_555
Cs1 O3 3.565891 1_665
Cs1 O0 3.565891 1_456
Fe0 O1 1.862216 1_566
Fe0 O3 1.862225 1_666
Fe0 O0 1.862230 1_556
Fe0 O2 1.862231 1_665
Fe1 O3 1.862220 1_555
Fe1 O1 1.862221 1_555
Fe1 O0 1.862225 1_555
Fe1 O2 1.862236 1_555
