# generated using pymatgen
data_Lu5Re2C7
_symmetry_space_group_name_H-M   'P 1'
_cell_length_a   8.10525798
_cell_length_b   8.10525798
_cell_length_c   3.33040360
_cell_angle_alpha   90.00000000
_cell_angle_beta   90.00000000
_cell_angle_gamma   121.66490717
_symmetry_Int_Tables_number   1
_chemical_formula_structural   Lu5Re2C7
_chemical_formula_sum   'Lu5 Re2 C7'
_cell_volume   186.22066629
_cell_formula_units_Z   1
loop_
 _symmetry_equiv_pos_site_id
 _symmetry_equiv_pos_as_xyz
  1  'x, y, z'
loop_
 _atom_site_type_symbol
 _atom_site_label
 _atom_site_symmetry_multiplicity
 _atom_site_fract_x
 _atom_site_fract_y
 _atom_site_fract_z
 _atom_site_occupancy
  Lu  Lu0  1  0.33721157  0.07815970  0.50000000  1
  Lu  Lu1  1  0.66278843  0.92184030  0.50000000  1
  Lu  Lu2  1  0.07815970  0.33721157  0.50000000  1
  Lu  Lu3  1  0.92184030  0.66278843  0.50000000  1
  Lu  Lu4  1  0.50000000  0.50000000  0.00000000  1
  Re  Re0  1  0.28415164  0.71584836  0.00000000  1
  Re  Re1  1  0.71584836  0.28415164  0.00000000  1
  C  C0  1  0.17088856  0.17088856  -0.00000000  1
  C  C1  1  0.82911144  0.82911144  0.00000000  1
  C  C2  1  0.00000000  0.00000000  0.00000000  1
  C  C3  1  0.37751250  0.62248750  0.50000000  1
  C  C4  1  0.62248750  0.37751250  0.50000000  1
  C  C5  1  0.50000000  0.00000000  0.00000000  1
  C  C6  1  0.00000000  0.50000000  0.00000000  1
loop_
_geom_bond_atom_site_label_1
_geom_bond_atom_site_label_2
_geom_bond_distance
_geom_bond_site_symmetry_2
C0 C2 1.350095 1_555
C0 Lu2 2.493774 1_554
C0 Lu2 2.493774 1_555
C0 Lu0 2.493774 1_554
C0 Lu0 2.493774 1_555
C0 Lu4 2.600125 1_555
C1 C2 1.350095 1_665
C1 Lu3 2.493774 1_555
C1 Lu3 2.493774 1_554
C1 Lu1 2.493774 1_555
C1 Lu1 2.493774 1_554
C1 Lu4 2.600125 1_555
C3 Re0 2.125869 1_556
C3 Re0 2.125869 1_555
C3 Lu2 2.311560 1_555
C3 Lu1 2.311560 1_555
C3 Lu4 2.403954 1_555
C3 Lu4 2.403954 1_556
C4 Re1 2.125869 1_555
C4 Re1 2.125869 1_556
C4 Lu0 2.311560 1_555
C4 Lu3 2.311560 1_555
C4 Lu4 2.403954 1_555
C4 Lu4 2.403954 1_556
C5 Re0 2.033409 1_545
C5 Re1 2.033409 1_555
C5 Lu0 2.406810 1_555
C5 Lu1 2.406810 1_544
C5 Lu1 2.406810 1_545
C5 Lu0 2.406810 1_554
C6 Re1 2.033409 1_455
C6 Re0 2.033409 1_555
C6 Lu2 2.406810 1_555
C6 Lu2 2.406810 1_554
C6 Lu3 2.406810 1_454
C6 Lu3 2.406810 1_455
