# generated using pymatgen
data_BMoN3
_symmetry_space_group_name_H-M   'P 1'
_cell_length_a   10.23183148
_cell_length_b   5.67540244
_cell_length_c   8.67290834
_cell_angle_alpha   121.82705257
_cell_angle_beta   108.54570390
_cell_angle_gamma   110.67168410
_symmetry_Int_Tables_number   1
_chemical_formula_structural   BMoN3
_chemical_formula_sum   'B4 Mo4 N12'
_cell_volume   309.51607344
_cell_formula_units_Z   4
loop_
 _symmetry_equiv_pos_site_id
 _symmetry_equiv_pos_as_xyz
  1  'x, y, z'
loop_
 _atom_site_type_symbol
 _atom_site_label
 _atom_site_symmetry_multiplicity
 _atom_site_fract_x
 _atom_site_fract_y
 _atom_site_fract_z
 _atom_site_occupancy
  B  B0  1  0.56037400  0.53436300  0.32151500  1
  B  B1  1  0.43962600  0.46563700  0.67848500  1
  B  B2  1  0.70690200  0.57416100  0.66718200  1
  B  B3  1  0.29309800  0.42583900  0.33281800  1
  Mo  Mo0  1  0.92483700  0.70087300  0.62060900  1
  Mo  Mo1  1  0.07516300  0.29912700  0.37939100  1
  Mo  Mo2  1  0.69398700  0.74625100  0.08194700  1
  Mo  Mo3  1  0.30601300  0.25374900  0.91805300  1
  N  N0  1  0.68151500  0.57764900  0.49453300  1
  N  N1  1  0.31848500  0.42235100  0.50546700  1
  N  N2  1  0.83367400  0.24291300  0.30129400  1
  N  N3  1  0.16632600  0.75708700  0.69870600  1
  N  N4  1  0.87820500  0.61637700  0.77172100  1
  N  N5  1  0.12179500  0.38362300  0.22827900  1
  N  N6  1  0.61374800  0.56013100  0.75738000  1
  N  N7  1  0.38625200  0.43986900  0.24262000  1
  N  N8  1  0.89605200  0.78406300  0.16436400  1
  N  N9  1  0.10394800  0.21593700  0.83563600  1
  N  N10  1  0.40642000  0.44531500  0.82348900  1
  N  N11  1  0.59358000  0.55468500  0.17651100  1
loop_
_geom_bond_atom_site_label_1
_geom_bond_atom_site_label_2
_geom_bond_distance
_geom_bond_site_symmetry_2
B0 N0 1.435778 1_555
B0 N7 1.446647 1_555
B0 N11 1.451700 1_555
B1 N1 1.435778 1_555
B1 N6 1.446647 1_555
B1 N10 1.451700 1_555
B2 N6 1.418868 1_555
B2 N0 1.448259 1_555
B2 N4 1.554043 1_555
B3 N7 1.418868 1_555
B3 N1 1.448259 1_555
B3 N5 1.554043 1_555
Mo0 N4 1.753383 1_555
Mo0 N9 1.917130 1_665
Mo0 N0 2.028660 1_555
Mo0 N2 2.085253 1_555
Mo0 N3 2.194697 1_655
Mo1 N5 1.753383 1_555
Mo1 N8 1.917130 1_445
Mo1 N1 2.028660 1_555
Mo1 N3 2.085253 1_555
Mo1 N2 2.194697 1_455
Mo2 N2 1.837793 1_565
Mo2 N8 1.848351 1_555
Mo2 N11 1.896830 1_555
Mo2 N6 2.120185 1_554
Mo2 N10 2.194902 1_554
Mo3 N3 1.837793 1_545
Mo3 N9 1.848351 1_555
Mo3 N10 1.896830 1_555
Mo3 N7 2.120185 1_556
Mo3 N11 2.194902 1_556
