# generated using pymatgen
data_Mg(BH4)2
_symmetry_space_group_name_H-M   'P 1'
_cell_length_a   13.78881307
_cell_length_b   13.78881307
_cell_length_c   13.78881307
_cell_angle_alpha   109.47122063
_cell_angle_beta   109.47122063
_cell_angle_gamma   109.47122063
_symmetry_Int_Tables_number   1
_chemical_formula_structural   Mg(BH4)2
_chemical_formula_sum   'Mg12 B24 H96'
_cell_volume   2018.17471990
_cell_formula_units_Z   12
loop_
 _symmetry_equiv_pos_site_id
 _symmetry_equiv_pos_as_xyz
  1  'x, y, z'
loop_
 _atom_site_type_symbol
 _atom_site_label
 _atom_site_symmetry_multiplicity
 _atom_site_fract_x
 _atom_site_fract_y
 _atom_site_fract_z
 _atom_site_occupancy
  Mg  Mg0  1  0.37500000  0.75000000  0.62500000  1
  Mg  Mg1  1  0.12500000  0.25000000  0.87500000  1
  Mg  Mg2  1  0.62500000  0.37500000  0.75000000  1
  Mg  Mg3  1  0.87500000  0.12500000  0.25000000  1
  Mg  Mg4  1  0.75000000  0.62500000  0.37500000  1
  Mg  Mg5  1  0.25000000  0.87500000  0.12500000  1
  Mg  Mg6  1  0.62500000  0.25000000  0.37500000  1
  Mg  Mg7  1  0.87500000  0.75000000  0.12500000  1
  Mg  Mg8  1  0.37500000  0.62500000  0.25000000  1
  Mg  Mg9  1  0.12500000  0.87500000  0.75000000  1
  Mg  Mg10  1  0.25000000  0.37500000  0.62500000  1
  Mg  Mg11  1  0.75000000  0.12500000  0.87500000  1
  B  B0  1  0.31499970  0.56499970  0.62999940  1
  B  B1  1  0.18500030  0.31499970  0.75000000  1
  B  B2  1  0.56499970  0.93500030  0.75000000  1
  B  B3  1  0.93500030  0.18500030  0.87000060  1
  B  B4  1  0.62999940  0.31499970  0.56499970  1
  B  B5  1  0.75000000  0.18500030  0.31499970  1
  B  B6  1  0.75000000  0.56499970  0.93500030  1
  B  B7  1  0.87000060  0.93500030  0.18500030  1
  B  B8  1  0.56499970  0.62999940  0.31499970  1
  B  B9  1  0.31499970  0.75000000  0.18500030  1
  B  B10  1  0.93500030  0.75000000  0.56499970  1
  B  B11  1  0.18500030  0.87000060  0.93500030  1
  B  B12  1  0.68500030  0.43500030  0.37000060  1
  B  B13  1  0.81499970  0.68500030  0.25000000  1
  B  B14  1  0.43500030  0.06499970  0.25000000  1
  B  B15  1  0.06499970  0.81499970  0.12999940  1
  B  B16  1  0.37000060  0.68500030  0.43500030  1
  B  B17  1  0.25000000  0.81499970  0.68500030  1
  B  B18  1  0.25000000  0.43500030  0.06499970  1
  B  B19  1  0.12999940  0.06499970  0.81499970  1
  B  B20  1  0.43500030  0.37000060  0.68500030  1
  B  B21  1  0.68500030  0.25000000  0.81499970  1
  B  B22  1  0.06499970  0.25000000  0.43500030  1
  B  B23  1  0.81499970  0.12999940  0.06499970  1
  H  H0  1  0.41748726  0.64853831  0.69531260  1
  H  H1  1  0.08251274  0.27782534  0.73105105  1
  H  H2  1  0.54677429  0.85146169  0.76894895  1
  H  H3  1  0.95322571  0.22217466  0.80468740  1
  H  H4  1  0.69531260  0.41748726  0.64853831  1
  H  H5  1  0.73105105  0.08251274  0.27782534  1
  H  H6  1  0.76894895  0.54677429  0.85146169  1
  H  H7  1  0.80468740  0.95322571  0.22217466  1
  H  H8  1  0.64853831  0.69531260  0.41748726  1
  H  H9  1  0.27782534  0.73105105  0.08251274  1
  H  H10  1  0.85146169  0.76894895  0.54677429  1
  H  H11  1  0.22217466  0.80468740  0.95322571  1
  H  H12  1  0.58251274  0.35146169  0.30468740  1
  H  H13  1  0.91748726  0.72217466  0.26894895  1
  H  H14  1  0.45322571  0.14853831  0.23105105  1
  H  H15  1  0.04677429  0.77782534  0.19531260  1
  H  H16  1  0.30468740  0.58251274  0.35146169  1
  H  H17  1  0.26894895  0.91748726  0.72217466  1
  H  H18  1  0.23105105  0.45322571  0.14853831  1
  H  H19  1  0.19531260  0.04677429  0.77782534  1
  H  H20  1  0.35146169  0.30468740  0.58251274  1
  H  H21  1  0.72217466  0.26894895  0.91748726  1
  H  H22  1  0.14853831  0.23105105  0.45322571  1
  H  H23  1  0.77782534  0.19531260  0.04677429  1
  H  H24  1  0.14853831  0.91748726  0.19531260  1
  H  H25  1  0.77782534  0.58251274  0.23105105  1
  H  H26  1  0.35146169  0.04677429  0.26894895  1
  H  H27  1  0.72217466  0.45322571  0.30468740  1
  H  H28  1  0.91748726  0.19531260  0.14853831  1
  H  H29  1  0.58251274  0.23105105  0.77782534  1
  H  H30  1  0.04677429  0.26894895  0.35146169  1
  H  H31  1  0.45322571  0.30468740  0.72217466  1
  H  H32  1  0.19531260  0.14853831  0.91748726  1
  H  H33  1  0.23105105  0.77782534  0.58251274  1
  H  H34  1  0.26894895  0.35146169  0.04677429  1
  H  H35  1  0.30468740  0.72217466  0.45322571  1
  H  H36  1  0.85146169  0.08251274  0.80468740  1
  H  H37  1  0.22217466  0.41748726  0.76894895  1
  H  H38  1  0.64853831  0.95322571  0.73105105  1
  H  H39  1  0.27782534  0.54677429  0.69531260  1
  H  H40  1  0.08251274  0.80468740  0.85146169  1
  H  H41  1  0.41748726  0.76894895  0.22217466  1
  H  H42  1  0.95322571  0.73105105  0.64853831  1
  H  H43  1  0.54677429  0.69531260  0.27782534  1
  H  H44  1  0.80468740  0.85146169  0.08251274  1
  H  H45  1  0.76894895  0.22217466  0.41748726  1
  H  H46  1  0.73105105  0.64853831  0.95322571  1
  H  H47  1  0.69531260  0.27782534  0.54677429  1
  H  H48  1  0.24565632  0.58225878  0.56498117  1
  H  H49  1  0.25434368  0.31932485  0.83660246  1
  H  H50  1  0.48272239  0.91774122  0.66339754  1
  H  H51  1  0.01727761  0.18067515  0.93501883  1
  H  H52  1  0.56498117  0.24565632  0.58225878  1
  H  H53  1  0.83660246  0.25434368  0.31932485  1
  H  H54  1  0.66339754  0.48272239  0.91774122  1
  H  H55  1  0.93501883  0.01727761  0.18067515  1
  H  H56  1  0.58225878  0.56498117  0.24565632  1
  H  H57  1  0.31932485  0.83660246  0.25434368  1
  H  H58  1  0.91774122  0.66339754  0.48272239  1
  H  H59  1  0.18067515  0.93501883  0.01727761  1
  H  H60  1  0.75434368  0.41774122  0.43501883  1
  H  H61  1  0.74565632  0.68067515  0.16339754  1
  H  H62  1  0.51727761  0.08225878  0.33660246  1
  H  H63  1  0.98272239  0.81932485  0.06498117  1
  H  H64  1  0.43501883  0.75434368  0.41774122  1
  H  H65  1  0.16339754  0.74565632  0.68067515  1
  H  H66  1  0.33660246  0.51727761  0.08225878  1
  H  H67  1  0.06498117  0.98272239  0.81932485  1
  H  H68  1  0.41774122  0.43501883  0.75434368  1
  H  H69  1  0.68067515  0.16339754  0.74565632  1
  H  H70  1  0.08225878  0.33660246  0.51727761  1
  H  H71  1  0.81932485  0.06498117  0.98272239  1
  H  H72  1  0.08225878  0.74565632  0.06498117  1
  H  H73  1  0.81932485  0.75434368  0.33660246  1
  H  H74  1  0.41774122  0.98272239  0.16339754  1
  H  H75  1  0.68067515  0.51727761  0.43501883  1
  H  H76  1  0.74565632  0.06498117  0.08225878  1
  H  H77  1  0.75434368  0.33660246  0.81932485  1
  H  H78  1  0.98272239  0.16339754  0.41774122  1
  H  H79  1  0.51727761  0.43501883  0.68067515  1
  H  H80  1  0.06498117  0.08225878  0.74565632  1
  H  H81  1  0.33660246  0.81932485  0.75434368  1
  H  H82  1  0.16339754  0.41774122  0.98272239  1
  H  H83  1  0.43501883  0.68067515  0.51727761  1
  H  H84  1  0.91774122  0.25434368  0.93501883  1
  H  H85  1  0.18067515  0.24565632  0.66339754  1
  H  H86  1  0.58225878  0.01727761  0.83660246  1
  H  H87  1  0.31932485  0.48272239  0.56498117  1
  H  H88  1  0.25434368  0.93501883  0.91774122  1
  H  H89  1  0.24565632  0.66339754  0.18067515  1
  H  H90  1  0.01727761  0.83660246  0.58225878  1
  H  H91  1  0.48272239  0.56498117  0.31932485  1
  H  H92  1  0.93501883  0.91774122  0.25434368  1
  H  H93  1  0.66339754  0.18067515  0.24565632  1
  H  H94  1  0.83660246  0.58225878  0.01727761  1
  H  H95  1  0.56498117  0.31932485  0.48272239  1
loop_
_geom_bond_atom_site_label_1
_geom_bond_atom_site_label_2
_geom_bond_distance
_geom_bond_site_symmetry_2
B0 H48 1.223558 1_555
B0 H87 1.223558 1_555
B0 H39 1.228711 1_555
B0 H0 1.228711 1_555
B1 H85 1.223558 1_555
B1 H49 1.223558 1_555
B1 H1 1.228711 1_555
B1 H37 1.228711 1_555
B2 H50 1.223558 1_555
B2 H86 1.223558 1_565
B2 H38 1.228711 1_555
B2 H2 1.228711 1_555
B3 H84 1.223558 1_555
B3 H51 1.223558 1_655
B3 H3 1.228711 1_555
B3 H36 1.228711 1_555
B4 H95 1.223558 1_555
B4 H52 1.223558 1_555
B4 H47 1.228711 1_555
B4 H4 1.228711 1_555
B5 H93 1.223558 1_555
B5 H53 1.223558 1_555
B5 H5 1.228711 1_555
B5 H45 1.228711 1_555
B6 H54 1.223558 1_555
B6 H94 1.223558 1_556
B6 H6 1.228711 1_555
B6 H46 1.228711 1_555
B7 H92 1.223558 1_555
B7 H55 1.223558 1_565
B7 H7 1.228711 1_555
B7 H44 1.228711 1_555
B8 H56 1.223558 1_555
B8 H91 1.223558 1_555
B8 H43 1.228711 1_555
B8 H8 1.228711 1_555
B9 H89 1.223558 1_555
B9 H57 1.223558 1_555
B9 H9 1.228711 1_555
B9 H41 1.228711 1_555
B10 H58 1.223558 1_555
B10 H90 1.223558 1_655
B10 H10 1.228711 1_555
B10 H42 1.228711 1_555
B11 H88 1.223558 1_555
B11 H59 1.223558 1_556
B11 H11 1.228711 1_555
B11 H40 1.228711 1_555
B12 H60 1.223558 1_555
B12 H75 1.223558 1_555
B12 H27 1.228711 1_555
B12 H12 1.228711 1_555
B13 H73 1.223558 1_555
B13 H61 1.223558 1_555
B13 H13 1.228711 1_555
B13 H25 1.228711 1_555
B14 H62 1.223558 1_555
B14 H74 1.223558 1_545
B14 H14 1.228711 1_555
B14 H26 1.228711 1_555
B15 H72 1.223558 1_555
B15 H63 1.223558 1_455
B15 H15 1.228711 1_555
B15 H24 1.228711 1_555
B16 H64 1.223558 1_555
B16 H83 1.223558 1_555
B16 H35 1.228711 1_555
B16 H16 1.228711 1_555
B17 H65 1.223558 1_555
B17 H81 1.223558 1_555
B17 H17 1.228711 1_555
B17 H33 1.228711 1_555
B18 H66 1.223558 1_555
B18 H82 1.223558 1_554
B18 H18 1.228711 1_555
B18 H34 1.228711 1_555
B19 H80 1.223558 1_555
B19 H67 1.223558 1_545
B19 H19 1.228711 1_555
B19 H32 1.228711 1_555
B20 H68 1.223558 1_555
B20 H79 1.223558 1_555
B20 H31 1.228711 1_555
B20 H20 1.228711 1_555
B21 H77 1.223558 1_555
B21 H69 1.223558 1_555
B21 H29 1.228711 1_555
B21 H21 1.228711 1_555
B22 H70 1.223558 1_555
B22 H78 1.223558 1_455
B22 H22 1.228711 1_555
B22 H30 1.228711 1_555
B23 H76 1.223558 1_555
B23 H71 1.223558 1_554
B23 H23 1.228711 1_555
B23 H28 1.228711 1_555
H0 Mg0 2.076662 1_555
H1 Mg1 2.076662 1_555
H2 Mg0 2.076662 1_555
H3 Mg1 2.076662 1_655
H4 Mg2 2.076662 1_555
H5 Mg3 2.076662 1_555
H6 Mg2 2.076662 1_555
H7 Mg3 2.076662 1_565
H8 Mg4 2.076662 1_555
H9 Mg5 2.076662 1_555
H10 Mg4 2.076662 1_555
H11 Mg5 2.076662 1_556
H12 Mg6 2.076662 1_555
H13 Mg7 2.076662 1_555
H14 Mg6 2.076662 1_555
H15 Mg7 2.076662 1_455
H16 Mg8 2.076662 1_555
H17 Mg9 2.076662 1_555
H18 Mg8 2.076662 1_555
H19 Mg9 2.076662 1_545
H20 Mg10 2.076662 1_555
H21 Mg11 2.076662 1_555
H22 Mg10 2.076662 1_555
H23 Mg11 2.076662 1_554
H24 Mg5 2.076662 1_555
H25 Mg4 2.076662 1_555
H26 Mg5 2.076662 1_545
H27 Mg4 2.076662 1_555
H28 Mg3 2.076662 1_555
H29 Mg2 2.076662 1_555
H30 Mg3 2.076662 1_455
H31 Mg2 2.076662 1_555
H32 Mg1 2.076662 1_555
H33 Mg0 2.076662 1_555
H34 Mg1 2.076662 1_554
H35 Mg0 2.076662 1_555
H36 Mg11 2.076662 1_555
H37 Mg10 2.076662 1_555
H38 Mg11 2.076662 1_565
H39 Mg10 2.076662 1_555
H40 Mg9 2.076662 1_555
H41 Mg8 2.076662 1_555
H42 Mg9 2.076662 1_655
H43 Mg8 2.076662 1_555
H44 Mg7 2.076662 1_555
H45 Mg6 2.076662 1_555
H46 Mg7 2.076662 1_556
H47 Mg6 2.076662 1_555
H48 Mg0 2.050683 1_555
H49 Mg1 2.050683 1_555
H50 Mg0 2.050683 1_555
H51 Mg1 2.050683 1_555
H52 Mg2 2.050683 1_555
H53 Mg3 2.050683 1_555
H54 Mg2 2.050683 1_555
H55 Mg3 2.050683 1_555
H56 Mg4 2.050683 1_555
H57 Mg5 2.050683 1_555
H58 Mg4 2.050683 1_555
H59 Mg5 2.050683 1_555
H60 Mg6 2.050683 1_555
H61 Mg7 2.050683 1_555
H62 Mg6 2.050683 1_555
H63 Mg7 2.050683 1_555
H64 Mg8 2.050683 1_555
H65 Mg9 2.050683 1_555
H66 Mg8 2.050683 1_555
H67 Mg9 2.050683 1_555
H68 Mg10 2.050683 1_555
H69 Mg11 2.050683 1_555
H70 Mg10 2.050683 1_555
H71 Mg11 2.050683 1_555
H72 Mg5 2.050683 1_555
H73 Mg4 2.050683 1_555
H74 Mg5 2.050683 1_555
H75 Mg4 2.050683 1_555
H76 Mg3 2.050683 1_555
H77 Mg2 2.050683 1_555
H78 Mg3 2.050683 1_555
H79 Mg2 2.050683 1_555
H80 Mg1 2.050683 1_555
H81 Mg0 2.050683 1_555
H82 Mg1 2.050683 1_555
H83 Mg0 2.050683 1_555
H84 Mg11 2.050683 1_555
H85 Mg10 2.050683 1_555
H86 Mg11 2.050683 1_555
H87 Mg10 2.050683 1_555
H88 Mg9 2.050683 1_555
H89 Mg8 2.050683 1_555
H90 Mg9 2.050683 1_555
H91 Mg8 2.050683 1_555
H92 Mg7 2.050683 1_555
H93 Mg6 2.050683 1_555
H94 Mg7 2.050683 1_555
H95 Mg6 2.050683 1_555
