# generated using pymatgen
data_PmHf
_symmetry_space_group_name_H-M   'P 1'
_cell_length_a   6.74932670
_cell_length_b   6.74932670
_cell_length_c   11.10551800
_cell_angle_alpha   90.00000000
_cell_angle_beta   90.00000000
_cell_angle_gamma   119.99998721
_symmetry_Int_Tables_number   1
_chemical_formula_structural   PmHf
_chemical_formula_sum   'Pm8 Hf8'
_cell_volume   438.11730612
_cell_formula_units_Z   8
loop_
 _symmetry_equiv_pos_site_id
 _symmetry_equiv_pos_as_xyz
  1  'x, y, z'
loop_
 _atom_site_type_symbol
 _atom_site_label
 _atom_site_symmetry_multiplicity
 _atom_site_fract_x
 _atom_site_fract_y
 _atom_site_fract_z
 _atom_site_occupancy
  Pm  Pm0_0  1  0.00000000  0.00000000  0.00000000  1
  Pm  Pm0_1  1  0.00000000  0.00000000  0.50000000  1
  Pm  Pm0_2  1  0.00000000  0.50000000  0.00000000  1
  Pm  Pm0_3  1  0.00000000  0.50000000  0.50000000  1
  Pm  Pm0_4  1  0.50000000  0.00000000  0.00000000  1
  Pm  Pm0_5  1  0.50000000  0.00000000  0.50000000  1
  Pm  Pm0_6  1  0.50000000  0.50000000  0.00000000  1
  Pm  Pm0_7  1  0.50000000  0.50000000  0.50000000  1
  Hf  Hf0_0  1  0.16666650  0.33333350  0.25000000  1
  Hf  Hf0_1  1  0.16666650  0.33333350  0.75000000  1
  Hf  Hf0_2  1  0.16666650  0.83333350  0.25000000  1
  Hf  Hf0_3  1  0.16666650  0.83333350  0.75000000  1
  Hf  Hf0_4  1  0.66666650  0.33333350  0.25000000  1
  Hf  Hf0_5  1  0.66666650  0.33333350  0.75000000  1
  Hf  Hf0_6  1  0.66666650  0.83333350  0.25000000  1
  Hf  Hf0_7  1  0.66666650  0.83333350  0.75000000  1
loop_
_geom_bond_atom_site_label_1
_geom_bond_atom_site_label_2
_geom_bond_distance
_geom_bond_site_symmetry_2
Pm0_0 Pm0_4 3.374663 1_555
Pm0_0 Pm0_2 3.374663 1_555
Pm0_0 Pm0_4 3.374663 1_455
Pm0_0 Pm0_2 3.374663 1_545
Pm0_0 Pm0_6 3.374664 1_555
Pm0_0 Pm0_6 3.374664 1_445
Pm0_1 Pm0_3 3.374663 1_555
Pm0_1 Pm0_5 3.374663 1_455
Pm0_1 Pm0_3 3.374663 1_545
Pm0_1 Pm0_5 3.374663 1_555
Pm0_1 Pm0_7 3.374664 1_555
Pm0_1 Pm0_7 3.374664 1_445
Pm0_2 Pm0_6 3.374663 1_455
Pm0_2 Pm0_6 3.374663 1_555
Pm0_2 Pm0_4 3.374664 1_455
Pm0_2 Pm0_4 3.374664 1_565
Pm0_3 Pm0_7 3.374663 1_555
Pm0_3 Pm0_7 3.374663 1_455
Pm0_3 Pm0_5 3.374664 1_565
Pm0_3 Pm0_5 3.374664 1_455
Pm0_4 Pm0_6 3.374663 1_545
Pm0_4 Pm0_6 3.374663 1_555
Pm0_5 Pm0_7 3.374663 1_555
Pm0_5 Pm0_7 3.374663 1_545
Hf0_0 Hf0_2 3.374663 1_545
Hf0_0 Hf0_4 3.374663 1_555
Hf0_0 Hf0_2 3.374663 1_555
Hf0_0 Hf0_4 3.374663 1_455
Hf0_0 Hf0_6 3.374664 1_445
Hf0_0 Hf0_6 3.374664 1_555
Hf0_0 Pm0_3 3.391813 1_555
Hf0_0 Pm0_2 3.391813 1_555
Hf0_0 Pm0_7 3.391814 1_555
Hf0_0 Pm0_0 3.391814 1_555
Hf0_0 Pm0_1 3.391814 1_555
Hf0_0 Pm0_6 3.391814 1_555
Hf0_1 Hf0_5 3.374663 1_555
Hf0_1 Hf0_3 3.374663 1_545
Hf0_1 Hf0_3 3.374663 1_555
Hf0_1 Hf0_5 3.374663 1_455
Hf0_1 Hf0_7 3.374664 1_555
Hf0_1 Hf0_7 3.374664 1_445
Hf0_1 Pm0_3 3.391813 1_555
Hf0_1 Pm0_2 3.391813 1_556
Hf0_1 Pm0_7 3.391814 1_555
Hf0_1 Pm0_1 3.391814 1_555
Hf0_1 Pm0_0 3.391814 1_556
Hf0_1 Pm0_6 3.391814 1_556
Hf0_2 Hf0_6 3.374663 1_455
Hf0_2 Hf0_6 3.374663 1_555
Hf0_2 Hf0_4 3.374664 1_565
Hf0_2 Hf0_4 3.374664 1_455
Hf0_2 Pm0_1 3.391813 1_565
Hf0_2 Pm0_0 3.391813 1_565
Hf0_2 Pm0_3 3.391814 1_555
Hf0_2 Pm0_4 3.391814 1_565
Hf0_2 Pm0_2 3.391814 1_555
Hf0_2 Pm0_5 3.391814 1_565
Hf0_3 Hf0_7 3.374663 1_555
Hf0_3 Hf0_7 3.374663 1_455
Hf0_3 Hf0_5 3.374664 1_565
Hf0_3 Hf0_5 3.374664 1_455
Hf0_3 Pm0_1 3.391813 1_565
Hf0_3 Pm0_0 3.391813 1_566
Hf0_3 Pm0_3 3.391814 1_555
Hf0_3 Pm0_5 3.391814 1_565
Hf0_3 Pm0_4 3.391814 1_566
Hf0_3 Pm0_2 3.391814 1_556
Hf0_4 Hf0_6 3.374663 1_545
Hf0_4 Hf0_6 3.374663 1_555
Hf0_4 Pm0_7 3.391813 1_555
Hf0_4 Pm0_6 3.391813 1_555
Hf0_4 Pm0_3 3.391814 1_655
Hf0_4 Pm0_5 3.391814 1_555
Hf0_4 Pm0_2 3.391814 1_655
Hf0_4 Pm0_4 3.391814 1_555
Hf0_5 Hf0_7 3.374663 1_545
Hf0_5 Hf0_7 3.374663 1_555
Hf0_5 Pm0_7 3.391813 1_555
Hf0_5 Pm0_6 3.391813 1_556
Hf0_5 Pm0_3 3.391814 1_655
Hf0_5 Pm0_5 3.391814 1_555
Hf0_5 Pm0_2 3.391814 1_656
Hf0_5 Pm0_4 3.391814 1_556
Hf0_6 Pm0_4 3.391813 1_565
Hf0_6 Pm0_5 3.391813 1_565
Hf0_6 Pm0_0 3.391814 1_665
Hf0_6 Pm0_7 3.391814 1_555
Hf0_6 Pm0_1 3.391814 1_665
Hf0_6 Pm0_6 3.391814 1_555
Hf0_7 Pm0_5 3.391813 1_565
Hf0_7 Pm0_4 3.391813 1_566
Hf0_7 Pm0_7 3.391814 1_555
Hf0_7 Pm0_1 3.391814 1_665
Hf0_7 Pm0_0 3.391814 1_666
Hf0_7 Pm0_6 3.391814 1_556
