# generated using pymatgen
data_Mg6AlSn
_symmetry_space_group_name_H-M   'P 1'
_cell_length_a   5.30816600
_cell_length_b   6.21116400
_cell_length_c   10.82048800
_cell_angle_alpha   90.00000000
_cell_angle_beta   90.00000000
_cell_angle_gamma   90.00000000
_symmetry_Int_Tables_number   1
_chemical_formula_structural   Mg6AlSn
_chemical_formula_sum   'Mg12 Al2 Sn2'
_cell_volume   356.75029440
_cell_formula_units_Z   2
loop_
 _symmetry_equiv_pos_site_id
 _symmetry_equiv_pos_as_xyz
  1  'x, y, z'
loop_
 _atom_site_type_symbol
 _atom_site_label
 _atom_site_symmetry_multiplicity
 _atom_site_fract_x
 _atom_site_fract_y
 _atom_site_fract_z
 _atom_site_occupancy
  Mg  Mg0  1  0.00000000  0.24922800  0.08369700  1
  Mg  Mg1  1  0.00000000  0.75077200  0.08369700  1
  Mg  Mg2  1  0.00000000  0.00000000  0.33263200  1
  Mg  Mg3  1  0.50000000  0.74755000  0.41518200  1
  Mg  Mg4  1  0.50000000  0.25245000  0.41518200  1
  Mg  Mg5  1  0.50000000  0.00000000  0.16714800  1
  Mg  Mg6  1  0.00000000  0.74922800  0.58369700  1
  Mg  Mg7  1  0.00000000  0.25077200  0.58369700  1
  Mg  Mg8  1  0.00000000  0.50000000  0.83263200  1
  Mg  Mg9  1  0.50000000  0.24755000  0.91518200  1
  Mg  Mg10  1  0.50000000  0.75245000  0.91518200  1
  Mg  Mg11  1  0.50000000  0.50000000  0.66714800  1
  Al  Al0  1  0.00000000  0.50000000  0.33497000  1
  Al  Al1  1  0.00000000  0.00000000  0.83497000  1
  Sn  Sn0  1  0.50000000  0.50000000  0.16749300  1
  Sn  Sn1  1  0.50000000  0.00000000  0.66749300  1
loop_
_geom_bond_atom_site_label_1
_geom_bond_atom_site_label_2
_geom_bond_distance
_geom_bond_site_symmetry_2
Mg0 Mg1 3.095992 1_545
Mg0 Mg2 3.106729 1_555
Mg0 Mg1 3.115172 1_555
Mg0 Mg8 3.131491 1_554
Mg0 Mg5 3.202471 1_455
Mg0 Mg5 3.202471 1_555
Mg0 Sn0 3.208171 1_555
Mg0 Sn0 3.208171 1_455
Mg0 Mg9 3.220110 1_554
Mg0 Mg9 3.220110 1_454
Mg1 Mg2 3.106729 1_565
Mg1 Mg8 3.131491 1_554
Mg1 Mg5 3.202471 1_465
Mg1 Mg5 3.202471 1_565
Mg1 Sn0 3.208171 1_455
Mg1 Sn0 3.208171 1_555
Mg1 Mg10 3.220110 1_554
Mg1 Mg10 3.220110 1_454
Mg2 Mg6 3.131491 1_545
Mg2 Mg7 3.131491 1_555
Mg2 Mg5 3.201635 1_455
Mg2 Mg5 3.201635 1_555
Mg2 Mg3 3.209466 1_545
Mg2 Mg4 3.209466 1_455
Mg2 Mg3 3.209466 1_445
Mg2 Mg4 3.209466 1_555
Mg3 Mg4 3.075147 1_555
Mg3 Sn0 3.089847 1_555
Mg3 Mg5 3.108327 1_565
Mg3 Mg4 3.136017 1_565
Mg3 Sn1 3.148373 1_565
Mg3 Mg6 3.220110 1_555
Mg3 Mg6 3.220110 1_655
Mg4 Sn0 3.089847 1_555
Mg4 Mg5 3.108327 1_555
Mg4 Sn1 3.148373 1_555
Mg4 Mg7 3.220110 1_655
Mg4 Mg7 3.220110 1_555
Mg5 Sn0 3.105584 1_555
Mg5 Sn0 3.105584 1_545
Mg5 Mg9 3.130074 1_554
Mg6 Mg7 3.095992 1_555
Mg6 Mg8 3.106729 1_555
Mg6 Mg7 3.115172 1_565
Mg6 Sn1 3.208171 1_465
Mg6 Sn1 3.208171 1_565
Mg7 Mg8 3.106729 1_555
Mg7 Sn1 3.208171 1_455
Mg7 Sn1 3.208171 1_555
Mg8 Mg9 3.209466 1_455
Mg8 Mg9 3.209466 1_555
Mg9 Sn1 3.089847 1_555
Mg9 Sn0 3.148373 1_556
Mg10 Mg9 3.075147 1_565
Mg10 Sn1 3.089847 1_565
Mg10 Mg11 3.108327 1_555
Mg10 Mg5 3.130074 1_566
Mg10 Mg9 3.136017 1_555
Mg10 Sn0 3.148373 1_556
Mg10 Mg8 3.209466 1_655
Mg10 Mg8 3.209466 1_555
Mg11 Sn1 3.105584 1_555
Mg11 Sn1 3.105584 1_565
Mg11 Mg9 3.108327 1_555
Mg11 Mg4 3.130074 1_555
Mg11 Mg3 3.130074 1_555
Mg11 Mg8 3.201635 1_655
Mg11 Mg8 3.201635 1_555
Mg11 Mg7 3.202471 1_555
Mg11 Mg6 3.202471 1_655
Mg11 Mg7 3.202471 1_655
Mg11 Mg6 3.202471 1_555
Al0 Mg7 3.104777 1_555
Al0 Mg6 3.104777 1_555
Al0 Mg2 3.105685 1_565
Al0 Mg2 3.105685 1_555
Al0 Mg1 3.133444 1_555
Al0 Mg0 3.133444 1_555
Al0 Mg4 3.187726 1_455
Al0 Mg4 3.187726 1_555
Al0 Mg3 3.187726 1_455
Al0 Mg3 3.187726 1_555
Al0 Sn0 3.213746 1_555
Al0 Sn0 3.213746 1_455
Al1 Mg0 3.104777 1_556
Al1 Mg1 3.104777 1_546
Al1 Mg8 3.105685 1_555
Al1 Mg8 3.105685 1_545
Al1 Mg6 3.133444 1_545
Al1 Mg7 3.133444 1_555
Al1 Mg9 3.187726 1_455
Al1 Mg9 3.187726 1_555
Al1 Mg10 3.187726 1_545
Al1 Mg10 3.187726 1_445
Al1 Sn1 3.213746 1_555
Al1 Sn1 3.213746 1_455
