# generated using pymatgen
data_SrCa7Ti3Mn5O23
_symmetry_space_group_name_H-M   'P 1'
_cell_length_a   10.95522829
_cell_length_b   15.46492745
_cell_length_c   10.83572796
_cell_angle_alpha   90.11959706
_cell_angle_beta   90.38657206
_cell_angle_gamma   90.03797187
_symmetry_Int_Tables_number   1
_chemical_formula_structural   SrCa7Ti3Mn5O23
_chemical_formula_sum   'Sr4 Ca28 Ti12 Mn20 O92'
_cell_volume   1835.76244705
_cell_formula_units_Z   4
loop_
 _symmetry_equiv_pos_site_id
 _symmetry_equiv_pos_as_xyz
  1  'x, y, z'
loop_
 _atom_site_type_symbol
 _atom_site_label
 _atom_site_symmetry_multiplicity
 _atom_site_fract_x
 _atom_site_fract_y
 _atom_site_fract_z
 _atom_site_occupancy
  Sr  Sr0  1  0.00791063  0.12128210  0.50416690  1
  Sr  Sr1  1  0.49907836  0.38003742  0.99518904  1
  Sr  Sr2  1  0.24220102  0.38464930  0.25404202  1
  Sr  Sr3  1  0.24959940  0.11961620  0.26498652  1
  Ca  Ca0  1  0.01202660  0.11741244  0.99581619  1
  Ca  Ca1  1  0.02010436  0.62591462  0.49881141  1
  Ca  Ca2  1  0.01337821  0.62648743  0.99429447  1
  Ca  Ca3  1  0.53055612  0.13181159  0.50734241  1
  Ca  Ca4  1  0.53807744  0.12248802  0.97220219  1
  Ca  Ca5  1  0.52613647  0.62464514  0.49763637  1
  Ca  Ca6  1  0.52653138  0.62578997  0.99426794  1
  Ca  Ca7  1  0.48205695  0.38442556  0.50881672  1
  Ca  Ca8  1  0.48808187  0.87037149  0.99695988  1
  Ca  Ca9  1  0.48414342  0.86398218  0.51374842  1
  Ca  Ca10  1  0.96589154  0.38764931  0.99859793  1
  Ca  Ca11  1  0.97426289  0.38222686  0.50591773  1
  Ca  Ca12  1  0.97294920  0.86866616  0.00299783  1
  Ca  Ca13  1  0.96874063  0.86850322  0.50519432  1
  Ca  Ca14  1  0.22675905  0.38474894  0.73482283  1
  Ca  Ca15  1  0.22971745  0.87121083  0.24709914  1
  Ca  Ca16  1  0.23071862  0.86557123  0.74825416  1
  Ca  Ca17  1  0.73212919  0.38552117  0.24560105  1
  Ca  Ca18  1  0.72452594  0.37973432  0.74581807  1
  Ca  Ca19  1  0.73053756  0.86576121  0.24737451  1
  Ca  Ca20  1  0.72515728  0.87117985  0.74440482  1
  Ca  Ca21  1  0.27909629  0.11742730  0.73894488  1
  Ca  Ca22  1  0.27684224  0.62684905  0.26147889  1
  Ca  Ca23  1  0.27292259  0.62561208  0.75164104  1
  Ca  Ca24  1  0.77164940  0.11822296  0.25131751  1
  Ca  Ca25  1  0.76638243  0.12562181  0.75339531  1
  Ca  Ca26  1  0.76333433  0.62491709  0.25165693  1
  Ca  Ca27  1  0.77103682  0.62552214  0.75540082  1
  Ti  Ti0  1  0.99436430  0.99387930  0.24793536  1
  Ti  Ti1  1  0.98823649  0.99626685  0.75727699  1
  Ti  Ti2  1  0.99788366  0.50264709  0.25064970  1
  Ti  Ti3  1  0.25089240  0.99487251  0.99432806  1
  Ti  Ti4  1  0.23336502  0.98999584  0.51389377  1
  Ti  Ti5  1  0.24932816  0.50629570  0.00414430  1
  Ti  Ti6  1  0.25580033  0.24471392  0.96344640  1
  Ti  Ti7  1  0.24693516  0.25497030  0.50595359  1
  Ti  Ti8  1  0.25096964  0.74768012  0.00271944  1
  Ti  Ti9  1  0.98545621  0.25147460  0.26682133  1
  Ti  Ti10  1  0.98865025  0.25318086  0.75096034  1
  Ti  Ti11  1  0.99867812  0.74785413  0.25140446  1
  Mn  Mn0  1  0.99991093  0.50203656  0.74907627  1
  Mn  Mn1  1  0.50849155  0.98691637  0.24270167  1
  Mn  Mn2  1  0.50302004  0.99833042  0.74898467  1
  Mn  Mn3  1  0.50189825  0.50582394  0.25162594  1
  Mn  Mn4  1  0.50025472  0.50273040  0.74753235  1
  Mn  Mn5  1  0.25165561  0.50539585  0.50161924  1
  Mn  Mn6  1  0.74827471  0.99715269  0.99828462  1
  Mn  Mn7  1  0.74359445  0.99947260  0.49964223  1
  Mn  Mn8  1  0.74867177  0.50286192  0.99941682  1
  Mn  Mn9  1  0.75024091  0.50167353  0.50217788  1
  Mn  Mn10  1  0.25255148  0.74818833  0.50000550  1
  Mn  Mn11  1  0.75163966  0.24890405  0.00095874  1
  Mn  Mn12  1  0.74641281  0.25207945  0.50233269  1
  Mn  Mn13  1  0.74864029  0.75047503  0.99953008  1
  Mn  Mn14  1  0.74987586  0.74808796  0.50190677  1
  Mn  Mn15  1  0.00048520  0.74882460  0.75003173  1
  Mn  Mn16  1  0.51891661  0.25724034  0.26477682  1
  Mn  Mn17  1  0.50494451  0.25081320  0.74428612  1
  Mn  Mn18  1  0.50052874  0.74866608  0.25289791  1
  Mn  Mn19  1  0.50183241  0.74757060  0.75126670  1
  O  O0  1  0.10323134  0.26524320  0.59781289  1
  O  O1  1  0.10818207  0.77105941  0.10523230  1
  O  O2  1  0.10630169  0.77189975  0.60395348  1
  O  O3  1  0.59298209  0.25298806  0.10764951  1
  O  O4  1  0.60234336  0.26866507  0.59389065  1
  O  O5  1  0.60561659  0.77181597  0.10685191  1
  O  O6  1  0.60790657  0.76668888  0.60771593  1
  O  O7  1  0.39754150  0.22168654  0.37449355  1
  O  O8  1  0.40328836  0.22877308  0.89837396  1
  O  O9  1  0.39628524  0.72552196  0.39695412  1
  O  O10  1  0.39464638  0.73154221  0.89484084  1
  O  O11  1  0.89274867  0.23432029  0.39783186  1
  O  O12  1  0.90139053  0.23377846  0.89884811  1
  O  O13  1  0.89403485  0.73223863  0.39539330  1
  O  O14  1  0.89714556  0.73189095  0.89592499  1
  O  O15  1  0.14425020  0.24246036  0.34493971  1
  O  O16  1  0.14983939  0.22945240  0.83874706  1
  O  O17  1  0.14620811  0.73215595  0.35484272  1
  O  O18  1  0.14590147  0.73125911  0.85466876  1
  O  O19  1  0.65520227  0.22145078  0.35517914  1
  O  O20  1  0.65126805  0.23111977  0.85587383  1
  O  O21  1  0.64611392  0.72861576  0.35427792  1
  O  O22  1  0.64546073  0.72908718  0.85512105  1
  O  O23  1  0.35014946  0.26328083  0.64254532  1
  O  O24  1  0.35626180  0.76949512  0.14479665  1
  O  O25  1  0.35576605  0.76902424  0.64500445  1
  O  O26  1  0.86514073  0.27223820  0.14132859  1
  O  O27  1  0.85341192  0.27113693  0.64766458  1
  O  O28  1  0.85697696  0.76956776  0.14311290  1
  O  O29  1  0.85738081  0.77197166  0.64651749  1
  O  O30  1  0.36098840  0.49184275  0.13920299  1
  O  O31  1  0.35502163  0.48384255  0.64375620  1
  O  O32  1  0.35637903  0.99240088  0.15584988  1
  O  O33  1  0.35731847  0.98144768  0.64194734  1
  O  O34  1  0.85731324  0.48268435  0.14221066  1
  O  O35  1  0.85652433  0.47753741  0.64627729  1
  O  O36  1  0.85367935  0.97884632  0.14325373  1
  O  O37  1  0.85514374  0.98037456  0.64400349  1
  O  O38  1  0.14117367  0.00686298  0.36201975  1
  O  O39  1  0.14650574  0.02275168  0.85995910  1
  O  O40  1  0.14531328  0.51971449  0.35658103  1
  O  O41  1  0.14628177  0.51597364  0.85389699  1
  O  O42  1  0.62622512  0.02947622  0.35802038  1
  O  O43  1  0.64885023  0.01982783  0.84929370  1
  O  O44  1  0.64708386  0.51990476  0.35520529  1
  O  O45  1  0.64349712  0.52006921  0.85508551  1
  O  O46  1  0.39424078  0.02170272  0.89515466  1
  O  O47  1  0.39517699  0.52145280  0.39380677  1
  O  O48  1  0.39030894  0.51465822  0.89083288  1
  O  O49  1  0.88351009  0.01637024  0.38732833  1
  O  O50  1  0.89496207  0.01386440  0.89722263  1
  O  O51  1  0.89508605  0.51716922  0.39508374  1
  O  O52  1  0.89710091  0.51810977  0.89648201  1
  O  O53  1  0.10541438  0.48478672  0.10367015  1
  O  O54  1  0.10391083  0.48060473  0.60693265  1
  O  O55  1  0.10754928  0.98347928  0.10586232  1
  O  O56  1  0.10323516  0.97591025  0.61036461  1
  O  O57  1  0.61354092  0.48664397  0.11067004  1
  O  O58  1  0.60693931  0.48263395  0.60427952  1
  O  O59  1  0.60451773  0.98562604  0.09471078  1
  O  O60  1  0.59977999  0.98017708  0.59977836  1
  O  O61  1  0.00862292  0.37550440  0.27631148  1
  O  O62  1  0.01270372  0.37560833  0.78581911  1
  O  O63  1  0.00702420  0.87430826  0.28431415  1
  O  O64  1  0.01223677  0.87378384  0.78904176  1
  O  O65  1  0.49714221  0.37942361  0.28063671  1
  O  O66  1  0.50745202  0.37531518  0.77145865  1
  O  O67  1  0.50717634  0.87200653  0.29845304  1
  O  O68  1  0.50860450  0.87443431  0.78488808  1
  O  O69  1  0.49514550  0.12519117  0.71664705  1
  O  O70  1  0.49272287  0.62735571  0.20975195  1
  O  O71  1  0.48900578  0.62477235  0.71299832  1
  O  O72  1  0.99822774  0.12774646  0.21642172  1
  O  O73  1  0.98758205  0.12348899  0.72543497  1
  O  O74  1  0.99080139  0.62595456  0.21332172  1
  O  O75  1  0.98776120  0.62510886  0.71065321  1
  O  O76  1  0.22708704  0.14758555  0.05300532  1
  O  O77  1  0.25279032  0.11738358  0.51790095  1
  O  O78  1  0.23723800  0.62602366  0.03748685  1
  O  O79  1  0.23517067  0.62693686  0.54012644  1
  O  O80  1  0.74909189  0.12260809  0.03649845  1
  O  O81  1  0.74643436  0.12651307  0.54083193  1
  O  O82  1  0.74403007  0.62719377  0.03631921  1
  O  O83  1  0.74392330  0.62387685  0.53958843  1
  O  O84  1  0.26402980  0.37473293  0.47529984  1
  O  O85  1  0.25073605  0.35971048  0.00781636  1
  O  O86  1  0.27101424  0.87611628  0.45939554  1
  O  O87  1  0.26331140  0.87827262  0.96609675  1
  O  O88  1  0.75796781  0.37565326  0.46008110  1
  O  O89  1  0.74938654  0.37576755  0.96635046  1
  O  O90  1  0.75420930  0.87407597  0.46267193  1
  O  O91  1  0.75610094  0.87427964  0.96034846  1
loop_
_geom_bond_atom_site_label_1
_geom_bond_atom_site_label_2
_geom_bond_distance
_geom_bond_site_symmetry_2
Ca0 O50 2.306962 1_455
Ca0 O72 2.401212 1_456
Ca0 O12 2.409397 1_455
Ca0 O76 2.475942 1_556
Ca0 O39 2.550249 1_555
Ca0 O55 2.608349 1_546
Ca0 O16 2.867368 1_555
Ca0 O80 2.918118 1_456
Ca0 O73 2.941893 1_455
Ca1 O75 2.325065 1_455
Ca1 O79 2.395321 1_555
Ca1 O13 2.420078 1_455
Ca1 O51 2.436318 1_455
Ca1 O40 2.641040 1_555
Ca1 O17 2.660529 1_555
Ca1 O2 2.694180 1_555
Ca1 O54 2.695306 1_555
Ca2 O14 2.325159 1_455
Ca2 O52 2.350891 1_455
Ca2 O74 2.387863 1_456
Ca2 O78 2.493608 1_556
Ca2 O18 2.656855 1_555
Ca2 O53 2.687207 1_556
Ca2 O41 2.716173 1_555
Ca2 O1 2.737032 1_556
Ca3 O69 2.305958 1_555
Ca3 O81 2.391736 1_555
Ca3 O4 2.440659 1_555
Ca3 O7 2.471888 1_555
Ca3 O42 2.497093 1_555
Ca3 O19 2.557801 1_555
Ca3 O60 2.660706 1_545
Ca3 O77 3.053941 1_555
Ca4 O8 2.348391 1_555
Ca4 O46 2.362825 1_555
Ca4 O43 2.404682 1_555
Ca4 O80 2.409908 1_556
Ca4 O20 2.444596 1_555
Ca4 O3 2.561833 1_556
Ca4 O59 2.602409 1_546
Ca4 O69 2.806056 1_555
Ca5 O71 2.371490 1_555
Ca5 O9 2.374178 1_555
Ca5 O47 2.416316 1_555
Ca5 O83 2.425850 1_555
Ca5 O21 2.600219 1_555
Ca5 O44 2.604096 1_555
Ca5 O58 2.634681 1_555
Ca5 O6 2.650045 1_555
Ca6 O70 2.366663 1_556
Ca6 O82 2.422978 1_556
Ca6 O10 2.431549 1_555
Ca6 O48 2.530417 1_555
Ca6 O22 2.560593 1_555
Ca6 O45 2.570625 1_555
Ca6 O57 2.669816 1_556
Ca6 O5 2.703766 1_556
Ca7 O58 2.284741 1_555
Ca7 O4 2.405167 1_555
Ca7 O84 2.418072 1_555
Ca7 O65 2.480175 1_555
Ca7 O31 2.541556 1_555
Ca7 O47 2.635774 1_555
Ca7 O23 2.781001 1_555
Ca7 O66 2.861387 1_555
Ca7 O7 3.045187 1_555
Ca7 O88 3.074992 1_555
Ca8 O68 2.311414 1_555
Ca8 O5 2.321294 1_556
Ca8 O59 2.428343 1_556
Ca8 O87 2.485900 1_555
Ca8 O10 2.617942 1_555
Ca8 O24 2.669088 1_556
Ca8 O46 2.783807 1_565
Ca8 O32 2.937853 1_556
Ca8 O91 2.966133 1_555
Ca9 O6 2.264835 1_555
Ca9 O67 2.351706 1_555
Ca9 O60 2.382626 1_555
Ca9 O86 2.411685 1_555
Ca9 O25 2.488031 1_555
Ca9 O9 2.661320 1_555
Ca9 O33 2.679361 1_555
Ca10 O62 2.372303 1_655
Ca10 O89 2.401991 1_555
Ca10 O53 2.419833 1_656
Ca10 O52 2.421347 1_555
Ca10 O34 2.452408 1_556
Ca10 O26 2.612996 1_556
Ca10 O12 2.703111 1_555
Ca11 O54 2.345055 1_655
Ca11 O88 2.419800 1_555
Ca11 O35 2.483762 1_555
Ca11 O0 2.500534 1_655
Ca11 O61 2.520716 1_655
Ca11 O51 2.559014 1_555
Ca11 O27 2.664373 1_555
Ca11 O11 2.715359 1_555
Ca12 O64 2.362316 1_654
Ca12 O1 2.385033 1_655
Ca12 O91 2.418742 1_554
Ca12 O28 2.510204 1_555
Ca12 O14 2.546431 1_554
Ca12 O55 2.556461 1_655
Ca12 O36 2.634255 1_555
Ca12 O50 2.661928 1_564
Ca13 O2 2.374045 1_655
Ca13 O90 2.393570 1_555
Ca13 O63 2.434482 1_655
Ca13 O29 2.468660 1_555
Ca13 O56 2.488955 1_655
Ca13 O13 2.549566 1_555
Ca13 O37 2.611795 1_555
Ca13 O49 2.780494 1_565
Ca14 O31 2.306254 1_555
Ca14 O62 2.416991 1_555
Ca14 O54 2.432124 1_555
Ca14 O23 2.523802 1_555
Ca14 O41 2.562662 1_555
Ca14 O0 2.721978 1_555
Ca14 O16 2.787027 1_555
Ca14 O84 2.848243 1_555
Ca14 O85 2.993931 1_556
Ca15 O86 2.342519 1_555
Ca15 O24 2.375178 1_555
Ca15 O63 2.475919 1_555
Ca15 O32 2.537419 1_555
Ca15 O1 2.548417 1_555
Ca15 O17 2.616641 1_555
Ca15 O38 2.626908 1_565
Ca15 O55 2.671030 1_555
Ca16 O25 2.318214 1_555
Ca16 O87 2.392604 1_555
Ca16 O64 2.440253 1_555
Ca16 O2 2.521972 1_555
Ca16 O33 2.547292 1_555
Ca16 O18 2.555258 1_555
Ca16 O56 2.660893 1_555
Ca16 O39 2.868917 1_565
Ca17 O34 2.327829 1_555
Ca17 O88 2.344627 1_555
Ca17 O57 2.501548 1_555
Ca17 O26 2.546858 1_555
Ca17 O44 2.569978 1_555
Ca17 O65 2.606384 1_555
Ca17 O19 2.929398 1_555
Ca17 O3 2.951516 1_555
Ca18 O35 2.359484 1_555
Ca18 O66 2.397076 1_555
Ca18 O89 2.404188 1_555
Ca18 O27 2.441587 1_555
Ca18 O58 2.555421 1_555
Ca18 O45 2.627909 1_555
Ca18 O20 2.714846 1_555
Ca18 O4 2.721697 1_555
Ca19 O28 2.329141 1_555
Ca19 O90 2.348780 1_555
Ca19 O36 2.485347 1_555
Ca19 O5 2.502440 1_555
Ca19 O67 2.514300 1_555
Ca19 O21 2.591864 1_555
Ca19 O59 2.839723 1_555
Ca20 O91 2.362453 1_555
Ca20 O29 2.365187 1_555
Ca20 O68 2.416047 1_555
Ca20 O37 2.467487 1_555
Ca20 O6 2.533092 1_555
Ca20 O22 2.655738 1_555
Ca20 O60 2.677484 1_555
Ca20 O43 2.698083 1_565
Ca21 O69 2.383762 1_555
Ca21 O77 2.410514 1_555
Ca21 O39 2.450309 1_555
Ca21 O16 2.488407 1_555
Ca21 O33 2.503318 1_545
Ca21 O46 2.575248 1_555
Ca21 O23 2.608312 1_555
Ca21 O8 2.784484 1_555
Ca22 O17 2.395737 1_555
Ca22 O40 2.430492 1_555
Ca22 O70 2.434220 1_555
Ca22 O78 2.462714 1_555
Ca22 O9 2.481501 1_555
Ca22 O47 2.526022 1_555
Ca22 O30 2.640442 1_555
Ca22 O24 2.691836 1_555
Ca23 O79 2.326319 1_555
Ca23 O71 2.406807 1_555
Ca23 O18 2.422487 1_555
Ca23 O41 2.460261 1_555
Ca23 O10 2.613087 1_555
Ca23 O48 2.619242 1_555
Ca23 O31 2.643576 1_555
Ca23 O25 2.664565 1_555
Ca24 O19 2.336040 1_555
Ca24 O80 2.340272 1_555
Ca24 O42 2.405657 1_555
Ca24 O49 2.478453 1_555
Ca24 O72 2.517635 1_555
Ca24 O36 2.613599 1_545
Ca24 O11 2.731412 1_555
Ca24 O26 2.857912 1_555
Ca25 O81 2.312225 1_555
Ca25 O43 2.331706 1_555
Ca25 O20 2.345069 1_555
Ca25 O73 2.444421 1_555
Ca25 O27 2.703416 1_555
Ca25 O50 2.717533 1_555
Ca25 O37 2.720940 1_545
Ca25 O12 2.724627 1_555
Ca26 O21 2.339226 1_555
Ca26 O82 2.341824 1_555
Ca26 O44 2.354233 1_555
Ca26 O74 2.529146 1_555
Ca26 O13 2.680786 1_555
Ca26 O51 2.694249 1_555
Ca26 O34 2.704318 1_555
Ca26 O28 2.732070 1_555
Ca27 O83 2.355367 1_555
Ca27 O22 2.375104 1_555
Ca27 O45 2.408995 1_555
Ca27 O75 2.426483 1_555
Ca27 O14 2.625141 1_555
Ca27 O52 2.643633 1_555
Ca27 O29 2.727562 1_555
Ca27 O35 2.742134 1_555
Mn0 O54 1.949952 1_655
Mn0 O75 1.953592 1_555
Mn0 O35 1.955935 1_555
Mn0 O41 1.970217 1_655
Mn0 O52 1.975993 1_555
Mn0 O62 2.000958 1_655
Mn1 O67 1.878218 1_555
Mn1 O42 1.905751 1_565
Mn1 O32 1.910290 1_555
Mn1 O59 1.923859 1_555
Mn2 O43 1.954128 1_565
Mn2 O68 1.956851 1_555
Mn2 O60 1.959083 1_555
Mn2 O33 1.983533 1_555
Mn2 O69 1.995478 1_565
Mn2 O46 2.020658 1_565
Mn3 O70 1.936910 1_555
Mn3 O44 1.952270 1_555
Mn3 O47 1.954998 1_555
Mn3 O30 1.971501 1_555
Mn3 O65 1.981241 1_555
Mn3 O57 1.985072 1_555
Mn4 O71 1.928734 1_555
Mn4 O31 1.963453 1_555
Mn4 O45 1.966243 1_555
Mn4 O58 1.973576 1_555
Mn4 O48 1.979954 1_555
Mn4 O66 1.989532 1_555
Mn5 O79 1.933362 1_555
Mn5 O31 1.935103 1_555
Mn5 O40 1.962974 1_555
Mn5 O47 1.980922 1_555
Mn5 O54 2.023593 1_555
Mn5 O84 2.044844 1_555
Mn6 O59 1.904304 1_556
Mn6 O91 1.945406 1_555
Mn6 O36 1.964415 1_556
Mn6 O50 1.967943 1_565
Mn6 O43 1.973544 1_565
Mn6 O80 1.983010 1_566
Mn7 O60 1.942276 1_555
Mn7 O49 1.981124 1_565
Mn7 O90 1.983022 1_555
Mn7 O37 2.001038 1_555
Mn7 O81 2.013995 1_565
Mn7 O42 2.049552 1_565
Mn8 O57 1.931984 1_556
Mn8 O45 1.955026 1_555
Mn8 O82 1.963865 1_556
Mn8 O34 1.971205 1_556
Mn8 O52 1.992196 1_555
Mn8 O89 1.997190 1_555
Mn9 O83 1.933406 1_555
Mn9 O58 1.949224 1_555
Mn9 O44 1.967456 1_555
Mn9 O35 1.977770 1_555
Mn9 O51 1.986839 1_555
Mn9 O88 2.002612 1_555
Mn10 O79 1.935322 1_555
Mn10 O25 1.955608 1_555
Mn10 O17 1.966253 1_555
Mn10 O9 1.967754 1_555
Mn10 O2 1.998396 1_555
Mn10 O86 2.037867 1_555
Mn11 O20 1.931507 1_554
Mn11 O26 1.990327 1_555
Mn11 O80 1.991763 1_555
Mn11 O89 1.998359 1_554
Mn11 O12 1.998568 1_554
Mn11 O3 2.094885 1_555
Mn12 O4 1.887253 1_555
Mn12 O19 1.933916 1_555
Mn12 O88 1.970252 1_555
Mn12 O27 1.978265 1_555
Mn12 O81 1.987030 1_555
Mn12 O11 1.987832 1_555
Mn13 O82 1.949271 1_556
Mn13 O22 1.951694 1_555
Mn13 O91 1.963770 1_555
Mn13 O28 1.972078 1_556
Mn13 O5 1.984942 1_556
Mn13 O14 2.003413 1_555
Mn14 O6 1.959467 1_555
Mn14 O83 1.965796 1_555
Mn14 O13 1.977433 1_555
Mn14 O21 1.978580 1_555
Mn14 O29 1.987706 1_555
Mn14 O90 1.995708 1_555
Mn15 O29 1.955185 1_455
Mn15 O75 1.964047 1_455
Mn15 O18 1.968423 1_555
Mn15 O14 1.968465 1_455
Mn15 O64 1.981231 1_555
Mn15 O2 2.000805 1_555
Mn16 O19 1.865128 1_555
Mn16 O7 1.872667 1_555
Mn16 O3 1.892024 1_555
Mn16 O65 1.912237 1_555
Mn17 O66 1.947337 1_555
Mn17 O69 1.967816 1_555
Mn17 O4 1.973691 1_555
Mn17 O20 2.024950 1_555
Mn17 O23 2.025938 1_555
Mn17 O8 2.042337 1_555
Mn18 O70 1.934182 1_555
Mn18 O21 1.955789 1_555
Mn18 O67 1.970466 1_555
Mn18 O9 1.973505 1_555
Mn18 O24 1.987715 1_555
Mn18 O5 1.996079 1_555
Mn19 O71 1.947747 1_555
Mn19 O22 1.949867 1_555
Mn19 O6 1.970579 1_555
Mn19 O10 1.971414 1_555
Mn19 O25 1.993467 1_555
Mn19 O68 1.995968 1_555
O0 Ti7 1.874900 1_555
O0 Ti10 2.096042 1_455
O0 Sr0 2.655175 1_555
O1 Ti8 1.958077 1_555
O1 Ti11 2.025845 1_455
O3 Sr1 2.529723 1_554
O7 Ti7 2.246350 1_555
O7 Sr3 2.547415 1_555
O8 Ti6 1.784327 1_555
O8 Sr1 2.765087 1_555
O10 Ti8 1.982513 1_556
O11 Ti9 1.771385 1_555
O11 Sr0 2.442738 1_655
O12 Ti10 1.895808 1_555
O13 Ti11 1.957593 1_555
O15 Ti9 1.934730 1_455
O15 Ti7 2.078153 1_555
O15 Sr3 2.387728 1_555
O15 Sr2 2.641424 1_555
O15 Sr0 2.960444 1_555
O16 Ti6 1.790566 1_555
O16 Ti10 2.034067 1_455
O17 Ti11 1.976003 1_455
O18 Ti8 1.983927 1_556
O23 Ti7 1.860678 1_555
O24 Ti8 1.946233 1_555
O26 Ti9 1.915130 1_555
O27 Ti10 1.872009 1_555
O28 Ti11 1.969080 1_555
O30 Ti5 1.914580 1_555
O30 Sr2 2.453087 1_555
O30 Sr1 2.781626 1_554
O32 Ti3 2.091222 1_554
O32 Sr3 2.578658 1_565
O33 Ti4 1.939679 1_555
O34 Ti2 1.954726 1_555
O36 Ti0 1.921179 1_555
O37 Ti1 1.914935 1_555
O38 Ti4 1.943200 1_545
O38 Ti0 2.031480 1_445
O38 Sr3 2.361939 1_555
O38 Sr0 2.767178 1_555
O39 Ti3 1.895881 1_545
O39 Ti1 2.093602 1_445
O40 Ti2 1.992234 1_455
O40 Sr2 2.594856 1_555
O41 Ti5 1.980848 1_556
O46 Ti3 1.953698 1_545
O48 Ti5 1.983845 1_556
O48 Sr1 2.650999 1_555
O49 Ti0 1.974925 1_545
O49 Sr0 2.461245 1_655
O50 Ti1 1.853992 1_545
O51 Ti2 1.946979 1_555
O53 Ti5 1.945021 1_555
O53 Ti2 2.006094 1_455
O53 Sr2 2.698032 1_555
O55 Ti0 1.989555 1_455
O55 Ti3 1.995946 1_554
O56 Ti4 1.786941 1_555
O56 Ti1 2.060569 1_455
O56 Sr0 2.732524 1_565
O57 Sr1 2.413253 1_554
O61 Ti9 1.937090 1_455
O61 Ti2 1.989839 1_455
O61 Sr2 2.575694 1_555
O62 Ti10 1.947261 1_455
O63 Ti0 1.896484 1_455
O63 Ti11 1.989051 1_455
O64 Ti1 1.943636 1_455
O65 Sr2 2.807066 1_555
O65 Sr1 3.093283 1_554
O66 Sr1 2.427583 1_555
O72 Ti9 1.994021 1_555
O72 Ti0 2.099367 1_545
O72 Sr3 2.803126 1_655
O73 Ti1 1.998224 1_545
O73 Ti10 2.024100 1_555
O73 Sr0 2.409590 1_655
O74 Ti11 1.930711 1_555
O74 Ti2 1.951676 1_555
O76 Ti6 1.818386 1_554
O76 Sr3 2.349604 1_555
O76 Ti3 2.458996 1_544
O77 Ti4 1.981717 1_545
O77 Ti7 2.132954 1_555
O77 Sr0 2.686558 1_555
O77 Sr3 2.740789 1_555
O78 Ti5 1.890666 1_555
O78 Ti8 1.925513 1_555
O84 Ti7 1.891745 1_555
O84 Sr2 2.412988 1_555
O85 Ti6 1.842255 1_554
O85 Ti5 2.267423 1_555
O85 Sr2 2.697224 1_555
O85 Sr1 2.742905 1_554
O86 Ti4 1.902725 1_555
O87 Ti3 1.833640 1_555
O87 Ti8 2.063556 1_556
O89 Sr1 2.762842 1_555
