# generated using pymatgen
data_Ce2FeRu3
_symmetry_space_group_name_H-M   'P 1'
_cell_length_a   5.03099355
_cell_length_b   5.03099355
_cell_length_c   5.03099319
_cell_angle_alpha   67.81370321
_cell_angle_beta   67.81370321
_cell_angle_gamma   67.81369257
_symmetry_Int_Tables_number   1
_chemical_formula_structural   Ce2FeRu3
_chemical_formula_sum   'Ce2 Fe1 Ru3'
_cell_volume   104.99905834
_cell_formula_units_Z   1
loop_
 _symmetry_equiv_pos_site_id
 _symmetry_equiv_pos_as_xyz
  1  'x, y, z'
loop_
 _atom_site_type_symbol
 _atom_site_label
 _atom_site_symmetry_multiplicity
 _atom_site_fract_x
 _atom_site_fract_y
 _atom_site_fract_z
 _atom_site_occupancy
  Ce  Ce0  1  0.63384901  0.63384901  0.63384901  1
  Ce  Ce1  1  0.36615099  0.36615099  0.36615099  1
  Fe  Fe0  1  -0.00000000  -0.00000000  0.00000000  1
  Ru  Ru0  1  -0.00000000  0.50000000  0.00000000  1
  Ru  Ru1  1  0.50000000  -0.00000000  0.00000000  1
  Ru  Ru2  1  -0.00000000  -0.00000000  0.50000000  1
loop_
_geom_bond_atom_site_label_1
_geom_bond_atom_site_label_2
_geom_bond_distance
_geom_bond_site_symmetry_2
Ce0 Ru1 2.815891 1_566
Ce0 Ru0 2.815891 1_656
Ce0 Ru2 2.815892 1_665
Ce0 Ce1 3.090492 1_555
Ce0 Ru2 3.203793 1_655
Ce0 Ru2 3.203793 1_565
Ce0 Ru1 3.203793 1_565
Ce0 Ru0 3.203793 1_655
Ce0 Ru0 3.203793 1_556
Ce0 Ru1 3.203793 1_556
Ce0 Fe0 3.262752 1_566
Ce0 Fe0 3.262752 1_656
Ce0 Fe0 3.262752 1_665
Ce0 Ce1 3.328089 1_655
Ce0 Ce1 3.328089 1_565
Ce0 Ce1 3.328089 1_556
Ce1 Ru0 2.815891 1_555
Ce1 Ru1 2.815891 1_555
Ce1 Ru2 2.815892 1_555
Ce1 Ru2 3.203793 1_655
Ce1 Ru2 3.203793 1_565
Ce1 Ru0 3.203793 1_556
Ce1 Ru1 3.203793 1_556
Ce1 Ru1 3.203793 1_565
Ce1 Ru0 3.203793 1_655
Ce1 Fe0 3.262752 1_565
Ce1 Fe0 3.262752 1_655
Ce1 Fe0 3.262752 1_556
Fe0 Ru2 2.515497 1_554
Fe0 Ru2 2.515497 1_555
Fe0 Ru1 2.515497 1_455
Fe0 Ru0 2.515497 1_555
Fe0 Ru0 2.515497 1_545
Fe0 Ru1 2.515497 1_555
Ru0 Ru1 2.806511 1_465
Ru0 Ru1 2.806511 1_555
Ru0 Ru2 2.806511 1_555
Ru0 Ru2 2.806511 1_564
Ru1 Ru2 2.806511 1_654
Ru1 Ru2 2.806511 1_555
