# generated using pymatgen
data_Ag5Au3S4
_symmetry_space_group_name_H-M   'P 1'
_cell_length_a   4.63564150
_cell_length_b   4.81266722
_cell_length_c   13.62472420
_cell_angle_alpha   88.69229496
_cell_angle_beta   88.97708595
_cell_angle_gamma   110.53370742
_symmetry_Int_Tables_number   1
_chemical_formula_structural   Ag5Au3S4
_chemical_formula_sum   'Ag5 Au3 S4'
_cell_volume   284.47007001
_cell_formula_units_Z   1
loop_
 _symmetry_equiv_pos_site_id
 _symmetry_equiv_pos_as_xyz
  1  'x, y, z'
loop_
 _atom_site_type_symbol
 _atom_site_label
 _atom_site_symmetry_multiplicity
 _atom_site_fract_x
 _atom_site_fract_y
 _atom_site_fract_z
 _atom_site_occupancy
  Ag  Ag0  1  0.92140600  0.30961000  0.24323700  1
  Ag  Ag1  1  0.29699100  0.03638100  0.73998500  1
  Ag  Ag2  1  0.47594200  0.89320100  0.39614200  1
  Ag  Ag3  1  0.65541800  0.27094800  0.01431900  1
  Ag  Ag4  1  0.86245800  0.47708000  0.44996500  1
  Au  Au0  1  0.77115000  0.77387900  0.13923400  1
  Au  Au1  1  0.74112500  0.79659800  0.62036000  1
  Au  Au2  1  0.76959600  0.78884600  0.87985300  1
  S  S0  1  0.06950400  0.05157000  0.00624900  1
  S  S1  1  0.02822900  0.03236000  0.48049000  1
  S  S2  1  0.47992500  0.49439200  0.27343500  1
  S  S3  1  0.42825600  0.57513500  0.75673100  1
loop_
_geom_bond_atom_site_label_1
_geom_bond_atom_site_label_2
_geom_bond_distance
_geom_bond_site_symmetry_2
Ag0 S2 2.470435 1_655
Ag0 S2 2.532167 1_555
Ag0 Au0 2.843036 1_545
Ag0 Au0 2.909984 1_555
Ag1 S3 2.463801 1_555
Ag1 S3 2.505865 1_545
Ag1 Au2 2.952071 1_445
Ag1 Au1 2.962732 1_445
Ag1 Au1 3.140025 1_545
Ag1 Au2 3.424448 1_545
Ag2 S2 2.578660 1_555
Ag2 S1 2.646079 1_565
Ag2 S1 2.694665 1_665
Ag2 Au1 3.395580 1_555
Ag3 S0 2.496191 1_655
Ag3 S0 2.551116 1_555
Ag3 Au0 2.890086 1_555
Ag3 Au2 2.946268 1_554
Ag3 Au0 3.107129 1_545
Ag3 Au2 3.168723 1_544
Ag4 S1 2.543405 1_655
Ag4 S1 2.554721 1_665
Ag4 Au1 2.965436 1_555
Ag4 S2 3.030366 1_555
Au0 S0 2.342046 1_665
Au0 S2 2.345368 1_555
Au1 S3 2.328240 1_555
Au1 S1 2.332762 1_665
Au2 S3 2.325397 1_555
Au2 S0 2.334293 1_666
