# generated using pymatgen
data_Nd3NbSb5
_symmetry_space_group_name_H-M   'P 1'
_cell_length_a   9.47037669
_cell_length_b   9.47037669
_cell_length_c   6.26120700
_cell_angle_alpha   90.00000000
_cell_angle_beta   90.00000000
_cell_angle_gamma   120.00000484
_symmetry_Int_Tables_number   1
_chemical_formula_structural   Nd3NbSb5
_chemical_formula_sum   'Nd6 Nb2 Sb10'
_cell_volume   486.32117566
_cell_formula_units_Z   2
loop_
 _symmetry_equiv_pos_site_id
 _symmetry_equiv_pos_as_xyz
  1  'x, y, z'
loop_
 _atom_site_type_symbol
 _atom_site_label
 _atom_site_symmetry_multiplicity
 _atom_site_fract_x
 _atom_site_fract_y
 _atom_site_fract_z
 _atom_site_occupancy
  Nd  Nd0  1  0.62021100  0.00000000  0.75000000  1
  Nd  Nd1  1  0.37978900  0.00000000  0.25000000  1
  Nd  Nd2  1  0.00000000  0.62021100  0.75000000  1
  Nd  Nd3  1  0.00000000  0.37978900  0.25000000  1
  Nd  Nd4  1  0.37978900  0.37978900  0.75000000  1
  Nd  Nd5  1  0.62021100  0.62021100  0.25000000  1
  Nb  Nb0  1  0.00000000  0.00000000  0.50000000  1
  Nb  Nb1  1  0.00000000  0.00000000  0.00000000  1
  Sb  Sb0  1  0.26116400  0.00000000  0.75000000  1
  Sb  Sb1  1  0.73883600  0.00000000  0.25000000  1
  Sb  Sb2  1  0.00000000  0.26116400  0.75000000  1
  Sb  Sb3  1  0.00000000  0.73883600  0.25000000  1
  Sb  Sb4  1  0.73883600  0.73883600  0.75000000  1
  Sb  Sb5  1  0.26116400  0.26116400  0.25000000  1
  Sb  Sb6  1  0.33333300  0.66666700  0.50000000  1
  Sb  Sb7  1  0.66666700  0.33333300  0.50000000  1
  Sb  Sb8  1  0.66666700  0.33333300  0.00000000  1
  Sb  Sb9  1  0.33333300  0.66666700  0.00000000  1
loop_
_geom_bond_atom_site_label_1
_geom_bond_atom_site_label_2
_geom_bond_distance
_geom_bond_site_symmetry_2
Nd0 Sb2 3.187159 1_655
Nd0 Sb4 3.187160 1_545
Nd0 Sb1 3.326073 1_555
Nd0 Sb1 3.326073 1_556
Nd0 Sb8 3.349657 1_556
Nd0 Sb7 3.349657 1_555
Nd0 Sb6 3.349660 1_545
Nd0 Sb9 3.349660 1_546
Nd0 Sb0 3.400310 1_555
Nd1 Sb3 3.187159 1_545
Nd1 Sb5 3.187160 1_555
Nd1 Sb0 3.326073 1_554
Nd1 Sb0 3.326073 1_555
Nd1 Sb6 3.349657 1_545
Nd1 Sb9 3.349657 1_545
Nd1 Sb8 3.349660 1_555
Nd1 Sb7 3.349660 1_555
Nd1 Sb1 3.400310 1_555
Nd2 Sb0 3.187159 1_565
Nd2 Sb4 3.187160 1_455
Nd2 Sb3 3.326073 1_555
Nd2 Sb3 3.326073 1_556
Nd2 Sb9 3.349657 1_556
Nd2 Sb6 3.349657 1_555
Nd2 Sb7 3.349660 1_455
Nd2 Sb8 3.349660 1_456
Nd2 Sb2 3.400310 1_555
Nd3 Sb1 3.187159 1_455
Nd3 Sb5 3.187160 1_555
Nd3 Sb2 3.326073 1_554
Nd3 Sb2 3.326073 1_555
Nd3 Sb7 3.349657 1_455
Nd3 Sb8 3.349657 1_455
Nd3 Sb9 3.349660 1_555
Nd3 Sb6 3.349660 1_555
Nd3 Sb3 3.400310 1_555
Nd4 Sb2 3.187160 1_555
Nd4 Sb0 3.187160 1_555
Nd4 Sb5 3.326073 1_556
Nd4 Sb5 3.326073 1_555
Nd4 Sb6 3.349665 1_555
Nd4 Sb9 3.349665 1_556
Nd4 Sb8 3.349665 1_556
Nd4 Sb7 3.349665 1_555
Nd4 Sb4 3.400310 1_555
Nd5 Sb3 3.187160 1_655
Nd5 Sb1 3.187160 1_565
Nd5 Sb4 3.326073 1_554
Nd5 Sb4 3.326073 1_555
Nd5 Sb7 3.349665 1_555
Nd5 Sb8 3.349665 1_555
Nd5 Sb9 3.349665 1_555
Nd5 Sb6 3.349665 1_555
Nd5 Sb5 3.400310 1_555
Nb0 Sb5 2.927027 1_555
Nb0 Sb4 2.927027 1_445
Nb0 Sb2 2.927027 1_555
Nb0 Sb0 2.927027 1_555
Nb0 Sb3 2.927027 1_545
Nb0 Sb1 2.927027 1_455
Nb1 Sb5 2.927027 1_555
Nb1 Sb4 2.927027 1_444
Nb1 Sb2 2.927027 1_554
Nb1 Sb0 2.927027 1_554
Nb1 Sb3 2.927027 1_545
Nb1 Sb1 2.927027 1_455
Sb6 Sb9 3.130603 1_556
Sb6 Sb9 3.130603 1_555
Sb7 Sb8 3.130603 1_556
Sb7 Sb8 3.130603 1_555
