# generated using pymatgen
data_Rb3SbF12
_symmetry_space_group_name_H-M   'P 1'
_cell_length_a   8.29799429
_cell_length_b   8.74990426
_cell_length_c   7.18671120
_cell_angle_alpha   68.89503710
_cell_angle_beta   139.40913568
_cell_angle_gamma   118.30573283
_symmetry_Int_Tables_number   1
_chemical_formula_structural   Rb3SbF12
_chemical_formula_sum   'Rb3 Sb1 F12'
_cell_volume   298.91722978
_cell_formula_units_Z   1
loop_
 _symmetry_equiv_pos_site_id
 _symmetry_equiv_pos_as_xyz
  1  'x, y, z'
loop_
 _atom_site_type_symbol
 _atom_site_label
 _atom_site_symmetry_multiplicity
 _atom_site_fract_x
 _atom_site_fract_y
 _atom_site_fract_z
 _atom_site_occupancy
  Rb  Rb0  1  0.00000000  0.00000000  0.50000000  1
  Rb  Rb1  1  0.50000000  0.50000000  0.00000000  1
  Rb  Rb2  1  0.00000000  0.50000000  0.00000000  1
  Sb  Sb0  1  0.00000000  0.00000000  0.00000000  1
  F  F0  1  0.10574300  0.84412500  0.99291100  1
  F  F1  1  0.89425700  0.15587500  0.00708900  1
  F  F2  1  0.81112000  0.15472600  0.61177300  1
  F  F3  1  0.73838200  0.84412500  0.00708900  1
  F  F4  1  0.18888000  0.84527400  0.38822700  1
  F  F5  1  0.26161800  0.15587500  0.99291100  1
  F  F6  1  0.61204800  0.67608000  0.43132400  1
  F  F7  1  0.34360600  0.15472600  0.38822700  1
  F  F8  1  0.38795200  0.32392000  0.56867600  1
  F  F9  1  0.65639400  0.84527400  0.61177300  1
  F  F10  1  0.06403300  0.67608000  0.56867600  1
  F  F11  1  0.93596700  0.32392000  0.43132400  1
loop_
_geom_bond_atom_site_label_1
_geom_bond_atom_site_label_2
_geom_bond_distance
_geom_bond_site_symmetry_2
F0 Sb0 1.971192 1_566
F0 Rb2 2.700151 1_556
F0 Rb0 2.848437 1_565
F1 Sb0 1.971192 1_655
F1 Rb2 2.700151 1_655
F1 Rb0 2.848437 1_655
F2 Sb0 2.173601 1_656
F2 Rb0 3.105196 1_655
F3 Sb0 1.971192 1_665
F3 Rb1 2.700151 1_555
F3 Rb0 2.848437 1_665
F4 Sb0 2.173601 1_565
F4 Rb0 3.105196 1_565
F5 Sb0 1.971192 1_556
F5 Rb1 2.700151 1_556
F5 Rb0 2.848437 1_555
F6 Rb0 2.929417 1_665
F6 Rb2 3.102793 1_656
F6 Rb2 3.144059 1_555
F6 Rb1 3.248163 1_555
F7 Sb0 2.173601 1_555
F7 Rb0 3.105196 1_555
F8 Rb0 2.929417 1_555
F8 Rb2 3.102793 1_555
F8 Rb2 3.144059 1_656
F8 Rb1 3.248163 1_556
F9 Sb0 2.173601 1_666
F9 Rb0 3.105196 1_665
F10 Rb0 2.929422 1_565
F10 Rb1 3.102795 1_455
F10 Rb1 3.144054 1_556
F10 Rb2 3.248169 1_556
F11 Rb0 2.929422 1_655
F11 Rb1 3.102795 1_656
F11 Rb1 3.144054 1_555
F11 Rb2 3.248169 1_655
