# generated using pymatgen
data_K4Nb8Si(P2O17)2
_symmetry_space_group_name_H-M   'P 1'
_cell_length_a   10.78115900
_cell_length_b   10.78115900
_cell_length_c   6.52508000
_cell_angle_alpha   90.00000000
_cell_angle_beta   90.00000000
_cell_angle_gamma   90.00000000
_symmetry_Int_Tables_number   1
_chemical_formula_structural   K4Nb8Si(P2O17)2
_chemical_formula_sum   'K4 Nb8 Si1 P4 O34'
_cell_volume   758.43216440
_cell_formula_units_Z   1
loop_
 _symmetry_equiv_pos_site_id
 _symmetry_equiv_pos_as_xyz
  1  'x, y, z'
loop_
 _atom_site_type_symbol
 _atom_site_label
 _atom_site_symmetry_multiplicity
 _atom_site_fract_x
 _atom_site_fract_y
 _atom_site_fract_z
 _atom_site_occupancy
  K  K0  1  0.50000000  0.50000000  0.50000000  1
  K  K1  1  0.00000000  0.50000000  0.30017100  1
  K  K2  1  0.50000000  0.00000000  0.69982900  1
  K  K3  1  0.00000000  0.00000000  0.50000000  1
  Nb  Nb0  1  0.17795400  0.17795400  0.00000000  1
  Nb  Nb1  1  0.82204600  0.82204600  0.00000000  1
  Nb  Nb2  1  0.82204600  0.17795400  0.00000000  1
  Nb  Nb3  1  0.17795400  0.82204600  0.00000000  1
  Nb  Nb4  1  0.50000000  0.18661000  0.20218200  1
  Nb  Nb5  1  0.81339000  0.50000000  0.79781800  1
  Nb  Nb6  1  0.18661000  0.50000000  0.79781800  1
  Nb  Nb7  1  0.50000000  0.81339000  0.20218200  1
  Si  Si0  1  0.50000000  0.50000000  0.00000000  1
  P  P0  1  0.24016300  0.24016300  0.50000000  1
  P  P1  1  0.24016300  0.75983700  0.50000000  1
  P  P2  1  0.75983700  0.75983700  0.50000000  1
  P  P3  1  0.75983700  0.24016300  0.50000000  1
  O  O0  1  0.16112600  0.19636600  0.31323000  1
  O  O1  1  0.83887400  0.80363400  0.31323000  1
  O  O2  1  0.80363400  0.16112600  0.68677000  1
  O  O3  1  0.19636600  0.83887400  0.68677000  1
  O  O4  1  0.83887400  0.19636600  0.31323000  1
  O  O5  1  0.80363400  0.83887400  0.68677000  1
  O  O6  1  0.19636600  0.16112600  0.68677000  1
  O  O7  1  0.16112600  0.80363400  0.31323000  1
  O  O8  1  0.82455600  0.00000000  0.02817800  1
  O  O9  1  0.00000000  0.82455600  0.97182200  1
  O  O10  1  0.00000000  0.17544400  0.97182200  1
  O  O11  1  0.17544400  0.00000000  0.02817800  1
  O  O12  1  0.50000000  0.37460500  0.14864400  1
  O  O13  1  0.62539500  0.50000000  0.85135600  1
  O  O14  1  0.37460500  0.50000000  0.85135600  1
  O  O15  1  0.50000000  0.62539500  0.14864400  1
  O  O16  1  0.37805600  0.21439500  0.45924100  1
  O  O17  1  0.50000000  0.00000000  0.25363600  1
  O  O18  1  0.00000000  0.50000000  0.74636400  1
  O  O19  1  0.36306200  0.82752400  0.02160600  1
  O  O20  1  0.17247600  0.36306200  0.97839400  1
  O  O21  1  0.82752400  0.63693800  0.97839400  1
  O  O22  1  0.63693800  0.17247600  0.02160600  1
  O  O23  1  0.17247600  0.63693800  0.97839400  1
  O  O24  1  0.82752400  0.36306200  0.97839400  1
  O  O25  1  0.63693800  0.82752400  0.02160600  1
  O  O26  1  0.36306200  0.17247600  0.02160600  1
  O  O27  1  0.37805600  0.78560500  0.45924100  1
  O  O28  1  0.21439500  0.37805600  0.54075900  1
  O  O29  1  0.78560500  0.62194400  0.54075900  1
  O  O30  1  0.62194400  0.21439500  0.45924100  1
  O  O31  1  0.21439500  0.62194400  0.54075900  1
  O  O32  1  0.78560500  0.37805600  0.54075900  1
  O  O33  1  0.62194400  0.78560500  0.45924100  1
loop_
_geom_bond_atom_site_label_1
_geom_bond_atom_site_label_2
_geom_bond_distance
_geom_bond_site_symmetry_2
K0 O13 2.661537 1_555
K0 O12 2.661537 1_555
K0 O14 2.661537 1_555
K0 O15 2.661537 1_555
K1 O18 2.911445 1_555
K1 O28 3.087972 1_555
K1 O32 3.087972 1_455
K1 O29 3.087972 1_455
K1 O31 3.087972 1_555
K1 O24 3.169499 1_454
K1 O21 3.169499 1_454
K1 O20 3.169499 1_554
K1 O23 3.169499 1_554
K2 O17 2.911445 1_555
K2 O16 3.087972 1_555
K2 O27 3.087972 1_545
K2 O30 3.087972 1_555
K2 O33 3.087972 1_545
K2 O25 3.169499 1_546
K2 O19 3.169499 1_546
K2 O22 3.169499 1_556
K2 O26 3.169499 1_556
K3 O6 2.997452 1_555
K3 O2 2.997452 1_455
K3 O1 2.997452 1_445
K3 O3 2.997452 1_545
K3 O7 2.997452 1_545
K3 O5 2.997452 1_445
K3 O0 2.997452 1_555
K3 O4 2.997452 1_455
Nb0 O10 1.927530 1_554
Nb0 O11 1.927530 1_555
Nb0 O20 2.001524 1_554
Nb0 O26 2.001524 1_555
Nb0 O6 2.061467 1_554
Nb0 O0 2.061467 1_555
Nb1 O9 1.927530 1_654
Nb1 O8 1.927530 1_565
Nb1 O21 2.001524 1_554
Nb1 O25 2.001524 1_555
Nb1 O5 2.061467 1_554
Nb1 O1 2.061467 1_555
Nb2 O10 1.927530 1_654
Nb2 O8 1.927530 1_555
Nb2 O24 2.001524 1_554
Nb2 O22 2.001524 1_555
Nb2 O2 2.061467 1_554
Nb2 O4 2.061467 1_555
Nb3 O11 1.927530 1_565
Nb3 O9 1.927530 1_554
Nb3 O19 2.001524 1_555
Nb3 O23 2.001524 1_554
Nb3 O7 2.061467 1_555
Nb3 O3 2.061467 1_554
Nb4 O22 1.895035 1_555
Nb4 O26 1.895035 1_555
Nb4 O17 2.039694 1_555
Nb4 O12 2.056690 1_555
Nb4 O16 2.152115 1_555
Nb4 O30 2.152115 1_555
Nb5 O24 1.895035 1_555
Nb5 O21 1.895035 1_555
Nb5 O18 2.039694 1_655
Nb5 O13 2.056690 1_555
Nb5 O32 2.152115 1_555
Nb5 O29 2.152115 1_555
Nb6 O20 1.895035 1_555
Nb6 O23 1.895035 1_555
Nb6 O18 2.039694 1_555
Nb6 O14 2.056690 1_555
Nb6 O28 2.152115 1_555
Nb6 O31 2.152115 1_555
Nb7 O25 1.895035 1_555
Nb7 O19 1.895035 1_555
Nb7 O17 2.039694 1_565
Nb7 O15 2.056690 1_555
Nb7 O27 2.152115 1_555
Nb7 O33 2.152115 1_555
O0 P0 1.560209 1_555
O1 P2 1.560209 1_555
O2 P3 1.560209 1_555
O3 P1 1.560209 1_555
O4 P3 1.560209 1_555
O5 P2 1.560209 1_555
O6 P0 1.560209 1_555
O7 P1 1.560209 1_555
O12 Si0 1.663844 1_555
O13 Si0 1.663844 1_556
O14 Si0 1.663844 1_556
O15 Si0 1.663844 1_555
O16 P0 1.535587 1_555
O27 P1 1.535587 1_555
O28 P0 1.535587 1_555
O29 P2 1.535587 1_555
O30 P3 1.535587 1_555
O31 P1 1.535587 1_555
O32 P3 1.535587 1_555
O33 P2 1.535587 1_555
