# generated using pymatgen
data_Mg6TiSnO8
_symmetry_space_group_name_H-M   'P 1'
_cell_length_a   8.96281658
_cell_length_b   4.45022879
_cell_length_c   4.45022879
_cell_angle_alpha   90.00000000
_cell_angle_beta   90.00000000
_cell_angle_gamma   90.00000000
_symmetry_Int_Tables_number   1
_chemical_formula_structural   Mg6TiSnO8
_chemical_formula_sum   'Mg6 Ti1 Sn1 O8'
_cell_volume   177.50442616
_cell_formula_units_Z   1
loop_
 _symmetry_equiv_pos_site_id
 _symmetry_equiv_pos_as_xyz
  1  'x, y, z'
loop_
 _atom_site_type_symbol
 _atom_site_label
 _atom_site_symmetry_multiplicity
 _atom_site_fract_x
 _atom_site_fract_y
 _atom_site_fract_z
 _atom_site_occupancy
  Mg  Mg0  1  -0.00000000  0.50000000  0.50000000  1
  Mg  Mg1  1  0.50000000  0.50000000  0.50000000  1
  Mg  Mg2  1  0.25767279  -0.00000000  0.50000000  1
  Mg  Mg3  1  0.74232721  0.00000000  0.50000000  1
  Mg  Mg4  1  0.25767279  0.50000000  -0.00000000  1
  Mg  Mg5  1  0.74232721  0.50000000  0.00000000  1
  Ti  Ti0  1  0.50000000  0.00000000  -0.00000000  1
  Sn  Sn0  1  -0.00000000  0.00000000  -0.00000000  1
  O  O0  1  0.26692595  0.00000000  0.00000000  1
  O  O1  1  0.73307405  -0.00000000  -0.00000000  1
  O  O2  1  0.25048915  0.50000000  0.50000000  1
  O  O3  1  0.74951085  0.50000000  0.50000000  1
  O  O4  1  -0.00000000  0.00000000  0.50000000  1
  O  O5  1  0.50000000  0.00000000  0.50000000  1
  O  O6  1  -0.00000000  0.50000000  -0.00000000  1
  O  O7  1  0.50000000  0.50000000  -0.00000000  1
loop_
_geom_bond_atom_site_label_1
_geom_bond_atom_site_label_2
_geom_bond_distance
_geom_bond_site_symmetry_2
Mg0 O4 2.225114 1_555
Mg0 O4 2.225114 1_565
Mg0 O6 2.225114 1_556
Mg0 O6 2.225114 1_555
Mg0 O3 2.245088 1_455
Mg0 O2 2.245088 1_555
Mg1 O7 2.225114 1_555
Mg1 O7 2.225114 1_556
Mg1 O5 2.225114 1_555
Mg1 O5 2.225114 1_565
Mg1 O2 2.236320 1_555
Mg1 O3 2.236320 1_555
Mg2 O5 2.171934 1_555
Mg2 O2 2.226046 1_555
Mg2 O2 2.226046 1_545
Mg2 O0 2.226659 1_555
Mg2 O0 2.226659 1_556
Mg2 O4 2.309474 1_555
Mg3 O5 2.171934 1_555
Mg3 O3 2.226046 1_545
Mg3 O3 2.226046 1_555
Mg3 O1 2.226659 1_556
Mg3 O1 2.226659 1_555
Mg3 O4 2.309474 1_655
Mg4 O7 2.171934 1_555
Mg4 O2 2.226046 1_554
Mg4 O2 2.226046 1_555
Mg4 O0 2.226659 1_565
Mg4 O0 2.226659 1_555
Mg4 O6 2.309474 1_555
Mg5 O7 2.171934 1_555
Mg5 O3 2.226046 1_555
Mg5 O3 2.226046 1_554
Mg5 O1 2.226659 1_565
Mg5 O1 2.226659 1_555
Mg5 O6 2.309474 1_655
O0 Ti0 2.089000 1_555
O0 Sn0 2.392408 1_555
O1 Ti0 2.089000 1_555
O1 Sn0 2.392408 1_655
O4 Sn0 2.225114 1_555
O4 Sn0 2.225114 1_556
O5 Ti0 2.225114 1_556
O5 Ti0 2.225114 1_555
O6 Sn0 2.225114 1_555
O6 Sn0 2.225114 1_565
O7 Ti0 2.225114 1_565
O7 Ti0 2.225114 1_555
