# generated using pymatgen
data_TlCr(SO4)2
_symmetry_space_group_name_H-M   'P 1'
_cell_length_a   4.94628571
_cell_length_b   4.94628571
_cell_length_c   8.71046100
_cell_angle_alpha   90.00000000
_cell_angle_beta   90.00000000
_cell_angle_gamma   119.99999617
_symmetry_Int_Tables_number   1
_chemical_formula_structural   TlCr(SO4)2
_chemical_formula_sum   'Tl1 Cr1 S2 O8'
_cell_volume   184.55685767
_cell_formula_units_Z   1
loop_
 _symmetry_equiv_pos_site_id
 _symmetry_equiv_pos_as_xyz
  1  'x, y, z'
loop_
 _atom_site_type_symbol
 _atom_site_label
 _atom_site_symmetry_multiplicity
 _atom_site_fract_x
 _atom_site_fract_y
 _atom_site_fract_z
 _atom_site_occupancy
  Tl  Tl0  1  0.00000000  0.00000000  0.50000000  1
  Cr  Cr0  1  0.00000000  0.00000000  0.00000000  1
  S  S0  1  0.66666700  0.33333300  0.79532400  1
  S  S1  1  0.33333300  0.66666700  0.20467600  1
  O  O0  1  0.90714700  0.25966300  0.85237200  1
  O  O1  1  0.35251700  0.09285300  0.85237200  1
  O  O2  1  0.64748300  0.74033700  0.14762800  1
  O  O3  1  0.74033700  0.64748300  0.85237200  1
  O  O4  1  0.25966300  0.90714700  0.14762800  1
  O  O5  1  0.09285300  0.35251700  0.14762800  1
  O  O6  1  0.66666700  0.33333300  0.62754500  1
  O  O7  1  0.33333300  0.66666700  0.37245500  1
loop_
_geom_bond_atom_site_label_1
_geom_bond_atom_site_label_2
_geom_bond_distance
_geom_bond_site_symmetry_2
Cr0 O4 2.025827 1_545
Cr0 O0 2.025827 1_454
Cr0 O2 2.025830 1_445
Cr0 O3 2.025830 1_444
Cr0 O5 2.025831 1_555
Cr0 O1 2.025831 1_554
O0 S0 1.492653 1_555
O1 S0 1.492654 1_555
O2 S1 1.492654 1_555
O3 S0 1.492654 1_555
O4 S1 1.492653 1_555
O5 S1 1.492654 1_555
O6 S0 1.461432 1_555
O7 S1 1.461432 1_555
