# generated using pymatgen
data_Tb2(Al3Pd)3
_symmetry_space_group_name_H-M   'P 1'
_cell_length_a   7.67044170
_cell_length_b   7.67044170
_cell_length_c   9.51216600
_cell_angle_alpha   90.00000000
_cell_angle_beta   90.00000000
_cell_angle_gamma   119.70785191
_symmetry_Int_Tables_number   1
_chemical_formula_structural   Tb2(Al3Pd)3
_chemical_formula_sum   'Tb4 Al18 Pd6'
_cell_volume   486.09571885
_cell_formula_units_Z   2
loop_
 _symmetry_equiv_pos_site_id
 _symmetry_equiv_pos_as_xyz
  1  'x, y, z'
loop_
 _atom_site_type_symbol
 _atom_site_label
 _atom_site_symmetry_multiplicity
 _atom_site_fract_x
 _atom_site_fract_y
 _atom_site_fract_z
 _atom_site_occupancy
  Tb  Tb0  1  0.99439100  0.66942600  0.25000000  1
  Tb  Tb1  1  0.00560900  0.33057400  0.75000000  1
  Tb  Tb2  1  0.66942600  0.99439100  0.25000000  1
  Tb  Tb3  1  0.33057400  0.00560900  0.75000000  1
  Al  Al0  1  0.12780200  0.12780200  0.25000000  1
  Al  Al1  1  0.87219800  0.87219800  0.75000000  1
  Al  Al2  1  0.00051500  0.33417300  0.07602000  1
  Al  Al3  1  0.99948500  0.66582700  0.92398000  1
  Al  Al4  1  0.99948500  0.66582700  0.57602000  1
  Al  Al5  1  0.33417300  0.00051500  0.42398000  1
  Al  Al6  1  0.00051500  0.33417300  0.42398000  1
  Al  Al7  1  0.66582700  0.99948500  0.57602000  1
  Al  Al8  1  0.66582700  0.99948500  0.92398000  1
  Al  Al9  1  0.33417300  0.00051500  0.07602000  1
  Al  Al10  1  0.33400600  0.33400600  0.55929700  1
  Al  Al11  1  0.66599400  0.66599400  0.44070300  1
  Al  Al12  1  0.66599400  0.66599400  0.05929700  1
  Al  Al13  1  0.33400600  0.33400600  0.94070300  1
  Al  Al14  1  0.33709000  0.54544800  0.25000000  1
  Al  Al15  1  0.66291000  0.45455200  0.75000000  1
  Al  Al16  1  0.54544800  0.33709000  0.25000000  1
  Al  Al17  1  0.45455200  0.66291000  0.75000000  1
  Pd  Pd0  1  0.67133000  0.32867000  0.00000000  1
  Pd  Pd1  1  0.32867000  0.67133000  0.00000000  1
  Pd  Pd2  1  0.32867000  0.67133000  0.50000000  1
  Pd  Pd3  1  0.67133000  0.32867000  0.50000000  1
  Pd  Pd4  1  0.00000000  0.00000000  0.00000000  1
  Pd  Pd5  1  0.00000000  0.00000000  0.50000000  1
loop_
_geom_bond_atom_site_label_1
_geom_bond_atom_site_label_2
_geom_bond_distance
_geom_bond_site_symmetry_2
Al0 Pd5 2.573823 1_555
Al0 Pd4 2.573823 1_555
Al0 Tb2 3.137347 1_445
Al0 Tb0 3.137347 1_445
Al1 Pd5 2.573823 1_665
Al1 Pd4 2.573823 1_666
Al1 Tb1 3.137347 1_665
Al1 Tb3 3.137347 1_665
Al2 Pd0 2.606652 1_455
Al2 Pd4 2.661418 1_555
Al2 Pd1 2.663607 1_555
Al2 Tb2 3.069311 1_445
Al2 Tb0 3.077909 1_455
Al2 Tb1 3.101698 1_554
Al3 Pd1 2.606652 1_656
Al3 Pd4 2.661418 1_666
Al3 Pd0 2.663607 1_556
Al3 Tb3 3.069311 1_665
Al3 Tb1 3.077909 1_655
Al3 Tb0 3.101698 1_556
Al4 Pd2 2.606652 1_655
Al4 Pd5 2.661418 1_665
Al4 Pd3 2.663607 1_555
Al4 Tb3 3.069311 1_665
Al4 Tb1 3.077909 1_655
Al4 Tb0 3.101698 1_555
Al5 Pd2 2.606652 1_545
Al5 Pd5 2.661418 1_555
Al5 Pd3 2.663607 1_555
Al5 Tb0 3.069311 1_445
Al5 Tb2 3.077909 1_545
Al5 Tb3 3.101698 1_555
Al6 Pd3 2.606652 1_455
Al6 Pd5 2.661418 1_555
Al6 Pd2 2.663607 1_555
Al6 Tb2 3.069311 1_445
Al6 Tb0 3.077909 1_455
Al6 Tb1 3.101698 1_555
Al7 Pd3 2.606652 1_565
Al7 Pd5 2.661418 1_665
Al7 Pd2 2.663607 1_555
Al7 Tb1 3.069311 1_665
Al7 Tb3 3.077909 1_565
Al7 Tb2 3.101698 1_555
Al8 Pd0 2.606652 1_566
Al8 Pd4 2.661418 1_666
Al8 Pd1 2.663607 1_556
Al8 Tb1 3.069311 1_665
Al8 Tb3 3.077909 1_565
Al8 Tb2 3.101698 1_556
Al9 Pd1 2.606652 1_545
Al9 Pd4 2.661418 1_555
Al9 Pd0 2.663607 1_555
Al9 Tb0 3.069311 1_445
Al9 Tb2 3.077909 1_545
Al9 Tb3 3.101698 1_554
Al10 Pd5 2.634370 1_555
Al10 Pd3 2.668248 1_555
Al10 Pd2 2.668248 1_555
Al10 Al11 2.795455 1_555
Al10 Al17 2.863246 1_555
Al10 Al15 2.863246 1_555
Al10 Al5 2.864177 1_555
Al10 Al6 2.864177 1_555
Al10 Tb3 3.093650 1_555
Al10 Tb1 3.093650 1_555
Al11 Pd5 2.634370 1_665
Al11 Pd3 2.668248 1_555
Al11 Pd2 2.668248 1_555
Al11 Al14 2.863246 1_555
Al11 Al16 2.863246 1_555
Al11 Al4 2.864177 1_555
Al11 Al7 2.864177 1_555
Al11 Tb0 3.093650 1_555
Al11 Tb2 3.093650 1_555
Al12 Pd4 2.634370 1_665
Al12 Pd1 2.668248 1_555
Al12 Pd0 2.668248 1_555
Al12 Al13 2.795455 1_554
Al12 Al14 2.863246 1_555
Al12 Al16 2.863246 1_555
Al12 Al3 2.864177 1_554
Al12 Al8 2.864177 1_554
Al12 Tb0 3.093650 1_555
Al12 Tb2 3.093650 1_555
Al13 Pd4 2.634370 1_556
Al13 Pd0 2.668248 1_556
Al13 Pd1 2.668248 1_556
Al13 Al17 2.863246 1_555
Al13 Al15 2.863246 1_555
Al13 Al9 2.864177 1_556
Al13 Al2 2.864177 1_556
Al13 Tb3 3.093650 1_555
Al13 Tb1 3.093650 1_555
Al14 Pd1 2.579416 1_555
Al14 Pd2 2.579416 1_555
Al14 Tb2 3.107397 1_555
Al14 Tb0 3.208084 1_455
Al15 Pd0 2.579416 1_556
Al15 Pd3 2.579416 1_555
Al15 Tb3 3.107397 1_555
Al15 Tb1 3.208084 1_655
Al16 Pd3 2.579416 1_555
Al16 Pd0 2.579416 1_555
Al16 Tb0 3.107397 1_555
Al16 Tb2 3.208084 1_545
Al17 Pd2 2.579416 1_555
Al17 Pd1 2.579416 1_556
Al17 Tb1 3.107397 1_555
Al17 Tb3 3.208084 1_565
Pd0 Tb2 3.491793 1_545
Pd0 Tb1 3.491793 1_654
Pd0 Tb3 3.493954 1_554
Pd0 Tb0 3.493954 1_555
Pd1 Tb0 3.491793 1_455
Pd1 Tb3 3.491793 1_564
Pd1 Tb1 3.493954 1_554
Pd1 Tb2 3.493954 1_555
Pd2 Tb0 3.491793 1_455
Pd2 Tb3 3.491793 1_565
Pd2 Tb1 3.493954 1_555
Pd2 Tb2 3.493954 1_555
Pd3 Tb2 3.491793 1_545
Pd3 Tb1 3.491793 1_655
Pd3 Tb0 3.493954 1_555
Pd3 Tb3 3.493954 1_555
Pd4 Tb1 3.460971 1_554
Pd4 Tb3 3.460971 1_554
Pd4 Tb2 3.460971 1_445
Pd4 Tb0 3.460971 1_445
Pd5 Tb3 3.460971 1_555
Pd5 Tb1 3.460971 1_555
Pd5 Tb2 3.460971 1_445
Pd5 Tb0 3.460971 1_445
