# generated using pymatgen
data_Ba3Bi2PbO9
_symmetry_space_group_name_H-M   'P 1'
_cell_length_a   6.20374159
_cell_length_b   6.20374159
_cell_length_c   15.24168410
_cell_angle_alpha   89.61340255
_cell_angle_beta   89.61340255
_cell_angle_gamma   59.89040412
_symmetry_Int_Tables_number   1
_chemical_formula_structural   Ba3Bi2PbO9
_chemical_formula_sum   'Ba6 Bi4 Pb2 O18'
_cell_volume   507.43117045
_cell_formula_units_Z   2
loop_
 _symmetry_equiv_pos_site_id
 _symmetry_equiv_pos_as_xyz
  1  'x, y, z'
loop_
 _atom_site_type_symbol
 _atom_site_label
 _atom_site_symmetry_multiplicity
 _atom_site_fract_x
 _atom_site_fract_y
 _atom_site_fract_z
 _atom_site_occupancy
  Ba  Ba0  1  0.66697900  0.66697900  0.91620300  1
  Ba  Ba1  1  0.00033000  0.00033000  0.25122100  1
  Ba  Ba2  1  0.33358100  0.33358100  0.58346000  1
  Ba  Ba3  1  0.99967000  0.99967000  0.74877900  1
  Ba  Ba4  1  0.33302100  0.33302100  0.08379700  1
  Ba  Ba5  1  0.66641900  0.66641900  0.41654000  1
  Bi  Bi0  1  0.66685300  0.66685300  0.16744500  1
  Bi  Bi1  1  0.00000000  0.00000000  0.50000000  1
  Bi  Bi2  1  0.33314700  0.33314700  0.83255500  1
  Bi  Bi3  1  0.00000000  0.00000000  0.00000000  1
  Pb  Pb0  1  0.33344300  0.33344300  0.33371700  1
  Pb  Pb1  1  0.66655700  0.66655700  0.66628300  1
  O  O0  1  0.51846200  0.51846200  0.76922900  1
  O  O1  1  0.85116600  0.85116600  0.10258000  1
  O  O2  1  0.18463700  0.18463700  0.43559500  1
  O  O3  1  0.14883400  0.14883400  0.89742000  1
  O  O4  1  0.48153800  0.48153800  0.23077100  1
  O  O5  1  0.81536300  0.81536300  0.56440500  1
  O  O6  1  0.48006900  0.97956100  0.25962400  1
  O  O7  1  0.81414400  0.31217700  0.59279000  1
  O  O8  1  0.14788600  0.64493400  0.92582700  1
  O  O9  1  0.35506600  0.85211400  0.07417300  1
  O  O10  1  0.68782300  0.18585600  0.40721000  1
  O  O11  1  0.02043900  0.51993100  0.74037600  1
  O  O12  1  0.97956100  0.48006900  0.25962400  1
  O  O13  1  0.31217700  0.81414400  0.59279000  1
  O  O14  1  0.64493400  0.14788600  0.92582700  1
  O  O15  1  0.85211400  0.35506600  0.07417300  1
  O  O16  1  0.18585600  0.68782300  0.40721000  1
  O  O17  1  0.51993100  0.02043900  0.74037600  1
loop_
_geom_bond_atom_site_label_1
_geom_bond_atom_site_label_2
_geom_bond_distance
_geom_bond_site_symmetry_2
Ba0 O0 2.761055 1_555
Ba0 O8 2.921866 1_655
Ba0 O14 2.921866 1_565
Ba0 O15 2.933472 1_556
Ba0 O9 2.933472 1_556
Ba0 O3 3.116188 1_655
Ba0 O3 3.116188 1_565
Ba0 O17 3.281620 1_565
Ba0 O11 3.281620 1_655
Ba0 O8 3.293312 1_555
Ba0 O14 3.293312 1_555
Ba1 O1 2.785865 1_445
Ba1 O10 2.910660 1_455
Ba1 O16 2.910660 1_545
Ba1 O12 2.917331 1_455
Ba1 O6 2.917331 1_545
Ba1 O4 3.119085 1_545
Ba1 O4 3.119085 1_455
Ba1 O12 3.295696 1_445
Ba1 O6 3.295696 1_445
Ba1 O15 3.300543 1_455
Ba1 O9 3.300543 1_545
Ba1 O2 3.451108 1_555
Ba2 O2 2.774821 1_555
Ba2 O13 2.921339 1_555
Ba2 O7 2.921339 1_555
Ba2 O17 2.924344 1_555
Ba2 O11 2.924344 1_555
Ba2 O5 3.116623 1_545
Ba2 O5 3.116623 1_455
Ba2 O10 3.289190 1_555
Ba2 O16 3.289190 1_555
Ba2 O13 3.293164 1_545
Ba2 O7 3.293164 1_455
Ba3 O3 2.785865 1_665
Ba3 O13 2.910660 1_655
Ba3 O7 2.910660 1_565
Ba3 O11 2.917331 1_655
Ba3 O17 2.917331 1_565
Ba3 O0 3.119085 1_655
Ba3 O0 3.119085 1_565
Ba3 O17 3.295696 1_665
Ba3 O11 3.295696 1_665
Ba3 O8 3.300543 1_655
Ba3 O14 3.300543 1_565
Ba3 O5 3.451108 1_555
Ba4 O4 2.761055 1_555
Ba4 O9 2.921866 1_545
Ba4 O15 2.921866 1_455
Ba4 O14 2.933472 1_554
Ba4 O8 2.933472 1_554
Ba4 O1 3.116188 1_455
Ba4 O1 3.116188 1_545
Ba4 O6 3.281620 1_545
Ba4 O12 3.281620 1_455
Ba4 O15 3.293312 1_555
Ba4 O9 3.293312 1_555
Ba5 O5 2.774821 1_555
Ba5 O10 2.921339 1_555
Ba5 O16 2.921339 1_555
Ba5 O12 2.924344 1_555
Ba5 O6 2.924344 1_555
Ba5 O2 3.116623 1_565
Ba5 O2 3.116623 1_655
Ba5 O13 3.289190 1_555
Ba5 O7 3.289190 1_555
Ba5 O10 3.293164 1_565
Ba5 O16 3.293164 1_655
Bi0 O12 2.199889 1_555
Bi0 O6 2.199889 1_555
Bi0 O15 2.206327 1_555
Bi0 O9 2.206327 1_555
Bi0 O4 2.207055 1_555
Bi0 O1 2.207612 1_555
Bi1 O10 2.203372 1_455
Bi1 O16 2.203372 1_545
Bi1 O13 2.203372 1_545
Bi1 O7 2.203372 1_455
Bi1 O2 2.207649 1_555
Bi1 O5 2.207649 1_445
Bi2 O11 2.199889 1_555
Bi2 O17 2.199889 1_555
Bi2 O14 2.206327 1_555
Bi2 O8 2.206327 1_555
Bi2 O0 2.207055 1_555
Bi2 O3 2.207612 1_555
Bi3 O9 2.227973 1_545
Bi3 O15 2.227973 1_455
Bi3 O8 2.227973 1_544
Bi3 O14 2.227973 1_454
Bi3 O3 2.228446 1_554
Bi3 O1 2.228446 1_445
O0 Pb1 2.226687 1_555
O2 Pb0 2.220797 1_555
O4 Pb0 2.226687 1_555
O5 Pb1 2.220797 1_555
O6 Pb0 2.222270 1_565
O7 Pb1 2.219504 1_555
O10 Pb0 2.219504 1_555
O11 Pb1 2.222270 1_455
O12 Pb0 2.222270 1_655
O13 Pb1 2.219504 1_555
O16 Pb0 2.219504 1_555
O17 Pb1 2.222270 1_545
