# generated using pymatgen
data_KMg14SiO16
_symmetry_space_group_name_H-M   'P 1'
_cell_length_a   8.59317604
_cell_length_b   8.59317604
_cell_length_c   4.41201160
_cell_angle_alpha   90.00000000
_cell_angle_beta   90.00000000
_cell_angle_gamma   90.00000000
_symmetry_Int_Tables_number   1
_chemical_formula_structural   KMg14SiO16
_chemical_formula_sum   'K1 Mg14 Si1 O16'
_cell_volume   325.79473627
_cell_formula_units_Z   1
loop_
 _symmetry_equiv_pos_site_id
 _symmetry_equiv_pos_as_xyz
  1  'x, y, z'
loop_
 _atom_site_type_symbol
 _atom_site_label
 _atom_site_symmetry_multiplicity
 _atom_site_fract_x
 _atom_site_fract_y
 _atom_site_fract_z
 _atom_site_occupancy
  K  K0  1  0.00000000  0.00000000  0.00000000  1
  Mg  Mg0  1  0.00000000  0.50000000  0.00000000  1
  Mg  Mg1  1  0.50000000  0.00000000  0.00000000  1
  Mg  Mg2  1  0.00000000  0.24947671  0.50000000  1
  Mg  Mg3  1  0.00000000  0.75052329  0.50000000  1
  Mg  Mg4  1  0.50000000  0.24796350  0.50000000  1
  Mg  Mg5  1  0.50000000  0.75203650  0.50000000  1
  Mg  Mg6  1  0.24947671  0.00000000  0.50000000  1
  Mg  Mg7  1  0.24796350  0.50000000  0.50000000  1
  Mg  Mg8  1  0.75052329  0.00000000  0.50000000  1
  Mg  Mg9  1  0.75203650  0.50000000  0.50000000  1
  Mg  Mg10  1  0.24749057  0.24749057  0.00000000  1
  Mg  Mg11  1  0.24749057  0.75250943  0.00000000  1
  Mg  Mg12  1  0.75250943  0.24749057  0.00000000  1
  Mg  Mg13  1  0.75250943  0.75250943  -0.00000000  1
  Si  Si0  1  0.50000000  0.50000000  0.00000000  1
  O  O0  1  0.27660237  0.00000000  -0.00000000  1
  O  O1  1  0.27114203  0.50000000  0.00000000  1
  O  O2  1  0.72339763  0.00000000  0.00000000  1
  O  O3  1  0.72885797  0.50000000  0.00000000  1
  O  O4  1  0.25155120  0.25155120  0.50000000  1
  O  O5  1  0.25155120  0.74844880  0.50000000  1
  O  O6  1  0.74844880  0.25155120  0.50000000  1
  O  O7  1  0.74844880  0.74844880  0.50000000  1
  O  O8  1  0.00000000  0.00000000  0.50000000  1
  O  O9  1  0.00000000  0.50000000  0.50000000  1
  O  O10  1  0.50000000  0.00000000  0.50000000  1
  O  O11  1  0.50000000  0.50000000  0.50000000  1
  O  O12  1  0.00000000  0.27660237  -0.00000000  1
  O  O13  1  0.00000000  0.72339763  0.00000000  1
  O  O14  1  0.50000000  0.27114203  0.00000000  1
  O  O15  1  0.50000000  0.72885797  0.00000000  1
loop_
_geom_bond_atom_site_label_1
_geom_bond_atom_site_label_2
_geom_bond_distance
_geom_bond_site_symmetry_2
K0 O8 2.206006 1_554
K0 O8 2.206006 1_555
K0 O13 2.376893 1_545
K0 O12 2.376893 1_555
K0 O0 2.376893 1_555
K0 O2 2.376893 1_455
Mg0 O12 1.919695 1_555
Mg0 O13 1.919695 1_555
Mg0 O9 2.206006 1_555
Mg0 O9 2.206006 1_554
Mg0 O1 2.329971 1_555
Mg0 O3 2.329971 1_455
Mg1 O2 1.919695 1_555
Mg1 O0 1.919695 1_555
Mg1 O10 2.206006 1_555
Mg1 O10 2.206006 1_554
Mg1 O14 2.329971 1_555
Mg1 O15 2.329971 1_545
Mg2 O8 2.143797 1_555
Mg2 O9 2.152791 1_555
Mg2 O4 2.161697 1_555
Mg2 O6 2.161697 1_455
Mg2 O12 2.218287 1_555
Mg2 O12 2.218287 1_556
Mg3 O8 2.143797 1_565
Mg3 O9 2.152791 1_555
Mg3 O7 2.161697 1_455
Mg3 O5 2.161697 1_555
Mg3 O13 2.218287 1_555
Mg3 O13 2.218287 1_556
Mg4 O10 2.130794 1_555
Mg4 O4 2.135187 1_555
Mg4 O6 2.135187 1_555
Mg4 O11 2.165794 1_555
Mg4 O14 2.214979 1_556
Mg4 O14 2.214979 1_555
Mg5 O10 2.130794 1_565
Mg5 O5 2.135187 1_555
Mg5 O7 2.135187 1_555
Mg5 O11 2.165794 1_555
Mg5 O15 2.214979 1_556
Mg5 O15 2.214979 1_555
Mg6 O8 2.143797 1_555
Mg6 O10 2.152791 1_555
Mg6 O4 2.161697 1_555
Mg6 O5 2.161697 1_545
Mg6 O0 2.218287 1_555
Mg6 O0 2.218287 1_556
Mg7 O9 2.130794 1_555
Mg7 O4 2.135187 1_555
Mg7 O5 2.135187 1_555
Mg7 O11 2.165794 1_555
Mg7 O1 2.214979 1_555
Mg7 O1 2.214979 1_556
Mg8 O8 2.143797 1_655
Mg8 O10 2.152791 1_555
Mg8 O6 2.161697 1_555
Mg8 O7 2.161697 1_545
Mg8 O2 2.218287 1_556
Mg8 O2 2.218287 1_555
Mg9 O9 2.130794 1_655
Mg9 O7 2.135187 1_555
Mg9 O6 2.135187 1_555
Mg9 O11 2.165794 1_555
Mg9 O3 2.214979 1_556
Mg9 O3 2.214979 1_555
Mg10 O12 2.141393 1_555
Mg10 O0 2.141393 1_555
Mg10 O14 2.179356 1_555
Mg10 O1 2.179356 1_555
Mg10 O4 2.206558 1_555
Mg10 O4 2.206558 1_554
Mg11 O13 2.141393 1_555
Mg11 O0 2.141393 1_565
Mg11 O1 2.179356 1_555
Mg11 O15 2.179356 1_555
Mg11 O5 2.206558 1_555
Mg11 O5 2.206558 1_554
Mg12 O12 2.141393 1_655
Mg12 O2 2.141393 1_555
Mg12 O14 2.179356 1_555
Mg12 O3 2.179356 1_555
Mg12 O6 2.206558 1_555
Mg12 O6 2.206558 1_554
Mg13 O13 2.141393 1_655
Mg13 O2 2.141393 1_565
Mg13 O3 2.179356 1_555
Mg13 O15 2.179356 1_555
Mg13 O7 2.206558 1_555
Mg13 O7 2.206558 1_554
O1 Si0 1.966617 1_555
O3 Si0 1.966617 1_555
O11 Si0 2.206006 1_555
O11 Si0 2.206006 1_556
O14 Si0 1.966617 1_555
O15 Si0 1.966617 1_555
