# generated using pymatgen
data_Rb2Be2Cd(O3F4)2
_symmetry_space_group_name_H-M   'P 1'
_cell_length_a   6.50994993
_cell_length_b   8.53235826
_cell_length_c   11.68113800
_cell_angle_alpha   90.00000000
_cell_angle_beta   90.00000000
_cell_angle_gamma   108.96202779
_symmetry_Int_Tables_number   1
_chemical_formula_structural   Rb2Be2Cd(O3F4)2
_chemical_formula_sum   'Rb4 Be4 Cd2 O12 F16'
_cell_volume   613.62203992
_cell_formula_units_Z   2
loop_
 _symmetry_equiv_pos_site_id
 _symmetry_equiv_pos_as_xyz
  1  'x, y, z'
loop_
 _atom_site_type_symbol
 _atom_site_label
 _atom_site_symmetry_multiplicity
 _atom_site_fract_x
 _atom_site_fract_y
 _atom_site_fract_z
 _atom_site_occupancy
  Rb  Rb0  1  0.86009400  0.58350600  0.13867900  1
  Rb  Rb1  1  0.13990600  0.41649400  0.86132100  1
  Rb  Rb2  1  0.13990600  0.91649400  0.63867900  1
  Rb  Rb3  1  0.86009400  0.08350600  0.36132100  1
  Be  Be0  1  0.75497600  0.59352100  0.83416400  1
  Be  Be1  1  0.24502400  0.40647900  0.16583600  1
  Be  Be2  1  0.24502400  0.90647900  0.33416400  1
  Be  Be3  1  0.75497600  0.09352100  0.66583600  1
  Cd  Cd0  1  0.50000000  0.00000000  0.00000000  1
  Cd  Cd1  1  0.50000000  0.50000000  0.50000000  1
  O  O0  1  0.26895700  0.87654600  0.87164200  1
  O  O1  1  0.73104300  0.12345400  0.12835800  1
  O  O2  1  0.73104300  0.62345400  0.37164200  1
  O  O3  1  0.26895700  0.37654600  0.62835800  1
  O  O4  1  0.42717400  0.65706600  0.63520900  1
  O  O5  1  0.57282600  0.34293400  0.36479100  1
  O  O6  1  0.57282600  0.84293400  0.13520900  1
  O  O7  1  0.42717400  0.15706600  0.86479100  1
  O  O8  1  0.85633400  0.96659200  0.95125500  1
  O  O9  1  0.14366600  0.03340800  0.04874500  1
  O  O10  1  0.14366600  0.53340800  0.45125500  1
  O  O11  1  0.85633400  0.46659200  0.54874500  1
  F  F0  1  0.54717900  0.63658500  0.80329600  1
  F  F1  1  0.45282100  0.36341500  0.19670400  1
  F  F2  1  0.45282100  0.86341500  0.30329600  1
  F  F3  1  0.54717900  0.13658500  0.69670400  1
  F  F4  1  0.70874800  0.94042500  0.58838800  1
  F  F5  1  0.29125200  0.05957500  0.41161200  1
  F  F6  1  0.29125200  0.55957500  0.08838800  1
  F  F7  1  0.70874800  0.44042500  0.91161200  1
  F  F8  1  0.90362300  0.73828900  0.92104100  1
  F  F9  1  0.09637700  0.26171100  0.07895900  1
  F  F10  1  0.09637700  0.76171100  0.42104100  1
  F  F11  1  0.90362300  0.23828900  0.57895900  1
  F  F12  1  0.89979000  0.59315200  0.72981900  1
  F  F13  1  0.10021000  0.40684800  0.27018100  1
  F  F14  1  0.10021000  0.90684800  0.22981900  1
  F  F15  1  0.89979000  0.09315200  0.77018100  1
loop_
_geom_bond_atom_site_label_1
_geom_bond_atom_site_label_2
_geom_bond_distance
_geom_bond_site_symmetry_2
Be0 F7 1.536189 1_555
Be0 F12 1.541532 1_555
Be0 F0 1.554984 1_555
Be0 F8 1.647794 1_555
Be1 F6 1.536189 1_555
Be1 F13 1.541532 1_555
Be1 F1 1.554984 1_555
Be1 F9 1.647794 1_555
Be2 F5 1.536189 1_565
Be2 F14 1.541532 1_555
Be2 F2 1.554984 1_555
Be2 F10 1.647794 1_555
Be3 F4 1.536189 1_545
Be3 F15 1.541532 1_555
Be3 F3 1.554984 1_555
Be3 F11 1.647794 1_555
Cd0 O1 2.142494 1_555
Cd0 O0 2.142494 1_544
Cd0 O7 2.219942 1_554
Cd0 O6 2.219942 1_545
Cd0 O8 2.493246 1_544
Cd0 O9 2.493246 1_555
Cd1 O3 2.142494 1_555
Cd1 O2 2.142494 1_555
Cd1 O4 2.219942 1_555
Cd1 O5 2.219942 1_555
Cd1 O11 2.493246 1_555
Cd1 O10 2.493246 1_555
O0 Rb2 2.900586 1_555
O1 Rb3 2.900586 1_555
O2 Rb0 2.900586 1_555
O3 Rb1 2.900586 1_555
O4 Rb2 3.329993 1_555
O5 Rb3 3.329993 1_555
O6 Rb0 3.329993 1_555
O7 Rb1 3.329993 1_555
F0 Rb1 2.789216 1_555
F1 Rb0 2.789216 1_555
F2 Rb3 2.789216 1_565
F3 Rb2 2.789216 1_545
F4 Rb2 2.938959 1_655
F4 Rb3 2.952061 1_565
F5 Rb3 2.938959 1_455
F5 Rb2 2.952061 1_545
F6 Rb0 2.938959 1_455
F6 Rb1 2.952061 1_554
F7 Rb1 2.938959 1_655
F7 Rb0 2.952061 1_556
F8 Rb0 2.836252 1_556
F9 Rb1 2.836252 1_554
F10 Rb2 2.836252 1_555
F11 Rb3 2.836252 1_555
F12 Rb2 2.895784 1_655
F12 Rb1 2.933632 1_655
F13 Rb3 2.895784 1_455
F13 Rb0 2.933632 1_455
F14 Rb0 2.895784 1_455
F14 Rb3 2.933632 1_465
F15 Rb1 2.895784 1_655
F15 Rb2 2.933632 1_645
