# generated using pymatgen
data_Zr9Co3O2
_symmetry_space_group_name_H-M   'P 1'
_cell_length_a   5.80062397
_cell_length_b   5.80062397
_cell_length_c   26.74209221
_cell_angle_alpha   89.88943841
_cell_angle_beta   89.88943841
_cell_angle_gamma   33.20400344
_symmetry_Int_Tables_number   1
_chemical_formula_structural   Zr9Co3O2
_chemical_formula_sum   'Zr18 Co6 O4'
_cell_volume   492.74765795
_cell_formula_units_Z   2
loop_
 _symmetry_equiv_pos_site_id
 _symmetry_equiv_pos_as_xyz
  1  'x, y, z'
loop_
 _atom_site_type_symbol
 _atom_site_label
 _atom_site_symmetry_multiplicity
 _atom_site_fract_x
 _atom_site_fract_y
 _atom_site_fract_z
 _atom_site_occupancy
  Zr  Zr0  1  0.06397500  0.06397500  0.08323100  1
  Zr  Zr1  1  0.06847100  0.06847100  0.41843400  1
  Zr  Zr2  1  0.06849200  0.06849200  0.75175900  1
  Zr  Zr3  1  0.93150800  0.93150800  0.24824100  1
  Zr  Zr4  1  0.93152900  0.93152900  0.58156600  1
  Zr  Zr5  1  0.93602500  0.93602500  0.91676900  1
  Zr  Zr6  1  0.63561300  0.63561300  0.31354900  1
  Zr  Zr7  1  0.63549400  0.63549400  0.64688300  1
  Zr  Zr8  1  0.63615900  0.63615900  0.97964800  1
  Zr  Zr9  1  0.36384100  0.36384100  0.02035200  1
  Zr  Zr10  1  0.36450600  0.36450600  0.35311700  1
  Zr  Zr11  1  0.36438700  0.36438700  0.68645100  1
  Zr  Zr12  1  0.63637200  0.63637200  0.18649700  1
  Zr  Zr13  1  0.63586700  0.63586700  0.51986000  1
  Zr  Zr14  1  0.63537200  0.63537200  0.85363900  1
  Zr  Zr15  1  0.36462800  0.36462800  0.14636100  1
  Zr  Zr16  1  0.36413300  0.36413300  0.48014000  1
  Zr  Zr17  1  0.36362800  0.36362800  0.81350300  1
  Co  Co0  1  0.75243700  0.75243700  0.08358000  1
  Co  Co1  1  0.75735800  0.75735800  0.41534700  1
  Co  Co2  1  0.75733800  0.75733800  0.74885700  1
  Co  Co3  1  0.24266200  0.24266200  0.25114300  1
  Co  Co4  1  0.24264200  0.24264200  0.58465300  1
  Co  Co5  1  0.24756300  0.24756300  0.91642000  1
  O  O0  1  0.00147300  0.00147300  0.16593700  1
  O  O1  1  0.00000000  0.00000000  0.50000000  1
  O  O2  1  0.99852700  0.99852700  0.83406300  1
  O  O3  1  0.00000000  0.00000000  0.00000000  1
loop_
_geom_bond_atom_site_label_1
_geom_bond_atom_site_label_2
_geom_bond_distance
_geom_bond_site_symmetry_2
Co0 Zr15 2.670156 1_655
Co0 Zr15 2.670156 1_565
Co0 Zr9 2.670467 1_565
Co0 Zr9 2.670467 1_655
Co0 Zr0 2.671534 1_655
Co0 Zr0 2.671534 1_565
Co0 Zr12 3.037340 1_555
Co0 Zr8 3.067649 1_554
Co1 Zr10 2.631983 1_565
Co1 Zr10 2.631983 1_655
Co1 Zr1 2.676353 1_655
Co1 Zr1 2.676353 1_565
Co1 Zr16 2.677043 1_565
Co1 Zr16 2.677043 1_655
Co2 Zr11 2.634461 1_565
Co2 Zr11 2.634461 1_655
Co2 Zr17 2.672101 1_655
Co2 Zr17 2.672101 1_565
Co2 Zr2 2.675856 1_565
Co2 Zr2 2.675856 1_655
Co3 Zr6 2.634461 1_545
Co3 Zr6 2.634461 1_455
Co3 Zr12 2.672101 1_455
Co3 Zr12 2.672101 1_545
Co3 Zr3 2.675856 1_545
Co3 Zr3 2.675856 1_455
Co4 Zr7 2.631983 1_455
Co4 Zr7 2.631983 1_545
Co4 Zr4 2.676353 1_545
Co4 Zr4 2.676353 1_455
Co4 Zr13 2.677043 1_455
Co4 Zr13 2.677043 1_545
Co5 Zr14 2.670156 1_545
Co5 Zr14 2.670156 1_455
Co5 Zr8 2.670467 1_545
Co5 Zr8 2.670467 1_455
Co5 Zr5 2.671534 1_545
Co5 Zr5 2.671534 1_455
Co5 Zr17 3.037340 1_555
Co5 Zr9 3.067649 1_556
O0 Zr12 2.302552 1_455
O0 Zr12 2.302552 1_545
O0 Zr15 2.310574 1_545
O0 Zr15 2.310574 1_455
O0 Zr0 2.316984 1_555
O0 Zr3 2.332909 1_445
O1 Zr16 2.305172 1_545
O1 Zr13 2.305172 1_455
O1 Zr13 2.305172 1_545
O1 Zr16 2.305172 1_455
O1 Zr4 2.308814 1_445
O1 Zr1 2.308814 1_555
O2 Zr17 2.302552 1_565
O2 Zr17 2.302552 1_655
O2 Zr14 2.310574 1_565
O2 Zr14 2.310574 1_655
O2 Zr5 2.316984 1_555
O2 Zr2 2.332909 1_665
O3 Zr9 2.308947 1_545
O3 Zr9 2.308947 1_455
O3 Zr8 2.308947 1_454
O3 Zr8 2.308947 1_544
O3 Zr0 2.338014 1_555
O3 Zr5 2.338014 1_444
