# generated using pymatgen
data_TbFeCu
_symmetry_space_group_name_H-M   'P 1'
_cell_length_a   5.22661305
_cell_length_b   5.22661305
_cell_length_c   5.22661305
_cell_angle_alpha   92.69252791
_cell_angle_beta   58.69329140
_cell_angle_gamma   121.82705318
_symmetry_Int_Tables_number   1
_chemical_formula_structural   TbFeCu
_chemical_formula_sum   'Tb2 Fe2 Cu2'
_cell_volume   98.44731771
_cell_formula_units_Z   2
loop_
 _symmetry_equiv_pos_site_id
 _symmetry_equiv_pos_as_xyz
  1  'x, y, z'
loop_
 _atom_site_type_symbol
 _atom_site_label
 _atom_site_symmetry_multiplicity
 _atom_site_fract_x
 _atom_site_fract_y
 _atom_site_fract_z
 _atom_site_occupancy
  Tb  Tb0  1  0.50000000  0.75296900  0.74703100  1
  Tb  Tb1  1  0.00000000  0.99703100  0.00296900  1
  Fe  Fe0  1  0.25000000  0.87500000  0.37500000  1
  Fe  Fe1  1  0.75000000  0.37500000  0.37500000  1
  Cu  Cu0  1  0.75000000  0.37500000  0.87500000  1
  Cu  Cu1  1  0.25000000  0.37500000  0.37500000  1
loop_
_geom_bond_atom_site_label_1
_geom_bond_atom_site_label_2
_geom_bond_distance
_geom_bond_site_symmetry_2
Fe0 Fe1 2.540809 1_455
Fe0 Fe1 2.540809 1_565
Fe0 Tb0 3.018619 1_455
Fe0 Tb1 3.018619 1_655
Fe0 Tb1 3.018619 1_556
Fe0 Tb0 3.018619 1_554
Fe0 Tb0 3.087235 1_555
Fe0 Tb1 3.087235 1_555
Fe1 Tb0 3.018619 1_654
Fe1 Tb1 3.018619 1_546
Fe1 Tb0 3.018619 1_555
Fe1 Tb1 3.018619 1_645
Fe1 Tb0 3.087235 1_545
Fe1 Tb1 3.087235 1_655
Cu0 Cu1 2.561523 1_556
Cu0 Cu1 2.561523 1_655
Cu0 Fe1 2.613307 1_556
Cu0 Fe0 2.613307 1_655
Cu0 Fe1 2.613307 1_555
Cu0 Fe0 2.613307 1_546
Cu0 Tb0 2.991300 1_655
Cu0 Tb1 2.991300 1_546
Cu0 Tb0 2.991300 1_545
Cu0 Tb1 2.991300 1_656
Cu0 Tb1 3.132441 1_646
Cu0 Tb0 3.132441 1_555
Cu1 Fe1 2.613307 1_455
Cu1 Fe0 2.613307 1_555
Cu1 Fe0 2.613307 1_545
Cu1 Fe1 2.613307 1_555
Cu1 Tb0 2.991300 1_445
Cu1 Tb1 2.991300 1_655
Cu1 Tb1 2.991300 1_545
Cu1 Tb0 2.991300 1_555
Cu1 Tb0 3.132441 1_554
Cu1 Tb1 3.132441 1_546
