# generated using pymatgen
data_YbSiAg
_symmetry_space_group_name_H-M   'P 1'
_cell_length_a   6.92203999
_cell_length_b   6.92203999
_cell_length_c   4.12835237
_cell_angle_alpha   90.00000000
_cell_angle_beta   90.00000000
_cell_angle_gamma   120.00000863
_symmetry_Int_Tables_number   1
_chemical_formula_structural   YbSiAg
_chemical_formula_sum   'Yb3 Si3 Ag3'
_cell_volume   171.30717818
_cell_formula_units_Z   3
loop_
 _symmetry_equiv_pos_site_id
 _symmetry_equiv_pos_as_xyz
  1  'x, y, z'
loop_
 _atom_site_type_symbol
 _atom_site_label
 _atom_site_symmetry_multiplicity
 _atom_site_fract_x
 _atom_site_fract_y
 _atom_site_fract_z
 _atom_site_occupancy
  Yb  Yb0  1  0.00000000  0.58074384  0.50000000  1
  Yb  Yb1  1  0.58074384  0.00000000  0.50000000  1
  Yb  Yb2  1  0.41925616  0.41925616  0.50000000  1
  Si  Si0  1  0.66666700  0.33333300  0.00000000  1
  Si  Si1  1  0.33333300  0.66666700  0.00000000  1
  Si  Si2  1  0.00000000  0.00000000  0.50000000  1
  Ag  Ag0  1  0.74861182  0.74861182  0.00000000  1
  Ag  Ag1  1  0.25138818  0.00000000  0.00000000  1
  Ag  Ag2  1  0.00000000  0.25138818  0.00000000  1
loop_
_geom_bond_atom_site_label_1
_geom_bond_atom_site_label_2
_geom_bond_distance
_geom_bond_site_symmetry_2
Si0 Yb1 2.926787 1_554
Si0 Yb1 2.926787 1_555
Si0 Yb0 2.926788 1_655
Si0 Yb0 2.926788 1_654
Si0 Yb2 2.926792 1_554
Si0 Yb2 2.926792 1_555
Si1 Yb0 2.926787 1_555
Si1 Yb0 2.926787 1_554
Si1 Yb1 2.926788 1_564
Si1 Yb1 2.926788 1_565
Si1 Yb2 2.926792 1_554
Si1 Yb2 2.926792 1_555
Si2 Yb2 2.902108 1_555
Si2 Yb0 2.902108 1_545
Si2 Yb1 2.902108 1_455
Ag0 Si0 2.637120 1_555
Ag0 Si1 2.637120 1_555
Ag0 Si2 2.699785 1_665
Ag0 Si2 2.699785 1_664
Ag0 Ag1 3.013974 1_665
Ag0 Ag2 3.013974 1_665
Ag0 Yb2 3.075446 1_555
Ag0 Yb2 3.075446 1_554
Ag0 Yb0 3.265127 1_655
Ag0 Yb1 3.265127 1_565
Ag0 Yb1 3.265127 1_564
Ag0 Yb0 3.265127 1_654
Ag1 Si1 2.637113 1_545
Ag1 Si0 2.637118 1_555
Ag1 Si2 2.699785 1_555
Ag1 Si2 2.699785 1_554
Ag1 Ag2 3.013975 1_555
Ag1 Yb1 3.075446 1_555
Ag1 Yb1 3.075446 1_554
Ag1 Yb0 3.265127 1_544
Ag1 Yb0 3.265127 1_545
Ag1 Yb2 3.265127 1_555
Ag1 Yb2 3.265127 1_554
Ag2 Si0 2.637113 1_455
Ag2 Si1 2.637118 1_555
Ag2 Si2 2.699785 1_555
Ag2 Si2 2.699785 1_554
Ag2 Yb0 3.075446 1_555
Ag2 Yb0 3.075446 1_554
Ag2 Yb1 3.265127 1_455
Ag2 Yb1 3.265127 1_454
Ag2 Yb2 3.265127 1_555
Ag2 Yb2 3.265127 1_554
