# generated using pymatgen
data_Ga
_symmetry_space_group_name_H-M   'P 1'
_cell_length_a   5.53759488
_cell_length_b   5.53759487
_cell_length_c   6.05801183
_cell_angle_alpha   117.19674622
_cell_angle_beta   117.19674718
_cell_angle_gamma   89.99997121
_symmetry_Int_Tables_number   1
_chemical_formula_structural   Ga
_chemical_formula_sum   Ga8
_cell_volume   141.74715931
_cell_formula_units_Z   8
loop_
 _symmetry_equiv_pos_site_id
 _symmetry_equiv_pos_as_xyz
  1  'x, y, z'
loop_
 _atom_site_type_symbol
 _atom_site_label
 _atom_site_symmetry_multiplicity
 _atom_site_fract_x
 _atom_site_fract_y
 _atom_site_fract_z
 _atom_site_occupancy
  Ga  Ga0_0  1  0.00000000  0.00000000  0.00000000  1
  Ga  Ga0_1  1  0.00000000  0.00000000  0.50000000  1
  Ga  Ga0_2  1  0.00000000  0.50000000  0.00000000  1
  Ga  Ga0_3  1  0.00000000  0.50000000  0.50000000  1
  Ga  Ga0_4  1  0.50000000  0.00000000  0.00000000  1
  Ga  Ga0_5  1  0.50000000  0.00000000  0.50000000  1
  Ga  Ga0_6  1  0.50000000  0.50000000  0.00000000  1
  Ga  Ga0_7  1  0.50000000  0.50000000  0.50000000  1
loop_
_geom_bond_atom_site_label_1
_geom_bond_atom_site_label_2
_geom_bond_distance
_geom_bond_site_symmetry_2
Ga0_0 Ga0_2 2.768797 1_555
Ga0_0 Ga0_2 2.768797 1_545
Ga0_0 Ga0_4 2.768797 1_555
Ga0_0 Ga0_4 2.768797 1_455
Ga0_0 Ga0_5 3.029005 1_454
Ga0_0 Ga0_5 3.029005 1_555
Ga0_0 Ga0_3 3.029005 1_555
Ga0_0 Ga0_3 3.029005 1_544
Ga0_0 Ga0_1 3.029006 1_555
Ga0_0 Ga0_1 3.029006 1_554
Ga0_0 Ga0_7 3.029006 1_444
Ga0_0 Ga0_7 3.029006 1_555
Ga0_1 Ga0_3 2.768797 1_555
Ga0_1 Ga0_3 2.768797 1_545
Ga0_1 Ga0_5 2.768797 1_555
Ga0_1 Ga0_5 2.768797 1_455
Ga0_1 Ga0_4 3.029005 1_455
Ga0_1 Ga0_4 3.029005 1_556
Ga0_1 Ga0_2 3.029005 1_556
Ga0_1 Ga0_2 3.029005 1_545
Ga0_1 Ga0_6 3.029006 1_445
Ga0_1 Ga0_6 3.029006 1_556
Ga0_2 Ga0_6 2.768797 1_555
Ga0_2 Ga0_6 2.768797 1_455
Ga0_2 Ga0_7 3.029005 1_555
Ga0_2 Ga0_7 3.029005 1_454
Ga0_2 Ga0_3 3.029006 1_555
Ga0_2 Ga0_3 3.029006 1_554
Ga0_2 Ga0_5 3.029006 1_454
Ga0_2 Ga0_5 3.029006 1_565
Ga0_3 Ga0_7 2.768797 1_555
Ga0_3 Ga0_7 2.768797 1_455
Ga0_3 Ga0_6 3.029005 1_455
Ga0_3 Ga0_6 3.029005 1_556
Ga0_3 Ga0_4 3.029006 1_566
Ga0_3 Ga0_4 3.029006 1_455
Ga0_4 Ga0_6 2.768797 1_555
Ga0_4 Ga0_6 2.768797 1_545
Ga0_4 Ga0_7 3.029005 1_555
Ga0_4 Ga0_7 3.029005 1_544
Ga0_4 Ga0_5 3.029006 1_555
Ga0_4 Ga0_5 3.029006 1_554
Ga0_5 Ga0_7 2.768797 1_545
Ga0_5 Ga0_7 2.768797 1_555
Ga0_5 Ga0_6 3.029005 1_545
Ga0_5 Ga0_6 3.029005 1_556
Ga0_6 Ga0_7 3.029006 1_555
Ga0_6 Ga0_7 3.029006 1_554
