# generated using pymatgen
data_TaCr3(AgS4)2
_symmetry_space_group_name_H-M   'P 1'
_cell_length_a   3.46065300
_cell_length_b   5.93637300
_cell_length_c   12.86735657
_cell_angle_alpha   88.41461387
_cell_angle_beta   90.00000000
_cell_angle_gamma   90.00000000
_symmetry_Int_Tables_number   1
_chemical_formula_structural   TaCr3(AgS4)2
_chemical_formula_sum   'Ta1 Cr3 Ag2 S8'
_cell_volume   264.24227143
_cell_formula_units_Z   1
loop_
 _symmetry_equiv_pos_site_id
 _symmetry_equiv_pos_as_xyz
  1  'x, y, z'
loop_
 _atom_site_type_symbol
 _atom_site_label
 _atom_site_symmetry_multiplicity
 _atom_site_fract_x
 _atom_site_fract_y
 _atom_site_fract_z
 _atom_site_occupancy
  Ta  Ta0  1  0.50000000  0.52833400  0.25156000  1
  Cr  Cr0  1  0.00000000  0.01829200  0.75757700  1
  Cr  Cr1  1  0.00000000  0.97214000  0.24736800  1
  Cr  Cr2  1  0.50000000  0.48434600  0.74288000  1
  Ag  Ag0  1  0.50000000  0.50478300  0.99442500  1
  Ag  Ag1  1  0.00000000  0.01000900  0.50615000  1
  S  S0  1  0.50000000  0.16294400  0.86000200  1
  S  S1  1  0.50000000  0.84676100  0.13217600  1
  S  S2  1  0.00000000  0.65745000  0.37115900  1
  S  S3  1  0.00000000  0.34083100  0.64047600  1
  S  S4  1  0.00000000  0.65902400  0.84710000  1
  S  S5  1  0.00000000  0.32461500  0.14630700  1
  S  S6  1  0.50000000  0.14690200  0.34857300  1
  S  S7  1  0.50000000  0.84356700  0.65424600  1
loop_
_geom_bond_atom_site_label_1
_geom_bond_atom_site_label_2
_geom_bond_distance
_geom_bond_site_symmetry_2
Cr0 S0 2.351807 1_455
Cr0 S0 2.351807 1_555
Cr0 S4 2.395748 1_545
Cr0 S3 2.403512 1_555
Cr0 S7 2.431876 1_445
Cr0 S7 2.431876 1_545
Cr1 S1 2.409568 1_555
Cr1 S1 2.409568 1_455
Cr1 S6 2.416800 1_565
Cr1 S6 2.416800 1_465
Cr1 S2 2.421244 1_555
Cr1 S5 2.432834 1_565
Cr2 S3 2.349092 1_655
Cr2 S3 2.349092 1_555
Cr2 S7 2.390306 1_555
Cr2 S0 2.398419 1_555
Cr2 S4 2.438160 1_655
Cr2 S4 2.438160 1_555
Ag0 S0 2.702585 1_555
Ag0 S4 2.707394 1_555
Ag0 S4 2.707394 1_655
Ag0 S1 2.731698 1_556
Ag0 S5 2.800297 1_556
Ag0 S5 2.800297 1_656
Ag1 S3 2.651810 1_555
Ag1 S7 2.738145 1_545
Ag1 S7 2.738145 1_445
Ag1 S2 2.756550 1_545
Ag1 S6 2.770273 1_555
Ag1 S6 2.770273 1_455
S1 Ta0 2.402569 1_555
S2 Ta0 2.452565 1_455
S2 Ta0 2.452565 1_555
S5 Ta0 2.526142 1_555
S5 Ta0 2.526142 1_455
S6 Ta0 2.555193 1_555
