# generated using pymatgen
data_Na3Si2PO8
_symmetry_space_group_name_H-M   'P 1'
_cell_length_a   7.18435045
_cell_length_b   12.30660390
_cell_length_c   10.85181525
_cell_angle_alpha   89.94213493
_cell_angle_beta   90.00713177
_cell_angle_gamma   89.99407532
_symmetry_Int_Tables_number   1
_chemical_formula_structural   Na3Si2PO8
_chemical_formula_sum   'Na12 Si8 P4 O32'
_cell_volume   959.46225719
_cell_formula_units_Z   4
loop_
 _symmetry_equiv_pos_site_id
 _symmetry_equiv_pos_as_xyz
  1  'x, y, z'
loop_
 _atom_site_type_symbol
 _atom_site_label
 _atom_site_symmetry_multiplicity
 _atom_site_fract_x
 _atom_site_fract_y
 _atom_site_fract_z
 _atom_site_occupancy
  Na  Na0  1  0.05044749  0.65237819  0.72204848  1
  Na  Na1  1  0.94977658  0.84745197  0.22202606  1
  Na  Na2  1  0.70345335  0.12082643  0.71282167  1
  Na  Na3  1  0.35780335  0.68353454  0.21715799  1
  Na  Na4  1  0.79569526  0.62096283  0.28660184  1
  Na  Na5  1  0.85772656  0.31642213  0.28282798  1
  Na  Na6  1  0.44981622  0.15248323  0.27796762  1
  Na  Na7  1  0.14225609  0.18335309  0.78248547  1
  Na  Na8  1  0.20291215  0.87921230  0.78753370  1
  Na  Na9  1  0.29566790  0.37900385  0.21330787  1
  Na  Na10  1  0.64211608  0.81668373  0.71751347  1
  Na  Na11  1  0.55037544  0.34766596  0.77787723  1
  Si  Si0  1  0.52904847  0.40951080  0.45865266  1
  Si  Si1  1  0.11048592  0.13207629  0.11189254  1
  Si  Si2  1  0.97111376  0.90947012  0.54144080  1
  Si  Si3  1  0.88981656  0.36795409  0.61176068  1
  Si  Si4  1  0.38983865  0.63207630  0.88825304  1
  Si  Si5  1  0.47107264  0.09055249  0.95861824  1
  Si  Si6  1  0.02912770  0.59050717  0.04125926  1
  Si  Si7  1  0.61058762  0.86789651  0.38809010  1
  P  P0  1  0.63663163  0.52881927  0.99622306  1
  P  P1  1  0.36409005  0.97065644  0.49667644  1
  P  P2  1  0.13649520  0.47114894  0.50363294  1
  P  P3  1  0.86398305  0.02924752  0.00342500  1
  O  O0  1  0.95112232  0.80875900  0.63312743  1
  O  O1  1  0.42250109  0.96740364  0.90311125  1
  O  O2  1  0.57660919  0.53266271  0.40253887  1
  O  O3  1  0.04890325  0.69131880  0.13260055  1
  O  O4  1  0.92247681  0.03267230  0.59680614  1
  O  O5  1  0.16977996  0.91429128  0.45622297  1
  O  O6  1  0.40417360  0.52340628  0.32154544  1
  O  O7  1  0.50718141  0.64067832  0.02478323  1
  O  O8  1  0.61445380  0.77658333  0.28624257  1
  O  O9  1  0.17560077  0.59660222  0.92072219  1
  O  O10  1  0.38537954  0.72392923  0.78690760  1
  O  O11  1  0.45116907  0.19132339  0.86697936  1
  O  O12  1  0.83066135  0.58567165  0.95587570  1
  O  O13  1  0.09479704  0.02343147  0.67800407  1
  O  O14  1  0.07650381  0.46733684  0.09741662  1
  O  O15  1  0.67551605  0.40332969  0.57923036  1
  O  O16  1  0.33060723  0.41438735  0.54404362  1
  O  O17  1  0.52830063  0.52174592  0.85737410  1
  O  O18  1  0.59492237  0.97659928  0.82204987  1
  O  O19  1  0.82505347  0.90282741  0.42057224  1
  O  O20  1  0.90416222  0.47655333  0.17845638  1
  O  O21  1  0.88554482  0.27622244  0.71320125  1
  O  O22  1  0.02821561  0.47835793  0.64247125  1
  O  O23  1  0.66968830  0.08564192  0.04390269  1
  O  O24  1  0.32494397  0.09713643  0.07941638  1
  O  O25  1  0.00712297  0.35924311  0.47522822  1
  O  O26  1  0.11437452  0.22344222  0.21369359  1
  O  O27  1  0.54881271  0.30868160  0.36731880  1
  O  O28  1  0.47224689  0.97850840  0.35785773  1
  O  O29  1  0.49338391  0.85857926  0.52456688  1
  O  O30  1  0.97224415  0.02147286  0.14222772  1
  O  O31  1  0.99320946  0.14130720  0.97541176  1
loop_
_geom_bond_atom_site_label_1
_geom_bond_atom_site_label_2
_geom_bond_distance
_geom_bond_site_symmetry_2
Na0 O0 2.267135 1_455
Na0 O22 2.315482 1_555
Na0 O9 2.433975 1_555
Na0 O10 2.657472 1_555
Na1 O3 2.268172 1_655
Na1 O30 2.314902 1_565
Na1 O19 2.431645 1_555
Na1 O8 2.655098 1_555
Na2 O18 2.271490 1_545
Na2 O4 2.289306 1_555
Na2 O21 2.317158 1_555
Na2 O11 2.615295 1_555
Na3 O6 2.296272 1_555
Na3 O8 2.296736 1_555
Na3 O3 2.403226 1_555
Na3 O7 2.406386 1_555
Na4 O20 2.268720 1_555
Na4 O2 2.288947 1_555
Na4 O8 2.315770 1_555
Na4 O3 2.617247 1_655
Na5 O20 2.296387 1_555
Na5 O26 2.296436 1_655
Na5 O27 2.403250 1_555
Na5 O25 2.406406 1_655
Na6 O27 2.268262 1_555
Na6 O28 2.314686 1_545
Na6 O24 2.431844 1_555
Na6 O26 2.656081 1_555
Na7 O21 2.295750 1_455
Na7 O13 2.297765 1_555
Na7 O11 2.403234 1_555
Na7 O31 2.407491 1_455
Na8 O13 2.271869 1_565
Na8 O1 2.289647 1_555
Na8 O10 2.317324 1_555
Na8 O0 2.614220 1_455
Na9 O6 2.269291 1_555
Na9 O14 2.288882 1_555
Na9 O26 2.315604 1_555
Na9 O27 2.616448 1_555
Na10 O10 2.295923 1_555
Na10 O18 2.297695 1_555
Na10 O0 2.403576 1_555
Na10 O29 2.406004 1_555
Na11 O11 2.267504 1_555
Na11 O17 2.315743 1_555
Na11 O15 2.433546 1_555
Na11 O21 2.658045 1_555
O0 Si2 1.595089 1_555
O1 O18 1.523541 1_555
O1 Si5 1.668344 1_565
O2 O6 1.523209 1_555
O2 Si0 1.668185 1_555
O3 Si6 1.595116 1_555
O4 Si2 1.668449 1_545
O5 P1 1.619673 1_555
O5 Si2 1.701794 1_455
O6 Si0 2.231248 1_555
O7 P0 1.690176 1_554
O7 Si4 1.707944 1_554
O8 Si7 1.577226 1_555
O9 Si4 1.638205 1_555
O9 Si6 1.680517 1_556
O10 Si4 1.576648 1_555
O11 Si5 1.595236 1_555
O12 P0 1.619919 1_555
O12 Si6 1.701447 1_656
O13 O4 1.523651 1_455
O13 Si2 2.226400 1_445
O14 O20 1.523072 1_455
O14 Si6 1.668197 1_555
O15 Si3 1.638281 1_555
O15 Si0 1.680668 1_555
O16 P2 1.619913 1_555
O16 Si0 1.701540 1_555
O17 P0 1.698126 1_555
O17 Si4 1.716437 1_555
O18 Si5 2.226882 1_565
O19 Si7 1.638113 1_555
O19 Si2 1.681700 1_555
O20 Si6 2.232876 1_655
O21 Si3 1.576282 1_555
O22 P2 1.698106 1_555
O22 Si3 1.716648 1_455
O23 P3 1.619774 1_555
O23 Si5 1.701717 1_554
O24 Si1 1.638074 1_555
O24 Si5 1.681568 1_554
O25 P2 1.690142 1_555
O25 Si3 1.708093 1_455
O26 Si1 1.577337 1_555
O27 Si0 1.595226 1_555
O28 P1 1.697788 1_555
O28 Si7 1.716742 1_555
O29 P1 1.689884 1_555
O29 Si7 1.707506 1_555
O30 P3 1.697743 1_555
O30 Si1 1.716671 1_655
O31 P3 1.689878 1_556
O31 Si1 1.707538 1_656
