# generated using pymatgen
data_ThTaN3
_symmetry_space_group_name_H-M   'P 1'
_cell_length_a   5.70871813
_cell_length_b   5.70871813
_cell_length_c   5.70871813
_cell_angle_alpha   119.94322947
_cell_angle_beta   119.21222067
_cell_angle_gamma   90.73412210
_symmetry_Int_Tables_number   1
_chemical_formula_structural   ThTaN3
_chemical_formula_sum   'Th2 Ta2 N6'
_cell_volume   132.37428087
_cell_formula_units_Z   2
loop_
 _symmetry_equiv_pos_site_id
 _symmetry_equiv_pos_as_xyz
  1  'x, y, z'
loop_
 _atom_site_type_symbol
 _atom_site_label
 _atom_site_symmetry_multiplicity
 _atom_site_fract_x
 _atom_site_fract_y
 _atom_site_fract_z
 _atom_site_occupancy
  Th  Th0  1  0.23511700  0.25000000  0.98511700  1
  Th  Th1  1  0.76488300  0.75000000  0.01488300  1
  Ta  Ta0  1  0.50000000  0.00000000  0.50000000  1
  Ta  Ta1  1  0.00000000  0.50000000  0.50000000  1
  N  N0  1  0.35488600  0.75000000  0.60488600  1
  N  N1  1  0.64511400  0.25000000  0.39511400  1
  N  N2  1  0.80913500  0.30913500  0.00000000  1
  N  N3  1  0.19086500  0.19086500  0.50000000  1
  N  N4  1  0.19086500  0.69086500  0.00000000  1
  N  N5  1  0.80913500  0.80913500  0.50000000  1
loop_
_geom_bond_atom_site_label_1
_geom_bond_atom_site_label_2
_geom_bond_distance
_geom_bond_site_symmetry_2
N0 Ta1 2.094894 1_555
N0 Ta0 2.094894 1_565
N0 Th1 2.368371 1_556
N1 Ta0 2.094894 1_555
N1 Ta1 2.094894 1_655
N1 Th0 2.368371 1_554
N2 Ta0 2.085877 1_554
N2 Ta1 2.085877 1_655
N2 Th0 2.495790 1_654
N2 Th1 2.495790 1_555
N3 Ta1 2.085877 1_555
N3 Ta0 2.085877 1_555
N3 Th0 2.495790 1_555
N3 Th1 2.495790 1_445
N4 Ta1 2.085877 1_554
N4 Ta0 2.085877 1_565
N4 Th0 2.495790 1_554
N4 Th1 2.495790 1_455
N5 Ta1 2.085877 1_655
N5 Ta0 2.085877 1_565
N5 Th1 2.495790 1_555
N5 Th0 2.495790 1_665
