# generated using pymatgen
data_Ca2YCuO5
_symmetry_space_group_name_H-M   'P 1'
_cell_length_a   8.96034834
_cell_length_b   8.96034834
_cell_length_c   8.96034834
_cell_angle_alpha   145.63324137
_cell_angle_beta   143.24996289
_cell_angle_gamma   51.19332782
_symmetry_Int_Tables_number   1
_chemical_formula_structural   Ca2YCuO5
_chemical_formula_sum   'Ca4 Y2 Cu2 O10'
_cell_volume   241.69266198
_cell_formula_units_Z   2
loop_
 _symmetry_equiv_pos_site_id
 _symmetry_equiv_pos_as_xyz
  1  'x, y, z'
loop_
 _atom_site_type_symbol
 _atom_site_label
 _atom_site_symmetry_multiplicity
 _atom_site_fract_x
 _atom_site_fract_y
 _atom_site_fract_z
 _atom_site_occupancy
  Ca  Ca0  1  0.43396700  0.90364900  0.53032700  1
  Ca  Ca1  1  0.12667800  0.59636100  0.53032700  1
  Ca  Ca2  1  0.56603300  0.09636100  0.46968300  1
  Ca  Ca3  1  0.87332200  0.40364900  0.46968300  1
  Y  Y0  1  0.79397800  0.78153800  0.07551600  1
  Y  Y1  1  0.20602200  0.28153800  0.98756000  1
  Cu  Cu0  1  0.50000000  0.48165200  0.98165200  1
  Cu  Cu1  1  0.00000000  0.98165200  0.98165200  1
  O  O0  1  0.82646600  0.20087100  0.52733700  1
  O  O1  1  0.17353400  0.70087100  0.37440600  1
  O  O2  1  0.44634000  0.32362300  0.02572500  1
  O  O3  1  0.55366000  0.57938500  0.87728300  1
  O  O4  1  0.79789800  0.82362300  0.87728300  1
  O  O5  1  0.20210200  0.07938500  0.02572500  1
  O  O6  1  0.77354400  0.25397100  0.99216500  1
  O  O7  1  0.22645600  0.21862200  0.48042800  1
  O  O8  1  0.23819400  0.71862200  0.99216500  1
  O  O9  1  0.76180600  0.75397100  0.48042800  1
loop_
_geom_bond_atom_site_label_1
_geom_bond_atom_site_label_2
_geom_bond_distance
_geom_bond_site_symmetry_2
Ca0 O4 2.305735 1_555
Ca0 O7 2.407486 1_565
Ca0 O8 2.443404 1_554
Ca0 O2 2.456634 1_566
Ca0 O6 2.566122 1_565
Ca0 O1 2.568632 1_555
Ca0 O9 2.608565 1_555
Ca0 O2 2.958713 1_555
Ca1 O3 2.305736 1_555
Ca1 O9 2.407488 1_455
Ca1 O6 2.443403 1_454
Ca1 O5 2.456630 1_566
Ca1 O8 2.566122 1_555
Ca1 O1 2.568609 1_555
Ca1 O7 2.608577 1_555
Ca1 O5 2.958714 1_555
Ca2 O5 2.305736 1_555
Ca2 O6 2.407480 1_555
Ca2 O9 2.443407 1_545
Ca2 O3 2.456629 1_555
Ca2 O7 2.566122 1_555
Ca2 O0 2.568626 1_555
Ca2 O8 2.608568 1_544
Ca2 O3 2.958718 1_544
Ca3 O2 2.305736 1_555
Ca3 O8 2.407488 1_655
Ca3 O7 2.443400 1_655
Ca3 O4 2.456630 1_555
Ca3 O9 2.566122 1_555
Ca3 O0 2.568617 1_555
Ca3 O6 2.608580 1_554
Ca3 O4 2.958714 1_544
Cu0 O9 1.949676 1_556
Cu0 O8 1.949676 1_555
Cu0 O7 1.964267 1_555
Cu0 O6 1.964270 1_555
Cu0 O2 2.114936 1_556
Cu0 O3 2.114936 1_555
Cu1 O6 1.949673 1_465
Cu1 O7 1.949677 1_566
Cu1 O8 1.964265 1_555
Cu1 O9 1.964265 1_455
Cu1 O4 2.114936 1_455
Cu1 O5 2.114936 1_566
O0 Y1 2.186320 1_655
O0 Y0 2.227660 1_545
O1 Y0 2.186322 1_455
O1 Y1 2.227662 1_554
O2 Y1 2.126221 1_554
O3 Y0 2.126221 1_556
O4 Y0 2.126221 1_556
O5 Y1 2.126221 1_554
