# generated using pymatgen
data_Mg3Si4
_symmetry_space_group_name_H-M   'P 1'
_cell_length_a   6.43257300
_cell_length_b   6.74551482
_cell_length_c   6.84125769
_cell_angle_alpha   108.12369798
_cell_angle_beta   107.24286766
_cell_angle_gamma   103.82720305
_symmetry_Int_Tables_number   1
_chemical_formula_structural   Mg3Si4
_chemical_formula_sum   'Mg6 Si8'
_cell_volume   250.86412184
_cell_formula_units_Z   2
loop_
 _symmetry_equiv_pos_site_id
 _symmetry_equiv_pos_as_xyz
  1  'x, y, z'
loop_
 _atom_site_type_symbol
 _atom_site_label
 _atom_site_symmetry_multiplicity
 _atom_site_fract_x
 _atom_site_fract_y
 _atom_site_fract_z
 _atom_site_occupancy
  Mg  Mg0  1  0.13446600  0.11544100  0.47782400  1
  Mg  Mg1  1  0.46322400  0.89814300  0.40862400  1
  Mg  Mg2  1  0.90988600  0.06716300  0.78260200  1
  Mg  Mg3  1  0.29239300  0.53641000  0.92388200  1
  Mg  Mg4  1  0.69053900  0.98800000  0.09004900  1
  Mg  Mg5  1  0.40038000  0.28724300  0.20540000  1
  Si  Si0  1  0.96576700  0.47866100  0.13905600  1
  Si  Si1  1  0.65736600  0.56339100  0.72669900  1
  Si  Si2  1  0.25048700  0.89430500  0.77716600  1
  Si  Si3  1  0.05288500  0.82823400  0.04744100  1
  Si  Si4  1  0.25277000  0.55311000  0.51319200  1
  Si  Si5  1  0.84819600  0.36031700  0.51252800  1
  Si  Si6  1  0.56339800  0.23432200  0.82866900  1
  Si  Si7  1  0.76478900  0.69541600  0.32063600  1
loop_
_geom_bond_atom_site_label_1
_geom_bond_atom_site_label_2
_geom_bond_distance
_geom_bond_site_symmetry_2
Mg0 Si5 2.764946 1_455
Mg0 Si4 2.779618 1_555
Mg0 Si3 2.783374 1_545
Mg0 Si6 2.799241 1_555
Mg0 Si7 2.864729 1_445
Mg0 Si2 2.915890 1_545
Mg0 Mg2 2.919556 1_455
Mg0 Mg3 3.130500 1_555
Mg1 Si7 2.728273 1_555
Mg1 Si4 2.804514 1_555
Mg1 Si6 2.822240 1_565
Mg1 Si3 2.847556 1_555
Mg1 Mg2 2.891771 1_565
Mg1 Mg3 3.111692 1_554
Mg1 Si5 3.200714 1_565
Mg2 Si2 2.720961 1_645
Mg2 Si6 2.781175 1_555
Mg2 Si3 2.874673 1_646
Mg2 Si0 2.927967 1_556
Mg2 Mg4 2.966137 1_546
Mg2 Si7 3.057709 1_545
Mg2 Si5 3.113708 1_555
Mg2 Mg3 3.157772 1_655
Mg2 Mg5 3.194436 1_656
Mg2 Si1 3.243035 1_545
Mg3 Si4 2.785282 1_555
Mg3 Si3 2.854755 1_556
Mg3 Si0 2.921000 1_456
Mg3 Si2 2.926880 1_555
Mg3 Mg5 2.965726 1_556
Mg3 Si5 3.004298 1_455
Mg3 Si6 3.026713 1_555
Mg3 Si1 3.031617 1_555
Mg3 Si7 3.081031 1_556
Mg3 Mg4 3.085673 1_556
Mg4 Si2 2.775792 1_554
Mg4 Si3 2.843791 1_655
Mg4 Si5 2.866800 1_565
Mg4 Si6 2.873715 1_564
Mg4 Si7 2.924504 1_555
Mg4 Si1 3.064667 1_554
Mg5 Si5 2.836263 1_555
Mg5 Si7 2.857649 1_555
Mg5 Si4 2.863852 1_555
Mg5 Si2 2.968297 1_544
Mg5 Si3 2.988181 1_545
Mg5 Si6 3.013034 1_554
Mg5 Si1 3.133905 1_555
Si0 Si7 2.465343 1_555
Si0 Si4 2.483467 1_655
Si0 Si6 2.539664 1_554
Si0 Si3 2.600644 1_655
Si1 Si5 2.480207 1_555
Si1 Si6 2.520177 1_555
Si1 Si4 2.551240 1_555
Si1 Si3 2.560927 1_656
Si2 Si4 2.450437 1_555
Si2 Si6 2.511226 1_565
Si2 Si3 2.620770 1_556
Si4 Si5 2.614503 1_455
