# generated using pymatgen
data_Mn7(PO8)2
_symmetry_space_group_name_H-M   'P 1'
_cell_length_a   11.24367425
_cell_length_b   5.24175500
_cell_length_c   10.32657367
_cell_angle_alpha   90.00000000
_cell_angle_beta   90.27171847
_cell_angle_gamma   90.00000000
_symmetry_Int_Tables_number   1
_chemical_formula_structural   Mn7(PO8)2
_chemical_formula_sum   'Mn14 P4 O32'
_cell_volume   608.60615042
_cell_formula_units_Z   2
loop_
 _symmetry_equiv_pos_site_id
 _symmetry_equiv_pos_as_xyz
  1  'x, y, z'
loop_
 _atom_site_type_symbol
 _atom_site_label
 _atom_site_symmetry_multiplicity
 _atom_site_fract_x
 _atom_site_fract_y
 _atom_site_fract_z
 _atom_site_occupancy
  Mn  Mn0  1  0.00000000  0.50000000  0.00000000  1
  Mn  Mn1  1  0.00000000  0.00000000  0.50000000  1
  Mn  Mn2  1  0.04437600  0.96699400  0.85734900  1
  Mn  Mn3  1  0.95562400  0.46699400  0.64265100  1
  Mn  Mn4  1  0.95562400  0.03300600  0.14265100  1
  Mn  Mn5  1  0.04437600  0.53300600  0.35734900  1
  Mn  Mn6  1  0.22025400  0.95522700  0.62623400  1
  Mn  Mn7  1  0.77974600  0.45522700  0.87376600  1
  Mn  Mn8  1  0.77974600  0.04477300  0.37376600  1
  Mn  Mn9  1  0.22025400  0.54477300  0.12623400  1
  Mn  Mn10  1  0.44363500  0.53302800  0.66631200  1
  Mn  Mn11  1  0.55636500  0.03302800  0.83368800  1
  Mn  Mn12  1  0.55636500  0.46697200  0.33368800  1
  Mn  Mn13  1  0.44363500  0.96697200  0.16631200  1
  P  P0  1  0.29308800  0.20772600  0.86469700  1
  P  P1  1  0.70691200  0.70772600  0.63530300  1
  P  P2  1  0.70691200  0.79227400  0.13530300  1
  P  P3  1  0.29308800  0.29227400  0.36469700  1
  O  O0  1  0.30237700  0.35481300  0.73327000  1
  O  O1  1  0.69762300  0.85481300  0.76673000  1
  O  O2  1  0.69762300  0.64518700  0.26673000  1
  O  O3  1  0.30237700  0.14518700  0.23327000  1
  O  O4  1  0.20363700  0.33818400  0.95788400  1
  O  O5  1  0.79636300  0.83818400  0.54211600  1
  O  O6  1  0.79636300  0.66181600  0.04211600  1
  O  O7  1  0.20363700  0.16181600  0.45788400  1
  O  O8  1  0.41424200  0.16248000  0.93088500  1
  O  O9  1  0.58575800  0.66248000  0.56911500  1
  O  O10  1  0.58575800  0.83752000  0.06911500  1
  O  O11  1  0.41424200  0.33752000  0.43088500  1
  O  O12  1  0.23015500  0.94869000  0.82084800  1
  O  O13  1  0.76984500  0.44869000  0.67915200  1
  O  O14  1  0.76984500  0.05131000  0.17915200  1
  O  O15  1  0.23015500  0.55131000  0.32084800  1
  O  O16  1  0.34809600  0.76835600  0.57959100  1
  O  O17  1  0.65190400  0.26835600  0.92040900  1
  O  O18  1  0.65190400  0.23164400  0.42040900  1
  O  O19  1  0.34809600  0.73164400  0.07959100  1
  O  O20  1  0.52540000  0.22190800  0.69113300  1
  O  O21  1  0.47460000  0.72190800  0.80886700  1
  O  O22  1  0.47460000  0.77809200  0.30886700  1
  O  O23  1  0.52540000  0.27809200  0.19113300  1
  O  O24  1  0.04662100  0.11648600  0.67286900  1
  O  O25  1  0.95337900  0.61648600  0.82713100  1
  O  O26  1  0.95337900  0.88351400  0.32713100  1
  O  O27  1  0.04662100  0.38351400  0.17286900  1
  O  O28  1  0.07603000  0.81239000  0.04014200  1
  O  O29  1  0.92397000  0.31239000  0.45985800  1
  O  O30  1  0.92397000  0.18761000  0.95985800  1
  O  O31  1  0.07603000  0.68761000  0.54014200  1
loop_
_geom_bond_atom_site_label_1
_geom_bond_atom_site_label_2
_geom_bond_distance
_geom_bond_site_symmetry_2
Mn0 O28 1.892239 1_555
Mn0 O30 1.892239 1_454
Mn0 O27 1.955879 1_555
Mn0 O25 1.955879 1_454
Mn0 O6 2.482022 1_455
Mn0 O4 2.482022 1_554
Mn1 O31 1.892239 1_545
Mn1 O29 1.892239 1_455
Mn1 O26 1.955879 1_445
Mn1 O24 1.955879 1_555
Mn1 O5 2.482022 1_445
Mn1 O7 2.482022 1_555
Mn2 O24 2.060176 1_565
Mn2 O30 2.074667 1_465
Mn2 O28 2.083307 1_556
Mn2 O25 2.125265 1_455
Mn2 O12 2.126499 1_555
Mn3 O25 2.060176 1_555
Mn3 O31 2.074667 1_655
Mn3 O29 2.083307 1_555
Mn3 O24 2.125265 1_655
Mn3 O13 2.126499 1_555
Mn4 O26 2.060176 1_545
Mn4 O28 2.074667 1_645
Mn4 O30 2.083307 1_554
Mn4 O27 2.125265 1_655
Mn4 O14 2.126499 1_555
Mn5 O27 2.060176 1_555
Mn5 O29 2.074667 1_455
Mn5 O31 2.083307 1_555
Mn5 O26 2.125265 1_455
Mn5 O15 2.126499 1_555
Mn6 O16 1.806712 1_555
Mn6 O12 2.012541 1_555
Mn6 O7 2.055914 1_565
Mn6 O24 2.183278 1_565
Mn6 O31 2.318215 1_555
Mn6 O0 2.540021 1_565
Mn7 O17 1.806712 1_555
Mn7 O13 2.012541 1_555
Mn7 O6 2.055914 1_556
Mn7 O25 2.183278 1_555
Mn7 O30 2.318215 1_555
Mn7 O1 2.540021 1_555
Mn8 O18 1.806712 1_555
Mn8 O14 2.012541 1_555
Mn8 O5 2.055914 1_545
Mn8 O26 2.183278 1_545
Mn8 O29 2.318215 1_555
Mn8 O2 2.540021 1_545
Mn9 O19 1.806712 1_555
Mn9 O15 2.012541 1_555
Mn9 O4 2.055914 1_554
Mn9 O27 2.183278 1_555
Mn9 O28 2.318215 1_555
Mn9 O3 2.540021 1_555
Mn10 O21 1.806563 1_555
Mn10 O16 1.862358 1_555
Mn10 O20 1.888969 1_555
Mn10 O0 1.970719 1_555
Mn10 O9 2.009140 1_555
Mn11 O20 1.806563 1_555
Mn11 O17 1.862358 1_555
Mn11 O21 1.888969 1_545
Mn11 O1 1.970719 1_545
Mn11 O8 2.009140 1_555
Mn12 O23 1.806563 1_555
Mn12 O18 1.862358 1_555
Mn12 O22 1.888969 1_555
Mn12 O2 1.970719 1_555
Mn12 O11 2.009140 1_555
Mn13 O22 1.806563 1_555
Mn13 O19 1.862358 1_555
Mn13 O23 1.888969 1_565
Mn13 O3 1.970719 1_565
Mn13 O10 2.009140 1_555
O0 P0 1.564817 1_555
O1 P1 1.564817 1_555
O2 P2 1.564817 1_555
O3 P3 1.564817 1_555
O4 P0 1.553826 1_555
O5 P1 1.553826 1_555
O6 P2 1.553826 1_555
O7 P3 1.553826 1_555
O8 P0 1.539551 1_555
O9 P1 1.539551 1_555
O10 P2 1.539551 1_555
O11 P3 1.539551 1_555
O12 P0 1.595720 1_565
O13 P1 1.595720 1_555
O14 P2 1.595720 1_545
O15 P3 1.595720 1_555
