# generated using pymatgen
data_AlAgO2
_symmetry_space_group_name_H-M   'P 1'
_cell_length_a   6.35348230
_cell_length_b   6.35348230
_cell_length_c   6.35348171
_cell_angle_alpha   26.36572726
_cell_angle_beta   26.36572726
_cell_angle_gamma   26.36572513
_symmetry_Int_Tables_number   1
_chemical_formula_structural   AlAgO2
_chemical_formula_sum   'Al1 Ag1 O2'
_cell_volume   44.57759457
_cell_formula_units_Z   1
loop_
 _symmetry_equiv_pos_site_id
 _symmetry_equiv_pos_as_xyz
  1  'x, y, z'
loop_
 _atom_site_type_symbol
 _atom_site_label
 _atom_site_symmetry_multiplicity
 _atom_site_fract_x
 _atom_site_fract_y
 _atom_site_fract_z
 _atom_site_occupancy
  Al  Al0  1  0.00198600  0.00198600  0.00198600  1
  Ag  Ag0  1  0.83913800  0.83913800  0.83913800  1
  O  O0  1  0.71978200  0.71978200  0.71978200  1
  O  O1  1  0.28009400  0.28009400  0.28009400  1
loop_
_geom_bond_atom_site_label_1
_geom_bond_atom_site_label_2
_geom_bond_distance
_geom_bond_site_symmetry_2
Al0 O0 1.919178 1_445
Al0 O0 1.919178 1_544
Al0 O0 1.919178 1_454
Al0 O1 1.957175 1_554
Al0 O1 1.957175 1_455
Al0 O1 1.957175 1_545
Ag0 O0 2.194679 1_555
Ag0 O1 2.591433 1_656
Ag0 O1 2.591433 1_566
Ag0 O1 2.591434 1_665
