# generated using pymatgen
data_Na3HoTi2Nb2O12
_symmetry_space_group_name_H-M   'P 1'
_cell_length_a   5.44065500
_cell_length_b   5.59591114
_cell_length_c   7.77075579
_cell_angle_alpha   89.88746042
_cell_angle_beta   89.95951344
_cell_angle_gamma   89.24320299
_symmetry_Int_Tables_number   1
_chemical_formula_structural   Na3HoTi2Nb2O12
_chemical_formula_sum   'Na3 Ho1 Ti2 Nb2 O12'
_cell_volume   236.56278997
_cell_formula_units_Z   1
loop_
 _symmetry_equiv_pos_site_id
 _symmetry_equiv_pos_as_xyz
  1  'x, y, z'
loop_
 _atom_site_type_symbol
 _atom_site_label
 _atom_site_symmetry_multiplicity
 _atom_site_fract_x
 _atom_site_fract_y
 _atom_site_fract_z
 _atom_site_occupancy
  Na  Na0  1  0.49107900  0.53067500  0.74836000  1
  Na  Na1  1  0.00268400  0.02069600  0.74991900  1
  Na  Na2  1  0.50856800  0.46168500  0.25024700  1
  Ho  Ho0  1  0.99007500  0.93364300  0.25022000  1
  Ti  Ti0  1  0.48868400  0.98299000  0.00733700  1
  Ti  Ti1  1  0.00382300  0.47660700  0.49329100  1
  Nb  Nb0  1  0.49376900  0.99286400  0.51132900  1
  Nb  Nb1  1  0.00271800  0.47771300  0.98906100  1
  O  O0  1  0.56893700  0.98367200  0.75321000  1
  O  O1  1  0.91933100  0.48823000  0.74705400  1
  O  O2  1  0.39947700  0.02843100  0.24655300  1
  O  O3  1  0.07752700  0.53300800  0.25308600  1
  O  O4  1  0.20489800  0.80432200  0.97557800  1
  O  O5  1  0.29321600  0.30345500  0.53718700  1
  O  O6  1  0.80674500  0.20905100  0.44594400  1
  O  O7  1  0.71885300  0.73385100  0.05316500  1
  O  O8  1  0.80460700  0.20627900  0.05489100  1
  O  O9  1  0.72294200  0.73099400  0.44724400  1
  O  O10  1  0.20239900  0.80265200  0.52576600  1
  O  O11  1  0.29966600  0.29918000  0.96055600  1
loop_
_geom_bond_atom_site_label_1
_geom_bond_atom_site_label_2
_geom_bond_distance
_geom_bond_site_symmetry_2
Na0 O1 2.338940 1_555
Na0 O11 2.346579 1_555
Na0 O5 2.348452 1_555
Na0 O0 2.575945 1_555
Na0 O10 2.775872 1_555
Na0 O4 2.798298 1_555
Na0 O9 2.888931 1_555
Na0 O7 2.913834 1_556
Na1 O0 2.371785 1_445
Na1 O10 2.382034 1_545
Na1 O4 2.389676 1_545
Na1 O1 2.649436 1_455
Na1 O5 2.790524 1_555
Na1 O6 2.791249 1_455
Na1 O11 2.792610 1_555
Na1 O8 2.798680 1_456
Na2 O3 2.373757 1_555
Na2 O7 2.451189 1_555
Na2 O9 2.456194 1_555
Na2 O2 2.503871 1_555
Na2 O6 2.622482 1_555
Na2 O8 2.624053 1_555
Na2 O5 2.672917 1_555
Na2 O11 2.687975 1_554
Ho0 O3 2.285763 1_655
Ho0 O2 2.296650 1_665
Ho0 O8 2.366875 1_565
Ho0 O6 2.376912 1_565
Ho0 O9 2.403308 1_555
Ho0 O7 2.413651 1_555
Ho0 O4 2.534688 1_654
Ho0 O10 2.536032 1_655
Nb0 O10 1.924163 1_555
Nb0 O0 1.924302 1_555
Nb0 O9 1.975792 1_555
Nb0 O5 2.050051 1_565
Nb0 O2 2.129160 1_565
Nb0 O6 2.161475 1_565
Nb1 O11 1.901325 1_555
Nb1 O1 1.935439 1_455
Nb1 O8 1.941645 1_456
Nb1 O3 2.116074 1_556
Nb1 O4 2.147917 1_555
Nb1 O7 2.151978 1_456
O0 Ti0 2.022159 1_556
O1 Ti1 2.025460 1_655
O2 Ti0 1.937269 1_545
O3 Ti1 1.935067 1_555
O4 Ti0 1.867269 1_556
O5 Ti1 1.869057 1_555
O6 Ti1 1.889933 1_655
O7 Ti0 1.895057 1_555
O8 Ti0 2.170629 1_545
O9 Ti1 2.105016 1_655
O10 Ti1 2.148033 1_555
O11 Ti0 2.066477 1_546
