# generated using pymatgen
data_Li2TiGeO5
_symmetry_space_group_name_H-M   'P 1'
_cell_length_a   6.65929700
_cell_length_b   6.65929700
_cell_length_c   4.55250100
_cell_angle_alpha   90.00000000
_cell_angle_beta   90.00000000
_cell_angle_gamma   90.00000000
_symmetry_Int_Tables_number   1
_chemical_formula_structural   Li2TiGeO5
_chemical_formula_sum   'Li4 Ti2 Ge2 O10'
_cell_volume   201.88628617
_cell_formula_units_Z   2
loop_
 _symmetry_equiv_pos_site_id
 _symmetry_equiv_pos_as_xyz
  1  'x, y, z'
loop_
 _atom_site_type_symbol
 _atom_site_label
 _atom_site_symmetry_multiplicity
 _atom_site_fract_x
 _atom_site_fract_y
 _atom_site_fract_z
 _atom_site_occupancy
  Li  Li0  1  0.75000000  0.25000000  0.50000000  1
  Li  Li1  1  0.25000000  0.25000000  0.50000000  1
  Li  Li2  1  0.25000000  0.75000000  0.50000000  1
  Li  Li3  1  0.75000000  0.75000000  0.50000000  1
  Ti  Ti0  1  0.00000000  0.50000000  0.10436300  1
  Ti  Ti1  1  0.50000000  0.00000000  0.89563700  1
  Ge  Ge0  1  0.50000000  0.50000000  0.00000000  1
  Ge  Ge1  1  0.00000000  0.00000000  0.00000000  1
  O  O0  1  0.50000000  0.71356800  0.76850000  1
  O  O1  1  0.50000000  0.28643200  0.76850000  1
  O  O2  1  0.50000000  0.00000000  0.27260700  1
  O  O3  1  0.00000000  0.50000000  0.72739300  1
  O  O4  1  0.71356800  0.50000000  0.23150000  1
  O  O5  1  0.00000000  0.78643200  0.23150000  1
  O  O6  1  0.00000000  0.21356800  0.23150000  1
  O  O7  1  0.28643200  0.50000000  0.23150000  1
  O  O8  1  0.78643200  0.00000000  0.76850000  1
  O  O9  1  0.21356800  0.00000000  0.76850000  1
loop_
_geom_bond_atom_site_label_1
_geom_bond_atom_site_label_2
_geom_bond_distance
_geom_bond_site_symmetry_2
Li0 O4 2.079575 1_555
Li0 O1 2.079575 1_555
Li0 O6 2.079575 1_655
Li0 O8 2.079575 1_555
Li0 O3 2.571951 1_655
Li0 O2 2.571951 1_555
Li1 O1 2.079575 1_555
Li1 O7 2.079575 1_555
Li1 O9 2.079575 1_555
Li1 O6 2.079575 1_555
Li1 O3 2.571951 1_555
Li1 O2 2.571951 1_555
Li2 O0 2.079575 1_555
Li2 O9 2.079575 1_565
Li2 O7 2.079575 1_555
Li2 O5 2.079575 1_555
Li2 O3 2.571951 1_555
Li2 O2 2.571951 1_565
Li3 O0 2.079575 1_555
Li3 O4 2.079575 1_555
Li3 O5 2.079575 1_655
Li3 O8 2.079575 1_565
Li3 O3 2.571951 1_655
Li3 O2 2.571951 1_565
Ge0 O4 1.770142 1_555
Ge0 O0 1.770142 1_554
Ge0 O1 1.770142 1_554
Ge0 O7 1.770142 1_555
Ge1 O8 1.770142 1_454
Ge1 O5 1.770142 1_545
Ge1 O6 1.770142 1_555
Ge1 O9 1.770142 1_554
O0 Ti1 1.993316 1_565
O1 Ti1 1.993316 1_555
O2 Ti1 1.716156 1_554
O3 Ti0 1.716156 1_556
O4 Ti0 1.993316 1_655
O5 Ti0 1.993316 1_555
O6 Ti0 1.993316 1_555
O7 Ti0 1.993316 1_555
O8 Ti1 1.993316 1_555
O9 Ti1 1.993316 1_555
