# generated using pymatgen
data_NaCaScZn(SiO3)4
_symmetry_space_group_name_H-M   'P 1'
_cell_length_a   6.74783266
_cell_length_b   6.74783266
_cell_length_c   5.35251979
_cell_angle_alpha   77.95307380
_cell_angle_beta   77.95307380
_cell_angle_gamma   84.86372430
_symmetry_Int_Tables_number   1
_chemical_formula_structural   NaCaScZn(SiO3)4
_chemical_formula_sum   'Na1 Ca1 Sc1 Zn1 Si4 O12'
_cell_volume   232.83168431
_cell_formula_units_Z   1
loop_
 _symmetry_equiv_pos_site_id
 _symmetry_equiv_pos_as_xyz
  1  'x, y, z'
loop_
 _atom_site_type_symbol
 _atom_site_label
 _atom_site_symmetry_multiplicity
 _atom_site_fract_x
 _atom_site_fract_y
 _atom_site_fract_z
 _atom_site_occupancy
  Na  Na0  1  0.30207800  0.69792200  0.50000000  1
  Ca  Ca0  1  0.69991200  0.30008800  0.00000000  1
  Sc  Sc0  1  0.10227200  0.89772800  0.00000000  1
  Zn  Zn0  1  0.90053900  0.09946100  0.50000000  1
  Si  Si0  1  0.80170000  0.62224200  0.48548900  1
  Si  Si1  1  0.37775800  0.19830000  0.51451100  1
  Si  Si2  1  0.19798600  0.37857900  0.01267200  1
  Si  Si3  1  0.62142100  0.80201400  0.98732800  1
  O  O0  1  0.66555900  0.63414800  0.25289200  1
  O  O1  1  0.36585200  0.33444100  0.74710800  1
  O  O2  1  0.33814500  0.36073400  0.24025100  1
  O  O3  1  0.63926600  0.66185500  0.75974900  1
  O  O4  1  0.88394200  0.39154700  0.57203400  1
  O  O5  1  0.60845300  0.11605800  0.42796600  1
  O  O6  1  0.11088600  0.60860100  0.93928100  1
  O  O7  1  0.39139900  0.88911400  0.06071900  1
  O  O8  1  0.96485800  0.79902300  0.39226000  1
  O  O9  1  0.20097700  0.03514200  0.60774000  1
  O  O10  1  0.03096400  0.20396600  0.09928600  1
  O  O11  1  0.79603400  0.96903600  0.90071400  1
loop_
_geom_bond_atom_site_label_1
_geom_bond_atom_site_label_2
_geom_bond_distance
_geom_bond_site_symmetry_2
Na0 O6 2.416108 1_555
Na0 O7 2.416108 1_555
Na0 O9 2.466066 1_565
Na0 O8 2.466066 1_455
Na0 O0 2.577755 1_555
Na0 O1 2.577755 1_555
Na0 O3 2.872144 1_555
Na0 O2 2.872144 1_555
Ca0 O4 2.351582 1_554
Ca0 O5 2.351582 1_555
Ca0 O11 2.405325 1_544
Ca0 O10 2.405325 1_655
Ca0 O3 2.551615 1_554
Ca0 O2 2.551615 1_555
Ca0 O1 2.831337 1_554
Ca0 O0 2.831337 1_555
O0 Si0 1.680121 1_555
O0 Si3 1.684186 1_554
O1 Si1 1.680121 1_555
O1 Si2 1.684186 1_556
O2 Si2 1.670952 1_555
O2 Si1 1.693369 1_555
O3 Si3 1.670952 1_555
O3 Si0 1.693369 1_555
O4 Si0 1.611666 1_555
O4 Zn0 2.074970 1_555
O5 Si1 1.611666 1_555
O5 Zn0 2.074970 1_555
O6 Si2 1.608551 1_556
O6 Sc0 2.037600 1_556
O7 Si3 1.608551 1_554
O7 Sc0 2.037600 1_555
O8 Si0 1.625256 1_555
O8 Sc0 2.103765 1_655
O8 Zn0 2.203836 1_565
O9 Si1 1.625256 1_555
O9 Sc0 2.103765 1_546
O9 Zn0 2.203836 1_455
O10 Si2 1.632508 1_555
O10 Zn0 2.136340 1_455
O10 Sc0 2.226604 1_545
O11 Si3 1.632508 1_555
O11 Zn0 2.136340 1_565
O11 Sc0 2.226604 1_656
