# generated using pymatgen
data_Mn2NbP12
_symmetry_space_group_name_H-M   'P 1'
_cell_length_a   8.55667510
_cell_length_b   8.55667510
_cell_length_c   10.65964677
_cell_angle_alpha   65.93130307
_cell_angle_beta   65.93130307
_cell_angle_gamma   39.51907740
_symmetry_Int_Tables_number   1
_chemical_formula_structural   Mn2NbP12
_chemical_formula_sum   'Mn4 Nb2 P24'
_cell_volume   447.58238371
_cell_formula_units_Z   2
loop_
 _symmetry_equiv_pos_site_id
 _symmetry_equiv_pos_as_xyz
  1  'x, y, z'
loop_
 _atom_site_type_symbol
 _atom_site_label
 _atom_site_symmetry_multiplicity
 _atom_site_fract_x
 _atom_site_fract_y
 _atom_site_fract_z
 _atom_site_occupancy
  Mn  Mn0  1  0.37102583  0.99269143  0.45327343  1
  Mn  Mn1  1  0.00730857  0.62897417  0.04672657  1
  Mn  Mn2  1  0.62897417  0.00730857  0.54672657  1
  Mn  Mn3  1  0.99269143  0.37102583  0.95327343  1
  Nb  Nb0  1  0.30309926  0.69690074  0.25000000  1
  Nb  Nb1  1  0.69690074  0.30309926  0.75000000  1
  P  P0  1  0.59484825  0.95248902  0.07389551  1
  P  P1  1  0.04751098  0.40515175  0.42610449  1
  P  P2  1  0.40515175  0.04751098  0.92610449  1
  P  P3  1  0.95248902  0.59484825  0.57389551  1
  P  P4  1  0.58490725  0.28703579  0.16649275  1
  P  P5  1  0.71296421  0.41509275  0.33350725  1
  P  P6  1  0.98501033  0.33034943  0.75618052  1
  P  P7  1  0.66965057  0.01498967  0.74381948  1
  P  P8  1  0.01498967  0.66965057  0.24381948  1
  P  P9  1  0.33034943  0.98501033  0.25618052  1
  P  P10  1  0.01911738  0.91507997  0.92945717  1
  P  P11  1  0.08492003  0.98088262  0.57054283  1
  P  P12  1  0.98088262  0.08492003  0.07054283  1
  P  P13  1  0.91507997  0.01911738  0.42945717  1
  P  P14  1  0.33158627  0.43088274  0.50863578  1
  P  P15  1  0.56911726  0.66841373  0.99136422  1
  P  P16  1  0.66841373  0.56911726  0.49136422  1
  P  P17  1  0.43088274  0.33158627  0.00863578  1
  P  P18  1  0.99512922  0.64740928  0.83775028  1
  P  P19  1  0.35259072  0.00487078  0.66224972  1
  P  P20  1  0.00487078  0.35259072  0.16224972  1
  P  P21  1  0.64740928  0.99512922  0.33775028  1
  P  P22  1  0.28703579  0.58490725  0.66649275  1
  P  P23  1  0.41509275  0.71296421  0.83350725  1
loop_
_geom_bond_atom_site_label_1
_geom_bond_atom_site_label_2
_geom_bond_distance
_geom_bond_site_symmetry_2
Mn0 P21 2.188486 1_555
Mn0 P19 2.208027 1_565
Mn0 P1 2.224823 1_565
Mn0 P16 2.278053 1_555
Mn0 P9 2.298648 1_555
Mn0 P11 2.312698 1_555
Mn1 P20 2.188486 1_555
Mn1 P18 2.208027 1_454
Mn1 P0 2.224823 1_455
Mn1 P17 2.278053 1_555
Mn1 P8 2.298648 1_555
Mn1 P10 2.312698 1_554
Mn2 P19 2.188486 1_555
Mn2 P21 2.208027 1_545
Mn2 P3 2.224823 1_545
Mn2 P14 2.278053 1_555
Mn2 P7 2.298648 1_555
Mn2 P13 2.312698 1_555
Mn3 P18 2.188486 1_555
Mn3 P20 2.208027 1_656
Mn3 P2 2.224823 1_655
Mn3 P15 2.278053 1_555
Mn3 P6 2.298648 1_555
Mn3 P12 2.312698 1_556
Nb0 P5 2.579696 1_555
Nb0 P4 2.579696 1_555
Nb0 P8 2.677327 1_555
Nb0 P9 2.677327 1_555
Nb0 P12 2.698674 1_465
Nb0 P13 2.698674 1_465
Nb0 P15 2.723038 1_554
Nb0 P14 2.723038 1_555
Nb1 P22 2.579696 1_555
Nb1 P23 2.579696 1_555
Nb1 P7 2.677327 1_555
Nb1 P6 2.677327 1_555
Nb1 P11 2.698674 1_645
Nb1 P10 2.698674 1_645
Nb1 P16 2.723038 1_555
Nb1 P17 2.723038 1_556
P0 P2 2.186888 1_564
P0 P9 2.204000 1_555
P0 P17 2.215546 1_565
P1 P3 2.186888 1_455
P1 P8 2.204000 1_555
P1 P16 2.215546 1_455
P2 P7 2.204000 1_555
P3 P6 2.204000 1_555
P10 P23 2.256716 1_555
P10 P12 2.264652 1_466
P11 P22 2.256716 1_555
P11 P13 2.264652 1_465
P12 P4 2.256716 1_555
P13 P5 2.256716 1_555
P14 P3 2.215546 1_455
P14 P22 2.285676 1_555
P15 P2 2.215546 1_565
P15 P23 2.285676 1_555
P16 P5 2.285676 1_555
P17 P4 2.285676 1_555
P18 P7 2.200631 1_565
P18 P22 2.207617 1_655
P19 P6 2.200631 1_455
P19 P23 2.207617 1_545
P20 P9 2.200631 1_545
P20 P5 2.207617 1_455
P21 P8 2.200631 1_655
P21 P4 2.207617 1_565
