# generated using pymatgen
data_Ba3UIn2O9
_symmetry_space_group_name_H-M   'P 1'
_cell_length_a   10.57394676
_cell_length_b   10.57394676
_cell_length_c   10.57394676
_cell_angle_alpha   146.55580166
_cell_angle_beta   131.83773292
_cell_angle_gamma   59.90427135
_symmetry_Int_Tables_number   1
_chemical_formula_structural   Ba3UIn2O9
_chemical_formula_sum   'Ba6 U2 In4 O18'
_cell_volume   481.04780263
_cell_formula_units_Z   2
loop_
 _symmetry_equiv_pos_site_id
 _symmetry_equiv_pos_as_xyz
  1  'x, y, z'
loop_
 _atom_site_type_symbol
 _atom_site_label
 _atom_site_symmetry_multiplicity
 _atom_site_fract_x
 _atom_site_fract_y
 _atom_site_fract_z
 _atom_site_occupancy
  Ba  Ba0  1  0.77224400  0.50000000  0.27224400  1
  Ba  Ba1  1  0.39373100  0.15641300  0.23731700  1
  Ba  Ba2  1  0.08090400  0.84358700  0.23731700  1
  Ba  Ba3  1  0.22775600  0.50000000  0.72775600  1
  Ba  Ba4  1  0.91909600  0.15641300  0.76268300  1
  Ba  Ba5  1  0.60626900  0.84358700  0.76268300  1
  U  U0  1  0.66814100  0.66814100  0.00000000  1
  U  U1  1  0.33185900  0.33185900  0.00000000  1
  In  In0  1  0.50000000  0.00000000  0.50000000  1
  In  In1  1  0.16669000  0.66669000  0.50000000  1
  In  In2  1  0.83331000  0.33331000  0.50000000  1
  In  In3  1  0.00000000  0.00000000  0.00000000  1
  O  O0  1  0.74445500  0.00000000  0.74445500  1
  O  O1  1  0.42624800  0.66842800  0.75782000  1
  O  O2  1  0.08939100  0.33157200  0.75782000  1
  O  O3  1  0.58773700  0.83029900  0.24256200  1
  O  O4  1  0.25162300  0.49524900  0.24362500  1
  O  O5  1  0.91466200  0.16382100  0.24915900  1
  O  O6  1  0.41226300  0.65482500  0.24256200  1
  O  O7  1  0.08533800  0.33449700  0.24915900  1
  O  O8  1  0.74837700  0.99200200  0.24362500  1
  O  O9  1  0.25554500  0.00000000  0.25554500  1
  O  O10  1  0.91060900  0.66842800  0.24218000  1
  O  O11  1  0.57375200  0.33157200  0.24218000  1
  O  O12  1  0.41226300  0.16970100  0.75743800  1
  O  O13  1  0.08533800  0.83617900  0.75084100  1
  O  O14  1  0.74837700  0.50475100  0.75637500  1
  O  O15  1  0.58773700  0.34517500  0.75743800  1
  O  O16  1  0.25162300  0.00799800  0.75637500  1
  O  O17  1  0.91466200  0.66550300  0.75084100  1
loop_
_geom_bond_atom_site_label_1
_geom_bond_atom_site_label_2
_geom_bond_distance
_geom_bond_site_symmetry_2
Ba0 O17 2.938916 1_555
Ba0 O5 2.938916 1_555
Ba0 O13 2.938916 1_655
Ba0 O7 2.938916 1_655
Ba0 O0 3.051876 1_565
Ba0 O0 3.051876 1_554
Ba0 O11 3.097065 1_555
Ba0 O10 3.097073 1_555
Ba0 O6 3.206502 1_555
Ba0 O12 3.206502 1_554
Ba0 O3 3.206502 1_555
Ba0 O15 3.206502 1_554
Ba1 O13 2.861499 1_544
Ba1 O7 2.861503 1_555
Ba1 O9 2.870346 1_555
Ba1 O3 3.029065 1_545
Ba1 O15 3.029068 1_555
Ba1 O1 3.055518 1_544
Ba1 O1 3.055524 1_555
Ba1 O16 3.071580 1_554
Ba1 O4 3.071593 1_555
Ba1 O11 3.209781 1_555
Ba1 O14 3.226606 1_555
Ba1 O8 3.226606 1_545
Ba2 O5 2.861494 1_465
Ba2 O17 2.861494 1_454
Ba2 O9 2.870337 1_565
Ba2 O12 3.029066 1_565
Ba2 O6 3.029066 1_555
Ba2 O2 3.055520 1_554
Ba2 O2 3.055526 1_565
Ba2 O8 3.071584 1_455
Ba2 O14 3.071588 1_454
Ba2 O10 3.209781 1_455
Ba2 O4 3.226606 1_555
Ba2 O16 3.226615 1_565
Ba3 O7 2.938916 1_555
Ba3 O17 2.938916 1_455
Ba3 O13 2.938916 1_555
Ba3 O5 2.938916 1_455
Ba3 O9 3.051876 1_555
Ba3 O9 3.051876 1_566
Ba3 O1 3.097065 1_555
Ba3 O2 3.097073 1_555
Ba3 O6 3.206502 1_556
Ba3 O12 3.206502 1_555
Ba3 O3 3.206502 1_556
Ba3 O15 3.206502 1_555
Ba4 O7 2.861494 1_656
Ba4 O13 2.861494 1_645
Ba4 O0 2.870337 1_555
Ba4 O15 3.029066 1_555
Ba4 O3 3.029066 1_545
Ba4 O10 3.055520 1_556
Ba4 O10 3.055526 1_545
Ba4 O16 3.071584 1_655
Ba4 O4 3.071588 1_656
Ba4 O2 3.209781 1_655
Ba4 O14 3.226606 1_555
Ba4 O8 3.226615 1_545
Ba5 O5 2.861499 1_566
Ba5 O17 2.861503 1_555
Ba5 O0 2.870346 1_565
Ba5 O12 3.029065 1_565
Ba5 O6 3.029068 1_555
Ba5 O11 3.055518 1_566
Ba5 O11 3.055524 1_555
Ba5 O8 3.071580 1_556
Ba5 O14 3.071593 1_555
Ba5 O1 3.209781 1_555
Ba5 O4 3.226606 1_555
Ba5 O16 3.226606 1_565
In0 O0 2.109395 1_555
In0 O9 2.109395 1_555
In0 O12 2.244633 1_555
In0 O3 2.244633 1_545
In0 O6 2.244633 1_545
In0 O15 2.244633 1_555
In1 O13 2.133481 1_555
In1 O7 2.133481 1_555
In1 O16 2.203542 1_565
In1 O4 2.203546 1_555
In1 O10 2.224945 1_455
In1 O1 2.224949 1_555
In2 O5 2.133481 1_555
In2 O17 2.133481 1_555
In2 O8 2.203542 1_545
In2 O14 2.203546 1_555
In2 O2 2.224945 1_655
In2 O11 2.224949 1_555
In3 O5 2.177999 1_455
In3 O7 2.177999 1_555
In3 O17 2.177999 1_444
In3 O13 2.177999 1_544
In3 O9 2.205091 1_555
In3 O0 2.205091 1_454
O1 U0 2.089771 1_556
O2 U1 2.089775 1_556
O3 U0 2.085428 1_555
O4 U1 2.087838 1_555
O6 U1 2.085428 1_555
O8 U0 2.087842 1_555
O10 U0 2.089775 1_555
O11 U1 2.089771 1_555
O12 U1 2.085428 1_556
O14 U0 2.087838 1_556
O15 U0 2.085428 1_556
O16 U1 2.087842 1_556
