# generated using pymatgen
data_Tb3In5
_symmetry_space_group_name_H-M   'P 1'
_cell_length_a   6.37940508
_cell_length_b   6.37940508
_cell_length_c   10.35133700
_cell_angle_alpha   89.99926575
_cell_angle_beta   89.99927459
_cell_angle_gamma   101.48321296
_symmetry_Int_Tables_number   1
_chemical_formula_structural   Tb3In5
_chemical_formula_sum   'Tb6 In10'
_cell_volume   412.83392878
_cell_formula_units_Z   2
loop_
 _symmetry_equiv_pos_site_id
 _symmetry_equiv_pos_as_xyz
  1  'x, y, z'
loop_
 _atom_site_type_symbol
 _atom_site_label
 _atom_site_symmetry_multiplicity
 _atom_site_fract_x
 _atom_site_fract_y
 _atom_site_fract_z
 _atom_site_occupancy
  Tb  Tb0  1  0.62490377  0.62490377  0.24998712  1
  Tb  Tb1  1  0.37508737  0.37508737  0.75001331  1
  Tb  Tb2  1  0.79697771  0.20302065  0.50001273  1
  Tb  Tb3  1  0.79698470  0.20301561  0.99998604  1
  Tb  Tb4  1  0.20302065  0.79697771  0.50001273  1
  Tb  Tb5  1  0.20301561  0.79698570  0.99998604  1
  In  In0  1  0.00873592  0.00873592  0.24998164  1
  In  In1  1  0.99127793  0.99127793  0.75001902  1
  In  In2  1  0.30902561  0.30902561  0.04614280  1
  In  In3  1  0.69094846  0.69094846  0.95381080  1
  In  In4  1  0.30902479  0.30902479  0.45385091  1
  In  In5  1  0.69094820  0.69094820  0.54619337  1
  In  In6  1  0.07634357  0.50767280  0.24998287  1
  In  In7  1  0.49235751  0.92367442  0.75001888  1
  In  In8  1  0.92367442  0.49235851  0.75001888  1
  In  In9  1  0.50767380  0.07634357  0.24998287  1
loop_
_geom_bond_atom_site_label_1
_geom_bond_atom_site_label_2
_geom_bond_distance
_geom_bond_site_symmetry_2
In0 Tb0 3.099066 1_445
In0 In6 3.125766 1_555
In0 In9 3.125772 1_555
In0 In2 3.214082 1_555
In0 In4 3.214348 1_555
In0 Tb5 3.274771 1_544
In0 Tb3 3.274773 1_454
In0 Tb4 3.275098 1_545
In0 Tb2 3.275098 1_455
In0 In9 3.309442 1_455
In0 In6 3.309448 1_545
In1 Tb1 3.098883 1_665
In1 In8 3.125657 1_555
In1 In7 3.125663 1_555
In1 In3 3.214005 1_555
In1 In5 3.214300 1_555
In1 Tb5 3.274534 1_655
In1 Tb3 3.274538 1_565
In1 Tb2 3.274892 1_565
In1 Tb4 3.274893 1_655
In1 In7 3.309544 1_655
In1 In8 3.309550 1_565
In2 In6 3.001736 1_555
In2 In9 3.001739 1_555
In2 Tb1 3.111385 1_554
In2 In3 3.228352 1_554
In2 Tb5 3.236696 1_544
In2 Tb3 3.236702 1_454
In2 Tb0 3.310157 1_555
In2 Tb3 3.348714 1_554
In2 Tb5 3.348720 1_554
In3 In8 3.001358 1_555
In3 In7 3.001361 1_555
In3 Tb0 3.111839 1_556
In3 Tb5 3.236893 1_655
In3 Tb3 3.236893 1_565
In3 Tb1 3.309742 1_555
In3 Tb3 3.348644 1_555
In3 Tb5 3.348646 1_555
In4 In6 3.001943 1_555
In4 In9 3.001947 1_555
In4 Tb1 3.111743 1_555
In4 In5 3.228426 1_555
In4 Tb4 3.236733 1_545
In4 Tb2 3.236733 1_455
In4 Tb0 3.310225 1_555
In4 Tb2 3.348677 1_555
In4 Tb4 3.348678 1_555
In5 In8 3.001606 1_555
In5 In7 3.001610 1_555
In5 Tb0 3.112165 1_555
In5 Tb2 3.236919 1_565
In5 Tb4 3.236919 1_655
In5 Tb1 3.309823 1_555
In5 Tb4 3.348611 1_555
In5 Tb2 3.348611 1_555
In6 Tb0 3.116212 1_455
In6 Tb5 3.187808 1_554
In6 Tb4 3.188118 1_555
In6 Tb0 3.429821 1_555
In6 Tb3 3.503030 1_454
In6 Tb2 3.503216 1_455
In7 Tb1 3.116152 1_565
In7 Tb5 3.187671 1_555
In7 Tb4 3.188043 1_555
In7 Tb1 3.429992 1_555
In7 Tb3 3.502671 1_565
In7 Tb2 3.502892 1_565
In8 Tb1 3.116155 1_655
In8 Tb3 3.187675 1_555
In8 Tb2 3.188047 1_555
In8 Tb1 3.429992 1_555
In8 Tb5 3.502671 1_655
In8 Tb4 3.502889 1_655
In9 Tb0 3.116210 1_545
In9 Tb3 3.187801 1_554
In9 Tb2 3.188114 1_555
In9 Tb0 3.429821 1_555
In9 Tb5 3.503030 1_544
In9 Tb4 3.503218 1_545
