# generated using pymatgen
data_AlH10C3N6OF5
_symmetry_space_group_name_H-M   'P 1'
_cell_length_a   7.94983367
_cell_length_b   8.78117200
_cell_length_c   13.75632265
_cell_angle_alpha   90.00000000
_cell_angle_beta   102.23306625
_cell_angle_gamma   90.00000000
_symmetry_Int_Tables_number   1
_chemical_formula_structural   AlH10C3N6OF5
_chemical_formula_sum   'Al4 H40 C12 N24 O4 F20'
_cell_volume   938.50806963
_cell_formula_units_Z   4
loop_
 _symmetry_equiv_pos_site_id
 _symmetry_equiv_pos_as_xyz
  1  'x, y, z'
loop_
 _atom_site_type_symbol
 _atom_site_label
 _atom_site_symmetry_multiplicity
 _atom_site_fract_x
 _atom_site_fract_y
 _atom_site_fract_z
 _atom_site_occupancy
  Al  Al0  1  0.20936800  0.22125000  0.30251000  1
  Al  Al1  1  0.79063200  0.77875000  0.69749000  1
  Al  Al2  1  0.79063200  0.72125000  0.19749000  1
  Al  Al3  1  0.20936800  0.27875000  0.80251000  1
  H  H0  1  0.19672300  0.07457000  0.10275700  1
  H  H1  1  0.80327700  0.92543000  0.89724300  1
  H  H2  1  0.80327700  0.57457000  0.39724300  1
  H  H3  1  0.19672300  0.42543000  0.60275700  1
  H  H4  1  0.57180300  0.38487900  0.21017500  1
  H  H5  1  0.42819700  0.61512100  0.78982500  1
  H  H6  1  0.42819700  0.88487900  0.28982500  1
  H  H7  1  0.57180300  0.11512100  0.71017500  1
  H  H8  1  0.06184800  0.82809400  0.14624800  1
  H  H9  1  0.93815200  0.17190600  0.85375200  1
  H  H10  1  0.93815200  0.32809400  0.35375200  1
  H  H11  1  0.06184800  0.67190600  0.64624800  1
  H  H12  1  0.13287300  0.53302800  0.12798700  1
  H  H13  1  0.86712700  0.46697200  0.87201300  1
  H  H14  1  0.86712700  0.03302800  0.37201300  1
  H  H15  1  0.13287300  0.96697200  0.62798700  1
  H  H16  1  0.66064700  0.01504400  0.11945200  1
  H  H17  1  0.33935300  0.98495600  0.88054800  1
  H  H18  1  0.33935300  0.51504400  0.38054800  1
  H  H19  1  0.66064700  0.48495600  0.61945200  1
  H  H20  1  0.26178900  0.13985800  0.99775800  1
  H  H21  1  0.73821100  0.86014200  0.00224200  1
  H  H22  1  0.73821100  0.63985800  0.50224200  1
  H  H23  1  0.26178900  0.36014200  0.49775800  1
  H  H24  1  0.53243700  0.18817700  0.22177700  1
  H  H25  1  0.46756300  0.81182300  0.77822300  1
  H  H26  1  0.46756300  0.68817700  0.27822300  1
  H  H27  1  0.53243700  0.31182300  0.72177700  1
  H  H28  1  0.00367800  0.55502800  0.72659900  1
  H  H29  1  0.99632200  0.44497200  0.27340100  1
  H  H30  1  0.99632200  0.05502800  0.77340100  1
  H  H31  1  0.00367800  0.94497200  0.22659900  1
  H  H32  1  0.68047800  0.48265800  0.08144000  1
  H  H33  1  0.31952200  0.51734200  0.91856000  1
  H  H34  1  0.31952200  0.98265800  0.41856000  1
  H  H35  1  0.68047800  0.01734200  0.58144000  1
  H  H36  1  0.21265800  0.41889500  0.04221100  1
  H  H37  1  0.78734200  0.58110500  0.95778900  1
  H  H38  1  0.78734200  0.91889500  0.45778900  1
  H  H39  1  0.21265800  0.08110500  0.54221100  1
  C  C0  1  0.24079400  0.64730000  0.02766800  1
  C  C1  1  0.75920600  0.35270000  0.97233200  1
  C  C2  1  0.75920600  0.14730000  0.47233200  1
  C  C3  1  0.24079400  0.85270000  0.52766800  1
  C  C4  1  0.26061400  0.59368100  0.51124800  1
  C  C5  1  0.73938600  0.40631900  0.48875200  1
  C  C6  1  0.73938600  0.09368100  0.98875200  1
  C  C7  1  0.26061400  0.90631900  0.01124800  1
  C  C8  1  0.64775700  0.25290500  0.10708400  1
  C  C9  1  0.35224300  0.74709500  0.89291600  1
  C  C10  1  0.35224300  0.75290500  0.39291600  1
  C  C11  1  0.64775700  0.24709500  0.60708400  1
  N  N0  1  0.68859400  0.37337800  0.05485800  1
  N  N1  1  0.31140600  0.62662200  0.94514200  1
  N  N2  1  0.31140600  0.87337800  0.44514200  1
  N  N3  1  0.68859400  0.12662200  0.55485800  1
  N  N4  1  0.21755700  0.78689000  0.06188500  1
  N  N5  1  0.78244300  0.21311000  0.93811500  1
  N  N6  1  0.78244300  0.28689000  0.43811500  1
  N  N7  1  0.21755700  0.71311000  0.56188500  1
  N  N8  1  0.67443400  0.11216700  0.07372800  1
  N  N9  1  0.32556600  0.88783300  0.92627200  1
  N  N10  1  0.32556600  0.61216700  0.42627200  1
  N  N11  1  0.67443400  0.38783300  0.57372800  1
  N  N12  1  0.24304900  0.04702500  0.04064100  1
  N  N13  1  0.75695100  0.95297500  0.95935900  1
  N  N14  1  0.75695100  0.54702500  0.45935900  1
  N  N15  1  0.24304900  0.45297500  0.54064100  1
  N  N16  1  0.58434200  0.27464100  0.18696500  1
  N  N17  1  0.41565800  0.72535900  0.81303500  1
  N  N18  1  0.41565800  0.77464100  0.31303500  1
  N  N19  1  0.58434200  0.22535900  0.68696500  1
  N  N20  1  0.19861000  0.52407700  0.07170900  1
  N  N21  1  0.80139000  0.47592300  0.92829100  1
  N  N22  1  0.80139000  0.02407700  0.42829100  1
  N  N23  1  0.19861000  0.97592300  0.57170900  1
  O  O0  1  0.03620600  0.36492000  0.32612600  1
  O  O1  1  0.96379400  0.63508000  0.67387400  1
  O  O2  1  0.96379400  0.86492000  0.17387400  1
  O  O3  1  0.03620600  0.13508000  0.82612600  1
  F  F0  1  0.37976100  0.08683600  0.28986600  1
  F  F1  1  0.62023900  0.91316400  0.71013400  1
  F  F2  1  0.62023900  0.58683600  0.21013400  1
  F  F3  1  0.37976100  0.41316400  0.78986600  1
  F  F4  1  0.35476800  0.38573400  0.31411200  1
  F  F5  1  0.64523200  0.61426600  0.68588800  1
  F  F6  1  0.64523200  0.88573400  0.18588800  1
  F  F7  1  0.35476800  0.11426600  0.81411200  1
  F  F8  1  0.14362300  0.24009800  0.17094900  1
  F  F9  1  0.85637700  0.75990200  0.82905100  1
  F  F10  1  0.85637700  0.74009800  0.32905100  1
  F  F11  1  0.14362300  0.25990200  0.67094900  1
  F  F12  1  0.27682500  0.19363500  0.43987100  1
  F  F13  1  0.72317500  0.80636500  0.56012900  1
  F  F14  1  0.72317500  0.69363500  0.06012900  1
  F  F15  1  0.27682500  0.30636500  0.93987100  1
  F  F16  1  0.05170800  0.06722800  0.30531500  1
  F  F17  1  0.94829200  0.93277200  0.69468500  1
  F  F18  1  0.94829200  0.56722800  0.19468500  1
  F  F19  1  0.05170800  0.43277200  0.80531500  1
loop_
_geom_bond_atom_site_label_1
_geom_bond_atom_site_label_2
_geom_bond_distance
_geom_bond_site_symmetry_2
Al0 F8 1.781873 1_555
Al0 F0 1.832531 1_555
Al0 F4 1.835645 1_555
Al0 F16 1.849909 1_555
Al0 F12 1.867481 1_555
Al0 O0 1.944666 1_555
Al1 F9 1.781873 1_555
Al1 F1 1.832531 1_555
Al1 F5 1.835645 1_555
Al1 F17 1.849909 1_555
Al1 F13 1.867481 1_555
Al1 O1 1.944666 1_555
Al2 F10 1.781873 1_555
Al2 F2 1.832531 1_555
Al2 F6 1.835645 1_555
Al2 F18 1.849909 1_555
Al2 F14 1.867481 1_555
Al2 O2 1.944666 1_555
Al3 F11 1.781873 1_555
Al3 F3 1.832531 1_555
Al3 F7 1.835645 1_555
Al3 F19 1.849909 1_555
Al3 F15 1.867481 1_555
Al3 O3 1.944666 1_555
H0 N12 1.028420 1_555
H1 N13 1.028420 1_555
H2 N14 1.028420 1_555
H3 N15 1.028420 1_555
H4 N16 1.030741 1_555
H5 N17 1.030741 1_555
H6 N18 1.030741 1_555
H7 N19 1.030741 1_555
H8 O2 0.991048 1_455
H9 O3 0.991048 1_655
H10 O0 0.991048 1_655
H11 O1 0.991048 1_455
H12 N20 1.024740 1_555
H13 N21 1.024740 1_555
H14 N22 1.024740 1_555
H15 N23 1.024740 1_555
H16 N8 1.078991 1_555
H17 N9 1.078991 1_555
H18 N10 1.078991 1_555
H19 N11 1.078991 1_555
H20 N12 1.035354 1_556
H21 N13 1.035354 1_554
H22 N14 1.035354 1_555
H23 N15 1.035354 1_555
H24 N16 1.029470 1_555
H25 N17 1.029470 1_555
H26 N18 1.029470 1_555
H27 N19 1.029470 1_555
H28 O1 1.011573 1_455
H29 O0 1.011573 1_655
H30 O3 1.011573 1_655
H31 O2 1.011573 1_455
H32 N0 1.033790 1_555
H33 N1 1.033790 1_555
H34 N2 1.033790 1_555
H35 N3 1.033790 1_555
H36 N20 1.024409 1_555
H37 N21 1.024409 1_555
H38 N22 1.024409 1_565
H39 N23 1.024409 1_545
C0 N20 1.317734 1_555
C0 N4 1.339787 1_555
C0 N1 1.380925 1_554
C1 N21 1.317734 1_555
C1 N5 1.339787 1_555
C1 N0 1.380925 1_556
C2 N22 1.317734 1_555
C2 N6 1.339787 1_555
C2 N3 1.380925 1_555
C3 N23 1.317734 1_555
C3 N7 1.339787 1_555
C3 N2 1.380925 1_555
C4 N15 1.316637 1_555
C4 N7 1.342855 1_555
C4 N10 1.383918 1_555
C5 N14 1.316637 1_555
C5 N6 1.342855 1_555
C5 N11 1.383918 1_555
C6 N13 1.316637 1_545
C6 N5 1.342855 1_555
C6 N8 1.383918 1_556
C7 N12 1.316637 1_565
C7 N4 1.342855 1_555
C7 N9 1.383918 1_554
C8 N16 1.316383 1_555
C8 N8 1.350584 1_555
C8 N0 1.356293 1_555
C9 N17 1.316383 1_555
C9 N9 1.350584 1_555
C9 N1 1.356293 1_555
C10 N18 1.316383 1_555
C10 N10 1.350584 1_555
C10 N2 1.356293 1_555
C11 N19 1.316383 1_555
C11 N11 1.350584 1_555
C11 N3 1.356293 1_555
F4 H18 1.478873 1_555
F5 H19 1.478873 1_555
F6 H16 1.478873 1_565
F7 H17 1.478873 1_545
F16 H31 1.515136 1_545
F17 H30 1.515136 1_565
F18 H29 1.515136 1_555
F19 H28 1.515136 1_555
