# generated using pymatgen
data_SrCaYBiO6
_symmetry_space_group_name_H-M   'P 1'
_cell_length_a   5.86400375
_cell_length_b   6.03807108
_cell_length_c   8.41767917
_cell_angle_alpha   89.96695850
_cell_angle_beta   89.80928697
_cell_angle_gamma   89.95900723
_symmetry_Int_Tables_number   1
_chemical_formula_structural   SrCaYBiO6
_chemical_formula_sum   'Sr2 Ca2 Y2 Bi2 O12'
_cell_volume   298.04527453
_cell_formula_units_Z   2
loop_
 _symmetry_equiv_pos_site_id
 _symmetry_equiv_pos_as_xyz
  1  'x, y, z'
loop_
 _atom_site_type_symbol
 _atom_site_label
 _atom_site_symmetry_multiplicity
 _atom_site_fract_x
 _atom_site_fract_y
 _atom_site_fract_z
 _atom_site_occupancy
  Sr  Sr0  1  0.51073443  0.54982515  0.25006632  1
  Sr  Sr1  1  0.48926557  0.45017485  0.74993368  1
  Ca  Ca0  1  0.98593172  0.04877272  0.24852817  1
  Ca  Ca1  1  0.01406828  0.95122728  0.75147183  1
  Y  Y0  1  0.50000000  0.00000000  -0.00000000  1
  Y  Y1  1  0.00000000  0.50000000  0.50000000  1
  Bi  Bi0  1  0.00000000  0.50000000  -0.00000000  1
  Bi  Bi1  1  0.50000000  0.00000000  0.50000000  1
  O  O0  1  0.18612776  0.20385424  0.93733309  1
  O  O1  1  0.30971298  0.70760836  0.55395395  1
  O  O2  1  0.81387224  0.79614576  0.06266691  1
  O  O3  1  0.69028702  0.29239164  0.44604605  1
  O  O4  1  0.29421214  0.69598756  0.94978720  1
  O  O5  1  0.20458019  0.19163696  0.56350109  1
  O  O6  1  0.70578786  0.30401244  0.05021280  1
  O  O7  1  0.79541981  0.80836304  0.43649891  1
  O  O8  1  0.38068451  0.96629140  0.25818189  1
  O  O9  1  0.09819106  0.44156410  0.24232631  1
  O  O10  1  0.61931549  0.03370860  0.74181811  1
  O  O11  1  0.90180894  0.55843590  0.75767369  1
loop_
_geom_bond_atom_site_label_1
_geom_bond_atom_site_label_2
_geom_bond_distance
_geom_bond_site_symmetry_2
Ca0 O8 2.369101 1_645
Ca0 O2 2.409972 1_545
Ca0 O7 2.418002 1_545
Ca0 O9 2.462297 1_655
Ca0 O6 2.805753 1_555
Ca0 O3 2.813139 1_555
Ca0 O0 3.015834 1_654
Ca0 O5 3.073191 1_655
Ca1 O10 2.369101 1_465
Ca1 O0 2.409972 1_565
Ca1 O5 2.418002 1_565
Ca1 O11 2.462297 1_455
Ca1 O4 2.805753 1_555
Ca1 O1 2.813139 1_555
Ca1 O2 3.015834 1_456
Ca1 O7 3.073191 1_455
Bi0 O6 2.133793 1_455
Bi0 O4 2.133793 1_554
Bi0 O9 2.150260 1_555
Bi0 O11 2.150260 1_454
Bi0 O2 2.159046 1_455
Bi0 O0 2.159046 1_554
Bi1 O1 2.137012 1_545
Bi1 O3 2.137012 1_555
Bi1 O7 2.148799 1_545
Bi1 O5 2.148799 1_555
Bi1 O10 2.164388 1_555
Bi1 O8 2.164388 1_545
O0 Y0 2.276716 1_556
O0 Sr1 2.800490 1_555
O1 Y1 2.255106 1_555
O1 Sr1 2.500503 1_555
O1 Sr0 2.970158 1_555
O2 Y0 2.276716 1_565
O2 Sr0 2.800490 1_555
O3 Y1 2.255106 1_655
O3 Sr0 2.500503 1_555
O3 Sr1 2.970158 1_555
O4 Y0 2.238737 1_566
O4 Sr1 2.515751 1_555
O4 Sr0 2.966008 1_556
O5 Y1 2.278502 1_555
O5 Sr1 2.776799 1_555
O6 Y0 2.238737 1_555
O6 Sr0 2.515751 1_555
O6 Sr1 2.966008 1_554
O7 Y1 2.278502 1_655
O7 Sr0 2.776799 1_555
O8 Y0 2.289919 1_565
O8 Sr0 2.628085 1_555
O9 Y1 2.270008 1_555
O9 Sr0 2.507435 1_555
O10 Y0 2.289919 1_556
O10 Sr1 2.628085 1_555
O11 Y1 2.270008 1_655
O11 Sr1 2.507435 1_555
