# generated using pymatgen
data_Y6Zr22O53
_symmetry_space_group_name_H-M   'P 1'
_cell_length_a   3.66987658
_cell_length_b   3.66987639
_cell_length_c   104.55733864
_cell_angle_alpha   60.56899816
_cell_angle_beta   60.56900010
_cell_angle_gamma   60.00059608
_symmetry_Int_Tables_number   1
_chemical_formula_structural   Y6Zr22O53
_chemical_formula_sum   'Y6 Zr22 O53'
_cell_volume   1004.21445065
_cell_formula_units_Z   1
loop_
 _symmetry_equiv_pos_site_id
 _symmetry_equiv_pos_as_xyz
  1  'x, y, z'
loop_
 _atom_site_type_symbol
 _atom_site_label
 _atom_site_symmetry_multiplicity
 _atom_site_fract_x
 _atom_site_fract_y
 _atom_site_fract_z
 _atom_site_occupancy
  Y  Y0  1  0.01927946  0.01927946  0.78364863  1
  Y  Y1  1  0.99897666  0.99897666  0.85725515  1
  Y  Y2  1  0.01594480  0.01594480  0.81971676  1
  Y  Y3  1  0.00051591  0.00051591  0.89280537  1
  Y  Y4  1  0.98425232  0.98425232  0.93026197  1
  Y  Y5  1  0.98168493  0.98168493  0.96624700  1
  Zr  Zr0  1  0.99326645  0.99326645  0.00071772  1
  Zr  Zr1  1  0.00498166  0.00498166  0.03517763  1
  Zr  Zr2  1  0.01270812  0.01270812  0.07006452  1
  Zr  Zr3  1  0.01658611  0.01658610  0.10536547  1
  Zr  Zr4  1  0.01796255  0.01796255  0.14093507  1
  Zr  Zr5  1  0.01803601  0.01803601  0.21235746  1
  Zr  Zr6  1  0.00152636  0.00152636  0.24984108  1
  Zr  Zr7  1  0.01792242  0.01792242  0.17665518  1
  Zr  Zr8  1  0.01395582  0.01395582  0.28421219  1
  Zr  Zr9  1  0.01355125  0.01355125  0.31997397  1
  Zr  Zr10  1  0.02638496  0.02638496  0.39003269  1
  Zr  Zr11  1  0.00640121  0.00640121  0.35645949  1
  Zr  Zr12  1  0.00950474  0.00950474  0.42755384  1
  Zr  Zr13  1  0.98923394  0.98923394  0.46543976  1
  Zr  Zr14  1  0.98454717  0.98454717  0.50165465  1
  Zr  Zr15  1  0.98332018  0.98332018  0.53750001  1
  Zr  Zr16  1  0.98277163  0.98277163  0.57327662  1
  Zr  Zr17  1  0.98291572  0.98291572  0.60897326  1
  Zr  Zr18  1  0.98897665  0.98897665  0.67975156  1
  Zr  Zr19  1  0.98450156  0.98450156  0.64451470  1
  Zr  Zr20  1  0.00856453  0.00856453  0.74907916  1
  Zr  Zr21  1  0.99681082  0.99681082  0.71462691  1
  O  O0  1  0.22513188  0.22513188  0.01158755  1
  O  O1  1  0.23460635  0.23460635  0.04629225  1
  O  O2  1  0.23984670  0.23984670  0.08144461  1
  O  O3  1  0.72530590  0.72530590  0.02942967  1
  O  O4  1  0.73354942  0.73354942  0.06426085  1
  O  O5  1  0.24215708  0.24215708  0.11691316  1
  O  O6  1  0.73741744  0.73741744  0.09956269  1
  O  O7  1  0.24278558  0.24278558  0.15256198  1
  O  O8  1  0.24249983  0.24249983  0.18830781  1
  O  O9  1  0.73857681  0.73857681  0.13515509  1
  O  O10  1  0.23604618  0.23604618  0.22471376  1
  O  O11  1  0.73867185  0.73867185  0.17086017  1
  O  O12  1  0.73977862  0.73977862  0.20645613  1
  O  O13  1  0.24891647  0.24891647  0.29475551  1
  O  O14  1  0.70170146  0.70170146  0.24624893  1
  O  O15  1  0.24424776  0.24424776  0.33097764  1
  O  O16  1  0.75744553  0.75744553  0.27598347  1
  O  O17  1  0.74544033  0.74544033  0.31298945  1
  O  O18  1  0.25119432  0.25119432  0.40165717  1
  O  O19  1  0.71981307  0.71981307  0.35145187  1
  O  O20  1  0.76481923  0.76481923  0.38234063  1
  O  O21  1  0.26918348  0.26918348  0.47115973  1
  O  O22  1  0.69998879  0.69998879  0.42500196  1
  O  O23  1  0.26131751  0.26131751  0.50771374  1
  O  O24  1  0.77770489  0.77770489  0.45239079  1
  O  O25  1  0.26031107  0.26031107  0.54353669  1
  O  O26  1  0.76047186  0.76047186  0.48994639  1
  O  O27  1  0.75790313  0.75790313  0.52593700  1
  O  O28  1  0.25995930  0.25995930  0.57929104  1
  O  O29  1  0.75703537  0.75703537  0.56174626  1
  O  O30  1  0.26023703  0.26023703  0.61497455  1
  O  O31  1  0.75690507  0.75690507  0.59747485  1
  O  O32  1  0.26155057  0.26155057  0.65054571  1
  O  O33  1  0.75753989  0.75753989  0.63311898  1
  O  O34  1  0.26587541  0.26587541  0.68579744  1
  O  O35  1  0.75992291  0.75992291  0.66857654  1
  O  O36  1  0.27462517  0.27462517  0.72057547  1
  O  O37  1  0.28996071  0.28996071  0.75464377  1
  O  O38  1  0.76545636  0.76545636  0.70370075  1
  O  O39  1  0.77536721  0.77536721  0.73835005  1
  O  O40  1  0.26666770  0.26666770  0.79285763  1
  O  O41  1  0.78896319  0.78896319  0.77261015  1
  O  O42  1  0.25133015  0.25133015  0.83021141  1
  O  O43  1  0.76179439  0.76179439  0.81123232  1
  O  O44  1  0.25278216  0.25278216  0.86577672  1
  O  O45  1  0.76400275  0.76400275  0.84671661  1
  O  O46  1  0.23662365  0.23662365  0.90322256  1
  O  O47  1  0.23855561  0.23855561  0.93872950  1
  O  O48  1  0.74729277  0.74729277  0.88422111  1
  O  O49  1  0.74854237  0.74854237  0.91980267  1
  O  O50  1  0.21200210  0.21200210  0.97728315  1
  O  O51  1  0.73438270  0.73438270  0.95702992  1
  O  O52  1  0.71070898  0.71070898  0.99527631  1
loop_
_geom_bond_atom_site_label_1
_geom_bond_atom_site_label_2
_geom_bond_distance
_geom_bond_site_symmetry_2
O0 Zr1 2.031046 1_555
O0 Zr0 2.316172 1_445
O0 Zr0 2.316349 1_455
O0 Zr0 2.316349 1_545
O1 Zr2 2.046732 1_555
O1 Zr1 2.324817 1_565
O1 Zr1 2.324817 1_655
O1 Zr1 2.325022 1_555
O2 Zr3 2.059525 1_555
O2 Zr2 2.334343 1_565
O2 Zr2 2.334343 1_655
O2 Zr2 2.334474 1_555
O3 Zr1 2.175757 1_665
O3 Zr1 2.175878 1_655
O3 Zr1 2.175878 1_565
O3 Zr0 2.472026 1_555
O4 Zr2 2.176870 1_665
O4 Zr2 2.176965 1_655
O4 Zr2 2.176965 1_565
O4 Zr1 2.503991 1_665
O5 Zr4 2.068225 1_555
O5 Zr3 2.340446 1_565
O5 Zr3 2.340446 1_655
O5 Zr3 2.340547 1_555
O6 Zr3 2.176863 1_665
O6 Zr3 2.176942 1_655
O6 Zr3 2.176942 1_565
O6 Zr2 2.539717 1_665
O7 Zr7 2.074363 1_555
O7 Zr4 2.343376 1_565
O7 Zr4 2.343376 1_655
O7 Zr4 2.343404 1_555
O8 Zr5 2.070614 1_555
O8 Zr7 2.344318 1_555
O8 Zr7 2.344339 1_565
O8 Zr7 2.344339 1_655
O9 Zr4 2.176440 1_665
O9 Zr4 2.176479 1_655
O9 Zr4 2.176479 1_565
O9 Zr3 2.564811 1_665
O10 Zr6 2.163398 1_555
O10 Zr5 2.370879 1_555
O10 Zr5 2.370898 1_565
O10 Zr5 2.370898 1_655
O11 Zr7 2.176760 1_655
O11 Zr7 2.176760 1_565
O11 Zr7 2.176768 1_665
O11 Zr4 2.576475 1_665
O12 Zr5 2.178879 1_665
O12 Zr5 2.178879 1_655
O12 Zr5 2.178879 1_565
O12 Zr7 2.565786 1_665
O13 Zr9 2.171245 1_555
O13 Zr8 2.304995 1_565
O13 Zr8 2.304995 1_655
O13 Zr8 2.305237 1_555
O14 Zr6 2.141214 1_655
O14 Zr6 2.141214 1_565
O14 Zr6 2.141361 1_665
O15 Zr11 2.193923 1_555
O15 Zr9 2.320796 1_565
O15 Zr9 2.320796 1_655
O15 Zr9 2.321318 1_555
O16 Zr8 2.233967 1_665
O16 Zr8 2.234196 1_655
O16 Zr8 2.234196 1_565
O16 Zr6 2.250793 1_665
O17 Zr9 2.202268 1_665
O17 Zr9 2.202607 1_655
O17 Zr9 2.202607 1_565
O17 Zr8 2.477649 1_665
O18 Zr12 2.229637 1_555
O18 Zr10 2.343105 1_555
O18 Zr10 2.343391 1_565
O18 Zr10 2.343391 1_655
O19 Zr11 2.162166 1_665
O19 Zr11 2.162263 1_655
O19 Zr11 2.162263 1_565
O19 Zr9 2.710167 1_665
O20 Zr10 2.219835 1_655
O20 Zr10 2.219835 1_565
O20 Zr10 2.220030 1_665
O20 Zr11 2.228300 1_665
O21 Zr13 2.175287 1_445
O21 Zr13 2.175292 1_455
O21 Zr13 2.175292 1_545
O21 Zr14 2.625535 1_445
O22 Zr12 2.130157 1_665
O22 Zr12 2.130179 1_655
O22 Zr12 2.130179 1_565
O23 Zr14 2.181995 1_445
O23 Zr14 2.182131 1_455
O23 Zr14 2.182132 1_545
O23 Zr15 2.564522 1_445
O24 Zr12 2.138398 1_665
O24 Zr13 2.398140 1_555
O24 Zr13 2.398295 1_545
O24 Zr13 2.398296 1_455
O25 Zr15 2.181605 1_445
O25 Zr15 2.181636 1_455
O25 Zr15 2.181636 1_545
O25 Zr16 2.560532 1_445
O26 Zr13 2.109959 1_555
O26 Zr14 2.346343 1_545
O26 Zr14 2.346343 1_455
O26 Zr14 2.346470 1_555
O27 Zr14 2.090649 1_555
O27 Zr15 2.341038 1_545
O27 Zr15 2.341038 1_455
O27 Zr15 2.341045 1_555
O28 Zr16 2.181082 1_445
O28 Zr16 2.181214 1_455
O28 Zr16 2.181214 1_545
O28 Zr17 2.555564 1_445
O29 Zr15 2.087540 1_555
O29 Zr16 2.339802 1_545
O29 Zr16 2.339802 1_455
O29 Zr16 2.339934 1_555
O30 Zr17 2.180882 1_445
O30 Zr17 2.180912 1_455
O30 Zr17 2.180912 1_545
O30 Zr19 2.543332 1_445
O31 Zr16 2.083406 1_555
O31 Zr17 2.338632 1_555
O31 Zr17 2.338705 1_545
O31 Zr17 2.338705 1_455
O32 Zr19 2.181503 1_455
O32 Zr19 2.181504 1_545
O32 Zr19 2.181521 1_445
O32 Zr18 2.514549 1_445
O33 Zr17 2.078885 1_555
O33 Zr19 2.334860 1_555
O33 Zr19 2.334997 1_545
O33 Zr19 2.334997 1_455
O34 Zr18 2.181756 1_445
O34 Zr18 2.181844 1_455
O34 Zr18 2.181844 1_545
O34 Zr21 2.482144 1_445
O35 Zr19 2.071663 1_555
O35 Zr18 2.326983 1_545
O35 Zr18 2.326984 1_455
O35 Zr18 2.327126 1_555
O36 Zr21 2.179817 1_445
O36 Zr21 2.179838 1_455
O36 Zr21 2.179838 1_545
O36 Zr20 2.454095 1_555
O37 Zr20 2.172277 1_555
O37 Zr20 2.172314 1_565
O37 Zr20 2.172314 1_655
O37 Y0 2.497245 1_555
O38 Zr18 2.061964 1_555
O38 Zr21 2.318222 1_555
O38 Zr21 2.318270 1_545
O38 Zr21 2.318270 1_455
O39 Zr21 2.042502 1_555
O39 Zr20 2.311411 1_665
O39 Zr20 2.311427 1_655
O39 Zr20 2.311427 1_565
O40 Y0 2.262295 1_565
O40 Y0 2.262295 1_655
O40 Y0 2.262311 1_555
O40 Y2 2.312503 1_555
O41 Zr20 2.025958 1_665
O41 Y0 2.322182 1_655
O41 Y0 2.322182 1_565
O41 Y0 2.322221 1_665
O42 Y2 2.303417 1_555
O42 Y2 2.303434 1_565
O42 Y2 2.303435 1_655
O42 Y1 2.328397 1_445
O43 Y2 2.241194 1_655
O43 Y2 2.241194 1_565
O43 Y2 2.241208 1_665
O43 Y0 2.374886 1_665
O44 Y1 2.242233 1_455
O44 Y1 2.242233 1_545
O44 Y1 2.242262 1_445
O44 Y3 2.327098 1_555
O45 Y1 2.304891 1_555
O45 Y1 2.304925 1_545
O45 Y1 2.304925 1_455
O45 Y2 2.324618 1_665
O46 Y3 2.300806 1_555
O46 Y3 2.300828 1_565
O46 Y3 2.300828 1_655
O46 Y4 2.328024 1_445
O47 Y4 2.240704 1_445
O47 Y4 2.240735 1_455
O47 Y4 2.240735 1_545
O47 Y5 2.369187 1_445
O48 Y3 2.243997 1_655
O48 Y3 2.243997 1_565
O48 Y3 2.244050 1_665
O48 Y1 2.321701 1_555
O49 Y4 2.302194 1_555
O49 Y4 2.302258 1_545
O49 Y4 2.302258 1_455
O49 Y3 2.324399 1_665
O50 Zr0 2.017657 1_446
O50 Y5 2.322018 1_445
O50 Y5 2.322160 1_455
O50 Y5 2.322160 1_545
O51 Y5 2.262492 1_555
O51 Y5 2.262571 1_545
O51 Y5 2.262571 1_455
O51 Y4 2.304652 1_555
O52 Zr0 2.169963 1_546
O52 Zr0 2.169963 1_456
O52 Zr0 2.170034 1_556
O52 Y5 2.499350 1_555
