# generated using pymatgen
data_MgCo5(P2O7)4
_symmetry_space_group_name_H-M   'P 1'
_cell_length_a   7.32383437
_cell_length_b   7.92242385
_cell_length_c   10.20966856
_cell_angle_alpha   107.44175026
_cell_angle_beta   86.22123101
_cell_angle_gamma   94.68255370
_symmetry_Int_Tables_number   1
_chemical_formula_structural   MgCo5(P2O7)4
_chemical_formula_sum   'Mg1 Co5 P8 O28'
_cell_volume   562.73246347
_cell_formula_units_Z   1
loop_
 _symmetry_equiv_pos_site_id
 _symmetry_equiv_pos_as_xyz
  1  'x, y, z'
loop_
 _atom_site_type_symbol
 _atom_site_label
 _atom_site_symmetry_multiplicity
 _atom_site_fract_x
 _atom_site_fract_y
 _atom_site_fract_z
 _atom_site_occupancy
  Mg  Mg0  1  0.99676672  0.19998550  0.61258849  1
  Co  Co0  1  0.26158571  0.87180293  0.60113355  1
  Co  Co1  1  0.24269365  0.83056105  0.06436334  1
  Co  Co2  1  0.49299822  0.49465883  0.99423989  1
  Co  Co3  1  0.73428774  0.15137399  0.94574858  1
  Co  Co4  1  0.72090413  0.12719068  0.38347192  1
  P  P0  1  0.15477462  0.20152738  0.03521101  1
  P  P1  1  0.16365786  0.17291052  0.31482022  1
  P  P2  1  0.29211504  0.54175781  0.74242981  1
  P  P3  1  0.46732930  0.74984491  0.30560904  1
  P  P4  1  0.53747846  0.25096142  0.68597273  1
  P  P5  1  0.71995276  0.45336853  0.24401418  1
  P  P6  1  0.84462428  0.84652914  0.69680162  1
  P  P7  1  0.83680169  0.78798825  0.96939558  1
  O  O0  1  0.99731398  0.76481361  0.05199104  1
  O  O1  1  0.98689470  0.13191754  0.40212787  1
  O  O2  1  0.12703087  0.41095417  0.72131825  1
  O  O3  1  0.07588970  0.22414573  0.18952034  1
  O  O4  1  0.29116087  0.35786732  0.03689697  1
  O  O5  1  0.28281655  0.31540024  0.40369856  1
  O  O6  1  0.29480953  0.68932786  0.67964416  1
  O  O7  1  0.30583565  0.77961233  0.40527720  1
  O  O8  1  0.33240171  0.62068137  0.90015280  1
  O  O9  1  0.38369541  0.11112624  0.64042844  1
  O  O10  1  0.24773143  0.02430958  0.98009735  1
  O  O11  1  0.41505826  0.70712250  0.15245654  1
  O  O12  1  0.25690665  0.00001217  0.24215538  1
  O  O13  1  0.47482142  0.43535784  0.67766116  1
  O  O14  1  0.55393735  0.57616946  0.31346244  1
  O  O15  1  0.69606472  0.97528662  0.77573990  1
  O  O16  1  0.58890871  0.28920246  0.83809104  1
  O  O17  1  0.74529319  0.96388008  0.03555077  1
  O  O18  1  0.62053557  0.90177009  0.33753226  1
  O  O19  1  0.65029198  0.35588422  0.09398350  1
  O  O20  1  0.71558088  0.21463867  0.59105093  1
  O  O21  1  0.69546822  0.31058944  0.32162479  1
  O  O22  1  0.77841362  0.69125427  0.58625031  1
  O  O23  1  0.70241855  0.62707414  0.95401677  1
  O  O24  1  0.92610063  0.78446360  0.82178759  1
  O  O25  1  0.89979426  0.55183674  0.24825257  1
  O  O26  1  0.00834803  0.96626968  0.65632060  1
  O  O27  1  0.98943538  0.21357113  0.95336051  1
loop_
_geom_bond_atom_site_label_1
_geom_bond_atom_site_label_2
_geom_bond_distance
_geom_bond_site_symmetry_2
Mg0 O2 1.924319 1_655
Mg0 O26 2.039898 1_645
Mg0 O1 2.057321 1_555
Mg0 O20 2.101621 1_555
Co0 O6 1.889287 1_555
Co0 O7 1.927356 1_555
Co0 O9 1.967254 1_565
Co0 O26 2.038009 1_555
Co1 O0 1.831545 1_455
Co1 O12 1.910304 1_565
Co1 O10 1.968714 1_564
Co1 O11 2.058479 1_555
Co1 O8 2.090271 1_554
Co2 O4 1.867027 1_556
Co2 O23 1.879922 1_555
Co2 O16 2.041543 1_555
Co2 O11 2.042986 1_556
Co2 O8 2.053910 1_555
Co2 O19 2.146034 1_556
Co3 O15 1.893668 1_545
Co3 O27 1.893827 1_555
Co3 O19 1.965723 1_556
Co3 O17 1.974652 1_546
Co3 O16 2.144217 1_555
Co4 O21 1.776008 1_555
Co4 O18 1.810709 1_545
Co4 O1 1.966058 1_555
Co4 O20 2.021464 1_555
O0 P7 1.544502 1_554
O1 P1 1.590212 1_655
O2 P2 1.509313 1_555
O3 P0 1.604875 1_555
O3 P1 1.636080 1_555
O4 P0 1.523035 1_555
O5 P1 1.479462 1_555
O6 P2 1.490619 1_555
O7 P3 1.494333 1_555
O8 P2 1.581137 1_555
O9 P4 1.506163 1_555
O10 P0 1.543789 1_556
O11 P3 1.564146 1_555
O12 P1 1.539428 1_555
O13 P4 1.593992 1_555
O13 P2 1.634549 1_555
O14 P3 1.586596 1_555
O14 P5 1.610451 1_555
O15 P6 1.564184 1_555
O16 P4 1.556317 1_555
O17 P7 1.541351 1_554
O18 P3 1.551279 1_555
O19 P5 1.591399 1_555
O20 P4 1.565544 1_555
O21 P5 1.557240 1_555
O22 P6 1.471315 1_555
O23 P7 1.521189 1_555
O24 P7 1.596085 1_555
O24 P6 1.658495 1_555
O25 P5 1.471321 1_555
O26 P6 1.578773 1_455
O27 P0 1.540716 1_656
