# generated using pymatgen
data_Ba2LaVO6
_symmetry_space_group_name_H-M   'P 1'
_cell_length_a   8.55637602
_cell_length_b   8.55637602
_cell_length_c   8.55637602
_cell_angle_alpha   90.00000000
_cell_angle_beta   90.00000000
_cell_angle_gamma   90.00000000
_symmetry_Int_Tables_number   1
_chemical_formula_structural   Ba2LaVO6
_chemical_formula_sum   'Ba8 La4 V4 O24'
_cell_volume   626.42572703
_cell_formula_units_Z   4
loop_
 _symmetry_equiv_pos_site_id
 _symmetry_equiv_pos_as_xyz
  1  'x, y, z'
loop_
 _atom_site_type_symbol
 _atom_site_label
 _atom_site_symmetry_multiplicity
 _atom_site_fract_x
 _atom_site_fract_y
 _atom_site_fract_z
 _atom_site_occupancy
  Ba  Ba0  1  0.50000000  0.50000000  0.50000000  1
  Ba  Ba1  1  0.00000000  0.00000000  0.00000000  1
  Ba  Ba2  1  0.00000000  0.00000000  0.50000000  1
  Ba  Ba3  1  0.00000000  0.50000000  0.00000000  1
  Ba  Ba4  1  0.50000000  0.00000000  0.00000000  1
  Ba  Ba5  1  0.50000000  0.50000000  0.00000000  1
  Ba  Ba6  1  0.50000000  0.00000000  0.50000000  1
  Ba  Ba7  1  0.00000000  0.50000000  0.50000000  1
  La  La0  1  0.75000000  0.75000000  0.75000000  1
  La  La1  1  0.75000000  0.25000000  0.25000000  1
  La  La2  1  0.25000000  0.75000000  0.25000000  1
  La  La3  1  0.25000000  0.25000000  0.75000000  1
  V  V0  1  0.25000000  0.25000000  0.25000000  1
  V  V1  1  0.25000000  0.75000000  0.75000000  1
  V  V2  1  0.75000000  0.25000000  0.75000000  1
  V  V3  1  0.75000000  0.75000000  0.25000000  1
  O  O0  1  0.23344630  0.26825883  0.47341565  1
  O  O1  1  0.23344630  0.73174117  0.52658435  1
  O  O2  1  0.76655370  0.26825883  0.52658435  1
  O  O3  1  0.76655370  0.73174117  0.47341565  1
  O  O4  1  0.26825883  0.47341565  0.23344630  1
  O  O5  1  0.73174117  0.52658435  0.23344630  1
  O  O6  1  0.26825883  0.52658435  0.76655370  1
  O  O7  1  0.73174117  0.47341565  0.76655370  1
  O  O8  1  0.47341565  0.23344630  0.26825883  1
  O  O9  1  0.52658435  0.23344630  0.73174117  1
  O  O10  1  0.52658435  0.76655370  0.26825883  1
  O  O11  1  0.47341565  0.76655370  0.73174117  1
  O  O12  1  0.26655370  0.23174117  0.02658435  1
  O  O13  1  0.26655370  0.76825883  0.97341565  1
  O  O14  1  0.73344630  0.23174117  0.97341565  1
  O  O15  1  0.73344630  0.76825883  0.02658435  1
  O  O16  1  0.23174117  0.02658435  0.26655370  1
  O  O17  1  0.76825883  0.97341565  0.26655370  1
  O  O18  1  0.23174117  0.97341565  0.73344630  1
  O  O19  1  0.76825883  0.02658435  0.73344630  1
  O  O20  1  0.02658435  0.26655370  0.23174117  1
  O  O21  1  0.97341565  0.26655370  0.76825883  1
  O  O22  1  0.97341565  0.73344630  0.23174117  1
  O  O23  1  0.02658435  0.73344630  0.76825883  1
loop_
_geom_bond_atom_site_label_1
_geom_bond_atom_site_label_2
_geom_bond_distance
_geom_bond_site_symmetry_2
Ba0 O8 3.030716 1_555
Ba0 O10 3.030716 1_555
Ba0 O0 3.030716 1_555
Ba0 O2 3.030716 1_555
Ba0 O4 3.030716 1_555
Ba0 O6 3.030716 1_555
Ba0 O11 3.030716 1_555
Ba0 O1 3.030716 1_555
Ba0 O5 3.030716 1_555
Ba0 O7 3.030716 1_555
Ba0 O9 3.030716 1_555
Ba0 O3 3.030716 1_555
Ba1 O14 3.030716 1_454
Ba1 O23 3.030716 1_544
Ba1 O19 3.030716 1_454
Ba1 O15 3.030716 1_445
Ba1 O12 3.030716 1_555
Ba1 O16 3.030716 1_555
Ba1 O21 3.030716 1_454
Ba1 O18 3.030716 1_544
Ba1 O22 3.030716 1_445
Ba1 O20 3.030716 1_555
Ba1 O13 3.030716 1_544
Ba1 O17 3.030716 1_445
Ba2 O17 2.823706 1_445
Ba2 O19 2.823706 1_455
Ba2 O16 2.823706 1_555
Ba2 O18 2.823706 1_545
Ba2 O1 3.051241 1_545
Ba2 O3 3.051241 1_445
Ba2 O0 3.051241 1_555
Ba2 O2 3.051241 1_455
Ba2 O20 3.243763 1_555
Ba2 O22 3.243763 1_445
Ba2 O23 3.243763 1_545
Ba2 O21 3.243763 1_455
Ba3 O21 2.823706 1_454
Ba3 O23 2.823706 1_554
Ba3 O22 2.823706 1_455
Ba3 O20 2.823706 1_555
Ba3 O7 3.051241 1_454
Ba3 O5 3.051241 1_455
Ba3 O6 3.051241 1_554
Ba3 O4 3.051241 1_555
Ba3 O14 3.243763 1_454
Ba3 O12 3.243763 1_555
Ba3 O13 3.243763 1_554
Ba3 O15 3.243763 1_455
Ba4 O13 2.823706 1_544
Ba4 O15 2.823706 1_545
Ba4 O12 2.823706 1_555
Ba4 O14 2.823706 1_554
Ba4 O11 3.051241 1_544
Ba4 O9 3.051241 1_554
Ba4 O8 3.051241 1_555
Ba4 O10 3.051241 1_545
Ba4 O17 3.243763 1_545
Ba4 O18 3.243763 1_544
Ba4 O16 3.243763 1_555
Ba4 O19 3.243763 1_554
Ba5 O7 2.823706 1_554
Ba5 O6 2.823706 1_554
Ba5 O4 2.823706 1_555
Ba5 O5 2.823706 1_555
Ba5 O12 3.051241 1_555
Ba5 O14 3.051241 1_554
Ba5 O13 3.051241 1_554
Ba5 O15 3.051241 1_555
Ba5 O11 3.243763 1_554
Ba5 O9 3.243763 1_554
Ba5 O8 3.243763 1_555
Ba5 O10 3.243763 1_555
Ba6 O8 2.823706 1_555
Ba6 O10 2.823706 1_545
Ba6 O9 2.823706 1_555
Ba6 O11 2.823706 1_545
Ba6 O16 3.051241 1_555
Ba6 O18 3.051241 1_545
Ba6 O17 3.051241 1_545
Ba6 O19 3.051241 1_555
Ba6 O3 3.243763 1_545
Ba6 O1 3.243763 1_545
Ba6 O0 3.243763 1_555
Ba6 O2 3.243763 1_555
Ba7 O0 2.823706 1_555
Ba7 O2 2.823706 1_455
Ba7 O1 2.823706 1_555
Ba7 O3 2.823706 1_455
Ba7 O22 3.051241 1_455
Ba7 O20 3.051241 1_555
Ba7 O23 3.051241 1_555
Ba7 O21 3.051241 1_455
Ba7 O7 3.243763 1_455
Ba7 O5 3.243763 1_455
Ba7 O6 3.243763 1_555
Ba7 O4 3.243763 1_555
La0 O7 2.375936 1_555
La0 O3 2.375936 1_555
La0 O11 2.375936 1_555
La0 O19 2.375936 1_565
La0 O23 2.375936 1_655
La0 O15 2.375936 1_556
La1 O8 2.375936 1_555
La1 O5 2.375936 1_555
La1 O2 2.375936 1_555
La1 O14 2.375936 1_554
La1 O20 2.375936 1_655
La1 O17 2.375936 1_545
La2 O4 2.375936 1_555
La2 O16 2.375936 1_565
La2 O13 2.375936 1_554
La2 O10 2.375936 1_555
La2 O1 2.375936 1_555
La2 O22 2.375936 1_455
La3 O0 2.375936 1_555
La3 O6 2.375936 1_555
La3 O18 2.375936 1_545
La3 O9 2.375936 1_555
La3 O21 2.375936 1_455
La3 O12 2.375936 1_556
O0 V0 1.923224 1_555
O1 V1 1.923224 1_555
O2 V2 1.923224 1_555
O3 V3 1.923224 1_555
O4 V0 1.923224 1_555
O5 V3 1.923224 1_555
O6 V1 1.923224 1_555
O7 V2 1.923224 1_555
O8 V0 1.923224 1_555
O9 V2 1.923224 1_555
O10 V3 1.923224 1_555
O11 V1 1.923224 1_555
O12 V0 1.923224 1_555
O13 V1 1.923224 1_555
O14 V2 1.923224 1_555
O15 V3 1.923224 1_555
O16 V0 1.923224 1_555
O17 V3 1.923224 1_555
O18 V1 1.923224 1_555
O19 V2 1.923224 1_555
O20 V0 1.923224 1_555
O21 V2 1.923224 1_555
O22 V3 1.923224 1_555
O23 V1 1.923224 1_555
