# generated using pymatgen
data_LuTlS2
_symmetry_space_group_name_H-M   'P 1'
_cell_length_a   3.91993292
_cell_length_b   3.91993295
_cell_length_c   7.83553529
_cell_angle_alpha   75.51431526
_cell_angle_beta   75.51431627
_cell_angle_gamma   60.00000860
_symmetry_Int_Tables_number   1
_chemical_formula_structural   LuTlS2
_chemical_formula_sum   'Lu1 Tl1 S2'
_cell_volume   99.82527512
_cell_formula_units_Z   1
loop_
 _symmetry_equiv_pos_site_id
 _symmetry_equiv_pos_as_xyz
  1  'x, y, z'
loop_
 _atom_site_type_symbol
 _atom_site_label
 _atom_site_symmetry_multiplicity
 _atom_site_fract_x
 _atom_site_fract_y
 _atom_site_fract_z
 _atom_site_occupancy
  Lu  Lu0  1  -0.00000000  -0.00000000  -0.00000000  1
  Tl  Tl0  1  0.50000000  0.50000000  0.50000000  1
  S  S0  1  0.73113450  0.73113450  0.80659751  1
  S  S1  1  0.26886550  0.26886550  0.19340249  1
loop_
_geom_bond_atom_site_label_1
_geom_bond_atom_site_label_2
_geom_bond_distance
_geom_bond_site_symmetry_2
Lu0 S0 2.688278 1_444
Lu0 S1 2.688278 1_555
Lu0 S0 2.688281 1_454
Lu0 S1 2.688281 1_545
Lu0 S0 2.688281 1_544
Lu0 S1 2.688281 1_455
S0 Tl0 3.226731 1_565
S0 Tl0 3.226731 1_655
S0 Tl0 3.226733 1_555
S1 Tl0 3.226731 1_545
S1 Tl0 3.226731 1_455
S1 Tl0 3.226733 1_555
