# generated using pymatgen
data_Ce2Se4O17
_symmetry_space_group_name_H-M   'P 1'
_cell_length_a   10.18678988
_cell_length_b   10.18678988
_cell_length_c   9.41200505
_cell_angle_alpha   67.48151555
_cell_angle_beta   67.48151555
_cell_angle_gamma   105.59607594
_symmetry_Int_Tables_number   1
_chemical_formula_structural   Ce2Se4O17
_chemical_formula_sum   'Ce4 Se8 O34'
_cell_volume   727.94540493
_cell_formula_units_Z   2
loop_
 _symmetry_equiv_pos_site_id
 _symmetry_equiv_pos_as_xyz
  1  'x, y, z'
loop_
 _atom_site_type_symbol
 _atom_site_label
 _atom_site_symmetry_multiplicity
 _atom_site_fract_x
 _atom_site_fract_y
 _atom_site_fract_z
 _atom_site_occupancy
  Ce  Ce0  1  0.48622600  0.21162400  0.96741700  1
  Ce  Ce1  1  0.21162400  0.48622600  0.46741700  1
  Ce  Ce2  1  0.88774300  0.80504800  0.96910600  1
  Ce  Ce3  1  0.80504800  0.88774300  0.46910600  1
  Se  Se0  1  0.12254400  0.79606600  0.17176600  1
  Se  Se1  1  0.79606600  0.12254400  0.67176600  1
  Se  Se2  1  0.50366200  0.59881200  0.98759500  1
  Se  Se3  1  0.59881200  0.50366200  0.48759500  1
  Se  Se4  1  0.09491300  0.19203600  0.95182400  1
  Se  Se5  1  0.19203600  0.09491300  0.45182400  1
  Se  Se6  1  0.57483600  0.90062000  0.26403200  1
  Se  Se7  1  0.90062000  0.57483600  0.76403200  1
  O  O0  1  0.09636900  0.62130700  0.31761700  1
  O  O1  1  0.62130700  0.09636900  0.81761700  1
  O  O2  1  0.97961400  0.83691800  0.27871900  1
  O  O3  1  0.83691800  0.97961400  0.77871900  1
  O  O4  1  0.09930900  0.77877300  0.01230700  1
  O  O5  1  0.77877300  0.09930900  0.51230700  1
  O  O6  1  0.30515800  0.95004000  0.07737500  1
  O  O7  1  0.95004000  0.30515800  0.57737500  1
  O  O8  1  0.56964800  0.75566400  0.78382300  1
  O  O9  1  0.75566400  0.56964800  0.28382300  1
  O  O10  1  0.63684300  0.63269800  0.04953300  1
  O  O11  1  0.63269800  0.63684300  0.54953300  1
  O  O12  1  0.47148900  0.43050300  0.98408200  1
  O  O13  1  0.43050300  0.47148900  0.48408200  1
  O  O14  1  0.33345400  0.57186000  0.14777600  1
  O  O15  1  0.57186000  0.33345400  0.64777600  1
  O  O16  1  0.93920000  0.12700500  0.15676900  1
  O  O17  1  0.12700500  0.93920000  0.65676900  1
  O  O18  1  0.11440600  0.35608700  0.78985400  1
  O  O19  1  0.35608700  0.11440600  0.28985400  1
  O  O20  1  0.06207000  0.05207400  0.89900800  1
  O  O21  1  0.05207400  0.06207000  0.39900800  1
  O  O22  1  0.26518900  0.23540200  0.95146400  1
  O  O23  1  0.23540200  0.26518900  0.45146400  1
  O  O24  1  0.60829500  0.07832300  0.11459800  1
  O  O25  1  0.07832300  0.60829500  0.61459800  1
  O  O26  1  0.58840600  0.90870500  0.43179500  1
  O  O27  1  0.90870500  0.58840600  0.93179500  1
  O  O28  1  0.39347300  0.75234600  0.34401400  1
  O  O29  1  0.75234600  0.39347300  0.84401400  1
  O  O30  1  0.71918100  0.85579200  0.16835000  1
  O  O31  1  0.85579200  0.71918100  0.66835000  1
  O  O32  1  0.00329500  0.41403400  0.16508000  1
  O  O33  1  0.41403400  0.00329500  0.66508000  1
loop_
_geom_bond_atom_site_label_1
_geom_bond_atom_site_label_2
_geom_bond_distance
_geom_bond_site_symmetry_2
Ce0 O6 2.314416 1_546
Ce0 O29 2.317237 1_555
Ce0 O12 2.334184 1_555
Ce0 O22 2.382341 1_555
Ce0 O19 2.420430 1_556
Ce0 O15 2.428964 1_555
Ce0 O1 2.431136 1_555
Ce0 O24 2.468947 1_556
Ce1 O7 2.314416 1_455
Ce1 O28 2.317237 1_555
Ce1 O13 2.334184 1_555
Ce1 O23 2.382341 1_555
Ce1 O18 2.420430 1_555
Ce1 O14 2.428964 1_555
Ce1 O0 2.431136 1_555
Ce1 O25 2.468947 1_555
Ce2 O10 2.296768 1_556
Ce2 O20 2.312832 1_665
Ce2 O3 2.325127 1_555
Ce2 O30 2.342152 1_556
Ce2 O4 2.404122 1_656
Ce2 O27 2.414299 1_555
Ce2 O17 2.468543 1_655
Ce2 O9 2.471124 1_556
Ce3 O11 2.296768 1_555
Ce3 O21 2.312832 1_665
Ce3 O2 2.325127 1_555
Ce3 O31 2.342152 1_555
Ce3 O5 2.404122 1_565
Ce3 O26 2.414299 1_555
Ce3 O16 2.468543 1_565
Ce3 O8 2.471124 1_555
O0 Se0 1.648422 1_555
O1 Se1 1.648422 1_555
O2 Se0 1.682400 1_655
O3 Se1 1.682400 1_565
O4 Se0 1.670846 1_555
O5 Se1 1.670846 1_555
O6 Se0 1.675663 1_555
O7 Se1 1.675663 1_555
O8 Se2 1.664621 1_555
O9 Se3 1.664621 1_555
O10 Se2 1.675624 1_554
O11 Se3 1.675624 1_555
O12 Se2 1.672629 1_555
O13 Se3 1.672629 1_555
O14 Se2 1.667140 1_554
O15 Se3 1.667140 1_555
O16 Se4 1.669825 1_654
O17 Se5 1.669825 1_565
O18 Se4 1.671673 1_555
O19 Se5 1.671673 1_555
O20 Se4 1.675000 1_555
O21 Se5 1.675000 1_555
O22 Se4 1.669194 1_555
O23 Se5 1.669194 1_555
O24 Se6 1.649888 1_545
O25 Se7 1.649888 1_455
O26 Se6 1.667263 1_555
O27 Se7 1.667263 1_555
O28 Se6 1.680677 1_555
O29 Se7 1.680677 1_555
O30 Se6 1.686244 1_555
O31 Se7 1.686244 1_555
