# generated using pymatgen
data_RbH4O3
_symmetry_space_group_name_H-M   'P 1'
_cell_length_a   8.83081394
_cell_length_b   8.82039660
_cell_length_c   7.49363709
_cell_angle_alpha   64.95061508
_cell_angle_beta   64.80638287
_cell_angle_gamma   50.24300205
_symmetry_Int_Tables_number   1
_chemical_formula_structural   RbH4O3
_chemical_formula_sum   'Rb4 H16 O12'
_cell_volume   396.33174110
_cell_formula_units_Z   4
loop_
 _symmetry_equiv_pos_site_id
 _symmetry_equiv_pos_as_xyz
  1  'x, y, z'
loop_
 _atom_site_type_symbol
 _atom_site_label
 _atom_site_symmetry_multiplicity
 _atom_site_fract_x
 _atom_site_fract_y
 _atom_site_fract_z
 _atom_site_occupancy
  Rb  Rb0  1  0.61620100  0.11660200  0.38530000  1
  Rb  Rb1  1  0.13339800  0.63379900  0.36810300  1
  Rb  Rb2  1  0.88189700  0.38530000  0.11660200  1
  Rb  Rb3  1  0.86470000  0.36810300  0.63379900  1
  H  H0  1  0.95953600  0.94447900  0.96408100  1
  H  H1  1  0.47813100  0.43763600  0.63011200  1
  H  H2  1  0.30552100  0.29046400  0.11809600  1
  H  H3  1  0.81236400  0.77186900  0.79587900  1
  H  H4  1  0.47923200  0.43281500  0.96090000  1
  H  H5  1  0.96355200  0.94531500  0.63477100  1
  H  H6  1  0.81718500  0.77076800  0.12294700  1
  H  H7  1  0.30468500  0.28644800  0.79363900  1
  H  H8  1  0.13190400  0.96408100  0.94447900  1
  H  H9  1  0.45412100  0.63011200  0.43763600  1
  H  H10  1  0.28591900  0.11809600  0.29046400  1
  H  H11  1  0.61988800  0.79587900  0.77186900  1
  H  H12  1  0.45636100  0.63477100  0.94531500  1
  H  H13  1  0.12705300  0.96090000  0.43281500  1
  H  H14  1  0.61522900  0.79363900  0.28644800  1
  H  H15  1  0.28910000  0.12294700  0.77076800  1
  O  O0  1  0.98646600  0.01353400  0.01353400  1
  O  O1  1  0.52065600  0.47934400  0.47934400  1
  O  O2  1  0.23646600  0.26353400  0.26353400  1
  O  O3  1  0.77065600  0.72934400  0.72934400  1
  O  O4  1  0.50910500  0.49145400  0.02172700  1
  O  O5  1  0.97771400  0.02172700  0.49145400  1
  O  O6  1  0.75854600  0.74089500  0.27228600  1
  O  O7  1  0.22827300  0.27228600  0.74089500  1
  O  O8  1  0.91584400  0.82613900  0.88179000  1
  O  O9  1  0.42386100  0.33415600  0.87377400  1
  O  O10  1  0.37622600  0.88179000  0.82613900  1
  O  O11  1  0.36821000  0.87377400  0.33415600  1
loop_
_geom_bond_atom_site_label_1
_geom_bond_atom_site_label_2
_geom_bond_distance
_geom_bond_site_symmetry_2
H0 O0 1.008128 1_566
H0 O8 1.697474 1_555
H1 O1 1.008140 1_555
H1 O9 1.673313 1_555
H1 Rb3 3.068942 1_555
H2 O2 1.008128 1_555
H2 O9 1.697469 1_554
H3 O3 1.008140 1_555
H3 O8 1.673308 1_555
H3 Rb2 3.068942 1_556
H4 O4 1.010646 1_556
H4 O9 1.649176 1_555
H4 Rb3 3.085011 1_555
H5 O5 1.001907 1_565
H5 O8 1.721552 1_555
H6 O6 1.010646 1_555
H6 O8 1.649182 1_554
H6 Rb2 3.085011 1_555
H7 O7 1.001913 1_555
H7 O9 1.721552 1_555
H8 O0 1.008128 1_466
H8 O10 1.697468 1_555
H9 O1 1.008140 1_555
H9 O11 1.673315 1_555
H9 Rb1 3.068942 1_555
H10 O2 1.008128 1_555
H10 O11 1.697466 1_545
H11 O3 1.008140 1_555
H11 O10 1.673316 1_555
H11 Rb0 3.068942 1_565
H12 O4 1.001907 1_556
H12 O10 1.721552 1_555
H13 O5 1.010646 1_465
H13 O11 1.649183 1_555
H13 Rb1 3.085011 1_555
H14 O6 1.001905 1_555
H14 O11 1.721552 1_555
H15 O7 1.010646 1_555
H15 O10 1.649184 1_545
H15 Rb0 3.085011 1_555
O0 Rb3 3.130840 1_554
O0 Rb1 3.130840 1_645
O0 Rb0 3.141064 1_555
O0 Rb2 3.141064 1_555
O1 Rb2 3.065247 1_555
O1 Rb0 3.065247 1_555
O1 Rb1 3.122841 1_555
O1 Rb3 3.122841 1_555
O2 Rb0 3.130840 1_555
O2 Rb2 3.130840 1_455
O2 Rb3 3.141064 1_455
O2 Rb1 3.141064 1_555
O3 Rb3 3.065247 1_555
O3 Rb1 3.065247 1_655
O3 Rb0 3.122841 1_565
O3 Rb2 3.122841 1_556
O4 Rb1 3.069406 1_555
O4 Rb2 3.115460 1_555
O4 Rb0 3.132923 1_555
O4 Rb3 3.167306 1_554
O5 Rb3 3.069406 1_555
O5 Rb0 3.115460 1_555
O5 Rb2 3.132923 1_555
O5 Rb1 3.167306 1_645
O6 Rb0 3.069406 1_565
O6 Rb3 3.115460 1_555
O6 Rb1 3.132923 1_655
O6 Rb2 3.167306 1_555
O7 Rb2 3.069406 1_456
O7 Rb1 3.115460 1_555
O7 Rb3 3.132923 1_455
O7 Rb0 3.167306 1_555
