# generated using pymatgen
data_Ag3Te32Au13
_symmetry_space_group_name_H-M   'P 1'
_cell_length_a   17.55271927
_cell_length_b   17.55271927
_cell_length_c   9.08914055
_cell_angle_alpha   89.93354110
_cell_angle_beta   89.93354110
_cell_angle_gamma   29.85692125
_symmetry_Int_Tables_number   1
_chemical_formula_structural   Ag3Te32Au13
_chemical_formula_sum   'Ag3 Te32 Au13'
_cell_volume   1394.11131435
_cell_formula_units_Z   1
loop_
 _symmetry_equiv_pos_site_id
 _symmetry_equiv_pos_as_xyz
  1  'x, y, z'
loop_
 _atom_site_type_symbol
 _atom_site_label
 _atom_site_symmetry_multiplicity
 _atom_site_fract_x
 _atom_site_fract_y
 _atom_site_fract_z
 _atom_site_occupancy
  Ag  Ag0  1  0.07331700  0.67638400  0.31671000  1
  Ag  Ag1  1  0.32361600  0.92668300  0.68329000  1
  Ag  Ag2  1  0.70012100  0.29987900  0.00000000  1
  Te  Te0  1  0.40552100  0.46740700  0.36917500  1
  Te  Te1  1  0.90200000  0.97180000  0.36756000  1
  Te  Te2  1  0.53259300  0.59447900  0.63082500  1
  Te  Te3  1  0.02820000  0.09800000  0.63244000  1
  Te  Te4  1  0.28286900  0.34449000  0.36924000  1
  Te  Te5  1  0.77812900  0.84850200  0.36757000  1
  Te  Te6  1  0.65551000  0.71713100  0.63076000  1
  Te  Te7  1  0.15149800  0.22187100  0.63243000  1
  Te  Te8  1  0.59879200  0.15163000  0.01887200  1
  Te  Te9  1  0.09937400  0.64981100  0.01101400  1
  Te  Te10  1  0.84837000  0.40120800  0.98112800  1
  Te  Te11  1  0.35018900  0.90062600  0.98898600  1
  Te  Te12  1  0.14209600  0.60749700  0.61432800  1
  Te  Te13  1  0.63854000  0.11150900  0.61318000  1
  Te  Te14  1  0.39250300  0.85790400  0.38567200  1
  Te  Te15  1  0.88849100  0.36146000  0.38682000  1
  Te  Te16  1  0.64934200  0.34550700  0.69829800  1
  Te  Te17  1  0.15198700  0.84300800  0.70202300  1
  Te  Te18  1  0.65449300  0.35065800  0.30170200  1
  Te  Te19  1  0.15699200  0.84801300  0.29797700  1
  Te  Te20  1  0.40694400  0.09764500  0.70236800  1
  Te  Te21  1  0.90696100  0.59840000  0.70231400  1
  Te  Te22  1  0.90235500  0.59305600  0.29763200  1
  Te  Te23  1  0.40160000  0.09303900  0.29768600  1
  Te  Te24  1  0.87230000  0.00655600  0.96123900  1
  Te  Te25  1  0.36761400  0.51166400  0.96125800  1
  Te  Te26  1  0.99344400  0.12770000  0.03876100  1
  Te  Te27  1  0.48833600  0.63238600  0.03874200  1
  Te  Te28  1  0.74223700  0.87882600  0.96231600  1
  Te  Te29  1  0.24166800  0.37856400  0.96227000  1
  Te  Te30  1  0.12117400  0.25776300  0.03768400  1
  Te  Te31  1  0.62143600  0.75833200  0.03773000  1
  Au  Au0  1  0.39041400  0.48361500  0.66591800  1
  Au  Au1  1  0.89030300  0.98389900  0.66517400  1
  Au  Au2  1  0.51638500  0.60958600  0.33408200  1
  Au  Au3  1  0.01610100  0.10969700  0.33482600  1
  Au  Au4  1  0.26714200  0.35803500  0.66657100  1
  Au  Au5  1  0.76641800  0.85968000  0.66578500  1
  Au  Au6  1  0.64196500  0.73285800  0.33342900  1
  Au  Au7  1  0.14032000  0.23358200  0.33421500  1
  Au  Au8  1  0.58318800  0.16687200  0.31786900  1
  Au  Au9  1  0.83312800  0.41681200  0.68213100  1
  Au  Au10  1  0.19173000  0.80827000  0.00000000  1
  Au  Au11  1  0.94335500  0.55726300  0.00014700  1
  Au  Au12  1  0.44273700  0.05664500  0.99985300  1
loop_
_geom_bond_atom_site_label_1
_geom_bond_atom_site_label_2
_geom_bond_distance
_geom_bond_site_symmetry_2
Ag0 Te12 2.775791 1_555
Ag0 Te9 2.788711 1_555
Ag0 Te5 3.005538 1_455
Ag0 Te1 3.016628 1_455
Ag0 Te4 3.244265 1_555
Ag0 Te0 3.253631 1_555
Ag1 Te14 2.775791 1_555
Ag1 Te11 2.788711 1_555
Ag1 Te7 3.005538 1_565
Ag1 Te3 3.016628 1_565
Ag1 Te6 3.244265 1_555
Ag1 Te2 3.253631 1_555
Ag2 Te18 2.778124 1_555
Ag2 Te16 2.778124 1_554
Ag2 Te26 2.962774 1_555
Ag2 Te24 2.962774 1_554
Ag2 Te25 3.221074 1_554
Ag2 Te27 3.221074 1_555
Te0 Te18 2.852467 1_555
Te1 Te19 2.877850 1_655
Te10 Te26 2.932412 1_556
Te11 Te27 2.906402 1_556
Te11 Te31 2.911812 1_556
Te16 Te2 2.852467 1_555
Te17 Te3 2.877850 1_565
Te20 Te7 2.882338 1_555
Te21 Te6 2.880149 1_555
Te22 Te5 2.882338 1_555
Te23 Te4 2.880149 1_555
Te24 Te8 2.932412 1_556
Te25 Te9 2.906402 1_556
Te29 Te9 2.911812 1_556
Au0 Te25 2.695793 1_555
Au0 Te0 2.700940 1_555
Au0 Te12 2.740233 1_555
Au0 Te16 2.740477 1_555
Au0 Te17 3.409673 1_555
Au1 Te24 2.698499 1_565
Au1 Te1 2.707211 1_555
Au1 Te13 2.757234 1_565
Au1 Te17 2.761278 1_655
Au1 Te16 3.420976 1_565
Au2 Te27 2.695793 1_555
Au2 Te2 2.700940 1_555
Au2 Te14 2.740233 1_555
Au2 Te18 2.740477 1_555
Au2 Te19 3.409673 1_555
Au3 Te26 2.698499 1_455
Au3 Te3 2.707211 1_555
Au3 Te15 2.757234 1_455
Au3 Te19 2.761278 1_545
Au3 Te18 3.420976 1_455
Au4 Te29 2.696892 1_555
Au4 Te4 2.705931 1_555
Au4 Te12 2.746544 1_555
Au4 Te20 2.749864 1_555
Au4 Te21 3.407002 1_455
Au5 Te28 2.703570 1_555
Au5 Te5 2.712498 1_555
Au5 Te13 2.755646 1_565
Au5 Te21 2.757386 1_555
Au5 Te20 3.413802 1_565
Au6 Te31 2.696892 1_555
Au6 Te6 2.705931 1_555
Au6 Te14 2.746544 1_555
Au6 Te22 2.749864 1_555
Au6 Te23 3.407002 1_565
Au7 Te30 2.703570 1_555
Au7 Te7 2.712498 1_555
Au7 Te15 2.755646 1_455
Au7 Te23 2.757386 1_555
Au7 Te22 3.413802 1_455
Au8 Te8 2.721202 1_555
Au8 Te13 2.730412 1_555
Au8 Te4 3.035941 1_555
Au8 Te0 3.039413 1_555
Au8 Te5 3.157777 1_545
Au8 Te1 3.163884 1_545
Au9 Te10 2.721202 1_555
Au9 Te15 2.730412 1_555
Au9 Te6 3.035941 1_555
Au9 Te2 3.039413 1_555
Au9 Te7 3.157777 1_655
Au9 Te3 3.163884 1_655
Au10 Te19 2.730635 1_555
Au10 Te17 2.730635 1_554
Au10 Te27 2.980363 1_555
Au10 Te25 2.980363 1_554
Au10 Te26 3.134919 1_465
Au10 Te24 3.134919 1_464
Au11 Te22 2.727414 1_555
Au11 Te21 2.730742 1_554
Au11 Te29 2.980750 1_654
Au11 Te30 3.005362 1_655
Au11 Te28 3.142523 1_554
Au11 Te31 3.147791 1_555
Au12 Te20 2.727414 1_555
Au12 Te23 2.730742 1_556
Au12 Te31 2.980750 1_546
Au12 Te28 3.005362 1_545
Au12 Te30 3.142523 1_556
Au12 Te29 3.147791 1_555
