# generated using pymatgen
data_HoMg5
_symmetry_space_group_name_H-M   'P 1'
_cell_length_a   12.33780192
_cell_length_b   12.33780192
_cell_length_c   14.10392070
_cell_angle_alpha   72.89747228
_cell_angle_beta   72.89747228
_cell_angle_gamma   34.58158888
_symmetry_Int_Tables_number   1
_chemical_formula_structural   HoMg5
_chemical_formula_sum   'Ho8 Mg40'
_cell_volume   1159.30743284
_cell_formula_units_Z   8
loop_
 _symmetry_equiv_pos_site_id
 _symmetry_equiv_pos_as_xyz
  1  'x, y, z'
loop_
 _atom_site_type_symbol
 _atom_site_label
 _atom_site_symmetry_multiplicity
 _atom_site_fract_x
 _atom_site_fract_y
 _atom_site_fract_z
 _atom_site_occupancy
  Ho  Ho0_0  1  0.25000000  0.25000000  0.25000000  1
  Ho  Ho0_1  1  0.25000000  0.25000000  0.75000000  1
  Ho  Ho0_2  1  0.25000000  0.75000000  0.25000000  1
  Ho  Ho0_3  1  0.25000000  0.75000000  0.75000000  1
  Ho  Ho0_4  1  0.75000000  0.25000000  0.25000000  1
  Ho  Ho0_5  1  0.75000000  0.25000000  0.75000000  1
  Ho  Ho0_6  1  0.75000000  0.75000000  0.25000000  1
  Ho  Ho0_7  1  0.75000000  0.75000000  0.75000000  1
  Mg  Mg0_0  1  0.08757027  0.08757027  0.33576136  1
  Mg  Mg0_1  1  0.08757027  0.08757027  0.83576136  1
  Mg  Mg0_2  1  0.08757027  0.58757027  0.33576136  1
  Mg  Mg0_3  1  0.08757027  0.58757027  0.83576136  1
  Mg  Mg0_4  1  0.58757027  0.08757027  0.33576136  1
  Mg  Mg0_5  1  0.58757027  0.08757027  0.83576136  1
  Mg  Mg0_6  1  0.58757027  0.58757027  0.33576136  1
  Mg  Mg0_7  1  0.58757027  0.58757027  0.83576136  1
  Mg  Mg1_0  1  0.41384393  0.41384393  0.42282999  1
  Mg  Mg1_1  1  0.41384392  0.41384392  0.92282999  1
  Mg  Mg1_2  1  0.41384393  0.91384393  0.42282999  1
  Mg  Mg1_3  1  0.41384393  0.91384393  0.92282999  1
  Mg  Mg1_4  1  0.91384393  0.41384393  0.42282999  1
  Mg  Mg1_5  1  0.91384393  0.41384393  0.92282999  1
  Mg  Mg1_6  1  0.91384393  0.91384392  0.42282999  1
  Mg  Mg1_7  1  0.91384392  0.91384392  0.92282999  1
  Mg  Mg2_0  1  0.25000000  0.25000000  0.00000000  1
  Mg  Mg2_1  1  0.25000000  0.25000000  0.50000000  1
  Mg  Mg2_2  1  0.25000000  0.75000000  0.00000000  1
  Mg  Mg2_3  1  0.25000000  0.75000000  0.50000000  1
  Mg  Mg2_4  1  0.75000000  0.25000000  0.00000000  1
  Mg  Mg2_5  1  0.75000000  0.25000000  0.50000000  1
  Mg  Mg2_6  1  0.75000000  0.75000000  0.00000000  1
  Mg  Mg2_7  1  0.75000000  0.75000000  0.50000000  1
  Mg  Mg3_0  1  0.08615607  0.08615608  0.07717001  1
  Mg  Mg3_1  1  0.08615608  0.08615608  0.57717001  1
  Mg  Mg3_2  1  0.08615608  0.58615607  0.07717002  1
  Mg  Mg3_3  1  0.08615608  0.58615607  0.57717001  1
  Mg  Mg3_4  1  0.58615607  0.08615608  0.07717002  1
  Mg  Mg3_5  1  0.58615607  0.08615608  0.57717001  1
  Mg  Mg3_6  1  0.58615607  0.58615607  0.07717002  1
  Mg  Mg3_7  1  0.58615607  0.58615607  0.57717001  1
  Mg  Mg4_0  1  0.41242973  0.41242973  0.16423864  1
  Mg  Mg4_1  1  0.41242973  0.41242973  0.66423864  1
  Mg  Mg4_2  1  0.41242973  0.91242973  0.16423864  1
  Mg  Mg4_3  1  0.41242973  0.91242973  0.66423864  1
  Mg  Mg4_4  1  0.91242973  0.41242973  0.16423864  1
  Mg  Mg4_5  1  0.91242973  0.41242973  0.66423864  1
  Mg  Mg4_6  1  0.91242973  0.91242973  0.16423864  1
  Mg  Mg4_7  1  0.91242973  0.91242973  0.66423864  1
loop_
_geom_bond_atom_site_label_1
_geom_bond_atom_site_label_2
_geom_bond_distance
_geom_bond_site_symmetry_2
Ho0_0 Mg1_2 3.221189 1_545
Ho0_0 Mg1_4 3.221189 1_455
Ho0_0 Mg3_4 3.221189 1_555
Ho0_0 Mg3_2 3.221189 1_555
Ho0_0 Mg4_4 3.258675 1_455
Ho0_0 Mg4_2 3.258675 1_545
Ho0_0 Mg0_4 3.258675 1_555
Ho0_0 Mg0_2 3.258675 1_555
Ho0_0 Mg2_1 3.525980 1_555
Ho0_0 Mg2_0 3.525980 1_555
Ho0_0 Mg0_0 3.641010 1_555
Ho0_0 Mg4_0 3.641010 1_555
Ho0_0 Ho0_6 3.667060 1_545
Ho0_0 Ho0_6 3.667060 1_455
Ho0_1 Mg3_3 3.221189 1_555
Ho0_1 Mg1_3 3.221189 1_545
Ho0_1 Mg1_5 3.221189 1_455
Ho0_1 Mg3_5 3.221189 1_555
Ho0_1 Mg4_5 3.258675 1_455
Ho0_1 Mg4_3 3.258675 1_545
Ho0_1 Mg0_5 3.258675 1_555
Ho0_1 Mg0_3 3.258675 1_555
Ho0_1 Mg2_0 3.525980 1_556
Ho0_1 Mg2_1 3.525980 1_555
Ho0_1 Mg0_1 3.641010 1_555
Ho0_1 Mg4_1 3.641010 1_555
Ho0_1 Ho0_7 3.667060 1_455
Ho0_1 Ho0_7 3.667060 1_545
Ho0_2 Mg1_6 3.221189 1_455
Ho0_2 Mg3_6 3.221189 1_555
Ho0_2 Mg1_0 3.221189 1_555
Ho0_2 Mg3_0 3.221189 1_565
Ho0_2 Mg4_6 3.258675 1_455
Ho0_2 Mg4_0 3.258675 1_555
Ho0_2 Mg0_0 3.258675 1_565
Ho0_2 Mg0_6 3.258675 1_555
Ho0_2 Mg2_3 3.525980 1_555
Ho0_2 Mg2_2 3.525980 1_555
Ho0_2 Mg0_2 3.641010 1_555
Ho0_2 Mg4_2 3.641010 1_555
Ho0_2 Ho0_4 3.667060 1_555
Ho0_2 Ho0_4 3.667060 1_465
Ho0_3 Mg3_7 3.221189 1_555
Ho0_3 Mg3_1 3.221189 1_565
Ho0_3 Mg1_1 3.221189 1_555
Ho0_3 Mg1_7 3.221189 1_455
Ho0_3 Mg4_7 3.258675 1_455
Ho0_3 Mg4_1 3.258675 1_555
Ho0_3 Mg0_1 3.258675 1_565
Ho0_3 Mg0_7 3.258675 1_555
Ho0_3 Mg2_2 3.525980 1_556
Ho0_3 Mg2_3 3.525980 1_555
Ho0_3 Mg0_3 3.641010 1_555
Ho0_3 Mg4_3 3.641010 1_555
Ho0_3 Ho0_5 3.667060 1_555
Ho0_3 Ho0_5 3.667060 1_465
Ho0_4 Mg3_0 3.221189 1_655
Ho0_4 Mg3_6 3.221189 1_555
Ho0_4 Mg1_0 3.221189 1_555
Ho0_4 Mg1_6 3.221189 1_545
Ho0_4 Mg4_6 3.258675 1_545
Ho0_4 Mg4_0 3.258675 1_555
Ho0_4 Mg0_0 3.258675 1_655
Ho0_4 Mg0_6 3.258675 1_555
Ho0_4 Mg2_4 3.525980 1_555
Ho0_4 Mg2_5 3.525980 1_555
Ho0_4 Mg0_4 3.641010 1_555
Ho0_4 Mg4_4 3.641010 1_555
Ho0_5 Mg3_7 3.221189 1_555
Ho0_5 Mg3_1 3.221189 1_655
Ho0_5 Mg1_1 3.221189 1_555
Ho0_5 Mg1_7 3.221189 1_545
Ho0_5 Mg4_7 3.258675 1_545
Ho0_5 Mg4_1 3.258675 1_555
Ho0_5 Mg0_1 3.258675 1_655
Ho0_5 Mg0_7 3.258675 1_555
Ho0_5 Mg2_4 3.525980 1_556
Ho0_5 Mg2_5 3.525980 1_555
Ho0_5 Mg0_5 3.641010 1_555
Ho0_5 Mg4_5 3.641010 1_555
Ho0_6 Mg1_2 3.221189 1_555
Ho0_6 Mg1_4 3.221189 1_555
Ho0_6 Mg3_2 3.221189 1_655
Ho0_6 Mg3_4 3.221189 1_565
Ho0_6 Mg4_4 3.258675 1_555
Ho0_6 Mg4_2 3.258675 1_555
Ho0_6 Mg0_2 3.258675 1_655
Ho0_6 Mg0_4 3.258675 1_565
Ho0_6 Mg2_7 3.525980 1_555
Ho0_6 Mg2_6 3.525980 1_555
Ho0_6 Mg0_6 3.641010 1_555
Ho0_6 Mg4_6 3.641010 1_555
Ho0_7 Mg1_3 3.221189 1_555
Ho0_7 Mg1_5 3.221189 1_555
Ho0_7 Mg3_3 3.221189 1_655
Ho0_7 Mg3_5 3.221189 1_565
Ho0_7 Mg4_5 3.258675 1_555
Ho0_7 Mg4_3 3.258675 1_555
Ho0_7 Mg0_3 3.258675 1_655
Ho0_7 Mg0_5 3.258675 1_565
Ho0_7 Mg2_6 3.525980 1_556
Ho0_7 Mg2_7 3.525980 1_555
Ho0_7 Mg0_7 3.641010 1_555
Ho0_7 Mg4_7 3.641010 1_555
Mg0_0 Mg1_2 3.075482 1_545
Mg0_0 Mg1_4 3.075482 1_455
Mg0_0 Mg4_4 3.113921 1_455
Mg0_0 Mg4_2 3.113921 1_545
Mg0_0 Mg2_5 3.168652 1_455
Mg0_0 Mg2_3 3.168652 1_545
Mg0_0 Mg3_1 3.394694 1_555
Mg0_1 Mg1_3 3.075482 1_545
Mg0_1 Mg1_5 3.075482 1_455
Mg0_1 Mg4_5 3.113921 1_455
Mg0_1 Mg4_3 3.113921 1_545
Mg0_1 Mg2_4 3.168652 1_456
Mg0_1 Mg2_2 3.168652 1_546
Mg0_1 Mg3_0 3.394694 1_556
Mg0_2 Mg1_6 3.075482 1_455
Mg0_2 Mg1_0 3.075482 1_555
Mg0_2 Mg4_0 3.113921 1_555
Mg0_2 Mg4_6 3.113921 1_455
Mg0_2 Mg2_1 3.168652 1_555
Mg0_2 Mg2_7 3.168652 1_455
Mg0_2 Mg3_3 3.394694 1_555
Mg0_3 Mg1_1 3.075482 1_555
Mg0_3 Mg1_7 3.075482 1_455
Mg0_3 Mg4_1 3.113921 1_555
Mg0_3 Mg4_7 3.113921 1_455
Mg0_3 Mg2_0 3.168652 1_556
Mg0_3 Mg2_6 3.168652 1_456
Mg0_3 Mg3_2 3.394694 1_556
Mg0_4 Mg1_6 3.075482 1_545
Mg0_4 Mg1_0 3.075482 1_555
Mg0_4 Mg4_0 3.113921 1_555
Mg0_4 Mg4_6 3.113921 1_545
Mg0_4 Mg2_1 3.168652 1_555
Mg0_4 Mg2_7 3.168652 1_545
Mg0_4 Mg3_5 3.394694 1_555
Mg0_5 Mg1_1 3.075482 1_555
Mg0_5 Mg1_7 3.075482 1_545
Mg0_5 Mg4_1 3.113921 1_555
Mg0_5 Mg4_7 3.113921 1_545
Mg0_5 Mg2_0 3.168652 1_556
Mg0_5 Mg2_6 3.168652 1_546
Mg0_5 Mg3_4 3.394694 1_556
Mg0_6 Mg1_4 3.075482 1_555
Mg0_6 Mg1_2 3.075482 1_555
Mg0_6 Mg4_4 3.113921 1_555
Mg0_6 Mg4_2 3.113921 1_555
Mg0_6 Mg2_5 3.168652 1_555
Mg0_6 Mg2_3 3.168652 1_555
Mg0_6 Mg3_7 3.394694 1_555
Mg0_7 Mg1_3 3.075482 1_555
Mg0_7 Mg1_5 3.075482 1_555
Mg0_7 Mg4_3 3.113921 1_555
Mg0_7 Mg4_5 3.113921 1_555
Mg0_7 Mg2_2 3.168652 1_556
Mg0_7 Mg2_4 3.168652 1_556
Mg0_7 Mg3_6 3.394694 1_556
Mg1_0 Mg3_3 2.999359 1_555
Mg1_0 Mg3_5 2.999359 1_555
Mg1_0 Mg2_5 3.166670 1_555
Mg1_0 Mg2_3 3.166670 1_555
Mg1_0 Mg4_1 3.394694 1_555
Mg1_1 Mg3_2 2.999359 1_556
Mg1_1 Mg3_4 2.999359 1_556
Mg1_1 Mg2_4 3.166670 1_556
Mg1_1 Mg2_2 3.166670 1_556
Mg1_1 Mg4_0 3.394694 1_556
Mg1_2 Mg3_1 2.999359 1_565
Mg1_2 Mg3_7 2.999359 1_555
Mg1_2 Mg2_7 3.166670 1_555
Mg1_2 Mg2_1 3.166670 1_565
Mg1_2 Mg4_3 3.394694 1_555
Mg1_3 Mg3_0 2.999359 1_566
Mg1_3 Mg3_6 2.999359 1_556
Mg1_3 Mg2_6 3.166670 1_556
Mg1_3 Mg2_0 3.166670 1_566
Mg1_3 Mg4_2 3.394694 1_556
Mg1_4 Mg3_1 2.999359 1_655
Mg1_4 Mg3_7 2.999359 1_555
Mg1_4 Mg2_7 3.166670 1_555
Mg1_4 Mg2_1 3.166670 1_655
Mg1_4 Mg4_5 3.394694 1_555
Mg1_5 Mg3_0 2.999359 1_656
Mg1_5 Mg3_6 2.999359 1_556
Mg1_5 Mg2_6 3.166670 1_556
Mg1_5 Mg2_0 3.166670 1_656
Mg1_5 Mg4_4 3.394694 1_556
Mg1_6 Mg3_3 2.999359 1_655
Mg1_6 Mg3_5 2.999359 1_565
Mg1_6 Mg2_3 3.166670 1_655
Mg1_6 Mg2_5 3.166670 1_565
Mg1_6 Mg4_7 3.394694 1_555
Mg1_7 Mg3_4 2.999359 1_566
Mg1_7 Mg3_2 2.999359 1_656
Mg1_7 Mg2_2 3.166670 1_656
Mg1_7 Mg2_4 3.166670 1_566
Mg1_7 Mg4_6 3.394694 1_556
Mg2_0 Mg3_4 3.166670 1_555
Mg2_0 Mg3_2 3.166670 1_555
Mg2_0 Mg4_4 3.168652 1_455
Mg2_0 Mg4_2 3.168652 1_545
Mg2_1 Mg3_3 3.166670 1_555
Mg2_1 Mg3_5 3.166670 1_555
Mg2_1 Mg4_5 3.168652 1_455
Mg2_1 Mg4_3 3.168652 1_545
Mg2_2 Mg3_6 3.166670 1_555
Mg2_2 Mg3_0 3.166670 1_565
Mg2_2 Mg4_0 3.168652 1_555
Mg2_2 Mg4_6 3.168652 1_455
Mg2_3 Mg3_7 3.166670 1_555
Mg2_3 Mg3_1 3.166670 1_565
Mg2_3 Mg4_7 3.168652 1_455
Mg2_3 Mg4_1 3.168652 1_555
Mg2_4 Mg3_0 3.166670 1_655
Mg2_4 Mg3_6 3.166670 1_555
Mg2_4 Mg4_0 3.168652 1_555
Mg2_4 Mg4_6 3.168652 1_545
Mg2_5 Mg3_7 3.166670 1_555
Mg2_5 Mg3_1 3.166670 1_655
Mg2_5 Mg4_7 3.168652 1_545
Mg2_5 Mg4_1 3.168652 1_555
Mg2_6 Mg3_2 3.166670 1_655
Mg2_6 Mg3_4 3.166670 1_565
Mg2_6 Mg4_4 3.168652 1_555
Mg2_6 Mg4_2 3.168652 1_555
Mg2_7 Mg3_3 3.166670 1_655
Mg2_7 Mg3_5 3.166670 1_565
Mg2_7 Mg4_3 3.168652 1_555
Mg2_7 Mg4_5 3.168652 1_555
Mg3_0 Mg4_4 3.075482 1_455
Mg3_0 Mg4_2 3.075482 1_545
Mg3_1 Mg4_3 3.075482 1_545
Mg3_1 Mg4_5 3.075482 1_455
Mg3_2 Mg4_0 3.075482 1_555
Mg3_2 Mg4_6 3.075482 1_455
Mg3_3 Mg4_1 3.075482 1_555
Mg3_3 Mg4_7 3.075482 1_455
Mg3_4 Mg4_0 3.075482 1_555
Mg3_4 Mg4_6 3.075482 1_545
Mg3_5 Mg4_1 3.075482 1_555
Mg3_5 Mg4_7 3.075482 1_545
Mg3_6 Mg4_2 3.075482 1_555
Mg3_6 Mg4_4 3.075482 1_555
Mg3_7 Mg4_3 3.075482 1_555
Mg3_7 Mg4_5 3.075482 1_555
