# generated using pymatgen
data_Mg14CrW
_symmetry_space_group_name_H-M   'P 1'
_cell_length_a   6.27825011
_cell_length_b   6.13924041
_cell_length_c   9.99954491
_cell_angle_alpha   90.00000000
_cell_angle_beta   90.00000000
_cell_angle_gamma   119.27023461
_symmetry_Int_Tables_number   1
_chemical_formula_structural   Mg14CrW
_chemical_formula_sum   'Mg14 Cr1 W1'
_cell_volume   336.21029378
_cell_formula_units_Z   1
loop_
 _symmetry_equiv_pos_site_id
 _symmetry_equiv_pos_as_xyz
  1  'x, y, z'
loop_
 _atom_site_type_symbol
 _atom_site_label
 _atom_site_symmetry_multiplicity
 _atom_site_fract_x
 _atom_site_fract_y
 _atom_site_fract_z
 _atom_site_occupancy
  Mg  Mg0  1  0.16845454  0.33422677  0.62500000  1
  Mg  Mg1  1  0.16641513  0.83320707  0.62500000  1
  Mg  Mg2  1  0.66490706  0.33286803  0.12500000  1
  Mg  Mg3  1  0.66415338  0.33265182  0.62500000  1
  Mg  Mg4  1  0.66490706  0.83203803  0.12500000  1
  Mg  Mg5  1  0.66415338  0.83150056  0.62500000  1
  Mg  Mg6  1  0.32791160  0.16015889  0.36190097  1
  Mg  Mg7  1  0.32791160  0.16015889  0.88809903  1
  Mg  Mg8  1  0.32791160  0.66775371  0.36190097  1
  Mg  Mg9  1  0.32791160  0.66775371  0.88809903  1
  Mg  Mg10  1  0.84273712  0.17136906  0.37160907  1
  Mg  Mg11  1  0.84273712  0.17136906  0.87839093  1
  Mg  Mg12  1  0.84535986  0.67268043  0.36778358  1
  Mg  Mg13  1  0.84535986  0.67268043  0.88221642  1
  Cr  Cr0  1  0.16397686  0.33198793  0.12500000  1
  W  W0  1  0.15519223  0.82759561  0.12500000  1
loop_
_geom_bond_atom_site_label_1
_geom_bond_atom_site_label_2
_geom_bond_distance
_geom_bond_site_symmetry_2
Mg0 Mg1 3.069640 1_545
Mg0 Mg1 3.069641 1_555
Mg0 Mg10 3.098744 1_455
Mg0 Mg11 3.098744 1_455
Mg0 Mg5 3.116860 1_555
Mg0 Mg3 3.116860 1_555
Mg0 Mg5 3.161412 1_445
Mg0 Mg3 3.161413 1_455
Mg0 Mg6 3.179913 1_555
Mg0 Mg7 3.179913 1_555
Mg0 Mg8 3.179919 1_555
Mg0 Mg9 3.179919 1_555
Mg1 Mg12 3.115620 1_455
Mg1 Mg13 3.115620 1_455
Mg1 Mg3 3.130061 1_565
Mg1 Mg5 3.130061 1_555
Mg1 Mg3 3.148216 1_455
Mg1 Mg5 3.148216 1_455
Mg1 Mg9 3.160436 1_555
Mg1 Mg8 3.160436 1_555
Mg1 Mg7 3.160442 1_565
Mg1 Mg6 3.160442 1_565
Mg2 Mg7 3.003106 1_554
Mg2 Mg6 3.003106 1_555
Mg2 Mg4 3.064525 1_555
Mg2 Mg4 3.074716 1_545
Mg2 W0 3.091559 1_655
Mg2 W0 3.186871 1_545
Mg3 Mg5 3.062552 1_555
Mg3 Mg5 3.076688 1_545
Mg3 Mg7 3.211427 1_555
Mg3 Mg6 3.211427 1_555
Mg4 Mg8 3.003106 1_555
Mg4 Mg9 3.003106 1_554
Mg4 W0 3.091559 1_655
Mg4 W0 3.186871 1_555
Mg5 Mg8 3.211427 1_555
Mg5 Mg9 3.211427 1_555
Mg6 W0 2.964981 1_545
Mg7 W0 2.964981 1_546
Mg8 W0 2.964975 1_555
Mg9 W0 2.964975 1_556
Mg10 Mg2 3.064802 1_555
Mg10 Mg4 3.064808 1_545
Mg10 Mg12 3.069892 1_555
Mg10 Mg12 3.069892 1_545
Mg10 Mg8 3.081810 1_655
Mg10 Mg6 3.081810 1_655
Mg10 Mg3 3.121404 1_555
Mg10 Mg5 3.121410 1_545
Mg10 Mg8 3.200590 1_545
Mg10 Mg6 3.200590 1_555
Mg11 Mg2 3.064802 1_556
Mg11 Mg4 3.064808 1_546
Mg11 Mg13 3.069892 1_555
Mg11 Mg13 3.069892 1_545
Mg11 Mg9 3.081810 1_655
Mg11 Mg7 3.081810 1_655
Mg11 Mg3 3.121404 1_555
Mg11 Mg5 3.121410 1_545
Mg11 Mg9 3.200590 1_545
Mg11 Mg7 3.200590 1_555
Mg12 W0 2.961949 1_655
Mg12 Mg4 3.036175 1_555
Mg12 Mg2 3.036181 1_555
Mg12 Mg5 3.153583 1_555
Mg12 Mg3 3.153589 1_555
Mg13 W0 2.961949 1_656
Mg13 Mg4 3.036175 1_556
Mg13 Mg2 3.036181 1_556
Mg13 Mg5 3.153583 1_555
Mg13 Mg3 3.153589 1_555
Cr0 Mg7 2.974138 1_554
Cr0 Mg6 2.974138 1_555
Cr0 Mg9 2.974145 1_554
Cr0 Mg8 2.974145 1_555
Cr0 Mg11 3.029235 1_454
Cr0 Mg10 3.029235 1_455
Cr0 W0 3.069997 1_555
Cr0 W0 3.069997 1_545
Cr0 Mg4 3.135930 1_445
Cr0 Mg2 3.135930 1_455
Cr0 Mg4 3.142327 1_555
Cr0 Mg2 3.142327 1_555
