# generated using pymatgen
data_Ce4Ni3Pt
_symmetry_space_group_name_H-M   'P 1'
_cell_length_a   3.70712700
_cell_length_b   4.29140800
_cell_length_c   10.64547700
_cell_angle_alpha   90.00000000
_cell_angle_beta   90.00000000
_cell_angle_gamma   90.00000000
_symmetry_Int_Tables_number   1
_chemical_formula_structural   Ce4Ni3Pt
_chemical_formula_sum   'Ce4 Ni3 Pt1'
_cell_volume   169.35670557
_cell_formula_units_Z   1
loop_
 _symmetry_equiv_pos_site_id
 _symmetry_equiv_pos_as_xyz
  1  'x, y, z'
loop_
 _atom_site_type_symbol
 _atom_site_label
 _atom_site_symmetry_multiplicity
 _atom_site_fract_x
 _atom_site_fract_y
 _atom_site_fract_z
 _atom_site_occupancy
  Ce  Ce0  1  0.50000000  0.50000000  0.37409100  1
  Ce  Ce1  1  0.00000000  0.50000000  0.85535700  1
  Ce  Ce2  1  0.00000000  0.00000000  0.13754900  1
  Ce  Ce3  1  0.50000000  0.00000000  0.63771200  1
  Ni  Ni0  1  0.00000000  0.50000000  0.57941800  1
  Ni  Ni1  1  0.00000000  0.00000000  0.42065600  1
  Ni  Ni2  1  0.50000000  0.00000000  0.90817500  1
  Pt  Pt0  1  0.50000000  0.50000000  0.08704200  1
loop_
_geom_bond_atom_site_label_1
_geom_bond_atom_site_label_2
_geom_bond_distance
_geom_bond_site_symmetry_2
Ce0 Ni0 2.865909 1_555
Ce0 Ni0 2.865909 1_655
Ce0 Ni1 2.878449 1_555
Ce0 Ni1 2.878449 1_665
Ce0 Ni1 2.878449 1_655
Ce0 Ni1 2.878449 1_565
Ce0 Pt0 3.055774 1_555
Ce1 Ni2 2.890656 1_465
Ce1 Ni2 2.890656 1_455
Ce1 Ni2 2.890656 1_555
Ce1 Ni2 2.890656 1_565
Ce1 Ni0 2.937502 1_555
Ce1 Pt0 3.085257 1_556
Ce1 Pt0 3.085257 1_456
Ce2 Pt0 2.885972 1_455
Ce2 Pt0 2.885972 1_555
Ce2 Pt0 2.885972 1_545
Ce2 Pt0 2.885972 1_445
Ce2 Ni1 3.013809 1_555
Ce2 Ni2 3.065626 1_554
Ce2 Ni2 3.065626 1_454
Ce3 Ni2 2.879208 1_555
Ce3 Ni0 2.902559 1_545
Ce3 Ni0 2.902559 1_655
Ce3 Ni0 2.902559 1_645
Ce3 Ni0 2.902559 1_555
Ce3 Ni1 2.962241 1_555
Ce3 Ni1 2.962241 1_655
Ni0 Ni1 2.731387 1_565
Ni0 Ni1 2.731387 1_555
Ni2 Pt0 2.868752 1_546
Ni2 Pt0 2.868752 1_556
