# generated using pymatgen
data_Mn3Ni4Sb
_symmetry_space_group_name_H-M   'P 1'
_cell_length_a   4.37906100
_cell_length_b   5.73785200
_cell_length_c   8.60119600
_cell_angle_alpha   90.00000000
_cell_angle_beta   90.00000000
_cell_angle_gamma   90.00000000
_symmetry_Int_Tables_number   1
_chemical_formula_structural   Mn3Ni4Sb
_chemical_formula_sum   'Mn6 Ni8 Sb2'
_cell_volume   216.11712487
_cell_formula_units_Z   2
loop_
 _symmetry_equiv_pos_site_id
 _symmetry_equiv_pos_as_xyz
  1  'x, y, z'
loop_
 _atom_site_type_symbol
 _atom_site_label
 _atom_site_symmetry_multiplicity
 _atom_site_fract_x
 _atom_site_fract_y
 _atom_site_fract_z
 _atom_site_occupancy
  Mn  Mn0  1  0.00000000  0.00000000  0.00000000  1
  Mn  Mn1  1  0.00000000  0.00000000  0.50000000  1
  Mn  Mn2  1  0.58721600  0.00000000  0.75000000  1
  Mn  Mn3  1  0.41278400  0.00000000  0.25000000  1
  Mn  Mn4  1  0.58093000  0.50000000  0.75000000  1
  Mn  Mn5  1  0.41907000  0.50000000  0.25000000  1
  Ni  Ni0  1  0.50000000  0.76084000  0.00000000  1
  Ni  Ni1  1  0.50000000  0.76084000  0.50000000  1
  Ni  Ni2  1  0.50000000  0.23916000  0.00000000  1
  Ni  Ni3  1  0.50000000  0.23916000  0.50000000  1
  Ni  Ni4  1  0.10686200  0.75985800  0.75000000  1
  Ni  Ni5  1  0.89313800  0.75985800  0.25000000  1
  Ni  Ni6  1  0.89313800  0.24014200  0.25000000  1
  Ni  Ni7  1  0.10686200  0.24014200  0.75000000  1
  Sb  Sb0  1  0.00000000  0.50000000  0.00000000  1
  Sb  Sb1  1  0.00000000  0.50000000  0.50000000  1
loop_
_geom_bond_atom_site_label_1
_geom_bond_atom_site_label_2
_geom_bond_distance
_geom_bond_site_symmetry_2
Mn0 Ni0 2.584019 1_545
Mn0 Ni0 2.584019 1_445
Mn0 Ni2 2.584019 1_455
Mn0 Ni2 2.584019 1_555
Mn0 Ni6 2.596416 1_455
Mn0 Ni7 2.596416 1_554
Mn0 Ni5 2.596416 1_445
Mn0 Ni4 2.596416 1_544
Mn0 Mn3 2.809133 1_555
Mn0 Mn2 2.809133 1_454
Mn0 Sb0 2.868926 1_545
Mn0 Sb0 2.868926 1_555
Mn1 Ni1 2.584019 1_445
Mn1 Ni1 2.584019 1_545
Mn1 Ni3 2.584019 1_555
Mn1 Ni3 2.584019 1_455
Mn1 Ni6 2.596416 1_455
Mn1 Ni7 2.596416 1_555
Mn1 Ni5 2.596416 1_445
Mn1 Ni4 2.596416 1_545
Mn1 Mn3 2.809133 1_555
Mn1 Mn2 2.809133 1_455
Mn1 Sb1 2.868926 1_545
Mn1 Sb1 2.868926 1_555
Mn2 Ni7 2.514621 1_555
Mn2 Ni4 2.514621 1_545
Mn2 Ni0 2.579295 1_546
Mn2 Ni1 2.579295 1_545
Mn2 Ni2 2.579295 1_556
Mn2 Ni3 2.579295 1_555
Mn2 Ni7 2.660223 1_655
Mn2 Ni4 2.660223 1_645
Mn3 Ni6 2.514621 1_555
Mn3 Ni5 2.514621 1_545
Mn3 Ni0 2.579295 1_545
Mn3 Ni1 2.579295 1_545
Mn3 Ni2 2.579295 1_555
Mn3 Ni3 2.579295 1_555
Mn3 Ni6 2.660223 1_455
Mn3 Ni5 2.660223 1_445
Mn4 Ni4 2.555939 1_555
Mn4 Ni7 2.555939 1_555
Mn4 Ni2 2.643743 1_556
Mn4 Ni3 2.643743 1_555
Mn4 Ni0 2.643743 1_556
Mn4 Ni1 2.643743 1_555
Mn4 Ni4 2.743606 1_655
Mn4 Ni7 2.743606 1_655
Mn4 Sb1 2.826924 1_655
Mn4 Sb0 2.826924 1_656
Mn5 Ni5 2.555939 1_555
Mn5 Ni6 2.555939 1_555
Mn5 Ni2 2.643743 1_555
Mn5 Ni3 2.643743 1_555
Mn5 Ni0 2.643743 1_555
Mn5 Ni1 2.643743 1_555
Mn5 Ni5 2.743606 1_455
Mn5 Ni6 2.743606 1_455
Mn5 Sb0 2.826924 1_555
Mn5 Sb1 2.826924 1_555
Ni0 Sb0 2.652176 1_655
Ni0 Sb0 2.652176 1_555
Ni1 Sb1 2.652176 1_555
Ni1 Sb1 2.652176 1_655
Ni2 Sb0 2.652176 1_655
Ni2 Sb0 2.652176 1_555
Ni3 Sb1 2.652176 1_655
Ni3 Sb1 2.652176 1_555
Ni4 Sb0 2.658181 1_556
Ni4 Sb1 2.658181 1_555
Ni5 Sb1 2.658181 1_655
Ni5 Sb0 2.658181 1_655
Ni6 Sb0 2.658181 1_655
Ni6 Sb1 2.658181 1_655
Ni7 Sb0 2.658181 1_556
Ni7 Sb1 2.658181 1_555
