# generated using pymatgen
data_EuMgTl
_symmetry_space_group_name_H-M   'P 1'
_cell_length_a   4.92090923
_cell_length_b   8.02034340
_cell_length_c   8.71598529
_cell_angle_alpha   90.00000000
_cell_angle_beta   90.00000000
_cell_angle_gamma   90.00000000
_symmetry_Int_Tables_number   1
_chemical_formula_structural   EuMgTl
_chemical_formula_sum   'Eu4 Mg4 Tl4'
_cell_volume   343.99711977
_cell_formula_units_Z   4
loop_
 _symmetry_equiv_pos_site_id
 _symmetry_equiv_pos_as_xyz
  1  'x, y, z'
loop_
 _atom_site_type_symbol
 _atom_site_label
 _atom_site_symmetry_multiplicity
 _atom_site_fract_x
 _atom_site_fract_y
 _atom_site_fract_z
 _atom_site_occupancy
  Eu  Eu0  1  0.75000000  0.99081849  0.30942542  1
  Eu  Eu1  1  0.25000000  0.00918151  0.69057458  1
  Eu  Eu2  1  0.25000000  0.50918151  0.80942542  1
  Eu  Eu3  1  0.75000000  0.49081849  0.19057458  1
  Mg  Mg0  1  0.75000000  0.83967204  0.93175430  1
  Mg  Mg1  1  0.25000000  0.16032796  0.06824570  1
  Mg  Mg2  1  0.25000000  0.66032796  0.43175430  1
  Mg  Mg3  1  0.75000000  0.33967204  0.56824570  1
  Tl  Tl0  1  0.75000000  0.71801897  0.60855792  1
  Tl  Tl1  1  0.25000000  0.28198103  0.39144208  1
  Tl  Tl2  1  0.25000000  0.78198103  0.10855792  1
  Tl  Tl3  1  0.75000000  0.21801897  0.89144208  1
loop_
_geom_bond_atom_site_label_1
_geom_bond_atom_site_label_2
_geom_bond_distance
_geom_bond_site_symmetry_2
Eu0 Tl0 3.403642 1_555
Eu0 Tl2 3.453179 1_655
Eu0 Tl2 3.453179 1_555
Eu0 Tl1 3.466717 1_565
Eu0 Tl1 3.466717 1_665
Eu0 Mg0 3.507895 1_554
Eu0 Mg1 3.510135 1_565
Eu0 Mg1 3.510135 1_665
Eu0 Mg3 3.594072 1_565
Eu0 Mg2 3.770489 1_555
Eu0 Mg2 3.770489 1_655
Eu1 Tl1 3.403642 1_555
Eu1 Tl3 3.453179 1_555
Eu1 Tl3 3.453179 1_455
Eu1 Tl0 3.466717 1_445
Eu1 Tl0 3.466717 1_545
Eu1 Mg1 3.507895 1_556
Eu1 Mg0 3.510135 1_445
Eu1 Mg0 3.510135 1_545
Eu1 Mg2 3.594072 1_545
Eu1 Mg3 3.770489 1_455
Eu1 Mg3 3.770489 1_555
Eu2 Tl2 3.403642 1_556
Eu2 Tl0 3.453179 1_555
Eu2 Tl0 3.453179 1_455
Eu2 Tl3 3.466717 1_455
Eu2 Tl3 3.466717 1_555
Eu2 Mg2 3.507895 1_555
Eu2 Mg3 3.510135 1_455
Eu2 Mg3 3.510135 1_555
Eu2 Mg1 3.594072 1_556
Eu2 Mg0 3.770489 1_555
Eu2 Mg0 3.770489 1_455
Eu3 Tl3 3.403642 1_554
Eu3 Tl1 3.453179 1_555
Eu3 Tl1 3.453179 1_655
Eu3 Tl2 3.466717 1_555
Eu3 Tl2 3.466717 1_655
Eu3 Mg3 3.507895 1_555
Eu3 Mg2 3.510135 1_555
Eu3 Mg2 3.510135 1_655
Eu3 Mg0 3.594072 1_554
Eu3 Mg1 3.770489 1_655
Eu3 Mg1 3.770489 1_555
Mg0 Tl2 2.939841 1_656
Mg0 Tl2 2.939841 1_556
Mg0 Tl0 2.981164 1_555
Mg0 Tl3 3.054747 1_565
Mg1 Tl3 2.939841 1_454
Mg1 Tl3 2.939841 1_554
Mg1 Tl1 2.981164 1_555
Mg1 Tl2 3.054747 1_545
Mg2 Tl0 2.939841 1_455
Mg2 Tl0 2.939841 1_555
Mg2 Tl2 2.981164 1_555
Mg2 Tl1 3.054747 1_555
Mg3 Tl1 2.939841 1_655
Mg3 Tl1 2.939841 1_555
Mg3 Tl3 2.981164 1_555
Mg3 Tl0 3.054747 1_555
