# generated using pymatgen
data_ErFe2H3
_symmetry_space_group_name_H-M   'P 1'
_cell_length_a   7.67544697
_cell_length_b   7.67544697
_cell_length_c   7.67544710
_cell_angle_alpha   93.28400827
_cell_angle_beta   93.28400827
_cell_angle_gamma   93.28400691
_symmetry_Int_Tables_number   1
_chemical_formula_structural   ErFe2H3
_chemical_formula_sum   'Er8 Fe16 H24'
_cell_volume   449.86291280
_cell_formula_units_Z   8
loop_
 _symmetry_equiv_pos_site_id
 _symmetry_equiv_pos_as_xyz
  1  'x, y, z'
loop_
 _atom_site_type_symbol
 _atom_site_label
 _atom_site_symmetry_multiplicity
 _atom_site_fract_x
 _atom_site_fract_y
 _atom_site_fract_z
 _atom_site_occupancy
  Er  Er0  1  0.86235100  0.86235100  0.86235100  1
  Er  Er1  1  0.13764900  0.13764900  0.13764900  1
  Er  Er2  1  0.36661900  0.87123100  0.36661900  1
  Er  Er3  1  0.87123100  0.36661900  0.36661900  1
  Er  Er4  1  0.36661900  0.36661900  0.87123100  1
  Er  Er5  1  0.63338100  0.12876900  0.63338100  1
  Er  Er6  1  0.12876900  0.63338100  0.63338100  1
  Er  Er7  1  0.63338100  0.63338100  0.12876900  1
  Fe  Fe0  1  0.50000000  0.50000000  0.50000000  1
  Fe  Fe1  1  0.00000000  0.00000000  0.50000000  1
  Fe  Fe2  1  0.50000000  0.00000000  0.00000000  1
  Fe  Fe3  1  0.00000000  0.50000000  0.00000000  1
  Fe  Fe4  1  0.75057300  0.00000000  0.24942700  1
  Fe  Fe5  1  0.24942700  0.00000000  0.75057300  1
  Fe  Fe6  1  0.00000000  0.24942700  0.75057300  1
  Fe  Fe7  1  0.00000000  0.75057300  0.24942700  1
  Fe  Fe8  1  0.24942700  0.75057300  0.00000000  1
  Fe  Fe9  1  0.75057300  0.24942700  0.00000000  1
  Fe  Fe10  1  0.75154700  0.49374000  0.75154700  1
  Fe  Fe11  1  0.49374000  0.75154700  0.75154700  1
  Fe  Fe12  1  0.75154700  0.75154700  0.49374000  1
  Fe  Fe13  1  0.24845300  0.50626000  0.24845300  1
  Fe  Fe14  1  0.50626000  0.24845300  0.24845300  1
  Fe  Fe15  1  0.24845300  0.24845300  0.50626000  1
  H  H0  1  0.64828600  0.85428100  0.64828600  1
  H  H1  1  0.85428100  0.64828600  0.64828600  1
  H  H2  1  0.64828600  0.64828600  0.85428100  1
  H  H3  1  0.35171400  0.14571900  0.35171400  1
  H  H4  1  0.14571900  0.35171400  0.35171400  1
  H  H5  1  0.35171400  0.35171400  0.14571900  1
  H  H6  1  0.84274900  0.13637300  0.84274900  1
  H  H7  1  0.13637300  0.84274900  0.84274900  1
  H  H8  1  0.84274900  0.84274900  0.13637300  1
  H  H9  1  0.15725100  0.86362700  0.15725100  1
  H  H10  1  0.86362700  0.15725100  0.15725100  1
  H  H11  1  0.15725100  0.15725100  0.86362700  1
  H  H12  1  0.66531100  0.36538500  0.16098800  1
  H  H13  1  0.16098800  0.36538500  0.66531100  1
  H  H14  1  0.36538500  0.16098800  0.66531100  1
  H  H15  1  0.36538500  0.66531100  0.16098800  1
  H  H16  1  0.16098800  0.66531100  0.36538500  1
  H  H17  1  0.66531100  0.16098800  0.36538500  1
  H  H18  1  0.33468900  0.63461500  0.83901200  1
  H  H19  1  0.83901200  0.63461500  0.33468900  1
  H  H20  1  0.63461500  0.83901200  0.33468900  1
  H  H21  1  0.63461500  0.33468900  0.83901200  1
  H  H22  1  0.83901200  0.33468900  0.63461500  1
  H  H23  1  0.33468900  0.83901200  0.63461500  1
loop_
_geom_bond_atom_site_label_1
_geom_bond_atom_site_label_2
_geom_bond_distance
_geom_bond_site_symmetry_2
Er0 H6 2.130449 1_565
Er0 H7 2.130449 1_655
Er0 H8 2.130449 1_556
Er0 H0 2.251758 1_555
Er0 H1 2.251758 1_555
Er0 H2 2.251758 1_555
Er0 Fe2 3.242373 1_566
Er0 Fe3 3.242373 1_656
Er0 Fe1 3.242374 1_665
Er1 H9 2.130449 1_545
Er1 H10 2.130449 1_455
Er1 H11 2.130449 1_554
Er1 H3 2.251758 1_555
Er1 H4 2.251758 1_555
Er1 H5 2.251758 1_555
Er1 Fe2 3.242373 1_555
Er1 Fe3 3.242373 1_555
Er1 Fe1 3.242374 1_555
Er2 H20 2.112230 1_555
Er2 H23 2.112230 1_555
Er2 H3 2.125697 1_565
Er2 H15 2.167946 1_555
Er2 H16 2.167946 1_555
Er2 H9 2.202475 1_555
Er2 Fe1 3.236682 1_565
Er2 Fe2 3.236682 1_565
Er2 Fe0 3.280759 1_555
Er3 H19 2.112230 1_555
Er3 H22 2.112230 1_555
Er3 H4 2.125697 1_655
Er3 H12 2.167946 1_555
Er3 H17 2.167946 1_555
Er3 H10 2.202475 1_555
Er3 Fe1 3.236682 1_655
Er3 Fe3 3.236682 1_655
Er3 Fe0 3.280759 1_555
Er4 H21 2.112230 1_555
Er4 H18 2.112230 1_555
Er4 H5 2.125697 1_556
Er4 H13 2.167946 1_555
Er4 H14 2.167946 1_555
Er4 H11 2.202475 1_555
Er4 Fe3 3.236682 1_556
Er4 Fe2 3.236682 1_556
Er4 Fe0 3.280759 1_555
Er5 H14 2.112230 1_555
Er5 H17 2.112230 1_555
Er5 H0 2.125697 1_545
Er5 H21 2.167946 1_555
Er5 H22 2.167946 1_555
Er5 H6 2.202475 1_555
Er5 Fe1 3.236682 1_655
Er5 Fe2 3.236682 1_556
Er5 Fe0 3.280759 1_555
Er6 H13 2.112230 1_555
Er6 H16 2.112230 1_555
Er6 H1 2.125697 1_455
Er6 H18 2.167946 1_555
Er6 H23 2.167946 1_555
Er6 H7 2.202475 1_555
Er6 Fe1 3.236682 1_565
Er6 Fe3 3.236682 1_556
Er6 Fe0 3.280759 1_555
Er7 H12 2.112230 1_555
Er7 H15 2.112230 1_555
Er7 H2 2.125697 1_554
Er7 H19 2.167946 1_555
Er7 H20 2.167946 1_555
Er7 H8 2.202475 1_555
Er7 Fe3 3.236682 1_655
Er7 Fe2 3.236682 1_565
Er7 Fe0 3.280759 1_555
Fe0 Fe13 2.655552 1_555
Fe0 Fe14 2.655552 1_555
Fe0 Fe11 2.655552 1_555
Fe0 Fe10 2.655552 1_555
Fe0 Fe12 2.655552 1_555
Fe0 Fe15 2.655552 1_555
Fe1 Fe15 2.614932 1_555
Fe1 Fe12 2.614932 1_445
Fe1 Fe7 2.634815 1_545
Fe1 Fe4 2.634815 1_455
Fe1 Fe6 2.634815 1_555
Fe1 Fe5 2.634815 1_555
Fe2 Fe5 2.634815 1_554
Fe2 Fe4 2.634815 1_555
Fe2 Fe8 2.634815 1_545
Fe2 Fe9 2.634815 1_555
Fe3 Fe6 2.634815 1_554
Fe3 Fe7 2.634815 1_555
Fe3 Fe9 2.634815 1_455
Fe3 Fe8 2.634815 1_555
Fe4 H8 1.660866 1_545
Fe4 H10 1.660866 1_555
Fe4 H17 1.667526 1_555
Fe4 H20 1.667526 1_545
Fe5 H11 1.660866 1_555
Fe5 H7 1.660866 1_545
Fe5 H23 1.667526 1_545
Fe5 H14 1.667526 1_555
Fe6 H11 1.660866 1_555
Fe6 H6 1.660866 1_455
Fe6 H22 1.667526 1_455
Fe6 H13 1.667526 1_555
Fe7 H8 1.660866 1_455
Fe7 H9 1.660866 1_555
Fe7 H16 1.667526 1_555
Fe7 H19 1.667526 1_455
Fe8 H9 1.660866 1_555
Fe8 H7 1.660866 1_554
Fe8 H18 1.667526 1_554
Fe8 H15 1.667526 1_555
Fe9 H10 1.660866 1_555
Fe9 H6 1.660866 1_554
Fe9 H21 1.667526 1_554
Fe9 H12 1.667526 1_555
Fe10 H2 1.652029 1_555
Fe10 H1 1.652029 1_555
Fe10 H22 1.668509 1_555
Fe10 H21 1.668509 1_555
Fe10 Fe3 2.614932 1_656
Fe11 H2 1.652029 1_555
Fe11 H0 1.652029 1_555
Fe11 H23 1.668509 1_555
Fe11 H18 1.668509 1_555
Fe11 Fe2 2.614932 1_566
Fe12 H1 1.652029 1_555
Fe12 H0 1.652029 1_555
Fe12 H19 1.668509 1_555
Fe12 H20 1.668509 1_555
Fe13 H5 1.652029 1_555
Fe13 H4 1.652029 1_555
Fe13 H16 1.668509 1_555
Fe13 H15 1.668509 1_555
Fe13 Fe3 2.614932 1_555
Fe14 H5 1.652029 1_555
Fe14 H3 1.652029 1_555
Fe14 H17 1.668509 1_555
Fe14 H12 1.668509 1_555
Fe14 Fe2 2.614932 1_555
Fe15 H3 1.652029 1_555
Fe15 H4 1.652029 1_555
Fe15 H14 1.668509 1_555
Fe15 H13 1.668509 1_555
