# generated using pymatgen
data_KTmBeF6
_symmetry_space_group_name_H-M   'P 1'
_cell_length_a   5.76657800
_cell_length_b   6.40475470
_cell_length_c   7.03365287
_cell_angle_alpha   113.13745194
_cell_angle_beta   90.00000000
_cell_angle_gamma   90.00000000
_symmetry_Int_Tables_number   1
_chemical_formula_structural   KTmBeF6
_chemical_formula_sum   'K2 Tm2 Be2 F12'
_cell_volume   238.88229514
_cell_formula_units_Z   2
loop_
 _symmetry_equiv_pos_site_id
 _symmetry_equiv_pos_as_xyz
  1  'x, y, z'
loop_
 _atom_site_type_symbol
 _atom_site_label
 _atom_site_symmetry_multiplicity
 _atom_site_fract_x
 _atom_site_fract_y
 _atom_site_fract_z
 _atom_site_occupancy
  K  K0  1  0.75000000  0.07136900  0.20344200  1
  K  K1  1  0.25000000  0.92863100  0.79655800  1
  Tm  Tm0  1  0.75000000  0.38974100  0.82134900  1
  Tm  Tm1  1  0.25000000  0.61025900  0.17865100  1
  Be  Be0  1  0.75000000  0.76643200  0.53582100  1
  Be  Be1  1  0.25000000  0.23356800  0.46417900  1
  F  F0  1  0.96812000  0.76582800  0.40286000  1
  F  F1  1  0.03188000  0.23417200  0.59714000  1
  F  F2  1  0.46812000  0.23417200  0.59714000  1
  F  F3  1  0.53188000  0.76582800  0.40286000  1
  F  F4  1  0.75000000  0.55842500  0.59434200  1
  F  F5  1  0.25000000  0.44157500  0.40565800  1
  F  F6  1  0.99881400  0.67669700  0.96578300  1
  F  F7  1  0.00118600  0.32330300  0.03421700  1
  F  F8  1  0.49881400  0.32330300  0.03421700  1
  F  F9  1  0.50118600  0.67669700  0.96578300  1
  F  F10  1  0.75000000  0.98995900  0.73808000  1
  F  F11  1  0.25000000  0.01004100  0.26192000  1
loop_
_geom_bond_atom_site_label_1
_geom_bond_atom_site_label_2
_geom_bond_distance
_geom_bond_site_symmetry_2
Be0 F4 1.541177 1_555
Be0 F3 1.566477 1_555
Be0 F0 1.566477 1_555
Be0 F10 1.572531 1_555
Be1 F5 1.541177 1_555
Be1 F1 1.566477 1_555
Be1 F2 1.566477 1_555
Be1 F11 1.572531 1_555
F0 Tm1 2.210673 1_655
F0 K1 3.021325 1_655
F0 K0 3.088056 1_565
F1 Tm0 2.210673 1_455
F1 K0 3.021325 1_455
F1 K1 3.088056 1_545
F2 Tm0 2.210673 1_555
F2 K0 3.021325 1_555
F2 K1 3.088056 1_545
F3 Tm1 2.210673 1_555
F3 K1 3.021325 1_555
F3 K0 3.088056 1_565
F4 Tm0 2.252176 1_555
F4 K0 3.248118 1_555
F5 Tm1 2.252176 1_555
F5 K1 3.248118 1_555
F6 Tm0 2.236340 1_555
F6 Tm1 2.240889 1_656
F6 K1 2.761851 1_655
F6 K0 2.814590 1_566
F7 Tm1 2.236340 1_555
F7 Tm0 2.240889 1_454
F7 K0 2.761851 1_455
F7 K1 2.814590 1_544
F8 Tm1 2.236340 1_555
F8 Tm0 2.240889 1_554
F8 K0 2.761851 1_555
F8 K1 2.814590 1_544
F9 Tm0 2.236340 1_555
F9 Tm1 2.240889 1_556
F9 K1 2.761851 1_555
F9 K0 2.814590 1_566
F10 Tm0 2.391794 1_565
F10 K1 2.960369 1_555
F10 K1 2.960369 1_655
F10 K0 3.105549 1_566
F11 Tm1 2.391794 1_545
F11 K0 2.960369 1_455
F11 K0 2.960369 1_555
F11 K1 3.105549 1_544
