# generated using pymatgen
data_Li2In2GeS6
_symmetry_space_group_name_H-M   'P 1'
_cell_length_a   7.16995589
_cell_length_b   7.16995589
_cell_length_c   12.33605232
_cell_angle_alpha   72.70399564
_cell_angle_beta   72.70399564
_cell_angle_gamma   60.48643531
_symmetry_Int_Tables_number   1
_chemical_formula_structural   Li2In2GeS6
_chemical_formula_sum   'Li4 In4 Ge2 S12'
_cell_volume   518.17222144
_cell_formula_units_Z   2
loop_
 _symmetry_equiv_pos_site_id
 _symmetry_equiv_pos_as_xyz
  1  'x, y, z'
loop_
 _atom_site_type_symbol
 _atom_site_label
 _atom_site_symmetry_multiplicity
 _atom_site_fract_x
 _atom_site_fract_y
 _atom_site_fract_z
 _atom_site_occupancy
  Li  Li0  1  0.59104500  0.99592400  0.15946800  1
  Li  Li1  1  0.99592400  0.59104500  0.65946800  1
  Li  Li2  1  0.60119000  0.39934400  0.50384000  1
  Li  Li3  1  0.39934400  0.60119000  0.00384000  1
  In  In0  1  0.88535800  0.07232500  0.81257700  1
  In  In1  1  0.07232500  0.88535800  0.31257700  1
  In  In2  1  0.23065300  0.08286500  0.50667100  1
  In  In3  1  0.08286500  0.23065300  0.00667100  1
  Ge  Ge0  1  0.45984800  0.99272000  0.75173800  1
  Ge  Ge1  1  0.99272000  0.45984800  0.25173800  1
  S  S0  1  0.74004600  0.23135600  0.99233600  1
  S  S1  1  0.23135600  0.74004600  0.49233600  1
  S  S2  1  0.32594200  0.88356100  0.12169100  1
  S  S3  1  0.88356100  0.32594200  0.62169100  1
  S  S4  1  0.28111700  0.79113300  0.80839900  1
  S  S5  1  0.79113300  0.28111700  0.30839900  1
  S  S6  1  0.27742900  0.31574900  0.80428800  1
  S  S7  1  0.31574900  0.27742900  0.30428800  1
  S  S8  1  0.76077200  0.79123500  0.82845300  1
  S  S9  1  0.79123500  0.76077200  0.32845300  1
  S  S10  1  0.56214100  0.04064900  0.56097800  1
  S  S11  1  0.04064900  0.56214100  0.06097800  1
loop_
_geom_bond_atom_site_label_1
_geom_bond_atom_site_label_2
_geom_bond_distance
_geom_bond_site_symmetry_2
Li0 S9 2.559966 1_555
Li0 S0 2.576672 1_564
Li0 S2 2.595746 1_555
Li0 S7 2.698815 1_565
Li1 S8 2.559966 1_555
Li1 S1 2.576672 1_655
Li1 S3 2.595746 1_555
Li1 S6 2.698815 1_655
Li2 S5 2.551761 1_555
Li2 S1 2.579629 1_555
Li2 S10 2.589151 1_555
Li2 S3 2.595174 1_555
Li3 S4 2.551761 1_554
Li3 S0 2.579629 1_554
Li3 S11 2.589151 1_555
Li3 S2 2.595174 1_555
In0 S0 2.502452 1_555
In0 S3 2.510106 1_555
In0 S8 2.516584 1_545
In0 S4 2.541163 1_645
In1 S1 2.502452 1_555
In1 S2 2.510106 1_555
In1 S9 2.516584 1_455
In1 S5 2.541163 1_465
In2 S10 2.511334 1_555
In2 S1 2.513716 1_545
In2 S3 2.518231 1_455
In2 S7 2.532447 1_555
In3 S11 2.511334 1_555
In3 S0 2.513716 1_454
In3 S2 2.518231 1_545
In3 S6 2.532447 1_554
Ge0 S6 2.213420 1_565
Ge0 S4 2.216184 1_555
Ge0 S10 2.221462 1_565
Ge0 S8 2.228912 1_555
Ge1 S7 2.213420 1_655
Ge1 S5 2.216184 1_555
Ge1 S11 2.221462 1_655
Ge1 S9 2.228912 1_555
