# generated using pymatgen
data_Tb4Sb6Rh7
_symmetry_space_group_name_H-M   'P 1'
_cell_length_a   7.58102333
_cell_length_b   7.58102333
_cell_length_c   7.58102333
_cell_angle_alpha   109.47122693
_cell_angle_beta   109.47120805
_cell_angle_gamma   109.47122693
_symmetry_Int_Tables_number   1
_chemical_formula_structural   Tb4Sb6Rh7
_chemical_formula_sum   'Tb4 Sb6 Rh7'
_cell_volume   335.39888044
_cell_formula_units_Z   1
loop_
 _symmetry_equiv_pos_site_id
 _symmetry_equiv_pos_as_xyz
  1  'x, y, z'
loop_
 _atom_site_type_symbol
 _atom_site_label
 _atom_site_symmetry_multiplicity
 _atom_site_fract_x
 _atom_site_fract_y
 _atom_site_fract_z
 _atom_site_occupancy
  Tb  Tb0  1  0.49999900  -0.00000000  0.99999900  1
  Tb  Tb1  1  0.00000000  0.50000000  0.00000100  1
  Tb  Tb2  1  0.00000100  0.00000000  0.50000000  1
  Tb  Tb3  1  0.49999900  0.50000000  0.50000000  1
  Sb  Sb0  1  0.00000100  0.31850475  0.31850375  1
  Sb  Sb1  1  0.68149525  0.99999900  0.68149625  1
  Sb  Sb2  1  0.68149625  0.68149525  0.00000000  1
  Sb  Sb3  1  0.00000100  0.68149625  0.68149625  1
  Sb  Sb4  1  0.31850375  0.99999900  0.31850375  1
  Sb  Sb5  1  0.31850375  0.31850375  0.00000000  1
  Rh  Rh0  1  0.00000000  0.00000000  0.00000000  1
  Rh  Rh1  1  0.49999900  0.74999900  0.25000000  1
  Rh  Rh2  1  0.75000100  0.50000100  0.25000000  1
  Rh  Rh3  1  0.25000000  0.75000000  0.50000000  1
  Rh  Rh4  1  0.25000100  0.50000100  0.75000000  1
  Rh  Rh5  1  0.49999900  0.24999900  0.75000000  1
  Rh  Rh6  1  0.75000000  0.25000000  0.50000000  1
loop_
_geom_bond_atom_site_label_1
_geom_bond_atom_site_label_2
_geom_bond_distance
_geom_bond_site_symmetry_2
Sb0 Tb3 3.152487 1_555
Sb0 Tb1 3.152487 1_555
Sb0 Tb2 3.152507 1_555
Sb0 Tb0 3.152512 1_454
Sb1 Tb0 3.152492 1_565
Sb1 Tb3 3.152493 1_555
Sb1 Tb1 3.152507 1_666
Sb1 Tb2 3.152513 1_665
Sb2 Tb1 3.152494 1_655
Sb2 Tb3 3.152500 1_554
Sb2 Tb2 3.152502 1_665
Sb2 Tb0 3.152513 1_564
Sb3 Tb0 3.152489 1_565
Sb3 Tb2 3.152500 1_565
Sb3 Tb1 3.152508 1_556
Sb3 Tb3 3.152514 1_455
Sb4 Tb1 3.152494 1_555
Sb4 Tb2 3.152494 1_565
Sb4 Tb0 3.152502 1_564
Sb4 Tb3 3.152507 1_565
Sb5 Tb0 3.152494 1_554
Sb5 Tb2 3.152499 1_554
Sb5 Tb1 3.152501 1_555
Sb5 Tb3 3.152501 1_555
Rh0 Sb5 2.788122 1_555
Rh0 Sb0 2.788122 1_555
Rh0 Sb1 2.788122 1_444
Rh0 Sb3 2.788126 1_544
Rh0 Sb2 2.788126 1_445
Rh0 Sb4 2.788127 1_545
Rh1 Sb4 2.704353 1_555
Rh1 Sb5 2.704354 1_555
Rh1 Sb1 2.704360 1_555
Rh1 Sb2 2.704365 1_555
Rh1 Tb1 3.094934 1_555
Rh1 Tb3 3.094934 1_555
Rh1 Tb0 3.094952 1_564
Rh1 Tb2 3.094952 1_665
Rh2 Sb2 2.704349 1_555
Rh2 Sb0 2.704360 1_655
Rh2 Sb3 2.704361 1_655
Rh2 Sb5 2.704365 1_555
Rh2 Tb1 3.094927 1_655
Rh2 Tb2 3.094933 1_665
Rh2 Tb0 3.094946 1_554
Rh2 Tb3 3.094952 1_555
Rh3 Sb0 2.704352 1_555
Rh3 Sb1 2.704353 1_555
Rh3 Sb3 2.704353 1_555
Rh3 Sb4 2.704353 1_555
Rh3 Tb3 3.094934 1_555
Rh3 Tb2 3.094934 1_565
Rh3 Tb1 3.094934 1_555
Rh3 Tb0 3.094934 1_565
Rh4 Sb3 2.704354 1_555
Rh4 Sb2 2.704356 1_556
Rh4 Sb0 2.704360 1_555
Rh4 Sb5 2.704365 1_556
Rh4 Tb3 3.094927 1_555
Rh4 Tb0 3.094933 1_565
Rh4 Tb2 3.094946 1_555
Rh4 Tb1 3.094952 1_556
Rh5 Sb5 2.704354 1_556
Rh5 Sb2 2.704358 1_556
Rh5 Sb1 2.704360 1_545
Rh5 Sb4 2.704361 1_545
Rh5 Tb0 3.094928 1_555
Rh5 Tb2 3.094928 1_555
Rh5 Tb3 3.094946 1_555
Rh5 Tb1 3.094946 1_656
Rh6 Sb3 2.704360 1_655
Rh6 Sb4 2.704361 1_545
Rh6 Sb0 2.704366 1_655
Rh6 Sb1 2.704367 1_545
Rh6 Tb2 3.094946 1_655
Rh6 Tb1 3.094946 1_656
Rh6 Tb3 3.094946 1_555
Rh6 Tb0 3.094946 1_554
