# generated using pymatgen
data_KUHSeO7
_symmetry_space_group_name_H-M   'P 1'
_cell_length_a   8.17215600
_cell_length_b   8.47458900
_cell_length_c   12.16013627
_cell_angle_alpha   70.39351182
_cell_angle_beta   90.00000000
_cell_angle_gamma   90.00000000
_symmetry_Int_Tables_number   1
_chemical_formula_structural   KUHSeO7
_chemical_formula_sum   'K4 U4 H4 Se4 O28'
_cell_volume   793.32951034
_cell_formula_units_Z   4
loop_
 _symmetry_equiv_pos_site_id
 _symmetry_equiv_pos_as_xyz
  1  'x, y, z'
loop_
 _atom_site_type_symbol
 _atom_site_label
 _atom_site_symmetry_multiplicity
 _atom_site_fract_x
 _atom_site_fract_y
 _atom_site_fract_z
 _atom_site_occupancy
  K  K0  1  0.96364300  0.94386100  0.77817300  1
  K  K1  1  0.03635700  0.05613900  0.22182700  1
  K  K2  1  0.46364300  0.05613900  0.72182700  1
  K  K3  1  0.53635700  0.94386100  0.27817300  1
  U  U0  1  0.07609500  0.45410300  0.77063100  1
  U  U1  1  0.92390500  0.54589700  0.22936900  1
  U  U2  1  0.57609500  0.54589700  0.72936900  1
  U  U3  1  0.42390500  0.45410300  0.27063100  1
  H  H0  1  0.77088100  0.70682200  0.52650100  1
  H  H1  1  0.22911900  0.29317800  0.47349900  1
  H  H2  1  0.27088100  0.29317800  0.97349900  1
  H  H3  1  0.72911900  0.70682200  0.02650100  1
  Se  Se0  1  0.25489400  0.82414200  0.53797300  1
  Se  Se1  1  0.74510600  0.17585800  0.46202700  1
  Se  Se2  1  0.75489400  0.17585800  0.96202700  1
  Se  Se3  1  0.24510600  0.82414200  0.03797300  1
  O  O0  1  0.33807900  0.50674100  0.79474600  1
  O  O1  1  0.66192100  0.49325900  0.20525400  1
  O  O2  1  0.83807900  0.49325900  0.70525400  1
  O  O3  1  0.16192100  0.50674100  0.29474600  1
  O  O4  1  0.45155400  0.75790300  0.57239300  1
  O  O5  1  0.54844600  0.24209700  0.42760700  1
  O  O6  1  0.95155400  0.24209700  0.92760700  1
  O  O7  1  0.04844600  0.75790300  0.07239300  1
  O  O8  1  0.20925000  0.96254800  0.60231000  1
  O  O9  1  0.79075000  0.03745200  0.39769000  1
  O  O10  1  0.70925000  0.03745200  0.89769000  1
  O  O11  1  0.29075000  0.96254800  0.10231000  1
  O  O12  1  0.03381200  0.60812400  0.84272000  1
  O  O13  1  0.96618800  0.39187600  0.15728000  1
  O  O14  1  0.53381200  0.39187600  0.65728000  1
  O  O15  1  0.46618800  0.60812400  0.34272000  1
  O  O16  1  0.13048900  0.65442600  0.59302200  1
  O  O17  1  0.86951100  0.34557400  0.40697800  1
  O  O18  1  0.63048900  0.34557400  0.90697800  1
  O  O19  1  0.36951100  0.65442600  0.09302200  1
  O  O20  1  0.26146000  0.89507900  0.89514000  1
  O  O21  1  0.73854000  0.10492100  0.10486000  1
  O  O22  1  0.76146000  0.10492100  0.60486000  1
  O  O23  1  0.23854000  0.89507900  0.39514000  1
  O  O24  1  0.14197300  0.28291400  0.71927400  1
  O  O25  1  0.85802700  0.71708600  0.28072600  1
  O  O26  1  0.64197300  0.71708600  0.78072600  1
  O  O27  1  0.35802700  0.28291400  0.21927400  1
loop_
_geom_bond_atom_site_label_1
_geom_bond_atom_site_label_2
_geom_bond_distance
_geom_bond_site_symmetry_2
K0 O22 2.665348 1_565
K0 O12 2.746177 1_655
K0 O20 2.778982 1_655
K0 O10 2.799442 1_565
K0 O8 2.898217 1_655
K0 O24 3.084112 1_665
K0 O26 3.250322 1_555
K1 O23 2.665348 1_545
K1 O13 2.746177 1_455
K1 O21 2.778982 1_455
K1 O11 2.799442 1_545
K1 O9 2.898217 1_455
K1 O25 3.084112 1_445
K1 O27 3.250322 1_555
K2 O20 2.665348 1_545
K2 O14 2.746177 1_555
K2 O22 2.778982 1_555
K2 O8 2.799442 1_545
K2 O10 2.898217 1_555
K2 O26 3.084112 1_545
K2 O24 3.250322 1_555
K3 O21 2.665348 1_565
K3 O15 2.746177 1_555
K3 O23 2.778982 1_555
K3 O9 2.799442 1_565
K3 O11 2.898217 1_555
K3 O27 3.084112 1_565
K3 O25 3.250322 1_555
O0 U2 2.085309 1_555
O0 U0 2.226329 1_555
O1 U3 2.085309 1_555
O1 U1 2.226329 1_555
O2 U0 2.085309 1_655
O2 U2 2.226329 1_555
O3 U1 2.085309 1_455
O3 U3 2.226329 1_555
O4 Se0 1.707484 1_555
O4 U2 2.367683 1_555
O5 Se1 1.707484 1_555
O5 U3 2.367683 1_555
O6 Se2 1.707484 1_555
O6 U0 2.367683 1_655
O7 Se3 1.707484 1_555
O7 U1 2.367683 1_455
O8 Se0 1.656146 1_555
O9 Se1 1.656146 1_555
O10 Se2 1.656146 1_555
O11 Se3 1.656146 1_555
O12 U0 1.832884 1_555
O13 U1 1.832884 1_555
O14 U2 1.832884 1_555
O15 U3 1.832884 1_555
O16 Se0 1.704166 1_555
O16 U0 2.298585 1_555
O17 Se1 1.704166 1_555
O17 U1 2.298585 1_555
O18 Se2 1.704166 1_555
O18 U2 2.298585 1_555
O19 Se3 1.704166 1_555
O19 U3 2.298585 1_555
O20 Se3 1.641716 1_556
O21 Se2 1.641716 1_554
O22 Se1 1.641716 1_555
O23 Se0 1.641716 1_555
O24 U0 1.841896 1_555
O25 U1 1.841896 1_555
O26 U2 1.841896 1_555
O27 U3 1.841896 1_555
