# generated using pymatgen
data_ZrAlPd
_symmetry_space_group_name_H-M   'P 1'
_cell_length_a   5.33130092
_cell_length_b   5.33130092
_cell_length_c   8.46612300
_cell_angle_alpha   90.00000000
_cell_angle_beta   90.00000000
_cell_angle_gamma   119.16785698
_symmetry_Int_Tables_number   1
_chemical_formula_structural   ZrAlPd
_chemical_formula_sum   'Zr4 Al4 Pd4'
_cell_volume   210.11764325
_cell_formula_units_Z   4
loop_
 _symmetry_equiv_pos_site_id
 _symmetry_equiv_pos_as_xyz
  1  'x, y, z'
loop_
 _atom_site_type_symbol
 _atom_site_label
 _atom_site_symmetry_multiplicity
 _atom_site_fract_x
 _atom_site_fract_y
 _atom_site_fract_z
 _atom_site_occupancy
  Zr  Zr0  1  0.66726000  0.33274000  0.30176000  1
  Zr  Zr1  1  0.33542400  0.66457600  0.18116500  1
  Zr  Zr2  1  0.33542400  0.66457600  0.81883500  1
  Zr  Zr3  1  0.66726000  0.33274000  0.69824000  1
  Al  Al0  1  0.00349900  0.99650100  0.24522100  1
  Al  Al1  1  0.00349900  0.99650100  0.75477900  1
  Al  Al2  1  0.65134700  0.82886400  0.50000000  1
  Al  Al3  1  0.17113600  0.34865300  0.50000000  1
  Pd  Pd0  1  0.16579100  0.83420900  0.50000000  1
  Pd  Pd1  1  0.33750400  0.16939200  0.00000000  1
  Pd  Pd2  1  0.83060800  0.66249600  0.00000000  1
  Pd  Pd3  1  0.83166400  0.16833600  0.00000000  1
loop_
_geom_bond_atom_site_label_1
_geom_bond_atom_site_label_2
_geom_bond_distance
_geom_bond_site_symmetry_2
Zr0 Zr1 3.217554 1_555
Zr0 Zr1 3.273924 1_655
Zr0 Zr1 3.273924 1_545
Zr1 Zr2 3.067530 1_554
Zr2 Zr3 3.217554 1_555
Zr2 Zr3 3.273924 1_455
Zr2 Zr3 3.273924 1_565
Al0 Pd1 2.594347 1_565
Al0 Pd2 2.594347 1_455
Al0 Pd3 2.608948 1_465
Al0 Pd0 2.622890 1_555
Al0 Al2 2.709348 1_455
Al0 Al3 2.709348 1_565
Al0 Zr1 3.099897 1_555
Al0 Zr0 3.127579 1_455
Al0 Zr0 3.127579 1_565
Al0 Zr0 3.128594 1_465
Al0 Zr1 3.157176 1_565
Al0 Zr1 3.157176 1_455
Al1 Pd1 2.594347 1_566
Al1 Pd2 2.594347 1_456
Al1 Pd3 2.608948 1_466
Al1 Pd0 2.622890 1_555
Al1 Al2 2.709348 1_455
Al1 Al3 2.709348 1_565
Al1 Zr2 3.099897 1_555
Al1 Zr3 3.127579 1_455
Al1 Zr3 3.127579 1_565
Al1 Zr3 3.128594 1_465
Al1 Zr2 3.157176 1_565
Al1 Zr2 3.157176 1_455
Al2 Al3 2.592283 1_555
Al2 Pd0 2.602652 1_555
Al2 Pd0 2.728881 1_655
Al2 Al3 2.805933 1_665
Al2 Zr2 3.074444 1_555
Al2 Zr1 3.074444 1_555
Al2 Zr0 3.133387 1_565
Al2 Zr3 3.133387 1_565
Al2 Zr0 3.168382 1_555
Al2 Zr3 3.168382 1_555
Al3 Pd0 2.602652 1_555
Al3 Pd0 2.728881 1_545
Al3 Zr2 3.074444 1_555
Al3 Zr1 3.074444 1_555
Al3 Zr3 3.133387 1_455
Al3 Zr0 3.133387 1_455
Al3 Zr0 3.168382 1_555
Al3 Zr3 3.168382 1_555
Pd0 Zr1 3.117558 1_555
Pd0 Zr2 3.117558 1_555
Pd0 Zr0 3.178386 1_455
Pd0 Zr3 3.178386 1_455
Pd0 Zr0 3.178386 1_565
Pd0 Zr3 3.178386 1_565
Pd1 Pd3 2.637264 1_555
Pd1 Pd2 2.661882 1_555
Pd1 Pd3 2.694046 1_455
Pd1 Pd2 2.736334 1_445
Pd1 Zr3 2.980507 1_554
Pd1 Zr0 2.980507 1_555
Pd1 Zr1 3.057869 1_555
Pd1 Zr2 3.057869 1_554
Pd1 Zr1 3.093009 1_545
Pd1 Zr2 3.093009 1_544
Pd2 Pd3 2.637264 1_555
Pd2 Pd3 2.694046 1_565
Pd2 Zr3 2.980507 1_554
Pd2 Zr0 2.980507 1_555
Pd2 Zr1 3.057869 1_555
Pd2 Zr2 3.057869 1_554
Pd2 Zr1 3.093009 1_655
Pd2 Zr2 3.093009 1_654
Pd3 Zr3 2.968496 1_554
Pd3 Zr0 2.968496 1_555
Pd3 Zr2 3.104644 1_544
Pd3 Zr1 3.104644 1_545
Pd3 Zr1 3.104644 1_655
Pd3 Zr2 3.104644 1_654
