# generated using pymatgen
data_BaScZn3GaO7
_symmetry_space_group_name_H-M   'P 1'
_cell_length_a   6.28589769
_cell_length_b   6.28589769
_cell_length_c   10.20868400
_cell_angle_alpha   90.00000000
_cell_angle_beta   90.00000000
_cell_angle_gamma   119.99999678
_symmetry_Int_Tables_number   1
_chemical_formula_structural   BaScZn3GaO7
_chemical_formula_sum   'Ba2 Sc2 Zn6 Ga2 O14'
_cell_volume   349.32930787
_cell_formula_units_Z   2
loop_
 _symmetry_equiv_pos_site_id
 _symmetry_equiv_pos_as_xyz
  1  'x, y, z'
loop_
 _atom_site_type_symbol
 _atom_site_label
 _atom_site_symmetry_multiplicity
 _atom_site_fract_x
 _atom_site_fract_y
 _atom_site_fract_z
 _atom_site_occupancy
  Ba  Ba0  1  0.66666700  0.33333300  0.99865600  1
  Ba  Ba1  1  0.33333300  0.66666700  0.49865600  1
  Sc  Sc0  1  0.66666700  0.33333300  0.63207300  1
  Sc  Sc1  1  0.33333300  0.66666700  0.13207300  1
  Zn  Zn0  1  0.17312300  0.82687700  0.81261000  1
  Zn  Zn1  1  0.65375400  0.82687700  0.81261000  1
  Zn  Zn2  1  0.17312300  0.34624600  0.81261000  1
  Zn  Zn3  1  0.82687700  0.17312300  0.31261000  1
  Zn  Zn4  1  0.34624600  0.17312300  0.31261000  1
  Zn  Zn5  1  0.82687700  0.65375400  0.31261000  1
  Ga  Ga0  1  0.00000000  0.00000000  0.06355600  1
  Ga  Ga1  1  0.00000000  0.00000000  0.56355600  1
  O  O0  1  0.50766300  0.49233700  0.74514000  1
  O  O1  1  0.98467400  0.49233700  0.74514000  1
  O  O2  1  0.50766300  0.01532600  0.74514000  1
  O  O3  1  0.49233700  0.50766300  0.24514000  1
  O  O4  1  0.01532600  0.50766300  0.24514000  1
  O  O5  1  0.49233700  0.98467400  0.24514000  1
  O  O6  1  0.00000000  0.00000000  0.24742800  1
  O  O7  1  0.00000000  0.00000000  0.74742800  1
  O  O8  1  0.16436700  0.83563300  0.00734900  1
  O  O9  1  0.67126600  0.83563300  0.00734900  1
  O  O10  1  0.16436700  0.32873400  0.00734900  1
  O  O11  1  0.83563300  0.16436700  0.50734900  1
  O  O12  1  0.32873400  0.16436700  0.50734900  1
  O  O13  1  0.83563300  0.67126600  0.50734900  1
loop_
_geom_bond_atom_site_label_1
_geom_bond_atom_site_label_2
_geom_bond_distance
_geom_bond_site_symmetry_2
Ba0 O1 3.113673 1_555
Ba0 O2 3.113673 1_555
Ba0 O0 3.113676 1_555
Ba0 O9 3.144298 1_546
Ba0 O10 3.144298 1_656
Ba0 O8 3.144301 1_656
Ba0 O8 3.144301 1_546
Ba0 O9 3.144304 1_556
Ba0 O10 3.144304 1_556
Ba0 O4 3.151841 1_656
Ba0 O5 3.151841 1_546
Ba0 O3 3.151844 1_556
Ba1 O5 3.113673 1_555
Ba1 O4 3.113673 1_555
Ba1 O3 3.113676 1_555
Ba1 O13 3.144298 1_455
Ba1 O12 3.144298 1_565
Ba1 O11 3.144301 1_565
Ba1 O11 3.144301 1_455
Ba1 O13 3.144304 1_555
Ba1 O12 3.144304 1_555
Ba1 O2 3.151841 1_565
Ba1 O1 3.151841 1_455
Ba1 O0 3.151844 1_555
Ga0 O6 1.877091 1_555
Ga0 O8 1.879286 1_545
Ga0 O10 1.879286 1_555
Ga0 O9 1.879286 1_445
Ga1 O7 1.877091 1_555
Ga1 O11 1.879286 1_455
Ga1 O12 1.879286 1_555
Ga1 O13 1.879286 1_445
O0 Zn2 1.951598 1_555
O0 Zn1 1.951598 1_555
O0 Sc0 2.080679 1_555
O1 Zn2 1.951597 1_655
O1 Zn0 1.951598 1_655
O1 Sc0 2.080675 1_555
O2 Zn1 1.951597 1_545
O2 Zn0 1.951598 1_545
O2 Sc0 2.080675 1_555
O3 Zn4 1.951598 1_555
O3 Zn5 1.951598 1_555
O3 Sc1 2.080679 1_555
O4 Zn5 1.951597 1_455
O4 Zn3 1.951598 1_455
O4 Sc1 2.080675 1_555
O5 Zn4 1.951597 1_565
O5 Zn3 1.951598 1_565
O5 Sc1 2.080675 1_555
O6 Zn3 1.998885 1_455
O6 Zn4 1.998886 1_555
O6 Zn5 1.998886 1_445
O7 Zn0 1.998885 1_545
O7 Zn2 1.998886 1_555
O7 Zn1 1.998886 1_445
O8 Zn0 1.990313 1_554
O8 Sc1 2.237275 1_555
O9 Zn1 1.990313 1_554
O9 Sc1 2.237280 1_555
O10 Zn2 1.990313 1_554
O10 Sc1 2.237280 1_555
O11 Zn3 1.990313 1_555
O11 Sc0 2.237275 1_555
O12 Zn4 1.990313 1_555
O12 Sc0 2.237280 1_555
O13 Zn5 1.990313 1_555
O13 Sc0 2.237280 1_555
