# generated using pymatgen
data_BaIO5
_symmetry_space_group_name_H-M   'P 1'
_cell_length_a   4.84441300
_cell_length_b   7.98789234
_cell_length_c   8.02003874
_cell_angle_alpha   111.32549739
_cell_angle_beta   90.93928825
_cell_angle_gamma   104.78587318
_symmetry_Int_Tables_number   1
_chemical_formula_structural   BaIO5
_chemical_formula_sum   'Ba2 I2 O10'
_cell_volume   277.46361246
_cell_formula_units_Z   2
loop_
 _symmetry_equiv_pos_site_id
 _symmetry_equiv_pos_as_xyz
  1  'x, y, z'
loop_
 _atom_site_type_symbol
 _atom_site_label
 _atom_site_symmetry_multiplicity
 _atom_site_fract_x
 _atom_site_fract_y
 _atom_site_fract_z
 _atom_site_occupancy
  Ba  Ba0  1  0.19583500  0.33852300  0.09872100  1
  Ba  Ba1  1  0.80416500  0.66147700  0.90127900  1
  I  I0  1  0.15449500  0.30156800  0.56382700  1
  I  I1  1  0.84550500  0.69843200  0.43617300  1
  O  O0  1  0.27794700  0.87116800  0.20361600  1
  O  O1  1  0.72205300  0.12883200  0.79638400  1
  O  O2  1  0.42031000  0.74804400  0.15989500  1
  O  O3  1  0.57969000  0.25195600  0.84010500  1
  O  O4  1  0.23569100  0.49626000  0.81438100  1
  O  O5  1  0.76430900  0.50374000  0.18561900  1
  O  O6  1  0.22817100  0.97166400  0.83228900  1
  O  O7  1  0.77182900  0.02833600  0.16771100  1
  O  O8  1  0.54365500  0.08274800  0.20819600  1
  O  O9  1  0.45634500  0.91725200  0.79180400  1
loop_
_geom_bond_atom_site_label_1
_geom_bond_atom_site_label_2
_geom_bond_distance
_geom_bond_site_symmetry_2
Ba0 O5 2.687848 1_555
Ba0 O5 2.717450 1_455
Ba0 O3 2.824472 1_554
Ba0 O4 2.967364 1_554
Ba0 O1 2.975604 1_454
Ba0 O6 2.978050 1_544
Ba0 O7 3.016815 1_455
Ba0 O2 3.020527 1_555
Ba0 O8 3.285981 1_555
Ba1 O4 2.687848 1_555
Ba1 O4 2.717450 1_655
Ba1 O2 2.824472 1_556
Ba1 O5 2.967364 1_556
Ba1 O0 2.975604 1_656
Ba1 O7 2.978050 1_566
Ba1 O6 3.016815 1_655
Ba1 O3 3.020527 1_555
Ba1 O9 3.285981 1_555
I0 O4 2.000025 1_555
I1 O5 2.000025 1_555
O0 O2 1.291965 1_555
O0 O8 1.832349 1_565
O1 O3 1.291965 1_555
O1 O9 1.832349 1_545
O6 O9 1.292486 1_555
O7 O8 1.292486 1_555
