# generated using pymatgen
data_BaNaSmMnO6
_symmetry_space_group_name_H-M   'P 1'
_cell_length_a   5.93611617
_cell_length_b   5.93611617
_cell_length_c   5.93611617
_cell_angle_alpha   60.00000000
_cell_angle_beta   60.00000000
_cell_angle_gamma   60.00000000
_symmetry_Int_Tables_number   1
_chemical_formula_structural   BaNaSmMnO6
_chemical_formula_sum   'Ba1 Na1 Sm1 Mn1 O6'
_cell_volume   147.90817465
_cell_formula_units_Z   1
loop_
 _symmetry_equiv_pos_site_id
 _symmetry_equiv_pos_as_xyz
  1  'x, y, z'
loop_
 _atom_site_type_symbol
 _atom_site_label
 _atom_site_symmetry_multiplicity
 _atom_site_fract_x
 _atom_site_fract_y
 _atom_site_fract_z
 _atom_site_occupancy
  Ba  Ba0  1  0.75000000  0.75000000  0.75000000  1
  Na  Na0  1  0.25000000  0.25000000  0.25000000  1
  Sm  Sm0  1  0.50000000  0.50000000  0.50000000  1
  Mn  Mn0  1  0.00000000  0.00000000  0.00000000  1
  O  O0  1  0.77224411  0.22775589  0.22775589  1
  O  O1  1  0.22775589  0.77224411  0.77224411  1
  O  O2  1  0.77224411  0.22775589  0.77224411  1
  O  O3  1  0.22775589  0.77224411  0.22775589  1
  O  O4  1  0.77224411  0.77224411  0.22775589  1
  O  O5  1  0.22775589  0.22775589  0.77224411  1
loop_
_geom_bond_atom_site_label_1
_geom_bond_atom_site_label_2
_geom_bond_distance
_geom_bond_site_symmetry_2
Ba0 O1 2.973927 1_555
Ba0 O0 2.973927 1_556
Ba0 O2 2.973927 1_555
Ba0 O4 2.973927 1_555
Ba0 O0 2.973927 1_565
Ba0 O4 2.973927 1_556
Ba0 O3 2.973927 1_655
Ba0 O3 2.973927 1_556
Ba0 O1 2.973927 1_655
Ba0 O5 2.973927 1_655
Ba0 O5 2.973927 1_565
Ba0 O2 2.973927 1_565
Na0 O0 2.973927 1_455
Na0 O1 2.973927 1_554
Na0 O3 2.973927 1_545
Na0 O2 2.973927 1_455
Na0 O1 2.973927 1_545
Na0 O5 2.973927 1_555
Na0 O5 2.973927 1_554
Na0 O4 2.973927 1_545
Na0 O4 2.973927 1_455
Na0 O2 2.973927 1_554
Na0 O3 2.973927 1_555
Na0 O0 2.973927 1_555
Mn0 O2 1.911996 1_454
Mn0 O4 1.911996 1_445
Mn0 O1 1.911996 1_544
Mn0 O0 1.911996 1_455
Mn0 O3 1.911996 1_545
Mn0 O5 1.911996 1_554
O0 Sm0 2.285472 1_555
O1 Sm0 2.285472 1_555
O2 Sm0 2.285472 1_555
O3 Sm0 2.285472 1_555
O4 Sm0 2.285472 1_555
O5 Sm0 2.285472 1_555
