# generated using pymatgen
data_Li4MnCo2O7
_symmetry_space_group_name_H-M   'P 1'
_cell_length_a   5.02167000
_cell_length_b   5.11718843
_cell_length_c   10.17036880
_cell_angle_alpha   100.67757204
_cell_angle_beta   98.72846660
_cell_angle_gamma   99.72537834
_symmetry_Int_Tables_number   1
_chemical_formula_structural   Li4MnCo2O7
_chemical_formula_sum   'Li8 Mn2 Co4 O14'
_cell_volume   248.56853991
_cell_formula_units_Z   2
loop_
 _symmetry_equiv_pos_site_id
 _symmetry_equiv_pos_as_xyz
  1  'x, y, z'
loop_
 _atom_site_type_symbol
 _atom_site_label
 _atom_site_symmetry_multiplicity
 _atom_site_fract_x
 _atom_site_fract_y
 _atom_site_fract_z
 _atom_site_occupancy
  Li  Li0  1  0.29917600  0.57686000  0.06239700  1
  Li  Li1  1  0.42631700  0.86039300  0.35924500  1
  Li  Li2  1  0.84302700  0.71377900  0.20986900  1
  Li  Li3  1  0.00453000  0.00224200  0.50727000  1
  Li  Li4  1  0.58923900  0.13362800  0.65550100  1
  Li  Li5  1  0.15762700  0.28566800  0.78915800  1
  Li  Li6  1  0.70279100  0.42182700  0.92300100  1
  Li  Li7  1  0.43572800  0.85867500  0.86215700  1
  Mn  Mn0  1  0.99908500  0.99838400  0.99669200  1
  Mn  Mn1  1  0.13703700  0.28987700  0.28242800  1
  Co  Co0  1  0.28398000  0.57770700  0.58116800  1
  Co  Co1  1  0.56697800  0.14504600  0.14002000  1
  Co  Co2  1  0.71011100  0.43759500  0.43286100  1
  Co  Co3  1  0.85542100  0.70596500  0.72166400  1
  O  O0  1  0.06050400  0.66710600  0.90020700  1
  O  O1  1  0.21653700  0.96149200  0.17321300  1
  O  O2  1  0.66175200  0.82245900  0.04215700  1
  O  O3  1  0.78491100  0.10238700  0.31130400  1
  O  O4  1  0.33752200  0.23104300  0.44875700  1
  O  O5  1  0.92721300  0.36082900  0.60039800  1
  O  O6  1  0.51415400  0.49874300  0.74126800  1
  O  O7  1  0.47940800  0.47387300  0.24714000  1
  O  O8  1  0.64736800  0.76612600  0.53335200  1
  O  O9  1  0.06724400  0.61641200  0.38411000  1
  O  O10  1  0.20861100  0.89736300  0.67213700  1
  O  O11  1  0.81466200  0.06301400  0.83268000  1
  O  O12  1  0.34940300  0.20107200  0.97789800  1
  O  O13  1  0.91966400  0.33043500  0.11194800  1
loop_
_geom_bond_atom_site_label_1
_geom_bond_atom_site_label_2
_geom_bond_distance
_geom_bond_site_symmetry_2
Li0 O12 2.029106 1_554
Li0 O0 2.059113 1_554
Li0 O2 2.091284 1_555
Li0 O7 2.153861 1_555
Li0 O1 2.216364 1_555
Li0 O13 2.278413 1_455
Li1 O9 2.090178 1_555
Li1 O4 2.096212 1_565
Li1 O8 2.121616 1_555
Li1 O7 2.172060 1_555
Li1 O3 2.179609 1_565
Li1 O1 2.213375 1_555
Li2 O2 2.024508 1_555
Li2 O9 2.137162 1_655
Li2 O7 2.147126 1_555
Li2 O3 2.152005 1_565
Li2 O13 2.152998 1_555
Li2 O1 2.201794 1_655
Li3 O5 2.030562 1_455
Li3 O10 2.036559 1_545
Li3 O8 2.068350 1_445
Li3 O4 2.102353 1_555
Li3 O9 2.231509 1_545
Li3 O3 2.313752 1_455
Li4 O6 2.031681 1_555
Li4 O5 2.099931 1_555
Li4 O11 2.102260 1_555
Li4 O10 2.130013 1_545
Li4 O8 2.143568 1_545
Li4 O4 2.462135 1_555
Li5 O11 2.053177 1_455
Li5 O6 2.105563 1_555
Li5 O12 2.165004 1_555
Li5 O10 2.195065 1_545
Li5 O5 2.218556 1_455
Li5 O0 2.234998 1_555
Li6 O0 2.080469 1_655
Li6 O6 2.081485 1_555
Li6 O11 2.100199 1_555
Li6 O12 2.143401 1_555
Li6 O13 2.228785 1_556
Li6 O2 2.238731 1_556
Li7 O2 2.059151 1_556
Li7 O12 2.071388 1_565
Li7 O0 2.097371 1_555
Li7 O11 2.102681 1_565
Li7 O6 2.147554 1_555
Li7 O10 2.150324 1_555
Mn0 O0 1.893111 1_655
Mn0 O11 1.894346 1_565
Mn0 O12 1.940643 1_665
Mn0 O2 1.941793 1_556
Mn0 O1 2.012793 1_656
Mn0 O13 2.013217 1_566
Mn1 O9 1.910983 1_555
Mn1 O7 1.933079 1_555
Mn1 O4 1.933925 1_555
Mn1 O3 1.955080 1_455
Mn1 O13 1.968831 1_455
Mn1 O1 1.971421 1_545
Co0 O10 1.851892 1_555
Co0 O6 1.995234 1_555
Co0 O5 1.998663 1_455
Co0 O8 2.084402 1_555
Co0 O4 2.102017 1_555
Co0 O9 2.190506 1_555
Co1 O12 1.931025 1_554
Co1 O2 1.934536 1_545
Co1 O13 1.950480 1_555
Co1 O1 1.957667 1_545
Co1 O3 1.980654 1_555
Co1 O7 1.981853 1_555
Co2 O8 1.900024 1_555
Co2 O5 2.018694 1_555
Co2 O4 2.032490 1_555
Co2 O9 2.045238 1_655
Co2 O3 2.045631 1_555
Co2 O7 2.117269 1_555
Co3 O6 1.915503 1_555
Co3 O0 2.008201 1_655
Co3 O11 2.021630 1_565
Co3 O10 2.055658 1_655
Co3 O5 2.076813 1_555
Co3 O8 2.138734 1_555
