# generated using pymatgen
data_Sr4MgMn2Ga2O11
_symmetry_space_group_name_H-M   'P 1'
_cell_length_a   6.41053142
_cell_length_b   5.68089454
_cell_length_c   8.51682621
_cell_angle_alpha   71.46716000
_cell_angle_beta   69.05091954
_cell_angle_gamma   83.94979984
_symmetry_Int_Tables_number   1
_chemical_formula_structural   Sr4MgMn2Ga2O11
_chemical_formula_sum   'Sr4 Mg1 Mn2 Ga2 O11'
_cell_volume   274.62662576
_cell_formula_units_Z   1
loop_
 _symmetry_equiv_pos_site_id
 _symmetry_equiv_pos_as_xyz
  1  'x, y, z'
loop_
 _atom_site_type_symbol
 _atom_site_label
 _atom_site_symmetry_multiplicity
 _atom_site_fract_x
 _atom_site_fract_y
 _atom_site_fract_z
 _atom_site_occupancy
  Sr  Sr0  1  0.99791700  0.50761700  0.77926500  1
  Sr  Sr1  1  0.58696600  0.20079700  0.71359800  1
  Sr  Sr2  1  0.39371300  0.83953900  0.27123200  1
  Sr  Sr3  1  0.95755200  0.35770900  0.24078900  1
  Mg  Mg0  1  0.38530400  0.75847700  0.68849300  1
  Mn  Mn0  1  0.24252000  0.24785100  0.49840000  1
  Mn  Mn1  1  0.82304700  0.79923100  0.47178500  1
  Ga  Ga0  1  0.51794700  0.48039500  0.00903900  1
  Ga  Ga1  1  0.91850500  0.93399700  0.99849400  1
  O  O0  1  0.16362700  0.01964800  0.78300600  1
  O  O1  1  0.66802100  0.72646200  0.73355300  1
  O  O2  1  0.33372900  0.42095400  0.24256800  1
  O  O3  1  0.97921900  0.89180900  0.20532900  1
  O  O4  1  0.56911800  0.02874000  0.46279700  1
  O  O5  1  0.93224900  0.46234600  0.51779400  1
  O  O6  1  0.08242700  0.99551000  0.47879500  1
  O  O7  1  0.37510900  0.51040100  0.54985900  1
  O  O8  1  0.69564800  0.18609700  0.97650100  1
  O  O9  1  0.74972000  0.64923700  0.04788200  1
  O  O10  1  0.28242300  0.47127900  0.92457100  1
loop_
_geom_bond_atom_site_label_1
_geom_bond_atom_site_label_2
_geom_bond_distance
_geom_bond_site_symmetry_2
Mg0 O1 1.961767 1_555
Mg0 O4 2.079967 1_565
Mg0 O10 2.081535 1_555
Mg0 O0 2.089374 1_565
Mg0 O7 2.125292 1_555
Mn0 O6 1.928975 1_545
Mn0 O2 1.975990 1_555
Mn0 O7 2.021956 1_555
Mn0 O5 2.202346 1_455
Mn0 O0 2.252977 1_555
Mn0 O4 2.293771 1_555
Mn1 O5 1.934755 1_555
Mn1 O4 1.983395 1_565
Mn1 O1 2.011292 1_555
Mn1 O3 2.038759 1_555
Mn1 O6 2.125041 1_655
Ga0 O2 1.855266 1_555
Ga0 O10 1.901757 1_554
Ga0 O8 1.958816 1_554
Ga0 O9 2.022531 1_555
Ga0 O1 2.229131 1_554
Ga1 O3 1.874648 1_556
Ga1 O9 1.890912 1_556
Ga1 O0 1.898807 1_665
Ga1 O8 1.927864 1_565
O0 Sr1 2.797887 1_555
O1 Sr0 2.428260 1_555
O1 Sr1 2.652709 1_565
O2 Sr3 2.481300 1_455
O2 Sr2 2.547736 1_555
O3 Sr3 2.741590 1_565
O3 Sr2 2.873627 1_655
O3 Sr3 2.965298 1_555
O4 Sr1 2.656437 1_555
O4 Sr2 2.786195 1_545
O4 Sr3 2.938716 1_555
O5 Sr0 2.501938 1_555
O5 Sr1 2.523228 1_555
O5 Sr3 2.557934 1_555
O6 Sr2 2.447994 1_555
O6 Sr3 2.673062 1_465
O7 Sr2 2.483061 1_555
O7 Sr1 2.484806 1_555
O7 Sr0 2.504901 1_455
O8 Sr0 2.526009 1_555
O8 Sr1 2.547613 1_555
O8 Sr2 2.847954 1_546
O9 Sr3 2.566628 1_555
O9 Sr0 2.590362 1_554
O9 Sr2 2.771013 1_555
O10 Sr0 2.504541 1_455
O10 Sr3 2.678544 1_456
O10 Sr1 2.831148 1_555
