# generated using pymatgen
data_Li5Fe3O8
_symmetry_space_group_name_H-M   'P 1'
_cell_length_a   9.90158200
_cell_length_b   5.81396300
_cell_length_c   5.82577856
_cell_angle_alpha   60.64011850
_cell_angle_beta   90.00000000
_cell_angle_gamma   90.00000000
_symmetry_Int_Tables_number   1
_chemical_formula_structural   Li5Fe3O8
_chemical_formula_sum   'Li10 Fe6 O16'
_cell_volume   292.29863288
_cell_formula_units_Z   2
loop_
 _symmetry_equiv_pos_site_id
 _symmetry_equiv_pos_as_xyz
  1  'x, y, z'
loop_
 _atom_site_type_symbol
 _atom_site_label
 _atom_site_symmetry_multiplicity
 _atom_site_fract_x
 _atom_site_fract_y
 _atom_site_fract_z
 _atom_site_occupancy
  Li  Li0  1  0.05238300  0.83574700  0.82055200  1
  Li  Li1  1  0.53353000  0.65767400  0.67123900  1
  Li  Li2  1  0.28135800  0.66984500  0.66042400  1
  Li  Li3  1  0.04717400  0.33856700  0.82094800  1
  Li  Li4  1  0.54902700  0.16166400  0.67243600  1
  Li  Li5  1  0.04902700  0.83833600  0.32756400  1
  Li  Li6  1  0.54717400  0.66143300  0.17905200  1
  Li  Li7  1  0.78135800  0.33015500  0.33957600  1
  Li  Li8  1  0.03353000  0.34232600  0.32876100  1
  Li  Li9  1  0.55238300  0.16425300  0.17944800  1
  Fe  Fe0  1  0.28771400  0.17010900  0.65935100  1
  Fe  Fe1  1  0.78771400  0.82989100  0.34064900  1
  Fe  Fe2  1  0.78705900  0.33190500  0.83836700  1
  Fe  Fe3  1  0.28687800  0.17028800  0.16170800  1
  Fe  Fe4  1  0.78687800  0.82971200  0.83829200  1
  Fe  Fe5  1  0.28705900  0.66809500  0.16163300  1
  O  O0  1  0.66713600  0.99358100  0.00008200  1
  O  O1  1  0.39407200  0.83924900  0.83875200  1
  O  O2  1  0.67533900  0.49520300  0.98687900  1
  O  O3  1  0.90870200  0.66950000  0.67640200  1
  O  O4  1  0.39645600  0.31950800  0.82641800  1
  O  O5  1  0.67447000  0.97695300  0.50501600  1
  O  O6  1  0.67736200  0.50097800  0.51801100  1
  O  O7  1  0.89562100  0.16981900  0.68805500  1
  O  O8  1  0.39562100  0.83018100  0.31194500  1
  O  O9  1  0.17736200  0.49902200  0.48198900  1
  O  O10  1  0.17447000  0.02304700  0.49498400  1
  O  O11  1  0.16713600  0.00641900  0.99991800  1
  O  O12  1  0.40870200  0.33050000  0.32359800  1
  O  O13  1  0.89645600  0.68049200  0.17358200  1
  O  O14  1  0.17533900  0.50479700  0.01312100  1
  O  O15  1  0.89407200  0.16075100  0.16124800  1
loop_
_geom_bond_atom_site_label_1
_geom_bond_atom_site_label_2
_geom_bond_distance
_geom_bond_site_symmetry_2
Li0 O10 2.054084 1_565
Li0 O14 2.079990 1_556
Li0 O11 2.093876 1_565
Li0 O3 2.111728 1_455
Li0 O7 2.303790 1_465
Li0 O13 2.368116 1_456
Li1 O6 2.110103 1_555
Li1 O2 2.131189 1_555
Li1 O5 2.137367 1_555
Li1 O4 2.186776 1_555
Li1 O1 2.232441 1_555
Li1 O8 2.278883 1_555
Li2 O9 2.034619 1_555
Li2 O1 2.073228 1_555
Li2 O14 2.076369 1_556
Li2 O10 2.079703 1_565
Li2 O8 2.101144 1_555
Li2 O4 2.109797 1_555
Li3 O11 2.062227 1_555
Li3 O7 2.135090 1_455
Li3 O9 2.150582 1_555
Li3 O3 2.168445 1_455
Li3 O14 2.204290 1_556
Li3 O15 2.299451 1_456
Li4 O0 2.033962 1_546
Li4 O6 2.139051 1_555
Li4 O5 2.162048 1_545
Li4 O4 2.176316 1_555
Li4 O1 2.241802 1_545
Li4 O12 2.251222 1_555
Li5 O11 2.033962 1_564
Li5 O9 2.139051 1_555
Li5 O10 2.162048 1_565
Li5 O13 2.176316 1_455
Li5 O15 2.241802 1_465
Li5 O3 2.251222 1_455
Li6 O0 2.062227 1_555
Li6 O8 2.135090 1_555
Li6 O6 2.150582 1_555
Li6 O12 2.168445 1_555
Li6 O2 2.204290 1_554
Li6 O1 2.299451 1_554
Li7 O6 2.034619 1_555
Li7 O15 2.073228 1_555
Li7 O2 2.076369 1_554
Li7 O5 2.079703 1_545
Li7 O7 2.101144 1_555
Li7 O13 2.109797 1_555
Li8 O9 2.110103 1_555
Li8 O14 2.131189 1_555
Li8 O10 2.137367 1_555
Li8 O13 2.186776 1_455
Li8 O15 2.232441 1_455
Li8 O7 2.278883 1_455
Li9 O5 2.054084 1_545
Li9 O2 2.079990 1_554
Li9 O0 2.093876 1_545
Li9 O12 2.111728 1_555
Li9 O8 2.303790 1_545
Li9 O4 2.368116 1_554
Fe0 O4 1.920959 1_555
Fe0 O10 1.925648 1_555
Fe0 O1 1.982479 1_545
Fe0 O9 1.995206 1_555
Fe0 O12 2.083779 1_555
Fe0 O11 2.101453 1_555
Fe1 O13 1.920959 1_555
Fe1 O5 1.925648 1_555
Fe1 O15 1.982479 1_565
Fe1 O6 1.995206 1_555
Fe1 O3 2.083779 1_555
Fe1 O0 2.101453 1_555
Fe2 O7 1.902511 1_555
Fe2 O2 1.918101 1_555
Fe2 O15 1.953401 1_556
Fe2 O6 1.957100 1_555
Fe2 O0 2.085545 1_546
Fe2 O3 2.092232 1_555
Fe3 O12 2.018321 1_555
Fe3 O11 2.020493 1_554
Fe3 O4 2.020798 1_554
Fe3 O14 2.024984 1_555
Fe3 O10 2.027702 1_555
Fe3 O8 2.034281 1_545
Fe4 O3 2.018321 1_555
Fe4 O0 2.020493 1_556
Fe4 O13 2.020798 1_556
Fe4 O2 2.024984 1_555
Fe4 O5 2.027702 1_555
Fe4 O7 2.034281 1_565
Fe5 O8 1.902511 1_555
Fe5 O14 1.918101 1_555
Fe5 O1 1.953401 1_554
Fe5 O9 1.957100 1_555
Fe5 O11 2.085545 1_564
Fe5 O12 2.092232 1_555
