# generated using pymatgen
data_EuLuCuS3
_symmetry_space_group_name_H-M   'P 1'
_cell_length_a   6.66396825
_cell_length_b   6.66396825
_cell_length_c   9.99268900
_cell_angle_alpha   90.00000000
_cell_angle_beta   90.00000000
_cell_angle_gamma   146.30424360
_symmetry_Int_Tables_number   1
_chemical_formula_structural   EuLuCuS3
_chemical_formula_sum   'Eu2 Lu2 Cu2 S6'
_cell_volume   246.19045086
_cell_formula_units_Z   2
loop_
 _symmetry_equiv_pos_site_id
 _symmetry_equiv_pos_as_xyz
  1  'x, y, z'
loop_
 _atom_site_type_symbol
 _atom_site_label
 _atom_site_symmetry_multiplicity
 _atom_site_fract_x
 _atom_site_fract_y
 _atom_site_fract_z
 _atom_site_occupancy
  Eu  Eu0  1  0.25262100  0.74737900  0.25000000  1
  Eu  Eu1  1  0.74737900  0.25262100  0.75000000  1
  Lu  Lu0  1  0.00000000  0.00000000  0.00000000  1
  Lu  Lu1  1  0.00000000  0.00000000  0.50000000  1
  Cu  Cu0  1  0.53187900  0.46812100  0.25000000  1
  Cu  Cu1  1  0.46812100  0.53187900  0.75000000  1
  S  S0  1  0.63915000  0.36085000  0.06410900  1
  S  S1  1  0.36085000  0.63915000  0.93589100  1
  S  S2  1  0.36085000  0.63915000  0.56410900  1
  S  S3  1  0.63915000  0.36085000  0.43589100  1
  S  S4  1  0.92448100  0.07551900  0.25000000  1
  S  S5  1  0.07551900  0.92448100  0.75000000  1
loop_
_geom_bond_atom_site_label_1
_geom_bond_atom_site_label_2
_geom_bond_distance
_geom_bond_site_symmetry_2
Eu0 S4 2.921688 1_565
Eu0 S4 2.921688 1_455
Eu0 S0 3.045643 1_455
Eu0 S3 3.045643 1_455
Eu0 S3 3.045643 1_565
Eu0 S0 3.045643 1_565
Eu0 S1 3.428988 1_554
Eu0 S2 3.428988 1_555
Eu1 S5 2.921688 1_545
Eu1 S5 2.921688 1_655
Eu1 S1 3.045643 1_545
Eu1 S2 3.045643 1_545
Eu1 S2 3.045643 1_655
Eu1 S1 3.045643 1_655
Eu1 S0 3.428988 1_556
Eu1 S3 3.428988 1_555
Lu0 S5 2.677467 1_544
Lu0 S4 2.677467 1_455
Lu0 S0 2.700253 1_445
Lu0 S1 2.700253 1_554
Lu0 S1 2.700253 1_444
Lu0 S0 2.700253 1_555
Lu1 S5 2.677467 1_545
Lu1 S4 2.677467 1_455
Lu1 S2 2.700253 1_555
Lu1 S2 2.700253 1_445
Lu1 S3 2.700253 1_555
Lu1 S3 2.700253 1_445
Cu0 S0 2.307127 1_555
Cu0 S3 2.307127 1_555
Cu0 S4 2.367952 1_565
Cu0 S4 2.367952 1_455
Cu1 S2 2.307127 1_555
Cu1 S1 2.307127 1_555
Cu1 S5 2.367952 1_655
Cu1 S5 2.367952 1_545
