# generated using pymatgen
data_Zn2FeWO6
_symmetry_space_group_name_H-M   'P 1'
_cell_length_a   5.33647843
_cell_length_b   7.61720577
_cell_length_c   5.65867355
_cell_angle_alpha   94.69295943
_cell_angle_beta   90.09071674
_cell_angle_gamma   90.23385369
_symmetry_Int_Tables_number   1
_chemical_formula_structural   Zn2FeWO6
_chemical_formula_sum   'Zn4 Fe2 W2 O12'
_cell_volume   229.24624171
_cell_formula_units_Z   2
loop_
 _symmetry_equiv_pos_site_id
 _symmetry_equiv_pos_as_xyz
  1  'x, y, z'
loop_
 _atom_site_type_symbol
 _atom_site_label
 _atom_site_symmetry_multiplicity
 _atom_site_fract_x
 _atom_site_fract_y
 _atom_site_fract_z
 _atom_site_occupancy
  Zn  Zn0  1  0.51316300  0.28259900  0.93200800  1
  Zn  Zn1  1  0.01302700  0.78248200  0.43114900  1
  Zn  Zn2  1  0.00897700  0.24049200  0.51166300  1
  Zn  Zn3  1  0.50915200  0.74097500  0.01081200  1
  Fe  Fe0  1  0.51252300  0.99195000  0.50870700  1
  Fe  Fe1  1  0.01235400  0.49176400  0.00840100  1
  W  W0  1  0.51074500  0.49495500  0.50269700  1
  W  W1  1  0.01076500  0.99492300  0.00267700  1
  O  O0  1  0.22027800  0.41075900  0.68835900  1
  O  O1  1  0.72090100  0.91002700  0.18854300  1
  O  O2  1  0.16265900  0.04322100  0.32925500  1
  O  O3  1  0.66266400  0.54338100  0.82919100  1
  O  O4  1  0.64641700  0.24957200  0.53706800  1
  O  O5  1  0.14683900  0.74967300  0.03558600  1
  O  O6  1  0.31552100  0.05876200  0.85529200  1
  O  O7  1  0.81587600  0.55796700  0.35516100  1
  O  O8  1  0.87488300  0.22847200  0.01665800  1
  O  O9  1  0.37551700  0.72862000  0.51544200  1
  O  O10  1  0.34888500  0.41756100  0.21248200  1
  O  O11  1  0.84904700  0.91784500  0.71214300  1
loop_
_geom_bond_atom_site_label_1
_geom_bond_atom_site_label_2
_geom_bond_distance
_geom_bond_site_symmetry_2
Fe0 O4 2.079378 1_565
Fe0 O9 2.135420 1_555
Fe0 O2 2.175860 1_565
Fe0 O1 2.176070 1_555
Fe0 O11 2.230916 1_555
Fe0 O6 2.249033 1_565
Fe1 O5 2.082512 1_555
Fe1 O8 2.136827 1_455
Fe1 O0 2.172733 1_554
Fe1 O3 2.174991 1_454
Fe1 O10 2.233125 1_555
Fe1 O7 2.247845 1_455
O0 Zn2 1.930186 1_555
O0 W0 2.006263 1_555
O0 Zn0 2.350035 1_555
O1 Zn3 1.928510 1_555
O1 W1 2.006341 1_655
O1 Zn1 2.341499 1_655
O2 Zn2 1.937762 1_555
O2 W1 2.022142 1_545
O2 Zn1 2.256228 1_545
O3 Zn3 1.937094 1_556
O3 W0 2.021871 1_555
O3 Zn0 2.257997 1_555
O4 Zn2 1.941449 1_655
O4 W0 2.031198 1_555
O4 Zn0 2.340502 1_555
O5 Zn3 1.939782 1_555
O5 W1 2.029636 1_555
O5 Zn1 2.344701 1_555
O6 W1 1.908181 1_546
O6 Zn0 2.017596 1_555
O7 W0 1.908481 1_555
O7 Zn1 2.019913 1_655
O8 W1 1.919522 1_645
O8 Zn0 2.039956 1_554
O9 W0 1.919262 1_555
O9 Zn1 2.042891 1_555
O10 W0 1.903545 1_555
O10 Zn0 2.022152 1_554
O11 W1 1.904145 1_656
O11 Zn1 2.025011 1_655
