# generated using pymatgen
data_LiMg3
_symmetry_space_group_name_H-M   'P 1'
_cell_length_a   6.27104162
_cell_length_b   6.27104162
_cell_length_c   5.06494718
_cell_angle_alpha   90.00000000
_cell_angle_beta   90.00000000
_cell_angle_gamma   120.00000532
_symmetry_Int_Tables_number   1
_chemical_formula_structural   LiMg3
_chemical_formula_sum   'Li2 Mg6'
_cell_volume   172.49833039
_cell_formula_units_Z   2
loop_
 _symmetry_equiv_pos_site_id
 _symmetry_equiv_pos_as_xyz
  1  'x, y, z'
loop_
 _atom_site_type_symbol
 _atom_site_label
 _atom_site_symmetry_multiplicity
 _atom_site_fract_x
 _atom_site_fract_y
 _atom_site_fract_z
 _atom_site_occupancy
  Li  Li0  1  0.33333300  0.66666700  0.25000000  1
  Li  Li1  1  0.66666700  0.33333300  0.75000000  1
  Mg  Mg0  1  0.83263143  0.16736857  0.25000000  1
  Mg  Mg1  1  0.83263143  0.66526186  0.25000000  1
  Mg  Mg2  1  0.33473814  0.16736857  0.25000000  1
  Mg  Mg3  1  0.66526186  0.83263143  0.75000000  1
  Mg  Mg4  1  0.16736857  0.83263143  0.75000000  1
  Mg  Mg5  1  0.16736857  0.33473814  0.75000000  1
loop_
_geom_bond_atom_site_label_1
_geom_bond_atom_site_label_2
_geom_bond_distance
_geom_bond_site_symmetry_2
Li0 Mg5 3.108541 1_554
Li0 Mg3 3.108541 1_555
Li0 Mg3 3.108541 1_554
Li0 Mg5 3.108541 1_555
Li0 Mg4 3.108541 1_554
Li0 Mg4 3.108541 1_555
Li0 Mg1 3.135524 1_455
Li0 Mg2 3.135524 1_565
Li0 Mg0 3.135530 1_455
Li0 Mg0 3.135530 1_565
Li0 Mg1 3.135536 1_555
Li0 Mg2 3.135536 1_555
Li1 Mg1 3.108541 1_556
Li1 Mg2 3.108541 1_555
Li1 Mg2 3.108541 1_556
Li1 Mg1 3.108541 1_555
Li1 Mg0 3.108541 1_556
Li1 Mg0 3.108541 1_555
Li1 Mg3 3.135524 1_545
Li1 Mg5 3.135524 1_655
Li1 Mg4 3.135530 1_545
Li1 Mg4 3.135530 1_655
Li1 Mg5 3.135536 1_555
Li1 Mg3 3.135536 1_555
Mg0 Mg3 3.117410 1_545
Mg0 Mg3 3.117410 1_544
Mg0 Mg5 3.117410 1_654
Mg0 Mg5 3.117410 1_655
Mg0 Mg1 3.122310 1_555
Mg0 Mg2 3.122310 1_555
Mg0 Mg2 3.148732 1_655
Mg0 Mg1 3.148732 1_545
Mg1 Mg4 3.117410 1_655
Mg1 Mg4 3.117410 1_654
Mg1 Mg3 3.117417 1_555
Mg1 Mg3 3.117417 1_554
Mg1 Mg2 3.122309 1_555
Mg1 Mg2 3.148732 1_665
Mg2 Mg4 3.117410 1_544
Mg2 Mg4 3.117410 1_545
Mg2 Mg5 3.117417 1_555
Mg2 Mg5 3.117417 1_554
Mg3 Mg5 3.122309 1_555
Mg3 Mg4 3.122310 1_555
Mg3 Mg5 3.148732 1_665
Mg3 Mg4 3.148732 1_655
Mg4 Mg5 3.122310 1_555
Mg4 Mg5 3.148732 1_565
