# generated using pymatgen
data_Mg2Si3
_symmetry_space_group_name_H-M   'P 1'
_cell_length_a   3.71075200
_cell_length_b   5.74363189
_cell_length_c   19.35145266
_cell_angle_alpha   89.21647473
_cell_angle_beta   93.89723806
_cell_angle_gamma   105.37030007
_symmetry_Int_Tables_number   1
_chemical_formula_structural   Mg2Si3
_chemical_formula_sum   'Mg8 Si12'
_cell_volume   396.76576680
_cell_formula_units_Z   4
loop_
 _symmetry_equiv_pos_site_id
 _symmetry_equiv_pos_as_xyz
  1  'x, y, z'
loop_
 _atom_site_type_symbol
 _atom_site_label
 _atom_site_symmetry_multiplicity
 _atom_site_fract_x
 _atom_site_fract_y
 _atom_site_fract_z
 _atom_site_occupancy
  Mg  Mg0  1  0.01429100  0.61982900  0.85812500  1
  Mg  Mg1  1  0.87928900  0.18522200  0.23003000  1
  Mg  Mg2  1  0.28142900  0.10913300  0.94106300  1
  Mg  Mg3  1  0.76441000  0.00672500  0.07496900  1
  Mg  Mg4  1  0.18263000  0.74608400  0.30641600  1
  Mg  Mg5  1  0.17930500  0.46033100  0.71338600  1
  Mg  Mg6  1  0.64802700  0.67509800  0.45358300  1
  Mg  Mg7  1  0.08893500  0.32134600  0.55802600  1
  Si  Si0  1  0.60139400  0.72696300  0.95675100  1
  Si  Si1  1  0.47157600  0.43378500  0.04754300  1
  Si  Si2  1  0.91852300  0.15179900  0.81749900  1
  Si  Si3  1  0.02419800  0.49412700  0.12254200  1
  Si  Si4  1  0.90496900  0.08347200  0.37185200  1
  Si  Si5  1  0.58807000  0.07252200  0.64914200  1
  Si  Si6  1  0.46357500  0.16446700  0.45433400  1
  Si  Si7  1  0.21659800  0.83766800  0.55388900  1
  Si  Si8  1  0.52114900  0.36913800  0.33538500  1
  Si  Si9  1  0.68684400  0.68846100  0.62257900  1
  Si  Si10  1  0.33221500  0.97721600  0.75992100  1
  Si  Si11  1  0.23241100  0.87657000  0.17305400  1
loop_
_geom_bond_atom_site_label_1
_geom_bond_atom_site_label_2
_geom_bond_distance
_geom_bond_site_symmetry_2
Mg0 Si0 2.701508 1_455
Mg0 Si2 2.735714 1_455
Mg0 Si0 2.742946 1_555
Mg0 Si10 2.851519 1_555
Mg1 Si3 2.703520 1_655
Mg1 Si11 2.748947 1_645
Mg1 Si11 2.749220 1_545
Mg1 Si4 2.798713 1_555
Mg1 Si8 2.865314 1_555
Mg1 Si8 3.001734 1_655
Mg2 Si2 2.704126 1_455
Mg2 Si1 2.725933 1_556
Mg2 Si0 2.763050 1_545
Mg2 Si0 2.903054 1_445
Mg3 Si11 2.716398 1_645
Mg3 Si0 2.752919 1_544
Mg3 Si11 2.783332 1_545
Mg3 Si3 2.851846 1_655
Mg3 Si1 2.962769 1_555
Mg3 Si1 3.150530 1_655
Mg3 Si1 3.219518 1_545
Mg4 Si11 2.682274 1_555
Mg4 Si4 2.779053 1_465
Mg4 Si8 2.809340 1_555
Mg4 Si8 2.891948 1_455
Mg4 Si4 3.065213 1_565
Mg5 Si2 2.719235 1_455
Mg5 Si9 2.725899 1_555
Mg5 Si5 2.904265 1_455
Mg5 Si9 2.985635 1_455
Mg5 Si10 3.009538 1_555
Mg5 Si10 3.086980 1_545
Mg6 Si7 2.745818 1_655
Mg6 Si4 2.798245 1_565
Mg6 Si6 2.829573 1_555
Mg6 Si8 2.840166 1_555
Mg6 Si7 2.909812 1_555
Mg6 Si6 3.064532 1_565
Mg7 Si5 2.752137 1_455
Mg7 Si6 2.804218 1_555
Mg7 Si9 2.853846 1_555
Mg7 Si7 2.877380 1_555
Mg7 Si6 2.920844 1_455
Mg7 Si7 2.942342 1_545
Mg7 Si5 3.077717 1_555
Si0 Si1 2.399712 1_556
Si1 Si3 2.372499 1_555
Si1 Si3 2.379932 1_655
Si4 Si6 2.473898 1_655
Si4 Si6 2.495283 1_555
Si4 Si8 2.507812 1_555
Si4 Si8 2.572361 1_655
Si5 Si9 2.397878 1_545
Si5 Si7 2.419563 1_545
Si6 Si8 2.566267 1_555
Si6 Si7 2.702559 1_545
Si7 Si9 2.407621 1_455
Si7 Si9 2.447965 1_555
Si10 Si2 2.350517 1_565
Si10 Si2 2.383821 1_465
Si10 Si5 2.401188 1_565
Si11 Si3 2.331072 1_555
