# generated using pymatgen
data_Sr6Mg(W2O9)2
_symmetry_space_group_name_H-M   'P 1'
_cell_length_a   8.88579519
_cell_length_b   7.70267701
_cell_length_c   6.83005394
_cell_angle_alpha   87.21042664
_cell_angle_beta   85.72773333
_cell_angle_gamma   73.68132250
_symmetry_Int_Tables_number   1
_chemical_formula_structural   Sr6Mg(W2O9)2
_chemical_formula_sum   'Sr6 Mg1 W4 O18'
_cell_volume   447.21146466
_cell_formula_units_Z   1
loop_
 _symmetry_equiv_pos_site_id
 _symmetry_equiv_pos_as_xyz
  1  'x, y, z'
loop_
 _atom_site_type_symbol
 _atom_site_label
 _atom_site_symmetry_multiplicity
 _atom_site_fract_x
 _atom_site_fract_y
 _atom_site_fract_z
 _atom_site_occupancy
  Sr  Sr0  1  0.23531200  0.80632800  0.63942400  1
  Sr  Sr1  1  0.01605800  0.34560700  0.75954900  1
  Sr  Sr2  1  0.51857900  0.73788500  0.09908800  1
  Sr  Sr3  1  0.48142100  0.26211500  0.90091200  1
  Sr  Sr4  1  0.98394200  0.65439300  0.24045100  1
  Sr  Sr5  1  0.76468800  0.19367200  0.36057600  1
  Mg  Mg0  1  0.50000000  0.00000000  0.50000000  1
  W  W0  1  0.82489900  0.88244900  0.82366700  1
  W  W1  1  0.34224500  0.35417000  0.35591300  1
  W  W2  1  0.17510100  0.11755100  0.17633300  1
  W  W3  1  0.65775500  0.64583000  0.64408700  1
  O  O0  1  0.14804400  0.89704300  0.26921400  1
  O  O1  1  0.02856000  0.75179500  0.86880200  1
  O  O2  1  0.58437100  0.90971400  0.77685600  1
  O  O3  1  0.19667000  0.53300300  0.50325700  1
  O  O4  1  0.18445700  0.18740200  0.45872800  1
  O  O5  1  0.21293600  0.38555000  0.11271700  1
  O  O6  1  0.48740100  0.58479700  0.79603700  1
  O  O7  1  0.49609600  0.75843200  0.45151900  1
  O  O8  1  0.75736900  0.93974000  0.08588000  1
  O  O9  1  0.24263100  0.06026000  0.91412000  1
  O  O10  1  0.50390400  0.24156800  0.54848100  1
  O  O11  1  0.81554300  0.81259800  0.54127200  1
  O  O12  1  0.51259900  0.41520300  0.20396300  1
  O  O13  1  0.78706400  0.61445000  0.88728300  1
  O  O14  1  0.80333000  0.46699700  0.49674300  1
  O  O15  1  0.41562900  0.09028600  0.22314400  1
  O  O16  1  0.97144000  0.24820500  0.13119800  1
  O  O17  1  0.85195600  0.10295700  0.73078600  1
loop_
_geom_bond_atom_site_label_1
_geom_bond_atom_site_label_2
_geom_bond_distance
_geom_bond_site_symmetry_2
Mg0 O10 1.916008 1_555
Mg0 O7 1.916008 1_545
Mg0 O2 2.100376 1_545
Mg0 O15 2.100376 1_555
O0 W2 1.856618 1_565
O0 Sr4 2.695965 1_455
O0 Sr0 2.701633 1_555
O0 Sr2 3.315720 1_555
O1 W0 1.847236 1_455
O1 Sr0 2.438606 1_555
O1 Sr4 2.644863 1_456
O2 W0 2.134793 1_555
O2 W3 2.173826 1_555
O2 Sr2 2.626199 1_556
O2 Sr3 2.763309 1_565
O3 W1 1.877014 1_555
O3 Sr0 2.461643 1_555
O3 Sr4 2.649194 1_455
O3 Sr1 2.891489 1_555
O4 W2 2.041226 1_555
O4 W1 2.210576 1_555
O4 Sr1 2.589688 1_555
O4 Sr0 3.054239 1_545
O5 W1 2.055948 1_555
O5 W2 2.200938 1_555
O5 Sr4 2.594846 1_455
O5 Sr3 2.652040 1_554
O5 Sr1 3.158647 1_554
O6 W3 1.925572 1_555
O6 Sr2 2.501625 1_556
O6 Sr3 2.566895 1_555
O6 Sr0 2.665510 1_555
O7 W3 2.003973 1_555
O7 Sr2 2.409744 1_555
O7 Sr0 2.505104 1_555
O8 W0 1.878893 1_554
O8 Sr4 2.757336 1_555
O8 Sr5 2.792300 1_565
O8 Sr2 2.956281 1_555
O8 Sr3 3.241763 1_564
O9 W2 1.878893 1_556
O9 Sr1 2.757336 1_555
O9 Sr0 2.792300 1_545
O9 Sr3 2.956281 1_555
O9 Sr2 3.241763 1_546
O10 W1 2.003973 1_555
O10 Sr3 2.409744 1_555
O10 Sr5 2.505104 1_555
O11 W0 2.041226 1_555
O11 W3 2.210576 1_555
O11 Sr4 2.589688 1_555
O11 Sr5 3.054239 1_565
O12 W1 1.925572 1_555
O12 Sr3 2.501625 1_554
O12 Sr2 2.566895 1_555
O12 Sr5 2.665510 1_555
O13 W3 2.055948 1_555
O13 W0 2.200938 1_555
O13 Sr1 2.594846 1_655
O13 Sr2 2.652040 1_556
O13 Sr4 3.158647 1_556
O14 W3 1.877014 1_555
O14 Sr5 2.461643 1_555
O14 Sr1 2.649194 1_655
O14 Sr4 2.891489 1_555
O15 W2 2.134793 1_555
O15 W1 2.173826 1_555
O15 Sr3 2.626199 1_554
O15 Sr2 2.763309 1_545
O16 W2 1.847236 1_655
O16 Sr5 2.438606 1_555
O16 Sr1 2.644863 1_654
O17 W0 1.856618 1_545
O17 Sr1 2.695965 1_655
O17 Sr5 2.701633 1_555
O17 Sr3 3.315720 1_555
