# generated using pymatgen
data_LaSm3Cr4O12
_symmetry_space_group_name_H-M   'P 1'
_cell_length_a   7.79154000
_cell_length_b   5.45994500
_cell_length_c   5.61053127
_cell_angle_alpha   89.93809373
_cell_angle_beta   90.00000000
_cell_angle_gamma   90.00000000
_symmetry_Int_Tables_number   1
_chemical_formula_structural   LaSm3Cr4O12
_chemical_formula_sum   'La1 Sm3 Cr4 O12'
_cell_volume   238.67960289
_cell_formula_units_Z   1
loop_
 _symmetry_equiv_pos_site_id
 _symmetry_equiv_pos_as_xyz
  1  'x, y, z'
loop_
 _atom_site_type_symbol
 _atom_site_label
 _atom_site_symmetry_multiplicity
 _atom_site_fract_x
 _atom_site_fract_y
 _atom_site_fract_z
 _atom_site_occupancy
  La  La0  1  0.50000000  0.48992000  0.54421500  1
  Sm  Sm0  1  0.50000000  0.01467300  0.05421800  1
  Sm  Sm1  1  0.00000000  0.51491400  0.44295700  1
  Sm  Sm2  1  0.00000000  0.98655600  0.94630200  1
  Cr  Cr0  1  0.24748300  0.00068500  0.50059700  1
  Cr  Cr1  1  0.75184900  0.49916000  0.99832800  1
  Cr  Cr2  1  0.75251700  0.00068500  0.50059700  1
  Cr  Cr3  1  0.24815100  0.49916000  0.99832800  1
  O  O0  1  0.29747400  0.19896400  0.79906100  1
  O  O1  1  0.70452700  0.29227800  0.29053800  1
  O  O2  1  0.80281600  0.79378900  0.20696500  1
  O  O3  1  0.19608400  0.70407800  0.70518100  1
  O  O4  1  0.19718400  0.79378900  0.20696500  1
  O  O5  1  0.80391600  0.70407800  0.70518100  1
  O  O6  1  0.70252600  0.19896400  0.79906100  1
  O  O7  1  0.29547300  0.29227800  0.29053800  1
  O  O8  1  0.50000000  0.59682500  0.98048800  1
  O  O9  1  0.50000000  0.91766300  0.47064600  1
  O  O10  1  0.00000000  0.40276400  0.02864100  1
  O  O11  1  0.00000000  0.09877700  0.53119300  1
loop_
_geom_bond_atom_site_label_1
_geom_bond_atom_site_label_2
_geom_bond_distance
_geom_bond_site_symmetry_2
La0 O9 2.371209 1_555
La0 O1 2.394365 1_555
La0 O7 2.394365 1_555
La0 O8 2.516970 1_555
La0 O6 2.655785 1_555
La0 O0 2.655785 1_555
La0 O5 2.791491 1_555
La0 O3 2.791491 1_555
Cr0 O11 2.008668 1_555
Cr0 O7 2.014807 1_555
Cr0 O3 2.023984 1_545
Cr0 O9 2.026060 1_545
Cr0 O0 2.032665 1_555
Cr0 O4 2.036598 1_545
Cr1 O10 2.010990 1_656
Cr1 O6 2.021894 1_555
Cr1 O1 2.023776 1_556
Cr1 O5 2.029157 1_555
Cr1 O2 2.029721 1_556
Cr1 O8 2.035889 1_555
Cr2 O11 2.008668 1_655
Cr2 O1 2.014807 1_555
Cr2 O5 2.023984 1_545
Cr2 O9 2.026060 1_545
Cr2 O6 2.032665 1_555
Cr2 O2 2.036598 1_545
Cr3 O10 2.010990 1_556
Cr3 O0 2.021894 1_555
Cr3 O7 2.023776 1_556
Cr3 O3 2.029157 1_555
Cr3 O4 2.029721 1_556
Cr3 O8 2.035889 1_555
O0 Sm0 2.355588 1_556
O0 Sm2 2.719828 1_545
O1 Sm0 2.568885 1_555
O1 Sm1 2.740665 1_655
O2 Sm2 2.367199 1_654
O2 Sm1 2.535269 1_655
O2 Sm0 2.784503 1_565
O3 Sm1 2.359799 1_555
O3 Sm2 2.558812 1_555
O4 Sm2 2.367199 1_554
O4 Sm1 2.535269 1_555
O4 Sm0 2.784503 1_565
O5 Sm1 2.359799 1_655
O5 Sm2 2.558812 1_655
O6 Sm0 2.355588 1_556
O6 Sm2 2.719828 1_645
O7 Sm0 2.568885 1_555
O7 Sm1 2.740665 1_555
O8 Sm0 2.319066 1_566
O9 Sm0 2.395111 1_565
O10 Sm2 2.319442 1_544
O10 Sm1 2.404471 1_555
O11 Sm1 2.324869 1_555
O11 Sm2 2.407592 1_545
