# generated using pymatgen
data_Sr3TeO6
_symmetry_space_group_name_H-M   'P 1'
_cell_length_a   11.87289012
_cell_length_b   11.91685417
_cell_length_c   11.90936598
_cell_angle_alpha   119.88772060
_cell_angle_beta   119.61103695
_cell_angle_gamma   90.25443649
_symmetry_Int_Tables_number   1
_chemical_formula_structural   Sr3TeO6
_chemical_formula_sum   'Sr24 Te8 O48'
_cell_volume   1197.84479652
_cell_formula_units_Z   8
loop_
 _symmetry_equiv_pos_site_id
 _symmetry_equiv_pos_as_xyz
  1  'x, y, z'
loop_
 _atom_site_type_symbol
 _atom_site_label
 _atom_site_symmetry_multiplicity
 _atom_site_fract_x
 _atom_site_fract_y
 _atom_site_fract_z
 _atom_site_occupancy
  Sr  Sr0  1  0.72276100  0.72041500  0.50237800  1
  Sr  Sr1  1  0.27723900  0.27958500  0.49762200  1
  Sr  Sr2  1  0.27477200  0.77782500  0.05464100  1
  Sr  Sr3  1  0.72522800  0.22217500  0.94535900  1
  Sr  Sr4  1  0.21513200  0.26771800  0.99676600  1
  Sr  Sr5  1  0.78486800  0.73228200  0.00323400  1
  Sr  Sr6  1  0.72587200  0.26584300  0.53312800  1
  Sr  Sr7  1  0.27412800  0.73415700  0.46687200  1
  Sr  Sr8  1  0.36275600  0.12810900  0.20653500  1
  Sr  Sr9  1  0.63724400  0.87189100  0.79346500  1
  Sr  Sr10  1  0.38272400  0.60914200  0.22389200  1
  Sr  Sr11  1  0.61727600  0.39085800  0.77610800  1
  Sr  Sr12  1  0.87013500  0.07708000  0.71432100  1
  Sr  Sr13  1  0.12986500  0.92292000  0.28567900  1
  Sr  Sr14  1  0.64667700  0.88138400  0.25855900  1
  Sr  Sr15  1  0.35332300  0.11861600  0.74144100  1
  Sr  Sr16  1  0.91881300  0.62794000  0.75648900  1
  Sr  Sr17  1  0.08118700  0.37206000  0.24351100  1
  Sr  Sr18  1  0.62312500  0.35114400  0.23179500  1
  Sr  Sr19  1  0.37687500  0.64885600  0.76820500  1
  Sr  Sr20  1  0.86225300  0.13397600  0.27503600  1
  Sr  Sr21  1  0.13774700  0.86602400  0.72496400  1
  Sr  Sr22  1  0.11542200  0.36931200  0.72789100  1
  Sr  Sr23  1  0.88457800  0.63068800  0.27210900  1
  Te  Te0  1  0.50000000  0.50000000  0.50000000  1
  Te  Te1  1  0.50000000  0.00000000  0.50000000  1
  Te  Te2  1  0.00000000  0.50000000  0.00000000  1
  Te  Te3  1  0.50000000  0.00000000  0.00000000  1
  Te  Te4  1  0.00000000  0.00000000  0.50000000  1
  Te  Te5  1  0.00000000  0.50000000  0.50000000  1
  Te  Te6  1  0.50000000  0.50000000  0.00000000  1
  Te  Te7  1  0.00000000  0.00000000  0.00000000  1
  O  O0  1  0.40647400  0.37869500  0.26878100  1
  O  O1  1  0.59352600  0.62130500  0.73121900  1
  O  O2  1  0.67220500  0.51085700  0.51646800  1
  O  O3  1  0.32779500  0.48914300  0.48353200  1
  O  O4  1  0.50202000  0.33487800  0.50301000  1
  O  O5  1  0.49798000  0.66512200  0.49699000  1
  O  O6  1  0.62141500  0.89154400  0.47645200  1
  O  O7  1  0.37858500  0.10845600  0.52354800  1
  O  O8  1  0.48006700  0.00806100  0.33107800  1
  O  O9  1  0.51993300  0.99193900  0.66892200  1
  O  O10  1  0.66489800  0.16836400  0.66306700  1
  O  O11  1  0.33510200  0.83163600  0.33693300  1
  O  O12  1  0.11431900  0.57596200  0.96264700  1
  O  O13  1  0.88568100  0.42403800  0.03735300  1
  O  O14  1  0.00767700  0.68012400  0.15081100  1
  O  O15  1  0.99232300  0.31987600  0.84918900  1
  O  O16  1  0.83452100  0.49455700  0.82757100  1
  O  O17  1  0.16547900  0.50544300  0.17242900  1
  O  O18  1  0.39809400  0.12757700  0.98781300  1
  O  O19  1  0.60190600  0.87242300  0.01218700  1
  O  O20  1  0.35810300  0.89914100  0.98421100  1
  O  O21  1  0.64189700  0.10085900  0.01578900  1
  O  O22  1  0.60750200  0.12557000  0.23410300  1
  O  O23  1  0.39249800  0.87443000  0.76589700  1
  O  O24  1  0.89012500  0.87077800  0.49468700  1
  O  O25  1  0.10987500  0.12922200  0.50531300  1
  O  O26  1  0.88459200  0.89443500  0.27424400  1
  O  O27  1  0.11540800  0.10556500  0.72575600  1
  O  O28  1  0.87150000  0.10670600  0.49963100  1
  O  O29  1  0.12850000  0.89329400  0.50036900  1
  O  O30  1  0.13847900  0.60571000  0.72999500  1
  O  O31  1  0.86152100  0.39429000  0.27000500  1
  O  O32  1  0.91401800  0.63946600  0.53835200  1
  O  O33  1  0.08598200  0.36053400  0.46164800  1
  O  O34  1  0.89222200  0.39196700  0.52028500  1
  O  O35  1  0.10777800  0.60803300  0.47971500  1
  O  O36  1  0.34027700  0.39683500  0.96027900  1
  O  O37  1  0.65972300  0.60316500  0.03972100  1
  O  O38  1  0.44136500  0.66115300  0.05930400  1
  O  O39  1  0.55863500  0.33884700  0.94069600  1
  O  O40  1  0.60571100  0.56003100  0.21981500  1
  O  O41  1  0.39428900  0.43996900  0.78018500  1
  O  O42  1  0.09029900  0.86855600  0.02240100  1
  O  O43  1  0.90970100  0.13144400  0.97759900  1
  O  O44  1  0.10346200  0.04178600  0.93089200  1
  O  O45  1  0.89653800  0.95821400  0.06910800  1
  O  O46  1  0.14810600  0.14630200  0.21724300  1
  O  O47  1  0.85189400  0.85369800  0.78275700  1
loop_
_geom_bond_atom_site_label_1
_geom_bond_atom_site_label_2
_geom_bond_distance
_geom_bond_site_symmetry_2
O0 Te0 1.975434 1_555
O0 Sr4 2.415643 1_554
O0 Sr8 2.671355 1_555
O0 Sr18 2.810955 1_555
O0 Sr10 3.037759 1_555
O1 Te0 1.975434 1_555
O1 Sr5 2.415643 1_556
O1 Sr9 2.671355 1_555
O1 Sr19 2.810955 1_555
O1 Sr11 3.037759 1_555
O2 Te0 1.952325 1_555
O2 Sr16 2.531527 1_555
O2 Sr18 2.657652 1_555
O2 Sr0 2.669957 1_555
O2 Sr6 3.072380 1_555
O3 Te0 1.952325 1_555
O3 Sr17 2.531527 1_555
O3 Sr19 2.657652 1_555
O3 Sr1 2.669957 1_555
O3 Sr7 3.072380 1_555
O4 Te0 1.985877 1_555
O4 Sr11 2.515386 1_555
O4 Sr8 2.606938 1_555
O4 Sr6 2.690841 1_555
O4 Sr1 2.708098 1_555
O5 Te0 1.985877 1_555
O5 Sr10 2.515386 1_555
O5 Sr9 2.606938 1_555
O5 Sr7 2.690841 1_555
O5 Sr0 2.708098 1_555
O6 Te1 1.970272 1_565
O6 Sr0 2.446260 1_555
O6 Sr12 2.658358 1_565
O6 Sr14 2.700893 1_555
O6 Sr10 3.131698 1_555
O7 Te1 1.970272 1_555
O7 Sr1 2.446260 1_555
O7 Sr13 2.658358 1_545
O7 Sr15 2.700893 1_555
O7 Sr11 3.131698 1_555
O8 Te1 1.958237 1_555
O8 Sr8 2.505468 1_555
O8 Sr2 2.704815 1_545
O8 Sr14 2.711697 1_545
O8 Sr6 3.059072 1_555
O9 Te1 1.958237 1_565
O9 Sr9 2.505468 1_555
O9 Sr3 2.704815 1_565
O9 Sr15 2.711697 1_565
O9 Sr7 3.059072 1_555
O10 Te1 1.988621 1_555
O10 Sr11 2.523949 1_555
O10 Sr12 2.590200 1_555
O10 Sr6 2.675701 1_555
O10 Sr3 2.773883 1_555
O11 Te1 1.988621 1_565
O11 Sr10 2.523949 1_555
O11 Sr13 2.590200 1_555
O11 Sr7 2.675701 1_555
O11 Sr2 2.773883 1_555
O12 Te2 1.961295 1_556
O12 Sr2 2.426200 1_556
O12 Sr22 2.656314 1_555
O12 Sr16 2.774213 1_455
O12 Sr10 2.992730 1_556
O13 Te2 1.961295 1_655
O13 Sr3 2.426200 1_554
O13 Sr23 2.656314 1_555
O13 Sr17 2.774213 1_655
O13 Sr11 2.992730 1_554
O14 Te2 1.958563 1_555
O14 Sr13 2.466683 1_555
O14 Sr5 2.642362 1_455
O14 Sr23 2.738051 1_455
O15 Te2 1.958563 1_656
O15 Sr12 2.466683 1_555
O15 Sr4 2.642362 1_655
O15 Sr22 2.738051 1_655
O16 Te2 1.990057 1_656
O16 Sr11 2.492052 1_555
O16 Sr16 2.531572 1_555
O16 Sr6 2.713425 1_555
O16 Sr5 2.841972 1_556
O17 Te2 1.990057 1_555
O17 Sr10 2.492052 1_555
O17 Sr17 2.531572 1_555
O17 Sr7 2.713425 1_555
O17 Sr4 2.841972 1_554
O18 Te3 1.964444 1_556
O18 Sr15 2.655003 1_555
O18 Sr18 2.688723 1_556
O18 Sr4 2.757333 1_555
O18 Sr8 2.832818 1_556
O18 Sr21 3.114047 1_545
O19 Te3 1.964444 1_565
O19 Sr14 2.655003 1_555
O19 Sr19 2.688723 1_554
O19 Sr5 2.757333 1_555
O19 Sr9 2.832818 1_554
O19 Sr20 3.114047 1_565
O20 Te3 1.939588 1_566
O20 Sr2 2.405904 1_556
O20 Sr8 2.666982 1_566
O20 Sr21 2.706856 1_555
O20 Sr19 2.913619 1_555
O21 Te3 1.939588 1_555
O21 Sr3 2.405904 1_554
O21 Sr9 2.666982 1_544
O21 Sr20 2.706856 1_555
O21 Sr18 2.913619 1_555
O22 Te3 1.987455 1_555
O22 Sr6 2.559695 1_555
O22 Sr18 2.708406 1_555
O22 Sr8 2.760527 1_555
O22 Sr20 2.808490 1_555
O22 Sr14 3.080853 1_545
O23 Te3 1.987455 1_566
O23 Sr7 2.559695 1_555
O23 Sr19 2.708406 1_555
O23 Sr9 2.760527 1_555
O23 Sr21 2.808490 1_555
O23 Sr15 3.080853 1_565
O24 Te4 1.969935 1_665
O24 Sr12 2.674359 1_565
O24 Sr0 2.734864 1_555
O24 Sr23 2.735744 1_555
O24 Sr21 2.890730 1_655
O24 Sr14 2.933192 1_555
O25 Te4 1.969935 1_555
O25 Sr13 2.674359 1_545
O25 Sr1 2.734864 1_555
O25 Sr22 2.735744 1_555
O25 Sr20 2.890730 1_455
O25 Sr15 2.933192 1_555
O26 Te4 1.913639 1_665
O26 Sr5 2.353855 1_555
O26 Sr14 2.735678 1_555
O26 Sr13 2.857855 1_655
O26 Sr20 2.863808 1_565
O26 Sr23 3.130441 1_555
O27 Te4 1.913639 1_555
O27 Sr4 2.353855 1_555
O27 Sr15 2.735678 1_555
O27 Sr12 2.857855 1_455
O27 Sr21 2.863808 1_545
O27 Sr22 3.130441 1_555
O28 Te4 1.990180 1_655
O28 Sr6 2.588791 1_555
O28 Sr14 2.694062 1_545
O28 Sr12 2.757310 1_555
O28 Sr20 2.801522 1_555
O28 Sr22 3.038364 1_655
O29 Te4 1.990180 1_565
O29 Sr7 2.588791 1_555
O29 Sr15 2.694062 1_565
O29 Sr13 2.757310 1_555
O29 Sr21 2.801522 1_555
O29 Sr23 3.038364 1_455
O30 Te5 1.971082 1_555
O30 Sr19 2.638928 1_555
O30 Sr2 2.767403 1_556
O30 Sr16 2.776296 1_455
O30 Sr22 2.815628 1_555
O30 Sr21 3.132379 1_555
O31 Te5 1.971082 1_655
O31 Sr18 2.638928 1_555
O31 Sr3 2.767403 1_554
O31 Sr17 2.776296 1_655
O31 Sr23 2.815628 1_555
O31 Sr20 3.132379 1_555
O32 Te5 1.931918 1_655
O32 Sr0 2.395926 1_555
O32 Sr16 2.642079 1_555
O32 Sr21 2.721569 1_655
O32 Sr23 2.959876 1_555
O33 Te5 1.931918 1_555
O33 Sr1 2.395926 1_555
O33 Sr17 2.642079 1_555
O33 Sr20 2.721569 1_455
O33 Sr22 2.959876 1_555
O34 Te5 1.988488 1_655
O34 Sr6 2.585444 1_555
O34 Sr16 2.674216 1_555
O34 Sr22 2.721265 1_655
O34 Sr20 2.850209 1_555
O34 Sr18 3.117922 1_555
O35 Te5 1.988488 1_555
O35 Sr7 2.585444 1_555
O35 Sr17 2.674216 1_555
O35 Sr23 2.721265 1_455
O35 Sr21 2.850209 1_555
O35 Sr19 3.117922 1_555
O36 Te6 1.960771 1_556
O36 Sr4 2.459288 1_555
O36 Sr22 2.584640 1_555
O36 Sr10 2.649610 1_556
O36 Sr15 3.098518 1_555
O37 Te6 1.960771 1_555
O37 Sr5 2.459288 1_555
O37 Sr23 2.584640 1_555
O37 Sr11 2.649610 1_554
O37 Sr14 3.098518 1_555
O38 Te6 1.953859 1_555
O38 Sr2 2.416872 1_555
O38 Sr14 2.545809 1_555
O38 Sr10 2.695672 1_555
O38 Sr19 3.081554 1_554
O39 Te6 1.953859 1_556
O39 Sr3 2.416872 1_555
O39 Sr15 2.545809 1_555
O39 Sr11 2.695672 1_555
O39 Sr18 3.081554 1_556
O40 Te6 1.954196 1_555
O40 Sr0 2.419405 1_555
O40 Sr18 2.566898 1_555
O40 Sr10 2.732509 1_555
O40 Sr23 3.078015 1_555
O41 Te6 1.954196 1_556
O41 Sr1 2.419405 1_555
O41 Sr19 2.566898 1_555
O41 Sr11 2.732509 1_555
O41 Sr22 3.078015 1_555
O42 Te7 1.955232 1_565
O42 Sr2 2.391087 1_555
O42 Sr16 2.631126 1_454
O42 Sr13 2.643651 1_555
O43 Te7 1.955232 1_656
O43 Sr3 2.391087 1_555
O43 Sr17 2.631126 1_656
O43 Sr12 2.643651 1_555
O44 Te7 1.958673 1_556
O44 Sr21 2.538142 1_545
O44 Sr4 2.541198 1_555
O44 Sr8 2.816290 1_556
O44 Sr12 2.921332 1_455
O45 Te7 1.958673 1_665
O45 Sr20 2.538142 1_565
O45 Sr5 2.541198 1_555
O45 Sr9 2.816290 1_554
O45 Sr13 2.921332 1_655
O46 Te7 1.951151 1_555
O46 Sr1 2.378406 1_555
O46 Sr8 2.618535 1_555
O46 Sr17 2.718974 1_555
O46 Sr13 3.182615 1_545
O47 Te7 1.951151 1_666
O47 Sr0 2.378406 1_555
O47 Sr9 2.618535 1_555
O47 Sr16 2.718974 1_555
O47 Sr12 3.182615 1_565
