# generated using pymatgen
data_Y2Al
_symmetry_space_group_name_H-M   'P 1'
_cell_length_a   5.11281294
_cell_length_b   6.60922911
_cell_length_c   9.49026386
_cell_angle_alpha   90.00000000
_cell_angle_beta   90.00000000
_cell_angle_gamma   90.00000000
_symmetry_Int_Tables_number   1
_chemical_formula_structural   Y2Al
_chemical_formula_sum   'Y8 Al4'
_cell_volume   320.69264388
_cell_formula_units_Z   4
loop_
 _symmetry_equiv_pos_site_id
 _symmetry_equiv_pos_as_xyz
  1  'x, y, z'
loop_
 _atom_site_type_symbol
 _atom_site_label
 _atom_site_symmetry_multiplicity
 _atom_site_fract_x
 _atom_site_fract_y
 _atom_site_fract_z
 _atom_site_occupancy
  Y  Y0  1  0.75000000  0.18696886  0.92720000  1
  Y  Y1  1  0.25000000  0.81303114  0.07280000  1
  Y  Y2  1  0.75000000  0.68696886  0.57280000  1
  Y  Y3  1  0.25000000  0.31303114  0.42720000  1
  Y  Y4  1  0.75000000  0.02741256  0.29249615  1
  Y  Y5  1  0.25000000  0.97258744  0.70750385  1
  Y  Y6  1  0.75000000  0.52741256  0.20750385  1
  Y  Y7  1  0.25000000  0.47258744  0.79249615  1
  Al  Al0  1  0.75000000  0.70979105  0.89574049  1
  Al  Al1  1  0.25000000  0.29020895  0.10425951  1
  Al  Al2  1  0.75000000  0.20979105  0.60425951  1
  Al  Al3  1  0.25000000  0.79020895  0.39574049  1
loop_
_geom_bond_atom_site_label_1
_geom_bond_atom_site_label_2
_geom_bond_distance
_geom_bond_site_symmetry_2
Y0 Y7 3.425338 1_555
Y0 Y7 3.425338 1_655
Y0 Y6 3.484143 1_556
Y0 Y5 3.590254 1_645
Y0 Y5 3.590254 1_545
Y0 Y4 3.623599 1_556
Y0 Y1 3.814781 1_546
Y0 Y1 3.814781 1_646
Y1 Y6 3.425338 1_455
Y1 Y6 3.425338 1_555
Y1 Y7 3.484143 1_554
Y1 Y4 3.590254 1_565
Y1 Y4 3.590254 1_465
Y1 Y5 3.623599 1_554
Y2 Y5 3.425338 1_655
Y2 Y5 3.425338 1_555
Y2 Y4 3.484143 1_565
Y2 Y7 3.590254 1_655
Y2 Y7 3.590254 1_555
Y2 Y6 3.623599 1_555
Y2 Y3 3.814781 1_655
Y2 Y3 3.814781 1_555
Y3 Y4 3.425338 1_555
Y3 Y4 3.425338 1_455
Y3 Y5 3.484143 1_545
Y3 Y6 3.590254 1_455
Y3 Y6 3.590254 1_555
Y3 Y7 3.623599 1_555
Y4 Y6 3.401629 1_545
Y4 Y6 3.401629 1_555
Y5 Y7 3.401629 1_555
Y5 Y7 3.401629 1_565
Al0 Y2 3.068500 1_555
Al0 Y1 3.134381 1_556
Al0 Y1 3.134381 1_656
Al0 Y7 3.154844 1_555
Al0 Y7 3.154844 1_655
Al0 Y0 3.167878 1_565
Al0 Y6 3.194831 1_556
Al0 Y0 3.468326 1_555
Al0 Y5 3.569769 1_655
Al0 Y5 3.569769 1_555
Al1 Y3 3.068500 1_555
Al1 Y0 3.134381 1_554
Al1 Y0 3.134381 1_454
Al1 Y6 3.154844 1_455
Al1 Y6 3.154844 1_555
Al1 Y1 3.167878 1_545
Al1 Y7 3.194831 1_554
Al1 Y1 3.468326 1_555
Al1 Y4 3.569769 1_555
Al1 Y4 3.569769 1_455
Al2 Y0 3.068500 1_555
Al2 Y3 3.134381 1_555
Al2 Y3 3.134381 1_655
Al2 Y5 3.154844 1_645
Al2 Y5 3.154844 1_545
Al2 Y2 3.167878 1_555
Al2 Y4 3.194831 1_555
Al2 Y2 3.468326 1_545
Al2 Y7 3.569769 1_555
Al2 Y7 3.569769 1_655
Al3 Y1 3.068500 1_555
Al3 Y2 3.134381 1_455
Al3 Y2 3.134381 1_555
Al3 Y4 3.154844 1_565
Al3 Y4 3.154844 1_465
Al3 Y3 3.167878 1_555
Al3 Y5 3.194831 1_555
Al3 Y3 3.468326 1_565
Al3 Y6 3.569769 1_455
Al3 Y6 3.569769 1_555
