# generated using pymatgen
data_Li2Ti2MnNiO8
_symmetry_space_group_name_H-M   'P 1'
_cell_length_a   5.94886743
_cell_length_b   8.37256568
_cell_length_c   5.96235068
_cell_angle_alpha   90.97388510
_cell_angle_beta   89.99959789
_cell_angle_gamma   90.00006215
_symmetry_Int_Tables_number   1
_chemical_formula_structural   Li2Ti2MnNiO8
_chemical_formula_sum   'Li4 Ti4 Mn2 Ni2 O16'
_cell_volume   296.92559115
_cell_formula_units_Z   2
loop_
 _symmetry_equiv_pos_site_id
 _symmetry_equiv_pos_as_xyz
  1  'x, y, z'
loop_
 _atom_site_type_symbol
 _atom_site_label
 _atom_site_symmetry_multiplicity
 _atom_site_fract_x
 _atom_site_fract_y
 _atom_site_fract_z
 _atom_site_occupancy
  Li  Li0  1  0.50000000  0.74852000  0.01105300  1
  Li  Li1  1  0.00000000  0.24852900  0.51105300  1
  Li  Li2  1  0.50000000  0.50148100  0.48894800  1
  Li  Li3  1  0.00000000  0.00147200  0.98894800  1
  Ti  Ti0  1  0.74999900  0.37500500  0.00000000  1
  Ti  Ti1  1  0.25000000  0.87499500  0.49999900  1
  Ti  Ti2  1  0.74999900  0.87499400  0.49999900  1
  Ti  Ti3  1  0.25000100  0.37500400  0.99999800  1
  Mn  Mn0  1  0.50000400  0.12499700  0.74999900  1
  Mn  Mn1  1  0.99999700  0.62500100  0.25000500  1
  Ni  Ni0  1  0.99999600  0.62500200  0.74999900  1
  Ni  Ni1  1  0.50000200  0.12500200  0.24999800  1
  O  O0  1  0.00000100  0.87278600  0.71382200  1
  O  O1  1  0.50000100  0.37277600  0.21381700  1
  O  O2  1  0.99999900  0.37721400  0.78617900  1
  O  O3  1  0.49999900  0.87722500  0.28618300  1
  O  O4  1  0.00000100  0.86103500  0.27013200  1
  O  O5  1  0.50000100  0.36103100  0.77012500  1
  O  O6  1  0.49999900  0.88897000  0.72987700  1
  O  O7  1  0.00000100  0.38896400  0.22986900  1
  O  O8  1  0.77488300  0.64045000  0.48434800  1
  O  O9  1  0.27491500  0.14046400  0.98436000  1
  O  O10  1  0.22511000  0.64044800  0.48434900  1
  O  O11  1  0.72508100  0.14046200  0.98436200  1
  O  O12  1  0.72508700  0.10953600  0.51563800  1
  O  O13  1  0.22511600  0.60954900  0.01565000  1
  O  O14  1  0.77489100  0.60955100  0.01565400  1
  O  O15  1  0.27491800  0.10953700  0.51563800  1
loop_
_geom_bond_atom_site_label_1
_geom_bond_atom_site_label_2
_geom_bond_distance
_geom_bond_site_symmetry_2
Li0 O3 1.947330 1_555
Li0 O13 2.007412 1_555
Li0 O14 2.007439 1_555
Li0 O6 2.064066 1_554
Li1 O2 1.947220 1_455
Li1 O12 2.007658 1_455
Li1 O15 2.007679 1_555
Li1 O7 2.064032 1_555
Li2 O1 1.947335 1_555
Li2 O8 2.007398 1_555
Li2 O10 2.007424 1_555
Li2 O5 2.064071 1_555
Li3 O0 1.947225 1_545
Li3 O9 2.007663 1_555
Li3 O11 2.007675 1_455
Li3 O4 2.064042 1_546
Mn0 O11 1.938050 1_555
Mn0 O12 1.938050 1_555
Mn0 O15 1.938076 1_555
Mn0 O9 1.938078 1_555
Mn0 O6 1.977754 1_545
Mn0 O5 1.977813 1_555
Mn1 O8 1.938095 1_555
Mn1 O10 1.938108 1_655
Mn1 O14 1.938110 1_555
Mn1 O13 1.938169 1_655
Mn1 O4 1.977813 1_655
Mn1 O7 1.977841 1_655
Ni0 O14 2.079842 1_556
Ni0 O10 2.079850 1_655
Ni0 O8 2.079867 1_555
Ni0 O13 2.079897 1_656
Ni0 O0 2.089414 1_655
Ni0 O2 2.089450 1_555
Ni1 O11 2.079661 1_554
Ni1 O15 2.079702 1_555
Ni1 O9 2.079717 1_554
Ni1 O12 2.079721 1_555
Ni1 O1 2.089334 1_555
Ni1 O3 2.089362 1_545
O0 Ti1 1.959146 1_555
O0 Ti2 1.959173 1_455
O1 Ti0 1.959121 1_555
O1 Ti3 1.959152 1_554
O2 Ti0 1.959142 1_556
O2 Ti3 1.959158 1_655
O3 Ti1 1.959122 1_555
O3 Ti2 1.959140 1_555
O4 Ti2 2.024459 1_455
O4 Ti1 2.024461 1_555
O5 Ti3 2.024480 1_555
O5 Ti0 2.024494 1_556
O6 Ti2 2.024502 1_555
O6 Ti1 2.024511 1_555
O7 Ti3 2.024467 1_554
O7 Ti0 2.024481 1_455
O8 Ti2 1.969936 1_555
O9 Ti3 1.969914 1_555
O10 Ti1 1.969963 1_555
O11 Ti0 1.969940 1_556
O12 Ti2 1.969930 1_545
O13 Ti3 1.969945 1_554
O14 Ti0 1.969957 1_555
O15 Ti1 1.969932 1_545
