# generated using pymatgen
data_Mg6SnMo
_symmetry_space_group_name_H-M   'P 1'
_cell_length_a   5.07856300
_cell_length_b   5.97872200
_cell_length_c   10.85333100
_cell_angle_alpha   90.00000000
_cell_angle_beta   90.00000000
_cell_angle_gamma   90.00000000
_symmetry_Int_Tables_number   1
_chemical_formula_structural   Mg6SnMo
_chemical_formula_sum   'Mg12 Sn2 Mo2'
_cell_volume   329.54312246
_cell_formula_units_Z   2
loop_
 _symmetry_equiv_pos_site_id
 _symmetry_equiv_pos_as_xyz
  1  'x, y, z'
loop_
 _atom_site_type_symbol
 _atom_site_label
 _atom_site_symmetry_multiplicity
 _atom_site_fract_x
 _atom_site_fract_y
 _atom_site_fract_z
 _atom_site_occupancy
  Mg  Mg0  1  0.50000000  0.25151800  0.41765500  1
  Mg  Mg1  1  0.50000000  0.74848200  0.41765500  1
  Mg  Mg2  1  0.00000000  0.73615300  0.08463300  1
  Mg  Mg3  1  0.00000000  0.26384700  0.08463300  1
  Mg  Mg4  1  0.00000000  0.00000000  0.33499400  1
  Mg  Mg5  1  0.00000000  0.50000000  0.32415700  1
  Mg  Mg6  1  0.50000000  0.75151800  0.91765500  1
  Mg  Mg7  1  0.50000000  0.24848200  0.91765500  1
  Mg  Mg8  1  0.00000000  0.23615300  0.58463300  1
  Mg  Mg9  1  0.00000000  0.76384700  0.58463300  1
  Mg  Mg10  1  0.00000000  0.50000000  0.83499400  1
  Mg  Mg11  1  0.00000000  0.00000000  0.82415700  1
  Sn  Sn0  1  0.50000000  0.00000000  0.16807200  1
  Sn  Sn1  1  0.50000000  0.50000000  0.66807200  1
  Mo  Mo0  1  0.50000000  0.50000000  0.16819800  1
  Mo  Mo1  1  0.50000000  0.00000000  0.66819800  1
loop_
_geom_bond_atom_site_label_1
_geom_bond_atom_site_label_2
_geom_bond_distance
_geom_bond_site_symmetry_2
Mg0 Mg1 2.971210 1_555
Mg0 Mg1 3.007512 1_545
Mg0 Mg4 3.084495 1_555
Mg0 Mg4 3.084495 1_655
Mg0 Mo0 3.088244 1_555
Mg0 Sn1 3.097382 1_555
Mg0 Sn0 3.098212 1_555
Mg0 Mo1 3.107326 1_555
Mg0 Mg5 3.112028 1_555
Mg0 Mg5 3.112028 1_655
Mg0 Mg8 3.121010 1_655
Mg0 Mg8 3.121010 1_555
Mg1 Mg4 3.084495 1_665
Mg1 Mg4 3.084495 1_565
Mg1 Mo0 3.088244 1_555
Mg1 Sn1 3.097382 1_555
Mg1 Sn0 3.098212 1_565
Mg1 Mo1 3.107326 1_565
Mg1 Mg5 3.112028 1_555
Mg1 Mg5 3.112028 1_655
Mg1 Mg9 3.121010 1_555
Mg1 Mg9 3.121010 1_655
Mg2 Mg3 2.823786 1_555
Mg2 Mg5 2.958299 1_555
Mg2 Mo0 3.043677 1_455
Mg2 Mo0 3.043677 1_555
Mg2 Mg6 3.121010 1_554
Mg2 Mg6 3.121010 1_454
Mg2 Sn0 3.123532 1_465
Mg2 Sn0 3.123532 1_565
Mg2 Mg4 3.141951 1_565
Mg2 Mg3 3.154936 1_565
Mg3 Mg5 2.958299 1_555
Mg3 Mo0 3.043677 1_455
Mg3 Mo0 3.043677 1_555
Mg3 Mg7 3.121010 1_454
Mg3 Mg7 3.121010 1_554
Mg3 Sn0 3.123532 1_455
Mg3 Sn0 3.123532 1_555
Mg3 Mg4 3.141951 1_555
Mg4 Mg5 2.991674 1_545
Mg4 Mg5 2.991674 1_555
Mg4 Mg8 3.055220 1_555
Mg4 Mg9 3.055220 1_545
Mg4 Sn0 3.119305 1_555
Mg4 Sn0 3.119305 1_455
Mg5 Mo0 3.051737 1_555
Mg5 Mo0 3.051737 1_455
Mg5 Mg9 3.237363 1_555
Mg5 Mg8 3.237363 1_555
Mg6 Mg7 2.971210 1_565
Mg6 Mg7 3.007512 1_555
Mg6 Mo1 3.088244 1_565
Mg6 Sn0 3.097382 1_566
Mg6 Sn1 3.098212 1_555
Mg6 Mo0 3.107326 1_556
Mg7 Mo1 3.088244 1_555
Mg7 Sn0 3.097382 1_556
Mg7 Sn1 3.098212 1_555
Mg7 Mo0 3.107326 1_556
Mg8 Mg9 2.823786 1_545
Mg8 Mo1 3.043677 1_455
Mg8 Mo1 3.043677 1_555
Mg8 Sn1 3.123532 1_555
Mg8 Sn1 3.123532 1_455
Mg8 Mg9 3.154936 1_555
Mg9 Mo1 3.043677 1_465
Mg9 Mo1 3.043677 1_565
Mg9 Sn1 3.123532 1_455
Mg9 Sn1 3.123532 1_555
Mg10 Mg11 2.991674 1_555
Mg10 Mg11 2.991674 1_565
Mg10 Mg2 3.055220 1_556
Mg10 Mg3 3.055220 1_556
Mg10 Mg6 3.084495 1_555
Mg10 Mg6 3.084495 1_455
Mg10 Mg7 3.084495 1_555
Mg10 Mg7 3.084495 1_455
Mg10 Sn1 3.119305 1_555
Mg10 Sn1 3.119305 1_455
Mg10 Mg9 3.141951 1_555
Mg10 Mg8 3.141951 1_555
Mg11 Mg8 2.958299 1_555
Mg11 Mg9 2.958299 1_545
Mg11 Mo1 3.051737 1_555
Mg11 Mo1 3.051737 1_455
Mg11 Mg7 3.112028 1_555
Mg11 Mg7 3.112028 1_455
Mg11 Mg6 3.112028 1_445
Mg11 Mg6 3.112028 1_545
Mg11 Mg3 3.237363 1_556
Mg11 Mg2 3.237363 1_546
Mo0 Sn0 2.989361 1_555
Mo0 Sn0 2.989361 1_565
Mo1 Sn1 2.989361 1_545
Mo1 Sn1 2.989361 1_555
