# generated using pymatgen
data_Ca2Nb3CuBrO10
_symmetry_space_group_name_H-M   'P 1'
_cell_length_a   3.96904000
_cell_length_b   3.96904000
_cell_length_c   15.84020600
_cell_angle_alpha   90.00000000
_cell_angle_beta   90.00000000
_cell_angle_gamma   90.00000000
_symmetry_Int_Tables_number   1
_chemical_formula_structural   Ca2Nb3CuBrO10
_chemical_formula_sum   'Ca2 Nb3 Cu1 Br1 O10'
_cell_volume   249.53517696
_cell_formula_units_Z   1
loop_
 _symmetry_equiv_pos_site_id
 _symmetry_equiv_pos_as_xyz
  1  'x, y, z'
loop_
 _atom_site_type_symbol
 _atom_site_label
 _atom_site_symmetry_multiplicity
 _atom_site_fract_x
 _atom_site_fract_y
 _atom_site_fract_z
 _atom_site_occupancy
  Ca  Ca0  1  0.50000000  0.50000000  0.85629700  1
  Ca  Ca1  1  0.50000000  0.50000000  0.14370300  1
  Nb  Nb0  1  0.00000000  0.00000000  0.00000000  1
  Nb  Nb1  1  0.00000000  0.00000000  0.73207800  1
  Nb  Nb2  1  0.00000000  0.00000000  0.26792200  1
  Cu  Cu0  1  0.00000000  0.00000000  0.50000000  1
  Br  Br0  1  0.50000000  0.50000000  0.50000000  1
  O  O0  1  0.50000000  0.00000000  0.00000000  1
  O  O1  1  0.00000000  0.50000000  0.00000000  1
  O  O2  1  0.00000000  0.00000000  0.87543000  1
  O  O3  1  0.00000000  0.00000000  0.12457000  1
  O  O4  1  0.50000000  0.00000000  0.75968900  1
  O  O5  1  0.00000000  0.50000000  0.75968900  1
  O  O6  1  0.50000000  0.00000000  0.24031100  1
  O  O7  1  0.00000000  0.50000000  0.24031100  1
  O  O8  1  0.00000000  0.00000000  0.61767900  1
  O  O9  1  0.00000000  0.00000000  0.38232100  1
loop_
_geom_bond_atom_site_label_1
_geom_bond_atom_site_label_2
_geom_bond_distance
_geom_bond_site_symmetry_2
Ca0 O4 2.506015 1_565
Ca0 O5 2.506015 1_555
Ca0 O5 2.506015 1_655
Ca0 O4 2.506015 1_555
Ca0 O2 2.822852 1_555
Ca0 O2 2.822852 1_655
Ca0 O2 2.822852 1_565
Ca0 O2 2.822852 1_665
Ca0 O1 3.019900 1_656
Ca0 O1 3.019900 1_556
Ca0 O0 3.019900 1_566
Ca0 O0 3.019900 1_556
Ca1 O6 2.506015 1_555
Ca1 O6 2.506015 1_565
Ca1 O7 2.506015 1_555
Ca1 O7 2.506015 1_655
Ca1 O3 2.822852 1_665
Ca1 O3 2.822852 1_555
Ca1 O3 2.822852 1_565
Ca1 O3 2.822852 1_655
Ca1 O0 3.019900 1_555
Ca1 O0 3.019900 1_565
Ca1 O1 3.019900 1_555
Ca1 O1 3.019900 1_655
Nb0 O2 1.973214 1_554
Nb0 O3 1.973214 1_555
Nb0 O1 1.984520 1_545
Nb0 O0 1.984520 1_455
Nb0 O0 1.984520 1_555
Nb0 O1 1.984520 1_555
Nb1 O8 1.812104 1_555
Nb1 O5 2.032143 1_545
Nb1 O4 2.032143 1_555
Nb1 O5 2.032143 1_555
Nb1 O4 2.032143 1_455
Nb1 O2 2.270725 1_555
Nb2 O9 1.812104 1_555
Nb2 O7 2.032143 1_545
Nb2 O6 2.032143 1_555
Nb2 O7 2.032143 1_555
Nb2 O6 2.032143 1_455
Nb2 O3 2.270725 1_555
Cu0 O8 1.864060 1_555
Cu0 O9 1.864060 1_555
Br0 Cu0 2.806535 1_665
Br0 Cu0 2.806535 1_555
Br0 Cu0 2.806535 1_655
Br0 Cu0 2.806535 1_565
