# generated using pymatgen
data_Mg6CoSb
_symmetry_space_group_name_H-M   'P 1'
_cell_length_a   4.85871500
_cell_length_b   6.22832400
_cell_length_c   10.62590400
_cell_angle_alpha   90.00000000
_cell_angle_beta   90.00000000
_cell_angle_gamma   90.00000000
_symmetry_Int_Tables_number   1
_chemical_formula_structural   Mg6CoSb
_chemical_formula_sum   'Mg12 Co2 Sb2'
_cell_volume   321.55740100
_cell_formula_units_Z   2
loop_
 _symmetry_equiv_pos_site_id
 _symmetry_equiv_pos_as_xyz
  1  'x, y, z'
loop_
 _atom_site_type_symbol
 _atom_site_label
 _atom_site_symmetry_multiplicity
 _atom_site_fract_x
 _atom_site_fract_y
 _atom_site_fract_z
 _atom_site_occupancy
  Mg  Mg0  1  0.00000000  0.24777300  0.58416500  1
  Mg  Mg1  1  0.00000000  0.75222700  0.58416500  1
  Mg  Mg2  1  0.50000000  0.26871600  0.41368300  1
  Mg  Mg3  1  0.50000000  0.73128400  0.41368300  1
  Mg  Mg4  1  0.50000000  0.00000000  0.67426900  1
  Mg  Mg5  1  0.50000000  0.00000000  0.16257200  1
  Mg  Mg6  1  0.00000000  0.74777300  0.08416500  1
  Mg  Mg7  1  0.00000000  0.25222700  0.08416500  1
  Mg  Mg8  1  0.50000000  0.76871600  0.91368300  1
  Mg  Mg9  1  0.50000000  0.23128400  0.91368300  1
  Mg  Mg10  1  0.50000000  0.50000000  0.17426900  1
  Mg  Mg11  1  0.50000000  0.50000000  0.66257200  1
  Co  Co0  1  0.00000000  0.00000000  0.83476200  1
  Co  Co1  1  0.00000000  0.50000000  0.33476200  1
  Sb  Sb0  1  0.00000000  0.00000000  0.33270500  1
  Sb  Sb1  1  0.00000000  0.50000000  0.83270500  1
loop_
_geom_bond_atom_site_label_1
_geom_bond_atom_site_label_2
_geom_bond_distance
_geom_bond_site_symmetry_2
Mg0 Mg11 3.010614 1_455
Mg0 Mg11 3.010614 1_555
Mg0 Mg4 3.033144 1_455
Mg0 Mg4 3.033144 1_555
Mg0 Mg2 3.033219 1_455
Mg0 Mg2 3.033219 1_555
Mg0 Sb1 3.072876 1_555
Mg0 Sb0 3.085616 1_555
Mg0 Mg1 3.086421 1_545
Mg0 Mg1 3.141903 1_555
Mg1 Mg11 3.010614 1_455
Mg1 Mg11 3.010614 1_555
Mg1 Mg4 3.033144 1_465
Mg1 Mg4 3.033144 1_565
Mg1 Mg3 3.033219 1_455
Mg1 Mg3 3.033219 1_555
Mg1 Sb1 3.072876 1_555
Mg1 Sb0 3.085616 1_565
Mg2 Sb0 3.072992 1_655
Mg2 Sb0 3.072992 1_555
Mg3 Sb0 3.072992 1_565
Mg3 Sb0 3.072992 1_665
Mg5 Mg6 3.010614 1_545
Mg5 Mg7 3.010614 1_555
Mg5 Mg7 3.010614 1_655
Mg5 Mg6 3.010614 1_645
Mg5 Sb0 3.028197 1_555
Mg5 Sb0 3.028197 1_655
Mg6 Mg8 3.033219 1_554
Mg6 Mg8 3.033219 1_454
Mg6 Sb0 3.072876 1_565
Mg6 Sb1 3.085616 1_554
Mg6 Mg7 3.086421 1_555
Mg6 Mg7 3.141903 1_565
Mg7 Mg9 3.033219 1_454
Mg7 Mg9 3.033219 1_554
Mg7 Sb0 3.072876 1_555
Mg7 Sb1 3.085616 1_554
Mg8 Sb1 3.072992 1_555
Mg8 Sb1 3.072992 1_655
Mg9 Sb1 3.072992 1_655
Mg9 Sb1 3.072992 1_555
Mg10 Mg6 3.033144 1_555
Mg10 Mg7 3.033144 1_555
Mg10 Mg6 3.033144 1_655
Mg10 Mg7 3.033144 1_655
Mg11 Sb1 3.028197 1_655
Mg11 Sb1 3.028197 1_555
Co0 Mg9 2.946203 1_555
Co0 Mg9 2.946203 1_455
Co0 Mg8 2.946203 1_545
Co0 Mg8 2.946203 1_445
Co0 Mg4 2.968183 1_455
Co0 Mg4 2.968183 1_555
Co0 Mg0 3.077679 1_555
Co0 Mg1 3.077679 1_545
Co0 Mg7 3.080761 1_556
Co0 Mg6 3.080761 1_546
Co0 Sb1 3.114239 1_555
Co0 Sb1 3.114239 1_545
Co1 Mg2 2.946203 1_455
Co1 Mg2 2.946203 1_555
Co1 Mg3 2.946203 1_455
Co1 Mg3 2.946203 1_555
Co1 Mg10 2.968183 1_555
Co1 Mg10 2.968183 1_455
Co1 Mg6 3.077679 1_555
Co1 Mg7 3.077679 1_555
Co1 Mg0 3.080761 1_555
Co1 Mg1 3.080761 1_555
Co1 Sb0 3.114239 1_555
Co1 Sb0 3.114239 1_565
