# generated using pymatgen
data_V2CrTe4
_symmetry_space_group_name_H-M   'P 1'
_cell_length_a   7.25693073
_cell_length_b   7.25693073
_cell_length_c   7.02244412
_cell_angle_alpha   62.32667700
_cell_angle_beta   62.32667700
_cell_angle_gamma   32.19907585
_symmetry_Int_Tables_number   1
_chemical_formula_structural   V2CrTe4
_chemical_formula_sum   'V2 Cr1 Te4'
_cell_volume   172.51198012
_cell_formula_units_Z   1
loop_
 _symmetry_equiv_pos_site_id
 _symmetry_equiv_pos_as_xyz
  1  'x, y, z'
loop_
 _atom_site_type_symbol
 _atom_site_label
 _atom_site_symmetry_multiplicity
 _atom_site_fract_x
 _atom_site_fract_y
 _atom_site_fract_z
 _atom_site_occupancy
  V  V0  1  0.74181200  0.74181200  0.27710400  1
  V  V1  1  0.99744800  0.99744800  0.00094000  1
  Cr  Cr0  1  0.26047200  0.26047200  0.71968500  1
  Te  Te0  1  0.11910400  0.11910400  0.55077500  1
  Te  Te1  1  0.88297000  0.88297000  0.45080600  1
  Te  Te2  1  0.36693700  0.36693700  0.97136700  1
  Te  Te3  1  0.63125800  0.63125800  0.02932200  1
loop_
_geom_bond_atom_site_label_1
_geom_bond_atom_site_label_2
_geom_bond_distance
_geom_bond_site_symmetry_2
Cr0 Te1 2.722993 1_545
Cr0 Te1 2.722993 1_455
Cr0 Te0 2.748405 1_555
Cr0 Te2 2.804396 1_555
Cr0 Te3 2.869959 1_456
Cr0 Te3 2.869959 1_546
Te0 V0 2.737134 1_455
Te0 V0 2.737134 1_545
Te0 V1 2.772501 1_446
Te1 V1 2.766415 1_555
Te1 V0 2.771974 1_555
Te2 V1 2.787546 1_546
Te2 V1 2.787546 1_456
Te2 V0 2.842911 1_546
Te2 V0 2.842911 1_456
Te3 V1 2.816153 1_545
Te3 V1 2.816153 1_455
Te3 V0 2.828028 1_555
