# generated using pymatgen
data_CoH8(ClO2)2
_symmetry_space_group_name_H-M   'P 1'
_cell_length_a   11.65468820
_cell_length_b   9.65586900
_cell_length_c   6.11804705
_cell_angle_alpha   90.00000000
_cell_angle_beta   110.81364144
_cell_angle_gamma   90.00000000
_symmetry_Int_Tables_number   1
_chemical_formula_structural   CoH8(ClO2)2
_chemical_formula_sum   'Co4 H32 Cl8 O16'
_cell_volume   643.57057225
_cell_formula_units_Z   4
loop_
 _symmetry_equiv_pos_site_id
 _symmetry_equiv_pos_as_xyz
  1  'x, y, z'
loop_
 _atom_site_type_symbol
 _atom_site_label
 _atom_site_symmetry_multiplicity
 _atom_site_fract_x
 _atom_site_fract_y
 _atom_site_fract_z
 _atom_site_occupancy
  Co  Co0  1  0.26919600  0.32221100  0.75280500  1
  Co  Co1  1  0.23080400  0.82221100  0.24719500  1
  Co  Co2  1  0.73080400  0.67778900  0.24719500  1
  Co  Co3  1  0.76919600  0.17778900  0.75280500  1
  H  H0  1  0.42806000  0.29844300  0.53431200  1
  H  H1  1  0.07194000  0.79844300  0.46568800  1
  H  H2  1  0.57194000  0.70155700  0.46568800  1
  H  H3  1  0.92806000  0.20155700  0.53431200  1
  H  H4  1  0.29710700  0.30647000  0.33149200  1
  H  H5  1  0.20289300  0.80647000  0.66850800  1
  H  H6  1  0.70289300  0.69353000  0.66850800  1
  H  H7  1  0.79710700  0.19353000  0.33149200  1
  H  H8  1  0.19468300  0.48073500  0.03451400  1
  H  H9  1  0.30531700  0.98073500  0.96548600  1
  H  H10  1  0.80531700  0.51926500  0.96548600  1
  H  H11  1  0.69468300  0.01926500  0.03451400  1
  H  H12  1  0.11414200  0.34795700  0.99064200  1
  H  H13  1  0.38585800  0.84795700  0.00935800  1
  H  H14  1  0.88585800  0.65204300  0.00935800  1
  H  H15  1  0.61414200  0.15204300  0.99064200  1
  H  H16  1  0.38248900  0.55980200  0.69029100  1
  H  H17  1  0.11751100  0.05980200  0.30970900  1
  H  H18  1  0.61751100  0.44019800  0.30970900  1
  H  H19  1  0.88248900  0.94019800  0.69029100  1
  H  H20  1  0.41044300  0.55537500  0.96689800  1
  H  H21  1  0.08955700  0.05537500  0.03310200  1
  H  H22  1  0.58955700  0.44462500  0.03310200  1
  H  H23  1  0.91044300  0.94462500  0.96689800  1
  H  H24  1  0.06301000  0.41078600  0.38493100  1
  H  H25  1  0.43699000  0.91078600  0.61506900  1
  H  H26  1  0.93699000  0.58921400  0.61506900  1
  H  H27  1  0.56301000  0.08921400  0.38493100  1
  H  H28  1  0.14985100  0.54164200  0.47331400  1
  H  H29  1  0.35014900  0.04164200  0.52668600  1
  H  H30  1  0.85014900  0.45835800  0.52668600  1
  H  H31  1  0.64985100  0.95835800  0.47331400  1
  Cl  Cl0  1  0.11855500  0.13604200  0.64332200  1
  Cl  Cl1  1  0.38144500  0.63604200  0.35667800  1
  Cl  Cl2  1  0.88144500  0.86395800  0.35667800  1
  Cl  Cl3  1  0.61855500  0.36395800  0.64332200  1
  Cl  Cl4  1  0.43411700  0.18481300  0.02286500  1
  Cl  Cl5  1  0.06588300  0.68481300  0.97713500  1
  Cl  Cl6  1  0.56588300  0.81518700  0.97713500  1
  Cl  Cl7  1  0.93411700  0.31518700  0.02286500  1
  O  O0  1  0.34060300  0.27058800  0.49111900  1
  O  O1  1  0.15939700  0.77058800  0.50888100  1
  O  O2  1  0.65939700  0.72941200  0.50888100  1
  O  O3  1  0.84060300  0.22941200  0.49111900  1
  O  O4  1  0.20035300  0.37878900  0.02692900  1
  O  O5  1  0.29964700  0.87878900  0.97307100  1
  O  O6  1  0.79964700  0.62121100  0.97307100  1
  O  O7  1  0.70035300  0.12121100  0.02692900  1
  O  O8  1  0.37021800  0.50705700  0.81914500  1
  O  O9  1  0.12978200  0.00705700  0.18085500  1
  O  O10  1  0.62978200  0.49294300  0.18085500  1
  O  O11  1  0.87021800  0.99294300  0.81914500  1
  O  O12  1  0.13165500  0.44878600  0.51640600  1
  O  O13  1  0.36834500  0.94878600  0.48359400  1
  O  O14  1  0.86834500  0.55121400  0.48359400  1
  O  O15  1  0.63165500  0.05121400  0.51640600  1
loop_
_geom_bond_atom_site_label_1
_geom_bond_atom_site_label_2
_geom_bond_distance
_geom_bond_site_symmetry_2
Co0 O8 2.096912 1_555
Co0 O0 2.109781 1_555
Co0 O12 2.123096 1_555
Co0 O4 2.170520 1_556
Co1 O9 2.096912 1_565
Co1 O1 2.109781 1_555
Co1 O13 2.123096 1_555
Co1 O5 2.170520 1_554
Co2 O10 2.096912 1_555
Co2 O2 2.109781 1_555
Co2 O14 2.123096 1_555
Co2 O6 2.170520 1_554
Co3 O11 2.096912 1_545
Co3 O3 2.109781 1_555
Co3 O15 2.123096 1_555
Co3 O7 2.170520 1_556
H0 O0 0.994834 1_555
H1 O1 0.994834 1_555
H2 O2 0.994834 1_555
H3 O3 0.994834 1_555
H4 O0 0.989421 1_555
H5 O1 0.989421 1_555
H6 O2 0.989421 1_555
H7 O3 0.989421 1_555
H8 O4 0.988786 1_555
H9 O5 0.988786 1_555
H10 O6 0.988786 1_555
H11 O7 0.988786 1_555
H12 O4 0.994456 1_556
H13 O5 0.994456 1_554
H14 O6 0.994456 1_554
H15 O7 0.994456 1_556
H16 O8 0.990673 1_555
H17 O9 0.990673 1_555
H18 O10 0.990673 1_555
H19 O11 0.990673 1_555
H20 O8 0.976438 1_555
H21 O9 0.976438 1_555
H22 O10 0.976438 1_555
H23 O11 0.976438 1_555
H24 O12 0.982026 1_555
H25 O13 0.982026 1_555
H26 O14 0.982026 1_555
H27 O15 0.982026 1_555
H28 O12 0.978832 1_555
H29 O13 0.978832 1_545
H30 O14 0.978832 1_555
H31 O15 0.978832 1_565
Cl0 Co0 2.434497 1_555
Cl1 Co1 2.434497 1_555
Cl2 Co2 2.434497 1_555
Cl3 Co3 2.434497 1_555
Cl4 Co0 2.434668 1_554
Cl5 Co1 2.434668 1_556
Cl6 Co2 2.434668 1_556
Cl7 Co3 2.434668 1_554
