# generated using pymatgen
data_NbVRe2
_symmetry_space_group_name_H-M   'P 1'
_cell_length_a   10.01086935
_cell_length_b   10.01086935
_cell_length_c   10.01086935
_cell_angle_alpha   127.98996764
_cell_angle_beta   115.52581168
_cell_angle_gamma   87.33816047
_symmetry_Int_Tables_number   1
_chemical_formula_structural   NbVRe2
_chemical_formula_sum   'Nb1 V1 Re2'
_cell_volume   678.90693204
_cell_formula_units_Z   1
loop_
 _symmetry_equiv_pos_site_id
 _symmetry_equiv_pos_as_xyz
  1  'x, y, z'
loop_
 _atom_site_type_symbol
 _atom_site_label
 _atom_site_symmetry_multiplicity
 _atom_site_fract_x
 _atom_site_fract_y
 _atom_site_fract_z
 _atom_site_occupancy
  Nb  Nb0  1  0.00000000  0.50000000  0.50000000  1
  V  V0  1  0.00000000  0.00000000  0.00000000  1
  Re  Re0  1  0.00000000  0.24248500  0.24248500  1
  Re  Re1  1  0.00000000  0.75751500  0.75751500  1
loop_
_geom_bond_atom_site_label_1
_geom_bond_atom_site_label_2
_geom_bond_distance
_geom_bond_site_symmetry_2
Nb0 Re0 2.260603 1_555
Nb0 Re1 2.260603 1_555
Re0 V0 2.128661 1_555
Re1 V0 2.128661 1_566
