# generated using pymatgen
data_Ca7MgFeCo7O24
_symmetry_space_group_name_H-M   'P 1'
_cell_length_a   7.55877288
_cell_length_b   7.55877288
_cell_length_c   7.55877236
_cell_angle_alpha   90.05255111
_cell_angle_beta   90.05255111
_cell_angle_gamma   90.05254842
_symmetry_Int_Tables_number   1
_chemical_formula_structural   Ca7MgFeCo7O24
_chemical_formula_sum   'Ca7 Mg1 Fe1 Co7 O24'
_cell_volume   431.87027262
_cell_formula_units_Z   1
loop_
 _symmetry_equiv_pos_site_id
 _symmetry_equiv_pos_as_xyz
  1  'x, y, z'
loop_
 _atom_site_type_symbol
 _atom_site_label
 _atom_site_symmetry_multiplicity
 _atom_site_fract_x
 _atom_site_fract_y
 _atom_site_fract_z
 _atom_site_occupancy
  Ca  Ca0  1  0.24961700  0.24961700  0.75041200  1
  Ca  Ca1  1  0.75037200  0.24955100  0.75037200  1
  Ca  Ca2  1  0.75041200  0.24961700  0.24961700  1
  Ca  Ca3  1  0.24955100  0.75037200  0.75037200  1
  Ca  Ca4  1  0.75067600  0.75067600  0.75067600  1
  Ca  Ca5  1  0.24961700  0.75041200  0.24961700  1
  Ca  Ca6  1  0.75037200  0.75037200  0.24955100  1
  Mg  Mg0  1  0.24846400  0.24846400  0.24846400  1
  Fe  Fe0  1  0.00043200  0.00043200  0.00043200  1
  Co  Co0  1  0.49920600  0.00050100  0.00050100  1
  Co  Co1  1  0.00050100  0.00050100  0.49920600  1
  Co  Co2  1  0.49934900  0.00095400  0.49934900  1
  Co  Co3  1  0.00050100  0.49920600  0.00050100  1
  Co  Co4  1  0.49934900  0.49934900  0.00095400  1
  Co  Co5  1  0.00095400  0.49934900  0.49934900  1
  Co  Co6  1  0.49966000  0.49966000  0.49966000  1
  O  O0  1  0.00267400  0.25511800  0.00267400  1
  O  O1  1  0.49746400  0.24748500  0.00259000  1
  O  O2  1  0.00259000  0.24748500  0.49746400  1
  O  O3  1  0.49737000  0.25405100  0.49737000  1
  O  O4  1  0.00064400  0.74534400  0.00064400  1
  O  O5  1  0.49953800  0.75277700  0.00060400  1
  O  O6  1  0.00060400  0.75277700  0.49953800  1
  O  O7  1  0.49934400  0.74547400  0.49934400  1
  O  O8  1  0.00064400  0.00064400  0.74534400  1
  O  O9  1  0.49953800  0.00060400  0.75277700  1
  O  O10  1  0.00267400  0.00267400  0.25511800  1
  O  O11  1  0.49746400  0.00259000  0.24748500  1
  O  O12  1  0.00060400  0.49953800  0.75277700  1
  O  O13  1  0.49934400  0.49934400  0.74547400  1
  O  O14  1  0.00259000  0.49746400  0.24748500  1
  O  O15  1  0.49737000  0.49737000  0.25405100  1
  O  O16  1  0.25511800  0.00267400  0.00267400  1
  O  O17  1  0.74534400  0.00064400  0.00064400  1
  O  O18  1  0.24748500  0.00259000  0.49746400  1
  O  O19  1  0.75277700  0.00060400  0.49953800  1
  O  O20  1  0.24748500  0.49746400  0.00259000  1
  O  O21  1  0.75277700  0.49953800  0.00060400  1
  O  O22  1  0.25405100  0.49737000  0.49737000  1
  O  O23  1  0.74547400  0.49934400  0.49934400  1
loop_
_geom_bond_atom_site_label_1
_geom_bond_atom_site_label_2
_geom_bond_distance
_geom_bond_site_symmetry_2
Ca0 O8 2.660457 1_555
Ca0 O12 2.668019 1_555
Ca0 O9 2.668019 1_555
Ca0 O13 2.668597 1_555
Ca0 O0 2.669878 1_556
Ca0 O16 2.669878 1_556
Ca0 O2 2.671286 1_555
Ca0 O18 2.671286 1_555
Ca0 O20 2.671507 1_556
Ca0 O1 2.671507 1_556
Ca0 O22 2.678265 1_555
Ca0 O3 2.678265 1_555
Ca1 O17 2.669545 1_556
Ca1 O8 2.669546 1_655
Ca1 O19 2.670138 1_555
Ca1 O9 2.670139 1_555
Ca1 O21 2.672412 1_556
Ca1 O12 2.672413 1_655
Ca1 O23 2.678309 1_555
Ca1 O13 2.678309 1_555
Ca1 O0 2.696074 1_656
Ca1 O2 2.701113 1_655
Ca1 O1 2.701113 1_556
Ca1 O3 2.703538 1_555
Ca2 O17 2.660457 1_555
Ca2 O19 2.668019 1_555
Ca2 O21 2.668019 1_555
Ca2 O23 2.668596 1_555
Ca2 O0 2.669878 1_655
Ca2 O10 2.669878 1_655
Ca2 O1 2.671286 1_555
Ca2 O11 2.671286 1_555
Ca2 O2 2.671507 1_655
Ca2 O14 2.671507 1_655
Ca2 O3 2.678265 1_555
Ca2 O15 2.678265 1_555
Ca3 O4 2.669545 1_556
Ca3 O8 2.669546 1_565
Ca3 O6 2.670138 1_555
Ca3 O12 2.670139 1_555
Ca3 O5 2.672412 1_556
Ca3 O9 2.672413 1_565
Ca3 O7 2.678309 1_555
Ca3 O13 2.678309 1_555
Ca3 O16 2.696074 1_566
Ca3 O18 2.701113 1_565
Ca3 O20 2.701113 1_556
Ca3 O22 2.703538 1_555
Ca4 O17 2.671218 1_566
Ca4 O4 2.671218 1_656
Ca4 O8 2.671218 1_665
Ca4 O21 2.679410 1_556
Ca4 O5 2.679410 1_556
Ca4 O6 2.679410 1_655
Ca4 O19 2.679410 1_565
Ca4 O9 2.679410 1_565
Ca4 O12 2.679410 1_655
Ca4 O7 2.685673 1_555
Ca4 O23 2.685673 1_555
Ca4 O13 2.685673 1_555
Ca5 O4 2.660457 1_555
Ca5 O6 2.668019 1_555
Ca5 O5 2.668019 1_555
Ca5 O7 2.668596 1_555
Ca5 O16 2.669878 1_565
Ca5 O10 2.669878 1_565
Ca5 O20 2.671286 1_555
Ca5 O14 2.671286 1_555
Ca5 O18 2.671507 1_565
Ca5 O11 2.671507 1_565
Ca5 O22 2.678265 1_555
Ca5 O15 2.678265 1_555
Ca6 O17 2.669545 1_565
Ca6 O4 2.669545 1_655
Ca6 O5 2.670138 1_555
Ca6 O21 2.670138 1_555
Ca6 O6 2.672412 1_655
Ca6 O19 2.672412 1_565
Ca6 O7 2.678309 1_555
Ca6 O23 2.678309 1_555
Ca6 O10 2.696074 1_665
Ca6 O11 2.701113 1_565
Ca6 O14 2.701113 1_655
Ca6 O15 2.703538 1_555
Mg0 O16 2.626768 1_555
Mg0 O0 2.626768 1_555
Mg0 O10 2.626768 1_555
Mg0 O2 2.646308 1_555
Mg0 O18 2.646308 1_555
Mg0 O20 2.646308 1_555
Mg0 O1 2.646308 1_555
Mg0 O11 2.646308 1_555
Mg0 O14 2.646308 1_555
Mg0 O22 2.659795 1_555
Mg0 O3 2.659795 1_555
Mg0 O15 2.659795 1_555
Fe0 O10 1.925231 1_555
Fe0 O0 1.925232 1_555
Fe0 O16 1.925232 1_555
Fe0 O8 1.928156 1_554
Fe0 O17 1.928157 1_455
Fe0 O4 1.928157 1_545
Co0 O16 1.845182 1_555
Co0 O17 1.860500 1_555
Co0 O11 1.867007 1_555
Co0 O1 1.867007 1_555
Co0 O9 1.872494 1_554
Co0 O5 1.872494 1_545
Co1 O10 1.845182 1_555
Co1 O8 1.860500 1_555
Co1 O2 1.867007 1_555
Co1 O18 1.867007 1_555
Co1 O19 1.872494 1_455
Co1 O6 1.872494 1_545
Co2 O11 1.903874 1_555
Co2 O18 1.903875 1_555
Co2 O3 1.913247 1_555
Co2 O9 1.915608 1_555
Co2 O19 1.915608 1_555
Co2 O7 1.931115 1_545
Co3 O0 1.845182 1_555
Co3 O4 1.860500 1_555
Co3 O14 1.867007 1_555
Co3 O20 1.867007 1_555
Co3 O12 1.872494 1_554
Co3 O21 1.872494 1_455
Co4 O1 1.903875 1_555
Co4 O20 1.903875 1_555
Co4 O15 1.913247 1_555
Co4 O21 1.915608 1_555
Co4 O5 1.915608 1_555
Co4 O13 1.931115 1_554
Co5 O14 1.903874 1_555
Co5 O2 1.903875 1_555
Co5 O22 1.913247 1_555
Co5 O12 1.915608 1_555
Co5 O6 1.915608 1_555
Co5 O23 1.931115 1_455
Co6 O15 1.856632 1_555
Co6 O22 1.856632 1_555
Co6 O3 1.856632 1_555
Co6 O13 1.858060 1_555
Co6 O7 1.858060 1_555
Co6 O23 1.858060 1_555
