# generated using pymatgen
data_Al15Ni3Ge4
_symmetry_space_group_name_H-M   'P 1'
_cell_length_a   9.88167895
_cell_length_b   9.88167895
_cell_length_c   9.88167895
_cell_angle_alpha   109.47122063
_cell_angle_beta   109.47122063
_cell_angle_gamma   109.47122063
_symmetry_Int_Tables_number   1
_chemical_formula_structural   Al15Ni3Ge4
_chemical_formula_sum   'Al30 Ni6 Ge8'
_cell_volume   742.79732019
_cell_formula_units_Z   2
loop_
 _symmetry_equiv_pos_site_id
 _symmetry_equiv_pos_as_xyz
  1  'x, y, z'
loop_
 _atom_site_type_symbol
 _atom_site_label
 _atom_site_symmetry_multiplicity
 _atom_site_fract_x
 _atom_site_fract_y
 _atom_site_fract_z
 _atom_site_occupancy
  Al  Al0  1  0.00000000  0.80854700  0.80854700  1
  Al  Al1  1  0.19145300  0.00000000  0.19145300  1
  Al  Al2  1  0.19145300  0.19145300  0.00000000  1
  Al  Al3  1  0.00000000  0.19145300  0.19145300  1
  Al  Al4  1  0.80854700  0.00000000  0.80854700  1
  Al  Al5  1  0.80854700  0.80854700  0.00000000  1
  Al  Al6  1  0.75475500  0.47831800  0.00000000  1
  Al  Al7  1  0.27643700  0.52168200  0.52168200  1
  Al  Al8  1  0.75475500  0.00000000  0.47831800  1
  Al  Al9  1  0.47831800  0.75475500  0.00000000  1
  Al  Al10  1  0.00000000  0.75475500  0.47831800  1
  Al  Al11  1  0.52168200  0.27643700  0.52168200  1
  Al  Al12  1  0.52168200  0.52168200  0.27643700  1
  Al  Al13  1  0.00000000  0.47831800  0.75475500  1
  Al  Al14  1  0.47831800  0.00000000  0.75475500  1
  Al  Al15  1  0.24524500  0.24524500  0.72356300  1
  Al  Al16  1  0.72356300  0.24524500  0.24524500  1
  Al  Al17  1  0.24524500  0.72356300  0.24524500  1
  Al  Al18  1  0.49127800  0.27485000  0.00000000  1
  Al  Al19  1  0.21642800  0.72515000  0.72515000  1
  Al  Al20  1  0.49127800  0.00000000  0.27485000  1
  Al  Al21  1  0.27485000  0.49127800  0.00000000  1
  Al  Al22  1  0.00000000  0.49127800  0.27485000  1
  Al  Al23  1  0.72515000  0.21642800  0.72515000  1
  Al  Al24  1  0.72515000  0.72515000  0.21642800  1
  Al  Al25  1  0.00000000  0.27485000  0.49127800  1
  Al  Al26  1  0.27485000  0.00000000  0.49127800  1
  Al  Al27  1  0.50872200  0.50872200  0.78357200  1
  Al  Al28  1  0.78357200  0.50872200  0.50872200  1
  Al  Al29  1  0.50872200  0.78357200  0.50872200  1
  Ni  Ni0  1  0.50000000  0.25000000  0.75000000  1
  Ni  Ni1  1  0.25000000  0.50000000  0.75000000  1
  Ni  Ni2  1  0.75000000  0.25000000  0.50000000  1
  Ni  Ni3  1  0.75000000  0.50000000  0.25000000  1
  Ni  Ni4  1  0.50000000  0.75000000  0.25000000  1
  Ni  Ni5  1  0.25000000  0.75000000  0.50000000  1
  Ge  Ge0  1  0.33683100  0.00000000  0.00000000  1
  Ge  Ge1  1  0.00000000  0.33683100  0.00000000  1
  Ge  Ge2  1  0.00000000  0.00000000  0.33683100  1
  Ge  Ge3  1  0.66316900  0.66316900  0.66316900  1
  Ge  Ge4  1  0.67252100  0.00000000  0.00000000  1
  Ge  Ge5  1  0.00000000  0.67252100  0.00000000  1
  Ge  Ge6  1  0.00000000  0.00000000  0.67252100  1
  Ge  Ge7  1  0.32747900  0.32747900  0.32747900  1
loop_
_geom_bond_atom_site_label_1
_geom_bond_atom_site_label_2
_geom_bond_distance
_geom_bond_site_symmetry_2
Al0 Ge5 2.661073 1_556
Al0 Ge6 2.661073 1_565
Al0 Ge3 2.730356 1_455
Al0 Ge0 2.730356 1_566
Al1 Ge7 2.661073 1_555
Al1 Ge5 2.661073 1_545
Al1 Ge2 2.730356 1_555
Al1 Ge0 2.730356 1_555
Al2 Ge7 2.661073 1_555
Al2 Ge6 2.661073 1_554
Al2 Ge0 2.730356 1_555
Al2 Ge1 2.730356 1_555
Al3 Ge7 2.661073 1_555
Al3 Ge4 2.661073 1_455
Al3 Ge1 2.730356 1_555
Al3 Ge2 2.730356 1_555
Al4 Ge6 2.661073 1_655
Al4 Ge4 2.661073 1_556
Al4 Ge3 2.730356 1_545
Al4 Ge1 2.730356 1_656
Al5 Ge4 2.661073 1_565
Al5 Ge5 2.661073 1_655
Al5 Ge2 2.730356 1_665
Al5 Ge3 2.730356 1_554
Al6 Ni3 2.425349 1_555
Al6 Ni0 2.425349 1_554
Al6 Ge5 2.540733 1_655
Al7 Ni1 2.425349 1_555
Al7 Ni5 2.425349 1_555
Al7 Ge7 2.540733 1_555
Al8 Ni4 2.425349 1_545
Al8 Ni2 2.425349 1_555
Al8 Ge6 2.540733 1_655
Al9 Ni4 2.425349 1_555
Al9 Ni1 2.425349 1_554
Al9 Ge4 2.540733 1_565
Al10 Ni3 2.425349 1_455
Al10 Ni5 2.425349 1_555
Al10 Ge6 2.540733 1_565
Al11 Ni2 2.425349 1_555
Al11 Ni0 2.425349 1_555
Al11 Ge7 2.540733 1_555
Al12 Ni3 2.425349 1_555
Al12 Ni4 2.425349 1_555
Al12 Ge7 2.540733 1_555
Al13 Ni2 2.425349 1_455
Al13 Ni1 2.425349 1_555
Al13 Ge5 2.540733 1_556
Al14 Ni0 2.425349 1_555
Al14 Ni5 2.425349 1_545
Al14 Ge4 2.540733 1_556
Al15 Ni0 2.425349 1_555
Al15 Ni1 2.425349 1_555
Al15 Ge6 2.540733 1_555
Al16 Ni2 2.425349 1_555
Al16 Ni3 2.425349 1_555
Al16 Ge4 2.540733 1_555
Al17 Ni5 2.425349 1_555
Al17 Ni4 2.425349 1_555
Al17 Ge5 2.540733 1_555
Al18 Ni3 2.433585 1_555
Al18 Ni0 2.433585 1_554
Al18 Ge0 2.634845 1_555
Al19 Ni5 2.433585 1_555
Al19 Ni1 2.433585 1_555
Al19 Ge0 2.634845 1_566
Al20 Ni4 2.433585 1_545
Al20 Ni2 2.433585 1_555
Al20 Ge0 2.634845 1_555
Al21 Ni1 2.433585 1_554
Al21 Ni4 2.433585 1_555
Al21 Ge1 2.634845 1_555
Al22 Ni5 2.433585 1_555
Al22 Ni3 2.433585 1_455
Al22 Ge1 2.634845 1_555
Al23 Ni2 2.433585 1_555
Al23 Ni0 2.433585 1_555
Al23 Ge1 2.634845 1_656
Al24 Ni3 2.433585 1_555
Al24 Ni4 2.433585 1_555
Al24 Ge2 2.634845 1_665
Al25 Ni2 2.433585 1_455
Al25 Ni1 2.433585 1_555
Al25 Ge2 2.634845 1_555
Al26 Ni5 2.433585 1_545
Al26 Ni0 2.433585 1_555
Al26 Ge2 2.634845 1_555
Al27 Ni1 2.433585 1_555
Al27 Ni0 2.433585 1_555
Al27 Ge3 2.634845 1_555
Al28 Ni3 2.433585 1_555
Al28 Ni2 2.433585 1_555
Al28 Ge3 2.634845 1_555
Al29 Ni5 2.433585 1_555
Al29 Ni4 2.433585 1_555
Al29 Ge3 2.634845 1_555
