# generated using pymatgen
data_SrFe5Bi4O15
_symmetry_space_group_name_H-M   'P 1'
_cell_length_a   5.75981600
_cell_length_b   6.91648357
_cell_length_c   8.88540102
_cell_angle_alpha   104.84083679
_cell_angle_beta   107.42091330
_cell_angle_gamma   91.10256191
_symmetry_Int_Tables_number   1
_chemical_formula_structural   SrFe5Bi4O15
_chemical_formula_sum   'Sr1 Fe5 Bi4 O15'
_cell_volume   324.70016491
_cell_formula_units_Z   1
loop_
 _symmetry_equiv_pos_site_id
 _symmetry_equiv_pos_as_xyz
  1  'x, y, z'
loop_
 _atom_site_type_symbol
 _atom_site_label
 _atom_site_symmetry_multiplicity
 _atom_site_fract_x
 _atom_site_fract_y
 _atom_site_fract_z
 _atom_site_occupancy
  Sr  Sr0  1  0.56280100  0.90547200  0.19206700  1
  Fe  Fe0  1  0.94394900  0.00544400  0.98522000  1
  Fe  Fe1  1  0.34497800  0.60840200  0.78110600  1
  Fe  Fe2  1  0.75212000  0.20425000  0.57762800  1
  Fe  Fe3  1  0.12808900  0.81228400  0.37589400  1
  Fe  Fe4  1  0.55368900  0.41555900  0.18379700  1
  Bi  Bi0  1  0.02820800  0.49097700  0.01858400  1
  Bi  Bi1  1  0.43146800  0.09442800  0.80081700  1
  Bi  Bi2  1  0.83617100  0.70084800  0.60544800  1
  Bi  Bi3  1  0.22856100  0.29322400  0.41155500  1
  O  O0  1  0.50038500  0.40301700  0.66162900  1
  O  O1  1  0.10532600  0.81233700  0.85671900  1
  O  O2  1  0.69776800  0.20488700  0.05739200  1
  O  O3  1  0.91879700  0.00751300  0.46990300  1
  O  O4  1  0.30812100  0.60946900  0.26369700  1
  O  O5  1  0.40940700  0.02545000  0.47292500  1
  O  O6  1  0.00562100  0.43134300  0.66699200  1
  O  O7  1  0.60679100  0.83014600  0.87120300  1
  O  O8  1  0.82239000  0.61825700  0.27277900  1
  O  O9  1  0.21001100  0.22636700  0.07264300  1
  O  O10  1  0.59256200  0.30473800  0.37177700  1
  O  O11  1  0.20318300  0.71224300  0.57335800  1
  O  O12  1  0.80237000  0.11555600  0.77735400  1
  O  O13  1  0.03581800  0.91215100  0.17562300  1
  O  O14  1  0.39341600  0.51864000  0.97789000  1
loop_
_geom_bond_atom_site_label_1
_geom_bond_atom_site_label_2
_geom_bond_distance
_geom_bond_site_symmetry_2
Fe0 O13 1.896021 1_646
Fe0 O1 1.963052 1_645
Fe0 O9 1.968689 1_656
Fe0 O7 2.090393 1_545
Fe0 O2 2.119268 1_556
Fe0 O12 2.121071 1_555
Fe1 O14 1.947101 1_555
Fe1 O0 1.947195 1_555
Fe1 O7 1.956093 1_555
Fe1 O11 2.095066 1_555
Fe1 O6 2.105580 1_555
Fe1 O1 2.119216 1_555
Fe2 O3 1.903345 1_555
Fe2 O6 1.951442 1_655
Fe2 O12 1.966322 1_555
Fe2 O10 2.083851 1_555
Fe2 O5 2.123313 1_555
Fe2 O0 2.179105 1_555
Fe3 O11 1.980733 1_555
Fe3 O5 1.990720 1_565
Fe3 O4 1.998863 1_555
Fe3 O13 2.000908 1_555
Fe3 O8 2.013433 1_455
Fe3 O3 2.015446 1_465
Fe4 O8 1.897856 1_555
Fe4 O2 1.959493 1_555
Fe4 O10 1.966209 1_555
Fe4 O14 2.095243 1_554
Fe4 O4 2.118935 1_555
Fe4 O9 2.161910 1_555
Bi0 O9 2.213524 1_555
Bi0 O4 2.224103 1_555
Bi0 O14 2.251127 1_554
Bi1 O12 2.213365 1_555
Bi1 O7 2.242902 1_545
Bi1 O2 2.258885 1_556
Bi1 O5 2.792117 1_555
Bi2 O11 2.218601 1_655
Bi2 O1 2.232094 1_655
Bi2 O6 2.235804 1_655
Bi3 O0 2.229806 1_555
Bi3 O10 2.231279 1_555
Bi3 O5 2.250323 1_555
O1 Sr0 3.238333 1_556
O2 Sr0 2.844192 1_545
O3 Sr0 2.611076 1_545
O4 Sr0 2.803446 1_555
O5 Sr0 2.825689 1_545
O7 Sr0 2.853171 1_556
O8 Sr0 2.626442 1_555
O9 Sr0 3.204684 1_545
O10 Sr0 2.786415 1_545
O13 Sr0 2.771878 1_455
O13 Sr0 2.996661 1_555
O14 Sr0 2.812713 1_556
