# generated using pymatgen
data_Li3Y2(BO3)3
_symmetry_space_group_name_H-M   'P 1'
_cell_length_a   14.01745900
_cell_length_b   5.67264900
_cell_length_c   9.21779443
_cell_angle_alpha   67.28290921
_cell_angle_beta   90.00000000
_cell_angle_gamma   90.00000000
_symmetry_Int_Tables_number   1
_chemical_formula_structural   Li3Y2(BO3)3
_chemical_formula_sum   'Li12 Y8 B12 O36'
_cell_volume   676.10215174
_cell_formula_units_Z   4
loop_
 _symmetry_equiv_pos_site_id
 _symmetry_equiv_pos_as_xyz
  1  'x, y, z'
loop_
 _atom_site_type_symbol
 _atom_site_label
 _atom_site_symmetry_multiplicity
 _atom_site_fract_x
 _atom_site_fract_y
 _atom_site_fract_z
 _atom_site_occupancy
  Li  Li0  1  0.33520500  0.91131900  0.01741400  1
  Li  Li1  1  0.66479500  0.08868100  0.98258600  1
  Li  Li2  1  0.83520500  0.08868100  0.48258600  1
  Li  Li3  1  0.16479500  0.91131900  0.51741400  1
  Li  Li4  1  0.78208300  0.90574800  0.29284700  1
  Li  Li5  1  0.21791700  0.09425200  0.70715300  1
  Li  Li6  1  0.28208300  0.09425200  0.20715300  1
  Li  Li7  1  0.71791700  0.90574800  0.79284700  1
  Li  Li8  1  0.89464800  0.56019900  0.29168300  1
  Li  Li9  1  0.10535200  0.43980100  0.70831700  1
  Li  Li10  1  0.39464800  0.43980100  0.20831700  1
  Li  Li11  1  0.60535200  0.56019900  0.79168300  1
  Y  Y0  1  0.66435900  0.44170200  0.19302100  1
  Y  Y1  1  0.33564100  0.55829800  0.80697900  1
  Y  Y2  1  0.16435900  0.55829800  0.30697900  1
  Y  Y3  1  0.83564100  0.44170200  0.69302100  1
  Y  Y4  1  0.50511900  0.84824700  0.34133100  1
  Y  Y5  1  0.49488100  0.15175300  0.65866900  1
  Y  Y6  1  0.00511900  0.15175300  0.15866900  1
  Y  Y7  1  0.99488100  0.84824700  0.84133100  1
  B  B0  1  0.98361200  0.76387600  0.48517700  1
  B  B1  1  0.01638800  0.23612400  0.51482300  1
  B  B2  1  0.48361200  0.23612400  0.01482300  1
  B  B3  1  0.51638800  0.76387600  0.98517700  1
  B  B4  1  0.83700900  0.88942300  0.02692500  1
  B  B5  1  0.16299100  0.11057700  0.97307500  1
  B  B6  1  0.33700900  0.11057700  0.47307500  1
  B  B7  1  0.66299100  0.88942300  0.52692500  1
  B  B8  1  0.82479700  0.39154700  0.02108000  1
  B  B9  1  0.17520300  0.60845300  0.97892000  1
  B  B10  1  0.32479700  0.60845300  0.47892000  1
  B  B11  1  0.67520300  0.39154700  0.52108000  1
  O  O0  1  0.89664700  0.81146600  0.41353400  1
  O  O1  1  0.10335300  0.18853400  0.58646600  1
  O  O2  1  0.39664700  0.18853400  0.08646600  1
  O  O3  1  0.60335300  0.81146600  0.91353400  1
  O  O4  1  0.59209700  0.45959500  0.43117700  1
  O  O5  1  0.40790300  0.54040500  0.56882300  1
  O  O6  1  0.09209700  0.54040500  0.06882300  1
  O  O7  1  0.90790300  0.45959500  0.93117700  1
  O  O8  1  0.75567900  0.81322200  0.11700400  1
  O  O9  1  0.24432100  0.18677800  0.88299600  1
  O  O10  1  0.25567900  0.18677800  0.38299600  1
  O  O11  1  0.74432100  0.81322200  0.61700400  1
  O  O12  1  0.56557700  0.18596700  0.10640700  1
  O  O13  1  0.43442300  0.81403300  0.89359300  1
  O  O14  1  0.06557700  0.81403300  0.39359300  1
  O  O15  1  0.93442300  0.18596700  0.60640700  1
  O  O16  1  0.92732300  0.84631200  0.09319300  1
  O  O17  1  0.07267700  0.15368800  0.90680700  1
  O  O18  1  0.42732300  0.15368800  0.40680700  1
  O  O19  1  0.57267700  0.84631200  0.59319300  1
  O  O20  1  0.83268000  0.28842900  0.18365800  1
  O  O21  1  0.16732000  0.71157100  0.81634200  1
  O  O22  1  0.33268000  0.71157100  0.31634200  1
  O  O23  1  0.66732000  0.28842900  0.68365800  1
  O  O24  1  0.51185800  0.66330200  0.14867900  1
  O  O25  1  0.48814200  0.33669800  0.85132100  1
  O  O26  1  0.01185800  0.33669800  0.35132100  1
  O  O27  1  0.98814200  0.66330200  0.64867900  1
  O  O28  1  0.76212200  0.41869900  0.44725700  1
  O  O29  1  0.23787800  0.58130100  0.55274300  1
  O  O30  1  0.26212200  0.58130100  0.05274300  1
  O  O31  1  0.73787800  0.41869900  0.94725700  1
  O  O32  1  0.66562100  0.00620100  0.36388200  1
  O  O33  1  0.33437900  0.99379900  0.63611800  1
  O  O34  1  0.16562100  0.99379900  0.13611800  1
  O  O35  1  0.83437900  0.00620100  0.86388200  1
loop_
_geom_bond_atom_site_label_1
_geom_bond_atom_site_label_2
_geom_bond_distance
_geom_bond_site_symmetry_2
Li0 O13 2.006995 1_554
Li0 O9 2.025954 1_564
Li0 O30 2.046783 1_555
Li0 O2 2.095922 1_565
Li0 O22 2.542879 1_555
Li1 O12 2.006995 1_556
Li1 O8 2.025954 1_546
Li1 O31 2.046783 1_555
Li1 O3 2.095922 1_545
Li1 O23 2.542879 1_555
Li2 O15 2.006995 1_555
Li2 O11 2.025954 1_545
Li2 O28 2.046783 1_555
Li2 O0 2.095922 1_545
Li2 O20 2.542879 1_555
Li3 O14 2.006995 1_555
Li3 O10 2.025954 1_565
Li3 O29 2.046783 1_555
Li3 O1 2.095922 1_565
Li3 O21 2.542879 1_555
Li4 O0 1.908662 1_555
Li4 O8 1.922713 1_555
Li4 O32 1.925279 1_565
Li4 O20 2.130949 1_565
Li4 O28 2.588484 1_555
Li5 O1 1.908662 1_555
Li5 O9 1.922713 1_555
Li5 O33 1.925279 1_545
Li5 O21 2.130949 1_545
Li5 O29 2.588484 1_555
Li6 O2 1.908662 1_555
Li6 O10 1.922713 1_555
Li6 O34 1.925279 1_545
Li6 O22 2.130949 1_545
Li6 O30 2.588484 1_555
Li7 O3 1.908662 1_555
Li7 O11 1.922713 1_555
Li7 O35 1.925279 1_565
Li7 O23 2.130949 1_565
Li7 O31 2.588484 1_555
Li8 O16 1.974334 1_555
Li8 O26 2.017602 1_655
Li8 O0 2.128495 1_555
Li8 O28 2.294059 1_555
Li8 O20 2.303999 1_555
Li9 O17 1.974334 1_555
Li9 O27 2.017602 1_455
Li9 O1 2.128495 1_555
Li9 O29 2.294059 1_555
Li9 O21 2.303999 1_555
Li10 O18 1.974334 1_555
Li10 O24 2.017602 1_555
Li10 O2 2.128495 1_555
Li10 O30 2.294059 1_555
Li10 O22 2.303999 1_555
Li11 O19 1.974334 1_555
Li11 O25 2.017602 1_555
Li11 O3 2.128495 1_555
Li11 O31 2.294059 1_555
Li11 O23 2.303999 1_555
B0 O0 1.362838 1_555
B0 O14 1.388589 1_655
B0 O27 1.391706 1_555
B1 O1 1.362838 1_555
B1 O15 1.388589 1_455
B1 O26 1.391706 1_555
B2 O2 1.362838 1_555
B2 O12 1.388589 1_555
B2 O25 1.391706 1_554
B3 O3 1.362838 1_555
B3 O13 1.388589 1_555
B3 O24 1.391706 1_556
B4 O8 1.377960 1_555
B4 O16 1.385729 1_555
B4 O35 1.389222 1_564
B5 O9 1.377960 1_555
B5 O17 1.385729 1_555
B5 O34 1.389222 1_546
B6 O10 1.377960 1_555
B6 O18 1.385729 1_555
B6 O33 1.389222 1_545
B7 O11 1.377960 1_555
B7 O19 1.385729 1_555
B7 O32 1.389222 1_565
B8 O31 1.374878 1_554
B8 O20 1.386776 1_555
B8 O7 1.394906 1_554
B9 O30 1.374878 1_556
B9 O21 1.386776 1_555
B9 O6 1.394906 1_556
B10 O29 1.374878 1_555
B10 O22 1.386776 1_555
B10 O5 1.394906 1_555
B11 O28 1.374878 1_555
B11 O23 1.386776 1_555
B11 O4 1.394906 1_555
O0 Y3 2.755785 1_555
O0 Y6 2.838077 1_665
O1 Y2 2.755785 1_555
O1 Y7 2.838077 1_445
O2 Y1 2.755785 1_554
O2 Y4 2.838077 1_545
O3 Y0 2.755785 1_556
O3 Y5 2.838077 1_565
O4 Y4 2.371236 1_555
O4 Y0 2.455128 1_555
O4 Y5 2.544698 1_555
O5 Y5 2.371236 1_555
O5 Y1 2.455128 1_555
O5 Y4 2.544698 1_555
O6 Y6 2.371236 1_555
O6 Y2 2.455128 1_555
O6 Y7 2.544698 1_454
O7 Y7 2.371236 1_555
O7 Y3 2.455128 1_555
O7 Y6 2.544698 1_656
O8 Y0 2.330358 1_555
O9 Y1 2.330358 1_555
O10 Y2 2.330358 1_555
O11 Y3 2.330358 1_555
O12 Y0 2.356656 1_555
O12 Y4 2.423527 1_545
O13 Y1 2.356656 1_555
O13 Y5 2.423527 1_565
O14 Y2 2.356656 1_555
O14 Y6 2.423527 1_565
O15 Y3 2.356656 1_555
O15 Y7 2.423527 1_545
O16 Y6 2.315871 1_665
O16 Y7 2.503420 1_554
O17 Y7 2.315871 1_445
O17 Y6 2.503420 1_556
O18 Y4 2.315871 1_545
O18 Y5 2.503420 1_555
O19 Y5 2.315871 1_565
O19 Y4 2.503420 1_555
O20 Y0 2.527508 1_555
O20 Y6 2.575801 1_655
O21 Y1 2.527508 1_555
O21 Y7 2.575801 1_455
O22 Y2 2.527508 1_555
O22 Y4 2.575801 1_555
O23 Y3 2.527508 1_555
O23 Y5 2.575801 1_555
O24 Y4 2.387911 1_555
O24 Y0 2.433121 1_555
O25 Y5 2.387911 1_555
O25 Y1 2.433121 1_555
O26 Y6 2.387911 1_555
O26 Y2 2.433121 1_555
O27 Y7 2.387911 1_555
O27 Y3 2.433121 1_555
O28 Y3 2.537602 1_555
O28 Y0 2.674093 1_555
O29 Y2 2.537602 1_555
O29 Y1 2.674093 1_555
O30 Y1 2.537602 1_554
O30 Y2 2.674093 1_555
O31 Y0 2.537602 1_556
O31 Y3 2.674093 1_555
O32 Y0 2.361940 1_555
O32 Y4 2.460010 1_545
O33 Y1 2.361940 1_555
O33 Y5 2.460010 1_565
O34 Y2 2.361940 1_555
O34 Y6 2.460010 1_565
O35 Y3 2.361940 1_555
O35 Y7 2.460010 1_545
