# generated using pymatgen
data_LaCeCu12
_symmetry_space_group_name_H-M   'P 1'
_cell_length_a   5.09430400
_cell_length_b   8.07857400
_cell_length_c   10.08636100
_cell_angle_alpha   90.00000000
_cell_angle_beta   90.00000000
_cell_angle_gamma   90.00000000
_symmetry_Int_Tables_number   1
_chemical_formula_structural   LaCeCu12
_chemical_formula_sum   'La2 Ce2 Cu24'
_cell_volume   415.10128049
_cell_formula_units_Z   2
loop_
 _symmetry_equiv_pos_site_id
 _symmetry_equiv_pos_as_xyz
  1  'x, y, z'
loop_
 _atom_site_type_symbol
 _atom_site_label
 _atom_site_symmetry_multiplicity
 _atom_site_fract_x
 _atom_site_fract_y
 _atom_site_fract_z
 _atom_site_occupancy
  La  La0  1  0.00000000  0.75997400  0.68526000  1
  La  La1  1  0.00000000  0.25997400  0.31474000  1
  Ce  Ce0  1  0.50000000  0.23997300  0.81493900  1
  Ce  Ce1  1  0.50000000  0.73997300  0.18506100  1
  Cu  Cu0  1  0.50000000  0.35323700  0.10731400  1
  Cu  Cu1  1  0.50000000  0.85323700  0.89268600  1
  Cu  Cu2  1  0.00000000  0.64742800  0.39166100  1
  Cu  Cu3  1  0.00000000  0.14742800  0.60833900  1
  Cu  Cu4  1  0.50000000  0.68204900  0.49445300  1
  Cu  Cu5  1  0.50000000  0.18204900  0.50554700  1
  Cu  Cu6  1  0.00000000  0.31786100  0.00450500  1
  Cu  Cu7  1  0.00000000  0.81786100  0.99549500  1
  Cu  Cu8  1  0.50000000  0.93849600  0.65247800  1
  Cu  Cu9  1  0.50000000  0.43849600  0.34752200  1
  Cu  Cu10  1  0.00000000  0.06365000  0.84797400  1
  Cu  Cu11  1  0.00000000  0.56365000  0.15202600  1
  Cu  Cu12  1  0.50000000  0.59843700  0.73475000  1
  Cu  Cu13  1  0.50000000  0.09843700  0.26525000  1
  Cu  Cu14  1  0.00000000  0.39982000  0.76564900  1
  Cu  Cu15  1  0.00000000  0.89982000  0.23435100  1
  Cu  Cu16  1  0.74467900  0.06458700  0.05857200  1
  Cu  Cu17  1  0.25532100  0.56458700  0.94142800  1
  Cu  Cu18  1  0.24617700  0.93495000  0.44065100  1
  Cu  Cu19  1  0.75382300  0.43495000  0.55934900  1
  Cu  Cu20  1  0.75382300  0.93495000  0.44065100  1
  Cu  Cu21  1  0.24617700  0.43495000  0.55934900  1
  Cu  Cu22  1  0.25532100  0.06458700  0.05857200  1
  Cu  Cu23  1  0.74467900  0.56458700  0.94142800  1
loop_
_geom_bond_atom_site_label_1
_geom_bond_atom_site_label_2
_geom_bond_distance
_geom_bond_site_symmetry_2
Ce0 Cu14 2.898740 1_655
Ce0 Cu14 2.898740 1_555
Ce0 Cu8 2.935443 1_545
Ce0 Cu10 2.937351 1_555
Ce0 Cu10 2.937351 1_655
Ce0 Cu12 3.006708 1_555
Ce0 Cu0 3.087693 1_556
Ce0 Cu16 3.098366 1_556
Ce0 Cu22 3.098366 1_556
Ce0 Cu5 3.155529 1_555
Ce0 Cu23 3.171508 1_555
Ce0 Cu17 3.171508 1_555
Ce0 Cu1 3.221186 1_545
Ce0 Cu6 3.246501 1_656
Ce0 Cu6 3.246501 1_556
Ce0 Cu19 3.286180 1_555
Ce0 Cu21 3.286180 1_555
Ce0 Cu3 3.374809 1_555
Ce0 Cu3 3.374809 1_655
Ce1 Cu15 2.898740 1_555
Ce1 Cu15 2.898740 1_655
Ce1 Cu9 2.935443 1_555
Ce1 Cu11 2.937351 1_555
Ce1 Cu11 2.937351 1_655
Ce1 Cu13 3.006708 1_565
Ce1 Cu1 3.087693 1_554
Ce1 Cu23 3.098366 1_554
Ce1 Cu17 3.098366 1_554
Ce1 Cu4 3.155529 1_555
Ce1 Cu16 3.171508 1_565
Ce1 Cu22 3.171508 1_565
Ce1 Cu0 3.221186 1_555
Ce1 Cu7 3.246501 1_654
Ce1 Cu7 3.246501 1_554
Ce1 Cu20 3.286180 1_555
Ce1 Cu18 3.286180 1_555
Ce1 Cu2 3.374809 1_555
Ce1 Cu2 3.374809 1_655
Cu0 Cu9 2.518826 1_555
Cu0 Cu13 2.602834 1_555
Cu0 Cu16 2.689433 1_555
Cu0 Cu22 2.689433 1_555
Cu0 Cu23 2.696011 1_554
Cu0 Cu17 2.696011 1_554
Cu0 Cu6 2.764952 1_655
Cu0 Cu6 2.764952 1_555
Cu0 Cu11 3.095289 1_655
Cu0 Cu11 3.095289 1_555
Cu0 La1 3.381247 1_555
Cu0 La1 3.381247 1_655
Cu1 Cu8 2.518826 1_555
Cu1 Cu12 2.602834 1_555
Cu1 Cu23 2.689433 1_555
Cu1 Cu17 2.689433 1_555
Cu1 Cu16 2.696011 1_566
Cu1 Cu22 2.696011 1_566
Cu1 Cu7 2.764952 1_555
Cu1 Cu7 2.764952 1_655
Cu1 Cu10 3.095289 1_665
Cu1 Cu10 3.095289 1_565
Cu1 La0 3.381247 1_655
Cu1 La0 3.381247 1_555
Cu2 Cu20 2.685551 1_455
Cu2 Cu21 2.716599 1_555
Cu2 Cu4 2.764264 1_455
Cu2 Cu4 2.764264 1_555
Cu2 Cu9 3.087896 1_455
Cu2 Cu9 3.087896 1_555
Cu2 La0 3.097779 1_555
Cu2 La1 3.224798 1_555
Cu3 Cu5 2.764264 1_455
Cu3 Cu5 2.764264 1_555
Cu3 Cu8 3.087896 1_545
Cu3 Cu8 3.087896 1_445
Cu3 La1 3.097779 1_555
Cu3 La0 3.224798 1_545
Cu4 Cu9 2.463253 1_555
Cu4 Cu8 2.613916 1_555
Cu4 La0 3.253947 1_555
Cu4 La0 3.253947 1_655
Cu5 Cu8 2.463253 1_545
Cu5 Cu9 2.613916 1_555
Cu5 La1 3.253947 1_555
Cu5 La1 3.253947 1_655
Cu6 La1 3.163894 1_555
Cu7 La0 3.163894 1_555
Cu8 La0 2.945720 1_555
Cu8 La0 2.945720 1_655
Cu9 La1 2.945720 1_555
Cu9 La1 2.945720 1_655
Cu10 Cu7 2.481270 1_545
Cu10 Cu22 2.490767 1_556
Cu10 Cu16 2.490767 1_456
Cu10 Cu3 2.510015 1_555
Cu10 Cu6 2.590411 1_556
Cu10 Cu14 2.839881 1_555
Cu10 La0 2.951617 1_545
Cu11 Cu6 2.481270 1_555
Cu11 Cu17 2.490767 1_554
Cu11 Cu23 2.490767 1_454
Cu11 Cu2 2.510015 1_555
Cu11 Cu7 2.590411 1_554
Cu11 Cu15 2.839881 1_555
Cu11 La1 2.951617 1_555
Cu12 Cu23 2.444206 1_555
Cu12 Cu17 2.444206 1_555
Cu12 Cu4 2.516085 1_555
Cu12 Cu19 2.558566 1_555
Cu12 Cu21 2.558566 1_555
Cu12 Cu8 2.869786 1_555
Cu12 La0 2.905194 1_555
Cu12 La0 2.905194 1_655
Cu12 Cu14 3.026495 1_555
Cu12 Cu14 3.026495 1_655
Cu13 Cu16 2.444206 1_555
Cu13 Cu22 2.444206 1_555
Cu13 Cu5 2.516085 1_555
Cu13 Cu20 2.558566 1_545
Cu13 Cu18 2.558566 1_545
Cu13 Cu9 2.869786 1_555
Cu13 La1 2.905194 1_555
Cu13 La1 2.905194 1_655
Cu13 Cu15 3.026495 1_645
Cu13 Cu15 3.026495 1_545
Cu14 Cu21 2.446039 1_555
Cu14 Cu19 2.446039 1_455
Cu14 Cu6 2.498515 1_556
Cu14 Cu17 2.570405 1_555
Cu14 Cu23 2.570405 1_455
Cu14 Cu3 2.583594 1_555
Cu14 La0 3.020400 1_555
Cu15 Cu18 2.446039 1_555
Cu15 Cu20 2.446039 1_455
Cu15 Cu7 2.498515 1_554
Cu15 Cu22 2.570405 1_565
Cu15 Cu16 2.570405 1_465
Cu15 Cu2 2.583594 1_555
Cu15 La1 3.020400 1_565
Cu16 Cu7 2.463609 1_644
Cu16 Cu6 2.485089 1_655
Cu16 Cu22 2.492938 1_555
Cu16 Cu22 2.601366 1_655
Cu16 La1 3.295347 1_655
Cu17 Cu6 2.463609 1_556
Cu17 Cu7 2.485089 1_555
Cu17 Cu23 2.492938 1_555
Cu17 Cu23 2.601366 1_455
Cu17 La0 3.295347 1_555
Cu18 Cu5 2.466836 1_565
Cu18 Cu4 2.478032 1_555
Cu18 Cu8 2.497540 1_555
Cu18 Cu20 2.508201 1_455
Cu18 Cu20 2.586103 1_555
Cu18 Cu2 2.685551 1_555
Cu18 Cu3 2.716599 1_565
Cu18 La0 3.107742 1_555
Cu18 La1 3.174915 1_565
Cu19 Cu4 2.466836 1_555
Cu19 Cu5 2.478032 1_555
Cu19 Cu9 2.497540 1_555
Cu19 Cu21 2.508201 1_655
Cu19 Cu21 2.586103 1_555
Cu19 Cu3 2.685551 1_655
Cu19 Cu2 2.716599 1_655
Cu19 La1 3.107742 1_655
Cu19 La0 3.174915 1_655
Cu20 Cu5 2.466836 1_565
Cu20 Cu4 2.478032 1_555
Cu20 Cu8 2.497540 1_555
Cu20 Cu3 2.716599 1_665
Cu20 La0 3.107742 1_655
Cu20 La1 3.174915 1_665
Cu21 Cu4 2.466836 1_555
Cu21 Cu5 2.478032 1_555
Cu21 Cu9 2.497540 1_555
Cu21 Cu3 2.685551 1_555
Cu21 La1 3.107742 1_555
Cu21 La0 3.174915 1_555
Cu22 Cu7 2.463609 1_544
Cu22 Cu6 2.485089 1_555
Cu22 La1 3.295347 1_555
Cu23 Cu6 2.463609 1_656
Cu23 Cu7 2.485089 1_655
Cu23 La0 3.295347 1_655
