# generated using pymatgen
data_CaAgBiO5
_symmetry_space_group_name_H-M   'P 1'
_cell_length_a   5.55286300
_cell_length_b   10.75765800
_cell_length_c   16.61079700
_cell_angle_alpha   90.00000000
_cell_angle_beta   90.00000000
_cell_angle_gamma   90.00000000
_symmetry_Int_Tables_number   1
_chemical_formula_structural   CaAgBiO5
_chemical_formula_sum   'Ca8 Ag8 Bi8 O40'
_cell_volume   992.25926529
_cell_formula_units_Z   8
loop_
 _symmetry_equiv_pos_site_id
 _symmetry_equiv_pos_as_xyz
  1  'x, y, z'
loop_
 _atom_site_type_symbol
 _atom_site_label
 _atom_site_symmetry_multiplicity
 _atom_site_fract_x
 _atom_site_fract_y
 _atom_site_fract_z
 _atom_site_occupancy
  Ca  Ca0  1  0.56305500  0.36825200  0.55240600  1
  Ca  Ca1  1  0.06305500  0.13174800  0.55240600  1
  Ca  Ca2  1  0.06305500  0.63174800  0.94759400  1
  Ca  Ca3  1  0.93694500  0.36825200  0.05240600  1
  Ca  Ca4  1  0.43694500  0.13174800  0.05240600  1
  Ca  Ca5  1  0.93694500  0.86825200  0.44759400  1
  Ca  Ca6  1  0.43694500  0.63174800  0.44759400  1
  Ca  Ca7  1  0.56305500  0.86825200  0.94759400  1
  Ag  Ag0  1  0.99129800  0.36420200  0.41319900  1
  Ag  Ag1  1  0.50870200  0.86420200  0.58680100  1
  Ag  Ag2  1  0.00870200  0.63579800  0.58680100  1
  Ag  Ag3  1  0.49129800  0.13579800  0.41319900  1
  Ag  Ag4  1  0.00870200  0.13579800  0.91319900  1
  Ag  Ag5  1  0.99129800  0.86420200  0.08680100  1
  Ag  Ag6  1  0.50870200  0.36420200  0.91319900  1
  Ag  Ag7  1  0.49129800  0.63579800  0.08680100  1
  Bi  Bi0  1  0.97396200  0.84402800  0.78257100  1
  Bi  Bi1  1  0.02603800  0.15597200  0.21742900  1
  Bi  Bi2  1  0.52603800  0.34402800  0.21742900  1
  Bi  Bi3  1  0.02603800  0.65597200  0.28257100  1
  Bi  Bi4  1  0.47396200  0.15597200  0.71742900  1
  Bi  Bi5  1  0.47396200  0.65597200  0.78257100  1
  Bi  Bi6  1  0.52603800  0.84402800  0.28257100  1
  Bi  Bi7  1  0.97396200  0.34402800  0.71742900  1
  O  O0  1  0.84255800  0.29824600  0.28941800  1
  O  O1  1  0.28684600  0.02413500  0.93848300  1
  O  O2  1  0.21315400  0.52413500  0.06151700  1
  O  O3  1  0.27580100  0.77925800  0.85839600  1
  O  O4  1  0.22419900  0.27925800  0.14160400  1
  O  O5  1  0.84255800  0.79824600  0.21058200  1
  O  O6  1  0.22419900  0.77925800  0.35839600  1
  O  O7  1  0.65744200  0.79824600  0.71058200  1
  O  O8  1  0.28684600  0.52413500  0.56151700  1
  O  O9  1  0.15744200  0.70175400  0.71058200  1
  O  O10  1  0.65744200  0.29824600  0.78941800  1
  O  O11  1  0.78904000  0.22866100  0.46491900  1
  O  O12  1  0.78684600  0.97586500  0.56151700  1
  O  O13  1  0.72419900  0.72074200  0.35839600  1
  O  O14  1  0.18632200  0.00386600  0.14704300  1
  O  O15  1  0.78684600  0.47586500  0.93848300  1
  O  O16  1  0.15744200  0.20175400  0.78941800  1
  O  O17  1  0.77580100  0.22074200  0.64160400  1
  O  O18  1  0.28904000  0.77133900  0.03508100  1
  O  O19  1  0.21315400  0.02413500  0.43848300  1
  O  O20  1  0.21096000  0.77133900  0.53508100  1
  O  O21  1  0.81367800  0.99613400  0.85295700  1
  O  O22  1  0.72419900  0.22074200  0.14160400  1
  O  O23  1  0.68632200  0.99613400  0.35295700  1
  O  O24  1  0.21096000  0.27133900  0.96491900  1
  O  O25  1  0.28904000  0.27133900  0.46491900  1
  O  O26  1  0.71315400  0.47586500  0.43848300  1
  O  O27  1  0.71315400  0.97586500  0.06151700  1
  O  O28  1  0.68632200  0.49613400  0.14704300  1
  O  O29  1  0.71096000  0.72866100  0.53508100  1
  O  O30  1  0.71096000  0.22866100  0.96491900  1
  O  O31  1  0.78904000  0.72866100  0.03508100  1
  O  O32  1  0.81367800  0.49613400  0.64704300  1
  O  O33  1  0.77580100  0.72074200  0.85839600  1
  O  O34  1  0.27580100  0.27925800  0.64160400  1
  O  O35  1  0.18632200  0.50386600  0.35295700  1
  O  O36  1  0.31367800  0.50386600  0.85295700  1
  O  O37  1  0.34255800  0.20175400  0.28941800  1
  O  O38  1  0.31367800  0.00386600  0.64704300  1
  O  O39  1  0.34255800  0.70175400  0.21058200  1
loop_
_geom_bond_atom_site_label_1
_geom_bond_atom_site_label_2
_geom_bond_distance
_geom_bond_site_symmetry_2
Ca0 O8 2.277589 1_555
Ca0 O25 2.348184 1_555
Ca0 O26 2.369782 1_555
Ca0 O34 2.378261 1_555
Ca0 O11 2.437535 1_555
Ca0 O17 2.471640 1_555
Ca0 O32 2.510082 1_555
Ca1 O12 2.277589 1_445
Ca1 O11 2.348184 1_455
Ca1 O19 2.369782 1_555
Ca1 O17 2.378261 1_455
Ca1 O25 2.437535 1_555
Ca1 O34 2.471640 1_555
Ca1 O38 2.510082 1_555
Ca2 O15 2.277589 1_455
Ca2 O31 2.348184 1_456
Ca2 O2 2.369782 1_556
Ca2 O33 2.378261 1_455
Ca2 O18 2.437535 1_556
Ca2 O3 2.471640 1_555
Ca2 O36 2.510082 1_555
Ca3 O2 2.277589 1_655
Ca3 O24 2.348184 1_654
Ca3 O15 2.369782 1_554
Ca3 O4 2.378261 1_655
Ca3 O30 2.437535 1_554
Ca3 O22 2.471640 1_555
Ca3 O28 2.510082 1_555
Ca4 O27 2.277589 1_545
Ca4 O30 2.348184 1_554
Ca4 O1 2.369782 1_554
Ca4 O22 2.378261 1_555
Ca4 O24 2.437535 1_554
Ca4 O4 2.471640 1_555
Ca4 O14 2.510082 1_555
Ca5 O19 2.277589 1_665
Ca5 O20 2.348184 1_655
Ca5 O12 2.369782 1_555
Ca5 O6 2.378261 1_655
Ca5 O29 2.437535 1_555
Ca5 O13 2.471640 1_555
Ca5 O23 2.510082 1_555
Ca6 O26 2.277589 1_555
Ca6 O29 2.348184 1_555
Ca6 O8 2.369782 1_555
Ca6 O13 2.378261 1_555
Ca6 O20 2.437535 1_555
Ca6 O6 2.471640 1_555
Ca6 O35 2.510082 1_555
Ca7 O1 2.277589 1_565
Ca7 O18 2.348184 1_556
Ca7 O27 2.369782 1_556
Ca7 O3 2.378261 1_555
Ca7 O31 2.437535 1_556
Ca7 O33 2.471640 1_555
Ca7 O21 2.510082 1_555
Ag0 O26 2.001203 1_555
Ag0 O11 2.031136 1_555
Ag0 O35 2.105107 1_655
Ag0 O25 2.114123 1_655
Ag0 O0 2.326618 1_555
Ag1 O12 2.001203 1_555
Ag1 O29 2.031136 1_555
Ag1 O38 2.105107 1_565
Ag1 O20 2.114123 1_555
Ag1 O7 2.326618 1_555
Ag2 O8 2.001203 1_555
Ag2 O20 2.031136 1_555
Ag2 O32 2.105107 1_455
Ag2 O29 2.114123 1_455
Ag2 O9 2.326618 1_555
Ag3 O19 2.001203 1_555
Ag3 O25 2.031136 1_555
Ag3 O23 2.105107 1_545
Ag3 O11 2.114123 1_555
Ag3 O37 2.326618 1_555
Ag4 O1 2.001203 1_555
Ag4 O24 2.031136 1_555
Ag4 O21 2.105107 1_445
Ag4 O30 2.114123 1_455
Ag4 O16 2.326618 1_555
Ag5 O27 2.001203 1_555
Ag5 O31 2.031136 1_555
Ag5 O14 2.105107 1_665
Ag5 O18 2.114123 1_655
Ag5 O5 2.326618 1_555
Ag6 O15 2.001203 1_555
Ag6 O30 2.031136 1_555
Ag6 O36 2.105107 1_555
Ag6 O24 2.114123 1_555
Ag6 O10 2.326618 1_555
Ag7 O2 2.001203 1_555
Ag7 O18 2.031136 1_555
Ag7 O28 2.105107 1_555
Ag7 O31 2.114123 1_555
Ag7 O39 2.326618 1_555
Bi0 O33 2.134516 1_555
Bi0 O7 2.182113 1_555
Bi0 O9 2.193284 1_655
Bi0 O21 2.199229 1_555
Bi0 O3 2.209317 1_655
Bi1 O4 2.134516 1_555
Bi1 O37 2.182113 1_555
Bi1 O0 2.193284 1_455
Bi1 O14 2.199229 1_555
Bi1 O22 2.209317 1_455
Bi2 O22 2.134516 1_555
Bi2 O0 2.182113 1_555
Bi2 O37 2.193284 1_555
Bi2 O28 2.199229 1_555
Bi2 O4 2.209317 1_555
Bi3 O6 2.134516 1_555
Bi3 O39 2.182113 1_555
Bi3 O5 2.193284 1_455
Bi3 O35 2.199229 1_555
Bi3 O13 2.209317 1_455
Bi4 O34 2.134516 1_555
Bi4 O16 2.182113 1_555
Bi4 O10 2.193284 1_555
Bi4 O38 2.199229 1_555
Bi4 O17 2.209317 1_555
Bi5 O3 2.134516 1_555
Bi5 O9 2.182113 1_555
Bi5 O7 2.193284 1_555
Bi5 O36 2.199229 1_555
Bi5 O33 2.209317 1_555
Bi6 O13 2.134516 1_555
Bi6 O5 2.182113 1_555
Bi6 O39 2.193284 1_555
Bi6 O23 2.199229 1_555
Bi6 O6 2.209317 1_555
Bi7 O17 2.134516 1_555
Bi7 O10 2.182113 1_555
Bi7 O16 2.193284 1_655
Bi7 O32 2.199229 1_555
Bi7 O34 2.209317 1_655
