# generated using pymatgen
data_Ca2BiSbO6
_symmetry_space_group_name_H-M   'P 1'
_cell_length_a   8.23964000
_cell_length_b   5.76887000
_cell_length_c   5.97263305
_cell_angle_alpha   89.57275988
_cell_angle_beta   90.00000000
_cell_angle_gamma   90.00000000
_symmetry_Int_Tables_number   1
_chemical_formula_structural   Ca2BiSbO6
_chemical_formula_sum   'Ca4 Bi2 Sb2 O12'
_cell_volume   283.89173461
_cell_formula_units_Z   2
loop_
 _symmetry_equiv_pos_site_id
 _symmetry_equiv_pos_as_xyz
  1  'x, y, z'
loop_
 _atom_site_type_symbol
 _atom_site_label
 _atom_site_symmetry_multiplicity
 _atom_site_fract_x
 _atom_site_fract_y
 _atom_site_fract_z
 _atom_site_occupancy
  Ca  Ca0  1  0.25000000  0.48824600  0.44338400  1
  Ca  Ca1  1  0.75000000  0.51175400  0.55661600  1
  Ca  Ca2  1  0.25000000  0.00375600  0.94865200  1
  Ca  Ca3  1  0.75000000  0.99624400  0.05134800  1
  Bi  Bi0  1  0.50000000  0.50000000  0.00000000  1
  Bi  Bi1  1  0.00000000  0.50000000  0.00000000  1
  Sb  Sb0  1  0.50000000  0.00000000  0.50000000  1
  Sb  Sb1  1  0.00000000  0.00000000  0.50000000  1
  O  O0  1  0.56142300  0.71249700  0.33281900  1
  O  O1  1  0.94123300  0.83947900  0.78691400  1
  O  O2  1  0.06142300  0.28750300  0.66718100  1
  O  O3  1  0.44123300  0.16052100  0.21308600  1
  O  O4  1  0.55876700  0.83947900  0.78691400  1
  O  O5  1  0.05876700  0.16052100  0.21308600  1
  O  O6  1  0.75000000  0.11807000  0.44477600  1
  O  O7  1  0.93857700  0.71249700  0.33281900  1
  O  O8  1  0.25000000  0.63526000  0.07439900  1
  O  O9  1  0.43857700  0.28750300  0.66718100  1
  O  O10  1  0.25000000  0.88193000  0.55522400  1
  O  O11  1  0.75000000  0.36474000  0.92560100  1
loop_
_geom_bond_atom_site_label_1
_geom_bond_atom_site_label_2
_geom_bond_distance
_geom_bond_site_symmetry_2
Ca0 O9 2.349252 1_555
Ca0 O2 2.349252 1_555
Ca0 O8 2.355461 1_555
Ca0 O10 2.372081 1_555
Ca0 O5 2.826292 1_555
Ca0 O3 2.826292 1_555
Ca0 O0 2.946415 1_555
Ca0 O7 2.946415 1_455
Ca1 O7 2.349252 1_555
Ca1 O0 2.349252 1_555
Ca1 O11 2.355461 1_555
Ca1 O6 2.372081 1_555
Ca1 O4 2.826292 1_555
Ca1 O1 2.826292 1_555
Ca1 O9 2.946415 1_555
Ca1 O2 2.946415 1_655
Ca2 O8 2.249289 1_546
Ca2 O3 2.411714 1_556
Ca2 O5 2.411714 1_556
Ca2 O10 2.457665 1_545
Ca2 O2 2.806936 1_555
Ca2 O9 2.806936 1_555
Ca2 O1 2.884012 1_445
Ca2 O4 2.884012 1_545
Ca3 O11 2.249289 1_564
Ca3 O4 2.411714 1_554
Ca3 O1 2.411714 1_554
Ca3 O6 2.457665 1_565
Ca3 O0 2.806936 1_555
Ca3 O7 2.806936 1_555
Ca3 O3 2.884012 1_565
Ca3 O5 2.884012 1_665
Bi0 O8 2.248270 1_555
Bi0 O11 2.248270 1_554
Bi0 O3 2.377476 1_555
Bi0 O4 2.377476 1_554
Bi0 O0 2.397208 1_555
Bi0 O9 2.397208 1_554
Bi1 O8 2.248270 1_555
Bi1 O11 2.248270 1_454
Bi1 O1 2.377476 1_454
Bi1 O5 2.377476 1_555
Bi1 O7 2.397208 1_455
Bi1 O2 2.397208 1_554
O0 Sb0 2.007164 1_565
O1 Sb1 2.001214 1_665
O2 Sb1 2.007164 1_555
O3 Sb0 2.001214 1_555
O4 Sb0 2.001214 1_565
O5 Sb1 2.001214 1_555
O6 Sb1 2.193766 1_655
O6 Sb0 2.193766 1_555
O7 Sb1 2.007164 1_665
O9 Sb0 2.007164 1_555
O10 Sb1 2.193766 1_565
O10 Sb0 2.193766 1_565
