# generated using pymatgen
data_Na2Co(Si2O5)2
_symmetry_space_group_name_H-M   'P 1'
_cell_length_a   7.01588500
_cell_length_b   7.87491655
_cell_length_c   9.88298531
_cell_angle_alpha   102.17871536
_cell_angle_beta   102.25128250
_cell_angle_gamma   114.83716140
_symmetry_Int_Tables_number   1
_chemical_formula_structural   Na2Co(Si2O5)2
_chemical_formula_sum   'Na4 Co2 Si8 O20'
_cell_volume   455.67354172
_cell_formula_units_Z   2
loop_
 _symmetry_equiv_pos_site_id
 _symmetry_equiv_pos_as_xyz
  1  'x, y, z'
loop_
 _atom_site_type_symbol
 _atom_site_label
 _atom_site_symmetry_multiplicity
 _atom_site_fract_x
 _atom_site_fract_y
 _atom_site_fract_z
 _atom_site_occupancy
  Na  Na0  1  0.65628500  0.76800500  0.98405400  1
  Na  Na1  1  0.73818500  0.27525300  0.42146300  1
  Na  Na2  1  0.26181500  0.72474700  0.57853700  1
  Na  Na3  1  0.34371500  0.23199500  0.01594600  1
  Co  Co0  1  0.75499600  0.69237400  0.58120900  1
  Co  Co1  1  0.24500400  0.30762600  0.41879100  1
  Si  Si0  1  0.09025200  0.71255000  0.86207700  1
  Si  Si1  1  0.90974800  0.28745000  0.13792300  1
  Si  Si2  1  0.23461900  0.92772200  0.19786600  1
  Si  Si3  1  0.76538100  0.07227800  0.80213400  1
  Si  Si4  1  0.38769300  0.62816900  0.25862400  1
  Si  Si5  1  0.18961000  0.38091000  0.75197400  1
  Si  Si6  1  0.81039000  0.61909000  0.24802600  1
  Si  Si7  1  0.61230700  0.37183100  0.74137600  1
  O  O0  1  0.98129500  0.79188900  0.19755800  1
  O  O1  1  0.01870500  0.20811100  0.80244200  1
  O  O2  1  0.84838200  0.55312800  0.86745700  1
  O  O3  1  0.15161800  0.44687200  0.13254300  1
  O  O4  1  0.57401800  0.62182700  0.18234100  1
  O  O5  1  0.42598200  0.37817300  0.81765900  1
  O  O6  1  0.24666900  0.60207500  0.85969200  1
  O  O7  1  0.75333100  0.39792500  0.14030800  1
  O  O8  1  0.88600100  0.64518200  0.41835400  1
  O  O9  1  0.11399900  0.35481800  0.58164600  1
  O  O10  1  0.42661200  0.59795400  0.41601300  1
  O  O11  1  0.57338800  0.40204600  0.58398700  1
  O  O12  1  0.06373300  0.79093800  0.72720500  1
  O  O13  1  0.93626700  0.20906200  0.27279500  1
  O  O14  1  0.78538300  0.10386300  0.97781600  1
  O  O15  1  0.21461700  0.89613700  0.02218400  1
  O  O16  1  0.60486000  0.15775000  0.73046000  1
  O  O17  1  0.39514000  0.84225000  0.26954000  1
  O  O18  1  0.34466100  0.16084700  0.28054400  1
  O  O19  1  0.65533900  0.83915300  0.71945600  1
loop_
_geom_bond_atom_site_label_1
_geom_bond_atom_site_label_2
_geom_bond_distance
_geom_bond_site_symmetry_2
Na0 O14 2.428880 1_565
Na0 O6 2.479027 1_555
Na0 O4 2.524325 1_556
Na0 O0 2.667860 1_556
Na0 O5 2.704546 1_555
Na0 O2 2.785643 1_555
Na0 O19 2.786795 1_555
Na1 O13 2.348150 1_555
Na1 O11 2.448473 1_555
Na1 O18 2.474484 1_555
Na1 O9 2.504581 1_655
Na1 O8 2.660120 1_555
Na2 O12 2.348150 1_555
Na2 O10 2.448473 1_555
Na2 O19 2.474484 1_555
Na2 O8 2.504581 1_455
Na2 O9 2.660120 1_555
Na3 O15 2.428880 1_545
Na3 O7 2.479027 1_555
Na3 O5 2.524325 1_554
Na3 O1 2.667860 1_554
Na3 O4 2.704546 1_555
Na3 O3 2.785643 1_555
Na3 O18 2.786795 1_555
Co0 O19 2.027233 1_555
Co0 O12 2.040798 1_655
Co0 O8 2.058095 1_555
Co0 O11 2.108436 1_555
Co0 O10 2.231293 1_555
Co1 O18 2.027233 1_555
Co1 O13 2.040798 1_455
Co1 O9 2.058095 1_555
Co1 O10 2.108436 1_555
Co1 O11 2.231293 1_555
O0 Si2 1.643840 1_655
O0 Si6 1.645504 1_555
O1 Si3 1.643840 1_455
O1 Si5 1.645504 1_555
O2 Si7 1.649618 1_555
O2 Si0 1.653868 1_655
O3 Si4 1.649618 1_555
O3 Si1 1.653868 1_455
O4 Si4 1.654372 1_555
O4 Si6 1.658637 1_555
O5 Si7 1.654372 1_555
O5 Si5 1.658637 1_555
O6 Si0 1.663156 1_555
O6 Si5 1.666750 1_555
O7 Si1 1.663156 1_555
O7 Si6 1.666750 1_555
O8 Si6 1.593991 1_555
O9 Si5 1.593991 1_555
O10 Si4 1.606597 1_555
O11 Si7 1.606597 1_555
O12 Si0 1.590849 1_555
O13 Si1 1.590849 1_555
O14 Si1 1.656615 1_556
O14 Si3 1.667701 1_555
O15 Si0 1.656615 1_554
O15 Si2 1.667701 1_555
O16 Si7 1.644202 1_555
O16 Si3 1.650010 1_555
O17 Si4 1.644202 1_555
O17 Si2 1.650010 1_555
O18 Si2 1.594581 1_545
O19 Si3 1.594581 1_565
