# generated using pymatgen
data_Ce4(CoB2)3
_symmetry_space_group_name_H-M   'P 1'
_cell_length_a   5.21437010
_cell_length_b   5.21437000
_cell_length_c   7.88989019
_cell_angle_alpha   70.70413384
_cell_angle_beta   70.70413371
_cell_angle_gamma   60.00000063
_symmetry_Int_Tables_number   1
_chemical_formula_structural   Ce4(CoB2)3
_chemical_formula_sum   'Ce4 Co3 B6'
_cell_volume   171.72664567
_cell_formula_units_Z   1
loop_
 _symmetry_equiv_pos_site_id
 _symmetry_equiv_pos_as_xyz
  1  'x, y, z'
loop_
 _atom_site_type_symbol
 _atom_site_label
 _atom_site_symmetry_multiplicity
 _atom_site_fract_x
 _atom_site_fract_y
 _atom_site_fract_z
 _atom_site_occupancy
  Ce  Ce0  1  0.73653000  0.73653000  0.79040900  1
  Ce  Ce1  1  0.26347000  0.26347000  0.20959100  1
  Ce  Ce2  1  0.59727900  0.59727900  0.20816400  1
  Ce  Ce3  1  0.40272100  0.40272100  0.79183600  1
  Co  Co0  1  0.00000000  0.00000000  0.00000000  1
  Co  Co1  1  0.88659700  0.88659700  0.34020800  1
  Co  Co2  1  0.11340300  0.11340300  0.65979200  1
  B  B0  1  0.50000000  0.16903900  0.50000000  1
  B  B1  1  0.83096100  0.50000000  0.50000000  1
  B  B2  1  0.16903900  0.83096100  0.50000000  1
  B  B3  1  0.16903900  0.50000000  0.50000000  1
  B  B4  1  0.83096100  0.16903900  0.50000000  1
  B  B5  1  0.50000000  0.83096100  0.50000000  1
loop_
_geom_bond_atom_site_label_1
_geom_bond_atom_site_label_2
_geom_bond_distance
_geom_bond_site_symmetry_2
Ce0 Ce3 3.010536 1_555
Ce0 Ce3 3.010536 1_565
Ce0 Ce3 3.010536 1_655
Ce0 Ce2 3.046667 1_556
Ce0 Co2 3.157628 1_655
Ce0 Co2 3.157628 1_565
Ce0 Co2 3.157637 1_665
Ce0 Co0 3.376335 1_656
Ce0 Co0 3.376335 1_566
Ce0 Co0 3.376339 1_666
Ce1 Ce2 3.010536 1_555
Ce1 Ce2 3.010536 1_545
Ce1 Ce2 3.010536 1_455
Ce1 Ce3 3.046667 1_554
Ce1 Co1 3.157628 1_455
Ce1 Co1 3.157628 1_545
Ce1 Co1 3.157637 1_445
Ce1 Co0 3.376335 1_565
Ce1 Co0 3.376335 1_655
Ce1 Co0 3.376339 1_555
Ce2 Co1 3.160780 1_555
Ce2 Co1 3.160789 1_545
Ce2 Co1 3.160789 1_455
Ce2 Co0 3.371634 1_665
Ce2 Co0 3.371639 1_655
Ce2 Co0 3.371639 1_565
Ce3 Co2 3.160780 1_555
Ce3 Co2 3.160789 1_565
Ce3 Co2 3.160789 1_655
Ce3 Co0 3.371634 1_556
Ce3 Co0 3.371639 1_566
Ce3 Co0 3.371639 1_656
Co0 Co1 2.481121 1_445
Co0 Co2 2.481121 1_554
B0 B4 1.725753 1_555
B0 B3 1.725753 1_555
B0 B5 1.762864 1_545
B0 Co2 2.097801 1_555
B0 Co1 2.097804 1_545
B0 Ce3 2.740086 1_555
B0 Ce2 2.740089 1_555
B0 Ce1 2.743790 1_555
B0 Ce0 2.743792 1_545
B1 B4 1.725753 1_555
B1 B5 1.725753 1_555
B1 B3 1.762864 1_655
B1 Co1 2.097801 1_555
B1 Co2 2.097804 1_655
B1 Ce2 2.740086 1_555
B1 Ce3 2.740089 1_555
B1 Ce0 2.743790 1_555
B1 Ce1 2.743792 1_655
B2 B3 1.725753 1_555
B2 B5 1.725753 1_555
B2 B4 1.762864 1_465
B2 Co2 2.097806 1_565
B2 Co1 2.097806 1_455
B2 Ce3 2.740088 1_555
B2 Ce2 2.740088 1_555
B2 Ce1 2.743793 1_565
B2 Ce0 2.743793 1_455
B3 Co2 2.097801 1_555
B3 Co1 2.097804 1_455
B3 Ce3 2.740086 1_555
B3 Ce2 2.740089 1_555
B3 Ce1 2.743790 1_555
B3 Ce0 2.743792 1_455
B4 Co1 2.097806 1_545
B4 Co2 2.097806 1_655
B4 Ce2 2.740088 1_555
B4 Ce3 2.740088 1_555
B4 Ce0 2.743793 1_545
B4 Ce1 2.743793 1_655
B5 Co1 2.097801 1_555
B5 Co2 2.097804 1_565
B5 Ce2 2.740086 1_555
B5 Ce3 2.740089 1_555
B5 Ce0 2.743790 1_555
B5 Ce1 2.743792 1_565
