# generated using pymatgen
data_MnAgO2
_symmetry_space_group_name_H-M   'P 1'
_cell_length_a   3.13737648
_cell_length_b   5.13105662
_cell_length_c   12.42633277
_cell_angle_alpha   90.00307744
_cell_angle_beta   90.00487090
_cell_angle_gamma   94.88012883
_symmetry_Int_Tables_number   1
_chemical_formula_structural   MnAgO2
_chemical_formula_sum   'Mn4 Ag4 O8'
_cell_volume   199.31463234
_cell_formula_units_Z   4
loop_
 _symmetry_equiv_pos_site_id
 _symmetry_equiv_pos_as_xyz
  1  'x, y, z'
loop_
 _atom_site_type_symbol
 _atom_site_label
 _atom_site_symmetry_multiplicity
 _atom_site_fract_x
 _atom_site_fract_y
 _atom_site_fract_z
 _atom_site_occupancy
  Mn  Mn0  1  0.49942561  0.50006881  0.49999951  1
  Mn  Mn1  1  0.00057552  -0.00004481  -0.00001103  1
  Mn  Mn2  1  0.99944202  0.00008106  0.50000098  1
  Mn  Mn3  1  0.50055331  0.49994688  0.99998919  1
  Ag  Ag0  1  0.05442223  0.31204631  0.25003652  1
  Ag  Ag1  1  0.55440934  0.81205437  0.24996665  1
  Ag  Ag2  1  0.44559269  0.18785954  0.75003651  1
  Ag  Ag3  1  0.94557633  0.68786204  0.74997248  1
  O  O0  1  0.04243573  0.31808265  0.08225451  1
  O  O1  1  0.54191355  0.81828772  0.08218416  1
  O  O2  1  0.45924929  0.18162051  0.91781666  1
  O  O3  1  0.95873481  0.68181220  0.91775289  1
  O  O4  1  0.45773439  0.18192028  0.58219145  1
  O  O5  1  0.95822811  0.68176008  0.58212504  1
  O  O6  1  0.04060574  0.31839883  0.41787293  1
  O  O7  1  0.54109934  0.81824552  0.41781154  1
loop_
_geom_bond_atom_site_label_1
_geom_bond_atom_site_label_2
_geom_bond_distance
_geom_bond_site_symmetry_2
Mn0 O4 1.920672 1_555
Mn0 O7 1.920768 1_555
Mn0 O6 1.937494 1_555
Mn0 O5 1.937495 1_555
Mn0 O6 2.250044 1_655
Mn0 O5 2.250134 1_455
Mn1 O3 1.920832 1_444
Mn1 O0 1.920960 1_555
Mn1 O2 1.937644 1_554
Mn1 O1 1.937772 1_445
Mn1 O2 2.250567 1_454
Mn1 O1 2.250731 1_545
Mn2 O5 1.920977 1_545
Mn2 O6 1.920991 1_655
Mn2 O4 1.937115 1_655
Mn2 O7 1.937211 1_545
Mn2 O7 2.251988 1_645
Mn2 O4 2.252127 1_555
Mn3 O2 1.921214 1_555
Mn3 O1 1.921424 1_556
Mn3 O3 1.937409 1_555
Mn3 O0 1.937456 1_556
Mn3 O3 2.252639 1_455
Mn3 O0 2.252958 1_656
Ag0 O0 2.085530 1_555
Ag0 O6 2.086356 1_555
Ag1 O1 2.085584 1_555
Ag1 O7 2.086412 1_555
Ag2 O2 2.085632 1_555
Ag2 O4 2.086318 1_555
Ag3 O3 2.085585 1_555
Ag3 O5 2.086393 1_555
