# generated using pymatgen
data_KP(HO2)2
_symmetry_space_group_name_H-M   'P 1'
_cell_length_a   4.55249400
_cell_length_b   6.20628226
_cell_length_c   14.54505903
_cell_angle_alpha   91.76495440
_cell_angle_beta   90.00000000
_cell_angle_gamma   90.00000000
_symmetry_Int_Tables_number   1
_chemical_formula_structural   KP(HO2)2
_chemical_formula_sum   'K4 P4 H8 O16'
_cell_volume   410.76204680
_cell_formula_units_Z   4
loop_
 _symmetry_equiv_pos_site_id
 _symmetry_equiv_pos_as_xyz
  1  'x, y, z'
loop_
 _atom_site_type_symbol
 _atom_site_label
 _atom_site_symmetry_multiplicity
 _atom_site_fract_x
 _atom_site_fract_y
 _atom_site_fract_z
 _atom_site_occupancy
  K  K0  1  0.99909400  0.23515900  0.86649200  1
  K  K1  1  0.47167600  0.75903200  0.63234600  1
  K  K2  1  0.02832400  0.75903200  0.13234600  1
  K  K3  1  0.50090600  0.23515900  0.36649200  1
  P  P0  1  0.95252600  0.26580200  0.62788600  1
  P  P1  1  0.45691500  0.75062300  0.87289700  1
  P  P2  1  0.04308500  0.75062300  0.37289700  1
  P  P3  1  0.54747400  0.26580200  0.12788600  1
  H  H0  1  0.48359200  0.25852800  0.68777800  1
  H  H1  1  0.98669900  0.74793200  0.81312100  1
  H  H2  1  0.51330100  0.74793200  0.31312100  1
  H  H3  1  0.01640800  0.25852800  0.18777800  1
  H  H4  1  0.96015100  0.01656200  0.50972300  1
  H  H5  1  0.53984900  0.01656200  0.00972300  1
  H  H6  1  0.51890500  0.51087500  0.98677800  1
  H  H7  1  0.98109500  0.51087500  0.48677800  1
  O  O0  1  0.69103000  0.33410300  0.69415500  1
  O  O1  1  0.19415400  0.66899900  0.80946800  1
  O  O2  1  0.30584600  0.66899900  0.30946800  1
  O  O3  1  0.80897000  0.33410300  0.19415500  1
  O  O4  1  0.81221400  0.09560100  0.55648200  1
  O  O5  1  0.34004300  0.91015900  0.94656700  1
  O  O6  1  0.15995700  0.91015900  0.44656700  1
  O  O7  1  0.68778600  0.09560100  0.05648200  1
  O  O8  1  0.05827200  0.46643100  0.57851300  1
  O  O9  1  0.58274100  0.53950900  0.91795800  1
  O  O10  1  0.91725900  0.53950900  0.41795800  1
  O  O11  1  0.44172800  0.46643100  0.07851300  1
  O  O12  1  0.19469800  0.16159400  0.68446200  1
  O  O13  1  0.69938900  0.84099000  0.81217200  1
  O  O14  1  0.80061100  0.84099000  0.31217200  1
  O  O15  1  0.30530200  0.16159400  0.18446200  1
loop_
_geom_bond_atom_site_label_1
_geom_bond_atom_site_label_2
_geom_bond_distance
_geom_bond_site_symmetry_2
K0 O9 2.762943 1_555
K0 O12 2.817257 1_655
K0 O5 2.824696 1_645
K0 O13 2.889859 1_545
K0 O0 2.953320 1_555
K0 O1 2.977213 1_655
K1 O8 2.713896 1_555
K1 O13 2.844768 1_555
K1 O4 2.850659 1_565
K1 O12 2.879234 1_565
K1 O1 2.938398 1_555
K1 O0 2.984371 1_555
K1 O6 3.217358 1_555
K1 O8 3.309784 1_655
K2 O11 2.713896 1_555
K2 O14 2.844768 1_455
K2 O7 2.850659 1_465
K2 O15 2.879234 1_565
K2 O2 2.938398 1_555
K2 O3 2.984371 1_455
K2 O5 3.217358 1_554
K2 O11 3.309784 1_455
K3 O10 2.762943 1_555
K3 O15 2.817257 1_555
K3 O6 2.824696 1_545
K3 O14 2.889859 1_545
K3 O3 2.953320 1_555
K3 O2 2.977213 1_555
H0 O0 1.057231 1_555
H0 O12 1.446437 1_555
H1 O1 1.064502 1_655
H1 O13 1.430050 1_555
H2 O2 1.064502 1_555
H2 O14 1.430050 1_555
H3 O3 1.057231 1_455
H3 O15 1.446437 1_555
H4 O4 1.065931 1_555
H4 O6 1.438735 1_645
H5 O7 1.065931 1_555
H5 O5 1.438735 1_544
H6 O9 1.062534 1_555
H6 O11 1.415108 1_556
H7 O10 1.062534 1_555
H7 O8 1.415108 1_655
O0 P0 1.581388 1_555
O1 P1 1.584274 1_555
O2 P2 1.584274 1_555
O3 P3 1.581388 1_555
O4 P0 1.592134 1_555
O5 P1 1.531753 1_555
O6 P2 1.531753 1_555
O7 P3 1.592134 1_555
O8 P0 1.533941 1_455
O9 P1 1.589749 1_555
O10 P2 1.589749 1_655
O11 P3 1.533941 1_555
O12 P0 1.530916 1_455
O13 P1 1.530914 1_555
O14 P2 1.530914 1_655
O15 P3 1.530916 1_555
