# generated using pymatgen
data_Ca5(AgN2)2
_symmetry_space_group_name_H-M   'P 1'
_cell_length_a   7.98932200
_cell_length_b   7.98932200
_cell_length_c   13.39375100
_cell_angle_alpha   90.00000000
_cell_angle_beta   90.00000000
_cell_angle_gamma   90.00000000
_symmetry_Int_Tables_number   1
_chemical_formula_structural   Ca5(AgN2)2
_chemical_formula_sum   'Ca20 Ag8 N16'
_cell_volume   854.91329558
_cell_formula_units_Z   4
loop_
 _symmetry_equiv_pos_site_id
 _symmetry_equiv_pos_as_xyz
  1  'x, y, z'
loop_
 _atom_site_type_symbol
 _atom_site_label
 _atom_site_symmetry_multiplicity
 _atom_site_fract_x
 _atom_site_fract_y
 _atom_site_fract_z
 _atom_site_occupancy
  Ca  Ca0  1  0.75000000  0.75000000  0.37194900  1
  Ca  Ca1  1  0.75000000  0.75000000  0.87194900  1
  Ca  Ca2  1  0.25000000  0.25000000  0.62805100  1
  Ca  Ca3  1  0.25000000  0.25000000  0.12805100  1
  Ca  Ca4  1  0.13266200  0.57757700  0.41659200  1
  Ca  Ca5  1  0.36733800  0.57757700  0.91659200  1
  Ca  Ca6  1  0.13266200  0.92242300  0.91659200  1
  Ca  Ca7  1  0.36733800  0.92242300  0.41659200  1
  Ca  Ca8  1  0.57757700  0.13266200  0.91659200  1
  Ca  Ca9  1  0.92242300  0.13266200  0.41659200  1
  Ca  Ca10  1  0.57757700  0.36733800  0.41659200  1
  Ca  Ca11  1  0.92242300  0.36733800  0.91659200  1
  Ca  Ca12  1  0.86733800  0.42242300  0.58340800  1
  Ca  Ca13  1  0.63266200  0.42242300  0.08340800  1
  Ca  Ca14  1  0.86733800  0.07757700  0.08340800  1
  Ca  Ca15  1  0.63266200  0.07757700  0.58340800  1
  Ca  Ca16  1  0.42242300  0.86733800  0.08340800  1
  Ca  Ca17  1  0.07757700  0.86733800  0.58340800  1
  Ca  Ca18  1  0.42242300  0.63266200  0.58340800  1
  Ca  Ca19  1  0.07757700  0.63266200  0.08340800  1
  Ag  Ag0  1  0.09498400  0.90501600  0.25000000  1
  Ag  Ag1  1  0.40501600  0.90501600  0.75000000  1
  Ag  Ag2  1  0.09498400  0.59498400  0.75000000  1
  Ag  Ag3  1  0.40501600  0.59498400  0.25000000  1
  Ag  Ag4  1  0.90501600  0.09498400  0.75000000  1
  Ag  Ag5  1  0.59498400  0.09498400  0.25000000  1
  Ag  Ag6  1  0.90501600  0.40501600  0.25000000  1
  Ag  Ag7  1  0.59498400  0.40501600  0.75000000  1
  N  N0  1  0.63771700  0.05055100  0.40430900  1
  N  N1  1  0.86228300  0.05055100  0.90430900  1
  N  N2  1  0.63771700  0.44944900  0.90430900  1
  N  N3  1  0.86228300  0.44944900  0.40430900  1
  N  N4  1  0.05055100  0.63771700  0.90430900  1
  N  N5  1  0.44944900  0.63771700  0.40430900  1
  N  N6  1  0.05055100  0.86228300  0.40430900  1
  N  N7  1  0.44944900  0.86228300  0.90430900  1
  N  N8  1  0.36228300  0.94944900  0.59569100  1
  N  N9  1  0.13771700  0.94944900  0.09569100  1
  N  N10  1  0.36228300  0.55055100  0.09569100  1
  N  N11  1  0.13771700  0.55055100  0.59569100  1
  N  N12  1  0.94944900  0.36228300  0.09569100  1
  N  N13  1  0.55055100  0.36228300  0.59569100  1
  N  N14  1  0.94944900  0.13771700  0.59569100  1
  N  N15  1  0.55055100  0.13771700  0.09569100  1
loop_
_geom_bond_atom_site_label_1
_geom_bond_atom_site_label_2
_geom_bond_distance
_geom_bond_site_symmetry_2
Ca0 N3 2.599680 1_555
Ca0 N6 2.599680 1_655
Ca0 N0 2.599680 1_565
Ca0 N5 2.599680 1_555
Ca1 N7 2.599680 1_555
Ca1 N1 2.599680 1_565
Ca1 N2 2.599680 1_555
Ca1 N4 2.599680 1_655
Ca2 N13 2.599680 1_555
Ca2 N8 2.599680 1_545
Ca2 N11 2.599680 1_555
Ca2 N14 2.599680 1_455
Ca3 N10 2.599680 1_555
Ca3 N12 2.599680 1_455
Ca3 N9 2.599680 1_545
Ca3 N15 2.599680 1_555
Ca4 N6 2.373027 1_555
Ca4 N3 2.396072 1_455
Ca4 N11 2.408844 1_555
Ca4 N5 2.581365 1_555
Ca5 N7 2.373027 1_555
Ca5 N2 2.396072 1_555
Ca5 N10 2.408844 1_556
Ca5 N4 2.581365 1_555
Ca6 N4 2.373027 1_555
Ca6 N1 2.396072 1_465
Ca6 N9 2.408844 1_556
Ca6 N7 2.581365 1_555
Ca7 N5 2.373027 1_555
Ca7 N0 2.396072 1_565
Ca7 N8 2.408844 1_555
Ca7 N6 2.581365 1_555
Ca8 N1 2.373027 1_555
Ca8 N7 2.396072 1_545
Ca8 N15 2.408844 1_556
Ca8 N2 2.581365 1_555
Ca9 N0 2.373027 1_555
Ca9 N6 2.396072 1_645
Ca9 N14 2.408844 1_555
Ca9 N3 2.581365 1_555
Ca10 N3 2.373027 1_555
Ca10 N5 2.396072 1_555
Ca10 N13 2.408844 1_555
Ca10 N0 2.581365 1_555
Ca11 N2 2.373027 1_555
Ca11 N4 2.396072 1_655
Ca11 N12 2.408844 1_556
Ca11 N1 2.581365 1_555
Ca12 N14 2.373027 1_555
Ca12 N11 2.396072 1_655
Ca12 N3 2.408844 1_555
Ca12 N13 2.581365 1_555
Ca13 N15 2.373027 1_555
Ca13 N10 2.396072 1_555
Ca13 N2 2.408844 1_554
Ca13 N12 2.581365 1_555
Ca14 N12 2.373027 1_555
Ca14 N9 2.396072 1_645
Ca14 N1 2.408844 1_554
Ca14 N15 2.581365 1_555
Ca15 N13 2.373027 1_555
Ca15 N8 2.396072 1_545
Ca15 N0 2.408844 1_555
Ca15 N14 2.581365 1_555
Ca16 N9 2.373027 1_555
Ca16 N15 2.396072 1_565
Ca16 N7 2.408844 1_554
Ca16 N10 2.581365 1_555
Ca17 N8 2.373027 1_555
Ca17 N14 2.396072 1_465
Ca17 N6 2.408844 1_555
Ca17 N11 2.581365 1_555
Ca18 N11 2.373027 1_555
Ca18 N13 2.396072 1_555
Ca18 N5 2.408844 1_555
Ca18 N8 2.581365 1_555
Ca19 N10 2.373027 1_555
Ca19 N12 2.396072 1_455
Ca19 N4 2.408844 1_554
Ca19 N9 2.581365 1_555
Ag0 N6 2.124651 1_555
Ag0 N9 2.124651 1_555
Ag1 N7 2.124651 1_555
Ag1 N8 2.124651 1_555
Ag2 N4 2.124651 1_555
Ag2 N11 2.124651 1_555
Ag3 N5 2.124651 1_555
Ag3 N10 2.124651 1_555
Ag4 N1 2.124651 1_555
Ag4 N14 2.124651 1_555
Ag5 N0 2.124651 1_555
Ag5 N15 2.124651 1_555
Ag6 N3 2.124651 1_555
Ag6 N12 2.124651 1_555
Ag7 N2 2.124651 1_555
Ag7 N13 2.124651 1_555
