# generated using pymatgen
data_Te4Mo(WS)2
_symmetry_space_group_name_H-M   'P 1'
_cell_length_a   3.41745848
_cell_length_b   3.41745848
_cell_length_c   31.78352300
_cell_angle_alpha   90.00000000
_cell_angle_beta   90.00000000
_cell_angle_gamma   120.00000932
_symmetry_Int_Tables_number   1
_chemical_formula_structural   Te4Mo(WS)2
_chemical_formula_sum   'Te4 Mo1 W2 S2'
_cell_volume   321.46901481
_cell_formula_units_Z   1
loop_
 _symmetry_equiv_pos_site_id
 _symmetry_equiv_pos_as_xyz
  1  'x, y, z'
loop_
 _atom_site_type_symbol
 _atom_site_label
 _atom_site_symmetry_multiplicity
 _atom_site_fract_x
 _atom_site_fract_y
 _atom_site_fract_z
 _atom_site_occupancy
  Te  Te0  1  0.00000000  0.00000000  0.40608400  1
  Te  Te1  1  0.33333300  0.66666700  0.05690000  1
  Te  Te2  1  0.33333300  0.66666700  0.17429500  1
  Te  Te3  1  0.00000000  0.00000000  0.28803800  1
  Mo  Mo0  1  0.00000000  0.00000000  0.11554800  1
  W  W0  1  0.00000000  0.00000000  0.57828600  1
  W  W1  1  0.33333300  0.66666700  0.34704700  1
  S  S0  1  0.33333300  0.66666700  0.53111100  1
  S  S1  1  0.33333300  0.66666700  0.62553200  1
loop_
_geom_bond_atom_site_label_1
_geom_bond_atom_site_label_2
_geom_bond_distance
_geom_bond_site_symmetry_2
Te0 W1 2.722846 1_545
Te0 W1 2.722848 1_555
Te0 W1 2.722848 1_445
Te3 W1 2.722233 1_545
Te3 W1 2.722235 1_445
Te3 W1 2.722235 1_555
Mo0 Te1 2.714341 1_545
Mo0 Te1 2.714343 1_445
Mo0 Te1 2.714343 1_555
Mo0 Te2 2.716503 1_545
Mo0 Te2 2.716504 1_555
Mo0 Te2 2.716504 1_445
S0 W0 2.478137 1_565
S0 W0 2.478139 1_665
S0 W0 2.478139 1_555
S1 W0 2.479503 1_565
S1 W0 2.479505 1_555
S1 W0 2.479505 1_665
