# generated using pymatgen
data_Na6Mn2V4O15
_symmetry_space_group_name_H-M   'P 1'
_cell_length_a   5.78506700
_cell_length_b   7.47150918
_cell_length_c   17.52506234
_cell_angle_alpha   90.11304969
_cell_angle_beta   90.00000000
_cell_angle_gamma   90.00000000
_symmetry_Int_Tables_number   1
_chemical_formula_structural   Na6Mn2V4O15
_chemical_formula_sum   'Na12 Mn4 V8 O30'
_cell_volume   757.48747059
_cell_formula_units_Z   2
loop_
 _symmetry_equiv_pos_site_id
 _symmetry_equiv_pos_as_xyz
  1  'x, y, z'
loop_
 _atom_site_type_symbol
 _atom_site_label
 _atom_site_symmetry_multiplicity
 _atom_site_fract_x
 _atom_site_fract_y
 _atom_site_fract_z
 _atom_site_occupancy
  Na  Na0  1  0.73017200  0.50000000  0.25000000  1
  Na  Na1  1  0.26982800  0.50000000  0.75000000  1
  Na  Na2  1  0.74871100  0.00000000  0.25000000  1
  Na  Na3  1  0.25128900  0.00000000  0.75000000  1
  Na  Na4  1  0.23363700  0.99767000  0.42186200  1
  Na  Na5  1  0.23363700  0.00233000  0.07813800  1
  Na  Na6  1  0.76636300  0.00233000  0.57813800  1
  Na  Na7  1  0.76636300  0.99767000  0.92186200  1
  Na  Na8  1  0.21085200  0.45934100  0.41837900  1
  Na  Na9  1  0.21085200  0.54065900  0.08162100  1
  Na  Na10  1  0.78914800  0.54065900  0.58162100  1
  Na  Na11  1  0.78914800  0.45934100  0.91837900  1
  Mn  Mn0  1  0.74189000  0.74988600  0.40849800  1
  Mn  Mn1  1  0.74189000  0.25011400  0.09150200  1
  Mn  Mn2  1  0.25811000  0.25011400  0.59150200  1
  Mn  Mn3  1  0.25811000  0.74988600  0.90849800  1
  V  V0  1  0.25509300  0.74585500  0.55684600  1
  V  V1  1  0.25509300  0.25414500  0.94315400  1
  V  V2  1  0.74490700  0.25414500  0.44315400  1
  V  V3  1  0.74490700  0.74585500  0.05684600  1
  V  V4  1  0.24288200  0.73796000  0.26869400  1
  V  V5  1  0.24288200  0.26204000  0.23130600  1
  V  V6  1  0.75711800  0.26204000  0.73130600  1
  V  V7  1  0.75711800  0.73796000  0.76869400  1
  O  O0  1  0.26788600  0.94941300  0.60298300  1
  O  O1  1  0.26788600  0.05058700  0.89701700  1
  O  O2  1  0.73211400  0.05058700  0.39701700  1
  O  O3  1  0.73211400  0.94941300  0.10298300  1
  O  O4  1  0.23310500  0.55501400  0.61483300  1
  O  O5  1  0.23310500  0.44498600  0.88516700  1
  O  O6  1  0.76689500  0.44498600  0.38516700  1
  O  O7  1  0.76689500  0.55501400  0.11483300  1
  O  O8  1  0.01024000  0.75003400  0.49668900  1
  O  O9  1  0.01024000  0.24996600  0.00331100  1
  O  O10  1  0.98976000  0.24996600  0.50331100  1
  O  O11  1  0.98976000  0.75003400  0.99668900  1
  O  O12  1  0.49966600  0.72897200  0.49811900  1
  O  O13  1  0.49966600  0.27102800  0.00188100  1
  O  O14  1  0.50033400  0.27102800  0.50188100  1
  O  O15  1  0.50033400  0.72897200  0.99811900  1
  O  O16  1  0.49699000  0.77772200  0.31761800  1
  O  O17  1  0.49699000  0.22227800  0.18238200  1
  O  O18  1  0.50301000  0.22227800  0.68238200  1
  O  O19  1  0.50301000  0.77772200  0.81761800  1
  O  O20  1  0.25297800  0.50000000  0.25000000  1
  O  O21  1  0.74702200  0.50000000  0.75000000  1
  O  O22  1  0.99928800  0.77036800  0.32371000  1
  O  O23  1  0.99928800  0.22963200  0.17629000  1
  O  O24  1  0.00071200  0.22963200  0.67629000  1
  O  O25  1  0.00071200  0.77036800  0.82371000  1
  O  O26  1  0.22601700  0.84100000  0.18332700  1
  O  O27  1  0.22601700  0.15900000  0.31667300  1
  O  O28  1  0.77398300  0.15900000  0.81667300  1
  O  O29  1  0.77398300  0.84100000  0.68332700  1
loop_
_geom_bond_atom_site_label_1
_geom_bond_atom_site_label_2
_geom_bond_distance
_geom_bond_site_symmetry_2
Na0 O7 2.414371 1_555
Na0 O6 2.414371 1_555
Na0 O17 2.742245 1_555
Na0 O16 2.742245 1_555
Na0 O20 2.760599 1_555
Na0 O23 2.857062 1_555
Na0 O22 2.857062 1_555
Na0 O20 3.024468 1_655
Na1 O4 2.414371 1_555
Na1 O5 2.414371 1_555
Na1 O18 2.742245 1_555
Na1 O19 2.742245 1_555
Na1 O21 2.760599 1_555
Na1 O25 2.857062 1_555
Na1 O24 2.857062 1_555
Na1 O21 3.024468 1_455
Na2 O16 2.508126 1_545
Na2 O17 2.508126 1_555
Na2 O22 2.592758 1_545
Na2 O23 2.592758 1_555
Na2 O2 2.605089 1_555
Na2 O3 2.605089 1_545
Na3 O19 2.508126 1_545
Na3 O18 2.508126 1_555
Na3 O25 2.592758 1_545
Na3 O24 2.592758 1_555
Na3 O1 2.605089 1_555
Na3 O0 2.605089 1_545
Na4 O27 2.204979 1_565
Na4 O8 2.612032 1_555
Na4 O10 2.751486 1_465
Na4 O22 2.769379 1_455
Na4 O12 2.862771 1_555
Na4 O16 2.889174 1_555
Na4 O14 2.916685 1_565
Na5 O26 2.204979 1_545
Na5 O9 2.612032 1_555
Na5 O11 2.751486 1_444
Na5 O23 2.769379 1_455
Na5 O13 2.862771 1_555
Na5 O17 2.889174 1_555
Na5 O15 2.916685 1_544
Na6 O29 2.204979 1_545
Na6 O10 2.612032 1_555
Na6 O8 2.751486 1_645
Na6 O24 2.769379 1_655
Na6 O14 2.862771 1_555
Na6 O18 2.889174 1_555
Na6 O12 2.916685 1_545
Na7 O28 2.204979 1_565
Na7 O11 2.612032 1_555
Na7 O9 2.751486 1_666
Na7 O25 2.769379 1_655
Na7 O15 2.862771 1_555
Na7 O19 2.889174 1_555
Na7 O13 2.916685 1_566
Na8 O10 2.511522 1_455
Na8 O14 2.633197 1_555
Na8 O6 2.635584 1_455
Na8 O8 2.817053 1_555
Na8 O27 2.864335 1_555
Na8 O12 2.965091 1_555
Na8 O20 2.977036 1_555
Na9 O11 2.511522 1_454
Na9 O15 2.633197 1_554
Na9 O7 2.635584 1_455
Na9 O9 2.817053 1_555
Na9 O26 2.864335 1_555
Na9 O13 2.965091 1_555
Na9 O20 2.977036 1_555
Na10 O8 2.511522 1_655
Na10 O12 2.633197 1_555
Na10 O4 2.635584 1_655
Na10 O10 2.817053 1_555
Na10 O29 2.864335 1_555
Na10 O14 2.965091 1_555
Na10 O21 2.977036 1_555
Na11 O9 2.511522 1_656
Na11 O13 2.633197 1_556
Na11 O5 2.635584 1_655
Na11 O11 2.817053 1_555
Na11 O28 2.864335 1_555
Na11 O15 2.965091 1_555
Na11 O21 2.977036 1_555
Mn0 O22 2.109401 1_555
Mn0 O12 2.110878 1_555
Mn0 O16 2.142055 1_555
Mn0 O8 2.190604 1_655
Mn0 O2 2.256786 1_565
Mn0 O6 2.318189 1_555
Mn1 O23 2.109401 1_555
Mn1 O13 2.110878 1_555
Mn1 O17 2.142055 1_555
Mn1 O9 2.190604 1_655
Mn1 O3 2.256786 1_545
Mn1 O7 2.318189 1_555
Mn2 O24 2.109401 1_555
Mn2 O14 2.110878 1_555
Mn2 O18 2.142055 1_555
Mn2 O10 2.190604 1_455
Mn2 O0 2.256786 1_545
Mn2 O4 2.318189 1_555
Mn3 O25 2.109401 1_555
Mn3 O15 2.110878 1_555
Mn3 O19 2.142055 1_555
Mn3 O11 2.190604 1_455
Mn3 O1 2.256786 1_565
Mn3 O5 2.318189 1_555
O0 V0 1.722636 1_555
O1 V1 1.722636 1_555
O2 V2 1.722636 1_555
O3 V3 1.722636 1_555
O4 V0 1.757191 1_555
O5 V1 1.757191 1_555
O6 V2 1.757191 1_555
O7 V3 1.757191 1_555
O8 V0 1.766071 1_555
O9 V1 1.766071 1_554
O10 V2 1.766071 1_555
O11 V3 1.766071 1_556
O12 V0 1.753996 1_555
O13 V1 1.753996 1_554
O14 V2 1.753996 1_555
O15 V3 1.753996 1_556
O16 V4 1.727245 1_555
O17 V5 1.727245 1_555
O18 V6 1.727245 1_555
O19 V7 1.727245 1_555
O20 V4 1.808160 1_555
O20 V5 1.808160 1_555
O21 V7 1.808160 1_555
O21 V6 1.808160 1_555
O22 V4 1.724290 1_655
O23 V5 1.724290 1_655
O24 V6 1.724290 1_455
O25 V7 1.724290 1_455
O26 V4 1.686700 1_555
O27 V5 1.686700 1_555
O28 V6 1.686700 1_555
O29 V7 1.686700 1_555
