# generated using pymatgen
data_Mg7Nb
_symmetry_space_group_name_H-M   'P 1'
_cell_length_a   6.31014263
_cell_length_b   6.31014263
_cell_length_c   5.00494100
_cell_angle_alpha   90.00000000
_cell_angle_beta   90.00000000
_cell_angle_gamma   120.00000660
_symmetry_Int_Tables_number   1
_chemical_formula_structural   Mg7Nb
_chemical_formula_sum   'Mg7 Nb1'
_cell_volume   172.58693521
_cell_formula_units_Z   1
loop_
 _symmetry_equiv_pos_site_id
 _symmetry_equiv_pos_as_xyz
  1  'x, y, z'
loop_
 _atom_site_type_symbol
 _atom_site_label
 _atom_site_symmetry_multiplicity
 _atom_site_fract_x
 _atom_site_fract_y
 _atom_site_fract_z
 _atom_site_occupancy
  Mg  Mg0  1  0.83192600  0.66385200  0.50000000  1
  Mg  Mg1  1  0.33614800  0.16807400  0.50000000  1
  Mg  Mg2  1  0.83192600  0.16807400  0.50000000  1
  Mg  Mg3  1  0.49245700  0.50754300  0.00000000  1
  Mg  Mg4  1  0.01508600  0.50754300  0.00000000  1
  Mg  Mg5  1  0.49245700  0.98491400  0.00000000  1
  Mg  Mg6  1  0.00000000  0.00000000  0.00000000  1
  Nb  Nb0  1  0.33333300  0.66666700  0.50000000  1
loop_
_geom_bond_atom_site_label_1
_geom_bond_atom_site_label_2
_geom_bond_distance
_geom_bond_site_symmetry_2
Mg0 Mg6 3.104318 1_665
Mg0 Mg6 3.104318 1_666
Mg0 Mg3 3.116243 1_556
Mg0 Mg3 3.116243 1_555
Mg0 Mg4 3.116243 1_655
Mg0 Mg4 3.116243 1_656
Mg0 Mg1 3.128430 1_555
Mg0 Mg2 3.128430 1_555
Mg0 Nb0 3.155106 1_655
Mg0 Nb0 3.155112 1_555
Mg0 Mg1 3.181712 1_665
Mg0 Mg2 3.181713 1_565
Mg1 Mg6 3.104318 1_555
Mg1 Mg6 3.104318 1_556
Mg1 Mg3 3.116243 1_556
Mg1 Mg3 3.116243 1_555
Mg1 Mg5 3.116243 1_546
Mg1 Mg5 3.116243 1_545
Mg1 Mg2 3.128430 1_555
Mg1 Nb0 3.155106 1_545
Mg1 Nb0 3.155112 1_555
Mg1 Mg2 3.181713 1_455
Mg2 Mg6 3.104318 1_655
Mg2 Mg6 3.104318 1_656
Mg2 Mg5 3.116243 1_545
Mg2 Mg5 3.116243 1_546
Mg2 Mg4 3.116243 1_656
Mg2 Mg4 3.116243 1_655
Mg2 Nb0 3.155108 1_545
Mg2 Nb0 3.155108 1_655
Mg3 Mg5 3.012279 1_555
Mg3 Mg4 3.012279 1_555
Mg3 Nb0 3.047455 1_555
Mg3 Nb0 3.047455 1_554
Mg3 Mg6 3.156148 1_555
Mg3 Mg6 3.156148 1_665
Mg3 Mg4 3.297864 1_655
Mg3 Mg5 3.297864 1_545
Mg4 Mg5 3.012279 1_555
Mg4 Nb0 3.047451 1_555
Mg4 Nb0 3.047451 1_554
Mg4 Mg6 3.156148 1_555
Mg4 Mg6 3.156148 1_565
Mg4 Mg5 3.297863 1_445
Mg5 Nb0 3.047451 1_554
Mg5 Nb0 3.047451 1_555
Mg5 Mg6 3.156148 1_665
Mg5 Mg6 3.156148 1_565
