# generated using pymatgen
data_Mn2HO4
_symmetry_space_group_name_H-M   'P 1'
_cell_length_a   6.06539151
_cell_length_b   10.19174514
_cell_length_c   10.21248207
_cell_angle_alpha   90.01484062
_cell_angle_beta   90.04593688
_cell_angle_gamma   89.98278820
_symmetry_Int_Tables_number   1
_chemical_formula_structural   Mn2HO4
_chemical_formula_sum   'Mn16 H8 O32'
_cell_volume   631.30398036
_cell_formula_units_Z   8
loop_
 _symmetry_equiv_pos_site_id
 _symmetry_equiv_pos_as_xyz
  1  'x, y, z'
loop_
 _atom_site_type_symbol
 _atom_site_label
 _atom_site_symmetry_multiplicity
 _atom_site_fract_x
 _atom_site_fract_y
 _atom_site_fract_z
 _atom_site_occupancy
  Mn  Mn0  1  0.49843500  0.64819700  0.83425500  1
  Mn  Mn1  1  0.00640400  0.64743600  0.84125100  1
  Mn  Mn2  1  0.50610600  0.16042200  0.64710500  1
  Mn  Mn3  1  0.99764600  0.16726500  0.64807600  1
  Mn  Mn4  1  0.99698000  0.83390800  0.35162600  1
  Mn  Mn5  1  0.50458200  0.84090700  0.35248800  1
  Mn  Mn6  1  0.00486200  0.35239300  0.16056400  1
  Mn  Mn7  1  0.49619400  0.35077100  0.16567100  1
  Mn  Mn8  1  0.25169400  0.14853400  0.33441900  1
  Mn  Mn9  1  0.74338500  0.14754900  0.34113500  1
  Mn  Mn10  1  0.24536900  0.65837900  0.14764600  1
  Mn  Mn11  1  0.75327700  0.66560300  0.14802500  1
  Mn  Mn12  1  0.24760500  0.34067100  0.85332500  1
  Mn  Mn13  1  0.75483300  0.33408000  0.85273200  1
  Mn  Mn14  1  0.25388900  0.85215200  0.66603700  1
  Mn  Mn15  1  0.74618200  0.85277800  0.65919000  1
  H  H0  1  0.27150400  0.63496000  0.42177100  1
  H  H1  1  0.48020400  0.13083700  0.91675500  1
  H  H2  1  0.48056800  0.86232800  0.07680700  1
  H  H3  1  0.97541700  0.08194700  0.13292400  1
  H  H4  1  0.98097300  0.91984800  0.86671800  1
  H  H5  1  0.26882500  0.36571800  0.57764400  1
  H  H6  1  0.77228200  0.57872600  0.63491400  1
  H  H7  1  0.75259900  0.42285700  0.36283700  1
  O  O0  1  0.25221800  0.33428400  0.04420600  1
  O  O1  1  0.75106200  0.33446900  0.04462100  1
  O  O2  1  0.25061900  0.95608400  0.33453400  1
  O  O3  1  0.74892900  0.95902200  0.33766100  1
  O  O4  1  0.25215600  0.04472700  0.66419300  1
  O  O5  1  0.75114400  0.04272400  0.66192300  1
  O  O6  1  0.25068500  0.66236800  0.95901300  1
  O  O7  1  0.75280700  0.66596300  0.95612100  1
  O  O8  1  0.99942700  0.83513500  0.54400300  1
  O  O9  1  0.50080900  0.83810900  0.54110100  1
  O  O10  1  0.00301200  0.45990600  0.84097800  1
  O  O11  1  0.50074100  0.45598400  0.83696600  1
  O  O12  1  0.49850500  0.54256200  0.16373300  1
  O  O13  1  0.00135600  0.54024200  0.16265400  1
  O  O14  1  0.50186700  0.16293400  0.46006000  1
  O  O15  1  0.99688500  0.16731000  0.45583500  1
  O  O16  1  0.50346200  0.15969900  0.21050800  1
  O  O17  1  0.98370300  0.14958900  0.20048900  1
  O  O18  1  0.00557500  0.78891400  0.15994900  1
  O  O19  1  0.48751600  0.79876500  0.14806500  1
  O  O20  1  0.98919100  0.85125000  0.80020700  1
  O  O21  1  0.50612200  0.84041600  0.78947400  1
  O  O22  1  0.48913400  0.19894200  0.84987600  1
  O  O23  1  0.00688700  0.21044200  0.83994200  1
  O  O24  1  0.24581400  0.65954500  0.71113000  1
  O  O25  1  0.76395300  0.64802700  0.70086300  1
  O  O26  1  0.26219400  0.30009000  0.64740200  1
  O  O27  1  0.74590800  0.29069500  0.66012300  1
  O  O28  1  0.24587100  0.34119500  0.29031800  1
  O  O29  1  0.75459800  0.35217300  0.29833800  1
  O  O30  1  0.26333000  0.69989200  0.35174000  1
  O  O31  1  0.74466200  0.71039500  0.33996200  1
loop_
_geom_bond_atom_site_label_1
_geom_bond_atom_site_label_2
_geom_bond_distance
_geom_bond_site_symmetry_2
Mn0 O11 1.959234 1_555
Mn0 O6 1.976136 1_555
Mn0 O24 1.984721 1_555
Mn0 O7 1.989751 1_555
Mn0 O21 2.012396 1_555
Mn0 O25 2.110188 1_555
Mn1 O10 1.911376 1_555
Mn1 O6 1.913637 1_555
Mn1 O7 1.944323 1_455
Mn1 O24 1.973074 1_555
Mn1 O25 2.052980 1_455
Mn1 O20 2.121719 1_455
Mn2 O14 1.910524 1_555
Mn2 O5 1.915573 1_555
Mn2 O4 1.948072 1_555
Mn2 O27 1.974030 1_555
Mn2 O26 2.052725 1_555
Mn2 O22 2.110168 1_555
Mn3 O15 1.963260 1_555
Mn3 O5 1.966745 1_555
Mn3 O27 1.981937 1_555
Mn3 O4 1.992070 1_655
Mn3 O23 2.008864 1_655
Mn3 O26 2.099674 1_655
Mn4 O8 1.964727 1_555
Mn4 O3 1.976991 1_555
Mn4 O31 1.985380 1_555
Mn4 O2 1.987307 1_655
Mn4 O18 2.011090 1_655
Mn4 O30 2.115215 1_655
Mn5 O3 1.915747 1_555
Mn5 O9 1.926580 1_555
Mn5 O2 1.944971 1_555
Mn5 O31 1.976146 1_555
Mn5 O30 2.051346 1_555
Mn5 O19 2.133718 1_555
Mn6 O13 1.914734 1_555
Mn6 O0 1.923445 1_555
Mn6 O1 1.949938 1_455
Mn6 O28 1.975529 1_555
Mn6 O29 2.070578 1_455
Mn6 O17 2.110825 1_455
Mn7 O0 1.937501 1_555
Mn7 O12 1.954845 1_555
Mn7 O28 1.984553 1_555
Mn7 O1 1.987052 1_555
Mn7 O16 2.001047 1_555
Mn7 O29 2.070976 1_555
Mn8 O2 1.961415 1_545
Mn8 O16 1.987337 1_555
Mn8 O15 1.991359 1_455
Mn8 O14 1.991811 1_555
Mn8 O28 2.014948 1_555
Mn8 O17 2.123550 1_455
Mn9 O14 1.910025 1_555
Mn9 O3 1.922022 1_545
Mn9 O15 1.942676 1_555
Mn9 O16 1.977248 1_555
Mn9 O17 2.047333 1_555
Mn9 O29 2.132009 1_555
Mn10 O13 1.914469 1_555
Mn10 O6 1.927146 1_554
Mn10 O12 1.943257 1_555
Mn10 O18 1.974879 1_555
Mn10 O19 2.050737 1_555
Mn10 O30 2.129416 1_555
Mn11 O7 1.959820 1_554
Mn11 O13 1.979241 1_655
Mn11 O18 1.984140 1_655
Mn11 O12 1.996960 1_555
Mn11 O31 2.013211 1_555
Mn11 O19 2.106874 1_555
Mn12 O10 1.921527 1_555
Mn12 O11 1.941148 1_555
Mn12 O0 1.950650 1_556
Mn12 O23 1.978078 1_555
Mn12 O22 2.057338 1_555
Mn12 O26 2.145055 1_555
Mn13 O1 1.959818 1_556
Mn13 O10 1.981512 1_655
Mn13 O23 1.985247 1_655
Mn13 O11 1.985767 1_555
Mn13 O27 2.016678 1_555
Mn13 O22 2.120418 1_555
Mn14 O4 1.962795 1_565
Mn14 O9 1.973390 1_555
Mn14 O21 1.985160 1_555
Mn14 O8 1.990566 1_455
Mn14 O24 2.017029 1_555
Mn14 O20 2.111568 1_455
Mn15 O9 1.920649 1_555
Mn15 O5 1.936318 1_565
Mn15 O8 1.943741 1_555
Mn15 O21 1.977264 1_555
Mn15 O20 2.059936 1_555
Mn15 O25 2.132511 1_555
H0 O30 0.975738 1_555
H1 O22 0.975468 1_555
H2 O19 0.975295 1_555
H3 O17 0.976531 1_555
H4 O20 0.975925 1_555
H5 O26 0.978173 1_555
H6 O25 0.977140 1_555
H7 O29 0.976091 1_555
