# generated using pymatgen
data_Mg15Co
_symmetry_space_group_name_H-M   'P 1'
_cell_length_a   6.29501620
_cell_length_b   6.29501620
_cell_length_c   9.97083100
_cell_angle_alpha   90.00000000
_cell_angle_beta   90.00000000
_cell_angle_gamma   120.00000206
_symmetry_Int_Tables_number   1
_chemical_formula_structural   Mg15Co
_chemical_formula_sum   'Mg15 Co1'
_cell_volume   342.18083489
_cell_formula_units_Z   1
loop_
 _symmetry_equiv_pos_site_id
 _symmetry_equiv_pos_as_xyz
  1  'x, y, z'
loop_
 _atom_site_type_symbol
 _atom_site_label
 _atom_site_symmetry_multiplicity
 _atom_site_fract_x
 _atom_site_fract_y
 _atom_site_fract_z
 _atom_site_occupancy
  Mg  Mg0  1  0.00000000  0.00000000  0.00000000  1
  Mg  Mg1  1  0.99545100  0.49772500  0.50000000  1
  Mg  Mg2  1  0.00406600  0.50203300  0.00000000  1
  Mg  Mg3  1  0.50227500  0.49772500  0.50000000  1
  Mg  Mg4  1  0.49796700  0.50203300  0.00000000  1
  Mg  Mg5  1  0.50227500  0.00454900  0.50000000  1
  Mg  Mg6  1  0.49796700  0.99593400  0.00000000  1
  Mg  Mg7  1  0.15954800  0.31909600  0.26454400  1
  Mg  Mg8  1  0.15954800  0.31909600  0.73545600  1
  Mg  Mg9  1  0.15954800  0.84045200  0.26454400  1
  Mg  Mg10  1  0.15954800  0.84045200  0.73545600  1
  Mg  Mg11  1  0.68090400  0.84045200  0.26454400  1
  Mg  Mg12  1  0.68090400  0.84045200  0.73545600  1
  Mg  Mg13  1  0.66666700  0.33333300  0.24606200  1
  Mg  Mg14  1  0.66666700  0.33333300  0.75393800  1
  Co  Co0  1  0.00000000  0.00000000  0.50000000  1
loop_
_geom_bond_atom_site_label_1
_geom_bond_atom_site_label_2
_geom_bond_distance
_geom_bond_site_symmetry_2
Mg0 Mg4 3.147586 1_445
Mg0 Mg4 3.147586 1_555
Mg0 Mg2 3.147586 1_555
Mg0 Mg6 3.147586 1_445
Mg0 Mg6 3.147586 1_545
Mg0 Mg2 3.147586 1_545
Mg0 Mg8 3.159713 1_554
Mg0 Mg7 3.159713 1_555
Mg0 Mg11 3.159713 1_445
Mg0 Mg12 3.159713 1_444
Mg0 Mg10 3.159713 1_544
Mg0 Mg9 3.159713 1_545
Mg1 Mg7 3.000790 1_655
Mg1 Mg8 3.000790 1_655
Mg1 Mg10 3.000794 1_655
Mg1 Mg9 3.000794 1_655
Mg1 Mg14 3.102198 1_555
Mg1 Mg13 3.102198 1_555
Mg1 Mg5 3.104551 1_555
Mg1 Mg3 3.104551 1_555
Mg1 Mg5 3.190465 1_665
Mg1 Mg3 3.190465 1_655
Mg2 Mg6 3.109115 1_555
Mg2 Mg4 3.109115 1_555
Mg2 Mg6 3.185901 1_445
Mg2 Mg4 3.185901 1_455
Mg2 Mg9 3.220071 1_555
Mg2 Mg8 3.220071 1_554
Mg2 Mg7 3.220071 1_555
Mg3 Mg7 3.000794 1_555
Mg3 Mg8 3.000794 1_555
Mg3 Mg5 3.104551 1_555
Mg3 Mg5 3.190465 1_565
Mg4 Mg6 3.109115 1_555
Mg4 Mg6 3.185901 1_545
Mg4 Mg8 3.220071 1_554
Mg4 Mg7 3.220071 1_555
Mg5 Mg9 3.000794 1_545
Mg6 Mg9 3.220071 1_555
Mg10 Mg5 3.000794 1_565
Mg10 Mg14 3.153853 1_455
Mg10 Mg14 3.153853 1_565
Mg10 Mg2 3.220071 1_556
Mg10 Mg6 3.220071 1_556
Mg11 Mg5 3.000790 1_565
Mg11 Mg3 3.000794 1_555
Mg11 Mg13 3.153850 1_565
Mg11 Mg13 3.153856 1_555
Mg11 Mg4 3.220071 1_555
Mg11 Mg6 3.220071 1_555
Mg12 Mg5 3.000790 1_565
Mg12 Mg3 3.000794 1_555
Mg12 Mg14 3.153850 1_565
Mg12 Mg14 3.153856 1_555
Mg12 Mg4 3.220071 1_556
Mg12 Mg6 3.220071 1_556
Mg13 Mg2 3.066382 1_655
Mg13 Mg6 3.066382 1_545
Mg13 Mg4 3.066385 1_555
Mg13 Mg5 3.102198 1_555
Mg13 Mg3 3.102198 1_555
Mg13 Mg7 3.153850 1_655
Mg13 Mg9 3.153853 1_655
Mg13 Mg9 3.153853 1_545
Mg13 Mg7 3.153856 1_555
Mg14 Mg2 3.066382 1_656
Mg14 Mg6 3.066382 1_546
Mg14 Mg4 3.066385 1_556
Mg14 Mg5 3.102198 1_555
Mg14 Mg3 3.102198 1_555
Mg14 Mg8 3.153850 1_655
Mg14 Mg8 3.153856 1_555
Co0 Mg7 2.921961 1_555
Co0 Mg8 2.921961 1_555
Co0 Mg11 2.921961 1_445
Co0 Mg12 2.921961 1_445
Co0 Mg10 2.921961 1_545
Co0 Mg9 2.921961 1_545
Co0 Mg1 3.147603 1_455
Co0 Mg5 3.147603 1_455
Co0 Mg3 3.147606 1_445
Co0 Mg3 3.147606 1_555
Co0 Mg5 3.147609 1_555
Co0 Mg1 3.147609 1_445
