# generated using pymatgen
data_Nd2S3O16
_symmetry_space_group_name_H-M   'P 1'
_cell_length_a   7.01133600
_cell_length_b   12.88840900
_cell_length_c   18.80590557
_cell_angle_alpha   48.62579245
_cell_angle_beta   90.00000000
_cell_angle_gamma   90.00000000
_symmetry_Int_Tables_number   1
_chemical_formula_structural   Nd2S3O16
_chemical_formula_sum   'Nd8 S12 O64'
_cell_volume   1275.24079223
_cell_formula_units_Z   4
loop_
 _symmetry_equiv_pos_site_id
 _symmetry_equiv_pos_as_xyz
  1  'x, y, z'
loop_
 _atom_site_type_symbol
 _atom_site_label
 _atom_site_symmetry_multiplicity
 _atom_site_fract_x
 _atom_site_fract_y
 _atom_site_fract_z
 _atom_site_occupancy
  Nd  Nd0  1  0.72538800  0.08004700  0.35162400  1
  Nd  Nd1  1  0.77461200  0.08004700  0.85162400  1
  Nd  Nd2  1  0.27461200  0.91995300  0.64837600  1
  Nd  Nd3  1  0.22538800  0.91995300  0.14837600  1
  Nd  Nd4  1  0.74221400  0.45042900  0.96773700  1
  Nd  Nd5  1  0.75778600  0.45042900  0.46773700  1
  Nd  Nd6  1  0.25778600  0.54957100  0.03226300  1
  Nd  Nd7  1  0.24221400  0.54957100  0.53226300  1
  S  S0  1  0.76049400  0.46386600  0.13572300  1
  S  S1  1  0.73950600  0.46386600  0.63572300  1
  S  S2  1  0.23950600  0.53613400  0.86427700  1
  S  S3  1  0.26049400  0.53613400  0.36427700  1
  S  S4  1  0.61731100  0.17936600  0.46076100  1
  S  S5  1  0.88268900  0.17936600  0.96076100  1
  S  S6  1  0.38268900  0.82063400  0.53923900  1
  S  S7  1  0.11731100  0.82063400  0.03923900  1
  S  S8  1  0.39651400  0.19108700  0.15261100  1
  S  S9  1  0.10348600  0.19108700  0.65261100  1
  S  S10  1  0.60348600  0.80891300  0.84738900  1
  S  S11  1  0.89651400  0.80891300  0.34738900  1
  O  O0  1  0.24932200  0.29887600  0.12140400  1
  O  O1  1  0.25067800  0.29887600  0.62140400  1
  O  O2  1  0.75067800  0.70112400  0.87859600  1
  O  O3  1  0.74932200  0.70112400  0.37859600  1
  O  O4  1  0.92045400  0.48883100  0.07044700  1
  O  O5  1  0.57954600  0.48883100  0.57044700  1
  O  O6  1  0.07954600  0.51116900  0.92955300  1
  O  O7  1  0.42045400  0.51116900  0.42955300  1
  O  O8  1  0.79334600  0.09576400  0.47622500  1
  O  O9  1  0.70665400  0.09576400  0.97622500  1
  O  O10  1  0.20665400  0.90423600  0.52377500  1
  O  O11  1  0.29334600  0.90423600  0.02377500  1
  O  O12  1  0.58641700  0.45927700  0.08887600  1
  O  O13  1  0.91358300  0.45927700  0.58887600  1
  O  O14  1  0.41358300  0.54072300  0.91112400  1
  O  O15  1  0.08641700  0.54072300  0.41112400  1
  O  O16  1  0.74663700  0.57115300  0.13964700  1
  O  O17  1  0.75336300  0.57115300  0.63964700  1
  O  O18  1  0.25336300  0.42884700  0.86035300  1
  O  O19  1  0.24663700  0.42884700  0.36035300  1
  O  O20  1  0.88263500  0.87098300  0.51165500  1
  O  O21  1  0.61736500  0.87098300  0.01165500  1
  O  O22  1  0.11736500  0.12901700  0.48834500  1
  O  O23  1  0.38263500  0.12901700  0.98834500  1
  O  O24  1  0.88663200  0.24141200  0.12584200  1
  O  O25  1  0.61336800  0.24141200  0.62584200  1
  O  O26  1  0.11336800  0.75858800  0.87415800  1
  O  O27  1  0.38663200  0.75858800  0.37415800  1
  O  O28  1  0.79332400  0.32435700  0.22920400  1
  O  O29  1  0.70667600  0.32435700  0.72920400  1
  O  O30  1  0.20667600  0.67564300  0.77079600  1
  O  O31  1  0.29332400  0.67564300  0.27079600  1
  O  O32  1  0.29949700  0.07048300  0.17566000  1
  O  O33  1  0.20050300  0.07048300  0.67566000  1
  O  O34  1  0.70050300  0.92951700  0.82434000  1
  O  O35  1  0.79949700  0.92951700  0.32434000  1
  O  O36  1  0.68114000  0.31505000  0.42570100  1
  O  O37  1  0.81886000  0.31505000  0.92570100  1
  O  O38  1  0.31886000  0.68495000  0.57429900  1
  O  O39  1  0.18114000  0.68495000  0.07429900  1
  O  O40  1  0.08608400  0.10301500  0.34560300  1
  O  O41  1  0.41391600  0.10301500  0.84560300  1
  O  O42  1  0.91391600  0.89698500  0.65439700  1
  O  O43  1  0.58608400  0.89698500  0.15439700  1
  O  O44  1  0.50811600  0.10639900  0.54931900  1
  O  O45  1  0.99188400  0.10639900  0.04931900  1
  O  O46  1  0.49188400  0.89360100  0.45068100  1
  O  O47  1  0.00811600  0.89360100  0.95068100  1
  O  O48  1  0.49534300  0.15065000  0.23634200  1
  O  O49  1  0.00465700  0.15065000  0.73634200  1
  O  O50  1  0.50465700  0.84935000  0.76365800  1
  O  O51  1  0.99534300  0.84935000  0.26365800  1
  O  O52  1  0.53516400  0.24862100  0.07382300  1
  O  O53  1  0.96483600  0.24862100  0.57382300  1
  O  O54  1  0.46483600  0.75137900  0.92617700  1
  O  O55  1  0.03516400  0.75137900  0.42617700  1
  O  O56  1  0.50627800  0.18999900  0.38878700  1
  O  O57  1  0.99372200  0.18999900  0.88878700  1
  O  O58  1  0.49372200  0.81000100  0.61121300  1
  O  O59  1  0.00627800  0.81000100  0.11121300  1
  O  O60  1  0.73747300  0.60051000  0.78592000  1
  O  O61  1  0.76252700  0.60051000  0.28592000  1
  O  O62  1  0.26252700  0.39949000  0.21408000  1
  O  O63  1  0.23747300  0.39949000  0.71408000  1
loop_
_geom_bond_atom_site_label_1
_geom_bond_atom_site_label_2
_geom_bond_distance
_geom_bond_site_symmetry_2
Nd0 O48 2.349848 1_555
Nd0 O35 2.369212 1_545
Nd0 O28 2.420501 1_555
Nd0 O46 2.450988 1_545
Nd0 O56 2.483134 1_555
Nd0 O8 2.527111 1_555
Nd0 O40 2.540036 1_655
Nd0 O20 2.610214 1_545
Nd1 O49 2.349848 1_655
Nd1 O34 2.369212 1_545
Nd1 O29 2.420501 1_555
Nd1 O47 2.450988 1_645
Nd1 O57 2.483134 1_555
Nd1 O9 2.527111 1_555
Nd1 O41 2.540036 1_555
Nd1 O21 2.610214 1_546
Nd2 O50 2.349848 1_555
Nd2 O33 2.369212 1_565
Nd2 O30 2.420501 1_555
Nd2 O44 2.450988 1_565
Nd2 O58 2.483134 1_555
Nd2 O10 2.527111 1_555
Nd2 O42 2.540036 1_455
Nd2 O22 2.610214 1_565
Nd3 O51 2.349848 1_455
Nd3 O32 2.369212 1_565
Nd3 O31 2.420501 1_555
Nd3 O45 2.450988 1_465
Nd3 O59 2.483134 1_555
Nd3 O11 2.527111 1_555
Nd3 O43 2.540036 1_555
Nd3 O23 2.610214 1_564
Nd4 O37 2.404477 1_555
Nd4 O6 2.445257 1_655
Nd4 O52 2.448071 1_556
Nd4 O2 2.468443 1_555
Nd4 O14 2.481731 1_555
Nd4 O24 2.556248 1_556
Nd4 O60 2.586628 1_555
Nd4 O12 2.596059 1_556
Nd4 O4 2.607951 1_556
Nd5 O36 2.404477 1_555
Nd5 O7 2.445257 1_555
Nd5 O53 2.448071 1_555
Nd5 O3 2.468443 1_555
Nd5 O15 2.481731 1_655
Nd5 O25 2.556248 1_555
Nd5 O61 2.586628 1_555
Nd5 O13 2.596059 1_555
Nd5 O5 2.607951 1_555
Nd6 O39 2.404477 1_555
Nd6 O4 2.445257 1_455
Nd6 O54 2.448071 1_554
Nd6 O0 2.468443 1_555
Nd6 O12 2.481731 1_555
Nd6 O26 2.556248 1_554
Nd6 O62 2.586628 1_555
Nd6 O14 2.596059 1_554
Nd6 O6 2.607951 1_554
Nd7 O38 2.404477 1_555
Nd7 O5 2.445257 1_555
Nd7 O55 2.448071 1_555
Nd7 O1 2.468443 1_555
Nd7 O13 2.481731 1_455
Nd7 O27 2.556248 1_555
Nd7 O63 2.586628 1_555
Nd7 O15 2.596059 1_555
Nd7 O7 2.607951 1_555
O0 S8 1.503875 1_555
O1 S9 1.503875 1_555
O2 S10 1.503875 1_555
O3 S11 1.503875 1_555
O4 S0 1.531717 1_555
O5 S1 1.531717 1_555
O6 S2 1.531717 1_555
O7 S3 1.531717 1_555
O8 S4 1.534499 1_555
O9 S5 1.534499 1_555
O10 S6 1.534499 1_555
O11 S7 1.534499 1_555
O12 S0 1.529115 1_555
O13 S1 1.529115 1_555
O14 S2 1.529115 1_555
O15 S3 1.529115 1_555
O16 S0 1.435896 1_555
O17 S1 1.435896 1_555
O18 S2 1.435896 1_555
O19 S3 1.435896 1_555
O28 S0 1.482526 1_555
O29 S1 1.482526 1_555
O30 S2 1.482526 1_555
O31 S3 1.482526 1_555
O32 S8 1.475141 1_555
O33 S9 1.475141 1_555
O34 S10 1.475141 1_555
O35 S11 1.475141 1_555
O36 S4 1.472722 1_555
O37 S5 1.472722 1_555
O38 S6 1.472722 1_555
O39 S7 1.472722 1_555
O44 S4 1.474353 1_555
O45 S5 1.474353 1_554
O46 S6 1.474353 1_555
O47 S7 1.474353 1_556
O48 S8 1.465054 1_555
O49 S9 1.465054 1_555
O50 S10 1.465054 1_555
O51 S11 1.465054 1_555
O52 S8 1.495937 1_555
O53 S9 1.495937 1_655
O54 S10 1.495937 1_555
O55 S11 1.495937 1_455
O56 S4 1.487171 1_555
O57 S5 1.487171 1_555
O58 S6 1.487171 1_555
O59 S7 1.487171 1_555
