# generated using pymatgen
data_ZnS
_symmetry_space_group_name_H-M   'P 1'
_cell_length_a   13.53641431
_cell_length_b   13.25153140
_cell_length_c   13.58526666
_cell_angle_alpha   89.68968878
_cell_angle_beta   92.90790307
_cell_angle_gamma   85.18787779
_symmetry_Int_Tables_number   1
_chemical_formula_structural   ZnS
_chemical_formula_sum   'Zn50 S50'
_cell_volume   2425.06989327
_cell_formula_units_Z   50
loop_
 _symmetry_equiv_pos_site_id
 _symmetry_equiv_pos_as_xyz
  1  'x, y, z'
loop_
 _atom_site_type_symbol
 _atom_site_label
 _atom_site_symmetry_multiplicity
 _atom_site_fract_x
 _atom_site_fract_y
 _atom_site_fract_z
 _atom_site_occupancy
  Zn  Zn0  1  0.92098288  0.45082050  0.97888161  1
  Zn  Zn1  1  0.43294589  0.20933636  0.14265061  1
  Zn  Zn2  1  0.35101723  0.00017287  0.94986953  1
  Zn  Zn3  1  0.93938423  0.70810893  0.98612521  1
  Zn  Zn4  1  0.29902822  0.13226125  0.71958927  1
  Zn  Zn5  1  0.68882684  0.75288326  0.92678010  1
  Zn  Zn6  1  0.85071960  0.23063482  0.19460140  1
  Zn  Zn7  1  0.52433506  0.52339135  0.37621047  1
  Zn  Zn8  1  0.90617587  0.63723200  0.81114026  1
  Zn  Zn9  1  0.15291420  0.78353004  0.15744960  1
  Zn  Zn10  1  0.28919292  0.78310378  0.28207218  1
  Zn  Zn11  1  0.06817688  0.14780993  0.03811828  1
  Zn  Zn12  1  0.34345760  0.37519506  0.67951713  1
  Zn  Zn13  1  0.82322938  0.48478132  0.37144884  1
  Zn  Zn14  1  0.88252355  0.26179998  0.90212356  1
  Zn  Zn15  1  0.41341991  0.27168493  0.90090829  1
  Zn  Zn16  1  0.50259028  0.48772397  0.04493691  1
  Zn  Zn17  1  0.56767228  0.17226029  0.77009249  1
  Zn  Zn18  1  0.99332733  0.03960498  0.27896519  1
  Zn  Zn19  1  0.64244556  0.28103534  0.01196479  1
  Zn  Zn20  1  0.20785392  0.06312550  0.41029645  1
  Zn  Zn21  1  0.00646510  0.88102544  0.50460672  1
  Zn  Zn22  1  0.63356478  0.64237024  0.13051301  1
  Zn  Zn23  1  0.74710002  0.01087968  0.38983728  1
  Zn  Zn24  1  0.61490033  0.76296978  0.35043470  1
  Zn  Zn25  1  0.81607229  0.24357001  0.43911165  1
  Zn  Zn26  1  0.09817459  0.95972399  0.00393272  1
  Zn  Zn27  1  0.94693756  0.41769319  0.58502185  1
  Zn  Zn28  1  0.00667111  0.66575724  0.49523442  1
  Zn  Zn29  1  0.87402301  0.15171955  0.63159616  1
  Zn  Zn30  1  0.24525684  0.52567424  0.41060354  1
  Zn  Zn31  1  0.47464199  0.00023496  0.36561459  1
  Zn  Zn32  1  0.82767994  0.75334481  0.26490266  1
  Zn  Zn33  1  0.15951041  0.28410150  0.26017383  1
  Zn  Zn34  1  0.77937787  0.70337286  0.54755873  1
  Zn  Zn35  1  0.32707886  0.74866973  0.09722210  1
  Zn  Zn36  1  0.54804261  0.63301465  0.83708536  1
  Zn  Zn37  1  0.04872924  0.55998622  0.15237996  1
  Zn  Zn38  1  0.27994065  0.79350487  0.49702330  1
  Zn  Zn39  1  0.37626319  0.26209664  0.35504067  1
  Zn  Zn40  1  0.31154249  0.60975972  0.66324434  1
  Zn  Zn41  1  0.30315288  0.81085535  0.76307079  1
  Zn  Zn42  1  0.11994027  0.31506494  0.82219813  1
  Zn  Zn43  1  0.04725901  0.74846271  0.79081066  1
  Zn  Zn44  1  0.53244352  0.92894092  0.80145831  1
  Zn  Zn45  1  0.82299168  0.96932473  0.85223215  1
  Zn  Zn46  1  0.05835437  0.07515087  0.84963697  1
  Zn  Zn47  1  0.31196741  0.54506663  0.88755527  1
  Zn  Zn48  1  0.29253946  0.44678526  0.17271031  1
  Zn  Zn49  1  0.86046782  0.88527832  0.15762572  1
  S  S0  1  0.49754899  0.76046546  0.16424025  1
  S  S1  1  0.36075913  0.97196904  0.77436560  1
  S  S2  1  0.64240771  0.55734252  0.98851804  1
  S  S3  1  0.43976659  0.52896569  0.77377819  1
  S  S4  1  0.54308376  0.34315705  0.13094812  1
  S  S5  1  0.76865474  0.33945342  0.30455338  1
  S  S6  1  0.52194466  0.79530294  0.90704549  1
  S  S7  1  0.04861509  0.02596907  0.44187445  1
  S  S8  1  0.02692921  0.19268323  0.20151320  1
  S  S9  1  0.34583842  0.56679373  0.05781680  1
  S  S10  1  0.42297212  0.21452948  0.66057026  1
  S  S11  1  0.27540250  0.37695082  0.84266223  1
  S  S12  1  0.07260037  0.76431753  0.61569373  1
  S  S13  1  0.56990135  0.31626782  0.85896602  1
  S  S14  1  0.18647212  0.70083394  0.39323679  1
  S  S15  1  0.03987540  0.31484940  0.96795846  1
  S  S16  1  0.03430202  0.91674356  0.15677347  1
  S  S17  1  0.44911623  0.12188312  0.99056538  1
  S  S18  1  0.79709403  0.20740776  0.03220822  1
  S  S19  1  0.95803641  0.25557241  0.53941613  1
  S  S20  1  0.24022482  0.48297713  0.57841223  1
  S  S21  1  0.13495072  0.16667229  0.73412223  1
  S  S22  1  0.32406726  0.93056566  0.38605653  1
  S  S23  1  0.22806547  0.23063238  0.41649846  1
  S  S24  1  0.27070268  0.28082753  0.13075565  1
  S  S25  1  0.97627963  0.45868997  0.74926972  1
  S  S26  1  0.10331242  0.67105275  0.04256754  1
  S  S27  1  0.87058108  0.78920023  0.43863876  1
  S  S28  1  0.21411014  0.67713325  0.80482634  1
  S  S29  1  0.38797699  0.44095858  0.33341854  1
  S  S30  1  0.38634619  0.75404476  0.62209956  1
  S  S31  1  0.88596607  0.56626076  0.09125710  1
  S  S32  1  0.61892320  0.90987991  0.42533863  1
  S  S33  1  0.81802161  0.04471804  0.24568663  1
  S  S34  1  0.14504769  0.46862119  0.26538563  1
  S  S35  1  0.74406555  0.11924606  0.52189429  1
  S  S36  1  0.00764352  0.90648668  0.85575205  1
  S  S37  1  0.71127455  0.62719600  0.28533904  1
  S  S38  1  0.97880291  0.50846844  0.44777519  1
  S  S39  1  0.46261962  0.70013971  0.30351755  1
  S  S40  1  0.81204201  0.84652473  0.98425154  1
  S  S41  1  0.72425061  0.65530248  0.78029315  1
  S  S42  1  0.50016115  0.15334414  0.30171088  1
  S  S43  1  0.25828590  0.87402787  0.98362801  1
  S  S44  1  0.84558532  0.42506181  0.81858287  1
  S  S45  1  0.72725126  0.78053740  0.68590203  1
  S  S46  1  0.65764244  0.01963124  0.76764711  1
  S  S47  1  0.88626524  0.12479661  0.79742345  1
  S  S48  1  0.59679133  0.52406064  0.52912855  1
  S  S49  1  0.75015385  0.53252927  0.52513245  1
loop_
_geom_bond_atom_site_label_1
_geom_bond_atom_site_label_2
_geom_bond_distance
_geom_bond_site_symmetry_2
Zn32 Zn49 2.354953 1_555
S0 S39 2.140217 1_555
S0 Zn22 2.378827 1_555
S0 Zn35 2.455009 1_555
S1 Zn4 2.320750 1_565
S1 Zn41 2.336787 1_555
S1 Zn44 2.355872 1_555
S1 Zn2 2.423859 1_565
S2 Zn22 2.242638 1_556
S2 Zn16 2.335183 1_556
S2 Zn36 2.523019 1_555
S2 Zn5 2.848820 1_555
S3 Zn36 2.238969 1_555
S3 Zn47 2.374939 1_555
S3 Zn40 2.412503 1_555
S3 Zn12 2.792168 1_555
S4 Zn16 2.251762 1_555
S4 Zn19 2.269086 1_555
S4 Zn1 2.420173 1_555
S5 Zn25 2.255438 1_555
S5 Zn13 2.295638 1_555
S5 Zn6 2.338284 1_555
S6 Zn5 2.283583 1_555
S6 Zn44 2.291134 1_555
S6 Zn36 2.362583 1_555
S7 Zn21 2.226319 1_545
S7 Zn18 2.301256 1_455
S7 Zn20 2.311354 1_555
S8 Zn33 2.356612 1_555
S8 Zn18 2.368368 1_455
S8 Zn11 2.382654 1_555
S8 Zn6 2.393041 1_455
S9 Zn16 2.301611 1_555
S9 Zn47 2.359039 1_554
S9 Zn48 2.401192 1_555
S9 Zn35 2.466759 1_555
S10 Zn4 2.253911 1_555
S10 Zn12 2.325349 1_555
S10 Zn17 2.423912 1_555
S11 Zn42 2.326153 1_555
S11 Zn15 2.337345 1_555
S11 Zn47 2.397726 1_555
S11 Zn12 2.442460 1_555
S12 Zn21 2.253033 1_555
S12 Zn28 2.291476 1_555
S12 Zn43 2.431251 1_555
S13 Zn17 2.265229 1_555
S13 Zn19 2.282113 1_556
S13 Zn15 2.342912 1_555
S14 Zn38 2.279323 1_555
S14 Zn30 2.396175 1_555
S14 Zn10 2.419135 1_555
S14 Zn28 2.929986 1_555
S15 Zn42 2.305208 1_555
S15 Zn0 2.323639 1_455
S15 Zn11 2.398494 1_556
S15 Zn14 2.428101 1_455
S16 Zn9 2.284076 1_555
S16 Zn26 2.373870 1_555
S16 Zn18 2.384358 1_465
S16 Zn49 2.424533 1_455
S17 Zn2 2.228178 1_555
S17 Zn15 2.326122 1_555
S17 Zn1 2.385172 1_556
S18 Zn19 2.237375 1_555
S18 Zn14 2.305065 1_554
S18 Zn6 2.317572 1_555
S19 Zn27 2.234176 1_555
S19 Zn29 2.268020 1_555
S19 Zn25 2.315807 1_555
S20 Zn40 2.294117 1_555
S20 Zn12 2.308345 1_555
S20 Zn30 2.351632 1_555
S21 Zn4 2.248420 1_555
S21 Zn42 2.307151 1_555
S21 Zn46 2.316045 1_555
S22 Zn20 2.294349 1_565
S22 Zn31 2.335437 1_565
S22 Zn10 2.480715 1_555
S22 Zn38 2.484336 1_555
S23 Zn20 2.260685 1_555
S23 Zn39 2.280732 1_555
S23 Zn33 2.355161 1_555
S24 Zn48 2.313923 1_555
S24 Zn1 2.315196 1_555
S24 Zn33 2.370002 1_555
S25 S44 2.124109 1_555
S25 Zn27 2.321904 1_555
S25 Zn8 2.632589 1_555
S25 Zn42 2.747497 1_655
S26 Zn9 2.279249 1_555
S26 Zn37 2.282143 1_555
S26 Zn3 2.322395 1_454
S27 Zn34 2.325926 1_555
S27 Zn21 2.426361 1_655
S27 Zn28 2.449021 1_655
S27 Zn32 2.460317 1_555
S28 Zn41 2.308999 1_555
S28 Zn47 2.349318 1_555
S28 Zn43 2.372143 1_555
S28 Zn40 2.512879 1_555
S29 Zn7 2.274747 1_555
S29 Zn39 2.406136 1_555
S29 Zn30 2.438545 1_555
S29 Zn48 2.477262 1_555
S30 Zn38 2.202496 1_555
S30 Zn40 2.316064 1_555
S30 Zn41 2.365347 1_555
S31 Zn0 2.207390 1_554
S31 Zn37 2.309446 1_655
S31 Zn3 2.529779 1_554
S32 Zn24 2.205005 1_555
S32 Zn31 2.311429 1_565
S32 Zn23 2.345606 1_565
S33 Zn23 2.282810 1_555
S33 Zn18 2.388306 1_555
S33 Zn49 2.473620 1_545
S33 Zn6 2.634935 1_555
S34 Zn37 2.243787 1_555
S34 Zn48 2.411839 1_555
S34 Zn33 2.438269 1_555
S34 Zn30 2.494063 1_555
S35 Zn25 2.299917 1_555
S35 Zn23 2.303882 1_555
S35 Zn29 2.317077 1_555
S36 Zn43 2.308813 1_555
S36 Zn46 2.394740 1_565
S36 Zn26 2.441733 1_556
S36 Zn45 2.565450 1_455
S37 Zn22 2.303582 1_555
S37 Zn24 2.337003 1_555
S37 Zn32 2.415721 1_555
S37 Zn13 2.557942 1_555
S38 Zn28 2.241469 1_655
S38 Zn27 2.292137 1_555
S38 Zn13 2.345515 1_555
S39 Zn24 2.347118 1_555
S39 Zn10 2.509739 1_555
S39 Zn7 2.592673 1_555
S40 Zn5 2.270877 1_555
S40 Zn3 2.408511 1_555
S40 Zn45 2.433633 1_555
S40 Zn49 2.480716 1_556
S41 S45 2.096111 1_555
S41 Zn5 2.425499 1_555
S41 Zn8 2.468340 1_555
S41 Zn36 2.583455 1_555
S42 Zn31 2.262412 1_555
S42 Zn39 2.267958 1_555
S42 Zn1 2.391159 1_555
S43 Zn2 2.232135 1_565
S43 Zn35 2.361159 1_556
S43 Zn26 2.390425 1_556
S44 Zn0 2.396151 1_555
S44 Zn14 2.439875 1_555
S45 Zn34 2.260544 1_555
S46 Zn44 2.223096 1_545
S46 Zn17 2.273029 1_555
S46 Zn45 2.500993 1_545
S47 Zn29 2.274508 1_555
S47 Zn14 2.311198 1_555
S47 Zn45 2.424199 1_545
S47 Zn46 2.435686 1_655
S48 S49 2.091814 1_555
S48 Zn7 2.252265 1_555
S49 Zn34 2.349518 1_555
S49 Zn13 2.420066 1_555
