# generated using pymatgen
data_Li4Mn3O7
_symmetry_space_group_name_H-M   'P 1'
_cell_length_a   3.07965499
_cell_length_b   3.07965499
_cell_length_c   34.51663917
_cell_angle_alpha   88.79303565
_cell_angle_beta   88.79303565
_cell_angle_gamma   55.70906025
_symmetry_Int_Tables_number   1
_chemical_formula_structural   Li4Mn3O7
_chemical_formula_sum   'Li8 Mn6 O14'
_cell_volume   270.38830992
_cell_formula_units_Z   2
loop_
 _symmetry_equiv_pos_site_id
 _symmetry_equiv_pos_as_xyz
  1  'x, y, z'
loop_
 _atom_site_type_symbol
 _atom_site_label
 _atom_site_symmetry_multiplicity
 _atom_site_fract_x
 _atom_site_fract_y
 _atom_site_fract_z
 _atom_site_occupancy
  Li  Li0  1  0.69951000  0.69951000  0.93299500  1
  Li  Li1  1  0.30049000  0.30049000  0.06700500  1
  Li  Li2  1  0.85793800  0.85793800  0.21403900  1
  Li  Li3  1  0.42888500  0.42888500  0.35711200  1
  Li  Li4  1  0.00000000  0.00000000  0.50000000  1
  Li  Li5  1  0.57111500  0.57111500  0.64288800  1
  Li  Li6  1  0.14206200  0.14206200  0.78596100  1
  Li  Li7  1  0.00000000  0.00000000  0.00000000  1
  Mn  Mn0  1  0.42471100  0.42471100  0.85705300  1
  Mn  Mn1  1  0.57528900  0.57528900  0.14294700  1
  Mn  Mn2  1  0.14292000  0.14292000  0.28569000  1
  Mn  Mn3  1  0.71438200  0.71438200  0.42858600  1
  Mn  Mn4  1  0.28561800  0.28561800  0.57141400  1
  Mn  Mn5  1  0.85708000  0.85708000  0.71431000  1
  O  O0  1  0.06592100  0.06592100  0.88752900  1
  O  O1  1  0.63976700  0.63976700  0.03636200  1
  O  O2  1  0.20170900  0.20170900  0.17625700  1
  O  O3  1  0.76729300  0.76729300  0.31886600  1
  O  O4  1  0.33872800  0.33872800  0.46167800  1
  O  O5  1  0.91029300  0.91029300  0.60449900  1
  O  O6  1  0.48225900  0.48225900  0.74716300  1
  O  O7  1  0.36023300  0.36023300  0.96363800  1
  O  O8  1  0.93407900  0.93407900  0.11247100  1
  O  O9  1  0.51774100  0.51774100  0.25283700  1
  O  O10  1  0.08970700  0.08970700  0.39550100  1
  O  O11  1  0.66127200  0.66127200  0.53832200  1
  O  O12  1  0.23270700  0.23270700  0.68113400  1
  O  O13  1  0.79829100  0.79829100  0.82374300  1
loop_
_geom_bond_atom_site_label_1
_geom_bond_atom_site_label_2
_geom_bond_distance
_geom_bond_site_symmetry_2
Li0 O7 1.999829 1_565
Li0 O7 1.999829 1_655
Li0 O7 2.106940 1_555
Li0 O0 2.262051 1_565
Li0 O0 2.262051 1_655
Li0 O0 2.508992 1_665
Li1 O1 1.999829 1_545
Li1 O1 1.999829 1_455
Li1 O1 2.106940 1_555
Li1 O8 2.262051 1_545
Li1 O8 2.262051 1_455
Li1 O8 2.508992 1_445
Li2 O2 2.132561 1_565
Li2 O2 2.132561 1_655
Li2 O9 2.162561 1_655
Li2 O9 2.162561 1_565
Li2 O2 2.255880 1_665
Li2 O9 2.259936 1_555
Li3 O3 2.154734 1_545
Li3 O3 2.154734 1_455
Li3 O10 2.156041 1_565
Li3 O10 2.156041 1_655
Li3 O3 2.241191 1_555
Li3 O10 2.247391 1_555
Li4 O11 2.155631 1_455
Li4 O11 2.155631 1_545
Li4 O4 2.155631 1_455
Li4 O4 2.155631 1_545
Li4 O11 2.244093 1_445
Li4 O4 2.244093 1_555
Li5 O12 2.154734 1_655
Li5 O12 2.154734 1_565
Li5 O5 2.156041 1_545
Li5 O5 2.156041 1_455
Li5 O12 2.241191 1_555
Li5 O5 2.247391 1_555
Li6 O13 2.132561 1_545
Li6 O13 2.132561 1_455
Li6 O6 2.162561 1_455
Li6 O6 2.162561 1_545
Li6 O13 2.255880 1_445
Li6 O6 2.259936 1_555
Li7 O1 2.066526 1_455
Li7 O7 2.066526 1_454
Li7 O7 2.066526 1_544
Li7 O1 2.066526 1_545
Li7 O7 2.303531 1_554
Li7 O1 2.303531 1_445
Mn0 O0 1.951121 1_565
Mn0 O0 1.951121 1_655
Mn0 O13 1.975862 1_455
Mn0 O13 1.975862 1_545
Mn0 O0 2.196853 1_555
Mn0 O13 2.312840 1_555
Mn1 O8 1.951121 1_455
Mn1 O8 1.951121 1_545
Mn1 O2 1.975862 1_565
Mn1 O2 1.975862 1_655
Mn1 O8 2.196853 1_555
Mn1 O2 2.312840 1_555
Mn2 O9 1.964145 1_455
Mn2 O9 1.964145 1_545
Mn2 O3 1.969119 1_455
Mn2 O3 1.969119 1_545
Mn2 O9 2.311258 1_555
Mn2 O3 2.320331 1_445
Mn3 O4 1.967358 1_655
Mn3 O4 1.967358 1_565
Mn3 O10 1.967858 1_565
Mn3 O10 1.967858 1_655
Mn3 O10 2.317417 1_665
Mn3 O4 2.319091 1_555
Mn4 O11 1.967358 1_455
Mn4 O11 1.967358 1_545
Mn4 O5 1.967858 1_455
Mn4 O5 1.967858 1_545
Mn4 O5 2.317417 1_445
Mn4 O11 2.319091 1_555
Mn5 O6 1.964145 1_565
Mn5 O6 1.964145 1_655
Mn5 O12 1.969119 1_655
Mn5 O12 1.969119 1_565
Mn5 O6 2.311258 1_555
Mn5 O12 2.320331 1_665
