# generated using pymatgen
data_Rb2InHgBr6
_symmetry_space_group_name_H-M   'P 1'
_cell_length_a   8.03794583
_cell_length_b   8.03794583
_cell_length_c   8.03794583
_cell_angle_alpha   60.00000000
_cell_angle_beta   60.00000000
_cell_angle_gamma   60.00000000
_symmetry_Int_Tables_number   1
_chemical_formula_structural   Rb2InHgBr6
_chemical_formula_sum   'Rb2 In1 Hg1 Br6'
_cell_volume   367.21484237
_cell_formula_units_Z   1
loop_
 _symmetry_equiv_pos_site_id
 _symmetry_equiv_pos_as_xyz
  1  'x, y, z'
loop_
 _atom_site_type_symbol
 _atom_site_label
 _atom_site_symmetry_multiplicity
 _atom_site_fract_x
 _atom_site_fract_y
 _atom_site_fract_z
 _atom_site_occupancy
  Rb  Rb0  1  0.75000000  0.75000000  0.75000000  1
  Rb  Rb1  1  0.25000000  0.25000000  0.25000000  1
  In  In0  1  0.00000000  0.00000000  0.00000000  1
  Hg  Hg0  1  0.50000000  0.50000000  0.50000000  1
  Br  Br0  1  0.75776900  0.24223100  0.24223100  1
  Br  Br1  1  0.24223100  0.24223100  0.75776900  1
  Br  Br2  1  0.24223100  0.75776900  0.75776900  1
  Br  Br3  1  0.24223100  0.75776900  0.24223100  1
  Br  Br4  1  0.75776900  0.24223100  0.75776900  1
  Br  Br5  1  0.75776900  0.75776900  0.24223100  1
loop_
_geom_bond_atom_site_label_1
_geom_bond_atom_site_label_2
_geom_bond_distance
_geom_bond_site_symmetry_2
Br0 In0 2.753530 1_655
Br0 Hg0 2.930156 1_555
Br0 Rb1 4.019943 1_555
Br0 Rb0 4.019943 1_554
Br0 Rb0 4.019943 1_545
Br0 Rb1 4.019943 1_655
Br1 In0 2.753530 1_556
Br1 Hg0 2.930156 1_555
Br1 Rb1 4.019943 1_555
Br1 Rb0 4.019943 1_455
Br1 Rb0 4.019943 1_545
Br1 Rb1 4.019943 1_556
Br2 In0 2.753530 1_566
Br2 Hg0 2.930156 1_555
Br2 Rb0 4.019943 1_455
Br2 Rb1 4.019943 1_565
Br2 Rb1 4.019943 1_556
Br2 Rb0 4.019943 1_555
Br3 In0 2.753530 1_565
Br3 Hg0 2.930156 1_555
Br3 Rb1 4.019943 1_555
Br3 Rb0 4.019943 1_554
Br3 Rb0 4.019943 1_455
Br3 Rb1 4.019943 1_565
Br4 In0 2.753530 1_656
Br4 Hg0 2.930156 1_555
Br4 Rb0 4.019943 1_545
Br4 Rb1 4.019943 1_655
Br4 Rb1 4.019943 1_556
Br4 Rb0 4.019943 1_555
Br5 In0 2.753530 1_665
Br5 Hg0 2.930156 1_555
Br5 Rb0 4.019943 1_554
Br5 Rb1 4.019943 1_655
Br5 Rb1 4.019943 1_565
Br5 Rb0 4.019943 1_555
