# generated using pymatgen
data_TbZnAgAs2
_symmetry_space_group_name_H-M   'P 1'
_cell_length_a   4.26512336
_cell_length_b   4.26512336
_cell_length_c   6.89136900
_cell_angle_alpha   90.00000000
_cell_angle_beta   90.00000000
_cell_angle_gamma   119.99999014
_symmetry_Int_Tables_number   1
_chemical_formula_structural   TbZnAgAs2
_chemical_formula_sum   'Tb1 Zn1 Ag1 As2'
_cell_volume   108.56738420
_cell_formula_units_Z   1
loop_
 _symmetry_equiv_pos_site_id
 _symmetry_equiv_pos_as_xyz
  1  'x, y, z'
loop_
 _atom_site_type_symbol
 _atom_site_label
 _atom_site_symmetry_multiplicity
 _atom_site_fract_x
 _atom_site_fract_y
 _atom_site_fract_z
 _atom_site_occupancy
  Tb  Tb0  1  0.33333300  0.66666700  0.98412100  1
  Zn  Zn0  1  0.00000000  0.00000000  0.37656200  1
  Ag  Ag0  1  0.66666700  0.33333300  0.63358500  1
  As  As0  1  0.66666700  0.33333300  0.24032300  1
  As  As1  1  0.00000000  0.00000000  0.76540900  1
loop_
_geom_bond_atom_site_label_1
_geom_bond_atom_site_label_2
_geom_bond_distance
_geom_bond_site_symmetry_2
Ag0 As1 2.624695 1_655
Ag0 As1 2.624699 1_555
Ag0 As1 2.624699 1_665
Ag0 As0 2.710114 1_555
Ag0 Zn0 3.033321 1_655
Ag0 Zn0 3.033325 1_665
Ag0 Zn0 3.033325 1_555
Ag0 Tb0 3.449525 1_655
Ag0 Tb0 3.449525 1_545
Ag0 Tb0 3.449530 1_555
As0 Zn0 2.635380 1_655
As0 Zn0 2.635384 1_665
As0 Zn0 2.635384 1_555
As0 Tb0 3.030021 1_654
As0 Tb0 3.030021 1_544
As0 Tb0 3.030027 1_554
As1 Zn0 2.679688 1_555
As1 Tb0 2.887122 1_545
As1 Tb0 2.887126 1_555
As1 Tb0 2.887126 1_445
