# generated using pymatgen
data_Li2Cr2CoO6
_symmetry_space_group_name_H-M   'P 1'
_cell_length_a   6.80765962
_cell_length_b   2.93881681
_cell_length_c   5.89424476
_cell_angle_alpha   91.98012906
_cell_angle_beta   103.58740649
_cell_angle_gamma   102.09851519
_symmetry_Int_Tables_number   1
_chemical_formula_structural   Li2Cr2CoO6
_chemical_formula_sum   'Li2 Cr2 Co1 O6'
_cell_volume   111.64030467
_cell_formula_units_Z   1
loop_
 _symmetry_equiv_pos_site_id
 _symmetry_equiv_pos_as_xyz
  1  'x, y, z'
loop_
 _atom_site_type_symbol
 _atom_site_label
 _atom_site_symmetry_multiplicity
 _atom_site_fract_x
 _atom_site_fract_y
 _atom_site_fract_z
 _atom_site_occupancy
  Li  Li0  1  0.03233800  0.00139500  0.52780000  1
  Li  Li1  1  0.63425400  0.33189200  0.13880100  1
  Cr  Cr0  1  0.00447600  0.01182800  0.99747300  1
  Cr  Cr1  1  0.66219900  0.32151700  0.66923100  1
  Co  Co0  1  0.33336600  0.66666700  0.33332800  1
  O  O0  1  0.02821800  0.54308300  0.23924800  1
  O  O1  1  0.34570900  0.11729300  0.55699100  1
  O  O2  1  0.32099200  0.21605500  0.10964700  1
  O  O3  1  0.69372100  0.85402300  0.91050900  1
  O  O4  1  0.63851000  0.79027900  0.42744500  1
  O  O5  1  0.97288200  0.47930500  0.75619600  1
loop_
_geom_bond_atom_site_label_1
_geom_bond_atom_site_label_2
_geom_bond_distance
_geom_bond_site_symmetry_2
Li0 O1 2.053188 1_555
Li0 O5 2.076629 1_455
Li0 O5 2.113938 1_445
Li0 O0 2.123927 1_545
Li0 O0 2.368780 1_555
Li0 O4 2.540682 1_445
Li1 O2 2.052503 1_555
Li1 O3 2.076171 1_544
Li1 O3 2.113605 1_554
Li1 O4 2.124195 1_555
Li1 O4 2.369012 1_545
Li1 O0 2.541551 1_655
Cr0 O3 2.004002 1_445
Cr0 O5 2.017753 1_455
Cr0 O0 2.018765 1_546
Cr0 O5 2.019734 1_445
Cr0 O0 2.031443 1_556
Cr0 O2 2.049716 1_556
Cr1 O5 2.003538 1_555
Cr1 O3 2.017753 1_545
Cr1 O4 2.018826 1_555
Cr1 O3 2.019810 1_555
Cr1 O4 2.031538 1_545
Cr1 O1 2.049579 1_555
Co0 O2 1.810921 1_555
Co0 O1 1.810935 1_565
Co0 O4 1.970594 1_555
Co0 O0 1.970618 1_555
Co0 O1 2.122166 1_555
Co0 O2 2.122277 1_565
