# generated using pymatgen
data_AlFePO5
_symmetry_space_group_name_H-M   'P 1'
_cell_length_a   5.55967420
_cell_length_b   7.22775425
_cell_length_c   10.64722700
_cell_angle_alpha   90.00085218
_cell_angle_beta   90.00241087
_cell_angle_gamma   98.15945686
_symmetry_Int_Tables_number   1
_chemical_formula_structural   AlFePO5
_chemical_formula_sum   'Al4 Fe4 P4 O20'
_cell_volume   423.51658931
_cell_formula_units_Z   4
loop_
 _symmetry_equiv_pos_site_id
 _symmetry_equiv_pos_as_xyz
  1  'x, y, z'
loop_
 _atom_site_type_symbol
 _atom_site_label
 _atom_site_symmetry_multiplicity
 _atom_site_fract_x
 _atom_site_fract_y
 _atom_site_fract_z
 _atom_site_occupancy
  Al  Al0  1  0.55550600  0.35777500  0.17398300  1
  Al  Al1  1  0.94449800  0.64222000  0.67397400  1
  Al  Al2  1  0.44451800  0.64222400  0.82601600  1
  Al  Al3  1  0.05552300  0.35777300  0.32602400  1
  Fe  Fe0  1  0.60952600  0.01707700  0.35550600  1
  Fe  Fe1  1  0.89051300  0.98293800  0.85546900  1
  Fe  Fe2  1  0.39045600  0.98290800  0.64450300  1
  Fe  Fe3  1  0.10947500  0.01704600  0.14452200  1
  P  P0  1  0.06955700  0.77703800  0.40321000  1
  P  P1  1  0.43042900  0.22295800  0.90320500  1
  P  P2  1  0.93043700  0.22296800  0.59679500  1
  P  P3  1  0.56956800  0.77705100  0.09679300  1
  O  O0  1  0.75903600  0.26924800  0.27647100  1
  O  O1  1  0.74100200  0.73074300  0.77646800  1
  O  O2  1  0.24100100  0.73072400  0.72351000  1
  O  O3  1  0.25903800  0.26924400  0.22354400  1
  O  O4  1  0.11168700  0.60371800  0.32614300  1
  O  O5  1  0.38830600  0.39628200  0.82614500  1
  O  O6  1  0.88831500  0.39628400  0.67385800  1
  O  O7  1  0.61169500  0.60372600  0.17385700  1
  O  O8  1  0.59632800  0.28324400  0.01735200  1
  O  O9  1  0.90363600  0.71674500  0.51734700  1
  O  O10  1  0.40367000  0.71675500  0.98264000  1
  O  O11  1  0.09634700  0.28325400  0.48265800  1
  O  O12  1  0.94292000  0.90963100  0.31940500  1
  O  O13  1  0.55704800  0.09036500  0.81939300  1
  O  O14  1  0.05707400  0.09038900  0.68060600  1
  O  O15  1  0.44293900  0.90965300  0.18059700  1
  O  O16  1  0.68233200  0.12124700  0.54807800  1
  O  O17  1  0.81764700  0.87876900  0.04807400  1
  O  O18  1  0.31764200  0.87876000  0.45193300  1
  O  O19  1  0.18233000  0.12124500  0.95192000  1
loop_
_geom_bond_atom_site_label_1
_geom_bond_atom_site_label_2
_geom_bond_distance
_geom_bond_site_symmetry_2
Al0 O0 1.756708 1_555
Al0 O7 1.760704 1_555
Al0 O3 1.762209 1_555
Al0 O8 1.776959 1_555
Al1 O1 1.756650 1_555
Al1 O6 1.760596 1_555
Al1 O2 1.762209 1_655
Al1 O9 1.776940 1_555
Al2 O2 1.756688 1_555
Al2 O5 1.760644 1_555
Al2 O1 1.762226 1_555
Al2 O10 1.776914 1_555
Al3 O3 1.756651 1_555
Al3 O4 1.760657 1_555
Al3 O0 1.762220 1_455
Al3 O11 1.776960 1_555
Fe0 O18 2.055867 1_545
Fe0 O0 2.071498 1_555
Fe0 O12 2.143639 1_545
Fe0 O15 2.173585 1_545
Fe0 O16 2.201833 1_555
Fe1 O19 2.055617 1_665
Fe1 O1 2.071444 1_555
Fe1 O13 2.143862 1_565
Fe1 O14 2.173256 1_665
Fe1 O17 2.202256 1_556
Fe2 O16 2.055884 1_565
Fe2 O2 2.071369 1_555
Fe2 O14 2.143704 1_565
Fe2 O13 2.173493 1_565
Fe2 O18 2.201769 1_555
Fe3 O17 2.055564 1_445
Fe3 O3 2.071633 1_555
Fe3 O15 2.143736 1_545
Fe3 O12 2.173349 1_445
Fe3 O19 2.202286 1_554
O4 P0 1.542963 1_555
O5 P1 1.542946 1_555
O6 P2 1.542904 1_555
O7 P3 1.542981 1_555
O8 P1 1.550311 1_554
O9 P0 1.550376 1_655
O10 P3 1.550372 1_556
O11 P2 1.550333 1_455
O12 P0 1.549780 1_655
O13 P1 1.549787 1_555
O14 P2 1.549748 1_455
O15 P3 1.549812 1_555
O16 P2 1.557031 1_555
O17 P3 1.556958 1_555
O18 P0 1.556964 1_555
O19 P1 1.557022 1_555
