# generated using pymatgen
data_Li3LaGa8
_symmetry_space_group_name_H-M   'P 1'
_cell_length_a   3.62664900
_cell_length_b   4.44750088
_cell_length_c   15.13575669
_cell_angle_alpha   90.00000504
_cell_angle_beta   90.00000000
_cell_angle_gamma   90.00000000
_symmetry_Int_Tables_number   1
_chemical_formula_structural   Li3LaGa8
_chemical_formula_sum   'Li3 La1 Ga8'
_cell_volume   244.13256021
_cell_formula_units_Z   1
loop_
 _symmetry_equiv_pos_site_id
 _symmetry_equiv_pos_as_xyz
  1  'x, y, z'
loop_
 _atom_site_type_symbol
 _atom_site_label
 _atom_site_symmetry_multiplicity
 _atom_site_fract_x
 _atom_site_fract_y
 _atom_site_fract_z
 _atom_site_occupancy
  Li  Li0  1  0.00000000  0.49999400  0.24320700  1
  Li  Li1  1  0.00000000  0.00001500  0.50000000  1
  Li  Li2  1  0.00000000  0.49999400  0.75679300  1
  La  La0  1  0.00000000  0.99996400  0.00000000  1
  Ga  Ga0  1  0.50000000  0.99988900  0.17646200  1
  Ga  Ga1  1  0.50000000  0.50003100  0.41862400  1
  Ga  Ga2  1  0.50000000  0.99996100  0.66067100  1
  Ga  Ga3  1  0.50000000  0.49993600  0.91066000  1
  Ga  Ga4  1  0.50000000  0.49993600  0.08934000  1
  Ga  Ga5  1  0.50000000  0.99996100  0.33932900  1
  Ga  Ga6  1  0.50000000  0.50003100  0.58137600  1
  Ga  Ga7  1  0.50000000  0.99988900  0.82353800  1
loop_
_geom_bond_atom_site_label_1
_geom_bond_atom_site_label_2
_geom_bond_distance
_geom_bond_site_symmetry_2
Ga0 Ga5 2.465115 1_555
Ga0 Ga4 2.585149 1_555
Ga0 Ga4 2.585508 1_565
Ga0 Li0 3.041663 1_555
Ga0 Li0 3.041663 1_655
Ga0 Li0 3.042345 1_665
Ga0 Li0 3.042345 1_565
Ga0 La0 3.228278 1_655
Ga0 La0 3.228278 1_555
Ga1 Ga6 2.463375 1_555
Ga1 Ga5 2.526685 1_555
Ga1 Ga5 2.527233 1_545
Ga1 Li1 3.122491 1_565
Ga1 Li1 3.122491 1_665
Ga1 Li1 3.122592 1_655
Ga1 Li1 3.122592 1_555
Ga1 Li0 3.215204 1_555
Ga1 Li0 3.215204 1_655
Ga2 Ga7 2.465115 1_555
Ga2 Ga6 2.526685 1_555
Ga2 Ga6 2.527233 1_565
Ga2 Li1 3.033508 1_565
Ga2 Li1 3.033508 1_665
Ga2 Li2 3.217022 1_555
Ga2 Li2 3.217022 1_655
Ga2 Li2 3.217225 1_565
Ga2 Li2 3.217225 1_665
Ga3 Ga7 2.585149 1_555
Ga3 Ga7 2.585508 1_545
Ga3 Ga4 2.704457 1_556
Ga3 Li2 2.951591 1_555
Ga3 Li2 2.951591 1_655
Ga3 La0 3.171936 1_546
Ga3 La0 3.171936 1_646
Ga3 La0 3.172111 1_556
Ga3 La0 3.172111 1_656
Ga4 Li0 2.951591 1_555
Ga4 Li0 2.951591 1_655
Ga4 La0 3.171936 1_645
Ga4 La0 3.171936 1_545
Ga4 La0 3.172111 1_655
Ga4 La0 3.172111 1_555
Ga5 Li1 3.033508 1_565
Ga5 Li1 3.033508 1_665
Ga5 Li0 3.217022 1_555
Ga5 Li0 3.217022 1_655
Ga5 Li0 3.217225 1_565
Ga5 Li0 3.217225 1_665
Ga6 Li1 3.122491 1_565
Ga6 Li1 3.122491 1_665
Ga6 Li1 3.122592 1_555
Ga6 Li1 3.122592 1_655
Ga6 Li2 3.215204 1_555
Ga6 Li2 3.215204 1_655
Ga7 Li2 3.041663 1_655
Ga7 Li2 3.041663 1_555
Ga7 Li2 3.042346 1_565
Ga7 Li2 3.042346 1_665
Ga7 La0 3.228278 1_656
Ga7 La0 3.228278 1_556
