# generated using pymatgen
data_Na3In(PO4)2
_symmetry_space_group_name_H-M   'P 1'
_cell_length_a   5.53502000
_cell_length_b   7.12730100
_cell_length_c   8.77930326
_cell_angle_alpha   89.98613175
_cell_angle_beta   90.00000000
_cell_angle_gamma   90.00000000
_symmetry_Int_Tables_number   1
_chemical_formula_structural   Na3In(PO4)2
_chemical_formula_sum   'Na6 In2 P4 O16'
_cell_volume   346.34133996
_cell_formula_units_Z   2
loop_
 _symmetry_equiv_pos_site_id
 _symmetry_equiv_pos_as_xyz
  1  'x, y, z'
loop_
 _atom_site_type_symbol
 _atom_site_label
 _atom_site_symmetry_multiplicity
 _atom_site_fract_x
 _atom_site_fract_y
 _atom_site_fract_z
 _atom_site_occupancy
  Na  Na0  1  0.75000000  0.50582900  0.74390200  1
  Na  Na1  1  0.25000000  0.49417100  0.25609800  1
  Na  Na2  1  0.75000000  0.72356900  0.43355500  1
  Na  Na3  1  0.25000000  0.27643100  0.56644500  1
  Na  Na4  1  0.75000000  0.28946900  0.06062600  1
  Na  Na5  1  0.25000000  0.71053100  0.93937400  1
  In  In0  1  0.75000000  0.00270000  0.75269500  1
  In  In1  1  0.25000000  0.99730000  0.24730500  1
  P  P0  1  0.75000000  0.22346800  0.40113300  1
  P  P1  1  0.25000000  0.77653200  0.59886700  1
  P  P2  1  0.75000000  0.77713400  0.09506900  1
  P  P3  1  0.25000000  0.22286600  0.90493100  1
  O  O0  1  0.75000000  0.05039200  0.50853200  1
  O  O1  1  0.25000000  0.94960800  0.49146800  1
  O  O2  1  0.75000000  0.40663600  0.48973900  1
  O  O3  1  0.25000000  0.59336400  0.51026100  1
  O  O4  1  0.02092600  0.78365400  0.70603100  1
  O  O5  1  0.52092600  0.21634600  0.29396900  1
  O  O6  1  0.97907400  0.21634600  0.29396900  1
  O  O7  1  0.47907400  0.78365400  0.70603100  1
  O  O8  1  0.75000000  0.95793700  0.99660000  1
  O  O9  1  0.25000000  0.04206300  0.00340000  1
  O  O10  1  0.02078400  0.22374100  0.79730300  1
  O  O11  1  0.52078400  0.77625900  0.20269700  1
  O  O12  1  0.97921600  0.77625900  0.20269700  1
  O  O13  1  0.47921600  0.22374100  0.79730300  1
  O  O14  1  0.75000000  0.60124800  0.99739100  1
  O  O15  1  0.25000000  0.39875200  0.00260900  1
loop_
_geom_bond_atom_site_label_1
_geom_bond_atom_site_label_2
_geom_bond_distance
_geom_bond_site_symmetry_2
Na0 O14 2.327208 1_555
Na0 O2 2.340857 1_555
Na0 O7 2.505979 1_555
Na0 O4 2.505979 1_655
Na0 O10 2.551067 1_655
Na0 O13 2.551067 1_555
Na1 O15 2.327208 1_555
Na1 O3 2.340857 1_555
Na1 O5 2.505979 1_555
Na1 O6 2.505979 1_455
Na1 O11 2.551067 1_555
Na1 O12 2.551067 1_455
Na2 O2 2.311988 1_555
Na2 O12 2.420352 1_555
Na2 O11 2.420352 1_555
Na2 O0 2.420739 1_565
Na2 O7 2.855698 1_555
Na2 O4 2.855698 1_655
Na3 O3 2.311988 1_555
Na3 O10 2.420352 1_555
Na3 O13 2.420352 1_555
Na3 O1 2.420739 1_545
Na3 O6 2.855698 1_455
Na3 O5 2.855698 1_555
Na4 O14 2.290311 1_554
Na4 O8 2.428999 1_544
Na4 O6 2.464845 1_555
Na4 O5 2.464845 1_555
Na4 O10 2.794772 1_654
Na4 O13 2.794772 1_554
Na4 O15 2.919765 1_655
Na4 O15 2.919765 1_555
Na5 O15 2.290311 1_556
Na5 O9 2.428999 1_566
Na5 O4 2.464845 1_555
Na5 O7 2.464845 1_555
Na5 O12 2.794772 1_456
Na5 O11 2.794772 1_556
Na5 O14 2.919765 1_455
Na5 O14 2.919765 1_555
In0 O8 2.164876 1_545
In0 O0 2.170283 1_555
In0 O4 2.203237 1_645
In0 O7 2.203237 1_545
In0 O10 2.209530 1_655
In0 O13 2.209530 1_555
In1 O9 2.164876 1_565
In1 O1 2.170283 1_555
In1 O5 2.203237 1_565
In1 O6 2.203237 1_465
In1 O11 2.209530 1_555
In1 O12 2.209530 1_455
O0 P0 1.552468 1_555
O1 P1 1.552468 1_555
O2 P0 1.519846 1_555
O3 P1 1.519846 1_555
O4 P1 1.579682 1_555
O5 P0 1.579682 1_555
O6 P0 1.579682 1_555
O7 P1 1.579682 1_555
O8 P2 1.551576 1_556
O9 P3 1.551576 1_554
O10 P3 1.581932 1_555
O11 P2 1.581932 1_555
O12 P2 1.581932 1_555
O13 P3 1.581932 1_555
O14 P2 1.519012 1_556
O15 P3 1.519012 1_554
