# generated using pymatgen
data_CsTc3(Se2Br)2
_symmetry_space_group_name_H-M   'P 1'
_cell_length_a   19.35680000
_cell_length_b   6.66431000
_cell_length_c   10.30769899
_cell_angle_alpha   64.63158253
_cell_angle_beta   90.00000000
_cell_angle_gamma   90.00000000
_symmetry_Int_Tables_number   1
_chemical_formula_structural   CsTc3(Se2Br)2
_chemical_formula_sum   'Cs4 Tc12 Se16 Br8'
_cell_volume   1201.47032911
_cell_formula_units_Z   4
loop_
 _symmetry_equiv_pos_site_id
 _symmetry_equiv_pos_as_xyz
  1  'x, y, z'
loop_
 _atom_site_type_symbol
 _atom_site_label
 _atom_site_symmetry_multiplicity
 _atom_site_fract_x
 _atom_site_fract_y
 _atom_site_fract_z
 _atom_site_occupancy
  Cs  Cs0  1  0.80993300  0.04907500  0.94813800  1
  Cs  Cs1  1  0.69006700  0.04907500  0.44813800  1
  Cs  Cs2  1  0.19006700  0.95092500  0.05186200  1
  Cs  Cs3  1  0.30993300  0.95092500  0.55186200  1
  Tc  Tc0  1  0.57851300  0.85976100  0.10728900  1
  Tc  Tc1  1  0.92148700  0.85976100  0.60728900  1
  Tc  Tc2  1  0.42148700  0.14023900  0.89271100  1
  Tc  Tc3  1  0.07851300  0.14023900  0.39271100  1
  Tc  Tc4  1  0.55815700  0.17330200  0.84715400  1
  Tc  Tc5  1  0.94184300  0.17330200  0.34715400  1
  Tc  Tc6  1  0.44184300  0.82669800  0.15284600  1
  Tc  Tc7  1  0.05815700  0.82669800  0.65284600  1
  Tc  Tc8  1  0.50474000  0.21314100  0.07025600  1
  Tc  Tc9  1  0.99526000  0.21314100  0.57025600  1
  Tc  Tc10  1  0.49526000  0.78685900  0.92974400  1
  Tc  Tc11  1  0.00474000  0.78685900  0.42974400  1
  Se  Se0  1  0.63278900  0.23621100  0.02616600  1
  Se  Se1  1  0.86721100  0.23621100  0.52616600  1
  Se  Se2  1  0.36721100  0.76378900  0.97383400  1
  Se  Se3  1  0.13278900  0.76378900  0.47383400  1
  Se  Se4  1  0.62344700  0.82663300  0.88808600  1
  Se  Se5  1  0.87655300  0.82663300  0.38808600  1
  Se  Se6  1  0.37655300  0.17336700  0.11191400  1
  Se  Se7  1  0.12344700  0.17336700  0.61191400  1
  Se  Se8  1  0.51538300  0.49097300  0.19325600  1
  Se  Se9  1  0.98461700  0.49097300  0.69325600  1
  Se  Se10  1  0.48461700  0.50902700  0.80674400  1
  Se  Se11  1  0.01538300  0.50902700  0.30674400  1
  Se  Se12  1  0.52346800  0.90200600  0.31728100  1
  Se  Se13  1  0.97653200  0.90200600  0.81728100  1
  Se  Se14  1  0.47653200  0.09799400  0.68271900  1
  Se  Se15  1  0.02346800  0.09799400  0.18271900  1
  Br  Br0  1  0.69283800  0.68506500  0.24653100  1
  Br  Br1  1  0.80716200  0.68506500  0.74653100  1
  Br  Br2  1  0.30716200  0.31493500  0.75346900  1
  Br  Br3  1  0.19283800  0.31493500  0.25346900  1
  Br  Br4  1  0.64163400  0.40082800  0.63766200  1
  Br  Br5  1  0.85836600  0.40082800  0.13766200  1
  Br  Br6  1  0.35836600  0.59917200  0.36233800  1
  Br  Br7  1  0.14163400  0.59917200  0.86233800  1
loop_
_geom_bond_atom_site_label_1
_geom_bond_atom_site_label_2
_geom_bond_distance
_geom_bond_site_symmetry_2
Cs0 Se13 3.783155 1_545
Cs0 Se0 3.849591 1_556
Cs0 Se4 4.049379 1_545
Cs0 Se1 4.129791 1_555
Cs0 Se5 4.320301 1_546
Cs1 Se12 3.783155 1_545
Cs1 Se1 3.849591 1_555
Cs1 Se5 4.049379 1_545
Cs1 Se0 4.129791 1_555
Cs1 Se4 4.320301 1_545
Cs2 Se15 3.783155 1_565
Cs2 Se2 3.849591 1_554
Cs2 Se6 4.049379 1_565
Cs2 Se3 4.129791 1_555
Cs2 Se7 4.320301 1_564
Cs3 Se14 3.783155 1_565
Cs3 Se3 3.849591 1_555
Cs3 Se7 4.049379 1_565
Cs3 Se2 4.129791 1_555
Cs3 Se6 4.320301 1_565
Se0 Tc0 2.509861 1_545
Se0 Tc8 2.512739 1_555
Se0 Tc4 2.516025 1_554
Se1 Tc1 2.509861 1_545
Se1 Tc9 2.512739 1_555
Se1 Tc5 2.516025 1_555
Se2 Tc2 2.509861 1_565
Se2 Tc10 2.512739 1_555
Se2 Tc6 2.516025 1_556
Se3 Tc3 2.509861 1_565
Se3 Tc11 2.512739 1_555
Se3 Tc7 2.516025 1_555
Se4 Tc4 2.505495 1_565
Se4 Tc10 2.512750 1_555
Se4 Tc0 2.517527 1_556
Se5 Tc5 2.505495 1_565
Se5 Tc11 2.512750 1_655
Se5 Tc1 2.517527 1_555
Se6 Tc6 2.505495 1_545
Se6 Tc8 2.512750 1_555
Se6 Tc2 2.517527 1_554
Se7 Tc7 2.505495 1_545
Se7 Tc9 2.512750 1_455
Se7 Tc3 2.517527 1_555
Se8 Tc6 2.531233 1_555
Se8 Tc0 2.540222 1_555
Se8 Tc10 2.613110 1_554
Se8 Tc8 2.662640 1_555
Se9 Tc7 2.531233 1_655
Se9 Tc1 2.540222 1_555
Se9 Tc11 2.613110 1_655
Se9 Tc9 2.662640 1_555
Se10 Tc4 2.531233 1_555
Se10 Tc2 2.540222 1_555
Se10 Tc8 2.613110 1_556
Se10 Tc10 2.662640 1_555
Se11 Tc5 2.531233 1_455
Se11 Tc3 2.540222 1_555
Se11 Tc9 2.613110 1_455
Se11 Tc11 2.662640 1_555
Se12 Tc6 2.519925 1_555
Se12 Tc8 2.527893 1_565
Se12 Tc0 2.534151 1_555
Se13 Tc7 2.519925 1_655
Se13 Tc9 2.527893 1_565
Se13 Tc1 2.534151 1_555
Se14 Tc4 2.519925 1_555
Se14 Tc10 2.527893 1_545
Se14 Tc2 2.534151 1_555
Se15 Tc5 2.519925 1_455
Se15 Tc11 2.527893 1_545
Se15 Tc3 2.534151 1_555
Br0 Tc0 2.623131 1_555
Br0 Cs0 3.753535 1_564
Br0 Cs1 3.811294 1_565
Br0 Cs1 3.839069 1_555
Br1 Tc1 2.623131 1_555
Br1 Cs1 3.753535 1_565
Br1 Cs0 3.811294 1_565
Br1 Cs0 3.839069 1_555
Br2 Tc2 2.623131 1_555
Br2 Cs2 3.753535 1_546
Br2 Cs3 3.811294 1_545
Br2 Cs3 3.839069 1_555
Br3 Tc3 2.623131 1_555
Br3 Cs3 3.753535 1_545
Br3 Cs2 3.811294 1_545
Br3 Cs2 3.839069 1_555
Br4 Tc4 2.601427 1_555
Br4 Cs1 3.756940 1_555
Br4 Cs1 4.015851 1_565
Br5 Tc5 2.601427 1_555
Br5 Cs0 3.756940 1_554
Br5 Cs0 4.015851 1_564
Br6 Tc6 2.601427 1_555
Br6 Cs3 3.756940 1_555
Br6 Cs3 4.015851 1_545
Br7 Tc7 2.601427 1_555
Br7 Cs2 3.756940 1_556
Br7 Cs2 4.015851 1_546
