# generated using pymatgen
data_MgPb3
_symmetry_space_group_name_H-M   'P 1'
_cell_length_a   6.71857463
_cell_length_b   6.71857463
_cell_length_c   5.91816513
_cell_angle_alpha   90.00000000
_cell_angle_beta   90.00000000
_cell_angle_gamma   120.00000285
_symmetry_Int_Tables_number   1
_chemical_formula_structural   MgPb3
_chemical_formula_sum   'Mg2 Pb6'
_cell_volume   231.35132401
_cell_formula_units_Z   2
loop_
 _symmetry_equiv_pos_site_id
 _symmetry_equiv_pos_as_xyz
  1  'x, y, z'
loop_
 _atom_site_type_symbol
 _atom_site_label
 _atom_site_symmetry_multiplicity
 _atom_site_fract_x
 _atom_site_fract_y
 _atom_site_fract_z
 _atom_site_occupancy
  Mg  Mg0  1  0.66666700  0.33333300  0.25000000  1
  Mg  Mg1  1  0.33333300  0.66666700  0.75000000  1
  Pb  Pb0  1  0.16890458  0.33781015  0.25000000  1
  Pb  Pb1  1  0.16890458  0.83109542  0.25000000  1
  Pb  Pb2  1  0.66218985  0.83109542  0.25000000  1
  Pb  Pb3  1  0.33781015  0.16890458  0.75000000  1
  Pb  Pb4  1  0.83109542  0.16890458  0.75000000  1
  Pb  Pb5  1  0.83109542  0.66218985  0.75000000  1
loop_
_geom_bond_atom_site_label_1
_geom_bond_atom_site_label_2
_geom_bond_distance
_geom_bond_site_symmetry_2
Mg0 Pb2 3.359382 1_545
Mg0 Pb0 3.359382 1_655
Mg0 Pb1 3.359388 1_545
Mg0 Pb1 3.359388 1_655
Mg0 Pb0 3.359395 1_555
Mg0 Pb2 3.359395 1_555
Mg0 Pb5 3.523836 1_555
Mg0 Pb5 3.523836 1_554
Mg0 Pb3 3.523836 1_555
Mg0 Pb3 3.523836 1_554
Mg0 Pb4 3.523836 1_554
Mg0 Pb4 3.523836 1_555
Mg1 Pb3 3.359382 1_565
Mg1 Pb5 3.359382 1_455
Mg1 Pb4 3.359388 1_565
Mg1 Pb4 3.359388 1_455
Mg1 Pb3 3.359395 1_555
Mg1 Pb5 3.359395 1_555
Mg1 Pb2 3.523836 1_555
Mg1 Pb0 3.523836 1_555
Mg1 Pb2 3.523836 1_556
Mg1 Pb0 3.523836 1_556
Mg1 Pb1 3.523836 1_555
Mg1 Pb1 3.523836 1_556
Pb0 Pb2 3.314174 1_555
Pb0 Pb1 3.314174 1_555
Pb0 Pb2 3.404401 1_445
Pb0 Pb1 3.404401 1_545
Pb0 Pb4 3.552389 1_455
Pb0 Pb4 3.552389 1_454
Pb0 Pb3 3.552396 1_555
Pb0 Pb3 3.552396 1_554
Pb1 Pb2 3.314174 1_555
Pb1 Pb2 3.404401 1_455
Pb1 Pb3 3.552389 1_565
Pb1 Pb5 3.552389 1_455
Pb1 Pb3 3.552389 1_564
Pb1 Pb5 3.552389 1_454
Pb2 Pb4 3.552389 1_564
Pb2 Pb4 3.552389 1_565
Pb2 Pb5 3.552396 1_555
Pb2 Pb5 3.552396 1_554
Pb3 Pb5 3.314174 1_555
Pb3 Pb4 3.314174 1_555
Pb3 Pb5 3.404401 1_445
Pb3 Pb4 3.404401 1_455
Pb4 Pb5 3.314174 1_555
Pb4 Pb5 3.404401 1_545
