# generated using pymatgen
data_Li4Si2O7
_symmetry_space_group_name_H-M   'P 1'
_cell_length_a   7.78827900
_cell_length_b   7.78827900
_cell_length_c   5.40331000
_cell_angle_alpha   90.00000000
_cell_angle_beta   90.00000000
_cell_angle_gamma   90.00000000
_symmetry_Int_Tables_number   1
_chemical_formula_structural   Li4Si2O7
_chemical_formula_sum   'Li8 Si4 O14'
_cell_volume   327.75014045
_cell_formula_units_Z   2
loop_
 _symmetry_equiv_pos_site_id
 _symmetry_equiv_pos_as_xyz
  1  'x, y, z'
loop_
 _atom_site_type_symbol
 _atom_site_label
 _atom_site_symmetry_multiplicity
 _atom_site_fract_x
 _atom_site_fract_y
 _atom_site_fract_z
 _atom_site_occupancy
  Li  Li0  1  0.34436000  0.56794800  0.68408300  1
  Li  Li1  1  0.15564000  0.06794800  0.31591700  1
  Li  Li2  1  0.65564000  0.43205200  0.68408300  1
  Li  Li3  1  0.84436000  0.93205200  0.31591700  1
  Li  Li4  1  0.56794800  0.65564000  0.31591700  1
  Li  Li5  1  0.93205200  0.15564000  0.68408300  1
  Li  Li6  1  0.43205200  0.34436000  0.31591700  1
  Li  Li7  1  0.06794800  0.84436000  0.68408300  1
  Si  Si0  1  0.14733900  0.64733900  0.18390000  1
  Si  Si1  1  0.35266100  0.14733900  0.81610000  1
  Si  Si2  1  0.85266100  0.35266100  0.18390000  1
  Si  Si3  1  0.64733900  0.85266100  0.81610000  1
  O  O0  1  0.00000000  0.50000000  0.24285300  1
  O  O1  1  0.50000000  0.00000000  0.75714700  1
  O  O2  1  0.16735100  0.66735100  0.88539700  1
  O  O3  1  0.33264900  0.16735100  0.11460300  1
  O  O4  1  0.83264900  0.33264900  0.88539700  1
  O  O5  1  0.66735100  0.83264900  0.11460300  1
  O  O6  1  0.32639100  0.58186400  0.30952500  1
  O  O7  1  0.17360900  0.08186400  0.69047500  1
  O  O8  1  0.67360900  0.41813600  0.30952500  1
  O  O9  1  0.82639100  0.91813600  0.69047500  1
  O  O10  1  0.58186400  0.67360900  0.69047500  1
  O  O11  1  0.91813600  0.17360900  0.30952500  1
  O  O12  1  0.41813600  0.32639100  0.69047500  1
  O  O13  1  0.08186400  0.82639100  0.30952500  1
loop_
_geom_bond_atom_site_label_1
_geom_bond_atom_site_label_2
_geom_bond_distance
_geom_bond_site_symmetry_2
Li0 O2 1.919141 1_555
Li0 O12 1.967405 1_555
Li0 O10 2.024834 1_555
Li0 O6 2.031579 1_555
Li1 O3 1.919141 1_555
Li1 O13 1.967405 1_545
Li1 O11 2.024834 1_455
Li1 O7 2.031579 1_555
Li2 O4 1.919141 1_555
Li2 O10 1.967405 1_555
Li2 O12 2.024834 1_555
Li2 O8 2.031579 1_555
Li3 O5 1.919141 1_555
Li3 O11 1.967405 1_565
Li3 O13 2.024834 1_655
Li3 O9 2.031579 1_555
Li4 O5 1.919141 1_555
Li4 O6 1.967405 1_555
Li4 O8 2.024834 1_555
Li4 O10 2.031579 1_555
Li5 O4 1.919141 1_555
Li5 O7 1.967405 1_655
Li5 O9 2.024834 1_545
Li5 O11 2.031579 1_555
Li6 O3 1.919141 1_555
Li6 O8 1.967405 1_555
Li6 O6 2.024834 1_555
Li6 O12 2.031579 1_555
Li7 O2 1.919141 1_555
Li7 O9 1.967405 1_455
Li7 O7 2.024834 1_565
Li7 O13 2.031579 1_555
O0 Si0 1.653802 1_555
O0 Si2 1.653802 1_455
O1 Si1 1.653802 1_555
O1 Si3 1.653802 1_545
O2 Si0 1.627896 1_556
O3 Si1 1.627896 1_554
O4 Si2 1.627896 1_556
O5 Si3 1.627896 1_554
O6 Si0 1.632618 1_555
O7 Si1 1.632618 1_555
O8 Si2 1.632618 1_555
O9 Si3 1.632618 1_555
O10 Si3 1.632618 1_555
O11 Si2 1.632618 1_555
O12 Si1 1.632618 1_555
O13 Si0 1.632618 1_555
