# generated using pymatgen
data_Sr2La2Mn4O11
_symmetry_space_group_name_H-M   'P 1'
_cell_length_a   5.62416000
_cell_length_b   5.62414300
_cell_length_c   8.70044606
_cell_angle_alpha   71.14355965
_cell_angle_beta   71.14350398
_cell_angle_gamma   90.00136512
_symmetry_Int_Tables_number   1
_chemical_formula_structural   Sr2La2Mn4O11
_chemical_formula_sum   'Sr2 La2 Mn4 O11'
_cell_volume   244.77432974
_cell_formula_units_Z   1
loop_
 _symmetry_equiv_pos_site_id
 _symmetry_equiv_pos_as_xyz
  1  'x, y, z'
loop_
 _atom_site_type_symbol
 _atom_site_label
 _atom_site_symmetry_multiplicity
 _atom_site_fract_x
 _atom_site_fract_y
 _atom_site_fract_z
 _atom_site_occupancy
  Sr  Sr0  1  0.12500100  0.62499900  0.74999300  1
  Sr  Sr1  1  0.62500600  0.12500000  0.74999400  1
  La  La0  1  0.37499600  0.87500300  0.25000200  1
  La  La1  1  0.87500100  0.37500000  0.25000400  1
  Mn  Mn0  1  0.99601300  0.99601600  0.00797100  1
  Mn  Mn1  1  0.50423000  0.50422900  0.99153400  1
  Mn  Mn2  1  0.25398300  0.25398500  0.49202700  1
  Mn  Mn3  1  0.74577400  0.74577400  0.50845900  1
  O  O0  1  0.24148600  0.75933500  0.99918100  1
  O  O1  1  0.75933500  0.24148500  0.99918100  1
  O  O2  1  0.49066300  0.00850600  0.50082400  1
  O  O3  1  0.00850700  0.49066600  0.50082300  1
  O  O4  1  0.24146600  0.24146600  0.99917500  1
  O  O5  1  0.75936300  0.75936300  0.99917400  1
  O  O6  1  0.49063900  0.49063900  0.50082900  1
  O  O7  1  0.00852700  0.00852700  0.50083100  1
  O  O8  1  0.86711200  0.86711500  0.26578700  1
  O  O9  1  0.38288200  0.38287900  0.23423200  1
  O  O10  1  0.62501500  0.62501400  0.74998000  1
loop_
_geom_bond_atom_site_label_1
_geom_bond_atom_site_label_2
_geom_bond_distance
_geom_bond_site_symmetry_2
La0 O2 2.779565 1_565
La0 O0 2.779581 1_554
La0 O1 2.779604 1_564
La0 O3 2.779617 1_555
La0 O4 2.779644 1_564
La0 O7 2.779654 1_565
La0 O6 2.779684 1_555
La0 O5 2.779691 1_554
La0 O9 2.814668 1_565
La0 O8 2.814685 1_455
La0 O9 2.814768 1_555
La0 O8 2.814779 1_555
La1 O3 2.779547 1_655
La1 O0 2.779605 1_654
La1 O1 2.779606 1_554
La1 O2 2.779632 1_555
La1 O6 2.779657 1_555
La1 O7 2.779660 1_655
La1 O4 2.779672 1_654
La1 O5 2.779684 1_554
La1 O8 2.814687 1_545
La1 O9 2.814700 1_655
La1 O9 2.814755 1_555
La1 O8 2.814759 1_555
Mn0 O5 1.918437 1_554
Mn0 O4 1.918465 1_664
Mn0 O1 1.918668 1_564
Mn0 O0 1.918695 1_654
Mn0 O8 1.995086 1_555
Mn1 O10 1.869244 1_555
Mn1 O9 1.878097 1_556
Mn1 O1 2.060296 1_555
Mn1 O0 2.060300 1_555
Mn1 O4 2.060393 1_555
Mn1 O5 2.060475 1_555
Mn2 O7 1.918479 1_555
Mn2 O6 1.918486 1_555
Mn2 O3 1.918709 1_555
Mn2 O2 1.918717 1_555
Mn2 O9 1.994924 1_555
Mn3 O10 1.868989 1_555
Mn3 O8 1.877896 1_555
Mn3 O3 2.060261 1_655
Mn3 O2 2.060269 1_565
Mn3 O7 2.060358 1_665
Mn3 O6 2.060445 1_555
O0 Sr1 2.770783 1_565
O0 Sr0 2.770800 1_555
O1 Sr0 2.770771 1_655
O1 Sr1 2.770772 1_555
O2 Sr0 2.770691 1_545
O2 Sr1 2.770698 1_555
O3 Sr0 2.770668 1_555
O3 Sr1 2.770689 1_455
O4 Sr0 2.770784 1_555
O4 Sr1 2.770803 1_555
O5 Sr1 2.770763 1_565
O5 Sr0 2.770792 1_655
O6 Sr0 2.770687 1_555
O6 Sr1 2.770716 1_555
O7 Sr1 2.770671 1_455
O7 Sr0 2.770688 1_545
O10 Sr1 2.812032 1_565
O10 Sr0 2.812038 1_655
O10 Sr1 2.812111 1_555
O10 Sr0 2.812122 1_555
