# generated using pymatgen
data_NaCd2In
_symmetry_space_group_name_H-M   'P 1'
_cell_length_a   5.08823353
_cell_length_b   5.08823353
_cell_length_c   5.08823353
_cell_angle_alpha   60.00000000
_cell_angle_beta   60.00000000
_cell_angle_gamma   60.00000000
_symmetry_Int_Tables_number   1
_chemical_formula_structural   NaCd2In
_chemical_formula_sum   'Na1 Cd2 In1'
_cell_volume   93.15069671
_cell_formula_units_Z   1
loop_
 _symmetry_equiv_pos_site_id
 _symmetry_equiv_pos_as_xyz
  1  'x, y, z'
loop_
 _atom_site_type_symbol
 _atom_site_label
 _atom_site_symmetry_multiplicity
 _atom_site_fract_x
 _atom_site_fract_y
 _atom_site_fract_z
 _atom_site_occupancy
  Na  Na0  1  -0.00000000  0.00000000  -0.00000000  1
  Cd  Cd0  1  0.75000000  0.75000000  0.75000000  1
  Cd  Cd1  1  0.25000000  0.25000000  0.25000000  1
  In  In0  1  0.50000000  0.50000000  0.50000000  1
loop_
_geom_bond_atom_site_label_1
_geom_bond_atom_site_label_2
_geom_bond_distance
_geom_bond_site_symmetry_2
Cd0 In0 3.115894 1_555
Cd0 Na0 3.115894 1_656
Cd0 In0 3.115894 1_556
Cd0 In0 3.115894 1_565
Cd0 Na0 3.115894 1_665
Cd0 Na0 3.115894 1_666
Cd0 Na0 3.115894 1_566
Cd0 In0 3.115894 1_655
Cd1 In0 3.115894 1_555
Cd1 Na0 3.115894 1_555
Cd1 Na0 3.115894 1_556
Cd1 Na0 3.115894 1_565
Cd1 In0 3.115894 1_545
Cd1 In0 3.115894 1_554
Cd1 In0 3.115894 1_455
Cd1 Na0 3.115894 1_655
