# generated using pymatgen
data_HfCuGe
_symmetry_space_group_name_H-M   'P 1'
_cell_length_a   3.75676089
_cell_length_b   3.75676089
_cell_length_c   7.22337301
_cell_angle_alpha   105.09975456
_cell_angle_beta   105.09974611
_cell_angle_gamma   90.00050863
_symmetry_Int_Tables_number   1
_chemical_formula_structural   HfCuGe
_chemical_formula_sum   'Hf2 Cu2 Ge2'
_cell_volume   94.77501746
_cell_formula_units_Z   2
loop_
 _symmetry_equiv_pos_site_id
 _symmetry_equiv_pos_as_xyz
  1  'x, y, z'
loop_
 _atom_site_type_symbol
 _atom_site_label
 _atom_site_symmetry_multiplicity
 _atom_site_fract_x
 _atom_site_fract_y
 _atom_site_fract_z
 _atom_site_occupancy
  Hf  Hf0  1  0.33028338  0.33028438  0.66051266  1
  Hf  Hf1  1  0.66971362  0.66971562  0.33948734  1
  Cu  Cu0  1  0.50000300  0.99999900  0.00000000  1
  Cu  Cu1  1  0.99999800  0.50000000  0.00000000  1
  Ge  Ge0  1  0.12698001  0.12698101  0.25395594  1
  Ge  Ge1  1  0.87301999  0.87301999  0.74604406  1
loop_
_geom_bond_atom_site_label_1
_geom_bond_atom_site_label_2
_geom_bond_distance
_geom_bond_site_symmetry_2
Cu0 Ge0 2.536435 1_665
Cu0 Ge1 2.536451 1_454
Cu0 Ge1 2.537674 1_554
Cu0 Ge0 2.537691 1_565
Cu0 Cu1 2.656409 1_565
Cu0 Cu1 2.656427 1_555
Cu0 Cu1 2.656430 1_455
Cu0 Cu1 2.656459 1_465
Cu0 Hf0 2.953133 1_554
Cu0 Hf1 2.953138 1_565
Cu0 Hf1 2.954704 1_555
Cu0 Hf0 2.954709 1_564
Cu1 Ge1 2.536443 1_544
Cu1 Ge0 2.536446 1_665
Cu1 Ge0 2.537680 1_655
Cu1 Ge1 2.537683 1_554
Cu1 Hf0 2.953134 1_554
Cu1 Hf1 2.953136 1_655
Cu1 Hf1 2.954706 1_555
Cu1 Hf0 2.954709 1_654
Ge0 Hf1 2.717248 1_555
Ge0 Hf1 2.717826 1_545
Ge0 Hf1 2.717831 1_455
Ge0 Hf1 2.718363 1_445
Ge0 Hf0 2.730159 1_555
Ge1 Hf0 2.717258 1_555
Ge1 Hf0 2.717826 1_655
Ge1 Hf0 2.717831 1_565
Ge1 Hf0 2.718352 1_665
Ge1 Hf1 2.730159 1_555
