# generated using pymatgen
data_YMn2Al(BO4)2
_symmetry_space_group_name_H-M   'P 1'
_cell_length_a   3.37380776
_cell_length_b   9.39237954
_cell_length_c   9.89152400
_cell_angle_alpha   90.00000000
_cell_angle_beta   90.00000000
_cell_angle_gamma   90.46378010
_symmetry_Int_Tables_number   1
_chemical_formula_structural   YMn2Al(BO4)2
_chemical_formula_sum   'Y2 Mn4 Al2 B4 O16'
_cell_volume   313.43316440
_cell_formula_units_Z   2
loop_
 _symmetry_equiv_pos_site_id
 _symmetry_equiv_pos_as_xyz
  1  'x, y, z'
loop_
 _atom_site_type_symbol
 _atom_site_label
 _atom_site_symmetry_multiplicity
 _atom_site_fract_x
 _atom_site_fract_y
 _atom_site_fract_z
 _atom_site_occupancy
  Y  Y0  1  0.26953100  0.08806200  0.39141800  1
  Y  Y1  1  0.76953100  0.58806200  0.10858200  1
  Mn  Mn0  1  0.27555400  0.68659000  0.41971100  1
  Mn  Mn1  1  0.77555400  0.18659000  0.08028900  1
  Mn  Mn2  1  0.74600800  0.32424700  0.60307200  1
  Mn  Mn3  1  0.24600800  0.82424700  0.89692800  1
  Al  Al0  1  0.80741800  0.92477200  0.61841800  1
  Al  Al1  1  0.30741800  0.42477200  0.88158200  1
  B  B0  1  0.27460700  0.37331300  0.31399200  1
  B  B1  1  0.77460700  0.87331300  0.18600800  1
  B  B2  1  0.68636200  0.62786400  0.66853200  1
  B  B3  1  0.18636200  0.12786400  0.83146800  1
  O  O0  1  0.27106600  0.51124800  0.26560700  1
  O  O1  1  0.77106600  0.01124800  0.23439300  1
  O  O2  1  0.56403800  0.50329400  0.73215600  1
  O  O3  1  0.06403800  0.00329400  0.76784400  1
  O  O4  1  0.29008000  0.88457600  0.52936900  1
  O  O5  1  0.79008000  0.38457600  0.97063100  1
  O  O6  1  0.76861000  0.10318900  0.53330600  1
  O  O7  1  0.26861000  0.60318900  0.96669400  1
  O  O8  1  0.30296100  0.26093300  0.22332600  1
  O  O9  1  0.80296100  0.76093300  0.27667400  1
  O  O10  1  0.71606300  0.76128300  0.73341000  1
  O  O11  1  0.21606300  0.26128300  0.76659000  1
  O  O12  1  0.24888800  0.33583700  0.45015700  1
  O  O13  1  0.74888800  0.83583700  0.04984300  1
  O  O14  1  0.77881600  0.61479400  0.53408900  1
  O  O15  1  0.27881600  0.11479400  0.96591100  1
loop_
_geom_bond_atom_site_label_1
_geom_bond_atom_site_label_2
_geom_bond_distance
_geom_bond_site_symmetry_2
Mn0 O14 2.127222 1_455
Mn0 O4 2.153005 1_555
Mn0 O14 2.153175 1_555
Mn0 O0 2.244014 1_555
Mn0 O9 2.247138 1_455
Mn0 O9 2.373904 1_555
Mn1 O15 2.127222 1_554
Mn1 O5 2.153005 1_554
Mn1 O15 2.153175 1_654
Mn1 O1 2.244014 1_555
Mn1 O8 2.247138 1_555
Mn1 O8 2.373904 1_655
Mn2 O6 2.189855 1_555
Mn2 O2 2.202721 1_555
Mn2 O12 2.261771 1_555
Mn2 O12 2.274912 1_655
Mn2 O11 2.344362 1_655
Mn2 O11 2.478999 1_555
Mn3 O7 2.189855 1_555
Mn3 O3 2.202721 1_565
Mn3 O13 2.261771 1_456
Mn3 O13 2.274912 1_556
Mn3 O10 2.344362 1_555
Mn3 O10 2.478999 1_455
Al0 O3 1.862204 1_665
Al0 O6 1.880862 1_565
Al0 O4 1.892106 1_655
Al0 O10 1.933658 1_555
Al0 O4 1.988503 1_555
Al1 O2 1.862204 1_555
Al1 O7 1.880862 1_555
Al1 O5 1.892106 1_555
Al1 O11 1.933658 1_555
Al1 O5 1.988503 1_455
B0 O0 1.381257 1_555
B0 O8 1.388954 1_555
B0 O12 1.394638 1_555
B1 O1 1.381257 1_565
B1 O9 1.388954 1_555
B1 O13 1.394638 1_555
B2 O14 1.371669 1_555
B2 O2 1.388341 1_555
B2 O10 1.410729 1_555
B3 O15 1.371669 1_555
B3 O3 1.388341 1_555
B3 O11 1.410729 1_555
O0 Y1 2.396154 1_555
O0 Y1 2.411618 1_455
O1 Y0 2.396154 1_655
O1 Y0 2.411618 1_555
O4 Y0 2.349828 1_565
O5 Y1 2.349828 1_556
O6 Y0 2.195738 1_555
O6 Y0 2.202270 1_655
O7 Y1 2.195738 1_456
O7 Y1 2.202270 1_556
O8 Y0 2.326067 1_555
O9 Y1 2.326067 1_555
O12 Y0 2.400188 1_555
O13 Y1 2.400188 1_555
