# generated using pymatgen
data_MgGa
_symmetry_space_group_name_H-M   'P 1'
_cell_length_a   6.30373816
_cell_length_b   6.30373815
_cell_length_c   8.91649874
_cell_angle_alpha   90.00000000
_cell_angle_beta   90.00000000
_cell_angle_gamma   119.99914212
_symmetry_Int_Tables_number   1
_chemical_formula_structural   MgGa
_chemical_formula_sum   'Mg8 Ga8'
_cell_volume   306.84925187
_cell_formula_units_Z   8
loop_
 _symmetry_equiv_pos_site_id
 _symmetry_equiv_pos_as_xyz
  1  'x, y, z'
loop_
 _atom_site_type_symbol
 _atom_site_label
 _atom_site_symmetry_multiplicity
 _atom_site_fract_x
 _atom_site_fract_y
 _atom_site_fract_z
 _atom_site_occupancy
  Mg  Mg0_0  1  0.00000072  0.99999927  0.00000000  1
  Mg  Mg0_1  1  0.00000072  0.99999927  0.50000000  1
  Mg  Mg0_2  1  0.00000072  0.49999927  0.00000000  1
  Mg  Mg0_3  1  0.00000072  0.49999927  0.50000000  1
  Mg  Mg0_4  1  0.50000072  0.99999927  0.00000000  1
  Mg  Mg0_5  1  0.50000072  0.99999927  0.50000000  1
  Mg  Mg0_6  1  0.50000072  0.49999927  0.00000000  1
  Mg  Mg0_7  1  0.50000072  0.49999927  0.50000000  1
  Ga  Ga0_0  1  0.33333278  0.16666723  0.25000000  1
  Ga  Ga0_1  1  0.33333278  0.16666723  0.75000000  1
  Ga  Ga0_2  1  0.33333278  0.66666723  0.25000000  1
  Ga  Ga0_3  1  0.33333278  0.66666723  0.75000000  1
  Ga  Ga0_4  1  0.83333278  0.16666723  0.25000000  1
  Ga  Ga0_5  1  0.83333278  0.16666723  0.75000000  1
  Ga  Ga0_6  1  0.83333278  0.66666723  0.25000000  1
  Ga  Ga0_7  1  0.83333278  0.66666723  0.75000000  1
loop_
_geom_bond_atom_site_label_1
_geom_bond_atom_site_label_2
_geom_bond_distance
_geom_bond_site_symmetry_2
Mg0_0 Mg0_2 3.151869 1_565
Mg0_0 Mg0_2 3.151869 1_555
Mg0_0 Mg0_4 3.151869 1_555
Mg0_0 Mg0_4 3.151869 1_455
Mg0_0 Mg0_6 3.151910 1_455
Mg0_0 Mg0_6 3.151910 1_565
Mg0_1 Mg0_3 3.151869 1_555
Mg0_1 Mg0_3 3.151869 1_565
Mg0_1 Mg0_5 3.151869 1_555
Mg0_1 Mg0_5 3.151869 1_455
Mg0_1 Mg0_7 3.151910 1_455
Mg0_1 Mg0_7 3.151910 1_565
Mg0_2 Mg0_6 3.151869 1_455
Mg0_2 Mg0_6 3.151869 1_555
Mg0_2 Mg0_4 3.151910 1_555
Mg0_2 Mg0_4 3.151910 1_445
Mg0_3 Mg0_7 3.151869 1_455
Mg0_3 Mg0_7 3.151869 1_555
Mg0_3 Mg0_5 3.151910 1_555
Mg0_3 Mg0_5 3.151910 1_445
Mg0_4 Mg0_6 3.151869 1_565
Mg0_4 Mg0_6 3.151869 1_555
Mg0_5 Mg0_7 3.151869 1_565
Mg0_5 Mg0_7 3.151869 1_555
Ga0_0 Mg0_5 2.877576 1_545
Ga0_0 Mg0_4 2.877576 1_545
Ga0_0 Mg0_6 2.877578 1_555
Ga0_0 Mg0_7 2.877578 1_555
Ga0_0 Mg0_1 2.877578 1_545
Ga0_0 Mg0_0 2.877578 1_545
Ga0_1 Mg0_4 2.877576 1_546
Ga0_1 Mg0_5 2.877576 1_545
Ga0_1 Mg0_7 2.877578 1_555
Ga0_1 Mg0_6 2.877578 1_556
Ga0_1 Mg0_1 2.877578 1_545
Ga0_1 Mg0_0 2.877578 1_546
Ga0_2 Mg0_6 2.877576 1_555
Ga0_2 Mg0_7 2.877576 1_555
Ga0_2 Mg0_5 2.877578 1_555
Ga0_2 Mg0_4 2.877578 1_555
Ga0_2 Mg0_3 2.877578 1_555
Ga0_2 Mg0_2 2.877578 1_555
Ga0_3 Mg0_7 2.877576 1_555
Ga0_3 Mg0_6 2.877576 1_556
Ga0_3 Mg0_4 2.877578 1_556
Ga0_3 Mg0_5 2.877578 1_555
Ga0_3 Mg0_2 2.877578 1_556
Ga0_3 Mg0_3 2.877578 1_555
Ga0_4 Mg0_0 2.877576 1_645
Ga0_4 Mg0_1 2.877576 1_645
Ga0_4 Mg0_2 2.877578 1_655
Ga0_4 Mg0_3 2.877578 1_655
Ga0_4 Mg0_4 2.877578 1_545
Ga0_4 Mg0_5 2.877578 1_545
Ga0_5 Mg0_0 2.877576 1_646
Ga0_5 Mg0_1 2.877576 1_645
Ga0_5 Mg0_2 2.877578 1_656
Ga0_5 Mg0_3 2.877578 1_655
Ga0_5 Mg0_4 2.877578 1_546
Ga0_5 Mg0_5 2.877578 1_545
Ga0_6 Mg0_2 2.877576 1_655
Ga0_6 Mg0_3 2.877576 1_655
Ga0_6 Mg0_0 2.877578 1_655
Ga0_6 Mg0_1 2.877578 1_655
Ga0_6 Mg0_6 2.877578 1_555
Ga0_6 Mg0_7 2.877578 1_555
Ga0_7 Mg0_2 2.877576 1_656
Ga0_7 Mg0_3 2.877576 1_655
Ga0_7 Mg0_0 2.877578 1_656
Ga0_7 Mg0_1 2.877578 1_655
Ga0_7 Mg0_6 2.877578 1_556
Ga0_7 Mg0_7 2.877578 1_555
