# generated using pymatgen
data_Pr2CuO4
_symmetry_space_group_name_H-M   'P 1'
_cell_length_a   6.99267570
_cell_length_b   6.99267570
_cell_length_c   5.58346500
_cell_angle_alpha   90.00000000
_cell_angle_beta   90.00000000
_cell_angle_gamma   135.62946955
_symmetry_Int_Tables_number   1
_chemical_formula_structural   Pr2CuO4
_chemical_formula_sum   'Pr4 Cu2 O8'
_cell_volume   190.92002009
_cell_formula_units_Z   2
loop_
 _symmetry_equiv_pos_site_id
 _symmetry_equiv_pos_as_xyz
  1  'x, y, z'
loop_
 _atom_site_type_symbol
 _atom_site_label
 _atom_site_symmetry_multiplicity
 _atom_site_fract_x
 _atom_site_fract_y
 _atom_site_fract_z
 _atom_site_occupancy
  Pr  Pr0  1  0.63867000  0.36133000  0.98339600  1
  Pr  Pr1  1  0.36133000  0.63867000  0.01660400  1
  Pr  Pr2  1  0.86133000  0.13867000  0.48339600  1
  Pr  Pr3  1  0.13867000  0.86133000  0.51660400  1
  Cu  Cu0  1  0.00000000  0.00000000  0.00000000  1
  Cu  Cu1  1  0.50000000  0.50000000  0.50000000  1
  O  O0  1  0.81403500  0.18596500  0.06853200  1
  O  O1  1  0.18596500  0.81403500  0.93146800  1
  O  O2  1  0.68596500  0.31403500  0.56853200  1
  O  O3  1  0.31403500  0.68596500  0.43146800  1
  O  O4  1  0.23489200  0.26510800  0.75000000  1
  O  O5  1  0.26510800  0.23489200  0.25000000  1
  O  O6  1  0.73489200  0.76510800  0.75000000  1
  O  O7  1  0.76510800  0.73489200  0.25000000  1
loop_
_geom_bond_atom_site_label_1
_geom_bond_atom_site_label_2
_geom_bond_distance
_geom_bond_site_symmetry_2
Cu0 O4 1.931248 1_554
Cu0 O6 1.931248 1_444
Cu0 O7 1.931248 1_445
Cu0 O5 1.931248 1_555
Cu0 O1 2.438454 1_544
Cu0 O0 2.438454 1_455
Cu1 O6 1.931248 1_555
Cu1 O7 1.931248 1_555
Cu1 O4 1.931248 1_555
Cu1 O5 1.931248 1_555
Cu1 O2 2.438454 1_555
Cu1 O3 2.438454 1_555
O0 Pr0 2.320191 1_554
O0 Pr2 2.395982 1_555
O0 Pr1 2.726018 1_655
O0 Pr1 2.726018 1_545
O1 Pr1 2.320191 1_556
O1 Pr3 2.395982 1_555
O1 Pr0 2.726018 1_455
O1 Pr0 2.726018 1_565
O2 Pr2 2.320191 1_555
O2 Pr0 2.395982 1_555
O2 Pr3 2.726018 1_655
O2 Pr3 2.726018 1_545
O3 Pr3 2.320191 1_555
O3 Pr1 2.395982 1_555
O3 Pr2 2.726018 1_455
O3 Pr2 2.726018 1_565
O4 Pr1 2.553283 1_556
O4 Pr2 2.553283 1_455
O4 Pr3 2.721577 1_545
O4 Pr0 2.721577 1_555
O5 Pr0 2.553283 1_554
O5 Pr3 2.553283 1_545
O5 Pr1 2.721577 1_555
O5 Pr2 2.721577 1_455
O6 Pr1 2.553283 1_556
O6 Pr2 2.553283 1_565
O6 Pr3 2.721577 1_655
O6 Pr0 2.721577 1_555
O7 Pr0 2.553283 1_554
O7 Pr3 2.553283 1_655
O7 Pr2 2.721577 1_565
O7 Pr1 2.721577 1_555
