# generated using pymatgen
data_MoSeS
_symmetry_space_group_name_H-M   'P 1'
_cell_length_a   3.25019824
_cell_length_b   3.25019826
_cell_length_c   35.59536014
_cell_angle_alpha   89.99979669
_cell_angle_beta   90.00021343
_cell_angle_gamma   119.99999831
_symmetry_Int_Tables_number   1
_chemical_formula_structural   MoSeS
_chemical_formula_sum   'Mo4 Se4 S4'
_cell_volume   325.64448974
_cell_formula_units_Z   4
loop_
 _symmetry_equiv_pos_site_id
 _symmetry_equiv_pos_as_xyz
  1  'x, y, z'
loop_
 _atom_site_type_symbol
 _atom_site_label
 _atom_site_symmetry_multiplicity
 _atom_site_fract_x
 _atom_site_fract_y
 _atom_site_fract_z
 _atom_site_occupancy
  Mo  Mo0  1  0.00000111  -0.00000204  0.09426139  1
  Mo  Mo1  1  -0.00000013  -0.00000091  0.46970388  1
  Mo  Mo2  1  0.33333410  0.66666771  0.28219037  1
  Mo  Mo3  1  0.33332988  0.66666982  0.65677631  1
  Se  Se0  1  0.00000151  0.00000116  0.32934151  1
  Se  Se1  1  -0.00000422  0.00000450  0.70389674  1
  Se  Se2  1  0.00000053  0.00000168  0.23500369  1
  Se  Se3  1  -0.00000494  0.00000392  0.60961924  1
  S  S0  1  0.33333926  0.66665989  0.05125044  1
  S  S1  1  0.33333316  0.66666584  0.42666894  1
  S  S2  1  0.33333442  0.66666467  0.13729610  1
  S  S3  1  0.33333333  0.66666576  0.51274141  1
loop_
_geom_bond_atom_site_label_1
_geom_bond_atom_site_label_2
_geom_bond_distance
_geom_bond_site_symmetry_2
Mo0 S0 2.421803 1_445
Mo0 S0 2.421804 1_555
Mo0 S0 2.421842 1_545
Mo0 S2 2.422346 1_545
Mo0 S2 2.422353 1_555
Mo0 S2 2.422354 1_445
Mo1 S1 2.422354 1_445
Mo1 S1 2.422354 1_555
Mo1 S1 2.422361 1_545
Mo1 S3 2.422410 1_545
Mo1 S3 2.422417 1_555
Mo1 S3 2.422417 1_445
Mo2 Se0 2.517568 1_555
Mo2 Se0 2.517569 1_665
Mo2 Se0 2.517574 1_565
Mo2 Se2 2.518411 1_565
Mo2 Se2 2.518415 1_555
Mo2 Se2 2.518416 1_665
Mo3 Se1 2.516837 1_555
Mo3 Se1 2.516837 1_665
Mo3 Se1 2.516852 1_565
Mo3 Se3 2.517711 1_565
Mo3 Se3 2.517711 1_665
Mo3 Se3 2.517712 1_555
