# generated using pymatgen
data_Sn5(S2Cl)2
_symmetry_space_group_name_H-M   'P 1'
_cell_length_a   5.88605000
_cell_length_b   5.97881000
_cell_length_c   18.03610400
_cell_angle_alpha   90.00000000
_cell_angle_beta   90.00000000
_cell_angle_gamma   90.00000000
_symmetry_Int_Tables_number   1
_chemical_formula_structural   Sn5(S2Cl)2
_chemical_formula_sum   'Sn10 S8 Cl4'
_cell_volume   634.71889942
_cell_formula_units_Z   2
loop_
 _symmetry_equiv_pos_site_id
 _symmetry_equiv_pos_as_xyz
  1  'x, y, z'
loop_
 _atom_site_type_symbol
 _atom_site_label
 _atom_site_symmetry_multiplicity
 _atom_site_fract_x
 _atom_site_fract_y
 _atom_site_fract_z
 _atom_site_occupancy
  Sn  Sn0  1  0.25722900  0.33258900  0.57471000  1
  Sn  Sn1  1  0.74277100  0.33258900  0.42529000  1
  Sn  Sn2  1  0.74277100  0.33258900  0.07471000  1
  Sn  Sn3  1  0.25722900  0.33258900  0.92529000  1
  Sn  Sn4  1  0.24880900  0.86838200  0.42439200  1
  Sn  Sn5  1  0.75119100  0.86838200  0.57560800  1
  Sn  Sn6  1  0.75119100  0.86838200  0.92439200  1
  Sn  Sn7  1  0.24880900  0.86838200  0.07560800  1
  Sn  Sn8  1  0.74365700  0.36376100  0.75000000  1
  Sn  Sn9  1  0.25634300  0.36376100  0.25000000  1
  S  S0  1  0.24988700  0.88727400  0.57093100  1
  S  S1  1  0.75011300  0.88727400  0.42906900  1
  S  S2  1  0.75011300  0.88727400  0.07093100  1
  S  S3  1  0.24988700  0.88727400  0.92906900  1
  S  S4  1  0.26031100  0.34314100  0.41968500  1
  S  S5  1  0.73968900  0.34314100  0.58031500  1
  S  S6  1  0.73968900  0.34314100  0.91968500  1
  S  S7  1  0.26031100  0.34314100  0.08031500  1
  Cl  Cl0  1  0.76323700  0.94070700  0.75000000  1
  Cl  Cl1  1  0.23676300  0.94070700  0.25000000  1
  Cl  Cl2  1  0.29837000  0.35934900  0.75000000  1
  Cl  Cl3  1  0.70163000  0.35934900  0.25000000  1
loop_
_geom_bond_atom_site_label_1
_geom_bond_atom_site_label_2
_geom_bond_distance
_geom_bond_site_symmetry_2
S0 Sn4 2.645413 1_555
S0 Sn0 2.663677 1_565
S0 Sn5 2.938733 1_455
S0 Sn5 2.954066 1_555
S1 Sn5 2.645413 1_555
S1 Sn1 2.663677 1_565
S1 Sn4 2.938733 1_655
S1 Sn4 2.954066 1_555
S2 Sn6 2.645413 1_554
S2 Sn2 2.663677 1_565
S2 Sn7 2.938733 1_655
S2 Sn7 2.954066 1_555
S3 Sn7 2.645413 1_556
S3 Sn3 2.663677 1_565
S3 Sn6 2.938733 1_455
S3 Sn6 2.954066 1_555
S4 Sn0 2.796818 1_555
S4 Sn4 2.840570 1_545
S4 Sn1 2.842283 1_555
S4 Sn1 3.048596 1_455
S4 Sn9 3.063027 1_555
S4 Sn4 3.142193 1_555
S5 Sn1 2.796818 1_555
S5 Sn5 2.840570 1_545
S5 Sn0 2.842283 1_555
S5 Sn0 3.048596 1_655
S5 Sn8 3.063027 1_555
S5 Sn5 3.142193 1_555
S6 Sn2 2.796818 1_556
S6 Sn6 2.840570 1_545
S6 Sn3 2.842283 1_555
S6 Sn3 3.048596 1_655
S6 Sn8 3.063027 1_555
S6 Sn6 3.142193 1_555
S7 Sn3 2.796818 1_554
S7 Sn7 2.840570 1_545
S7 Sn2 2.842283 1_555
S7 Sn2 3.048596 1_455
S7 Sn9 3.063027 1_555
S7 Sn7 3.142193 1_555
Cl0 Sn8 2.531984 1_565
Cl0 Sn6 3.175729 1_555
Cl0 Sn5 3.175729 1_555
Cl1 Sn9 2.531984 1_565
Cl1 Sn7 3.175729 1_555
Cl1 Sn4 3.175729 1_555
Cl2 Sn8 2.621114 1_555
Cl2 Sn0 3.174843 1_555
Cl2 Sn3 3.174843 1_555
Cl3 Sn9 2.621114 1_555
Cl3 Sn2 3.174843 1_555
Cl3 Sn1 3.174843 1_555
