# generated using pymatgen
data_Sr2Ti2Bi2OF2
_symmetry_space_group_name_H-M   'P 1'
_cell_length_a   11.41281167
_cell_length_b   11.41281167
_cell_length_c   11.41281167
_cell_angle_alpha   159.17773535
_cell_angle_beta   159.17773535
_cell_angle_gamma   29.61388198
_symmetry_Int_Tables_number   1
_chemical_formula_structural   Sr2Ti2Bi2OF2
_chemical_formula_sum   'Sr2 Ti2 Bi2 O1 F2'
_cell_volume   187.73132267
_cell_formula_units_Z   1
loop_
 _symmetry_equiv_pos_site_id
 _symmetry_equiv_pos_as_xyz
  1  'x, y, z'
loop_
 _atom_site_type_symbol
 _atom_site_label
 _atom_site_symmetry_multiplicity
 _atom_site_fract_x
 _atom_site_fract_y
 _atom_site_fract_z
 _atom_site_occupancy
  Sr  Sr0  1  0.31443700  0.31443700  0.00000000  1
  Sr  Sr1  1  0.68556300  0.68556300  0.00000000  1
  Ti  Ti0  1  0.50000000  0.00000000  0.50000000  1
  Ti  Ti1  1  0.00000000  0.50000000  0.50000000  1
  Bi  Bi0  1  0.90270600  0.90270600  0.00000000  1
  Bi  Bi1  1  0.09729400  0.09729400  0.00000000  1
  O  O0  1  0.50000000  0.50000000  0.00000000  1
  F  F0  1  0.25000000  0.75000000  0.50000000  1
  F  F1  1  0.75000000  0.25000000  0.50000000  1
loop_
_geom_bond_atom_site_label_1
_geom_bond_atom_site_label_2
_geom_bond_distance
_geom_bond_site_symmetry_2
Bi0 Ti0 2.977140 1_665
Bi0 Ti1 2.977140 1_665
Bi0 Ti1 2.977140 1_654
Bi0 Ti0 2.977140 1_564
Bi0 Sr0 3.507329 1_554
Bi0 Sr0 3.507329 1_565
Bi0 Sr0 3.507329 1_655
Bi0 Sr0 3.507329 1_666
Bi1 Ti1 2.977140 1_544
Bi1 Ti1 2.977140 1_555
Bi1 Ti0 2.977140 1_555
Bi1 Ti0 2.977140 1_454
Bi1 Sr1 3.507329 1_556
Bi1 Sr1 3.507329 1_444
Bi1 Sr1 3.507329 1_545
Bi1 Sr1 3.507329 1_455
O0 Ti1 2.062412 1_554
O0 Ti0 2.062412 1_565
O0 Ti1 2.062412 1_655
O0 Ti0 2.062412 1_554
F0 Sr0 2.505105 1_566
F0 Sr0 2.505105 1_555
F0 Sr1 2.505105 1_556
F0 Sr1 2.505105 1_455
F1 Sr0 2.505105 1_656
F1 Sr0 2.505105 1_555
F1 Sr1 2.505105 1_556
F1 Sr1 2.505105 1_545
