# generated using pymatgen
data_GeC2(NF)6
_symmetry_space_group_name_H-M   'P 1'
_cell_length_a   6.09508609
_cell_length_b   6.89509200
_cell_length_c   6.74489825
_cell_angle_alpha   120.73938632
_cell_angle_beta   110.59238497
_cell_angle_gamma   90.00000000
_symmetry_Int_Tables_number   1
_chemical_formula_structural   GeC2(NF)6
_chemical_formula_sum   'Ge1 C2 N6 F6'
_cell_volume   222.30333844
_cell_formula_units_Z   1
loop_
 _symmetry_equiv_pos_site_id
 _symmetry_equiv_pos_as_xyz
  1  'x, y, z'
loop_
 _atom_site_type_symbol
 _atom_site_label
 _atom_site_symmetry_multiplicity
 _atom_site_fract_x
 _atom_site_fract_y
 _atom_site_fract_z
 _atom_site_occupancy
  Ge  Ge0  1  0.71919200  0.37252200  0.74504300  1
  C  C0  1  0.45383500  0.64891000  0.29781900  1
  C  C1  1  0.99090000  0.09986400  0.19972900  1
  N  N0  1  0.44620100  0.42029300  0.18050800  1
  N  N1  1  0.44620100  0.76021600  0.18050800  1
  N  N2  1  0.99164900  0.98429800  0.96859600  1
  N  N3  1  0.99200000  0.32725300  0.31427800  1
  N  N4  1  0.99200000  0.98702500  0.31427800  1
  N  N5  1  0.46600900  0.76718300  0.53436600  1
  F  F0  1  0.90193300  0.54310700  0.08621400  1
  F  F1  1  0.53440100  0.20201200  0.40402500  1
  F  F2  1  0.52353000  0.58068900  0.78325000  1
  F  F3  1  0.52353000  0.20256100  0.78325000  1
  F  F4  1  0.91505900  0.54148500  0.70606800  1
  F  F5  1  0.91505900  0.16458300  0.70606800  1
loop_
_geom_bond_atom_site_label_1
_geom_bond_atom_site_label_2
_geom_bond_distance
_geom_bond_site_symmetry_2
C0 N5 1.342666 1_555
C0 N0 1.346153 1_555
C0 N1 1.346153 1_555
C1 N2 1.341810 1_544
C1 N4 1.346550 1_545
C1 N3 1.346556 1_555
F0 Ge0 1.830174 1_554
F1 Ge0 1.831560 1_555
F2 Ge0 1.840349 1_555
F3 Ge0 1.840354 1_555
F4 Ge0 1.839955 1_555
F5 Ge0 1.839960 1_555
