# generated using pymatgen
data_Fe3O4
_symmetry_space_group_name_H-M   'P 1'
_cell_length_a   6.08817200
_cell_length_b   6.08913800
_cell_length_c   17.29273300
_cell_angle_alpha   90.00000000
_cell_angle_beta   90.00000000
_cell_angle_gamma   90.00000000
_symmetry_Int_Tables_number   1
_chemical_formula_structural   Fe3O4
_chemical_formula_sum   'Fe24 O32'
_cell_volume   641.07134674
_cell_formula_units_Z   8
loop_
 _symmetry_equiv_pos_site_id
 _symmetry_equiv_pos_as_xyz
  1  'x, y, z'
loop_
 _atom_site_type_symbol
 _atom_site_label
 _atom_site_symmetry_multiplicity
 _atom_site_fract_x
 _atom_site_fract_y
 _atom_site_fract_z
 _atom_site_occupancy
  Fe  Fe0  1  0.50650400  0.00000000  0.80995900  1
  Fe  Fe1  1  0.24563200  0.50000000  0.37622900  1
  Fe  Fe2  1  0.75445900  0.00000000  0.62463500  1
  Fe  Fe3  1  0.49349600  0.00000000  0.30995900  1
  Fe  Fe4  1  0.99801500  0.50000000  0.06319600  1
  Fe  Fe5  1  0.50731100  0.50000000  0.68513700  1
  Fe  Fe6  1  0.00198500  0.50000000  0.56319600  1
  Fe  Fe7  1  0.50025000  0.25105400  0.49870300  1
  Fe  Fe8  1  0.49268900  0.50000000  0.18513700  1
  Fe  Fe9  1  0.99910900  0.00000000  0.43829400  1
  Fe  Fe10  1  0.00839200  0.74656100  0.75056300  1
  Fe  Fe11  1  0.50025000  0.74894600  0.49870300  1
  Fe  Fe12  1  0.74180400  0.50000000  0.37804000  1
  Fe  Fe13  1  0.74150400  0.00000000  0.12263700  1
  Fe  Fe14  1  0.25819600  0.50000000  0.87804000  1
  Fe  Fe15  1  0.25849600  0.00000000  0.62263700  1
  Fe  Fe16  1  0.75436800  0.50000000  0.87622900  1
  Fe  Fe17  1  0.00089100  0.00000000  0.93829400  1
  Fe  Fe18  1  0.49975000  0.25105400  0.99870300  1
  Fe  Fe19  1  0.49975000  0.74894600  0.99870300  1
  Fe  Fe20  1  0.99160800  0.25343900  0.25056300  1
  Fe  Fe21  1  0.99160800  0.74656100  0.25056300  1
  Fe  Fe22  1  0.24554100  0.00000000  0.12463500  1
  Fe  Fe23  1  0.00839200  0.25343900  0.75056300  1
  O  O0  1  0.99585900  0.26299200  0.37142100  1
  O  O1  1  0.00577900  0.77427300  0.63448400  1
  O  O2  1  0.49454200  0.73423900  0.37089400  1
  O  O3  1  0.99422100  0.77427300  0.13448400  1
  O  O4  1  0.76149600  0.00000000  0.24838100  1
  O  O5  1  0.77132300  0.50000000  0.25781700  1
  O  O6  1  0.50633900  0.78023300  0.62491900  1
  O  O7  1  0.22867700  0.50000000  0.75781700  1
  O  O8  1  0.49366100  0.21976700  0.12491900  1
  O  O9  1  0.75230600  0.00000000  0.00502900  1
  O  O10  1  0.50633900  0.21976700  0.62491900  1
  O  O11  1  0.25188200  0.00000000  0.00473900  1
  O  O12  1  0.21511500  0.50000000  0.25784900  1
  O  O13  1  0.99585900  0.73700800  0.37142100  1
  O  O14  1  0.24769400  0.00000000  0.50502900  1
  O  O15  1  0.78488500  0.50000000  0.75784900  1
  O  O16  1  0.77488800  0.00000000  0.74833300  1
  O  O17  1  0.22511200  0.00000000  0.24833300  1
  O  O18  1  0.25458100  0.50000000  0.99004100  1
  O  O19  1  0.49454200  0.26576100  0.37089400  1
  O  O20  1  0.74811800  0.00000000  0.50473900  1
  O  O21  1  0.00414100  0.26299200  0.87142100  1
  O  O22  1  0.74541900  0.50000000  0.49004100  1
  O  O23  1  0.49366100  0.78023300  0.12491900  1
  O  O24  1  0.26342000  0.50000000  0.48951900  1
  O  O25  1  0.99422100  0.22572700  0.13448400  1
  O  O26  1  0.00577900  0.22572700  0.63448400  1
  O  O27  1  0.50545800  0.26576100  0.87089400  1
  O  O28  1  0.50545800  0.73423900  0.87089400  1
  O  O29  1  0.73658000  0.50000000  0.98951900  1
  O  O30  1  0.00414100  0.73700800  0.87142100  1
  O  O31  1  0.23850400  0.00000000  0.74838100  1
loop_
_geom_bond_atom_site_label_1
_geom_bond_atom_site_label_2
_geom_bond_distance
_geom_bond_site_symmetry_2
Fe0 O27 1.931099 1_555
Fe0 O28 1.931099 1_545
Fe0 O31 1.948365 1_555
Fe0 O16 1.950777 1_555
Fe1 O24 1.962085 1_555
Fe1 O12 2.055528 1_555
Fe1 O2 2.083108 1_555
Fe1 O19 2.083108 1_555
Fe1 O13 2.098112 1_455
Fe1 O0 2.098112 1_455
Fe2 O10 2.018089 1_555
Fe2 O6 2.018089 1_545
Fe2 O26 2.063820 1_655
Fe2 O1 2.063820 1_645
Fe2 O20 2.073689 1_555
Fe2 O16 2.142689 1_555
Fe3 O19 1.931099 1_555
Fe3 O2 1.931099 1_545
Fe3 O4 1.948365 1_555
Fe3 O17 1.950777 1_555
Fe4 O18 2.010038 1_654
Fe4 O29 2.038788 1_554
Fe4 O3 2.075916 1_555
Fe4 O25 2.075916 1_555
Fe5 O6 1.999034 1_555
Fe5 O10 1.999034 1_555
Fe5 O15 2.106383 1_555
Fe5 O7 2.111235 1_555
Fe6 O22 2.010038 1_455
Fe6 O24 2.038788 1_555
Fe6 O1 2.075916 1_555
Fe6 O26 2.075916 1_555
Fe7 O24 2.098104 1_555
Fe7 O22 2.132659 1_555
Fe7 O20 2.150604 1_555
Fe7 O14 2.170973 1_555
Fe7 O10 2.191232 1_555
Fe7 O19 2.212253 1_555
Fe8 O23 1.999034 1_555
Fe8 O8 1.999034 1_555
Fe8 O12 2.106383 1_555
Fe8 O5 2.111235 1_555
Fe9 O14 1.903221 1_655
Fe9 O20 1.911872 1_555
Fe9 O0 1.975388 1_555
Fe9 O13 1.975388 1_545
Fe10 O1 2.014466 1_555
Fe10 O7 2.017029 1_555
Fe10 O15 2.030159 1_455
Fe10 O31 2.084625 1_565
Fe10 O30 2.090935 1_555
Fe10 O16 2.098574 1_465
Fe11 O24 2.098104 1_555
Fe11 O22 2.132659 1_555
Fe11 O20 2.150604 1_565
Fe11 O14 2.170973 1_565
Fe11 O6 2.191232 1_555
Fe11 O2 2.212253 1_555
Fe12 O22 1.936928 1_555
Fe12 O2 2.077448 1_555
Fe12 O19 2.077448 1_555
Fe12 O5 2.086738 1_555
Fe12 O13 2.118544 1_555
Fe12 O0 2.118544 1_555
Fe13 O23 2.017207 1_545
Fe13 O8 2.017207 1_555
Fe13 O9 2.034827 1_555
Fe13 O25 2.073262 1_555
Fe13 O3 2.073262 1_545
Fe13 O4 2.177861 1_555
Fe14 O18 1.936928 1_555
Fe14 O28 2.077448 1_555
Fe14 O27 2.077448 1_555
Fe14 O7 2.086738 1_555
Fe14 O21 2.118544 1_555
Fe14 O30 2.118544 1_555
Fe15 O10 2.017207 1_555
Fe15 O6 2.017207 1_545
Fe15 O14 2.034827 1_555
Fe15 O26 2.073262 1_555
Fe15 O1 2.073262 1_545
Fe15 O31 2.177861 1_555
Fe16 O29 1.962085 1_555
Fe16 O15 2.055528 1_555
Fe16 O28 2.083108 1_555
Fe16 O27 2.083108 1_555
Fe16 O30 2.098112 1_655
Fe16 O21 2.098112 1_655
Fe17 O9 1.903221 1_456
Fe17 O11 1.911872 1_556
Fe17 O30 1.975388 1_545
Fe17 O21 1.975388 1_555
Fe18 O29 2.098104 1_555
Fe18 O18 2.132659 1_555
Fe18 O11 2.150604 1_556
Fe18 O9 2.170973 1_556
Fe18 O8 2.191232 1_556
Fe18 O27 2.212253 1_555
Fe19 O29 2.098104 1_555
Fe19 O18 2.132659 1_555
Fe19 O11 2.150604 1_566
Fe19 O9 2.170973 1_566
Fe19 O23 2.191232 1_556
Fe19 O28 2.212253 1_555
Fe20 O25 2.014466 1_555
Fe20 O5 2.017029 1_555
Fe20 O12 2.030159 1_655
Fe20 O4 2.084625 1_555
Fe20 O0 2.090935 1_555
Fe20 O17 2.098574 1_655
Fe21 O3 2.014466 1_555
Fe21 O5 2.017029 1_555
Fe21 O12 2.030159 1_655
Fe21 O4 2.084625 1_565
Fe21 O13 2.090935 1_555
Fe21 O17 2.098574 1_665
Fe22 O23 2.018089 1_545
Fe22 O8 2.018089 1_555
Fe22 O25 2.063820 1_455
Fe22 O3 2.063820 1_445
Fe22 O11 2.073689 1_555
Fe22 O17 2.142689 1_555
Fe23 O26 2.014466 1_555
Fe23 O7 2.017029 1_555
Fe23 O15 2.030159 1_455
Fe23 O31 2.084625 1_555
Fe23 O21 2.090935 1_555
Fe23 O16 2.098574 1_455
