# generated using pymatgen
data_Li3MnV(PO4)3
_symmetry_space_group_name_H-M   'P 1'
_cell_length_a   9.00372380
_cell_length_b   8.46299780
_cell_length_c   14.79780427
_cell_angle_alpha   90.02370937
_cell_angle_beta   74.25929149
_cell_angle_gamma   62.21910581
_symmetry_Int_Tables_number   1
_chemical_formula_structural   Li3MnV(PO4)3
_chemical_formula_sum   'Li12 Mn4 V4 P12 O48'
_cell_volume   949.47759489
_cell_formula_units_Z   4
loop_
 _symmetry_equiv_pos_site_id
 _symmetry_equiv_pos_as_xyz
  1  'x, y, z'
loop_
 _atom_site_type_symbol
 _atom_site_label
 _atom_site_symmetry_multiplicity
 _atom_site_fract_x
 _atom_site_fract_y
 _atom_site_fract_z
 _atom_site_occupancy
  Li  Li0  1  0.15179800  0.24940500  0.33129600  1
  Li  Li1  1  0.14755600  0.80081000  0.13555700  1
  Li  Li2  1  0.14940800  0.29575500  0.63444100  1
  Li  Li3  1  0.14376900  0.73074600  0.46138000  1
  Li  Li4  1  0.14886900  0.23007800  0.96066900  1
  Li  Li5  1  0.14825600  0.75129200  0.83109800  1
  Li  Li6  1  0.85131200  0.25045000  0.16540300  1
  Li  Li7  1  0.85204800  0.77221500  0.03960700  1
  Li  Li8  1  0.85324700  0.27448400  0.54174000  1
  Li  Li9  1  0.85806000  0.69436900  0.36628200  1
  Li  Li10  1  0.85390100  0.19719500  0.86529300  1
  Li  Li11  1  0.85512500  0.74497100  0.66392400  1
  Mn  Mn0  1  0.04660000  0.97726100  0.32645200  1
  Mn  Mn1  1  0.55759100  0.22293300  0.07445900  1
  Mn  Mn2  1  0.95348900  0.52540500  0.17513000  1
  Mn  Mn3  1  0.95099200  0.02363700  0.67467500  1
  V  V0  1  0.04846600  0.47466900  0.82448700  1
  V  V1  1  0.44596800  0.27433900  0.42487300  1
  V  V2  1  0.55921100  0.71876800  0.57441000  1
  V  V3  1  0.44192600  0.78230100  0.92570900  1
  P  P0  1  0.25387500  0.08621700  0.12179100  1
  P  P1  1  0.25225400  0.02304100  0.48090400  1
  P  P2  1  0.24969500  0.52199900  0.27592800  1
  P  P3  1  0.25097200  0.01804800  0.77276600  1
  P  P4  1  0.25225900  0.57820800  0.62215800  1
  P  P5  1  0.25058700  0.52676200  0.97869200  1
  P  P6  1  0.74556100  0.47931300  0.01651500  1
  P  P7  1  0.75107800  0.41023300  0.37622000  1
  P  P8  1  0.74869400  0.98239400  0.22998800  1
  P  P9  1  0.74753000  0.48480800  0.73198200  1
  P  P10  1  0.74808500  0.97783200  0.51856200  1
  P  P11  1  0.75192300  0.91083900  0.87405400  1
  O  O0  1  0.09912700  0.25229400  0.09952100  1
  O  O1  1  0.20257700  0.06799100  0.22755900  1
  O  O2  1  0.09512800  0.63207000  0.07177700  1
  O  O3  1  0.09768100  0.12828000  0.57433400  1
  O  O4  1  0.09406400  0.48277600  0.28161400  1
  O  O5  1  0.42571600  0.09736700  0.09209800  1
  O  O6  1  0.28081400  0.17279300  0.42896700  1
  O  O7  1  0.19428500  0.72149800  0.25836800  1
  O  O8  1  0.19662800  0.21660000  0.75530300  1
  O  O9  1  0.27934800  0.49441800  0.37579100  1
  O  O10  1  0.41576200  0.39738800  0.19713200  1
  O  O11  1  0.09722300  0.74409800  0.60064600  1
  O  O12  1  0.28201500  0.91901900  0.05920800  1
  O  O13  1  0.28261700  0.41027500  0.55979500  1
  O  O14  1  0.57637800  0.12476200  0.30602000  1
  O  O15  1  0.19743400  0.56102900  0.72954800  1
  O  O16  1  0.20106000  0.92262300  0.41835600  1
  O  O17  1  0.19223100  0.43363400  0.91512300  1
  O  O18  1  0.72529800  0.00229200  0.13004700  1
  O  O19  1  0.57479500  0.60799000  0.99442500  1
  O  O20  1  0.57808100  0.10585300  0.49399800  1
  O  O21  1  0.09450800  0.98037300  0.77958300  1
  O  O22  1  0.72404800  0.32323900  0.06482400  1
  O  O23  1  0.58022800  0.39607300  0.40880500  1
  O  O24  1  0.42043600  0.59321300  0.59712100  1
  O  O25  1  0.27881600  0.67963800  0.92786300  1
  O  O26  1  0.90316100  0.02429400  0.22665100  1
  O  O27  1  0.42023900  0.88901900  0.50228300  1
  O  O28  1  0.41857400  0.38796300  0.99563400  1
  O  O29  1  0.27928600  0.99599300  0.87308600  1
  O  O30  1  0.79293600  0.57996800  0.07907300  1
  O  O31  1  0.79282700  0.08525000  0.57920500  1
  O  O32  1  0.79593600  0.42899400  0.27135500  1
  O  O33  1  0.41658600  0.88825000  0.69487000  1
  O  O34  1  0.72882500  0.56931200  0.44074800  1
  O  O35  1  0.73415200  0.06900200  0.93478900  1
  O  O36  1  0.90874800  0.23745100  0.39592600  1
  O  O37  1  0.57735700  0.62786700  0.80579800  1
  O  O38  1  0.72858100  0.50951100  0.63088500  1
  O  O39  1  0.79413000  0.79326200  0.25429100  1
  O  O40  1  0.79292600  0.29397600  0.75261100  1
  O  O41  1  0.72217400  0.82834000  0.56980500  1
  O  O42  1  0.57885000  0.89620000  0.90891000  1
  O  O43  1  0.90470000  0.52262300  0.73087200  1
  O  O44  1  0.90351500  0.87379900  0.42488800  1
  O  O45  1  0.90201200  0.38112100  0.92080200  1
  O  O46  1  0.79456800  0.92437300  0.76854700  1
  O  O47  1  0.90351800  0.73506600  0.89469500  1
loop_
_geom_bond_atom_site_label_1
_geom_bond_atom_site_label_2
_geom_bond_distance
_geom_bond_site_symmetry_2
Li0 O1 1.971188 1_555
Li0 O4 1.990710 1_555
Li0 O6 2.017005 1_555
Li0 O36 2.187398 1_455
Li1 O2 2.005470 1_555
Li1 O7 2.020610 1_555
Li1 O12 2.032410 1_555
Li1 O26 2.178356 1_465
Li2 O3 1.963656 1_555
Li2 O13 1.990883 1_555
Li2 O8 1.994060 1_555
Li2 O43 2.219354 1_455
Li3 O16 1.977833 1_555
Li3 O11 1.980528 1_555
Li3 O9 1.994382 1_555
Li3 O44 2.151674 1_455
Li4 O0 1.969681 1_556
Li4 O29 1.996705 1_545
Li4 O17 2.014821 1_555
Li4 O45 2.232871 1_455
Li5 O21 1.975022 1_555
Li5 O15 2.004822 1_555
Li5 O25 2.012324 1_555
Li5 O47 2.217474 1_455
Li6 O32 1.965085 1_555
Li6 O26 2.025020 1_555
Li6 O22 2.043454 1_555
Li6 O0 2.186650 1_655
Li7 O30 1.977565 1_555
Li7 O18 1.995639 1_565
Li7 O47 2.058255 1_554
Li7 O2 2.137614 1_655
Li8 O31 1.953789 1_555
Li8 O38 2.017319 1_555
Li8 O36 2.066918 1_555
Li8 O3 2.155267 1_655
Li9 O39 1.961580 1_555
Li9 O44 1.999076 1_555
Li9 O34 2.035092 1_555
Li9 O4 2.073227 1_655
Li10 O40 1.957366 1_555
Li10 O35 1.971495 1_555
Li10 O45 2.026276 1_555
Li10 O21 2.114362 1_645
Li11 O46 1.941062 1_555
Li11 O41 1.997144 1_555
Li11 O43 2.044529 1_555
Li11 O11 2.122700 1_655
Mn0 O7 2.014115 1_555
Mn0 O36 2.050433 1_465
Mn0 O16 2.103494 1_555
Mn0 O26 2.136246 1_465
Mn0 O44 2.140698 1_455
Mn0 O1 2.143472 1_565
Mn1 O5 1.901447 1_555
Mn1 O28 2.010420 1_554
Mn1 O22 2.014269 1_555
Mn1 O10 2.021960 1_555
Mn1 O18 2.119028 1_555
Mn1 O35 2.186445 1_554
Mn2 O39 2.150237 1_555
Mn2 O32 2.165541 1_555
Mn2 O0 2.165671 1_655
Mn2 O2 2.190048 1_655
Mn2 O30 2.194662 1_555
Mn2 O4 2.207256 1_655
Mn3 O46 2.159005 1_545
Mn3 O40 2.159149 1_555
Mn3 O31 2.166959 1_555
Mn3 O3 2.181914 1_655
Mn3 O11 2.200456 1_645
Mn3 O21 2.204898 1_645
O0 P0 1.565047 1_555
O1 P0 1.536605 1_555
O2 P5 1.562332 1_554
O3 P1 1.562418 1_555
O4 P2 1.565388 1_555
O5 P0 1.537238 1_555
O6 P1 1.568550 1_555
O6 V1 2.023805 1_555
O7 P2 1.566041 1_555
O8 P3 1.559577 1_555
O8 V0 2.034433 1_555
O9 P2 1.570280 1_555
O9 V1 2.057854 1_555
O10 P2 1.513457 1_555
O11 P4 1.560612 1_555
O12 P0 1.568905 1_565
O12 V3 2.053358 1_554
O13 P4 1.564009 1_555
O13 V1 2.073753 1_555
O14 P8 1.560092 1_545
O14 V1 1.888521 1_555
O15 P4 1.559371 1_555
O15 V0 2.049182 1_555
O16 P1 1.545106 1_565
O17 P5 1.560671 1_555
O17 V0 2.029354 1_555
O18 P8 1.547923 1_545
O19 P6 1.539134 1_556
O19 V3 1.912456 1_555
O20 P10 1.550871 1_545
O20 V1 1.890692 1_555
O21 P3 1.561433 1_565
O22 P6 1.567596 1_555
O23 P7 1.543578 1_555
O23 V1 1.893250 1_555
O24 P4 1.523532 1_555
O24 V2 1.952775 1_555
O25 P5 1.583619 1_555
O25 V3 2.019093 1_555
O26 P8 1.576363 1_545
O27 P1 1.528048 1_565
O27 V2 1.956046 1_555
O28 P5 1.510015 1_555
O29 P3 1.569976 1_565
O29 V3 2.042675 1_555
O30 P6 1.522119 1_555
O31 P10 1.526713 1_545
O32 P7 1.521927 1_555
O33 P3 1.516022 1_565
O33 V2 1.980589 1_555
O34 P7 1.551804 1_555
O34 V2 2.098235 1_555
O35 P11 1.531779 1_545
O36 P7 1.590103 1_555
O37 P9 1.538891 1_555
O37 V3 1.918892 1_555
O38 P9 1.554466 1_555
O38 V2 2.082152 1_555
O39 P8 1.525972 1_555
O40 P9 1.523572 1_555
O41 P10 1.552410 1_555
O41 V2 2.057081 1_555
O42 P11 1.566403 1_555
O42 V3 1.858089 1_555
O43 P9 1.585811 1_555
O43 V0 2.059849 1_655
O44 P10 1.566205 1_555
O45 P6 1.583098 1_556
O45 V0 2.085979 1_655
O46 P11 1.521186 1_555
O47 P11 1.582092 1_555
O47 V0 2.054386 1_655
