# generated using pymatgen
data_CaIrO3
_symmetry_space_group_name_H-M   'P 1'
_cell_length_a   6.54298336
_cell_length_b   6.54298336
_cell_length_c   5.59169900
_cell_angle_alpha   90.00000000
_cell_angle_beta   90.00000000
_cell_angle_gamma   147.46751947
_symmetry_Int_Tables_number   1
_chemical_formula_structural   CaIrO3
_chemical_formula_sum   'Ca2 Ir2 O6'
_cell_volume   128.73544916
_cell_formula_units_Z   2
loop_
 _symmetry_equiv_pos_site_id
 _symmetry_equiv_pos_as_xyz
  1  'x, y, z'
loop_
 _atom_site_type_symbol
 _atom_site_label
 _atom_site_symmetry_multiplicity
 _atom_site_fract_x
 _atom_site_fract_y
 _atom_site_fract_z
 _atom_site_occupancy
  Ca  Ca0  1  0.69836500  0.30163500  0.75000000  1
  Ca  Ca1  1  0.30163500  0.69836500  0.25000000  1
  Ir  Ir0  1  0.00000000  0.00000000  0.00000000  1
  Ir  Ir1  1  0.00000000  0.00000000  0.50000000  1
  O  O0  1  0.50460200  0.49539800  0.75000000  1
  O  O1  1  0.49539800  0.50460200  0.25000000  1
  O  O2  1  0.84863500  0.15136500  0.00172100  1
  O  O3  1  0.15136500  0.84863500  0.99827900  1
  O  O4  1  0.84863500  0.15136500  0.49827900  1
  O  O5  1  0.15136500  0.84863500  0.50172100  1
loop_
_geom_bond_atom_site_label_1
_geom_bond_atom_site_label_2
_geom_bond_distance
_geom_bond_site_symmetry_2
Ca0 O4 2.354709 1_555
Ca0 O2 2.354709 1_556
Ca0 O5 2.373764 1_545
Ca0 O3 2.373764 1_655
Ca0 O3 2.373764 1_545
Ca0 O5 2.373764 1_655
Ca0 O0 2.434078 1_555
Ca1 O5 2.354709 1_555
Ca1 O3 2.354709 1_554
Ca1 O4 2.373764 1_455
Ca1 O2 2.373764 1_565
Ca1 O2 2.373764 1_455
Ca1 O4 2.373764 1_565
Ca1 O1 2.434078 1_555
Ir0 O3 1.901493 1_544
Ir0 O2 1.901493 1_455
Ir0 O1 2.305713 1_445
Ir0 O0 2.305713 1_554
Ir0 O0 2.305713 1_444
Ir0 O1 2.305713 1_555
Ir1 O5 1.901493 1_545
Ir1 O4 1.901493 1_455
Ir1 O1 2.305713 1_445
Ir1 O0 2.305713 1_555
Ir1 O0 2.305713 1_445
Ir1 O1 2.305713 1_555
