# generated using pymatgen
data_BaSrPrWO6
_symmetry_space_group_name_H-M   'P 1'
_cell_length_a   8.60662029
_cell_length_b   8.58877847
_cell_length_c   8.61680836
_cell_angle_alpha   90.00000000
_cell_angle_beta   90.00000000
_cell_angle_gamma   90.00000000
_symmetry_Int_Tables_number   1
_chemical_formula_structural   BaSrPrWO6
_chemical_formula_sum   'Ba4 Sr4 Pr4 W4 O24'
_cell_volume   636.95753334
_cell_formula_units_Z   4
loop_
 _symmetry_equiv_pos_site_id
 _symmetry_equiv_pos_as_xyz
  1  'x, y, z'
loop_
 _atom_site_type_symbol
 _atom_site_label
 _atom_site_symmetry_multiplicity
 _atom_site_fract_x
 _atom_site_fract_y
 _atom_site_fract_z
 _atom_site_occupancy
  Ba  Ba0  1  0.00000000  -0.00000000  -0.00000000  1
  Ba  Ba1  1  0.50000000  0.50000000  0.50000000  1
  Ba  Ba2  1  0.00000000  0.50000000  0.00000000  1
  Ba  Ba3  1  -0.00000000  -0.00000000  0.50000000  1
  Sr  Sr0  1  0.00000000  0.50000000  0.50000000  1
  Sr  Sr1  1  0.50000000  -0.00000000  0.50000000  1
  Sr  Sr2  1  0.50000000  0.50000000  0.00000000  1
  Sr  Sr3  1  0.50000000  -0.00000000  -0.00000000  1
  Pr  Pr0  1  0.74758818  0.74959627  0.74964235  1
  Pr  Pr1  1  0.25241182  0.25040373  0.74964235  1
  Pr  Pr2  1  0.25241182  0.74959627  0.25035765  1
  Pr  Pr3  1  0.74758818  0.25040373  0.25035765  1
  W  W0  1  0.25292300  0.25039845  0.24971649  1
  W  W1  1  0.74707700  0.74960155  0.24971649  1
  W  W2  1  0.74707700  0.25039845  0.75028351  1
  W  W3  1  0.25292300  0.74960155  0.75028351  1
  O  O0  1  0.02168367  0.22110358  0.27871843  1
  O  O1  1  0.97831633  0.77889642  0.27871843  1
  O  O2  1  0.97831633  0.22110358  0.72128157  1
  O  O3  1  0.02168367  0.77889642  0.72128157  1
  O  O4  1  0.28959008  0.02124762  0.21347955  1
  O  O5  1  0.28959008  0.97875238  0.78652045  1
  O  O6  1  0.71040992  0.97875238  0.21347955  1
  O  O7  1  0.71040992  0.02124762  0.78652045  1
  O  O8  1  0.22215438  0.28063488  0.01868020  1
  O  O9  1  0.77784562  0.28063488  0.98131980  1
  O  O10  1  0.22215438  0.71936512  0.98131980  1
  O  O11  1  0.77784562  0.71936512  0.01868020  1
  O  O12  1  0.48018522  0.29111583  0.21174067  1
  O  O13  1  0.51981478  0.70888417  0.21174067  1
  O  O14  1  0.51981478  0.29111583  0.78825933  1
  O  O15  1  0.48018522  0.70888417  0.78825933  1
  O  O16  1  0.21300174  0.47822853  0.29064416  1
  O  O17  1  0.21300174  0.52177147  0.70935584  1
  O  O18  1  0.78699826  0.52177147  0.29064416  1
  O  O19  1  0.78699826  0.47822853  0.70935584  1
  O  O20  1  0.29119742  0.21076397  0.47999011  1
  O  O21  1  0.70880258  0.21076397  0.52000989  1
  O  O22  1  0.29119742  0.78923603  0.52000989  1
  O  O23  1  0.70880258  0.78923603  0.47999011  1
loop_
_geom_bond_atom_site_label_1
_geom_bond_atom_site_label_2
_geom_bond_distance
_geom_bond_site_symmetry_2
Ba0 O3 3.067418 1_544
Ba0 O2 3.067418 1_454
Ba0 O0 3.067418 1_555
Ba0 O1 3.067418 1_445
Ba0 O8 3.080786 1_555
Ba0 O11 3.080786 1_445
Ba0 O9 3.080786 1_454
Ba0 O10 3.080786 1_544
Ba0 O7 3.103083 1_454
Ba0 O5 3.103083 1_544
Ba0 O6 3.103083 1_445
Ba0 O4 3.103083 1_555
Ba1 O17 3.064413 1_555
Ba1 O19 3.064413 1_555
Ba1 O16 3.064413 1_555
Ba1 O18 3.064413 1_555
Ba1 O12 3.068774 1_555
Ba1 O14 3.068774 1_555
Ba1 O15 3.068774 1_555
Ba1 O13 3.068774 1_555
Ba1 O23 3.070898 1_555
Ba1 O21 3.070898 1_555
Ba1 O22 3.070898 1_555
Ba1 O20 3.070898 1_555
Ba2 O11 2.689126 1_455
Ba2 O8 2.689126 1_555
Ba2 O9 2.689126 1_454
Ba2 O10 2.689126 1_554
Ba2 O18 3.109313 1_455
Ba2 O19 3.109313 1_454
Ba2 O16 3.109313 1_555
Ba2 O17 3.109313 1_554
Ba3 O1 2.697541 1_445
Ba3 O2 2.697541 1_455
Ba3 O3 2.697541 1_545
Ba3 O0 2.697541 1_555
Ba3 O20 3.096407 1_555
Ba3 O22 3.096407 1_545
Ba3 O23 3.096407 1_445
Ba3 O21 3.096407 1_455
O0 W0 2.021537 1_555
O0 Pr3 2.384974 1_455
O0 Sr0 3.067300 1_555
O1 W1 2.021537 1_555
O1 Pr2 2.384974 1_655
O1 Sr0 3.067300 1_655
O2 W2 2.021537 1_555
O2 Pr1 2.384974 1_655
O2 Sr0 3.067300 1_655
O3 W3 2.021537 1_555
O3 Pr0 2.384974 1_455
O3 Sr0 3.067300 1_555
O4 W0 2.017575 1_555
O4 Pr2 2.376335 1_545
O4 Sr3 2.587766 1_555
O4 Sr1 3.067272 1_555
O5 W3 2.017575 1_555
O5 Pr1 2.376335 1_565
O5 Sr3 2.587766 1_566
O5 Sr1 3.067272 1_565
O6 W1 2.017575 1_555
O6 Pr3 2.376335 1_565
O6 Sr3 2.587766 1_565
O6 Sr1 3.067272 1_565
O7 W2 2.017575 1_555
O7 Pr0 2.376335 1_545
O7 Sr3 2.587766 1_556
O7 Sr1 3.067272 1_555
O8 W0 2.025052 1_555
O8 Pr1 2.347233 1_554
O8 Sr2 3.048612 1_555
O9 W2 2.025052 1_555
O9 Pr3 2.347233 1_556
O9 Sr2 3.048612 1_556
O10 W3 2.025052 1_555
O10 Pr2 2.347233 1_556
O10 Sr2 3.048612 1_556
O11 W1 2.025052 1_555
O11 Pr0 2.347233 1_554
O11 Sr2 3.048612 1_555
O12 W0 2.013742 1_555
O12 Pr3 2.351510 1_555
O12 Sr2 2.564496 1_555
O12 Sr3 3.099941 1_555
O13 W1 2.013742 1_555
O13 Pr2 2.351510 1_555
O13 Sr2 2.564496 1_555
O13 Sr3 3.099941 1_565
O14 W2 2.013742 1_555
O14 Pr1 2.351510 1_555
O14 Sr2 2.564496 1_556
O14 Sr3 3.099941 1_556
O15 W3 2.013742 1_555
O15 Pr0 2.351510 1_555
O15 Sr2 2.564496 1_556
O15 Sr3 3.099941 1_566
O16 W0 2.017776 1_555
O16 Pr2 2.380714 1_555
O16 Sr0 2.578763 1_555
O17 W3 2.017776 1_555
O17 Pr1 2.380714 1_555
O17 Sr0 2.578763 1_555
O18 W1 2.017776 1_555
O18 Pr3 2.380714 1_555
O18 Sr0 2.578763 1_655
O19 W2 2.017776 1_555
O19 Pr0 2.380714 1_555
O19 Sr0 2.578763 1_655
O20 W0 2.039985 1_555
O20 Pr1 2.371959 1_555
O20 Sr1 2.556577 1_555
O21 W2 2.039985 1_555
O21 Pr3 2.371959 1_555
O21 Sr1 2.556577 1_555
O22 W3 2.039985 1_555
O22 Pr2 2.371959 1_555
O22 Sr1 2.556577 1_565
O23 W1 2.039985 1_555
O23 Pr0 2.371959 1_555
O23 Sr1 2.556577 1_565
