# generated using pymatgen
data_BaSrLaVO6
_symmetry_space_group_name_H-M   'P 1'
_cell_length_a   8.45976844
_cell_length_b   8.47691897
_cell_length_c   8.45619456
_cell_angle_alpha   90.00000000
_cell_angle_beta   90.00000000
_cell_angle_gamma   90.00000000
_symmetry_Int_Tables_number   1
_chemical_formula_structural   BaSrLaVO6
_chemical_formula_sum   'Ba4 Sr4 La4 V4 O24'
_cell_volume   606.41714884
_cell_formula_units_Z   4
loop_
 _symmetry_equiv_pos_site_id
 _symmetry_equiv_pos_as_xyz
  1  'x, y, z'
loop_
 _atom_site_type_symbol
 _atom_site_label
 _atom_site_symmetry_multiplicity
 _atom_site_fract_x
 _atom_site_fract_y
 _atom_site_fract_z
 _atom_site_occupancy
  Ba  Ba0  1  0.00000000  0.00000000  0.00000000  1
  Ba  Ba1  1  0.50000000  0.50000000  0.50000000  1
  Ba  Ba2  1  0.50000000  -0.00000000  0.50000000  1
  Ba  Ba3  1  0.50000000  0.50000000  -0.00000000  1
  Sr  Sr0  1  0.00000000  0.50000000  0.50000000  1
  Sr  Sr1  1  0.50000000  -0.00000000  0.00000000  1
  Sr  Sr2  1  0.00000000  0.50000000  0.00000000  1
  Sr  Sr3  1  0.00000000  -0.00000000  0.50000000  1
  La  La0  1  0.75250909  0.74954774  0.75125280  1
  La  La1  1  0.24749091  0.25045226  0.75125280  1
  La  La2  1  0.24749091  0.74954774  0.24874720  1
  La  La3  1  0.75250909  0.25045226  0.24874720  1
  V  V0  1  0.24632493  0.24844850  0.25054502  1
  V  V1  1  0.75367507  0.75155150  0.25054502  1
  V  V2  1  0.75367507  0.24844850  0.74945498  1
  V  V3  1  0.24632493  0.75155150  0.74945498  1
  O  O0  1  0.02519863  0.21078757  0.28109310  1
  O  O1  1  0.97480137  0.78921243  0.28109310  1
  O  O2  1  0.97480137  0.21078757  0.71890690  1
  O  O3  1  0.02519863  0.78921243  0.71890690  1
  O  O4  1  0.27832423  0.02661088  0.21264441  1
  O  O5  1  0.27832423  0.97338912  0.78735559  1
  O  O6  1  0.72167577  0.97338912  0.21264441  1
  O  O7  1  0.72167577  0.02661088  0.78735559  1
  O  O8  1  0.21304749  0.28354476  0.02803516  1
  O  O9  1  0.78695251  0.28354476  0.97196484  1
  O  O10  1  0.21304749  0.71645524  0.97196484  1
  O  O11  1  0.78695251  0.71645524  0.02803516  1
  O  O12  1  0.47212808  0.27353763  0.22979896  1
  O  O13  1  0.52787192  0.72646237  0.22979896  1
  O  O14  1  0.52787192  0.27353763  0.77020104  1
  O  O15  1  0.47212808  0.72646237  0.77020104  1
  O  O16  1  0.21745989  0.47459149  0.27976662  1
  O  O17  1  0.21745989  0.52540851  0.72023338  1
  O  O18  1  0.78254011  0.52540851  0.27976662  1
  O  O19  1  0.78254011  0.47459149  0.72023338  1
  O  O20  1  0.27019296  0.22633082  0.47473949  1
  O  O21  1  0.72980704  0.22633082  0.52526051  1
  O  O22  1  0.27019296  0.77366918  0.52526051  1
  O  O23  1  0.72980704  0.77366918  0.47473949  1
loop_
_geom_bond_atom_site_label_1
_geom_bond_atom_site_label_2
_geom_bond_distance
_geom_bond_site_symmetry_2
Ba0 O7 2.971232 1_454
Ba0 O6 2.971232 1_445
Ba0 O4 2.971232 1_555
Ba0 O5 2.971232 1_544
Ba0 O0 2.981313 1_555
Ba0 O2 2.981313 1_454
Ba0 O3 2.981313 1_544
Ba0 O1 2.981313 1_445
Ba0 O10 3.013608 1_544
Ba0 O8 3.013608 1_555
Ba0 O9 3.013608 1_454
Ba0 O11 3.013608 1_445
Ba1 O14 2.993576 1_555
Ba1 O15 2.993576 1_555
Ba1 O12 2.993576 1_555
Ba1 O13 2.993576 1_555
Ba1 O22 3.034306 1_555
Ba1 O23 3.034306 1_555
Ba1 O20 3.034306 1_555
Ba1 O21 3.034306 1_555
Ba1 O18 3.037739 1_555
Ba1 O16 3.037739 1_555
Ba1 O17 3.037739 1_555
Ba1 O19 3.037739 1_555
Ba2 O21 2.739742 1_555
Ba2 O20 2.739742 1_555
Ba2 O22 2.739742 1_545
Ba2 O23 2.739742 1_545
Ba2 O5 3.077713 1_545
Ba2 O4 3.077713 1_555
Ba2 O6 3.077713 1_545
Ba2 O7 3.077713 1_555
Ba2 O15 3.263874 1_545
Ba2 O14 3.263874 1_555
Ba2 O13 3.263874 1_545
Ba2 O12 3.263874 1_555
Ba3 O15 2.741711 1_554
Ba3 O12 2.741711 1_555
Ba3 O13 2.741711 1_555
Ba3 O14 2.741711 1_554
Ba3 O9 3.052208 1_554
Ba3 O8 3.052208 1_555
Ba3 O10 3.052208 1_554
Ba3 O11 3.052208 1_555
La0 O3 2.347256 1_655
La0 O23 2.355018 1_555
La0 O19 2.359214 1_555
La0 O11 2.375217 1_556
La0 O7 2.382721 1_565
La0 O15 2.385405 1_555
La1 O2 2.347256 1_455
La1 O20 2.355018 1_555
La1 O17 2.359214 1_555
La1 O8 2.375217 1_556
La1 O5 2.382721 1_545
La1 O14 2.385405 1_555
La2 O1 2.347256 1_455
La2 O22 2.355018 1_555
La2 O16 2.359214 1_555
La2 O10 2.375217 1_554
La2 O4 2.382721 1_565
La2 O13 2.385405 1_555
La3 O0 2.347256 1_655
La3 O21 2.355018 1_555
La3 O18 2.359214 1_555
La3 O9 2.375217 1_554
La3 O6 2.382721 1_545
La3 O12 2.385405 1_555
O0 V0 1.915224 1_555
O0 Sr3 2.581636 1_555
O0 Sr0 3.079379 1_555
O1 V1 1.915224 1_555
O1 Sr3 2.581636 1_665
O1 Sr0 3.079379 1_655
O2 V2 1.915224 1_555
O2 Sr3 2.581636 1_655
O2 Sr0 3.079379 1_655
O3 V3 1.915224 1_555
O3 Sr3 2.581636 1_565
O3 Sr0 3.079379 1_555
O4 V0 1.926727 1_555
O4 Sr1 2.607896 1_555
O5 V3 1.926727 1_555
O5 Sr1 2.607896 1_566
O6 V1 1.926727 1_555
O6 Sr1 2.607896 1_565
O7 V2 1.926727 1_555
O7 Sr1 2.607896 1_556
O8 V0 1.925651 1_555
O8 Sr2 2.582899 1_555
O9 V2 1.925651 1_555
O9 Sr2 2.582899 1_656
O10 V3 1.925651 1_555
O10 Sr2 2.582899 1_556
O11 V1 1.925651 1_555
O11 Sr2 2.582899 1_655
O12 V0 1.930035 1_555
O12 Sr1 3.034526 1_555
O13 V1 1.930035 1_555
O13 Sr1 3.034526 1_565
O14 V2 1.930035 1_555
O14 Sr1 3.034526 1_556
O15 V3 1.930035 1_555
O15 Sr1 3.034526 1_566
O16 V0 1.948220 1_555
O16 Sr0 2.626602 1_555
O16 Sr2 3.004591 1_555
O17 V3 1.948220 1_555
O17 Sr0 2.626602 1_555
O17 Sr2 3.004591 1_556
O18 V1 1.948220 1_555
O18 Sr0 2.626602 1_655
O18 Sr2 3.004591 1_655
O19 V2 1.948220 1_555
O19 Sr0 2.626602 1_655
O19 Sr2 3.004591 1_656
O20 V0 1.915751 1_555
O20 Sr3 2.991881 1_555
O21 V2 1.915751 1_555
O21 Sr3 2.991881 1_655
O22 V3 1.915751 1_555
O22 Sr3 2.991881 1_565
O23 V1 1.915751 1_555
O23 Sr3 2.991881 1_665
