# generated using pymatgen
data_Be3Cd4Si3SeO12
_symmetry_space_group_name_H-M   'P 1'
_cell_length_a   8.61132700
_cell_length_b   8.61132700
_cell_length_c   8.61132700
_cell_angle_alpha   90.00000000
_cell_angle_beta   90.00000000
_cell_angle_gamma   90.00000000
_symmetry_Int_Tables_number   1
_chemical_formula_structural   Be3Cd4Si3SeO12
_chemical_formula_sum   'Be6 Cd8 Si6 Se2 O24'
_cell_volume   638.57254638
_cell_formula_units_Z   2
loop_
 _symmetry_equiv_pos_site_id
 _symmetry_equiv_pos_as_xyz
  1  'x, y, z'
loop_
 _atom_site_type_symbol
 _atom_site_label
 _atom_site_symmetry_multiplicity
 _atom_site_fract_x
 _atom_site_fract_y
 _atom_site_fract_z
 _atom_site_occupancy
  Be  Be0  1  0.25000000  0.50000000  0.00000000  1
  Be  Be1  1  0.50000000  0.00000000  0.75000000  1
  Be  Be2  1  0.50000000  0.00000000  0.25000000  1
  Be  Be3  1  0.00000000  0.25000000  0.50000000  1
  Be  Be4  1  0.00000000  0.75000000  0.50000000  1
  Be  Be5  1  0.75000000  0.50000000  0.00000000  1
  Cd  Cd0  1  0.32369000  0.67631000  0.32369000  1
  Cd  Cd1  1  0.67631000  0.32369000  0.32369000  1
  Cd  Cd2  1  0.82369000  0.82369000  0.17631000  1
  Cd  Cd3  1  0.17631000  0.82369000  0.82369000  1
  Cd  Cd4  1  0.82369000  0.17631000  0.82369000  1
  Cd  Cd5  1  0.67631000  0.67631000  0.67631000  1
  Cd  Cd6  1  0.17631000  0.17631000  0.17631000  1
  Cd  Cd7  1  0.32369000  0.32369000  0.67631000  1
  Si  Si0  1  0.75000000  0.00000000  0.50000000  1
  Si  Si1  1  0.50000000  0.75000000  0.00000000  1
  Si  Si2  1  0.50000000  0.25000000  0.00000000  1
  Si  Si3  1  0.25000000  0.00000000  0.50000000  1
  Si  Si4  1  0.00000000  0.50000000  0.25000000  1
  Si  Si5  1  0.00000000  0.50000000  0.75000000  1
  Se  Se0  1  0.00000000  0.00000000  0.00000000  1
  Se  Se1  1  0.50000000  0.50000000  0.50000000  1
  O  O0  1  0.85511600  0.43265400  0.85522100  1
  O  O1  1  0.85511600  0.56734600  0.14477900  1
  O  O2  1  0.43265400  0.85522100  0.85511600  1
  O  O3  1  0.56734600  0.85522100  0.14488400  1
  O  O4  1  0.85522100  0.85511600  0.43265400  1
  O  O5  1  0.14477900  0.14488400  0.43265400  1
  O  O6  1  0.35511600  0.35522100  0.93265400  1
  O  O7  1  0.14488400  0.43265400  0.14477900  1
  O  O8  1  0.14488400  0.56734600  0.85522100  1
  O  O9  1  0.56734600  0.14477900  0.85511600  1
  O  O10  1  0.43265400  0.14477900  0.14488400  1
  O  O11  1  0.85522100  0.14488400  0.56734600  1
  O  O12  1  0.14477900  0.85511600  0.56734600  1
  O  O13  1  0.93265400  0.35511600  0.35522100  1
  O  O14  1  0.35522100  0.93265400  0.35511600  1
  O  O15  1  0.64477900  0.06734600  0.35511600  1
  O  O16  1  0.93265400  0.64488400  0.64477900  1
  O  O17  1  0.64477900  0.93265400  0.64488400  1
  O  O18  1  0.06734600  0.64488400  0.35522100  1
  O  O19  1  0.06734600  0.35511600  0.64477900  1
  O  O20  1  0.35522100  0.06734600  0.64488400  1
  O  O21  1  0.35511600  0.64477900  0.06734600  1
  O  O22  1  0.64488400  0.35522100  0.06734600  1
  O  O23  1  0.64488400  0.64477900  0.93265400  1
loop_
_geom_bond_atom_site_label_1
_geom_bond_atom_site_label_2
_geom_bond_distance
_geom_bond_site_symmetry_2
Be0 O8 1.646224 1_554
Be0 O21 1.646224 1_555
Be0 O7 1.646224 1_555
Be0 O6 1.646224 1_554
Be1 O9 1.646224 1_555
Be1 O2 1.646224 1_545
Be1 O17 1.646224 1_545
Be1 O20 1.646224 1_555
Be2 O14 1.646224 1_545
Be2 O15 1.646224 1_555
Be2 O3 1.646224 1_545
Be2 O10 1.646224 1_555
Be3 O19 1.646224 1_555
Be3 O13 1.646224 1_455
Be3 O5 1.646224 1_555
Be3 O11 1.646224 1_455
Be4 O4 1.646224 1_455
Be4 O18 1.646224 1_555
Be4 O12 1.646224 1_555
Be4 O16 1.646224 1_455
Be5 O1 1.646224 1_555
Be5 O0 1.646224 1_554
Be5 O23 1.646224 1_554
Be5 O22 1.646224 1_555
Cd0 O21 2.240502 1_555
Cd0 O18 2.240502 1_555
Cd0 O14 2.240502 1_555
Cd0 Se1 2.629709 1_555
Cd1 O15 2.240502 1_555
Cd1 O22 2.240502 1_555
Cd1 O13 2.240502 1_555
Cd1 Se1 2.629709 1_555
Cd2 O4 2.240502 1_555
Cd2 O3 2.240502 1_555
Cd2 O1 2.240502 1_555
Cd2 Se0 2.629709 1_665
Cd3 O2 2.240502 1_555
Cd3 O8 2.240502 1_555
Cd3 O12 2.240502 1_555
Cd3 Se0 2.629709 1_566
Cd4 O9 2.240502 1_555
Cd4 O11 2.240502 1_555
Cd4 O0 2.240502 1_555
Cd4 Se0 2.629709 1_656
Cd5 O16 2.240502 1_555
Cd5 O17 2.240502 1_555
Cd5 O23 2.240502 1_555
Cd5 Se1 2.629709 1_555
Cd6 O5 2.240502 1_555
Cd6 O7 2.240502 1_555
Cd6 O10 2.240502 1_555
Cd6 Se0 2.629709 1_555
Cd7 O19 2.240502 1_555
Cd7 O20 2.240502 1_555
Cd7 O6 2.240502 1_555
Cd7 Se1 2.629709 1_555
O0 Si5 1.647406 1_655
O1 Si4 1.647406 1_655
O2 Si1 1.647406 1_556
O3 Si1 1.647406 1_555
O4 Si0 1.647406 1_565
O5 Si3 1.647406 1_555
O6 Si2 1.647406 1_556
O7 Si4 1.647406 1_555
O8 Si5 1.647406 1_555
O9 Si2 1.647406 1_556
O10 Si2 1.647406 1_555
O11 Si0 1.647406 1_555
O12 Si3 1.647406 1_565
O13 Si4 1.647406 1_655
O14 Si3 1.647406 1_565
O15 Si0 1.647406 1_555
O16 Si5 1.647406 1_655
O17 Si0 1.647406 1_565
O18 Si4 1.647406 1_555
O19 Si5 1.647406 1_555
O20 Si3 1.647406 1_555
O21 Si1 1.647406 1_555
O22 Si2 1.647406 1_555
O23 Si1 1.647406 1_556
