# generated using pymatgen
data_Ce2Fe17C
_symmetry_space_group_name_H-M   'P 1'
_cell_length_a   6.47467085
_cell_length_b   6.48733701
_cell_length_c   6.47467085
_cell_angle_alpha   83.32950991
_cell_angle_beta   83.06727605
_cell_angle_gamma   83.32950991
_symmetry_Int_Tables_number   1
_chemical_formula_structural   Ce2Fe17C
_chemical_formula_sum   'Ce2 Fe17 C1'
_cell_volume   266.69943968
_cell_formula_units_Z   1
loop_
 _symmetry_equiv_pos_site_id
 _symmetry_equiv_pos_as_xyz
  1  'x, y, z'
loop_
 _atom_site_type_symbol
 _atom_site_label
 _atom_site_symmetry_multiplicity
 _atom_site_fract_x
 _atom_site_fract_y
 _atom_site_fract_z
 _atom_site_occupancy
  Ce  Ce0  1  0.66483892  0.64484112  0.66483892  1
  Ce  Ce1  1  0.33516108  0.35515888  0.33516108  1
  Fe  Fe0  1  0.71579934  0.00000000  0.28420066  1
  Fe  Fe1  1  0.00049881  0.28647335  0.71245150  1
  Fe  Fe2  1  0.28754850  0.71352665  0.99950119  1
  Fe  Fe3  1  0.99950119  0.71352665  0.28754850  1
  Fe  Fe4  1  0.71245150  0.28647335  0.00049881  1
  Fe  Fe5  1  0.28420066  0.00000000  0.71579934  1
  Fe  Fe6  1  0.00000000  0.50000000  0.00000000  1
  Fe  Fe7  1  0.50000000  0.00000000  0.00000000  1
  Fe  Fe8  1  0.00000000  0.00000000  0.50000000  1
  Fe  Fe9  1  0.34397884  0.85262921  0.34397884  1
  Fe  Fe10  1  0.84776659  0.34336842  0.34268790  1
  Fe  Fe11  1  0.34268790  0.34336842  0.84776659  1
  Fe  Fe12  1  0.65602116  0.14737079  0.65602116  1
  Fe  Fe13  1  0.15223341  0.65663158  0.65731210  1
  Fe  Fe14  1  0.65731210  0.65663158  0.15223341  1
  Fe  Fe15  1  0.90395226  0.90311810  0.90395226  1
  Fe  Fe16  1  0.09604774  0.09688190  0.09604774  1
  C  C0  1  0.50000000  0.00000000  0.50000000  1
loop_
_geom_bond_atom_site_label_1
_geom_bond_atom_site_label_2
_geom_bond_distance
_geom_bond_site_symmetry_2
Ce0 Fe4 3.007421 1_556
Ce0 Fe1 3.007421 1_655
Ce0 Fe15 3.063498 1_555
Ce0 Fe11 3.064574 1_555
Ce0 Fe10 3.064574 1_555
Ce0 Fe3 3.091072 1_555
Ce0 Fe2 3.091072 1_555
Ce0 Fe14 3.159885 1_556
Ce0 Fe13 3.159885 1_655
Ce0 Fe6 3.238922 1_656
Ce0 Fe13 3.317058 1_555
Ce0 Fe14 3.317058 1_555
Ce0 Fe7 3.344844 1_566
Ce0 Fe8 3.344844 1_665
Ce1 Fe3 3.007421 1_455
Ce1 Fe2 3.007421 1_554
Ce1 Fe16 3.063498 1_555
Ce1 Fe13 3.064574 1_555
Ce1 Fe14 3.064574 1_555
Ce1 Fe1 3.091072 1_555
Ce1 Fe4 3.091072 1_555
Ce1 Fe10 3.159885 1_455
Ce1 Fe11 3.159885 1_554
Ce1 Fe6 3.238922 1_555
Ce1 Fe10 3.317058 1_555
Ce1 Fe11 3.317058 1_555
Ce1 Fe8 3.344844 1_555
Ce1 Fe7 3.344844 1_555
Fe0 Fe8 2.441088 1_655
Fe0 Fe7 2.441088 1_555
Fe0 Fe3 2.456745 1_545
Fe0 Fe4 2.456745 1_555
Fe0 Fe14 2.559629 1_545
Fe0 Fe10 2.559629 1_555
Fe0 Fe16 2.719930 1_655
Fe0 Fe15 2.719930 1_544
Fe1 Fe8 2.437695 1_555
Fe1 Fe6 2.445757 1_556
Fe1 Fe5 2.456745 1_555
Fe1 Fe4 2.473228 1_456
Fe1 Fe11 2.558561 1_555
Fe1 Fe12 2.581343 1_455
Fe1 Fe13 2.668952 1_555
Fe1 Fe10 2.669698 1_455
Fe1 Fe16 2.747458 1_556
Fe1 Fe15 2.751499 1_445
Fe2 Fe7 2.437695 1_566
Fe2 Fe6 2.445757 1_556
Fe2 Fe5 2.456745 1_565
Fe2 Fe3 2.473228 1_456
Fe2 Fe9 2.581343 1_556
Fe3 Fe8 2.437695 1_665
Fe3 Fe6 2.445757 1_655
Fe3 Fe9 2.581343 1_655
Fe4 Fe7 2.437695 1_555
Fe4 Fe6 2.445757 1_655
Fe5 Fe8 2.441088 1_555
Fe5 Fe7 2.441088 1_556
Fe7 Fe9 2.466023 1_545
Fe8 Fe9 2.466023 1_545
Fe10 Fe6 2.471440 1_655
Fe10 Fe8 2.485177 1_655
Fe10 Fe14 2.524665 1_555
Fe10 Fe12 2.536374 1_555
Fe10 Fe4 2.558561 1_555
Fe10 Fe16 2.658492 1_655
Fe10 Fe3 2.668952 1_555
Fe11 Fe6 2.471440 1_556
Fe11 Fe7 2.485177 1_556
Fe11 Fe13 2.524665 1_555
Fe11 Fe12 2.536374 1_555
Fe11 Fe5 2.559629 1_555
Fe11 Fe16 2.658492 1_556
Fe11 Fe2 2.668952 1_555
Fe11 Fe4 2.669698 1_556
Fe12 Fe8 2.466023 1_655
Fe12 Fe7 2.466023 1_556
Fe12 Fe4 2.581343 1_556
Fe12 Fe15 2.665485 1_545
Fe13 Fe6 2.471440 1_556
Fe13 Fe8 2.485177 1_565
Fe13 Fe9 2.536374 1_555
Fe13 Fe2 2.558561 1_555
Fe13 Fe5 2.559629 1_565
Fe13 Fe15 2.658492 1_455
Fe13 Fe3 2.669698 1_455
Fe14 Fe6 2.471440 1_655
Fe14 Fe7 2.485177 1_565
Fe14 Fe9 2.536374 1_555
Fe14 Fe3 2.558561 1_555
Fe14 Fe15 2.658492 1_554
Fe14 Fe4 2.668952 1_555
Fe14 Fe2 2.669698 1_554
Fe15 Fe16 2.402871 1_666
Fe15 Fe7 2.634129 1_566
Fe15 Fe8 2.634129 1_665
Fe15 Fe6 2.636334 1_656
Fe15 Fe5 2.719930 1_665
Fe15 Fe3 2.747458 1_556
Fe15 Fe2 2.747458 1_655
Fe15 Fe4 2.751499 1_566
Fe16 Fe7 2.634129 1_555
Fe16 Fe8 2.634129 1_555
Fe16 Fe6 2.636334 1_555
Fe16 Fe9 2.665485 1_545
Fe16 Fe5 2.719930 1_554
Fe16 Fe4 2.747458 1_455
Fe16 Fe2 2.751499 1_544
Fe16 Fe3 2.751499 1_445
C0 Fe5 1.852893 1_555
C0 Fe0 1.852893 1_555
C0 Fe12 1.910513 1_555
C0 Fe9 1.910513 1_545
C0 Ce0 2.592135 1_545
C0 Ce1 2.592135 1_555
