# generated using pymatgen
data_K2NaPdF6
_symmetry_space_group_name_H-M   'P 1'
_cell_length_a   6.14982278
_cell_length_b   6.14982278
_cell_length_c   6.14982278
_cell_angle_alpha   121.69369664
_cell_angle_beta   121.69369664
_cell_angle_gamma   87.09064001
_symmetry_Int_Tables_number   1
_chemical_formula_structural   K2NaPdF6
_chemical_formula_sum   'K2 Na1 Pd1 F6'
_cell_volume   160.03006505
_cell_formula_units_Z   1
loop_
 _symmetry_equiv_pos_site_id
 _symmetry_equiv_pos_as_xyz
  1  'x, y, z'
loop_
 _atom_site_type_symbol
 _atom_site_label
 _atom_site_symmetry_multiplicity
 _atom_site_fract_x
 _atom_site_fract_y
 _atom_site_fract_z
 _atom_site_occupancy
  K  K0  1  0.75000000  0.25000000  0.50000000  1
  K  K1  1  0.25000000  0.75000000  0.50000000  1
  Na  Na0  1  0.50000000  0.50000000  0.00000000  1
  Pd  Pd0  1  0.00000000  0.00000000  0.00000000  1
  F  F0  1  0.23470400  0.23470400  0.46940900  1
  F  F1  1  0.76529600  0.76529600  0.53059100  1
  F  F2  1  0.23470400  0.76529600  0.00000000  1
  F  F3  1  0.76529600  0.23470400  0.00000000  1
  F  F4  1  0.24687900  0.24687900  0.00000000  1
  F  F5  1  0.75312100  0.75312100  0.00000000  1
loop_
_geom_bond_atom_site_label_1
_geom_bond_atom_site_label_2
_geom_bond_distance
_geom_bond_site_symmetry_2
F0 Pd0 1.988785 1_555
F0 Na0 2.248000 1_556
F0 K0 3.077638 1_455
F0 K1 3.077638 1_545
F0 K1 3.077645 1_555
F0 K0 3.077645 1_555
F1 Pd0 1.988785 1_666
F1 Na0 2.248000 1_555
F1 K1 3.077638 1_655
F1 K0 3.077638 1_565
F1 K0 3.077645 1_555
F1 K1 3.077645 1_555
F2 Pd0 1.988781 1_565
F2 Na0 2.248005 1_555
F2 K0 3.077642 1_454
F2 K1 3.077642 1_555
F2 K1 3.077642 1_554
F2 K0 3.077642 1_565
F3 Pd0 1.988781 1_655
F3 Na0 2.248005 1_555
F3 K0 3.077642 1_554
F3 K0 3.077642 1_555
F3 K1 3.077642 1_544
F3 K1 3.077642 1_655
F4 Pd0 2.200963 1_555
F4 Na0 2.256611 1_555
F4 K0 2.995989 1_555
F4 K0 2.995989 1_454
F4 K1 2.995989 1_555
F4 K1 2.995989 1_544
F5 Pd0 2.200963 1_665
F5 Na0 2.256611 1_555
F5 K0 2.995989 1_554
F5 K1 2.995989 1_554
F5 K0 2.995989 1_565
F5 K1 2.995989 1_655
