# generated using pymatgen
data_W3O7
_symmetry_space_group_name_H-M   'P 1'
_cell_length_a   3.85797000
_cell_length_b   6.36057700
_cell_length_c   11.64226400
_cell_angle_alpha   90.00000000
_cell_angle_beta   90.00000000
_cell_angle_gamma   90.00000000
_symmetry_Int_Tables_number   1
_chemical_formula_structural   W3O7
_chemical_formula_sum   'W6 O14'
_cell_volume   285.68852960
_cell_formula_units_Z   2
loop_
 _symmetry_equiv_pos_site_id
 _symmetry_equiv_pos_as_xyz
  1  'x, y, z'
loop_
 _atom_site_type_symbol
 _atom_site_label
 _atom_site_symmetry_multiplicity
 _atom_site_fract_x
 _atom_site_fract_y
 _atom_site_fract_z
 _atom_site_occupancy
  W  W0  1  0.50954000  0.00000000  0.77275800  1
  W  W1  1  0.49046000  0.50000000  0.72724200  1
  W  W2  1  0.49046000  0.50000000  0.27275800  1
  W  W3  1  0.50954000  0.00000000  0.22724200  1
  W  W4  1  0.48655500  0.00000000  0.50000000  1
  W  W5  1  0.51344500  0.50000000  0.00000000  1
  O  O0  1  0.50597300  0.70805000  0.86362200  1
  O  O1  1  0.49402700  0.20805000  0.63637800  1
  O  O2  1  0.49402700  0.79195000  0.36362200  1
  O  O3  1  0.50597300  0.29195000  0.13637800  1
  O  O4  1  0.49402700  0.79195000  0.63637800  1
  O  O5  1  0.50597300  0.29195000  0.86362200  1
  O  O6  1  0.50597300  0.70805000  0.13637800  1
  O  O7  1  0.49402700  0.20805000  0.36362200  1
  O  O8  1  0.99000100  0.00000000  0.50000000  1
  O  O9  1  0.00999900  0.50000000  0.00000000  1
  O  O10  1  0.00655300  0.00000000  0.21236900  1
  O  O11  1  0.99344700  0.50000000  0.28763100  1
  O  O12  1  0.99344700  0.50000000  0.71236900  1
  O  O13  1  0.00655300  0.00000000  0.78763100  1
loop_
_geom_bond_atom_site_label_1
_geom_bond_atom_site_label_2
_geom_bond_distance
_geom_bond_site_symmetry_2
O0 W5 2.067111 1_556
O0 W1 2.067794 1_555
O0 W0 2.137195 1_565
O1 W4 2.067111 1_555
O1 W0 2.067794 1_555
O1 W1 2.137195 1_555
O2 W4 2.067111 1_565
O2 W3 2.067794 1_565
O2 W2 2.137195 1_555
O3 W5 2.067111 1_555
O3 W2 2.067794 1_555
O3 W3 2.137195 1_555
O4 W4 2.067111 1_565
O4 W0 2.067794 1_565
O4 W1 2.137195 1_555
O5 W5 2.067111 1_556
O5 W1 2.067794 1_555
O5 W0 2.137195 1_555
O6 W5 2.067111 1_555
O6 W2 2.067794 1_555
O6 W3 2.137195 1_565
O7 W4 2.067111 1_555
O7 W3 2.067794 1_555
O7 W2 2.137195 1_555
O8 W4 1.915690 1_655
O8 W4 1.942280 1_555
O9 W5 1.915690 1_455
O9 W5 1.942280 1_555
O10 W3 1.925264 1_455
O10 W3 1.948219 1_555
O11 W2 1.925264 1_655
O11 W2 1.948219 1_555
O12 W1 1.925264 1_655
O12 W1 1.948219 1_555
O13 W0 1.925264 1_455
O13 W0 1.948219 1_555
