# generated using pymatgen
data_Eu(Ge3Pt)4
_symmetry_space_group_name_H-M   'P 1'
_cell_length_a   7.63654446
_cell_length_b   7.63654446
_cell_length_c   7.63654446
_cell_angle_alpha   109.47122063
_cell_angle_beta   109.47122063
_cell_angle_gamma   109.47122063
_symmetry_Int_Tables_number   1
_chemical_formula_structural   Eu(Ge3Pt)4
_chemical_formula_sum   'Eu1 Ge12 Pt4'
_cell_volume   342.82206221
_cell_formula_units_Z   1
loop_
 _symmetry_equiv_pos_site_id
 _symmetry_equiv_pos_as_xyz
  1  'x, y, z'
loop_
 _atom_site_type_symbol
 _atom_site_label
 _atom_site_symmetry_multiplicity
 _atom_site_fract_x
 _atom_site_fract_y
 _atom_site_fract_z
 _atom_site_occupancy
  Eu  Eu0  1  0.00000000  0.00000000  0.00000000  1
  Ge  Ge0  1  0.35352800  0.50453600  0.15100800  1
  Ge  Ge1  1  0.64647200  0.79747900  0.15100800  1
  Ge  Ge2  1  0.84899200  0.35352800  0.20252100  1
  Ge  Ge3  1  0.50453600  0.15100800  0.35352800  1
  Ge  Ge4  1  0.20252100  0.84899200  0.35352800  1
  Ge  Ge5  1  0.84899200  0.64647200  0.49546400  1
  Ge  Ge6  1  0.15100800  0.35352800  0.50453600  1
  Ge  Ge7  1  0.79747900  0.15100800  0.64647200  1
  Ge  Ge8  1  0.49546400  0.84899200  0.64647200  1
  Ge  Ge9  1  0.15100800  0.64647200  0.79747900  1
  Ge  Ge10  1  0.35352800  0.20252100  0.84899200  1
  Ge  Ge11  1  0.64647200  0.49546400  0.84899200  1
  Pt  Pt0  1  0.50000000  0.00000000  0.00000000  1
  Pt  Pt1  1  0.00000000  0.50000000  0.00000000  1
  Pt  Pt2  1  0.00000000  0.00000000  0.50000000  1
  Pt  Pt3  1  0.50000000  0.50000000  0.50000000  1
loop_
_geom_bond_atom_site_label_1
_geom_bond_atom_site_label_2
_geom_bond_distance
_geom_bond_site_symmetry_2
Eu0 Ge8 3.389863 1_444
Eu0 Ge5 3.389863 1_444
Eu0 Ge3 3.389863 1_555
Eu0 Ge11 3.389863 1_444
Eu0 Ge0 3.389863 1_555
Eu0 Ge6 3.389863 1_555
Eu0 Ge7 3.389865 1_454
Eu0 Ge9 3.389865 1_544
Eu0 Ge1 3.389865 1_445
Eu0 Ge2 3.389865 1_455
Eu0 Ge4 3.389865 1_545
Eu0 Ge10 3.389865 1_554
Ge0 Pt3 2.540686 1_555
Ge0 Pt1 2.540686 1_555
Ge0 Ge1 2.583153 1_555
Ge0 Ge10 2.663149 1_554
Ge1 Pt2 2.540685 1_665
Ge1 Pt0 2.540693 1_565
Ge1 Ge11 2.663149 1_554
Ge2 Pt0 2.540685 1_555
Ge2 Pt1 2.540693 1_655
Ge2 Ge5 2.583153 1_555
Ge2 Ge6 2.663149 1_655
Ge3 Pt3 2.540686 1_555
Ge3 Pt0 2.540686 1_555
Ge3 Ge7 2.583153 1_555
Ge3 Ge4 2.663149 1_545
Ge4 Pt1 2.540685 1_555
Ge4 Pt2 2.540693 1_565
Ge4 Ge8 2.583153 1_555
Ge5 Pt3 2.540686 1_555
Ge5 Pt2 2.540686 1_665
Ge5 Ge9 2.663149 1_655
Ge6 Pt3 2.540686 1_555
Ge6 Pt2 2.540686 1_555
Ge6 Ge9 2.583153 1_555
Ge7 Pt1 2.540685 1_656
Ge7 Pt2 2.540693 1_655
Ge7 Ge8 2.663149 1_545
Ge8 Pt3 2.540686 1_555
Ge8 Pt0 2.540686 1_566
Ge9 Pt0 2.540685 1_566
Ge9 Pt1 2.540693 1_556
Ge10 Pt2 2.540685 1_555
Ge10 Pt0 2.540693 1_556
Ge10 Ge11 2.583153 1_555
Ge11 Pt3 2.540686 1_555
Ge11 Pt1 2.540686 1_656
