# generated using pymatgen
data_Ba2TbTaO6
_symmetry_space_group_name_H-M   'P 1'
_cell_length_a   6.04646714
_cell_length_b   6.04646714
_cell_length_c   6.04646714
_cell_angle_alpha   120.22406255
_cell_angle_beta   120.22406255
_cell_angle_gamma   89.61234843
_symmetry_Int_Tables_number   1
_chemical_formula_structural   Ba2TbTaO6
_chemical_formula_sum   'Ba2 Tb1 Ta1 O6'
_cell_volume   155.77795489
_cell_formula_units_Z   1
loop_
 _symmetry_equiv_pos_site_id
 _symmetry_equiv_pos_as_xyz
  1  'x, y, z'
loop_
 _atom_site_type_symbol
 _atom_site_label
 _atom_site_symmetry_multiplicity
 _atom_site_fract_x
 _atom_site_fract_y
 _atom_site_fract_z
 _atom_site_occupancy
  Ba  Ba0  1  0.75000000  0.25000000  0.50000000  1
  Ba  Ba1  1  0.25000000  0.75000000  0.50000000  1
  Tb  Tb0  1  0.50000000  0.50000000  0.00000000  1
  Ta  Ta0  1  0.00000000  0.00000000  0.00000000  1
  O  O0  1  0.26489100  0.20431300  0.46920400  1
  O  O1  1  0.73510900  0.79568700  0.53079600  1
  O  O2  1  0.20431300  0.73510900  0.93942200  1
  O  O3  1  0.79568700  0.26489100  0.06057800  1
  O  O4  1  0.23482200  0.23482200  0.00000000  1
  O  O5  1  0.76517800  0.76517800  0.00000000  1
loop_
_geom_bond_atom_site_label_1
_geom_bond_atom_site_label_2
_geom_bond_distance
_geom_bond_site_symmetry_2
Ba0 O2 2.850249 1_655
Ba0 O3 2.850249 1_555
Ba0 O1 2.850249 1_545
Ba0 O0 2.850249 1_555
Ba0 O5 3.015802 1_545
Ba0 O4 3.015802 1_555
Ba0 O5 3.015802 1_556
Ba0 O4 3.015802 1_656
Ba0 O2 3.213044 1_544
Ba0 O3 3.213044 1_556
Ba0 O0 3.213044 1_655
Ba0 O1 3.213044 1_555
Ba1 O0 2.850249 1_565
Ba1 O3 2.850249 1_455
Ba1 O1 2.850249 1_555
Ba1 O2 2.850249 1_555
Ba1 O4 3.015802 1_555
Ba1 O5 3.015802 1_455
Ba1 O5 3.015802 1_556
Ba1 O4 3.015802 1_566
Ba1 O3 3.213044 1_566
Ba1 O2 3.213044 1_554
Ba1 O0 3.213044 1_555
Ba1 O1 3.213044 1_455
O0 Ta0 2.015877 1_555
O0 Tb0 2.276409 1_556
O1 Ta0 2.015877 1_666
O1 Tb0 2.276409 1_555
O2 Ta0 2.015877 1_566
O2 Tb0 2.276409 1_556
O3 Ta0 2.015877 1_655
O3 Tb0 2.276409 1_555
O4 Ta0 2.014743 1_555
O4 Tb0 2.275194 1_555
O5 Ta0 2.014743 1_665
O5 Tb0 2.275194 1_555
