# generated using pymatgen
data_LaFeTeO6
_symmetry_space_group_name_H-M   'P 1'
_cell_length_a   5.27015015
_cell_length_b   10.42947478
_cell_length_c   9.12416486
_cell_angle_alpha   90.00028750
_cell_angle_beta   89.99986945
_cell_angle_gamma   89.96948279
_symmetry_Int_Tables_number   1
_chemical_formula_structural   LaFeTeO6
_chemical_formula_sum   'La4 Fe4 Te4 O24'
_cell_volume   501.50872013
_cell_formula_units_Z   4
loop_
 _symmetry_equiv_pos_site_id
 _symmetry_equiv_pos_as_xyz
  1  'x, y, z'
loop_
 _atom_site_type_symbol
 _atom_site_label
 _atom_site_symmetry_multiplicity
 _atom_site_fract_x
 _atom_site_fract_y
 _atom_site_fract_z
 _atom_site_occupancy
  La  La0  1  0.00000100  0.50000000  0.00000900  1
  La  La1  1  0.50000400  0.50000300  0.50000200  1
  La  La2  1  0.00000200  0.99999500  0.00000600  1
  La  La3  1  0.49999900  0.00000200  0.50000400  1
  Fe  Fe0  1  0.50000400  0.75000000  0.83352700  1
  Fe  Fe1  1  0.00000000  0.24999800  0.66648000  1
  Fe  Fe2  1  0.99999500  0.75000100  0.33346800  1
  Fe  Fe3  1  0.50000200  0.25000300  0.16641700  1
  Te  Te0  1  0.00000300  0.74999900  0.66723700  1
  Te  Te1  1  0.49999700  0.75000000  0.16725000  1
  Te  Te2  1  0.00000100  0.24999900  0.33276300  1
  Te  Te3  1  0.50000000  0.25000100  0.83274600  1
  O  O0  1  0.69528200  0.64405400  0.68266500  1
  O  O1  1  0.19528500  0.64405200  0.18265900  1
  O  O2  1  0.69528300  0.14405400  0.31733900  1
  O  O3  1  0.19528300  0.14405300  0.81735000  1
  O  O4  1  0.30471800  0.35594500  0.31734200  1
  O  O5  1  0.80471600  0.35594600  0.81735000  1
  O  O6  1  0.30471800  0.85594500  0.68266600  1
  O  O7  1  0.80471300  0.85594800  0.18266000  1
  O  O8  1  0.17563100  0.64413900  0.81186700  1
  O  O9  1  0.67562900  0.64414400  0.31186100  1
  O  O10  1  0.17562900  0.14414100  0.18813800  1
  O  O11  1  0.67562900  0.14414000  0.68814700  1
  O  O12  1  0.82436800  0.35586000  0.18814000  1
  O  O13  1  0.32437100  0.35585800  0.68814700  1
  O  O14  1  0.82436900  0.85586000  0.81186900  1
  O  O15  1  0.32437000  0.85585800  0.31186200  1
  O  O16  1  0.13031000  0.64460200  0.50691100  1
  O  O17  1  0.63031200  0.64460300  0.00691500  1
  O  O18  1  0.13031500  0.14460200  0.49309500  1
  O  O19  1  0.63031200  0.14460000  0.99309000  1
  O  O20  1  0.86968800  0.35539700  0.49309700  1
  O  O21  1  0.36968600  0.35540200  0.99309100  1
  O  O22  1  0.86969200  0.85539800  0.50691400  1
  O  O23  1  0.36968400  0.85539900  0.00691700  1
loop_
_geom_bond_atom_site_label_1
_geom_bond_atom_site_label_2
_geom_bond_distance
_geom_bond_site_symmetry_2
La0 O12 2.462659 1_455
La0 O8 2.462716 1_554
La0 O21 2.463943 1_554
La0 O17 2.463989 1_455
La0 O1 2.468870 1_555
La0 O5 2.468940 1_454
La1 O9 2.462713 1_555
La1 O13 2.462779 1_555
La1 O16 2.463985 1_555
La1 O20 2.463987 1_555
La1 O0 2.468930 1_555
La1 O4 2.468974 1_555
La2 O14 2.462657 1_454
La2 O10 2.462684 1_565
La2 O23 2.463917 1_555
La2 O19 2.464009 1_464
La2 O7 2.468880 1_455
La2 O3 2.468945 1_564
La3 O11 2.462709 1_555
La3 O15 2.462738 1_545
La3 O18 2.463950 1_555
La3 O22 2.464014 1_545
La3 O2 2.468969 1_555
La3 O6 2.468976 1_545
Fe0 O0 2.042931 1_555
Fe0 O6 2.042951 1_555
Fe0 O17 2.044980 1_556
Fe0 O23 2.045015 1_556
Fe0 O14 2.045054 1_555
Fe0 O8 2.045096 1_555
Fe1 O3 2.042999 1_555
Fe1 O5 2.043008 1_455
Fe1 O18 2.044954 1_555
Fe1 O20 2.044963 1_455
Fe1 O11 2.045077 1_455
Fe1 O13 2.045088 1_555
Fe2 O7 2.042626 1_555
Fe2 O1 2.042654 1_655
Fe2 O9 2.044996 1_555
Fe2 O15 2.045035 1_655
Fe2 O22 2.045369 1_555
Fe2 O16 2.045391 1_655
Fe3 O4 2.043312 1_555
Fe3 O2 2.043336 1_555
Fe3 O21 2.044567 1_554
Fe3 O19 2.044575 1_554
Fe3 O12 2.045099 1_555
Fe3 O10 2.045156 1_555
O0 Te0 1.954896 1_655
O1 Te1 1.954862 1_555
O2 Te2 1.954880 1_655
O3 Te3 1.954875 1_555
O4 Te2 1.954880 1_555
O5 Te3 1.954853 1_555
O6 Te0 1.954876 1_555
O7 Te1 1.954880 1_555
O8 Te0 1.953463 1_555
O9 Te1 1.953332 1_555
O10 Te2 1.953410 1_555
O11 Te3 1.953270 1_555
O12 Te2 1.953438 1_655
O13 Te3 1.953256 1_555
O14 Te0 1.953486 1_655
O15 Te1 1.953327 1_555
O16 Te0 1.954228 1_555
O17 Te1 1.954304 1_555
O18 Te2 1.954292 1_555
O19 Te3 1.954394 1_555
O20 Te2 1.954299 1_655
O21 Te3 1.954394 1_555
O22 Te0 1.954237 1_655
O23 Te1 1.954309 1_555
