# generated using pymatgen
data_SrLaTaCoO6
_symmetry_space_group_name_H-M   'P 1'
_cell_length_a   5.68314033
_cell_length_b   5.68314033
_cell_length_c   27.91401300
_cell_angle_alpha   90.00000000
_cell_angle_beta   90.00000000
_cell_angle_gamma   120.00000390
_symmetry_Int_Tables_number   1
_chemical_formula_structural   SrLaTaCoO6
_chemical_formula_sum   'Sr6 La6 Ta6 Co6 O36'
_cell_volume   780.78174654
_cell_formula_units_Z   6
loop_
 _symmetry_equiv_pos_site_id
 _symmetry_equiv_pos_as_xyz
  1  'x, y, z'
loop_
 _atom_site_type_symbol
 _atom_site_label
 _atom_site_symmetry_multiplicity
 _atom_site_fract_x
 _atom_site_fract_y
 _atom_site_fract_z
 _atom_site_occupancy
  Sr  Sr0  1  0.66666700  0.33333300  0.03086000  1
  Sr  Sr1  1  0.33333300  0.66666700  0.21191000  1
  Sr  Sr2  1  0.00000000  0.00000000  0.37526000  1
  Sr  Sr3  1  0.00000000  0.00000000  0.12420800  1
  Sr  Sr4  1  0.66666700  0.33333300  0.54214800  1
  Sr  Sr5  1  0.33333300  0.66666700  0.70724000  1
  La  La0  1  0.66666700  0.33333300  0.29261600  1
  La  La1  1  0.33333300  0.66666700  0.45857800  1
  La  La2  1  0.00000000  0.00000000  0.88890900  1
  La  La3  1  0.00000000  0.00000000  0.62436400  1
  La  La4  1  0.66666700  0.33333300  0.79169500  1
  La  La5  1  0.33333300  0.66666700  0.95791500  1
  Ta  Ta0  1  0.66666700  0.33333300  0.16941400  1
  Ta  Ta1  1  0.33333300  0.66666700  0.08141300  1
  Ta  Ta2  1  0.33333300  0.66666700  0.33343100  1
  Ta  Ta3  1  0.66666700  0.33333300  0.66634900  1
  Ta  Ta4  1  0.00000000  0.00000000  0.50029600  1
  Ta  Ta5  1  0.33333300  0.66666700  0.83187200  1
  Co  Co0  1  0.00000000  0.00000000  0.99955300  1
  Co  Co1  1  0.00000000  0.00000000  0.25002000  1
  Co  Co2  1  0.66666700  0.33333300  0.41709300  1
  Co  Co3  1  0.33333300  0.66666700  0.58327400  1
  Co  Co4  1  0.00000000  0.00000000  0.75018700  1
  Co  Co5  1  0.66666700  0.33333300  0.91774400  1
  O  O0  1  0.17103900  0.82896100  0.04200100  1
  O  O1  1  0.00231500  0.50115800  0.12581600  1
  O  O2  1  0.17103900  0.34207700  0.04200100  1
  O  O3  1  0.49884200  0.99768500  0.12581600  1
  O  O4  1  0.65792300  0.82896100  0.04200100  1
  O  O5  1  0.49884200  0.50115800  0.12581600  1
  O  O6  1  0.82825000  0.17175000  0.20889300  1
  O  O7  1  0.66032200  0.83016100  0.29206700  1
  O  O8  1  0.82825000  0.65650000  0.20889300  1
  O  O9  1  0.16983900  0.33967800  0.29206700  1
  O  O10  1  0.34350000  0.17175000  0.20889300  1
  O  O11  1  0.16983900  0.83016100  0.29206700  1
  O  O12  1  0.49772700  0.50227300  0.37434500  1
  O  O13  1  0.32769700  0.16384900  0.45901000  1
  O  O14  1  0.49772700  0.99545400  0.37434500  1
  O  O15  1  0.83615100  0.67230300  0.45901000  1
  O  O16  1  0.00454600  0.50227300  0.37434500  1
  O  O17  1  0.16415000  0.83585000  0.54121400  1
  O  O18  1  0.83615100  0.16384900  0.45901000  1
  O  O19  1  0.99478700  0.49739300  0.62537000  1
  O  O20  1  0.16415000  0.32830000  0.54121400  1
  O  O21  1  0.50260700  0.00521300  0.62537000  1
  O  O22  1  0.67170000  0.83585000  0.54121400  1
  O  O23  1  0.50260700  0.49739300  0.62537000  1
  O  O24  1  0.66162300  0.83081200  0.79215700  1
  O  O25  1  0.83066200  0.16933800  0.70773300  1
  O  O26  1  0.83066200  0.66132400  0.70773300  1
  O  O27  1  0.16918800  0.33837700  0.79215700  1
  O  O28  1  0.33867600  0.16933800  0.70773300  1
  O  O29  1  0.16918800  0.83081200  0.79215700  1
  O  O30  1  0.49778300  0.50221700  0.87387700  1
  O  O31  1  0.32585600  0.16292800  0.95540000  1
  O  O32  1  0.49778300  0.99556600  0.87387700  1
  O  O33  1  0.83707200  0.67414400  0.95540000  1
  O  O34  1  0.00443400  0.50221700  0.87387700  1
  O  O35  1  0.83707200  0.16292800  0.95540000  1
loop_
_geom_bond_atom_site_label_1
_geom_bond_atom_site_label_2
_geom_bond_distance
_geom_bond_site_symmetry_2
La0 O16 2.823142 1_655
La0 O14 2.823142 1_545
La0 O12 2.823145 1_555
La0 O6 2.826941 1_555
La0 O8 2.826944 1_555
La0 O10 2.826944 1_555
La0 O9 2.841780 1_655
La0 O7 2.841780 1_545
La0 O11 2.841783 1_655
La0 O11 2.841783 1_545
La0 O7 2.841786 1_555
La0 O9 2.841786 1_555
La1 O18 2.841731 1_565
La1 O18 2.841731 1_455
La1 O13 2.841731 1_555
La1 O15 2.841731 1_555
La1 O15 2.841731 1_455
La1 O13 2.841731 1_565
La1 O17 2.845043 1_555
La1 O20 2.845046 1_555
La1 O22 2.845046 1_555
La1 O14 2.854314 1_555
La1 O16 2.854314 1_555
La1 O12 2.854317 1_555
La2 O33 2.452949 1_445
La2 O31 2.452949 1_555
La2 O35 2.452949 1_455
La2 O30 2.872466 1_555
La2 O30 2.872466 1_445
La2 O32 2.872467 1_445
La2 O34 2.872467 1_555
La2 O34 2.872467 1_545
La2 O32 2.872467 1_545
La2 O29 3.172938 1_545
La2 O27 3.172941 1_555
La2 O24 3.172941 1_445
La3 O20 2.828093 1_555
La3 O22 2.828093 1_445
La3 O17 2.828093 1_545
La3 O21 2.841822 1_455
La3 O19 2.841822 1_455
La3 O23 2.841825 1_445
La3 O23 2.841825 1_555
La3 O21 2.841828 1_555
La3 O19 2.841828 1_445
La3 O28 2.862545 1_555
La3 O26 2.862545 1_445
La3 O25 2.862546 1_455
La4 O32 2.833047 1_545
La4 O34 2.833047 1_655
La4 O30 2.833050 1_555
La4 O24 2.841702 1_545
La4 O27 2.841702 1_655
La4 O29 2.841708 1_545
La4 O29 2.841708 1_655
La4 O27 2.841714 1_555
La4 O24 2.841714 1_555
La4 O25 2.845859 1_555
La4 O26 2.845862 1_555
La4 O28 2.845862 1_555
La5 O0 2.839256 1_556
La5 O4 2.839261 1_556
La5 O2 2.839261 1_556
La5 O31 2.842673 1_565
La5 O33 2.842673 1_455
La5 O35 2.842675 1_565
La5 O35 2.842675 1_455
La5 O33 2.842678 1_555
La5 O31 2.842678 1_555
La5 O32 2.850145 1_555
La5 O34 2.850145 1_555
La5 O30 2.850148 1_555
Co0 O31 2.022655 1_555
Co0 O33 2.022655 1_445
Co0 O35 2.022655 1_455
Co0 O2 2.058770 1_556
Co0 O4 2.058770 1_446
Co0 O0 2.058774 1_546
Co1 O9 2.042674 1_555
Co1 O7 2.042674 1_445
Co1 O11 2.042674 1_545
Co1 O10 2.043561 1_555
Co1 O8 2.043561 1_445
Co1 O6 2.043561 1_455
Co2 O18 2.037729 1_555
Co2 O15 2.037737 1_555
Co2 O13 2.037737 1_555
Co2 O16 2.046779 1_655
Co2 O14 2.046779 1_545
Co2 O12 2.046783 1_555
Co3 O17 2.037601 1_555
Co3 O20 2.037605 1_555
Co3 O22 2.037605 1_555
Co3 O21 2.038904 1_565
Co3 O19 2.038904 1_455
Co3 O23 2.038912 1_555
Co4 O29 2.036195 1_545
Co4 O27 2.036199 1_555
Co4 O24 2.036199 1_445
Co4 O26 2.045201 1_445
Co4 O28 2.045201 1_555
Co4 O25 2.045201 1_455
Co5 O35 1.979514 1_555
Co5 O33 1.979518 1_555
Co5 O31 1.979518 1_555
Co5 O34 2.064702 1_655
Co5 O32 2.064702 1_545
Co5 O30 2.064706 1_555
O0 Ta1 1.939705 1_555
O0 Sr3 2.846112 1_565
O0 Sr0 2.858861 1_565
O0 Sr0 2.858861 1_455
O1 Ta1 2.047076 1_555
O1 Ta0 2.051851 1_455
O1 Sr3 2.841945 1_565
O1 Sr3 2.841950 1_555
O1 Sr1 2.903404 1_555
O1 Sr0 3.123254 1_455
O2 Ta1 1.939713 1_555
O2 Sr3 2.846109 1_555
O2 Sr0 2.858861 1_455
O2 Sr0 2.858861 1_555
O3 Ta1 2.047076 1_555
O3 Ta0 2.051851 1_565
O3 Sr3 2.841945 1_565
O3 Sr3 2.841950 1_665
O3 Sr1 2.903404 1_555
O3 Sr0 3.123254 1_565
O4 Ta1 1.939713 1_555
O4 Sr3 2.846109 1_665
O4 Sr0 2.858861 1_565
O4 Sr0 2.858861 1_555
O5 Ta1 2.047077 1_555
O5 Ta0 2.051859 1_555
O5 Sr3 2.841947 1_555
O5 Sr3 2.841947 1_665
O5 Sr1 2.903404 1_555
O5 Sr0 3.123259 1_555
O6 Ta0 1.935009 1_555
O6 Sr1 2.843258 1_545
O6 Sr1 2.843258 1_655
O6 Sr3 2.906236 1_655
O7 Ta2 1.980709 1_555
O7 Sr1 2.756166 1_555
O7 Sr2 2.861431 1_665
O8 Ta0 1.935013 1_555
O8 Sr1 2.843255 1_655
O8 Sr1 2.843261 1_555
O8 Sr3 2.906236 1_665
O9 Ta2 1.980709 1_555
O9 Sr1 2.756166 1_555
O9 Sr2 2.861431 1_555
O10 Ta0 1.935013 1_555
O10 Sr1 2.843255 1_545
O10 Sr1 2.843261 1_555
O10 Sr3 2.906236 1_555
O11 Ta2 1.980705 1_555
O11 Sr1 2.756163 1_555
O11 Sr2 2.861431 1_565
O12 Ta2 1.980641 1_555
O12 Sr2 2.841773 1_555
O12 Sr2 2.841773 1_665
O13 Ta4 1.982275 1_555
O13 Sr2 2.840169 1_555
O13 Sr4 2.858150 1_555
O14 Ta2 1.980637 1_555
O14 Sr2 2.841773 1_665
O14 Sr2 2.841773 1_565
O15 Ta4 1.982275 1_665
O15 Sr2 2.840169 1_665
O15 Sr4 2.858150 1_555
O16 Ta2 1.980637 1_555
O16 Sr2 2.841773 1_555
O16 Sr2 2.841773 1_565
O17 Ta4 1.978743 1_565
O17 Sr4 2.841798 1_565
O17 Sr4 2.841798 1_455
O18 Ta4 1.982279 1_655
O18 Sr2 2.840171 1_655
O18 Sr4 2.858144 1_555
O19 Ta3 1.979004 1_555
O19 Sr5 2.828256 1_655
O19 Sr4 2.829237 1_555
O20 Ta4 1.978743 1_555
O20 Sr4 2.841795 1_455
O20 Sr4 2.841801 1_555
O21 Ta3 1.979004 1_555
O21 Sr5 2.828256 1_545
O21 Sr4 2.829237 1_555
O22 Ta4 1.978743 1_665
O22 Sr4 2.841795 1_565
O22 Sr4 2.841801 1_555
O23 Ta3 1.979004 1_555
O23 Sr5 2.828262 1_555
O23 Sr4 2.829237 1_555
O24 Ta5 1.959511 1_555
O24 Sr5 2.868685 1_555
O25 Ta3 1.985039 1_555
O25 Sr5 2.841725 1_545
O25 Sr5 2.841725 1_655
O26 Ta3 1.985043 1_555
O26 Sr5 2.841722 1_655
O26 Sr5 2.841728 1_555
O27 Ta5 1.959511 1_555
O27 Sr5 2.868685 1_555
O28 Ta3 1.985043 1_555
O28 Sr5 2.841722 1_545
O28 Sr5 2.841728 1_555
O29 Ta5 1.959511 1_555
O29 Sr5 2.868685 1_555
O30 Ta5 1.998802 1_555
O31 Sr0 2.692676 1_556
O32 Ta5 1.998798 1_555
O33 Sr0 2.692676 1_556
O34 Ta5 1.998798 1_555
O35 Sr0 2.692673 1_556
