# generated using pymatgen
data_Gd3(BiO4)2
_symmetry_space_group_name_H-M   'P 1'
_cell_length_a   6.85753715
_cell_length_b   6.85753715
_cell_length_c   9.63454685
_cell_angle_alpha   61.28180111
_cell_angle_beta   61.28180111
_cell_angle_gamma   32.15228604
_symmetry_Int_Tables_number   1
_chemical_formula_structural   Gd3(BiO4)2
_chemical_formula_sum   'Gd3 Bi2 O8'
_cell_volume   208.80134150
_cell_formula_units_Z   1
loop_
 _symmetry_equiv_pos_site_id
 _symmetry_equiv_pos_as_xyz
  1  'x, y, z'
loop_
 _atom_site_type_symbol
 _atom_site_label
 _atom_site_symmetry_multiplicity
 _atom_site_fract_x
 _atom_site_fract_y
 _atom_site_fract_z
 _atom_site_occupancy
  Gd  Gd0  1  0.19213200  0.19213200  0.23127600  1
  Gd  Gd1  1  0.57823100  0.57823100  0.60930000  1
  Gd  Gd2  1  0.02258400  0.02258400  0.98587000  1
  Bi  Bi0  1  0.40371600  0.40371600  0.36852100  1
  Bi  Bi1  1  0.79958700  0.79958700  0.80191900  1
  O  O0  1  0.39591900  0.39591900  0.12286600  1
  O  O1  1  0.99525900  0.99525900  0.24967900  1
  O  O2  1  0.61070700  0.61070700  0.34322800  1
  O  O3  1  0.19884200  0.19884200  0.47954500  1
  O  O4  1  0.38484100  0.38484100  0.63308100  1
  O  O5  1  0.97631000  0.97631000  0.78068500  1
  O  O6  1  0.62317900  0.62317900  0.81949400  1
  O  O7  1  0.21199200  0.21199200  0.97453700  1
loop_
_geom_bond_atom_site_label_1
_geom_bond_atom_site_label_2
_geom_bond_distance
_geom_bond_site_symmetry_2
Gd0 O2 2.182509 1_545
Gd0 O2 2.182509 1_455
Gd0 O0 2.344835 1_555
Gd0 O7 2.353623 1_554
Gd0 O3 2.437382 1_555
Gd0 O1 2.510575 1_445
Gd1 O6 2.377341 1_555
Gd1 O2 2.378518 1_555
Gd1 O3 2.389152 1_655
Gd1 O3 2.389152 1_565
Gd1 O5 2.432806 1_455
Gd1 O5 2.432806 1_545
Gd1 O4 2.442138 1_555
Gd2 O5 2.342132 1_445
Gd2 O1 2.382106 1_446
Gd2 O6 2.409918 1_545
Gd2 O6 2.409918 1_455
Gd2 O0 2.435389 1_546
Gd2 O0 2.435389 1_456
Gd2 O7 2.443389 1_555
Bi0 O1 2.234049 1_455
Bi0 O1 2.234049 1_545
Bi0 O3 2.354926 1_555
Bi0 O0 2.419794 1_555
Bi0 O4 2.434078 1_555
Bi0 O2 2.614554 1_555
Bi1 O5 2.233722 1_555
Bi1 O6 2.244956 1_555
Bi1 O4 2.384658 1_655
Bi1 O4 2.384658 1_565
Bi1 O7 2.405087 1_565
Bi1 O7 2.405087 1_655
