# generated using pymatgen
data_Ba(HoTe2)2
_symmetry_space_group_name_H-M   'P 1'
_cell_length_a   4.46880363
_cell_length_b   13.76778327
_cell_length_c   16.21575645
_cell_angle_alpha   90.00000000
_cell_angle_beta   90.00000000
_cell_angle_gamma   90.00000000
_symmetry_Int_Tables_number   1
_chemical_formula_structural   Ba(HoTe2)2
_chemical_formula_sum   'Ba4 Ho8 Te16'
_cell_volume   997.68284541
_cell_formula_units_Z   4
loop_
 _symmetry_equiv_pos_site_id
 _symmetry_equiv_pos_as_xyz
  1  'x, y, z'
loop_
 _atom_site_type_symbol
 _atom_site_label
 _atom_site_symmetry_multiplicity
 _atom_site_fract_x
 _atom_site_fract_y
 _atom_site_fract_z
 _atom_site_occupancy
  Ba  Ba0  1  0.75000000  0.26129194  0.83050212  1
  Ba  Ba1  1  0.25000000  0.73870806  0.16949788  1
  Ba  Ba2  1  0.75000000  0.76129194  0.66949788  1
  Ba  Ba3  1  0.25000000  0.23870806  0.33050212  1
  Ho  Ho0  1  0.25000000  0.08091969  0.59676690  1
  Ho  Ho1  1  0.75000000  0.91908031  0.40323310  1
  Ho  Ho2  1  0.25000000  0.58091969  0.90323310  1
  Ho  Ho3  1  0.75000000  0.41908031  0.09676690  1
  Ho  Ho4  1  0.75000000  0.94111500  0.89015875  1
  Ho  Ho5  1  0.25000000  0.05888500  0.10984125  1
  Ho  Ho6  1  0.75000000  0.44111500  0.60984125  1
  Ho  Ho7  1  0.25000000  0.55888500  0.39015875  1
  Te  Te0  1  0.25000000  0.47259686  0.21574562  1
  Te  Te1  1  0.75000000  0.52740314  0.78425438  1
  Te  Te2  1  0.25000000  0.97259686  0.28425438  1
  Te  Te3  1  0.75000000  0.02740314  0.71574562  1
  Te  Te4  1  0.25000000  0.37397387  0.97192440  1
  Te  Te5  1  0.75000000  0.62602613  0.02807560  1
  Te  Te6  1  0.25000000  0.87397387  0.52807560  1
  Te  Te7  1  0.75000000  0.12602613  0.47192440  1
  Te  Te8  1  0.25000000  0.29570408  0.65934803  1
  Te  Te9  1  0.75000000  0.70429592  0.34065197  1
  Te  Te10  1  0.25000000  0.79570408  0.84065197  1
  Te  Te11  1  0.75000000  0.20429592  0.15934803  1
  Te  Te12  1  0.75000000  0.41065380  0.42432184  1
  Te  Te13  1  0.25000000  0.58934620  0.57567816  1
  Te  Te14  1  0.75000000  0.91065380  0.07567816  1
  Te  Te15  1  0.25000000  0.08934620  0.92432184  1
loop_
_geom_bond_atom_site_label_1
_geom_bond_atom_site_label_2
_geom_bond_distance
_geom_bond_site_symmetry_2
Ba0 Te4 3.557867 1_555
Ba0 Te4 3.557867 1_655
Ba0 Te15 3.593222 1_555
Ba0 Te15 3.593222 1_655
Ba0 Te8 3.594416 1_655
Ba0 Te8 3.594416 1_555
Ba0 Te3 3.719147 1_555
Ba0 Te1 3.739727 1_555
Ba1 Te5 3.557867 1_555
Ba1 Te5 3.557867 1_455
Ba1 Te14 3.593222 1_555
Ba1 Te14 3.593222 1_455
Ba1 Te9 3.594416 1_555
Ba1 Te9 3.594416 1_455
Ba1 Te2 3.719147 1_555
Ba1 Te0 3.739727 1_555
Ba2 Te6 3.557867 1_555
Ba2 Te6 3.557867 1_655
Ba2 Te13 3.593222 1_555
Ba2 Te13 3.593222 1_655
Ba2 Te10 3.594416 1_555
Ba2 Te10 3.594416 1_655
Ba2 Te1 3.719147 1_555
Ba2 Te3 3.739727 1_565
Ba3 Te7 3.557867 1_555
Ba3 Te7 3.557867 1_455
Ba3 Te12 3.593222 1_455
Ba3 Te12 3.593222 1_555
Ba3 Te11 3.594416 1_455
Ba3 Te11 3.594416 1_555
Ba3 Te0 3.719147 1_555
Ba3 Te2 3.739727 1_545
Ho0 Te3 3.042654 1_455
Ho0 Te3 3.042654 1_555
Ho0 Te6 3.059181 1_545
Ho0 Te7 3.078388 1_555
Ho0 Te7 3.078388 1_455
Ho0 Te8 3.126386 1_555
Ho1 Te2 3.042654 1_555
Ho1 Te2 3.042654 1_655
Ho1 Te7 3.059181 1_565
Ho1 Te6 3.078388 1_555
Ho1 Te6 3.078388 1_655
Ho1 Te9 3.126386 1_555
Ho2 Te1 3.042654 1_455
Ho2 Te1 3.042654 1_555
Ho2 Te4 3.059181 1_555
Ho2 Te5 3.078388 1_456
Ho2 Te5 3.078388 1_556
Ho2 Te10 3.126386 1_555
Ho3 Te0 3.042654 1_555
Ho3 Te0 3.042654 1_655
Ho3 Te5 3.059181 1_555
Ho3 Te4 3.078388 1_554
Ho3 Te4 3.078388 1_654
Ho3 Te11 3.126386 1_555
Ho4 Te14 3.037429 1_556
Ho4 Te3 3.067618 1_565
Ho4 Te15 3.076422 1_565
Ho4 Te15 3.076422 1_665
Ho4 Te10 3.105635 1_555
Ho4 Te10 3.105635 1_655
Ho5 Te15 3.037429 1_554
Ho5 Te2 3.067618 1_545
Ho5 Te14 3.076422 1_445
Ho5 Te14 3.076422 1_545
Ho5 Te11 3.105635 1_555
Ho5 Te11 3.105635 1_455
Ho6 Te12 3.037429 1_555
Ho6 Te1 3.067618 1_555
Ho6 Te13 3.076422 1_555
Ho6 Te13 3.076422 1_655
Ho6 Te8 3.105635 1_555
Ho6 Te8 3.105635 1_655
Ho7 Te13 3.037429 1_555
Ho7 Te0 3.067618 1_555
Ho7 Te12 3.076422 1_455
Ho7 Te12 3.076422 1_555
Ho7 Te9 3.105635 1_555
Ho7 Te9 3.105635 1_455
