# generated using pymatgen
data_Nb2VMo
_symmetry_space_group_name_H-M   'P 1'
_cell_length_a   10.45909083
_cell_length_b   10.45909083
_cell_length_c   10.45909083
_cell_angle_alpha   128.53149569
_cell_angle_beta   117.31266700
_cell_angle_gamma   85.30849477
_symmetry_Int_Tables_number   1
_chemical_formula_structural   Nb2VMo
_chemical_formula_sum   'Nb2 V1 Mo1'
_cell_volume   760.20613129
_cell_formula_units_Z   1
loop_
 _symmetry_equiv_pos_site_id
 _symmetry_equiv_pos_as_xyz
  1  'x, y, z'
loop_
 _atom_site_type_symbol
 _atom_site_label
 _atom_site_symmetry_multiplicity
 _atom_site_fract_x
 _atom_site_fract_y
 _atom_site_fract_z
 _atom_site_occupancy
  Nb  Nb0  1  0.00000000  0.25479700  0.25479700  1
  Nb  Nb1  1  0.00000000  0.74520300  0.74520300  1
  V  V0  1  0.00000000  0.00000000  0.00000000  1
  Mo  Mo0  1  0.00000000  0.50000000  0.50000000  1
loop_
_geom_bond_atom_site_label_1
_geom_bond_atom_site_label_2
_geom_bond_distance
_geom_bond_site_symmetry_2
Nb0 V0 2.314226 1_555
Nb1 V0 2.314226 1_566
Mo0 Nb1 2.227087 1_555
Mo0 Nb0 2.227087 1_555
