# generated using pymatgen
data_TmCuSb2
_symmetry_space_group_name_H-M   'P 1'
_cell_length_a   4.26286905
_cell_length_b   4.26286905
_cell_length_c   9.77062813
_cell_angle_alpha   90.00000000
_cell_angle_beta   90.00000000
_cell_angle_gamma   90.00000000
_symmetry_Int_Tables_number   1
_chemical_formula_structural   TmCuSb2
_chemical_formula_sum   'Tm2 Cu2 Sb4'
_cell_volume   177.55236770
_cell_formula_units_Z   2
loop_
 _symmetry_equiv_pos_site_id
 _symmetry_equiv_pos_as_xyz
  1  'x, y, z'
loop_
 _atom_site_type_symbol
 _atom_site_label
 _atom_site_symmetry_multiplicity
 _atom_site_fract_x
 _atom_site_fract_y
 _atom_site_fract_z
 _atom_site_occupancy
  Tm  Tm0  1  -0.00000000  0.50000000  0.75350745  1
  Tm  Tm1  1  0.50000000  -0.00000000  0.24649255  1
  Cu  Cu0  1  0.50000000  0.50000000  0.50000000  1
  Cu  Cu1  1  0.00000000  -0.00000000  0.50000000  1
  Sb  Sb0  1  0.50000000  0.50000000  0.00000000  1
  Sb  Sb1  1  0.00000000  -0.00000000  0.00000000  1
  Sb  Sb2  1  -0.00000000  0.50000000  0.33934139  1
  Sb  Sb3  1  0.50000000  -0.00000000  0.66065861  1
loop_
_geom_bond_atom_site_label_1
_geom_bond_atom_site_label_2
_geom_bond_distance
_geom_bond_site_symmetry_2
Cu0 Sb2 2.647089 1_555
Cu0 Sb2 2.647089 1_655
Cu0 Sb3 2.647089 1_555
Cu0 Sb3 2.647089 1_565
Cu0 Cu1 3.014304 1_565
Cu0 Cu1 3.014304 1_655
Cu0 Cu1 3.014304 1_555
Cu0 Cu1 3.014304 1_665
Cu0 Tm1 3.267749 1_565
Cu0 Tm1 3.267749 1_555
Cu0 Tm0 3.267749 1_555
Cu0 Tm0 3.267749 1_655
Cu1 Sb2 2.647089 1_545
Cu1 Sb2 2.647089 1_555
Cu1 Sb3 2.647089 1_555
Cu1 Sb3 2.647089 1_455
Cu1 Tm0 3.267749 1_545
Cu1 Tm1 3.267749 1_555
Cu1 Tm0 3.267749 1_555
Cu1 Tm1 3.267749 1_455
Sb0 Sb1 3.014304 1_565
Sb0 Sb1 3.014304 1_655
Sb0 Sb1 3.014304 1_555
Sb0 Sb1 3.014304 1_665
Sb0 Tm0 3.216107 1_554
Sb0 Tm1 3.216107 1_565
Sb0 Tm0 3.216107 1_654
Sb0 Tm1 3.216107 1_555
Sb1 Tm0 3.216107 1_554
Sb1 Tm1 3.216107 1_455
Sb1 Tm0 3.216107 1_544
Sb1 Tm1 3.216107 1_555
Sb2 Tm1 3.147860 1_455
Sb2 Tm1 3.147860 1_565
Sb2 Tm1 3.147860 1_555
Sb2 Tm1 3.147860 1_465
Sb3 Tm0 3.147860 1_645
Sb3 Tm0 3.147860 1_545
Sb3 Tm0 3.147860 1_555
Sb3 Tm0 3.147860 1_655
