# generated using pymatgen
data_Ca7IrN6
_symmetry_space_group_name_H-M   'P 1'
_cell_length_a   6.37061675
_cell_length_b   9.06619589
_cell_length_c   9.06619589
_cell_angle_alpha   80.96650067
_cell_angle_beta   69.43076593
_cell_angle_gamma   69.43076593
_symmetry_Int_Tables_number   1
_chemical_formula_structural   Ca7IrN6
_chemical_formula_sum   'Ca14 Ir2 N12'
_cell_volume   458.66437683
_cell_formula_units_Z   2
loop_
 _symmetry_equiv_pos_site_id
 _symmetry_equiv_pos_as_xyz
  1  'x, y, z'
loop_
 _atom_site_type_symbol
 _atom_site_label
 _atom_site_symmetry_multiplicity
 _atom_site_fract_x
 _atom_site_fract_y
 _atom_site_fract_z
 _atom_site_occupancy
  Ca  Ca0  1  0.27568092  0.95424956  0.04575044  1
  Ca  Ca1  1  0.72431908  0.04575044  0.95424956  1
  Ca  Ca2  1  0.22431908  0.45424956  0.54575044  1
  Ca  Ca3  1  0.77568092  0.54575044  0.45424956  1
  Ca  Ca4  1  0.75923442  0.14976498  0.58978395  1
  Ca  Ca5  1  0.50121664  0.58978395  0.14976498  1
  Ca  Ca6  1  0.74076558  0.91021605  0.35023502  1
  Ca  Ca7  1  0.99878336  0.35023502  0.91021605  1
  Ca  Ca8  1  0.24076558  0.85023502  0.41021605  1
  Ca  Ca9  1  0.49878336  0.41021605  0.85023502  1
  Ca  Ca10  1  0.25923442  0.08978395  0.64976498  1
  Ca  Ca11  1  0.00121664  0.64976498  0.08978395  1
  Ca  Ca12  1  0.25000000  0.25000000  0.25000000  1
  Ca  Ca13  1  0.75000000  0.75000000  0.75000000  1
  Ir  Ir0  1  0.75000000  0.25000000  0.25000000  1
  Ir  Ir1  1  0.25000000  0.75000000  0.75000000  1
  N  N0  1  0.00256486  0.07746621  0.31432507  1
  N  N1  1  0.60564387  0.31432507  0.07746621  1
  N  N2  1  0.49743514  0.18567493  0.42253379  1
  N  N3  1  0.89435613  0.42253379  0.18567493  1
  N  N4  1  0.99743514  0.92253379  0.68567493  1
  N  N5  1  0.39435613  0.68567493  0.92253379  1
  N  N6  1  0.50256486  0.81432507  0.57746621  1
  N  N7  1  0.10564387  0.57746621  0.81432507  1
  N  N8  1  0.89364050  0.35119678  0.64880322  1
  N  N9  1  0.10635950  0.64880322  0.35119678  1
  N  N10  1  0.60635950  0.85119678  0.14880322  1
  N  N11  1  0.39364050  0.14880322  0.85119678  1
loop_
_geom_bond_atom_site_label_1
_geom_bond_atom_site_label_2
_geom_bond_distance
_geom_bond_site_symmetry_2
Ca0 N11 2.410423 1_564
Ca0 N10 2.430963 1_555
Ca0 N5 2.591457 1_554
Ca0 N0 2.591457 1_565
Ca1 N10 2.410423 1_546
Ca1 N11 2.430963 1_555
Ca1 N1 2.591457 1_556
Ca1 N4 2.591457 1_545
Ca2 N9 2.410423 1_555
Ca2 N8 2.430963 1_455
Ca2 N7 2.591457 1_555
Ca2 N2 2.591457 1_555
Ca3 N8 2.410423 1_555
Ca3 N9 2.430963 1_655
Ca3 N3 2.591457 1_555
Ca3 N6 2.591457 1_555
Ca4 N4 2.338919 1_545
Ca4 N8 2.466197 1_555
Ca4 N0 2.479768 1_655
Ca4 N2 2.535219 1_555
Ca4 N11 2.677806 1_555
Ca5 N5 2.338919 1_554
Ca5 N9 2.466197 1_555
Ca5 N1 2.479768 1_555
Ca5 N3 2.535219 1_555
Ca5 N10 2.677806 1_555
Ca6 N6 2.338919 1_555
Ca6 N10 2.466197 1_555
Ca6 N2 2.479768 1_565
Ca6 N0 2.535219 1_665
Ca6 N9 2.677806 1_655
Ca7 N7 2.338919 1_655
Ca7 N11 2.466197 1_655
Ca7 N3 2.479768 1_556
Ca7 N1 2.535219 1_556
Ca7 N8 2.677806 1_555
Ca8 N0 2.338919 1_565
Ca8 N9 2.466197 1_555
Ca8 N4 2.479768 1_455
Ca8 N6 2.535219 1_555
Ca8 N10 2.677806 1_555
Ca9 N1 2.338919 1_556
Ca9 N8 2.466197 1_555
Ca9 N5 2.479768 1_555
Ca9 N7 2.535219 1_555
Ca9 N11 2.677806 1_555
Ca10 N2 2.338919 1_555
Ca10 N11 2.466197 1_555
Ca10 N6 2.479768 1_545
Ca10 N4 2.535219 1_445
Ca10 N8 2.677806 1_455
Ca11 N3 2.338919 1_455
Ca11 N10 2.466197 1_455
Ca11 N7 2.479768 1_554
Ca11 N5 2.535219 1_554
Ca11 N9 2.677806 1_555
Ca12 N2 2.464113 1_555
Ca12 N0 2.464113 1_555
Ca12 N1 2.464113 1_555
Ca12 N3 2.464113 1_455
Ca13 N6 2.464113 1_555
Ca13 N4 2.464113 1_555
Ca13 N7 2.464113 1_655
Ca13 N5 2.464113 1_555
Ir0 N1 1.995027 1_555
Ir0 N3 1.995027 1_555
Ir0 N0 1.995027 1_655
Ir0 N2 1.995027 1_555
Ir1 N7 1.995027 1_555
Ir1 N5 1.995027 1_555
Ir1 N6 1.995027 1_555
Ir1 N4 1.995027 1_455
