# generated using pymatgen
data_NaMn2O4
_symmetry_space_group_name_H-M   'P 1'
_cell_length_a   6.02010216
_cell_length_b   6.24690289
_cell_length_c   5.93927210
_cell_angle_alpha   61.62427420
_cell_angle_beta   89.98147288
_cell_angle_gamma   118.77821475
_symmetry_Int_Tables_number   1
_chemical_formula_structural   NaMn2O4
_chemical_formula_sum   'Na2 Mn4 O8'
_cell_volume   164.47145226
_cell_formula_units_Z   2
loop_
 _symmetry_equiv_pos_site_id
 _symmetry_equiv_pos_as_xyz
  1  'x, y, z'
loop_
 _atom_site_type_symbol
 _atom_site_label
 _atom_site_symmetry_multiplicity
 _atom_site_fract_x
 _atom_site_fract_y
 _atom_site_fract_z
 _atom_site_occupancy
  Na  Na0  1  0.00960600  0.01967800  0.99021000  1
  Na  Na1  1  0.74048100  0.48036400  0.75977000  1
  Mn  Mn0  1  0.37506400  0.24996500  0.37507200  1
  Mn  Mn1  1  0.87496800  0.24987800  0.37496300  1
  Mn  Mn2  1  0.37487300  0.74992000  0.37484900  1
  Mn  Mn3  1  0.37480900  0.74982200  0.87527500  1
  O  O0  1  0.15981100  0.31967300  0.12514500  1
  O  O1  1  0.59032300  0.18041100  0.19471200  1
  O  O2  1  0.57850900  0.73971100  0.13006600  1
  O  O3  1  0.16143200  0.74015900  0.13002500  1
  O  O4  1  0.59025500  0.18040300  0.62486100  1
  O  O5  1  0.15971700  0.31964900  0.55522100  1
  O  O6  1  0.58859800  0.75993100  0.61996500  1
  O  O7  1  0.17155500  0.76043600  0.61986700  1
loop_
_geom_bond_atom_site_label_1
_geom_bond_atom_site_label_2
_geom_bond_distance
_geom_bond_site_symmetry_2
Na0 O2 2.175216 1_446
Na0 O3 2.175519 1_546
Na0 O0 2.183654 1_556
Na0 O5 2.183823 1_555
Na1 O7 2.175136 1_655
Na1 O6 2.176043 1_555
Na1 O4 2.183357 1_555
Na1 O1 2.183596 1_556
Mn0 O4 1.999635 1_555
Mn0 O1 1.999804 1_555
Mn0 O5 2.000039 1_555
Mn0 O0 2.000601 1_555
Mn0 O7 2.265375 1_545
Mn0 O2 2.266481 1_555
Mn1 O0 1.998913 1_655
Mn1 O1 1.999397 1_555
Mn1 O4 1.999722 1_555
Mn1 O5 2.000007 1_655
Mn1 O6 2.267562 1_545
Mn1 O3 2.269041 1_655
Mn2 O3 1.944007 1_555
Mn2 O2 1.944943 1_555
Mn2 O7 1.946099 1_555
Mn2 O6 1.946543 1_555
Mn2 O5 1.989975 1_555
Mn2 O1 1.991196 1_565
Mn3 O3 1.944286 1_556
Mn3 O2 1.944919 1_556
Mn3 O7 1.945876 1_555
Mn3 O6 1.946596 1_555
Mn3 O0 1.989420 1_556
Mn3 O4 1.991600 1_565
