# generated using pymatgen
data_NaGe2(PO4)3
_symmetry_space_group_name_H-M   'P 1'
_cell_length_a   8.68668617
_cell_length_b   8.68668617
_cell_length_c   8.68668625
_cell_angle_alpha   57.45533948
_cell_angle_beta   57.45533948
_cell_angle_gamma   57.45533956
_symmetry_Int_Tables_number   1
_chemical_formula_structural   NaGe2(PO4)3
_chemical_formula_sum   'Na2 Ge4 P6 O24'
_cell_volume   436.36467521
_cell_formula_units_Z   2
loop_
 _symmetry_equiv_pos_site_id
 _symmetry_equiv_pos_as_xyz
  1  'x, y, z'
loop_
 _atom_site_type_symbol
 _atom_site_label
 _atom_site_symmetry_multiplicity
 _atom_site_fract_x
 _atom_site_fract_y
 _atom_site_fract_z
 _atom_site_occupancy
  Na  Na0  1  0.00000000  0.00000000  0.00000000  1
  Na  Na1  1  0.50000000  0.50000000  0.50000000  1
  Ge  Ge0  1  0.35467000  0.35467000  0.35467000  1
  Ge  Ge1  1  0.14533000  0.14533000  0.14533000  1
  Ge  Ge2  1  0.85467000  0.85467000  0.85467000  1
  Ge  Ge3  1  0.64533000  0.64533000  0.64533000  1
  P  P0  1  0.46454300  0.75000000  0.03545700  1
  P  P1  1  0.03545700  0.46454300  0.75000000  1
  P  P2  1  0.53545700  0.25000000  0.96454300  1
  P  P3  1  0.96454300  0.53545700  0.25000000  1
  P  P4  1  0.75000000  0.03545700  0.46454300  1
  P  P5  1  0.25000000  0.96454300  0.53545700  1
  O  O0  1  0.43082100  0.77796900  0.55906900  1
  O  O1  1  0.55906900  0.43082100  0.77796900  1
  O  O2  1  0.77796900  0.55906900  0.43082100  1
  O  O3  1  0.06917900  0.94093100  0.72203100  1
  O  O4  1  0.72203100  0.06917900  0.94093100  1
  O  O5  1  0.94093100  0.72203100  0.06917900  1
  O  O6  1  0.56917900  0.22203100  0.44093100  1
  O  O7  1  0.44093100  0.56917900  0.22203100  1
  O  O8  1  0.22203100  0.44093100  0.56917900  1
  O  O9  1  0.93082100  0.05906900  0.27796900  1
  O  O10  1  0.27796900  0.93082100  0.05906900  1
  O  O11  1  0.05906900  0.27796900  0.93082100  1
  O  O12  1  0.98617200  0.35923500  0.22868800  1
  O  O13  1  0.35923500  0.22868900  0.98617200  1
  O  O14  1  0.22868800  0.98617200  0.35923500  1
  O  O15  1  0.14076500  0.51382800  0.27131200  1
  O  O16  1  0.51382800  0.27131100  0.14076500  1
  O  O17  1  0.27131200  0.14076500  0.51382800  1
  O  O18  1  0.01382800  0.64076500  0.77131100  1
  O  O19  1  0.64076500  0.77131100  0.01382800  1
  O  O20  1  0.77131200  0.01382800  0.64076500  1
  O  O21  1  0.85923500  0.48617200  0.72868900  1
  O  O22  1  0.48617200  0.72868900  0.85923500  1
  O  O23  1  0.72868900  0.85923500  0.48617200  1
loop_
_geom_bond_atom_site_label_1
_geom_bond_atom_site_label_2
_geom_bond_distance
_geom_bond_site_symmetry_2
Na0 O11 2.427948 1_554
Na0 O5 2.427948 1_445
Na0 O10 2.427948 1_545
Na0 O4 2.427948 1_454
Na0 O9 2.427948 1_455
Na0 O3 2.427948 1_544
Na1 O2 2.427948 1_555
Na1 O8 2.427948 1_555
Na1 O0 2.427948 1_555
Na1 O6 2.427948 1_555
Na1 O1 2.427948 1_555
Na1 O7 2.427948 1_555
Ge0 O17 1.869476 1_555
Ge0 O15 1.869476 1_555
Ge0 O16 1.869481 1_555
Ge0 O7 1.903838 1_555
Ge0 O6 1.903838 1_555
Ge0 O8 1.903838 1_555
Ge1 O12 1.869476 1_455
Ge1 O14 1.869476 1_545
Ge1 O13 1.869481 1_554
Ge1 O9 1.903838 1_455
Ge1 O10 1.903838 1_545
Ge1 O11 1.903838 1_554
Ge2 O20 1.869476 1_565
Ge2 O19 1.869481 1_556
Ge2 O18 1.869481 1_655
Ge2 O3 1.903838 1_655
Ge2 O4 1.903838 1_565
Ge2 O5 1.903838 1_556
Ge3 O23 1.869481 1_555
Ge3 O21 1.869481 1_555
Ge3 O22 1.869481 1_555
Ge3 O1 1.903838 1_555
Ge3 O0 1.903838 1_555
Ge3 O2 1.903838 1_555
O0 P5 1.544665 1_555
O1 P2 1.544665 1_555
O2 P3 1.544665 1_555
O3 P5 1.544665 1_555
O4 P2 1.544665 1_555
O5 P3 1.544665 1_555
O6 P4 1.544665 1_555
O7 P0 1.544665 1_555
O8 P1 1.544665 1_555
O9 P4 1.544665 1_555
O10 P0 1.544665 1_555
O11 P1 1.544665 1_555
O12 P3 1.539779 1_555
O13 P2 1.539774 1_555
O14 P5 1.539779 1_555
O15 P3 1.539779 1_455
O16 P2 1.539774 1_554
O17 P5 1.539779 1_545
O18 P1 1.539774 1_555
O19 P0 1.539774 1_555
O20 P4 1.539779 1_555
O21 P1 1.539774 1_655
O22 P0 1.539774 1_556
O23 P4 1.539774 1_565
