# generated using pymatgen
data_HfMg30BiO32
_symmetry_space_group_name_H-M   'P 1'
_cell_length_a   8.74376100
_cell_length_b   8.74376100
_cell_length_c   8.65375500
_cell_angle_alpha   90.00000000
_cell_angle_beta   90.00000000
_cell_angle_gamma   90.00000000
_symmetry_Int_Tables_number   1
_chemical_formula_structural   HfMg30BiO32
_chemical_formula_sum   'Hf1 Mg30 Bi1 O32'
_cell_volume   661.60861543
_cell_formula_units_Z   1
loop_
 _symmetry_equiv_pos_site_id
 _symmetry_equiv_pos_as_xyz
  1  'x, y, z'
loop_
 _atom_site_type_symbol
 _atom_site_label
 _atom_site_symmetry_multiplicity
 _atom_site_fract_x
 _atom_site_fract_y
 _atom_site_fract_z
 _atom_site_occupancy
  Hf  Hf0  1  0.50000000  0.50000000  0.00000000  1
  Mg  Mg0  1  0.50000000  0.00000000  0.00000000  1
  Mg  Mg1  1  0.00000000  0.50000000  0.00000000  1
  Mg  Mg2  1  0.00000000  0.00000000  0.50000000  1
  Mg  Mg3  1  0.50000000  0.00000000  0.50000000  1
  Mg  Mg4  1  0.00000000  0.50000000  0.50000000  1
  Mg  Mg5  1  0.50000000  0.50000000  0.50000000  1
  Mg  Mg6  1  0.24421200  0.24421200  0.00000000  1
  Mg  Mg7  1  0.75578800  0.24421200  0.00000000  1
  Mg  Mg8  1  0.24421200  0.75578800  0.00000000  1
  Mg  Mg9  1  0.75578800  0.75578800  0.00000000  1
  Mg  Mg10  1  0.24887500  0.24887500  0.50000000  1
  Mg  Mg11  1  0.75112500  0.24887500  0.50000000  1
  Mg  Mg12  1  0.24887500  0.75112500  0.50000000  1
  Mg  Mg13  1  0.75112500  0.75112500  0.50000000  1
  Mg  Mg14  1  0.25179400  0.00000000  0.25323800  1
  Mg  Mg15  1  0.74820600  0.00000000  0.25323800  1
  Mg  Mg16  1  0.24279200  0.50000000  0.25682000  1
  Mg  Mg17  1  0.75720800  0.50000000  0.25682000  1
  Mg  Mg18  1  0.25179400  0.00000000  0.74676200  1
  Mg  Mg19  1  0.74820600  0.00000000  0.74676200  1
  Mg  Mg20  1  0.24279200  0.50000000  0.74318000  1
  Mg  Mg21  1  0.75720800  0.50000000  0.74318000  1
  Mg  Mg22  1  0.00000000  0.25179400  0.25323800  1
  Mg  Mg23  1  0.50000000  0.24279200  0.25682000  1
  Mg  Mg24  1  0.00000000  0.74820600  0.25323800  1
  Mg  Mg25  1  0.50000000  0.75720800  0.25682000  1
  Mg  Mg26  1  0.00000000  0.25179400  0.74676200  1
  Mg  Mg27  1  0.50000000  0.24279200  0.74318000  1
  Mg  Mg28  1  0.00000000  0.74820600  0.74676200  1
  Mg  Mg29  1  0.50000000  0.75720800  0.74318000  1
  Bi  Bi0  1  0.00000000  0.00000000  0.00000000  1
  O  O0  1  0.00000000  0.00000000  0.28006100  1
  O  O1  1  0.50000000  0.00000000  0.25700200  1
  O  O2  1  0.00000000  0.50000000  0.25700200  1
  O  O3  1  0.50000000  0.50000000  0.24452600  1
  O  O4  1  0.00000000  0.00000000  0.71993900  1
  O  O5  1  0.50000000  0.00000000  0.74299800  1
  O  O6  1  0.00000000  0.50000000  0.74299800  1
  O  O7  1  0.50000000  0.50000000  0.75547400  1
  O  O8  1  0.25262000  0.25262000  0.25063200  1
  O  O9  1  0.74738000  0.25262000  0.25063200  1
  O  O10  1  0.25262000  0.74738000  0.25063200  1
  O  O11  1  0.74738000  0.74738000  0.25063200  1
  O  O12  1  0.25262000  0.25262000  0.74936800  1
  O  O13  1  0.74738000  0.25262000  0.74936800  1
  O  O14  1  0.25262000  0.74738000  0.74936800  1
  O  O15  1  0.74738000  0.74738000  0.74936800  1
  O  O16  1  0.28685800  0.00000000  0.00000000  1
  O  O17  1  0.71314200  0.00000000  0.00000000  1
  O  O18  1  0.26073900  0.50000000  0.00000000  1
  O  O19  1  0.73926100  0.50000000  0.00000000  1
  O  O20  1  0.25631800  0.00000000  0.50000000  1
  O  O21  1  0.74368200  0.00000000  0.50000000  1
  O  O22  1  0.25408300  0.50000000  0.50000000  1
  O  O23  1  0.74591700  0.50000000  0.50000000  1
  O  O24  1  0.00000000  0.28685800  0.00000000  1
  O  O25  1  0.50000000  0.26073900  0.00000000  1
  O  O26  1  0.00000000  0.71314200  0.00000000  1
  O  O27  1  0.50000000  0.73926100  0.00000000  1
  O  O28  1  0.00000000  0.25631800  0.50000000  1
  O  O29  1  0.50000000  0.25408300  0.50000000  1
  O  O30  1  0.00000000  0.74368200  0.50000000  1
  O  O31  1  0.50000000  0.74591700  0.50000000  1
loop_
_geom_bond_atom_site_label_1
_geom_bond_atom_site_label_2
_geom_bond_distance
_geom_bond_site_symmetry_2
Hf0 O19 2.092041 1_555
Hf0 O27 2.092041 1_555
Hf0 O25 2.092041 1_555
Hf0 O18 2.092041 1_555
Hf0 O7 2.116068 1_554
Hf0 O3 2.116068 1_555
Mg0 O17 1.863663 1_555
Mg0 O16 1.863663 1_555
Mg0 O1 2.224032 1_555
Mg0 O5 2.224032 1_554
Mg0 O25 2.279839 1_555
Mg0 O27 2.279839 1_545
Mg1 O26 1.863663 1_555
Mg1 O24 1.863663 1_555
Mg1 O2 2.224032 1_555
Mg1 O6 2.224032 1_554
Mg1 O18 2.279839 1_555
Mg1 O19 2.279839 1_455
Mg2 O0 1.903298 1_555
Mg2 O4 1.903298 1_555
Mg2 O20 2.241183 1_555
Mg2 O28 2.241183 1_555
Mg2 O30 2.241183 1_545
Mg2 O21 2.241183 1_455
Mg3 O5 2.102845 1_555
Mg3 O1 2.102845 1_555
Mg3 O21 2.130697 1_555
Mg3 O20 2.130697 1_555
Mg3 O29 2.221641 1_555
Mg3 O31 2.221641 1_545
Mg4 O6 2.102845 1_555
Mg4 O2 2.102845 1_555
Mg4 O30 2.130697 1_555
Mg4 O28 2.130697 1_555
Mg4 O22 2.221641 1_555
Mg4 O23 2.221641 1_455
Mg5 O31 2.150239 1_555
Mg5 O23 2.150239 1_555
Mg5 O22 2.150239 1_555
Mg5 O29 2.150239 1_555
Mg5 O3 2.210809 1_555
Mg5 O7 2.210809 1_555
Mg6 O24 2.167645 1_555
Mg6 O16 2.167645 1_555
Mg6 O8 2.171398 1_555
Mg6 O12 2.171398 1_554
Mg6 O25 2.241213 1_555
Mg6 O18 2.241213 1_555
Mg7 O17 2.167645 1_555
Mg7 O24 2.167645 1_655
Mg7 O9 2.171398 1_555
Mg7 O13 2.171398 1_554
Mg7 O25 2.241213 1_555
Mg7 O19 2.241213 1_555
Mg8 O26 2.167645 1_555
Mg8 O16 2.167645 1_565
Mg8 O10 2.171398 1_555
Mg8 O14 2.171398 1_554
Mg8 O18 2.241213 1_555
Mg8 O27 2.241213 1_555
Mg9 O17 2.167645 1_565
Mg9 O26 2.167645 1_655
Mg9 O11 2.171398 1_555
Mg9 O15 2.171398 1_554
Mg9 O19 2.241213 1_555
Mg9 O27 2.241213 1_555
Mg10 O12 2.158466 1_555
Mg10 O8 2.158466 1_555
Mg10 O20 2.177076 1_555
Mg10 O28 2.177076 1_555
Mg10 O22 2.196249 1_555
Mg10 O29 2.196249 1_555
Mg11 O13 2.158466 1_555
Mg11 O9 2.158466 1_555
Mg11 O21 2.177076 1_555
Mg11 O28 2.177076 1_655
Mg11 O29 2.196249 1_555
Mg11 O23 2.196249 1_555
Mg12 O14 2.158466 1_555
Mg12 O10 2.158466 1_555
Mg12 O30 2.177076 1_555
Mg12 O20 2.177076 1_565
Mg12 O22 2.196249 1_555
Mg12 O31 2.196249 1_555
Mg13 O15 2.158466 1_555
Mg13 O11 2.158466 1_555
Mg13 O21 2.177076 1_565
Mg13 O30 2.177076 1_655
Mg13 O31 2.196249 1_555
Mg13 O23 2.196249 1_555
Mg14 O20 2.135784 1_555
Mg14 O1 2.170498 1_555
Mg14 O10 2.208976 1_545
Mg14 O8 2.208976 1_555
Mg14 O16 2.212802 1_555
Mg14 O0 2.213829 1_555
Mg15 O21 2.135784 1_555
Mg15 O1 2.170498 1_555
Mg15 O11 2.208976 1_545
Mg15 O9 2.208976 1_555
Mg15 O17 2.212802 1_555
Mg15 O0 2.213829 1_655
Mg16 O22 2.106735 1_555
Mg16 O2 2.122916 1_555
Mg16 O8 2.165400 1_555
Mg16 O10 2.165400 1_555
Mg16 O18 2.227991 1_555
Mg16 O3 2.251480 1_555
Mg17 O23 2.106735 1_555
Mg17 O2 2.122916 1_655
Mg17 O9 2.165400 1_555
Mg17 O11 2.165400 1_555
Mg17 O19 2.227991 1_555
Mg17 O3 2.251480 1_555
Mg18 O20 2.135784 1_555
Mg18 O5 2.170498 1_555
Mg18 O14 2.208976 1_545
Mg18 O12 2.208976 1_555
Mg18 O16 2.212802 1_556
Mg18 O4 2.213829 1_555
Mg19 O21 2.135784 1_555
Mg19 O5 2.170498 1_555
Mg19 O15 2.208976 1_545
Mg19 O13 2.208976 1_555
Mg19 O17 2.212802 1_556
Mg19 O4 2.213829 1_655
Mg20 O22 2.106735 1_555
Mg20 O6 2.122916 1_555
Mg20 O12 2.165400 1_555
Mg20 O14 2.165400 1_555
Mg20 O18 2.227991 1_556
Mg20 O7 2.251480 1_555
Mg21 O23 2.106735 1_555
Mg21 O6 2.122916 1_655
Mg21 O13 2.165400 1_555
Mg21 O15 2.165400 1_555
Mg21 O19 2.227991 1_556
Mg21 O7 2.251480 1_555
Mg22 O28 2.135784 1_555
Mg22 O2 2.170498 1_555
Mg22 O9 2.208976 1_455
Mg22 O8 2.208976 1_555
Mg22 O24 2.212802 1_555
Mg22 O0 2.213829 1_555
Mg23 O29 2.106735 1_555
Mg23 O1 2.122916 1_555
Mg23 O8 2.165400 1_555
Mg23 O9 2.165400 1_555
Mg23 O25 2.227991 1_555
Mg23 O3 2.251480 1_555
Mg24 O30 2.135784 1_555
Mg24 O2 2.170498 1_555
Mg24 O11 2.208976 1_455
Mg24 O10 2.208976 1_555
Mg24 O26 2.212802 1_555
Mg24 O0 2.213829 1_565
Mg25 O31 2.106735 1_555
Mg25 O1 2.122916 1_565
Mg25 O10 2.165400 1_555
Mg25 O11 2.165400 1_555
Mg25 O27 2.227991 1_555
Mg25 O3 2.251480 1_555
Mg26 O28 2.135784 1_555
Mg26 O6 2.170498 1_555
Mg26 O13 2.208976 1_455
Mg26 O12 2.208976 1_555
Mg26 O24 2.212802 1_556
Mg26 O4 2.213829 1_555
Mg27 O29 2.106735 1_555
Mg27 O5 2.122916 1_555
Mg27 O12 2.165400 1_555
Mg27 O13 2.165400 1_555
Mg27 O25 2.227991 1_556
Mg27 O7 2.251480 1_555
Mg28 O30 2.135784 1_555
Mg28 O6 2.170498 1_555
Mg28 O15 2.208976 1_455
Mg28 O14 2.208976 1_555
Mg28 O26 2.212802 1_556
Mg28 O4 2.213829 1_565
Mg29 O31 2.106735 1_555
Mg29 O5 2.122916 1_565
Mg29 O14 2.165400 1_555
Mg29 O15 2.165400 1_555
Mg29 O27 2.227991 1_556
Mg29 O7 2.251480 1_555
Bi0 O0 2.423579 1_555
Bi0 O4 2.423579 1_554
Bi0 O24 2.508218 1_555
Bi0 O16 2.508218 1_555
Bi0 O26 2.508218 1_545
Bi0 O17 2.508218 1_455
