# generated using pymatgen
data_Ba3Sn2
_symmetry_space_group_name_H-M   'P 1'
_cell_length_a   6.70622041
_cell_length_b   6.70622041
_cell_length_c   18.05779188
_cell_angle_alpha   90.00000000
_cell_angle_beta   90.00000000
_cell_angle_gamma   90.00000000
_symmetry_Int_Tables_number   1
_chemical_formula_structural   Ba3Sn2
_chemical_formula_sum   'Ba12 Sn8'
_cell_volume   812.12015626
_cell_formula_units_Z   4
loop_
 _symmetry_equiv_pos_site_id
 _symmetry_equiv_pos_as_xyz
  1  'x, y, z'
loop_
 _atom_site_type_symbol
 _atom_site_label
 _atom_site_symmetry_multiplicity
 _atom_site_fract_x
 _atom_site_fract_y
 _atom_site_fract_z
 _atom_site_occupancy
  Ba  Ba0  1  0.34260691  0.91596799  0.13603460  1
  Ba  Ba1  1  0.65739309  0.08403201  0.63603460  1
  Ba  Ba2  1  0.41596799  0.15739309  0.38603460  1
  Ba  Ba3  1  0.58403201  0.84260691  0.88603460  1
  Ba  Ba4  1  0.08403201  0.65739309  0.36396540  1
  Ba  Ba5  1  0.91596799  0.34260691  0.86396540  1
  Ba  Ba6  1  0.15739309  0.41596799  0.61396540  1
  Ba  Ba7  1  0.84260691  0.58403201  0.11396540  1
  Ba  Ba8  1  0.82542656  0.17457344  0.25000000  1
  Ba  Ba9  1  0.17457344  0.82542656  0.75000000  1
  Ba  Ba10  1  0.67457344  0.67457344  0.50000000  1
  Ba  Ba11  1  0.32542656  0.32542656  0.00000000  1
  Sn  Sn0  1  0.32940244  0.41435849  0.20254011  1
  Sn  Sn1  1  0.67059756  0.58564151  0.70254011  1
  Sn  Sn2  1  0.91435849  0.17059756  0.45254011  1
  Sn  Sn3  1  0.08564151  0.82940244  0.95254011  1
  Sn  Sn4  1  0.58564151  0.67059756  0.29745989  1
  Sn  Sn5  1  0.41435849  0.32940244  0.79745989  1
  Sn  Sn6  1  0.17059756  0.91435849  0.54745989  1
  Sn  Sn7  1  0.82940244  0.08564151  0.04745989  1
loop_
_geom_bond_atom_site_label_1
_geom_bond_atom_site_label_2
_geom_bond_distance
_geom_bond_site_symmetry_2
Ba0 Sn0 3.552631 1_565
Ba0 Sn0 3.572948 1_555
Ba0 Ba11 3.686145 1_565
Ba0 Sn4 3.723066 1_555
Ba0 Sn3 3.779680 1_554
Ba0 Sn7 3.809248 1_565
Ba0 Sn7 3.962079 1_465
Ba0 Ba7 4.044429 1_455
Ba0 Ba7 4.044429 1_555
Ba0 Ba8 4.210327 1_565
Ba0 Ba8 4.390008 1_465
Ba1 Sn1 3.552631 1_545
Ba1 Sn1 3.572948 1_555
Ba1 Ba10 3.686145 1_545
Ba1 Sn5 3.723066 1_555
Ba1 Sn2 3.779680 1_555
Ba1 Sn6 3.809248 1_545
Ba1 Sn6 3.962079 1_645
Ba1 Ba6 4.044429 1_555
Ba1 Ba6 4.044429 1_655
Ba1 Ba9 4.210327 1_545
Ba1 Ba9 4.390008 1_645
Ba2 Sn2 3.552631 1_555
Ba2 Sn2 3.572948 1_455
Ba2 Ba8 3.686145 1_555
Ba2 Sn6 3.723066 1_545
Ba2 Sn0 3.779680 1_555
Ba2 Sn4 3.809248 1_545
Ba2 Sn4 3.962079 1_555
Ba2 Ba4 4.044429 1_545
Ba2 Ba4 4.044429 1_555
Ba3 Sn3 3.552631 1_555
Ba3 Sn3 3.572948 1_655
Ba3 Ba9 3.686145 1_555
Ba3 Sn7 3.723066 1_566
Ba3 Sn1 3.779680 1_555
Ba3 Sn5 3.809248 1_565
Ba3 Sn5 3.962079 1_555
Ba3 Ba5 4.044429 1_555
Ba3 Ba5 4.044429 1_565
Ba4 Sn4 3.552631 1_455
Ba4 Sn4 3.572948 1_555
Ba4 Sn0 3.723066 1_555
Ba4 Sn6 3.779680 1_555
Ba4 Sn2 3.809248 1_455
Ba4 Sn2 3.962079 1_465
Ba4 Ba8 4.210327 1_455
Ba4 Ba8 4.390008 1_465
Ba5 Sn5 3.552631 1_655
Ba5 Sn5 3.572948 1_555
Ba5 Sn1 3.723066 1_555
Ba5 Sn7 3.779680 1_556
Ba5 Sn3 3.809248 1_655
Ba5 Sn3 3.962079 1_645
Ba5 Ba9 4.210327 1_655
Ba5 Ba9 4.390008 1_645
Ba6 Sn6 3.552631 1_555
Ba6 Sn6 3.572948 1_545
Ba6 Ba9 3.686145 1_555
Ba6 Sn2 3.723066 1_455
Ba6 Sn5 3.779680 1_555
Ba6 Sn1 3.809248 1_455
Ba6 Sn1 3.962079 1_555
Ba7 Sn7 3.552631 1_555
Ba7 Sn7 3.572948 1_565
Ba7 Ba8 3.686145 1_555
Ba7 Sn3 3.723066 1_654
Ba7 Sn4 3.779680 1_555
Ba7 Sn0 3.809248 1_655
Ba7 Sn0 3.962079 1_555
Ba8 Sn7 3.705830 1_555
Ba8 Sn2 3.705830 1_555
Ba8 Sn0 3.792831 1_555
Ba8 Sn4 3.792831 1_555
Ba8 Sn0 3.839685 1_655
Ba8 Sn4 3.839685 1_545
Ba9 Sn6 3.705830 1_555
Ba9 Sn3 3.705830 1_555
Ba9 Sn1 3.792831 1_555
Ba9 Sn5 3.792831 1_555
Ba9 Sn1 3.839685 1_455
Ba9 Sn5 3.839685 1_565
Ba10 Ba4 3.686145 1_655
Ba10 Sn4 3.705830 1_555
Ba10 Sn1 3.705830 1_555
Ba10 Sn2 3.792831 1_565
Ba10 Sn6 3.792831 1_655
Ba10 Sn6 3.839685 1_555
Ba10 Sn2 3.839685 1_555
Ba10 Ba2 4.210327 1_565
Ba10 Ba6 4.210327 1_655
Ba10 Ba6 4.390008 1_555
Ba10 Ba2 4.390008 1_555
Ba11 Ba5 3.686145 1_454
Ba11 Sn5 3.705830 1_554
Ba11 Sn0 3.705830 1_555
Ba11 Sn7 3.792831 1_455
Ba11 Sn3 3.792831 1_544
Ba11 Sn3 3.839685 1_554
Ba11 Sn7 3.839685 1_555
Ba11 Ba7 4.210327 1_455
Ba11 Ba3 4.210327 1_544
Ba11 Ba7 4.390008 1_555
Ba11 Ba3 4.390008 1_554
Sn0 Sn4 2.973837 1_555
Sn1 Sn5 2.973837 1_555
Sn2 Sn6 2.973837 1_645
Sn3 Sn7 2.973837 1_466
