# generated using pymatgen
data_CdSnO3
_symmetry_space_group_name_H-M   'P 1'
_cell_length_a   6.70444350
_cell_length_b   8.48919923
_cell_length_c   3.36531635
_cell_angle_alpha   89.84814720
_cell_angle_beta   120.33625723
_cell_angle_gamma   73.32165020
_symmetry_Int_Tables_number   1
_chemical_formula_structural   CdSnO3
_chemical_formula_sum   'Cd2 Sn2 O6'
_cell_volume   155.81331425
_cell_formula_units_Z   2
loop_
 _symmetry_equiv_pos_site_id
 _symmetry_equiv_pos_as_xyz
  1  'x, y, z'
loop_
 _atom_site_type_symbol
 _atom_site_label
 _atom_site_symmetry_multiplicity
 _atom_site_fract_x
 _atom_site_fract_y
 _atom_site_fract_z
 _atom_site_occupancy
  Cd  Cd0  1  0.29449800  0.66355700  0.04763000  1
  Cd  Cd1  1  0.70550200  0.33644300  0.95237000  1
  Sn  Sn0  1  0.66906800  0.83097800  0.92224200  1
  Sn  Sn1  1  0.33093200  0.16902200  0.07775800  1
  O  O0  1  0.89826300  0.78161200  0.65315800  1
  O  O1  1  0.59785200  0.08853000  0.84832500  1
  O  O2  1  0.42424300  0.38074500  0.17005000  1
  O  O3  1  0.10173700  0.21838800  0.34684200  1
  O  O4  1  0.40214800  0.91147000  0.15167500  1
  O  O5  1  0.57575700  0.61925500  0.82995000  1
loop_
_geom_bond_atom_site_label_1
_geom_bond_atom_site_label_2
_geom_bond_distance
_geom_bond_site_symmetry_2
Cd0 O0 2.173994 1_454
Cd0 O2 2.263729 1_555
Cd0 O5 2.280658 1_555
Cd0 O5 2.285539 1_554
Cd0 O4 2.386058 1_555
Cd1 O3 2.173994 1_656
Cd1 O5 2.263729 1_555
Cd1 O2 2.280658 1_555
Cd1 O2 2.285539 1_556
Cd1 O1 2.386058 1_555
O0 Sn0 2.096209 1_554
O0 Sn0 2.096392 1_555
O1 Sn0 2.085226 1_545
O1 Sn1 2.227605 1_556
O1 Sn1 2.234962 1_555
O2 Sn1 2.042165 1_555
O3 Sn1 2.096209 1_556
O3 Sn1 2.096392 1_555
O4 Sn1 2.085226 1_565
O4 Sn0 2.227605 1_554
O4 Sn0 2.234962 1_555
O5 Sn0 2.042165 1_555
