# generated using pymatgen
data_Ba5Cr5O14
_symmetry_space_group_name_H-M   'P 1'
_cell_length_a   5.83895745
_cell_length_b   5.82273661
_cell_length_c   12.24024669
_cell_angle_alpha   89.99999904
_cell_angle_beta   90.21453954
_cell_angle_gamma   119.90815454
_symmetry_Int_Tables_number   1
_chemical_formula_structural   Ba5Cr5O14
_chemical_formula_sum   'Ba5 Cr5 O14'
_cell_volume   360.72845419
_cell_formula_units_Z   1
loop_
 _symmetry_equiv_pos_site_id
 _symmetry_equiv_pos_as_xyz
  1  'x, y, z'
loop_
 _atom_site_type_symbol
 _atom_site_label
 _atom_site_symmetry_multiplicity
 _atom_site_fract_x
 _atom_site_fract_y
 _atom_site_fract_z
 _atom_site_occupancy
  Ba  Ba0  1  0.00000000  0.00000000  0.00000000  1
  Ba  Ba1  1  0.33407600  0.66703800  0.77044500  1
  Ba  Ba2  1  0.66592400  0.33296200  0.22955500  1
  Ba  Ba3  1  0.33466900  0.66733500  0.42321700  1
  Ba  Ba4  1  0.66533100  0.33266500  0.57678300  1
  Cr  Cr0  1  0.33346000  0.66673000  0.13399500  1
  Cr  Cr1  1  0.66654000  0.33327000  0.86600500  1
  Cr  Cr2  1  0.00305200  0.00152600  0.28884700  1
  Cr  Cr3  1  0.99694800  0.99847400  0.71115300  1
  Cr  Cr4  1  0.00000000  0.00000000  0.50000000  1
  O  O0  1  0.33311200  0.66655600  0.99381100  1
  O  O1  1  0.66688800  0.33344400  0.00618900  1
  O  O2  1  0.66858700  0.83429400  0.19207200  1
  O  O3  1  0.16525600  0.83436600  0.19168600  1
  O  O4  1  0.16525600  0.33089100  0.19168600  1
  O  O5  1  0.33141300  0.16570600  0.80792800  1
  O  O6  1  0.83474400  0.16563400  0.80831400  1
  O  O7  1  0.83474400  0.66910900  0.80831400  1
  O  O8  1  0.69746400  0.84873200  0.60302000  1
  O  O9  1  0.14848700  0.85186400  0.60099200  1
  O  O10  1  0.14848700  0.29662300  0.60099200  1
  O  O11  1  0.30253600  0.15126800  0.39698000  1
  O  O12  1  0.85151300  0.14813600  0.39900800  1
  O  O13  1  0.85151300  0.70337700  0.39900800  1
loop_
_geom_bond_atom_site_label_1
_geom_bond_atom_site_label_2
_geom_bond_distance
_geom_bond_site_symmetry_2
Ba0 O3 2.877038 1_545
Ba0 O6 2.877038 1_454
Ba0 O4 2.877041 1_555
Ba0 O7 2.877041 1_444
Ba0 O5 2.893956 1_554
Ba0 O2 2.893956 1_445
Ba0 O0 3.365338 1_554
Ba0 O1 3.365338 1_445
Ba0 O0 3.365338 1_544
Ba0 O1 3.365338 1_455
Ba0 O1 3.375882 1_555
Ba0 O0 3.375882 1_444
Ba1 O0 2.734080 1_555
Ba1 O8 2.759544 1_555
Ba1 O10 2.789391 1_555
Ba1 O9 2.789392 1_555
Ba1 O5 2.947335 1_565
Ba1 O5 2.947340 1_555
Ba1 O6 2.952258 1_565
Ba1 O7 2.952261 1_555
Ba1 O7 2.959862 1_455
Ba1 O6 2.959864 1_455
Ba2 O1 2.734080 1_555
Ba2 O11 2.759544 1_555
Ba2 O13 2.789391 1_555
Ba2 O12 2.789392 1_555
Ba2 O2 2.947335 1_545
Ba2 O2 2.947340 1_555
Ba2 O3 2.952258 1_545
Ba2 O4 2.952261 1_555
Ba2 O4 2.959862 1_655
Ba2 O3 2.959864 1_655
Ba3 O8 2.860160 1_555
Ba3 O9 2.872947 1_555
Ba3 O10 2.872950 1_555
Ba3 O11 2.933459 1_565
Ba3 O11 2.933465 1_555
Ba3 O12 2.935005 1_565
Ba3 O13 2.935008 1_555
Ba3 O13 2.945294 1_455
Ba3 O12 2.945297 1_455
Ba3 O4 3.300659 1_555
Ba3 O3 3.300660 1_555
Ba3 O2 3.301887 1_555
Ba4 O11 2.860160 1_555
Ba4 O12 2.872947 1_555
Ba4 O13 2.872950 1_555
Ba4 O8 2.933459 1_545
Ba4 O8 2.933465 1_555
Ba4 O9 2.935005 1_545
Ba4 O10 2.935008 1_555
Ba4 O10 2.945294 1_655
Ba4 O9 2.945297 1_655
Ba4 O7 3.300659 1_555
Ba4 O6 3.300660 1_555
Ba4 O5 3.301887 1_555
Cr0 O0 1.715880 1_554
Cr0 O2 1.836305 1_555
Cr0 O4 1.837713 1_555
Cr0 O3 1.837718 1_555
Cr1 O1 1.715880 1_556
Cr1 O5 1.836305 1_555
Cr1 O7 1.837713 1_555
Cr1 O6 1.837718 1_555
Cr2 O11 2.008023 1_555
Cr2 O13 2.022880 1_445
Cr2 O12 2.022881 1_455
Cr2 O3 2.046084 1_545
Cr2 O4 2.046088 1_555
Cr2 O2 2.061933 1_445
Cr3 O8 2.008023 1_555
Cr3 O10 2.022880 1_665
Cr3 O9 2.022881 1_655
Cr3 O6 2.046084 1_565
Cr3 O7 2.046088 1_555
Cr3 O5 2.061933 1_665
Cr4 O10 1.939474 1_555
Cr4 O13 1.939474 1_445
Cr4 O9 1.939474 1_545
Cr4 O12 1.939474 1_455
Cr4 O11 1.987834 1_555
Cr4 O8 1.987834 1_445
