# generated using pymatgen
data_Y3Ga7Cu4
_symmetry_space_group_name_H-M   'P 1'
_cell_length_a   8.01145243
_cell_length_b   8.01145243
_cell_length_c   9.41730096
_cell_angle_alpha   54.09536620
_cell_angle_beta   54.09536620
_cell_angle_gamma   29.89775178
_symmetry_Int_Tables_number   1
_chemical_formula_structural   Y3Ga7Cu4
_chemical_formula_sum   'Y3 Ga7 Cu4'
_cell_volume   239.43424034
_cell_formula_units_Z   1
loop_
 _symmetry_equiv_pos_site_id
 _symmetry_equiv_pos_as_xyz
  1  'x, y, z'
loop_
 _atom_site_type_symbol
 _atom_site_label
 _atom_site_symmetry_multiplicity
 _atom_site_fract_x
 _atom_site_fract_y
 _atom_site_fract_z
 _atom_site_occupancy
  Y  Y0  1  0.30859876  0.30859876  0.70099371  1
  Y  Y1  1  0.69140124  0.69140124  0.29900629  1
  Y  Y2  1  -0.00000000  -0.00000000  0.00000000  1
  Ga  Ga0  1  0.86190881  0.86190881  0.41691632  1
  Ga  Ga1  1  0.13809119  0.13809119  0.58308368  1
  Ga  Ga2  1  0.13698724  0.13698724  0.13483757  1
  Ga  Ga3  1  0.86301276  0.86301276  0.86516243  1
  Ga  Ga4  1  -0.00000000  -0.00000000  0.50000000  1
  Ga  Ga5  1  0.34134578  0.34134578  0.27727256  1
  Ga  Ga6  1  0.65865422  0.65865422  0.72272744  1
  Cu  Cu0  1  0.49597294  0.49597294  0.29777912  1
  Cu  Cu1  1  0.50402706  0.50402706  0.70222088  1
  Cu  Cu2  1  0.66017616  0.66017616  0.97958909  1
  Cu  Cu3  1  0.33982384  0.33982384  0.02041091  1
loop_
_geom_bond_atom_site_label_1
_geom_bond_atom_site_label_2
_geom_bond_distance
_geom_bond_site_symmetry_2
Ga0 Ga5 2.570955 1_655
Ga0 Ga5 2.570955 1_565
Ga0 Ga6 2.682147 1_555
Ga0 Ga4 2.685630 1_665
Ga0 Y0 3.070617 1_565
Ga0 Y0 3.070617 1_655
Ga0 Y2 3.129874 1_665
Ga0 Y1 3.429044 1_555
Ga1 Ga6 2.570955 1_545
Ga1 Ga6 2.570955 1_455
Ga1 Ga5 2.682147 1_555
Ga1 Ga4 2.685630 1_555
Ga1 Y1 3.070617 1_455
Ga1 Y1 3.070617 1_545
Ga1 Y2 3.129874 1_556
Ga1 Y0 3.429044 1_555
Ga2 Ga4 2.733111 1_555
Ga2 Y1 2.991925 1_545
Ga2 Y1 2.991925 1_455
Ga2 Y2 3.062438 1_555
Ga2 Y0 3.251733 1_554
Ga3 Ga4 2.733111 1_665
Ga3 Y0 2.991925 1_655
Ga3 Y0 2.991925 1_565
Ga3 Y2 3.062438 1_666
Ga3 Y1 3.251733 1_556
Ga4 Y0 3.134430 1_455
Ga4 Y1 3.134430 1_455
Ga4 Y0 3.134430 1_545
Ga4 Y1 3.134430 1_545
Ga5 Y1 3.020623 1_545
Ga5 Y1 3.020623 1_455
Ga5 Y2 3.055478 1_565
Ga5 Y2 3.055478 1_655
Ga6 Y0 3.020623 1_655
Ga6 Y0 3.020623 1_565
Ga6 Y2 3.055478 1_656
Ga6 Y2 3.055478 1_566
Cu0 Cu2 2.488744 1_554
Cu0 Ga5 2.515630 1_555
Cu0 Ga0 2.647684 1_545
Cu0 Ga0 2.647684 1_455
Cu0 Ga2 2.706378 1_655
Cu0 Ga2 2.706378 1_565
Cu0 Ga4 2.836465 1_655
Cu0 Ga4 2.836465 1_565
Cu0 Y1 3.032382 1_555
Cu0 Y0 3.075957 1_555
Cu1 Cu3 2.488744 1_556
Cu1 Ga6 2.515630 1_555
Cu1 Ga1 2.647684 1_565
Cu1 Ga1 2.647684 1_655
Cu1 Ga3 2.706378 1_545
Cu1 Ga3 2.706378 1_455
Cu1 Ga4 2.836465 1_655
Cu1 Ga4 2.836465 1_565
Cu1 Y0 3.032382 1_555
Cu1 Y1 3.075957 1_555
Cu2 Ga2 2.429017 1_656
Cu2 Ga2 2.429017 1_566
Cu2 Ga6 2.433316 1_555
Cu2 Ga3 2.629334 1_555
Cu2 Y0 3.019195 1_565
Cu2 Y0 3.019195 1_655
Cu2 Y2 3.142894 1_656
Cu2 Y2 3.142894 1_566
Cu2 Y1 3.323727 1_556
Cu3 Ga3 2.429017 1_454
Cu3 Ga3 2.429017 1_544
Cu3 Ga5 2.433316 1_555
Cu3 Ga2 2.629334 1_555
Cu3 Y1 3.019195 1_545
Cu3 Y1 3.019195 1_455
Cu3 Y2 3.142894 1_565
Cu3 Y2 3.142894 1_655
Cu3 Y0 3.323727 1_554
