# generated using pymatgen
data_Mg16Al12In
_symmetry_space_group_name_H-M   'P 1'
_cell_length_a   9.14387737
_cell_length_b   9.14387737
_cell_length_c   9.11429908
_cell_angle_alpha   70.67009108
_cell_angle_beta   70.67009108
_cell_angle_gamma   109.47109882
_symmetry_Int_Tables_number   1
_chemical_formula_structural   Mg16Al12In
_chemical_formula_sum   'Mg16 Al12 In1'
_cell_volume   588.66438300
_cell_formula_units_Z   1
loop_
 _symmetry_equiv_pos_site_id
 _symmetry_equiv_pos_as_xyz
  1  'x, y, z'
loop_
 _atom_site_type_symbol
 _atom_site_label
 _atom_site_symmetry_multiplicity
 _atom_site_fract_x
 _atom_site_fract_y
 _atom_site_fract_z
 _atom_site_occupancy
  Mg  Mg0  1  0.00010300  0.00010300  0.34590200  1
  Mg  Mg1  1  0.34139500  0.34139500  0.66354100  1
  Mg  Mg2  1  0.31341300  0.31341300  0.28840000  1
  Mg  Mg3  1  0.00111900  0.00111900  0.00001500  1
  Mg  Mg4  1  0.39698900  0.68044800  0.00227300  1
  Mg  Mg5  1  0.28600100  0.59962600  0.40010700  1
  Mg  Mg6  1  0.68589100  0.00302100  0.60023500  1
  Mg  Mg7  1  0.65460600  0.00326400  0.99449400  1
  Mg  Mg8  1  0.31859600  0.71225200  0.68338000  1
  Mg  Mg9  1  0.99810400  0.40065400  0.31712400  1
  Mg  Mg10  1  0.40065400  0.99810400  0.31712400  1
  Mg  Mg11  1  0.71225200  0.31859600  0.68338000  1
  Mg  Mg12  1  0.00326400  0.65460600  0.99449400  1
  Mg  Mg13  1  0.00302100  0.68589100  0.60023500  1
  Mg  Mg14  1  0.59962600  0.28600100  0.40010700  1
  Mg  Mg15  1  0.68044800  0.39698900  0.00227300  1
  Al  Al0  1  0.63288000  0.63288000  0.17898200  1
  Al  Al1  1  0.82158200  0.82158200  0.81751500  1
  Al  Al2  1  0.17850300  0.36125200  0.00712900  1
  Al  Al3  1  0.00000300  0.18601700  0.63320100  1
  Al  Al4  1  0.63490000  0.82226800  0.35821600  1
  Al  Al5  1  0.81200500  0.18051900  0.18663800  1
  Al  Al6  1  0.99792500  0.36745900  0.81665600  1
  Al  Al7  1  0.36745900  0.99792500  0.81665600  1
  Al  Al8  1  0.18051900  0.81200500  0.18663800  1
  Al  Al9  1  0.82226800  0.63490000  0.35821600  1
  Al  Al10  1  0.18601700  0.00000300  0.63320100  1
  Al  Al11  1  0.36125200  0.17850300  0.00712900  1
  In  In0  1  0.60957700  0.60957700  0.70677800  1
loop_
_geom_bond_atom_site_label_1
_geom_bond_atom_site_label_2
_geom_bond_distance
_geom_bond_site_symmetry_2
Mg0 Mg2 3.038097 1_555
Mg0 Mg6 3.051546 1_455
Mg0 Mg13 3.051546 1_545
Mg0 Mg3 3.146380 1_555
Mg1 Mg5 3.073451 1_555
Mg1 Mg14 3.073451 1_555
Mg1 Mg3 3.111132 1_556
Mg2 Mg4 3.134507 1_555
Mg2 Mg5 3.159265 1_555
Mg2 Mg9 3.192066 1_455
Mg3 Mg7 3.191937 1_454
Mg4 Mg7 3.063073 1_564
Mg4 Mg8 3.163024 1_554
Mg4 Mg5 3.164443 1_555
Mg4 Mg9 3.173836 1_455
Mg4 Mg6 3.216775 1_564
Mg5 Mg9 3.138197 1_455
Mg5 Mg8 3.143291 1_555
Mg6 Mg8 3.154541 1_545
Mg6 Mg9 3.165526 1_555
Mg10 Mg7 3.058745 1_564
Mg10 Mg8 3.129919 1_555
Mg10 Mg14 3.138197 1_565
Mg10 Mg13 3.165526 1_555
Mg10 Mg5 3.170381 1_555
Mg10 Mg15 3.173836 1_565
Mg10 Mg2 3.192066 1_565
Mg11 Mg7 3.035918 1_555
Mg11 Mg9 3.129919 1_555
Mg11 Mg14 3.143291 1_555
Mg11 Mg13 3.154541 1_655
Mg11 Mg15 3.163024 1_556
Mg11 Mg6 3.172351 1_555
Mg12 Mg8 3.035918 1_555
Mg12 Mg9 3.058745 1_456
Mg12 Mg15 3.063073 1_456
Mg12 Mg3 3.191937 1_566
Mg13 Mg5 3.135803 1_555
Mg13 Mg8 3.172351 1_555
Mg13 Mg15 3.216775 1_456
Mg14 Mg6 3.135803 1_555
Mg14 Mg2 3.159265 1_555
Mg14 Mg15 3.164443 1_555
Mg14 Mg9 3.170381 1_555
Mg15 Mg2 3.134507 1_555
Al0 Al1 2.701289 1_554
Al0 Al4 2.745788 1_555
Al0 Al9 2.745788 1_555
Al0 Mg2 2.918057 1_555
Al0 Mg14 2.989005 1_555
Al0 Mg5 2.989005 1_555
Al0 Mg15 3.145968 1_555
Al0 Mg4 3.145968 1_555
Al0 Mg12 3.145983 1_654
Al0 Mg7 3.145983 1_564
Al0 Mg3 3.241219 1_665
Al1 Al10 2.728289 1_665
Al1 Al3 2.728289 1_665
Al1 In0 2.935957 1_555
Al1 Mg13 3.006259 1_655
Al1 Mg6 3.006259 1_565
Al1 Mg12 3.086655 1_655
Al1 Mg7 3.086655 1_565
Al1 Mg3 3.158431 1_666
Al1 Mg4 3.235331 1_556
Al1 Mg15 3.235331 1_556
Al2 Al5 2.743480 1_455
Al2 Al6 2.763753 1_454
Al2 Mg4 2.912146 1_555
Al2 Mg9 2.969568 1_455
Al2 Mg8 3.022576 1_554
Al2 Mg0 3.069866 1_555
Al2 Mg1 3.086586 1_554
Al2 Mg2 3.161652 1_555
Al2 Mg3 3.182632 1_555
Al2 In0 3.310815 1_554
Al3 Al6 2.717570 1_455
Al3 Mg9 2.909318 1_455
Al3 Mg2 2.972297 1_555
Al3 Mg6 2.973192 1_455
Al3 Mg7 3.092620 1_455
Al3 Mg1 3.116815 1_555
Al3 Mg5 3.172550 1_555
Al3 Mg11 3.209156 1_455
Al3 Mg3 3.213718 1_556
Al4 Al5 2.682253 1_565
Al4 Al9 2.797756 1_555
Al4 Mg8 2.927861 1_555
Al4 Mg5 2.969417 1_555
Al4 In0 3.008517 1_555
Al4 Mg7 3.087853 1_564
Al4 Mg10 3.121131 1_555
Al4 Mg0 3.133558 1_665
Al4 Mg3 3.181769 1_665
Al4 Mg6 3.224199 1_565
Al5 Al6 2.763123 1_554
Al5 Mg14 2.911473 1_555
Al5 Mg15 2.985338 1_555
Al5 Mg9 3.000477 1_555
Al5 Mg0 3.121842 1_655
Al5 Mg7 3.123753 1_554
Al5 Mg10 3.144373 1_545
Al5 Mg6 3.162016 1_555
Al5 Mg3 3.219545 1_655
Al6 Mg13 2.901298 1_655
Al6 Mg15 2.989307 1_556
Al6 Mg8 2.992799 1_655
Al6 Mg7 3.108175 1_555
Al6 Mg1 3.112175 1_655
Al6 Mg5 3.189828 1_655
Al6 Mg11 3.190668 1_555
Al6 Mg3 3.225862 1_656
Al7 Al8 2.763123 1_556
Al7 Mg6 2.901298 1_565
Al7 Mg4 2.989307 1_556
Al7 Mg11 2.992799 1_565
Al7 Mg12 3.108175 1_555
Al7 Mg1 3.112175 1_565
Al7 Mg14 3.189828 1_565
Al7 Mg8 3.190668 1_555
Al7 Mg3 3.225862 1_566
Al8 Al9 2.682253 1_455
Al8 Mg5 2.911473 1_555
Al8 Mg4 2.985338 1_555
Al8 Mg10 3.000477 1_555
Al8 Mg0 3.121842 1_565
Al8 Mg12 3.123753 1_554
Al8 Mg9 3.144373 1_455
Al8 Mg13 3.162016 1_555
Al8 Mg3 3.219545 1_565
Al9 Mg11 2.927861 1_555
Al9 Mg14 2.969417 1_555
Al9 In0 3.008517 1_555
Al9 Mg12 3.087853 1_654
Al9 Mg9 3.121131 1_555
Al9 Mg0 3.133558 1_665
Al9 Mg3 3.181769 1_665
Al9 Mg13 3.224199 1_655
Al10 Al7 2.717570 1_545
Al10 Al3 2.777538 1_555
Al10 Mg10 2.909318 1_545
Al10 Mg2 2.972297 1_555
Al10 Mg13 2.973192 1_545
Al10 Mg12 3.092620 1_545
Al10 Mg1 3.116815 1_555
Al10 Mg14 3.172550 1_555
Al10 Mg8 3.209156 1_545
Al10 Mg3 3.213718 1_556
Al11 Al2 2.728786 1_555
Al11 Al8 2.743480 1_545
Al11 Al7 2.763753 1_544
Al11 Mg15 2.912146 1_555
Al11 Mg10 2.969568 1_545
Al11 Mg11 3.022576 1_554
Al11 Mg0 3.069866 1_555
Al11 Mg1 3.086586 1_554
Al11 Mg2 3.161652 1_555
Al11 Mg3 3.182632 1_555
Al11 In0 3.310815 1_554
In0 Mg1 3.074520 1_555
In0 Mg8 3.148748 1_555
In0 Mg11 3.148748 1_555
In0 Mg6 3.152412 1_565
In0 Mg13 3.152412 1_655
In0 Mg15 3.159346 1_556
In0 Mg4 3.159346 1_556
In0 Mg0 3.502770 1_665
