# generated using pymatgen
data_Ca2Mg
_symmetry_space_group_name_H-M   'P 1'
_cell_length_a   18.73865754
_cell_length_b   18.73865754
_cell_length_c   11.79211416
_cell_angle_alpha   90.00000000
_cell_angle_beta   90.00000000
_cell_angle_gamma   155.81223523
_symmetry_Int_Tables_number   1
_chemical_formula_structural   Ca2Mg
_chemical_formula_sum   'Ca32 Mg16'
_cell_volume   1696.54165784
_cell_formula_units_Z   16
loop_
 _symmetry_equiv_pos_site_id
 _symmetry_equiv_pos_as_xyz
  1  'x, y, z'
loop_
 _atom_site_type_symbol
 _atom_site_label
 _atom_site_symmetry_multiplicity
 _atom_site_fract_x
 _atom_site_fract_y
 _atom_site_fract_z
 _atom_site_occupancy
  Ca  Ca0_0  1  0.04266380  0.45733620  0.12500000  1
  Ca  Ca0_1  1  0.04266380  0.45733620  0.62500000  1
  Ca  Ca0_2  1  0.04266380  0.95733620  0.12500000  1
  Ca  Ca0_3  1  0.04266380  0.95733620  0.62500000  1
  Ca  Ca0_4  1  0.54266380  0.45733620  0.12500000  1
  Ca  Ca0_5  1  0.54266380  0.45733620  0.62500000  1
  Ca  Ca0_6  1  0.54266380  0.95733620  0.12500000  1
  Ca  Ca0_7  1  0.54266380  0.95733620  0.62500000  1
  Ca  Ca1_0  1  0.38977074  0.11022926  0.12500000  1
  Ca  Ca1_1  1  0.38977074  0.11022926  0.62500000  1
  Ca  Ca1_2  1  0.38977074  0.61022926  0.12500000  1
  Ca  Ca1_3  1  0.38977074  0.61022926  0.62500000  1
  Ca  Ca1_4  1  0.88977074  0.11022926  0.12500000  1
  Ca  Ca1_5  1  0.88977074  0.11022926  0.62500000  1
  Ca  Ca1_6  1  0.88977074  0.61022926  0.12500000  1
  Ca  Ca1_7  1  0.88977074  0.61022926  0.62500000  1
  Ca  Ca2_0  1  0.11022926  0.38977074  0.37500000  1
  Ca  Ca2_1  1  0.11022926  0.38977074  0.87500000  1
  Ca  Ca2_2  1  0.11022926  0.88977074  0.37500000  1
  Ca  Ca2_3  1  0.11022926  0.88977074  0.87500000  1
  Ca  Ca2_4  1  0.61022926  0.38977074  0.37500000  1
  Ca  Ca2_5  1  0.61022926  0.38977074  0.87500000  1
  Ca  Ca2_6  1  0.61022926  0.88977074  0.37500000  1
  Ca  Ca2_7  1  0.61022926  0.88977074  0.87500000  1
  Ca  Ca3_0  1  0.45733620  0.04266380  0.37500000  1
  Ca  Ca3_1  1  0.45733620  0.04266380  0.87500000  1
  Ca  Ca3_2  1  0.45733620  0.54266380  0.37500000  1
  Ca  Ca3_3  1  0.45733620  0.54266380  0.87500000  1
  Ca  Ca3_4  1  0.95733620  0.04266380  0.37500000  1
  Ca  Ca3_5  1  0.95733620  0.04266380  0.87500000  1
  Ca  Ca3_6  1  0.95733620  0.54266380  0.37500000  1
  Ca  Ca3_7  1  0.95733620  0.54266380  0.87500000  1
  Mg  Mg0_0  1  0.21671030  0.28328969  0.12500000  1
  Mg  Mg0_1  1  0.21671030  0.28328969  0.62500000  1
  Mg  Mg0_2  1  0.21671031  0.78328969  0.12500000  1
  Mg  Mg0_3  1  0.21671031  0.78328969  0.62500000  1
  Mg  Mg0_4  1  0.71671030  0.28328969  0.12500000  1
  Mg  Mg0_5  1  0.71671030  0.28328969  0.62500000  1
  Mg  Mg0_6  1  0.71671030  0.78328969  0.12500000  1
  Mg  Mg0_7  1  0.71671030  0.78328969  0.62500000  1
  Mg  Mg1_0  1  0.28328970  0.21671030  0.37500000  1
  Mg  Mg1_1  1  0.28328970  0.21671030  0.87500000  1
  Mg  Mg1_2  1  0.28328970  0.71671030  0.37500000  1
  Mg  Mg1_3  1  0.28328970  0.71671030  0.87500000  1
  Mg  Mg1_4  1  0.78328970  0.21671030  0.37500000  1
  Mg  Mg1_5  1  0.78328970  0.21671030  0.87500000  1
  Mg  Mg1_6  1  0.78328970  0.71671030  0.37500000  1
  Mg  Mg1_7  1  0.78328970  0.71671030  0.87500000  1
loop_
_geom_bond_atom_site_label_1
_geom_bond_atom_site_label_2
_geom_bond_distance
_geom_bond_site_symmetry_2
Ca0_0 Mg0_4 3.405946 1_455
Ca0_0 Mg0_2 3.405946 1_555
Ca0_0 Mg1_5 3.558409 1_454
Ca0_0 Mg1_4 3.558409 1_455
Ca0_0 Mg1_3 3.558409 1_554
Ca0_0 Mg1_2 3.558409 1_555
Ca0_0 Ca2_1 3.849845 1_554
Ca0_0 Ca2_0 3.849845 1_555
Ca0_0 Ca0_6 3.926014 1_445
Ca0_0 Ca0_6 3.926014 1_555
Ca0_0 Ca1_4 4.064058 1_455
Ca0_0 Ca1_2 4.064058 1_555
Ca0_1 Mg0_5 3.405946 1_455
Ca0_1 Mg0_3 3.405946 1_555
Ca0_1 Mg1_4 3.558409 1_455
Ca0_1 Mg1_5 3.558409 1_455
Ca0_1 Mg1_2 3.558409 1_555
Ca0_1 Mg1_3 3.558409 1_555
Ca0_1 Ca2_0 3.849845 1_555
Ca0_1 Ca2_1 3.849845 1_555
Ca0_1 Ca0_7 3.926014 1_445
Ca0_1 Ca0_7 3.926014 1_555
Ca0_1 Ca1_5 4.064058 1_455
Ca0_1 Ca1_3 4.064058 1_555
Ca0_2 Mg0_6 3.405946 1_455
Ca0_2 Mg0_0 3.405946 1_565
Ca0_2 Mg1_6 3.558409 1_455
Ca0_2 Mg1_7 3.558409 1_454
Ca0_2 Mg1_1 3.558409 1_564
Ca0_2 Mg1_0 3.558409 1_565
Ca0_2 Ca2_3 3.849845 1_554
Ca0_2 Ca2_2 3.849845 1_555
Ca0_2 Ca0_4 3.926014 1_565
Ca0_2 Ca0_4 3.926014 1_455
Ca0_2 Ca1_6 4.064058 1_455
Ca0_2 Ca1_0 4.064058 1_565
Ca0_3 Mg0_7 3.405946 1_455
Ca0_3 Mg0_1 3.405946 1_565
Ca0_3 Mg1_6 3.558409 1_455
Ca0_3 Mg1_7 3.558409 1_455
Ca0_3 Mg1_0 3.558409 1_565
Ca0_3 Mg1_1 3.558409 1_565
Ca0_3 Ca2_2 3.849845 1_555
Ca0_3 Ca2_3 3.849845 1_555
Ca0_3 Ca0_5 3.926014 1_565
Ca0_3 Ca0_5 3.926014 1_455
Ca0_3 Ca1_7 4.064058 1_455
Ca0_3 Ca1_1 4.064058 1_565
Ca0_4 Mg0_0 3.405946 1_555
Ca0_4 Mg0_6 3.405946 1_555
Ca0_4 Mg1_0 3.558409 1_555
Ca0_4 Mg1_1 3.558409 1_554
Ca0_4 Mg1_7 3.558409 1_554
Ca0_4 Mg1_6 3.558409 1_555
Ca0_4 Ca2_5 3.849845 1_554
Ca0_4 Ca2_4 3.849845 1_555
Ca0_4 Ca1_0 4.064058 1_555
Ca0_4 Ca1_6 4.064058 1_555
Ca0_5 Mg0_1 3.405946 1_555
Ca0_5 Mg0_7 3.405946 1_555
Ca0_5 Mg1_0 3.558409 1_555
Ca0_5 Mg1_1 3.558409 1_555
Ca0_5 Mg1_6 3.558409 1_555
Ca0_5 Mg1_7 3.558409 1_555
Ca0_5 Ca2_4 3.849845 1_555
Ca0_5 Ca2_5 3.849845 1_555
Ca0_5 Ca1_1 4.064058 1_555
Ca0_5 Ca1_7 4.064058 1_555
Ca0_6 Mg0_2 3.405946 1_555
Ca0_6 Mg0_4 3.405946 1_565
Ca0_6 Mg1_3 3.558409 1_554
Ca0_6 Mg1_2 3.558409 1_555
Ca0_6 Mg1_5 3.558409 1_564
Ca0_6 Mg1_4 3.558409 1_565
Ca0_6 Ca2_7 3.849845 1_554
Ca0_6 Ca2_6 3.849845 1_555
Ca0_6 Ca1_2 4.064058 1_555
Ca0_6 Ca1_4 4.064058 1_565
Ca0_7 Mg0_3 3.405946 1_555
Ca0_7 Mg0_5 3.405946 1_565
Ca0_7 Mg1_2 3.558409 1_555
Ca0_7 Mg1_3 3.558409 1_555
Ca0_7 Mg1_4 3.558409 1_565
Ca0_7 Mg1_5 3.558409 1_565
Ca0_7 Ca2_6 3.849845 1_555
Ca0_7 Ca2_7 3.849845 1_555
Ca0_7 Ca1_3 4.064058 1_555
Ca0_7 Ca1_5 4.064058 1_565
Ca1_0 Mg0_4 3.435539 1_555
Ca1_0 Mg0_2 3.435539 1_545
Ca1_0 Ca2_5 3.703540 1_554
Ca1_0 Ca2_4 3.703540 1_555
Ca1_0 Ca2_3 3.703540 1_544
Ca1_0 Ca2_2 3.703540 1_545
Ca1_0 Ca3_1 3.849845 1_554
Ca1_0 Ca3_0 3.849845 1_555
Ca1_0 Ca1_6 3.926014 1_445
Ca1_0 Ca1_6 3.926014 1_555
Ca1_1 Mg0_5 3.435539 1_555
Ca1_1 Mg0_3 3.435539 1_545
Ca1_1 Ca2_4 3.703540 1_555
Ca1_1 Ca2_2 3.703540 1_545
Ca1_1 Ca2_5 3.703540 1_555
Ca1_1 Ca2_3 3.703540 1_545
Ca1_1 Ca3_0 3.849845 1_555
Ca1_1 Ca3_1 3.849845 1_555
Ca1_1 Ca1_7 3.926014 1_445
Ca1_1 Ca1_7 3.926014 1_555
Ca1_2 Mg0_0 3.435539 1_555
Ca1_2 Mg0_6 3.435539 1_555
Ca1_2 Ca2_7 3.703540 1_554
Ca1_2 Ca2_6 3.703540 1_555
Ca1_2 Ca2_1 3.703540 1_554
Ca1_2 Ca2_0 3.703540 1_555
Ca1_2 Ca3_2 3.849845 1_555
Ca1_2 Ca3_3 3.849845 1_554
Ca1_2 Ca1_4 3.926014 1_565
Ca1_2 Ca1_4 3.926014 1_455
Ca1_3 Mg0_1 3.435539 1_555
Ca1_3 Mg0_7 3.435539 1_555
Ca1_3 Ca2_6 3.703540 1_555
Ca1_3 Ca2_0 3.703540 1_555
Ca1_3 Ca2_1 3.703540 1_555
Ca1_3 Ca2_7 3.703540 1_555
Ca1_3 Ca3_2 3.849845 1_555
Ca1_3 Ca3_3 3.849845 1_555
Ca1_3 Ca1_5 3.926014 1_565
Ca1_3 Ca1_5 3.926014 1_455
Ca1_4 Mg0_0 3.435539 1_655
Ca1_4 Mg0_6 3.435539 1_545
Ca1_4 Ca2_6 3.703540 1_545
Ca1_4 Ca2_7 3.703540 1_544
Ca1_4 Ca2_0 3.703540 1_655
Ca1_4 Ca2_1 3.703540 1_654
Ca1_4 Ca3_5 3.849845 1_554
Ca1_4 Ca3_4 3.849845 1_555
Ca1_5 Mg0_1 3.435539 1_655
Ca1_5 Mg0_7 3.435539 1_545
Ca1_5 Ca2_6 3.703540 1_545
Ca1_5 Ca2_0 3.703540 1_655
Ca1_5 Ca2_7 3.703540 1_545
Ca1_5 Ca2_1 3.703540 1_655
Ca1_5 Ca3_4 3.849845 1_555
Ca1_5 Ca3_5 3.849845 1_555
Ca1_6 Mg0_4 3.435539 1_555
Ca1_6 Mg0_2 3.435539 1_655
Ca1_6 Ca2_5 3.703540 1_554
Ca1_6 Ca2_2 3.703540 1_655
Ca1_6 Ca2_4 3.703540 1_555
Ca1_6 Ca2_3 3.703540 1_654
Ca1_6 Ca3_6 3.849845 1_555
Ca1_6 Ca3_7 3.849845 1_554
Ca1_7 Mg0_5 3.435539 1_555
Ca1_7 Mg0_3 3.435539 1_655
Ca1_7 Ca2_2 3.703540 1_655
Ca1_7 Ca2_4 3.703540 1_555
Ca1_7 Ca2_5 3.703540 1_555
Ca1_7 Ca2_3 3.703540 1_655
Ca1_7 Ca3_6 3.849845 1_555
Ca1_7 Ca3_7 3.849845 1_555
Ca2_0 Mg1_2 3.435539 1_555
Ca2_0 Mg1_4 3.435539 1_455
Ca2_0 Ca2_6 3.926014 1_555
Ca2_0 Ca2_6 3.926014 1_445
Ca2_0 Ca3_2 4.064058 1_555
Ca2_0 Ca3_4 4.064058 1_455
Ca2_1 Mg1_3 3.435539 1_555
Ca2_1 Mg1_5 3.435539 1_455
Ca2_1 Ca2_7 3.926014 1_445
Ca2_1 Ca2_7 3.926014 1_555
Ca2_1 Ca3_3 4.064058 1_555
Ca2_1 Ca3_5 4.064058 1_455
Ca2_2 Mg1_0 3.435539 1_565
Ca2_2 Mg1_6 3.435539 1_455
Ca2_2 Ca2_4 3.926014 1_565
Ca2_2 Ca2_4 3.926014 1_455
Ca2_2 Ca3_0 4.064058 1_565
Ca2_2 Ca3_6 4.064058 1_455
Ca2_3 Mg1_7 3.435539 1_455
Ca2_3 Mg1_1 3.435539 1_565
Ca2_3 Ca2_5 3.926014 1_565
Ca2_3 Ca2_5 3.926014 1_455
Ca2_3 Ca3_1 4.064058 1_565
Ca2_3 Ca3_7 4.064058 1_455
Ca2_4 Mg1_6 3.435539 1_555
Ca2_4 Mg1_0 3.435539 1_555
Ca2_4 Ca3_6 4.064058 1_555
Ca2_4 Ca3_0 4.064058 1_555
Ca2_5 Mg1_7 3.435539 1_555
Ca2_5 Mg1_1 3.435539 1_555
Ca2_5 Ca3_7 4.064058 1_555
Ca2_5 Ca3_1 4.064058 1_555
Ca2_6 Mg1_2 3.435539 1_555
Ca2_6 Mg1_4 3.435539 1_565
Ca2_6 Ca3_4 4.064058 1_565
Ca2_6 Ca3_2 4.064058 1_555
Ca2_7 Mg1_3 3.435539 1_555
Ca2_7 Mg1_5 3.435539 1_565
Ca2_7 Ca3_5 4.064058 1_565
Ca2_7 Ca3_3 4.064058 1_555
Ca3_0 Mg1_2 3.405946 1_545
Ca3_0 Mg1_4 3.405946 1_555
Ca3_0 Mg0_3 3.558409 1_545
Ca3_0 Mg0_2 3.558409 1_545
Ca3_0 Mg0_5 3.558409 1_555
Ca3_0 Mg0_4 3.558409 1_555
Ca3_0 Ca3_6 3.926014 1_445
Ca3_0 Ca3_6 3.926014 1_555
Ca3_1 Mg1_3 3.405946 1_545
Ca3_1 Mg1_5 3.405946 1_555
Ca3_1 Mg0_2 3.558409 1_546
Ca3_1 Mg0_3 3.558409 1_545
Ca3_1 Mg0_4 3.558409 1_556
Ca3_1 Mg0_5 3.558409 1_555
Ca3_1 Ca3_7 3.926014 1_445
Ca3_1 Ca3_7 3.926014 1_555
Ca3_2 Mg1_0 3.405946 1_555
Ca3_2 Mg1_6 3.405946 1_555
Ca3_2 Mg0_1 3.558409 1_555
Ca3_2 Mg0_0 3.558409 1_555
Ca3_2 Mg0_7 3.558409 1_555
Ca3_2 Mg0_6 3.558409 1_555
Ca3_2 Ca3_4 3.926014 1_455
Ca3_2 Ca3_4 3.926014 1_565
Ca3_3 Mg1_1 3.405946 1_555
Ca3_3 Mg1_7 3.405946 1_555
Ca3_3 Mg0_0 3.558409 1_556
Ca3_3 Mg0_1 3.558409 1_555
Ca3_3 Mg0_6 3.558409 1_556
Ca3_3 Mg0_7 3.558409 1_555
Ca3_3 Ca3_5 3.926014 1_455
Ca3_3 Ca3_5 3.926014 1_565
Ca3_4 Mg1_6 3.405946 1_545
Ca3_4 Mg1_0 3.405946 1_655
Ca3_4 Mg0_7 3.558409 1_545
Ca3_4 Mg0_6 3.558409 1_545
Ca3_4 Mg0_1 3.558409 1_655
Ca3_4 Mg0_0 3.558409 1_655
Ca3_5 Mg1_7 3.405946 1_545
Ca3_5 Mg1_1 3.405946 1_655
Ca3_5 Mg0_6 3.558409 1_546
Ca3_5 Mg0_7 3.558409 1_545
Ca3_5 Mg0_0 3.558409 1_656
Ca3_5 Mg0_1 3.558409 1_655
Ca3_6 Mg1_4 3.405946 1_555
Ca3_6 Mg1_2 3.405946 1_655
Ca3_6 Mg0_5 3.558409 1_555
Ca3_6 Mg0_4 3.558409 1_555
Ca3_6 Mg0_3 3.558409 1_655
Ca3_6 Mg0_2 3.558409 1_655
Ca3_7 Mg1_5 3.405946 1_555
Ca3_7 Mg1_3 3.405946 1_655
Ca3_7 Mg0_4 3.558409 1_556
Ca3_7 Mg0_5 3.558409 1_555
Ca3_7 Mg0_2 3.558409 1_656
Ca3_7 Mg0_3 3.558409 1_655
