# generated using pymatgen
data_K6Na14Tl18Zn
_symmetry_space_group_name_H-M   'P 1'
_cell_length_a   10.81755100
_cell_length_b   10.81755100
_cell_length_c   10.81755100
_cell_angle_alpha   90.00000000
_cell_angle_beta   90.00000000
_cell_angle_gamma   90.00000000
_symmetry_Int_Tables_number   1
_chemical_formula_structural   K6Na14Tl18Zn
_chemical_formula_sum   'K6 Na14 Tl18 Zn1'
_cell_volume   1265.86343174
_cell_formula_units_Z   1
loop_
 _symmetry_equiv_pos_site_id
 _symmetry_equiv_pos_as_xyz
  1  'x, y, z'
loop_
 _atom_site_type_symbol
 _atom_site_label
 _atom_site_symmetry_multiplicity
 _atom_site_fract_x
 _atom_site_fract_y
 _atom_site_fract_z
 _atom_site_occupancy
  K  K0  1  0.00000000  0.18839100  0.50000000  1
  K  K1  1  0.00000000  0.81160900  0.50000000  1
  K  K2  1  0.50000000  0.00000000  0.18839100  1
  K  K3  1  0.50000000  0.00000000  0.81160900  1
  K  K4  1  0.18839100  0.50000000  0.00000000  1
  K  K5  1  0.81160900  0.50000000  0.00000000  1
  Na  Na0  1  0.71990500  0.28009500  0.28009500  1
  Na  Na1  1  0.28009500  0.28009500  0.71990500  1
  Na  Na2  1  0.28009500  0.71990500  0.28009500  1
  Na  Na3  1  0.71990500  0.71990500  0.71990500  1
  Na  Na4  1  0.28009500  0.71990500  0.71990500  1
  Na  Na5  1  0.71990500  0.71990500  0.28009500  1
  Na  Na6  1  0.71990500  0.28009500  0.71990500  1
  Na  Na7  1  0.28009500  0.28009500  0.28009500  1
  Na  Na8  1  0.50000000  0.33003600  0.00000000  1
  Na  Na9  1  0.50000000  0.66996400  0.00000000  1
  Na  Na10  1  0.00000000  0.50000000  0.33003600  1
  Na  Na11  1  0.00000000  0.50000000  0.66996400  1
  Na  Na12  1  0.33003600  0.00000000  0.50000000  1
  Na  Na13  1  0.66996400  0.00000000  0.50000000  1
  Tl  Tl0  1  0.50000000  0.27991700  0.50000000  1
  Tl  Tl1  1  0.50000000  0.72008300  0.50000000  1
  Tl  Tl2  1  0.50000000  0.50000000  0.27991700  1
  Tl  Tl3  1  0.50000000  0.50000000  0.72008300  1
  Tl  Tl4  1  0.27991700  0.50000000  0.50000000  1
  Tl  Tl5  1  0.72008300  0.50000000  0.50000000  1
  Tl  Tl6  1  0.84610500  0.00000000  0.25218500  1
  Tl  Tl7  1  0.15389500  0.00000000  0.74781500  1
  Tl  Tl8  1  0.15389500  0.00000000  0.25218500  1
  Tl  Tl9  1  0.84610500  0.00000000  0.74781500  1
  Tl  Tl10  1  0.25218500  0.84610500  0.00000000  1
  Tl  Tl11  1  0.74781500  0.15389500  0.00000000  1
  Tl  Tl12  1  0.25218500  0.15389500  0.00000000  1
  Tl  Tl13  1  0.74781500  0.84610500  0.00000000  1
  Tl  Tl14  1  0.00000000  0.25218500  0.84610500  1
  Tl  Tl15  1  0.00000000  0.74781500  0.15389500  1
  Tl  Tl16  1  0.00000000  0.25218500  0.15389500  1
  Tl  Tl17  1  0.00000000  0.74781500  0.84610500  1
  Zn  Zn0  1  0.00000000  0.00000000  0.00000000  1
loop_
_geom_bond_atom_site_label_1
_geom_bond_atom_site_label_2
_geom_bond_distance
_geom_bond_site_symmetry_2
K0 Tl8 3.756465 1_555
K0 Tl7 3.756465 1_555
K0 Tl9 3.756465 1_455
K0 Tl6 3.756465 1_455
K0 Tl16 3.807076 1_555
K0 Tl14 3.807076 1_555
K0 Na10 3.839666 1_555
K0 Na11 3.839666 1_555
K0 Na7 3.977875 1_555
K0 Na6 3.977875 1_455
K0 Na1 3.977875 1_555
K0 Na0 3.977875 1_455
K0 K1 4.075859 1_545
K0 Na13 4.110882 1_455
K0 Na12 4.110882 1_555
K1 Tl8 3.756465 1_565
K1 Tl9 3.756465 1_465
K1 Tl6 3.756465 1_465
K1 Tl7 3.756465 1_565
K1 Tl17 3.807076 1_555
K1 Tl15 3.807076 1_555
K1 Na11 3.839666 1_555
K1 Na10 3.839666 1_555
K1 Na2 3.977875 1_555
K1 Na4 3.977875 1_555
K1 Na5 3.977875 1_455
K1 Na3 3.977875 1_455
K1 Na12 4.110882 1_565
K1 Na13 4.110882 1_465
K2 Tl11 3.756465 1_555
K2 Tl12 3.756465 1_555
K2 Tl13 3.756465 1_545
K2 Tl10 3.756465 1_545
K2 Tl6 3.807076 1_555
K2 Tl8 3.807076 1_555
K2 Na13 3.839666 1_555
K2 Na12 3.839666 1_555
K2 Na5 3.977875 1_545
K2 Na7 3.977875 1_555
K2 Na2 3.977875 1_545
K2 Na0 3.977875 1_555
K2 K3 4.075859 1_554
K2 Na8 4.110882 1_555
K2 Na9 4.110882 1_545
K3 Tl11 3.756465 1_556
K3 Tl10 3.756465 1_546
K3 Tl13 3.756465 1_546
K3 Tl12 3.756465 1_556
K3 Tl9 3.807076 1_555
K3 Tl7 3.807076 1_555
K3 Na12 3.839666 1_555
K3 Na13 3.839666 1_555
K3 Na4 3.977875 1_545
K3 Na6 3.977875 1_555
K3 Na3 3.977875 1_545
K3 Na1 3.977875 1_555
K3 Na8 4.110882 1_556
K3 Na9 4.110882 1_546
K4 Tl17 3.756465 1_554
K4 Tl15 3.756465 1_555
K4 Tl14 3.756465 1_554
K4 Tl16 3.756465 1_555
K4 Tl12 3.807076 1_555
K4 Tl10 3.807076 1_555
K4 Na9 3.839666 1_555
K4 Na8 3.839666 1_555
K4 Na7 3.977875 1_555
K4 Na2 3.977875 1_555
K4 Na1 3.977875 1_554
K4 Na4 3.977875 1_554
K4 K5 4.075859 1_455
K4 Na10 4.110882 1_555
K4 Na11 4.110882 1_554
K5 Tl15 3.756465 1_655
K5 Tl16 3.756465 1_655
K5 Tl17 3.756465 1_654
K5 Tl14 3.756465 1_654
K5 Tl11 3.807076 1_555
K5 Tl13 3.807076 1_555
K5 Na8 3.839666 1_555
K5 Na9 3.839666 1_555
K5 Na3 3.977875 1_554
K5 Na0 3.977875 1_555
K5 Na5 3.977875 1_555
K5 Na6 3.977875 1_554
K5 Na10 4.110882 1_655
K5 Na11 4.110882 1_654
Na0 Tl16 3.336975 1_655
Na0 Tl11 3.336975 1_555
Na0 Tl6 3.336975 1_555
Na0 Tl5 3.364179 1_555
Na0 Tl2 3.364179 1_555
Na0 Tl0 3.364179 1_555
Na0 Na10 3.889891 1_655
Na0 Na13 3.889891 1_555
Na0 Na8 3.889891 1_555
Na1 Tl14 3.336975 1_555
Na1 Tl12 3.336975 1_556
Na1 Tl7 3.336975 1_555
Na1 Tl0 3.364179 1_555
Na1 Tl3 3.364179 1_555
Na1 Tl4 3.364179 1_555
Na1 Na11 3.889891 1_555
Na1 Na12 3.889891 1_555
Na1 Na8 3.889891 1_556
Na2 Tl15 3.336975 1_555
Na2 Tl8 3.336975 1_565
Na2 Tl10 3.336975 1_555
Na2 Tl1 3.364179 1_555
Na2 Tl2 3.364179 1_555
Na2 Tl4 3.364179 1_555
Na2 Na9 3.889891 1_555
Na3 Tl17 3.336975 1_655
Na3 Tl13 3.336975 1_556
Na3 Tl9 3.336975 1_565
Na3 Tl1 3.364179 1_555
Na3 Tl5 3.364179 1_555
Na3 Tl3 3.364179 1_555
Na3 Na9 3.889891 1_556
Na4 Tl10 3.336975 1_556
Na4 Tl17 3.336975 1_555
Na4 Tl7 3.336975 1_565
Na4 Tl1 3.364179 1_555
Na4 Tl3 3.364179 1_555
Na4 Tl4 3.364179 1_555
Na4 Na9 3.889891 1_556
Na5 Tl6 3.336975 1_565
Na5 Tl13 3.336975 1_555
Na5 Tl15 3.336975 1_655
Na5 Tl1 3.364179 1_555
Na5 Tl5 3.364179 1_555
Na5 Tl2 3.364179 1_555
Na5 Na9 3.889891 1_555
Na6 Tl11 3.336975 1_556
Na6 Tl14 3.336975 1_655
Na6 Tl9 3.336975 1_555
Na6 Tl5 3.364179 1_555
Na6 Tl0 3.364179 1_555
Na6 Tl3 3.364179 1_555
Na6 Na8 3.889891 1_556
Na7 Tl8 3.336975 1_555
Na7 Tl12 3.336975 1_555
Na7 Tl16 3.336975 1_555
Na7 Tl2 3.364179 1_555
Na7 Tl0 3.364179 1_555
Na7 Tl4 3.364179 1_555
Na7 Na8 3.889891 1_555
Na8 Tl11 3.288926 1_555
Na8 Tl12 3.288926 1_555
Na8 Tl2 3.542501 1_555
Na8 Tl3 3.542501 1_554
Na8 Na9 3.677188 1_555
Na9 Tl13 3.288926 1_555
Na9 Tl10 3.288926 1_555
Na9 Tl2 3.542501 1_555
Na9 Tl3 3.542501 1_554
Na10 Tl15 3.288926 1_555
Na10 Tl16 3.288926 1_555
Na10 Tl4 3.542501 1_555
Na10 Tl5 3.542501 1_455
Na10 Na11 3.677188 1_555
Na10 Na7 3.889891 1_555
Na10 Na5 3.889891 1_455
Na10 Na2 3.889891 1_555
Na11 Tl17 3.288926 1_555
Na11 Tl14 3.288926 1_555
Na11 Tl4 3.542501 1_555
Na11 Tl5 3.542501 1_455
Na11 Na6 3.889891 1_455
Na11 Na4 3.889891 1_555
Na11 Na3 3.889891 1_455
Na12 Tl7 3.288926 1_555
Na12 Tl8 3.288926 1_555
Na12 Tl0 3.542501 1_555
Na12 Tl1 3.542501 1_545
Na12 Na13 3.677188 1_555
Na12 Na4 3.889891 1_545
Na12 Na7 3.889891 1_555
Na12 Na2 3.889891 1_545
Na13 Tl9 3.288926 1_555
Na13 Tl6 3.288926 1_555
Na13 Tl0 3.542501 1_555
Na13 Tl1 3.542501 1_545
Na13 Na5 3.889891 1_545
Na13 Na3 3.889891 1_545
Na13 Na6 3.889891 1_555
Tl0 Tl5 3.366902 1_555
Tl0 Tl3 3.366902 1_555
Tl0 Tl2 3.366902 1_555
Tl0 Tl4 3.366902 1_555
Tl1 Tl3 3.366902 1_555
Tl1 Tl5 3.366902 1_555
Tl1 Tl2 3.366902 1_555
Tl1 Tl4 3.366902 1_555
Tl2 Tl5 3.366902 1_555
Tl2 Tl4 3.366902 1_555
Tl3 Tl5 3.366902 1_555
Tl3 Tl4 3.366902 1_555
Tl6 Zn0 3.195867 1_655
Tl6 Tl8 3.329534 1_655
Tl7 Zn0 3.195867 1_556
Tl7 Tl9 3.329534 1_455
Tl8 Zn0 3.195867 1_555
Tl9 Zn0 3.195867 1_656
Tl10 Zn0 3.195867 1_565
Tl10 Tl12 3.329534 1_565
Tl10 Tl8 3.368097 1_565
Tl10 Tl7 3.368097 1_564
Tl10 Tl17 3.368097 1_554
Tl10 Tl15 3.368097 1_555
Tl11 Zn0 3.195867 1_655
Tl11 Tl13 3.329534 1_545
Tl11 Tl9 3.368097 1_554
Tl11 Tl16 3.368097 1_655
Tl11 Tl14 3.368097 1_654
Tl11 Tl6 3.368097 1_555
Tl12 Zn0 3.195867 1_555
Tl12 Tl16 3.368097 1_555
Tl12 Tl8 3.368097 1_555
Tl12 Tl7 3.368097 1_554
Tl12 Tl14 3.368097 1_554
Tl13 Zn0 3.195867 1_665
Tl13 Tl15 3.368097 1_655
Tl13 Tl9 3.368097 1_564
Tl13 Tl17 3.368097 1_654
Tl13 Tl6 3.368097 1_565
Tl14 Zn0 3.195867 1_556
Tl14 Tl16 3.329534 1_556
Tl14 Tl7 3.368097 1_555
Tl14 Tl9 3.368097 1_455
Tl15 Zn0 3.195867 1_565
Tl15 Tl17 3.329534 1_554
Tl15 Tl8 3.368097 1_565
Tl15 Tl6 3.368097 1_465
Tl16 Zn0 3.195867 1_555
Tl16 Tl6 3.368097 1_455
Tl16 Tl8 3.368097 1_555
Tl17 Zn0 3.195867 1_566
Tl17 Tl7 3.368097 1_565
Tl17 Tl9 3.368097 1_465
