# generated using pymatgen
data_Mg2CClO6
_symmetry_space_group_name_H-M   'P 1'
_cell_length_a   7.52897564
_cell_length_b   13.47538143
_cell_length_c   13.47538117
_cell_angle_alpha   116.61363116
_cell_angle_beta   100.73345268
_cell_angle_gamma   100.73345252
_symmetry_Int_Tables_number   1
_chemical_formula_structural   Mg2CClO6
_chemical_formula_sum   'Mg12 C6 Cl6 O36'
_cell_volume   1142.92442091
_cell_formula_units_Z   6
loop_
 _symmetry_equiv_pos_site_id
 _symmetry_equiv_pos_as_xyz
  1  'x, y, z'
loop_
 _atom_site_type_symbol
 _atom_site_label
 _atom_site_symmetry_multiplicity
 _atom_site_fract_x
 _atom_site_fract_y
 _atom_site_fract_z
 _atom_site_occupancy
  Mg  Mg0  1  0.75347811  0.02202289  0.42111926  1
  Mg  Mg1  1  0.33235885  0.57888074  0.60090363  1
  Mg  Mg2  1  0.73145522  0.39909637  0.97797711  1
  Mg  Mg3  1  0.25347811  0.42111926  0.02202289  1
  Mg  Mg4  1  0.23145522  0.97797711  0.39909637  1
  Mg  Mg5  1  0.83235885  0.60090363  0.57888074  1
  Mg  Mg6  1  0.11436471  0.65652353  0.25397706  1
  Mg  Mg7  1  0.86038765  0.74602294  0.40254647  1
  Mg  Mg8  1  0.45784118  0.59745353  0.34347647  1
  Mg  Mg9  1  0.61436471  0.25397706  0.65652353  1
  Mg  Mg10  1  0.95784118  0.34347647  0.59745353  1
  Mg  Mg11  1  0.36038765  0.40254647  0.74602294  1
  C  C0  1  0.52061122  0.84153564  0.38709734  1
  C  C1  1  0.13351388  0.61290266  0.45443830  1
  C  C2  1  0.67907558  0.54556170  0.15846436  1
  C  C3  1  0.02061122  0.38709734  0.84153564  1
  C  C4  1  0.17907558  0.15846436  0.54556170  1
  C  C5  1  0.63351388  0.45443830  0.61290266  1
  Cl  Cl0  1  0.65926703  0.83237912  0.15432197  1
  Cl  Cl1  1  0.50494506  0.84567803  0.67805715  1
  Cl  Cl2  1  0.82688791  0.32194285  0.16762088  1
  Cl  Cl3  1  0.15926703  0.15432197  0.83237912  1
  Cl  Cl4  1  0.32688791  0.16762088  0.32194285  1
  Cl  Cl5  1  0.00494506  0.67805715  0.84567803  1
  O  O0  1  0.69185269  0.96736711  0.24612089  1
  O  O1  1  0.44573180  0.75387911  0.72124622  1
  O  O2  1  0.72448558  0.27875378  0.03263289  1
  O  O3  1  0.19185269  0.24612089  0.96736711  1
  O  O4  1  0.22448558  0.03263289  0.27875378  1
  O  O5  1  0.94573180  0.72124622  0.75387911  1
  O  O6  1  0.46605695  0.92648536  0.38419243  1
  O  O7  1  0.08186451  0.61580757  0.54229292  1
  O  O8  1  0.53957159  0.45770708  0.07351464  1
  O  O9  1  0.96605695  0.38419243  0.92648536  1
  O  O10  1  0.03957159  0.07351464  0.45770708  1
  O  O11  1  0.58186451  0.54229292  0.61580757  1
  O  O12  1  0.70407282  0.85978814  0.41638102  1
  O  O13  1  0.28769181  0.58361898  0.44340713  1
  O  O14  1  0.84428468  0.55659287  0.14021186  1
  O  O15  1  0.20407282  0.41638102  0.85978814  1
  O  O16  1  0.34428468  0.14021186  0.55659287  1
  O  O17  1  0.78769181  0.44340713  0.58361898  1
  O  O18  1  0.40207856  0.74591305  0.36232392  1
  O  O19  1  0.03975464  0.63767608  0.38358913  1
  O  O20  1  0.65616551  0.61641087  0.25408695  1
  O  O21  1  0.90207856  0.36232392  0.74591305  1
  O  O22  1  0.15616551  0.25408695  0.61641087  1
  O  O23  1  0.53975464  0.38358913  0.63767608  1
  O  O24  1  0.04470935  0.81132124  0.32831219  1
  O  O25  1  0.71639716  0.67168781  0.48300905  1
  O  O26  1  0.23338811  0.51699095  0.18867876  1
  O  O27  1  0.54470935  0.32831219  0.81132124  1
  O  O28  1  0.73338811  0.18867876  0.51699095  1
  O  O29  1  0.21639716  0.48300905  0.67168781  1
  O  O30  1  0.24240160  0.58623200  0.12886498  1
  O  O31  1  0.11353662  0.87113502  0.45736702  1
  O  O32  1  0.65616960  0.54263298  0.41376800  1
  O  O33  1  0.74240160  0.12886498  0.58623200  1
  O  O34  1  0.15616960  0.41376800  0.54263298  1
  O  O35  1  0.61353662  0.45736702  0.87113502  1
loop_
_geom_bond_atom_site_label_1
_geom_bond_atom_site_label_2
_geom_bond_distance
_geom_bond_site_symmetry_2
Mg0 O10 2.026187 1_655
Mg0 O0 2.056154 1_545
Mg0 O33 2.067376 1_555
Mg0 O28 2.082117 1_555
Mg0 O12 2.117780 1_545
Mg0 O6 2.138951 1_545
Mg1 O11 2.026187 1_555
Mg1 O1 2.056154 1_555
Mg1 O34 2.067376 1_555
Mg1 O29 2.082117 1_555
Mg1 O13 2.117780 1_555
Mg1 O7 2.138951 1_555
Mg2 O9 2.026187 1_555
Mg2 O2 2.056154 1_556
Mg2 O35 2.067376 1_555
Mg2 O27 2.082117 1_555
Mg2 O14 2.117780 1_556
Mg2 O8 2.138951 1_556
Mg3 O8 2.026187 1_555
Mg3 O3 2.056154 1_554
Mg3 O30 2.067376 1_555
Mg3 O26 2.082117 1_555
Mg3 O15 2.117780 1_554
Mg3 O9 2.138951 1_454
Mg4 O6 2.026187 1_555
Mg4 O4 2.056154 1_565
Mg4 O31 2.067376 1_555
Mg4 O24 2.082117 1_555
Mg4 O16 2.117780 1_565
Mg4 O10 2.138951 1_565
Mg5 O7 2.026187 1_655
Mg5 O5 2.056154 1_555
Mg5 O32 2.067376 1_555
Mg5 O25 2.082117 1_555
Mg5 O17 2.117780 1_555
Mg5 O11 2.138951 1_555
Mg6 O19 2.034773 1_555
Mg6 O30 2.045374 1_555
Mg6 O14 2.065842 1_455
Mg6 O24 2.088234 1_555
Mg6 O18 2.132924 1_555
Mg6 O26 2.133461 1_555
Mg7 O20 2.034773 1_555
Mg7 O31 2.045374 1_655
Mg7 O12 2.065842 1_555
Mg7 O25 2.088234 1_555
Mg7 O19 2.132924 1_655
Mg7 O24 2.133461 1_655
Mg8 O18 2.034773 1_555
Mg8 O32 2.045374 1_555
Mg8 O13 2.065842 1_555
Mg8 O26 2.088234 1_555
Mg8 O20 2.132924 1_555
Mg8 O25 2.133461 1_555
Mg9 O23 2.034773 1_555
Mg9 O33 2.045374 1_555
Mg9 O16 2.065842 1_555
Mg9 O27 2.088234 1_555
Mg9 O21 2.132924 1_555
Mg9 O28 2.133461 1_555
Mg10 O21 2.034773 1_555
Mg10 O34 2.045374 1_655
Mg10 O17 2.065842 1_555
Mg10 O28 2.088234 1_555
Mg10 O22 2.132924 1_655
Mg10 O29 2.133461 1_655
Mg11 O22 2.034773 1_555
Mg11 O35 2.045374 1_555
Mg11 O15 2.065842 1_555
Mg11 O29 2.088234 1_555
Mg11 O23 2.132924 1_555
Mg11 O27 2.133461 1_555
C0 O18 1.282006 1_555
C0 O6 1.299976 1_555
C0 O12 1.306756 1_555
C1 O19 1.282006 1_555
C1 O7 1.299976 1_555
C1 O13 1.306756 1_555
C2 O20 1.282006 1_555
C2 O8 1.299976 1_555
C2 O14 1.306756 1_555
C3 O21 1.282006 1_455
C3 O9 1.299976 1_455
C3 O15 1.306756 1_555
C4 O22 1.282006 1_555
C4 O10 1.299976 1_555
C4 O16 1.306756 1_555
C5 O23 1.282006 1_555
C5 O11 1.299976 1_555
C5 O17 1.306756 1_555
Cl0 O0 1.613674 1_555
Cl1 O1 1.613674 1_555
Cl2 O2 1.613674 1_555
Cl3 O3 1.613674 1_555
Cl4 O4 1.613674 1_555
Cl5 O5 1.613674 1_455
O24 O31 1.481698 1_555
O25 O32 1.481698 1_555
O26 O30 1.481698 1_555
O27 O35 1.481698 1_555
O28 O33 1.481698 1_555
O29 O34 1.481698 1_555
