# generated using pymatgen
data_CeSb3Pd
_symmetry_space_group_name_H-M   'P 1'
_cell_length_a   5.46670700
_cell_length_b   5.46670700
_cell_length_c   9.05591100
_cell_angle_alpha   90.00000000
_cell_angle_beta   90.00000000
_cell_angle_gamma   90.00000000
_symmetry_Int_Tables_number   1
_chemical_formula_structural   CeSb3Pd
_chemical_formula_sum   'Ce2 Sb6 Pd2'
_cell_volume   270.63486264
_cell_formula_units_Z   2
loop_
 _symmetry_equiv_pos_site_id
 _symmetry_equiv_pos_as_xyz
  1  'x, y, z'
loop_
 _atom_site_type_symbol
 _atom_site_label
 _atom_site_symmetry_multiplicity
 _atom_site_fract_x
 _atom_site_fract_y
 _atom_site_fract_z
 _atom_site_occupancy
  Ce  Ce0  1  0.00000000  0.50000000  0.23835900  1
  Ce  Ce1  1  0.50000000  0.00000000  0.76164100  1
  Sb  Sb0  1  0.00000000  0.00000000  0.00000000  1
  Sb  Sb1  1  0.50000000  0.50000000  0.00000000  1
  Sb  Sb2  1  0.00000000  0.00000000  0.50000000  1
  Sb  Sb3  1  0.50000000  0.50000000  0.50000000  1
  Sb  Sb4  1  0.00000000  0.50000000  0.61821800  1
  Sb  Sb5  1  0.50000000  0.00000000  0.38178200  1
  Pd  Pd0  1  0.00000000  0.50000000  0.90862600  1
  Pd  Pd1  1  0.50000000  0.00000000  0.09137400  1
loop_
_geom_bond_atom_site_label_1
_geom_bond_atom_site_label_2
_geom_bond_distance
_geom_bond_site_symmetry_2
Ce0 Pd0 2.986033 1_554
Ce0 Sb4 3.439969 1_555
Ce0 Sb0 3.482900 1_555
Ce0 Sb1 3.482900 1_555
Ce0 Sb0 3.482900 1_565
Ce0 Sb1 3.482900 1_455
Ce0 Sb3 3.617356 1_455
Ce0 Sb2 3.617356 1_565
Ce0 Sb3 3.617356 1_555
Ce0 Sb2 3.617356 1_555
Ce1 Pd1 2.986033 1_556
Ce1 Sb5 3.439969 1_555
Ce1 Sb0 3.482900 1_556
Ce1 Sb1 3.482900 1_556
Ce1 Sb0 3.482900 1_656
Ce1 Sb1 3.482900 1_546
Ce1 Sb2 3.617356 1_655
Ce1 Sb3 3.617356 1_555
Ce1 Sb3 3.617356 1_545
Ce1 Sb2 3.617356 1_555
Sb2 Sb4 2.935531 1_545
Sb2 Sb4 2.935531 1_555
Sb2 Sb5 2.935531 1_555
Sb2 Sb5 2.935531 1_455
Sb3 Sb4 2.935531 1_655
Sb3 Sb4 2.935531 1_555
Sb3 Sb5 2.935531 1_555
Sb3 Sb5 2.935531 1_565
Pd0 Sb4 2.629909 1_555
Pd0 Sb0 2.855860 1_556
Pd0 Sb0 2.855860 1_566
Pd0 Sb1 2.855860 1_456
Pd0 Sb1 2.855860 1_556
Pd1 Sb5 2.629909 1_555
Pd1 Sb1 2.855860 1_555
Pd1 Sb0 2.855860 1_555
Pd1 Sb1 2.855860 1_545
Pd1 Sb0 2.855860 1_655
