# generated using pymatgen
data_Ba4Y2FeCu5O14
_symmetry_space_group_name_H-M   'P 1'
_cell_length_a   12.58075303
_cell_length_b   12.58075303
_cell_length_c   3.85465100
_cell_angle_alpha   89.99933877
_cell_angle_beta   89.99933877
_cell_angle_gamma   144.01128647
_symmetry_Int_Tables_number   1
_chemical_formula_structural   Ba4Y2FeCu5O14
_chemical_formula_sum   'Ba4 Y2 Fe1 Cu5 O14'
_cell_volume   358.50832792
_cell_formula_units_Z   1
loop_
 _symmetry_equiv_pos_site_id
 _symmetry_equiv_pos_as_xyz
  1  'x, y, z'
loop_
 _atom_site_type_symbol
 _atom_site_label
 _atom_site_symmetry_multiplicity
 _atom_site_fract_x
 _atom_site_fract_y
 _atom_site_fract_z
 _atom_site_occupancy
  Ba  Ba0  1  0.65857200  0.84497700  0.49950700  1
  Ba  Ba1  1  0.15502300  0.34142800  0.50049300  1
  Ba  Ba2  1  0.34142800  0.15502300  0.50049300  1
  Ba  Ba3  1  0.84497700  0.65857200  0.49950700  1
  Y  Y0  1  0.50000000  0.00000000  0.50000000  1
  Y  Y1  1  0.00000000  0.50000000  0.50000000  1
  Fe  Fe0  1  0.50000000  0.50000000  0.00000000  1
  Cu  Cu0  1  0.82100200  0.17899800  0.00000000  1
  Cu  Cu1  1  0.32082600  0.67917400  0.00000000  1
  Cu  Cu2  1  0.67917400  0.32082600  0.00000000  1
  Cu  Cu3  1  0.17899800  0.82100200  0.00000000  1
  Cu  Cu4  1  0.00000000  0.00000000  0.00000000  1
  O  O0  1  0.92123500  0.07876500  0.00000000  1
  O  O1  1  0.42185700  0.57814300  0.00000000  1
  O  O2  1  0.57814300  0.42185700  0.00000000  1
  O  O3  1  0.07876500  0.92123500  0.00000000  1
  O  O4  1  0.81024900  0.18975100  0.50000000  1
  O  O5  1  0.30984100  0.69015900  0.50000000  1
  O  O6  1  0.56013700  0.94031300  0.99908500  1
  O  O7  1  0.05968700  0.43986300  0.00091500  1
  O  O8  1  0.69015900  0.30984100  0.50000000  1
  O  O9  1  0.18975100  0.81024900  0.50000000  1
  O  O10  1  0.43986300  0.05968700  0.00091500  1
  O  O11  1  0.94031300  0.56013700  0.99908500  1
  O  O12  1  0.75099400  0.75099400  0.93879100  1
  O  O13  1  0.24900600  0.24900600  0.06120900  1
loop_
_geom_bond_atom_site_label_1
_geom_bond_atom_site_label_2
_geom_bond_distance
_geom_bond_site_symmetry_2
Ba0 O0 2.747569 1_565
Ba0 O0 2.750335 1_566
Ba0 O1 2.769010 1_555
Ba0 O1 2.771552 1_556
Ba0 O12 2.800353 1_555
Ba0 O4 3.010167 1_565
Ba0 O6 3.013986 1_555
Ba0 O6 3.016066 1_554
Ba0 O5 3.035380 1_555
Ba0 O12 3.105842 1_554
Ba1 O0 2.747569 1_456
Ba1 O0 2.750335 1_455
Ba1 O1 2.769010 1_556
Ba1 O1 2.771552 1_555
Ba1 O13 2.800353 1_555
Ba1 O4 3.010167 1_455
Ba1 O7 3.013986 1_555
Ba1 O7 3.016066 1_556
Ba1 O5 3.035380 1_555
Ba1 O13 3.105842 1_556
Ba2 O3 2.747569 1_546
Ba2 O3 2.750335 1_545
Ba2 O2 2.769010 1_556
Ba2 O2 2.771552 1_555
Ba2 O13 2.800353 1_555
Ba2 O9 3.010167 1_545
Ba2 O10 3.013986 1_555
Ba2 O10 3.016066 1_556
Ba2 O8 3.035380 1_555
Ba2 O13 3.105842 1_556
Ba3 O3 2.747569 1_655
Ba3 O3 2.750335 1_656
Ba3 O2 2.769010 1_555
Ba3 O2 2.771552 1_556
Ba3 O12 2.800353 1_555
Ba3 O9 3.010167 1_655
Ba3 O11 3.013986 1_555
Ba3 O11 3.016066 1_554
Ba3 O8 3.035380 1_555
Ba3 O12 3.105842 1_554
Fe0 O2 1.870023 1_555
Fe0 O1 1.870023 1_555
Fe0 O12 1.965176 1_554
Fe0 O13 1.965176 1_555
Cu0 O4 1.944428 1_554
Cu0 O4 1.944428 1_555
Cu0 O7 1.959553 1_655
Cu0 O6 1.959553 1_544
Cu0 O0 2.398654 1_555
Cu1 O5 1.945171 1_555
Cu1 O5 1.945171 1_554
Cu1 O7 1.962454 1_555
Cu1 O6 1.962454 1_554
Cu1 O1 2.417751 1_555
Cu2 O8 1.945171 1_555
Cu2 O8 1.945171 1_554
Cu2 O10 1.962454 1_555
Cu2 O11 1.962454 1_554
Cu2 O2 2.417751 1_555
Cu3 O9 1.944428 1_554
Cu3 O9 1.944428 1_555
Cu3 O10 1.959553 1_565
Cu3 O11 1.959553 1_454
Cu3 O3 2.398654 1_555
Cu4 O0 1.884908 1_455
Cu4 O3 1.884908 1_545
Cu4 O13 1.949854 1_555
Cu4 O12 1.949854 1_444
O4 Y1 2.419711 1_655
O4 Y0 2.419711 1_555
O5 Y1 2.413906 1_555
O5 Y0 2.413906 1_565
O6 Y0 2.399295 1_565
O6 Y0 2.404955 1_566
O7 Y1 2.399295 1_555
O7 Y1 2.404955 1_554
O8 Y1 2.413906 1_655
O8 Y0 2.413906 1_555
O9 Y1 2.419711 1_555
O9 Y0 2.419711 1_565
O10 Y0 2.399295 1_555
O10 Y0 2.404955 1_554
O11 Y1 2.399295 1_655
O11 Y1 2.404955 1_656
