# generated using pymatgen
data_TaZn2SnO6
_symmetry_space_group_name_H-M   'P 1'
_cell_length_a   7.89917700
_cell_length_b   5.49090800
_cell_length_c   5.49559140
_cell_angle_alpha   88.02506168
_cell_angle_beta   90.00000000
_cell_angle_gamma   90.00000000
_symmetry_Int_Tables_number   1
_chemical_formula_structural   TaZn2SnO6
_chemical_formula_sum   'Ta2 Zn4 Sn2 O12'
_cell_volume   238.22229196
_cell_formula_units_Z   2
loop_
 _symmetry_equiv_pos_site_id
 _symmetry_equiv_pos_as_xyz
  1  'x, y, z'
loop_
 _atom_site_type_symbol
 _atom_site_label
 _atom_site_symmetry_multiplicity
 _atom_site_fract_x
 _atom_site_fract_y
 _atom_site_fract_z
 _atom_site_occupancy
  Ta  Ta0  1  0.00000000  0.00000000  0.50000000  1
  Ta  Ta1  1  0.50000000  0.00000000  0.50000000  1
  Zn  Zn0  1  0.75000000  0.01970300  0.01069100  1
  Zn  Zn1  1  0.75000000  0.48997800  0.52779000  1
  Zn  Zn2  1  0.25000000  0.51002200  0.47221000  1
  Zn  Zn3  1  0.25000000  0.98029700  0.98930900  1
  Sn  Sn0  1  0.00000000  0.50000000  0.00000000  1
  Sn  Sn1  1  0.50000000  0.50000000  0.00000000  1
  O  O0  1  0.43453900  0.14384500  0.17856000  1
  O  O1  1  0.57014100  0.68996300  0.34852400  1
  O  O2  1  0.56546100  0.85615500  0.82144000  1
  O  O3  1  0.07014100  0.31003700  0.65147600  1
  O  O4  1  0.25000000  0.87514200  0.56960700  1
  O  O5  1  0.42985900  0.31003700  0.65147600  1
  O  O6  1  0.92985900  0.68996300  0.34852400  1
  O  O7  1  0.06546100  0.14384500  0.17856000  1
  O  O8  1  0.75000000  0.38133700  0.90383900  1
  O  O9  1  0.93453900  0.85615500  0.82144000  1
  O  O10  1  0.25000000  0.61866300  0.09616100  1
  O  O11  1  0.75000000  0.12485800  0.43039300  1
loop_
_geom_bond_atom_site_label_1
_geom_bond_atom_site_label_2
_geom_bond_distance
_geom_bond_site_symmetry_2
O0 Ta1 1.978785 1_555
O0 Zn3 2.019265 1_544
O0 Sn1 2.218665 1_555
O1 Ta1 1.998935 1_565
O1 Zn1 2.029857 1_555
O1 Sn1 2.280618 1_555
O2 Ta1 1.978785 1_565
O2 Zn0 2.019265 1_566
O2 Sn1 2.218665 1_556
O3 Ta0 1.998935 1_555
O3 Zn2 2.029857 1_555
O3 Sn0 2.280618 1_556
O4 Zn2 2.092808 1_555
O4 Ta0 2.120871 1_565
O4 Ta1 2.120871 1_565
O4 Zn3 2.396908 1_555
O5 Ta1 1.998935 1_555
O5 Zn2 2.029857 1_555
O5 Sn1 2.280618 1_556
O6 Ta0 1.998935 1_665
O6 Zn1 2.029857 1_555
O6 Sn0 2.280618 1_655
O7 Ta0 1.978785 1_555
O7 Zn3 2.019265 1_544
O7 Sn0 2.218665 1_555
O8 Zn0 2.051208 1_556
O8 Zn1 2.131143 1_555
O8 Sn1 2.151129 1_556
O8 Sn0 2.151129 1_656
O9 Ta0 1.978785 1_665
O9 Zn0 2.019265 1_566
O9 Sn0 2.218665 1_656
O10 Zn3 2.051208 1_554
O10 Zn2 2.131143 1_555
O10 Sn0 2.151129 1_555
O10 Sn1 2.151129 1_555
O11 Zn1 2.092808 1_555
O11 Ta0 2.120871 1_655
O11 Ta1 2.120871 1_555
O11 Zn0 2.396908 1_555
