# generated using pymatgen
data_Na5SiAs3
_symmetry_space_group_name_H-M   'P 1'
_cell_length_a   7.47499676
_cell_length_b   8.14424122
_cell_length_c   15.60406188
_cell_angle_alpha   58.87313077
_cell_angle_beta   90.00000000
_cell_angle_gamma   90.00000000
_symmetry_Int_Tables_number   1
_chemical_formula_structural   Na5SiAs3
_chemical_formula_sum   'Na20 Si4 As12'
_cell_volume   813.17801181
_cell_formula_units_Z   4
loop_
 _symmetry_equiv_pos_site_id
 _symmetry_equiv_pos_as_xyz
  1  'x, y, z'
loop_
 _atom_site_type_symbol
 _atom_site_label
 _atom_site_symmetry_multiplicity
 _atom_site_fract_x
 _atom_site_fract_y
 _atom_site_fract_z
 _atom_site_occupancy
  Na  Na0  1  0.50472650  0.55949783  0.75705932  1
  Na  Na1  1  0.00472650  0.44050217  0.74294068  1
  Na  Na2  1  0.49527350  0.44050217  0.24294068  1
  Na  Na3  1  0.99527350  0.55949783  0.25705932  1
  Na  Na4  1  0.96721149  0.25229471  0.58293542  1
  Na  Na5  1  0.46721149  0.74770529  0.91706458  1
  Na  Na6  1  0.03278851  0.74770529  0.41706458  1
  Na  Na7  1  0.53278851  0.25229471  0.08293542  1
  Na  Na8  1  0.48208276  0.08885305  0.58663444  1
  Na  Na9  1  0.98208276  0.91114695  0.91336556  1
  Na  Na10  1  0.51791724  0.91114695  0.41336556  1
  Na  Na11  1  0.01791724  0.08885305  0.08663444  1
  Na  Na12  1  0.33794611  0.15770609  0.91883591  1
  Na  Na13  1  0.83794611  0.84229391  0.58116409  1
  Na  Na14  1  0.66205389  0.84229391  0.08116409  1
  Na  Na15  1  0.16205389  0.15770609  0.41883591  1
  Na  Na16  1  0.15055647  0.83436105  0.74145205  1
  Na  Na17  1  0.65055647  0.16563895  0.75854795  1
  Na  Na18  1  0.84944353  0.16563895  0.25854795  1
  Na  Na19  1  0.34944353  0.83436105  0.24145205  1
  Si  Si0  1  0.14138841  0.48557620  0.08537575  1
  Si  Si1  1  0.64138841  0.51442380  0.41462425  1
  Si  Si2  1  0.85861159  0.51442380  0.91462425  1
  Si  Si3  1  0.35861159  0.48557620  0.58537575  1
  As  As0  1  0.23823584  0.76118000  0.58015076  1
  As  As1  1  0.73823584  0.23882000  0.91984924  1
  As  As2  1  0.76176416  0.23882000  0.41984924  1
  As  As3  1  0.26176416  0.76118000  0.08015076  1
  As  As4  1  0.26539256  0.19200520  0.72533162  1
  As  As5  1  0.76539256  0.80799480  0.77466838  1
  As  As6  1  0.73460744  0.80799480  0.27466838  1
  As  As7  1  0.23460744  0.19200520  0.22533162  1
  As  As8  1  0.18392294  0.47793381  0.93365419  1
  As  As9  1  0.68392294  0.52206619  0.56634581  1
  As  As10  1  0.81607706  0.52206619  0.06634581  1
  As  As11  1  0.31607706  0.47793381  0.43365419  1
loop_
_geom_bond_atom_site_label_1
_geom_bond_atom_site_label_2
_geom_bond_distance
_geom_bond_site_symmetry_2
As0 Si3 2.380180 1_555
As0 Na16 2.944616 1_555
As0 Na15 2.947065 1_565
As0 Na6 3.022457 1_555
As0 Na10 3.057657 1_555
As0 Na13 3.066024 1_455
As0 Na1 3.075917 1_555
As0 Na0 3.098160 1_555
As0 Na8 3.276201 1_565
As1 Si2 2.380180 1_555
As1 Na17 2.944616 1_555
As1 Na14 2.947065 1_546
As1 Na7 3.022457 1_556
As1 Na11 3.057657 1_656
As1 Na12 3.066024 1_555
As1 Na0 3.075917 1_555
As1 Na1 3.098160 1_655
As1 Na9 3.276201 1_545
As2 Si1 2.380180 1_555
As2 Na18 2.944616 1_555
As2 Na13 2.947065 1_545
As2 Na4 3.022457 1_555
As2 Na8 3.057657 1_555
As2 Na15 3.066024 1_655
As2 Na3 3.075917 1_555
As2 Na2 3.098160 1_555
As2 Na10 3.276201 1_545
As3 Si0 2.380180 1_555
As3 Na19 2.944616 1_555
As3 Na12 2.947065 1_564
As3 Na5 3.022457 1_554
As3 Na9 3.057657 1_454
As3 Na14 3.066024 1_555
As3 Na2 3.075917 1_555
As3 Na3 3.098160 1_455
As3 Na11 3.276201 1_565
As4 Si3 2.360726 1_555
As4 Na17 2.913571 1_555
As4 Na16 2.920048 1_545
As4 Na1 2.922813 1_555
As4 Na12 2.935513 1_555
As4 Na4 3.003039 1_455
As4 Na8 3.145324 1_555
As4 Na9 3.374482 1_445
As5 Si2 2.360726 1_555
As5 Na16 2.913571 1_655
As5 Na17 2.920048 1_565
As5 Na0 2.922813 1_555
As5 Na13 2.935513 1_555
As5 Na5 3.003039 1_555
As5 Na9 3.145324 1_555
As5 Na8 3.374482 1_565
As6 Si1 2.360726 1_555
As6 Na19 2.913571 1_555
As6 Na18 2.920048 1_565
As6 Na3 2.922813 1_555
As6 Na14 2.935513 1_555
As6 Na6 3.003039 1_655
As6 Na10 3.145324 1_555
As6 Na11 3.374482 1_665
As7 Si0 2.360726 1_555
As7 Na18 2.913571 1_455
As7 Na19 2.920048 1_545
As7 Na2 2.922813 1_555
As7 Na15 2.935513 1_555
As7 Na7 3.003039 1_555
As7 Na11 3.145324 1_555
As7 Na10 3.374482 1_545
As8 Si0 2.421205 1_556
As8 Si2 2.449169 1_455
As8 Na16 2.912488 1_555
As8 Na5 2.964848 1_555
As8 Na12 2.967187 1_555
As8 Na11 3.075517 1_556
As8 Na7 3.343338 1_556
As8 Na1 3.417766 1_555
As8 Na0 3.448555 1_555
As9 Si1 2.421205 1_555
As9 Si3 2.449169 1_555
As9 Na17 2.912488 1_555
As9 Na4 2.964848 1_555
As9 Na13 2.967187 1_555
As9 Na10 3.075517 1_555
As9 Na6 3.343338 1_655
As9 Na0 3.417766 1_555
As9 Na1 3.448555 1_655
As10 Si2 2.421205 1_554
As10 Si0 2.449169 1_655
As10 Na18 2.912488 1_555
As10 Na7 2.964848 1_555
As10 Na14 2.967187 1_555
As10 Na9 3.075517 1_554
As10 Na5 3.343338 1_554
As10 Na3 3.417766 1_555
As10 Na2 3.448555 1_555
As11 Si3 2.421205 1_555
As11 Si1 2.449169 1_555
As11 Na19 2.912488 1_555
As11 Na6 2.964848 1_555
As11 Na15 2.967187 1_555
As11 Na8 3.075517 1_555
As11 Na4 3.343338 1_455
As11 Na2 3.417766 1_555
As11 Na3 3.448555 1_455
