# generated using pymatgen
data_BaFe2(PO4)2
_symmetry_space_group_name_H-M   'P 1'
_cell_length_a   4.92573283
_cell_length_b   4.92327515
_cell_length_c   8.57577155
_cell_angle_alpha   72.11535666
_cell_angle_beta   73.78975962
_cell_angle_gamma   58.69244537
_symmetry_Int_Tables_number   1
_chemical_formula_structural   BaFe2(PO4)2
_chemical_formula_sum   'Ba1 Fe2 P2 O8'
_cell_volume   167.26135385
_cell_formula_units_Z   1
loop_
 _symmetry_equiv_pos_site_id
 _symmetry_equiv_pos_as_xyz
  1  'x, y, z'
loop_
 _atom_site_type_symbol
 _atom_site_label
 _atom_site_symmetry_multiplicity
 _atom_site_fract_x
 _atom_site_fract_y
 _atom_site_fract_z
 _atom_site_occupancy
  Ba  Ba0  1  0.00006700  0.99991300  0.00008200  1
  Fe  Fe0  1  0.18049000  0.18240100  0.49336800  1
  Fe  Fe1  1  0.81930300  0.81759400  0.50662000  1
  P  P0  1  0.57867700  0.57238900  0.27668100  1
  P  P1  1  0.42130000  0.42763000  0.72339100  1
  O  O0  1  0.64523300  0.63156700  0.08717100  1
  O  O1  1  0.35512300  0.36867100  0.91277400  1
  O  O2  1  0.56425600  0.85087800  0.33623500  1
  O  O3  1  0.85202400  0.23920300  0.35096800  1
  O  O4  1  0.24959600  0.56756000  0.33571100  1
  O  O5  1  0.43575200  0.14882000  0.66401600  1
  O  O6  1  0.14785300  0.76069000  0.64903700  1
  O  O7  1  0.75032600  0.43268500  0.66394600  1
loop_
_geom_bond_atom_site_label_1
_geom_bond_atom_site_label_2
_geom_bond_distance
_geom_bond_site_symmetry_2
Ba0 O1 2.885658 1_554
Ba0 O0 2.886604 1_465
Ba0 O1 2.906543 1_464
Ba0 O0 2.906812 1_555
Ba0 O0 2.938485 1_455
Ba0 O1 2.940939 1_564
Ba0 O4 3.133573 1_555
Ba0 O7 3.137844 1_464
Ba0 O5 3.214535 1_564
Ba0 O2 3.215534 1_455
Ba0 O3 3.321724 1_465
Ba0 O6 3.323129 1_554
Fe0 O4 2.092553 1_555
Fe0 O5 2.100626 1_555
Fe0 O3 2.147182 1_455
Fe0 O6 2.154831 1_545
Fe0 O2 2.185265 1_545
Fe0 O7 2.193400 1_455
Fe1 O7 2.090376 1_555
Fe1 O2 2.098588 1_555
Fe1 O6 2.147420 1_655
Fe1 O3 2.154546 1_565
Fe1 O5 2.185596 1_565
Fe1 O4 2.195003 1_655
O0 P0 1.531203 1_555
O1 P1 1.530173 1_555
O2 P0 1.566638 1_555
O3 P0 1.565642 1_555
O4 P0 1.568078 1_555
O5 P1 1.567173 1_555
O6 P1 1.565746 1_555
O7 P1 1.568434 1_555
