# generated using pymatgen
data_LiLa2Co2Sb2(PbO6)2
_symmetry_space_group_name_H-M   'P 1'
_cell_length_a   5.85063020
_cell_length_b   5.98077716
_cell_length_c   8.15022697
_cell_angle_alpha   87.87225113
_cell_angle_beta   89.56032303
_cell_angle_gamma   90.26558235
_symmetry_Int_Tables_number   1
_chemical_formula_structural   LiLa2Co2Sb2(PbO6)2
_chemical_formula_sum   'Li1 La2 Co2 Sb2 Pb2 O12'
_cell_volume   284.97868967
_cell_formula_units_Z   1
loop_
 _symmetry_equiv_pos_site_id
 _symmetry_equiv_pos_as_xyz
  1  'x, y, z'
loop_
 _atom_site_type_symbol
 _atom_site_label
 _atom_site_symmetry_multiplicity
 _atom_site_fract_x
 _atom_site_fract_y
 _atom_site_fract_z
 _atom_site_occupancy
  Li  Li0  1  0.96616500  0.73885800  0.59050200  1
  La  La0  1  0.49269700  0.45987500  0.75870100  1
  La  La1  1  0.99599700  0.03794800  0.24584100  1
  Co  Co0  1  0.03717000  0.39581500  0.46331500  1
  Co  Co1  1  0.50544600  0.99045200  0.00276400  1
  Sb  Sb0  1  0.98705200  0.52150600  0.00024200  1
  Sb  Sb1  1  0.50727000  0.99265300  0.50390100  1
  Pb  Pb0  1  0.49876700  0.54915000  0.26322900  1
  Pb  Pb1  1  0.02368500  0.05661300  0.79865800  1
  O  O0  1  0.58655300  0.97674000  0.25385700  1
  O  O1  1  0.07604900  0.51724900  0.75830400  1
  O  O2  1  0.45214200  0.03764200  0.75018000  1
  O  O3  1  0.91229700  0.47743300  0.24011000  1
  O  O4  1  0.21483100  0.83417100  0.45169200  1
  O  O5  1  0.71381900  0.71253100  0.95188300  1
  O  O6  1  0.81972300  0.12967400  0.52046600  1
  O  O7  1  0.23263400  0.27790600  0.02594200  1
  O  O8  1  0.36200200  0.29615400  0.48636100  1
  O  O9  1  0.76328000  0.25604500  0.96170400  1
  O  O10  1  0.65291400  0.69092700  0.54053800  1
  O  O11  1  0.18760200  0.79024200  0.04014200  1
loop_
_geom_bond_atom_site_label_1
_geom_bond_atom_site_label_2
_geom_bond_distance
_geom_bond_site_symmetry_2
Li0 O10 1.903182 1_555
Li0 O4 1.908042 1_655
Li0 O1 1.981709 1_655
Li0 O6 2.539735 1_565
Li0 Pb1 2.616347 1_665
La0 O10 2.393690 1_555
La0 O1 2.463271 1_555
La0 O2 2.538875 1_555
La0 O5 2.574065 1_555
La0 O9 2.576435 1_555
La0 O8 2.578903 1_555
La0 O7 2.828652 1_556
La1 O4 2.415561 1_645
La1 O0 2.421656 1_545
La1 O11 2.536344 1_645
La1 O6 2.536799 1_555
La1 O7 2.634572 1_655
La1 O3 2.674690 1_555
La1 O9 2.959497 1_554
Co0 O8 2.002502 1_555
Co0 O3 2.009772 1_455
Co0 O6 2.070301 1_455
Co1 O2 2.093405 1_564
Co1 O0 2.103027 1_555
Co1 O5 2.117374 1_554
Co1 O9 2.200292 1_564
Co1 O11 2.219964 1_555
Co1 O7 2.363019 1_565
O0 Sb1 2.092277 1_555
O0 Pb0 2.604271 1_555
O1 Sb0 2.036676 1_456
O1 Pb1 2.777623 1_555
O2 Sb1 2.058244 1_545
O2 Pb1 2.538407 1_555
O3 Sb0 2.007549 1_555
O3 Pb0 2.466101 1_555
O4 Sb1 2.008213 1_555
O5 Sb0 2.002308 1_556
O6 Sb1 2.007403 1_545
O6 Pb1 2.593932 1_655
O7 Sb0 2.057248 1_455
O7 Pb1 2.622857 1_554
O8 Sb1 2.008614 1_545
O8 Pb0 2.449306 1_555
O9 Sb0 2.087444 1_556
O9 Pb1 2.369213 1_655
O10 Sb1 2.012417 1_555
O10 Pb0 2.609030 1_555
O11 Sb0 2.023098 1_455
O11 Pb1 2.672381 1_564
