# generated using pymatgen
data_Sr7CaMn3(FeO4)5
_symmetry_space_group_name_H-M   'P 1'
_cell_length_a   11.18364124
_cell_length_b   11.34219097
_cell_length_c   17.75902852
_cell_angle_alpha   108.64314243
_cell_angle_beta   108.53996457
_cell_angle_gamma   89.79454188
_symmetry_Int_Tables_number   1
_chemical_formula_structural   Sr7CaMn3(FeO4)5
_chemical_formula_sum   'Sr28 Ca4 Mn12 Fe20 O80'
_cell_volume   2011.60987263
_cell_formula_units_Z   4
loop_
 _symmetry_equiv_pos_site_id
 _symmetry_equiv_pos_as_xyz
  1  'x, y, z'
loop_
 _atom_site_type_symbol
 _atom_site_label
 _atom_site_symmetry_multiplicity
 _atom_site_fract_x
 _atom_site_fract_y
 _atom_site_fract_z
 _atom_site_occupancy
  Sr  Sr0  1  0.30699500  0.05930800  0.60809300  1
  Sr  Sr1  1  0.30734200  0.55923000  0.60822500  1
  Sr  Sr2  1  0.80722400  0.05952800  0.60823600  1
  Sr  Sr3  1  0.80561500  0.56399100  0.10875500  1
  Sr  Sr4  1  0.80712100  0.55919400  0.60845300  1
  Sr  Sr5  1  0.19657200  0.43604500  0.39013500  1
  Sr  Sr6  1  0.19897700  0.44172500  0.89275800  1
  Sr  Sr7  1  0.19806200  0.93807400  0.38941600  1
  Sr  Sr8  1  0.19914600  0.94107400  0.89276400  1
  Sr  Sr9  1  0.69828200  0.43826700  0.39164900  1
  Sr  Sr10  1  0.69949100  0.44178800  0.89251800  1
  Sr  Sr11  1  0.69790000  0.93969800  0.39023700  1
  Sr  Sr12  1  0.69982000  0.94075400  0.89293500  1
  Sr  Sr13  1  0.05718900  0.29521200  0.10991400  1
  Sr  Sr14  1  0.05681900  0.29857000  0.60786200  1
  Sr  Sr15  1  0.05743000  0.79928500  0.60843300  1
  Sr  Sr16  1  0.55664100  0.29571400  0.10892800  1
  Sr  Sr17  1  0.55728300  0.29888700  0.60807800  1
  Sr  Sr18  1  0.55722000  0.79991800  0.11012800  1
  Sr  Sr19  1  0.55717400  0.79917000  0.60810000  1
  Sr  Sr20  1  0.44613800  0.19962100  0.38853000  1
  Sr  Sr21  1  0.44853900  0.20087200  0.89245200  1
  Sr  Sr22  1  0.44532400  0.70051300  0.38837100  1
  Sr  Sr23  1  0.44893300  0.70188300  0.89268300  1
  Sr  Sr24  1  0.94695800  0.19854800  0.38778400  1
  Sr  Sr25  1  0.94964100  0.20083100  0.89276800  1
  Sr  Sr26  1  0.94657800  0.70347600  0.39055100  1
  Sr  Sr27  1  0.94962400  0.70232000  0.89298100  1
  Ca  Ca0  1  0.30259800  0.06269000  0.10522000  1
  Ca  Ca1  1  0.30352700  0.56413700  0.10536600  1
  Ca  Ca2  1  0.80630300  0.06234100  0.10635100  1
  Ca  Ca3  1  0.05733700  0.79069400  0.10572500  1
  Mn  Mn0  1  0.11129600  0.09746000  0.75080000  1
  Mn  Mn1  1  0.11088300  0.59745400  0.75072700  1
  Mn  Mn2  1  0.60827200  0.09411500  0.24795500  1
  Mn  Mn3  1  0.61116300  0.09692400  0.75057900  1
  Mn  Mn4  1  0.61125400  0.59764800  0.75070200  1
  Mn  Mn5  1  0.35895900  0.40107500  0.24774100  1
  Mn  Mn6  1  0.36096400  0.40336800  0.75064000  1
  Mn  Mn7  1  0.35515800  0.90367300  0.24628700  1
  Mn  Mn8  1  0.36136700  0.90341400  0.75071000  1
  Mn  Mn9  1  0.86131100  0.40353400  0.75077300  1
  Mn  Mn10  1  0.86076200  0.90254000  0.24812300  1
  Mn  Mn11  1  0.86155200  0.90325000  0.75085000  1
  Fe  Fe0  1  0.00731900  0.00172300  0.00507000  1
  Fe  Fe1  1  0.00359100  0.00037800  0.49924100  1
  Fe  Fe2  1  0.00603500  0.50184200  0.00253700  1
  Fe  Fe3  1  0.00408300  0.49954900  0.50000600  1
  Fe  Fe4  1  0.50569500  0.00126800  0.00343700  1
  Fe  Fe5  1  0.50318700  0.00018200  0.49937000  1
  Fe  Fe6  1  0.50449400  0.50159500  0.00188800  1
  Fe  Fe7  1  0.50340500  0.50044000  0.49971200  1
  Fe  Fe8  1  0.25515300  0.25196200  0.00288800  1
  Fe  Fe9  1  0.25425000  0.24985000  0.50017600  1
  Fe  Fe10  1  0.25539300  0.75251400  0.00407000  1
  Fe  Fe11  1  0.25409000  0.75021400  0.50015700  1
  Fe  Fe12  1  0.75466300  0.24946800  0.00106800  1
  Fe  Fe13  1  0.75293200  0.24917300  0.49917000  1
  Fe  Fe14  1  0.75670800  0.75343800  0.00381300  1
  Fe  Fe15  1  0.75387400  0.75063500  0.50043100  1
  Fe  Fe16  1  0.10636500  0.08497700  0.24592900  1
  Fe  Fe17  1  0.10920500  0.58974300  0.24892200  1
  Fe  Fe18  1  0.60549100  0.59002100  0.24787000  1
  Fe  Fe19  1  0.85757900  0.40708200  0.24923300  1
  O  O0  1  0.12482000  0.12291200  0.49270300  1
  O  O1  1  0.12656100  0.12195200  0.99397900  1
  O  O2  1  0.12358400  0.62188500  0.49170900  1
  O  O3  1  0.12617500  0.62402300  0.99577100  1
  O  O4  1  0.62434200  0.12287500  0.49371000  1
  O  O5  1  0.62703800  0.12281100  0.99548300  1
  O  O6  1  0.62451400  0.62289800  0.49240100  1
  O  O7  1  0.62471500  0.62299200  0.99269400  1
  O  O8  1  0.13597300  0.38303900  0.01186100  1
  O  O9  1  0.13161300  0.37690300  0.50629800  1
  O  O10  1  0.13479100  0.88038000  0.01344900  1
  O  O11  1  0.13095300  0.87685700  0.50561000  1
  O  O12  1  0.63241700  0.37773300  0.00897200  1
  O  O13  1  0.63078000  0.37766900  0.50595500  1
  O  O14  1  0.63516600  0.88092500  0.00917200  1
  O  O15  1  0.63034500  0.87675400  0.50525600  1
  O  O16  1  0.37411700  0.12116100  0.49273200  1
  O  O17  1  0.37550700  0.12176000  0.99553100  1
  O  O18  1  0.37396900  0.62110300  0.49241200  1
  O  O19  1  0.37472700  0.62110600  0.99563600  1
  O  O20  1  0.87477600  0.12133300  0.49356500  1
  O  O21  1  0.87529200  0.11982800  0.99532200  1
  O  O22  1  0.87380800  0.62000700  0.49142100  1
  O  O23  1  0.87843500  0.62383100  0.99599600  1
  O  O24  1  0.38203200  0.38417100  0.01133700  1
  O  O25  1  0.38137500  0.37896000  0.50611200  1
  O  O26  1  0.38063000  0.88311100  0.01002100  1
  O  O27  1  0.38153800  0.87907500  0.50634800  1
  O  O28  1  0.88315000  0.38074900  0.00965000  1
  O  O29  1  0.88072400  0.37876200  0.50552500  1
  O  O30  1  0.88639400  0.88318900  0.01341600  1
  O  O31  1  0.88164100  0.87912600  0.50675600  1
  O  O32  1  0.09051100  0.09609600  0.13955000  1
  O  O33  1  0.07613100  0.08570200  0.63631900  1
  O  O34  1  0.08581200  0.60292000  0.14170800  1
  O  O35  1  0.07517200  0.58566900  0.63580600  1
  O  O36  1  0.58034700  0.08538000  0.13569300  1
  O  O37  1  0.57552500  0.08554200  0.63620100  1
  O  O38  1  0.58477000  0.59641100  0.13990000  1
  O  O39  1  0.57548200  0.58599800  0.63600800  1
  O  O40  1  0.43929500  0.41679200  0.36251700  1
  O  O41  1  0.43914000  0.41399200  0.86482500  1
  O  O42  1  0.43622300  0.91782400  0.36191000  1
  O  O43  1  0.43974700  0.91460600  0.86473100  1
  O  O44  1  0.94005500  0.40428600  0.35940100  1
  O  O45  1  0.94040700  0.41475900  0.86519500  1
  O  O46  1  0.94005800  0.91681000  0.36355900  1
  O  O47  1  0.94015500  0.91362400  0.86480600  1
  O  O48  1  0.32553500  0.29091300  0.13676600  1
  O  O49  1  0.32598100  0.30046600  0.63620600  1
  O  O50  1  0.32613600  0.79055800  0.13608700  1
  O  O51  1  0.32530700  0.80021900  0.63588300  1
  O  O52  1  0.83105700  0.28698100  0.14167900  1
  O  O53  1  0.82574200  0.30108900  0.63636700  1
  O  O54  1  0.82772800  0.79753600  0.13571000  1
  O  O55  1  0.82559200  0.80015900  0.63592100  1
  O  O56  1  0.19092300  0.19862200  0.35709900  1
  O  O57  1  0.18989900  0.20087000  0.86511600  1
  O  O58  1  0.19094700  0.70395300  0.35882800  1
  O  O59  1  0.18905000  0.70015200  0.86486000  1
  O  O60  1  0.68548900  0.19801200  0.36303400  1
  O  O61  1  0.69026100  0.19992700  0.86506100  1
  O  O62  1  0.68823300  0.70377300  0.35804500  1
  O  O63  1  0.69118900  0.70067700  0.86452600  1
  O  O64  1  0.43091500  0.05998500  0.24099600  1
  O  O65  1  0.44170700  0.06213800  0.75047600  1
  O  O66  1  0.43213100  0.55615400  0.24142400  1
  O  O67  1  0.44197500  0.56218300  0.75071000  1
  O  O68  1  0.93406000  0.06040800  0.24194000  1
  O  O69  1  0.94178300  0.06207200  0.75056700  1
  O  O70  1  0.93627200  0.55912700  0.24858800  1
  O  O71  1  0.94175000  0.56220600  0.75068300  1
  O  O72  1  0.18334700  0.43622300  0.24944800  1
  O  O73  1  0.19170300  0.43829400  0.75032700  1
  O  O74  1  0.17517600  0.92629700  0.24221800  1
  O  O75  1  0.19192100  0.93824100  0.75063100  1
  O  O76  1  0.68546400  0.43795900  0.24974400  1
  O  O77  1  0.69182400  0.43811500  0.75038300  1
  O  O78  1  0.68995700  0.93837400  0.24999200  1
  O  O79  1  0.69196000  0.93815800  0.75047200  1
loop_
_geom_bond_atom_site_label_1
_geom_bond_atom_site_label_2
_geom_bond_distance
_geom_bond_site_symmetry_2
Ca0 O64 2.391846 1_555
Ca0 O48 2.463017 1_555
Ca0 O10 2.526275 1_545
Ca0 O26 2.548013 1_545
Ca0 O1 2.568384 1_554
Ca0 O17 2.599373 1_554
Ca0 O32 2.628052 1_555
Ca0 O36 2.975826 1_555
Ca1 O66 2.417445 1_555
Ca1 O50 2.444979 1_555
Ca1 O8 2.521113 1_555
Ca1 O24 2.542845 1_555
Ca1 O3 2.562052 1_554
Ca1 O19 2.577692 1_554
Ca1 O34 2.710840 1_555
Ca1 O38 3.006856 1_555
Ca2 O68 2.384469 1_555
Ca2 O52 2.415511 1_555
Ca2 O30 2.537335 1_545
Ca2 O14 2.555937 1_545
Ca2 O21 2.588692 1_554
Ca2 O5 2.590298 1_554
Ca2 O36 2.733348 1_555
Ca3 O74 2.361671 1_555
Ca3 O34 2.404482 1_555
Ca3 O10 2.538768 1_555
Ca3 O30 2.556359 1_455
Ca3 O3 2.562184 1_554
Ca3 O23 2.563622 1_454
Ca3 O54 2.779431 1_455
Ca3 O50 2.880519 1_555
Mn0 O57 1.902639 1_555
Mn0 O33 1.903785 1_555
Mn0 O69 1.937648 1_455
Mn0 O75 2.015158 1_545
Mn1 O59 1.897454 1_555
Mn1 O35 1.910553 1_555
Mn1 O71 1.934418 1_455
Mn1 O73 2.014952 1_555
Mn2 O36 1.886805 1_555
Mn2 O60 1.912147 1_555
Mn2 O64 1.979500 1_555
Mn2 O78 1.991092 1_545
Mn3 O37 1.902457 1_555
Mn3 O61 1.904198 1_555
Mn3 O65 1.936467 1_555
Mn3 O79 2.011580 1_545
Mn4 O63 1.897076 1_555
Mn4 O39 1.906931 1_555
Mn4 O67 1.936882 1_555
Mn4 O77 2.017690 1_555
Mn5 O48 1.882949 1_555
Mn5 O40 1.896824 1_555
Mn5 O66 1.992728 1_555
Mn5 O72 2.010370 1_555
Mn6 O41 1.899480 1_555
Mn6 O49 1.904324 1_555
Mn6 O73 1.931210 1_555
Mn6 O67 2.018690 1_555
Mn7 O50 1.890804 1_555
Mn7 O42 1.915840 1_555
Mn7 O64 2.009427 1_565
Mn7 O74 2.009553 1_555
Mn8 O43 1.895368 1_555
Mn8 O51 1.909297 1_555
Mn8 O75 1.934023 1_555
Mn8 O65 2.016697 1_565
Mn9 O53 1.901664 1_555
Mn9 O45 1.902665 1_555
Mn9 O77 1.932562 1_555
Mn9 O71 2.015571 1_555
Mn10 O54 1.885294 1_555
Mn10 O46 1.909983 1_555
Mn10 O78 1.959940 1_555
Mn10 O68 2.020801 1_565
Mn11 O47 1.897190 1_555
Mn11 O55 1.910577 1_555
Mn11 O79 1.934510 1_555
Mn11 O69 2.017518 1_565
Fe0 O30 1.981495 1_445
Fe0 O10 1.982582 1_545
Fe0 O21 1.994021 1_454
Fe0 O1 2.007125 1_554
Fe0 O32 2.162117 1_555
Fe0 O47 2.234208 1_444
Fe1 O20 1.987344 1_455
Fe1 O11 1.997241 1_545
Fe1 O0 1.999993 1_555
Fe1 O31 2.003942 1_445
Fe1 O46 2.159907 1_445
Fe1 O33 2.182743 1_555
Fe2 O8 1.982538 1_555
Fe2 O23 1.986834 1_454
Fe2 O3 1.990635 1_554
Fe2 O28 2.006468 1_455
Fe2 O45 2.188565 1_454
Fe2 O34 2.238824 1_555
Fe3 O9 1.991372 1_555
Fe3 O29 1.993784 1_455
Fe3 O22 1.997560 1_455
Fe3 O2 2.000597 1_555
Fe3 O35 2.163915 1_555
Fe3 O44 2.249177 1_455
Fe4 O14 1.987706 1_545
Fe4 O26 1.995906 1_545
Fe4 O17 1.996422 1_554
Fe4 O5 2.005446 1_554
Fe4 O36 2.109465 1_555
Fe4 O43 2.209013 1_544
Fe5 O16 1.990315 1_555
Fe5 O4 1.993023 1_555
Fe5 O15 1.994457 1_545
Fe5 O27 1.995629 1_545
Fe5 O37 2.178986 1_555
Fe5 O42 2.185674 1_545
Fe6 O19 1.983828 1_554
Fe6 O24 1.994948 1_555
Fe6 O12 2.005081 1_555
Fe6 O7 2.006702 1_554
Fe6 O41 2.184922 1_554
Fe6 O38 2.211820 1_555
Fe7 O13 1.991134 1_555
Fe7 O18 1.991271 1_555
Fe7 O25 1.996535 1_555
Fe7 O6 2.005279 1_555
Fe7 O39 2.171017 1_555
Fe7 O40 2.183244 1_555
Fe8 O8 1.995393 1_555
Fe8 O17 1.995961 1_554
Fe8 O1 1.997256 1_554
Fe8 O24 2.005148 1_555
Fe8 O48 2.146695 1_555
Fe8 O57 2.194486 1_554
Fe9 O16 1.979981 1_555
Fe9 O9 1.987472 1_555
Fe9 O0 1.989065 1_555
Fe9 O25 1.999441 1_555
Fe9 O49 2.166387 1_555
Fe9 O56 2.282557 1_555
Fe10 O10 1.981068 1_555
Fe10 O3 1.994085 1_554
Fe10 O26 1.996909 1_555
Fe10 O19 1.998785 1_554
Fe10 O50 2.117749 1_555
Fe10 O59 2.216554 1_554
Fe11 O18 1.983742 1_555
Fe11 O11 1.987661 1_555
Fe11 O27 1.998095 1_555
Fe11 O2 2.001921 1_555
Fe11 O51 2.161999 1_555
Fe11 O58 2.259862 1_555
Fe12 O5 1.986043 1_554
Fe12 O21 1.992455 1_554
Fe12 O12 1.995618 1_555
Fe12 O28 2.009031 1_555
Fe12 O61 2.167326 1_554
Fe12 O52 2.261227 1_555
Fe13 O20 1.987213 1_555
Fe13 O4 1.991703 1_555
Fe13 O13 1.995739 1_555
Fe13 O29 2.005520 1_555
Fe13 O60 2.167299 1_555
Fe13 O53 2.184202 1_555
Fe14 O14 1.981857 1_555
Fe14 O30 1.998992 1_555
Fe14 O23 2.002220 1_554
Fe14 O7 2.012612 1_554
Fe14 O54 2.106744 1_555
Fe14 O63 2.217620 1_554
Fe15 O15 1.986169 1_555
Fe15 O6 1.991013 1_555
Fe15 O31 1.996623 1_555
Fe15 O22 1.997626 1_555
Fe15 O55 2.158774 1_555
Fe15 O62 2.275624 1_555
Fe16 O32 1.885610 1_555
Fe16 O56 1.909962 1_555
Fe16 O68 1.923645 1_455
Fe16 O74 1.944801 1_545
Fe17 O58 1.892263 1_555
Fe17 O34 1.892338 1_555
Fe17 O72 1.927357 1_555
Fe17 O70 1.963991 1_455
Fe18 O38 1.881940 1_555
Fe18 O62 1.895360 1_555
Fe18 O66 1.937956 1_555
Fe18 O76 1.944837 1_555
Fe19 O52 1.889710 1_555
Fe19 O44 1.889825 1_555
Fe19 O70 1.943854 1_555
Fe19 O76 1.957577 1_555
O0 Sr24 2.610969 1_455
O0 Sr7 2.629686 1_545
O0 Sr14 2.665226 1_555
O0 Sr0 2.673988 1_555
O1 Sr8 2.580128 1_545
O1 Sr25 2.588397 1_455
O1 Sr13 2.668487 1_556
O2 Sr26 2.605887 1_455
O2 Sr5 2.618443 1_555
O2 Sr15 2.681571 1_555
O2 Sr1 2.689879 1_555
O3 Sr27 2.598321 1_455
O3 Sr6 2.607991 1_555
O4 Sr11 2.622624 1_545
O4 Sr20 2.622673 1_555
O4 Sr17 2.653051 1_555
O4 Sr2 2.667289 1_555
O5 Sr12 2.601806 1_545
O5 Sr21 2.610967 1_555
O5 Sr16 2.645036 1_556
O6 Sr9 2.607326 1_555
O6 Sr22 2.622377 1_555
O6 Sr19 2.670775 1_555
O6 Sr4 2.684248 1_555
O7 Sr23 2.569615 1_555
O7 Sr10 2.585430 1_555
O7 Sr3 2.647540 1_556
O7 Sr18 2.694559 1_556
O8 Sr13 2.625236 1_555
O8 Sr6 2.695309 1_554
O8 Sr25 2.742306 1_454
O9 Sr14 2.594541 1_555
O9 Sr1 2.605588 1_555
O9 Sr5 2.659844 1_555
O9 Sr24 2.707492 1_455
O10 Sr27 2.719248 1_454
O10 Sr8 2.741026 1_554
O11 Sr15 2.602273 1_555
O11 Sr0 2.610270 1_565
O11 Sr26 2.659856 1_455
O11 Sr7 2.684775 1_555
O12 Sr16 2.598602 1_555
O12 Sr3 2.609242 1_555
O12 Sr21 2.684102 1_554
O12 Sr10 2.705312 1_554
O13 Sr17 2.598577 1_555
O13 Sr4 2.606121 1_555
O13 Sr9 2.652045 1_555
O13 Sr20 2.699999 1_555
O14 Sr18 2.621322 1_555
O14 Sr12 2.663224 1_554
O14 Sr23 2.710315 1_554
O15 Sr19 2.600565 1_555
O15 Sr2 2.619185 1_565
O15 Sr11 2.677760 1_555
O15 Sr22 2.689162 1_555
O16 Sr7 2.617524 1_545
O16 Sr20 2.621265 1_555
O16 Sr0 2.674607 1_555
O16 Sr17 2.678970 1_555
O17 Sr8 2.601826 1_545
O17 Sr21 2.613340 1_555
O17 Sr16 2.635521 1_556
O18 Sr22 2.620822 1_555
O18 Sr5 2.634689 1_555
O18 Sr1 2.679361 1_555
O18 Sr19 2.682885 1_555
O19 Sr6 2.590214 1_555
O19 Sr23 2.629128 1_555
O19 Sr18 2.677145 1_556
O20 Sr11 2.613100 1_545
O20 Sr24 2.639888 1_555
O20 Sr14 2.664340 1_655
O20 Sr2 2.665359 1_555
O21 Sr12 2.584732 1_545
O21 Sr25 2.625031 1_555
O21 Sr13 2.654225 1_656
O22 Sr9 2.593067 1_555
O22 Sr26 2.604699 1_555
O22 Sr4 2.693991 1_555
O22 Sr15 2.699019 1_655
O23 Sr27 2.597277 1_555
O23 Sr10 2.628741 1_555
O23 Sr3 2.654027 1_556
O24 Sr16 2.601736 1_555
O24 Sr6 2.679470 1_554
O24 Sr21 2.741212 1_554
O25 Sr1 2.593596 1_555
O25 Sr17 2.597562 1_555
O25 Sr5 2.658728 1_555
O25 Sr20 2.694085 1_555
O26 Sr18 2.603389 1_555
O26 Sr8 2.658177 1_554
O26 Sr23 2.722759 1_554
O27 Sr19 2.592692 1_555
O27 Sr0 2.592856 1_565
O27 Sr7 2.671955 1_555
O27 Sr22 2.688404 1_555
O28 Sr13 2.605213 1_655
O28 Sr3 2.605388 1_555
O28 Sr10 2.686748 1_554
O28 Sr25 2.699700 1_554
O29 Sr4 2.600008 1_555
O29 Sr14 2.603195 1_655
O29 Sr9 2.635743 1_555
O29 Sr24 2.709320 1_555
O30 Sr12 2.720730 1_554
O30 Sr27 2.725651 1_554
O31 Sr2 2.590608 1_565
O31 Sr15 2.592438 1_655
O31 Sr26 2.658836 1_555
O31 Sr11 2.677903 1_555
O32 Sr13 2.479006 1_555
O33 Sr14 2.615009 1_555
O33 Sr0 2.780044 1_555
O33 Sr2 2.887735 1_455
O33 Sr15 3.122947 1_545
O34 Sr3 3.005919 1_455
O35 Sr15 2.614237 1_555
O35 Sr1 2.789439 1_555
O35 Sr4 2.880972 1_455
O35 Sr14 3.130327 1_555
O36 Sr16 2.574460 1_555
O36 Sr18 3.122122 1_545
O37 Sr17 2.617408 1_555
O37 Sr2 2.787010 1_555
O37 Sr0 2.883524 1_555
O37 Sr19 3.121623 1_545
O38 Sr18 2.524658 1_555
O38 Sr3 2.696942 1_555
O39 Sr19 2.613725 1_555
O39 Sr4 2.783583 1_555
O39 Sr1 2.880650 1_555
O39 Sr17 3.130478 1_555
O40 Sr20 2.643914 1_555
O40 Sr9 2.772685 1_555
O40 Sr5 2.903592 1_555
O40 Sr22 3.099712 1_555
O41 Sr21 2.611222 1_555
O41 Sr10 2.795697 1_555
O41 Sr6 2.881066 1_555
O41 Sr23 3.139157 1_555
O42 Sr22 2.648518 1_555
O42 Sr11 2.805035 1_555
O42 Sr7 2.852527 1_555
O42 Sr20 3.074835 1_565
O43 Sr23 2.609566 1_555
O43 Sr12 2.789864 1_555
O43 Sr8 2.885980 1_555
O43 Sr21 3.121511 1_565
O44 Sr24 2.536004 1_555
O44 Sr5 2.746562 1_655
O44 Sr9 2.936625 1_555
O45 Sr25 2.619846 1_555
O45 Sr6 2.775943 1_655
O45 Sr10 2.884293 1_555
O45 Sr27 3.135770 1_555
O46 Sr26 2.609213 1_555
O46 Sr7 2.772416 1_655
O46 Sr11 2.891111 1_555
O46 Sr24 3.082878 1_565
O47 Sr27 2.595513 1_555
O47 Sr8 2.779576 1_655
O47 Sr12 2.884139 1_555
O47 Sr25 3.131177 1_565
O48 Sr16 2.785383 1_555
O48 Sr13 2.887909 1_555
O49 Sr0 2.615272 1_555
O49 Sr17 2.785149 1_555
O49 Sr14 2.888801 1_555
O49 Sr1 3.125138 1_555
O50 Sr18 2.773739 1_555
O51 Sr1 2.614500 1_555
O51 Sr19 2.788818 1_555
O51 Sr15 2.877674 1_555
O51 Sr0 3.127257 1_565
O52 Sr13 2.768625 1_655
O52 Sr16 2.943840 1_555
O53 Sr2 2.619600 1_555
O53 Sr14 2.785274 1_655
O53 Sr17 2.881047 1_555
O53 Sr4 3.117217 1_555
O54 Sr3 2.534907 1_555
O54 Sr18 2.914203 1_555
O55 Sr4 2.614936 1_555
O55 Sr15 2.786143 1_655
O55 Sr19 2.882550 1_555
O55 Sr2 3.129594 1_565
O56 Sr5 2.562702 1_555
O56 Sr20 2.727888 1_555
O56 Sr24 2.947378 1_455
O56 Sr7 3.181572 1_545
O57 Sr6 2.612863 1_555
O57 Sr21 2.776590 1_555
O57 Sr25 2.880999 1_455
O57 Sr8 3.134501 1_545
O58 Sr7 2.530729 1_555
O58 Sr22 2.726378 1_555
O58 Sr26 2.961000 1_455
O59 Sr8 2.612701 1_555
O59 Sr23 2.787985 1_555
O59 Sr27 2.874352 1_455
O59 Sr6 3.120969 1_555
O60 Sr9 2.603006 1_555
O60 Sr24 2.815155 1_555
O60 Sr20 2.852336 1_555
O60 Sr11 3.113844 1_545
O61 Sr10 2.624608 1_555
O61 Sr25 2.783205 1_555
O61 Sr21 2.894383 1_555
O61 Sr12 3.129231 1_545
O62 Sr11 2.546310 1_555
O62 Sr26 2.760700 1_555
O62 Sr22 2.935170 1_555
O63 Sr12 2.602146 1_555
O63 Sr27 2.770340 1_555
O63 Sr23 2.906451 1_555
O63 Sr10 3.127290 1_555
O64 Sr20 2.543088 1_555
O65 Sr21 2.486139 1_555
O65 Sr0 2.488051 1_555
O66 Sr22 2.556932 1_555
O67 Sr1 2.488855 1_555
O67 Sr23 2.489095 1_555
O68 Sr24 2.520624 1_555
O69 Sr25 2.486134 1_555
O69 Sr2 2.487818 1_555
O70 Sr3 2.466662 1_555
O70 Sr26 2.495485 1_555
O71 Sr4 2.484924 1_555
O71 Sr27 2.492243 1_555
O72 Sr13 2.438860 1_555
O72 Sr5 2.456101 1_555
O73 Sr6 2.492472 1_555
O73 Sr14 2.492943 1_555
O74 Sr7 2.503667 1_555
O75 Sr15 2.486031 1_555
O75 Sr8 2.489443 1_555
O76 Sr16 2.465430 1_555
O76 Sr9 2.477111 1_555
O77 Sr10 2.485101 1_555
O77 Sr17 2.488331 1_555
O78 Sr18 2.453034 1_555
O78 Sr11 2.459000 1_555
O79 Sr19 2.489001 1_555
O79 Sr12 2.494089 1_555
