# generated using pymatgen
data_CaLa3(CoO4)2
_symmetry_space_group_name_H-M   'P 1'
_cell_length_a   6.90853845
_cell_length_b   7.65217236
_cell_length_c   7.65640461
_cell_angle_alpha   89.87017828
_cell_angle_beta   73.91184482
_cell_angle_gamma   73.89404355
_symmetry_Int_Tables_number   1
_chemical_formula_structural   CaLa3(CoO4)2
_chemical_formula_sum   'Ca2 La6 Co4 O16'
_cell_volume   372.41970754
_cell_formula_units_Z   2
loop_
 _symmetry_equiv_pos_site_id
 _symmetry_equiv_pos_as_xyz
  1  'x, y, z'
loop_
 _atom_site_type_symbol
 _atom_site_label
 _atom_site_symmetry_multiplicity
 _atom_site_fract_x
 _atom_site_fract_y
 _atom_site_fract_z
 _atom_site_occupancy
  Ca  Ca0  1  0.71777000  0.82248100  0.31714700  1
  Ca  Ca1  1  0.71432500  0.32169800  0.82128800  1
  La  La0  1  0.72273100  0.31905100  0.32098900  1
  La  La1  1  0.72371200  0.81703600  0.81870100  1
  La  La2  1  0.28442700  0.67729600  0.67472200  1
  La  La3  1  0.28510700  0.17667300  0.17757200  1
  La  La4  1  0.28093800  0.68033700  0.17961600  1
  La  La5  1  0.27712200  0.17656000  0.67972900  1
  Co  Co0  1  0.98759200  0.50167400  0.49995000  1
  Co  Co1  1  0.98912000  0.00050600  0.00079700  1
  Co  Co2  1  0.98626900  0.00162800  0.50083900  1
  Co  Co3  1  0.99385700  0.49909000  0.99899600  1
  O  O0  1  0.35278600  0.90662800  0.40758200  1
  O  O1  1  0.34562600  0.40767100  0.91073000  1
  O  O2  1  0.36035100  0.40949400  0.40497500  1
  O  O3  1  0.36079800  0.90865500  0.90748500  1
  O  O4  1  0.64674200  0.58086200  0.58674400  1
  O  O5  1  0.64759100  0.08216300  0.08392000  1
  O  O6  1  0.65035500  0.58526700  0.08207300  1
  O  O7  1  0.64595200  0.08482700  0.58224300  1
  O  O8  1  0.00563500  0.25357700  0.49791400  1
  O  O9  1  0.00518100  0.75180400  0.99581100  1
  O  O10  1  0.00553900  0.99511300  0.75369800  1
  O  O11  1  0.00030600  0.50019300  0.25303900  1
  O  O12  1  0.00573500  0.73979200  0.49801200  1
  O  O13  1  0.99682500  0.24245900  0.00111400  1
  O  O14  1  0.00682600  0.99734500  0.23872200  1
  O  O15  1  0.00077900  0.49612100  0.74159200  1
loop_
_geom_bond_atom_site_label_1
_geom_bond_atom_site_label_2
_geom_bond_distance
_geom_bond_site_symmetry_2
Ca0 O0 2.320687 1_555
Ca0 O11 2.633759 1_655
Ca0 O14 2.636893 1_655
Ca0 O9 2.644007 1_654
Ca0 O12 2.664623 1_655
Ca0 O5 2.702151 1_565
Ca0 O7 2.702518 1_565
Ca0 O6 2.774829 1_555
Ca0 O4 2.800831 1_555
Ca1 O1 2.344224 1_555
Ca1 O15 2.619677 1_655
Ca1 O13 2.627011 1_556
Ca1 O8 2.667238 1_655
Ca1 O10 2.683295 1_645
Ca1 O6 2.698974 1_556
Ca1 O4 2.703799 1_555
Ca1 O5 2.748463 1_556
Ca1 O7 2.797767 1_555
La0 O2 2.304026 1_555
La0 O13 2.597632 1_555
La0 O11 2.605367 1_655
La0 O8 2.612822 1_655
La0 O14 2.636324 1_645
La0 O4 2.696727 1_555
La0 O7 2.723606 1_555
La0 O6 2.769642 1_555
La0 O5 2.812325 1_555
La1 O3 2.306945 1_555
La1 O9 2.605575 1_655
La1 O15 2.610584 1_655
La1 O10 2.612920 1_655
La1 O12 2.624951 1_655
La1 O5 2.711249 1_566
La1 O6 2.717455 1_556
La1 O7 2.770704 1_565
La1 O4 2.788198 1_555
La2 O4 2.303603 1_555
La2 O12 2.587691 1_555
La2 O10 2.598768 1_555
La2 O9 2.618782 1_555
La2 O15 2.640502 1_555
La2 O0 2.719238 1_555
La2 O2 2.749992 1_555
La2 O1 2.761034 1_555
La2 O3 2.764480 1_555
La3 O5 2.304491 1_555
La3 O14 2.600055 1_545
La3 O8 2.615578 1_555
La3 O13 2.641430 1_455
La3 O11 2.647215 1_555
La3 O1 2.719128 1_554
La3 O0 2.737489 1_545
La3 O2 2.739556 1_555
La3 O3 2.753322 1_544
La4 O6 2.348689 1_555
La4 O14 2.580058 1_555
La4 O12 2.592451 1_555
La4 O9 2.610212 1_554
La4 O11 2.617307 1_555
La4 O0 2.694817 1_555
La4 O2 2.729674 1_555
La4 O3 2.753038 1_554
La4 O1 2.789910 1_554
La5 O7 2.344877 1_555
La5 O10 2.573276 1_545
La5 O8 2.575454 1_555
La5 O15 2.600512 1_555
La5 O13 2.623335 1_456
La5 O1 2.724354 1_555
La5 O3 2.731791 1_545
La5 O0 2.774573 1_545
La5 O2 2.795401 1_555
Co0 O12 1.860541 1_655
Co0 O8 1.867557 1_655
Co0 O11 1.867930 1_655
Co0 O15 1.877211 1_655
Co0 O4 2.167169 1_555
Co0 O2 2.369536 1_655
Co1 O14 1.858928 1_645
Co1 O10 1.863501 1_644
Co1 O13 1.866960 1_555
Co1 O9 1.875212 1_644
Co1 O5 2.171202 1_555
Co1 O3 2.362622 1_644
Co2 O8 1.968928 1_655
Co2 O12 1.970307 1_645
Co2 O14 1.971938 1_645
Co2 O10 1.976612 1_645
Co2 O7 2.163468 1_555
Co2 O0 2.329986 1_645
Co3 O9 1.956785 1_655
Co3 O11 1.957961 1_656
Co3 O15 1.958106 1_655
Co3 O13 1.958273 1_556
Co3 O6 2.183595 1_556
Co3 O1 2.236216 1_655
