# generated using pymatgen
data_TmNiSn
_symmetry_space_group_name_H-M   'P 1'
_cell_length_a   4.40654872
_cell_length_b   6.98940731
_cell_length_c   7.59732427
_cell_angle_alpha   89.99978509
_cell_angle_beta   90.00000000
_cell_angle_gamma   90.00000000
_symmetry_Int_Tables_number   1
_chemical_formula_structural   TmNiSn
_chemical_formula_sum   'Tm4 Ni4 Sn4'
_cell_volume   233.99123490
_cell_formula_units_Z   4
loop_
 _symmetry_equiv_pos_site_id
 _symmetry_equiv_pos_as_xyz
  1  'x, y, z'
loop_
 _atom_site_type_symbol
 _atom_site_label
 _atom_site_symmetry_multiplicity
 _atom_site_fract_x
 _atom_site_fract_y
 _atom_site_fract_z
 _atom_site_occupancy
  Tm  Tm0  1  0.25000000  0.98701620  0.29802609  1
  Tm  Tm1  1  0.25000000  0.48701900  0.20197700  1
  Tm  Tm2  1  0.75000000  0.01298139  0.70197845  1
  Tm  Tm3  1  0.75000000  0.51298424  0.79801577  1
  Ni  Ni0  1  0.25000000  0.20299220  0.91430176  1
  Ni  Ni1  1  0.25000000  0.70298802  0.58569014  1
  Ni  Ni2  1  0.75000000  0.79701073  0.08563869  1
  Ni  Ni3  1  0.75000000  0.29701159  0.41437275  1
  Sn  Sn0  1  0.25000000  0.31009910  0.58638414  1
  Sn  Sn1  1  0.25000000  0.81008404  0.91359774  1
  Sn  Sn2  1  0.75000000  0.68989975  0.41366653  1
  Sn  Sn3  1  0.75000000  0.18991374  0.08635095  1
loop_
_geom_bond_atom_site_label_1
_geom_bond_atom_site_label_2
_geom_bond_distance
_geom_bond_site_symmetry_2
Tm0 Tm1 3.570059 1_555
Tm0 Tm1 3.570092 1_565
Tm0 Tm2 3.782308 1_565
Tm0 Tm2 3.782308 1_465
Tm1 Tm3 3.782362 1_554
Tm1 Tm3 3.782362 1_454
Tm2 Tm3 3.570035 1_545
Tm2 Tm3 3.570079 1_555
Ni0 Sn3 2.563458 1_556
Ni0 Sn3 2.563458 1_456
Ni0 Sn0 2.601339 1_555
Ni0 Sn1 2.746200 1_545
Ni0 Tm1 2.952567 1_556
Ni0 Tm2 3.036485 1_455
Ni0 Tm2 3.036485 1_555
Ni0 Tm3 3.213927 1_455
Ni0 Tm3 3.213927 1_555
Ni0 Tm0 3.282916 1_546
Ni1 Sn2 2.563362 1_555
Ni1 Sn2 2.563362 1_455
Ni1 Sn1 2.601250 1_555
Ni1 Sn0 2.746066 1_555
Ni1 Tm0 2.952499 1_555
Ni1 Tm3 3.036468 1_455
Ni1 Tm3 3.036468 1_555
Ni1 Tm2 3.213943 1_565
Ni1 Tm2 3.213943 1_465
Ni1 Tm1 3.282828 1_555
Ni2 Sn1 2.563425 1_654
Ni2 Sn1 2.563425 1_554
Ni2 Sn2 2.602150 1_555
Ni2 Sn3 2.746165 1_565
Ni2 Tm3 2.952271 1_554
Ni2 Tm0 3.036727 1_555
Ni2 Tm0 3.036727 1_655
Ni2 Tm1 3.214035 1_655
Ni2 Tm1 3.214035 1_555
Ni2 Tm2 3.282466 1_564
Ni3 Sn0 2.563315 1_655
Ni3 Sn0 2.563315 1_555
Ni3 Sn3 2.602085 1_555
Ni3 Sn2 2.746061 1_555
Ni3 Tm2 2.952181 1_555
Ni3 Tm1 3.036762 1_655
Ni3 Tm1 3.036762 1_555
Ni3 Tm0 3.214074 1_645
Ni3 Tm0 3.214074 1_545
Ni3 Tm3 3.282367 1_555
Sn0 Tm3 3.074154 1_555
Sn0 Tm3 3.074154 1_455
Sn0 Tm0 3.146220 1_545
Sn0 Tm2 3.152497 1_555
Sn0 Tm2 3.152497 1_455
Sn0 Tm1 3.171464 1_555
Sn1 Tm2 3.074139 1_565
Sn1 Tm2 3.074139 1_465
Sn1 Tm1 3.146231 1_556
Sn1 Tm3 3.152393 1_455
Sn1 Tm3 3.152393 1_555
Sn1 Tm0 3.171655 1_556
Sn2 Tm1 3.074370 1_655
Sn2 Tm1 3.074370 1_555
Sn2 Tm2 3.145969 1_565
Sn2 Tm0 3.152589 1_655
Sn2 Tm0 3.152589 1_555
Sn2 Tm3 3.171047 1_555
Sn3 Tm0 3.074361 1_545
Sn3 Tm0 3.074361 1_645
Sn3 Tm3 3.146025 1_554
Sn3 Tm1 3.152511 1_655
Sn3 Tm1 3.152511 1_555
Sn3 Tm2 3.171265 1_554
