# generated using pymatgen
data_Ca3CoO6
_symmetry_space_group_name_H-M   'P 1'
_cell_length_a   6.35115211
_cell_length_b   6.35193392
_cell_length_c   6.38829291
_cell_angle_alpha   87.83337605
_cell_angle_beta   88.13096859
_cell_angle_gamma   88.12449278
_symmetry_Int_Tables_number   1
_chemical_formula_structural   Ca3CoO6
_chemical_formula_sum   'Ca6 Co2 O12'
_cell_volume   257.26788216
_cell_formula_units_Z   2
loop_
 _symmetry_equiv_pos_site_id
 _symmetry_equiv_pos_as_xyz
  1  'x, y, z'
loop_
 _atom_site_type_symbol
 _atom_site_label
 _atom_site_symmetry_multiplicity
 _atom_site_fract_x
 _atom_site_fract_y
 _atom_site_fract_z
 _atom_site_occupancy
  Ca  Ca0  1  0.39611100  0.10336400  0.74744300  1
  Ca  Ca1  1  0.10409300  0.75046400  0.39936500  1
  Ca  Ca2  1  0.25102900  0.60215400  0.89585800  1
  Ca  Ca3  1  0.60399100  0.89908300  0.25030300  1
  Ca  Ca4  1  0.89720000  0.24713200  0.60152300  1
  Ca  Ca5  1  0.74973900  0.39576000  0.10167600  1
  Co  Co0  1  0.49673600  0.50161300  0.49879800  1
  Co  Co1  1  0.99577400  0.99853000  0.00104300  1
  O  O0  1  0.43219700  0.77602300  0.56752300  1
  O  O1  1  0.92522700  0.71649800  0.07322800  1
  O  O2  1  0.77903200  0.57961200  0.43307100  1
  O  O3  1  0.42463000  0.57334300  0.21716100  1
  O  O4  1  0.27767900  0.93379000  0.07755000  1
  O  O5  1  0.22163600  0.42630500  0.57107700  1
  O  O6  1  0.57776200  0.43406100  0.77112300  1
  O  O7  1  0.06739300  0.92330300  0.72898800  1
  O  O8  1  0.92977700  0.06838900  0.27702000  1
  O  O9  1  0.08024200  0.27060200  0.93698800  1
  O  O10  1  0.72420900  0.06906600  0.92674100  1
  O  O11  1  0.56554200  0.23090800  0.42352100  1
loop_
_geom_bond_atom_site_label_1
_geom_bond_atom_site_label_2
_geom_bond_distance
_geom_bond_site_symmetry_2
Ca0 O10 2.410136 1_555
Ca0 O0 2.414374 1_545
Ca0 O7 2.421410 1_545
Ca0 O11 2.425158 1_555
Ca0 O4 2.439448 1_546
Ca0 O6 2.441373 1_555
Ca0 O9 2.533482 1_555
Ca0 O5 2.542255 1_555
Ca1 O2 2.363537 1_455
Ca1 O0 2.388323 1_555
Ca1 O8 2.388606 1_465
Ca1 O5 2.404633 1_555
Ca1 O7 2.412417 1_555
Ca1 O1 2.425340 1_455
Ca1 O4 2.559909 1_555
Ca1 O3 2.561156 1_555
Ca2 O3 2.359710 1_556
Ca2 O9 2.402065 1_555
Ca2 O5 2.408614 1_555
Ca2 O6 2.427465 1_555
Ca2 O1 2.429814 1_456
Ca2 O4 2.456496 1_556
Ca2 O7 2.533545 1_555
Ca2 O0 2.587229 1_555
Ca3 O8 2.376861 1_565
Ca3 O4 2.379600 1_555
Ca3 O0 2.387464 1_555
Ca3 O10 2.409057 1_564
Ca3 O3 2.413857 1_555
Ca3 O11 2.419026 1_565
Ca3 O2 2.544579 1_555
Ca3 O1 2.565337 1_555
Ca4 O5 2.385277 1_655
Ca4 O8 2.400808 1_555
Ca4 O7 2.418200 1_645
Ca4 O11 2.433097 1_555
Ca4 O2 2.440998 1_555
Ca4 O9 2.482814 1_655
Ca4 O6 2.548713 1_555
Ca4 O10 2.560775 1_555
Ca5 O1 2.352295 1_555
Ca5 O10 2.406360 1_554
Ca5 O6 2.409474 1_554
Ca5 O3 2.427184 1_555
Ca5 O9 2.440277 1_654
Ca5 O2 2.471265 1_555
Ca5 O11 2.540248 1_555
Ca5 O8 2.576445 1_555
Co0 O11 1.838079 1_555
Co0 O0 1.843446 1_555
Co0 O6 1.860905 1_555
Co0 O5 1.865508 1_555
Co0 O2 1.905147 1_555
Co0 O3 1.905904 1_555
Co1 O10 1.840530 1_564
Co1 O9 1.853310 1_664
Co1 O7 1.858160 1_654
Co1 O8 1.865373 1_565
Co1 O1 1.897179 1_555
Co1 O4 1.899284 1_655
