# generated using pymatgen
data_Er5Ga2As
_symmetry_space_group_name_H-M   'P 1'
_cell_length_a   8.44206252
_cell_length_b   8.44206252
_cell_length_c   6.42868800
_cell_angle_alpha   90.00000000
_cell_angle_beta   90.00000000
_cell_angle_gamma   119.92357972
_symmetry_Int_Tables_number   1
_chemical_formula_structural   Er5Ga2As
_chemical_formula_sum   'Er10 Ga4 As2'
_cell_volume   397.08549872
_cell_formula_units_Z   2
loop_
 _symmetry_equiv_pos_site_id
 _symmetry_equiv_pos_as_xyz
  1  'x, y, z'
loop_
 _atom_site_type_symbol
 _atom_site_label
 _atom_site_symmetry_multiplicity
 _atom_site_fract_x
 _atom_site_fract_y
 _atom_site_fract_z
 _atom_site_occupancy
  Er  Er0  1  0.66565800  0.33158000  0.24601600  1
  Er  Er1  1  0.33158000  0.66565800  0.24601600  1
  Er  Er2  1  0.33158000  0.66565800  0.75398400  1
  Er  Er3  1  0.66565800  0.33158000  0.75398400  1
  Er  Er4  1  0.24431200  0.00350700  0.50000000  1
  Er  Er5  1  0.00350700  0.24431200  0.50000000  1
  Er  Er6  1  0.75618300  0.75618300  0.50000000  1
  Er  Er7  1  0.75930700  0.99950900  0.00000000  1
  Er  Er8  1  0.99950900  0.75930700  0.00000000  1
  Er  Er9  1  0.24087700  0.24087700  0.00000000  1
  Ga  Ga0  1  0.39878700  0.39878700  0.50000000  1
  Ga  Ga1  1  0.39606800  0.99789400  0.00000000  1
  Ga  Ga2  1  0.99789400  0.39606800  0.00000000  1
  Ga  Ga3  1  0.60110800  0.60110800  0.00000000  1
  As  As0  1  0.60794100  0.99990100  0.50000000  1
  As  As1  1  0.99990100  0.60794100  0.50000000  1
loop_
_geom_bond_atom_site_label_1
_geom_bond_atom_site_label_2
_geom_bond_distance
_geom_bond_site_symmetry_2
Er0 Ga2 3.023403 1_555
Er0 Ga3 3.035238 1_555
Er0 Ga1 3.036467 1_545
Er0 Ga0 3.055965 1_555
Er1 Ga1 3.023403 1_555
Er1 Ga3 3.035238 1_555
Er1 Ga2 3.036467 1_455
Er1 Ga0 3.055965 1_555
Er2 Ga1 3.023403 1_556
Er2 Ga3 3.035238 1_556
Er2 Ga2 3.036467 1_456
Er2 Ga0 3.055965 1_555
Er3 Ga2 3.023403 1_556
Er3 Ga3 3.035238 1_556
Er3 Ga1 3.036467 1_546
Er3 Ga0 3.055965 1_555
Er4 Ga0 2.914518 1_555
Er4 Ga1 3.469312 1_545
Er4 Ga1 3.469312 1_546
Er5 Ga0 2.914518 1_555
Er5 Ga2 3.469312 1_455
Er5 Ga2 3.469312 1_456
Er6 Ga0 3.020644 1_555
Er6 Ga3 3.471289 1_555
Er6 Ga3 3.471289 1_556
Er7 Ga2 2.921827 1_565
Er7 Ga3 2.934990 1_555
Er7 Ga1 3.059708 1_555
Er8 Ga1 2.921827 1_655
Er8 Ga3 2.934990 1_555
Er8 Ga2 3.059708 1_555
Er9 Ga2 2.933500 1_455
Er9 Ga1 2.933500 1_545
Er9 Ga3 3.044605 1_555
Er9 Ga0 3.480407 1_555
Er9 Ga0 3.480407 1_554
As0 Er6 2.892807 1_555
As0 Er5 2.921392 1_665
As0 Er3 3.063091 1_565
As0 Er0 3.063091 1_565
As0 Er2 3.082719 1_555
As0 Er1 3.082719 1_555
As0 Er4 3.085077 1_565
As0 Er7 3.459641 1_555
As0 Er7 3.459641 1_556
As1 Er6 2.892807 1_555
As1 Er4 2.921392 1_665
As1 Er1 3.063091 1_655
As1 Er2 3.063091 1_655
As1 Er3 3.082719 1_555
As1 Er0 3.082719 1_555
As1 Er5 3.085077 1_655
As1 Er8 3.459641 1_555
As1 Er8 3.459641 1_556
