# generated using pymatgen
data_Tb6Zn23
_symmetry_space_group_name_H-M   'P 1'
_cell_length_a   8.89179479
_cell_length_b   8.89179479
_cell_length_c   8.89179479
_cell_angle_alpha   60.00000000
_cell_angle_beta   60.00000000
_cell_angle_gamma   60.00000000
_symmetry_Int_Tables_number   1
_chemical_formula_structural   Tb6Zn23
_chemical_formula_sum   'Tb6 Zn23'
_cell_volume   497.11091076
_cell_formula_units_Z   1
loop_
 _symmetry_equiv_pos_site_id
 _symmetry_equiv_pos_as_xyz
  1  'x, y, z'
loop_
 _atom_site_type_symbol
 _atom_site_label
 _atom_site_symmetry_multiplicity
 _atom_site_fract_x
 _atom_site_fract_y
 _atom_site_fract_z
 _atom_site_occupancy
  Tb  Tb0  1  0.70877474  0.70877474  0.29122526  1
  Tb  Tb1  1  0.29122526  0.70877474  0.29122526  1
  Tb  Tb2  1  0.70877474  0.29122526  0.29122526  1
  Tb  Tb3  1  0.29122526  0.29122526  0.70877474  1
  Tb  Tb4  1  0.70877474  0.29122526  0.70877474  1
  Tb  Tb5  1  0.29122526  0.70877474  0.70877474  1
  Zn  Zn0  1  -0.00000000  -0.00000000  -0.00000000  1
  Zn  Zn1  1  -0.00000000  -0.00000000  0.50000000  1
  Zn  Zn2  1  0.50000000  -0.00000000  0.50000000  1
  Zn  Zn3  1  -0.00000000  0.50000000  0.50000000  1
  Zn  Zn4  1  0.50000000  0.50000000  -0.00000000  1
  Zn  Zn5  1  -0.00000000  0.50000000  -0.00000000  1
  Zn  Zn6  1  0.50000000  -0.00000000  -0.00000000  1
  Zn  Zn7  1  0.87631020  0.87631020  0.37106839  1
  Zn  Zn8  1  0.87631020  0.37106839  0.87631020  1
  Zn  Zn9  1  0.37106839  0.87631020  0.87631020  1
  Zn  Zn10  1  0.87631020  0.87631020  0.87631020  1
  Zn  Zn11  1  0.12368980  0.12368980  0.62893161  1
  Zn  Zn12  1  0.12368980  0.62893161  0.12368980  1
  Zn  Zn13  1  0.62893161  0.12368980  0.12368980  1
  Zn  Zn14  1  0.12368980  0.12368980  0.12368980  1
  Zn  Zn15  1  0.67248978  0.67248978  0.98252967  1
  Zn  Zn16  1  0.67248978  0.98252967  0.67248978  1
  Zn  Zn17  1  0.98252967  0.67248978  0.67248978  1
  Zn  Zn18  1  0.67248978  0.67248978  0.67248978  1
  Zn  Zn19  1  0.32751022  0.32751022  0.01747033  1
  Zn  Zn20  1  0.32751022  0.01747033  0.32751022  1
  Zn  Zn21  1  0.01747033  0.32751022  0.32751022  1
  Zn  Zn22  1  0.32751022  0.32751022  0.32751022  1
loop_
_geom_bond_atom_site_label_1
_geom_bond_atom_site_label_2
_geom_bond_distance
_geom_bond_site_symmetry_2
Tb0 Zn7 3.045779 1_555
Tb0 Zn10 3.045786 1_554
Tb0 Zn13 3.045787 1_565
Tb0 Zn12 3.045787 1_655
Tb0 Zn18 3.101237 1_555
Tb0 Zn21 3.101240 1_655
Tb0 Zn20 3.101240 1_565
Tb0 Zn15 3.101246 1_554
Tb0 Zn2 3.186180 1_565
Tb0 Zn3 3.186180 1_655
Tb0 Zn5 3.186180 1_655
Tb0 Zn6 3.186180 1_565
Tb1 Zn12 3.045779 1_555
Tb1 Zn14 3.045786 1_565
Tb1 Zn7 3.045787 1_455
Tb1 Zn9 3.045787 1_554
Tb1 Zn22 3.101237 1_555
Tb1 Zn17 3.101240 1_455
Tb1 Zn15 3.101240 1_554
Tb1 Zn20 3.101246 1_565
Tb1 Zn6 3.186180 1_565
Tb1 Zn1 3.186180 1_565
Tb1 Zn4 3.186180 1_555
Tb1 Zn3 3.186180 1_555
Tb2 Zn13 3.045779 1_555
Tb2 Zn14 3.045786 1_655
Tb2 Zn7 3.045787 1_545
Tb2 Zn8 3.045787 1_554
Tb2 Zn22 3.101237 1_555
Tb2 Zn16 3.101240 1_545
Tb2 Zn15 3.101240 1_554
Tb2 Zn21 3.101246 1_655
Tb2 Zn5 3.186180 1_655
Tb2 Zn1 3.186180 1_655
Tb2 Zn4 3.186180 1_555
Tb2 Zn2 3.186180 1_555
Tb3 Zn11 3.045779 1_555
Tb3 Zn14 3.045786 1_556
Tb3 Zn9 3.045787 1_545
Tb3 Zn8 3.045787 1_455
Tb3 Zn22 3.101237 1_555
Tb3 Zn17 3.101240 1_455
Tb3 Zn16 3.101240 1_545
Tb3 Zn19 3.101246 1_556
Tb3 Zn6 3.186180 1_556
Tb3 Zn5 3.186180 1_556
Tb3 Zn3 3.186180 1_555
Tb3 Zn2 3.186180 1_555
Tb4 Zn8 3.045779 1_555
Tb4 Zn10 3.045786 1_545
Tb4 Zn13 3.045787 1_556
Tb4 Zn11 3.045787 1_655
Tb4 Zn18 3.101237 1_555
Tb4 Zn21 3.101240 1_655
Tb4 Zn19 3.101240 1_556
Tb4 Zn16 3.101246 1_545
Tb4 Zn4 3.186180 1_556
Tb4 Zn3 3.186180 1_655
Tb4 Zn1 3.186180 1_655
Tb4 Zn6 3.186180 1_556
Tb5 Zn9 3.045779 1_555
Tb5 Zn10 3.045786 1_455
Tb5 Zn11 3.045787 1_565
Tb5 Zn12 3.045787 1_556
Tb5 Zn18 3.101237 1_555
Tb5 Zn19 3.101240 1_556
Tb5 Zn20 3.101240 1_565
Tb5 Zn17 3.101246 1_455
Tb5 Zn2 3.186180 1_565
Tb5 Zn4 3.186180 1_556
Tb5 Zn1 3.186180 1_565
Tb5 Zn5 3.186180 1_556
Zn0 Zn13 2.694001 1_455
Zn0 Zn9 2.694001 1_544
Zn0 Zn11 2.694001 1_554
Zn0 Zn12 2.694001 1_545
Zn0 Zn7 2.694001 1_445
Zn0 Zn8 2.694001 1_454
Zn0 Zn14 2.694008 1_555
Zn0 Zn10 2.694008 1_444
Zn1 Zn17 2.569974 1_445
Zn1 Zn16 2.569974 1_445
Zn1 Zn21 2.569974 1_555
Zn1 Zn20 2.569974 1_555
Zn1 Zn10 2.732190 1_445
Zn1 Zn14 2.732190 1_555
Zn1 Zn11 2.732197 1_555
Zn1 Zn7 2.732197 1_445
Zn2 Zn20 2.569967 1_555
Zn2 Zn22 2.569972 1_555
Zn2 Zn9 2.732190 1_545
Zn2 Zn7 2.732190 1_545
Zn3 Zn7 2.732190 1_455
Zn3 Zn8 2.732190 1_455
Zn4 Zn8 2.732190 1_554
Zn4 Zn9 2.732190 1_554
Zn5 Zn8 2.732197 1_454
Zn6 Zn9 2.732197 1_544
Zn10 Zn15 2.705963 1_555
Zn10 Zn16 2.705963 1_555
Zn10 Zn17 2.705963 1_555
Zn10 Zn6 2.732190 1_566
Zn10 Zn5 2.732190 1_656
Zn11 Zn22 2.705963 1_555
Zn11 Zn20 2.705963 1_555
Zn11 Zn21 2.705963 1_555
Zn11 Zn2 2.732190 1_555
Zn11 Zn3 2.732190 1_555
Zn12 Zn22 2.705963 1_555
Zn12 Zn21 2.705963 1_555
Zn12 Zn19 2.705963 1_555
Zn12 Zn4 2.732190 1_555
Zn12 Zn3 2.732190 1_555
Zn12 Zn5 2.732197 1_555
Zn13 Zn22 2.705963 1_555
Zn13 Zn20 2.705963 1_555
Zn13 Zn19 2.705963 1_555
Zn13 Zn4 2.732190 1_555
Zn13 Zn2 2.732190 1_555
Zn13 Zn6 2.732197 1_555
Zn14 Zn19 2.705963 1_555
Zn14 Zn20 2.705963 1_555
Zn14 Zn21 2.705963 1_555
Zn14 Zn6 2.732190 1_555
Zn14 Zn5 2.732190 1_555
Zn15 Zn4 2.569967 1_556
Zn15 Zn6 2.569974 1_566
Zn15 Zn5 2.569974 1_656
Zn15 Zn9 2.705963 1_555
Zn15 Zn8 2.705963 1_555
Zn15 Zn16 2.756811 1_555
Zn15 Zn17 2.756811 1_555
Zn15 Zn18 2.756811 1_555
Zn16 Zn2 2.569967 1_565
Zn16 Zn6 2.569974 1_566
Zn16 Zn7 2.705963 1_555
Zn16 Zn9 2.705963 1_555
Zn16 Zn17 2.756811 1_555
Zn16 Zn18 2.756811 1_555
Zn17 Zn3 2.569967 1_655
Zn17 Zn5 2.569974 1_656
Zn17 Zn7 2.705963 1_555
Zn17 Zn8 2.705963 1_555
Zn17 Zn18 2.756811 1_555
Zn18 Zn2 2.569972 1_565
Zn18 Zn3 2.569972 1_655
Zn18 Zn4 2.569972 1_556
Zn18 Zn7 2.705963 1_555
Zn18 Zn8 2.705963 1_555
Zn18 Zn9 2.705963 1_555
Zn19 Zn4 2.569967 1_555
Zn19 Zn5 2.569974 1_555
Zn19 Zn6 2.569974 1_555
Zn19 Zn21 2.756811 1_555
Zn19 Zn22 2.756811 1_555
Zn19 Zn20 2.756811 1_555
Zn20 Zn6 2.569974 1_555
Zn20 Zn21 2.756811 1_555
Zn20 Zn22 2.756811 1_555
Zn21 Zn3 2.569967 1_555
Zn21 Zn5 2.569974 1_555
Zn21 Zn22 2.756811 1_555
Zn22 Zn3 2.569972 1_555
Zn22 Zn4 2.569972 1_555
