# generated using pymatgen
data_MgCo6Ag2P6(HO6)4
_symmetry_space_group_name_H-M   'P 1'
_cell_length_a   6.48232245
_cell_length_b   9.36443628
_cell_length_c   8.35081385
_cell_angle_alpha   91.02245847
_cell_angle_beta   104.19212554
_cell_angle_gamma   107.37749255
_symmetry_Int_Tables_number   1
_chemical_formula_structural   MgCo6Ag2P6(HO6)4
_chemical_formula_sum   'Mg1 Co6 Ag2 P6 H4 O24'
_cell_volume   466.74175718
_cell_formula_units_Z   1
loop_
 _symmetry_equiv_pos_site_id
 _symmetry_equiv_pos_as_xyz
  1  'x, y, z'
loop_
 _atom_site_type_symbol
 _atom_site_label
 _atom_site_symmetry_multiplicity
 _atom_site_fract_x
 _atom_site_fract_y
 _atom_site_fract_z
 _atom_site_occupancy
  Mg  Mg0  1  0.49527331  0.99686022  0.99991325  1
  Co  Co0  1  0.24415629  0.69018313  0.31159921  1
  Co  Co1  1  0.62056457  0.54876568  0.87128581  1
  Co  Co2  1  0.14219840  0.90120371  0.57052028  1
  Co  Co3  1  0.37976433  0.45126210  0.12865720  1
  Co  Co4  1  0.85744747  0.09912114  0.42913375  1
  Co  Co5  1  0.75607525  0.30939415  0.68944237  1
  Ag  Ag0  1  0.20958917  0.46851551  0.52261952  1
  Ag  Ag1  1  0.79045067  0.53107465  0.47733701  1
  P  P0  1  0.24575210  0.21515469  0.79192767  1
  P  P1  1  0.75449499  0.78471208  0.20809129  1
  P  P2  1  0.37986515  0.16928658  0.36374669  1
  P  P3  1  0.13451977  0.63471123  0.85023393  1
  P  P4  1  0.62006577  0.83063947  0.63636834  1
  P  P5  1  0.86582489  0.36567739  0.14929965  1
  H  H0  1  0.28622661  0.15251451  0.09235739  1
  H  H1  1  0.03874554  0.77725119  0.01656615  1
  H  H2  1  0.71441787  0.84770160  0.90777158  1
  H  H3  1  0.96238574  0.22351928  0.98367722  1
  O  O0  1  0.32449158  0.56589657  0.90547587  1
  O  O1  1  0.18472806  0.76968611  0.99605447  1
  O  O2  1  0.63872257  0.90837971  0.81937574  1
  O  O3  1  0.81660412  0.23212136  0.00292126  1
  O  O4  1  0.38841886  0.33266573  0.33712198  1
  O  O5  1  0.13289658  0.71090968  0.69145930  1
  O  O6  1  0.61201893  0.66726849  0.66271231  1
  O  O7  1  0.86647827  0.28917437  0.30791401  1
  O  O8  1  0.17353439  0.08466381  0.42311010  1
  O  O9  1  0.36043789  0.09104504  0.18081842  1
  O  O10  1  0.78727426  0.75156504  0.03004355  1
  O  O11  1  0.71165778  0.94131862  0.20170343  1
  O  O12  1  0.21406823  0.24842159  0.97022514  1
  O  O13  1  0.28704339  0.05806478  0.79780782  1
  O  O14  1  0.54958273  0.66723961  0.24536445  1
  O  O15  1  0.97057328  0.77905416  0.33394642  1
  O  O16  1  0.45086731  0.33238470  0.75463146  1
  O  O17  1  0.82618746  0.91571281  0.57700326  1
  O  O18  1  0.90672151  0.51421561  0.83795876  1
  O  O19  1  0.59171639  0.15486800  0.48585207  1
  O  O20  1  0.09416203  0.48649628  0.16288735  1
  O  O21  1  0.40807263  0.84499028  0.51433091  1
  O  O22  1  0.67614561  0.43488862  0.09441901  1
  O  O23  1  0.02977527  0.22142077  0.66631261  1
loop_
_geom_bond_atom_site_label_1
_geom_bond_atom_site_label_2
_geom_bond_distance
_geom_bond_site_symmetry_2
Mg0 O13 2.092495 1_565
Mg0 O11 2.094198 1_556
Mg0 O9 2.210088 1_566
Mg0 O2 2.219742 1_555
Mg0 O1 2.446785 1_555
Mg0 O3 2.534605 1_566
Co0 O21 2.051094 1_555
Co0 O20 2.083604 1_555
Co0 O15 2.216059 1_455
Co0 O14 2.249183 1_555
Co1 O18 2.057046 1_555
Co1 O0 2.059541 1_555
Co1 O6 2.080058 1_555
Co1 O16 2.082677 1_555
Co1 O10 2.124565 1_556
Co1 O22 2.170319 1_556
Co2 O5 2.056461 1_555
Co2 O21 2.096982 1_555
Co2 O17 2.106669 1_455
Co2 O8 2.120794 1_565
Co2 O15 2.128506 1_455
Co2 O13 2.201053 1_565
Co3 O20 2.058919 1_555
Co3 O22 2.059167 1_555
Co3 O4 2.079769 1_555
Co3 O14 2.079869 1_555
Co3 O12 2.122959 1_554
Co3 O0 2.174399 1_554
Co4 O7 2.055905 1_555
Co4 O19 2.095815 1_555
Co4 O8 2.105983 1_655
Co4 O17 2.122787 1_545
Co4 O23 2.133627 1_655
Co4 O11 2.206675 1_545
Co5 O19 2.054909 1_555
Co5 O18 2.091189 1_555
Co5 O23 2.213426 1_655
Co5 O16 2.243962 1_555
Ag0 O7 2.586110 1_455
Ag0 O4 2.655724 1_555
Ag0 O6 2.676479 1_555
Ag0 O23 2.706760 1_555
Ag0 O16 2.760143 1_555
Ag1 O5 2.583447 1_655
Ag1 O6 2.655096 1_555
Ag1 O4 2.673690 1_555
Ag1 O15 2.711993 1_555
Ag1 O14 2.758746 1_555
H0 O9 1.055843 1_555
H0 O12 1.454410 1_554
H1 O1 1.024181 1_554
H1 O10 1.607645 1_455
H2 O2 1.054726 1_555
H2 O10 1.458227 1_556
H3 O3 1.022165 1_556
H3 O12 1.610060 1_655
O0 P3 1.533178 1_555
O1 P3 1.640542 1_555
O2 P4 1.642332 1_555
O3 P5 1.635859 1_555
O4 P2 1.536483 1_555
O5 P3 1.516141 1_555
O6 P4 1.536754 1_555
O7 P5 1.516787 1_555
O8 P2 1.539047 1_555
O9 P2 1.642212 1_555
O10 P1 1.590613 1_555
O11 P1 1.571449 1_555
O12 P0 1.589892 1_555
O13 P0 1.571432 1_555
O14 P1 1.553558 1_555
O15 P1 1.547188 1_555
O16 P0 1.553518 1_555
O17 P4 1.539087 1_555
O18 P3 1.546164 1_655
O19 P2 1.540431 1_555
O20 P5 1.548078 1_455
O21 P4 1.540642 1_555
O22 P5 1.533698 1_555
O23 P0 1.547592 1_555
