# generated using pymatgen
data_ErNiBi
_symmetry_space_group_name_H-M   'P 1'
_cell_length_a   4.52176058
_cell_length_b   4.52176058
_cell_length_c   4.52176058
_cell_angle_alpha   60.00000000
_cell_angle_beta   60.00000000
_cell_angle_gamma   60.00000000
_symmetry_Int_Tables_number   1
_chemical_formula_structural   ErNiBi
_chemical_formula_sum   'Er1 Ni1 Bi1'
_cell_volume   65.37439651
_cell_formula_units_Z   1
loop_
 _symmetry_equiv_pos_site_id
 _symmetry_equiv_pos_as_xyz
  1  'x, y, z'
loop_
 _atom_site_type_symbol
 _atom_site_label
 _atom_site_symmetry_multiplicity
 _atom_site_fract_x
 _atom_site_fract_y
 _atom_site_fract_z
 _atom_site_occupancy
  Er  Er0  1  0.50000000  0.50000000  0.50000000  1
  Ni  Ni0  1  0.25000000  0.25000000  0.25000000  1
  Bi  Bi0  1  0.00000000  0.00000000  0.00000000  1
loop_
_geom_bond_atom_site_label_1
_geom_bond_atom_site_label_2
_geom_bond_distance
_geom_bond_site_symmetry_2
Er0 Ni0 2.769002 1_655
Er0 Ni0 2.769002 1_556
Er0 Ni0 2.769002 1_555
Er0 Ni0 2.769002 1_565
Bi0 Ni0 2.769002 1_455
Bi0 Ni0 2.769002 1_545
Bi0 Ni0 2.769002 1_555
Bi0 Ni0 2.769002 1_554
Bi0 Er0 3.197368 1_454
Bi0 Er0 3.197368 1_544
Bi0 Er0 3.197368 1_445
Bi0 Er0 3.197368 1_545
Bi0 Er0 3.197368 1_554
Bi0 Er0 3.197368 1_455
