# generated using pymatgen
data_Dy5(ReO6)2
_symmetry_space_group_name_H-M   'P 1'
_cell_length_a   5.68165400
_cell_length_b   7.57013783
_cell_length_c   12.45748098
_cell_angle_alpha   107.51760589
_cell_angle_beta   90.00000000
_cell_angle_gamma   90.00000000
_symmetry_Int_Tables_number   1
_chemical_formula_structural   Dy5(ReO6)2
_chemical_formula_sum   'Dy10 Re4 O24'
_cell_volume   510.95917781
_cell_formula_units_Z   2
loop_
 _symmetry_equiv_pos_site_id
 _symmetry_equiv_pos_as_xyz
  1  'x, y, z'
loop_
 _atom_site_type_symbol
 _atom_site_label
 _atom_site_symmetry_multiplicity
 _atom_site_fract_x
 _atom_site_fract_y
 _atom_site_fract_z
 _atom_site_occupancy
  Dy  Dy0  1  0.25000000  0.61138700  0.43652700  1
  Dy  Dy1  1  0.75000000  0.38861300  0.56347300  1
  Dy  Dy2  1  0.25000000  0.08796300  0.44590900  1
  Dy  Dy3  1  0.75000000  0.91203700  0.55409100  1
  Dy  Dy4  1  0.25000000  0.88956000  0.06431700  1
  Dy  Dy5  1  0.75000000  0.11044000  0.93568300  1
  Dy  Dy6  1  0.25000000  0.41359200  0.05321000  1
  Dy  Dy7  1  0.75000000  0.58640800  0.94679000  1
  Dy  Dy8  1  0.25000000  0.24708700  0.74974500  1
  Dy  Dy9  1  0.75000000  0.75291300  0.25025500  1
  Re  Re0  1  0.46407800  0.74706700  0.75068100  1
  Re  Re1  1  0.96407800  0.25293300  0.24931900  1
  Re  Re2  1  0.53592200  0.25293300  0.24931900  1
  Re  Re3  1  0.03592200  0.74706700  0.75068100  1
  O  O0  1  0.25000000  0.95542500  0.75363600  1
  O  O1  1  0.75000000  0.04457500  0.24636400  1
  O  O2  1  0.50193700  0.32870200  0.90375400  1
  O  O3  1  0.00193700  0.67129800  0.09624600  1
  O  O4  1  0.49806300  0.67129800  0.09624600  1
  O  O5  1  0.99806300  0.32870200  0.90375400  1
  O  O6  1  0.25000000  0.53961100  0.74871000  1
  O  O7  1  0.75000000  0.46038900  0.25129000  1
  O  O8  1  0.25000000  0.07689400  0.25020300  1
  O  O9  1  0.75000000  0.92310600  0.74979700  1
  O  O10  1  0.50294500  0.82702100  0.91557800  1
  O  O11  1  0.00294500  0.17297900  0.08442200  1
  O  O12  1  0.49705500  0.17297900  0.08442200  1
  O  O13  1  0.99705500  0.82702100  0.91557800  1
  O  O14  1  0.50179300  0.16916400  0.59510200  1
  O  O15  1  0.00179300  0.83083600  0.40489800  1
  O  O16  1  0.49820700  0.83083600  0.40489800  1
  O  O17  1  0.99820700  0.16916400  0.59510200  1
  O  O18  1  0.50248400  0.66810100  0.58564800  1
  O  O19  1  0.00248400  0.33189900  0.41435200  1
  O  O20  1  0.49751600  0.33189900  0.41435200  1
  O  O21  1  0.99751600  0.66810100  0.58564800  1
  O  O22  1  0.25000000  0.42902200  0.24909200  1
  O  O23  1  0.75000000  0.57097800  0.75090800  1
loop_
_geom_bond_atom_site_label_1
_geom_bond_atom_site_label_2
_geom_bond_distance
_geom_bond_site_symmetry_2
Dy0 O21 2.283202 1_455
Dy0 O18 2.283202 1_555
Dy0 O15 2.301699 1_555
Dy0 O16 2.301699 1_555
Dy0 O22 2.327531 1_555
Dy0 O19 2.485678 1_555
Dy0 O20 2.485678 1_555
Dy1 O19 2.283202 1_655
Dy1 O20 2.283202 1_555
Dy1 O14 2.301699 1_555
Dy1 O17 2.301699 1_555
Dy1 O23 2.327531 1_555
Dy1 O21 2.485678 1_555
Dy1 O18 2.485678 1_555
Dy2 O14 2.278375 1_555
Dy2 O17 2.278375 1_455
Dy2 O15 2.332361 1_545
Dy2 O16 2.332361 1_545
Dy2 O8 2.414105 1_555
Dy2 O19 2.445257 1_555
Dy2 O20 2.445257 1_555
Dy3 O15 2.278375 1_655
Dy3 O16 2.278375 1_555
Dy3 O14 2.332361 1_565
Dy3 O17 2.332361 1_565
Dy3 O9 2.414105 1_555
Dy3 O21 2.445257 1_555
Dy3 O18 2.445257 1_555
Dy4 O13 2.279194 1_454
Dy4 O10 2.279194 1_554
Dy4 O4 2.295709 1_555
Dy4 O3 2.295709 1_555
Dy4 O8 2.323044 1_565
Dy4 O12 2.512532 1_565
Dy4 O11 2.512532 1_565
Dy5 O12 2.279194 1_556
Dy5 O11 2.279194 1_656
Dy5 O5 2.295709 1_555
Dy5 O2 2.295709 1_555
Dy5 O9 2.323044 1_545
Dy5 O13 2.512532 1_545
Dy5 O10 2.512532 1_545
Dy6 O5 2.282132 1_454
Dy6 O2 2.282132 1_554
Dy6 O4 2.334549 1_555
Dy6 O3 2.334549 1_555
Dy6 O22 2.407616 1_555
Dy6 O11 2.421905 1_555
Dy6 O12 2.421905 1_555
Dy7 O3 2.282132 1_656
Dy7 O4 2.282132 1_556
Dy7 O2 2.334549 1_555
Dy7 O5 2.334549 1_555
Dy7 O23 2.407616 1_555
Dy7 O10 2.421905 1_555
Dy7 O13 2.421905 1_555
Dy8 O6 2.218362 1_555
Dy8 O0 2.222992 1_545
Dy8 O5 2.323357 1_455
Dy8 O2 2.323357 1_555
Dy8 O14 2.328462 1_555
Dy8 O17 2.328462 1_455
Dy9 O7 2.218362 1_555
Dy9 O1 2.222992 1_565
Dy9 O3 2.323357 1_655
Dy9 O4 2.323357 1_555
Dy9 O15 2.328462 1_655
Dy9 O16 2.328462 1_555
O0 Re3 1.983356 1_555
O0 Re0 1.983356 1_555
O1 Re2 1.983356 1_555
O1 Re1 1.983356 1_555
O6 Re3 1.980706 1_555
O6 Re0 1.980706 1_555
O7 Re2 1.980706 1_555
O7 Re1 1.980706 1_555
O8 Re2 2.103311 1_555
O8 Re1 2.103311 1_455
O9 Re0 2.103311 1_555
O9 Re3 2.103311 1_655
O10 Re0 1.971387 1_555
O11 Re1 1.971387 1_455
O12 Re2 1.971387 1_555
O13 Re3 1.971387 1_655
O18 Re0 1.972770 1_555
O19 Re1 1.972770 1_455
O20 Re2 1.972770 1_555
O21 Re3 1.972770 1_655
O22 Re2 2.101963 1_555
O22 Re1 2.101963 1_455
O23 Re0 2.101963 1_555
O23 Re3 2.101963 1_655
