# generated using pymatgen
data_Ca5Rh
_symmetry_space_group_name_H-M   'P 1'
_cell_length_a   6.77470065
_cell_length_b   7.63026784
_cell_length_c   16.02922538
_cell_angle_alpha   90.00000000
_cell_angle_beta   90.00000000
_cell_angle_gamma   90.00000000
_symmetry_Int_Tables_number   1
_chemical_formula_structural   Ca5Rh
_chemical_formula_sum   'Ca20 Rh4'
_cell_volume   828.59522908
_cell_formula_units_Z   4
loop_
 _symmetry_equiv_pos_site_id
 _symmetry_equiv_pos_as_xyz
  1  'x, y, z'
loop_
 _atom_site_type_symbol
 _atom_site_label
 _atom_site_symmetry_multiplicity
 _atom_site_fract_x
 _atom_site_fract_y
 _atom_site_fract_z
 _atom_site_occupancy
  Ca  Ca0  1  0.35406614  0.30821932  0.06432420  1
  Ca  Ca1  1  0.64593386  0.69178068  0.93567580  1
  Ca  Ca2  1  0.85406614  0.19178068  0.93567580  1
  Ca  Ca3  1  0.64593386  0.69178068  0.56432420  1
  Ca  Ca4  1  0.14593386  0.80821932  0.06432420  1
  Ca  Ca5  1  0.35406614  0.30821932  0.43567580  1
  Ca  Ca6  1  0.14593386  0.80821932  0.43567580  1
  Ca  Ca7  1  0.85406614  0.19178068  0.56432420  1
  Ca  Ca8  1  0.15438547  0.09207876  0.25000000  1
  Ca  Ca9  1  0.84561453  0.90792124  0.75000000  1
  Ca  Ca10  1  0.65438547  0.40792124  0.75000000  1
  Ca  Ca11  1  0.34561453  0.59207876  0.25000000  1
  Ca  Ca12  1  0.32326484  0.03443379  0.64580212  1
  Ca  Ca13  1  0.67673516  0.96556621  0.35419688  1
  Ca  Ca14  1  0.82326484  0.46556621  0.35419688  1
  Ca  Ca15  1  0.67673516  0.96556621  0.14580312  1
  Ca  Ca16  1  0.17673516  0.53443379  0.64580212  1
  Ca  Ca17  1  0.32326484  0.03443379  0.85419788  1
  Ca  Ca18  1  0.17673516  0.53443379  0.85419788  1
  Ca  Ca19  1  0.82326484  0.46556621  0.14580312  1
  Rh  Rh0  1  0.53483565  0.26020483  0.25000000  1
  Rh  Rh1  1  0.46516435  0.73979517  0.75000000  1
  Rh  Rh2  1  0.03483565  0.23979517  0.75000000  1
  Rh  Rh3  1  0.96516435  0.76020483  0.25000000  1
loop_
_geom_bond_atom_site_label_1
_geom_bond_atom_site_label_2
_geom_bond_distance
_geom_bond_site_symmetry_2
Ca0 Rh0 3.239138 1_555
Ca0 Ca19 3.640220 1_555
Ca0 Ca15 3.649668 1_545
Ca0 Ca8 3.661680 1_555
Ca0 Ca11 3.681372 1_555
Ca0 Ca17 3.968906 1_554
Ca0 Ca18 3.970785 1_554
Ca0 Ca19 4.009806 1_455
Ca0 Ca2 4.063976 1_554
Ca0 Ca2 4.063976 1_454
Ca0 Ca4 4.067363 1_555
Ca0 Ca4 4.067363 1_545
Ca0 Ca1 4.089940 1_554
Ca1 Rh1 3.239138 1_555
Ca1 Ca18 3.640214 1_555
Ca1 Ca17 3.649663 1_565
Ca1 Ca9 3.661680 1_555
Ca1 Ca10 3.681372 1_555
Ca1 Ca15 3.968920 1_556
Ca1 Ca19 3.970799 1_556
Ca1 Ca18 4.009801 1_655
Ca1 Ca4 4.063976 1_656
Ca1 Ca4 4.063976 1_556
Ca1 Ca2 4.067363 1_565
Ca1 Ca2 4.067363 1_555
Ca2 Rh2 3.239138 1_655
Ca2 Ca9 3.681372 1_545
Ca2 Ca4 4.089940 1_646
Ca3 Rh1 3.239138 1_555
Ca3 Ca9 3.661680 1_555
Ca3 Ca6 4.063976 1_555
Ca3 Ca6 4.063976 1_655
Ca3 Ca7 4.067363 1_565
Ca3 Ca7 4.067363 1_555
Ca3 Ca5 4.089940 1_555
Ca4 Rh3 3.239138 1_455
Ca4 Ca8 3.681372 1_565
Ca5 Rh0 3.239138 1_555
Ca5 Ca8 3.661680 1_555
Ca5 Ca7 4.063976 1_455
Ca5 Ca7 4.063976 1_555
Ca5 Ca6 4.067363 1_555
Ca5 Ca6 4.067363 1_545
Ca6 Rh3 3.239138 1_455
Ca6 Ca8 3.681372 1_565
Ca6 Ca7 4.089940 1_465
Ca7 Rh2 3.239138 1_655
Ca7 Ca9 3.681372 1_545
Ca8 Rh3 2.838272 1_445
Ca8 Rh0 2.879040 1_555
Ca9 Rh2 2.838272 1_665
Ca9 Rh1 2.879040 1_555
Ca10 Rh1 2.838272 1_555
Ca10 Rh2 2.879040 1_655
Ca10 Ca2 3.661680 1_555
Ca10 Ca7 3.661680 1_555
Ca10 Ca3 3.681372 1_555
Ca11 Rh0 2.838272 1_555
Ca11 Rh3 2.879040 1_455
Ca11 Ca6 3.661680 1_555
Ca11 Ca4 3.661680 1_555
Ca11 Ca5 3.681372 1_555
Ca12 Rh1 2.961086 1_545
Ca12 Rh2 3.010511 1_555
Ca12 Ca7 3.640214 1_455
Ca12 Ca3 3.649663 1_545
Ca12 Ca5 3.968906 1_555
Ca12 Ca6 3.970785 1_545
Ca12 Ca7 4.009801 1_555
Ca13 Rh0 2.961077 1_565
Ca13 Rh3 3.010502 1_555
Ca13 Ca6 3.640220 1_655
Ca13 Ca5 3.649668 1_565
Ca13 Ca3 3.968920 1_555
Ca13 Ca7 3.970799 1_565
Ca13 Ca6 4.009806 1_555
Ca14 Rh3 2.961077 1_555
Ca14 Rh0 3.010502 1_555
Ca14 Ca5 3.640220 1_555
Ca14 Ca6 3.649668 1_655
Ca14 Ca7 3.968920 1_555
Ca14 Ca3 3.970799 1_555
Ca14 Ca5 4.009806 1_655
Ca15 Rh0 2.961077 1_565
Ca15 Rh3 3.010502 1_555
Ca15 Ca4 3.640220 1_655
Ca15 Ca2 3.970799 1_564
Ca15 Ca4 4.009806 1_555
Ca16 Rh2 2.961086 1_555
Ca16 Rh1 3.010511 1_555
Ca16 Ca3 3.640214 1_555
Ca16 Ca7 3.649663 1_455
Ca16 Ca6 3.968906 1_555
Ca16 Ca5 3.970785 1_555
Ca16 Ca3 4.009801 1_455
Ca17 Rh1 2.961086 1_545
Ca17 Rh2 3.010511 1_555
Ca17 Ca2 3.640214 1_455
Ca17 Ca4 3.970785 1_546
Ca17 Ca2 4.009801 1_555
Ca18 Rh2 2.961086 1_555
Ca18 Rh1 3.010511 1_555
Ca18 Ca2 3.649663 1_455
Ca18 Ca4 3.968906 1_556
Ca19 Rh3 2.961077 1_555
Ca19 Rh0 3.010502 1_555
Ca19 Ca4 3.649668 1_655
Ca19 Ca2 3.968920 1_554
