# generated using pymatgen
data_Ta2Mo2O11
_symmetry_space_group_name_H-M   'P 1'
_cell_length_a   9.16603380
_cell_length_b   9.16603380
_cell_length_c   9.16603379
_cell_angle_alpha   35.89214102
_cell_angle_beta   35.89214102
_cell_angle_gamma   35.89213421
_symmetry_Int_Tables_number   1
_chemical_formula_structural   Ta2Mo2O11
_chemical_formula_sum   'Ta2 Mo2 O11'
_cell_volume   236.69533383
_cell_formula_units_Z   1
loop_
 _symmetry_equiv_pos_site_id
 _symmetry_equiv_pos_as_xyz
  1  'x, y, z'
loop_
 _atom_site_type_symbol
 _atom_site_label
 _atom_site_symmetry_multiplicity
 _atom_site_fract_x
 _atom_site_fract_y
 _atom_site_fract_z
 _atom_site_occupancy
  Ta  Ta0  1  0.37206513  0.37206513  0.37206513  1
  Ta  Ta1  1  0.62793487  0.62793487  0.62793487  1
  Mo  Mo0  1  0.11276318  0.11276318  0.11276318  1
  Mo  Mo1  1  0.88723682  0.88723682  0.88723682  1
  O  O0  1  0.73972464  0.25378818  0.73972464  1
  O  O1  1  0.25378818  0.73972464  0.73972464  1
  O  O2  1  0.73972464  0.73972464  0.25378818  1
  O  O3  1  0.74621182  0.26027536  0.26027536  1
  O  O4  1  0.26027536  0.74621182  0.26027536  1
  O  O5  1  0.26027536  0.26027536  0.74621182  1
  O  O6  1  0.17878386  0.17878386  0.17878386  1
  O  O7  1  0.82121614  0.82121614  0.82121614  1
  O  O8  1  0.50000000  0.50000000  0.00000000  1
  O  O9  1  0.50000000  0.00000000  0.50000000  1
  O  O10  1  0.00000000  0.50000000  0.50000000  1
loop_
_geom_bond_atom_site_label_1
_geom_bond_atom_site_label_2
_geom_bond_distance
_geom_bond_site_symmetry_2
Mo0 O6 1.696653 1_555
Mo0 O4 1.784909 1_545
Mo0 O3 1.784909 1_455
Mo0 O5 1.784909 1_554
Mo1 O7 1.696653 1_555
Mo1 O0 1.784909 1_565
Mo1 O1 1.784909 1_655
Mo1 O2 1.784909 1_556
O0 Ta1 2.043262 1_555
O1 Ta1 2.043262 1_555
O2 Ta1 2.043262 1_555
O3 Ta0 2.043262 1_555
O4 Ta0 2.043262 1_555
O5 Ta0 2.043262 1_555
O8 Ta1 1.910379 1_554
O8 Ta0 1.910379 1_555
O9 Ta1 1.910378 1_545
O9 Ta0 1.910378 1_555
O10 Ta1 1.910378 1_455
O10 Ta0 1.910378 1_555
