# generated using pymatgen
data_ZrNb2ZnO8
_symmetry_space_group_name_H-M   'P 1'
_cell_length_a   4.86368970
_cell_length_b   5.14224446
_cell_length_c   5.88077700
_cell_angle_alpha   90.00000000
_cell_angle_beta   90.00000000
_cell_angle_gamma   90.72157093
_symmetry_Int_Tables_number   1
_chemical_formula_structural   ZrNb2ZnO8
_chemical_formula_sum   'Zr1 Nb2 Zn1 O8'
_cell_volume   147.06822419
_cell_formula_units_Z   1
loop_
 _symmetry_equiv_pos_site_id
 _symmetry_equiv_pos_as_xyz
  1  'x, y, z'
loop_
 _atom_site_type_symbol
 _atom_site_label
 _atom_site_symmetry_multiplicity
 _atom_site_fract_x
 _atom_site_fract_y
 _atom_site_fract_z
 _atom_site_occupancy
  Zr  Zr0  1  0.50000000  0.75000000  0.32889300  1
  Nb  Nb0  1  0.00000000  0.25000000  0.17064200  1
  Nb  Nb1  1  0.00000000  0.75000000  0.81409100  1
  Zn  Zn0  1  0.50000000  0.25000000  0.69410500  1
  O  O0  1  0.77673100  0.57228600  0.11211500  1
  O  O1  1  0.22326900  0.92771400  0.11211500  1
  O  O2  1  0.21281600  0.43263400  0.89213000  1
  O  O3  1  0.78718400  0.06736600  0.89213000  1
  O  O4  1  0.73960300  0.09093500  0.37421700  1
  O  O5  1  0.26039700  0.40906500  0.37421700  1
  O  O6  1  0.26631600  0.90533500  0.61767200  1
  O  O7  1  0.73368400  0.59466500  0.61767200  1
loop_
_geom_bond_atom_site_label_1
_geom_bond_atom_site_label_2
_geom_bond_distance
_geom_bond_site_symmetry_2
Nb0 O5 1.918382 1_555
Nb0 O4 1.918382 1_455
Nb0 O0 2.022263 1_455
Nb0 O1 2.022263 1_545
Nb0 O2 2.147440 1_554
Nb0 O3 2.147440 1_454
Nb1 O6 1.903672 1_555
Nb1 O7 1.903672 1_455
Nb1 O3 1.996966 1_465
Nb1 O2 1.996966 1_555
Nb1 O1 2.249662 1_556
Nb1 O0 2.249662 1_456
O0 Zr0 2.074322 1_555
O1 Zr0 2.074322 1_555
O2 Zn0 2.054793 1_555
O3 Zn0 2.054793 1_555
O4 Zr0 2.109798 1_545
O4 Zn0 2.364314 1_555
O5 Zr0 2.109798 1_555
O5 Zn0 2.364314 1_555
O6 Zn0 2.141101 1_565
O6 Zr0 2.199254 1_555
O7 Zn0 2.141101 1_555
O7 Zr0 2.199254 1_555
