# generated using pymatgen
data_YCo4(CuO4)3
_symmetry_space_group_name_H-M   'P 1'
_cell_length_a   6.30363437
_cell_length_b   6.30363437
_cell_length_c   6.30363437
_cell_angle_alpha   109.47122063
_cell_angle_beta   109.47122063
_cell_angle_gamma   109.47122063
_symmetry_Int_Tables_number   1
_chemical_formula_structural   YCo4(CuO4)3
_chemical_formula_sum   'Y1 Co4 Cu3 O12'
_cell_volume   192.81958932
_cell_formula_units_Z   1
loop_
 _symmetry_equiv_pos_site_id
 _symmetry_equiv_pos_as_xyz
  1  'x, y, z'
loop_
 _atom_site_type_symbol
 _atom_site_label
 _atom_site_symmetry_multiplicity
 _atom_site_fract_x
 _atom_site_fract_y
 _atom_site_fract_z
 _atom_site_occupancy
  Y  Y0  1  0.00000000  0.00000000  0.00000000  1
  Co  Co0  1  0.00000000  0.00000000  0.50000000  1
  Co  Co1  1  0.00000000  0.50000000  0.00000000  1
  Co  Co2  1  0.50000000  0.00000000  0.00000000  1
  Co  Co3  1  0.50000000  0.50000000  0.50000000  1
  Cu  Cu0  1  0.00000000  0.50000000  0.50000000  1
  Cu  Cu1  1  0.50000000  0.00000000  0.50000000  1
  Cu  Cu2  1  0.50000000  0.50000000  0.00000000  1
  O  O0  1  0.30554500  0.13539200  0.82984700  1
  O  O1  1  0.69445500  0.86460800  0.17015300  1
  O  O2  1  0.69445500  0.52430200  0.82984700  1
  O  O3  1  0.47569800  0.17015300  0.30554500  1
  O  O4  1  0.17015300  0.30554500  0.47569800  1
  O  O5  1  0.82984700  0.30554500  0.13539200  1
  O  O6  1  0.86460800  0.17015300  0.69445500  1
  O  O7  1  0.82984700  0.69445500  0.52430200  1
  O  O8  1  0.30554500  0.47569800  0.17015300  1
  O  O9  1  0.52430200  0.82984700  0.69445500  1
  O  O10  1  0.17015300  0.69445500  0.86460800  1
  O  O11  1  0.13539200  0.82984700  0.30554500  1
loop_
_geom_bond_atom_site_label_1
_geom_bond_atom_site_label_2
_geom_bond_distance
_geom_bond_site_symmetry_2
Co0 O11 1.952578 1_545
Co0 O0 1.952578 1_555
Co0 O7 1.952578 1_445
Co0 O6 1.952578 1_455
Co0 O1 1.952578 1_445
Co0 O4 1.952578 1_555
Co1 O5 1.952578 1_455
Co1 O10 1.952578 1_554
Co1 O6 1.952578 1_454
Co1 O2 1.952578 1_454
Co1 O11 1.952578 1_555
Co1 O8 1.952578 1_555
Co2 O0 1.952578 1_554
Co2 O1 1.952578 1_545
Co2 O9 1.952578 1_544
Co2 O10 1.952578 1_544
Co2 O5 1.952578 1_555
Co2 O3 1.952578 1_555
Co3 O4 1.952578 1_555
Co3 O8 1.952578 1_555
Co3 O3 1.952578 1_555
Co3 O9 1.952578 1_555
Co3 O7 1.952578 1_555
Co3 O2 1.952578 1_555
Cu0 O7 1.880763 1_455
Cu0 O10 1.880763 1_555
Cu0 O4 1.880763 1_555
Cu0 O5 1.880763 1_455
Cu1 O6 1.880763 1_555
Cu1 O9 1.880763 1_545
Cu1 O3 1.880763 1_555
Cu1 O11 1.880763 1_545
Cu2 O2 1.880763 1_554
Cu2 O1 1.880763 1_555
Cu2 O8 1.880763 1_555
Cu2 O0 1.880763 1_554
O0 Y0 2.545605 1_556
O1 Y0 2.545605 1_665
O2 Y0 2.545605 1_666
O3 Y0 2.545605 1_555
O4 Y0 2.545605 1_555
O5 Y0 2.545605 1_655
O6 Y0 2.545605 1_656
O7 Y0 2.545605 1_666
O8 Y0 2.545605 1_555
O9 Y0 2.545605 1_666
O10 Y0 2.545605 1_566
O11 Y0 2.545605 1_565
