# generated using pymatgen
data_Pr2ThS5
_symmetry_space_group_name_H-M   'P 1'
_cell_length_a   7.61485843
_cell_length_b   8.29156322
_cell_length_c   12.14117192
_cell_angle_alpha   90.00000000
_cell_angle_beta   90.00000000
_cell_angle_gamma   90.00000000
_symmetry_Int_Tables_number   1
_chemical_formula_structural   Pr2ThS5
_chemical_formula_sum   'Pr8 Th4 S20'
_cell_volume   766.58242617
_cell_formula_units_Z   4
loop_
 _symmetry_equiv_pos_site_id
 _symmetry_equiv_pos_as_xyz
  1  'x, y, z'
loop_
 _atom_site_type_symbol
 _atom_site_label
 _atom_site_symmetry_multiplicity
 _atom_site_fract_x
 _atom_site_fract_y
 _atom_site_fract_z
 _atom_site_occupancy
  Pr  Pr0  1  0.51993279  0.49993056  0.32238262  1
  Pr  Pr1  1  0.98006721  0.00006944  0.82238262  1
  Pr  Pr2  1  0.48006721  -0.00006944  0.67761738  1
  Pr  Pr3  1  0.01993279  0.50006944  0.17761738  1
  Pr  Pr4  1  0.48006721  0.50006944  0.67761738  1
  Pr  Pr5  1  0.01993279  -0.00006944  0.17761738  1
  Pr  Pr6  1  0.51993279  0.00006944  0.32238262  1
  Pr  Pr7  1  0.98006721  0.49993056  0.82238262  1
  Th  Th0  1  0.07408104  0.75000000  0.49140261  1
  Th  Th1  1  0.42591896  0.75000000  0.99140261  1
  Th  Th2  1  0.92591896  0.25000000  0.50859739  1
  Th  Th3  1  0.57408104  0.25000000  0.00859739  1
  S  S0  1  0.83804338  0.95848935  0.59929591  1
  S  S1  1  0.66195662  0.54151065  0.09929591  1
  S  S2  1  0.16195662  0.45848935  0.40070409  1
  S  S3  1  0.33804338  0.04151065  0.90070409  1
  S  S4  1  0.16195662  0.04151065  0.40070409  1
  S  S5  1  0.33804338  0.45848935  0.90070409  1
  S  S6  1  0.83804338  0.54151065  0.59929591  1
  S  S7  1  0.66195662  0.95848935  0.09929591  1
  S  S8  1  0.82919747  0.75000000  0.31313307  1
  S  S9  1  0.67080253  0.75000000  0.81313307  1
  S  S10  1  0.17080253  0.25000000  0.68686693  1
  S  S11  1  0.32919747  0.25000000  0.18686693  1
  S  S12  1  0.45691211  0.75000000  0.49871621  1
  S  S13  1  0.04308789  0.75000000  0.99871621  1
  S  S14  1  0.54308789  0.25000000  0.50128379  1
  S  S15  1  0.95691211  0.25000000  0.00128379  1
  S  S16  1  0.19841415  0.75000000  0.71601599  1
  S  S17  1  0.30158585  0.75000000  0.21601599  1
  S  S18  1  0.80158585  0.25000000  0.28398401  1
  S  S19  1  0.69841415  0.25000000  0.78398401  1
loop_
_geom_bond_atom_site_label_1
_geom_bond_atom_site_label_2
_geom_bond_distance
_geom_bond_site_symmetry_2
Pr0 S2 2.907412 1_555
Pr0 S1 2.936774 1_555
Pr0 S17 2.954916 1_555
Pr0 S14 3.007236 1_555
Pr0 S11 3.018459 1_555
Pr0 S18 3.018573 1_555
Pr0 S12 3.018774 1_555
Pr0 S8 3.139734 1_555
Pr1 S3 2.907412 1_655
Pr1 S0 2.936774 1_545
Pr1 S16 2.954916 1_645
Pr1 S15 3.007236 1_556
Pr1 S10 3.018459 1_655
Pr1 S19 3.018573 1_555
Pr1 S13 3.018774 1_645
Pr1 S9 3.139734 1_545
Pr2 S0 2.907412 1_545
Pr2 S3 2.936774 1_555
Pr2 S19 2.954916 1_555
Pr2 S12 3.007236 1_545
Pr2 S9 3.018459 1_545
Pr2 S16 3.018573 1_545
Pr2 S14 3.018774 1_555
Pr2 S10 3.139734 1_555
Pr3 S1 2.907412 1_455
Pr3 S2 2.936774 1_555
Pr3 S18 2.954916 1_455
Pr3 S13 3.007236 1_554
Pr3 S8 3.018459 1_455
Pr3 S17 3.018573 1_555
Pr3 S15 3.018774 1_455
Pr3 S11 3.139734 1_555
Pr4 S6 2.907412 1_555
Pr4 S5 2.936774 1_555
Pr4 S19 2.954916 1_555
Pr4 S12 3.007236 1_555
Pr4 S9 3.018459 1_555
Pr4 S16 3.018573 1_555
Pr4 S14 3.018774 1_555
Pr4 S10 3.139734 1_555
Pr5 S7 2.907412 1_445
Pr5 S4 2.936774 1_555
Pr5 S18 2.954916 1_455
Pr5 S13 3.007236 1_544
Pr5 S8 3.018459 1_445
Pr5 S17 3.018573 1_545
Pr5 S15 3.018774 1_455
Pr5 S11 3.139734 1_555
Pr6 S4 2.907412 1_555
Pr6 S7 2.936774 1_545
Pr6 S17 2.954916 1_545
Pr6 S14 3.007236 1_555
Pr6 S11 3.018459 1_555
Pr6 S18 3.018573 1_555
Pr6 S12 3.018774 1_545
Pr6 S8 3.139734 1_545
Pr7 S5 2.907412 1_655
Pr7 S6 2.936774 1_555
Pr7 S16 2.954916 1_655
Pr7 S15 3.007236 1_556
Pr7 S10 3.018459 1_655
Pr7 S19 3.018573 1_555
Pr7 S13 3.018774 1_655
Pr7 S9 3.139734 1_555
S0 Th2 2.739098 1_565
S0 Th0 2.816915 1_655
S1 Th3 2.739098 1_555
S1 Th1 2.816915 1_554
S2 Th0 2.739098 1_555
S2 Th2 2.816915 1_455
S3 Th1 2.739098 1_545
S3 Th3 2.816915 1_556
S4 Th0 2.739098 1_545
S4 Th2 2.816915 1_455
S5 Th1 2.739098 1_555
S5 Th3 2.816915 1_556
S6 Th2 2.739098 1_555
S6 Th0 2.816915 1_655
S7 Th3 2.739098 1_565
S7 Th1 2.816915 1_554
S8 Th0 2.856911 1_655
S9 Th1 2.856911 1_555
S10 Th2 2.856911 1_455
S11 Th3 2.856911 1_555
S12 Th0 2.916556 1_555
S13 Th1 2.916556 1_555
S14 Th2 2.916556 1_555
S15 Th3 2.916556 1_555
S16 Th0 2.886745 1_555
S17 Th1 2.886745 1_554
S18 Th2 2.886745 1_555
S19 Th3 2.886745 1_556
