# generated using pymatgen
data_Pr5Mo3O16
_symmetry_space_group_name_H-M   'P 1'
_cell_length_a   11.20886900
_cell_length_b   11.20886900
_cell_length_c   11.20886900
_cell_angle_alpha   90.00000000
_cell_angle_beta   90.00000000
_cell_angle_gamma   90.00000000
_symmetry_Int_Tables_number   1
_chemical_formula_structural   Pr5Mo3O16
_chemical_formula_sum   'Pr20 Mo12 O64'
_cell_volume   1408.26822573
_cell_formula_units_Z   4
loop_
 _symmetry_equiv_pos_site_id
 _symmetry_equiv_pos_as_xyz
  1  'x, y, z'
loop_
 _atom_site_type_symbol
 _atom_site_label
 _atom_site_symmetry_multiplicity
 _atom_site_fract_x
 _atom_site_fract_y
 _atom_site_fract_z
 _atom_site_occupancy
  Pr  Pr0  1  0.00000000  0.75949500  0.00000000  1
  Pr  Pr1  1  0.00000000  0.24050500  0.00000000  1
  Pr  Pr2  1  0.50000000  0.25949500  0.50000000  1
  Pr  Pr3  1  0.50000000  0.74050500  0.50000000  1
  Pr  Pr4  1  0.00000000  0.00000000  0.75949500  1
  Pr  Pr5  1  0.00000000  0.00000000  0.24050500  1
  Pr  Pr6  1  0.50000000  0.50000000  0.25949500  1
  Pr  Pr7  1  0.50000000  0.50000000  0.74050500  1
  Pr  Pr8  1  0.75949500  0.00000000  0.00000000  1
  Pr  Pr9  1  0.24050500  0.00000000  0.00000000  1
  Pr  Pr10  1  0.25949500  0.50000000  0.50000000  1
  Pr  Pr11  1  0.74050500  0.50000000  0.50000000  1
  Pr  Pr12  1  0.25000000  0.75000000  0.75000000  1
  Pr  Pr13  1  0.75000000  0.75000000  0.25000000  1
  Pr  Pr14  1  0.75000000  0.25000000  0.75000000  1
  Pr  Pr15  1  0.25000000  0.25000000  0.25000000  1
  Pr  Pr16  1  0.75000000  0.25000000  0.25000000  1
  Pr  Pr17  1  0.25000000  0.25000000  0.75000000  1
  Pr  Pr18  1  0.25000000  0.75000000  0.25000000  1
  Pr  Pr19  1  0.75000000  0.75000000  0.75000000  1
  Mo  Mo0  1  0.50000000  0.75000000  0.00000000  1
  Mo  Mo1  1  0.50000000  0.25000000  0.00000000  1
  Mo  Mo2  1  0.00000000  0.50000000  0.75000000  1
  Mo  Mo3  1  0.00000000  0.50000000  0.25000000  1
  Mo  Mo4  1  0.75000000  0.00000000  0.50000000  1
  Mo  Mo5  1  0.25000000  0.00000000  0.50000000  1
  Mo  Mo6  1  0.00000000  0.75000000  0.50000000  1
  Mo  Mo7  1  0.00000000  0.25000000  0.50000000  1
  Mo  Mo8  1  0.50000000  0.00000000  0.75000000  1
  Mo  Mo9  1  0.50000000  0.00000000  0.25000000  1
  Mo  Mo10  1  0.75000000  0.50000000  0.00000000  1
  Mo  Mo11  1  0.25000000  0.50000000  0.00000000  1
  O  O0  1  0.88461100  0.33356900  0.58019100  1
  O  O1  1  0.11538900  0.33356900  0.41980900  1
  O  O2  1  0.11538900  0.66643100  0.58019100  1
  O  O3  1  0.88461100  0.66643100  0.41980900  1
  O  O4  1  0.91980900  0.83356900  0.61538900  1
  O  O5  1  0.08019100  0.83356900  0.38461100  1
  O  O6  1  0.08019100  0.16643100  0.61538900  1
  O  O7  1  0.91980900  0.16643100  0.38461100  1
  O  O8  1  0.58019100  0.88461100  0.33356900  1
  O  O9  1  0.41980900  0.11538900  0.33356900  1
  O  O10  1  0.58019100  0.11538900  0.66643100  1
  O  O11  1  0.41980900  0.88461100  0.66643100  1
  O  O12  1  0.61538900  0.91980900  0.83356900  1
  O  O13  1  0.38461100  0.08019100  0.83356900  1
  O  O14  1  0.61538900  0.08019100  0.16643100  1
  O  O15  1  0.38461100  0.91980900  0.16643100  1
  O  O16  1  0.33356900  0.58019100  0.88461100  1
  O  O17  1  0.33356900  0.41980900  0.11538900  1
  O  O18  1  0.66643100  0.58019100  0.11538900  1
  O  O19  1  0.66643100  0.41980900  0.88461100  1
  O  O20  1  0.83356900  0.61538900  0.91980900  1
  O  O21  1  0.83356900  0.38461100  0.08019100  1
  O  O22  1  0.16643100  0.61538900  0.08019100  1
  O  O23  1  0.16643100  0.38461100  0.91980900  1
  O  O24  1  0.61538900  0.16643100  0.91980900  1
  O  O25  1  0.38461100  0.16643100  0.08019100  1
  O  O26  1  0.38461100  0.83356900  0.91980900  1
  O  O27  1  0.61538900  0.83356900  0.08019100  1
  O  O28  1  0.58019100  0.66643100  0.88461100  1
  O  O29  1  0.41980900  0.66643100  0.11538900  1
  O  O30  1  0.41980900  0.33356900  0.88461100  1
  O  O31  1  0.58019100  0.33356900  0.11538900  1
  O  O32  1  0.91980900  0.61538900  0.16643100  1
  O  O33  1  0.08019100  0.38461100  0.16643100  1
  O  O34  1  0.91980900  0.38461100  0.83356900  1
  O  O35  1  0.08019100  0.61538900  0.83356900  1
  O  O36  1  0.88461100  0.58019100  0.66643100  1
  O  O37  1  0.11538900  0.41980900  0.66643100  1
  O  O38  1  0.88461100  0.41980900  0.33356900  1
  O  O39  1  0.11538900  0.58019100  0.33356900  1
  O  O40  1  0.16643100  0.91980900  0.61538900  1
  O  O41  1  0.16643100  0.08019100  0.38461100  1
  O  O42  1  0.83356900  0.91980900  0.38461100  1
  O  O43  1  0.83356900  0.08019100  0.61538900  1
  O  O44  1  0.66643100  0.88461100  0.58019100  1
  O  O45  1  0.66643100  0.11538900  0.41980900  1
  O  O46  1  0.33356900  0.88461100  0.41980900  1
  O  O47  1  0.33356900  0.11538900  0.58019100  1
  O  O48  1  0.12895900  0.87104100  0.87104100  1
  O  O49  1  0.87104100  0.87104100  0.12895900  1
  O  O50  1  0.87104100  0.12895900  0.87104100  1
  O  O51  1  0.12895900  0.12895900  0.12895900  1
  O  O52  1  0.62895900  0.37104100  0.37104100  1
  O  O53  1  0.37104100  0.37104100  0.62895900  1
  O  O54  1  0.37104100  0.62895900  0.37104100  1
  O  O55  1  0.62895900  0.62895900  0.62895900  1
  O  O56  1  0.37104100  0.62895900  0.62895900  1
  O  O57  1  0.62895900  0.62895900  0.37104100  1
  O  O58  1  0.62895900  0.37104100  0.62895900  1
  O  O59  1  0.37104100  0.37104100  0.37104100  1
  O  O60  1  0.87104100  0.12895900  0.12895900  1
  O  O61  1  0.12895900  0.12895900  0.87104100  1
  O  O62  1  0.12895900  0.87104100  0.12895900  1
  O  O63  1  0.87104100  0.87104100  0.87104100  1
loop_
_geom_bond_atom_site_label_1
_geom_bond_atom_site_label_2
_geom_bond_distance
_geom_bond_site_symmetry_2
Mo0 O28 1.832539 1_554
Mo0 O27 1.832539 1_555
Mo0 O29 1.832539 1_555
Mo0 O26 1.832539 1_554
Mo1 O24 1.832539 1_554
Mo1 O30 1.832539 1_554
Mo1 O31 1.832539 1_555
Mo1 O25 1.832539 1_555
Mo2 O35 1.832539 1_555
Mo2 O36 1.832539 1_455
Mo2 O37 1.832539 1_555
Mo2 O34 1.832539 1_455
Mo3 O32 1.832539 1_455
Mo3 O38 1.832539 1_455
Mo3 O39 1.832539 1_555
Mo3 O33 1.832539 1_555
Mo4 O43 1.832539 1_555
Mo4 O44 1.832539 1_545
Mo4 O45 1.832539 1_555
Mo4 O42 1.832539 1_545
Mo5 O46 1.832539 1_545
Mo5 O40 1.832539 1_545
Mo5 O47 1.832539 1_555
Mo5 O41 1.832539 1_555
Mo6 O4 1.832539 1_455
Mo6 O3 1.832539 1_455
Mo6 O5 1.832539 1_555
Mo6 O2 1.832539 1_555
Mo7 O6 1.832539 1_555
Mo7 O0 1.832539 1_455
Mo7 O7 1.832539 1_455
Mo7 O1 1.832539 1_555
Mo8 O11 1.832539 1_545
Mo8 O12 1.832539 1_545
Mo8 O10 1.832539 1_555
Mo8 O13 1.832539 1_555
Mo9 O8 1.832539 1_545
Mo9 O14 1.832539 1_555
Mo9 O9 1.832539 1_555
Mo9 O15 1.832539 1_545
Mo10 O20 1.832539 1_554
Mo10 O19 1.832539 1_554
Mo10 O18 1.832539 1_555
Mo10 O21 1.832539 1_555
Mo11 O16 1.832539 1_554
Mo11 O22 1.832539 1_555
Mo11 O17 1.832539 1_555
Mo11 O23 1.832539 1_554
O0 Pr14 2.603234 1_555
O0 Pr11 2.626236 1_555
O1 Pr15 2.603234 1_555
O1 Pr10 2.626236 1_555
O2 Pr12 2.603234 1_555
O2 Pr10 2.626236 1_555
O3 Pr13 2.603234 1_555
O3 Pr11 2.626236 1_555
O4 Pr19 2.603234 1_555
O4 Pr4 2.626236 1_665
O5 Pr18 2.603234 1_555
O5 Pr5 2.626236 1_565
O6 Pr17 2.603234 1_555
O6 Pr4 2.626236 1_555
O7 Pr16 2.603234 1_555
O7 Pr5 2.626236 1_655
O8 Pr13 2.603234 1_555
O8 Pr3 2.626236 1_555
O9 Pr15 2.603234 1_555
O9 Pr2 2.626236 1_555
O10 Pr14 2.603234 1_555
O10 Pr2 2.626236 1_555
O11 Pr12 2.603234 1_555
O11 Pr3 2.626236 1_555
O12 Pr19 2.603234 1_555
O12 Pr8 2.626236 1_566
O13 Pr17 2.603234 1_555
O13 Pr9 2.626236 1_556
O14 Pr16 2.603234 1_555
O14 Pr8 2.626236 1_555
O15 Pr18 2.603234 1_555
O15 Pr9 2.626236 1_565
O16 Pr12 2.603234 1_555
O16 Pr7 2.626236 1_555
O17 Pr15 2.603234 1_555
O17 Pr6 2.626236 1_555
O18 Pr13 2.603234 1_555
O18 Pr6 2.626236 1_555
O19 Pr14 2.603234 1_555
O19 Pr7 2.626236 1_555
O20 Pr19 2.603234 1_555
O20 Pr0 2.626236 1_656
O21 Pr16 2.603234 1_555
O21 Pr1 2.626236 1_655
O22 Pr18 2.603234 1_555
O22 Pr0 2.626236 1_555
O23 Pr17 2.603234 1_555
O23 Pr1 2.626236 1_556
O24 Pr14 2.603234 1_555
O24 Pr8 2.626236 1_556
O25 Pr15 2.603234 1_555
O25 Pr9 2.626236 1_555
O26 Pr12 2.603234 1_555
O26 Pr9 2.626236 1_566
O27 Pr13 2.603234 1_555
O27 Pr8 2.626236 1_565
O28 Pr19 2.603234 1_555
O28 Pr7 2.626236 1_555
O29 Pr18 2.603234 1_555
O29 Pr6 2.626236 1_555
O30 Pr17 2.603234 1_555
O30 Pr7 2.626236 1_555
O31 Pr16 2.603234 1_555
O31 Pr6 2.626236 1_555
O32 Pr13 2.603234 1_555
O32 Pr0 2.626236 1_655
O33 Pr15 2.603234 1_555
O33 Pr1 2.626236 1_555
O34 Pr14 2.603234 1_555
O34 Pr1 2.626236 1_656
O35 Pr12 2.603234 1_555
O35 Pr0 2.626236 1_556
O36 Pr19 2.603234 1_555
O36 Pr11 2.626236 1_555
O37 Pr17 2.603234 1_555
O37 Pr10 2.626236 1_555
O38 Pr16 2.603234 1_555
O38 Pr11 2.626236 1_555
O39 Pr18 2.603234 1_555
O39 Pr10 2.626236 1_555
O40 Pr12 2.603234 1_555
O40 Pr4 2.626236 1_565
O41 Pr15 2.603234 1_555
O41 Pr5 2.626236 1_555
O42 Pr13 2.603234 1_555
O42 Pr5 2.626236 1_665
O43 Pr14 2.603234 1_555
O43 Pr4 2.626236 1_655
O44 Pr19 2.603234 1_555
O44 Pr3 2.626236 1_555
O45 Pr16 2.603234 1_555
O45 Pr2 2.626236 1_555
O46 Pr18 2.603234 1_555
O46 Pr3 2.626236 1_555
O47 Pr17 2.603234 1_555
O47 Pr2 2.626236 1_555
O48 Pr12 2.349930 1_555
O48 Pr4 2.396271 1_565
O48 Pr0 2.396271 1_556
O48 Pr9 2.396271 1_566
O49 Pr13 2.349930 1_555
O49 Pr0 2.396271 1_655
O49 Pr8 2.396271 1_565
O49 Pr5 2.396271 1_665
O50 Pr14 2.349930 1_555
O50 Pr4 2.396271 1_655
O50 Pr8 2.396271 1_556
O50 Pr1 2.396271 1_656
O51 Pr15 2.349930 1_555
O51 Pr1 2.396271 1_555
O51 Pr5 2.396271 1_555
O51 Pr9 2.396271 1_555
O52 Pr16 2.349930 1_555
O52 Pr11 2.396271 1_555
O52 Pr6 2.396271 1_555
O52 Pr2 2.396271 1_555
O53 Pr17 2.349930 1_555
O53 Pr7 2.396271 1_555
O53 Pr2 2.396271 1_555
O53 Pr10 2.396271 1_555
O54 Pr18 2.349930 1_555
O54 Pr3 2.396271 1_555
O54 Pr6 2.396271 1_555
O54 Pr10 2.396271 1_555
O55 Pr19 2.349930 1_555
O55 Pr11 2.396271 1_555
O55 Pr7 2.396271 1_555
O55 Pr3 2.396271 1_555
O56 Pr12 2.349930 1_555
O56 Pr7 2.396271 1_555
O56 Pr3 2.396271 1_555
O56 Pr10 2.396271 1_555
O57 Pr13 2.349930 1_555
O57 Pr3 2.396271 1_555
O57 Pr11 2.396271 1_555
O57 Pr6 2.396271 1_555
O58 Pr14 2.349930 1_555
O58 Pr7 2.396271 1_555
O58 Pr11 2.396271 1_555
O58 Pr2 2.396271 1_555
O59 Pr15 2.349930 1_555
O59 Pr10 2.396271 1_555
O59 Pr6 2.396271 1_555
O59 Pr2 2.396271 1_555
O60 Pr16 2.349930 1_555
O60 Pr8 2.396271 1_555
O60 Pr1 2.396271 1_655
O60 Pr5 2.396271 1_655
O61 Pr17 2.349930 1_555
O61 Pr4 2.396271 1_555
O61 Pr9 2.396271 1_556
O61 Pr1 2.396271 1_556
O62 Pr18 2.349930 1_555
O62 Pr0 2.396271 1_555
O62 Pr5 2.396271 1_565
O62 Pr9 2.396271 1_565
O63 Pr19 2.349930 1_555
O63 Pr8 2.396271 1_566
O63 Pr0 2.396271 1_656
O63 Pr4 2.396271 1_665
