# generated using pymatgen
data_Li3CrPCO7
_symmetry_space_group_name_H-M   'P 1'
_cell_length_a   6.47643400
_cell_length_b   8.69533774
_cell_length_c   10.01524473
_cell_angle_alpha   94.90562675
_cell_angle_beta   90.26818902
_cell_angle_gamma   90.27026580
_symmetry_Int_Tables_number   1
_chemical_formula_structural   Li3CrPCO7
_chemical_formula_sum   'Li12 Cr4 P4 C4 O28'
_cell_volume   561.92673557
_cell_formula_units_Z   4
loop_
 _symmetry_equiv_pos_site_id
 _symmetry_equiv_pos_as_xyz
  1  'x, y, z'
loop_
 _atom_site_type_symbol
 _atom_site_label
 _atom_site_symmetry_multiplicity
 _atom_site_fract_x
 _atom_site_fract_y
 _atom_site_fract_z
 _atom_site_occupancy
  Li  Li0  1  0.74964000  0.88603300  0.39077800  1
  Li  Li1  1  0.73557700  0.88954500  0.88197200  1
  Li  Li2  1  0.52636200  0.70862700  0.11336000  1
  Li  Li3  1  0.98128400  0.72972200  0.64513900  1
  Li  Li4  1  0.52417000  0.72745700  0.64198400  1
  Li  Li5  1  0.25862300  0.65163400  0.87327000  1
  Li  Li6  1  0.47425200  0.27436900  0.37188000  1
  Li  Li7  1  0.02525600  0.27658300  0.37294700  1
  Li  Li8  1  0.46888700  0.27860700  0.86925800  1
  Li  Li9  1  0.02784400  0.27684500  0.86968000  1
  Li  Li10  1  0.25316000  0.11515300  0.10068800  1
  Li  Li11  1  0.25171200  0.10100900  0.62459900  1
  Cr  Cr0  1  0.03018200  0.75498000  0.11413300  1
  Cr  Cr1  1  0.24799900  0.66595000  0.40672200  1
  Cr  Cr2  1  0.74505300  0.33556800  0.09986500  1
  Cr  Cr3  1  0.75010200  0.33482300  0.60455400  1
  P  P0  1  0.74445000  0.58809700  0.36459000  1
  P  P1  1  0.74898900  0.58916900  0.86382500  1
  P  P2  1  0.24736500  0.41441100  0.13965000  1
  P  P3  1  0.25000300  0.41127300  0.64058200  1
  C  C0  1  0.24122800  0.96960700  0.34888300  1
  C  C1  1  0.24437900  0.96042400  0.85477000  1
  C  C2  1  0.75686500  0.03473500  0.14649300  1
  C  C3  1  0.75084100  0.03302700  0.64691400  1
  O  O0  1  0.25137400  0.95353600  0.47406600  1
  O  O1  1  0.78020600  0.89666700  0.19025800  1
  O  O2  1  0.23933000  0.93276000  0.98006600  1
  O  O3  1  0.23645400  0.83973500  0.26664900  1
  O  O4  1  0.74981400  0.89464800  0.68772800  1
  O  O5  1  0.24580500  0.84942700  0.76015700  1
  O  O6  1  0.93412200  0.68541100  0.42026900  1
  O  O7  1  0.56168400  0.68806800  0.42472000  1
  O  O8  1  0.94211400  0.68318000  0.91994100  1
  O  O9  1  0.56192000  0.68697200  0.91507300  1
  O  O10  1  0.25422300  0.58065900  0.09488600  1
  O  O11  1  0.73600300  0.58041200  0.20937700  1
  O  O12  1  0.25086100  0.57723100  0.59513300  1
  O  O13  1  0.75636200  0.58040000  0.70824700  1
  O  O14  1  0.24953400  0.41843000  0.29466500  1
  O  O15  1  0.74596800  0.42164300  0.40872100  1
  O  O16  1  0.25005200  0.42214900  0.79510700  1
  O  O17  1  0.74624900  0.42200400  0.90802400  1
  O  O18  1  0.05919000  0.31769500  0.08137600  1
  O  O19  1  0.43142000  0.31609300  0.07989100  1
  O  O20  1  0.43590500  0.31267400  0.58327900  1
  O  O21  1  0.06336800  0.31252600  0.58185900  1
  O  O22  1  0.74042000  0.15447300  0.23326600  1
  O  O23  1  0.23951000  0.10130400  0.29915000  1
  O  O24  1  0.75124700  0.15350500  0.73540200  1
  O  O25  1  0.75169300  0.05100100  0.02087700  1
  O  O26  1  0.24975000  0.10494200  0.82375300  1
  O  O27  1  0.75119800  0.05480500  0.52152300  1
loop_
_geom_bond_atom_site_label_1
_geom_bond_atom_site_label_2
_geom_bond_distance
_geom_bond_site_symmetry_2
Li0 O27 1.881346 1_565
Li0 O1 2.028828 1_555
Li0 O7 2.155145 1_555
Li0 O6 2.159266 1_555
Li1 O25 1.892205 1_566
Li1 O4 1.952296 1_555
Li1 O9 2.135919 1_555
Li1 O8 2.299640 1_555
Li2 O9 1.993237 1_554
Li2 O11 2.048541 1_555
Li2 O10 2.078941 1_555
Li2 O1 2.390975 1_555
Li2 O3 2.632432 1_555
Li3 O13 2.082887 1_555
Li3 O4 2.099403 1_555
Li3 O12 2.230158 1_655
Li3 O5 2.259403 1_655
Li3 O6 2.271095 1_555
Li4 O4 2.078160 1_555
Li4 O13 2.119150 1_555
Li4 O7 2.188464 1_555
Li4 O12 2.219284 1_555
Li4 O5 2.366225 1_555
Li5 O9 2.023046 1_555
Li5 O16 2.080648 1_555
Li5 O8 2.118479 1_455
Li5 O5 2.140543 1_555
Li5 O10 2.354302 1_556
Li6 O14 2.111312 1_555
Li6 O20 2.130798 1_555
Li6 O15 2.182806 1_555
Li6 O23 2.210665 1_555
Li6 O22 2.403645 1_555
Li7 O14 2.098794 1_555
Li7 O21 2.102128 1_555
Li7 O23 2.152093 1_555
Li7 O15 2.222922 1_455
Li7 O22 2.488120 1_455
Li8 O16 2.069639 1_555
Li8 O26 2.087644 1_555
Li8 O19 2.122080 1_556
Li8 O17 2.195851 1_555
Li8 O24 2.473241 1_555
Li9 O16 2.092728 1_555
Li9 O26 2.102417 1_555
Li9 O18 2.128160 1_556
Li9 O17 2.238751 1_455
Li9 O24 2.424954 1_455
Li10 O2 1.911201 1_544
Li10 O23 2.003879 1_555
Li10 O19 2.115312 1_555
Li10 O18 2.189546 1_555
Li11 O0 1.893832 1_545
Li11 O26 1.992044 1_555
Li11 O20 2.257412 1_555
Li11 O21 2.281394 1_555
Cr0 O8 2.067908 1_454
Cr0 O10 2.100834 1_555
Cr0 O3 2.107146 1_555
Cr0 O1 2.142397 1_455
Cr0 O2 2.525784 1_554
Cr0 O11 2.661069 1_455
Cr1 O6 2.044807 1_455
Cr1 O7 2.045403 1_555
Cr1 O12 2.098795 1_555
Cr1 O3 2.149361 1_555
Cr1 O14 2.340741 1_555
Cr1 O0 2.533684 1_555
Cr2 O19 2.044925 1_555
Cr2 O18 2.049187 1_655
Cr2 O17 2.122153 1_554
Cr2 O22 2.150648 1_555
Cr2 O11 2.311156 1_555
Cr2 O25 2.533158 1_555
Cr3 O21 2.050844 1_655
Cr3 O20 2.051448 1_555
Cr3 O24 2.134601 1_555
Cr3 O15 2.161094 1_555
Cr3 O13 2.293357 1_555
Cr3 O27 2.504794 1_555
C0 O0 1.274749 1_555
C0 O23 1.287325 1_565
C0 O3 1.339739 1_555
C1 O5 1.293544 1_555
C1 O2 1.298294 1_555
C1 O26 1.320336 1_565
C2 O25 1.278265 1_555
C2 O22 1.302987 1_555
C2 O1 1.321885 1_545
C3 O27 1.285943 1_555
C3 O4 1.303463 1_545
C3 O24 1.313025 1_555
O6 P0 1.561736 1_555
O7 P0 1.564047 1_555
O8 P1 1.566429 1_555
O9 P1 1.547703 1_555
O10 P2 1.550193 1_555
O11 P0 1.550909 1_555
O12 P3 1.549818 1_555
O13 P1 1.554459 1_555
O14 P2 1.549912 1_555
O15 P0 1.549142 1_555
O16 P3 1.542398 1_555
O17 P1 1.555303 1_555
O18 P2 1.559754 1_555
O19 P2 1.561655 1_555
O20 P3 1.563983 1_555
O21 P3 1.562486 1_555
