# generated using pymatgen
data_LuMg2W3S8
_symmetry_space_group_name_H-M   'P 1'
_cell_length_a   7.41741282
_cell_length_b   7.41788160
_cell_length_c   7.41945148
_cell_angle_alpha   60.36312116
_cell_angle_beta   60.35768755
_cell_angle_gamma   60.32010123
_symmetry_Int_Tables_number   1
_chemical_formula_structural   LuMg2W3S8
_chemical_formula_sum   'Lu1 Mg2 W3 S8'
_cell_volume   290.92737988
_cell_formula_units_Z   1
loop_
 _symmetry_equiv_pos_site_id
 _symmetry_equiv_pos_as_xyz
  1  'x, y, z'
loop_
 _atom_site_type_symbol
 _atom_site_label
 _atom_site_symmetry_multiplicity
 _atom_site_fract_x
 _atom_site_fract_y
 _atom_site_fract_z
 _atom_site_occupancy
  Lu  Lu0  1  0.49999607  0.50001409  0.49999369  1
  Mg  Mg0  1  0.87500348  0.87500365  0.87505778  1
  Mg  Mg1  1  0.12500529  0.12498994  0.12494765  1
  W  W0  1  0.50000531  0.50000017  0.99999240  1
  W  W1  1  0.00000513  0.49998437  0.50000903  1
  W  W2  1  0.49998634  0.99999760  0.50001369  1
  S  S0  1  0.73816156  0.73811059  0.73834361  1
  S  S1  1  0.24826580  0.24832594  0.72401162  1
  S  S2  1  0.24816790  0.72392750  0.24833638  1
  S  S3  1  0.72394731  0.24819220  0.24830016  1
  S  S4  1  0.75182108  0.27607587  0.75165263  1
  S  S5  1  0.27604298  0.75180401  0.75169980  1
  S  S6  1  0.26184711  0.26188370  0.26165124  1
  S  S7  1  0.75174866  0.75168536  0.27599133  1
loop_
_geom_bond_atom_site_label_1
_geom_bond_atom_site_label_2
_geom_bond_distance
_geom_bond_site_symmetry_2
Lu0 S5 2.654067 1_555
Lu0 S4 2.654117 1_555
Lu0 S2 2.654139 1_555
Lu0 S3 2.654174 1_555
Lu0 S1 2.654813 1_555
Lu0 S7 2.654851 1_555
Mg0 S5 2.442039 1_655
Mg0 S4 2.442518 1_565
Mg0 S7 2.443021 1_556
Mg0 S0 2.479541 1_555
Mg1 S3 2.442156 1_455
Mg1 S2 2.442468 1_545
Mg1 S1 2.443030 1_554
Mg1 S6 2.479481 1_555
S0 W1 2.512716 1_655
S0 W0 2.513059 1_555
S0 W2 2.513111 1_555
S1 W1 2.488490 1_555
S1 W2 2.488713 1_545
S2 W0 2.488611 1_554
S2 W1 2.488972 1_555
S3 W0 2.488635 1_554
S3 W2 2.489264 1_545
S4 W0 2.488565 1_555
S4 W1 2.488900 1_655
S5 W0 2.488655 1_555
S5 W2 2.489161 1_555
S6 W1 2.512704 1_555
S6 W2 2.513093 1_545
S6 W0 2.513104 1_554
S7 W1 2.488559 1_655
S7 W2 2.488766 1_555
