# generated using pymatgen
data_CeMoClO4
_symmetry_space_group_name_H-M   'P 1'
_cell_length_a   5.93548400
_cell_length_b   7.55012500
_cell_length_c   19.66253330
_cell_angle_alpha   89.77973344
_cell_angle_beta   90.00000000
_cell_angle_gamma   90.00000000
_symmetry_Int_Tables_number   1
_chemical_formula_structural   CeMoClO4
_chemical_formula_sum   'Ce8 Mo8 Cl8 O32'
_cell_volume   881.14329801
_cell_formula_units_Z   8
loop_
 _symmetry_equiv_pos_site_id
 _symmetry_equiv_pos_as_xyz
  1  'x, y, z'
loop_
 _atom_site_type_symbol
 _atom_site_label
 _atom_site_symmetry_multiplicity
 _atom_site_fract_x
 _atom_site_fract_y
 _atom_site_fract_z
 _atom_site_occupancy
  Ce  Ce0  1  0.69460900  0.37085100  0.10799300  1
  Ce  Ce1  1  0.19460900  0.12914900  0.89200700  1
  Ce  Ce2  1  0.30539100  0.62914900  0.89200700  1
  Ce  Ce3  1  0.80539100  0.87085100  0.10799300  1
  Ce  Ce4  1  0.69567100  0.38123200  0.60812700  1
  Ce  Ce5  1  0.19567100  0.11876800  0.39187300  1
  Ce  Ce6  1  0.30432900  0.61876800  0.39187300  1
  Ce  Ce7  1  0.80432900  0.88123200  0.60812700  1
  Mo  Mo0  1  0.75222300  0.38152700  0.82263100  1
  Mo  Mo1  1  0.25222300  0.11847300  0.17736900  1
  Mo  Mo2  1  0.24777700  0.61847300  0.17736900  1
  Mo  Mo3  1  0.74777700  0.88152700  0.82263100  1
  Mo  Mo4  1  0.75183800  0.37010200  0.32253400  1
  Mo  Mo5  1  0.25183800  0.12989800  0.67746600  1
  Mo  Mo6  1  0.24816200  0.62989800  0.67746600  1
  Mo  Mo7  1  0.74816200  0.87010200  0.32253400  1
  Cl  Cl0  1  0.76857800  0.12684800  0.99363400  1
  Cl  Cl1  1  0.26857800  0.37315200  0.00636600  1
  Cl  Cl2  1  0.23142200  0.87315200  0.00636600  1
  Cl  Cl3  1  0.73142200  0.62684800  0.99363400  1
  Cl  Cl4  1  0.76855400  0.12669400  0.49372000  1
  Cl  Cl5  1  0.26855400  0.37330600  0.50628000  1
  Cl  Cl6  1  0.23144600  0.87330600  0.50628000  1
  Cl  Cl7  1  0.73144600  0.62669400  0.49372000  1
  O  O0  1  0.76248000  0.38417900  0.73314200  1
  O  O1  1  0.26248000  0.11582100  0.26685800  1
  O  O2  1  0.23752000  0.61582100  0.26685800  1
  O  O3  1  0.73752000  0.88417900  0.73314200  1
  O  O4  1  0.84421000  0.13053700  0.83743800  1
  O  O5  1  0.34421000  0.36946300  0.16256200  1
  O  O6  1  0.15579000  0.86946300  0.16256200  1
  O  O7  1  0.65579000  0.63053700  0.83743800  1
  O  O8  1  0.96950100  0.16018300  0.13246100  1
  O  O9  1  0.46950100  0.33981700  0.86753900  1
  O  O10  1  0.03049900  0.83981700  0.86753900  1
  O  O11  1  0.53049900  0.66018300  0.13246100  1
  O  O12  1  0.53166000  0.08082600  0.12909400  1
  O  O13  1  0.03166000  0.41917400  0.87090600  1
  O  O14  1  0.46834000  0.91917400  0.87090600  1
  O  O15  1  0.96834000  0.58082600  0.12909400  1
  O  O16  1  0.76068400  0.37172900  0.23324400  1
  O  O17  1  0.26068400  0.12827100  0.76675600  1
  O  O18  1  0.23931600  0.62827100  0.76675600  1
  O  O19  1  0.73931600  0.87172900  0.23324400  1
  O  O20  1  0.84583100  0.11969000  0.33739200  1
  O  O21  1  0.34583100  0.38031000  0.66260800  1
  O  O22  1  0.15416900  0.88031000  0.66260800  1
  O  O23  1  0.65416900  0.61969000  0.33739200  1
  O  O24  1  0.96915700  0.17183500  0.63242800  1
  O  O25  1  0.46915700  0.32816500  0.36757200  1
  O  O26  1  0.03084300  0.82816500  0.36757200  1
  O  O27  1  0.53084300  0.67183500  0.63242800  1
  O  O28  1  0.53115500  0.09085200  0.62916200  1
  O  O29  1  0.03115500  0.40914800  0.37083800  1
  O  O30  1  0.46884500  0.90914800  0.37083800  1
  O  O31  1  0.96884500  0.59085200  0.62916200  1
loop_
_geom_bond_atom_site_label_1
_geom_bond_atom_site_label_2
_geom_bond_distance
_geom_bond_site_symmetry_2
Ce0 O15 2.308729 1_555
Ce0 O8 2.327587 1_555
Ce0 O5 2.340255 1_555
Ce0 O12 2.428063 1_555
Ce0 O11 2.441386 1_555
Ce0 O16 2.493818 1_555
Ce0 Cl0 2.945276 1_554
Ce0 Cl3 2.967529 1_554
Ce0 Cl1 3.222940 1_555
Ce1 O14 2.308729 1_545
Ce1 O9 2.327587 1_555
Ce1 O4 2.340255 1_455
Ce1 O13 2.428063 1_555
Ce1 O10 2.441386 1_545
Ce1 O17 2.493818 1_555
Ce1 Cl1 2.945276 1_556
Ce1 Cl2 2.967529 1_546
Ce1 Cl0 3.222940 1_455
Ce2 O13 2.308729 1_555
Ce2 O10 2.327587 1_555
Ce2 O7 2.340255 1_555
Ce2 O14 2.428063 1_555
Ce2 O9 2.441386 1_555
Ce2 O18 2.493818 1_555
Ce2 Cl2 2.945276 1_556
Ce2 Cl1 2.967529 1_556
Ce2 Cl3 3.222940 1_555
Ce3 O12 2.308729 1_565
Ce3 O11 2.327587 1_555
Ce3 O6 2.340255 1_655
Ce3 O15 2.428063 1_555
Ce3 O8 2.441386 1_565
Ce3 O19 2.493818 1_555
Ce3 Cl3 2.945276 1_554
Ce3 Cl0 2.967529 1_564
Ce3 Cl2 3.222940 1_655
Ce4 O31 2.304323 1_555
Ce4 O24 2.314518 1_555
Ce4 O21 2.336506 1_555
Ce4 O28 2.433979 1_555
Ce4 O27 2.451027 1_555
Ce4 O0 2.490075 1_555
Ce4 Cl7 2.916853 1_555
Ce4 Cl4 2.995674 1_555
Ce4 Cl5 3.231370 1_555
Ce5 O30 2.304323 1_545
Ce5 O25 2.314518 1_555
Ce5 O20 2.336506 1_455
Ce5 O29 2.433979 1_555
Ce5 O26 2.451027 1_545
Ce5 O1 2.490075 1_555
Ce5 Cl6 2.916853 1_545
Ce5 Cl5 2.995674 1_555
Ce5 Cl4 3.231370 1_455
Ce6 O29 2.304323 1_555
Ce6 O26 2.314518 1_555
Ce6 O23 2.336506 1_555
Ce6 O30 2.433979 1_555
Ce6 O25 2.451027 1_555
Ce6 O2 2.490075 1_555
Ce6 Cl5 2.916853 1_555
Ce6 Cl6 2.995674 1_555
Ce6 Cl7 3.231370 1_555
Ce7 O28 2.304323 1_565
Ce7 O27 2.314518 1_555
Ce7 O22 2.336506 1_655
Ce7 O31 2.433979 1_555
Ce7 O24 2.451027 1_565
Ce7 O3 2.490075 1_555
Ce7 Cl4 2.916853 1_565
Ce7 Cl7 2.995674 1_555
Ce7 Cl6 3.231370 1_655
Mo0 O0 1.760670 1_555
Mo0 O9 1.921646 1_555
Mo0 O13 1.932562 1_655
Mo0 O7 1.987763 1_555
Mo0 O4 1.992404 1_555
Mo1 O1 1.760670 1_555
Mo1 O8 1.921646 1_455
Mo1 O12 1.932562 1_555
Mo1 O6 1.987763 1_545
Mo1 O5 1.992404 1_555
Mo2 O2 1.760670 1_555
Mo2 O11 1.921646 1_555
Mo2 O15 1.932562 1_455
Mo2 O5 1.987763 1_555
Mo2 O6 1.992404 1_555
Mo3 O3 1.760670 1_555
Mo3 O10 1.921646 1_655
Mo3 O14 1.932562 1_555
Mo3 O4 1.987763 1_565
Mo3 O7 1.992404 1_555
Mo4 O16 1.756448 1_555
Mo4 O25 1.922887 1_555
Mo4 O29 1.933834 1_655
Mo4 O20 1.991702 1_555
Mo4 O23 1.994164 1_555
Mo5 O17 1.756448 1_555
Mo5 O24 1.922887 1_455
Mo5 O28 1.933834 1_555
Mo5 O21 1.991702 1_555
Mo5 O22 1.994164 1_545
Mo6 O18 1.756448 1_555
Mo6 O27 1.922887 1_555
Mo6 O31 1.933834 1_455
Mo6 O22 1.991702 1_555
Mo6 O21 1.994164 1_555
Mo7 O19 1.756448 1_555
Mo7 O26 1.922887 1_655
Mo7 O30 1.933834 1_555
Mo7 O23 1.991702 1_555
Mo7 O20 1.994164 1_565
