# generated using pymatgen
data_Mg2Si
_symmetry_space_group_name_H-M   'P 1'
_cell_length_a   5.39219900
_cell_length_b   6.35943997
_cell_length_c   7.73512150
_cell_angle_alpha   108.05628150
_cell_angle_beta   90.18309949
_cell_angle_gamma   98.80377220
_symmetry_Int_Tables_number   1
_chemical_formula_structural   Mg2Si
_chemical_formula_sum   'Mg8 Si4'
_cell_volume   248.85176122
_cell_formula_units_Z   4
loop_
 _symmetry_equiv_pos_site_id
 _symmetry_equiv_pos_as_xyz
  1  'x, y, z'
loop_
 _atom_site_type_symbol
 _atom_site_label
 _atom_site_symmetry_multiplicity
 _atom_site_fract_x
 _atom_site_fract_y
 _atom_site_fract_z
 _atom_site_occupancy
  Mg  Mg0  1  0.79730500  0.89762400  0.60233100  1
  Mg  Mg1  1  0.05120900  0.75272900  0.97138400  1
  Mg  Mg2  1  0.52203300  0.66136600  0.19652600  1
  Mg  Mg3  1  0.28117200  0.63536600  0.58013900  1
  Mg  Mg4  1  0.47796700  0.33863400  0.80347400  1
  Mg  Mg5  1  0.71882800  0.36463400  0.41986100  1
  Mg  Mg6  1  0.20269500  0.10237600  0.39766900  1
  Mg  Mg7  1  0.94879100  0.24727100  0.02861600  1
  Si  Si0  1  0.57554500  0.83501700  0.90199800  1
  Si  Si1  1  0.42445500  0.16498300  0.09800200  1
  Si  Si2  1  0.02248700  0.66689300  0.29617000  1
  Si  Si3  1  0.97751300  0.33310700  0.70383000  1
loop_
_geom_bond_atom_site_label_1
_geom_bond_atom_site_label_2
_geom_bond_distance
_geom_bond_site_symmetry_2
Mg0 Si3 2.655914 1_565
Mg0 Si0 2.721290 1_555
Mg0 Si2 2.765025 1_655
Mg1 Si2 2.731323 1_556
Mg1 Si0 2.777886 1_455
Mg1 Si3 2.794422 1_455
Mg1 Si0 2.878642 1_555
Mg1 Si1 2.943421 1_566
Mg2 Si2 2.796130 1_655
Mg2 Si2 2.806514 1_555
Mg2 Si0 2.821222 1_554
Mg2 Si1 2.969884 1_555
Mg3 Si2 2.673888 1_555
Mg3 Si3 2.734582 1_455
Mg3 Si0 2.779958 1_555
Mg4 Si3 2.796130 1_455
Mg4 Si3 2.806514 1_555
Mg4 Si1 2.821222 1_556
Mg4 Si0 2.969884 1_555
Mg5 Si3 2.673888 1_555
Mg5 Si2 2.734582 1_655
Mg5 Si1 2.779958 1_555
Mg6 Si2 2.655914 1_545
Mg6 Si1 2.721290 1_555
Mg6 Si3 2.765025 1_455
Mg7 Si3 2.731323 1_554
Mg7 Si1 2.777886 1_655
Mg7 Si2 2.794422 1_655
Mg7 Si1 2.878642 1_555
Mg7 Si0 2.943421 1_544
Si0 Si1 2.434064 1_566
