# generated using pymatgen
data_CaAl2Si4(ClO4)3
_symmetry_space_group_name_H-M   'P 1'
_cell_length_a   9.45349359
_cell_length_b   9.45349359
_cell_length_c   9.65052721
_cell_angle_alpha   81.28863830
_cell_angle_beta   81.28863830
_cell_angle_gamma   96.49314438
_symmetry_Int_Tables_number   1
_chemical_formula_structural   CaAl2Si4(ClO4)3
_chemical_formula_sum   'Ca2 Al4 Si8 Cl6 O24'
_cell_volume   834.46356173
_cell_formula_units_Z   2
loop_
 _symmetry_equiv_pos_site_id
 _symmetry_equiv_pos_as_xyz
  1  'x, y, z'
loop_
 _atom_site_type_symbol
 _atom_site_label
 _atom_site_symmetry_multiplicity
 _atom_site_fract_x
 _atom_site_fract_y
 _atom_site_fract_z
 _atom_site_occupancy
  Ca  Ca0  1  0.80620400  0.80620400  0.23655600  1
  Ca  Ca1  1  0.21696500  0.21696500  0.79776700  1
  Al  Al0  1  0.09800100  0.66258900  0.11525100  1
  Al  Al1  1  0.10312800  0.87445000  0.34635900  1
  Al  Al2  1  0.87445000  0.10312800  0.34635900  1
  Al  Al3  1  0.66258900  0.09800100  0.11525100  1
  Si  Si0  1  0.67123600  0.88656600  0.89376800  1
  Si  Si1  1  0.88656600  0.67123600  0.89376800  1
  Si  Si2  1  0.89595500  0.33810800  0.88484500  1
  Si  Si3  1  0.90097300  0.12460500  0.67071200  1
  Si  Si4  1  0.12460500  0.90097300  0.67071200  1
  Si  Si5  1  0.33810800  0.89595500  0.88484500  1
  Si  Si6  1  0.32918500  0.10828800  0.09842500  1
  Si  Si7  1  0.10828800  0.32918500  0.09842500  1
  Cl  Cl0  1  0.72789800  0.47340600  0.52651400  1
  Cl  Cl1  1  0.47340600  0.72789800  0.52651400  1
  Cl  Cl2  1  0.44581000  0.44581000  0.29050200  1
  Cl  Cl3  1  0.26537400  0.53372700  0.47353700  1
  Cl  Cl4  1  0.53372700  0.26537400  0.47353700  1
  Cl  Cl5  1  0.52174600  0.52174600  0.71517100  1
  O  O0  1  0.05233400  0.71850700  0.27730600  1
  O  O1  1  0.71850700  0.05233400  0.27730600  1
  O  O2  1  0.73112200  0.73112200  0.88629500  1
  O  O3  1  0.93030800  0.27633900  0.73347300  1
  O  O4  1  0.27633900  0.93030800  0.73347300  1
  O  O5  1  0.25827300  0.25827300  0.05571500  1
  O  O6  1  0.49126000  0.14520100  0.11981200  1
  O  O7  1  0.50795200  0.87344900  0.85667600  1
  O  O8  1  0.87344900  0.50795200  0.85667600  1
  O  O9  1  0.14520100  0.49126000  0.11981200  1
  O  O10  1  0.15662600  0.87113000  0.51285000  1
  O  O11  1  0.87113000  0.15662600  0.51285000  1
  O  O12  1  0.99244400  0.23226500  0.22128700  1
  O  O13  1  0.01156100  0.77209300  0.77281600  1
  O  O14  1  0.77209300  0.01156100  0.77281600  1
  O  O15  1  0.23226500  0.99244400  0.22128700  1
  O  O16  1  0.23945400  0.77021500  0.99488000  1
  O  O17  1  0.77021500  0.23945400  0.99488000  1
  O  O18  1  0.68087300  0.92713800  0.05100500  1
  O  O19  1  0.92713800  0.68087300  0.05100500  1
  O  O20  1  0.93445900  0.93445900  0.35721800  1
  O  O21  1  0.32706100  0.05614200  0.93688800  1
  O  O22  1  0.05614200  0.32706100  0.93688800  1
  O  O23  1  0.05957900  0.05957900  0.68797100  1
loop_
_geom_bond_atom_site_label_1
_geom_bond_atom_site_label_2
_geom_bond_distance
_geom_bond_site_symmetry_2
Ca0 O20 2.195202 1_555
Ca0 O19 2.499238 1_555
Ca0 O18 2.499238 1_555
Ca0 O0 2.621184 1_655
Ca0 O1 2.621184 1_565
Ca1 O22 2.315185 1_555
Ca1 O21 2.315185 1_555
Ca1 O23 2.450415 1_555
Ca1 O5 2.656352 1_556
Ca1 O4 2.965045 1_545
Ca1 O3 2.965045 1_455
Al0 O9 1.723988 1_555
Al0 O0 1.734697 1_555
Al0 O16 1.742557 1_554
Al0 O19 1.832312 1_455
Al1 O15 1.740487 1_555
Al1 O20 1.745636 1_455
Al1 O10 1.752937 1_555
Al1 O0 1.755664 1_555
Al2 O12 1.740487 1_555
Al2 O20 1.745636 1_545
Al2 O11 1.752937 1_555
Al2 O1 1.755664 1_555
Al3 O6 1.723988 1_555
Al3 O1 1.734697 1_555
Al3 O17 1.742557 1_554
Al3 O18 1.832312 1_545
Cl0 Cl5 2.588487 1_555
Cl0 Cl4 2.696443 1_555
Cl1 Cl5 2.588487 1_555
Cl1 Cl3 2.696443 1_555
Cl2 Cl4 2.563810 1_555
Cl2 Cl3 2.563810 1_555
O2 Si1 1.641034 1_555
O2 Si0 1.641034 1_555
O3 Si3 1.650873 1_555
O3 Si2 1.654694 1_555
O4 Si4 1.650873 1_555
O4 Si5 1.654694 1_555
O5 Si7 1.658708 1_555
O5 Si6 1.658708 1_555
O6 Si6 1.583861 1_555
O7 Si5 1.630873 1_555
O7 Si0 1.632100 1_555
O8 Si2 1.630873 1_555
O8 Si1 1.632100 1_555
O9 Si7 1.583861 1_555
O10 Si4 1.581753 1_555
O11 Si3 1.581753 1_555
O12 Si7 1.579652 1_655
O13 Si4 1.618727 1_555
O13 Si1 1.630364 1_455
O14 Si3 1.618727 1_555
O14 Si0 1.630364 1_545
O15 Si6 1.579652 1_565
O16 Si5 1.573945 1_555
O17 Si2 1.573945 1_555
O18 Si0 1.633475 1_554
O19 Si1 1.633475 1_554
O21 Si5 1.675292 1_545
O21 Si6 1.706946 1_556
O22 Si2 1.675292 1_455
O22 Si7 1.706946 1_556
O23 Si4 1.704952 1_545
O23 Si3 1.704952 1_455
