# generated using pymatgen
data_Ba2Ca2Tl2Sn3O10
_symmetry_space_group_name_H-M   'P 1'
_cell_length_a   4.03626500
_cell_length_b   4.05616063
_cell_length_c   20.77341066
_cell_angle_alpha   95.40080852
_cell_angle_beta   95.15701614
_cell_angle_gamma   90.03198040
_symmetry_Int_Tables_number   1
_chemical_formula_structural   Ba2Ca2Tl2Sn3O10
_chemical_formula_sum   'Ba2 Ca2 Tl2 Sn3 O10'
_cell_volume   337.20253659
_cell_formula_units_Z   1
loop_
 _symmetry_equiv_pos_site_id
 _symmetry_equiv_pos_as_xyz
  1  'x, y, z'
loop_
 _atom_site_type_symbol
 _atom_site_label
 _atom_site_symmetry_multiplicity
 _atom_site_fract_x
 _atom_site_fract_y
 _atom_site_fract_z
 _atom_site_occupancy
  Ba  Ba0  1  0.93415800  0.84584900  0.67597500  1
  Ba  Ba1  1  0.24220900  0.15174400  0.31795900  1
  Ca  Ca0  1  0.12675500  0.04445400  0.09898400  1
  Ca  Ca1  1  0.02635500  0.96232500  0.91356100  1
  Tl  Tl0  1  0.27287500  0.27826400  0.54829500  1
  Tl  Tl1  1  0.76322500  0.72598600  0.45035200  1
  Sn  Sn0  1  0.67079300  0.58753500  0.18809600  1
  Sn  Sn1  1  0.47425800  0.41399500  0.81115500  1
  Sn  Sn2  1  0.58274200  0.51074500  0.02313400  1
  O  O0  1  0.65662900  0.07500500  0.16212100  1
  O  O1  1  0.72323600  0.63373200  0.28432900  1
  O  O2  1  0.15755000  0.57438700  0.16099700  1
  O  O3  1  0.22371700  0.21899000  0.43159200  1
  O  O4  1  0.06348700  0.49429400  0.98721100  1
  O  O5  1  0.98787700  0.42839400  0.84187900  1
  O  O6  1  0.43603400  0.36715000  0.71474000  1
  O  O7  1  0.48623000  0.92869100  0.84150600  1
  O  O8  1  0.61388900  0.79086500  0.56878100  1
  O  O9  1  0.55689100  0.99459300  0.98836900  1
loop_
_geom_bond_atom_site_label_1
_geom_bond_atom_site_label_2
_geom_bond_distance
_geom_bond_site_symmetry_2
Ba0 O8 2.463346 1_555
Ba0 O6 2.920198 1_655
Ba0 O6 2.933328 1_665
Ba0 O6 3.006991 1_555
Ba0 O6 3.022769 1_565
Ba1 O3 2.358524 1_555
Ba1 O1 2.928565 1_555
Ba1 O1 2.940160 1_545
Ba1 O1 2.948997 1_455
Ba1 O1 2.957424 1_445
Ca0 O2 2.396704 1_545
Ca0 O2 2.396862 1_555
Ca0 O0 2.398616 1_455
Ca0 O0 2.403019 1_555
Ca1 O7 2.483106 1_555
Ca1 O5 2.506542 1_455
Ca1 O5 2.510767 1_465
Ca1 O4 2.521132 1_565
Ca1 O9 2.526023 1_555
Ca1 O7 2.527149 1_455
Ca1 O4 2.544219 1_555
Ca1 O9 2.552260 1_455
O0 Sn0 2.097472 1_545
O0 Sn0 2.097480 1_555
O1 Sn0 1.982332 1_555
O2 Sn0 2.091173 1_455
O2 Sn0 2.096614 1_555
O3 Tl0 2.403799 1_555
O3 Tl1 2.796275 1_455
O3 Tl1 2.806795 1_445
O4 Sn2 2.139538 1_456
O4 Sn2 2.159451 1_556
O5 Sn1 2.112700 1_555
O5 Sn1 2.117340 1_655
O6 Sn1 1.985992 1_555
O7 Sn1 2.122027 1_565
O7 Sn1 2.122483 1_555
O8 Tl0 2.457674 1_565
O8 Tl0 2.474596 1_555
O8 Tl1 2.574862 1_555
O9 Sn2 2.148761 1_566
O9 Sn2 2.153507 1_556
