# generated using pymatgen
data_Li7Mn5O12
_symmetry_space_group_name_H-M   'P 1'
_cell_length_a   5.09431221
_cell_length_b   7.79837077
_cell_length_c   6.01868142
_cell_angle_alpha   76.33248097
_cell_angle_beta   104.53418682
_cell_angle_gamma   82.96911469
_symmetry_Int_Tables_number   1
_chemical_formula_structural   Li7Mn5O12
_chemical_formula_sum   'Li7 Mn5 O12'
_cell_volume   220.66391717
_cell_formula_units_Z   1
loop_
 _symmetry_equiv_pos_site_id
 _symmetry_equiv_pos_as_xyz
  1  'x, y, z'
loop_
 _atom_site_type_symbol
 _atom_site_label
 _atom_site_symmetry_multiplicity
 _atom_site_fract_x
 _atom_site_fract_y
 _atom_site_fract_z
 _atom_site_occupancy
  Li  Li0  1  0.49707800  0.16260300  0.08448200  1
  Li  Li1  1  0.51360400  0.15973800  0.58406600  1
  Li  Li2  1  0.50984400  0.49942900  0.25468700  1
  Li  Li3  1  0.49005900  0.50041300  0.74531400  1
  Li  Li4  1  0.48642800  0.84038200  0.41581700  1
  Li  Li5  1  0.50304000  0.83756900  0.91567300  1
  Li  Li6  1  0.99991700  0.00009900  0.49991700  1
  Mn  Mn0  1  0.99995800  0.99993000  0.00022600  1
  Mn  Mn1  1  0.99833300  0.32936100  0.16765100  1
  Mn  Mn2  1  0.99439000  0.32855200  0.65845200  1
  Mn  Mn3  1  0.00578500  0.67110500  0.34164300  1
  Mn  Mn4  1  0.00163800  0.67055800  0.83243300  1
  O  O0  1  0.22365300  0.09281300  0.79668100  1
  O  O1  1  0.21748100  0.08692400  0.25738100  1
  O  O2  1  0.21828600  0.42020100  0.95219100  1
  O  O3  1  0.23239500  0.42642400  0.46530900  1
  O  O4  1  0.23649900  0.76341700  0.13663700  1
  O  O5  1  0.23009500  0.74142900  0.62807000  1
  O  O6  1  0.76940200  0.25841800  0.37107300  1
  O  O7  1  0.76333200  0.23655800  0.86347400  1
  O  O8  1  0.76780200  0.57385700  0.53448200  1
  O  O9  1  0.78207100  0.58020200  0.04843300  1
  O  O10  1  0.78246500  0.91302500  0.74249300  1
  O  O11  1  0.77644300  0.90699500  0.20341500  1
loop_
_geom_bond_atom_site_label_1
_geom_bond_atom_site_label_2
_geom_bond_distance
_geom_bond_site_symmetry_2
Li0 O1 2.029654 1_555
Li0 O11 2.151991 1_545
Li0 O0 2.157999 1_554
Li0 O2 2.159775 1_554
Li0 O7 2.162474 1_554
Li0 O6 2.262737 1_555
Li1 O10 2.078275 1_545
Li1 O7 2.096242 1_555
Li1 O6 2.133406 1_555
Li1 O0 2.216658 1_555
Li1 O3 2.223189 1_555
Li1 O1 2.390127 1_555
Li2 O6 2.018938 1_555
Li2 O8 2.106547 1_555
Li2 O9 2.137622 1_555
Li2 O3 2.164271 1_555
Li2 O4 2.189159 1_555
Li2 O2 2.302496 1_554
Li3 O5 2.019720 1_555
Li3 O3 2.104910 1_555
Li3 O2 2.137202 1_555
Li3 O8 2.167089 1_555
Li3 O7 2.188145 1_555
Li3 O9 2.308539 1_556
Li4 O1 2.077485 1_565
Li4 O4 2.096332 1_555
Li4 O5 2.133255 1_555
Li4 O11 2.215610 1_555
Li4 O8 2.222621 1_555
Li4 O10 2.389211 1_555
Li5 O10 2.029501 1_555
Li5 O0 2.149849 1_565
Li5 O11 2.156219 1_556
Li5 O9 2.158909 1_556
Li5 O4 2.163782 1_556
Li5 O5 2.269865 1_555
Li6 O6 2.064950 1_555
Li6 O5 2.066575 1_645
Li6 O1 2.084804 1_655
Li6 O10 2.084997 1_545
Li6 O0 2.191424 1_655
Li6 O11 2.191532 1_545
Mn0 O4 1.942091 1_655
Mn0 O7 1.943045 1_564
Mn0 O11 1.949214 1_555
Mn0 O0 1.951287 1_664
Mn0 O1 1.975623 1_665
Mn0 O10 1.977667 1_554
Mn1 O6 1.928658 1_555
Mn1 O1 1.952075 1_655
Mn1 O2 1.982053 1_654
Mn1 O9 1.991852 1_555
Mn1 O3 2.234692 1_655
Mn1 O7 2.246503 1_554
Mn2 O0 1.923476 1_655
Mn2 O8 1.975158 1_555
Mn2 O3 1.979556 1_655
Mn2 O7 1.985006 1_555
Mn2 O6 2.051822 1_555
Mn2 O2 2.172995 1_655
Mn3 O11 1.924547 1_455
Mn3 O3 1.971267 1_555
Mn3 O8 1.976714 1_455
Mn3 O4 1.984264 1_555
Mn3 O5 2.046916 1_555
Mn3 O9 2.166840 1_455
Mn4 O5 1.930688 1_555
Mn4 O10 1.952199 1_455
Mn4 O9 1.981827 1_456
Mn4 O2 1.989367 1_555
Mn4 O8 2.233907 1_455
Mn4 O4 2.246618 1_556
