# generated using pymatgen
data_Yb3Ho
_symmetry_space_group_name_H-M   'P 1'
_cell_length_a   7.11389984
_cell_length_b   7.11389984
_cell_length_c   5.49267011
_cell_angle_alpha   90.00000000
_cell_angle_beta   90.00000000
_cell_angle_gamma   119.99999338
_symmetry_Int_Tables_number   1
_chemical_formula_structural   Yb3Ho
_chemical_formula_sum   'Yb6 Ho2'
_cell_volume   240.72969755
_cell_formula_units_Z   2
loop_
 _symmetry_equiv_pos_site_id
 _symmetry_equiv_pos_as_xyz
  1  'x, y, z'
loop_
 _atom_site_type_symbol
 _atom_site_label
 _atom_site_symmetry_multiplicity
 _atom_site_fract_x
 _atom_site_fract_y
 _atom_site_fract_z
 _atom_site_occupancy
  Yb  Yb0  1  0.16646969  0.33294039  0.25000000  1
  Yb  Yb1  1  0.66705961  0.83353031  0.25000000  1
  Yb  Yb2  1  0.16646969  0.83353031  0.25000000  1
  Yb  Yb3  1  0.83353031  0.66705961  0.75000000  1
  Yb  Yb4  1  0.33294039  0.16646969  0.75000000  1
  Yb  Yb5  1  0.83353031  0.16646969  0.75000000  1
  Ho  Ho0  1  0.33333300  0.66666700  0.75000000  1
  Ho  Ho1  1  0.66666700  0.33333300  0.25000000  1
loop_
_geom_bond_atom_site_label_1
_geom_bond_atom_site_label_2
_geom_bond_distance
_geom_bond_site_symmetry_2
Yb0 Yb5 3.427782 1_454
Yb0 Yb5 3.427782 1_455
Yb0 Yb4 3.427790 1_554
Yb0 Yb4 3.427790 1_555
Yb0 Yb2 3.552753 1_545
Yb0 Yb1 3.552754 1_445
Yb0 Yb2 3.561147 1_555
Yb0 Yb1 3.561147 1_555
Yb1 Yb5 3.427782 1_564
Yb1 Yb5 3.427782 1_565
Yb1 Yb3 3.427790 1_555
Yb1 Yb3 3.427790 1_554
Yb1 Yb2 3.552753 1_655
Yb1 Yb2 3.561147 1_555
Yb2 Yb4 3.427782 1_564
Yb2 Yb4 3.427782 1_565
Yb2 Yb3 3.427782 1_455
Yb2 Yb3 3.427782 1_454
Yb3 Yb5 3.552753 1_565
Yb3 Yb4 3.552754 1_665
Yb3 Yb5 3.561147 1_555
Yb3 Yb4 3.561147 1_555
Yb4 Yb5 3.552753 1_455
Yb4 Yb5 3.561147 1_555
Ho0 Yb2 3.430687 1_556
Ho0 Yb2 3.430687 1_555
Ho0 Yb0 3.430687 1_555
Ho0 Yb0 3.430687 1_556
Ho0 Yb1 3.430687 1_556
Ho0 Yb1 3.430687 1_555
Ho0 Yb4 3.556944 1_565
Ho0 Yb3 3.556944 1_455
Ho0 Yb5 3.556951 1_455
Ho0 Yb5 3.556951 1_565
Ho0 Yb3 3.556958 1_555
Ho0 Yb4 3.556958 1_555
Ho1 Yb5 3.430687 1_554
Ho1 Yb5 3.430687 1_555
Ho1 Yb4 3.430687 1_554
Ho1 Yb4 3.430687 1_555
Ho1 Yb3 3.430687 1_555
Ho1 Yb3 3.430687 1_554
Ho1 Yb0 3.556944 1_655
Ho1 Yb1 3.556944 1_545
Ho1 Yb2 3.556951 1_545
Ho1 Yb2 3.556951 1_655
Ho1 Yb1 3.556958 1_555
Ho1 Yb0 3.556958 1_555
