# generated using pymatgen
data_CaMg3SiN4
_symmetry_space_group_name_H-M   'P 1'
_cell_length_a   10.56176327
_cell_length_b   10.56176327
_cell_length_c   10.56176327
_cell_angle_alpha   114.08202001
_cell_angle_beta   114.08202001
_cell_angle_gamma   100.59770814
_symmetry_Int_Tables_number   1
_chemical_formula_structural   CaMg3SiN4
_chemical_formula_sum   'Ca8 Mg24 Si8 N32'
_cell_volume   891.00924739
_cell_formula_units_Z   8
loop_
 _symmetry_equiv_pos_site_id
 _symmetry_equiv_pos_as_xyz
  1  'x, y, z'
loop_
 _atom_site_type_symbol
 _atom_site_label
 _atom_site_symmetry_multiplicity
 _atom_site_fract_x
 _atom_site_fract_y
 _atom_site_fract_z
 _atom_site_occupancy
  Ca  Ca0  1  0.19507200  0.23151800  0.49221400  1
  Ca  Ca1  1  0.73930400  0.70285800  0.50778600  1
  Ca  Ca2  1  0.98151800  0.98930400  0.53644600  1
  Ca  Ca3  1  0.45285800  0.44507200  0.46355400  1
  Ca  Ca4  1  0.55492800  0.01848200  0.00778600  1
  Ca  Ca5  1  0.01069600  0.54714200  0.99221400  1
  Ca  Ca6  1  0.76848200  0.26069600  0.96355400  1
  Ca  Ca7  1  0.29714200  0.80492800  0.03644600  1
  Mg  Mg0  1  0.16716000  0.30706100  0.86756400  1
  Mg  Mg1  1  0.43949600  0.29959600  0.13243600  1
  Mg  Mg2  1  0.05706100  0.68949600  0.63990100  1
  Mg  Mg3  1  0.04959600  0.41716000  0.36009900  1
  Mg  Mg4  1  0.58284000  0.94293900  0.63243600  1
  Mg  Mg5  1  0.31050400  0.95040400  0.36756400  1
  Mg  Mg6  1  0.69293900  0.56050400  0.86009900  1
  Mg  Mg7  1  0.70040400  0.83284000  0.13990100  1
  Mg  Mg8  1  0.45231300  0.27432600  0.85600300  1
  Mg  Mg9  1  0.41832300  0.59631000  0.14399700  1
  Mg  Mg10  1  0.02432600  0.66832300  0.32201300  1
  Mg  Mg11  1  0.34631000  0.70231300  0.67798700  1
  Mg  Mg12  1  0.29768700  0.97567400  0.64399700  1
  Mg  Mg13  1  0.33167700  0.65369000  0.35600300  1
  Mg  Mg14  1  0.72567400  0.58167700  0.17798700  1
  Mg  Mg15  1  0.40369000  0.54768700  0.82201300  1
  Mg  Mg16  1  0.90720900  0.09213000  0.12651000  1
  Mg  Mg17  1  0.96562000  0.78069900  0.87349000  1
  Mg  Mg18  1  0.84213000  0.21562000  0.68492000  1
  Mg  Mg19  1  0.53069900  0.15720900  0.31508000  1
  Mg  Mg20  1  0.84279100  0.15787000  0.37349000  1
  Mg  Mg21  1  0.78438000  0.46930100  0.62651000  1
  Mg  Mg22  1  0.90787000  0.03438000  0.81508000  1
  Mg  Mg23  1  0.21930100  0.09279100  0.18492000  1
  Si  Si0  1  0.00093400  0.86013300  0.21906100  1
  Si  Si1  1  0.64107200  0.78187300  0.78093900  1
  Si  Si2  1  0.61013300  0.89107200  0.35919900  1
  Si  Si3  1  0.53187300  0.25093400  0.64080100  1
  Si  Si4  1  0.74906600  0.38986700  0.28093900  1
  Si  Si5  1  0.10892800  0.46812700  0.71906100  1
  Si  Si6  1  0.13986700  0.35892800  0.14080100  1
  Si  Si7  1  0.21812700  0.99906600  0.85919900  1
  N  N0  1  0.24701700  0.13833500  0.80751600  1
  N  N1  1  0.33081900  0.43950200  0.19248400  1
  N  N2  1  0.88833500  0.58081900  0.39131800  1
  N  N3  1  0.18950200  0.49701700  0.60868200  1
  N  N4  1  0.50298300  0.11166500  0.69248400  1
  N  N5  1  0.41918100  0.81049800  0.30751600  1
  N  N6  1  0.86166500  0.66918100  0.10868200  1
  N  N7  1  0.56049800  0.75298300  0.89131800  1
  N  N8  1  0.92678100  0.99702700  0.26788600  1
  N  N9  1  0.72914000  0.65889400  0.73211400  1
  N  N10  1  0.74702700  0.97914000  0.57024600  1
  N  N11  1  0.40889400  0.17678100  0.42975400  1
  N  N12  1  0.82321900  0.25297300  0.23211400  1
  N  N13  1  0.02086000  0.59110600  0.76788600  1
  N  N14  1  0.00297300  0.27086000  0.92975400  1
  N  N15  1  0.34110600  0.07321900  0.07024600  1
  N  N16  1  0.13548500  0.89660400  0.41353400  1
  N  N17  1  0.48307000  0.72195100  0.58646600  1
  N  N18  1  0.64660400  0.73307000  0.26112000  1
  N  N19  1  0.47195100  0.38548500  0.73888000  1
  N  N20  1  0.61451500  0.35339600  0.08646600  1
  N  N21  1  0.26693000  0.52804900  0.91353400  1
  N  N22  1  0.10339600  0.51693000  0.23888000  1
  N  N23  1  0.27804900  0.86451500  0.76112000  1
  N  N24  1  0.00260500  0.26970200  0.62383800  1
  N  N25  1  0.64586500  0.37876700  0.37616200  1
  N  N26  1  0.01970200  0.89586500  0.76709700  1
  N  N27  1  0.12876700  0.25260500  0.23290300  1
  N  N28  1  0.74739500  0.98029800  0.87616200  1
  N  N29  1  0.10413500  0.87123300  0.12383800  1
  N  N30  1  0.73029800  0.35413500  0.73290300  1
  N  N31  1  0.62123300  0.99739500  0.26709700  1
loop_
_geom_bond_atom_site_label_1
_geom_bond_atom_site_label_2
_geom_bond_distance
_geom_bond_site_symmetry_2
Ca0 N19 2.561129 1_555
Ca0 N3 2.585448 1_555
Ca0 N8 2.632055 1_445
Ca0 N27 2.651580 1_555
Ca0 N11 2.693379 1_555
Ca0 N24 2.894428 1_555
Ca1 N18 2.561122 1_555
Ca1 N2 2.585452 1_555
Ca1 N9 2.632065 1_555
Ca1 N26 2.651581 1_655
Ca1 N10 2.693379 1_555
Ca1 N25 2.894429 1_555
Ca2 N16 2.561132 1_655
Ca2 N0 2.585452 1_665
Ca2 N10 2.632055 1_555
Ca2 N24 2.651580 1_665
Ca2 N8 2.693390 1_555
Ca2 N26 2.894421 1_655
Ca3 N17 2.561132 1_555
Ca3 N1 2.585458 1_555
Ca3 N11 2.632055 1_555
Ca3 N25 2.651590 1_555
Ca3 N9 2.693382 1_555
Ca3 N27 2.894428 1_555
Ca4 N23 2.561129 1_544
Ca4 N7 2.585448 1_544
Ca4 N12 2.632055 1_555
Ca4 N31 2.651580 1_545
Ca4 N15 2.693379 1_555
Ca4 N28 2.894428 1_544
Ca5 N22 2.561122 1_556
Ca5 N6 2.585452 1_456
Ca5 N13 2.632065 1_555
Ca5 N30 2.651581 1_455
Ca5 N14 2.693379 1_555
Ca5 N29 2.894429 1_556
Ca6 N20 2.561132 1_556
Ca6 N4 2.585452 1_555
Ca6 N14 2.632055 1_655
Ca6 N28 2.651580 1_545
Ca6 N12 2.693390 1_556
Ca6 N30 2.894421 1_555
Ca7 N21 2.561132 1_554
Ca7 N5 2.585458 1_555
Ca7 N15 2.632055 1_565
Ca7 N29 2.651590 1_555
Ca7 N13 2.693382 1_554
Ca7 N31 2.894428 1_555
Mg0 N0 2.087183 1_555
Mg0 N14 2.115504 1_555
Mg0 N21 2.132320 1_555
Mg0 N24 2.251764 1_555
Mg0 N1 2.659602 1_556
Mg1 N1 2.087182 1_555
Mg1 N15 2.115502 1_555
Mg1 N20 2.132330 1_555
Mg1 N25 2.251774 1_555
Mg1 N0 2.659602 1_554
Mg2 N2 2.087184 1_455
Mg2 N13 2.115486 1_555
Mg2 N23 2.132323 1_555
Mg2 N26 2.251780 1_555
Mg2 N3 2.659602 1_555
Mg3 N3 2.087184 1_555
Mg3 N12 2.115505 1_455
Mg3 N22 2.132330 1_555
Mg3 N27 2.251764 1_555
Mg3 N2 2.659603 1_455
Mg4 N4 2.087183 1_565
Mg4 N10 2.115504 1_555
Mg4 N17 2.132320 1_555
Mg4 N28 2.251764 1_555
Mg4 N5 2.659602 1_555
Mg5 N5 2.087182 1_555
Mg5 N11 2.115502 1_565
Mg5 N16 2.132330 1_555
Mg5 N29 2.251774 1_555
Mg5 N4 2.659602 1_565
Mg6 N6 2.087184 1_556
Mg6 N9 2.115486 1_555
Mg6 N19 2.132323 1_555
Mg6 N30 2.251780 1_555
Mg6 N7 2.659602 1_555
Mg7 N7 2.087184 1_554
Mg7 N8 2.115505 1_555
Mg7 N18 2.132330 1_555
Mg7 N31 2.251764 1_555
Mg7 N6 2.659603 1_555
Mg8 N20 1.992210 1_556
Mg8 N19 2.063163 1_555
Mg8 N0 2.091584 1_555
Mg8 N4 2.211710 1_555
Mg9 N21 1.992210 1_554
Mg9 N18 2.063152 1_555
Mg9 N1 2.091576 1_555
Mg9 N5 2.211702 1_555
Mg10 N22 1.992213 1_555
Mg10 N16 2.063154 1_555
Mg10 N2 2.091584 1_455
Mg10 N6 2.211710 1_455
Mg11 N23 1.992213 1_555
Mg11 N17 2.063154 1_555
Mg11 N3 2.091579 1_555
Mg11 N7 2.211704 1_555
Mg12 N16 1.992210 1_555
Mg12 N23 2.063163 1_555
Mg12 N4 2.091584 1_565
Mg12 N0 2.211710 1_565
Mg13 N17 1.992210 1_555
Mg13 N22 2.063152 1_555
Mg13 N5 2.091576 1_555
Mg13 N1 2.211702 1_555
Mg14 N18 1.992213 1_555
Mg14 N20 2.063154 1_555
Mg14 N6 2.091584 1_555
Mg14 N2 2.211710 1_555
Mg15 N19 1.992213 1_555
Mg15 N21 2.063154 1_555
Mg15 N7 2.091579 1_555
Mg15 N3 2.211704 1_555
Mg16 N28 2.076354 1_544
Mg16 N8 2.080798 1_545
Mg16 N27 2.110012 1_655
Mg16 N12 2.175381 1_555
Mg17 N29 2.076353 1_656
Mg17 N9 2.080808 1_555
Mg17 N26 2.110020 1_655
Mg17 N13 2.175380 1_655
Mg18 N30 2.076348 1_555
Mg18 N10 2.080808 1_545
Mg18 N24 2.110005 1_655
Mg18 N14 2.175385 1_655
Mg19 N31 2.076355 1_545
Mg19 N11 2.080799 1_555
Mg19 N25 2.110019 1_555
Mg19 N15 2.175384 1_555
Mg20 N24 2.076354 1_655
Mg20 N12 2.080798 1_555
Mg20 N31 2.110012 1_545
Mg20 N8 2.175381 1_545
Mg21 N25 2.076353 1_555
Mg21 N13 2.080808 1_655
Mg21 N30 2.110020 1_555
Mg21 N9 2.175380 1_555
Mg22 N26 2.076348 1_645
Mg22 N14 2.080808 1_655
Mg22 N28 2.110005 1_545
Mg22 N10 2.175385 1_545
Mg23 N27 2.076355 1_555
Mg23 N15 2.080799 1_555
Mg23 N29 2.110019 1_545
Mg23 N11 2.175384 1_555
N0 Si7 1.783477 1_545
N1 Si6 1.783479 1_555
N2 Si4 1.783477 1_555
N3 Si5 1.783485 1_555
N4 Si3 1.783477 1_555
N5 Si2 1.783479 1_555
N6 Si0 1.783477 1_655
N7 Si1 1.783485 1_555
N8 Si0 1.762783 1_655
N9 Si1 1.762782 1_555
N10 Si2 1.762784 1_555
N11 Si3 1.762784 1_555
N12 Si4 1.762783 1_555
N13 Si5 1.762782 1_555
N14 Si6 1.762784 1_556
N15 Si7 1.762784 1_544
N16 Si0 1.776966 1_555
N17 Si1 1.776966 1_555
N18 Si2 1.776963 1_555
N19 Si3 1.776962 1_555
N20 Si4 1.776966 1_555
N21 Si5 1.776966 1_555
N22 Si6 1.776963 1_555
N23 Si7 1.776962 1_555
N24 Si5 1.776838 1_555
N25 Si4 1.776829 1_555
N26 Si7 1.776836 1_555
N27 Si6 1.776838 1_555
N28 Si1 1.776838 1_555
N29 Si0 1.776829 1_555
N30 Si3 1.776836 1_555
N31 Si2 1.776838 1_555
