# generated using pymatgen
data_La2CuSn4
_symmetry_space_group_name_H-M   'P 1'
_cell_length_a   4.57146300
_cell_length_b   4.65295500
_cell_length_c   9.19193895
_cell_angle_alpha   75.33898092
_cell_angle_beta   90.00000000
_cell_angle_gamma   90.00000000
_symmetry_Int_Tables_number   1
_chemical_formula_structural   La2CuSn4
_chemical_formula_sum   'La2 Cu1 Sn4'
_cell_volume   189.15390425
_cell_formula_units_Z   1
loop_
 _symmetry_equiv_pos_site_id
 _symmetry_equiv_pos_as_xyz
  1  'x, y, z'
loop_
 _atom_site_type_symbol
 _atom_site_label
 _atom_site_symmetry_multiplicity
 _atom_site_fract_x
 _atom_site_fract_y
 _atom_site_fract_z
 _atom_site_occupancy
  La  La0  1  0.25000000  0.90521700  0.18956500  1
  La  La1  1  0.75000000  0.11083900  0.77832200  1
  Cu  Cu0  1  0.25000000  0.69382500  0.61234900  1
  Sn  Sn0  1  0.25000000  0.26819300  0.46361400  1
  Sn  Sn1  1  0.75000000  0.76830600  0.46338800  1
  Sn  Sn2  1  0.25000000  0.55009700  0.89980600  1
  Sn  Sn3  1  0.75000000  0.44352200  0.11295600  1
loop_
_geom_bond_atom_site_label_1
_geom_bond_atom_site_label_2
_geom_bond_distance
_geom_bond_site_symmetry_2
La0 Sn3 3.331841 1_455
La0 Sn3 3.331841 1_555
La0 Sn3 3.331845 1_565
La0 Sn3 3.331845 1_465
La0 Sn1 3.339739 1_455
La0 Sn1 3.339739 1_555
La0 Sn0 3.369208 1_555
La0 Sn0 3.369211 1_565
La0 Sn2 3.471599 1_554
La0 Sn2 3.471602 1_564
La1 Sn2 3.435716 1_645
La1 Sn2 3.435716 1_545
La1 Sn2 3.435716 1_555
La1 Sn2 3.435716 1_655
La1 Sn0 3.613401 1_555
La1 Sn0 3.613401 1_655
La1 Sn1 3.640858 1_555
La1 Sn1 3.640858 1_545
La1 Sn3 3.777272 1_546
La1 Sn3 3.777272 1_556
Cu0 Sn2 2.556255 1_555
Cu0 Sn1 2.641834 1_455
Cu0 Sn1 2.641834 1_555
Cu0 Sn0 2.676170 1_555
Cu0 Sn0 2.676174 1_565
Cu0 La1 3.579868 1_555
Cu0 La1 3.579868 1_455
Cu0 La1 3.579871 1_565
Cu0 La1 3.579871 1_465
Sn0 Sn1 3.261452 1_455
Sn0 Sn1 3.261452 1_555
Sn0 Sn1 3.261452 1_445
Sn0 Sn1 3.261452 1_545
Sn2 Sn3 2.969406 1_556
Sn2 Sn3 2.969406 1_456
