# generated using pymatgen
data_BaSrNbBiO6
_symmetry_space_group_name_H-M   'P 1'
_cell_length_a   8.60905328
_cell_length_b   8.60994309
_cell_length_c   8.60061776
_cell_angle_alpha   90.00000000
_cell_angle_beta   90.00000000
_cell_angle_gamma   90.00000000
_symmetry_Int_Tables_number   1
_chemical_formula_structural   BaSrNbBiO6
_chemical_formula_sum   'Ba4 Sr4 Nb4 Bi4 O24'
_cell_volume   637.50753618
_cell_formula_units_Z   4
loop_
 _symmetry_equiv_pos_site_id
 _symmetry_equiv_pos_as_xyz
  1  'x, y, z'
loop_
 _atom_site_type_symbol
 _atom_site_label
 _atom_site_symmetry_multiplicity
 _atom_site_fract_x
 _atom_site_fract_y
 _atom_site_fract_z
 _atom_site_occupancy
  Ba  Ba0  1  -0.00000000  0.00000000  0.00000000  1
  Ba  Ba1  1  0.50000000  0.50000000  0.50000000  1
  Ba  Ba2  1  0.50000000  0.00000000  0.50000000  1
  Ba  Ba3  1  0.50000000  0.50000000  0.00000000  1
  Sr  Sr0  1  -0.00000000  0.50000000  0.50000000  1
  Sr  Sr1  1  0.50000000  0.00000000  0.00000000  1
  Sr  Sr2  1  -0.00000000  0.50000000  0.00000000  1
  Sr  Sr3  1  -0.00000000  0.00000000  0.50000000  1
  Nb  Nb0  1  0.24692795  0.24934455  0.24878106  1
  Nb  Nb1  1  0.75307205  0.75065545  0.24878106  1
  Nb  Nb2  1  0.75307205  0.24934455  0.75121894  1
  Nb  Nb3  1  0.24692795  0.75065545  0.75121894  1
  Bi  Bi0  1  0.75604670  0.74956127  0.74903838  1
  Bi  Bi1  1  0.24395330  0.25043873  0.74903838  1
  Bi  Bi2  1  0.24395330  0.74956127  0.25096162  1
  Bi  Bi3  1  0.75604670  0.25043873  0.25096162  1
  O  O0  1  0.01590054  0.20345181  0.28683636  1
  O  O1  1  0.98409946  0.79654819  0.28683636  1
  O  O2  1  0.98409946  0.20345181  0.71316364  1
  O  O3  1  0.01590054  0.79654819  0.71316364  1
  O  O4  1  0.28313431  0.02093913  0.20553855  1
  O  O5  1  0.28313431  0.97906087  0.79446145  1
  O  O6  1  0.71686569  0.97906087  0.20553855  1
  O  O7  1  0.71686569  0.02093913  0.79446145  1
  O  O8  1  0.20427677  0.29010734  0.02317162  1
  O  O9  1  0.79572323  0.29010734  0.97682838  1
  O  O10  1  0.20427677  0.70989266  0.97682838  1
  O  O11  1  0.79572323  0.70989266  0.02317162  1
  O  O12  1  0.47680043  0.28131295  0.22635853  1
  O  O13  1  0.52319957  0.71868705  0.22635853  1
  O  O14  1  0.52319957  0.28131295  0.77364147  1
  O  O15  1  0.47680043  0.71868705  0.77364147  1
  O  O16  1  0.21040059  0.48227910  0.28824119  1
  O  O17  1  0.21040059  0.51772090  0.71175881  1
  O  O18  1  0.78959941  0.51772090  0.28824119  1
  O  O19  1  0.78959941  0.48227910  0.71175881  1
  O  O20  1  0.27526767  0.22182570  0.48412605  1
  O  O21  1  0.72473233  0.22182570  0.51587395  1
  O  O22  1  0.27526767  0.77817430  0.51587395  1
  O  O23  1  0.72473233  0.77817430  0.48412605  1
loop_
_geom_bond_atom_site_label_1
_geom_bond_atom_site_label_2
_geom_bond_distance
_geom_bond_site_symmetry_2
Ba0 O5 3.016450 1_544
Ba0 O7 3.016450 1_454
Ba0 O6 3.016450 1_445
Ba0 O4 3.016450 1_555
Ba0 O3 3.028723 1_544
Ba0 O1 3.028723 1_445
Ba0 O2 3.028723 1_454
Ba0 O0 3.028723 1_555
Ba0 O9 3.061297 1_454
Ba0 O8 3.061297 1_555
Ba0 O11 3.061297 1_445
Ba0 O10 3.061297 1_544
Ba1 O13 3.020602 1_555
Ba1 O12 3.020602 1_555
Ba1 O14 3.020602 1_555
Ba1 O15 3.020602 1_555
Ba1 O22 3.081909 1_555
Ba1 O20 3.081909 1_555
Ba1 O23 3.081909 1_555
Ba1 O21 3.081909 1_555
Ba1 O19 3.091308 1_555
Ba1 O17 3.091308 1_555
Ba1 O16 3.091308 1_555
Ba1 O18 3.091308 1_555
Ba2 O22 2.722053 1_545
Ba2 O20 2.722053 1_555
Ba2 O21 2.722053 1_555
Ba2 O23 2.722053 1_545
Ba2 O7 3.151513 1_555
Ba2 O5 3.151513 1_545
Ba2 O4 3.151513 1_555
Ba2 O6 3.151513 1_545
Ba3 O15 2.715743 1_554
Ba3 O14 2.715743 1_554
Ba3 O13 2.715743 1_555
Ba3 O12 2.715743 1_555
Ba3 O8 3.128442 1_555
Ba3 O9 3.128442 1_554
Ba3 O10 3.128442 1_554
Ba3 O11 3.128442 1_555
Nb0 O8 2.005761 1_555
Nb0 O12 2.007319 1_555
Nb0 O4 2.025543 1_555
Nb0 O20 2.052485 1_555
Nb0 O0 2.054042 1_555
Nb0 O16 2.058230 1_555
Nb1 O11 2.005761 1_555
Nb1 O13 2.007319 1_555
Nb1 O6 2.025543 1_555
Nb1 O23 2.052485 1_555
Nb1 O1 2.054042 1_555
Nb1 O18 2.058230 1_555
Nb2 O9 2.005761 1_555
Nb2 O14 2.007319 1_555
Nb2 O7 2.025543 1_555
Nb2 O21 2.052485 1_555
Nb2 O2 2.054042 1_555
Nb2 O19 2.058230 1_555
Nb3 O10 2.005761 1_555
Nb3 O15 2.007319 1_555
Nb3 O5 2.025543 1_555
Nb3 O22 2.052485 1_555
Nb3 O3 2.054042 1_555
Nb3 O17 2.058230 1_555
Bi0 O3 2.294223 1_655
Bi0 O23 2.307492 1_555
Bi0 O19 2.341399 1_555
Bi0 O7 2.392876 1_565
Bi0 O11 2.406688 1_556
Bi0 O15 2.427936 1_555
Bi1 O2 2.294223 1_455
Bi1 O20 2.307492 1_555
Bi1 O17 2.341399 1_555
Bi1 O5 2.392876 1_545
Bi1 O8 2.406688 1_556
Bi1 O14 2.427936 1_555
Bi2 O1 2.294223 1_455
Bi2 O22 2.307492 1_555
Bi2 O16 2.341399 1_555
Bi2 O4 2.392876 1_565
Bi2 O10 2.406688 1_554
Bi2 O13 2.427936 1_555
Bi3 O0 2.294223 1_655
Bi3 O21 2.307492 1_555
Bi3 O18 2.341399 1_555
Bi3 O6 2.392876 1_545
Bi3 O9 2.406688 1_554
Bi3 O12 2.427936 1_555
O0 Sr3 2.539361 1_555
O1 Sr3 2.539361 1_665
O2 Sr3 2.539361 1_655
O3 Sr3 2.539361 1_565
O4 Sr1 2.577439 1_555
O5 Sr1 2.577439 1_566
O6 Sr1 2.577439 1_565
O7 Sr1 2.577439 1_556
O8 Sr2 2.529493 1_555
O9 Sr2 2.529493 1_656
O10 Sr2 2.529493 1_556
O11 Sr2 2.529493 1_655
O12 Sr1 3.113924 1_555
O13 Sr1 3.113924 1_565
O14 Sr1 3.113924 1_556
O15 Sr1 3.113924 1_566
O16 Sr0 2.573178 1_555
O16 Sr2 3.074080 1_555
O17 Sr0 2.573178 1_555
O17 Sr2 3.074080 1_556
O18 Sr0 2.573178 1_655
O18 Sr2 3.074080 1_655
O19 Sr0 2.573178 1_655
O19 Sr2 3.074080 1_656
O20 Sr3 3.046688 1_555
O21 Sr3 3.046688 1_655
O22 Sr3 3.046688 1_565
O23 Sr3 3.046688 1_665
