# generated using pymatgen
data_Zr4Te3N2
_symmetry_space_group_name_H-M   'P 1'
_cell_length_a   7.39434500
_cell_length_b   10.41330600
_cell_length_c   10.07543500
_cell_angle_alpha   90.00000000
_cell_angle_beta   90.00000000
_cell_angle_gamma   90.00000000
_symmetry_Int_Tables_number   1
_chemical_formula_structural   Zr4Te3N2
_chemical_formula_sum   'Zr16 Te12 N8'
_cell_volume   775.80423465
_cell_formula_units_Z   4
loop_
 _symmetry_equiv_pos_site_id
 _symmetry_equiv_pos_as_xyz
  1  'x, y, z'
loop_
 _atom_site_type_symbol
 _atom_site_label
 _atom_site_symmetry_multiplicity
 _atom_site_fract_x
 _atom_site_fract_y
 _atom_site_fract_z
 _atom_site_occupancy
  Zr  Zr0  1  0.53868900  0.25000000  0.82453600  1
  Zr  Zr1  1  0.03868900  0.25000000  0.67546400  1
  Zr  Zr2  1  0.46131100  0.75000000  0.17546400  1
  Zr  Zr3  1  0.96131100  0.75000000  0.32453600  1
  Zr  Zr4  1  0.70897900  0.25000000  0.48401300  1
  Zr  Zr5  1  0.20897900  0.25000000  0.01598700  1
  Zr  Zr6  1  0.29102100  0.75000000  0.51598700  1
  Zr  Zr7  1  0.79102100  0.75000000  0.98401300  1
  Zr  Zr8  1  0.59795800  0.42957200  0.11600500  1
  Zr  Zr9  1  0.09795800  0.07042800  0.38399500  1
  Zr  Zr10  1  0.40204200  0.92957200  0.88399500  1
  Zr  Zr11  1  0.90204200  0.57042800  0.61600500  1
  Zr  Zr12  1  0.40204200  0.57042800  0.88399500  1
  Zr  Zr13  1  0.90204200  0.92957200  0.61600500  1
  Zr  Zr14  1  0.59795800  0.07042800  0.11600500  1
  Zr  Zr15  1  0.09795800  0.42957200  0.38399500  1
  Te  Te0  1  0.88481700  0.25000000  0.20409500  1
  Te  Te1  1  0.38481700  0.25000000  0.29590500  1
  Te  Te2  1  0.11518300  0.75000000  0.79590500  1
  Te  Te3  1  0.61518300  0.75000000  0.70409500  1
  Te  Te4  1  0.63545200  0.57648400  0.37444700  1
  Te  Te5  1  0.13545200  0.92351600  0.12555300  1
  Te  Te6  1  0.36454800  0.07648400  0.62555300  1
  Te  Te7  1  0.86454800  0.42351600  0.87444700  1
  Te  Te8  1  0.36454800  0.42351600  0.62555300  1
  Te  Te9  1  0.86454800  0.07648400  0.87444700  1
  Te  Te10  1  0.63545200  0.92351600  0.37444700  1
  Te  Te11  1  0.13545200  0.57648400  0.12555300  1
  N  N0  1  0.59697400  0.61507400  0.03386100  1
  N  N1  1  0.09697400  0.88492600  0.46613900  1
  N  N2  1  0.40302600  0.11507400  0.96613900  1
  N  N3  1  0.90302600  0.38492600  0.53386100  1
  N  N4  1  0.40302600  0.38492600  0.96613900  1
  N  N5  1  0.90302600  0.11507400  0.53386100  1
  N  N6  1  0.59697400  0.88492600  0.03386100  1
  N  N7  1  0.09697400  0.61507400  0.46613900  1
loop_
_geom_bond_atom_site_label_1
_geom_bond_atom_site_label_2
_geom_bond_distance
_geom_bond_site_symmetry_2
Te0 Zr8 2.963717 1_555
Te0 Zr14 2.963717 1_555
Te0 Zr15 3.044007 1_655
Te0 Zr9 3.044007 1_655
Te0 Zr5 3.055731 1_655
Te0 Zr4 3.105576 1_555
Te1 Zr15 2.963717 1_555
Te1 Zr9 2.963717 1_555
Te1 Zr8 3.044007 1_555
Te1 Zr14 3.044007 1_555
Te1 Zr4 3.055731 1_555
Te1 Zr5 3.105576 1_555
Te2 Zr10 2.963717 1_555
Te2 Zr12 2.963717 1_555
Te2 Zr13 3.044007 1_455
Te2 Zr11 3.044007 1_455
Te2 Zr7 3.055731 1_455
Te2 Zr6 3.105576 1_555
Te3 Zr13 2.963717 1_555
Te3 Zr11 2.963717 1_555
Te3 Zr10 3.044007 1_555
Te3 Zr12 3.044007 1_555
Te3 Zr6 3.055731 1_555
Te3 Zr7 3.105576 1_555
Te4 Zr2 2.990359 1_555
Te4 Zr8 3.032763 1_555
Te4 Zr3 3.053431 1_555
Te4 Zr11 3.132607 1_555
Te4 Zr6 3.432914 1_555
Te5 Zr3 2.990359 1_455
Te5 Zr9 3.032763 1_565
Te5 Zr2 3.053431 1_555
Te5 Zr10 3.132607 1_554
Te5 Zr7 3.432914 1_454
Te6 Zr0 2.990359 1_555
Te6 Zr10 3.032763 1_545
Te6 Zr1 3.053431 1_555
Te6 Zr9 3.132607 1_555
Te6 Zr4 3.432914 1_555
Te7 Zr1 2.990359 1_655
Te7 Zr11 3.032763 1_555
Te7 Zr0 3.053431 1_555
Te7 Zr8 3.132607 1_556
Te7 Zr5 3.432914 1_656
Te8 Zr0 2.990359 1_555
Te8 Zr12 3.032763 1_555
Te8 Zr1 3.053431 1_555
Te8 Zr15 3.132607 1_555
Te8 Zr4 3.432914 1_555
Te9 Zr1 2.990359 1_655
Te9 Zr13 3.032763 1_545
Te9 Zr0 3.053431 1_555
Te9 Zr14 3.132607 1_556
Te9 Zr5 3.432914 1_656
Te10 Zr2 2.990359 1_555
Te10 Zr14 3.032763 1_565
Te10 Zr3 3.053431 1_555
Te10 Zr13 3.132607 1_555
Te10 Zr6 3.432914 1_555
Te11 Zr3 2.990359 1_455
Te11 Zr15 3.032763 1_555
Te11 Zr2 3.053431 1_555
Te11 Zr12 3.132607 1_554
Te11 Zr7 3.432914 1_454
N0 Zr7 2.070058 1_554
N0 Zr8 2.101537 1_555
N0 Zr12 2.138634 1_554
N0 Zr2 2.239619 1_555
N1 Zr6 2.070058 1_555
N1 Zr9 2.101537 1_565
N1 Zr13 2.138634 1_455
N1 Zr3 2.239619 1_455
N2 Zr5 2.070058 1_556
N2 Zr10 2.101537 1_545
N2 Zr14 2.138634 1_556
N2 Zr0 2.239619 1_555
N3 Zr4 2.070058 1_555
N3 Zr11 2.101537 1_555
N3 Zr15 2.138634 1_655
N3 Zr1 2.239619 1_655
N4 Zr5 2.070058 1_556
N4 Zr12 2.101537 1_555
N4 Zr8 2.138634 1_556
N4 Zr0 2.239619 1_555
N5 Zr4 2.070058 1_555
N5 Zr13 2.101537 1_545
N5 Zr9 2.138634 1_655
N5 Zr1 2.239619 1_655
N6 Zr7 2.070058 1_554
N6 Zr14 2.101537 1_565
N6 Zr10 2.138634 1_554
N6 Zr2 2.239619 1_555
N7 Zr6 2.070058 1_555
N7 Zr15 2.101537 1_555
N7 Zr11 2.138634 1_455
N7 Zr3 2.239619 1_455
