# generated using pymatgen
data_LiYb3
_symmetry_space_group_name_H-M   'P 1'
_cell_length_a   6.77287683
_cell_length_b   6.77287683
_cell_length_c   5.62006825
_cell_angle_alpha   90.00000000
_cell_angle_beta   90.00000000
_cell_angle_gamma   119.99999513
_symmetry_Int_Tables_number   1
_chemical_formula_structural   LiYb3
_chemical_formula_sum   'Li2 Yb6'
_cell_volume   223.26394643
_cell_formula_units_Z   2
loop_
 _symmetry_equiv_pos_site_id
 _symmetry_equiv_pos_as_xyz
  1  'x, y, z'
loop_
 _atom_site_type_symbol
 _atom_site_label
 _atom_site_symmetry_multiplicity
 _atom_site_fract_x
 _atom_site_fract_y
 _atom_site_fract_z
 _atom_site_occupancy
  Li  Li0  1  0.33333300  0.66666700  0.75000000  1
  Li  Li1  1  0.66666700  0.33333300  0.25000000  1
  Yb  Yb0  1  0.83203643  0.16796357  0.75000000  1
  Yb  Yb1  1  0.33592615  0.16796357  0.75000000  1
  Yb  Yb2  1  0.83203643  0.66407385  0.75000000  1
  Yb  Yb3  1  0.16796357  0.83203643  0.25000000  1
  Yb  Yb4  1  0.66407385  0.83203643  0.25000000  1
  Yb  Yb5  1  0.16796357  0.33592615  0.25000000  1
loop_
_geom_bond_atom_site_label_1
_geom_bond_atom_site_label_2
_geom_bond_distance
_geom_bond_site_symmetry_2
Li0 Yb2 3.386473 1_555
Li0 Yb1 3.386473 1_555
Li0 Yb1 3.386473 1_565
Li0 Yb2 3.386473 1_455
Li0 Yb0 3.386473 1_455
Li0 Yb0 3.386473 1_565
Li0 Yb3 3.414626 1_556
Li0 Yb3 3.414626 1_555
Li0 Yb4 3.414633 1_555
Li0 Yb4 3.414633 1_556
Li0 Yb5 3.414633 1_555
Li0 Yb5 3.414633 1_556
Li1 Yb4 3.386473 1_555
Li1 Yb5 3.386473 1_555
Li1 Yb5 3.386473 1_655
Li1 Yb4 3.386473 1_545
Li1 Yb3 3.386473 1_545
Li1 Yb3 3.386473 1_655
Li1 Yb0 3.414626 1_554
Li1 Yb0 3.414626 1_555
Li1 Yb2 3.414633 1_555
Li1 Yb2 3.414633 1_554
Li1 Yb1 3.414633 1_555
Li1 Yb1 3.414633 1_554
Yb0 Yb2 3.360094 1_555
Yb0 Yb1 3.360094 1_555
Yb0 Yb1 3.412783 1_655
Yb0 Yb2 3.412783 1_545
Yb0 Yb5 3.432007 1_656
Yb0 Yb5 3.432007 1_655
Yb0 Yb4 3.432007 1_545
Yb0 Yb4 3.432007 1_546
Yb1 Yb2 3.360094 1_555
Yb1 Yb2 3.412783 1_445
Yb1 Yb5 3.432000 1_555
Yb1 Yb5 3.432000 1_556
Yb1 Yb3 3.432007 1_545
Yb1 Yb3 3.432007 1_546
Yb2 Yb4 3.432000 1_555
Yb2 Yb4 3.432000 1_556
Yb2 Yb3 3.432007 1_655
Yb2 Yb3 3.432007 1_656
Yb3 Yb4 3.360094 1_555
Yb3 Yb5 3.360094 1_555
Yb3 Yb5 3.412783 1_565
Yb3 Yb4 3.412783 1_455
Yb4 Yb5 3.360094 1_555
Yb4 Yb5 3.412783 1_665
