# generated using pymatgen
data_Fe
_symmetry_space_group_name_H-M   'P 1'
_cell_length_a   8.61790100
_cell_length_b   8.61790100
_cell_length_c   4.57447200
_cell_angle_alpha   90.00000000
_cell_angle_beta   90.00000000
_cell_angle_gamma   90.00000000
_symmetry_Int_Tables_number   1
_chemical_formula_structural   Fe
_chemical_formula_sum   Fe28
_cell_volume   339.73788211
_cell_formula_units_Z   28
loop_
 _symmetry_equiv_pos_site_id
 _symmetry_equiv_pos_as_xyz
  1  'x, y, z'
loop_
 _atom_site_type_symbol
 _atom_site_label
 _atom_site_symmetry_multiplicity
 _atom_site_fract_x
 _atom_site_fract_y
 _atom_site_fract_z
 _atom_site_occupancy
  Fe  Fe0  1  0.90490800  0.09509200  0.50000000  1
  Fe  Fe1  1  0.09509200  0.90490800  0.50000000  1
  Fe  Fe2  1  0.40490800  0.40490800  0.00000000  1
  Fe  Fe3  1  0.59509200  0.59509200  0.00000000  1
  Fe  Fe4  1  0.98090700  0.36675700  0.50000000  1
  Fe  Fe5  1  0.01909300  0.63324300  0.50000000  1
  Fe  Fe6  1  0.48090700  0.13324300  0.00000000  1
  Fe  Fe7  1  0.51909300  0.86675700  0.00000000  1
  Fe  Fe8  1  0.36675700  0.98090700  0.50000000  1
  Fe  Fe9  1  0.63324300  0.01909300  0.50000000  1
  Fe  Fe10  1  0.13324300  0.48090700  0.00000000  1
  Fe  Fe11  1  0.86675700  0.51909300  0.00000000  1
  Fe  Fe12  1  0.27073600  0.46857800  0.50000000  1
  Fe  Fe13  1  0.72926400  0.53142200  0.50000000  1
  Fe  Fe14  1  0.77073600  0.03142200  0.00000000  1
  Fe  Fe15  1  0.22926400  0.96857800  0.00000000  1
  Fe  Fe16  1  0.46857800  0.27073600  0.50000000  1
  Fe  Fe17  1  0.53142200  0.72926400  0.50000000  1
  Fe  Fe18  1  0.03142200  0.77073600  0.00000000  1
  Fe  Fe19  1  0.96857800  0.22926400  0.00000000  1
  Fe  Fe20  1  0.71538800  0.28461200  0.24561600  1
  Fe  Fe21  1  0.28461200  0.71538800  0.24561600  1
  Fe  Fe22  1  0.21538800  0.21538800  0.74561600  1
  Fe  Fe23  1  0.78461200  0.78461200  0.74561600  1
  Fe  Fe24  1  0.28461200  0.71538800  0.75438400  1
  Fe  Fe25  1  0.71538800  0.28461200  0.75438400  1
  Fe  Fe26  1  0.78461200  0.78461200  0.25438400  1
  Fe  Fe27  1  0.21538800  0.21538800  0.25438400  1
loop_
_geom_bond_atom_site_label_1
_geom_bond_atom_site_label_2
_geom_bond_distance
_geom_bond_site_symmetry_2
Fe0 Fe1 2.317877 1_645
Fe0 Fe4 2.431069 1_555
Fe0 Fe9 2.431069 1_555
Fe0 Fe25 2.586357 1_555
Fe0 Fe20 2.586357 1_555
Fe0 Fe19 2.620975 1_555
Fe0 Fe19 2.620975 1_556
Fe0 Fe14 2.620975 1_556
Fe0 Fe14 2.620975 1_555
Fe1 Fe8 2.431069 1_555
Fe1 Fe5 2.431069 1_555
Fe1 Fe21 2.586357 1_555
Fe1 Fe24 2.586357 1_555
Fe1 Fe15 2.620975 1_555
Fe1 Fe15 2.620975 1_556
Fe1 Fe18 2.620975 1_556
Fe1 Fe18 2.620975 1_555
Fe2 Fe3 2.317877 1_555
Fe2 Fe6 2.431069 1_555
Fe2 Fe27 2.586357 1_555
Fe2 Fe22 2.586357 1_554
Fe3 Fe7 2.431069 1_555
Fe4 Fe5 2.320008 1_655
Fe6 Fe7 2.320008 1_545
Fe6 Fe8 2.814723 1_545
Fe6 Fe8 2.814723 1_544
Fe6 Fe9 2.814723 1_554
Fe6 Fe9 2.814723 1_555
Fe7 Fe8 2.814723 1_555
Fe7 Fe9 2.814723 1_564
Fe7 Fe8 2.814723 1_554
Fe7 Fe9 2.814723 1_565
Fe8 Fe9 2.320008 1_565
Fe10 Fe11 2.320008 1_455
Fe10 Fe2 2.431069 1_555
Fe10 Fe12 2.578125 1_555
Fe10 Fe12 2.578125 1_554
Fe10 Fe19 2.591665 1_455
Fe10 Fe18 2.647370 1_555
Fe10 Fe24 2.654701 1_554
Fe10 Fe21 2.654701 1_555
Fe10 Fe27 2.662934 1_555
Fe10 Fe22 2.662934 1_554
Fe10 Fe5 2.814723 1_554
Fe10 Fe4 2.814723 1_454
Fe10 Fe5 2.814723 1_555
Fe10 Fe4 2.814723 1_455
Fe11 Fe3 2.431069 1_555
Fe11 Fe13 2.578125 1_554
Fe11 Fe13 2.578125 1_555
Fe11 Fe18 2.591665 1_655
Fe11 Fe19 2.647370 1_555
Fe11 Fe25 2.654701 1_554
Fe11 Fe20 2.654701 1_555
Fe11 Fe26 2.662934 1_555
Fe11 Fe23 2.662934 1_554
Fe11 Fe4 2.814723 1_554
Fe11 Fe5 2.814723 1_654
Fe11 Fe4 2.814723 1_555
Fe11 Fe5 2.814723 1_655
Fe12 Fe16 2.411210 1_555
Fe12 Fe24 2.427446 1_555
Fe12 Fe21 2.427446 1_555
Fe12 Fe27 2.500177 1_555
Fe12 Fe22 2.500177 1_555
Fe12 Fe5 2.591665 1_555
Fe12 Fe2 2.620975 1_555
Fe12 Fe2 2.620975 1_556
Fe12 Fe4 2.647370 1_455
Fe13 Fe17 2.411210 1_555
Fe13 Fe25 2.427446 1_555
Fe13 Fe20 2.427446 1_555
Fe13 Fe23 2.500177 1_555
Fe13 Fe26 2.500177 1_555
Fe13 Fe4 2.591665 1_555
Fe13 Fe3 2.620975 1_556
Fe13 Fe3 2.620975 1_555
Fe13 Fe5 2.647370 1_655
Fe14 Fe19 2.411210 1_555
Fe14 Fe23 2.427446 1_544
Fe14 Fe26 2.427446 1_545
Fe14 Fe25 2.500177 1_554
Fe14 Fe20 2.500177 1_555
Fe14 Fe9 2.578125 1_554
Fe14 Fe9 2.578125 1_555
Fe14 Fe7 2.591665 1_545
Fe14 Fe6 2.647370 1_555
Fe15 Fe18 2.411210 1_555
Fe15 Fe22 2.427446 1_564
Fe15 Fe27 2.427446 1_565
Fe15 Fe24 2.500177 1_554
Fe15 Fe21 2.500177 1_555
Fe15 Fe8 2.578125 1_555
Fe15 Fe8 2.578125 1_554
Fe15 Fe6 2.591665 1_565
Fe15 Fe7 2.647370 1_555
Fe16 Fe20 2.427446 1_555
Fe16 Fe25 2.427446 1_555
Fe16 Fe27 2.500177 1_555
Fe16 Fe22 2.500177 1_555
Fe16 Fe6 2.578125 1_555
Fe16 Fe6 2.578125 1_556
Fe16 Fe9 2.591665 1_555
Fe16 Fe2 2.620975 1_555
Fe16 Fe2 2.620975 1_556
Fe16 Fe8 2.647370 1_545
Fe17 Fe21 2.427446 1_555
Fe17 Fe24 2.427446 1_555
Fe17 Fe23 2.500177 1_555
Fe17 Fe26 2.500177 1_555
Fe17 Fe7 2.578125 1_556
Fe17 Fe7 2.578125 1_555
Fe17 Fe8 2.591665 1_555
Fe17 Fe3 2.620975 1_556
Fe17 Fe3 2.620975 1_555
Fe17 Fe9 2.647370 1_565
Fe18 Fe26 2.427446 1_455
Fe18 Fe23 2.427446 1_454
Fe18 Fe24 2.500177 1_554
Fe18 Fe21 2.500177 1_555
Fe18 Fe5 2.578125 1_554
Fe18 Fe5 2.578125 1_555
Fe19 Fe27 2.427446 1_655
Fe19 Fe22 2.427446 1_654
Fe19 Fe25 2.500177 1_554
Fe19 Fe20 2.500177 1_555
Fe19 Fe4 2.578125 1_554
Fe19 Fe4 2.578125 1_555
Fe20 Fe25 2.247127 1_554
Fe20 Fe25 2.327345 1_555
Fe20 Fe6 2.654701 1_555
Fe20 Fe4 2.662934 1_555
Fe20 Fe9 2.662934 1_555
Fe21 Fe24 2.247127 1_554
Fe21 Fe24 2.327345 1_555
Fe21 Fe7 2.654701 1_555
Fe21 Fe8 2.662934 1_555
Fe21 Fe5 2.662934 1_555
Fe22 Fe27 2.247127 1_555
Fe22 Fe27 2.327345 1_556
Fe22 Fe4 2.654701 1_455
Fe22 Fe8 2.654701 1_545
Fe22 Fe6 2.662934 1_556
Fe23 Fe26 2.247127 1_555
Fe23 Fe26 2.327345 1_556
Fe23 Fe3 2.586357 1_556
Fe23 Fe9 2.654701 1_565
Fe23 Fe5 2.654701 1_655
Fe23 Fe7 2.662934 1_556
Fe24 Fe7 2.654701 1_556
Fe24 Fe8 2.662934 1_555
Fe24 Fe5 2.662934 1_555
Fe25 Fe6 2.654701 1_556
Fe25 Fe4 2.662934 1_555
Fe25 Fe9 2.662934 1_555
Fe26 Fe3 2.586357 1_555
Fe26 Fe5 2.654701 1_655
Fe26 Fe9 2.654701 1_565
Fe26 Fe7 2.662934 1_555
Fe27 Fe8 2.654701 1_545
Fe27 Fe4 2.654701 1_455
Fe27 Fe6 2.662934 1_555
