# generated using pymatgen
data_Er5B2(O2F3)3
_symmetry_space_group_name_H-M   'P 1'
_cell_length_a   10.67922802
_cell_length_b   10.67922802
_cell_length_c   8.26824874
_cell_angle_alpha   80.31176975
_cell_angle_beta   80.31176975
_cell_angle_gamma   33.10334613
_symmetry_Int_Tables_number   1
_chemical_formula_structural   Er5B2(O2F3)3
_chemical_formula_sum   'Er10 B4 O12 F18'
_cell_volume   506.99969099
_cell_formula_units_Z   2
loop_
 _symmetry_equiv_pos_site_id
 _symmetry_equiv_pos_as_xyz
  1  'x, y, z'
loop_
 _atom_site_type_symbol
 _atom_site_label
 _atom_site_symmetry_multiplicity
 _atom_site_fract_x
 _atom_site_fract_y
 _atom_site_fract_z
 _atom_site_occupancy
  Er  Er0  1  0.81419900  0.57363900  0.18022400  1
  Er  Er1  1  0.42636100  0.18580100  0.31977600  1
  Er  Er2  1  0.18580100  0.42636100  0.81977600  1
  Er  Er3  1  0.57363900  0.81419900  0.68022400  1
  Er  Er4  1  0.99909300  0.22009900  0.59374100  1
  Er  Er5  1  0.77990100  0.00090700  0.90625900  1
  Er  Er6  1  0.00090700  0.77990100  0.40625900  1
  Er  Er7  1  0.22009900  0.99909300  0.09374100  1
  Er  Er8  1  0.61185500  0.38814500  0.25000000  1
  Er  Er9  1  0.38814500  0.61185500  0.75000000  1
  B  B0  1  0.51578800  0.70682300  0.43699400  1
  B  B1  1  0.29317700  0.48421200  0.06300600  1
  B  B2  1  0.48421200  0.29317700  0.56300600  1
  B  B3  1  0.70682300  0.51578800  0.93699400  1
  O  O0  1  0.35219900  0.83046500  0.56510200  1
  O  O1  1  0.16953500  0.64780100  0.93489800  1
  O  O2  1  0.64780100  0.16953500  0.43489800  1
  O  O3  1  0.83046500  0.35219900  0.06510200  1
  O  O4  1  0.72020700  0.59760800  0.46072300  1
  O  O5  1  0.40239200  0.27979300  0.03927700  1
  O  O6  1  0.27979300  0.40239200  0.53927700  1
  O  O7  1  0.59760800  0.72020700  0.96072300  1
  O  O8  1  0.69600300  0.48936200  0.78372600  1
  O  O9  1  0.51063800  0.30399700  0.71627400  1
  O  O10  1  0.30399700  0.51063800  0.21627400  1
  O  O11  1  0.48936200  0.69600300  0.28372600  1
  F  F0  1  0.13555900  0.28593900  0.01970200  1
  F  F1  1  0.71406100  0.86444100  0.48029800  1
  F  F2  1  0.86444100  0.71406100  0.98029800  1
  F  F3  1  0.28593900  0.13555900  0.51970200  1
  F  F4  1  0.20626000  0.05696700  0.81437000  1
  F  F5  1  0.94303300  0.79374000  0.68563000  1
  F  F6  1  0.79374000  0.94303300  0.18563000  1
  F  F7  1  0.05696700  0.20626000  0.31437000  1
  F  F8  1  0.98572100  0.01427900  0.25000000  1
  F  F9  1  0.01427900  0.98572100  0.75000000  1
  F  F10  1  0.50453200  0.94569900  0.21469300  1
  F  F11  1  0.05430100  0.49546800  0.28530700  1
  F  F12  1  0.49546800  0.05430100  0.78530700  1
  F  F13  1  0.94569900  0.50453200  0.71469300  1
  F  F14  1  0.71579400  0.34682600  0.51320300  1
  F  F15  1  0.65317400  0.28420600  0.98679700  1
  F  F16  1  0.28420600  0.65317400  0.48679700  1
  F  F17  1  0.34682600  0.71579400  0.01320300  1
loop_
_geom_bond_atom_site_label_1
_geom_bond_atom_site_label_2
_geom_bond_distance
_geom_bond_site_symmetry_2
Er0 F10 2.203320 1_555
Er0 F11 2.223950 1_655
Er0 F0 2.270044 1_655
Er0 O4 2.331894 1_555
Er0 F2 2.341874 1_554
Er0 O7 2.342025 1_554
Er0 F7 2.409620 1_655
Er0 O11 2.501296 1_555
Er0 O3 2.557786 1_555
Er1 F11 2.203320 1_555
Er1 F10 2.223950 1_545
Er1 F1 2.270044 1_545
Er1 O5 2.331894 1_555
Er1 F3 2.341874 1_555
Er1 O6 2.342025 1_555
Er1 F6 2.409620 1_545
Er1 O10 2.501296 1_555
Er1 O2 2.557786 1_555
Er2 F12 2.203320 1_555
Er2 F13 2.223950 1_455
Er2 F2 2.270044 1_455
Er2 O6 2.331894 1_555
Er2 F0 2.341874 1_556
Er2 O5 2.342025 1_556
Er2 F5 2.409620 1_455
Er2 O9 2.501296 1_555
Er2 O1 2.557786 1_555
Er3 F13 2.203320 1_555
Er3 F12 2.223950 1_565
Er3 F3 2.270044 1_565
Er3 O7 2.331894 1_555
Er3 F1 2.341874 1_555
Er3 O4 2.342025 1_555
Er3 F4 2.409620 1_565
Er3 O8 2.501296 1_555
Er3 O0 2.557786 1_555
Er4 F14 2.223322 1_555
Er4 F4 2.255843 1_655
Er4 F7 2.284922 1_655
Er4 O0 2.309316 1_645
Er4 O8 2.329910 1_555
Er4 F3 2.344150 1_655
Er4 O4 2.413875 1_555
Er4 F9 2.502491 1_645
Er5 F15 2.223322 1_555
Er5 F5 2.255843 1_545
Er5 F6 2.284922 1_546
Er5 O1 2.309316 1_645
Er5 O9 2.329910 1_555
Er5 F2 2.344150 1_545
Er5 O5 2.413875 1_556
Er5 F9 2.502491 1_645
Er6 F16 2.223322 1_555
Er6 F6 2.255843 1_455
Er6 F5 2.284922 1_455
Er6 O2 2.309316 1_465
Er6 O10 2.329910 1_555
Er6 F1 2.344150 1_455
Er6 O6 2.413875 1_555
Er6 F8 2.502491 1_465
Er7 F17 2.223322 1_555
Er7 F7 2.255843 1_565
Er7 F4 2.284922 1_564
Er7 O3 2.309316 1_465
Er7 O11 2.329910 1_555
Er7 F0 2.344150 1_565
Er7 O7 2.413875 1_554
Er7 F8 2.502491 1_465
Er8 F8 2.274824 1_555
Er8 O2 2.330159 1_555
Er8 O3 2.330159 1_555
Er8 O10 2.361846 1_555
Er8 O11 2.361846 1_555
Er8 F14 2.414952 1_555
Er8 F15 2.414952 1_554
Er8 F16 2.656082 1_555
Er8 F17 2.656082 1_555
Er9 F9 2.274824 1_555
Er9 O1 2.330159 1_555
Er9 O0 2.330159 1_555
Er9 O8 2.361846 1_555
Er9 O9 2.361846 1_555
Er9 F16 2.414952 1_555
Er9 F17 2.414952 1_556
Er9 F15 2.656082 1_555
Er9 F14 2.656082 1_555
B0 O0 1.378658 1_555
B0 O11 1.386803 1_555
B0 O4 1.402094 1_555
B1 O1 1.378658 1_554
B1 O10 1.386803 1_555
B1 O5 1.402094 1_555
B2 O2 1.378658 1_555
B2 O9 1.386803 1_555
B2 O6 1.402094 1_555
B3 O3 1.378658 1_556
B3 O8 1.386803 1_555
B3 O7 1.402094 1_555
