# generated using pymatgen
data_Mn12SiP3
_symmetry_space_group_name_H-M   'P 1'
_cell_length_a   4.48261878
_cell_length_b   6.71203802
_cell_length_c   6.77361234
_cell_angle_alpha   96.60742604
_cell_angle_beta   109.61311689
_cell_angle_gamma   70.28532806
_symmetry_Int_Tables_number   1
_chemical_formula_structural   Mn12SiP3
_chemical_formula_sum   'Mn12 Si1 P3'
_cell_volume   180.72344631
_cell_formula_units_Z   1
loop_
 _symmetry_equiv_pos_site_id
 _symmetry_equiv_pos_as_xyz
  1  'x, y, z'
loop_
 _atom_site_type_symbol
 _atom_site_label
 _atom_site_symmetry_multiplicity
 _atom_site_fract_x
 _atom_site_fract_y
 _atom_site_fract_z
 _atom_site_occupancy
  Mn  Mn0  1  0.65363000  0.38248000  0.67682800  1
  Mn  Mn1  1  0.37502400  0.61704400  0.32532800  1
  Mn  Mn2  1  0.01468400  0.32196100  0.38072000  1
  Mn  Mn3  1  0.95182500  0.68060500  0.61176500  1
  Mn  Mn4  1  0.06982200  0.39183600  0.05137700  1
  Mn  Mn5  1  0.41489600  0.61245600  0.95083100  1
  Mn  Mn6  1  0.97693800  0.95237600  0.39193800  1
  Mn  Mn7  1  0.54220200  0.04387300  0.60466000  1
  Mn  Mn8  1  0.69956000  0.18541300  0.02749900  1
  Mn  Mn9  1  0.85796300  0.81088400  0.97556500  1
  Mn  Mn10  1  0.32770100  0.97765900  0.18450700  1
  Mn  Mn11  1  0.11816900  0.02469900  0.81903200  1
  Si  Si0  1  0.21064900  0.33502400  0.74838900  1
  P  P0  1  0.80554700  0.66234200  0.25188200  1
  P  P1  1  0.53421200  0.25244900  0.33655700  1
  P  P2  1  0.44717800  0.74889900  0.66312200  1
loop_
_geom_bond_atom_site_label_1
_geom_bond_atom_site_label_2
_geom_bond_distance
_geom_bond_site_symmetry_2
Mn0 Si0 2.292895 1_655
Mn0 P2 2.317990 1_555
Mn0 P1 2.320486 1_555
Mn0 Si0 2.321191 1_555
Mn1 P0 2.267063 1_555
Mn1 P1 2.309090 1_555
Mn1 P2 2.313760 1_555
Mn1 P0 2.348415 1_455
Mn2 P1 2.271392 1_455
Mn2 P0 2.307525 1_455
Mn2 P1 2.330921 1_555
Mn2 Si0 2.348340 1_555
Mn3 P2 2.289196 1_555
Mn3 P0 2.302126 1_555
Mn3 P2 2.322308 1_655
Mn3 Si0 2.353801 1_655
Mn4 Si0 2.298522 1_554
Mn4 P1 2.311392 1_555
Mn4 P0 2.367698 1_455
Mn5 P0 2.275549 1_556
Mn5 P2 2.312369 1_555
Mn5 Si0 2.430211 1_555
Mn6 P1 2.261235 1_565
Mn6 P0 2.318343 1_555
Mn6 P2 2.391308 1_655
Mn7 P2 2.262922 1_545
Mn7 Si0 2.355774 1_555
Mn7 P1 2.401403 1_555
Mn8 Si0 2.357183 1_554
Mn8 P1 2.394620 1_555
Mn9 P0 2.331332 1_556
Mn9 P2 2.396004 1_555
Mn10 P1 2.322544 1_565
Mn10 P0 2.404818 1_555
Mn11 P2 2.339019 1_545
Mn11 Si0 2.384210 1_555
