# generated using pymatgen
data_Cr2TeSe
_symmetry_space_group_name_H-M   'P 1'
_cell_length_a   3.96138968
_cell_length_b   3.96138968
_cell_length_c   6.33777500
_cell_angle_alpha   90.00000000
_cell_angle_beta   90.00000000
_cell_angle_gamma   119.99999459
_symmetry_Int_Tables_number   1
_chemical_formula_structural   Cr2TeSe
_chemical_formula_sum   'Cr2 Te1 Se1'
_cell_volume   86.13161753
_cell_formula_units_Z   1
loop_
 _symmetry_equiv_pos_site_id
 _symmetry_equiv_pos_as_xyz
  1  'x, y, z'
loop_
 _atom_site_type_symbol
 _atom_site_label
 _atom_site_symmetry_multiplicity
 _atom_site_fract_x
 _atom_site_fract_y
 _atom_site_fract_z
 _atom_site_occupancy
  Cr  Cr0  1  0.66666700  0.33333300  0.23774600  1
  Cr  Cr1  1  0.66666700  0.33333300  0.76225400  1
  Te  Te0  1  0.00000000  0.00000000  0.50000000  1
  Se  Se0  1  0.33333300  0.66666700  0.00000000  1
loop_
_geom_bond_atom_site_label_1
_geom_bond_atom_site_label_2
_geom_bond_distance
_geom_bond_site_symmetry_2
Cr0 Se0 2.738841 1_545
Cr0 Se0 2.738841 1_655
Cr0 Se0 2.738846 1_555
Cr0 Te0 2.827270 1_655
Cr0 Te0 2.827273 1_665
Cr0 Te0 2.827273 1_555
Cr1 Se0 2.738841 1_546
Cr1 Se0 2.738841 1_656
Cr1 Se0 2.738846 1_556
Cr1 Te0 2.827270 1_655
Cr1 Te0 2.827273 1_555
Cr1 Te0 2.827273 1_665
