# generated using pymatgen
data_MgTi
_symmetry_space_group_name_H-M   'P 1'
_cell_length_a   4.87638500
_cell_length_b   5.99086100
_cell_length_c   10.58626600
_cell_angle_alpha   90.00000000
_cell_angle_beta   90.00000000
_cell_angle_gamma   90.00000000
_symmetry_Int_Tables_number   1
_chemical_formula_structural   MgTi
_chemical_formula_sum   'Mg8 Ti8'
_cell_volume   309.26447244
_cell_formula_units_Z   8
loop_
 _symmetry_equiv_pos_site_id
 _symmetry_equiv_pos_as_xyz
  1  'x, y, z'
loop_
 _atom_site_type_symbol
 _atom_site_label
 _atom_site_symmetry_multiplicity
 _atom_site_fract_x
 _atom_site_fract_y
 _atom_site_fract_z
 _atom_site_occupancy
  Mg  Mg0  1  0.00000000  0.00000000  0.33809800  1
  Mg  Mg1  1  0.00000000  0.00000000  0.82436100  1
  Mg  Mg2  1  0.00000000  0.75100700  0.08591800  1
  Mg  Mg3  1  0.00000000  0.24899300  0.08591800  1
  Mg  Mg4  1  0.50000000  0.74899300  0.91408200  1
  Mg  Mg5  1  0.50000000  0.50000000  0.17563900  1
  Mg  Mg6  1  0.50000000  0.50000000  0.66190200  1
  Mg  Mg7  1  0.50000000  0.25100700  0.91408200  1
  Ti  Ti0  1  0.00000000  0.74073600  0.57693600  1
  Ti  Ti1  1  0.00000000  0.50000000  0.34530600  1
  Ti  Ti2  1  0.00000000  0.50000000  0.81079600  1
  Ti  Ti3  1  0.00000000  0.25926400  0.57693600  1
  Ti  Ti4  1  0.50000000  0.00000000  0.18920400  1
  Ti  Ti5  1  0.50000000  0.00000000  0.65469400  1
  Ti  Ti6  1  0.50000000  0.75926400  0.42306400  1
  Ti  Ti7  1  0.50000000  0.24073600  0.42306400  1
loop_
_geom_bond_atom_site_label_1
_geom_bond_atom_site_label_2
_geom_bond_distance
_geom_bond_site_symmetry_2
Mg0 Ti4 2.903324 1_555
Mg0 Ti4 2.903324 1_455
Mg0 Ti3 2.967372 1_555
Mg0 Ti0 2.967372 1_545
Mg0 Ti7 2.972174 1_455
Mg0 Ti7 2.972174 1_555
Mg0 Ti6 2.972174 1_545
Mg0 Ti6 2.972174 1_445
Mg0 Ti1 2.996402 1_555
Mg0 Ti1 2.996402 1_545
Mg0 Mg3 3.058123 1_555
Mg0 Mg2 3.058123 1_545
Mg1 Ti2 2.998871 1_545
Mg1 Ti2 2.998871 1_555
Mg1 Mg7 3.017976 1_455
Mg1 Mg7 3.017976 1_555
Mg1 Mg4 3.017976 1_445
Mg1 Mg4 3.017976 1_545
Mg1 Ti5 3.028350 1_455
Mg1 Ti5 3.028350 1_555
Mg1 Ti3 3.045200 1_555
Mg1 Ti0 3.045200 1_545
Mg1 Mg3 3.145153 1_556
Mg1 Mg2 3.145153 1_546
Mg2 Mg3 2.983365 1_565
Mg2 Mg3 3.007496 1_555
Mg2 Mg5 3.017976 1_455
Mg2 Mg5 3.017976 1_555
Mg2 Mg4 3.042048 1_554
Mg2 Mg4 3.042048 1_454
Mg2 Ti4 3.060302 1_565
Mg2 Ti4 3.060302 1_465
Mg2 Ti1 3.130735 1_555
Mg2 Ti2 3.277804 1_554
Mg3 Mg5 3.017976 1_455
Mg3 Mg5 3.017976 1_555
Mg3 Mg7 3.042048 1_554
Mg3 Mg7 3.042048 1_454
Mg3 Ti4 3.060302 1_555
Mg3 Ti4 3.060302 1_455
Mg3 Ti1 3.130735 1_555
Mg3 Ti2 3.277804 1_554
Mg4 Mg7 2.983365 1_555
Mg4 Mg7 3.007496 1_565
Mg4 Mg6 3.058123 1_555
Mg4 Ti2 3.060302 1_555
Mg4 Ti2 3.060302 1_655
Mg4 Ti5 3.130735 1_565
Mg4 Mg5 3.145153 1_556
Mg4 Ti4 3.277804 1_566
Mg5 Ti4 2.998871 1_565
Mg5 Ti4 2.998871 1_555
Mg5 Ti1 3.028350 1_555
Mg5 Ti1 3.028350 1_655
Mg5 Ti6 3.045200 1_555
Mg5 Ti7 3.045200 1_555
Mg5 Mg7 3.145153 1_554
Mg6 Ti2 2.903324 1_555
Mg6 Ti2 2.903324 1_655
Mg6 Ti6 2.967372 1_555
Mg6 Ti7 2.967372 1_555
Mg6 Ti3 2.972174 1_655
Mg6 Ti0 2.972174 1_655
Mg6 Ti3 2.972174 1_555
Mg6 Ti0 2.972174 1_555
Mg6 Ti5 2.996402 1_555
Mg6 Ti5 2.996402 1_565
Mg6 Mg7 3.058123 1_555
Mg7 Ti2 3.060302 1_555
Mg7 Ti2 3.060302 1_655
Mg7 Ti5 3.130735 1_555
Mg7 Ti4 3.277804 1_556
Ti0 Ti1 2.844779 1_555
Ti0 Ti2 2.865152 1_555
Ti0 Ti3 2.884432 1_555
Ti0 Ti6 2.934368 1_455
Ti0 Ti6 2.934368 1_555
Ti0 Ti5 3.005805 1_565
Ti0 Ti5 3.005805 1_465
Ti0 Ti3 3.106429 1_565
Ti1 Ti3 2.844779 1_555
Ti1 Ti6 3.005805 1_455
Ti1 Ti6 3.005805 1_555
Ti1 Ti7 3.005805 1_555
Ti1 Ti7 3.005805 1_455
Ti2 Ti3 2.865152 1_555
Ti3 Ti7 2.934368 1_455
Ti3 Ti7 2.934368 1_555
Ti3 Ti5 3.005805 1_555
Ti3 Ti5 3.005805 1_455
Ti4 Ti7 2.865152 1_555
Ti4 Ti6 2.865152 1_545
Ti5 Ti7 2.844779 1_555
Ti5 Ti6 2.844779 1_545
Ti6 Ti7 2.884432 1_565
Ti6 Ti7 3.106429 1_555
