# generated using pymatgen
data_Mg5Sb
_symmetry_space_group_name_H-M   'P 1'
_cell_length_a   16.55768941
_cell_length_b   16.55768941
_cell_length_c   10.63903000
_cell_angle_alpha   90.00000000
_cell_angle_beta   90.00000000
_cell_angle_gamma   157.31556700
_symmetry_Int_Tables_number   1
_chemical_formula_structural   Mg5Sb
_chemical_formula_sum   'Mg40 Sb8'
_cell_volume   1124.86625861
_cell_formula_units_Z   8
loop_
 _symmetry_equiv_pos_site_id
 _symmetry_equiv_pos_as_xyz
  1  'x, y, z'
loop_
 _atom_site_type_symbol
 _atom_site_label
 _atom_site_symmetry_multiplicity
 _atom_site_fract_x
 _atom_site_fract_y
 _atom_site_fract_z
 _atom_site_occupancy
  Mg  Mg0_0  1  0.00032750  0.49967250  0.25000000  1
  Mg  Mg0_1  1  0.00032750  0.49967250  0.75000000  1
  Mg  Mg0_2  1  0.00032750  0.99967250  0.25000000  1
  Mg  Mg0_3  1  0.00032750  0.99967250  0.75000000  1
  Mg  Mg0_4  1  0.50032750  0.49967250  0.25000000  1
  Mg  Mg0_5  1  0.50032750  0.49967250  0.75000000  1
  Mg  Mg0_6  1  0.50032750  0.99967250  0.25000000  1
  Mg  Mg0_7  1  0.50032750  0.99967250  0.75000000  1
  Mg  Mg1_0  1  0.16663050  0.33336950  0.25000000  1
  Mg  Mg1_1  1  0.16663050  0.33336950  0.75000000  1
  Mg  Mg1_2  1  0.16663050  0.83336950  0.25000000  1
  Mg  Mg1_3  1  0.16663050  0.83336950  0.75000000  1
  Mg  Mg1_4  1  0.66663050  0.33336950  0.25000000  1
  Mg  Mg1_5  1  0.66663050  0.33336950  0.75000000  1
  Mg  Mg1_6  1  0.66663050  0.83336950  0.25000000  1
  Mg  Mg1_7  1  0.66663050  0.83336950  0.75000000  1
  Mg  Mg2_0  1  0.33286850  0.16713150  0.25000000  1
  Mg  Mg2_1  1  0.33286850  0.16713150  0.75000000  1
  Mg  Mg2_2  1  0.33286850  0.66713150  0.25000000  1
  Mg  Mg2_3  1  0.33286850  0.66713150  0.75000000  1
  Mg  Mg2_4  1  0.83286850  0.16713150  0.25000000  1
  Mg  Mg2_5  1  0.83286850  0.16713150  0.75000000  1
  Mg  Mg2_6  1  0.83286850  0.66713150  0.25000000  1
  Mg  Mg2_7  1  0.83286850  0.66713150  0.75000000  1
  Mg  Mg3_0  1  0.05492850  0.44507150  0.00000000  1
  Mg  Mg3_1  1  0.05492850  0.44507150  0.50000000  1
  Mg  Mg3_2  1  0.05492850  0.94507150  0.00000000  1
  Mg  Mg3_3  1  0.05492850  0.94507150  0.50000000  1
  Mg  Mg3_4  1  0.55492850  0.44507150  0.00000000  1
  Mg  Mg3_5  1  0.55492850  0.44507150  0.50000000  1
  Mg  Mg3_6  1  0.55492850  0.94507150  0.00000000  1
  Mg  Mg3_7  1  0.55492850  0.94507150  0.50000000  1
  Mg  Mg4_0  1  0.22337350  0.27662650  0.00000000  1
  Mg  Mg4_1  1  0.22337350  0.27662650  0.50000000  1
  Mg  Mg4_2  1  0.22337350  0.77662650  0.00000000  1
  Mg  Mg4_3  1  0.22337350  0.77662650  0.50000000  1
  Mg  Mg4_4  1  0.72337350  0.27662650  0.00000000  1
  Mg  Mg4_5  1  0.72337350  0.27662650  0.50000000  1
  Mg  Mg4_6  1  0.72337350  0.77662650  0.00000000  1
  Mg  Mg4_7  1  0.72337350  0.77662650  0.50000000  1
  Sb  Sb0_0  1  0.38853800  0.11146200  0.00000000  1
  Sb  Sb0_1  1  0.38853800  0.11146200  0.50000000  1
  Sb  Sb0_2  1  0.38853800  0.61146200  0.00000000  1
  Sb  Sb0_3  1  0.38853800  0.61146200  0.50000000  1
  Sb  Sb0_4  1  0.88853800  0.11146200  0.00000000  1
  Sb  Sb0_5  1  0.88853800  0.11146200  0.50000000  1
  Sb  Sb0_6  1  0.88853800  0.61146200  0.00000000  1
  Sb  Sb0_7  1  0.88853800  0.61146200  0.50000000  1
loop_
_geom_bond_atom_site_label_1
_geom_bond_atom_site_label_2
_geom_bond_distance
_geom_bond_site_symmetry_2
Mg0_0 Mg2_2 3.135820 1_555
Mg0_0 Mg2_4 3.135820 1_455
Mg0_0 Mg1_4 3.167958 1_455
Mg0_0 Mg1_2 3.167958 1_555
Mg0_0 Mg3_0 3.196436 1_555
Mg0_0 Mg3_1 3.196436 1_555
Mg0_0 Mg4_4 3.239014 1_455
Mg0_0 Mg4_3 3.239014 1_555
Mg0_0 Mg4_5 3.239014 1_455
Mg0_0 Mg4_2 3.239014 1_555
Mg0_0 Mg0_6 3.256378 1_445
Mg0_0 Mg0_6 3.256378 1_555
Mg0_1 Mg2_3 3.135820 1_555
Mg0_1 Mg2_5 3.135820 1_455
Mg0_1 Mg1_5 3.167958 1_455
Mg0_1 Mg1_3 3.167958 1_555
Mg0_1 Mg3_0 3.196436 1_556
Mg0_1 Mg3_1 3.196436 1_555
Mg0_1 Mg4_2 3.239014 1_556
Mg0_1 Mg4_4 3.239014 1_456
Mg0_1 Mg4_3 3.239014 1_555
Mg0_1 Mg4_5 3.239014 1_455
Mg0_1 Mg0_7 3.256378 1_445
Mg0_1 Mg0_7 3.256378 1_555
Mg0_2 Mg2_6 3.135820 1_455
Mg0_2 Mg2_0 3.135820 1_565
Mg0_2 Mg1_6 3.167958 1_455
Mg0_2 Mg1_0 3.167958 1_565
Mg0_2 Mg3_3 3.196436 1_555
Mg0_2 Mg3_2 3.196436 1_555
Mg0_2 Mg4_0 3.239014 1_565
Mg0_2 Mg4_1 3.239014 1_565
Mg0_2 Mg4_7 3.239014 1_455
Mg0_2 Mg4_6 3.239014 1_455
Mg0_2 Mg0_4 3.256378 1_455
Mg0_2 Mg0_4 3.256378 1_565
Mg0_3 Mg2_7 3.135820 1_455
Mg0_3 Mg2_1 3.135820 1_565
Mg0_3 Mg1_7 3.167958 1_455
Mg0_3 Mg1_1 3.167958 1_565
Mg0_3 Mg3_2 3.196436 1_556
Mg0_3 Mg3_3 3.196436 1_555
Mg0_3 Mg4_0 3.239014 1_566
Mg0_3 Mg4_6 3.239014 1_456
Mg0_3 Mg4_1 3.239014 1_565
Mg0_3 Mg4_7 3.239014 1_455
Mg0_3 Mg0_5 3.256378 1_455
Mg0_3 Mg0_5 3.256378 1_565
Mg0_4 Mg2_6 3.135820 1_555
Mg0_4 Mg2_0 3.135820 1_555
Mg0_4 Mg1_6 3.167958 1_555
Mg0_4 Mg1_0 3.167958 1_555
Mg0_4 Mg3_4 3.196436 1_555
Mg0_4 Mg3_5 3.196436 1_555
Mg0_4 Mg4_1 3.239014 1_555
Mg0_4 Mg4_7 3.239014 1_555
Mg0_4 Mg4_6 3.239014 1_555
Mg0_4 Mg4_0 3.239014 1_555
Mg0_5 Mg2_7 3.135820 1_555
Mg0_5 Mg2_1 3.135820 1_555
Mg0_5 Mg1_7 3.167958 1_555
Mg0_5 Mg1_1 3.167958 1_555
Mg0_5 Mg3_4 3.196436 1_556
Mg0_5 Mg3_5 3.196436 1_555
Mg0_5 Mg4_0 3.239014 1_556
Mg0_5 Mg4_6 3.239014 1_556
Mg0_5 Mg4_1 3.239014 1_555
Mg0_5 Mg4_7 3.239014 1_555
Mg0_6 Mg2_2 3.135820 1_555
Mg0_6 Mg2_4 3.135820 1_565
Mg0_6 Mg1_4 3.167958 1_565
Mg0_6 Mg1_2 3.167958 1_555
Mg0_6 Mg3_7 3.196436 1_555
Mg0_6 Mg3_6 3.196436 1_555
Mg0_6 Mg4_4 3.239014 1_565
Mg0_6 Mg4_5 3.239014 1_565
Mg0_6 Mg4_3 3.239014 1_555
Mg0_6 Mg4_2 3.239014 1_555
Mg0_7 Mg2_5 3.135820 1_565
Mg0_7 Mg2_3 3.135820 1_555
Mg0_7 Mg1_5 3.167958 1_565
Mg0_7 Mg1_3 3.167958 1_555
Mg0_7 Mg3_6 3.196436 1_556
Mg0_7 Mg3_7 3.196436 1_555
Mg0_7 Mg4_4 3.239014 1_566
Mg0_7 Mg4_2 3.239014 1_556
Mg0_7 Mg4_5 3.239014 1_565
Mg0_7 Mg4_3 3.239014 1_555
Mg1_0 Mg2_4 3.169768 1_455
Mg1_0 Mg2_2 3.169768 1_555
Mg1_0 Mg4_0 3.235526 1_555
Mg1_0 Mg4_1 3.235526 1_555
Mg1_0 Sb0_5 3.249197 1_455
Mg1_0 Sb0_4 3.249197 1_455
Mg1_0 Sb0_2 3.249197 1_555
Mg1_0 Sb0_3 3.249197 1_555
Mg1_0 Mg1_6 3.256378 1_555
Mg1_0 Mg1_6 3.256378 1_445
Mg1_1 Mg2_5 3.169768 1_455
Mg1_1 Mg2_3 3.169768 1_555
Mg1_1 Mg4_0 3.235526 1_556
Mg1_1 Mg4_1 3.235526 1_555
Mg1_1 Sb0_2 3.249197 1_556
Mg1_1 Sb0_4 3.249197 1_456
Mg1_1 Sb0_3 3.249197 1_555
Mg1_1 Sb0_5 3.249197 1_455
Mg1_1 Mg1_7 3.256378 1_445
Mg1_1 Mg1_7 3.256378 1_555
Mg1_2 Mg2_0 3.169768 1_565
Mg1_2 Mg2_6 3.169768 1_455
Mg1_2 Mg4_3 3.235526 1_555
Mg1_2 Mg4_2 3.235526 1_555
Mg1_2 Sb0_0 3.249197 1_565
Mg1_2 Sb0_1 3.249197 1_565
Mg1_2 Sb0_7 3.249197 1_455
Mg1_2 Sb0_6 3.249197 1_455
Mg1_2 Mg1_4 3.256378 1_565
Mg1_2 Mg1_4 3.256378 1_455
Mg1_3 Mg2_1 3.169768 1_565
Mg1_3 Mg2_7 3.169768 1_455
Mg1_3 Mg4_2 3.235526 1_556
Mg1_3 Mg4_3 3.235526 1_555
Mg1_3 Sb0_0 3.249197 1_566
Mg1_3 Sb0_6 3.249197 1_456
Mg1_3 Sb0_1 3.249197 1_565
Mg1_3 Sb0_7 3.249197 1_455
Mg1_3 Mg1_5 3.256378 1_565
Mg1_3 Mg1_5 3.256378 1_455
Mg1_4 Mg2_6 3.169768 1_555
Mg1_4 Mg2_0 3.169768 1_555
Mg1_4 Mg4_4 3.235526 1_555
Mg1_4 Mg4_5 3.235526 1_555
Mg1_4 Sb0_0 3.249197 1_555
Mg1_4 Sb0_1 3.249197 1_555
Mg1_4 Sb0_7 3.249197 1_555
Mg1_4 Sb0_6 3.249197 1_555
Mg1_5 Mg2_1 3.169768 1_555
Mg1_5 Mg2_7 3.169768 1_555
Mg1_5 Mg4_4 3.235526 1_556
Mg1_5 Mg4_5 3.235526 1_555
Mg1_5 Sb0_0 3.249197 1_556
Mg1_5 Sb0_6 3.249197 1_556
Mg1_5 Sb0_7 3.249197 1_555
Mg1_5 Sb0_1 3.249197 1_555
Mg1_6 Mg2_4 3.169768 1_565
Mg1_6 Mg2_2 3.169768 1_555
Mg1_6 Mg4_6 3.235526 1_555
Mg1_6 Mg4_7 3.235526 1_555
Mg1_6 Sb0_4 3.249197 1_565
Mg1_6 Sb0_5 3.249197 1_565
Mg1_6 Sb0_2 3.249197 1_555
Mg1_6 Sb0_3 3.249197 1_555
Mg1_7 Mg2_5 3.169768 1_565
Mg1_7 Mg2_3 3.169768 1_555
Mg1_7 Mg4_6 3.235526 1_556
Mg1_7 Mg4_7 3.235526 1_555
Mg1_7 Sb0_4 3.249197 1_566
Mg1_7 Sb0_2 3.249197 1_556
Mg1_7 Sb0_5 3.249197 1_565
Mg1_7 Sb0_3 3.249197 1_555
Mg2_0 Sb0_0 3.215807 1_555
Mg2_0 Sb0_1 3.215807 1_555
Mg2_0 Mg3_5 3.247811 1_555
Mg2_0 Mg3_4 3.247811 1_555
Mg2_0 Mg3_3 3.247811 1_545
Mg2_0 Mg3_2 3.247811 1_545
Mg2_0 Mg2_6 3.256378 1_555
Mg2_0 Mg2_6 3.256378 1_445
Mg2_1 Sb0_0 3.215807 1_556
Mg2_1 Sb0_1 3.215807 1_555
Mg2_1 Mg3_4 3.247811 1_556
Mg2_1 Mg3_2 3.247811 1_546
Mg2_1 Mg3_5 3.247811 1_555
Mg2_1 Mg3_3 3.247811 1_545
Mg2_1 Mg2_7 3.256378 1_555
Mg2_1 Mg2_7 3.256378 1_445
Mg2_2 Sb0_3 3.215807 1_555
Mg2_2 Sb0_2 3.215807 1_555
Mg2_2 Mg3_0 3.247811 1_555
Mg2_2 Mg3_1 3.247811 1_555
Mg2_2 Mg3_6 3.247811 1_555
Mg2_2 Mg3_7 3.247811 1_555
Mg2_2 Mg2_4 3.256378 1_565
Mg2_2 Mg2_4 3.256378 1_455
Mg2_3 Sb0_2 3.215807 1_556
Mg2_3 Sb0_3 3.215807 1_555
Mg2_3 Mg3_0 3.247811 1_556
Mg2_3 Mg3_6 3.247811 1_556
Mg2_3 Mg3_1 3.247811 1_555
Mg2_3 Mg3_7 3.247811 1_555
Mg2_3 Mg2_5 3.256378 1_565
Mg2_3 Mg2_5 3.256378 1_455
Mg2_4 Sb0_5 3.215807 1_555
Mg2_4 Sb0_4 3.215807 1_555
Mg2_4 Mg3_0 3.247811 1_655
Mg2_4 Mg3_1 3.247811 1_655
Mg2_4 Mg3_7 3.247811 1_545
Mg2_4 Mg3_6 3.247811 1_545
Mg2_5 Sb0_4 3.215807 1_556
Mg2_5 Sb0_5 3.215807 1_555
Mg2_5 Mg3_0 3.247811 1_656
Mg2_5 Mg3_6 3.247811 1_546
Mg2_5 Mg3_1 3.247811 1_655
Mg2_5 Mg3_7 3.247811 1_545
Mg2_6 Sb0_7 3.215807 1_555
Mg2_6 Sb0_6 3.215807 1_555
Mg2_6 Mg3_3 3.247811 1_655
Mg2_6 Mg3_2 3.247811 1_655
Mg2_6 Mg3_5 3.247811 1_555
Mg2_6 Mg3_4 3.247811 1_555
Mg2_7 Sb0_6 3.215807 1_556
Mg2_7 Sb0_7 3.215807 1_555
Mg2_7 Mg3_4 3.247811 1_556
Mg2_7 Mg3_2 3.247811 1_656
Mg2_7 Mg3_5 3.247811 1_555
Mg2_7 Mg3_3 3.247811 1_655
Mg3_0 Mg4_2 3.108504 1_555
Mg3_0 Mg4_4 3.108504 1_455
Mg3_0 Sb0_2 3.165521 1_555
Mg3_0 Sb0_4 3.165521 1_455
Mg3_1 Mg4_3 3.108504 1_555
Mg3_1 Mg4_5 3.108504 1_455
Mg3_1 Sb0_3 3.165521 1_555
Mg3_1 Sb0_5 3.165521 1_455
Mg3_2 Mg4_0 3.108504 1_565
Mg3_2 Mg4_6 3.108504 1_455
Mg3_2 Sb0_6 3.165521 1_455
Mg3_2 Sb0_0 3.165521 1_565
Mg3_3 Mg4_1 3.108504 1_565
Mg3_3 Mg4_7 3.108504 1_455
Mg3_3 Sb0_7 3.165521 1_455
Mg3_3 Sb0_1 3.165521 1_565
Mg3_4 Mg4_0 3.108504 1_555
Mg3_4 Mg4_6 3.108504 1_555
Mg3_4 Sb0_0 3.165521 1_555
Mg3_4 Sb0_6 3.165521 1_555
Mg3_5 Mg4_1 3.108504 1_555
Mg3_5 Mg4_7 3.108504 1_555
Mg3_5 Sb0_1 3.165521 1_555
Mg3_5 Sb0_7 3.165521 1_555
Mg3_6 Mg4_4 3.108504 1_565
Mg3_6 Mg4_2 3.108504 1_555
Mg3_6 Sb0_2 3.165521 1_555
Mg3_6 Sb0_4 3.165521 1_565
Mg3_7 Mg4_5 3.108504 1_565
Mg3_7 Mg4_3 3.108504 1_555
Mg3_7 Sb0_3 3.165521 1_555
Mg3_7 Sb0_5 3.165521 1_565
Mg4_0 Sb0_4 3.199724 1_455
Mg4_0 Sb0_2 3.199724 1_555
Mg4_0 Mg4_6 3.256378 1_555
Mg4_0 Mg4_6 3.256378 1_445
Mg4_1 Sb0_5 3.199724 1_455
Mg4_1 Sb0_3 3.199724 1_555
Mg4_1 Mg4_7 3.256378 1_555
Mg4_1 Mg4_7 3.256378 1_445
Mg4_2 Sb0_0 3.199724 1_565
Mg4_2 Sb0_6 3.199724 1_455
Mg4_2 Mg4_4 3.256378 1_565
Mg4_2 Mg4_4 3.256378 1_455
Mg4_3 Sb0_1 3.199724 1_565
Mg4_3 Sb0_7 3.199724 1_455
Mg4_3 Mg4_5 3.256378 1_565
Mg4_3 Mg4_5 3.256378 1_455
Mg4_4 Sb0_0 3.199724 1_555
Mg4_4 Sb0_6 3.199724 1_555
Mg4_5 Sb0_1 3.199724 1_555
Mg4_5 Sb0_7 3.199724 1_555
Mg4_6 Sb0_4 3.199724 1_565
Mg4_6 Sb0_2 3.199724 1_555
Mg4_7 Sb0_5 3.199724 1_565
Mg4_7 Sb0_3 3.199724 1_555
