# generated using pymatgen
data_NaYIrO4
_symmetry_space_group_name_H-M   'P 1'
_cell_length_a   9.39692387
_cell_length_b   9.39692387
_cell_length_c   3.25717600
_cell_angle_alpha   90.00000000
_cell_angle_beta   90.00000000
_cell_angle_gamma   118.38521788
_symmetry_Int_Tables_number   1
_chemical_formula_structural   NaYIrO4
_chemical_formula_sum   'Na3 Y3 Ir3 O12'
_cell_volume   253.03605616
_cell_formula_units_Z   3
loop_
 _symmetry_equiv_pos_site_id
 _symmetry_equiv_pos_as_xyz
  1  'x, y, z'
loop_
 _atom_site_type_symbol
 _atom_site_label
 _atom_site_symmetry_multiplicity
 _atom_site_fract_x
 _atom_site_fract_y
 _atom_site_fract_z
 _atom_site_occupancy
  Na  Na0  1  0.98152400  0.98152400  0.00000000  1
  Na  Na1  1  0.69821300  0.00012100  0.50000000  1
  Na  Na2  1  0.00012100  0.69821300  0.50000000  1
  Y  Y0  1  0.68546000  0.34177900  0.50000000  1
  Y  Y1  1  0.34177900  0.68546000  0.50000000  1
  Y  Y2  1  0.29855400  0.29855400  0.50000000  1
  Ir  Ir0  1  0.66797700  0.66797700  0.00000000  1
  Ir  Ir1  1  0.32630400  0.00248100  0.00000000  1
  Ir  Ir2  1  0.00248100  0.32630400  0.00000000  1
  O  O0  1  0.53562000  0.78490200  0.00000000  1
  O  O1  1  0.21569600  0.75850900  0.00000000  1
  O  O2  1  0.25612100  0.45074300  0.00000000  1
  O  O3  1  0.78490200  0.53562000  0.00000000  1
  O  O4  1  0.75850900  0.21569600  0.00000000  1
  O  O5  1  0.45074300  0.25612100  0.00000000  1
  O  O6  1  0.53893400  0.53893400  0.50000000  1
  O  O7  1  0.45305100  0.99895800  0.50000000  1
  O  O8  1  0.99895800  0.45305100  0.50000000  1
  O  O9  1  0.79834600  0.79834600  0.50000000  1
  O  O10  1  0.19336400  0.01344300  0.50000000  1
  O  O11  1  0.01344300  0.19336400  0.50000000  1
loop_
_geom_bond_atom_site_label_1
_geom_bond_atom_site_label_2
_geom_bond_distance
_geom_bond_site_symmetry_2
Na0 O9 2.400208 1_555
Na0 O9 2.400208 1_554
Na0 O10 2.477344 1_664
Na0 O10 2.477344 1_665
Na0 O11 2.477344 1_664
Na0 O11 2.477344 1_665
Na1 O7 2.298593 1_545
Na1 O4 2.446561 1_556
Na1 O4 2.446561 1_555
Na1 O0 2.477673 1_546
Na1 O0 2.477673 1_545
Na1 O9 2.485303 1_545
Na1 O11 2.637746 1_655
Na2 O8 2.298593 1_455
Na2 O1 2.446561 1_556
Na2 O1 2.446561 1_555
Na2 O3 2.477673 1_455
Na2 O3 2.477673 1_456
Na2 O9 2.485303 1_455
Na2 O10 2.637746 1_565
Ir0 O0 2.013315 1_555
Ir0 O3 2.013315 1_555
Ir0 O6 2.048186 1_554
Ir0 O6 2.048186 1_555
Ir0 O9 2.055952 1_554
Ir0 O9 2.055952 1_555
Ir1 O1 2.017584 1_545
Ir1 O7 2.027176 1_544
Ir1 O7 2.027176 1_545
Ir1 O10 2.084665 1_555
Ir1 O10 2.084665 1_554
Ir1 O5 2.097192 1_555
Ir2 O4 2.017584 1_455
Ir2 O8 2.027176 1_454
Ir2 O8 2.027176 1_455
Ir2 O11 2.084665 1_554
Ir2 O11 2.084665 1_555
Ir2 O2 2.097192 1_555
O0 Y1 2.285834 1_554
O0 Y1 2.285834 1_555
O1 Y1 2.302280 1_554
O1 Y1 2.302280 1_555
O2 Y2 2.323507 1_555
O2 Y2 2.323507 1_554
O2 Y1 2.544986 1_555
O2 Y1 2.544986 1_554
O3 Y0 2.285834 1_554
O3 Y0 2.285834 1_555
O4 Y0 2.302280 1_555
O4 Y0 2.302280 1_554
O5 Y2 2.323507 1_555
O5 Y2 2.323507 1_554
O5 Y0 2.544986 1_555
O5 Y0 2.544986 1_554
O6 Y2 2.313739 1_555
O6 Y0 2.784517 1_555
O6 Y1 2.784517 1_555
O7 Y1 2.615915 1_555
O7 Y0 2.908282 1_565
O8 Y0 2.615915 1_555
O8 Y1 2.908282 1_655
O10 Y2 2.374246 1_555
O11 Y2 2.374246 1_555
