# generated using pymatgen
data_TaAuN2
_symmetry_space_group_name_H-M   'P 1'
_cell_length_a   6.35094400
_cell_length_b   12.52928400
_cell_length_c   13.58398800
_cell_angle_alpha   90.00000000
_cell_angle_beta   90.00000000
_cell_angle_gamma   90.00000000
_symmetry_Int_Tables_number   1
_chemical_formula_structural   TaAuN2
_chemical_formula_sum   'Ta16 Au16 N32'
_cell_volume   1080.91570283
_cell_formula_units_Z   16
loop_
 _symmetry_equiv_pos_site_id
 _symmetry_equiv_pos_as_xyz
  1  'x, y, z'
loop_
 _atom_site_type_symbol
 _atom_site_label
 _atom_site_symmetry_multiplicity
 _atom_site_fract_x
 _atom_site_fract_y
 _atom_site_fract_z
 _atom_site_occupancy
  Ta  Ta0  1  0.68648000  0.02382900  0.31214400  1
  Ta  Ta1  1  0.18648000  0.47617100  0.68785600  1
  Ta  Ta2  1  0.31352000  0.52382900  0.18785600  1
  Ta  Ta3  1  0.81352000  0.97617100  0.81214400  1
  Ta  Ta4  1  0.31352000  0.97617100  0.68785600  1
  Ta  Ta5  1  0.81352000  0.52382900  0.31214400  1
  Ta  Ta6  1  0.68648000  0.47617100  0.81214400  1
  Ta  Ta7  1  0.18648000  0.02382900  0.18785600  1
  Ta  Ta8  1  0.76509400  0.27863200  0.43730000  1
  Ta  Ta9  1  0.26509400  0.22136800  0.56270000  1
  Ta  Ta10  1  0.23490600  0.77863200  0.06270000  1
  Ta  Ta11  1  0.73490600  0.72136800  0.93730000  1
  Ta  Ta12  1  0.23490600  0.72136800  0.56270000  1
  Ta  Ta13  1  0.73490600  0.77863200  0.43730000  1
  Ta  Ta14  1  0.76509400  0.22136800  0.93730000  1
  Ta  Ta15  1  0.26509400  0.27863200  0.06270000  1
  Au  Au0  1  0.28474700  0.02226300  0.43685900  1
  Au  Au1  1  0.78474700  0.47773700  0.56314100  1
  Au  Au2  1  0.71525300  0.52226300  0.06314100  1
  Au  Au3  1  0.21525300  0.97773700  0.93685900  1
  Au  Au4  1  0.71525300  0.97773700  0.56314100  1
  Au  Au5  1  0.21525300  0.52226300  0.43685900  1
  Au  Au6  1  0.28474700  0.47773700  0.93685900  1
  Au  Au7  1  0.78474700  0.02226300  0.06314100  1
  Au  Au8  1  0.15639400  0.22920300  0.31535700  1
  Au  Au9  1  0.65639400  0.27079700  0.68464300  1
  Au  Au10  1  0.84360600  0.72920300  0.18464300  1
  Au  Au11  1  0.34360600  0.77079700  0.81535700  1
  Au  Au12  1  0.84360600  0.77079700  0.68464300  1
  Au  Au13  1  0.34360600  0.72920300  0.31535700  1
  Au  Au14  1  0.15639400  0.27079700  0.81535700  1
  Au  Au15  1  0.65639400  0.22920300  0.18464300  1
  N  N0  1  0.07297400  0.26731700  0.45994000  1
  N  N1  1  0.57297400  0.23268300  0.54006000  1
  N  N2  1  0.92702600  0.76731700  0.04006000  1
  N  N3  1  0.42702600  0.73268300  0.95994000  1
  N  N4  1  0.92702600  0.73268300  0.54006000  1
  N  N5  1  0.42702600  0.76731700  0.45994000  1
  N  N6  1  0.07297400  0.23268300  0.95994000  1
  N  N7  1  0.57297400  0.26731700  0.04006000  1
  N  N8  1  0.71180100  0.43332500  0.41834000  1
  N  N9  1  0.21180100  0.06667500  0.58166000  1
  N  N10  1  0.28819900  0.93332500  0.08166000  1
  N  N11  1  0.78819900  0.56667500  0.91834000  1
  N  N12  1  0.28819900  0.56667500  0.58166000  1
  N  N13  1  0.78819900  0.93332500  0.41834000  1
  N  N14  1  0.71180100  0.06667500  0.91834000  1
  N  N15  1  0.21180100  0.43332500  0.08166000  1
  N  N16  1  0.69549900  0.18075500  0.33013300  1
  N  N17  1  0.19549900  0.31924500  0.66986700  1
  N  N18  1  0.30450100  0.68075500  0.16986700  1
  N  N19  1  0.80450100  0.81924500  0.83013300  1
  N  N20  1  0.30450100  0.81924500  0.66986700  1
  N  N21  1  0.80450100  0.68075500  0.33013300  1
  N  N22  1  0.69549900  0.31924500  0.83013300  1
  N  N23  1  0.19549900  0.18075500  0.16986700  1
  N  N24  1  0.61607700  0.48889700  0.20666700  1
  N  N25  1  0.11607700  0.01110300  0.79333300  1
  N  N26  1  0.38392300  0.98889700  0.29333300  1
  N  N27  1  0.88392300  0.51110300  0.70666700  1
  N  N28  1  0.38392300  0.51110300  0.79333300  1
  N  N29  1  0.88392300  0.98889700  0.20666700  1
  N  N30  1  0.61607700  0.01110300  0.70666700  1
  N  N31  1  0.11607700  0.48889700  0.29333300  1
loop_
_geom_bond_atom_site_label_1
_geom_bond_atom_site_label_2
_geom_bond_distance
_geom_bond_site_symmetry_2
Au0 N26 2.091088 1_545
Au0 N9 2.096009 1_555
Au1 N27 2.091088 1_555
Au1 N8 2.096009 1_555
Au2 N24 2.091088 1_555
Au2 N11 2.096009 1_554
Au3 N25 2.091088 1_565
Au3 N10 2.096009 1_556
Au4 N30 2.091088 1_565
Au4 N13 2.096009 1_555
Au5 N31 2.091088 1_555
Au5 N12 2.096009 1_555
Au6 N28 2.091088 1_555
Au6 N15 2.096009 1_556
Au7 N29 2.091088 1_545
Au7 N14 2.096009 1_554
Au8 N23 2.082318 1_555
Au8 N0 2.089516 1_555
Au9 N22 2.082318 1_555
Au9 N1 2.089516 1_555
Au10 N21 2.082318 1_555
Au10 N2 2.089516 1_555
Au11 N20 2.082318 1_555
Au11 N3 2.089516 1_555
Au12 N19 2.082318 1_555
Au12 N4 2.089516 1_555
Au13 N18 2.082318 1_555
Au13 N5 2.089516 1_555
Au14 N17 2.082318 1_555
Au14 N6 2.089516 1_555
Au15 N16 2.082318 1_555
Au15 N7 2.089516 1_555
N0 Ta9 1.941314 1_555
N0 Ta8 1.984437 1_455
N1 Ta8 1.941314 1_555
N1 Ta9 1.984437 1_555
N2 Ta11 1.941314 1_554
N2 Ta10 1.984437 1_655
N3 Ta10 1.941314 1_556
N3 Ta11 1.984437 1_555
N4 Ta13 1.941314 1_555
N4 Ta12 1.984437 1_655
N5 Ta12 1.941314 1_555
N5 Ta13 1.984437 1_555
N6 Ta15 1.941314 1_556
N6 Ta14 1.984437 1_455
N7 Ta14 1.941314 1_554
N7 Ta15 1.984437 1_555
N8 Ta5 1.945294 1_555
N8 Ta8 1.984308 1_555
N9 Ta4 1.945294 1_545
N9 Ta9 1.984308 1_555
N10 Ta7 1.945294 1_565
N10 Ta10 1.984308 1_555
N11 Ta6 1.945294 1_555
N11 Ta11 1.984308 1_555
N12 Ta1 1.945294 1_555
N12 Ta12 1.984308 1_555
N13 Ta0 1.945294 1_565
N13 Ta13 1.984308 1_555
N14 Ta3 1.945294 1_545
N14 Ta14 1.984308 1_555
N15 Ta2 1.945294 1_555
N15 Ta15 1.984308 1_555
N16 Ta8 1.954089 1_555
N16 Ta0 1.982125 1_555
N17 Ta9 1.954089 1_555
N17 Ta1 1.982125 1_555
N18 Ta10 1.954089 1_555
N18 Ta2 1.982125 1_555
N19 Ta11 1.954089 1_555
N19 Ta3 1.982125 1_555
N20 Ta12 1.954089 1_555
N20 Ta4 1.982125 1_555
N21 Ta13 1.954089 1_555
N21 Ta5 1.982125 1_555
N22 Ta14 1.954089 1_555
N22 Ta6 1.982125 1_555
N23 Ta15 1.954089 1_555
N23 Ta7 1.982125 1_555
N24 Ta5 1.953678 1_555
N24 Ta2 1.987235 1_555
N25 Ta4 1.953678 1_545
N25 Ta3 1.987235 1_445
N26 Ta7 1.953678 1_565
N26 Ta0 1.987235 1_565
N27 Ta6 1.953678 1_555
N27 Ta1 1.987235 1_655
N28 Ta1 1.953678 1_555
N28 Ta6 1.987235 1_555
N29 Ta0 1.953678 1_565
N29 Ta7 1.987235 1_665
N30 Ta3 1.953678 1_545
N30 Ta4 1.987235 1_545
N31 Ta2 1.953678 1_555
N31 Ta5 1.987235 1_455
