# generated using pymatgen
data_Cr8Fe2CuNiS16
_symmetry_space_group_name_H-M   'P 1'
_cell_length_a   11.92528536
_cell_length_b   11.92528536
_cell_length_c   11.92528570
_cell_angle_alpha   33.52625630
_cell_angle_beta   33.52625630
_cell_angle_gamma   33.52625481
_symmetry_Int_Tables_number   1
_chemical_formula_structural   Cr8Fe2CuNiS16
_chemical_formula_sum   'Cr8 Fe2 Cu1 Ni1 S16'
_cell_volume   460.79437547
_cell_formula_units_Z   1
loop_
 _symmetry_equiv_pos_site_id
 _symmetry_equiv_pos_as_xyz
  1  'x, y, z'
loop_
 _atom_site_type_symbol
 _atom_site_label
 _atom_site_symmetry_multiplicity
 _atom_site_fract_x
 _atom_site_fract_y
 _atom_site_fract_z
 _atom_site_occupancy
  Cr  Cr0  1  0.74981400  0.74981400  0.74981400  1
  Cr  Cr1  1  0.24891000  0.24891000  0.24891000  1
  Cr  Cr2  1  0.49749700  0.00205300  0.00205300  1
  Cr  Cr3  1  0.99740500  0.50106100  0.50106100  1
  Cr  Cr4  1  0.50106100  0.99740500  0.50106100  1
  Cr  Cr5  1  0.00205300  0.49749700  0.00205300  1
  Cr  Cr6  1  0.50106100  0.50106100  0.99740500  1
  Cr  Cr7  1  0.00205300  0.00205300  0.49749700  1
  Fe  Fe0  1  0.43742200  0.43742200  0.43742200  1
  Fe  Fe1  1  0.93751400  0.93751400  0.93751400  1
  Cu  Cu0  1  0.06259400  0.06259400  0.06259400  1
  Ni  Ni0  1  0.56245800  0.56245800  0.56245800  1
  S  S0  1  0.12913100  0.12913100  0.12913100  1
  S  S1  1  0.62730000  0.62730000  0.62730000  1
  S  S2  1  0.39459200  0.86303800  0.86303800  1
  S  S3  1  0.88727900  0.36784300  0.36784400  1
  S  S4  1  0.86303800  0.39459200  0.86303800  1
  S  S5  1  0.36784300  0.88727900  0.36784300  1
  S  S6  1  0.86303800  0.86303800  0.39459200  1
  S  S7  1  0.36784400  0.36784400  0.88727900  1
  S  S8  1  0.37339300  0.37339300  0.37339300  1
  S  S9  1  0.87343000  0.87343000  0.87343000  1
  S  S10  1  0.11737200  0.62993100  0.62993100  1
  S  S11  1  0.61682800  0.12960400  0.12960400  1
  S  S12  1  0.62993100  0.11737200  0.62993100  1
  S  S13  1  0.12960400  0.61682800  0.12960400  1
  S  S14  1  0.62993100  0.62993100  0.11737200  1
  S  S15  1  0.12960400  0.12960400  0.61682800  1
loop_
_geom_bond_atom_site_label_1
_geom_bond_atom_site_label_2
_geom_bond_distance
_geom_bond_site_symmetry_2
Cr0 S4 2.357533 1_555
Cr0 S2 2.357533 1_555
Cr0 S6 2.357533 1_555
Cr0 S12 2.410912 1_565
Cr0 S10 2.410912 1_655
Cr0 S14 2.410913 1_556
Cr1 S7 2.362068 1_554
Cr1 S3 2.362073 1_455
Cr1 S5 2.362078 1_545
Cr1 S11 2.420409 1_555
Cr1 S13 2.420409 1_555
Cr1 S15 2.420409 1_555
Cr2 S0 2.349676 1_555
Cr2 S5 2.370911 1_545
Cr2 S7 2.370925 1_554
Cr2 S9 2.407600 1_544
Cr2 S14 2.416520 1_545
Cr2 S12 2.416520 1_554
Cr3 S6 2.352695 1_555
Cr3 S4 2.352696 1_555
Cr3 S1 2.373862 1_555
Cr3 S15 2.408952 1_655
Cr3 S13 2.408952 1_655
Cr3 S8 2.416959 1_655
Cr4 S6 2.352695 1_555
Cr4 S2 2.352696 1_555
Cr4 S1 2.373862 1_555
Cr4 S15 2.408952 1_565
Cr4 S11 2.408952 1_565
Cr4 S8 2.416959 1_565
Cr5 S0 2.349676 1_555
Cr5 S3 2.370920 1_455
Cr5 S7 2.370925 1_554
Cr5 S9 2.407600 1_454
Cr5 S14 2.416520 1_455
Cr5 S10 2.416520 1_554
Cr6 S4 2.352695 1_555
Cr6 S2 2.352695 1_555
Cr6 S1 2.373862 1_555
Cr6 S11 2.408952 1_556
Cr6 S13 2.408952 1_556
Cr6 S8 2.416959 1_556
Cr7 S0 2.349677 1_555
Cr7 S5 2.370910 1_545
Cr7 S3 2.370915 1_455
Cr7 S9 2.407600 1_445
Cr7 S12 2.416520 1_455
Cr7 S10 2.416520 1_545
Fe0 S8 2.159928 1_555
Fe0 S12 2.162755 1_555
Fe0 S10 2.162755 1_555
Fe0 S14 2.162755 1_555
Fe1 S13 2.158026 1_656
Fe1 S11 2.158026 1_566
Fe1 S15 2.158026 1_665
Fe1 S9 2.161783 1_555
Cu0 S4 2.241913 1_454
Cu0 S2 2.241913 1_544
Cu0 S6 2.241913 1_445
Cu0 S0 2.244532 1_555
Ni0 S7 2.186380 1_555
Ni0 S3 2.186385 1_555
Ni0 S5 2.186391 1_555
Ni0 S1 2.187353 1_555
