# generated using pymatgen
data_TlSnI3
_symmetry_space_group_name_H-M   'P 1'
_cell_length_a   7.89011257
_cell_length_b   7.89011257
_cell_length_c   11.79080057
_cell_angle_alpha   90.00000000
_cell_angle_beta   90.00000000
_cell_angle_gamma   146.02557234
_symmetry_Int_Tables_number   1
_chemical_formula_structural   TlSnI3
_chemical_formula_sum   'Tl2 Sn2 I6'
_cell_volume   410.18883389
_cell_formula_units_Z   2
loop_
 _symmetry_equiv_pos_site_id
 _symmetry_equiv_pos_as_xyz
  1  'x, y, z'
loop_
 _atom_site_type_symbol
 _atom_site_label
 _atom_site_symmetry_multiplicity
 _atom_site_fract_x
 _atom_site_fract_y
 _atom_site_fract_z
 _atom_site_occupancy
  Tl  Tl0  1  0.24843515  0.75156485  0.25000000  1
  Tl  Tl1  1  0.75156485  0.24843515  0.75000000  1
  Sn  Sn0  1  -0.00000000  0.00000000  0.00000000  1
  Sn  Sn1  1  -0.00000000  0.00000000  0.50000000  1
  I  I0  1  0.63958790  0.36041210  0.05707902  1
  I  I1  1  0.36041210  0.63958790  0.94292098  1
  I  I2  1  0.36041210  0.63958790  0.55707902  1
  I  I3  1  0.63958790  0.36041210  0.44292098  1
  I  I4  1  0.92216414  0.07783586  0.25000000  1
  I  I5  1  0.07783586  0.92216414  0.75000000  1
loop_
_geom_bond_atom_site_label_1
_geom_bond_atom_site_label_2
_geom_bond_distance
_geom_bond_site_symmetry_2
I0 Sn0 3.194460 1_555
I0 Sn0 3.194460 1_665
I1 Sn0 3.194460 1_666
I1 Sn0 3.194460 1_556
I2 Sn1 3.194460 1_665
I2 Sn1 3.194460 1_555
I3 Sn1 3.194460 1_555
I3 Sn1 3.194460 1_665
I4 Sn0 3.173138 1_655
I4 Sn1 3.173138 1_655
I4 Tl0 3.491129 1_655
I4 Tl0 3.491129 1_545
I5 Sn0 3.173138 1_566
I5 Sn1 3.173138 1_565
I5 Tl1 3.491129 1_565
I5 Tl1 3.491129 1_455
