# generated using pymatgen
data_Ti3Fe2(BiO3)6
_symmetry_space_group_name_H-M   'P 1'
_cell_length_a   4.00049879
_cell_length_b   4.00049879
_cell_length_c   24.66923968
_cell_angle_alpha   85.68327893
_cell_angle_beta   85.68327893
_cell_angle_gamma   88.28901083
_symmetry_Int_Tables_number   1
_chemical_formula_structural   Ti3Fe2(BiO3)6
_chemical_formula_sum   'Ti3 Fe2 Bi6 O18'
_cell_volume   392.45327967
_cell_formula_units_Z   1
loop_
 _symmetry_equiv_pos_site_id
 _symmetry_equiv_pos_as_xyz
  1  'x, y, z'
loop_
 _atom_site_type_symbol
 _atom_site_label
 _atom_site_symmetry_multiplicity
 _atom_site_fract_x
 _atom_site_fract_y
 _atom_site_fract_z
 _atom_site_occupancy
  Ti  Ti0  1  0.43702900  0.43702900  0.16568800  1
  Ti  Ti1  1  0.68193000  0.68193000  0.66427300  1
  Ti  Ti2  1  0.34883400  0.34883400  0.33270500  1
  Fe  Fe0  1  0.50835200  0.50835200  0.00119100  1
  Fe  Fe1  1  0.59424400  0.59424400  0.83437600  1
  Bi  Bi0  1  0.04080900  0.04080900  0.07425200  1
  Bi  Bi1  1  0.13393800  0.13393800  0.90797500  1
  Bi  Bi2  1  0.89070800  0.89070800  0.44545300  1
  Bi  Bi3  1  0.33282500  0.33282500  0.54783200  1
  Bi  Bi4  1  0.95004400  0.95004400  0.25166800  1
  Bi  Bi5  1  0.21386200  0.21386200  0.74384700  1
  O  O0  1  0.62935400  0.14677500  0.67838900  1
  O  O1  1  0.82092600  0.30565100  0.31999700  1
  O  O2  1  0.30565100  0.82092600  0.31999700  1
  O  O3  1  0.14677500  0.62935400  0.67838900  1
  O  O4  1  0.54032200  0.07240700  0.84138000  1
  O  O5  1  0.89199000  0.37620400  0.16655400  1
  O  O6  1  0.37620400  0.89199000  0.16655400  1
  O  O7  1  0.07240700  0.54032200  0.84138000  1
  O  O8  1  0.68379900  0.68379900  0.59267500  1
  O  O9  1  0.27589500  0.27589500  0.40567600  1
  O  O10  1  0.58780200  0.58780200  0.75476600  1
  O  O11  1  0.33471700  0.33471700  0.24474300  1
  O  O12  1  0.30871300  0.81050200  0.49821700  1
  O  O13  1  0.81050200  0.30871300  0.49821700  1
  O  O14  1  0.50725400  0.50725400  0.92050300  1
  O  O15  1  0.41782000  0.41782000  0.08673500  1
  O  O16  1  0.45832100  0.98677300  0.00828300  1
  O  O17  1  0.98677300  0.45832100  0.00828300  1
loop_
_geom_bond_atom_site_label_1
_geom_bond_atom_site_label_2
_geom_bond_distance
_geom_bond_site_symmetry_2
Fe0 O17 1.938048 1_555
Fe0 O16 1.938048 1_555
Fe0 O14 1.991183 1_554
Fe0 O16 2.095037 1_545
Fe0 O17 2.095037 1_455
Fe0 O15 2.119775 1_555
Fe1 O7 1.937793 1_655
Fe1 O4 1.937793 1_565
Fe1 O10 1.968141 1_555
Fe1 O4 2.097970 1_555
Fe1 O7 2.097970 1_555
Fe1 O14 2.130992 1_555
Bi0 O15 2.218115 1_555
Bi0 O16 2.259898 1_545
Bi0 O17 2.259898 1_455
Bi0 O6 2.747307 1_545
Bi0 O5 2.747307 1_455
Bi1 O14 2.197375 1_555
Bi1 O7 2.244433 1_555
Bi1 O4 2.244433 1_555
Bi2 O12 2.196895 1_655
Bi2 O13 2.196895 1_565
Bi2 O9 2.323450 1_665
Bi2 O12 2.596844 1_555
Bi2 O13 2.596844 1_555
Bi3 O12 2.194031 1_555
Bi3 O13 2.194031 1_555
Bi3 O8 2.398328 1_555
Bi3 O12 2.507677 1_545
Bi3 O13 2.507677 1_455
Bi4 O11 2.197220 1_665
Bi4 O2 2.306075 1_655
Bi4 O1 2.306075 1_565
Bi4 O6 2.622989 1_655
Bi4 O5 2.622989 1_565
Bi5 O10 2.191626 1_555
Bi5 O0 2.253214 1_555
Bi5 O3 2.253214 1_555
O0 Ti1 1.920094 1_545
O0 Ti1 2.156973 1_555
O1 Ti2 1.895913 1_555
O1 Ti2 2.172057 1_655
O2 Ti2 1.895913 1_555
O2 Ti2 2.172057 1_565
O3 Ti1 1.920094 1_455
O3 Ti1 2.156973 1_555
O5 Ti0 1.830560 1_555
O5 Ti0 2.199504 1_655
O6 Ti0 1.830560 1_555
O6 Ti0 2.199504 1_565
O8 Ti1 1.765175 1_555
O9 Ti2 1.804917 1_555
O10 Ti1 2.241104 1_555
O11 Ti0 1.976894 1_555
O11 Ti2 2.179948 1_555
O15 Ti0 1.962346 1_555
