# generated using pymatgen
data_LiCoCuF6
_symmetry_space_group_name_H-M   'P 1'
_cell_length_a   4.61332900
_cell_length_b   4.61332900
_cell_length_c   9.46445800
_cell_angle_alpha   90.00000000
_cell_angle_beta   90.00000000
_cell_angle_gamma   90.00000000
_symmetry_Int_Tables_number   1
_chemical_formula_structural   LiCoCuF6
_chemical_formula_sum   'Li2 Co2 Cu2 F12'
_cell_volume   201.43020896
_cell_formula_units_Z   2
loop_
 _symmetry_equiv_pos_site_id
 _symmetry_equiv_pos_as_xyz
  1  'x, y, z'
loop_
 _atom_site_type_symbol
 _atom_site_label
 _atom_site_symmetry_multiplicity
 _atom_site_fract_x
 _atom_site_fract_y
 _atom_site_fract_z
 _atom_site_occupancy
  Li  Li0  1  0.50000000  0.50000000  0.16606500  1
  Li  Li1  1  0.00000000  0.00000000  0.66606500  1
  Co  Co0  1  0.50000000  0.50000000  0.83138000  1
  Co  Co1  1  0.00000000  0.00000000  0.33138000  1
  Cu  Cu0  1  0.50000000  0.50000000  0.49908800  1
  Cu  Cu1  1  0.00000000  0.00000000  0.99908800  1
  F  F0  1  0.19670500  0.80329500  0.17599700  1
  F  F1  1  0.20531600  0.79468400  0.49122000  1
  F  F2  1  0.21398100  0.78601900  0.83451700  1
  F  F3  1  0.80329500  0.19670500  0.17599700  1
  F  F4  1  0.79468400  0.20531600  0.49122000  1
  F  F5  1  0.78601900  0.21398100  0.83451700  1
  F  F6  1  0.29468400  0.29468400  0.99122000  1
  F  F7  1  0.28601900  0.28601900  0.33451700  1
  F  F8  1  0.30329500  0.30329500  0.67599700  1
  F  F9  1  0.71398100  0.71398100  0.33451700  1
  F  F10  1  0.69670500  0.69670500  0.67599700  1
  F  F11  1  0.70531600  0.70531600  0.99122000  1
loop_
_geom_bond_atom_site_label_1
_geom_bond_atom_site_label_2
_geom_bond_distance
_geom_bond_site_symmetry_2
Co0 F5 1.866291 1_555
Co0 F2 1.866291 1_555
Co0 F10 1.951844 1_555
Co0 F8 1.951844 1_555
Co0 F6 2.020619 1_555
Co0 F11 2.020619 1_555
Co1 F9 1.866291 1_445
Co1 F7 1.866291 1_555
Co1 F3 1.951844 1_455
Co1 F0 1.951844 1_545
Co1 F4 2.020619 1_455
Co1 F1 2.020619 1_545
Cu0 F4 1.924029 1_555
Cu0 F1 1.924029 1_555
Cu0 F9 2.091657 1_555
Cu0 F7 2.091657 1_555
Cu0 F10 2.109603 1_555
Cu0 F8 2.109603 1_555
Cu1 F11 1.924029 1_445
Cu1 F6 1.924029 1_555
Cu1 F2 2.091657 1_545
Cu1 F5 2.091657 1_455
Cu1 F3 2.109603 1_456
Cu1 F0 2.109603 1_546
F0 Li0 1.980999 1_555
F1 Li1 2.129025 1_565
F2 Li1 2.119151 1_565
F3 Li0 1.980999 1_555
F4 Li1 2.129025 1_655
F5 Li1 2.119151 1_655
F6 Li0 2.129025 1_556
F7 Li0 2.119151 1_555
F8 Li1 1.980999 1_555
F9 Li0 2.119151 1_555
F10 Li1 1.980999 1_665
F11 Li0 2.129025 1_556
