# generated using pymatgen
data_Ca2MgAl2(SiO4)3
_symmetry_space_group_name_H-M   'P 1'
_cell_length_a   5.35191200
_cell_length_b   6.59067452
_cell_length_c   6.60128021
_cell_angle_alpha   84.25569278
_cell_angle_beta   78.12657898
_cell_angle_gamma   77.44864286
_symmetry_Int_Tables_number   1
_chemical_formula_structural   Ca2MgAl2(SiO4)3
_chemical_formula_sum   'Ca2 Mg1 Al2 Si3 O12'
_cell_volume   222.04357991
_cell_formula_units_Z   1
loop_
 _symmetry_equiv_pos_site_id
 _symmetry_equiv_pos_as_xyz
  1  'x, y, z'
loop_
 _atom_site_type_symbol
 _atom_site_label
 _atom_site_symmetry_multiplicity
 _atom_site_fract_x
 _atom_site_fract_y
 _atom_site_fract_z
 _atom_site_occupancy
  Ca  Ca0  1  0.25409200  0.69225700  0.29755400  1
  Ca  Ca1  1  0.75623600  0.30025800  0.68856000  1
  Mg  Mg0  1  0.74527400  0.90881800  0.09129400  1
  Al  Al0  1  0.27925300  0.18788300  0.38508900  1
  Al  Al1  1  0.24678000  0.09282900  0.91157400  1
  Si  Si0  1  0.22622400  0.61735100  0.80687900  1
  Si  Si1  1  0.72062900  0.80709200  0.62181100  1
  Si  Si2  1  0.78014100  0.38279900  0.19660700  1
  O  O0  1  0.52305600  0.33571700  0.36992400  1
  O  O1  1  0.98968200  0.63482000  0.67158500  1
  O  O2  1  0.49275300  0.66372600  0.63400800  1
  O  O3  1  0.00066300  0.38268800  0.33894200  1
  O  O4  1  0.35121700  0.02560000  0.17623200  1
  O  O5  1  0.14410200  0.80209500  0.96867200  1
  O  O6  1  0.61895100  0.97871600  0.79885500  1
  O  O7  1  0.88335600  0.20004600  0.02614800  1
  O  O8  1  0.17794300  0.10612300  0.64393100  1
  O  O9  1  0.31535500  0.37724800  0.88799000  1
  O  O10  1  0.81106500  0.89134900  0.38844900  1
  O  O11  1  0.68322800  0.61258600  0.09589600  1
loop_
_geom_bond_atom_site_label_1
_geom_bond_atom_site_label_2
_geom_bond_distance
_geom_bond_site_symmetry_2
Ca0 O5 2.368557 1_554
Ca0 O11 2.383338 1_555
Ca0 O4 2.389778 1_565
Ca0 O10 2.433839 1_455
Ca0 O0 2.531831 1_555
Ca0 O1 2.617273 1_455
Ca0 O3 2.648705 1_555
Ca0 O2 2.753033 1_555
Ca1 O8 2.316117 1_655
Ca1 O6 2.389269 1_545
Ca1 O9 2.427596 1_555
Ca1 O7 2.449347 1_556
Ca1 O3 2.479607 1_655
Ca1 O2 2.534698 1_555
Ca1 O0 2.625137 1_555
Ca1 O1 2.743313 1_555
Mg0 O11 2.046628 1_555
Mg0 O10 2.050979 1_555
Mg0 O4 2.061258 1_565
Mg0 O5 2.111038 1_654
Mg0 O6 2.149346 1_554
Mg0 O7 2.176144 1_565
Al0 O8 1.750828 1_555
Al0 O4 1.758067 1_555
Al0 O0 1.772326 1_555
Al0 O3 1.800236 1_555
Al1 O8 1.867556 1_555
Al1 O4 1.923607 1_556
Al1 O7 1.938743 1_456
Al1 O9 1.972260 1_555
Al1 O6 1.984371 1_545
Al1 O5 2.084095 1_545
O0 Si2 1.662857 1_555
O1 Si0 1.671786 1_655
O1 Si1 1.697043 1_555
O2 Si1 1.682808 1_555
O2 Si0 1.697127 1_555
O3 Si2 1.652740 1_455
O5 Si0 1.628179 1_555
O6 Si1 1.636107 1_555
O7 Si2 1.657833 1_555
O9 Si0 1.620423 1_555
O10 Si1 1.598278 1_555
O11 Si2 1.613541 1_555
