# generated using pymatgen
data_KEr2Cl7
_symmetry_space_group_name_H-M   'P 1'
_cell_length_a   12.47610485
_cell_length_b   6.84301272
_cell_length_c   12.81488277
_cell_angle_alpha   89.58386083
_cell_angle_beta   90.00000000
_cell_angle_gamma   90.00000000
_symmetry_Int_Tables_number   1
_chemical_formula_structural   KEr2Cl7
_chemical_formula_sum   'K4 Er8 Cl28'
_cell_volume   1094.03079282
_cell_formula_units_Z   4
loop_
 _symmetry_equiv_pos_site_id
 _symmetry_equiv_pos_as_xyz
  1  'x, y, z'
loop_
 _atom_site_type_symbol
 _atom_site_label
 _atom_site_symmetry_multiplicity
 _atom_site_fract_x
 _atom_site_fract_y
 _atom_site_fract_z
 _atom_site_occupancy
  K  K0  1  0.20267559  0.77630934  0.03749804  1
  K  K1  1  0.79732441  0.22369066  0.96250196  1
  K  K2  1  0.70267559  0.22369066  0.46250196  1
  K  K3  1  0.29732441  0.77630934  0.53749804  1
  Er  Er0  1  0.53758523  0.77160985  0.23798415  1
  Er  Er1  1  0.46241477  0.22839015  0.76201585  1
  Er  Er2  1  0.03758523  0.22839015  0.26201585  1
  Er  Er3  1  0.96241477  0.77160985  0.73798415  1
  Er  Er4  1  0.84013787  0.72679458  0.24833268  1
  Er  Er5  1  0.15986213  0.27320542  0.75166732  1
  Er  Er6  1  0.34013787  0.27320542  0.25166732  1
  Er  Er7  1  0.65986213  0.72679458  0.74833268  1
  Cl  Cl0  1  0.97198552  0.94877731  0.13105956  1
  Cl  Cl1  1  0.02801448  0.05122269  0.86894044  1
  Cl  Cl2  1  0.47198552  0.05122269  0.36894044  1
  Cl  Cl3  1  0.52801448  0.94877731  0.63105956  1
  Cl  Cl4  1  0.68618675  0.74658458  0.39595347  1
  Cl  Cl5  1  0.31381325  0.25341542  0.60404653  1
  Cl  Cl6  1  0.18618675  0.25341542  0.10404653  1
  Cl  Cl7  1  0.81381325  0.74658458  0.89595347  1
  Cl  Cl8  1  0.67917876  0.50951932  0.17377108  1
  Cl  Cl9  1  0.32082124  0.49048068  0.82622892  1
  Cl  Cl10  1  0.17917876  0.49048068  0.32622892  1
  Cl  Cl11  1  0.82082124  0.50951932  0.67377108  1
  Cl  Cl12  1  0.92578796  0.97953904  0.38107707  1
  Cl  Cl13  1  0.07421204  0.02046096  0.61892293  1
  Cl  Cl14  1  0.42578796  0.02046096  0.11892293  1
  Cl  Cl15  1  0.57421204  0.97953904  0.88107707  1
  Cl  Cl16  1  0.94339303  0.46770022  0.12680368  1
  Cl  Cl17  1  0.05660697  0.53229978  0.87319632  1
  Cl  Cl18  1  0.44339303  0.53229978  0.37319632  1
  Cl  Cl19  1  0.55660697  0.46770022  0.62680368  1
  Cl  Cl20  1  0.70203471  0.99547387  0.17397916  1
  Cl  Cl21  1  0.29796529  0.00452613  0.82602084  1
  Cl  Cl22  1  0.20203471  0.00452613  0.32602084  1
  Cl  Cl23  1  0.79796529  0.99547387  0.67397916  1
  Cl  Cl24  1  0.91248877  0.45916257  0.38078512  1
  Cl  Cl25  1  0.08751123  0.54083743  0.61921488  1
  Cl  Cl26  1  0.41248877  0.54083743  0.11921488  1
  Cl  Cl27  1  0.58751123  0.45916257  0.88078512  1
loop_
_geom_bond_atom_site_label_1
_geom_bond_atom_site_label_2
_geom_bond_distance
_geom_bond_site_symmetry_2
Cl0 Er2 2.682138 1_665
Cl0 Er4 2.690478 1_555
Cl0 K0 3.336843 1_655
Cl0 K1 3.590857 1_564
Cl1 Er3 2.682138 1_445
Cl1 Er5 2.690478 1_555
Cl1 K1 3.336843 1_455
Cl1 K0 3.590857 1_546
Cl2 Er0 2.682138 1_545
Cl2 Er6 2.690478 1_555
Cl2 K2 3.336843 1_555
Cl2 K3 3.590857 1_545
Cl3 Er1 2.682138 1_565
Cl3 Er7 2.690478 1_555
Cl3 K3 3.336843 1_555
Cl3 K2 3.590857 1_565
Cl4 Er4 2.699978 1_555
Cl4 Er0 2.749457 1_555
Cl4 K2 3.386628 1_565
Cl4 K2 3.678122 1_555
Cl5 Er5 2.699978 1_555
Cl5 Er1 2.749457 1_555
Cl5 K3 3.386628 1_545
Cl5 K3 3.678122 1_555
Cl6 Er6 2.699978 1_555
Cl6 Er2 2.749457 1_555
Cl6 K0 3.386628 1_545
Cl6 K0 3.678122 1_555
Cl7 Er7 2.699978 1_555
Cl7 Er3 2.749457 1_555
Cl7 K1 3.386628 1_565
Cl7 K1 3.678122 1_555
Cl8 Er0 2.652513 1_555
Cl8 Er4 2.678969 1_555
Cl8 K1 3.661312 1_554
Cl9 Er1 2.652513 1_555
Cl9 Er5 2.678969 1_555
Cl9 K0 3.661312 1_556
Cl10 Er2 2.652513 1_555
Cl10 Er6 2.678969 1_555
Cl10 K3 3.661312 1_555
Cl11 Er3 2.652513 1_555
Cl11 Er7 2.678969 1_555
Cl11 K2 3.661312 1_555
Cl12 Er4 2.658879 1_555
Cl12 Er2 2.671232 1_665
Cl12 K2 3.413757 1_565
Cl13 Er5 2.658879 1_555
Cl13 Er3 2.671232 1_445
Cl13 K3 3.413757 1_545
Cl14 Er6 2.658879 1_555
Cl14 Er0 2.671232 1_545
Cl14 K0 3.413757 1_545
Cl15 Er7 2.658879 1_555
Cl15 Er1 2.671232 1_565
Cl15 K1 3.413757 1_565
Cl16 Er2 2.650255 1_655
Cl16 Er4 2.696022 1_555
Cl16 K1 3.254743 1_554
Cl17 Er3 2.650255 1_455
Cl17 Er5 2.696022 1_555
Cl17 K0 3.254743 1_556
Cl18 Er0 2.650255 1_555
Cl18 Er6 2.696022 1_555
Cl18 K3 3.254743 1_555
Cl19 Er1 2.650255 1_555
Cl19 Er7 2.696022 1_555
Cl19 K2 3.254743 1_555
Cl20 Er0 2.685268 1_555
Cl20 Er4 2.689144 1_555
Cl20 K1 3.336937 1_564
Cl21 Er1 2.685268 1_555
Cl21 Er5 2.689144 1_555
Cl21 K0 3.336937 1_546
Cl22 Er2 2.685268 1_555
Cl22 Er6 2.689144 1_555
Cl22 K3 3.336937 1_545
Cl23 Er3 2.685268 1_555
Cl23 Er7 2.689144 1_555
Cl23 K2 3.336937 1_565
Cl24 Er4 2.646646 1_555
Cl24 Er2 2.698348 1_655
Cl24 K2 3.243548 1_555
Cl25 Er5 2.646646 1_555
Cl25 Er3 2.698348 1_455
Cl25 K3 3.243548 1_555
Cl26 Er6 2.646646 1_555
Cl26 Er0 2.698348 1_555
Cl26 K0 3.243548 1_555
Cl27 Er7 2.646646 1_555
Cl27 Er1 2.698348 1_555
Cl27 K1 3.243548 1_555
