# generated using pymatgen
data_LiFe8(O7F)2
_symmetry_space_group_name_H-M   'P 1'
_cell_length_a   4.71159456
_cell_length_b   4.72698781
_cell_length_c   11.89602693
_cell_angle_alpha   89.92423406
_cell_angle_beta   89.67708322
_cell_angle_gamma   89.70284878
_symmetry_Int_Tables_number   1
_chemical_formula_structural   LiFe8(O7F)2
_chemical_formula_sum   'Li1 Fe8 O14 F2'
_cell_volume   264.93615635
_cell_formula_units_Z   1
loop_
 _symmetry_equiv_pos_site_id
 _symmetry_equiv_pos_as_xyz
  1  'x, y, z'
loop_
 _atom_site_type_symbol
 _atom_site_label
 _atom_site_symmetry_multiplicity
 _atom_site_fract_x
 _atom_site_fract_y
 _atom_site_fract_z
 _atom_site_occupancy
  Li  Li0  1  0.97590000  0.49975800  0.87823000  1
  Fe  Fe0  1  0.00537400  0.99298100  0.01126400  1
  Fe  Fe1  1  0.00042600  0.99123000  0.25387800  1
  Fe  Fe2  1  0.02961300  0.01936700  0.50056000  1
  Fe  Fe3  1  0.00781400  0.99111600  0.74299600  1
  Fe  Fe4  1  0.49962400  0.49152000  0.12663000  1
  Fe  Fe5  1  0.49960800  0.48805000  0.63158500  1
  Fe  Fe6  1  0.47165700  0.53026400  0.87766000  1
  Fe  Fe7  1  0.50140700  0.49088300  0.37173100  1
  O  O0  1  0.19976100  0.80690900  0.13265600  1
  O  O1  1  0.21699800  0.81697500  0.62056500  1
  O  O2  1  0.18610000  0.83518800  0.87849300  1
  O  O3  1  0.20210900  0.81237000  0.37712100  1
  O  O4  1  0.27334200  0.33394800  0.99629900  1
  O  O5  1  0.30627900  0.30207200  0.24910500  1
  O  O6  1  0.32338900  0.31936000  0.49923100  1
  O  O7  1  0.26968200  0.33666500  0.76158900  1
  O  O8  1  0.70277300  0.67033400  0.99701900  1
  O  O9  1  0.69808400  0.67895100  0.25186500  1
  O  O10  1  0.70812800  0.67143900  0.75968400  1
  O  O11  1  0.79907300  0.17643900  0.12979700  1
  O  O12  1  0.81619800  0.18281500  0.37741300  1
  O  O13  1  0.80904700  0.18553900  0.62304900  1
  F  F0  1  0.71497600  0.68840000  0.50130700  1
  F  F1  1  0.76874700  0.17354400  0.87805200  1
loop_
_geom_bond_atom_site_label_1
_geom_bond_atom_site_label_2
_geom_bond_distance
_geom_bond_site_symmetry_2
Li0 O2 1.873829 1_655
Li0 O10 2.060449 1_555
Li0 O8 2.067561 1_555
Li0 O7 2.098988 1_655
Li0 O4 2.135172 1_655
Fe0 O11 1.914206 1_465
Fe0 O0 1.923803 1_555
Fe0 O2 1.938410 1_554
Fe0 O4 2.059438 1_564
Fe0 O8 2.100826 1_454
Fe1 O0 1.923619 1_555
Fe1 O12 1.927233 1_465
Fe1 O3 1.941993 1_555
Fe1 O11 1.961893 1_465
Fe1 O9 2.056960 1_455
Fe1 O5 2.063895 1_565
Fe2 O1 1.932509 1_545
Fe2 O3 1.938127 1_545
Fe2 O12 1.938989 1_455
Fe2 O13 1.948769 1_455
Fe2 O6 1.986728 1_555
Fe3 O1 1.936178 1_555
Fe3 O13 1.939166 1_465
Fe3 O2 1.962838 1_555
Fe3 O7 2.064988 1_565
Fe3 O10 2.082014 1_455
Fe4 O5 1.935099 1_555
Fe4 O9 1.976512 1_555
Fe4 O8 1.999057 1_554
Fe4 O4 2.031057 1_554
Fe4 O11 2.046687 1_555
Fe4 O0 2.049666 1_555
Fe5 O6 1.956815 1_555
Fe5 O7 2.015848 1_555
Fe5 O10 2.016950 1_555
Fe5 O13 2.039075 1_555
Fe5 O1 2.046369 1_555
Fe6 O10 1.908912 1_555
Fe6 O8 1.915111 1_555
Fe6 O7 1.917504 1_555
Fe6 O4 1.927886 1_555
Fe6 O2 1.966622 1_555
Fe7 O6 1.910719 1_555
Fe7 O9 1.916400 1_555
Fe7 O5 1.948553 1_555
Fe7 O3 2.068595 1_555
Fe7 O12 2.074473 1_555
F0 Fe7 2.071553 1_555
F0 Fe5 2.077688 1_555
F0 Fe2 2.160827 1_665
F1 Li0 1.829223 1_555
F1 Fe0 2.118772 1_646
F1 Fe3 2.137012 1_645
F1 Fe6 2.185921 1_555
