# generated using pymatgen
data_CrSbTeO6
_symmetry_space_group_name_H-M   'P 1'
_cell_length_a   6.79642259
_cell_length_b   6.79629884
_cell_length_c   10.80024545
_cell_angle_alpha   71.66195728
_cell_angle_beta   71.66230526
_cell_angle_gamma   89.99958867
_symmetry_Int_Tables_number   1
_chemical_formula_structural   CrSbTeO6
_chemical_formula_sum   'Cr4 Sb4 Te4 O24'
_cell_volume   446.76772520
_cell_formula_units_Z   4
loop_
 _symmetry_equiv_pos_site_id
 _symmetry_equiv_pos_as_xyz
  1  'x, y, z'
loop_
 _atom_site_type_symbol
 _atom_site_label
 _atom_site_symmetry_multiplicity
 _atom_site_fract_x
 _atom_site_fract_y
 _atom_site_fract_z
 _atom_site_occupancy
  Cr  Cr0  1  0.41624200  0.91623900  0.16752200  1
  Cr  Cr1  1  0.16623100  0.16621900  0.66754400  1
  Cr  Cr2  1  0.91622500  0.41623700  0.16754500  1
  Cr  Cr3  1  0.66624600  0.66623700  0.66751500  1
  Sb  Sb0  1  0.08338400  0.58339200  0.83325500  1
  Sb  Sb1  1  0.58338300  0.08339000  0.83325800  1
  Sb  Sb2  1  0.33337800  0.33337600  0.33325500  1
  Sb  Sb3  1  0.83337900  0.83337600  0.33325300  1
  Te  Te0  1  0.25049200  0.75049300  0.49900000  1
  Te  Te1  1  0.75048800  0.25048800  0.49900800  1
  Te  Te2  1  0.00051200  0.00051300  0.99897600  1
  Te  Te3  1  0.50051100  0.50051200  0.99897800  1
  O  O0  1  0.71346400  0.91165000  0.17669700  1
  O  O1  1  0.21349500  0.41165100  0.17669400  1
  O  O2  1  0.10983600  0.91165100  0.17669800  1
  O  O3  1  0.60980700  0.41165400  0.17669500  1
  O  O4  1  0.16165100  0.85984300  0.67669300  1
  O  O5  1  0.66165300  0.35980700  0.67669000  1
  O  O6  1  0.16165200  0.46346600  0.67669600  1
  O  O7  1  0.66165200  0.96350500  0.67669300  1
  O  O8  1  0.56864000  0.75070000  0.49860600  1
  O  O9  1  0.06864100  0.25068700  0.49863200  1
  O  O10  1  0.93275300  0.75069200  0.49860800  1
  O  O11  1  0.43272500  0.25067800  0.49863600  1
  O  O12  1  0.00069400  0.68274900  0.99860500  1
  O  O13  1  0.50068200  0.18272500  0.99862600  1
  O  O14  1  0.00069500  0.31863900  0.99860800  1
  O  O15  1  0.50068300  0.81864600  0.99862900  1
  O  O16  1  0.38721100  0.58759500  0.82480400  1
  O  O17  1  0.88724200  0.08760100  0.82479000  1
  O  O18  1  0.78798400  0.58759600  0.82480300  1
  O  O19  1  0.28796800  0.08760200  0.82479000  1
  O  O20  1  0.33760200  0.03796400  0.32479600  1
  O  O21  1  0.83760000  0.53798300  0.32480200  1
  O  O22  1  0.33760200  0.63723400  0.32479900  1
  O  O23  1  0.83760000  0.13721300  0.32480600  1
loop_
_geom_bond_atom_site_label_1
_geom_bond_atom_site_label_2
_geom_bond_distance
_geom_bond_site_symmetry_2
Cr0 O20 2.041630 1_565
Cr0 O22 2.041708 1_555
Cr0 O15 2.049187 1_554
Cr0 O13 2.049238 1_564
Cr0 O0 2.053141 1_555
Cr0 O2 2.053205 1_555
Cr1 O19 2.041423 1_555
Cr1 O17 2.041512 1_455
Cr1 O9 2.049361 1_555
Cr1 O11 2.049365 1_555
Cr1 O4 2.053043 1_545
Cr1 O6 2.053187 1_555
Cr2 O21 2.041564 1_555
Cr2 O23 2.041715 1_555
Cr2 O12 2.049594 1_654
Cr2 O14 2.049637 1_654
Cr2 O3 2.053363 1_555
Cr2 O1 2.053368 1_655
Cr3 O18 2.041825 1_555
Cr3 O16 2.041933 1_555
Cr3 O8 2.049397 1_555
Cr3 O10 2.049413 1_555
Cr3 O5 2.053332 1_555
Cr3 O7 2.053429 1_555
O0 Sb3 2.026637 1_555
O0 Te2 2.183875 1_664
O1 Sb2 2.026540 1_555
O1 Te3 2.183713 1_554
O2 Sb3 2.026630 1_455
O2 Te2 2.183807 1_564
O3 Sb2 2.026529 1_555
O3 Te3 2.183641 1_554
O4 Sb0 2.026609 1_555
O4 Te0 2.183633 1_555
O5 Sb1 2.026485 1_555
O5 Te1 2.183396 1_555
O6 Sb0 2.026712 1_555
O6 Te0 2.183620 1_555
O7 Sb1 2.026584 1_565
O7 Te1 2.183375 1_565
O8 Sb3 2.022154 1_555
O8 Te0 2.160933 1_555
O9 Sb2 2.022279 1_555
O9 Te1 2.161028 1_455
O10 Sb3 2.022064 1_555
O10 Te0 2.160824 1_655
O11 Sb2 2.022204 1_555
O11 Te1 2.160919 1_555
O12 Sb0 2.021943 1_555
O12 Te2 2.160883 1_565
O13 Sb1 2.022027 1_555
O13 Te3 2.160974 1_555
O14 Sb0 2.022186 1_555
O14 Te2 2.160832 1_555
O15 Sb1 2.022248 1_565
O15 Te3 2.160950 1_555
O16 Sb0 2.037861 1_555
O16 Te3 2.166276 1_555
O17 Sb1 2.038027 1_555
O17 Te2 2.166264 1_655
O18 Sb0 2.038023 1_655
O18 Te3 2.166342 1_555
O19 Sb1 2.038185 1_555
O19 Te2 2.166328 1_555
O20 Sb2 2.038095 1_555
O20 Te0 2.166460 1_545
O21 Sb3 2.037935 1_555
O21 Te1 2.166573 1_555
O22 Sb2 2.038018 1_555
O22 Te0 2.166360 1_555
O23 Sb3 2.037903 1_545
O23 Te1 2.166438 1_555
