# generated using pymatgen
data_Sm4Ga3Fe31
_symmetry_space_group_name_H-M   'P 1'
_cell_length_a   6.44010549
_cell_length_b   6.48695687
_cell_length_c   12.96204598
_cell_angle_alpha   83.21399830
_cell_angle_beta   82.86933712
_cell_angle_gamma   83.10512567
_symmetry_Int_Tables_number   1
_chemical_formula_structural   Sm4Ga3Fe31
_chemical_formula_sum   'Sm4 Ga3 Fe31'
_cell_volume   530.49848761
_cell_formula_units_Z   1
loop_
 _symmetry_equiv_pos_site_id
 _symmetry_equiv_pos_as_xyz
  1  'x, y, z'
loop_
 _atom_site_type_symbol
 _atom_site_label
 _atom_site_symmetry_multiplicity
 _atom_site_fract_x
 _atom_site_fract_y
 _atom_site_fract_z
 _atom_site_occupancy
  Sm  Sm0  1  0.66142900  0.66455700  0.33030400  1
  Sm  Sm1  1  0.65828100  0.66137000  0.83068300  1
  Sm  Sm2  1  0.34187600  0.34176000  0.16980200  1
  Sm  Sm3  1  0.34250900  0.34314900  0.67292300  1
  Ga  Ga0  1  0.84727200  0.34460900  0.17209200  1
  Ga  Ga1  1  0.84788200  0.34419800  0.67191400  1
  Ga  Ga2  1  0.34429100  0.34443900  0.42405600  1
  Fe  Fe0  1  0.90417900  0.90329100  0.45175200  1
  Fe  Fe1  1  0.90443400  0.90320200  0.95153400  1
  Fe  Fe2  1  0.09710700  0.09443000  0.04752000  1
  Fe  Fe3  1  0.09590800  0.09222300  0.54785200  1
  Fe  Fe4  1  0.28894700  0.71095300  0.50110600  1
  Fe  Fe5  1  0.28960900  0.71043400  0.00029700  1
  Fe  Fe6  1  0.70913600  0.99856600  0.14459800  1
  Fe  Fe7  1  0.70942600  0.99844600  0.64409900  1
  Fe  Fe8  1  0.99646300  0.28777700  0.35583900  1
  Fe  Fe9  1  0.00020800  0.28891500  0.85576000  1
  Fe  Fe10  1  0.28954000  0.99832700  0.35494200  1
  Fe  Fe11  1  0.29112800  0.00096000  0.85498600  1
  Fe  Fe12  1  0.00081700  0.71159700  0.14413200  1
  Fe  Fe13  1  0.00034900  0.71173800  0.64420000  1
  Fe  Fe14  1  0.70961400  0.28928600  0.99889600  1
  Fe  Fe15  1  0.71177800  0.28892300  0.49851600  1
  Fe  Fe16  1  0.99935200  0.99687100  0.25012500  1
  Fe  Fe17  1  0.99931900  0.99719900  0.75061500  1
  Fe  Fe18  1  0.99640200  0.50323300  0.49797900  1
  Fe  Fe19  1  0.99968500  0.49983600  0.99875500  1
  Fe  Fe20  1  0.49878400  0.99998900  0.99985900  1
  Fe  Fe21  1  0.49959200  0.99684100  0.49982100  1
  Fe  Fe22  1  0.34232300  0.34372200  0.92310400  1
  Fe  Fe23  1  0.34227600  0.84594100  0.17177800  1
  Fe  Fe24  1  0.34208400  0.84490200  0.67120300  1
  Fe  Fe25  1  0.15360800  0.66207900  0.32834700  1
  Fe  Fe26  1  0.15676500  0.65881900  0.82904300  1
  Fe  Fe27  1  0.65507600  0.66155100  0.07528900  1
  Fe  Fe28  1  0.65758800  0.66167500  0.57608900  1
  Fe  Fe29  1  0.65957500  0.14410800  0.32993200  1
  Fe  Fe30  1  0.65538700  0.15008400  0.83025700  1
loop_
_geom_bond_atom_site_label_1
_geom_bond_atom_site_label_2
_geom_bond_distance
_geom_bond_site_symmetry_2
Ga0 Sm0 3.121824 1_555
Ga0 Sm2 3.179606 1_655
Ga0 Sm2 3.260909 1_555
Ga1 Sm1 3.119781 1_555
Ga1 Sm3 3.186287 1_655
Ga1 Sm3 3.253879 1_555
Ga2 Sm0 3.125084 1_555
Ga2 Sm3 3.223446 1_555
Ga2 Sm2 3.299726 1_555
Fe0 Fe3 2.384182 1_665
Fe0 Fe18 2.607189 1_555
Fe0 Fe21 2.617674 1_555
Fe0 Fe29 2.618965 1_565
Fe0 Fe16 2.625123 1_555
Fe0 Fe25 2.633914 1_655
Fe0 Fe28 2.634627 1_555
Fe0 Fe10 2.743219 1_655
Fe0 Fe8 2.749411 1_565
Fe0 Fe4 2.751148 1_655
Fe0 Fe7 2.751669 1_555
Fe0 Fe15 2.754689 1_565
Fe0 Fe13 2.759805 1_655
Fe0 Sm0 3.014784 1_555
Fe1 Fe2 2.396670 1_666
Fe1 Fe17 2.616636 1_555
Fe1 Fe20 2.627588 1_555
Fe1 Fe19 2.631914 1_555
Fe1 Fe27 2.641970 1_556
Fe1 Fe26 2.647750 1_655
Fe1 Fe30 2.650047 1_565
Fe1 Fe5 2.752114 1_656
Fe1 Fe11 2.754638 1_665
Fe1 Fe6 2.761297 1_556
Fe1 Fe9 2.761970 1_665
Fe1 Fe12 2.762007 1_656
Fe1 Fe14 2.764291 1_565
Fe1 Sm1 3.036807 1_555
Fe2 Fe20 2.600176 1_544
Fe2 Fe22 2.659777 1_554
Fe2 Fe23 2.663118 1_545
Fe2 Ga0 2.679031 1_455
Fe2 Fe5 2.747182 1_545
Fe2 Fe9 2.759402 1_554
Fe2 Fe6 2.760536 1_445
Fe2 Sm2 3.065911 1_555
Fe3 Ga1 2.676893 1_455
Fe3 Ga2 2.679778 1_555
Fe3 Fe4 2.731062 1_545
Fe3 Fe7 2.744957 1_445
Fe3 Fe8 2.769195 1_455
Fe3 Sm3 3.111822 1_555
Fe4 Ga2 2.654544 1_555
Fe4 Sm0 3.067916 1_555
Fe4 Sm3 3.083665 1_555
Fe5 Sm1 3.043046 1_554
Fe5 Sm2 3.067386 1_555
Fe6 Ga0 2.589327 1_565
Fe6 Sm0 3.054004 1_555
Fe6 Sm2 3.061537 1_565
Fe7 Ga1 2.589721 1_565
Fe7 Sm3 3.071309 1_565
Fe7 Sm1 3.076410 1_555
Fe8 Ga2 2.588634 1_655
Fe8 Ga0 2.647132 1_555
Fe8 Sm0 3.075526 1_555
Fe8 Sm2 3.088962 1_655
Fe9 Ga1 2.657761 1_455
Fe9 Sm3 3.048301 1_555
Fe9 Sm1 3.083327 1_455
Fe10 Fe16 2.444628 1_455
Fe10 Fe21 2.445391 1_555
Fe10 Fe4 2.495976 1_555
Fe10 Fe8 2.497394 1_465
Fe10 Fe25 2.520717 1_555
Fe10 Ga2 2.590697 1_565
Fe10 Fe29 2.637276 1_565
Fe10 Fe23 2.646336 1_555
Fe10 Fe3 2.753546 1_565
Fe10 Sm0 3.042106 1_555
Fe10 Sm2 3.090610 1_565
Fe11 Fe20 2.435868 1_545
Fe11 Fe17 2.452045 1_445
Fe11 Fe9 2.481743 1_555
Fe11 Fe5 2.502112 1_546
Fe11 Fe26 2.549029 1_545
Fe11 Fe22 2.558205 1_555
Fe11 Fe30 2.612760 1_555
Fe11 Fe24 2.665238 1_545
Fe11 Fe2 2.749300 1_556
Fe11 Sm1 3.044893 1_545
Fe11 Sm3 3.057866 1_555
Fe12 Fe16 2.430155 1_455
Fe12 Fe19 2.460795 1_454
Fe12 Fe5 2.464583 1_555
Fe12 Fe6 2.480783 1_455
Fe12 Fe23 2.540316 1_555
Fe12 Fe27 2.568026 1_455
Fe12 Ga0 2.654981 1_455
Fe12 Fe25 2.664430 1_555
Fe12 Fe2 2.749938 1_565
Fe12 Sm0 3.061113 1_455
Fe12 Sm2 3.068955 1_555
Fe13 Fe17 2.435188 1_455
Fe13 Fe4 2.457394 1_555
Fe13 Fe18 2.459342 1_455
Fe13 Fe7 2.476443 1_455
Fe13 Fe24 2.536024 1_555
Fe13 Fe28 2.545839 1_455
Fe13 Ga1 2.655141 1_455
Fe13 Fe26 2.682333 1_555
Fe13 Fe3 2.734190 1_565
Fe13 Sm3 3.072379 1_555
Fe13 Sm1 3.076815 1_455
Fe14 Fe19 2.442623 1_555
Fe14 Fe20 2.442860 1_545
Fe14 Fe9 2.466288 1_655
Fe14 Fe6 2.506317 1_546
Fe14 Fe30 2.539145 1_555
Fe14 Ga0 2.591435 1_556
Fe14 Fe22 2.641840 1_555
Fe14 Fe27 2.685251 1_556
Fe14 Fe2 2.768997 1_656
Fe14 Sm2 3.051925 1_556
Fe14 Sm1 3.071308 1_555
Fe15 Fe18 2.428798 1_555
Fe15 Fe8 2.437178 1_555
Fe15 Fe21 2.462908 1_545
Fe15 Fe7 2.504251 1_545
Fe15 Fe29 2.552238 1_555
Fe15 Ga1 2.589122 1_555
Fe15 Ga2 2.634878 1_555
Fe15 Fe28 2.695280 1_555
Fe15 Fe3 2.756629 1_655
Fe15 Sm0 3.086587 1_555
Fe15 Sm3 3.089052 1_555
Fe16 Fe29 2.437274 1_565
Fe16 Fe25 2.437874 1_655
Fe16 Fe6 2.447565 1_555
Fe16 Fe23 2.454842 1_655
Fe16 Fe8 2.456714 1_565
Fe16 Ga0 2.499413 1_565
Fe16 Fe2 2.643119 1_665
Fe16 Sm0 3.240170 1_555
Fe16 Sm2 3.319583 1_665
Fe17 Fe7 2.454677 1_555
Fe17 Fe9 2.460189 1_665
Fe17 Fe24 2.461907 1_655
Fe17 Fe26 2.464555 1_655
Fe17 Fe30 2.470258 1_565
Fe17 Ga1 2.497182 1_565
Fe17 Fe3 2.641550 1_665
Fe17 Sm1 3.270384 1_555
Fe17 Sm3 3.322577 1_665
Fe18 Fe8 2.440533 1_555
Fe18 Fe28 2.449813 1_555
Fe18 Fe4 2.451172 1_655
Fe18 Fe25 2.466533 1_655
Fe18 Ga2 2.478907 1_655
Fe18 Ga1 2.492802 1_555
Fe18 Fe3 2.687474 1_655
Fe18 Sm0 3.249174 1_555
Fe18 Sm3 3.366220 1_655
Fe19 Fe9 2.429864 1_655
Fe19 Fe5 2.445630 1_656
Fe19 Fe22 2.453014 1_655
Fe19 Fe26 2.467391 1_655
Fe19 Fe27 2.479992 1_556
Fe19 Ga0 2.486092 1_556
Fe19 Fe2 2.649294 1_656
Fe19 Sm1 3.282506 1_555
Fe19 Sm2 3.310105 1_656
Fe20 Fe5 2.438434 1_556
Fe20 Fe30 2.444905 1_565
Fe20 Fe6 2.445190 1_556
Fe20 Fe27 2.448567 1_556
Fe20 Fe23 2.477566 1_556
Fe20 Fe22 2.482386 1_565
Fe20 Sm1 3.275094 1_555
Fe20 Sm2 3.294303 1_566
Fe21 Fe4 2.423022 1_555
Fe21 Fe28 2.439351 1_555
Fe21 Fe7 2.441123 1_555
Fe21 Fe29 2.449354 1_565
Fe21 Fe24 2.469506 1_555
Fe21 Ga2 2.495636 1_565
Fe21 Fe3 2.613852 1_565
Fe21 Sm0 3.251449 1_555
Fe21 Sm3 3.344632 1_565
Fe22 Fe30 2.497588 1_555
Fe22 Fe26 2.505771 1_555
Fe22 Fe9 2.545902 1_555
Fe22 Fe5 2.656988 1_556
Fe22 Sm1 3.104777 1_555
Fe22 Sm2 3.195877 1_556
Fe22 Sm3 3.243150 1_555
Fe23 Fe25 2.486219 1_555
Fe23 Fe27 2.490491 1_555
Fe23 Fe5 2.559067 1_555
Fe23 Fe6 2.637966 1_555
Fe23 Sm0 3.118948 1_555
Fe23 Sm2 3.213125 1_565
Fe23 Sm2 3.274038 1_555
Fe24 Fe28 2.491140 1_555
Fe24 Fe26 2.494670 1_555
Fe24 Fe4 2.538652 1_555
Fe24 Fe7 2.643645 1_555
Fe24 Fe3 2.656369 1_565
Fe24 Sm1 3.117493 1_555
Fe24 Sm3 3.235149 1_565
Fe24 Sm3 3.251966 1_555
Fe25 Ga2 2.541536 1_555
Fe25 Fe4 2.567760 1_555
Fe25 Fe8 2.709750 1_455
Fe25 Sm2 3.129965 1_555
Fe25 Sm0 3.164760 1_455
Fe25 Sm0 3.275648 1_555
Fe26 Fe5 2.547050 1_556
Fe26 Fe9 2.681816 1_555
Fe26 Sm3 3.083739 1_555
Fe26 Sm1 3.205787 1_455
Fe26 Sm1 3.234563 1_555
Fe27 Fe6 2.536204 1_555
Fe27 Ga0 2.549215 1_555
Fe27 Fe5 2.626983 1_555
Fe27 Sm2 3.108581 1_555
Fe27 Sm1 3.168236 1_554
Fe27 Sm0 3.313230 1_555
Fe28 Fe7 2.522782 1_555
Fe28 Ga1 2.540364 1_555
Fe28 Fe4 2.645818 1_555
Fe28 Sm3 3.118294 1_555
Fe28 Sm0 3.180761 1_555
Fe28 Sm1 3.300383 1_555
Fe29 Ga2 2.534998 1_555
Fe29 Fe8 2.535507 1_555
Fe29 Ga0 2.544268 1_555
Fe29 Fe6 2.652850 1_545
Fe29 Sm0 3.108852 1_545
Fe29 Sm2 3.151798 1_555
Fe29 Sm0 3.378159 1_555
Fe30 Ga1 2.543094 1_555
Fe30 Fe9 2.566039 1_655
Fe30 Fe7 2.679830 1_545
Fe30 Sm3 3.098118 1_555
Fe30 Sm1 3.167439 1_545
Fe30 Sm1 3.319640 1_555
