# generated using pymatgen
data_TmSn3
_symmetry_space_group_name_H-M   'P 1'
_cell_length_a   11.22871000
_cell_length_b   11.22871000
_cell_length_c   4.42704100
_cell_angle_alpha   90.00000000
_cell_angle_beta   90.00000000
_cell_angle_gamma   157.34700971
_symmetry_Int_Tables_number   1
_chemical_formula_structural   TmSn3
_chemical_formula_sum   'Tm2 Sn6'
_cell_volume   214.98197221
_cell_formula_units_Z   2
loop_
 _symmetry_equiv_pos_site_id
 _symmetry_equiv_pos_as_xyz
  1  'x, y, z'
loop_
 _atom_site_type_symbol
 _atom_site_label
 _atom_site_symmetry_multiplicity
 _atom_site_fract_x
 _atom_site_fract_y
 _atom_site_fract_z
 _atom_site_occupancy
  Tm  Tm0  1  0.48212900  0.51787100  0.50000000  1
  Tm  Tm1  1  0.21286500  0.78713500  0.00000000  1
  Sn  Sn0  1  0.09894200  0.90105800  0.50000000  1
  Sn  Sn1  1  0.72810900  0.27189100  0.50000000  1
  Sn  Sn2  1  0.86471300  0.13528700  0.50000000  1
  Sn  Sn3  1  0.97623000  0.02377000  0.00000000  1
  Sn  Sn4  1  0.36271300  0.63728700  0.00000000  1
  Sn  Sn5  1  0.60029800  0.39970200  0.00000000  1
loop_
_geom_bond_atom_site_label_1
_geom_bond_atom_site_label_2
_geom_bond_distance
_geom_bond_site_symmetry_2
Sn0 Sn5 3.124736 1_455
Sn0 Sn5 3.124736 1_456
Sn0 Sn5 3.124736 1_565
Sn0 Sn5 3.124736 1_566
Sn0 Tm1 3.345548 1_555
Sn0 Tm1 3.345548 1_556
Sn0 Tm0 3.388179 1_455
Sn0 Tm0 3.388179 1_565
Sn1 Sn2 3.008025 1_555
Sn1 Tm1 3.142572 1_656
Sn1 Tm1 3.142572 1_655
Sn1 Tm1 3.142572 1_545
Sn1 Tm1 3.142572 1_546
Sn2 Sn4 3.124904 1_656
Sn2 Sn4 3.124904 1_655
Sn2 Sn4 3.124904 1_545
Sn2 Sn4 3.124904 1_546
Sn2 Sn3 3.306008 1_555
Sn2 Sn3 3.306008 1_556
Sn2 Tm0 3.398271 1_545
Sn2 Tm0 3.398271 1_655
Sn3 Tm0 3.127292 1_655
Sn3 Tm0 3.127292 1_544
Sn3 Tm0 3.127292 1_545
Sn3 Tm0 3.127292 1_654
Sn3 Sn4 3.333415 1_655
Sn3 Sn4 3.333415 1_545
Sn4 Tm1 3.299659 1_555
Sn4 Tm0 3.437176 1_554
Sn4 Tm0 3.437176 1_555
Sn5 Tm1 3.317757 1_655
Sn5 Tm1 3.317757 1_545
Sn5 Tm0 3.416215 1_555
Sn5 Tm0 3.416215 1_554
