# generated using pymatgen
data_Li9Mn2Co5O16
_symmetry_space_group_name_H-M   'P 1'
_cell_length_a   2.91022800
_cell_length_b   10.28304700
_cell_length_c   10.33991623
_cell_angle_alpha   69.83475199
_cell_angle_beta   90.00000000
_cell_angle_gamma   90.00000000
_symmetry_Int_Tables_number   1
_chemical_formula_structural   Li9Mn2Co5O16
_chemical_formula_sum   'Li9 Mn2 Co5 O16'
_cell_volume   290.46494810
_cell_formula_units_Z   1
loop_
 _symmetry_equiv_pos_site_id
 _symmetry_equiv_pos_as_xyz
  1  'x, y, z'
loop_
 _atom_site_type_symbol
 _atom_site_label
 _atom_site_symmetry_multiplicity
 _atom_site_fract_x
 _atom_site_fract_y
 _atom_site_fract_z
 _atom_site_occupancy
  Li  Li0  1  0.50000000  0.99821900  0.74850900  1
  Li  Li1  1  0.50000000  0.99354100  0.26026500  1
  Li  Li2  1  0.00000000  0.74260600  0.74931300  1
  Li  Li3  1  0.00000000  0.74025300  0.24918600  1
  Li  Li4  1  0.50000000  0.51126200  0.75482100  1
  Li  Li5  1  0.50000000  0.50491500  0.24164200  1
  Li  Li6  1  0.00000000  0.25705400  0.74292400  1
  Li  Li7  1  0.00000000  0.25968300  0.24631000  1
  Li  Li8  1  0.00000000  0.49813500  0.00428500  1
  Mn  Mn0  1  0.00000000  0.99825400  0.00160600  1
  Mn  Mn1  1  0.50000000  0.25641200  0.00221500  1
  Co  Co0  1  0.00000000  0.00026500  0.50106800  1
  Co  Co1  1  0.50000000  0.72890900  0.99177600  1
  Co  Co2  1  0.50000000  0.74956500  0.49665900  1
  Co  Co3  1  0.00000000  0.49962700  0.49989900  1
  Co  Co4  1  0.50000000  0.25032400  0.50234000  1
  O  O0  1  0.50000000  0.11763000  0.89451700  1
  O  O1  1  0.50000000  0.11235800  0.39329100  1
  O  O2  1  0.00000000  0.88450300  0.89333600  1
  O  O3  1  0.00000000  0.86532900  0.38208500  1
  O  O4  1  0.50000000  0.63688800  0.87314100  1
  O  O5  1  0.50000000  0.61749100  0.38662300  1
  O  O6  1  0.00000000  0.35686800  0.88834900  1
  O  O7  1  0.00000000  0.36758700  0.38561000  1
  O  O8  1  0.50000000  0.88723400  0.60738000  1
  O  O9  1  0.50000000  0.89548100  0.11322500  1
  O  O10  1  0.00000000  0.63179600  0.61385200  1
  O  O11  1  0.00000000  0.63365500  0.11908600  1
  O  O12  1  0.50000000  0.38218300  0.61573400  1
  O  O13  1  0.50000000  0.35643500  0.11529000  1
  O  O14  1  0.00000000  0.13505700  0.61870000  1
  O  O15  1  0.00000000  0.13048300  0.10696400  1
loop_
_geom_bond_atom_site_label_1
_geom_bond_atom_site_label_2
_geom_bond_distance
_geom_bond_site_symmetry_2
Li0 O2 2.126012 1_655
Li0 O2 2.126012 1_555
Li0 O8 2.140130 1_555
Li0 O14 2.143996 1_565
Li0 O14 2.143996 1_665
Li0 O0 2.250576 1_565
Li1 O3 2.072970 1_655
Li1 O3 2.072970 1_555
Li1 O9 2.094120 1_555
Li1 O1 2.131528 1_565
Li1 O15 2.252548 1_565
Li1 O15 2.252548 1_665
Li2 O4 1.994705 1_455
Li2 O4 1.994705 1_555
Li2 O10 2.088202 1_555
Li2 O8 2.231173 1_455
Li2 O8 2.231173 1_555
Li2 O2 2.417619 1_555
Li3 O11 2.006945 1_555
Li3 O5 2.119805 1_455
Li3 O5 2.119805 1_555
Li3 O3 2.181992 1_555
Li3 O9 2.257092 1_455
Li3 O9 2.257092 1_555
Li4 O4 2.062811 1_555
Li4 O10 2.128997 1_555
Li4 O10 2.128997 1_655
Li4 O6 2.243415 1_555
Li4 O6 2.243415 1_655
Li4 O12 2.268515 1_555
Li5 O11 2.078249 1_555
Li5 O11 2.078249 1_655
Li5 O5 2.187200 1_555
Li5 O7 2.208656 1_555
Li5 O7 2.208656 1_655
Li5 O13 2.326663 1_555
Li6 O14 2.081968 1_555
Li6 O12 2.082271 1_555
Li6 O12 2.082271 1_455
Li6 O6 2.092517 1_555
Li6 O0 2.253972 1_455
Li6 O0 2.253972 1_555
Li7 O13 2.003304 1_455
Li7 O13 2.003304 1_555
Li7 O7 2.099444 1_555
Li7 O1 2.265997 1_555
Li7 O1 2.265997 1_455
Li7 O15 2.271753 1_555
Li8 O13 2.098772 1_455
Li8 O13 2.098772 1_555
Li8 O11 2.119328 1_555
Li8 O4 2.158232 1_554
Li8 O4 2.158232 1_454
Li8 O6 2.178961 1_554
Mn0 O2 1.877322 1_554
Mn0 O9 1.930105 1_455
Mn0 O9 1.930105 1_555
Mn0 O0 1.978176 1_464
Mn0 O0 1.978176 1_564
Mn0 O15 2.014169 1_565
Mn1 O13 1.803886 1_555
Mn1 O6 1.931863 1_554
Mn1 O6 1.931863 1_654
Mn1 O15 2.000079 1_555
Mn1 O15 2.000079 1_655
Mn1 O0 2.091025 1_554
Co0 O8 1.948274 1_445
Co0 O8 1.948274 1_545
Co0 O1 1.949935 1_455
Co0 O1 1.949935 1_555
Co0 O14 2.136105 1_555
Co0 O3 2.148449 1_545
Co1 O4 1.788973 1_555
Co1 O11 1.980061 1_556
Co1 O11 1.980061 1_656
Co1 O2 2.142548 1_555
Co1 O2 2.142548 1_655
Co1 O9 2.448241 1_556
Co2 O3 1.991379 1_555
Co2 O3 1.991379 1_655
Co2 O10 2.010112 1_655
Co2 O10 2.010112 1_555
Co2 O5 2.050456 1_555
Co2 O8 2.105271 1_555
Co3 O5 1.994850 1_555
Co3 O5 1.994850 1_455
Co3 O12 2.003276 1_555
Co3 O12 2.003276 1_455
Co3 O10 2.083157 1_555
Co3 O7 2.084781 1_555
Co4 O14 1.996655 1_555
Co4 O14 1.996655 1_655
Co4 O7 2.006171 1_655
Co4 O7 2.006171 1_555
Co4 O12 2.075887 1_555
Co4 O1 2.094525 1_555
