# generated using pymatgen
data_Te2NO6
_symmetry_space_group_name_H-M   'P 1'
_cell_length_a   5.36680600
_cell_length_b   7.13232300
_cell_length_c   14.81629500
_cell_angle_alpha   90.00000000
_cell_angle_beta   90.00000000
_cell_angle_gamma   90.00000000
_symmetry_Int_Tables_number   1
_chemical_formula_structural   Te2NO6
_chemical_formula_sum   'Te8 N4 O24'
_cell_volume   567.13508593
_cell_formula_units_Z   4
loop_
 _symmetry_equiv_pos_site_id
 _symmetry_equiv_pos_as_xyz
  1  'x, y, z'
loop_
 _atom_site_type_symbol
 _atom_site_label
 _atom_site_symmetry_multiplicity
 _atom_site_fract_x
 _atom_site_fract_y
 _atom_site_fract_z
 _atom_site_occupancy
  Te  Te0  1  0.25000000  0.19336000  0.62910900  1
  Te  Te1  1  0.25000000  0.69336000  0.87089100  1
  Te  Te2  1  0.75000000  0.80664000  0.37089100  1
  Te  Te3  1  0.75000000  0.30664000  0.12910900  1
  Te  Te4  1  0.25000000  0.55983200  0.24736200  1
  Te  Te5  1  0.25000000  0.05983200  0.25263800  1
  Te  Te6  1  0.75000000  0.44016800  0.75263800  1
  Te  Te7  1  0.75000000  0.94016800  0.74736200  1
  N  N0  1  0.25000000  0.18886200  0.96080900  1
  N  N1  1  0.25000000  0.68886200  0.53919100  1
  N  N2  1  0.75000000  0.81113800  0.03919100  1
  N  N3  1  0.75000000  0.31113800  0.46080900  1
  O  O0  1  0.25000000  0.70421800  0.99162300  1
  O  O1  1  0.25000000  0.20421800  0.50837700  1
  O  O2  1  0.75000000  0.29578200  0.00837700  1
  O  O3  1  0.75000000  0.79578200  0.49162300  1
  O  O4  1  0.25000000  0.81154300  0.19559700  1
  O  O5  1  0.25000000  0.31154300  0.30440300  1
  O  O6  1  0.75000000  0.18845700  0.80440300  1
  O  O7  1  0.75000000  0.68845700  0.69559700  1
  O  O8  1  0.00450300  0.49712900  0.84308200  1
  O  O9  1  0.49549700  0.99712900  0.65691800  1
  O  O10  1  0.50450300  0.50287100  0.15691800  1
  O  O11  1  0.99549700  0.00287100  0.34308200  1
  O  O12  1  0.99549700  0.50287100  0.15691800  1
  O  O13  1  0.50450300  0.00287100  0.34308200  1
  O  O14  1  0.49549700  0.49712900  0.84308200  1
  O  O15  1  0.00450300  0.99712900  0.65691800  1
  O  O16  1  0.00654900  0.88630500  0.83726600  1
  O  O17  1  0.49345100  0.38630500  0.66273400  1
  O  O18  1  0.50654900  0.11369500  0.16273400  1
  O  O19  1  0.99345100  0.61369500  0.33726600  1
  O  O20  1  0.99345100  0.11369500  0.16273400  1
  O  O21  1  0.50654900  0.61369500  0.33726600  1
  O  O22  1  0.49345100  0.88630500  0.83726600  1
  O  O23  1  0.00654900  0.38630500  0.66273400  1
loop_
_geom_bond_atom_site_label_1
_geom_bond_atom_site_label_2
_geom_bond_distance
_geom_bond_site_symmetry_2
O0 Te1 1.790477 1_555
O1 Te0 1.790477 1_555
O2 Te3 1.790477 1_555
O3 Te2 1.790477 1_555
O4 Te4 1.952250 1_555
O4 Te5 1.962208 1_565
O5 Te5 1.952250 1_555
O5 Te4 1.962208 1_555
O6 Te6 1.952250 1_555
O6 Te7 1.962208 1_545
O7 Te7 1.952250 1_555
O7 Te6 1.962208 1_555
O8 Te6 1.956110 1_455
O8 Te1 1.965832 1_555
O9 Te7 1.956110 1_555
O9 Te0 1.965832 1_565
O10 Te4 1.956110 1_555
O10 Te3 1.965832 1_555
O11 Te5 1.956110 1_655
O11 Te2 1.965832 1_545
O12 Te4 1.956110 1_655
O12 Te3 1.965832 1_555
O13 Te5 1.956110 1_555
O13 Te2 1.965832 1_545
O14 Te6 1.956110 1_555
O14 Te1 1.965832 1_555
O15 Te7 1.956110 1_455
O15 Te0 1.965832 1_565
O16 Te7 1.953878 1_455
O16 Te1 1.961903 1_555
O17 Te6 1.953878 1_555
O17 Te0 1.961903 1_555
O18 Te5 1.953878 1_555
O18 Te3 1.961903 1_555
O19 Te4 1.953878 1_655
O19 Te2 1.961903 1_555
O20 Te5 1.953878 1_655
O20 Te3 1.961903 1_555
O21 Te4 1.953878 1_555
O21 Te2 1.961903 1_555
O22 Te7 1.953878 1_555
O22 Te1 1.961903 1_555
O23 Te6 1.953878 1_455
O23 Te0 1.961903 1_555
