# generated using pymatgen
data_Nb2GeC
_symmetry_space_group_name_H-M   'P 1'
_cell_length_a   3.27858003
_cell_length_b   3.27858003
_cell_length_c   12.46320927
_cell_angle_alpha   90.00000000
_cell_angle_beta   90.00000000
_cell_angle_gamma   120.00000133
_symmetry_Int_Tables_number   1
_chemical_formula_structural   Nb2GeC
_chemical_formula_sum   'Nb4 Ge2 C2'
_cell_volume   116.01979417
_cell_formula_units_Z   2
loop_
 _symmetry_equiv_pos_site_id
 _symmetry_equiv_pos_as_xyz
  1  'x, y, z'
loop_
 _atom_site_type_symbol
 _atom_site_label
 _atom_site_symmetry_multiplicity
 _atom_site_fract_x
 _atom_site_fract_y
 _atom_site_fract_z
 _atom_site_occupancy
  Nb  Nb0  1  0.33333300  0.66666700  0.40609408  1
  Nb  Nb1  1  0.66666700  0.33333300  0.59399554  1
  Nb  Nb2  1  0.66666700  0.33333300  0.90598067  1
  Nb  Nb3  1  0.33333300  0.66666700  0.09395983  1
  Ge  Ge0  1  0.66666700  0.33333300  0.25000370  1
  Ge  Ge1  1  0.33333300  0.66666700  0.74995932  1
  C  C0  1  0.00000000  -0.00000000  0.50004820  1
  C  C1  1  0.00000000  -0.00000000  -0.00004133  1
loop_
_geom_bond_atom_site_label_1
_geom_bond_atom_site_label_2
_geom_bond_distance
_geom_bond_site_symmetry_2
Ge0 Nb3 2.713908 1_545
Ge0 Nb3 2.713908 1_655
Ge0 Nb3 2.713912 1_555
Ge0 Nb0 2.714324 1_545
Ge0 Nb0 2.714324 1_655
Ge0 Nb0 2.714328 1_555
Ge1 Nb1 2.713193 1_455
Ge1 Nb1 2.713193 1_565
Ge1 Nb1 2.713197 1_555
Ge1 Nb2 2.713707 1_455
Ge1 Nb2 2.713707 1_565
Ge1 Nb2 2.713711 1_555
C0 Nb1 2.225757 1_455
C0 Nb1 2.225759 1_445
C0 Nb1 2.225759 1_555
C0 Nb0 2.225801 1_545
C0 Nb0 2.225804 1_445
C0 Nb0 2.225804 1_555
C1 Nb2 2.225958 1_454
C1 Nb2 2.225960 1_444
C1 Nb2 2.225960 1_554
C1 Nb3 2.226110 1_545
C1 Nb3 2.226112 1_445
C1 Nb3 2.226112 1_555
