# generated using pymatgen
data_Mg5Si9
_symmetry_space_group_name_H-M   'P 1'
_cell_length_a   7.46453300
_cell_length_b   7.61840281
_cell_length_c   9.86926661
_cell_angle_alpha   93.69372827
_cell_angle_beta   100.92798735
_cell_angle_gamma   113.30822179
_symmetry_Int_Tables_number   1
_chemical_formula_structural   Mg5Si9
_chemical_formula_sum   'Mg10 Si18'
_cell_volume   500.00656871
_cell_formula_units_Z   2
loop_
 _symmetry_equiv_pos_site_id
 _symmetry_equiv_pos_as_xyz
  1  'x, y, z'
loop_
 _atom_site_type_symbol
 _atom_site_label
 _atom_site_symmetry_multiplicity
 _atom_site_fract_x
 _atom_site_fract_y
 _atom_site_fract_z
 _atom_site_occupancy
  Mg  Mg0  1  0.50104300  0.94927400  0.56962500  1
  Mg  Mg1  1  0.90225200  0.09324700  0.42702100  1
  Mg  Mg2  1  0.16539700  0.55084000  0.55768300  1
  Mg  Mg3  1  0.77731000  0.39997300  0.33270800  1
  Mg  Mg4  1  0.75334800  0.69976600  0.57399100  1
  Mg  Mg5  1  0.38782000  0.28729600  0.49478600  1
  Mg  Mg6  1  0.71126100  0.03266400  0.09102800  1
  Mg  Mg7  1  0.58736100  0.24753400  0.84417700  1
  Mg  Mg8  1  0.88364200  0.60471000  0.07393200  1
  Mg  Mg9  1  0.06144700  0.32588200  0.96844300  1
  Si  Si0  1  0.14472900  0.00584600  0.22871400  1
  Si  Si1  1  0.47720300  0.57918400  0.03063200  1
  Si  Si2  1  0.04404300  0.79585600  0.40443700  1
  Si  Si3  1  0.23732900  0.31544900  0.73447100  1
  Si  Si4  1  0.12421700  0.32872500  0.25597500  1
  Si  Si5  1  0.89083500  0.07889700  0.69886500  1
  Si  Si6  1  0.28845800  0.75424600  0.10436700  1
  Si  Si7  1  0.99880300  0.60890400  0.80677400  1
  Si  Si8  1  0.70150800  0.72969000  0.26722100  1
  Si  Si9  1  0.16820900  0.97110700  0.65839900  1
  Si  Si10  1  0.36825600  0.81687900  0.80718200  1
  Si  Si11  1  0.88915000  0.91190200  0.89651500  1
  Si  Si12  1  0.49073100  0.01168500  0.29780000  1
  Si  Si13  1  0.58345000  0.62283500  0.81815000  1
  Si  Si14  1  0.24101700  0.99355800  0.95695200  1
  Si  Si15  1  0.43092700  0.28164800  0.12650800  1
  Si  Si16  1  0.78447600  0.35007500  0.61414600  1
  Si  Si17  1  0.40534900  0.65222500  0.35923900  1
loop_
_geom_bond_atom_site_label_1
_geom_bond_atom_site_label_2
_geom_bond_distance
_geom_bond_site_symmetry_2
Mg0 Si5 2.687891 1_565
Mg0 Si17 2.737851 1_555
Mg0 Si12 2.746629 1_565
Mg0 Si10 2.809125 1_555
Mg0 Si9 2.846282 1_555
Mg0 Si16 2.890541 1_565
Mg1 Si5 2.708188 1_555
Mg1 Si8 2.767817 1_545
Mg1 Si4 2.812768 1_655
Mg1 Si2 2.867937 1_645
Mg1 Si12 2.889747 1_555
Mg1 Si16 3.085956 1_555
Mg1 Si0 3.111063 1_655
Mg1 Si9 3.168340 1_645
Mg2 Si3 2.712636 1_555
Mg2 Si2 2.788315 1_555
Mg2 Si10 2.824649 1_555
Mg2 Si16 2.829099 1_455
Mg2 Si17 2.840877 1_555
Mg2 Si7 3.039710 1_455
Mg2 Si9 3.281554 1_555
Mg3 Si15 2.750169 1_555
Mg3 Si16 2.821022 1_555
Mg3 Si2 2.828436 1_655
Mg3 Si12 2.833183 1_555
Mg3 Si8 2.871042 1_555
Mg3 Si4 3.062106 1_655
Mg4 Si5 2.762390 1_565
Mg4 Si16 2.810584 1_555
Mg4 Si9 2.879438 1_655
Mg4 Si2 2.884797 1_655
Mg4 Si17 2.905190 1_555
Mg4 Si13 2.917328 1_555
Mg4 Si7 2.954117 1_555
Mg4 Si8 3.013733 1_555
Mg5 Si16 2.804890 1_555
Mg5 Si3 2.834850 1_555
Mg5 Si4 2.890546 1_555
Mg5 Si0 3.028974 1_555
Mg5 Si9 3.078494 1_545
Mg5 Si17 3.129499 1_555
Mg5 Si12 3.177289 1_555
Mg6 Si11 2.828527 1_544
Mg6 Si12 2.829711 1_555
Mg6 Si8 2.964610 1_545
Mg6 Si4 3.059681 1_655
Mg6 Si1 3.147472 1_545
Mg6 Si10 3.234486 1_544
Mg7 Si3 2.887256 1_555
Mg7 Si13 2.898218 1_555
Mg7 Si16 2.917976 1_555
Mg7 Si10 2.990887 1_545
Mg7 Si14 3.012680 1_545
Mg7 Si9 3.114341 1_545
Mg8 Si6 2.721519 1_655
Mg8 Si8 2.857912 1_555
Mg8 Si1 2.907866 1_555
Mg8 Si7 2.922394 1_554
Mg8 Si11 3.003965 1_554
Mg8 Si0 3.004577 1_665
Mg8 Si13 3.091566 1_554
Mg9 Si4 2.784357 1_556
Mg9 Si1 2.849176 1_556
Mg9 Si11 2.874081 1_445
Mg9 Si3 2.875834 1_555
Mg9 Si7 2.893408 1_455
Mg9 Si5 2.900836 1_455
Mg9 Si15 3.053789 1_556
Mg9 Si6 3.085278 1_556
Si0 Si2 2.456015 1_545
Si0 Si12 2.524862 1_555
Si0 Si4 2.524866 1_555
Si0 Si15 2.744850 1_555
Si1 Si13 2.376736 1_554
Si1 Si15 2.435871 1_555
Si1 Si6 2.458442 1_555
Si1 Si8 2.494725 1_555
Si2 Si8 2.490950 1_455
Si2 Si9 2.575369 1_555
Si3 Si5 2.438439 1_455
Si3 Si9 2.498003 1_545
Si5 Si9 2.595656 1_645
Si10 Si14 2.487224 1_555
Si10 Si9 2.558499 1_555
Si10 Si13 2.571235 1_555
Si10 Si7 2.579339 1_455
Si11 Si14 2.388843 1_655
Si11 Si5 2.395874 1_565
Si11 Si13 2.406179 1_555
Si12 Si6 2.419101 1_545
Si12 Si17 2.693064 1_545
Si12 Si15 2.859289 1_555
Si13 Si3 2.644813 1_555
Si14 Si15 2.406681 1_566
Si14 Si6 2.494672 1_556
Si14 Si9 2.874166 1_555
Si16 Si7 2.435012 1_555
Si16 Si5 2.620377 1_555
Si17 Si8 2.420325 1_555
Si17 Si4 2.507813 1_555
Si17 Si6 2.765696 1_555
