# generated using pymatgen
data_YbBr
_symmetry_space_group_name_H-M   'P 1'
_cell_length_a   3.53337273
_cell_length_b   3.53337273
_cell_length_c   4.45493455
_cell_angle_alpha   90.00000000
_cell_angle_beta   90.00000000
_cell_angle_gamma   120.00000594
_symmetry_Int_Tables_number   1
_chemical_formula_structural   YbBr
_chemical_formula_sum   'Yb1 Br1'
_cell_volume   48.16713765
_cell_formula_units_Z   1
loop_
 _symmetry_equiv_pos_site_id
 _symmetry_equiv_pos_as_xyz
  1  'x, y, z'
loop_
 _atom_site_type_symbol
 _atom_site_label
 _atom_site_symmetry_multiplicity
 _atom_site_fract_x
 _atom_site_fract_y
 _atom_site_fract_z
 _atom_site_occupancy
  Yb  Yb0  1  0.00000000  0.00000000  0.00000000  1
  Br  Br0  1  0.33333300  0.66666700  0.50000000  1
loop_
_geom_bond_atom_site_label_1
_geom_bond_atom_site_label_2
_geom_bond_distance
_geom_bond_site_symmetry_2
Br0 Yb0 3.020460 1_565
Br0 Yb0 3.020460 1_566
Br0 Yb0 3.020462 1_555
Br0 Yb0 3.020462 1_556
Br0 Yb0 3.020462 1_666
Br0 Yb0 3.020462 1_665
