# generated using pymatgen
data_Rb2Nb2Si2O11
_symmetry_space_group_name_H-M   'P 1'
_cell_length_a   7.43909300
_cell_length_b   7.43909300
_cell_length_c   39.69082800
_cell_angle_alpha   90.00000000
_cell_angle_beta   90.00000000
_cell_angle_gamma   90.00000000
_symmetry_Int_Tables_number   1
_chemical_formula_structural   Rb2Nb2Si2O11
_chemical_formula_sum   'Rb16 Nb16 Si16 O88'
_cell_volume   2196.49457567
_cell_formula_units_Z   8
loop_
 _symmetry_equiv_pos_site_id
 _symmetry_equiv_pos_as_xyz
  1  'x, y, z'
loop_
 _atom_site_type_symbol
 _atom_site_label
 _atom_site_symmetry_multiplicity
 _atom_site_fract_x
 _atom_site_fract_y
 _atom_site_fract_z
 _atom_site_occupancy
  Rb  Rb0  1  0.01233500  0.53511400  0.57269100  1
  Rb  Rb1  1  0.98766500  0.46488600  0.07269100  1
  Rb  Rb2  1  0.46488600  0.01233500  0.32269100  1
  Rb  Rb3  1  0.53511400  0.98766500  0.82269100  1
  Rb  Rb4  1  0.98766500  0.53511400  0.42730900  1
  Rb  Rb5  1  0.01233500  0.46488600  0.92730900  1
  Rb  Rb6  1  0.53511400  0.01233500  0.67730900  1
  Rb  Rb7  1  0.46488600  0.98766500  0.17730900  1
  Rb  Rb8  1  0.03360000  0.03360000  0.62500000  1
  Rb  Rb9  1  0.96640000  0.96640000  0.12500000  1
  Rb  Rb10  1  0.96640000  0.03360000  0.37500000  1
  Rb  Rb11  1  0.03360000  0.96640000  0.87500000  1
  Rb  Rb12  1  0.62990300  0.50000000  0.75000000  1
  Rb  Rb13  1  0.37009700  0.50000000  0.25000000  1
  Rb  Rb14  1  0.50000000  0.62990300  0.50000000  1
  Rb  Rb15  1  0.50000000  0.37009700  0.00000000  1
  Nb  Nb0  1  0.27515600  0.49987300  0.66157800  1
  Nb  Nb1  1  0.72484400  0.50012700  0.16157800  1
  Nb  Nb2  1  0.50012700  0.27515600  0.41157800  1
  Nb  Nb3  1  0.49987300  0.72484400  0.91157800  1
  Nb  Nb4  1  0.72484400  0.49987300  0.33842200  1
  Nb  Nb5  1  0.27515600  0.50012700  0.83842200  1
  Nb  Nb6  1  0.49987300  0.27515600  0.58842200  1
  Nb  Nb7  1  0.50012700  0.72484400  0.08842200  1
  Nb  Nb8  1  0.76999800  0.50004500  0.65596300  1
  Nb  Nb9  1  0.23000200  0.49995500  0.15596300  1
  Nb  Nb10  1  0.49995500  0.76999800  0.40596300  1
  Nb  Nb11  1  0.50004500  0.23000200  0.90596300  1
  Nb  Nb12  1  0.23000200  0.50004500  0.34403700  1
  Nb  Nb13  1  0.76999800  0.49995500  0.84403700  1
  Nb  Nb14  1  0.50004500  0.76999800  0.59403700  1
  Nb  Nb15  1  0.49995500  0.23000200  0.09403700  1
  Si  Si0  1  0.00492400  0.77988000  0.70955400  1
  Si  Si1  1  0.99507600  0.22012000  0.20955400  1
  Si  Si2  1  0.22012000  0.00492400  0.45955400  1
  Si  Si3  1  0.77988000  0.99507600  0.95955400  1
  Si  Si4  1  0.99507600  0.77988000  0.29044600  1
  Si  Si5  1  0.00492400  0.22012000  0.79044600  1
  Si  Si6  1  0.77988000  0.00492400  0.54044600  1
  Si  Si7  1  0.22012000  0.99507600  0.04044600  1
  Si  Si8  1  0.00503300  0.21457500  0.70875400  1
  Si  Si9  1  0.99496700  0.78542500  0.20875400  1
  Si  Si10  1  0.78542500  0.00503300  0.45875400  1
  Si  Si11  1  0.21457500  0.99496700  0.95875400  1
  Si  Si12  1  0.99496700  0.21457500  0.29124600  1
  Si  Si13  1  0.00503300  0.78542500  0.79124600  1
  Si  Si14  1  0.21457500  0.00503300  0.54124600  1
  Si  Si15  1  0.78542500  0.99496700  0.04124600  1
  O  O0  1  0.82392200  0.69393400  0.69306800  1
  O  O1  1  0.17607800  0.30606600  0.19306800  1
  O  O2  1  0.30606600  0.82392200  0.44306800  1
  O  O3  1  0.69393400  0.17607800  0.94306800  1
  O  O4  1  0.17607800  0.69393400  0.30693200  1
  O  O5  1  0.82392200  0.30606600  0.80693200  1
  O  O6  1  0.69393400  0.82392200  0.55693200  1
  O  O7  1  0.30606600  0.17607800  0.05693200  1
  O  O8  1  0.18946600  0.69196800  0.69491200  1
  O  O9  1  0.81053400  0.30803200  0.19491200  1
  O  O10  1  0.30803200  0.18946600  0.44491200  1
  O  O11  1  0.69196800  0.81053400  0.94491200  1
  O  O12  1  0.81053400  0.69196800  0.30508800  1
  O  O13  1  0.18946600  0.30803200  0.80508800  1
  O  O14  1  0.69196800  0.18946600  0.55508800  1
  O  O15  1  0.30803200  0.81053400  0.05508800  1
  O  O16  1  0.99144000  0.75536000  0.75051700  1
  O  O17  1  0.00856000  0.24464000  0.25051700  1
  O  O18  1  0.24464000  0.99144000  0.50051700  1
  O  O19  1  0.75536000  0.00856000  0.00051700  1
  O  O20  1  0.00856000  0.75536000  0.24948300  1
  O  O21  1  0.99144000  0.24464000  0.74948300  1
  O  O22  1  0.75536000  0.99144000  0.49948300  1
  O  O23  1  0.24464000  0.00856000  0.99948300  1
  O  O24  1  0.00782400  0.99670600  0.70060200  1
  O  O25  1  0.99217600  0.00329400  0.20060200  1
  O  O26  1  0.00329400  0.00782400  0.45060200  1
  O  O27  1  0.99670600  0.99217600  0.95060200  1
  O  O28  1  0.99217600  0.99670600  0.29939800  1
  O  O29  1  0.00782400  0.00329400  0.79939800  1
  O  O30  1  0.99670600  0.00782400  0.54939800  1
  O  O31  1  0.00329400  0.99217600  0.04939800  1
  O  O32  1  0.82445300  0.29640700  0.69127000  1
  O  O33  1  0.17554700  0.70359300  0.19127000  1
  O  O34  1  0.70359300  0.82445300  0.44127000  1
  O  O35  1  0.29640700  0.17554700  0.94127000  1
  O  O36  1  0.17554700  0.29640700  0.30873000  1
  O  O37  1  0.82445300  0.70359300  0.80873000  1
  O  O38  1  0.29640700  0.82445300  0.55873000  1
  O  O39  1  0.70359300  0.17554700  0.05873000  1
  O  O40  1  0.18929800  0.29905500  0.69318200  1
  O  O41  1  0.81070200  0.70094500  0.19318200  1
  O  O42  1  0.70094500  0.18929800  0.44318200  1
  O  O43  1  0.29905500  0.81070200  0.94318200  1
  O  O44  1  0.81070200  0.29905500  0.30681800  1
  O  O45  1  0.18929800  0.70094500  0.80681800  1
  O  O46  1  0.29905500  0.18929800  0.55681800  1
  O  O47  1  0.70094500  0.81070200  0.05681800  1
  O  O48  1  0.69498100  0.32300400  0.62233700  1
  O  O49  1  0.30501900  0.67699600  0.12233700  1
  O  O50  1  0.67699600  0.69498100  0.37233700  1
  O  O51  1  0.32300400  0.30501900  0.87233700  1
  O  O52  1  0.30501900  0.32300400  0.37766300  1
  O  O53  1  0.69498100  0.67699600  0.87766300  1
  O  O54  1  0.32300400  0.69498100  0.62766300  1
  O  O55  1  0.67699600  0.30501900  0.12766300  1
  O  O56  1  0.51439300  0.49547900  0.67776800  1
  O  O57  1  0.48560700  0.50452100  0.17776800  1
  O  O58  1  0.50452100  0.51439300  0.42776800  1
  O  O59  1  0.49547900  0.48560700  0.92776800  1
  O  O60  1  0.48560700  0.49547900  0.32223200  1
  O  O61  1  0.51439300  0.50452100  0.82223200  1
  O  O62  1  0.49547900  0.51439300  0.57223200  1
  O  O63  1  0.50452100  0.48560700  0.07223200  1
  O  O64  1  0.32380900  0.32380900  0.62500000  1
  O  O65  1  0.67619100  0.67619100  0.12500000  1
  O  O66  1  0.67619100  0.32380900  0.37500000  1
  O  O67  1  0.32380900  0.67619100  0.87500000  1
  O  O68  1  0.01279000  0.49941900  0.64282800  1
  O  O69  1  0.98721000  0.50058100  0.14282800  1
  O  O70  1  0.50058100  0.01279000  0.39282800  1
  O  O71  1  0.49941900  0.98721000  0.89282800  1
  O  O72  1  0.98721000  0.49941900  0.35717200  1
  O  O73  1  0.01279000  0.50058100  0.85717200  1
  O  O74  1  0.49941900  0.01279000  0.60717200  1
  O  O75  1  0.50058100  0.98721000  0.10717200  1
  O  O76  1  0.69444000  0.69444000  0.62500000  1
  O  O77  1  0.30556000  0.30556000  0.12500000  1
  O  O78  1  0.30556000  0.69444000  0.37500000  1
  O  O79  1  0.69444000  0.30556000  0.87500000  1
  O  O80  1  0.39509100  0.91658000  0.74955200  1
  O  O81  1  0.60490900  0.08342000  0.24955200  1
  O  O82  1  0.08342000  0.39509100  0.49955200  1
  O  O83  1  0.91658000  0.60490900  0.99955200  1
  O  O84  1  0.60490900  0.91658000  0.25044800  1
  O  O85  1  0.39509100  0.08342000  0.75044800  1
  O  O86  1  0.91658000  0.39509100  0.50044800  1
  O  O87  1  0.08342000  0.60490900  0.00044800  1
loop_
_geom_bond_atom_site_label_1
_geom_bond_atom_site_label_2
_geom_bond_distance
_geom_bond_site_symmetry_2
Nb0 O56 1.892446 1_555
Nb0 O64 1.988521 1_555
Nb0 O54 2.011308 1_555
Nb0 O8 2.049122 1_555
Nb0 O40 2.052604 1_555
Nb0 O68 2.088836 1_555
Nb1 O57 1.892446 1_555
Nb1 O65 1.988521 1_555
Nb1 O55 2.011308 1_555
Nb1 O9 2.049122 1_555
Nb1 O41 2.052604 1_555
Nb1 O69 2.088836 1_555
Nb2 O58 1.892446 1_555
Nb2 O66 1.988521 1_555
Nb2 O52 2.011308 1_555
Nb2 O10 2.049122 1_555
Nb2 O42 2.052604 1_555
Nb2 O70 2.088836 1_555
Nb3 O59 1.892446 1_555
Nb3 O67 1.988521 1_555
Nb3 O53 2.011308 1_555
Nb3 O11 2.049122 1_555
Nb3 O43 2.052604 1_555
Nb3 O71 2.088836 1_555
Nb4 O60 1.892446 1_555
Nb4 O66 1.988521 1_555
Nb4 O50 2.011308 1_555
Nb4 O12 2.049122 1_555
Nb4 O44 2.052604 1_555
Nb4 O72 2.088836 1_555
Nb5 O61 1.892446 1_555
Nb5 O67 1.988521 1_555
Nb5 O51 2.011308 1_555
Nb5 O13 2.049122 1_555
Nb5 O45 2.052604 1_555
Nb5 O73 2.088836 1_555
Nb6 O62 1.892446 1_555
Nb6 O64 1.988521 1_555
Nb6 O48 2.011308 1_555
Nb6 O14 2.049122 1_555
Nb6 O46 2.052604 1_555
Nb6 O74 2.088836 1_555
Nb7 O63 1.892446 1_555
Nb7 O65 1.988521 1_555
Nb7 O49 2.011308 1_555
Nb7 O15 2.049122 1_555
Nb7 O47 2.052604 1_555
Nb7 O75 2.088836 1_555
Nb8 O68 1.879894 1_655
Nb8 O48 1.956338 1_555
Nb8 O76 1.979272 1_555
Nb8 O56 2.089440 1_555
Nb8 O0 2.100058 1_555
Nb8 O32 2.103043 1_555
Nb9 O69 1.879894 1_455
Nb9 O49 1.956338 1_555
Nb9 O77 1.979272 1_555
Nb9 O57 2.089440 1_555
Nb9 O1 2.100058 1_555
Nb9 O33 2.103043 1_555
Nb10 O70 1.879894 1_565
Nb10 O50 1.956338 1_555
Nb10 O78 1.979272 1_555
Nb10 O58 2.089440 1_555
Nb10 O2 2.100058 1_555
Nb10 O34 2.103043 1_555
Nb11 O71 1.879894 1_545
Nb11 O51 1.956338 1_555
Nb11 O79 1.979272 1_555
Nb11 O59 2.089440 1_555
Nb11 O3 2.100058 1_555
Nb11 O35 2.103043 1_555
Nb12 O72 1.879894 1_455
Nb12 O52 1.956338 1_555
Nb12 O78 1.979272 1_555
Nb12 O60 2.089440 1_555
Nb12 O4 2.100058 1_555
Nb12 O36 2.103043 1_555
Nb13 O73 1.879894 1_655
Nb13 O53 1.956338 1_555
Nb13 O79 1.979272 1_555
Nb13 O61 2.089440 1_555
Nb13 O5 2.100058 1_555
Nb13 O37 2.103043 1_555
Nb14 O74 1.879894 1_565
Nb14 O54 1.956338 1_555
Nb14 O76 1.979272 1_555
Nb14 O62 2.089440 1_555
Nb14 O6 2.100058 1_555
Nb14 O38 2.103043 1_555
Nb15 O75 1.879894 1_545
Nb15 O55 1.956338 1_555
Nb15 O77 1.979272 1_555
Nb15 O63 2.089440 1_555
Nb15 O7 2.100058 1_555
Nb15 O39 2.103043 1_555
O0 Si0 1.627877 1_655
O0 Rb12 3.044782 1_555
O1 Si1 1.627877 1_455
O1 Rb13 3.044782 1_555
O2 Si2 1.627877 1_565
O2 Rb14 3.044782 1_555
O3 Si3 1.627877 1_545
O3 Rb15 3.044782 1_556
O4 Si4 1.627877 1_455
O4 Rb13 3.044782 1_555
O5 Si5 1.627877 1_655
O5 Rb12 3.044782 1_555
O6 Si6 1.627877 1_565
O6 Rb14 3.044782 1_555
O7 Si7 1.627877 1_545
O7 Rb15 3.044782 1_555
O8 Si0 1.627908 1_555
O9 Si1 1.627908 1_555
O10 Si2 1.627908 1_555
O11 Si3 1.627908 1_555
O12 Si4 1.627908 1_555
O13 Si5 1.627908 1_555
O14 Si6 1.627908 1_555
O15 Si7 1.627908 1_555
O16 Si13 1.635096 1_655
O16 Si0 1.639128 1_655
O16 Rb12 3.292800 1_555
O17 Si12 1.635096 1_455
O17 Si1 1.639128 1_455
O17 Rb13 3.292800 1_555
O18 Si14 1.635096 1_565
O18 Si2 1.639128 1_565
O18 Rb14 3.292800 1_555
O19 Si15 1.635096 1_545
O19 Si3 1.639128 1_544
O19 Rb15 3.292800 1_555
O20 Si9 1.635096 1_455
O20 Si4 1.639128 1_455
O20 Rb13 3.292800 1_555
O21 Si8 1.635096 1_655
O21 Si5 1.639128 1_655
O21 Rb12 3.292800 1_555
O22 Si10 1.635096 1_565
O22 Si6 1.639128 1_565
O22 Rb14 3.292800 1_555
O23 Si11 1.635096 1_545
O23 Si7 1.639128 1_546
O23 Rb15 3.292800 1_556
O24 Si0 1.651801 1_555
O24 Si8 1.652860 1_565
O24 Rb8 3.019326 1_565
O25 Si1 1.651801 1_555
O25 Si9 1.652860 1_545
O25 Rb9 3.019326 1_545
O26 Si2 1.651801 1_555
O26 Si10 1.652860 1_455
O26 Rb10 3.019326 1_455
O27 Si3 1.651801 1_555
O27 Si11 1.652860 1_655
O27 Rb11 3.019326 1_655
O28 Si4 1.651801 1_555
O28 Si12 1.652860 1_565
O28 Rb10 3.019326 1_565
O29 Si5 1.651801 1_555
O29 Si13 1.652860 1_545
O29 Rb11 3.019326 1_545
O30 Si6 1.651801 1_555
O30 Si14 1.652860 1_655
O30 Rb8 3.019326 1_655
O31 Si7 1.651801 1_555
O31 Si15 1.652860 1_455
O31 Rb9 3.019326 1_455
O32 Si8 1.629954 1_655
O32 Rb6 3.066878 1_555
O32 Rb12 3.134042 1_555
O33 Si9 1.629954 1_455
O33 Rb7 3.066878 1_555
O33 Rb13 3.134042 1_555
O34 Si10 1.629954 1_565
O34 Rb4 3.066878 1_555
O34 Rb14 3.134042 1_555
O35 Si11 1.629954 1_545
O35 Rb5 3.066878 1_555
O35 Rb15 3.134042 1_556
O36 Si12 1.629954 1_455
O36 Rb2 3.066878 1_555
O36 Rb13 3.134042 1_555
O37 Si13 1.629954 1_655
O37 Rb3 3.066878 1_555
O37 Rb12 3.134042 1_555
O38 Si14 1.629954 1_565
O38 Rb0 3.066878 1_555
O38 Rb14 3.134042 1_555
O39 Si15 1.629954 1_545
O39 Rb1 3.066878 1_555
O39 Rb15 3.134042 1_555
O40 Si8 1.629710 1_555
O41 Si9 1.629710 1_555
O42 Si10 1.629710 1_555
O43 Si11 1.629710 1_555
O44 Si12 1.629710 1_555
O45 Si13 1.629710 1_555
O46 Si14 1.629710 1_555
O47 Si15 1.629710 1_555
O48 Rb8 3.315361 1_655
O49 Rb9 3.315361 1_455
O50 Rb10 3.315361 1_565
O51 Rb11 3.315361 1_545
O52 Rb10 3.315361 1_455
O53 Rb11 3.315361 1_655
O54 Rb8 3.315361 1_565
O55 Rb9 3.315361 1_545
O56 Rb12 2.993142 1_555
O57 Rb13 2.993142 1_555
O58 Rb14 2.993142 1_555
O59 Rb15 2.993142 1_556
O60 Rb13 2.993142 1_555
O61 Rb12 2.993142 1_555
O62 Rb14 2.993142 1_555
O63 Rb15 2.993142 1_555
O64 Rb8 3.053134 1_555
O65 Rb9 3.053134 1_555
O66 Rb10 3.053134 1_555
O67 Rb11 3.053134 1_555
O68 Rb0 2.796433 1_555
O69 Rb1 2.796433 1_555
O70 Rb2 2.796433 1_555
O71 Rb3 2.796433 1_555
O72 Rb4 2.796433 1_555
O73 Rb5 2.796433 1_555
O74 Rb6 2.796433 1_555
O75 Rb7 2.796433 1_555
O80 O85 1.241648 1_565
O80 Rb3 3.129179 1_555
O80 Rb6 3.132783 1_565
O80 Rb12 3.557421 1_555
O81 O84 1.241648 1_545
O81 Rb2 3.129179 1_555
O81 Rb7 3.132783 1_545
O81 Rb13 3.557421 1_555
O82 O86 1.241648 1_455
O82 Rb0 3.129179 1_555
O82 Rb4 3.132783 1_455
O82 Rb14 3.557421 1_555
O83 O87 1.241648 1_656
O83 Rb1 3.129179 1_556
O83 Rb5 3.132783 1_655
O83 Rb15 3.557421 1_556
O84 Rb7 3.129179 1_555
O84 Rb2 3.132783 1_565
O84 Rb13 3.557421 1_555
O85 Rb6 3.129179 1_555
O85 Rb3 3.132783 1_545
O85 Rb12 3.557421 1_555
O86 Rb4 3.129179 1_555
O86 Rb0 3.132783 1_655
O86 Rb14 3.557421 1_555
O87 Rb5 3.129179 1_554
O87 Rb1 3.132783 1_455
O87 Rb15 3.557421 1_555
