# generated using pymatgen
data_Sc57Ru13
_symmetry_space_group_name_H-M   'P 1'
_cell_length_a   14.41344849
_cell_length_b   14.41344849
_cell_length_c   14.41344849
_cell_angle_alpha   90.00000000
_cell_angle_beta   90.00000000
_cell_angle_gamma   90.00000000
_symmetry_Int_Tables_number   1
_chemical_formula_structural   Sc57Ru13
_chemical_formula_sum   'Sc114 Ru26'
_cell_volume   2994.35785232
_cell_formula_units_Z   2
loop_
 _symmetry_equiv_pos_site_id
 _symmetry_equiv_pos_as_xyz
  1  'x, y, z'
loop_
 _atom_site_type_symbol
 _atom_site_label
 _atom_site_symmetry_multiplicity
 _atom_site_fract_x
 _atom_site_fract_y
 _atom_site_fract_z
 _atom_site_occupancy
  Sc  Sc0  1  0.20239636  0.38795834  0.30992656  1
  Sc  Sc1  1  0.79760364  0.61204166  0.69007344  1
  Sc  Sc2  1  0.79760364  0.61204166  0.30992656  1
  Sc  Sc3  1  0.79760364  0.38795834  0.69007344  1
  Sc  Sc4  1  0.30992656  0.20239636  0.38795834  1
  Sc  Sc5  1  0.20239636  0.38795834  0.69007344  1
  Sc  Sc6  1  0.20239636  0.61204166  0.30992656  1
  Sc  Sc7  1  0.69007344  0.79760364  0.61204166  1
  Sc  Sc8  1  0.20239636  0.61204166  0.69007344  1
  Sc  Sc9  1  0.30992656  0.79760364  0.61204166  1
  Sc  Sc10  1  0.79760364  0.38795834  0.30992656  1
  Sc  Sc11  1  0.69007344  0.20239636  0.38795834  1
  Sc  Sc12  1  0.69007344  0.79760364  0.38795834  1
  Sc  Sc13  1  0.30992656  0.20239636  0.61204166  1
  Sc  Sc14  1  0.69007344  0.20239636  0.61204166  1
  Sc  Sc15  1  0.30992656  0.79760364  0.38795834  1
  Sc  Sc16  1  0.38795834  0.30992656  0.20239636  1
  Sc  Sc17  1  0.61204166  0.69007344  0.79760364  1
  Sc  Sc18  1  0.38795834  0.69007344  0.79760364  1
  Sc  Sc19  1  0.61204166  0.30992656  0.20239636  1
  Sc  Sc20  1  0.61204166  0.69007344  0.20239636  1
  Sc  Sc21  1  0.38795834  0.30992656  0.79760364  1
  Sc  Sc22  1  0.61204166  0.30992656  0.79760364  1
  Sc  Sc23  1  0.38795834  0.69007344  0.20239636  1
  Sc  Sc24  1  0.27207929  0.00000000  0.50000000  1
  Sc  Sc25  1  0.72792071  -0.00000000  0.50000000  1
  Sc  Sc26  1  0.50000000  0.27207929  -0.00000000  1
  Sc  Sc27  1  0.50000000  0.72792071  -0.00000000  1
  Sc  Sc28  1  0.00000000  0.50000000  0.27207929  1
  Sc  Sc29  1  0.00000000  0.50000000  0.72792071  1
  Sc  Sc30  1  0.50000000  0.32143116  0.39174134  1
  Sc  Sc31  1  0.50000000  0.67856884  0.60825866  1
  Sc  Sc32  1  0.50000000  0.67856884  0.39174134  1
  Sc  Sc33  1  0.50000000  0.32143116  0.60825866  1
  Sc  Sc34  1  0.39174134  0.50000000  0.32143116  1
  Sc  Sc35  1  0.60825866  0.50000000  0.67856884  1
  Sc  Sc36  1  0.39174134  0.50000000  0.67856884  1
  Sc  Sc37  1  0.60825866  0.50000000  0.32143116  1
  Sc  Sc38  1  0.32143116  0.39174134  0.50000000  1
  Sc  Sc39  1  0.67856884  0.60825866  0.50000000  1
  Sc  Sc40  1  0.32143116  0.60825866  0.50000000  1
  Sc  Sc41  1  0.67856884  0.39174134  0.50000000  1
  Sc  Sc42  1  0.50000000  0.10830959  0.13308906  1
  Sc  Sc43  1  0.50000000  0.89169041  0.86691094  1
  Sc  Sc44  1  0.50000000  0.89169041  0.13308906  1
  Sc  Sc45  1  0.50000000  0.10830959  0.86691094  1
  Sc  Sc46  1  0.13308906  0.50000000  0.10830959  1
  Sc  Sc47  1  0.86691094  0.50000000  0.89169041  1
  Sc  Sc48  1  0.13308906  0.50000000  0.89169041  1
  Sc  Sc49  1  0.86691094  0.50000000  0.10830959  1
  Sc  Sc50  1  0.10830959  0.13308906  0.50000000  1
  Sc  Sc51  1  0.89169041  0.86691094  0.50000000  1
  Sc  Sc52  1  0.10830959  0.86691094  0.50000000  1
  Sc  Sc53  1  0.89169041  0.13308906  0.50000000  1
  Sc  Sc54  1  0.11468319  0.18003679  0.29179170  1
  Sc  Sc55  1  0.88531681  0.81996321  0.70820830  1
  Sc  Sc56  1  0.88531681  0.81996321  0.29179170  1
  Sc  Sc57  1  0.88531681  0.18003679  0.70820830  1
  Sc  Sc58  1  0.29179170  0.11468319  0.18003679  1
  Sc  Sc59  1  0.11468319  0.18003679  0.70820830  1
  Sc  Sc60  1  0.11468319  0.81996321  0.29179170  1
  Sc  Sc61  1  0.70820830  0.88531681  0.81996321  1
  Sc  Sc62  1  0.11468319  0.81996321  0.70820830  1
  Sc  Sc63  1  0.29179170  0.88531681  0.81996321  1
  Sc  Sc64  1  0.88531681  0.18003679  0.29179170  1
  Sc  Sc65  1  0.70820830  0.11468319  0.18003679  1
  Sc  Sc66  1  0.70820830  0.88531681  0.18003679  1
  Sc  Sc67  1  0.29179170  0.11468319  0.81996321  1
  Sc  Sc68  1  0.70820830  0.11468319  0.81996321  1
  Sc  Sc69  1  0.29179170  0.88531681  0.18003679  1
  Sc  Sc70  1  0.18003679  0.29179170  0.11468319  1
  Sc  Sc71  1  0.81996321  0.70820830  0.88531681  1
  Sc  Sc72  1  0.18003679  0.70820830  0.88531681  1
  Sc  Sc73  1  0.81996321  0.29179170  0.11468319  1
  Sc  Sc74  1  0.81996321  0.70820830  0.11468319  1
  Sc  Sc75  1  0.18003679  0.29179170  0.88531681  1
  Sc  Sc76  1  0.81996321  0.29179170  0.88531681  1
  Sc  Sc77  1  0.18003679  0.70820830  0.11468319  1
  Sc  Sc78  1  0.00000000  0.32371829  0.39679794  1
  Sc  Sc79  1  0.00000000  0.67628171  0.60320206  1
  Sc  Sc80  1  0.00000000  0.67628171  0.39679794  1
  Sc  Sc81  1  0.00000000  0.32371829  0.60320206  1
  Sc  Sc82  1  0.39679794  -0.00000000  0.32371829  1
  Sc  Sc83  1  0.60320206  0.00000000  0.67628171  1
  Sc  Sc84  1  0.39679794  0.00000000  0.67628171  1
  Sc  Sc85  1  0.60320206  -0.00000000  0.32371829  1
  Sc  Sc86  1  0.32371829  0.39679794  0.00000000  1
  Sc  Sc87  1  0.67628171  0.60320206  -0.00000000  1
  Sc  Sc88  1  0.32371829  0.60320206  0.00000000  1
  Sc  Sc89  1  0.67628171  0.39679794  -0.00000000  1
  Sc  Sc90  1  0.12651605  0.50000000  0.50000000  1
  Sc  Sc91  1  0.87348395  0.50000000  0.50000000  1
  Sc  Sc92  1  0.50000000  0.12651605  0.50000000  1
  Sc  Sc93  1  0.50000000  0.87348395  0.50000000  1
  Sc  Sc94  1  0.50000000  0.50000000  0.12651605  1
  Sc  Sc95  1  0.50000000  0.50000000  0.87348395  1
  Sc  Sc96  1  0.00000000  0.17525247  0.10957694  1
  Sc  Sc97  1  0.00000000  0.82474753  0.89042306  1
  Sc  Sc98  1  0.00000000  0.82474753  0.10957694  1
  Sc  Sc99  1  0.00000000  0.17525247  0.89042306  1
  Sc  Sc100  1  0.10957694  0.00000000  0.17525247  1
  Sc  Sc101  1  0.89042306  0.00000000  0.82474753  1
  Sc  Sc102  1  0.10957694  0.00000000  0.82474753  1
  Sc  Sc103  1  0.89042306  -0.00000000  0.17525247  1
  Sc  Sc104  1  0.17525247  0.10957694  -0.00000000  1
  Sc  Sc105  1  0.82474753  0.89042306  0.00000000  1
  Sc  Sc106  1  0.17525247  0.89042306  -0.00000000  1
  Sc  Sc107  1  0.82474753  0.10957694  -0.00000000  1
  Sc  Sc108  1  0.36250903  -0.00000000  0.00000000  1
  Sc  Sc109  1  0.63749097  0.00000000  0.00000000  1
  Sc  Sc110  1  0.00000000  0.36250903  0.00000000  1
  Sc  Sc111  1  0.00000000  0.63749097  -0.00000000  1
  Sc  Sc112  1  0.00000000  0.00000000  0.36250903  1
  Sc  Sc113  1  0.00000000  -0.00000000  0.63749097  1
  Ru  Ru0  1  0.00000000  0.33315800  0.20284568  1
  Ru  Ru1  1  0.00000000  0.66684200  0.79715432  1
  Ru  Ru2  1  0.00000000  0.66684200  0.20284568  1
  Ru  Ru3  1  0.00000000  0.33315800  0.79715432  1
  Ru  Ru4  1  0.20284568  0.00000000  0.33315800  1
  Ru  Ru5  1  0.79715432  -0.00000000  0.66684200  1
  Ru  Ru6  1  0.20284568  -0.00000000  0.66684200  1
  Ru  Ru7  1  0.79715432  0.00000000  0.33315800  1
  Ru  Ru8  1  0.33315800  0.20284568  0.00000000  1
  Ru  Ru9  1  0.66684200  0.79715432  0.00000000  1
  Ru  Ru10  1  0.33315800  0.79715432  -0.00000000  1
  Ru  Ru11  1  0.66684200  0.20284568  0.00000000  1
  Ru  Ru12  1  0.50000000  0.50000000  0.50000000  1
  Ru  Ru13  1  0.50000000  0.16678632  0.29980874  1
  Ru  Ru14  1  0.50000000  0.83321368  0.70019126  1
  Ru  Ru15  1  0.50000000  0.83321368  0.29980874  1
  Ru  Ru16  1  0.50000000  0.16678632  0.70019126  1
  Ru  Ru17  1  0.29980874  0.50000000  0.16678632  1
  Ru  Ru18  1  0.70019126  0.50000000  0.83321368  1
  Ru  Ru19  1  0.29980874  0.50000000  0.83321368  1
  Ru  Ru20  1  0.70019126  0.50000000  0.16678632  1
  Ru  Ru21  1  0.16678632  0.29980874  0.50000000  1
  Ru  Ru22  1  0.83321368  0.70019126  0.50000000  1
  Ru  Ru23  1  0.16678632  0.70019126  0.50000000  1
  Ru  Ru24  1  0.83321368  0.29980874  0.50000000  1
  Ru  Ru25  1  0.00000000  -0.00000000  -0.00000000  1
loop_
_geom_bond_atom_site_label_1
_geom_bond_atom_site_label_2
_geom_bond_distance
_geom_bond_site_symmetry_2
Sc0 Sc70 3.153482 1_555
Sc0 Sc34 3.175450 1_555
Sc0 Sc6 3.229813 1_555
Sc0 Sc38 3.232969 1_555
Sc0 Sc54 3.263106 1_555
Sc0 Sc16 3.289456 1_555
Sc0 Sc4 3.289456 1_555
Sc0 Sc78 3.306864 1_555
Sc0 Sc90 3.362972 1_555
Sc0 Sc28 3.378718 1_555
Sc0 Sc46 3.471405 1_555
Sc1 Sc71 3.153482 1_555
Sc1 Sc35 3.175450 1_555
Sc1 Sc3 3.229813 1_555
Sc1 Sc39 3.232969 1_555
Sc1 Sc55 3.263106 1_555
Sc1 Sc17 3.289456 1_555
Sc1 Sc7 3.289456 1_555
Sc1 Sc79 3.306864 1_655
Sc1 Sc91 3.362972 1_555
Sc1 Sc29 3.378718 1_655
Sc1 Sc47 3.471405 1_555
Sc2 Sc74 3.153482 1_555
Sc2 Sc37 3.175450 1_555
Sc2 Sc39 3.232969 1_555
Sc2 Sc56 3.263106 1_555
Sc2 Sc20 3.289456 1_555
Sc2 Sc80 3.306864 1_655
Sc2 Sc91 3.362972 1_555
Sc2 Sc28 3.378718 1_655
Sc2 Sc49 3.471405 1_555
Sc3 Sc76 3.153482 1_555
Sc3 Sc35 3.175450 1_555
Sc3 Sc41 3.232969 1_555
Sc3 Sc57 3.263106 1_555
Sc3 Sc81 3.306864 1_655
Sc3 Sc91 3.362972 1_555
Sc3 Sc47 3.471405 1_555
Sc4 Sc54 3.153482 1_555
Sc4 Sc58 3.263106 1_555
Sc4 Sc82 3.306864 1_555
Sc4 Sc92 3.362972 1_555
Sc4 Sc50 3.471405 1_555
Sc5 Sc75 3.153482 1_555
Sc5 Sc8 3.229813 1_555
Sc5 Sc59 3.263106 1_555
Sc5 Sc81 3.306864 1_555
Sc5 Sc90 3.362972 1_555
Sc6 Sc77 3.153482 1_555
Sc6 Sc60 3.263106 1_555
Sc6 Sc80 3.306864 1_555
Sc6 Sc90 3.362972 1_555
Sc7 Sc83 3.306864 1_565
Sc7 Sc93 3.362972 1_555
Sc8 Sc9 3.289456 1_555
Sc8 Sc90 3.362972 1_555
Sc9 Sc93 3.362972 1_555
Sc10 Sc73 3.153482 1_555
Sc10 Sc37 3.175450 1_555
Sc10 Sc2 3.229813 1_555
Sc10 Sc41 3.232969 1_555
Sc10 Sc64 3.263106 1_555
Sc10 Sc11 3.289456 1_555
Sc10 Sc19 3.289456 1_555
Sc10 Sc78 3.306864 1_655
Sc10 Sc91 3.362972 1_555
Sc10 Sc28 3.378718 1_655
Sc10 Sc49 3.471405 1_555
Sc11 Sc64 3.153482 1_555
Sc11 Sc41 3.175450 1_555
Sc11 Sc14 3.229813 1_555
Sc11 Sc30 3.232969 1_555
Sc11 Sc65 3.263106 1_555
Sc11 Sc19 3.289456 1_555
Sc11 Sc85 3.306864 1_555
Sc11 Sc92 3.362972 1_555
Sc11 Sc25 3.378718 1_555
Sc11 Sc53 3.471405 1_555
Sc12 Sc56 3.153482 1_555
Sc12 Sc39 3.175450 1_555
Sc12 Sc7 3.229813 1_555
Sc12 Sc32 3.232969 1_555
Sc12 Sc66 3.263106 1_555
Sc12 Sc2 3.289456 1_555
Sc12 Sc20 3.289456 1_555
Sc12 Sc85 3.306864 1_565
Sc12 Sc93 3.362972 1_555
Sc12 Sc25 3.378718 1_565
Sc12 Sc51 3.471405 1_555
Sc13 Sc59 3.153482 1_555
Sc13 Sc38 3.175450 1_555
Sc13 Sc4 3.229813 1_555
Sc13 Sc33 3.232969 1_555
Sc13 Sc67 3.263106 1_555
Sc13 Sc5 3.289456 1_555
Sc13 Sc21 3.289456 1_555
Sc13 Sc84 3.306864 1_555
Sc13 Sc92 3.362972 1_555
Sc13 Sc24 3.378718 1_555
Sc13 Sc50 3.471405 1_555
Sc14 Sc57 3.153482 1_555
Sc14 Sc41 3.175450 1_555
Sc14 Sc33 3.232969 1_555
Sc14 Sc68 3.263106 1_555
Sc14 Sc3 3.289456 1_555
Sc14 Sc22 3.289456 1_555
Sc14 Sc83 3.306864 1_555
Sc14 Sc92 3.362972 1_555
Sc14 Sc25 3.378718 1_555
Sc14 Sc53 3.471405 1_555
Sc15 Sc60 3.153482 1_555
Sc15 Sc40 3.175450 1_555
Sc15 Sc9 3.229813 1_555
Sc15 Sc32 3.232969 1_555
Sc15 Sc69 3.263106 1_555
Sc15 Sc6 3.289456 1_555
Sc15 Sc23 3.289456 1_555
Sc15 Sc82 3.306864 1_565
Sc15 Sc93 3.362972 1_555
Sc15 Sc24 3.378718 1_565
Sc15 Sc52 3.471405 1_555
Sc16 Sc58 3.153482 1_555
Sc16 Sc30 3.175450 1_555
Sc16 Sc19 3.229813 1_555
Sc16 Sc34 3.232969 1_555
Sc16 Sc70 3.263106 1_555
Sc16 Sc4 3.289456 1_555
Sc16 Sc86 3.306864 1_555
Sc16 Sc94 3.362972 1_555
Sc16 Sc26 3.378718 1_555
Sc16 Sc42 3.471405 1_555
Sc17 Sc61 3.153482 1_555
Sc17 Sc31 3.175450 1_555
Sc17 Sc18 3.229813 1_555
Sc17 Sc35 3.232969 1_555
Sc17 Sc71 3.263106 1_555
Sc17 Sc7 3.289456 1_555
Sc17 Sc87 3.306864 1_556
Sc17 Sc95 3.362972 1_555
Sc17 Sc27 3.378718 1_556
Sc17 Sc43 3.471405 1_555
Sc18 Sc63 3.153482 1_555
Sc18 Sc31 3.175450 1_555
Sc18 Sc36 3.232969 1_555
Sc18 Sc72 3.263106 1_555
Sc18 Sc9 3.289456 1_555
Sc18 Sc8 3.289456 1_555
Sc18 Sc88 3.306864 1_556
Sc18 Sc95 3.362972 1_555
Sc18 Sc27 3.378718 1_556
Sc18 Sc43 3.471405 1_555
Sc19 Sc65 3.153482 1_555
Sc19 Sc30 3.175450 1_555
Sc19 Sc37 3.232969 1_555
Sc19 Sc73 3.263106 1_555
Sc19 Sc89 3.306864 1_555
Sc19 Sc94 3.362972 1_555
Sc19 Sc26 3.378718 1_555
Sc19 Sc42 3.471405 1_555
Sc20 Sc66 3.153482 1_555
Sc20 Sc32 3.175450 1_555
Sc20 Sc23 3.229813 1_555
Sc20 Sc37 3.232969 1_555
Sc20 Sc74 3.263106 1_555
Sc20 Sc87 3.306864 1_555
Sc20 Sc94 3.362972 1_555
Sc20 Sc27 3.378718 1_555
Sc20 Sc44 3.471405 1_555
Sc21 Sc67 3.153482 1_555
Sc21 Sc33 3.175450 1_555
Sc21 Sc22 3.229813 1_555
Sc21 Sc36 3.232969 1_555
Sc21 Sc75 3.263106 1_555
Sc21 Sc5 3.289456 1_555
Sc21 Sc86 3.306864 1_556
Sc21 Sc95 3.362972 1_555
Sc21 Sc26 3.378718 1_556
Sc21 Sc45 3.471405 1_555
Sc22 Sc68 3.153482 1_555
Sc22 Sc33 3.175450 1_555
Sc22 Sc35 3.232969 1_555
Sc22 Sc76 3.263106 1_555
Sc22 Sc3 3.289456 1_555
Sc22 Sc89 3.306864 1_556
Sc22 Sc95 3.362972 1_555
Sc22 Sc26 3.378718 1_556
Sc22 Sc45 3.471405 1_555
Sc23 Sc69 3.153482 1_555
Sc23 Sc32 3.175450 1_555
Sc23 Sc34 3.232969 1_555
Sc23 Sc77 3.263106 1_555
Sc23 Sc6 3.289456 1_555
Sc23 Sc88 3.306864 1_555
Sc23 Sc94 3.362972 1_555
Sc23 Sc27 3.378718 1_555
Sc23 Sc44 3.471405 1_555
Sc24 Sc82 3.112437 1_555
Sc24 Sc84 3.112437 1_555
Sc24 Sc9 3.378718 1_545
Sc24 Sc4 3.378718 1_555
Sc24 Sc92 3.757300 1_555
Sc24 Sc93 3.757300 1_545
Sc25 Sc85 3.112437 1_555
Sc25 Sc83 3.112437 1_555
Sc25 Sc7 3.378718 1_545
Sc25 Sc93 3.757300 1_545
Sc25 Sc92 3.757300 1_555
Sc26 Sc86 3.112437 1_555
Sc26 Sc89 3.112437 1_555
Sc26 Sc95 3.757300 1_554
Sc26 Sc94 3.757300 1_555
Sc27 Sc88 3.112437 1_555
Sc27 Sc87 3.112437 1_555
Sc27 Sc94 3.757300 1_555
Sc27 Sc95 3.757300 1_554
Sc28 Sc78 3.112437 1_555
Sc28 Sc80 3.112437 1_555
Sc28 Sc6 3.378718 1_555
Sc28 Sc90 3.757300 1_555
Sc28 Sc91 3.757300 1_455
Sc29 Sc81 3.112437 1_555
Sc29 Sc79 3.112437 1_555
Sc29 Sc3 3.378718 1_455
Sc29 Sc8 3.378718 1_555
Sc29 Sc5 3.378718 1_555
Sc29 Sc91 3.757300 1_455
Sc29 Sc90 3.757300 1_555
Sc30 Sc33 3.120761 1_555
Sc30 Sc34 3.175878 1_555
Sc30 Sc37 3.175878 1_555
Sc30 Sc38 3.175878 1_555
Sc30 Sc41 3.175878 1_555
Sc30 Sc92 3.213644 1_555
Sc30 Sc4 3.232969 1_555
Sc31 Sc32 3.120761 1_555
Sc31 Sc40 3.175878 1_555
Sc31 Sc39 3.175878 1_555
Sc31 Sc35 3.175878 1_555
Sc31 Sc36 3.175878 1_555
Sc31 Sc93 3.213644 1_555
Sc31 Sc9 3.232969 1_555
Sc31 Sc7 3.232969 1_555
Sc32 Sc40 3.175878 1_555
Sc32 Sc39 3.175878 1_555
Sc32 Sc37 3.175878 1_555
Sc32 Sc34 3.175878 1_555
Sc32 Sc93 3.213644 1_555
Sc33 Sc36 3.175878 1_555
Sc33 Sc38 3.175878 1_555
Sc33 Sc35 3.175878 1_555
Sc33 Sc41 3.175878 1_555
Sc33 Sc92 3.213644 1_555
Sc34 Sc37 3.120761 1_555
Sc34 Sc6 3.175450 1_555
Sc34 Sc38 3.175878 1_555
Sc34 Sc40 3.175878 1_555
Sc34 Sc94 3.213644 1_555
Sc35 Sc36 3.120761 1_555
Sc35 Sc41 3.175878 1_555
Sc35 Sc39 3.175878 1_555
Sc35 Sc95 3.213644 1_555
Sc36 Sc5 3.175450 1_555
Sc36 Sc8 3.175450 1_555
Sc36 Sc40 3.175878 1_555
Sc36 Sc38 3.175878 1_555
Sc36 Sc95 3.213644 1_555
Sc37 Sc41 3.175878 1_555
Sc37 Sc39 3.175878 1_555
Sc37 Sc94 3.213644 1_555
Sc38 Sc40 3.120761 1_555
Sc38 Sc4 3.175450 1_555
Sc38 Sc90 3.213644 1_555
Sc38 Sc5 3.232969 1_555
Sc39 Sc41 3.120761 1_555
Sc39 Sc7 3.175450 1_555
Sc39 Sc91 3.213644 1_555
Sc40 Sc9 3.175450 1_555
Sc40 Sc90 3.213644 1_555
Sc40 Sc6 3.232969 1_555
Sc40 Sc8 3.232969 1_555
Sc41 Sc91 3.213644 1_555
Sc42 Sc65 3.077715 1_555
Sc42 Sc58 3.077715 1_555
Sc42 Sc82 3.492731 1_555
Sc42 Sc85 3.492731 1_555
Sc43 Sc63 3.077715 1_555
Sc43 Sc61 3.077715 1_555
Sc43 Sc83 3.492731 1_565
Sc43 Sc84 3.492731 1_565
Sc44 Sc66 3.077715 1_555
Sc44 Sc69 3.077715 1_555
Sc44 Sc85 3.492731 1_565
Sc44 Sc82 3.492731 1_565
Sc45 Sc68 3.077715 1_555
Sc45 Sc67 3.077715 1_555
Sc45 Sc83 3.492731 1_555
Sc45 Sc84 3.492731 1_555
Sc46 Sc77 3.077715 1_555
Sc46 Sc70 3.077715 1_555
Sc46 Sc6 3.471405 1_555
Sc46 Sc86 3.492731 1_555
Sc46 Sc88 3.492731 1_555
Sc47 Sc76 3.077715 1_555
Sc47 Sc71 3.077715 1_555
Sc47 Sc89 3.492731 1_556
Sc47 Sc87 3.492731 1_556
Sc48 Sc75 3.077715 1_555
Sc48 Sc72 3.077715 1_555
Sc48 Sc5 3.471405 1_555
Sc48 Sc8 3.471405 1_555
Sc48 Sc88 3.492731 1_556
Sc48 Sc86 3.492731 1_556
Sc49 Sc74 3.077715 1_555
Sc49 Sc73 3.077715 1_555
Sc49 Sc87 3.492731 1_555
Sc49 Sc89 3.492731 1_555
Sc50 Sc54 3.077715 1_555
Sc50 Sc59 3.077715 1_555
Sc50 Sc78 3.492731 1_555
Sc50 Sc81 3.492731 1_555
Sc51 Sc56 3.077715 1_555
Sc51 Sc55 3.077715 1_555
Sc51 Sc7 3.471405 1_555
Sc51 Sc79 3.492731 1_655
Sc51 Sc80 3.492731 1_655
Sc52 Sc60 3.077715 1_555
Sc52 Sc62 3.077715 1_555
Sc52 Sc9 3.471405 1_555
Sc52 Sc80 3.492731 1_555
Sc52 Sc79 3.492731 1_555
Sc53 Sc57 3.077715 1_555
Sc53 Sc64 3.077715 1_555
Sc53 Sc81 3.492731 1_655
Sc53 Sc78 3.492731 1_655
Sc54 Sc78 3.051532 1_555
Sc54 Sc96 3.103994 1_555
Sc54 Sc58 3.162025 1_555
Sc54 Sc70 3.162025 1_555
Sc54 Sc64 3.305961 1_455
Sc55 Sc79 3.051532 1_655
Sc55 Sc97 3.103994 1_655
Sc55 Sc7 3.153482 1_555
Sc55 Sc61 3.162025 1_555
Sc55 Sc71 3.162025 1_555
Sc55 Sc62 3.305961 1_655
Sc56 Sc80 3.051532 1_655
Sc56 Sc98 3.103994 1_655
Sc56 Sc74 3.162025 1_555
Sc56 Sc66 3.162025 1_555
Sc56 Sc60 3.305961 1_655
Sc57 Sc81 3.051532 1_655
Sc57 Sc99 3.103994 1_655
Sc57 Sc76 3.162025 1_555
Sc57 Sc68 3.162025 1_555
Sc57 Sc59 3.305961 1_655
Sc58 Sc82 3.051532 1_555
Sc58 Sc70 3.162025 1_555
Sc58 Sc69 3.305961 1_545
Sc59 Sc81 3.051532 1_555
Sc59 Sc99 3.103994 1_555
Sc59 Sc67 3.162025 1_555
Sc59 Sc75 3.162025 1_555
Sc60 Sc80 3.051532 1_555
Sc60 Sc98 3.103994 1_555
Sc60 Sc69 3.162025 1_555
Sc60 Sc77 3.162025 1_555
Sc61 Sc83 3.051532 1_565
Sc61 Sc71 3.162025 1_555
Sc61 Sc7 3.263106 1_555
Sc61 Sc68 3.305961 1_565
Sc62 Sc79 3.051532 1_555
Sc62 Sc97 3.103994 1_555
Sc62 Sc9 3.153482 1_555
Sc62 Sc63 3.162025 1_555
Sc62 Sc72 3.162025 1_555
Sc62 Sc8 3.263106 1_555
Sc63 Sc84 3.051532 1_565
Sc63 Sc72 3.162025 1_555
Sc63 Sc9 3.263106 1_555
Sc63 Sc67 3.305961 1_565
Sc64 Sc78 3.051532 1_655
Sc64 Sc96 3.103994 1_655
Sc64 Sc73 3.162025 1_555
Sc64 Sc65 3.162025 1_555
Sc65 Sc85 3.051532 1_555
Sc65 Sc73 3.162025 1_555
Sc65 Sc66 3.305961 1_545
Sc66 Sc85 3.051532 1_565
Sc66 Sc74 3.162025 1_555
Sc67 Sc84 3.051532 1_555
Sc67 Sc75 3.162025 1_555
Sc68 Sc83 3.051532 1_555
Sc68 Sc76 3.162025 1_555
Sc69 Sc82 3.051532 1_565
Sc69 Sc77 3.162025 1_555
Sc70 Sc86 3.051532 1_555
Sc70 Sc96 3.092036 1_555
Sc70 Sc75 3.305961 1_554
Sc71 Sc87 3.051532 1_556
Sc71 Sc97 3.092036 1_655
Sc71 Sc74 3.305961 1_556
Sc72 Sc88 3.051532 1_556
Sc72 Sc97 3.092036 1_555
Sc72 Sc8 3.153482 1_555
Sc72 Sc77 3.305961 1_556
Sc73 Sc89 3.051532 1_555
Sc73 Sc96 3.092036 1_655
Sc73 Sc76 3.305961 1_554
Sc74 Sc87 3.051532 1_555
Sc74 Sc98 3.092036 1_655
Sc75 Sc86 3.051532 1_556
Sc75 Sc99 3.092036 1_555
Sc76 Sc89 3.051532 1_556
Sc76 Sc99 3.092036 1_655
Sc77 Sc88 3.051532 1_555
Sc77 Sc98 3.092036 1_555
Sc78 Sc81 2.974995 1_555
Sc78 Sc90 3.463196 1_555
Sc78 Sc91 3.463196 1_455
Sc79 Sc80 2.974995 1_555
Sc79 Sc8 3.306864 1_555
Sc79 Sc90 3.463196 1_555
Sc79 Sc91 3.463196 1_455
Sc80 Sc90 3.463196 1_555
Sc80 Sc91 3.463196 1_455
Sc81 Sc90 3.463196 1_555
Sc81 Sc91 3.463196 1_455
Sc82 Sc85 2.974995 1_555
Sc82 Sc93 3.463196 1_545
Sc82 Sc92 3.463196 1_555
Sc83 Sc84 2.974995 1_555
Sc83 Sc93 3.463196 1_545
Sc83 Sc92 3.463196 1_555
Sc84 Sc9 3.306864 1_545
Sc84 Sc93 3.463196 1_545
Sc84 Sc92 3.463196 1_555
Sc85 Sc93 3.463196 1_545
Sc85 Sc92 3.463196 1_555
Sc86 Sc88 2.974995 1_555
Sc86 Sc95 3.463196 1_554
Sc86 Sc94 3.463196 1_555
Sc87 Sc89 2.974995 1_555
Sc87 Sc94 3.463196 1_555
Sc87 Sc95 3.463196 1_554
Sc88 Sc95 3.463196 1_554
Sc88 Sc94 3.463196 1_555
Sc89 Sc94 3.463196 1_555
Sc89 Sc95 3.463196 1_554
Sc90 Sc91 3.647065 1_455
Sc92 Sc93 3.647065 1_545
Sc94 Sc95 3.647065 1_554
Sc96 Sc99 3.158763 1_554
Sc97 Sc98 3.158763 1_556
Sc100 Sc60 3.092036 1_545
Sc100 Sc54 3.092036 1_555
Sc100 Sc69 3.103994 1_545
Sc100 Sc58 3.103994 1_555
Sc100 Sc106 3.125885 1_545
Sc100 Sc104 3.125885 1_555
Sc100 Sc96 3.125885 1_555
Sc100 Sc98 3.125885 1_545
Sc100 Sc112 3.127158 1_555
Sc100 Sc103 3.158763 1_455
Sc101 Sc55 3.092036 1_545
Sc101 Sc57 3.092036 1_555
Sc101 Sc68 3.103994 1_555
Sc101 Sc61 3.103994 1_545
Sc101 Sc105 3.125885 1_546
Sc101 Sc99 3.125885 1_655
Sc101 Sc97 3.125885 1_645
Sc101 Sc107 3.125885 1_556
Sc101 Sc113 3.127158 1_655
Sc101 Sc102 3.158763 1_655
Sc102 Sc62 3.092036 1_545
Sc102 Sc59 3.092036 1_555
Sc102 Sc63 3.103994 1_545
Sc102 Sc67 3.103994 1_555
Sc102 Sc106 3.125885 1_546
Sc102 Sc104 3.125885 1_556
Sc102 Sc97 3.125885 1_545
Sc102 Sc99 3.125885 1_555
Sc102 Sc113 3.127158 1_555
Sc103 Sc56 3.092036 1_545
Sc103 Sc64 3.092036 1_555
Sc103 Sc66 3.103994 1_545
Sc103 Sc65 3.103994 1_555
Sc103 Sc98 3.125885 1_645
Sc103 Sc96 3.125885 1_655
Sc103 Sc105 3.125885 1_545
Sc103 Sc107 3.125885 1_555
Sc103 Sc112 3.127158 1_655
Sc104 Sc67 3.092036 1_554
Sc104 Sc58 3.092036 1_555
Sc104 Sc75 3.103994 1_554
Sc104 Sc70 3.103994 1_555
Sc104 Sc99 3.125885 1_554
Sc104 Sc96 3.125885 1_555
Sc104 Sc108 3.127158 1_555
Sc104 Sc106 3.158763 1_545
Sc105 Sc61 3.092036 1_554
Sc105 Sc66 3.092036 1_555
Sc105 Sc71 3.103994 1_554
Sc105 Sc74 3.103994 1_555
Sc105 Sc97 3.125885 1_654
Sc105 Sc98 3.125885 1_655
Sc105 Sc109 3.127158 1_565
Sc105 Sc107 3.158763 1_565
Sc106 Sc63 3.092036 1_554
Sc106 Sc69 3.092036 1_555
Sc106 Sc77 3.103994 1_555
Sc106 Sc72 3.103994 1_554
Sc106 Sc98 3.125885 1_555
Sc106 Sc97 3.125885 1_554
Sc106 Sc108 3.127158 1_565
Sc107 Sc68 3.092036 1_554
Sc107 Sc65 3.092036 1_555
Sc107 Sc76 3.103994 1_554
Sc107 Sc73 3.103994 1_555
Sc107 Sc99 3.125885 1_654
Sc107 Sc96 3.125885 1_655
Sc107 Sc109 3.127158 1_555
Sc108 Sc45 3.169236 1_554
Sc108 Sc44 3.169236 1_545
Sc108 Sc43 3.169236 1_544
Sc108 Sc42 3.169236 1_555
Sc108 Sc67 3.241149 1_554
Sc108 Sc63 3.241149 1_544
Sc108 Sc69 3.241149 1_545
Sc108 Sc58 3.241149 1_555
Sc109 Sc45 3.169236 1_554
Sc109 Sc43 3.169236 1_544
Sc109 Sc44 3.169236 1_545
Sc109 Sc42 3.169236 1_555
Sc109 Sc61 3.241149 1_544
Sc109 Sc68 3.241149 1_554
Sc109 Sc66 3.241149 1_545
Sc109 Sc65 3.241149 1_555
Sc110 Sc99 3.127158 1_554
Sc110 Sc96 3.127158 1_555
Sc110 Sc49 3.169236 1_455
Sc110 Sc47 3.169236 1_454
Sc110 Sc48 3.169236 1_554
Sc110 Sc46 3.169236 1_555
Sc110 Sc76 3.241149 1_454
Sc110 Sc73 3.241149 1_455
Sc110 Sc75 3.241149 1_554
Sc110 Sc70 3.241149 1_555
Sc111 Sc97 3.127158 1_554
Sc111 Sc98 3.127158 1_555
Sc111 Sc49 3.169236 1_455
Sc111 Sc48 3.169236 1_554
Sc111 Sc47 3.169236 1_454
Sc111 Sc46 3.169236 1_555
Sc111 Sc71 3.241149 1_454
Sc111 Sc74 3.241149 1_455
Sc111 Sc72 3.241149 1_554
Sc111 Sc77 3.241149 1_555
Sc112 Sc53 3.169236 1_455
Sc112 Sc51 3.169236 1_445
Sc112 Sc52 3.169236 1_545
Sc112 Sc50 3.169236 1_555
Sc112 Sc56 3.241149 1_445
Sc112 Sc60 3.241149 1_545
Sc112 Sc64 3.241149 1_455
Sc112 Sc54 3.241149 1_555
Sc113 Sc53 3.169236 1_455
Sc113 Sc51 3.169236 1_445
Sc113 Sc52 3.169236 1_545
Sc113 Sc50 3.169236 1_555
Sc113 Sc55 3.241149 1_445
Sc113 Sc62 3.241149 1_545
Sc113 Sc59 3.241149 1_555
Sc113 Sc57 3.241149 1_455
Ru0 Sc28 2.603595 1_555
Ru0 Sc96 2.643334 1_555
Ru0 Sc78 2.798830 1_555
Ru0 Sc73 2.950255 1_455
Ru0 Sc70 2.950255 1_555
Ru0 Sc110 2.954154 1_555
Ru0 Sc64 3.040853 1_455
Ru0 Sc54 3.040853 1_555
Ru0 Sc49 3.364422 1_455
Ru0 Sc46 3.364422 1_555
Ru0 Sc10 3.393554 1_455
Ru0 Sc0 3.393554 1_555
Ru1 Sc29 2.603595 1_555
Ru1 Sc97 2.643334 1_555
Ru1 Sc79 2.798830 1_555
Ru1 Sc71 2.950255 1_455
Ru1 Sc72 2.950255 1_555
Ru1 Sc111 2.954154 1_556
Ru1 Sc55 3.040853 1_455
Ru1 Sc62 3.040853 1_555
Ru1 Sc47 3.364422 1_455
Ru1 Sc48 3.364422 1_555
Ru1 Sc1 3.393554 1_455
Ru1 Sc8 3.393554 1_555
Ru2 Sc28 2.603595 1_555
Ru2 Sc98 2.643334 1_555
Ru2 Sc80 2.798830 1_555
Ru2 Sc74 2.950255 1_455
Ru2 Sc77 2.950255 1_555
Ru2 Sc111 2.954154 1_555
Ru2 Sc56 3.040853 1_455
Ru2 Sc60 3.040853 1_555
Ru2 Sc49 3.364422 1_455
Ru2 Sc46 3.364422 1_555
Ru2 Sc2 3.393554 1_455
Ru2 Sc6 3.393554 1_555
Ru3 Sc29 2.603595 1_555
Ru3 Sc99 2.643334 1_555
Ru3 Sc81 2.798830 1_555
Ru3 Sc76 2.950255 1_455
Ru3 Sc75 2.950255 1_555
Ru3 Sc110 2.954154 1_556
Ru3 Sc57 3.040853 1_455
Ru3 Sc59 3.040853 1_555
Ru3 Sc47 3.364422 1_455
Ru3 Sc48 3.364422 1_555
Ru3 Sc3 3.393554 1_455
Ru3 Sc5 3.393554 1_555
Ru4 Sc24 2.603595 1_555
Ru4 Sc100 2.643334 1_555
Ru4 Sc82 2.798830 1_555
Ru4 Sc60 2.950255 1_545
Ru4 Sc54 2.950255 1_555
Ru4 Sc112 2.954154 1_555
Ru4 Sc69 3.040853 1_545
Ru4 Sc58 3.040853 1_555
Ru4 Sc52 3.364422 1_545
Ru4 Sc50 3.364422 1_555
Ru4 Sc15 3.393554 1_545
Ru4 Sc4 3.393554 1_555
Ru5 Sc25 2.603595 1_555
Ru5 Sc101 2.643334 1_555
Ru5 Sc83 2.798830 1_555
Ru5 Sc55 2.950255 1_545
Ru5 Sc57 2.950255 1_555
Ru5 Sc113 2.954154 1_655
Ru5 Sc61 3.040853 1_545
Ru5 Sc68 3.040853 1_555
Ru5 Sc51 3.364422 1_545
Ru5 Sc53 3.364422 1_555
Ru5 Sc7 3.393554 1_545
Ru5 Sc14 3.393554 1_555
Ru6 Sc24 2.603595 1_555
Ru6 Sc102 2.643334 1_555
Ru6 Sc84 2.798830 1_555
Ru6 Sc62 2.950255 1_545
Ru6 Sc59 2.950255 1_555
Ru6 Sc113 2.954154 1_555
Ru6 Sc63 3.040853 1_545
Ru6 Sc67 3.040853 1_555
Ru6 Sc52 3.364422 1_545
Ru6 Sc50 3.364422 1_555
Ru6 Sc9 3.393554 1_545
Ru6 Sc13 3.393554 1_555
Ru7 Sc25 2.603595 1_555
Ru7 Sc103 2.643334 1_555
Ru7 Sc85 2.798830 1_555
Ru7 Sc56 2.950255 1_545
Ru7 Sc64 2.950255 1_555
Ru7 Sc112 2.954154 1_655
Ru7 Sc66 3.040853 1_545
Ru7 Sc65 3.040853 1_555
Ru7 Sc51 3.364422 1_545
Ru7 Sc53 3.364422 1_555
Ru7 Sc12 3.393554 1_545
Ru7 Sc11 3.393554 1_555
Ru8 Sc26 2.603595 1_555
Ru8 Sc104 2.643334 1_555
Ru8 Sc86 2.798830 1_555
Ru8 Sc67 2.950255 1_554
Ru8 Sc58 2.950255 1_555
Ru8 Sc108 2.954154 1_555
Ru8 Sc75 3.040853 1_554
Ru8 Sc70 3.040853 1_555
Ru8 Sc45 3.364422 1_554
Ru8 Sc42 3.364422 1_555
Ru8 Sc21 3.393554 1_554
Ru8 Sc16 3.393554 1_555
Ru9 Sc27 2.603595 1_555
Ru9 Sc105 2.643334 1_555
Ru9 Sc87 2.798830 1_555
Ru9 Sc61 2.950255 1_554
Ru9 Sc66 2.950255 1_555
Ru9 Sc109 2.954154 1_565
Ru9 Sc71 3.040853 1_554
Ru9 Sc74 3.040853 1_555
Ru9 Sc44 3.364422 1_555
Ru9 Sc43 3.364422 1_554
Ru9 Sc17 3.393554 1_554
Ru9 Sc20 3.393554 1_555
Ru10 Sc27 2.603595 1_555
Ru10 Sc106 2.643334 1_555
Ru10 Sc88 2.798830 1_555
Ru10 Sc63 2.950255 1_554
Ru10 Sc69 2.950255 1_555
Ru10 Sc108 2.954154 1_565
Ru10 Sc72 3.040853 1_554
Ru10 Sc77 3.040853 1_555
Ru10 Sc43 3.364422 1_554
Ru10 Sc44 3.364422 1_555
Ru10 Sc18 3.393554 1_554
Ru10 Sc23 3.393554 1_555
Ru11 Sc26 2.603595 1_555
Ru11 Sc107 2.643334 1_555
Ru11 Sc89 2.798830 1_555
Ru11 Sc68 2.950255 1_554
Ru11 Sc65 2.950255 1_555
Ru11 Sc109 2.954154 1_555
Ru11 Sc76 3.040853 1_554
Ru11 Sc73 3.040853 1_555
Ru11 Sc42 3.364422 1_555
Ru11 Sc45 3.364422 1_554
Ru11 Sc22 3.393554 1_554
Ru11 Sc19 3.393554 1_555
Ru12 Sc30 3.009850 1_555
Ru12 Sc34 3.009850 1_555
Ru12 Sc38 3.009850 1_555
Ru12 Sc37 3.009850 1_555
Ru12 Sc40 3.009850 1_555
Ru12 Sc33 3.009850 1_555
Ru12 Sc36 3.009850 1_555
Ru12 Sc41 3.009850 1_555
Ru12 Sc32 3.009850 1_555
Ru12 Sc35 3.009850 1_555
Ru12 Sc39 3.009850 1_555
Ru12 Sc31 3.009850 1_555
Ru13 Sc42 2.546534 1_555
Ru13 Sc30 2.593084 1_555
Ru13 Sc82 2.847888 1_555
Ru13 Sc85 2.847888 1_555
Ru13 Sc92 2.943247 1_555
Ru13 Sc16 2.972514 1_555
Ru13 Sc19 2.972514 1_555
Ru13 Sc4 3.063200 1_555
Ru13 Sc11 3.063200 1_555
Ru14 Sc43 2.546534 1_555
Ru14 Sc31 2.593084 1_555
Ru14 Sc83 2.847888 1_565
Ru14 Sc84 2.847888 1_565
Ru14 Sc93 2.943247 1_555
Ru14 Sc18 2.972514 1_555
Ru14 Sc17 2.972514 1_555
Ru14 Sc9 3.063200 1_555
Ru14 Sc7 3.063200 1_555
Ru15 Sc44 2.546534 1_555
Ru15 Sc32 2.593084 1_555
Ru15 Sc85 2.847888 1_565
Ru15 Sc82 2.847888 1_565
Ru15 Sc93 2.943247 1_555
Ru15 Sc20 2.972514 1_555
Ru15 Sc23 2.972514 1_555
Ru15 Sc15 3.063200 1_555
Ru15 Sc12 3.063200 1_555
Ru16 Sc45 2.546534 1_555
Ru16 Sc33 2.593084 1_555
Ru16 Sc83 2.847888 1_555
Ru16 Sc84 2.847888 1_555
Ru16 Sc92 2.943247 1_555
Ru16 Sc21 2.972514 1_555
Ru16 Sc22 2.972514 1_555
Ru16 Sc13 3.063200 1_555
Ru16 Sc14 3.063200 1_555
Ru17 Sc46 2.546534 1_555
Ru17 Sc34 2.593084 1_555
Ru17 Sc88 2.847888 1_555
Ru17 Sc86 2.847888 1_555
Ru17 Sc94 2.943247 1_555
Ru17 Sc0 2.972514 1_555
Ru17 Sc6 2.972514 1_555
Ru17 Sc16 3.063200 1_555
Ru17 Sc23 3.063200 1_555
Ru18 Sc47 2.546534 1_555
Ru18 Sc35 2.593084 1_555
Ru18 Sc89 2.847888 1_556
Ru18 Sc87 2.847888 1_556
Ru18 Sc95 2.943247 1_555
Ru18 Sc3 2.972514 1_555
Ru18 Sc1 2.972514 1_555
Ru18 Sc22 3.063200 1_555
Ru18 Sc17 3.063200 1_555
Ru19 Sc48 2.546534 1_555
Ru19 Sc36 2.593084 1_555
Ru19 Sc86 2.847888 1_556
Ru19 Sc88 2.847888 1_556
Ru19 Sc95 2.943247 1_555
Ru19 Sc8 2.972514 1_555
Ru19 Sc5 2.972514 1_555
Ru19 Sc21 3.063200 1_555
Ru19 Sc18 3.063200 1_555
Ru20 Sc49 2.546534 1_555
Ru20 Sc37 2.593084 1_555
Ru20 Sc89 2.847888 1_555
Ru20 Sc87 2.847888 1_555
Ru20 Sc94 2.943247 1_555
Ru20 Sc10 2.972514 1_555
Ru20 Sc2 2.972514 1_555
Ru20 Sc19 3.063200 1_555
Ru20 Sc20 3.063200 1_555
Ru21 Sc50 2.546534 1_555
Ru21 Sc38 2.593084 1_555
Ru21 Sc81 2.847888 1_555
Ru21 Sc78 2.847888 1_555
Ru21 Sc90 2.943247 1_555
Ru21 Sc4 2.972514 1_555
Ru21 Sc13 2.972514 1_555
Ru21 Sc0 3.063200 1_555
Ru21 Sc5 3.063200 1_555
Ru22 Sc51 2.546534 1_555
Ru22 Sc39 2.593084 1_555
Ru22 Sc79 2.847888 1_655
Ru22 Sc80 2.847888 1_655
Ru22 Sc91 2.943247 1_555
Ru22 Sc12 2.972514 1_555
Ru22 Sc7 2.972514 1_555
Ru22 Sc2 3.063200 1_555
Ru22 Sc1 3.063200 1_555
Ru23 Sc52 2.546534 1_555
Ru23 Sc40 2.593084 1_555
Ru23 Sc79 2.847888 1_555
Ru23 Sc80 2.847888 1_555
Ru23 Sc90 2.943247 1_555
Ru23 Sc9 2.972514 1_555
Ru23 Sc15 2.972514 1_555
Ru23 Sc6 3.063200 1_555
Ru23 Sc8 3.063200 1_555
Ru24 Sc53 2.546534 1_555
Ru24 Sc41 2.593084 1_555
Ru24 Sc81 2.847888 1_655
Ru24 Sc78 2.847888 1_655
Ru24 Sc91 2.943247 1_555
Ru24 Sc14 2.972514 1_555
Ru24 Sc11 2.972514 1_555
Ru24 Sc10 3.063200 1_555
Ru24 Sc3 3.063200 1_555
Ru25 Sc97 2.979108 1_544
Ru25 Sc103 2.979108 1_455
Ru25 Sc99 2.979108 1_554
Ru25 Sc105 2.979108 1_445
Ru25 Sc101 2.979108 1_454
Ru25 Sc106 2.979108 1_545
Ru25 Sc107 2.979108 1_455
Ru25 Sc98 2.979108 1_545
Ru25 Sc100 2.979108 1_555
Ru25 Sc104 2.979108 1_555
Ru25 Sc102 2.979108 1_554
Ru25 Sc96 2.979108 1_555
