# generated using pymatgen
data_KLaCeGeO6
_symmetry_space_group_name_H-M   'P 1'
_cell_length_a   5.82028108
_cell_length_b   5.82028108
_cell_length_c   5.82028108
_cell_angle_alpha   60.00000000
_cell_angle_beta   60.00000000
_cell_angle_gamma   60.00000000
_symmetry_Int_Tables_number   1
_chemical_formula_structural   KLaCeGeO6
_chemical_formula_sum   'K1 La1 Ce1 Ge1 O6'
_cell_volume   139.41736749
_cell_formula_units_Z   1
loop_
 _symmetry_equiv_pos_site_id
 _symmetry_equiv_pos_as_xyz
  1  'x, y, z'
loop_
 _atom_site_type_symbol
 _atom_site_label
 _atom_site_symmetry_multiplicity
 _atom_site_fract_x
 _atom_site_fract_y
 _atom_site_fract_z
 _atom_site_occupancy
  K  K0  1  0.25000000  0.25000000  0.25000000  1
  La  La0  1  0.75000000  0.75000000  0.75000000  1
  Ce  Ce0  1  -0.00000000  0.00000000  0.00000000  1
  Ge  Ge0  1  0.50000000  0.50000000  0.50000000  1
  O  O0  1  0.73245715  0.26754285  0.26754285  1
  O  O1  1  0.26754285  0.73245715  0.73245715  1
  O  O2  1  0.73245715  0.26754285  0.73245715  1
  O  O3  1  0.26754285  0.73245715  0.26754285  1
  O  O4  1  0.73245715  0.73245715  0.26754285  1
  O  O5  1  0.26754285  0.26754285  0.73245715  1
loop_
_geom_bond_atom_site_label_1
_geom_bond_atom_site_label_2
_geom_bond_distance
_geom_bond_site_symmetry_2
K0 O5 2.913721 1_555
K0 O5 2.913721 1_554
K0 O4 2.913721 1_545
K0 O4 2.913721 1_455
K0 O1 2.913721 1_545
K0 O0 2.913721 1_555
K0 O1 2.913721 1_554
K0 O3 2.913721 1_545
K0 O2 2.913721 1_455
K0 O0 2.913721 1_455
K0 O2 2.913721 1_554
K0 O3 2.913721 1_555
La0 O5 2.913721 1_565
La0 O2 2.913721 1_565
La0 O3 2.913721 1_556
La0 O4 2.913721 1_556
La0 O3 2.913721 1_655
La0 O1 2.913721 1_655
La0 O5 2.913721 1_655
La0 O4 2.913721 1_555
La0 O0 2.913721 1_565
La0 O0 2.913721 1_556
La0 O2 2.913721 1_555
La0 O1 2.913721 1_555
Ce0 O3 2.202177 1_545
Ce0 O2 2.202177 1_454
Ce0 O4 2.202177 1_445
Ce0 O5 2.202177 1_554
Ce0 O1 2.202177 1_544
Ce0 O0 2.202177 1_455
Ge0 O4 1.913383 1_555
Ge0 O1 1.913383 1_555
Ge0 O5 1.913383 1_555
Ge0 O0 1.913383 1_555
Ge0 O3 1.913383 1_555
Ge0 O2 1.913383 1_555
