# generated using pymatgen
data_Y10Ta4O25
_symmetry_space_group_name_H-M   'P 1'
_cell_length_a   3.75793900
_cell_length_b   6.51939749
_cell_length_c   45.33280610
_cell_angle_alpha   109.53748061
_cell_angle_beta   90.00000000
_cell_angle_gamma   90.00000000
_symmetry_Int_Tables_number   1
_chemical_formula_structural   Y10Ta4O25
_chemical_formula_sum   'Y20 Ta8 O50'
_cell_volume   1046.68411367
_cell_formula_units_Z   2
loop_
 _symmetry_equiv_pos_site_id
 _symmetry_equiv_pos_as_xyz
  1  'x, y, z'
loop_
 _atom_site_type_symbol
 _atom_site_label
 _atom_site_symmetry_multiplicity
 _atom_site_fract_x
 _atom_site_fract_y
 _atom_site_fract_z
 _atom_site_occupancy
  Y  Y0  1  0.00000000  0.51664700  0.42847600  1
  Y  Y1  1  0.00000000  0.00141900  0.49770200  1
  Y  Y2  1  0.00000000  0.51806300  0.57147100  1
  Y  Y3  1  0.00000000  0.01207700  0.78984700  1
  Y  Y4  1  0.50000000  0.49191700  0.50136200  1
  Y  Y5  1  0.50000000  0.49197500  0.21562700  1
  Y  Y6  1  0.50000000  0.49205800  0.35848900  1
  Y  Y7  1  0.50000000  0.49072500  0.07258600  1
  Y  Y8  1  0.50000000  0.50358800  0.78600300  1
  Y  Y9  1  0.50000000  0.48710300  0.92782500  1
  Y  Y10  1  0.50000000  0.49053600  0.64413300  1
  Y  Y11  1  0.00000000  0.99885900  0.06806900  1
  Y  Y12  1  0.00000000  0.50966900  0.99858100  1
  Y  Y13  1  0.00000000  0.00129600  0.35475100  1
  Y  Y14  1  0.00000000  0.00133200  0.21184600  1
  Y  Y15  1  0.00000000  0.51658300  0.28562000  1
  Y  Y16  1  0.00000000  0.51605700  0.14268500  1
  Y  Y17  1  0.00000000  0.00376300  0.64169600  1
  Y  Y18  1  0.00000000  0.99311200  0.92233800  1
  Y  Y19  1  0.00000000  0.52854000  0.71470300  1
  Ta  Ta0  1  0.00000000  0.46957600  0.85747800  1
  Ta  Ta1  1  0.50000000  0.98956800  0.99887000  1
  Ta  Ta2  1  0.50000000  0.99483100  0.14342800  1
  Ta  Ta3  1  0.50000000  0.99489100  0.28647300  1
  Ta  Ta4  1  0.50000000  0.99493800  0.42935000  1
  Ta  Ta5  1  0.50000000  0.00464900  0.71710800  1
  Ta  Ta6  1  0.50000000  0.99517000  0.57237100  1
  Ta  Ta7  1  0.50000000  0.96777000  0.85641500  1
  O  O0  1  0.00000000  0.35970700  0.09080300  1
  O  O1  1  0.00000000  0.36180200  0.23390800  1
  O  O2  1  0.00000000  0.36174600  0.37677500  1
  O  O3  1  0.00000000  0.36194000  0.51971600  1
  O  O4  1  0.00000000  0.36525700  0.66282600  1
  O  O5  1  0.00000000  0.40148400  0.81085600  1
  O  O6  1  0.00000000  0.35823900  0.94634500  1
  O  O7  1  0.00000000  0.86968100  0.86766600  1
  O  O8  1  0.50000000  0.30779100  0.15091400  1
  O  O9  1  0.50000000  0.30147400  0.00619300  1
  O  O10  1  0.50000000  0.30767100  0.43662100  1
  O  O11  1  0.50000000  0.30763100  0.29374700  1
  O  O12  1  0.50000000  0.09144600  0.04760400  1
  O  O13  1  0.50000000  0.09555700  0.19168300  1
  O  O14  1  0.50000000  0.09586600  0.33463600  1
  O  O15  1  0.50000000  0.65816400  0.27222200  1
  O  O16  1  0.50000000  0.65754100  0.12914500  1
  O  O17  1  0.50000000  0.09581000  0.47752100  1
  O  O18  1  0.50000000  0.09423700  0.62068600  1
  O  O19  1  0.50000000  0.31761600  0.72462700  1
  O  O20  1  0.50000000  0.30854400  0.57992700  1
  O  O21  1  0.50000000  0.65818500  0.41507300  1
  O  O22  1  0.50000000  0.10727200  0.76659500  1
  O  O23  1  0.50000000  0.36135500  0.86929100  1
  O  O24  1  0.50000000  0.66491300  0.70133000  1
  O  O25  1  0.50000000  0.65800900  0.55794300  1
  O  O26  1  0.50000000  0.10645700  0.90358200  1
  O  O27  1  0.50000000  0.64396900  0.84802200  1
  O  O28  1  0.50000000  0.65516000  0.98580900  1
  O  O29  1  0.50000000  0.94187900  0.09841000  1
  O  O30  1  0.50000000  0.94168100  0.24148100  1
  O  O31  1  0.50000000  0.94176500  0.38435500  1
  O  O32  1  0.50000000  0.94261700  0.52737700  1
  O  O33  1  0.50000000  0.95396200  0.67202700  1
  O  O34  1  0.50000000  0.88585200  0.81059500  1
  O  O35  1  0.50000000  0.92934800  0.95310000  1
  O  O36  1  0.00000000  0.62918400  0.05182100  1
  O  O37  1  0.00000000  0.94027100  0.00687300  1
  O  O38  1  0.00000000  0.63272600  0.33841300  1
  O  O39  1  0.00000000  0.63268900  0.19550600  1
  O  O40  1  0.00000000  0.94010000  0.29419900  1
  O  O41  1  0.00000000  0.93992300  0.15125200  1
  O  O42  1  0.00000000  0.63546900  0.62441500  1
  O  O43  1  0.00000000  0.63279900  0.48129600  1
  O  O44  1  0.00000000  0.94043000  0.57982300  1
  O  O45  1  0.00000000  0.94009500  0.43705400  1
  O  O46  1  0.00000000  0.14398700  0.84475300  1
  O  O47  1  0.00000000  0.61609900  0.90515700  1
  O  O48  1  0.00000000  0.63722600  0.76696000  1
  O  O49  1  0.00000000  0.94865900  0.72376300  1
loop_
_geom_bond_atom_site_label_1
_geom_bond_atom_site_label_2
_geom_bond_distance
_geom_bond_site_symmetry_2
O0 Y16 2.228725 1_555
O0 Y11 2.230432 1_545
O0 Y7 2.326779 1_555
O0 Y7 2.326779 1_455
O1 Y15 2.220714 1_555
O1 Y14 2.225075 1_555
O1 Y5 2.325494 1_455
O1 Y5 2.325494 1_555
O2 Y0 2.220343 1_555
O2 Y13 2.224791 1_555
O2 Y6 2.326042 1_455
O2 Y6 2.326042 1_555
O3 Y2 2.223376 1_555
O3 Y1 2.225167 1_555
O3 Y4 2.326461 1_555
O3 Y4 2.326461 1_455
O4 Y17 2.227506 1_555
O4 Y19 2.233696 1_555
O4 Y10 2.319183 1_555
O4 Y10 2.319183 1_455
O5 Ta0 2.009090 1_555
O5 Y3 2.394761 1_555
O5 Y8 2.396788 1_455
O5 Y8 2.396788 1_555
O6 Y12 2.240192 1_555
O6 Y18 2.262306 1_545
O6 Y9 2.326574 1_555
O6 Y9 2.326574 1_455
O7 Ta7 2.101845 1_555
O7 Ta7 2.101845 1_455
O7 Y18 2.335859 1_555
O7 Ta0 2.492291 1_555
O8 Ta2 1.953183 1_545
O8 Y16 2.419091 1_655
O8 Y16 2.419091 1_555
O8 Y5 2.773428 1_555
O9 Ta1 1.947711 1_544
O9 Y12 2.409388 1_654
O9 Y12 2.409388 1_554
O9 Y7 2.845576 1_555
O10 Ta4 1.953457 1_545
O10 Y0 2.420630 1_655
O10 Y0 2.420630 1_555
O10 Y4 2.774619 1_555
O11 Ta3 1.953477 1_545
O11 Y15 2.420256 1_555
O11 Y15 2.420256 1_655
O11 Y6 2.774754 1_555
O12 Ta1 2.083384 1_544
O12 Y11 2.264976 1_545
O12 Y11 2.264976 1_645
O12 Y7 2.467131 1_555
O13 Ta2 2.062943 1_545
O13 Y14 2.262500 1_655
O13 Y14 2.262500 1_555
O13 Y5 2.445625 1_555
O14 Ta3 2.058907 1_545
O14 Y13 2.262340 1_655
O14 Y13 2.262340 1_555
O14 Y6 2.443916 1_555
O15 Ta3 2.070736 1_555
O15 Y15 2.264147 1_655
O15 Y15 2.264147 1_555
O15 Y5 2.428378 1_555
O16 Ta2 2.074182 1_555
O16 Y16 2.266444 1_555
O16 Y16 2.266444 1_655
O16 Y7 2.427281 1_555
O17 Ta4 2.059276 1_545
O17 Y1 2.263345 1_555
O17 Y1 2.263345 1_655
O17 Y4 2.443364 1_555
O18 Ta6 2.065963 1_545
O18 Y17 2.271855 1_555
O18 Y17 2.271855 1_655
O18 Y10 2.442983 1_555
O19 Ta5 1.952965 1_555
O19 Y19 2.457150 1_555
O19 Y19 2.457150 1_655
O19 Y8 2.637261 1_555
O20 Ta6 1.955290 1_545
O20 Y2 2.427648 1_655
O20 Y2 2.427648 1_555
O20 Y10 2.751317 1_555
O21 Ta4 2.070848 1_555
O21 Y0 2.264099 1_555
O21 Y0 2.264099 1_655
O21 Y6 2.427888 1_555
O22 Ta5 2.115776 1_555
O22 Y3 2.337587 1_555
O22 Y3 2.337587 1_655
O22 Y8 2.435028 1_555
O23 Ta0 2.137239 1_655
O23 Ta0 2.137239 1_555
O23 Ta7 2.433717 1_545
O23 Y9 2.501642 1_555
O24 Ta5 2.087503 1_565
O24 Y19 2.246996 1_555
O24 Y19 2.246996 1_655
O24 Y10 2.458448 1_555
O25 Ta6 2.073111 1_555
O25 Y2 2.261251 1_555
O25 Y2 2.261251 1_655
O25 Y4 2.427744 1_555
O26 Ta7 2.023953 1_545
O26 Y18 2.284675 1_545
O26 Y18 2.284675 1_645
O26 Y9 2.354132 1_555
O27 Ta7 2.015893 1_555
O27 Ta0 2.309303 1_655
O27 Ta0 2.309303 1_555
O27 Y8 2.649736 1_555
O28 Ta1 2.059175 1_555
O28 Y12 2.265558 1_655
O28 Y12 2.265558 1_555
O28 Y9 2.486681 1_555
O29 Ta2 1.952638 1_555
O29 Y11 2.429425 1_655
O29 Y11 2.429425 1_555
O29 Y7 2.778208 1_555
O30 Ta3 1.951186 1_555
O30 Y14 2.415786 1_665
O30 Y14 2.415786 1_565
O30 Y5 2.769640 1_555
O31 Ta4 1.951362 1_555
O31 Y13 2.414658 1_665
O31 Y13 2.414658 1_565
O31 Y6 2.769684 1_555
O32 Ta6 1.952016 1_555
O32 Y1 2.414977 1_565
O32 Y1 2.414977 1_665
O32 Y4 2.776091 1_555
O33 Ta5 1.958062 1_565
O33 Y17 2.413529 1_565
O33 Y17 2.413529 1_665
O33 Y10 2.858622 1_555
O34 Ta7 1.964129 1_555
O34 Y8 2.365439 1_555
O34 Y3 2.368556 1_565
O34 Y3 2.368556 1_665
O35 Ta1 1.978492 1_555
O35 Y18 2.456782 1_555
O35 Y18 2.456782 1_655
O35 Y9 2.723227 1_555
O36 Y11 2.272355 1_555
O36 Y12 2.274727 1_554
O36 Y7 2.408273 1_555
O36 Y7 2.408273 1_455
O37 Ta1 1.960466 1_454
O37 Ta1 1.960466 1_554
O37 Y11 2.670819 1_555
O37 Y12 2.704855 1_554
O38 Y15 2.255871 1_555
O38 Y13 2.265379 1_565
O38 Y6 2.399597 1_455
O38 Y6 2.399597 1_555
O39 Y16 2.257016 1_555
O39 Y14 2.265829 1_565
O39 Y5 2.400785 1_455
O39 Y5 2.400785 1_555
O40 Ta3 1.965825 1_455
O40 Ta3 1.965825 1_555
O40 Y13 2.638497 1_565
O40 Y15 2.656422 1_555
O41 Ta2 1.967076 1_555
O41 Ta2 1.967076 1_455
O41 Y14 2.640109 1_565
O41 Y16 2.658785 1_555
O42 Y2 2.262216 1_555
O42 Y17 2.262894 1_565
O42 Y10 2.405666 1_455
O42 Y10 2.405666 1_555
O43 Y0 2.257032 1_555
O43 Y1 2.265606 1_565
O43 Y4 2.400078 1_555
O43 Y4 2.400078 1_455
O44 Ta6 1.962815 1_555
O44 Ta6 1.962815 1_455
O44 Y2 2.651082 1_555
O44 Y17 2.695035 1_565
O45 Ta4 1.965669 1_555
O45 Ta4 1.965669 1_455
O45 Y1 2.642641 1_565
O45 Y0 2.655985 1_555
O46 Ta0 2.004845 1_555
O46 Y3 2.345893 1_555
O46 Ta7 2.352882 1_445
O46 Ta7 2.352882 1_545
O47 Ta0 2.050190 1_555
O47 Y18 2.316780 1_555
O47 Y9 2.423169 1_555
O47 Y9 2.423169 1_455
O48 Y19 2.234126 1_555
O48 Y3 2.313605 1_565
O48 Y8 2.353269 1_455
O48 Y8 2.353269 1_555
O49 Ta5 1.956640 1_465
O49 Ta5 1.956640 1_565
O49 Y19 2.630207 1_555
