# generated using pymatgen
data_Mg6ZrCu
_symmetry_space_group_name_H-M   'P 1'
_cell_length_a   4.90300000
_cell_length_b   6.08672800
_cell_length_c   11.19104900
_cell_angle_alpha   90.00000000
_cell_angle_beta   90.00000000
_cell_angle_gamma   90.00000000
_symmetry_Int_Tables_number   1
_chemical_formula_structural   Mg6ZrCu
_chemical_formula_sum   'Mg12 Zr2 Cu2'
_cell_volume   333.97701997
_cell_formula_units_Z   2
loop_
 _symmetry_equiv_pos_site_id
 _symmetry_equiv_pos_as_xyz
  1  'x, y, z'
loop_
 _atom_site_type_symbol
 _atom_site_label
 _atom_site_symmetry_multiplicity
 _atom_site_fract_x
 _atom_site_fract_y
 _atom_site_fract_z
 _atom_site_occupancy
  Mg  Mg0  1  0.00000000  0.25434700  0.07500400  1
  Mg  Mg1  1  0.00000000  0.74565300  0.07500400  1
  Mg  Mg2  1  0.00000000  0.00000000  0.33321700  1
  Mg  Mg3  1  0.50000000  0.74439700  0.42071600  1
  Mg  Mg4  1  0.50000000  0.25560300  0.42071600  1
  Mg  Mg5  1  0.50000000  0.00000000  0.17625100  1
  Mg  Mg6  1  0.00000000  0.75434700  0.57500400  1
  Mg  Mg7  1  0.00000000  0.24565300  0.57500400  1
  Mg  Mg8  1  0.00000000  0.50000000  0.83321700  1
  Mg  Mg9  1  0.50000000  0.24439700  0.92071600  1
  Mg  Mg10  1  0.50000000  0.75560300  0.92071600  1
  Mg  Mg11  1  0.50000000  0.50000000  0.67625100  1
  Zr  Zr0  1  0.00000000  0.50000000  0.31365100  1
  Zr  Zr1  1  0.00000000  0.00000000  0.81365100  1
  Cu  Cu0  1  0.50000000  0.50000000  0.18544100  1
  Cu  Cu1  1  0.50000000  0.00000000  0.68544100  1
loop_
_geom_bond_atom_site_label_1
_geom_bond_atom_site_label_2
_geom_bond_distance
_geom_bond_site_symmetry_2
Mg0 Mg1 2.990446 1_555
Mg0 Mg9 2.999137 1_554
Mg0 Mg9 2.999137 1_454
Mg0 Zr0 3.060782 1_555
Mg0 Mg8 3.091491 1_554
Mg0 Mg1 3.096282 1_545
Mg0 Mg5 3.112944 1_455
Mg0 Mg5 3.112944 1_555
Mg0 Mg2 3.278255 1_555
Mg0 Zr1 3.309272 1_554
Mg1 Mg10 2.999137 1_454
Mg1 Mg10 2.999137 1_554
Mg1 Zr0 3.060782 1_555
Mg1 Mg8 3.091491 1_554
Mg1 Mg5 3.112944 1_565
Mg1 Mg5 3.112944 1_465
Mg1 Mg2 3.278255 1_565
Mg1 Zr1 3.309272 1_564
Mg2 Mg5 3.015882 1_555
Mg2 Mg5 3.015882 1_455
Mg2 Zr0 3.051231 1_545
Mg2 Zr0 3.051231 1_555
Mg2 Mg4 3.064175 1_455
Mg2 Mg4 3.064175 1_555
Mg2 Mg3 3.064175 1_545
Mg2 Mg3 3.064175 1_445
Mg2 Mg7 3.091491 1_555
Mg2 Mg6 3.091491 1_545
Mg3 Mg4 2.975156 1_555
Mg3 Mg6 2.999137 1_555
Mg3 Mg6 2.999137 1_655
Mg3 Zr0 3.107789 1_555
Mg3 Zr0 3.107789 1_655
Mg3 Mg4 3.111572 1_565
Mg3 Mg5 3.147250 1_565
Mg4 Mg7 2.999137 1_555
Mg4 Mg7 2.999137 1_655
Mg4 Zr0 3.107789 1_555
Mg4 Zr0 3.107789 1_655
Mg4 Mg5 3.147250 1_555
Mg5 Mg9 3.223476 1_554
Mg6 Mg7 2.990446 1_565
Mg6 Zr1 3.060782 1_565
Mg6 Mg7 3.096282 1_555
Mg6 Mg8 3.278255 1_555
Mg6 Zr0 3.309272 1_555
Mg7 Zr1 3.060782 1_555
Mg7 Mg8 3.278255 1_555
Mg7 Zr0 3.309272 1_555
Mg8 Zr1 3.051231 1_565
Mg8 Zr1 3.051231 1_555
Mg8 Mg9 3.064175 1_455
Mg8 Mg9 3.064175 1_555
Mg9 Zr1 3.107789 1_555
Mg9 Zr1 3.107789 1_655
Mg10 Mg9 2.975156 1_565
Mg10 Mg8 3.064175 1_555
Mg10 Mg8 3.064175 1_655
Mg10 Zr1 3.107789 1_565
Mg10 Zr1 3.107789 1_665
Mg10 Mg9 3.111572 1_555
Mg10 Mg11 3.147250 1_555
Mg10 Mg5 3.223476 1_566
Mg11 Mg8 3.015882 1_655
Mg11 Mg8 3.015882 1_555
Mg11 Mg6 3.112944 1_555
Mg11 Mg6 3.112944 1_655
Mg11 Mg7 3.112944 1_655
Mg11 Mg7 3.112944 1_555
Mg11 Mg9 3.147250 1_555
Mg11 Mg3 3.223476 1_555
Mg11 Mg4 3.223476 1_555
Cu0 Zr0 2.840513 1_555
Cu0 Zr0 2.840513 1_655
Cu0 Mg3 3.024143 1_555
Cu0 Mg4 3.024143 1_555
Cu0 Mg5 3.045101 1_565
Cu0 Mg5 3.045101 1_555
Cu0 Mg0 3.126181 1_655
Cu0 Mg1 3.126181 1_655
Cu0 Mg1 3.126181 1_555
Cu0 Mg0 3.126181 1_555
Cu0 Mg10 3.346218 1_554
Cu0 Mg9 3.346218 1_554
Cu1 Zr1 2.840513 1_555
Cu1 Zr1 2.840513 1_655
Cu1 Mg9 3.024143 1_555
Cu1 Mg10 3.024143 1_545
Cu1 Mg11 3.045101 1_555
Cu1 Mg11 3.045101 1_545
Cu1 Mg7 3.126181 1_655
Cu1 Mg7 3.126181 1_555
Cu1 Mg6 3.126181 1_645
Cu1 Mg6 3.126181 1_545
Cu1 Mg4 3.346218 1_555
Cu1 Mg3 3.346218 1_545
