# generated using pymatgen
data_Li4MnCo2O7
_symmetry_space_group_name_H-M   'P 1'
_cell_length_a   17.04331373
_cell_length_b   17.04331373
_cell_length_c   5.21094973
_cell_angle_alpha   85.49867831
_cell_angle_beta   85.49867831
_cell_angle_gamma   9.81505927
_symmetry_Int_Tables_number   1
_chemical_formula_structural   Li4MnCo2O7
_chemical_formula_sum   'Li8 Mn2 Co4 O14'
_cell_volume   257.22757068
_cell_formula_units_Z   2
loop_
 _symmetry_equiv_pos_site_id
 _symmetry_equiv_pos_as_xyz
  1  'x, y, z'
loop_
 _atom_site_type_symbol
 _atom_site_label
 _atom_site_symmetry_multiplicity
 _atom_site_fract_x
 _atom_site_fract_y
 _atom_site_fract_z
 _atom_site_occupancy
  Li  Li0  1  0.71185400  0.71185400  0.42960000  1
  Li  Li1  1  0.13970500  0.13970500  0.28693700  1
  Li  Li2  1  0.56921700  0.56921700  0.14027600  1
  Li  Li3  1  0.00000000  0.00000000  0.00000000  1
  Li  Li4  1  0.43078300  0.43078300  0.85972400  1
  Li  Li5  1  0.28814600  0.28814600  0.57040000  1
  Li  Li6  1  0.86029500  0.86029500  0.71306300  1
  Li  Li7  1  0.50000000  0.50000000  0.50000000  1
  Mn  Mn0  1  0.21279000  0.21279000  0.92324500  1
  Mn  Mn1  1  0.78721000  0.78721000  0.07675500  1
  Co  Co0  1  0.63948500  0.63948500  0.77986300  1
  Co  Co1  1  0.06613100  0.06613100  0.62746400  1
  Co  Co2  1  0.93386900  0.93386900  0.37253600  1
  Co  Co3  1  0.36051500  0.36051500  0.22013700  1
  O  O0  1  0.74686600  0.74686600  0.77564200  1
  O  O1  1  0.17794100  0.17794100  0.62401700  1
  O  O2  1  0.60638400  0.60638400  0.48439700  1
  O  O3  1  0.03748600  0.03748600  0.34069500  1
  O  O4  1  0.46090300  0.46090300  0.18531300  1
  O  O5  1  0.31800600  0.31800600  0.90865800  1
  O  O6  1  0.88898600  0.88898600  0.04965100  1
  O  O7  1  0.68199400  0.68199400  0.09134200  1
  O  O8  1  0.11101400  0.11101400  0.95034900  1
  O  O9  1  0.53909700  0.53909700  0.81468700  1
  O  O10  1  0.96251400  0.96251400  0.65930500  1
  O  O11  1  0.39361600  0.39361600  0.51560300  1
  O  O12  1  0.25313400  0.25313400  0.22435800  1
  O  O13  1  0.82205900  0.82205900  0.37598300  1
loop_
_geom_bond_atom_site_label_1
_geom_bond_atom_site_label_2
_geom_bond_distance
_geom_bond_site_symmetry_2
Li0 O1 2.072407 1_655
Li0 O1 2.072407 1_565
Li0 O7 2.101645 1_555
Li0 O12 2.235817 1_655
Li0 O12 2.235817 1_565
Li0 O0 2.236789 1_555
Li1 O2 2.069233 1_545
Li1 O2 2.069233 1_455
Li1 O8 2.072439 1_554
Li1 O7 2.235337 1_455
Li1 O7 2.235337 1_545
Li1 O1 2.265152 1_555
Li2 O9 2.048985 1_554
Li2 O3 2.049520 1_655
Li2 O3 2.049520 1_565
Li2 O8 2.213361 1_654
Li2 O8 2.213361 1_564
Li2 O2 2.272758 1_555
Li3 O9 2.149270 1_454
Li3 O9 2.149270 1_544
Li3 O4 2.149270 1_545
Li3 O4 2.149270 1_455
Li3 O3 2.264657 1_555
Li3 O10 2.264657 1_444
Li4 O4 2.048985 1_556
Li4 O10 2.049520 1_455
Li4 O10 2.049520 1_545
Li4 O6 2.213361 1_456
Li4 O6 2.213361 1_546
Li4 O11 2.272758 1_555
Li5 O13 2.072407 1_545
Li5 O13 2.072407 1_455
Li5 O5 2.101645 1_555
Li5 O0 2.235817 1_545
Li5 O0 2.235817 1_455
Li5 O12 2.236789 1_555
Li6 O11 2.069233 1_655
Li6 O11 2.069233 1_565
Li6 O6 2.072439 1_556
Li6 O5 2.235337 1_655
Li6 O5 2.235337 1_565
Li6 O13 2.265152 1_555
Li7 O10 2.066202 1_545
Li7 O10 2.066202 1_455
Li7 O3 2.066202 1_565
Li7 O3 2.066202 1_655
Li7 O9 2.189767 1_555
Li7 O4 2.189767 1_555
Mn0 O7 1.960266 1_546
Mn0 O7 1.960266 1_456
Mn0 O0 1.979008 1_545
Mn0 O0 1.979008 1_455
Mn0 O1 2.030462 1_555
Mn0 O12 2.162876 1_556
Mn1 O5 1.960266 1_654
Mn1 O5 1.960266 1_564
Mn1 O12 1.979008 1_655
Mn1 O12 1.979008 1_565
Mn1 O13 2.030462 1_555
Mn1 O0 2.162876 1_554
Co0 O8 1.927349 1_565
Co0 O8 1.927349 1_655
Co0 O2 1.976607 1_555
Co0 O1 2.079412 1_655
Co0 O1 2.079412 1_565
Co0 O7 2.255619 1_556
Co1 O3 1.846206 1_555
Co1 O9 1.944084 1_455
Co1 O9 1.944084 1_545
Co1 O2 2.095209 1_545
Co1 O2 2.095209 1_455
Co1 O8 2.357642 1_555
Co2 O10 1.846206 1_555
Co2 O4 1.944084 1_565
Co2 O4 1.944084 1_655
Co2 O11 2.095209 1_565
Co2 O11 2.095209 1_655
Co2 O6 2.357642 1_555
Co3 O6 1.927349 1_455
Co3 O6 1.927349 1_545
Co3 O11 1.976607 1_555
Co3 O13 2.079412 1_545
Co3 O13 2.079412 1_455
Co3 O5 2.255619 1_554
