# generated using pymatgen
data_Ce5Ge3C
_symmetry_space_group_name_H-M   'P 1'
_cell_length_a   8.82992664
_cell_length_b   8.82992647
_cell_length_c   6.47292360
_cell_angle_alpha   90.00000000
_cell_angle_beta   90.00000000
_cell_angle_gamma   119.99999688
_symmetry_Int_Tables_number   1
_chemical_formula_structural   Ce5Ge3C
_chemical_formula_sum   'Ce10 Ge6 C2'
_cell_volume   437.06427474
_cell_formula_units_Z   2
loop_
 _symmetry_equiv_pos_site_id
 _symmetry_equiv_pos_as_xyz
  1  'x, y, z'
loop_
 _atom_site_type_symbol
 _atom_site_label
 _atom_site_symmetry_multiplicity
 _atom_site_fract_x
 _atom_site_fract_y
 _atom_site_fract_z
 _atom_site_occupancy
  Ce  Ce0  1  0.66666700  0.33333300  -0.00000000  1
  Ce  Ce1  1  0.33333300  0.66666700  -0.00000000  1
  Ce  Ce2  1  0.33333300  0.66666700  0.50000000  1
  Ce  Ce3  1  0.66666700  0.33333300  0.50000000  1
  Ce  Ce4  1  0.77484797  0.77484797  0.75000000  1
  Ce  Ce5  1  0.22515203  0.00000000  0.75000000  1
  Ce  Ce6  1  0.00000000  0.22515203  0.75000000  1
  Ce  Ce7  1  0.22515203  0.22515203  0.25000000  1
  Ce  Ce8  1  0.77484797  -0.00000000  0.25000000  1
  Ce  Ce9  1  -0.00000000  0.77484797  0.25000000  1
  Ge  Ge0  1  0.39819357  0.39819357  0.75000000  1
  Ge  Ge1  1  0.60180643  0.00000000  0.75000000  1
  Ge  Ge2  1  0.00000000  0.60180643  0.75000000  1
  Ge  Ge3  1  0.60180643  0.60180643  0.25000000  1
  Ge  Ge4  1  0.39819357  1.00000000  0.25000000  1
  Ge  Ge5  1  1.00000000  0.39819357  0.25000000  1
  C  C0  1  -0.00000000  -0.00000000  -0.00000000  1
  C  C1  1  -0.00000000  -0.00000000  0.50000000  1
loop_
_geom_bond_atom_site_label_1
_geom_bond_atom_site_label_2
_geom_bond_distance
_geom_bond_site_symmetry_2
Ce0 Ge1 3.150246 1_554
Ce0 Ge5 3.150246 1_555
Ce0 Ge4 3.150249 1_545
Ce0 Ge2 3.150249 1_654
Ce0 Ge3 3.150253 1_555
Ce0 Ge0 3.150253 1_554
Ce1 Ge4 3.150246 1_555
Ce1 Ge2 3.150246 1_554
Ce1 Ge1 3.150249 1_564
Ce1 Ge5 3.150249 1_455
Ce1 Ge0 3.150253 1_554
Ce1 Ge3 3.150253 1_555
Ce2 Ge4 3.150246 1_555
Ce2 Ge2 3.150246 1_555
Ce2 Ge1 3.150249 1_565
Ce2 Ge5 3.150249 1_455
Ce2 Ge0 3.150253 1_555
Ce2 Ge3 3.150253 1_555
Ce3 Ge1 3.150246 1_555
Ce3 Ge5 3.150246 1_555
Ce3 Ge4 3.150249 1_545
Ce3 Ge2 3.150249 1_655
Ce3 Ge3 3.150253 1_555
Ce3 Ge0 3.150253 1_555
Ce4 Ge1 3.053642 1_565
Ce4 Ge2 3.053642 1_655
Ce4 Ge0 3.325831 1_555
Ce4 Ge3 3.579008 1_555
Ce4 Ge3 3.579008 1_556
Ce5 Ge0 3.053642 1_555
Ce5 Ge2 3.053642 1_545
Ce5 Ge1 3.325831 1_555
Ce5 Ge4 3.579008 1_545
Ce5 Ge4 3.579008 1_546
Ce6 Ge0 3.053642 1_555
Ce6 Ge1 3.053642 1_455
Ce6 Ge2 3.325831 1_555
Ce6 Ge5 3.579008 1_456
Ce6 Ge5 3.579008 1_455
Ce7 Ge4 3.053642 1_545
Ce7 Ge5 3.053642 1_455
Ce7 Ge3 3.325831 1_555
Ce7 Ge0 3.579008 1_554
Ce7 Ge0 3.579008 1_555
Ce8 Ge3 3.053642 1_545
Ce8 Ge5 3.053642 1_555
Ce8 Ge4 3.325831 1_545
Ce8 Ge1 3.579008 1_555
Ce8 Ge1 3.579008 1_554
Ce9 Ge3 3.053642 1_455
Ce9 Ge4 3.053642 1_555
Ce9 Ge5 3.325831 1_455
Ce9 Ge2 3.579008 1_554
Ce9 Ge2 3.579008 1_555
C0 Ce9 2.563419 1_545
C0 Ce6 2.563419 1_554
C0 Ce8 2.563419 1_455
C0 Ce5 2.563419 1_554
C0 Ce4 2.563419 1_444
C0 Ce7 2.563419 1_555
C1 Ce9 2.563419 1_545
C1 Ce6 2.563419 1_555
C1 Ce8 2.563419 1_455
C1 Ce5 2.563419 1_555
C1 Ce4 2.563419 1_445
C1 Ce7 2.563419 1_555
