# generated using pymatgen
data_Li7Mn5O12
_symmetry_space_group_name_H-M   'P 1'
_cell_length_a   5.99549365
_cell_length_b   6.51445306
_cell_length_c   6.50804523
_cell_angle_alpha   97.09327959
_cell_angle_beta   66.24300566
_cell_angle_gamma   76.62486803
_symmetry_Int_Tables_number   1
_chemical_formula_structural   Li7Mn5O12
_chemical_formula_sum   'Li7 Mn5 O12'
_cell_volume   219.53427975
_cell_formula_units_Z   1
loop_
 _symmetry_equiv_pos_site_id
 _symmetry_equiv_pos_as_xyz
  1  'x, y, z'
loop_
 _atom_site_type_symbol
 _atom_site_label
 _atom_site_symmetry_multiplicity
 _atom_site_fract_x
 _atom_site_fract_y
 _atom_site_fract_z
 _atom_site_occupancy
  Li  Li0  1  0.49999100  0.33337000  0.33334900  1
  Li  Li1  1  0.25814700  0.65216600  0.17240200  1
  Li  Li2  1  0.74191100  0.01448500  0.49431700  1
  Li  Li3  1  0.23790000  0.33028200  0.84045700  1
  Li  Li4  1  0.76211300  0.33643400  0.82622000  1
  Li  Li5  1  0.74594400  0.66474100  0.16431600  1
  Li  Li6  1  0.25409200  0.00188900  0.50232700  1
  Mn  Mn0  1  0.98657400  0.00203800  0.00925200  1
  Mn  Mn1  1  0.01326700  0.66462200  0.65746200  1
  Mn  Mn2  1  0.99999700  0.33333300  0.33332700  1
  Mn  Mn3  1  0.49817600  0.00275600  0.00497800  1
  Mn  Mn4  1  0.50178800  0.66399700  0.66167400  1
  O  O0  1  0.37518400  0.98805300  0.76513400  1
  O  O1  1  0.62475600  0.67863100  0.90155800  1
  O  O2  1  0.88793200  0.31657300  0.09081300  1
  O  O3  1  0.11210900  0.35004400  0.57585600  1
  O  O4  1  0.36733900  0.67045600  0.43693000  1
  O  O5  1  0.63271800  0.99622700  0.22967400  1
  O  O6  1  0.89188100  0.98723300  0.75549300  1
  O  O7  1  0.10809700  0.67937100  0.91116400  1
  O  O8  1  0.34217100  0.31705100  0.10271100  1
  O  O9  1  0.65788200  0.34957200  0.56393700  1
  O  O10  1  0.90308000  0.64828000  0.41329000  1
  O  O11  1  0.09695000  0.01839500  0.25335900  1
loop_
_geom_bond_atom_site_label_1
_geom_bond_atom_site_label_2
_geom_bond_distance
_geom_bond_site_symmetry_2
Li0 O4 2.074489 1_555
Li0 O5 2.074862 1_545
Li0 O9 2.076293 1_555
Li0 O8 2.076314 1_555
Li0 O3 2.189612 1_555
Li0 O2 2.189707 1_555
Li1 O8 2.070734 1_555
Li1 O4 2.073655 1_555
Li1 O10 2.082290 1_455
Li1 O7 2.228055 1_554
Li1 O1 2.257582 1_554
Li1 O11 2.261883 1_565
Li2 O9 2.070558 1_555
Li2 O5 2.074365 1_545
Li2 O11 2.082379 1_655
Li2 O6 2.227370 1_545
Li2 O0 2.257905 1_545
Li2 O10 2.261691 1_545
Li3 O8 2.045086 1_556
Li3 O2 2.105559 1_456
Li3 O0 2.108122 1_545
Li3 O3 2.146392 1_555
Li3 O7 2.150175 1_555
Li3 O9 2.479094 1_555
Li4 O9 2.045071 1_555
Li4 O3 2.105458 1_655
Li4 O1 2.107944 1_555
Li4 O2 2.146504 1_556
Li4 O6 2.150851 1_545
Li4 O8 2.479084 1_556
Li5 O5 2.041388 1_555
Li5 O1 2.114057 1_554
Li5 O2 2.146752 1_555
Li5 O7 2.165681 1_654
Li5 O10 2.179604 1_555
Li5 O4 2.236387 1_555
Li6 O4 2.041045 1_545
Li6 O0 2.113959 1_545
Li6 O3 2.146659 1_555
Li6 O6 2.166022 1_445
Li6 O11 2.179606 1_555
Li6 O5 2.236680 1_545
Mn0 O2 1.935930 1_555
Mn0 O6 1.949467 1_544
Mn0 O11 1.952176 1_655
Mn0 O7 1.985463 1_644
Mn0 O5 2.039281 1_545
Mn0 O0 2.201011 1_644
Mn1 O3 1.936144 1_555
Mn1 O7 1.949636 1_555
Mn1 O10 1.951802 1_455
Mn1 O6 1.985113 1_455
Mn1 O4 2.040524 1_555
Mn1 O1 2.200474 1_455
Mn2 O11 1.938764 1_655
Mn2 O10 1.938831 1_555
Mn2 O2 1.949396 1_555
Mn2 O3 1.949669 1_655
Mn2 O9 1.962381 1_555
Mn2 O8 1.962571 1_655
Mn3 O5 1.934114 1_545
Mn3 O8 1.945387 1_555
Mn3 O0 1.978012 1_544
Mn3 O1 1.995862 1_544
Mn3 O6 2.231433 1_544
Mn3 O11 2.263391 1_555
Mn4 O4 1.933996 1_555
Mn4 O9 1.946207 1_555
Mn4 O1 1.978138 1_555
Mn4 O0 1.995459 1_555
Mn4 O7 2.231660 1_555
Mn4 O10 2.263552 1_555
