# generated using pymatgen
data_Ba3(FeN2)2
_symmetry_space_group_name_H-M   'P 1'
_cell_length_a   6.10732011
_cell_length_b   10.12115468
_cell_length_c   10.12312921
_cell_angle_alpha   90.00000000
_cell_angle_beta   90.00000000
_cell_angle_gamma   90.00000000
_symmetry_Int_Tables_number   1
_chemical_formula_structural   Ba3(FeN2)2
_chemical_formula_sum   'Ba12 Fe8 N16'
_cell_volume   625.74231719
_cell_formula_units_Z   4
loop_
 _symmetry_equiv_pos_site_id
 _symmetry_equiv_pos_as_xyz
  1  'x, y, z'
loop_
 _atom_site_type_symbol
 _atom_site_label
 _atom_site_symmetry_multiplicity
 _atom_site_fract_x
 _atom_site_fract_y
 _atom_site_fract_z
 _atom_site_occupancy
  Ba  Ba0  1  0.60520140  0.15816179  0.41550621  1
  Ba  Ba1  1  0.89479860  0.84183821  0.41550621  1
  Ba  Ba2  1  0.60520140  0.34183821  0.08449379  1
  Ba  Ba3  1  0.89479860  0.65816179  0.08449379  1
  Ba  Ba4  1  0.39479860  0.84183821  0.58449379  1
  Ba  Ba5  1  0.10520140  0.15816179  0.58449379  1
  Ba  Ba6  1  0.39479860  0.65816179  0.91550621  1
  Ba  Ba7  1  0.10520140  0.34183821  0.91550621  1
  Ba  Ba8  1  0.75000000  0.50000000  0.40115478  1
  Ba  Ba9  1  0.75000000  -0.00000000  0.09884522  1
  Ba  Ba10  1  0.25000000  0.50000000  0.59884522  1
  Ba  Ba11  1  0.25000000  -0.00000000  0.90115478  1
  Fe  Fe0  1  0.75000000  0.50000000  0.73232513  1
  Fe  Fe1  1  0.75000000  0.00000000  0.76767487  1
  Fe  Fe2  1  0.25000000  0.50000000  0.26767487  1
  Fe  Fe3  1  0.25000000  -0.00000000  0.23232513  1
  Fe  Fe4  1  0.64608059  0.25000000  0.75000000  1
  Fe  Fe5  1  0.85391941  0.75000000  0.75000000  1
  Fe  Fe6  1  0.35391941  0.75000000  0.25000000  1
  Fe  Fe7  1  0.14608059  0.25000000  0.25000000  1
  N  N0  1  0.83748275  0.35822274  0.63478966  1
  N  N1  1  0.66251725  0.64177726  0.63478966  1
  N  N2  1  0.83748275  0.14177726  0.86521034  1
  N  N3  1  0.66251725  0.85822274  0.86521034  1
  N  N4  1  0.16251725  0.64177726  0.36521034  1
  N  N5  1  0.33748275  0.35822274  0.36521034  1
  N  N6  1  0.16251725  0.85822274  0.13478966  1
  N  N7  1  0.33748275  0.14177726  0.13478966  1
  N  N8  1  0.52923980  0.41285694  0.82644898  1
  N  N9  1  0.97076020  0.58714306  0.82644898  1
  N  N10  1  0.52923980  0.08714306  0.67355102  1
  N  N11  1  0.97076020  0.91285694  0.67355102  1
  N  N12  1  0.47076020  0.58714306  0.17355102  1
  N  N13  1  0.02923980  0.41285694  0.17355102  1
  N  N14  1  0.47076020  0.91285694  0.32644898  1
  N  N15  1  0.02923980  0.08714306  0.32644898  1
loop_
_geom_bond_atom_site_label_1
_geom_bond_atom_site_label_2
_geom_bond_distance
_geom_bond_site_symmetry_2
Ba0 N5 2.651907 1_555
Ba0 N10 2.748742 1_555
Ba0 N14 2.766057 1_545
Ba0 N15 2.834815 1_655
Ba0 N7 3.282727 1_555
Ba0 N0 3.322672 1_555
Ba1 N4 2.651907 1_655
Ba1 N11 2.748742 1_555
Ba1 N15 2.766057 1_665
Ba1 N14 2.834815 1_555
Ba1 N6 3.282727 1_655
Ba1 N1 3.322672 1_555
Ba2 N7 2.651907 1_555
Ba2 N8 2.748742 1_554
Ba2 N12 2.766057 1_555
Ba2 N13 2.834815 1_655
Ba2 N5 3.282727 1_555
Ba2 N2 3.322672 1_554
Ba3 N6 2.651907 1_655
Ba3 N9 2.748742 1_554
Ba3 N13 2.766057 1_655
Ba3 N12 2.834815 1_555
Ba3 N4 3.282727 1_655
Ba3 N3 3.322672 1_554
Ba4 N1 2.651907 1_555
Ba4 N14 2.748742 1_555
Ba4 N10 2.766057 1_565
Ba4 N11 2.834815 1_455
Ba4 N3 3.282727 1_555
Ba4 N4 3.322672 1_555
Ba5 N0 2.651907 1_455
Ba5 N15 2.748742 1_555
Ba5 N11 2.766057 1_445
Ba5 N10 2.834815 1_555
Ba5 N2 3.282727 1_455
Ba5 N5 3.322672 1_555
Ba6 N3 2.651907 1_555
Ba6 N12 2.748742 1_556
Ba6 N8 2.766057 1_555
Ba6 N9 2.834815 1_455
Ba6 N1 3.282727 1_555
Ba6 N6 3.322672 1_556
Ba7 N2 2.651907 1_455
Ba7 N13 2.748742 1_556
Ba7 N9 2.766057 1_455
Ba7 N8 2.834815 1_555
Ba7 N0 3.282727 1_455
Ba7 N7 3.322672 1_556
Ba8 N0 2.817502 1_555
Ba8 N1 2.817502 1_555
Ba8 N5 2.922111 1_555
Ba8 N4 2.922111 1_655
Ba8 N12 2.999170 1_555
Ba8 N13 2.999170 1_655
Ba9 N2 2.817502 1_554
Ba9 N3 2.817502 1_544
Ba9 N7 2.922111 1_555
Ba9 N6 2.922111 1_645
Ba9 N15 2.999170 1_655
Ba9 N14 2.999170 1_545
Ba10 N5 2.817502 1_555
Ba10 N4 2.817502 1_555
Ba10 N0 2.922111 1_455
Ba10 N1 2.922111 1_555
Ba10 N8 2.999170 1_555
Ba10 N9 2.999170 1_455
Ba11 N6 2.817502 1_546
Ba11 N7 2.817502 1_556
Ba11 N2 2.922111 1_455
Ba11 N3 2.922111 1_545
Ba11 N11 2.999170 1_445
Ba11 N10 2.999170 1_555
Fe0 N0 1.821930 1_555
Fe0 N1 1.821930 1_555
Fe0 N8 1.871783 1_555
Fe0 N9 1.871783 1_555
Fe1 N2 1.821930 1_555
Fe1 N3 1.821930 1_545
Fe1 N10 1.871783 1_555
Fe1 N11 1.871783 1_545
Fe2 N5 1.821930 1_555
Fe2 N4 1.821930 1_555
Fe2 N13 1.871783 1_555
Fe2 N12 1.871783 1_555
Fe3 N7 1.821930 1_555
Fe3 N6 1.821930 1_545
Fe3 N15 1.871783 1_555
Fe3 N14 1.871783 1_545
Fe4 N10 1.955766 1_555
Fe4 N8 1.955766 1_555
Fe4 N2 1.981528 1_555
Fe4 N0 1.981528 1_555
Fe5 N9 1.955766 1_555
Fe5 N11 1.955766 1_555
Fe5 N3 1.981528 1_555
Fe5 N1 1.981528 1_555
Fe6 N12 1.955766 1_555
Fe6 N14 1.955766 1_555
Fe6 N6 1.981528 1_555
Fe6 N4 1.981528 1_555
Fe7 N13 1.955766 1_555
Fe7 N15 1.955766 1_555
Fe7 N5 1.981528 1_555
Fe7 N7 1.981528 1_555
