# generated using pymatgen
data_NaH6CN2ClO2
_symmetry_space_group_name_H-M   'P 1'
_cell_length_a   5.25509300
_cell_length_b   6.66838400
_cell_length_c   17.50248200
_cell_angle_alpha   90.00000000
_cell_angle_beta   90.00000000
_cell_angle_gamma   90.00000000
_symmetry_Int_Tables_number   1
_chemical_formula_structural   NaH6CN2ClO2
_chemical_formula_sum   'Na4 H24 C4 N8 Cl4 O8'
_cell_volume   613.33909307
_cell_formula_units_Z   4
loop_
 _symmetry_equiv_pos_site_id
 _symmetry_equiv_pos_as_xyz
  1  'x, y, z'
loop_
 _atom_site_type_symbol
 _atom_site_label
 _atom_site_symmetry_multiplicity
 _atom_site_fract_x
 _atom_site_fract_y
 _atom_site_fract_z
 _atom_site_occupancy
  Na  Na0  1  0.31149200  0.51505500  0.00000000  1
  Na  Na1  1  0.81149200  0.48494500  0.50000000  1
  Na  Na2  1  0.30794000  0.99062200  0.00000000  1
  Na  Na3  1  0.80794000  0.00937800  0.50000000  1
  H  H0  1  0.73302000  0.24363800  0.04406100  1
  H  H1  1  0.73302000  0.24363800  0.95593900  1
  H  H2  1  0.23302000  0.75636200  0.45593900  1
  H  H3  1  0.23302000  0.75636200  0.54406100  1
  H  H4  1  0.84533800  0.75862400  0.04312600  1
  H  H5  1  0.84533800  0.75862400  0.95687400  1
  H  H6  1  0.34533800  0.24137600  0.45687400  1
  H  H7  1  0.34533800  0.24137600  0.54312600  1
  H  H8  1  0.76424000  0.03059600  0.32163100  1
  H  H9  1  0.76424000  0.03059600  0.67836900  1
  H  H10  1  0.26424000  0.96940400  0.17836900  1
  H  H11  1  0.26424000  0.96940400  0.82163100  1
  H  H12  1  0.87874300  0.14816900  0.23790200  1
  H  H13  1  0.87874300  0.14816900  0.76209800  1
  H  H14  1  0.37874300  0.85183100  0.26209800  1
  H  H15  1  0.37874300  0.85183100  0.73790200  1
  H  H16  1  0.28832300  0.47742400  0.33578900  1
  H  H17  1  0.28832300  0.47742400  0.66421100  1
  H  H18  1  0.78832300  0.52257600  0.16421100  1
  H  H19  1  0.78832300  0.52257600  0.83578900  1
  H  H20  1  0.19334600  0.38278600  0.24598000  1
  H  H21  1  0.19334600  0.38278600  0.75402000  1
  H  H22  1  0.69334600  0.61721400  0.25402000  1
  H  H23  1  0.69334600  0.61721400  0.74598000  1
  C  C0  1  0.02027400  0.25530600  0.34016200  1
  C  C1  1  0.02027400  0.25530600  0.65983800  1
  C  C2  1  0.52027400  0.74469400  0.15983800  1
  C  C3  1  0.52027400  0.74469400  0.84016200  1
  N  N0  1  0.86675600  0.14116200  0.29609100  1
  N  N1  1  0.86675600  0.14116200  0.70390900  1
  N  N2  1  0.36675600  0.85883800  0.20390900  1
  N  N3  1  0.36675600  0.85883800  0.79609100  1
  N  N4  1  0.17807700  0.38347700  0.30409000  1
  N  N5  1  0.17807700  0.38347700  0.69591000  1
  N  N6  1  0.67807700  0.61652300  0.19591000  1
  N  N7  1  0.67807700  0.61652300  0.80409000  1
  Cl  Cl0  1  0.06723000  0.25732500  0.11941400  1
  Cl  Cl1  1  0.06723000  0.25732500  0.88058600  1
  Cl  Cl2  1  0.56723000  0.74267500  0.38058600  1
  Cl  Cl3  1  0.56723000  0.74267500  0.61941400  1
  O  O0  1  0.61516600  0.24948000  0.00000000  1
  O  O1  1  0.11516600  0.75052000  0.50000000  1
  O  O2  1  0.96687500  0.75648500  0.00000000  1
  O  O3  1  0.46687500  0.24351500  0.50000000  1
  O  O4  1  0.01509000  0.24371700  0.41286800  1
  O  O5  1  0.01509000  0.24371700  0.58713200  1
  O  O6  1  0.51509000  0.75628300  0.08713200  1
  O  O7  1  0.51509000  0.75628300  0.91286800  1
loop_
_geom_bond_atom_site_label_1
_geom_bond_atom_site_label_2
_geom_bond_distance
_geom_bond_site_symmetry_2
Na0 O0 2.383899 1_555
Na0 O2 2.423145 1_455
Na0 O7 2.461310 1_554
Na0 O6 2.461310 1_555
Na1 O1 2.383899 1_655
Na1 O3 2.423145 1_555
Na1 O5 2.461310 1_655
Na1 O4 2.461310 1_655
Na2 O0 2.363527 1_565
Na2 O2 2.377004 1_455
Na2 O7 2.439806 1_554
Na2 O6 2.439806 1_555
Na3 O1 2.363527 1_645
Na3 O3 2.377004 1_555
Na3 O5 2.439806 1_655
Na3 O4 2.439806 1_655
H0 O0 0.989851 1_555
H1 O0 0.989851 1_556
H2 O1 0.989851 1_555
H3 O1 0.989851 1_555
H4 O2 0.988872 1_555
H5 O2 0.988872 1_556
H6 O3 0.988872 1_555
H7 O3 0.988872 1_555
H8 N0 1.016690 1_555
H9 N1 1.016690 1_555
H10 N2 1.016690 1_555
H11 N3 1.016690 1_555
H12 N0 1.021467 1_555
H13 N1 1.021467 1_555
H14 N2 1.021467 1_555
H15 N3 1.021467 1_555
H16 N4 1.017809 1_555
H17 N5 1.017809 1_555
H18 N6 1.017809 1_555
H19 N7 1.017809 1_555
H20 N4 1.020240 1_555
H21 N5 1.020240 1_555
H22 N6 1.020240 1_555
H23 N7 1.020240 1_555
C0 O4 1.275171 1_555
C0 N4 1.347884 1_555
C0 N0 1.350996 1_455
C1 O5 1.275171 1_555
C1 N5 1.347884 1_555
C1 N1 1.350996 1_455
C2 O6 1.275171 1_555
C2 N6 1.347884 1_555
C2 N2 1.350996 1_555
C3 O7 1.275171 1_555
C3 N7 1.347884 1_555
C3 N3 1.350996 1_555
Cl0 Na0 2.994943 1_555
Cl0 Na2 3.021815 1_545
Cl1 Na0 2.994943 1_556
Cl1 Na2 3.021815 1_546
Cl2 Na1 2.994943 1_555
Cl2 Na3 3.021815 1_565
Cl3 Na1 2.994943 1_555
Cl3 Na3 3.021815 1_565
