# generated using pymatgen
data_Li7Mn2(CoO4)3
_symmetry_space_group_name_H-M   'P 1'
_cell_length_a   7.75668011
_cell_length_b   7.75668011
_cell_length_c   9.84841901
_cell_angle_alpha   80.21358584
_cell_angle_beta   80.21358584
_cell_angle_gamma   21.57814901
_symmetry_Int_Tables_number   1
_chemical_formula_structural   Li7Mn2(CoO4)3
_chemical_formula_sum   'Li7 Mn2 Co3 O12'
_cell_volume   214.63156241
_cell_formula_units_Z   1
loop_
 _symmetry_equiv_pos_site_id
 _symmetry_equiv_pos_as_xyz
  1  'x, y, z'
loop_
 _atom_site_type_symbol
 _atom_site_label
 _atom_site_symmetry_multiplicity
 _atom_site_fract_x
 _atom_site_fract_y
 _atom_site_fract_z
 _atom_site_occupancy
  Li  Li0  1  0.58192300  0.58192300  0.75432800  1
  Li  Li1  1  0.75563500  0.75563500  0.23885500  1
  Li  Li2  1  0.90915800  0.90915800  0.75900200  1
  Li  Li3  1  0.25294800  0.25294800  0.75680000  1
  Li  Li4  1  0.41552900  0.41552900  0.24216600  1
  Li  Li5  1  0.08247300  0.08247300  0.24397600  1
  Li  Li6  1  0.33376300  0.33376300  0.00165000  1
  Mn  Mn0  1  0.99527200  0.99527200  0.00426900  1
  Mn  Mn1  1  0.16755900  0.16755900  0.49748500  1
  Co  Co0  1  0.49630000  0.49630000  0.50419100  1
  Co  Co1  1  0.67771500  0.67771500  0.99345900  1
  Co  Co2  1  0.84143200  0.84143200  0.49807700  1
  O  O0  1  0.46477400  0.46477400  0.88880700  1
  O  O1  1  0.63081200  0.63081200  0.38698800  1
  O  O2  1  0.78255300  0.78255300  0.87891400  1
  O  O3  1  0.12093500  0.12093500  0.89431900  1
  O  O4  1  0.28647900  0.28647900  0.38917100  1
  O  O5  1  0.95507000  0.95507000  0.38251500  1
  O  O6  1  0.70533300  0.70533300  0.60727300  1
  O  O7  1  0.88442600  0.88442600  0.11584900  1
  O  O8  1  0.04992700  0.04992700  0.61134400  1
  O  O9  1  0.36998800  0.36998800  0.62420500  1
  O  O10  1  0.53857300  0.53857300  0.11084000  1
  O  O11  1  0.20142000  0.20142000  0.11551700  1
loop_
_geom_bond_atom_site_label_1
_geom_bond_atom_site_label_2
_geom_bond_distance
_geom_bond_site_symmetry_2
Li0 O0 2.030497 1_555
Li0 O8 2.136962 1_655
Li0 O8 2.136962 1_565
Li0 O3 2.155504 1_655
Li0 O3 2.155504 1_565
Li0 O6 2.166047 1_555
Li1 O7 2.120556 1_555
Li1 O11 2.147944 1_655
Li1 O11 2.147944 1_565
Li1 O4 2.182101 1_565
Li1 O4 2.182101 1_655
Li1 O1 2.187761 1_555
Li2 O2 2.080509 1_555
Li2 O9 2.121607 1_655
Li2 O9 2.121607 1_565
Li2 O0 2.199053 1_655
Li2 O0 2.199053 1_565
Li2 O8 2.374234 1_665
Li3 O2 1.986439 1_545
Li3 O2 1.986439 1_455
Li3 O9 2.020001 1_555
Li3 O3 2.222281 1_555
Li3 O6 2.274462 1_455
Li3 O6 2.274462 1_545
Li4 O7 2.021046 1_545
Li4 O7 2.021046 1_455
Li4 O10 2.085529 1_555
Li4 O5 2.161056 1_455
Li4 O5 2.161056 1_545
Li4 O4 2.231201 1_555
Li5 O11 2.023020 1_555
Li5 O10 2.139773 1_545
Li5 O10 2.139773 1_455
Li5 O5 2.171243 1_445
Li5 O1 2.234664 1_455
Li5 O1 2.234664 1_545
Li6 O7 2.066348 1_545
Li6 O7 2.066348 1_455
Li6 O0 2.110258 1_554
Li6 O2 2.122469 1_544
Li6 O2 2.122469 1_454
Li6 O11 2.131273 1_555
Mn0 O7 1.848932 1_555
Mn0 O0 1.949424 1_654
Mn0 O0 1.949424 1_564
Mn0 O10 1.971037 1_565
Mn0 O10 1.971037 1_655
Mn0 O3 2.030300 1_664
Mn1 O4 1.937291 1_555
Mn1 O8 1.942986 1_555
Mn1 O1 1.953721 1_545
Mn1 O1 1.953721 1_455
Mn1 O6 1.955544 1_545
Mn1 O6 1.955544 1_455
Co0 O8 2.046525 1_565
Co0 O8 2.046525 1_655
Co0 O5 2.049295 1_545
Co0 O5 2.049295 1_455
Co0 O9 2.077219 1_555
Co0 O1 2.171491 1_555
Co1 O2 1.789224 1_555
Co1 O11 1.958081 1_566
Co1 O11 1.958081 1_656
Co1 O3 2.025511 1_655
Co1 O3 2.025511 1_565
Co1 O10 2.232530 1_556
Co2 O5 1.900565 1_555
Co2 O9 2.006918 1_655
Co2 O9 2.006918 1_565
Co2 O4 2.066596 1_655
Co2 O4 2.066596 1_565
Co2 O6 2.164768 1_555
