# generated using pymatgen
data_Zn3Fe2(SiO4)3
_symmetry_space_group_name_H-M   'P 1'
_cell_length_a   10.26927035
_cell_length_b   10.26927035
_cell_length_c   10.26927035
_cell_angle_alpha   109.47122063
_cell_angle_beta   109.47122063
_cell_angle_gamma   109.47122063
_symmetry_Int_Tables_number   1
_chemical_formula_structural   Zn3Fe2(SiO4)3
_chemical_formula_sum   'Zn12 Fe8 Si12 O48'
_cell_volume   833.67517800
_cell_formula_units_Z   4
loop_
 _symmetry_equiv_pos_site_id
 _symmetry_equiv_pos_as_xyz
  1  'x, y, z'
loop_
 _atom_site_type_symbol
 _atom_site_label
 _atom_site_symmetry_multiplicity
 _atom_site_fract_x
 _atom_site_fract_y
 _atom_site_fract_z
 _atom_site_occupancy
  Zn  Zn0  1  0.25000000  0.37500000  0.12500000  1
  Zn  Zn1  1  0.75000000  0.12500000  0.37500000  1
  Zn  Zn2  1  0.37500000  0.12500000  0.25000000  1
  Zn  Zn3  1  0.12500000  0.37500000  0.75000000  1
  Zn  Zn4  1  0.25000000  0.87500000  0.62500000  1
  Zn  Zn5  1  0.12500000  0.25000000  0.37500000  1
  Zn  Zn6  1  0.62500000  0.25000000  0.87500000  1
  Zn  Zn7  1  0.75000000  0.62500000  0.87500000  1
  Zn  Zn8  1  0.87500000  0.75000000  0.62500000  1
  Zn  Zn9  1  0.87500000  0.62500000  0.25000000  1
  Zn  Zn10  1  0.62500000  0.87500000  0.75000000  1
  Zn  Zn11  1  0.37500000  0.75000000  0.12500000  1
  Fe  Fe0  1  0.50000000  0.00000000  0.00000000  1
  Fe  Fe1  1  0.50000000  0.50000000  0.00000000  1
  Fe  Fe2  1  0.00000000  0.50000000  0.50000000  1
  Fe  Fe3  1  0.00000000  0.00000000  0.50000000  1
  Fe  Fe4  1  0.50000000  0.50000000  0.50000000  1
  Fe  Fe5  1  0.00000000  0.50000000  0.00000000  1
  Fe  Fe6  1  0.50000000  0.00000000  0.50000000  1
  Fe  Fe7  1  0.00000000  0.00000000  0.00000000  1
  Si  Si0  1  0.12500000  0.75000000  0.87500000  1
  Si  Si1  1  0.87500000  0.25000000  0.12500000  1
  Si  Si2  1  0.75000000  0.37500000  0.62500000  1
  Si  Si3  1  0.12500000  0.87500000  0.25000000  1
  Si  Si4  1  0.25000000  0.12500000  0.87500000  1
  Si  Si5  1  0.37500000  0.62500000  0.75000000  1
  Si  Si6  1  0.37500000  0.25000000  0.62500000  1
  Si  Si7  1  0.87500000  0.12500000  0.75000000  1
  Si  Si8  1  0.62500000  0.37500000  0.25000000  1
  Si  Si9  1  0.75000000  0.87500000  0.12500000  1
  Si  Si10  1  0.25000000  0.62500000  0.37500000  1
  Si  Si11  1  0.62500000  0.75000000  0.37500000  1
  O  O0  1  0.58661300  0.89497300  0.37624500  1
  O  O1  1  0.37624500  0.58661300  0.89497300  1
  O  O2  1  0.28963200  0.30836000  0.91338700  1
  O  O3  1  0.48127200  0.60502700  0.19164000  1
  O  O4  1  0.30836000  0.89497300  0.01872800  1
  O  O5  1  0.12375500  0.01872800  0.21036800  1
  O  O6  1  0.37624500  0.28963200  0.48127200  1
  O  O7  1  0.89497300  0.37624500  0.58661300  1
  O  O8  1  0.19164000  0.21036800  0.58661300  1
  O  O9  1  0.48127200  0.37624500  0.28963200  1
  O  O10  1  0.89497300  0.01872800  0.30836000  1
  O  O11  1  0.60502700  0.91338700  0.12375500  1
  O  O12  1  0.91338700  0.12375500  0.60502700  1
  O  O13  1  0.28963200  0.48127200  0.37624500  1
  O  O14  1  0.58661300  0.19164000  0.21036800  1
  O  O15  1  0.21036800  0.58661300  0.19164000  1
  O  O16  1  0.01872800  0.30836000  0.89497300  1
  O  O17  1  0.91338700  0.28963200  0.30836000  1
  O  O18  1  0.01872800  0.21036800  0.12375500  1
  O  O19  1  0.80836000  0.78963200  0.41338700  1
  O  O20  1  0.19164000  0.48127200  0.60502700  1
  O  O21  1  0.60502700  0.19164000  0.48127200  1
  O  O22  1  0.21036800  0.12375500  0.01872800  1
  O  O23  1  0.12375500  0.60502700  0.91338700  1
  O  O24  1  0.41338700  0.10502700  0.62375500  1
  O  O25  1  0.62375500  0.41338700  0.10502700  1
  O  O26  1  0.71036800  0.69164000  0.08661300  1
  O  O27  1  0.51872800  0.39497300  0.80836000  1
  O  O28  1  0.69164000  0.10502700  0.98127200  1
  O  O29  1  0.87624500  0.98127200  0.78963200  1
  O  O30  1  0.62375500  0.71036800  0.51872800  1
  O  O31  1  0.10502700  0.62375500  0.41338700  1
  O  O32  1  0.87624500  0.39497300  0.08661300  1
  O  O33  1  0.78963200  0.87624500  0.98127200  1
  O  O34  1  0.39497300  0.80836000  0.51872800  1
  O  O35  1  0.69164000  0.08661300  0.71036800  1
  O  O36  1  0.80836000  0.51872800  0.39497300  1
  O  O37  1  0.98127200  0.78963200  0.87624500  1
  O  O38  1  0.08661300  0.71036800  0.69164000  1
  O  O39  1  0.98127200  0.69164000  0.10502700  1
  O  O40  1  0.78963200  0.41338700  0.80836000  1
  O  O41  1  0.41338700  0.80836000  0.78963200  1
  O  O42  1  0.71036800  0.51872800  0.62375500  1
  O  O43  1  0.08661300  0.87624500  0.39497300  1
  O  O44  1  0.39497300  0.08661300  0.87624500  1
  O  O45  1  0.10502700  0.98127200  0.69164000  1
  O  O46  1  0.51872800  0.62375500  0.71036800  1
  O  O47  1  0.30836000  0.91338700  0.28963200  1
loop_
_geom_bond_atom_site_label_1
_geom_bond_atom_site_label_2
_geom_bond_distance
_geom_bond_site_symmetry_2
Fe0 O11 2.012175 1_545
Fe0 O4 2.012175 1_545
Fe0 O41 2.012175 1_544
Fe0 O14 2.012175 1_555
Fe0 O28 2.012175 1_554
Fe0 O44 2.012175 1_554
Fe1 O1 2.012175 1_554
Fe1 O25 2.012175 1_555
Fe1 O2 2.012175 1_554
Fe1 O26 2.012175 1_555
Fe1 O3 2.012175 1_555
Fe1 O27 2.012175 1_554
Fe2 O7 2.012175 1_455
Fe2 O31 2.012175 1_555
Fe2 O17 2.012175 1_455
Fe2 O20 2.012175 1_555
Fe2 O38 2.012175 1_555
Fe2 O36 2.012175 1_455
Fe3 O12 2.012175 1_455
Fe3 O10 2.012175 1_455
Fe3 O19 2.012175 1_445
Fe3 O8 2.012175 1_555
Fe3 O45 2.012175 1_545
Fe3 O43 2.012175 1_545
Fe4 O9 2.012175 1_555
Fe4 O6 2.012175 1_555
Fe4 O13 2.012175 1_555
Fe4 O42 2.012175 1_555
Fe4 O30 2.012175 1_555
Fe4 O46 2.012175 1_555
Fe5 O23 2.012175 1_554
Fe5 O16 2.012175 1_554
Fe5 O40 2.012175 1_454
Fe5 O15 2.012175 1_555
Fe5 O39 2.012175 1_455
Fe5 O32 2.012175 1_455
Fe6 O0 2.012175 1_545
Fe6 O47 2.012175 1_545
Fe6 O24 2.012175 1_555
Fe6 O21 2.012175 1_555
Fe6 O35 2.012175 1_555
Fe6 O34 2.012175 1_545
Fe7 O29 2.012175 1_444
Fe7 O33 2.012175 1_444
Fe7 O37 2.012175 1_444
Fe7 O22 2.012175 1_555
Fe7 O5 2.012175 1_555
Fe7 O18 2.012175 1_555
O0 Si11 1.659492 1_555
O0 Zn11 2.267212 1_555
O0 Zn1 2.405733 1_565
O1 Si5 1.659492 1_555
O1 Zn3 2.267212 1_555
O1 Zn11 2.405733 1_556
O2 Si4 1.659492 1_555
O2 Zn0 2.267212 1_556
O2 Zn3 2.405733 1_555
O3 Si11 1.659492 1_555
O3 Zn11 2.267212 1_555
O3 Zn0 2.405733 1_555
O4 Si0 1.659492 1_554
O4 Zn11 2.267212 1_555
O4 Zn2 2.405733 1_565
O5 Si3 1.659492 1_545
O5 Zn2 2.267212 1_555
O5 Zn5 2.405733 1_555
O6 Si6 1.659492 1_555
O6 Zn5 2.267212 1_555
O6 Zn2 2.405733 1_555
O7 Si2 1.659492 1_555
O7 Zn1 2.267212 1_555
O7 Zn3 2.405733 1_655
O8 Si6 1.659492 1_555
O8 Zn5 2.267212 1_555
O8 Zn3 2.405733 1_555
O9 Si8 1.659492 1_555
O9 Zn2 2.267212 1_555
O9 Zn0 2.405733 1_555
O10 Si9 1.659492 1_545
O10 Zn1 2.267212 1_555
O10 Zn5 2.405733 1_655
O11 Si9 1.659492 1_555
O11 Zn1 2.267212 1_565
O11 Zn11 2.405733 1_555
O12 Si7 1.659492 1_555
O12 Zn3 2.267212 1_655
O12 Zn1 2.405733 1_555
O13 Si10 1.659492 1_555
O13 Zn0 2.267212 1_555
O13 Zn5 2.405733 1_555
O14 Si8 1.659492 1_555
O14 Zn2 2.267212 1_555
O14 Zn1 2.405733 1_555
O15 Si10 1.659492 1_555
O15 Zn0 2.267212 1_555
O15 Zn11 2.405733 1_555
O16 Si7 1.659492 1_455
O16 Zn3 2.267212 1_555
O16 Zn0 2.405733 1_556
O17 Si1 1.659492 1_555
O17 Zn5 2.267212 1_655
O17 Zn1 2.405733 1_555
O18 Si1 1.659492 1_455
O18 Zn5 2.267212 1_555
O18 Zn0 2.405733 1_555
O19 Si11 1.659492 1_555
O19 Zn8 2.267212 1_555
O19 Zn9 2.405733 1_555
O20 Si5 1.659492 1_555
O20 Zn3 2.267212 1_555
O20 Zn5 2.405733 1_555
O21 Si2 1.659492 1_555
O21 Zn1 2.267212 1_555
O21 Zn2 2.405733 1_555
O22 Si4 1.659492 1_554
O22 Zn0 2.267212 1_555
O22 Zn2 2.405733 1_555
O23 Si0 1.659492 1_555
O23 Zn11 2.267212 1_556
O23 Zn3 2.405733 1_555
O24 Si6 1.659492 1_555
O24 Zn6 2.267212 1_555
O24 Zn4 2.405733 1_545
O25 Si8 1.659492 1_555
O25 Zn9 2.267212 1_555
O25 Zn6 2.405733 1_554
O26 Si9 1.659492 1_555
O26 Zn7 2.267212 1_554
O26 Zn9 2.405733 1_555
O27 Si6 1.659492 1_555
O27 Zn6 2.267212 1_555
O27 Zn7 2.405733 1_555
O28 Si1 1.659492 1_556
O28 Zn6 2.267212 1_555
O28 Zn10 2.405733 1_545
O29 Si7 1.659492 1_565
O29 Zn10 2.267212 1_555
O29 Zn8 2.405733 1_555
O30 Si11 1.659492 1_555
O30 Zn8 2.267212 1_555
O30 Zn10 2.405733 1_555
O31 Si10 1.659492 1_555
O31 Zn4 2.267212 1_555
O31 Zn9 2.405733 1_455
O32 Si1 1.659492 1_555
O32 Zn6 2.267212 1_554
O32 Zn9 2.405733 1_555
O33 Si9 1.659492 1_556
O33 Zn7 2.267212 1_555
O33 Zn10 2.405733 1_555
O34 Si10 1.659492 1_555
O34 Zn4 2.267212 1_555
O34 Zn10 2.405733 1_555
O35 Si7 1.659492 1_555
O35 Zn10 2.267212 1_545
O35 Zn6 2.405733 1_555
O36 Si8 1.659492 1_555
O36 Zn9 2.267212 1_555
O36 Zn8 2.405733 1_555
O37 Si0 1.659492 1_655
O37 Zn8 2.267212 1_555
O37 Zn7 2.405733 1_555
O38 Si0 1.659492 1_555
O38 Zn8 2.267212 1_455
O38 Zn4 2.405733 1_555
O39 Si3 1.659492 1_655
O39 Zn9 2.267212 1_555
O39 Zn7 2.405733 1_554
O40 Si2 1.659492 1_555
O40 Zn7 2.267212 1_555
O40 Zn6 2.405733 1_555
O41 Si5 1.659492 1_555
O41 Zn10 2.267212 1_555
O41 Zn4 2.405733 1_555
O42 Si2 1.659492 1_555
O42 Zn7 2.267212 1_555
O42 Zn8 2.405733 1_555
O43 Si3 1.659492 1_555
O43 Zn9 2.267212 1_455
O43 Zn4 2.405733 1_555
O44 Si4 1.659492 1_555
O44 Zn4 2.267212 1_545
O44 Zn6 2.405733 1_555
O45 Si4 1.659492 1_565
O45 Zn4 2.267212 1_555
O45 Zn8 2.405733 1_455
O46 Si5 1.659492 1_555
O46 Zn10 2.267212 1_555
O46 Zn7 2.405733 1_555
O47 Si3 1.659492 1_555
O47 Zn2 2.267212 1_565
O47 Zn11 2.405733 1_555
