# generated using pymatgen
data_Rb2LiNb2(TeO6)2
_symmetry_space_group_name_H-M   'P 1'
_cell_length_a   7.59583995
_cell_length_b   7.82513297
_cell_length_c   7.57913552
_cell_angle_alpha   90.02277564
_cell_angle_beta   59.61056748
_cell_angle_gamma   120.65353375
_symmetry_Int_Tables_number   1
_chemical_formula_structural   Rb2LiNb2(TeO6)2
_chemical_formula_sum   'Rb2 Li1 Nb2 Te2 O12'
_cell_volume   313.52224429
_cell_formula_units_Z   1
loop_
 _symmetry_equiv_pos_site_id
 _symmetry_equiv_pos_as_xyz
  1  'x, y, z'
loop_
 _atom_site_type_symbol
 _atom_site_label
 _atom_site_symmetry_multiplicity
 _atom_site_fract_x
 _atom_site_fract_y
 _atom_site_fract_z
 _atom_site_occupancy
  Rb  Rb0  1  0.73447600  0.31186600  0.37553900  1
  Rb  Rb1  1  0.28724900  0.58566700  0.59079100  1
  Li  Li0  1  0.26179300  0.13323700  0.11306700  1
  Nb  Nb0  1  0.53003300  0.51135700  0.98419800  1
  Nb  Nb1  1  0.47631700  0.96024400  0.01119500  1
  Te  Te0  1  0.99450800  0.00882900  0.51014800  1
  Te  Te1  1  0.98724900  0.00681300  0.99623900  1
  O  O0  1  0.86843300  0.94706000  0.32741800  1
  O  O1  1  0.62378800  0.32852700  0.93768500  1
  O  O2  1  0.25842500  0.95437400  0.93576200  1
  O  O3  1  0.24137800  0.30615200  0.31771700  1
  O  O4  1  0.25304000  0.31618900  0.93683100  1
  O  O5  1  0.24664300  0.95703500  0.31392200  1
  O  O6  1  0.14306800  0.08435300  0.67341200  1
  O  O7  1  0.35503900  0.67991800  0.07609500  1
  O  O8  1  0.73116400  0.05776600  0.07834200  1
  O  O9  1  0.76023800  0.70859100  0.68242400  1
  O  O10  1  0.73864600  0.69431500  0.07715700  1
  O  O11  1  0.74958300  0.06377800  0.69169000  1
loop_
_geom_bond_atom_site_label_1
_geom_bond_atom_site_label_2
_geom_bond_distance
_geom_bond_site_symmetry_2
Li0 O1 1.918809 1_554
Li0 O2 1.939648 1_544
Li0 O5 1.973423 1_545
Li0 O4 2.006623 1_554
Li0 O3 2.056607 1_555
Li0 O0 2.083591 1_445
Nb0 O1 1.860847 1_555
Nb0 O10 1.967855 1_556
Nb0 O9 1.968602 1_555
Nb0 O4 2.091725 1_555
Nb0 O3 2.140379 1_556
Nb0 O7 2.200483 1_556
Nb1 O7 1.839638 1_555
Nb1 O2 1.986969 1_554
Nb1 O11 2.007527 1_564
Nb1 O8 2.019573 1_565
Nb1 O5 2.052816 1_555
Nb1 O1 2.438942 1_564
O0 Te0 1.984463 1_565
O0 Te1 2.147598 1_564
O0 Rb1 3.135154 1_555
O1 Rb1 3.552041 1_655
O2 Te1 2.127858 1_465
O3 Te0 1.960469 1_455
O3 Rb1 3.022887 1_555
O4 Te1 2.058358 1_455
O4 Rb1 3.185715 1_555
O5 Te0 1.988280 1_465
O6 Te0 1.971275 1_455
O6 Te1 2.023499 1_455
O6 Rb0 3.167613 1_555
O6 Rb1 3.450735 1_555
O7 Rb0 3.317081 1_455
O8 Te1 1.973808 1_554
O8 Rb0 3.005119 1_555
O9 Te0 1.944153 1_565
O10 Te1 2.010614 1_564
O10 Rb1 3.340561 1_555
O11 Te0 1.940246 1_555
O11 Rb0 3.167409 1_555
