# generated using pymatgen
data_InNi
_symmetry_space_group_name_H-M   'P 1'
_cell_length_a   5.22118912
_cell_length_b   5.22113828
_cell_length_c   4.32991331
_cell_angle_alpha   90.00000000
_cell_angle_beta   90.00000000
_cell_angle_gamma   119.99992208
_symmetry_Int_Tables_number   1
_chemical_formula_structural   InNi
_chemical_formula_sum   'In3 Ni3'
_cell_volume   102.22209894
_cell_formula_units_Z   3
loop_
 _symmetry_equiv_pos_site_id
 _symmetry_equiv_pos_as_xyz
  1  'x, y, z'
loop_
 _atom_site_type_symbol
 _atom_site_label
 _atom_site_symmetry_multiplicity
 _atom_site_fract_x
 _atom_site_fract_y
 _atom_site_fract_z
 _atom_site_occupancy
  In  In0  1  0.66666606  0.33333103  0.50000000  1
  In  In1  1  0.33333394  0.66666897  0.50000000  1
  In  In2  1  0.00000000  0.00000000  -0.00000000  1
  Ni  Ni0  1  0.00000000  0.50000000  -0.00000000  1
  Ni  Ni1  1  0.50000000  0.50000000  0.00000000  1
  Ni  Ni2  1  0.50000000  0.00000000  -0.00000000  1
loop_
_geom_bond_atom_site_label_1
_geom_bond_atom_site_label_2
_geom_bond_distance
_geom_bond_site_symmetry_2
In0 Ni2 2.637935 1_555
In0 Ni2 2.637935 1_556
In0 Ni1 2.637948 1_556
In0 Ni1 2.637948 1_555
In0 Ni0 2.637951 1_656
In0 Ni0 2.637951 1_655
In1 Ni2 2.637935 1_566
In1 Ni2 2.637935 1_565
In1 Ni1 2.637948 1_555
In1 Ni1 2.637948 1_556
In1 Ni0 2.637951 1_556
In1 Ni0 2.637951 1_555
In2 Ni0 2.610569 1_555
In2 Ni0 2.610569 1_545
In2 Ni1 2.610585 1_555
In2 Ni1 2.610585 1_445
In2 Ni2 2.610595 1_555
In2 Ni2 2.610595 1_455
Ni0 Ni2 2.610585 1_455
Ni0 Ni2 2.610585 1_565
Ni0 Ni1 2.610595 1_555
Ni0 Ni1 2.610595 1_455
Ni1 Ni2 2.610569 1_555
Ni1 Ni2 2.610569 1_565
