# generated using pymatgen
data_YbRe2
_symmetry_space_group_name_H-M   'P 1'
_cell_length_a   5.42670900
_cell_length_b   5.42670888
_cell_length_c   8.63708600
_cell_angle_alpha   90.00000000
_cell_angle_beta   90.00000000
_cell_angle_gamma   119.99999465
_symmetry_Int_Tables_number   1
_chemical_formula_structural   YbRe2
_chemical_formula_sum   'Yb4 Re8'
_cell_volume   220.27791479
_cell_formula_units_Z   4
loop_
 _symmetry_equiv_pos_site_id
 _symmetry_equiv_pos_as_xyz
  1  'x, y, z'
loop_
 _atom_site_type_symbol
 _atom_site_label
 _atom_site_symmetry_multiplicity
 _atom_site_fract_x
 _atom_site_fract_y
 _atom_site_fract_z
 _atom_site_occupancy
  Yb  Yb0  1  0.33333300  0.66666700  0.43775100  1
  Yb  Yb1  1  0.66666700  0.33333300  0.56224900  1
  Yb  Yb2  1  0.66666700  0.33333300  0.93775100  1
  Yb  Yb3  1  0.33333300  0.66666700  0.06224900  1
  Re  Re0  1  0.00000000  0.00000000  0.50000000  1
  Re  Re1  1  0.00000000  0.00000000  0.00000000  1
  Re  Re2  1  0.82697100  0.17302900  0.25000000  1
  Re  Re3  1  0.82697100  0.65394300  0.25000000  1
  Re  Re4  1  0.34605700  0.17302900  0.25000000  1
  Re  Re5  1  0.17302900  0.82697100  0.75000000  1
  Re  Re6  1  0.17302900  0.34605700  0.75000000  1
  Re  Re7  1  0.65394300  0.82697100  0.75000000  1
loop_
_geom_bond_atom_site_label_1
_geom_bond_atom_site_label_2
_geom_bond_distance
_geom_bond_site_symmetry_2
Re0 Re3 2.703235 1_445
Re0 Re6 2.703235 1_555
Re0 Re7 2.703235 1_445
Re0 Re4 2.703235 1_555
Re0 Re5 2.703237 1_545
Re0 Re2 2.703237 1_455
Re0 Yb0 3.178905 1_545
Re0 Yb1 3.178905 1_455
Re0 Yb1 3.178910 1_445
Re0 Yb0 3.178910 1_555
Re0 Yb0 3.178910 1_445
Re0 Yb1 3.178910 1_555
Re1 Re3 2.703235 1_445
Re1 Re6 2.703235 1_554
Re1 Re4 2.703235 1_555
Re1 Re7 2.703235 1_444
Re1 Re2 2.703237 1_455
Re1 Re5 2.703237 1_544
Re1 Yb3 3.178905 1_545
Re1 Yb2 3.178905 1_454
Re1 Yb3 3.178910 1_555
Re1 Yb2 3.178910 1_444
Re1 Yb2 3.178910 1_554
Re1 Yb3 3.178910 1_445
Re2 Re3 2.609780 1_555
Re2 Re4 2.609780 1_555
Re2 Re3 2.816929 1_545
Re2 Re4 2.816929 1_655
Re2 Yb2 3.089285 1_554
Re2 Yb1 3.089285 1_555
Re2 Yb0 3.161570 1_545
Re2 Yb3 3.161570 1_545
Re2 Yb0 3.161570 1_655
Re2 Yb3 3.161570 1_655
Re3 Re4 2.609781 1_555
Re3 Re4 2.816929 1_665
Re3 Yb1 3.089290 1_555
Re3 Yb2 3.089290 1_554
Re3 Yb3 3.161570 1_555
Re3 Yb0 3.161570 1_555
Re3 Yb3 3.161570 1_655
Re3 Yb0 3.161570 1_655
Re4 Yb1 3.089290 1_555
Re4 Yb2 3.089290 1_554
Re4 Yb3 3.161570 1_555
Re4 Yb0 3.161570 1_555
Re4 Yb0 3.161570 1_545
Re4 Yb3 3.161570 1_545
Re5 Re6 2.609780 1_555
Re5 Re7 2.609780 1_555
Re5 Re6 2.816929 1_565
Re5 Re7 2.816929 1_455
Re5 Yb0 3.089285 1_555
Re5 Yb3 3.089285 1_556
Re5 Yb2 3.161570 1_565
Re5 Yb1 3.161570 1_565
Re5 Yb2 3.161570 1_455
Re5 Yb1 3.161570 1_455
Re6 Re7 2.609781 1_555
Re6 Re7 2.816929 1_445
Re6 Yb0 3.089290 1_555
Re6 Yb3 3.089290 1_556
Re6 Yb2 3.161570 1_555
Re6 Yb1 3.161570 1_555
Re6 Yb1 3.161570 1_455
Re6 Yb2 3.161570 1_455
Re7 Yb0 3.089290 1_555
Re7 Yb3 3.089290 1_556
Re7 Yb1 3.161570 1_555
Re7 Yb2 3.161570 1_555
Re7 Yb2 3.161570 1_565
Re7 Yb1 3.161570 1_565
