# generated using pymatgen
data_GaSiC4N
_symmetry_space_group_name_H-M   'P 1'
_cell_length_a   9.87408950
_cell_length_b   9.87408950
_cell_length_c   13.75159911
_cell_angle_alpha   76.52422872
_cell_angle_beta   76.52422872
_cell_angle_gamma   64.39440392
_symmetry_Int_Tables_number   1
_chemical_formula_structural   GaSiC4N
_chemical_formula_sum   'Ga8 Si8 C32 N8'
_cell_volume   1162.32477979
_cell_formula_units_Z   8
loop_
 _symmetry_equiv_pos_site_id
 _symmetry_equiv_pos_as_xyz
  1  'x, y, z'
loop_
 _atom_site_type_symbol
 _atom_site_label
 _atom_site_symmetry_multiplicity
 _atom_site_fract_x
 _atom_site_fract_y
 _atom_site_fract_z
 _atom_site_occupancy
  Ga  Ga0  1  0.25433800  0.54170800  0.28926100  1
  Ga  Ga1  1  0.45829200  0.74566200  0.21073900  1
  Ga  Ga2  1  0.74566200  0.45829200  0.71073900  1
  Ga  Ga3  1  0.54170800  0.25433800  0.78926100  1
  Ga  Ga4  1  0.54676600  0.47576900  0.13887400  1
  Ga  Ga5  1  0.52423100  0.45323400  0.36112600  1
  Ga  Ga6  1  0.45323400  0.52423100  0.86112600  1
  Ga  Ga7  1  0.47576900  0.54676600  0.63887400  1
  Si  Si0  1  0.21480700  0.74315300  0.08969800  1
  Si  Si1  1  0.25684700  0.78519300  0.41030200  1
  Si  Si2  1  0.78519300  0.25684700  0.91030200  1
  Si  Si3  1  0.74315300  0.21480700  0.58969800  1
  Si  Si4  1  0.53802300  0.19793000  0.31455500  1
  Si  Si5  1  0.80207000  0.46197700  0.18544500  1
  Si  Si6  1  0.46197700  0.80207000  0.68544500  1
  Si  Si7  1  0.19793000  0.53802300  0.81455500  1
  C  C0  1  0.12373400  0.63323000  0.18891500  1
  C  C1  1  0.36677000  0.87626600  0.31108500  1
  C  C2  1  0.87626600  0.36677000  0.81108500  1
  C  C3  1  0.63323000  0.12373400  0.68891500  1
  C  C4  1  0.77196200  0.35810100  0.10427700  1
  C  C5  1  0.64189900  0.22803800  0.39572300  1
  C  C6  1  0.22803800  0.64189900  0.89572300  1
  C  C7  1  0.35810100  0.77196200  0.60427700  1
  C  C8  1  0.17139300  0.74827300  0.95870900  1
  C  C9  1  0.25172700  0.82860700  0.54129100  1
  C  C10  1  0.82860700  0.25172700  0.04129100  1
  C  C11  1  0.74827300  0.17139300  0.45870900  1
  C  C12  1  0.05915400  0.89938900  0.97017400  1
  C  C13  1  0.10061100  0.94084600  0.52982600  1
  C  C14  1  0.94084600  0.10061100  0.02982600  1
  C  C15  1  0.89938900  0.05915400  0.47017400  1
  C  C16  1  0.07902700  0.94633900  0.05181800  1
  C  C17  1  0.05366100  0.92097300  0.44818200  1
  C  C18  1  0.92097300  0.05366100  0.94818200  1
  C  C19  1  0.94633900  0.07902700  0.55181800  1
  C  C20  1  0.42294300  0.08656400  0.36601300  1
  C  C21  1  0.91343600  0.57705700  0.13398700  1
  C  C22  1  0.57705700  0.91343600  0.63398700  1
  C  C23  1  0.08656400  0.42294300  0.86601300  1
  C  C24  1  0.53057700  0.04164100  0.27099700  1
  C  C25  1  0.95835900  0.46942300  0.22900300  1
  C  C26  1  0.46942300  0.95835900  0.72900300  1
  C  C27  1  0.04164100  0.53057700  0.77099700  1
  C  C28  1  0.42408900  0.97613200  0.31631400  1
  C  C29  1  0.02386800  0.57591100  0.18368600  1
  C  C30  1  0.57591100  0.02386800  0.68368600  1
  C  C31  1  0.97613200  0.42408900  0.81631400  1
  N  N0  1  0.39716700  0.68379500  0.11465700  1
  N  N1  1  0.31620500  0.60283300  0.38534300  1
  N  N2  1  0.60283300  0.31620500  0.88534300  1
  N  N3  1  0.68379500  0.39716700  0.61465700  1
  N  N4  1  0.44653800  0.37577300  0.25303300  1
  N  N5  1  0.62422700  0.55346200  0.24696700  1
  N  N6  1  0.55346200  0.62422700  0.74696700  1
  N  N7  1  0.37577300  0.44653800  0.75303300  1
loop_
_geom_bond_atom_site_label_1
_geom_bond_atom_site_label_2
_geom_bond_distance
_geom_bond_site_symmetry_2
Ga0 N1 1.884085 1_555
Ga0 N4 1.945895 1_555
Ga1 N0 1.884085 1_555
Ga1 N5 1.945895 1_555
Ga2 N3 1.884085 1_555
Ga2 N6 1.945895 1_555
Ga3 N2 1.884085 1_555
Ga3 N7 1.945895 1_555
Ga4 N0 1.949348 1_555
Ga4 N4 1.953687 1_555
Ga4 N5 2.225214 1_555
Ga5 N1 1.949348 1_555
Ga5 N5 1.953687 1_555
Ga5 N4 2.225214 1_555
Ga6 N2 1.949348 1_555
Ga6 N6 1.953687 1_555
Ga6 N7 2.225214 1_555
Ga7 N3 1.949348 1_555
Ga7 N7 1.953687 1_555
Ga7 N6 2.225214 1_555
C0 C29 1.353613 1_555
C0 Si0 1.852004 1_555
C0 Ga0 1.903883 1_555
C1 C28 1.353613 1_555
C1 Si1 1.852004 1_555
C1 Ga1 1.903883 1_555
C2 C31 1.353613 1_555
C2 Si2 1.852004 1_555
C2 Ga2 1.903883 1_555
C3 C30 1.353613 1_555
C3 Si3 1.852004 1_555
C3 Ga3 1.903883 1_555
C4 Si5 1.827041 1_555
C4 Ga4 2.013009 1_555
C5 Si4 1.827041 1_555
C5 Ga5 2.013009 1_555
C6 C8 1.362620 1_555
C6 Si7 1.827041 1_555
C6 Ga6 2.013009 1_555
C7 C9 1.362620 1_555
C7 Si6 1.827041 1_555
C7 Ga7 2.013009 1_555
C8 Si0 1.931253 1_556
C9 Si1 1.931253 1_555
C10 C4 1.362620 1_555
C10 C14 1.441672 1_555
C10 Si2 1.931253 1_554
C11 C5 1.362620 1_555
C11 C15 1.441672 1_555
C11 Si3 1.931253 1_555
C12 C16 1.392066 1_556
C12 C8 1.441672 1_555
C12 C18 1.566733 1_465
C13 C17 1.392066 1_555
C13 C9 1.441672 1_555
C13 C19 1.566733 1_465
C14 C18 1.392066 1_554
C14 C16 1.566733 1_645
C15 C19 1.392066 1_555
C15 C17 1.566733 1_645
C16 Si0 1.899329 1_555
C17 Si1 1.899329 1_555
C18 Si2 1.899329 1_555
C19 Si3 1.899329 1_555
C20 C28 1.410420 1_545
C20 C24 1.499658 1_555
C20 Si4 1.828592 1_555
C21 C29 1.410420 1_655
C21 C25 1.499658 1_555
C21 Si5 1.828592 1_555
C22 C30 1.410420 1_565
C22 C26 1.499658 1_555
C22 Si6 1.828592 1_555
C23 C31 1.410420 1_455
C23 C27 1.499658 1_555
C23 Si7 1.828592 1_555
C24 C28 1.416672 1_545
C24 Si4 1.815245 1_555
C25 C29 1.416672 1_655
C25 Si5 1.815245 1_555
C26 C30 1.416672 1_565
C26 Si6 1.815245 1_555
C27 C31 1.416672 1_455
C27 Si7 1.815245 1_555
N0 Si0 1.727920 1_555
N1 Si1 1.727920 1_555
N2 Si2 1.727920 1_555
N3 Si3 1.727920 1_555
N4 Si4 1.705317 1_555
N5 Si5 1.705317 1_555
N6 Si6 1.705317 1_555
N7 Si7 1.705317 1_555
