# generated using pymatgen
data_Dy3Cu20Sb11
_symmetry_space_group_name_H-M   'P 1'
_cell_length_a   11.94414511
_cell_length_b   11.94414511
_cell_length_c   11.94414511
_cell_angle_alpha   60.00000000
_cell_angle_beta   60.00000000
_cell_angle_gamma   60.00000000
_symmetry_Int_Tables_number   1
_chemical_formula_structural   Dy3Cu20Sb11
_chemical_formula_sum   'Dy6 Cu40 Sb22'
_cell_volume   1204.89780936
_cell_formula_units_Z   2
loop_
 _symmetry_equiv_pos_site_id
 _symmetry_equiv_pos_as_xyz
  1  'x, y, z'
loop_
 _atom_site_type_symbol
 _atom_site_label
 _atom_site_symmetry_multiplicity
 _atom_site_fract_x
 _atom_site_fract_y
 _atom_site_fract_z
 _atom_site_occupancy
  Dy  Dy0  1  0.49123800  0.00876200  0.00876200  1
  Dy  Dy1  1  0.00876200  0.49123800  0.49123800  1
  Dy  Dy2  1  0.00876200  0.49123800  0.00876200  1
  Dy  Dy3  1  0.49123800  0.00876200  0.49123800  1
  Dy  Dy4  1  0.00876200  0.00876200  0.49123800  1
  Dy  Dy5  1  0.49123800  0.49123800  0.00876200  1
  Cu  Cu0  1  0.25096300  0.25096300  0.86695400  1
  Cu  Cu1  1  0.25096300  0.25096300  0.63112000  1
  Cu  Cu2  1  0.86695400  0.63112000  0.25096300  1
  Cu  Cu3  1  0.86695400  0.25096300  0.25096300  1
  Cu  Cu4  1  0.63112000  0.86695400  0.25096300  1
  Cu  Cu5  1  0.63112000  0.25096300  0.25096300  1
  Cu  Cu6  1  0.25096300  0.86695400  0.63112000  1
  Cu  Cu7  1  0.25096300  0.63112000  0.86695400  1
  Cu  Cu8  1  0.25096300  0.86695400  0.25096300  1
  Cu  Cu9  1  0.63112000  0.25096300  0.86695400  1
  Cu  Cu10  1  0.86695400  0.25096300  0.63112000  1
  Cu  Cu11  1  0.25096300  0.63112000  0.25096300  1
  Cu  Cu12  1  0.69861600  0.69861600  0.69861600  1
  Cu  Cu13  1  0.69861600  0.69861600  0.90415200  1
  Cu  Cu14  1  0.69861600  0.90415200  0.69861600  1
  Cu  Cu15  1  0.90415200  0.69861600  0.69861600  1
  Cu  Cu16  1  0.50350900  0.50350900  0.72523300  1
  Cu  Cu17  1  0.50350900  0.50350900  0.26774900  1
  Cu  Cu18  1  0.72523300  0.26774900  0.50350900  1
  Cu  Cu19  1  0.72523300  0.50350900  0.50350900  1
  Cu  Cu20  1  0.26774900  0.72523300  0.50350900  1
  Cu  Cu21  1  0.26774900  0.50350900  0.50350900  1
  Cu  Cu22  1  0.50350900  0.72523300  0.26774900  1
  Cu  Cu23  1  0.50350900  0.26774900  0.72523300  1
  Cu  Cu24  1  0.50350900  0.72523300  0.50350900  1
  Cu  Cu25  1  0.26774900  0.50350900  0.72523300  1
  Cu  Cu26  1  0.72523300  0.50350900  0.26774900  1
  Cu  Cu27  1  0.50350900  0.26774900  0.50350900  1
  Cu  Cu28  1  0.99681500  0.99681500  0.23257400  1
  Cu  Cu29  1  0.99681500  0.99681500  0.77379700  1
  Cu  Cu30  1  0.23257400  0.77379700  0.99681500  1
  Cu  Cu31  1  0.23257400  0.99681500  0.99681500  1
  Cu  Cu32  1  0.77379700  0.23257400  0.99681500  1
  Cu  Cu33  1  0.77379700  0.99681500  0.99681500  1
  Cu  Cu34  1  0.99681500  0.23257400  0.77379700  1
  Cu  Cu35  1  0.99681500  0.77379700  0.23257400  1
  Cu  Cu36  1  0.99681500  0.23257400  0.99681500  1
  Cu  Cu37  1  0.77379700  0.99681500  0.23257400  1
  Cu  Cu38  1  0.23257400  0.99681500  0.77379700  1
  Cu  Cu39  1  0.99681500  0.77379700  0.99681500  1
  Sb  Sb0  1  0.75069100  0.75069100  0.43638100  1
  Sb  Sb1  1  0.75069100  0.75069100  0.06223700  1
  Sb  Sb2  1  0.43638100  0.06223700  0.75069100  1
  Sb  Sb3  1  0.43638100  0.75069100  0.75069100  1
  Sb  Sb4  1  0.06223700  0.43638100  0.75069100  1
  Sb  Sb5  1  0.06223700  0.75069100  0.75069100  1
  Sb  Sb6  1  0.75069100  0.43638100  0.06223700  1
  Sb  Sb7  1  0.75069100  0.06223700  0.43638100  1
  Sb  Sb8  1  0.75069100  0.43638100  0.75069100  1
  Sb  Sb9  1  0.06223700  0.75069100  0.43638100  1
  Sb  Sb10  1  0.43638100  0.75069100  0.06223700  1
  Sb  Sb11  1  0.75069100  0.06223700  0.75069100  1
  Sb  Sb12  1  0.14809000  0.14809000  0.14809000  1
  Sb  Sb13  1  0.14809000  0.14809000  0.55573000  1
  Sb  Sb14  1  0.14809000  0.55573000  0.14809000  1
  Sb  Sb15  1  0.55573000  0.14809000  0.14809000  1
  Sb  Sb16  1  0.00000000  0.00000000  0.00000000  1
  Sb  Sb17  1  0.35206500  0.35206500  0.35206500  1
  Sb  Sb18  1  0.35206500  0.35206500  0.94380600  1
  Sb  Sb19  1  0.35206500  0.94380600  0.35206500  1
  Sb  Sb20  1  0.94380600  0.35206500  0.35206500  1
  Sb  Sb21  1  0.50000000  0.50000000  0.50000000  1
loop_
_geom_bond_atom_site_label_1
_geom_bond_atom_site_label_2
_geom_bond_distance
_geom_bond_site_symmetry_2
Dy0 Sb10 3.157700 1_545
Dy0 Sb2 3.157700 1_554
Dy0 Sb1 3.157700 1_545
Dy0 Sb11 3.157700 1_554
Dy0 Sb12 3.386058 1_555
Dy0 Sb15 3.386058 1_555
Dy0 Sb18 3.386905 1_554
Dy0 Sb19 3.386905 1_545
Dy1 Sb0 3.157700 1_455
Dy1 Sb8 3.157700 1_455
Dy1 Sb4 3.157700 1_555
Dy1 Sb9 3.157700 1_555
Dy1 Sb14 3.386058 1_555
Dy1 Sb13 3.386058 1_555
Dy1 Sb20 3.386895 1_455
Dy1 Sb17 3.386904 1_555
Dy2 Sb4 3.157700 1_554
Dy2 Sb6 3.157700 1_455
Dy2 Sb5 3.157700 1_554
Dy2 Sb1 3.157700 1_455
Dy2 Sb12 3.386058 1_555
Dy2 Sb14 3.386058 1_555
Dy2 Sb18 3.386905 1_554
Dy2 Sb20 3.386905 1_455
Dy3 Sb3 3.157700 1_545
Dy3 Sb0 3.157700 1_545
Dy3 Sb7 3.157700 1_555
Dy3 Sb2 3.157700 1_555
Dy3 Sb15 3.386058 1_555
Dy3 Sb13 3.386058 1_555
Dy3 Sb19 3.386895 1_545
Dy3 Sb17 3.386904 1_555
Dy4 Sb7 3.157700 1_455
Dy4 Sb9 3.157700 1_545
Dy4 Sb11 3.157700 1_455
Dy4 Sb5 3.157700 1_545
Dy4 Sb12 3.386058 1_555
Dy4 Sb13 3.386058 1_555
Dy4 Sb19 3.386905 1_545
Dy4 Sb20 3.386905 1_455
Dy5 Sb3 3.157700 1_554
Dy5 Sb8 3.157700 1_554
Dy5 Sb6 3.157700 1_555
Dy5 Sb10 3.157700 1_555
Dy5 Sb14 3.386058 1_555
Dy5 Sb15 3.386058 1_555
Dy5 Sb18 3.386895 1_554
Dy5 Sb17 3.386904 1_555
Cu0 Sb2 2.641407 1_555
Cu0 Sb4 2.641407 1_555
Cu0 Cu25 2.676537 1_555
Cu0 Cu23 2.676537 1_555
Cu0 Cu31 2.699346 1_545
Cu0 Cu36 2.699346 1_455
Cu0 Sb18 2.726586 1_555
Cu0 Sb12 2.748280 1_556
Cu0 Cu1 2.816836 1_555
Cu0 Dy2 3.336565 1_556
Cu0 Dy0 3.336565 1_556
Cu1 Sb4 2.641407 1_555
Cu1 Sb2 2.641407 1_555
Cu1 Cu21 2.676537 1_555
Cu1 Cu27 2.676537 1_555
Cu1 Cu34 2.699346 1_455
Cu1 Cu38 2.699346 1_545
Cu1 Sb17 2.726576 1_555
Cu1 Sb13 2.748280 1_555
Cu1 Dy3 3.336565 1_555
Cu1 Dy1 3.336565 1_555
Cu2 Sb0 2.641407 1_555
Cu2 Sb1 2.641407 1_555
Cu2 Cu26 2.676537 1_555
Cu2 Cu39 2.699350 1_554
Cu2 Cu35 2.699357 1_555
Cu2 Sb20 2.726576 1_555
Cu2 Sb14 2.748280 1_655
Cu2 Cu4 2.816836 1_555
Cu2 Dy1 3.336565 1_655
Cu2 Dy2 3.336565 1_655
Cu3 Sb7 2.641407 1_555
Cu3 Sb6 2.641407 1_555
Cu3 Cu36 2.699346 1_554
Cu3 Sb20 2.726586 1_555
Cu3 Sb12 2.748280 1_655
Cu3 Cu5 2.816836 1_555
Cu3 Dy2 3.336565 1_655
Cu3 Dy4 3.336565 1_655
Cu4 Sb0 2.641407 1_555
Cu4 Sb1 2.641407 1_555
Cu4 Sb19 2.726576 1_555
Cu4 Sb15 2.748280 1_565
Cu4 Dy3 3.336565 1_565
Cu4 Dy0 3.336565 1_565
Cu5 Sb7 2.641407 1_555
Cu5 Sb6 2.641407 1_555
Cu5 Sb17 2.726576 1_555
Cu5 Sb15 2.748280 1_555
Cu5 Dy5 3.336565 1_555
Cu5 Dy3 3.336565 1_555
Cu6 Sb3 2.641407 1_555
Cu6 Sb5 2.641407 1_555
Cu6 Sb19 2.726576 1_555
Cu6 Sb13 2.748280 1_565
Cu6 Cu7 2.816836 1_555
Cu6 Dy3 3.336565 1_565
Cu6 Dy4 3.336565 1_565
Cu7 Sb3 2.641407 1_555
Cu7 Sb5 2.641407 1_555
Cu7 Sb18 2.726576 1_555
Cu7 Sb14 2.748280 1_556
Cu7 Dy5 3.336565 1_556
Cu7 Dy2 3.336565 1_556
Cu8 Sb9 2.641407 1_555
Cu8 Sb10 2.641407 1_555
Cu8 Sb19 2.726586 1_555
Cu8 Sb12 2.748280 1_565
Cu8 Dy0 3.336565 1_565
Cu8 Dy4 3.336565 1_565
Cu9 Sb8 2.641407 1_555
Cu9 Sb11 2.641407 1_555
Cu9 Sb18 2.726576 1_555
Cu9 Sb15 2.748280 1_556
Cu9 Dy5 3.336565 1_556
Cu9 Dy0 3.336565 1_556
Cu10 Sb8 2.641407 1_555
Cu10 Sb11 2.641407 1_555
Cu10 Cu18 2.676537 1_555
Cu10 Cu19 2.676537 1_555
Cu10 Cu29 2.699350 1_545
Cu10 Cu34 2.699357 1_555
Cu10 Sb20 2.726576 1_555
Cu10 Sb13 2.748280 1_655
Cu10 Cu9 2.816836 1_555
Cu10 Dy1 3.336565 1_655
Cu10 Dy4 3.336565 1_655
Cu11 Sb10 2.641407 1_555
Cu11 Sb9 2.641407 1_555
Cu11 Cu17 2.676537 1_555
Cu11 Cu21 2.676537 1_555
Cu11 Cu35 2.699346 1_455
Cu11 Cu30 2.699346 1_554
Cu11 Sb17 2.726576 1_555
Cu11 Sb14 2.748280 1_555
Cu11 Cu8 2.816836 1_555
Cu11 Dy5 3.336565 1_555
Cu11 Dy1 3.336565 1_555
Cu12 Cu14 2.454952 1_555
Cu12 Cu15 2.454952 1_555
Cu12 Cu13 2.454952 1_555
Cu12 Sb0 2.659842 1_555
Cu12 Sb3 2.659842 1_555
Cu12 Sb8 2.659842 1_555
Cu13 Cu14 2.454952 1_555
Cu13 Cu15 2.454952 1_555
Cu13 Sb1 2.659842 1_556
Cu13 Sb10 2.659842 1_556
Cu13 Sb6 2.659842 1_556
Cu14 Cu15 2.454952 1_555
Cu14 Sb11 2.659842 1_565
Cu14 Sb7 2.659842 1_565
Cu14 Sb2 2.659842 1_565
Cu15 Sb5 2.659842 1_655
Cu15 Sb9 2.659842 1_655
Cu15 Sb4 2.659842 1_655
Cu16 Cu24 2.648304 1_555
Cu16 Cu19 2.648304 1_555
Cu16 Cu7 2.676537 1_555
Cu16 Cu9 2.676537 1_555
Cu16 Sb18 2.680839 1_555
Cu16 Sb21 2.732771 1_555
Cu16 Sb8 2.781837 1_555
Cu16 Sb3 2.781837 1_555
Cu16 Cu25 2.815952 1_555
Cu16 Cu23 2.815952 1_555
Cu16 Dy5 3.246568 1_556
Cu17 Cu22 2.648304 1_555
Cu17 Cu26 2.648304 1_555
Cu17 Cu5 2.676537 1_555
Cu17 Sb17 2.680835 1_555
Cu17 Sb21 2.732771 1_555
Cu17 Sb6 2.781837 1_555
Cu17 Sb10 2.781837 1_555
Cu17 Cu21 2.815952 1_555
Cu17 Cu27 2.815952 1_555
Cu17 Dy5 3.246568 1_555
Cu18 Cu27 2.648304 1_555
Cu18 Cu23 2.648304 1_555
Cu18 Cu3 2.676537 1_555
Cu18 Sb20 2.680845 1_555
Cu18 Sb21 2.732771 1_555
Cu18 Sb11 2.781837 1_555
Cu18 Sb7 2.781837 1_555
Cu18 Cu26 2.815952 1_555
Cu18 Cu19 2.815952 1_555
Cu18 Dy4 3.246568 1_655
Cu19 Cu24 2.648304 1_555
Cu19 Cu2 2.676537 1_555
Cu19 Sb20 2.680839 1_555
Cu19 Sb21 2.732771 1_555
Cu19 Sb8 2.781837 1_555
Cu19 Sb0 2.781837 1_555
Cu19 Cu26 2.815952 1_555
Cu19 Dy1 3.246568 1_655
Cu20 Cu21 2.648304 1_555
Cu20 Cu25 2.648304 1_555
Cu20 Cu8 2.676537 1_555
Cu20 Cu6 2.676537 1_555
Cu20 Sb19 2.680845 1_555
Cu20 Sb21 2.732771 1_555
Cu20 Sb5 2.781837 1_555
Cu20 Sb9 2.781837 1_555
Cu20 Cu24 2.815952 1_555
Cu20 Cu22 2.815952 1_555
Cu20 Dy4 3.246568 1_565
Cu21 Cu25 2.648304 1_555
Cu21 Sb17 2.680835 1_555
Cu21 Sb21 2.732771 1_555
Cu21 Sb9 2.781837 1_555
Cu21 Sb4 2.781837 1_555
Cu21 Cu27 2.815952 1_555
Cu21 Dy1 3.246568 1_555
Cu22 Cu26 2.648304 1_555
Cu22 Cu4 2.676537 1_555
Cu22 Cu8 2.676537 1_555
Cu22 Sb19 2.680845 1_555
Cu22 Sb21 2.732771 1_555
Cu22 Sb1 2.781837 1_555
Cu22 Sb10 2.781837 1_555
Cu22 Cu24 2.815952 1_555
Cu22 Dy0 3.246568 1_565
Cu23 Cu27 2.648304 1_555
Cu23 Cu9 2.676537 1_555
Cu23 Sb18 2.680845 1_555
Cu23 Sb21 2.732771 1_555
Cu23 Sb11 2.781837 1_555
Cu23 Sb2 2.781837 1_555
Cu23 Cu25 2.815952 1_555
Cu23 Dy0 3.246568 1_556
Cu24 Cu4 2.676537 1_555
Cu24 Cu6 2.676537 1_555
Cu24 Sb19 2.680839 1_555
Cu24 Sb21 2.732771 1_555
Cu24 Sb0 2.781837 1_555
Cu24 Sb3 2.781837 1_555
Cu24 Dy3 3.246568 1_565
Cu25 Cu7 2.676537 1_555
Cu25 Sb18 2.680845 1_555
Cu25 Sb21 2.732771 1_555
Cu25 Sb5 2.781837 1_555
Cu25 Sb4 2.781837 1_555
Cu25 Dy2 3.246568 1_556
Cu26 Cu3 2.676537 1_555
Cu26 Sb20 2.680845 1_555
Cu26 Sb21 2.732771 1_555
Cu26 Sb1 2.781837 1_555
Cu26 Sb6 2.781837 1_555
Cu26 Dy2 3.246568 1_655
Cu27 Cu5 2.676537 1_555
Cu27 Sb17 2.680835 1_555
Cu27 Sb21 2.732771 1_555
Cu27 Sb2 2.781837 1_555
Cu27 Sb7 2.781837 1_555
Cu27 Dy3 3.246568 1_555
Cu28 Cu35 2.663759 1_555
Cu28 Cu37 2.663759 1_555
Cu28 Sb12 2.676909 1_665
Cu28 Cu8 2.699346 1_655
Cu28 Cu3 2.699346 1_565
Cu28 Sb16 2.740384 1_665
Cu28 Sb9 2.761762 1_655
Cu28 Sb7 2.761762 1_565
Cu28 Cu36 2.815940 1_564
Cu28 Cu31 2.815940 1_654
Cu28 Dy4 3.238511 1_665
Cu29 Cu33 2.663759 1_555
Cu29 Cu39 2.663759 1_555
Cu29 Sb13 2.676912 1_665
Cu29 Cu6 2.699350 1_655
Cu29 Sb16 2.740372 1_666
Cu29 Sb5 2.761767 1_655
Cu29 Sb11 2.761767 1_565
Cu29 Cu34 2.815940 1_565
Cu29 Cu38 2.815940 1_655
Cu29 Dy4 3.238523 1_665
Cu30 Cu38 2.663759 1_555
Cu30 Cu31 2.663759 1_555
Cu30 Sb14 2.676919 1_556
Cu30 Cu7 2.699357 1_555
Cu30 Sb16 2.740378 1_566
Cu30 Sb10 2.761756 1_556
Cu30 Sb3 2.761764 1_555
Cu30 Cu39 2.815940 1_455
Cu30 Cu35 2.815940 1_456
Cu30 Dy5 3.238517 1_556
Cu31 Cu38 2.663759 1_555
Cu31 Sb12 2.676909 1_566
Cu31 Cu8 2.699346 1_556
Cu31 Sb16 2.740384 1_566
Cu31 Sb2 2.761762 1_565
Cu31 Sb10 2.761762 1_556
Cu31 Cu36 2.815940 1_465
Cu31 Dy0 3.238511 1_566
Cu32 Cu34 2.663759 1_555
Cu32 Cu36 2.663759 1_555
Cu32 Sb15 2.676919 1_556
Cu32 Cu5 2.699346 1_556
Cu32 Cu9 2.699357 1_555
Cu32 Sb16 2.740378 1_656
Cu32 Sb6 2.761756 1_556
Cu32 Sb8 2.761764 1_555
Cu32 Cu33 2.815940 1_545
Cu32 Cu37 2.815940 1_546
Cu32 Dy5 3.238517 1_556
Cu33 Cu39 2.663759 1_555
Cu33 Sb15 2.676912 1_566
Cu33 Cu9 2.699350 1_565
Cu33 Cu4 2.699350 1_556
Cu33 Sb16 2.740372 1_666
Cu33 Sb1 2.761767 1_556
Cu33 Sb11 2.761767 1_565
Cu33 Cu37 2.815940 1_556
Cu33 Dy0 3.238523 1_566
Cu34 Cu36 2.663759 1_555
Cu34 Sb13 2.676919 1_655
Cu34 Sb16 2.740378 1_656
Cu34 Sb4 2.761756 1_655
Cu34 Sb8 2.761764 1_555
Cu34 Cu38 2.815940 1_645
Cu34 Dy1 3.238517 1_655
Cu35 Cu37 2.663759 1_555
Cu35 Sb14 2.676919 1_655
Cu35 Sb16 2.740378 1_665
Cu35 Sb9 2.761756 1_655
Cu35 Sb0 2.761764 1_555
Cu35 Cu39 2.815940 1_554
Cu35 Dy1 3.238517 1_655
Cu36 Sb12 2.676909 1_656
Cu36 Sb16 2.740384 1_656
Cu36 Sb4 2.761762 1_655
Cu36 Sb6 2.761762 1_556
Cu36 Dy2 3.238511 1_656
Cu37 Sb15 2.676919 1_565
Cu37 Cu5 2.699346 1_565
Cu37 Cu4 2.699357 1_555
Cu37 Sb16 2.740378 1_665
Cu37 Sb7 2.761756 1_565
Cu37 Sb0 2.761764 1_555
Cu37 Dy3 3.238517 1_565
Cu38 Sb13 2.676919 1_565
Cu38 Cu6 2.699357 1_555
Cu38 Sb16 2.740378 1_566
Cu38 Sb2 2.761756 1_565
Cu38 Sb3 2.761764 1_555
Cu38 Dy3 3.238517 1_565
Cu39 Sb14 2.676912 1_656
Cu39 Cu7 2.699350 1_655
Cu39 Sb16 2.740372 1_666
Cu39 Sb5 2.761767 1_655
Cu39 Sb1 2.761767 1_556
Cu39 Dy2 3.238523 1_656
