# generated using pymatgen
data_Na5Sr2B10(CO13)2
_symmetry_space_group_name_H-M   'P 1'
_cell_length_a   6.64612569
_cell_length_b   6.64612569
_cell_length_c   27.29151749
_cell_angle_alpha   86.10813460
_cell_angle_beta   86.10813460
_cell_angle_gamma   59.85105862
_symmetry_Int_Tables_number   1
_chemical_formula_structural   Na5Sr2B10(CO13)2
_chemical_formula_sum   'Na10 Sr4 B20 C4 O52'
_cell_volume   1039.21579023
_cell_formula_units_Z   2
loop_
 _symmetry_equiv_pos_site_id
 _symmetry_equiv_pos_as_xyz
  1  'x, y, z'
loop_
 _atom_site_type_symbol
 _atom_site_label
 _atom_site_symmetry_multiplicity
 _atom_site_fract_x
 _atom_site_fract_y
 _atom_site_fract_z
 _atom_site_occupancy
  Na  Na0  1  0.70224500  0.29775500  0.75000000  1
  Na  Na1  1  0.29775500  0.70224500  0.25000000  1
  Na  Na2  1  0.72239900  0.73803700  0.93053400  1
  Na  Na3  1  0.27760100  0.26196300  0.06946600  1
  Na  Na4  1  0.26196300  0.27760100  0.56946600  1
  Na  Na5  1  0.73803700  0.72239900  0.43053400  1
  Na  Na6  1  0.27211900  0.78052600  0.55048500  1
  Na  Na7  1  0.72788100  0.21947400  0.44951500  1
  Na  Na8  1  0.21947400  0.72788100  0.94951500  1
  Na  Na9  1  0.78052600  0.27211900  0.05048500  1
  Sr  Sr0  1  0.30528400  0.15955600  0.83529000  1
  Sr  Sr1  1  0.69471600  0.84044400  0.16471000  1
  Sr  Sr2  1  0.84044400  0.69471600  0.66471000  1
  Sr  Sr3  1  0.15955600  0.30528400  0.33529000  1
  B  B0  1  0.87753600  0.05873400  0.84693900  1
  B  B1  1  0.12246400  0.94126600  0.15306100  1
  B  B2  1  0.94126600  0.12246400  0.65306100  1
  B  B3  1  0.05873400  0.87753600  0.34693900  1
  B  B4  1  0.50686200  0.34924900  0.65105000  1
  B  B5  1  0.49313800  0.65075100  0.34895000  1
  B  B6  1  0.65075100  0.49313800  0.84895000  1
  B  B7  1  0.34924900  0.50686200  0.15105000  1
  B  B8  1  0.33199300  0.78078400  0.67290100  1
  B  B9  1  0.66800700  0.21921600  0.32709900  1
  B  B10  1  0.21921600  0.66800700  0.82709900  1
  B  B11  1  0.78078400  0.33199300  0.17290100  1
  B  B12  1  0.68092800  0.25758000  0.92601000  1
  B  B13  1  0.31907200  0.74242000  0.07399000  1
  B  B14  1  0.74242000  0.31907200  0.57399000  1
  B  B15  1  0.25758000  0.68092800  0.42601000  1
  B  B16  1  0.24608400  0.18233000  0.69372900  1
  B  B17  1  0.75391600  0.81767000  0.30627100  1
  B  B18  1  0.81767000  0.75391600  0.80627100  1
  B  B19  1  0.18233000  0.24608400  0.19372900  1
  C  C0  1  0.76223200  0.80249200  0.55095700  1
  C  C1  1  0.23776800  0.19750800  0.44904300  1
  C  C2  1  0.19750800  0.23776800  0.94904300  1
  C  C3  1  0.80249200  0.76223200  0.05095700  1
  O  O0  1  0.11569400  0.86574900  0.65455000  1
  O  O1  1  0.88430600  0.13425100  0.34545000  1
  O  O2  1  0.13425100  0.88430600  0.84545000  1
  O  O3  1  0.86574900  0.11569400  0.15455000  1
  O  O4  1  0.64723400  0.24346900  0.97554000  1
  O  O5  1  0.35276600  0.75653100  0.02446000  1
  O  O6  1  0.75653100  0.35276600  0.52446000  1
  O  O7  1  0.24346900  0.64723400  0.47554000  1
  O  O8  1  0.68635600  0.96628600  0.06852800  1
  O  O9  1  0.31364400  0.03371400  0.93147200  1
  O  O10  1  0.03371400  0.31364400  0.43147200  1
  O  O11  1  0.96628600  0.68635600  0.56852800  1
  O  O12  1  0.58010300  0.85175300  0.57866800  1
  O  O13  1  0.41989700  0.14824700  0.42133200  1
  O  O14  1  0.14824700  0.41989700  0.92133200  1
  O  O15  1  0.85175300  0.58010300  0.07866800  1
  O  O16  1  0.49522900  0.55012800  0.67655600  1
  O  O17  1  0.50477100  0.44987200  0.32344400  1
  O  O18  1  0.44987200  0.50477100  0.82344400  1
  O  O19  1  0.55012800  0.49522900  0.17655600  1
  O  O20  1  0.66038100  0.70771900  0.83940200  1
  O  O21  1  0.33961900  0.29228100  0.16059800  1
  O  O22  1  0.29228100  0.33961900  0.66059800  1
  O  O23  1  0.70771900  0.66038100  0.33940200  1
  O  O24  1  0.40545200  0.93080800  0.68625900  1
  O  O25  1  0.59454800  0.06919200  0.31374100  1
  O  O26  1  0.06919200  0.59454800  0.81374100  1
  O  O27  1  0.93080800  0.40545200  0.18625900  1
  O  O28  1  0.29053700  0.20406100  0.74367900  1
  O  O29  1  0.70946300  0.79593900  0.25632100  1
  O  O30  1  0.79593900  0.70946300  0.75632100  1
  O  O31  1  0.20406100  0.29053700  0.24367900  1
  O  O32  1  0.52320600  0.39339600  0.59625500  1
  O  O33  1  0.47679400  0.60660400  0.40374500  1
  O  O34  1  0.60660400  0.47679400  0.90374500  1
  O  O35  1  0.39339600  0.52320600  0.09625500  1
  O  O36  1  0.75493300  0.99805300  0.81321000  1
  O  O37  1  0.24506700  0.00194700  0.18679000  1
  O  O38  1  0.00194700  0.24506700  0.68679000  1
  O  O39  1  0.99805300  0.75493300  0.31321000  1
  O  O40  1  0.78456300  0.05603100  0.89900800  1
  O  O41  1  0.21543700  0.94396900  0.10099200  1
  O  O42  1  0.94396900  0.21543700  0.60099200  1
  O  O43  1  0.05603100  0.78456300  0.39900800  1
  O  O44  1  0.74016500  0.87551600  0.50558900  1
  O  O45  1  0.25983500  0.12448400  0.49441100  1
  O  O46  1  0.12448400  0.25983500  0.99441100  1
  O  O47  1  0.87551600  0.74016500  0.00558900  1
  O  O48  1  0.71706900  0.13975300  0.66680000  1
  O  O49  1  0.28293100  0.86024700  0.33320000  1
  O  O50  1  0.86024700  0.28293100  0.83320000  1
  O  O51  1  0.13975300  0.71706900  0.16680000  1
loop_
_geom_bond_atom_site_label_1
_geom_bond_atom_site_label_2
_geom_bond_distance
_geom_bond_site_symmetry_2
Na0 O38 2.445608 1_655
Na0 O36 2.445608 1_545
Na0 O18 2.514717 1_555
Na0 O16 2.514717 1_555
Na0 O50 2.541196 1_555
Na0 O48 2.541196 1_555
Na1 O37 2.445608 1_565
Na1 O39 2.445608 1_455
Na1 O17 2.514717 1_555
Na1 O19 2.514717 1_555
Na1 O51 2.541196 1_555
Na1 O49 2.541196 1_555
Na2 O47 2.352219 1_556
Na2 O34 2.394217 1_555
Na2 O9 2.424315 1_565
Na2 O40 2.441217 1_565
Na2 O14 2.551161 1_655
Na2 O20 2.585910 1_555
Na3 O46 2.352219 1_554
Na3 O35 2.394217 1_555
Na3 O8 2.424315 1_545
Na3 O41 2.441217 1_545
Na3 O15 2.551161 1_455
Na3 O21 2.585910 1_555
Na4 O45 2.352219 1_555
Na4 O32 2.394217 1_555
Na4 O11 2.424315 1_455
Na4 O42 2.441217 1_455
Na4 O12 2.551161 1_545
Na4 O22 2.585910 1_555
Na5 O44 2.352219 1_555
Na5 O33 2.394217 1_555
Na5 O10 2.424315 1_655
Na5 O43 2.441217 1_655
Na5 O13 2.551161 1_565
Na5 O23 2.585910 1_555
Na6 O7 2.339405 1_555
Na6 O11 2.421946 1_455
Na6 O12 2.498393 1_555
Na6 O32 2.549268 1_555
Na6 O45 2.632292 1_565
Na7 O6 2.339405 1_555
Na7 O10 2.421946 1_655
Na7 O13 2.498393 1_555
Na7 O33 2.549268 1_555
Na7 O44 2.632292 1_545
Na8 O5 2.339405 1_556
Na8 O9 2.421946 1_565
Na8 O14 2.498393 1_555
Na8 O34 2.549268 1_555
Na8 O47 2.632292 1_456
Na9 O4 2.339405 1_554
Na9 O8 2.421946 1_545
Na9 O15 2.498393 1_555
Na9 O35 2.549268 1_555
Na9 O46 2.632292 1_654
B0 O50 1.460152 1_555
B0 O36 1.468421 1_545
B0 O2 1.505565 1_645
B0 O40 1.513270 1_555
B1 O51 1.460152 1_555
B1 O37 1.468421 1_565
B1 O3 1.505565 1_465
B1 O41 1.513270 1_555
B2 O48 1.460152 1_555
B2 O38 1.468421 1_655
B2 O0 1.505565 1_645
B2 O42 1.513270 1_555
B3 O49 1.460152 1_555
B3 O39 1.468421 1_455
B3 O1 1.505565 1_465
B3 O43 1.513270 1_555
B4 O48 1.456534 1_555
B4 O22 1.464523 1_555
B4 O32 1.511498 1_555
B4 O16 1.512646 1_555
B5 O49 1.456534 1_555
B5 O23 1.464523 1_555
B5 O33 1.511498 1_555
B5 O17 1.512646 1_555
B6 O50 1.456534 1_555
B6 O20 1.464523 1_555
B6 O34 1.511498 1_555
B6 O18 1.512646 1_555
B7 O51 1.456534 1_555
B7 O21 1.464523 1_555
B7 O35 1.511498 1_555
B7 O19 1.512646 1_555
B8 O16 1.363919 1_555
B8 O0 1.371194 1_555
B8 O24 1.388493 1_555
B9 O17 1.363919 1_555
B9 O1 1.371194 1_555
B9 O25 1.388493 1_555
B10 O18 1.363919 1_555
B10 O2 1.371194 1_555
B10 O26 1.388493 1_555
B11 O19 1.363919 1_555
B11 O3 1.371194 1_555
B11 O27 1.388493 1_555
B12 O4 1.359766 1_555
B12 O34 1.390512 1_555
B12 O40 1.396461 1_555
B13 O5 1.359766 1_555
B13 O35 1.390512 1_555
B13 O41 1.396461 1_555
B14 O6 1.359766 1_555
B14 O32 1.390512 1_555
B14 O42 1.396461 1_555
B15 O7 1.359766 1_555
B15 O33 1.390512 1_555
B15 O43 1.396461 1_555
B16 O28 1.445942 1_555
B16 O22 1.470043 1_555
B16 O38 1.481163 1_555
B16 O24 1.481970 1_545
B17 O29 1.445942 1_555
B17 O23 1.470043 1_555
B17 O39 1.481163 1_555
B17 O25 1.481970 1_565
B18 O30 1.445942 1_555
B18 O20 1.470043 1_555
B18 O36 1.481163 1_555
B18 O26 1.481970 1_655
B19 O31 1.445942 1_555
B19 O21 1.470043 1_555
B19 O37 1.481163 1_555
B19 O27 1.481970 1_455
C0 O11 1.285096 1_555
C0 O12 1.286701 1_555
C0 O44 1.289060 1_555
C1 O10 1.285096 1_555
C1 O13 1.286701 1_555
C1 O45 1.289060 1_555
C2 O9 1.285096 1_555
C2 O14 1.286701 1_555
C2 O46 1.289060 1_555
C3 O8 1.285096 1_555
C3 O15 1.286701 1_555
C3 O47 1.289060 1_555
O0 Sr2 2.587013 1_455
O1 Sr3 2.587013 1_655
O2 Sr0 2.587013 1_565
O3 Sr1 2.587013 1_545
O8 Sr1 2.695935 1_555
O9 Sr0 2.695935 1_555
O10 Sr3 2.695935 1_555
O11 Sr2 2.695935 1_555
O12 Sr2 2.828795 1_555
O13 Sr3 2.828795 1_555
O14 Sr0 2.828795 1_555
O15 Sr1 2.828795 1_555
O16 Sr2 2.892016 1_555
O17 Sr3 2.892016 1_555
O18 Sr0 2.892016 1_555
O19 Sr1 2.892016 1_555
O20 Sr0 2.733377 1_565
O21 Sr1 2.733377 1_545
O22 Sr2 2.733377 1_455
O23 Sr3 2.733377 1_655
O24 Sr2 2.550228 1_555
O25 Sr3 2.550228 1_555
O26 Sr0 2.550228 1_555
O27 Sr1 2.550228 1_555
O28 Sr0 2.500373 1_555
O29 Sr1 2.500373 1_555
O30 Sr2 2.500373 1_555
O31 Sr3 2.500373 1_555
O36 Sr0 2.658412 1_565
O37 Sr1 2.658412 1_545
O38 Sr2 2.658412 1_455
O39 Sr3 2.658412 1_655
O48 Sr2 2.646579 1_545
O49 Sr3 2.646579 1_565
O50 Sr0 2.646579 1_655
O51 Sr1 2.646579 1_455
