# generated using pymatgen
data_Sc2Co3Si5
_symmetry_space_group_name_H-M   'P 1'
_cell_length_a   7.68763743
_cell_length_b   7.68763743
_cell_length_c   7.68763743
_cell_angle_alpha   138.93575544
_cell_angle_beta   104.52460859
_cell_angle_gamma   89.72673924
_symmetry_Int_Tables_number   1
_chemical_formula_structural   Sc2Co3Si5
_chemical_formula_sum   'Sc4 Co6 Si10'
_cell_volume   276.51450174
_cell_formula_units_Z   2
loop_
 _symmetry_equiv_pos_site_id
 _symmetry_equiv_pos_as_xyz
  1  'x, y, z'
loop_
 _atom_site_type_symbol
 _atom_site_label
 _atom_site_symmetry_multiplicity
 _atom_site_fract_x
 _atom_site_fract_y
 _atom_site_fract_z
 _atom_site_occupancy
  Sc  Sc0  1  0.86799300  0.63524600  0.23274700  1
  Sc  Sc1  1  0.13200700  0.36475400  0.76725300  1
  Sc  Sc2  1  0.40249800  0.13524600  0.26725300  1
  Sc  Sc3  1  0.59750200  0.86475400  0.73274700  1
  Co  Co0  1  0.00000000  0.75000000  0.75000000  1
  Co  Co1  1  0.00000000  0.25000000  0.25000000  1
  Co  Co2  1  0.25175600  0.86166700  0.39009000  1
  Co  Co3  1  0.74824400  0.13833300  0.60991000  1
  Co  Co4  1  0.47157700  0.36166700  0.10991000  1
  Co  Co5  1  0.52842300  0.63833300  0.89009000  1
  Si  Si0  1  0.50000000  0.75000000  0.25000000  1
  Si  Si1  1  0.50000000  0.25000000  0.75000000  1
  Si  Si2  1  0.22515200  0.97515200  0.75000000  1
  Si  Si3  1  0.77484800  0.52484800  0.75000000  1
  Si  Si4  1  0.77484800  0.02484800  0.25000000  1
  Si  Si5  1  0.22515200  0.47515200  0.25000000  1
  Si  Si6  1  0.06309700  0.90077000  0.16232700  1
  Si  Si7  1  0.93690300  0.09923000  0.83767300  1
  Si  Si8  1  0.73844400  0.40077000  0.33767300  1
  Si  Si9  1  0.26155600  0.59923000  0.66232700  1
loop_
_geom_bond_atom_site_label_1
_geom_bond_atom_site_label_2
_geom_bond_distance
_geom_bond_site_symmetry_2
Sc0 Si8 2.739419 1_555
Sc0 Si7 2.898113 1_554
Sc0 Si7 2.898113 1_565
Sc0 Si1 2.964292 1_554
Sc0 Si0 2.964292 1_555
Sc0 Si6 2.968554 1_655
Sc0 Si3 2.988180 1_554
Sc0 Si4 2.988180 1_565
Sc0 Si2 3.017034 1_655
Sc0 Si5 3.017034 1_655
Sc1 Si9 2.739419 1_555
Sc1 Si6 2.898113 1_545
Sc1 Si6 2.898113 1_556
Sc1 Si1 2.964292 1_555
Sc1 Si0 2.964292 1_556
Sc1 Si7 2.968554 1_455
Sc1 Si5 2.988180 1_556
Sc1 Si2 2.988180 1_545
Sc1 Si4 3.017034 1_455
Sc1 Si3 3.017034 1_455
Sc2 Si6 2.739416 1_545
Sc2 Si9 2.898113 1_544
Sc2 Si9 2.898113 1_555
Sc2 Si1 2.964292 1_555
Sc2 Si0 2.964294 1_545
Sc2 Si8 2.968566 1_555
Sc2 Si3 2.988185 1_555
Sc2 Si4 2.988187 1_555
Sc2 Si5 3.017031 1_555
Sc2 Si2 3.017034 1_544
Sc3 Si7 2.739416 1_565
Sc3 Si8 2.898113 1_555
Sc3 Si8 2.898113 1_566
Sc3 Si0 2.964292 1_555
Sc3 Si1 2.964294 1_565
Sc3 Si9 2.968566 1_555
Sc3 Si5 2.988185 1_555
Sc3 Si2 2.988187 1_555
Sc3 Si3 3.017031 1_555
Sc3 Si4 3.017034 1_566
Co0 Si9 2.306586 1_555
Co0 Si8 2.306589 1_455
Co0 Si6 2.306593 1_556
Co0 Si7 2.306593 1_465
Co0 Si2 2.453674 1_555
Co0 Si3 2.453674 1_455
Co1 Si8 2.306586 1_455
Co1 Si9 2.306589 1_555
Co1 Si7 2.306593 1_454
Co1 Si6 2.306593 1_545
Co1 Si5 2.453674 1_555
Co1 Si4 2.453674 1_455
Co2 Si6 2.185289 1_555
Co2 Si2 2.258447 1_555
Co2 Si5 2.258450 1_555
Co2 Si1 2.271554 1_565
Co2 Si0 2.271557 1_555
Co2 Sc0 2.877653 1_455
Co2 Sc1 2.933832 1_565
Co2 Sc1 2.933837 1_554
Co3 Si7 2.185289 1_555
Co3 Si4 2.258447 1_555
Co3 Si3 2.258450 1_555
Co3 Si0 2.271554 1_545
Co3 Si1 2.271557 1_555
Co3 Sc1 2.877653 1_655
Co3 Sc0 2.933832 1_545
Co3 Sc0 2.933837 1_556
Co4 Si8 2.185298 1_555
Co4 Si5 2.258450 1_555
Co4 Si2 2.258450 1_544
Co4 Si1 2.271550 1_554
Co4 Si0 2.271550 1_555
Co4 Sc2 2.877662 1_555
Co4 Sc3 2.933836 1_555
Co4 Sc3 2.933841 1_544
Co5 Si9 2.185298 1_555
Co5 Si3 2.258450 1_555
Co5 Si4 2.258450 1_566
Co5 Si1 2.271550 1_555
Co5 Si0 2.271550 1_556
Co5 Sc3 2.877662 1_555
Co5 Sc2 2.933836 1_555
Co5 Sc2 2.933841 1_566
Si2 Si9 2.456441 1_555
Si2 Si7 2.456443 1_465
Si2 Si5 2.696304 1_566
Si2 Si5 2.696304 1_555
Si3 Si6 2.456443 1_656
Si3 Si8 2.456444 1_555
Si3 Si4 2.696304 1_555
Si3 Si4 2.696304 1_566
Si4 Si8 2.456441 1_555
Si4 Si6 2.456443 1_645
Si5 Si7 2.456443 1_454
Si5 Si9 2.456444 1_555
