# generated using pymatgen
data_Ba2YCu3(PbO4)2
_symmetry_space_group_name_H-M   'P 1'
_cell_length_a   5.49909700
_cell_length_b   5.56115700
_cell_length_c   16.56940400
_cell_angle_alpha   90.00000000
_cell_angle_beta   90.00000000
_cell_angle_gamma   90.00000000
_symmetry_Int_Tables_number   1
_chemical_formula_structural   Ba2YCu3(PbO4)2
_chemical_formula_sum   'Ba4 Y2 Cu6 Pb4 O16'
_cell_volume   506.71460674
_cell_formula_units_Z   2
loop_
 _symmetry_equiv_pos_site_id
 _symmetry_equiv_pos_as_xyz
  1  'x, y, z'
loop_
 _atom_site_type_symbol
 _atom_site_label
 _atom_site_symmetry_multiplicity
 _atom_site_fract_x
 _atom_site_fract_y
 _atom_site_fract_z
 _atom_site_occupancy
  Ba  Ba0  1  0.75046700  0.99774500  0.27671100  1
  Ba  Ba1  1  0.75046700  0.00225500  0.72328900  1
  Ba  Ba2  1  0.24953300  0.49774500  0.72328900  1
  Ba  Ba3  1  0.24953300  0.50225500  0.27671100  1
  Y  Y0  1  0.74973600  0.00000000  0.50000000  1
  Y  Y1  1  0.25026400  0.50000000  0.50000000  1
  Cu  Cu0  1  0.76813700  0.00000000  0.00000000  1
  Cu  Cu1  1  0.23186300  0.50000000  0.00000000  1
  Cu  Cu2  1  0.74993700  0.49964800  0.40065400  1
  Cu  Cu3  1  0.74993700  0.50035200  0.59934600  1
  Cu  Cu4  1  0.25006300  0.99964800  0.59934600  1
  Cu  Cu5  1  0.25006300  0.00035200  0.40065400  1
  Pb  Pb0  1  0.76079300  0.50894500  0.11004100  1
  Pb  Pb1  1  0.76079300  0.49105500  0.88995900  1
  Pb  Pb2  1  0.23920700  0.00894500  0.88995900  1
  Pb  Pb3  1  0.23920700  0.99105500  0.11004100  1
  O  O0  1  0.74802100  0.49424700  0.24351300  1
  O  O1  1  0.74802100  0.50575300  0.75648700  1
  O  O2  1  0.25197900  0.99424700  0.75648700  1
  O  O3  1  0.25197900  0.00575300  0.24351300  1
  O  O4  1  0.78269200  0.92960100  0.10925600  1
  O  O5  1  0.78269200  0.07039900  0.89074400  1
  O  O6  1  0.21730800  0.42960100  0.89074400  1
  O  O7  1  0.21730800  0.57039900  0.10925600  1
  O  O8  1  0.50000000  0.75000000  0.58704900  1
  O  O9  1  0.50000000  0.25000000  0.41295100  1
  O  O10  1  0.00000000  0.75000000  0.41231600  1
  O  O11  1  0.00000000  0.25000000  0.58768400  1
  O  O12  1  0.50000000  0.75000000  0.41237000  1
  O  O13  1  0.50000000  0.25000000  0.58763000  1
  O  O14  1  0.00000000  0.75000000  0.58733200  1
  O  O15  1  0.00000000  0.25000000  0.41266800  1
loop_
_geom_bond_atom_site_label_1
_geom_bond_atom_site_label_2
_geom_bond_distance
_geom_bond_site_symmetry_2
Ba0 O3 2.796234 1_565
Ba0 O4 2.805990 1_555
Ba0 O3 2.812538 1_665
Ba0 O0 2.815417 1_565
Ba0 O0 2.853583 1_555
Ba0 O10 2.971477 1_655
Ba0 O12 2.974528 1_555
Ba0 O15 2.987584 1_665
Ba0 O9 2.993481 1_565
Ba1 O2 2.796234 1_545
Ba1 O5 2.805990 1_555
Ba1 O2 2.812538 1_645
Ba1 O1 2.815417 1_545
Ba1 O1 2.853583 1_555
Ba1 O11 2.971477 1_655
Ba1 O13 2.974528 1_555
Ba1 O14 2.987584 1_645
Ba1 O8 2.993481 1_545
Ba2 O1 2.796234 1_555
Ba2 O6 2.805990 1_555
Ba2 O1 2.812538 1_455
Ba2 O2 2.815417 1_555
Ba2 O2 2.853583 1_545
Ba2 O11 2.971477 1_555
Ba2 O13 2.974528 1_555
Ba2 O14 2.987584 1_555
Ba2 O8 2.993481 1_555
Ba3 O0 2.796234 1_555
Ba3 O7 2.805990 1_555
Ba3 O0 2.812538 1_455
Ba3 O3 2.815417 1_555
Ba3 O3 2.853583 1_565
Ba3 O10 2.971477 1_555
Ba3 O12 2.974528 1_555
Ba3 O15 2.987584 1_555
Ba3 O9 2.993481 1_555
Cu0 O4 1.853885 1_545
Cu0 O5 1.853885 1_554
Cu1 O7 1.853885 1_555
Cu1 O6 1.853885 1_554
Cu2 O9 1.964187 1_555
Cu2 O15 1.964192 1_655
Cu2 O12 1.965983 1_555
Cu2 O10 1.966379 1_655
Cu2 O0 2.603927 1_555
Cu3 O8 1.964187 1_555
Cu3 O14 1.964192 1_655
Cu3 O13 1.965983 1_555
Cu3 O11 1.966379 1_655
Cu3 O1 2.603927 1_555
Cu4 O8 1.964187 1_555
Cu4 O14 1.964192 1_555
Cu4 O13 1.965983 1_565
Cu4 O11 1.966379 1_565
Cu4 O2 2.603927 1_555
Cu5 O9 1.964187 1_555
Cu5 O15 1.964192 1_555
Cu5 O12 1.965983 1_545
Cu5 O10 1.966379 1_545
Cu5 O3 2.603927 1_555
O0 Pb0 2.214176 1_555
O1 Pb1 2.214176 1_555
O2 Pb2 2.214176 1_565
O3 Pb3 2.214176 1_545
O4 Pb0 2.342468 1_555
O4 Pb3 2.533609 1_655
O5 Pb1 2.342468 1_555
O5 Pb2 2.533609 1_655
O6 Pb2 2.342468 1_555
O6 Pb1 2.533609 1_455
O7 Pb3 2.342468 1_555
O7 Pb0 2.533609 1_455
O8 Y0 2.428846 1_565
O8 Y1 2.428846 1_555
O9 Y0 2.428846 1_555
O9 Y1 2.428846 1_555
O10 Y1 2.436747 1_555
O10 Y0 2.436747 1_465
O11 Y1 2.436747 1_555
O11 Y0 2.436747 1_455
O12 Y0 2.434575 1_565
O12 Y1 2.434575 1_555
O13 Y0 2.434575 1_555
O13 Y1 2.434575 1_555
O14 Y1 2.433274 1_555
O14 Y0 2.433274 1_465
O15 Y1 2.433274 1_555
O15 Y0 2.433274 1_455
