# generated using pymatgen
data_Li5V6O5F19
_symmetry_space_group_name_H-M   'P 1'
_cell_length_a   5.24532000
_cell_length_b   5.42972687
_cell_length_c   16.07235764
_cell_angle_alpha   80.66570275
_cell_angle_beta   89.90667537
_cell_angle_gamma   89.78320372
_symmetry_Int_Tables_number   1
_chemical_formula_structural   Li5V6O5F19
_chemical_formula_sum   'Li5 V6 O5 F19'
_cell_volume   451.68662496
_cell_formula_units_Z   1
loop_
 _symmetry_equiv_pos_site_id
 _symmetry_equiv_pos_as_xyz
  1  'x, y, z'
loop_
 _atom_site_type_symbol
 _atom_site_label
 _atom_site_symmetry_multiplicity
 _atom_site_fract_x
 _atom_site_fract_y
 _atom_site_fract_z
 _atom_site_occupancy
  Li  Li0  1  0.27874300  0.20047200  0.15180100  1
  Li  Li1  1  0.20353900  0.47897200  0.48965400  1
  Li  Li2  1  0.70033400  0.68708400  0.16980700  1
  Li  Li3  1  0.04391100  0.66968300  0.88174600  1
  Li  Li4  1  0.79640100  0.95977500  0.50522000  1
  V  V0  1  0.02790900  0.02724000  0.00171700  1
  V  V1  1  0.50055200  0.16047800  0.67367100  1
  V  V2  1  0.96896300  0.35574400  0.32896100  1
  V  V3  1  0.46740200  0.81132100  0.33620000  1
  V  V4  1  0.96831300  0.68205800  0.66946200  1
  V  V5  1  0.53373200  0.52144500  0.99571400  1
  O  O0  1  0.22106100  0.26069000  0.02220000  1
  O  O1  1  0.72415700  0.56622100  0.31039600  1
  O  O2  1  0.22433500  0.59951300  0.35842700  1
  O  O3  1  0.79232600  0.70772300  0.98342700  1
  O  O4  1  0.72359800  0.89477500  0.64472200  1
  F  F0  1  0.77274200  0.05485400  0.31848400  1
  F  F1  1  0.27265600  0.11030500  0.35156700  1
  F  F2  1  0.08313600  0.01237100  0.88685800  1
  F  F3  1  0.57070300  0.41902600  0.11855400  1
  F  F4  1  0.93319400  0.26675200  0.45256700  1
  F  F5  1  0.58324900  0.10741600  0.77967500  1
  F  F6  1  0.07746700  0.39019000  0.21571000  1
  F  F7  1  0.41804600  0.22835900  0.55950400  1
  F  F8  1  0.78972900  0.38379800  0.64594200  1
  F  F9  1  0.72157400  0.22898200  0.96751600  1
  F  F10  1  0.29025600  0.76256600  0.03032200  1
  F  F11  1  0.28338300  0.44563100  0.68405200  1
  F  F12  1  0.91616800  0.57862500  0.78244200  1
  F  F13  1  0.57250900  0.77222900  0.45286000  1
  F  F14  1  0.90765700  0.94130600  0.11608800  1
  F  F15  1  0.42757700  0.89766000  0.21652200  1
  F  F16  1  0.38590200  0.56967300  0.88765500  1
  F  F17  1  0.07272100  0.72741100  0.55130000  1
  F  F18  1  0.21341400  0.93612300  0.69462100  1
loop_
_geom_bond_atom_site_label_1
_geom_bond_atom_site_label_2
_geom_bond_distance
_geom_bond_site_symmetry_2
Li0 O0 2.077904 1_555
Li1 O2 2.107294 1_555
Li2 O1 2.251962 1_555
Li3 O3 2.134318 1_455
Li4 O4 2.244784 1_555
O0 V0 1.699337 1_555
O0 V5 2.166879 1_554
O1 V2 1.709825 1_555
O1 V3 1.980032 1_555
O2 V3 1.718176 1_555
O2 V2 1.997325 1_455
O3 V5 1.687177 1_555
O3 V0 2.192276 1_666
O4 V4 1.726626 1_555
O4 V1 1.967189 1_565
F0 V2 1.964527 1_555
F0 V3 2.070542 1_545
F1 V3 1.963823 1_545
F1 V2 2.067439 1_455
F2 V0 1.882759 1_556
F2 Li3 1.887814 1_545
F3 Li2 1.912482 1_555
F3 Li0 1.960717 1_555
F3 V5 1.972082 1_554
F4 Li4 1.886459 1_545
F4 V2 1.975727 1_555
F4 Li1 1.982896 1_655
F5 V1 1.736694 1_555
F6 V2 1.886548 1_455
F6 Li0 1.887409 1_555
F7 V1 1.863359 1_555
F7 Li1 1.968495 1_555
F8 V1 1.950927 1_555
F8 V4 1.963230 1_555
F9 V0 1.969312 1_656
F9 V5 1.979416 1_555
F10 V5 1.968686 1_554
F10 V0 1.985712 1_565
F11 V1 1.947437 1_555
F11 V4 2.078881 1_455
F12 V4 1.832015 1_555
F12 Li3 1.871568 1_655
F13 Li4 1.847871 1_555
F13 V3 1.933395 1_555
F13 Li1 2.518914 1_555
F14 Li2 1.858797 1_555
F14 V0 1.927385 1_665
F14 Li0 2.526814 1_665
F15 V3 1.916075 1_555
F15 Li0 1.957803 1_565
F15 Li2 2.044632 1_555
F16 Li3 1.870363 1_555
F16 V5 1.881889 1_555
F17 Li1 1.922640 1_555
F17 V4 1.952749 1_455
F17 Li4 1.981816 1_455
F18 V1 1.935190 1_565
F18 V4 1.978752 1_455
