# generated using pymatgen
data_NaCeTi2O6
_symmetry_space_group_name_H-M   'P 1'
_cell_length_a   5.45861503
_cell_length_b   5.45861503
_cell_length_c   5.45861518
_cell_angle_alpha   60.35113113
_cell_angle_beta   60.35113113
_cell_angle_gamma   60.35112978
_symmetry_Int_Tables_number   1
_chemical_formula_structural   NaCeTi2O6
_chemical_formula_sum   'Na1 Ce1 Ti2 O6'
_cell_volume   115.92269538
_cell_formula_units_Z   1
loop_
 _symmetry_equiv_pos_site_id
 _symmetry_equiv_pos_as_xyz
  1  'x, y, z'
loop_
 _atom_site_type_symbol
 _atom_site_label
 _atom_site_symmetry_multiplicity
 _atom_site_fract_x
 _atom_site_fract_y
 _atom_site_fract_z
 _atom_site_occupancy
  Na  Na0  1  0.50000000  0.50000000  0.50000000  1
  Ce  Ce0  1  0.00000000  0.00000000  0.00000000  1
  Ti  Ti0  1  0.75164900  0.75164900  0.75164900  1
  Ti  Ti1  1  0.24835100  0.24835100  0.24835100  1
  O  O0  1  0.93610300  0.06389700  0.50000000  1
  O  O1  1  0.50000000  0.93610300  0.06389700  1
  O  O2  1  0.06389700  0.50000000  0.93610300  1
  O  O3  1  0.00000000  0.57612800  0.42387200  1
  O  O4  1  0.42387200  0.00000000  0.57612800  1
  O  O5  1  0.57612800  0.42387200  0.00000000  1
loop_
_geom_bond_atom_site_label_1
_geom_bond_atom_site_label_2
_geom_bond_distance
_geom_bond_site_symmetry_2
Na0 O0 2.393141 1_555
Na0 O2 2.393141 1_555
Na0 O1 2.393141 1_555
Na0 O4 2.761094 1_565
Na0 O3 2.761094 1_555
Na0 O3 2.761094 1_655
Na0 O4 2.761094 1_555
Na0 O5 2.761094 1_556
Na0 O5 2.761094 1_555
Ce0 O5 2.326023 1_455
Ce0 O4 2.326023 1_554
Ce0 O3 2.326023 1_545
Ce0 O1 2.751739 1_545
Ce0 O2 2.751739 1_544
Ce0 O2 2.751739 1_554
Ce0 O1 2.751739 1_445
Ce0 O0 2.751739 1_455
Ce0 O0 2.751739 1_454
O0 Ti0 1.954206 1_545
O0 Ti1 1.954206 1_655
O1 Ti1 1.954206 1_565
O1 Ti0 1.954206 1_554
O2 Ti0 1.954206 1_455
O2 Ti1 1.954206 1_556
O3 Ti1 1.992044 1_555
O3 Ti0 1.992044 1_455
O4 Ti0 1.992044 1_545
O4 Ti1 1.992044 1_555
O5 Ti1 1.992044 1_555
O5 Ti0 1.992044 1_554
