# generated using pymatgen
data_Na3WN2
_symmetry_space_group_name_H-M   'P 1'
_cell_length_a   13.21816615
_cell_length_b   6.46753700
_cell_length_c   24.80366161
_cell_angle_alpha   89.99999754
_cell_angle_beta   159.75828686
_cell_angle_gamma   104.16090210
_symmetry_Int_Tables_number   1
_chemical_formula_structural   Na3WN2
_chemical_formula_sum   'Na12 W4 N8'
_cell_volume   518.75662367
_cell_formula_units_Z   4
loop_
 _symmetry_equiv_pos_site_id
 _symmetry_equiv_pos_as_xyz
  1  'x, y, z'
loop_
 _atom_site_type_symbol
 _atom_site_label
 _atom_site_symmetry_multiplicity
 _atom_site_fract_x
 _atom_site_fract_y
 _atom_site_fract_z
 _atom_site_occupancy
  Na  Na0  1  0.00000000  0.50000000  0.36894900  1
  Na  Na1  1  0.00000000  0.00000000  0.88105100  1
  Na  Na2  1  0.00000000  0.50000000  0.13105100  1
  Na  Na3  1  0.00000000  0.00000000  0.11894900  1
  Na  Na4  1  0.51362500  0.50000000  0.50681200  1
  Na  Na5  1  0.48637500  0.50000000  0.99318800  1
  Na  Na6  1  0.51362500  0.00000000  0.25681200  1
  Na  Na7  1  0.48637500  0.00000000  0.74318800  1
  Na  Na8  1  0.48637500  0.98637500  0.99318800  1
  Na  Na9  1  0.51362500  0.01362500  0.50681200  1
  Na  Na10  1  0.48637500  0.48637500  0.74318800  1
  Na  Na11  1  0.51362500  0.51362500  0.25681200  1
  W  W0  1  0.00000000  0.50000000  0.63940500  1
  W  W1  1  0.00000000  0.00000000  0.61059500  1
  W  W2  1  0.00000000  0.50000000  0.86059500  1
  W  W3  1  0.00000000  0.00000000  0.38940500  1
  N  N0  1  0.55129400  0.27564600  0.45649200  1
  N  N1  1  0.44870600  0.72435400  0.90519800  1
  N  N2  1  0.55129400  0.77564600  0.34480200  1
  N  N3  1  0.44870600  0.22435400  0.79350800  1
  N  N4  1  0.00000000  0.72435400  0.81915600  1
  N  N5  1  0.00000000  0.27564600  0.81915600  1
  N  N6  1  0.00000000  0.22435400  0.43084400  1
  N  N7  1  0.00000000  0.77564600  0.43084400  1
loop_
_geom_bond_atom_site_label_1
_geom_bond_atom_site_label_2
_geom_bond_distance
_geom_bond_site_symmetry_2
N0 W0 1.778184 1_655
N0 Na9 2.330407 1_555
N0 Na4 2.330416 1_555
N0 Na3 2.352702 1_555
N1 W0 1.778184 1_555
N1 Na8 2.330425 1_555
N1 Na5 2.330434 1_555
N1 Na3 2.352702 1_666
N2 W1 1.778184 1_665
N2 Na11 2.330425 1_555
N2 Na6 2.330434 1_565
N2 Na2 2.352702 1_555
N3 W1 1.778184 1_555
N3 Na10 2.330407 1_555
N3 Na7 2.330416 1_555
N3 Na2 2.352702 1_656
N4 W2 1.778175 1_555
N4 Na8 2.330429 1_555
N4 Na4 2.330447 1_455
N4 Na1 2.352681 1_565
N5 W2 1.778175 1_555
N5 Na5 2.330429 1_555
N5 Na9 2.330448 1_455
N5 Na1 2.352681 1_555
N6 W3 1.778175 1_555
N6 Na6 2.330429 1_455
N6 Na10 2.330448 1_555
N6 Na0 2.352681 1_555
N7 W3 1.778175 1_565
N7 Na11 2.330429 1_455
N7 Na7 2.330447 1_565
N7 Na0 2.352681 1_555
