# generated using pymatgen
data_Mn4Se3N2
_symmetry_space_group_name_H-M   'P 1'
_cell_length_a   6.11195400
_cell_length_b   10.37914200
_cell_length_c   8.93407700
_cell_angle_alpha   90.00000000
_cell_angle_beta   90.00000000
_cell_angle_gamma   90.00000000
_symmetry_Int_Tables_number   1
_chemical_formula_structural   Mn4Se3N2
_chemical_formula_sum   'Mn16 Se12 N8'
_cell_volume   566.74959947
_cell_formula_units_Z   4
loop_
 _symmetry_equiv_pos_site_id
 _symmetry_equiv_pos_as_xyz
  1  'x, y, z'
loop_
 _atom_site_type_symbol
 _atom_site_label
 _atom_site_symmetry_multiplicity
 _atom_site_fract_x
 _atom_site_fract_y
 _atom_site_fract_z
 _atom_site_occupancy
  Mn  Mn0  1  0.49045200  0.25000000  0.85163200  1
  Mn  Mn1  1  0.99045200  0.25000000  0.64836800  1
  Mn  Mn2  1  0.50954800  0.75000000  0.14836800  1
  Mn  Mn3  1  0.00954800  0.75000000  0.35163200  1
  Mn  Mn4  1  0.78796700  0.25000000  0.40420100  1
  Mn  Mn5  1  0.28796700  0.25000000  0.09579900  1
  Mn  Mn6  1  0.21203300  0.75000000  0.59579900  1
  Mn  Mn7  1  0.71203300  0.75000000  0.90420100  1
  Mn  Mn8  1  0.70150000  0.46773700  0.06940200  1
  Mn  Mn9  1  0.20150000  0.03226300  0.43059800  1
  Mn  Mn10  1  0.29850000  0.96773700  0.93059800  1
  Mn  Mn11  1  0.79850000  0.53226300  0.56940200  1
  Mn  Mn12  1  0.29850000  0.53226300  0.93059800  1
  Mn  Mn13  1  0.79850000  0.96773700  0.56940200  1
  Mn  Mn14  1  0.70150000  0.03226300  0.06940200  1
  Mn  Mn15  1  0.20150000  0.46773700  0.43059800  1
  Se  Se0  1  0.88384200  0.25000000  0.14439700  1
  Se  Se1  1  0.38384200  0.25000000  0.35560300  1
  Se  Se2  1  0.11615800  0.75000000  0.85560300  1
  Se  Se3  1  0.61615800  0.75000000  0.64439700  1
  Se  Se4  1  0.56876000  0.56319500  0.32680000  1
  Se  Se5  1  0.06876000  0.93680500  0.17320000  1
  Se  Se6  1  0.43124000  0.06319500  0.67320000  1
  Se  Se7  1  0.93124000  0.43680500  0.82680000  1
  Se  Se8  1  0.43124000  0.43680500  0.67320000  1
  Se  Se9  1  0.93124000  0.06319500  0.82680000  1
  Se  Se10  1  0.56876000  0.93680500  0.32680000  1
  Se  Se11  1  0.06876000  0.56319500  0.17320000  1
  N  N0  1  0.55882700  0.62105600  0.98948900  1
  N  N1  1  0.05882700  0.87894400  0.51051100  1
  N  N2  1  0.44117300  0.12105600  0.01051100  1
  N  N3  1  0.94117300  0.37894400  0.48948900  1
  N  N4  1  0.44117300  0.37894400  0.01051100  1
  N  N5  1  0.94117300  0.12105600  0.48948900  1
  N  N6  1  0.55882700  0.87894400  0.98948900  1
  N  N7  1  0.05882700  0.62105600  0.51051100  1
loop_
_geom_bond_atom_site_label_1
_geom_bond_atom_site_label_2
_geom_bond_distance
_geom_bond_site_symmetry_2
Mn0 N2 1.973991 1_556
Mn0 N4 1.973991 1_556
Mn0 Se8 2.536030 1_555
Mn0 Se6 2.536030 1_555
Mn1 N5 1.973991 1_555
Mn1 N3 1.973991 1_555
Mn1 Se9 2.536030 1_555
Mn1 Se7 2.536030 1_555
Mn2 N6 1.973991 1_554
Mn2 N0 1.973991 1_554
Mn2 Se10 2.536030 1_555
Mn2 Se4 2.536030 1_555
Mn3 N1 1.973991 1_555
Mn3 N7 1.973991 1_555
Mn3 Se5 2.536030 1_555
Mn3 Se11 2.536030 1_555
Mn4 N3 1.802371 1_555
Mn4 N5 1.802371 1_555
Mn4 Se0 2.393935 1_555
Mn4 Se1 2.507863 1_555
Mn5 N2 1.802371 1_555
Mn5 N4 1.802371 1_555
Mn5 Se1 2.393935 1_555
Mn5 Se0 2.507863 1_455
Mn6 N1 1.802371 1_555
Mn6 N7 1.802371 1_555
Mn6 Se2 2.393935 1_555
Mn6 Se3 2.507863 1_555
Mn7 N6 1.802371 1_555
Mn7 N0 1.802371 1_555
Mn7 Se3 2.393935 1_555
Mn7 Se2 2.507863 1_655
Mn8 N4 1.912532 1_555
Mn8 N0 1.949981 1_554
Mn8 Se7 2.602397 1_554
Mn8 Se0 2.607336 1_555
Mn8 Se11 2.623006 1_655
Mn8 Se4 2.632121 1_555
Mn9 N5 1.912532 1_455
Mn9 N1 1.949981 1_545
Mn9 Se6 2.602397 1_555
Mn9 Se1 2.607336 1_555
Mn9 Se10 2.623006 1_545
Mn9 Se5 2.632121 1_545
Mn10 N6 1.912532 1_555
Mn10 N2 1.949981 1_566
Mn10 Se5 2.602397 1_556
Mn10 Se2 2.607336 1_555
Mn10 Se9 2.623006 1_465
Mn10 Se6 2.632121 1_565
Mn11 N7 1.912532 1_655
Mn11 N3 1.949981 1_555
Mn11 Se4 2.602397 1_555
Mn11 Se3 2.607336 1_555
Mn11 Se8 2.623006 1_555
Mn11 Se7 2.632121 1_555
Mn12 N0 1.912532 1_555
Mn12 N4 1.949981 1_556
Mn12 Se11 2.602397 1_556
Mn12 Se2 2.607336 1_555
Mn12 Se7 2.623006 1_455
Mn12 Se8 2.632121 1_555
Mn13 N1 1.912532 1_655
Mn13 N5 1.949981 1_565
Mn13 Se10 2.602397 1_555
Mn13 Se3 2.607336 1_555
Mn13 Se6 2.623006 1_565
Mn13 Se9 2.632121 1_565
Mn14 N2 1.912532 1_555
Mn14 N6 1.949981 1_544
Mn14 Se9 2.602397 1_554
Mn14 Se0 2.607336 1_555
Mn14 Se5 2.623006 1_645
Mn14 Se10 2.632121 1_545
Mn15 N3 1.912532 1_455
Mn15 N7 1.949981 1_555
Mn15 Se8 2.602397 1_555
Mn15 Se1 2.607336 1_555
Mn15 Se4 2.623006 1_555
Mn15 Se11 2.632121 1_555
