# generated using pymatgen
data_NaMg14TiO16
_symmetry_space_group_name_H-M   'P 1'
_cell_length_a   8.46546666
_cell_length_b   8.46546759
_cell_length_c   4.22708036
_cell_angle_alpha   90.00000000
_cell_angle_beta   90.00000000
_cell_angle_gamma   90.00000000
_symmetry_Int_Tables_number   1
_chemical_formula_structural   NaMg14TiO16
_chemical_formula_sum   'Na1 Mg14 Ti1 O16'
_cell_volume   302.93005184
_cell_formula_units_Z   1
loop_
 _symmetry_equiv_pos_site_id
 _symmetry_equiv_pos_as_xyz
  1  'x, y, z'
loop_
 _atom_site_type_symbol
 _atom_site_label
 _atom_site_symmetry_multiplicity
 _atom_site_fract_x
 _atom_site_fract_y
 _atom_site_fract_z
 _atom_site_occupancy
  Na  Na0  1  0.50000000  0.50000000  -0.00000000  1
  Mg  Mg0  1  0.00000000  0.50000000  -0.00000000  1
  Mg  Mg1  1  0.50000000  0.00000000  -0.00000000  1
  Mg  Mg2  1  0.00000000  0.25580577  0.50000000  1
  Mg  Mg3  1  0.00000000  0.74419423  0.50000000  1
  Mg  Mg4  1  0.50000000  0.25496091  0.50000000  1
  Mg  Mg5  1  0.50000000  0.74503909  0.50000000  1
  Mg  Mg6  1  0.25580573  0.00000000  0.50000000  1
  Mg  Mg7  1  0.25496095  0.50000000  0.50000000  1
  Mg  Mg8  1  0.74419427  0.00000000  0.50000000  1
  Mg  Mg9  1  0.74503905  0.50000000  0.50000000  1
  Mg  Mg10  1  0.25652373  0.25652378  -0.00000000  1
  Mg  Mg11  1  0.25652373  0.74347622  0.00000000  1
  Mg  Mg12  1  0.74347627  0.25652378  -0.00000000  1
  Mg  Mg13  1  0.74347627  0.74347622  0.00000000  1
  Ti  Ti0  1  0.00000000  0.00000000  -0.00000000  1
  O  O0  1  0.24239779  0.00000000  -0.00000000  1
  O  O1  1  0.23474768  0.50000000  -0.00000000  1
  O  O2  1  0.75760221  0.00000000  0.00000000  1
  O  O3  1  0.76525232  0.50000000  0.00000000  1
  O  O4  1  0.24789008  0.24789006  0.50000000  1
  O  O5  1  0.24789008  0.75210994  0.50000000  1
  O  O6  1  0.75210992  0.24789006  0.50000000  1
  O  O7  1  0.75210992  0.75210994  0.50000000  1
  O  O8  1  0.00000000  0.00000000  0.50000000  1
  O  O9  1  0.00000000  0.50000000  0.50000000  1
  O  O10  1  0.50000000  0.00000000  0.50000000  1
  O  O11  1  0.50000000  0.50000000  0.50000000  1
  O  O12  1  0.00000000  0.24239788  -0.00000000  1
  O  O13  1  0.00000000  0.75760212  0.00000000  1
  O  O14  1  0.50000000  0.23474767  0.00000000  1
  O  O15  1  0.50000000  0.76525233  0.00000000  1
loop_
_geom_bond_atom_site_label_1
_geom_bond_atom_site_label_2
_geom_bond_distance
_geom_bond_site_symmetry_2
Na0 O11 2.113540 1_554
Na0 O11 2.113540 1_555
Na0 O3 2.245485 1_555
Na0 O1 2.245485 1_555
Na0 O15 2.245485 1_555
Na0 O14 2.245485 1_555
Mg0 O3 1.987249 1_455
Mg0 O1 1.987249 1_555
Mg0 O9 2.113540 1_554
Mg0 O9 2.113540 1_555
Mg0 O12 2.180722 1_555
Mg0 O13 2.180722 1_555
Mg1 O15 1.987249 1_545
Mg1 O14 1.987249 1_555
Mg1 O10 2.113540 1_555
Mg1 O10 2.113540 1_554
Mg1 O0 2.180723 1_555
Mg1 O2 2.180723 1_555
Mg2 O9 2.067218 1_555
Mg2 O4 2.099575 1_555
Mg2 O6 2.099575 1_455
Mg2 O12 2.116586 1_556
Mg2 O12 2.116586 1_555
Mg2 O8 2.165515 1_555
Mg3 O9 2.067218 1_555
Mg3 O5 2.099575 1_555
Mg3 O7 2.099575 1_455
Mg3 O13 2.116586 1_555
Mg3 O13 2.116586 1_556
Mg3 O8 2.165515 1_565
Mg4 O11 2.074370 1_555
Mg4 O14 2.120456 1_556
Mg4 O14 2.120456 1_555
Mg4 O4 2.135067 1_555
Mg4 O6 2.135067 1_555
Mg4 O10 2.158363 1_555
Mg5 O11 2.074370 1_555
Mg5 O15 2.120456 1_556
Mg5 O15 2.120456 1_555
Mg5 O7 2.135067 1_555
Mg5 O5 2.135067 1_555
Mg5 O10 2.158363 1_565
Mg6 O10 2.067218 1_555
Mg6 O4 2.099575 1_555
Mg6 O5 2.099575 1_545
Mg6 O0 2.116586 1_555
Mg6 O0 2.116586 1_556
Mg6 O8 2.165515 1_555
Mg7 O11 2.074370 1_555
Mg7 O1 2.120456 1_555
Mg7 O1 2.120456 1_556
Mg7 O4 2.135068 1_555
Mg7 O5 2.135068 1_555
Mg7 O9 2.158363 1_555
Mg8 O10 2.067218 1_555
Mg8 O6 2.099575 1_555
Mg8 O7 2.099575 1_545
Mg8 O2 2.116586 1_556
Mg8 O2 2.116586 1_555
Mg8 O8 2.165515 1_655
Mg9 O11 2.074370 1_555
Mg9 O3 2.120456 1_556
Mg9 O3 2.120456 1_555
Mg9 O6 2.135068 1_555
Mg9 O7 2.135068 1_555
Mg9 O9 2.158363 1_655
Mg10 O1 2.069367 1_555
Mg10 O14 2.069368 1_555
Mg10 O4 2.116066 1_554
Mg10 O4 2.116066 1_555
Mg10 O12 2.174883 1_555
Mg10 O0 2.174884 1_555
Mg11 O1 2.069367 1_555
Mg11 O15 2.069368 1_555
Mg11 O5 2.116066 1_554
Mg11 O5 2.116066 1_555
Mg11 O13 2.174883 1_555
Mg11 O0 2.174884 1_565
Mg12 O3 2.069367 1_555
Mg12 O14 2.069368 1_555
Mg12 O6 2.116066 1_554
Mg12 O6 2.116066 1_555
Mg12 O12 2.174883 1_655
Mg12 O2 2.174884 1_555
Mg13 O3 2.069367 1_555
Mg13 O15 2.069368 1_555
Mg13 O7 2.116066 1_554
Mg13 O7 2.116066 1_555
Mg13 O13 2.174883 1_655
Mg13 O2 2.174884 1_565
O0 Ti0 2.052010 1_555
O2 Ti0 2.052010 1_655
O8 Ti0 2.113540 1_555
O8 Ti0 2.113540 1_556
O12 Ti0 2.052011 1_555
O13 Ti0 2.052011 1_565
