# generated using pymatgen
data_Cs2Al2Si3O10
_symmetry_space_group_name_H-M   'P 1'
_cell_length_a   13.38817812
_cell_length_b   10.23014248
_cell_length_c   9.84872328
_cell_angle_alpha   83.61487631
_cell_angle_beta   49.40936293
_cell_angle_gamma   46.97576076
_symmetry_Int_Tables_number   1
_chemical_formula_structural   Cs2Al2Si3O10
_chemical_formula_sum   'Cs4 Al4 Si6 O20'
_cell_volume   599.44684979
_cell_formula_units_Z   2
loop_
 _symmetry_equiv_pos_site_id
 _symmetry_equiv_pos_as_xyz
  1  'x, y, z'
loop_
 _atom_site_type_symbol
 _atom_site_label
 _atom_site_symmetry_multiplicity
 _atom_site_fract_x
 _atom_site_fract_y
 _atom_site_fract_z
 _atom_site_occupancy
  Cs  Cs0  1  0.13292600  0.97135800  0.27851300  1
  Cs  Cs1  1  0.61720300  0.27851300  0.97135800  1
  Cs  Cs2  1  0.97148700  0.63279700  0.11707400  1
  Cs  Cs3  1  0.27864200  0.11707400  0.63279700  1
  Al  Al0  1  0.73339800  0.58883800  0.68022400  1
  Al  Al1  1  0.99754000  0.68022400  0.58883800  1
  Al  Al2  1  0.56977600  0.25246000  0.51660200  1
  Al  Al3  1  0.66116200  0.51660200  0.25246000  1
  Si  Si0  1  0.25126300  0.24873700  0.24873700  1
  Si  Si1  1  0.00126300  0.99873700  0.99873700  1
  Si  Si2  1  0.51165700  0.57025100  0.67834200  1
  Si  Si3  1  0.23975000  0.67834200  0.57025100  1
  Si  Si4  1  0.57165800  0.01025000  0.73834300  1
  Si  Si5  1  0.67974900  0.73834300  0.01025000  1
  O  O0  1  0.02207900  0.35165500  0.41537200  1
  O  O1  1  0.21089400  0.41537200  0.35165500  1
  O  O2  1  0.83462800  0.03910600  0.22792100  1
  O  O3  1  0.89834500  0.22792100  0.03910600  1
  O  O4  1  0.60690000  0.54360200  0.74348700  1
  O  O5  1  0.10601200  0.74348700  0.54360200  1
  O  O6  1  0.50651300  0.14398800  0.64310000  1
  O  O7  1  0.70639800  0.64310000  0.14398800  1
  O  O8  1  0.60461100  0.82971900  0.68885800  1
  O  O9  1  0.87681300  0.68885800  0.82971800  1
  O  O10  1  0.56114200  0.37318700  0.64538900  1
  O  O11  1  0.42028200  0.64538900  0.37318700  1
  O  O12  1  0.62298700  0.56276800  0.45680800  1
  O  O13  1  0.35743600  0.45680800  0.56276800  1
  O  O14  1  0.79319200  0.89256400  0.62701300  1
  O  O15  1  0.68723200  0.62701300  0.89256400  1
  O  O16  1  0.23832400  0.82026000  0.89331000  1
  O  O17  1  0.04810600  0.89331000  0.82026000  1
  O  O18  1  0.35669000  0.20189400  0.01167600  1
  O  O19  1  0.42974000  0.01167600  0.20189400  1
loop_
_geom_bond_atom_site_label_1
_geom_bond_atom_site_label_2
_geom_bond_distance
_geom_bond_site_symmetry_2
Cs0 O0 3.136822 1_565
Cs0 O16 3.183501 1_554
Cs0 O4 3.302392 1_554
Cs0 O5 3.308882 1_555
Cs0 O15 3.539389 1_554
Cs0 O4 3.545969 1_465
Cs0 O10 3.594797 1_465
Cs0 O11 3.641415 1_555
Cs1 O1 3.136822 1_556
Cs1 O17 3.183501 1_645
Cs1 O5 3.302393 1_645
Cs1 O4 3.308883 1_555
Cs1 O14 3.539380 1_545
Cs1 O5 3.545969 1_556
Cs1 O11 3.594797 1_556
Cs1 O10 3.641415 1_555
Cs2 O2 3.136822 1_565
Cs2 O18 3.183501 1_655
Cs2 O6 3.302394 1_654
Cs2 O7 3.308889 1_555
Cs2 O13 3.539386 1_654
Cs2 O6 3.545964 1_565
Cs2 O8 3.594795 1_555
Cs2 O9 3.641415 1_554
Cs3 O3 3.136822 1_456
Cs3 O19 3.183501 1_555
Cs3 O7 3.302397 1_545
Cs3 O6 3.308875 1_555
Cs3 O12 3.539388 1_545
Cs3 O7 3.545967 1_456
Cs3 O9 3.594797 1_455
Cs3 O8 3.641416 1_545
Al0 O15 1.754485 1_555
Al0 O4 1.761478 1_555
Al0 O8 1.763625 1_555
Al0 O0 1.766531 1_655
Al1 O14 1.754477 1_555
Al1 O5 1.761490 1_655
Al1 O9 1.763617 1_555
Al1 O1 1.766531 1_655
Al2 O13 1.754484 1_555
Al2 O6 1.761487 1_555
Al2 O10 1.763617 1_555
Al2 O2 1.766531 1_555
Al3 O12 1.754475 1_555
Al3 O7 1.761480 1_555
Al3 O11 1.763617 1_555
Al3 O3 1.766531 1_555
O0 Si0 1.624711 1_555
O1 Si0 1.624711 1_555
O2 Si1 1.624711 1_644
O3 Si1 1.624711 1_644
O4 Si2 1.631948 1_555
O5 Si3 1.631936 1_555
O6 Si4 1.631944 1_555
O7 Si5 1.631940 1_555
O8 Si4 1.628362 1_565
O9 Si5 1.628372 1_556
O10 Si2 1.628372 1_555
O11 Si3 1.628372 1_555
O12 Si2 1.624014 1_555
O13 Si3 1.624014 1_555
O14 Si4 1.624018 1_565
O15 Si5 1.624006 1_556
O16 Si1 1.646340 1_555
O16 Si2 1.663019 1_555
O17 Si1 1.646340 1_555
O17 Si3 1.663019 1_555
O18 Si0 1.646340 1_555
O18 Si4 1.663019 1_554
O19 Si0 1.646340 1_555
O19 Si5 1.663019 1_545
