# generated using pymatgen
data_Ba6Ti5PtO18
_symmetry_space_group_name_H-M   'P 1'
_cell_length_a   5.79134398
_cell_length_b   5.79134398
_cell_length_c   14.24697100
_cell_angle_alpha   90.00000000
_cell_angle_beta   90.00000000
_cell_angle_gamma   119.99999974
_symmetry_Int_Tables_number   1
_chemical_formula_structural   Ba6Ti5PtO18
_chemical_formula_sum   'Ba6 Ti5 Pt1 O18'
_cell_volume   413.82039835
_cell_formula_units_Z   1
loop_
 _symmetry_equiv_pos_site_id
 _symmetry_equiv_pos_as_xyz
  1  'x, y, z'
loop_
 _atom_site_type_symbol
 _atom_site_label
 _atom_site_symmetry_multiplicity
 _atom_site_fract_x
 _atom_site_fract_y
 _atom_site_fract_z
 _atom_site_occupancy
  Ba  Ba0  1  0.00000000  0.00000000  0.59392100  1
  Ba  Ba1  1  0.66666700  0.33333300  0.40307900  1
  Ba  Ba2  1  0.66666700  0.33333300  0.09060300  1
  Ba  Ba3  1  0.00000000  0.00000000  0.90151400  1
  Ba  Ba4  1  0.33333300  0.66666700  0.74755100  1
  Ba  Ba5  1  0.33333300  0.66666700  0.24751800  1
  Ti  Ti0  1  0.33333300  0.66666700  0.49460400  1
  Ti  Ti1  1  0.33333300  0.66666700  0.99168700  1
  Ti  Ti2  1  0.66666700  0.33333300  0.64804900  1
  Ti  Ti3  1  0.66666700  0.33333300  0.83805800  1
  Ti  Ti4  1  0.00000000  0.00000000  0.14538400  1
  Pt  Pt0  1  0.00000000  0.00000000  0.34232200  1
  O  O0  1  0.50052800  0.00105600  0.58495400  1
  O  O1  1  0.50052800  0.49947200  0.58495400  1
  O  O2  1  0.99894400  0.49947200  0.58495400  1
  O  O3  1  0.17111800  0.34223700  0.42551800  1
  O  O4  1  0.17111800  0.82888200  0.42551800  1
  O  O5  1  0.65776300  0.82888200  0.42551800  1
  O  O6  1  0.16594000  0.33188000  0.08185200  1
  O  O7  1  0.16594000  0.83406000  0.08185200  1
  O  O8  1  0.66812000  0.83406000  0.08185200  1
  O  O9  1  0.49711100  0.99422200  0.92211300  1
  O  O10  1  0.49711100  0.50288900  0.92211300  1
  O  O11  1  0.00577800  0.50288900  0.92211300  1
  O  O12  1  0.81589500  0.63179100  0.75388600  1
  O  O13  1  0.81589500  0.18410500  0.75388600  1
  O  O14  1  0.36820900  0.18410500  0.75388600  1
  O  O15  1  0.84876500  0.69753000  0.25024600  1
  O  O16  1  0.84876500  0.15123500  0.25024600  1
  O  O17  1  0.30247000  0.15123500  0.25024600  1
loop_
_geom_bond_atom_site_label_1
_geom_bond_atom_site_label_2
_geom_bond_distance
_geom_bond_site_symmetry_2
Ba0 O2 2.898494 1_455
Ba0 O0 2.898494 1_455
Ba0 O2 2.898494 1_445
Ba0 O0 2.898494 1_555
Ba0 O1 2.898494 1_555
Ba0 O1 2.898494 1_445
Ba0 O12 2.933316 1_445
Ba0 O14 2.933316 1_555
Ba0 O13 2.933319 1_455
Ba0 O4 2.950013 1_545
Ba0 O5 2.950016 1_445
Ba0 O3 2.950016 1_555
Ba1 O16 2.842111 1_555
Ba1 O17 2.842114 1_555
Ba1 O15 2.842114 1_555
Ba1 O3 2.913602 1_655
Ba1 O5 2.913602 1_545
Ba1 O4 2.913608 1_655
Ba1 O4 2.913608 1_545
Ba1 O3 2.913614 1_555
Ba1 O5 2.913614 1_555
Ba1 O0 3.080818 1_555
Ba1 O2 3.080818 1_555
Ba1 O1 3.080820 1_555
Ba2 O8 2.898361 1_545
Ba2 O6 2.898361 1_655
Ba2 O7 2.898364 1_655
Ba2 O7 2.898364 1_545
Ba2 O6 2.898367 1_555
Ba2 O8 2.898367 1_555
Ba2 O16 2.917108 1_555
Ba2 O17 2.917112 1_555
Ba2 O15 2.917112 1_555
Ba2 O9 2.941933 1_544
Ba2 O11 2.941933 1_654
Ba2 O10 2.941936 1_554
Ba3 O12 2.798945 1_445
Ba3 O14 2.798945 1_555
Ba3 O13 2.798949 1_455
Ba3 O9 2.910650 1_545
Ba3 O11 2.910650 1_545
Ba3 O9 2.910650 1_445
Ba3 O11 2.910650 1_555
Ba3 O10 2.910650 1_445
Ba3 O10 2.910650 1_555
Ba3 O7 3.061340 1_546
Ba3 O8 3.061340 1_446
Ba3 O6 3.061340 1_556
Ba4 O2 2.859885 1_455
Ba4 O0 2.859885 1_565
Ba4 O1 2.859888 1_555
Ba4 O14 2.902354 1_555
Ba4 O12 2.902354 1_555
Ba4 O14 2.902354 1_565
Ba4 O12 2.902354 1_455
Ba4 O13 2.902354 1_565
Ba4 O13 2.902354 1_455
Ba4 O11 2.980600 1_555
Ba4 O9 2.980600 1_555
Ba4 O10 2.980603 1_555
Ba5 O7 2.896569 1_555
Ba5 O8 2.896572 1_555
Ba5 O6 2.896572 1_555
Ba5 O17 2.900064 1_565
Ba5 O15 2.900064 1_455
Ba5 O16 2.900067 1_565
Ba5 O16 2.900067 1_455
Ba5 O15 2.900070 1_555
Ba5 O17 2.900070 1_555
Ba5 O4 3.013097 1_555
Ba5 O5 3.013097 1_555
Ba5 O3 3.013097 1_555
O0 Ti2 1.893497 1_555
O0 Ti0 2.114148 1_545
O1 Ti2 1.893501 1_555
O1 Ti0 2.114152 1_555
O2 Ti2 1.893497 1_555
O2 Ti0 2.114148 1_655
O3 Ti0 1.901694 1_555
O3 Pt0 2.085952 1_555
O4 Ti0 1.901694 1_555
O4 Pt0 2.085947 1_565
O5 Ti0 1.901694 1_555
O5 Pt0 2.085952 1_665
O6 Ti4 1.894711 1_555
O6 Ti1 2.114130 1_554
O7 Ti4 1.894711 1_565
O7 Ti1 2.114126 1_554
O8 Ti4 1.894711 1_665
O8 Ti1 2.114130 1_554
O9 Ti1 1.918704 1_555
O9 Ti3 2.080091 1_565
O10 Ti1 1.918708 1_555
O10 Ti3 2.080095 1_555
O11 Ti1 1.918704 1_555
O11 Ti3 2.080091 1_455
O12 Ti3 1.918016 1_555
O12 Ti2 2.124699 1_555
O13 Ti3 1.918008 1_555
O13 Ti2 2.124692 1_555
O14 Ti3 1.918016 1_555
O14 Ti2 2.124699 1_555
O15 Pt0 2.005540 1_665
O15 Ti4 2.129153 1_665
O16 Pt0 2.005540 1_655
O16 Ti4 2.129153 1_655
O17 Pt0 2.005540 1_555
O17 Ti4 2.129153 1_555
