# generated using pymatgen
data_Eu7(ClF6)2
_symmetry_space_group_name_H-M   'P 1'
_cell_length_a   9.97683091
_cell_length_b   9.97680244
_cell_length_c   3.89007053
_cell_angle_alpha   90.00000219
_cell_angle_beta   89.99998272
_cell_angle_gamma   119.99951714
_symmetry_Int_Tables_number   1
_chemical_formula_structural   Eu7(ClF6)2
_chemical_formula_sum   'Eu7 Cl2 F12'
_cell_volume   335.33138639
_cell_formula_units_Z   1
loop_
 _symmetry_equiv_pos_site_id
 _symmetry_equiv_pos_as_xyz
  1  'x, y, z'
loop_
 _atom_site_type_symbol
 _atom_site_label
 _atom_site_symmetry_multiplicity
 _atom_site_fract_x
 _atom_site_fract_y
 _atom_site_fract_z
 _atom_site_occupancy
  Eu  Eu0  1  0.66666439  0.33332603  0.00000040  1
  Eu  Eu1  1  0.36790546  0.92247838  0.99999975  1
  Eu  Eu2  1  0.55456974  0.63210242  -0.00000010  1
  Eu  Eu3  1  0.07752233  0.44542250  0.99999964  1
  Eu  Eu4  1  0.78189089  0.04555053  0.50000005  1
  Eu  Eu5  1  0.26366288  0.21811984  0.49999965  1
  Eu  Eu6  1  0.95445373  0.73633713  0.50000062  1
  Cl  Cl0  1  0.00000443  0.00000684  0.00000024  1
  Cl  Cl1  1  0.33333114  0.66666445  0.49999983  1
  F  F0  1  0.82422190  0.21429292  -0.00000003  1
  F  F1  1  0.39007455  0.17577965  -0.00000001  1
  F  F2  1  0.78569829  0.60992038  0.00000054  1
  F  F3  1  0.60487283  0.90327807  0.00000043  1
  F  F4  1  0.29839947  0.39513106  0.00000026  1
  F  F5  1  0.09673052  0.70159163  0.00000034  1
  F  F6  1  0.05452035  0.28531267  0.49999976  1
  F  F7  1  0.23079706  0.94548812  0.49999960  1
  F  F8  1  0.71468684  0.76921271  0.50000000  1
  F  F9  1  0.57133898  0.11771620  0.50000012  1
  F  F10  1  0.54637356  0.42866175  0.49999982  1
  F  F11  1  0.88228167  0.45360573  0.50000008  1
loop_
_geom_bond_atom_site_label_1
_geom_bond_atom_site_label_2
_geom_bond_distance
_geom_bond_site_symmetry_2
Eu0 F0 2.397501 1_555
Eu0 F1 2.397507 1_555
Eu0 F2 2.397546 1_555
Eu0 F9 2.696127 1_555
Eu0 F9 2.696129 1_554
Eu0 F11 2.696173 1_555
Eu0 F11 2.696174 1_554
Eu0 F10 2.696219 1_555
Eu0 F10 2.696222 1_554
Eu1 F1 2.424129 1_566
Eu1 F7 2.453782 1_556
Eu1 F7 2.453783 1_555
Eu1 F3 2.465548 1_556
Eu1 F5 2.492783 1_556
Eu1 F9 2.782678 1_565
Eu1 F9 2.782681 1_566
Eu2 F2 2.424170 1_555
Eu2 F8 2.453789 1_554
Eu2 F8 2.453791 1_555
Eu2 F4 2.465597 1_555
Eu2 F3 2.492720 1_555
Eu2 F10 2.782716 1_555
Eu2 F10 2.782717 1_554
Eu3 F0 2.424134 1_456
Eu3 F6 2.453750 1_555
Eu3 F6 2.453750 1_556
Eu3 F5 2.465524 1_556
Eu3 F4 2.492690 1_556
Eu3 F11 2.782643 1_455
Eu3 F11 2.782644 1_456
Eu4 F0 2.466727 1_556
Eu4 F0 2.466727 1_555
Eu4 F8 2.490371 1_545
Eu4 F3 2.531833 1_545
Eu4 F3 2.531835 1_546
Eu4 F9 2.538399 1_555
Eu4 F6 2.571765 1_655
Eu5 F1 2.466765 1_555
Eu5 F1 2.466768 1_556
Eu5 F6 2.490375 1_555
Eu5 F4 2.531801 1_555
Eu5 F4 2.531804 1_556
Eu5 F10 2.538345 1_555
Eu5 F7 2.571772 1_545
Eu6 F2 2.466798 1_556
Eu6 F2 2.466799 1_555
Eu6 F7 2.490475 1_655
Eu6 F5 2.531852 1_656
Eu6 F5 2.531853 1_655
Eu6 F11 2.538519 1_555
Eu6 F8 2.571842 1_555
Cl0 Eu4 3.116682 1_455
Cl0 Eu4 3.116684 1_454
Cl0 Eu5 3.116701 1_555
Cl0 Eu5 3.116703 1_554
Cl0 Eu6 3.116758 1_444
Cl0 Eu6 3.116760 1_445
Cl1 Eu2 3.087904 1_555
Cl1 Eu2 3.087905 1_556
Cl1 Eu3 3.087965 1_555
Cl1 Eu3 3.087967 1_554
Cl1 Eu1 3.087968 1_555
Cl1 Eu1 3.087968 1_554
