# generated using pymatgen
data_Co(C4N3)2
_symmetry_space_group_name_H-M   'P 1'
_cell_length_a   5.35169200
_cell_length_b   6.99141000
_cell_length_c   10.65159900
_cell_angle_alpha   90.00000000
_cell_angle_beta   90.00000000
_cell_angle_gamma   90.00000000
_symmetry_Int_Tables_number   1
_chemical_formula_structural   Co(C4N3)2
_chemical_formula_sum   'Co2 C16 N12'
_cell_volume   398.53887507
_cell_formula_units_Z   2
loop_
 _symmetry_equiv_pos_site_id
 _symmetry_equiv_pos_as_xyz
  1  'x, y, z'
loop_
 _atom_site_type_symbol
 _atom_site_label
 _atom_site_symmetry_multiplicity
 _atom_site_fract_x
 _atom_site_fract_y
 _atom_site_fract_z
 _atom_site_occupancy
  Co  Co0  1  0.00000000  0.50000000  0.50000000  1
  Co  Co1  1  0.00000000  0.00000000  0.00000000  1
  C  C0  1  0.39587900  0.00000000  0.73895000  1
  C  C1  1  0.39587900  0.50000000  0.76105000  1
  C  C2  1  0.60412100  0.00000000  0.26105000  1
  C  C3  1  0.60412100  0.50000000  0.23895000  1
  C  C4  1  0.59621500  0.00000000  0.65304200  1
  C  C5  1  0.59621500  0.50000000  0.84695800  1
  C  C6  1  0.40378500  0.00000000  0.34695800  1
  C  C7  1  0.40378500  0.50000000  0.15304200  1
  C  C8  1  0.70390600  0.16941100  0.60874400  1
  C  C9  1  0.70390600  0.33058900  0.89125600  1
  C  C10  1  0.29609400  0.16941100  0.39125600  1
  C  C11  1  0.70390600  0.66941100  0.89125600  1
  C  C12  1  0.29609400  0.83058900  0.39125600  1
  C  C13  1  0.29609400  0.66941100  0.10874400  1
  C  C14  1  0.70390600  0.83058900  0.60874400  1
  C  C15  1  0.29609400  0.33058900  0.10874400  1
  N  N0  1  0.80038400  0.30473600  0.56620700  1
  N  N1  1  0.80038400  0.19526400  0.93379300  1
  N  N2  1  0.19961600  0.30473600  0.43379300  1
  N  N3  1  0.80038400  0.80473600  0.93379300  1
  N  N4  1  0.19961600  0.69526400  0.43379300  1
  N  N5  1  0.19961600  0.80473600  0.06620700  1
  N  N6  1  0.80038400  0.69526400  0.56620700  1
  N  N7  1  0.19961600  0.19526400  0.06620700  1
  N  N8  1  0.22779800  0.00000000  0.80945600  1
  N  N9  1  0.22779800  0.50000000  0.69054400  1
  N  N10  1  0.77220200  0.00000000  0.19054400  1
  N  N11  1  0.77220200  0.50000000  0.30945600  1
loop_
_geom_bond_atom_site_label_1
_geom_bond_atom_site_label_2
_geom_bond_distance
_geom_bond_site_symmetry_2
Co0 N6 1.871428 1_455
Co0 N4 1.871428 1_555
Co0 N2 1.871428 1_555
Co0 N0 1.871428 1_455
Co0 N9 2.367591 1_555
Co0 N11 2.367591 1_455
Co1 N1 1.871428 1_454
Co1 N7 1.871428 1_555
Co1 N5 1.871428 1_545
Co1 N3 1.871428 1_444
Co1 N8 2.367591 1_554
Co1 N10 2.367591 1_455
C0 N8 1.171809 1_555
C0 C4 1.409541 1_555
C1 N9 1.171809 1_555
C1 C5 1.409541 1_555
C2 N10 1.171809 1_555
C2 C6 1.409541 1_555
C3 N11 1.171809 1_555
C3 C7 1.409541 1_555
C4 C8 1.399160 1_555
C5 C9 1.399160 1_555
C8 N0 1.169189 1_555
C9 N1 1.169189 1_555
C10 N2 1.169189 1_555
C10 C6 1.399160 1_555
C11 N3 1.169189 1_555
C11 C5 1.399160 1_555
C12 N4 1.169189 1_555
C12 C6 1.399160 1_565
C13 N5 1.169189 1_555
C13 C7 1.399160 1_555
C14 N6 1.169189 1_555
C14 C4 1.399160 1_565
C15 N7 1.169189 1_555
C15 C7 1.399160 1_555
