# generated using pymatgen
data_Ba(NbN2)2
_symmetry_space_group_name_H-M   'P 1'
_cell_length_a   11.25582300
_cell_length_b   11.25582300
_cell_length_c   11.25582300
_cell_angle_alpha   90.00000000
_cell_angle_beta   90.00000000
_cell_angle_gamma   90.00000000
_symmetry_Int_Tables_number   1
_chemical_formula_structural   Ba(NbN2)2
_chemical_formula_sum   'Ba12 Nb24 N48'
_cell_volume   1426.04018988
_cell_formula_units_Z   12
loop_
 _symmetry_equiv_pos_site_id
 _symmetry_equiv_pos_as_xyz
  1  'x, y, z'
loop_
 _atom_site_type_symbol
 _atom_site_label
 _atom_site_symmetry_multiplicity
 _atom_site_fract_x
 _atom_site_fract_y
 _atom_site_fract_z
 _atom_site_occupancy
  Ba  Ba0  1  0.50000000  0.50000000  0.00000000  1
  Ba  Ba1  1  0.50000000  0.00000000  0.50000000  1
  Ba  Ba2  1  0.00000000  0.50000000  0.50000000  1
  Ba  Ba3  1  0.00000000  0.00000000  0.00000000  1
  Ba  Ba4  1  0.12066400  0.87933600  0.37933600  1
  Ba  Ba5  1  0.87933600  0.37933600  0.12066400  1
  Ba  Ba6  1  0.37933600  0.12066400  0.87933600  1
  Ba  Ba7  1  0.62066400  0.62066400  0.62066400  1
  Ba  Ba8  1  0.87933600  0.12066400  0.62066400  1
  Ba  Ba9  1  0.12066400  0.62066400  0.87933600  1
  Ba  Ba10  1  0.62066400  0.87933600  0.12066400  1
  Ba  Ba11  1  0.37933600  0.37933600  0.37933600  1
  Nb  Nb0  1  0.39478300  0.70968200  0.34867500  1
  Nb  Nb1  1  0.60521700  0.20968200  0.15132500  1
  Nb  Nb2  1  0.10521700  0.29031800  0.84867500  1
  Nb  Nb3  1  0.89478300  0.79031800  0.65132500  1
  Nb  Nb4  1  0.34867500  0.39478300  0.70968200  1
  Nb  Nb5  1  0.15132500  0.60521700  0.20968200  1
  Nb  Nb6  1  0.84867500  0.10521700  0.29031800  1
  Nb  Nb7  1  0.65132500  0.89478300  0.79031800  1
  Nb  Nb8  1  0.70968200  0.34867500  0.39478300  1
  Nb  Nb9  1  0.20968200  0.15132500  0.60521700  1
  Nb  Nb10  1  0.29031800  0.84867500  0.10521700  1
  Nb  Nb11  1  0.79031800  0.65132500  0.89478300  1
  Nb  Nb12  1  0.60521700  0.29031800  0.65132500  1
  Nb  Nb13  1  0.39478300  0.79031800  0.84867500  1
  Nb  Nb14  1  0.89478300  0.70968200  0.15132500  1
  Nb  Nb15  1  0.10521700  0.20968200  0.34867500  1
  Nb  Nb16  1  0.65132500  0.60521700  0.29031800  1
  Nb  Nb17  1  0.84867500  0.39478300  0.79031800  1
  Nb  Nb18  1  0.15132500  0.89478300  0.70968200  1
  Nb  Nb19  1  0.34867500  0.10521700  0.20968200  1
  Nb  Nb20  1  0.29031800  0.65132500  0.60521700  1
  Nb  Nb21  1  0.79031800  0.84867500  0.39478300  1
  Nb  Nb22  1  0.70968200  0.15132500  0.89478300  1
  Nb  Nb23  1  0.20968200  0.34867500  0.10521700  1
  N  N0  1  0.35872200  0.86316200  0.26556300  1
  N  N1  1  0.64127800  0.36316200  0.23443700  1
  N  N2  1  0.14127800  0.13683800  0.76556300  1
  N  N3  1  0.85872200  0.63683800  0.73443700  1
  N  N4  1  0.26556300  0.35872200  0.86316200  1
  N  N5  1  0.23443700  0.64127800  0.36316200  1
  N  N6  1  0.76556300  0.14127800  0.13683800  1
  N  N7  1  0.73443700  0.85872200  0.63683800  1
  N  N8  1  0.86316200  0.26556300  0.35872200  1
  N  N9  1  0.36316200  0.23443700  0.64127800  1
  N  N10  1  0.13683800  0.76556300  0.14127800  1
  N  N11  1  0.63683800  0.73443700  0.85872200  1
  N  N12  1  0.64127800  0.13683800  0.73443700  1
  N  N13  1  0.35872200  0.63683800  0.76556300  1
  N  N14  1  0.85872200  0.86316200  0.23443700  1
  N  N15  1  0.14127800  0.36316200  0.26556300  1
  N  N16  1  0.73443700  0.64127800  0.13683800  1
  N  N17  1  0.76556300  0.35872200  0.63683800  1
  N  N18  1  0.23443700  0.85872200  0.86316200  1
  N  N19  1  0.26556300  0.14127800  0.36316200  1
  N  N20  1  0.13683800  0.73443700  0.64127800  1
  N  N21  1  0.63683800  0.76556300  0.35872200  1
  N  N22  1  0.86316200  0.23443700  0.85872200  1
  N  N23  1  0.36316200  0.26556300  0.14127800  1
  N  N24  1  0.42103700  0.73184200  0.51782600  1
  N  N25  1  0.57896300  0.23184200  0.98217400  1
  N  N26  1  0.07896300  0.26815800  0.01782600  1
  N  N27  1  0.92103700  0.76815800  0.48217400  1
  N  N28  1  0.51782600  0.42103700  0.73184200  1
  N  N29  1  0.98217400  0.57896300  0.23184200  1
  N  N30  1  0.01782600  0.07896300  0.26815800  1
  N  N31  1  0.48217400  0.92103700  0.76815800  1
  N  N32  1  0.73184200  0.51782600  0.42103700  1
  N  N33  1  0.23184200  0.98217400  0.57896300  1
  N  N34  1  0.26815800  0.01782600  0.07896300  1
  N  N35  1  0.76815800  0.48217400  0.92103700  1
  N  N36  1  0.57896300  0.26815800  0.48217400  1
  N  N37  1  0.42103700  0.76815800  0.01782600  1
  N  N38  1  0.92103700  0.73184200  0.98217400  1
  N  N39  1  0.07896300  0.23184200  0.51782600  1
  N  N40  1  0.48217400  0.57896300  0.26815800  1
  N  N41  1  0.01782600  0.42103700  0.76815800  1
  N  N42  1  0.98217400  0.92103700  0.73184200  1
  N  N43  1  0.51782600  0.07896300  0.23184200  1
  N  N44  1  0.26815800  0.48217400  0.57896300  1
  N  N45  1  0.76815800  0.01782600  0.42103700  1
  N  N46  1  0.73184200  0.98217400  0.92103700  1
  N  N47  1  0.23184200  0.51782600  0.07896300  1
loop_
_geom_bond_atom_site_label_1
_geom_bond_atom_site_label_2
_geom_bond_distance
_geom_bond_site_symmetry_2
Ba0 N47 3.152869 1_555
Ba0 N37 3.152869 1_555
Ba0 N28 3.152869 1_554
Ba0 N25 3.152869 1_554
Ba0 N35 3.152869 1_554
Ba0 N40 3.152869 1_555
Ba0 N1 3.444444 1_555
Ba0 N16 3.444444 1_555
Ba0 N4 3.444444 1_554
Ba0 N11 3.444444 1_554
Ba0 N23 3.444444 1_555
Ba0 N13 3.444444 1_554
Ba1 N43 3.152869 1_555
Ba1 N45 3.152869 1_555
Ba1 N31 3.152869 1_545
Ba1 N33 3.152869 1_545
Ba1 N24 3.152869 1_545
Ba1 N36 3.152869 1_555
Ba1 N9 3.444444 1_555
Ba1 N12 3.444444 1_555
Ba1 N21 3.444444 1_545
Ba1 N19 3.444444 1_555
Ba1 N7 3.444444 1_545
Ba1 N0 3.444444 1_545
Ba2 N39 3.152869 1_555
Ba2 N41 3.152869 1_555
Ba2 N32 3.152869 1_455
Ba2 N44 3.152869 1_555
Ba2 N29 3.152869 1_455
Ba2 N27 3.152869 1_455
Ba2 N5 3.444444 1_555
Ba2 N20 3.444444 1_555
Ba2 N15 3.444444 1_555
Ba2 N8 3.444444 1_455
Ba2 N17 3.444444 1_455
Ba2 N3 3.444444 1_455
Ba3 N30 3.152869 1_555
Ba3 N26 3.152869 1_555
Ba3 N34 3.152869 1_555
Ba3 N42 3.152869 1_444
Ba3 N46 3.152869 1_444
Ba3 N38 3.152869 1_444
Ba3 N22 3.444444 1_454
Ba3 N18 3.444444 1_544
Ba3 N14 3.444444 1_445
Ba3 N2 3.444444 1_554
Ba3 N10 3.444444 1_545
Ba3 N6 3.444444 1_455
Ba4 N30 2.820412 1_565
Ba4 N33 2.820412 1_555
Ba4 N27 2.820412 1_455
Ba4 N5 2.975404 1_555
Ba4 N0 2.975404 1_555
Ba4 N10 2.975404 1_555
Ba4 N19 3.374325 1_565
Ba4 N20 3.374325 1_555
Ba4 N14 3.374325 1_455
Ba5 N26 2.820412 1_655
Ba5 N35 2.820412 1_554
Ba5 N29 2.820412 1_555
Ba5 N1 2.975404 1_555
Ba5 N8 2.975404 1_555
Ba5 N6 2.975404 1_555
Ba5 N16 3.374325 1_555
Ba5 N15 3.374325 1_655
Ba5 N22 3.374325 1_554
Ba6 N34 2.820412 1_556
Ba6 N25 2.820412 1_555
Ba6 N31 2.820412 1_545
Ba6 N9 2.975404 1_555
Ba6 N4 2.975404 1_555
Ba6 N2 2.975404 1_555
Ba6 N12 3.374325 1_555
Ba6 N23 3.374325 1_556
Ba6 N18 3.374325 1_545
Ba7 N24 2.820412 1_555
Ba7 N28 2.820412 1_555
Ba7 N32 2.820412 1_555
Ba7 N11 2.975404 1_555
Ba7 N7 2.975404 1_555
Ba7 N3 2.975404 1_555
Ba7 N21 3.374325 1_555
Ba7 N13 3.374325 1_555
Ba7 N17 3.374325 1_555
Ba8 N39 2.820412 1_655
Ba8 N42 2.820412 1_545
Ba8 N45 2.820412 1_555
Ba8 N22 2.975404 1_555
Ba8 N12 2.975404 1_555
Ba8 N17 2.975404 1_555
Ba8 N7 3.374325 1_545
Ba8 N8 3.374325 1_555
Ba8 N2 3.374325 1_655
Ba9 N47 2.820412 1_556
Ba9 N38 2.820412 1_455
Ba9 N41 2.820412 1_555
Ba9 N18 2.975404 1_555
Ba9 N20 2.975404 1_555
Ba9 N13 2.975404 1_555
Ba9 N10 3.374325 1_556
Ba9 N4 3.374325 1_555
Ba9 N3 3.374325 1_455
Ba10 N43 2.820412 1_565
Ba10 N46 2.820412 1_554
Ba10 N37 2.820412 1_555
Ba10 N14 2.975404 1_555
Ba10 N16 2.975404 1_555
Ba10 N21 2.975404 1_555
Ba10 N6 3.374325 1_565
Ba10 N11 3.374325 1_554
Ba10 N0 3.374325 1_555
Ba11 N36 2.820412 1_555
Ba11 N44 2.820412 1_555
Ba11 N40 2.820412 1_555
Ba11 N15 2.975404 1_555
Ba11 N19 2.975404 1_555
Ba11 N23 2.975404 1_555
Ba11 N1 3.374325 1_555
Ba11 N5 3.374325 1_555
Ba11 N9 3.374325 1_555
N0 Nb10 1.968959 1_555
N0 Nb0 2.006068 1_555
N1 Nb8 1.968959 1_555
N1 Nb1 2.006068 1_555
N2 Nb9 1.968959 1_555
N2 Nb2 2.006068 1_555
N3 Nb11 1.968959 1_555
N3 Nb3 2.006068 1_555
N4 Nb2 1.968959 1_555
N4 Nb4 2.006068 1_555
N5 Nb0 1.968959 1_555
N5 Nb5 2.006068 1_555
N6 Nb1 1.968959 1_555
N6 Nb6 2.006068 1_555
N7 Nb3 1.968959 1_555
N7 Nb7 2.006068 1_555
N8 Nb6 1.968959 1_555
N8 Nb8 2.006068 1_555
N9 Nb4 1.968959 1_555
N9 Nb9 2.006068 1_555
N10 Nb5 1.968959 1_555
N10 Nb10 2.006068 1_555
N11 Nb7 1.968959 1_555
N11 Nb11 2.006068 1_555
N12 Nb22 1.968959 1_555
N12 Nb12 2.006068 1_555
N13 Nb20 1.968959 1_555
N13 Nb13 2.006068 1_555
N14 Nb21 1.968959 1_555
N14 Nb14 2.006068 1_555
N15 Nb23 1.968959 1_555
N15 Nb15 2.006068 1_555
N16 Nb14 1.968959 1_555
N16 Nb16 2.006068 1_555
N17 Nb12 1.968959 1_555
N17 Nb17 2.006068 1_555
N18 Nb13 1.968959 1_555
N18 Nb18 2.006068 1_555
N19 Nb15 1.968959 1_555
N19 Nb19 2.006068 1_555
N20 Nb18 1.968959 1_555
N20 Nb20 2.006068 1_555
N21 Nb16 1.968959 1_555
N21 Nb21 2.006068 1_555
N22 Nb17 1.968959 1_555
N22 Nb22 2.006068 1_555
N23 Nb19 1.968959 1_555
N23 Nb23 2.006068 1_555
N24 Nb0 1.942808 1_555
N24 Nb20 1.988418 1_555
N25 Nb1 1.942808 1_556
N25 Nb22 1.988418 1_555
N26 Nb2 1.942808 1_554
N26 Nb23 1.988418 1_555
N27 Nb3 1.942808 1_555
N27 Nb21 1.988418 1_555
N28 Nb4 1.942808 1_555
N28 Nb12 1.988418 1_555
N29 Nb5 1.942808 1_655
N29 Nb14 1.988418 1_555
N30 Nb6 1.942808 1_455
N30 Nb15 1.988418 1_555
N31 Nb7 1.942808 1_555
N31 Nb13 1.988418 1_555
N32 Nb8 1.942808 1_555
N32 Nb16 1.988418 1_555
N33 Nb9 1.942808 1_565
N33 Nb18 1.988418 1_555
N34 Nb10 1.942808 1_545
N34 Nb19 1.988418 1_555
N35 Nb11 1.942808 1_555
N35 Nb17 1.988418 1_555
N36 Nb12 1.942808 1_555
N36 Nb8 1.988418 1_555
N37 Nb13 1.942808 1_554
N37 Nb10 1.988418 1_555
N38 Nb14 1.942808 1_556
N38 Nb11 1.988418 1_555
N39 Nb15 1.942808 1_555
N39 Nb9 1.988418 1_555
N40 Nb16 1.942808 1_555
N40 Nb0 1.988418 1_555
N41 Nb17 1.942808 1_455
N41 Nb2 1.988418 1_555
N42 Nb18 1.942808 1_655
N42 Nb3 1.988418 1_555
N43 Nb19 1.942808 1_555
N43 Nb1 1.988418 1_555
N44 Nb20 1.942808 1_555
N44 Nb4 1.988418 1_555
N45 Nb21 1.942808 1_545
N45 Nb6 1.988418 1_555
N46 Nb22 1.942808 1_565
N46 Nb7 1.988418 1_555
N47 Nb23 1.942808 1_555
N47 Nb5 1.988418 1_555
