# generated using pymatgen
data_Co2N15O11
_symmetry_space_group_name_H-M   'P 1'
_cell_length_a   13.74279600
_cell_length_b   13.74279600
_cell_length_c   7.42897300
_cell_angle_alpha   90.00000000
_cell_angle_beta   90.00000000
_cell_angle_gamma   90.00000000
_symmetry_Int_Tables_number   1
_chemical_formula_structural   Co2N15O11
_chemical_formula_sum   'Co4 N30 O22'
_cell_volume   1403.06883952
_cell_formula_units_Z   2
loop_
 _symmetry_equiv_pos_site_id
 _symmetry_equiv_pos_as_xyz
  1  'x, y, z'
loop_
 _atom_site_type_symbol
 _atom_site_label
 _atom_site_symmetry_multiplicity
 _atom_site_fract_x
 _atom_site_fract_y
 _atom_site_fract_z
 _atom_site_occupancy
  Co  Co0  1  0.71664000  0.28336000  0.59498500  1
  Co  Co1  1  0.28336000  0.71664000  0.59498500  1
  Co  Co2  1  0.78336000  0.78336000  0.09498500  1
  Co  Co3  1  0.21664000  0.21664000  0.09498500  1
  N  N0  1  0.73093200  0.41989600  0.50740600  1
  N  N1  1  0.26906800  0.58010400  0.50740600  1
  N  N2  1  0.76906800  0.91989600  0.00740600  1
  N  N3  1  0.23093200  0.08010400  0.00740600  1
  N  N4  1  0.58010400  0.26906800  0.50740600  1
  N  N5  1  0.41989600  0.73093200  0.50740600  1
  N  N6  1  0.91989600  0.76906800  0.00740600  1
  N  N7  1  0.08010400  0.23093200  0.00740600  1
  N  N8  1  0.50936900  0.25696400  0.43696000  1
  N  N9  1  0.49063100  0.74303600  0.43696000  1
  N  N10  1  0.99063100  0.75696400  0.93696000  1
  N  N11  1  0.00936900  0.24303600  0.93696000  1
  N  N12  1  0.74303600  0.49063100  0.43696000  1
  N  N13  1  0.25696400  0.50936900  0.43696000  1
  N  N14  1  0.75696400  0.99063100  0.93696000  1
  N  N15  1  0.24303600  0.00936900  0.93696000  1
  N  N16  1  0.77566900  0.22433100  0.40346500  1
  N  N17  1  0.22433100  0.77566900  0.40346500  1
  N  N18  1  0.72433100  0.72433100  0.90346500  1
  N  N19  1  0.27566900  0.27566900  0.90346500  1
  N  N20  1  0.00000000  0.00000000  0.53251600  1
  N  N21  1  0.50000000  0.50000000  0.03251600  1
  N  N22  1  0.74766100  0.25233900  0.98292900  1
  N  N23  1  0.25233900  0.74766100  0.98292900  1
  N  N24  1  0.75233900  0.75233900  0.48292900  1
  N  N25  1  0.24766100  0.24766100  0.48292900  1
  N  N26  1  0.00000000  0.50000000  0.50029800  1
  N  N27  1  0.50000000  0.00000000  0.00029800  1
  N  N28  1  0.50000000  0.00000000  0.50029800  1
  N  N29  1  0.00000000  0.50000000  0.00029800  1
  O  O0  1  0.96836300  0.03163700  0.06983300  1
  O  O1  1  0.03163700  0.96836300  0.06983300  1
  O  O2  1  0.53163700  0.53163700  0.56983300  1
  O  O3  1  0.46836300  0.46836300  0.56983300  1
  O  O4  1  0.00000000  0.00000000  0.70187900  1
  O  O5  1  0.50000000  0.50000000  0.20187900  1
  O  O6  1  0.94378200  0.05621800  0.44804500  1
  O  O7  1  0.05621800  0.94378200  0.44804500  1
  O  O8  1  0.55621800  0.55621800  0.94804500  1
  O  O9  1  0.44378200  0.44378200  0.94804500  1
  O  O10  1  0.68547300  0.31452700  0.01047900  1
  O  O11  1  0.31452700  0.68547300  0.01047900  1
  O  O12  1  0.81452700  0.81452700  0.51047900  1
  O  O13  1  0.18547300  0.18547300  0.51047900  1
  O  O14  1  0.76881200  0.23118800  0.81445600  1
  O  O15  1  0.23118800  0.76881200  0.81445600  1
  O  O16  1  0.73118800  0.73118800  0.31445600  1
  O  O17  1  0.26881200  0.26881200  0.31445600  1
  O  O18  1  0.81946400  0.18053600  0.29658100  1
  O  O19  1  0.18053600  0.81946400  0.29658100  1
  O  O20  1  0.68053600  0.68053600  0.79658100  1
  O  O21  1  0.31946400  0.31946400  0.79658100  1
loop_
_geom_bond_atom_site_label_1
_geom_bond_atom_site_label_2
_geom_bond_distance
_geom_bond_site_symmetry_2
Co0 N16 1.827708 1_555
Co0 O14 1.920025 1_555
Co0 N0 1.995673 1_555
Co0 N4 1.995673 1_555
Co1 N17 1.827708 1_555
Co1 O15 1.920025 1_555
Co1 N5 1.995673 1_555
Co1 N1 1.995673 1_555
Co2 N18 1.827708 1_554
Co2 O16 1.920025 1_555
Co2 N2 1.995673 1_555
Co2 N6 1.995673 1_555
Co3 N19 1.827708 1_554
Co3 O17 1.920025 1_555
Co3 N3 1.995673 1_555
Co3 N7 1.995673 1_555
N0 N12 1.116480 1_555
N1 N13 1.116480 1_555
N4 N8 1.116480 1_555
N5 N9 1.116480 1_555
N10 N6 1.116480 1_556
N11 N7 1.116480 1_556
N14 N2 1.116480 1_556
N15 N3 1.116480 1_556
N16 O18 1.164037 1_555
N17 O19 1.164037 1_555
N18 O20 1.164037 1_555
N19 O21 1.164037 1_555
N20 O4 1.258193 1_555
N20 O7 1.259998 1_545
N20 O6 1.259998 1_455
N21 O5 1.258193 1_555
N21 O9 1.259998 1_554
N21 O8 1.259998 1_554
N22 O10 1.225846 1_556
N22 O14 1.317360 1_555
N23 O11 1.225846 1_556
N23 O15 1.317360 1_555
N24 O12 1.225846 1_555
N24 O16 1.317360 1_555
N25 O13 1.225846 1_555
N25 O17 1.317360 1_555
O0 O1 1.229746 1_645
O2 O3 1.229746 1_555
