# generated using pymatgen
data_Fe3(OF4)2
_symmetry_space_group_name_H-M   'P 1'
_cell_length_a   5.36584342
_cell_length_b   5.36584342
_cell_length_c   7.46408556
_cell_angle_alpha   69.95357329
_cell_angle_beta   69.95357329
_cell_angle_gamma   88.57281775
_symmetry_Int_Tables_number   1
_chemical_formula_structural   Fe3(OF4)2
_chemical_formula_sum   'Fe3 O2 F8'
_cell_volume   188.60971074
_cell_formula_units_Z   1
loop_
 _symmetry_equiv_pos_site_id
 _symmetry_equiv_pos_as_xyz
  1  'x, y, z'
loop_
 _atom_site_type_symbol
 _atom_site_label
 _atom_site_symmetry_multiplicity
 _atom_site_fract_x
 _atom_site_fract_y
 _atom_site_fract_z
 _atom_site_occupancy
  Fe  Fe0  1  0.50000000  0.50000000  0.00000000  1
  Fe  Fe1  1  0.00000000  0.50000000  0.50000000  1
  Fe  Fe2  1  0.50000000  0.00000000  0.50000000  1
  O  O0  1  0.26513500  0.26513500  0.95959700  1
  O  O1  1  0.73486500  0.73486500  0.04040300  1
  F  F0  1  0.70064400  0.29935600  0.50000000  1
  F  F1  1  0.29935600  0.70064400  0.50000000  1
  F  F2  1  0.17265600  0.17265600  0.56629700  1
  F  F3  1  0.82734300  0.82734400  0.43370300  1
  F  F4  1  0.81346100  0.43468500  0.79096100  1
  F  F5  1  0.43468500  0.81346100  0.79096100  1
  F  F6  1  0.18653900  0.56531500  0.20903900  1
  F  F7  1  0.56531500  0.18653900  0.20903900  1
loop_
_geom_bond_atom_site_label_1
_geom_bond_atom_site_label_2
_geom_bond_distance
_geom_bond_site_symmetry_2
Fe0 O1 1.966626 1_555
Fe0 O0 1.966626 1_554
F0 Fe2 1.955877 1_555
F0 Fe1 1.955877 1_655
F1 Fe1 1.955877 1_555
F1 Fe2 1.955877 1_565
F2 Fe2 1.955949 1_555
F2 Fe1 1.955949 1_555
F3 Fe2 1.955945 1_565
F3 Fe1 1.955952 1_655
F4 Fe1 1.961284 1_655
F4 Fe0 1.983113 1_556
F5 Fe2 1.961284 1_565
F5 Fe0 1.983113 1_556
F6 Fe1 1.961284 1_555
F6 Fe0 1.983113 1_555
F7 Fe2 1.961284 1_555
F7 Fe0 1.983113 1_555
