# generated using pymatgen
data_Ba2TaN3
_symmetry_space_group_name_H-M   'P 1'
_cell_length_a   6.71909013
_cell_length_b   6.71909013
_cell_length_c   13.36769099
_cell_angle_alpha   89.50043249
_cell_angle_beta   89.50043249
_cell_angle_gamma   125.08599564
_symmetry_Int_Tables_number   1
_chemical_formula_structural   Ba2TaN3
_chemical_formula_sum   'Ba8 Ta4 N12'
_cell_volume   493.74992102
_cell_formula_units_Z   4
loop_
 _symmetry_equiv_pos_site_id
 _symmetry_equiv_pos_as_xyz
  1  'x, y, z'
loop_
 _atom_site_type_symbol
 _atom_site_label
 _atom_site_symmetry_multiplicity
 _atom_site_fract_x
 _atom_site_fract_y
 _atom_site_fract_z
 _atom_site_occupancy
  Ba  Ba0  1  0.05169126  0.44661260  0.14097304  1
  Ba  Ba1  1  0.86972295  0.64266684  0.42334882  1
  Ba  Ba2  1  0.64266684  0.86972295  0.92334882  1
  Ba  Ba3  1  0.13027705  0.35733316  0.57665118  1
  Ba  Ba4  1  0.94830874  0.55338740  0.85902696  1
  Ba  Ba5  1  0.44661260  0.05169126  0.64097304  1
  Ba  Ba6  1  0.55338740  0.94830874  0.35902696  1
  Ba  Ba7  1  0.35733316  0.13027705  0.07665118  1
  Ta  Ta0  1  0.25517766  0.26254742  0.33358530  1
  Ta  Ta1  1  0.73745258  0.74482234  0.16641470  1
  Ta  Ta2  1  0.74482234  0.73745258  0.66641470  1
  Ta  Ta3  1  0.26254742  0.25517766  0.83358530  1
  N  N0  1  0.13786597  0.31733955  0.94935719  1
  N  N1  1  0.68266045  0.86213403  0.55064281  1
  N  N2  1  0.86213403  0.68266045  0.05064281  1
  N  N3  1  0.31733955  0.13786597  0.44935719  1
  N  N4  1  0.99262591  0.00737409  0.75000000  1
  N  N5  1  0.00737409  0.99262591  0.25000000  1
  N  N6  1  0.44363294  0.55636706  0.75000000  1
  N  N7  1  0.55636706  0.44363294  0.25000000  1
  N  N8  1  0.85377854  0.53779539  0.62912368  1
  N  N9  1  0.53779539  0.85377854  0.12912368  1
  N  N10  1  0.14622146  0.46220461  0.37087632  1
  N  N11  1  0.46220461  0.14622146  0.87087632  1
loop_
_geom_bond_atom_site_label_1
_geom_bond_atom_site_label_2
_geom_bond_distance
_geom_bond_site_symmetry_2
Ba0 N9 2.808653 1_555
Ba0 N2 2.812727 1_455
Ba0 N0 2.870874 1_554
Ba0 N10 3.134100 1_555
Ba0 N5 3.223088 1_545
Ba0 N9 3.467450 1_445
Ba1 N8 2.819364 1_555
Ba1 N10 2.827645 1_655
Ba1 N7 2.914336 1_555
Ba1 N3 2.961656 1_665
Ba1 N1 2.964287 1_555
Ba1 N5 3.020221 1_655
Ba1 N3 3.299294 1_555
Ba2 N9 2.819364 1_556
Ba2 N11 2.827645 1_565
Ba2 N6 2.914336 1_555
Ba2 N0 2.961656 1_665
Ba2 N2 2.964287 1_556
Ba2 N4 3.020221 1_565
Ba2 N0 3.299294 1_555
Ba3 N10 2.819364 1_555
Ba3 N8 2.827645 1_455
Ba3 N6 2.914336 1_555
Ba3 N1 2.961656 1_445
Ba3 N3 2.964287 1_555
Ba3 N4 3.020221 1_455
Ba3 N1 3.299294 1_555
Ba4 N11 2.808653 1_555
Ba4 N0 2.812727 1_655
Ba4 N2 2.870874 1_556
Ba4 N8 3.134100 1_555
Ba4 N4 3.223088 1_565
Ba4 N11 3.467450 1_665
Ba5 N8 2.808653 1_555
Ba5 N1 2.812727 1_545
Ba5 N3 2.870874 1_555
Ba5 N11 3.134100 1_555
Ba5 N4 3.223088 1_455
Ba5 N8 3.467450 1_445
Ba6 N10 2.808653 1_555
Ba6 N3 2.812727 1_565
Ba6 N1 2.870874 1_555
Ba6 N9 3.134100 1_555
Ba6 N5 3.223088 1_655
Ba6 N10 3.467450 1_665
Ba7 N11 2.819364 1_554
Ba7 N9 2.827645 1_545
Ba7 N7 2.914336 1_555
Ba7 N2 2.961656 1_445
Ba7 N0 2.964287 1_554
Ba7 N5 3.020221 1_545
Ba7 N2 3.299294 1_555
N0 Ta3 1.913702 1_555
N1 Ta2 1.913702 1_555
N2 Ta1 1.913702 1_555
N3 Ta0 1.913702 1_555
N4 Ta2 1.976424 1_545
N4 Ta3 1.976424 1_655
N5 Ta0 1.976424 1_565
N5 Ta1 1.976424 1_455
N6 Ta2 1.982543 1_555
N6 Ta3 1.982543 1_555
N7 Ta0 1.982543 1_555
N7 Ta1 1.982543 1_555
N8 Ta2 1.928327 1_555
N9 Ta1 1.928327 1_555
N10 Ta0 1.928327 1_555
N11 Ta3 1.928327 1_555
