# generated using pymatgen
data_Co7SiN6
_symmetry_space_group_name_H-M   'P 1'
_cell_length_a   9.26301500
_cell_length_b   5.39292600
_cell_length_c   11.57888500
_cell_angle_alpha   90.00000000
_cell_angle_beta   90.00000000
_cell_angle_gamma   90.00000000
_symmetry_Int_Tables_number   1
_chemical_formula_structural   Co7SiN6
_chemical_formula_sum   'Co28 Si4 N24'
_cell_volume   578.42035677
_cell_formula_units_Z   4
loop_
 _symmetry_equiv_pos_site_id
 _symmetry_equiv_pos_as_xyz
  1  'x, y, z'
loop_
 _atom_site_type_symbol
 _atom_site_label
 _atom_site_symmetry_multiplicity
 _atom_site_fract_x
 _atom_site_fract_y
 _atom_site_fract_z
 _atom_site_occupancy
  Co  Co0  1  0.00679900  0.75629800  0.03527200  1
  Co  Co1  1  0.49320100  0.74370200  0.53527200  1
  Co  Co2  1  0.50679900  0.74370200  0.96472800  1
  Co  Co3  1  0.99320100  0.75629800  0.46472800  1
  Co  Co4  1  0.99320100  0.24370200  0.96472800  1
  Co  Co5  1  0.50679900  0.25629800  0.46472800  1
  Co  Co6  1  0.49320100  0.25629800  0.03527200  1
  Co  Co7  1  0.00679900  0.24370200  0.53527200  1
  Co  Co8  1  0.22791400  0.62792000  0.61837100  1
  Co  Co9  1  0.27208600  0.87208000  0.11837100  1
  Co  Co10  1  0.72791400  0.87208000  0.38162900  1
  Co  Co11  1  0.77208600  0.62792000  0.88162900  1
  Co  Co12  1  0.77208600  0.37208000  0.38162900  1
  Co  Co13  1  0.72791400  0.12792000  0.88162900  1
  Co  Co14  1  0.27208600  0.12792000  0.61837100  1
  Co  Co15  1  0.22791400  0.37208000  0.11837100  1
  Co  Co16  1  0.18316800  0.56174800  0.91178000  1
  Co  Co17  1  0.31683200  0.93825200  0.41178000  1
  Co  Co18  1  0.68316800  0.93825200  0.08822000  1
  Co  Co19  1  0.81683200  0.56174800  0.58822000  1
  Co  Co20  1  0.81683200  0.43825200  0.08822000  1
  Co  Co21  1  0.68316800  0.06174800  0.58822000  1
  Co  Co22  1  0.31683200  0.06174800  0.91178000  1
  Co  Co23  1  0.18316800  0.43825200  0.41178000  1
  Co  Co24  1  0.00000000  0.38588400  0.75000000  1
  Co  Co25  1  0.50000000  0.11411600  0.25000000  1
  Co  Co26  1  0.00000000  0.61411600  0.25000000  1
  Co  Co27  1  0.50000000  0.88588400  0.75000000  1
  Si  Si0  1  0.00000000  0.88058600  0.75000000  1
  Si  Si1  1  0.50000000  0.61941400  0.25000000  1
  Si  Si2  1  0.00000000  0.11941400  0.25000000  1
  Si  Si3  1  0.50000000  0.38058600  0.75000000  1
  N  N0  1  0.13736000  0.65551800  0.76436800  1
  N  N1  1  0.36264000  0.84448200  0.26436800  1
  N  N2  1  0.63736000  0.84448200  0.23563200  1
  N  N3  1  0.86264000  0.65551800  0.73563200  1
  N  N4  1  0.86264000  0.34448200  0.23563200  1
  N  N5  1  0.63736000  0.15551800  0.73563200  1
  N  N6  1  0.36264000  0.15551800  0.76436800  1
  N  N7  1  0.13736000  0.34448200  0.26436800  1
  N  N8  1  0.18273200  0.74421300  0.47507500  1
  N  N9  1  0.31726800  0.75578700  0.97507500  1
  N  N10  1  0.68273200  0.75578700  0.52492500  1
  N  N11  1  0.81726800  0.74421300  0.02492500  1
  N  N12  1  0.81726800  0.25578700  0.52492500  1
  N  N13  1  0.68273200  0.24421300  0.02492500  1
  N  N14  1  0.31726800  0.24421300  0.47507500  1
  N  N15  1  0.18273200  0.25578700  0.97507500  1
  N  N16  1  0.41976600  0.61472500  0.66567200  1
  N  N17  1  0.08023400  0.88527500  0.16567200  1
  N  N18  1  0.91976600  0.88527500  0.33432800  1
  N  N19  1  0.58023400  0.61472500  0.83432800  1
  N  N20  1  0.58023400  0.38527500  0.33432800  1
  N  N21  1  0.91976600  0.11472500  0.83432800  1
  N  N22  1  0.08023400  0.11472500  0.66567200  1
  N  N23  1  0.41976600  0.38527500  0.16567200  1
loop_
_geom_bond_atom_site_label_1
_geom_bond_atom_site_label_2
_geom_bond_distance
_geom_bond_site_symmetry_2
Co0 N11 1.760918 1_455
Co0 N17 1.796184 1_555
Co1 N10 1.760918 1_555
Co1 N16 1.796184 1_555
Co2 N9 1.760918 1_555
Co2 N19 1.796184 1_555
Co3 N8 1.760918 1_655
Co3 N18 1.796184 1_555
Co4 N15 1.760918 1_655
Co4 N21 1.796184 1_555
Co5 N14 1.760918 1_555
Co5 N20 1.796184 1_555
Co6 N13 1.760918 1_555
Co6 N23 1.796184 1_555
Co7 N12 1.760918 1_455
Co7 N22 1.796184 1_555
Co8 N8 1.822487 1_555
Co8 N16 1.860971 1_555
Co8 N0 1.893006 1_555
Co9 N9 1.822487 1_554
Co9 N17 1.860971 1_555
Co9 N1 1.893006 1_555
Co10 N10 1.822487 1_555
Co10 N18 1.860971 1_555
Co10 N2 1.893006 1_555
Co11 N11 1.822487 1_556
Co11 N19 1.860971 1_555
Co11 N3 1.893006 1_555
Co12 N12 1.822487 1_555
Co12 N20 1.860971 1_555
Co12 N4 1.893006 1_555
Co13 N13 1.822487 1_556
Co13 N21 1.860971 1_555
Co13 N5 1.893006 1_555
Co14 N14 1.822487 1_555
Co14 N22 1.860971 1_555
Co14 N6 1.893006 1_555
Co15 N15 1.822487 1_554
Co15 N23 1.860971 1_555
Co15 N7 1.893006 1_555
Co16 N9 1.781892 1_555
Co16 N15 1.805469 1_555
Co16 N0 1.830073 1_555
Co17 N8 1.781892 1_555
Co17 N14 1.805469 1_565
Co17 N1 1.830073 1_555
Co18 N11 1.781892 1_555
Co18 N13 1.805469 1_565
Co18 N2 1.830073 1_555
Co19 N10 1.781892 1_555
Co19 N12 1.805469 1_555
Co19 N3 1.830073 1_555
Co20 N13 1.781892 1_555
Co20 N11 1.805469 1_555
Co20 N4 1.830073 1_555
Co21 N12 1.781892 1_555
Co21 N10 1.805469 1_545
Co21 N5 1.830073 1_555
Co22 N15 1.781892 1_555
Co22 N9 1.805469 1_545
Co22 N6 1.830073 1_555
Co23 N14 1.781892 1_555
Co23 N8 1.805469 1_555
Co23 N7 1.830073 1_555
Co24 N21 1.908980 1_455
Co24 N22 1.908980 1_555
Co24 N3 1.939343 1_455
Co24 N0 1.939343 1_555
Co25 N23 1.908980 1_555
Co25 N20 1.908980 1_555
Co25 N1 1.939343 1_545
Co25 N2 1.939343 1_545
Co26 N17 1.908980 1_555
Co26 N18 1.908980 1_455
Co26 N7 1.939343 1_555
Co26 N4 1.939343 1_455
Co27 N19 1.908980 1_555
Co27 N16 1.908980 1_555
Co27 N6 1.939343 1_565
Co27 N5 1.939343 1_565
N0 Si0 1.766309 1_555
N1 Si1 1.766309 1_555
N2 Si1 1.766309 1_555
N3 Si0 1.766309 1_655
N4 Si2 1.766309 1_655
N5 Si3 1.766309 1_555
N6 Si3 1.766309 1_555
N7 Si2 1.766309 1_555
N16 Si3 1.760727 1_555
N17 Si2 1.760727 1_565
N18 Si2 1.760727 1_665
N19 Si3 1.760727 1_555
N20 Si1 1.760727 1_555
N21 Si0 1.760727 1_645
N22 Si0 1.760727 1_545
N23 Si1 1.760727 1_555
