# generated using pymatgen
data_Mg6ZrNb
_symmetry_space_group_name_H-M   'P 1'
_cell_length_a   5.10479500
_cell_length_b   5.86420100
_cell_length_c   11.51164100
_cell_angle_alpha   90.00000000
_cell_angle_beta   90.00000000
_cell_angle_gamma   90.00000000
_symmetry_Int_Tables_number   1
_chemical_formula_structural   Mg6ZrNb
_chemical_formula_sum   'Mg12 Zr2 Nb2'
_cell_volume   344.60723502
_cell_formula_units_Z   2
loop_
 _symmetry_equiv_pos_site_id
 _symmetry_equiv_pos_as_xyz
  1  'x, y, z'
loop_
 _atom_site_type_symbol
 _atom_site_label
 _atom_site_symmetry_multiplicity
 _atom_site_fract_x
 _atom_site_fract_y
 _atom_site_fract_z
 _atom_site_occupancy
  Mg  Mg0  1  0.50000000  0.25001500  0.42343200  1
  Mg  Mg1  1  0.50000000  0.74998500  0.42343200  1
  Mg  Mg2  1  0.00000000  0.74518400  0.08317700  1
  Mg  Mg3  1  0.00000000  0.25481600  0.08317700  1
  Mg  Mg4  1  0.00000000  0.00000000  0.32573000  1
  Mg  Mg5  1  0.00000000  0.50000000  0.31673900  1
  Mg  Mg6  1  0.50000000  0.75001500  0.92343200  1
  Mg  Mg7  1  0.50000000  0.24998500  0.92343200  1
  Mg  Mg8  1  0.00000000  0.24518400  0.58317700  1
  Mg  Mg9  1  0.00000000  0.75481600  0.58317700  1
  Mg  Mg10  1  0.00000000  0.50000000  0.82573000  1
  Mg  Mg11  1  0.00000000  0.00000000  0.81673900  1
  Zr  Zr0  1  0.50000000  0.00000000  0.17336500  1
  Zr  Zr1  1  0.50000000  0.50000000  0.67336500  1
  Nb  Nb0  1  0.50000000  0.50000000  0.17094500  1
  Nb  Nb1  1  0.50000000  0.00000000  0.67094500  1
loop_
_geom_bond_atom_site_label_1
_geom_bond_atom_site_label_2
_geom_bond_distance
_geom_bond_site_symmetry_2
Mg0 Mg1 2.931925 1_555
Mg0 Mg1 2.932276 1_545
Mg0 Mg8 3.145980 1_655
Mg0 Mg8 3.145980 1_555
Mg0 Mg4 3.151074 1_555
Mg0 Mg4 3.151074 1_655
Mg0 Mg5 3.189402 1_555
Mg0 Mg5 3.189402 1_655
Mg0 Nb1 3.204366 1_555
Mg0 Zr1 3.229083 1_555
Mg0 Zr0 3.230537 1_555
Mg0 Nb0 3.255306 1_555
Mg1 Mg9 3.145980 1_655
Mg1 Mg9 3.145980 1_555
Mg1 Mg4 3.151074 1_665
Mg1 Mg4 3.151074 1_565
Mg1 Mg5 3.189402 1_655
Mg1 Mg5 3.189402 1_555
Mg1 Nb1 3.204366 1_565
Mg1 Zr1 3.229083 1_555
Mg1 Zr0 3.230537 1_565
Mg1 Nb0 3.255306 1_555
Mg2 Mg3 2.875617 1_555
Mg2 Mg3 2.988584 1_565
Mg2 Mg5 3.048984 1_555
Mg2 Nb0 3.098845 1_455
Mg2 Nb0 3.098845 1_555
Mg2 Zr0 3.134570 1_465
Mg2 Zr0 3.134570 1_565
Mg2 Mg6 3.145980 1_454
Mg2 Mg6 3.145980 1_554
Mg2 Mg4 3.166891 1_565
Mg3 Mg5 3.048984 1_555
Mg3 Nb0 3.098845 1_555
Mg3 Nb0 3.098845 1_455
Mg3 Zr0 3.134570 1_455
Mg3 Zr0 3.134570 1_555
Mg3 Mg7 3.145980 1_454
Mg3 Mg7 3.145980 1_554
Mg3 Mg4 3.166891 1_555
Mg4 Mg5 2.933927 1_545
Mg4 Mg5 2.933927 1_555
Mg4 Zr0 3.096958 1_455
Mg4 Zr0 3.096958 1_555
Mg4 Mg9 3.294001 1_545
Mg4 Mg8 3.294001 1_555
Mg5 Nb0 3.054753 1_455
Mg5 Nb0 3.054753 1_555
Mg5 Mg8 3.411781 1_555
Mg5 Mg9 3.411781 1_555
Mg6 Mg7 2.931925 1_565
Mg6 Mg7 2.932276 1_555
Mg6 Nb0 3.204366 1_556
Mg6 Zr0 3.229083 1_566
Mg6 Zr1 3.230537 1_555
Mg6 Nb1 3.255306 1_565
Mg7 Nb0 3.204366 1_556
Mg7 Zr0 3.229083 1_556
Mg7 Zr1 3.230537 1_555
Mg7 Nb1 3.255306 1_555
Mg8 Mg9 2.875617 1_545
Mg8 Mg9 2.988584 1_555
Mg8 Nb1 3.098845 1_555
Mg8 Nb1 3.098845 1_455
Mg8 Zr1 3.134570 1_455
Mg8 Zr1 3.134570 1_555
Mg9 Nb1 3.098845 1_465
Mg9 Nb1 3.098845 1_565
Mg9 Zr1 3.134570 1_455
Mg9 Zr1 3.134570 1_555
Mg10 Mg11 2.933927 1_555
Mg10 Mg11 2.933927 1_565
Mg10 Zr1 3.096958 1_455
Mg10 Zr1 3.096958 1_555
Mg10 Mg6 3.151074 1_455
Mg10 Mg6 3.151074 1_555
Mg10 Mg7 3.151074 1_455
Mg10 Mg7 3.151074 1_555
Mg10 Mg8 3.166891 1_555
Mg10 Mg9 3.166891 1_555
Mg10 Mg3 3.294001 1_556
Mg10 Mg2 3.294001 1_556
Mg11 Mg8 3.048984 1_555
Mg11 Mg9 3.048984 1_545
Mg11 Nb1 3.054753 1_555
Mg11 Nb1 3.054753 1_455
Mg11 Mg6 3.189402 1_545
Mg11 Mg7 3.189402 1_555
Mg11 Mg6 3.189402 1_445
Mg11 Mg7 3.189402 1_455
Mg11 Mg3 3.411781 1_556
Mg11 Mg2 3.411781 1_546
Nb0 Zr0 2.932233 1_555
Nb0 Zr0 2.932233 1_565
Nb1 Zr1 2.932233 1_555
Nb1 Zr1 2.932233 1_545
