# generated using pymatgen
data_Al(NiO2)3
_symmetry_space_group_name_H-M   'P 1'
_cell_length_a   17.44794660
_cell_length_b   5.75787893
_cell_length_c   5.75787926
_cell_angle_alpha   59.96879094
_cell_angle_beta   60.32304060
_cell_angle_gamma   60.32304807
_symmetry_Int_Tables_number   1
_chemical_formula_structural   Al(NiO2)3
_chemical_formula_sum   'Al4 Ni12 O24'
_cell_volume   410.91717477
_cell_formula_units_Z   4
loop_
 _symmetry_equiv_pos_site_id
 _symmetry_equiv_pos_as_xyz
  1  'x, y, z'
loop_
 _atom_site_type_symbol
 _atom_site_label
 _atom_site_symmetry_multiplicity
 _atom_site_fract_x
 _atom_site_fract_y
 _atom_site_fract_z
 _atom_site_occupancy
  Al  Al0  1  0.20319200  0.63002500  0.63002500  1
  Al  Al1  1  0.88571300  0.61429800  0.61429800  1
  Al  Al2  1  0.46347500  0.36997500  0.36997500  1
  Al  Al3  1  0.78095400  0.38570200  0.38570200  1
  Ni  Ni0  1  0.99759600  0.49678800  0.00548100  1
  Ni  Ni1  1  0.33333300  0.50000000  0.00000000  1
  Ni  Ni2  1  0.66907100  0.50321200  0.99451900  1
  Ni  Ni3  1  0.99768000  0.00506000  0.00506000  1
  Ni  Ni4  1  0.33333300  0.00000000  0.00000000  1
  Ni  Ni5  1  0.66898700  0.99494000  0.99494000  1
  Ni  Ni6  1  0.16269200  0.00412400  0.00412400  1
  Ni  Ni7  1  0.50397500  0.99587600  0.99587600  1
  Ni  Ni8  1  0.83333300  0.00000000  0.00000000  1
  Ni  Ni9  1  0.99759600  0.00548100  0.49678800  1
  Ni  Ni10  1  0.33333300  0.00000000  0.50000000  1
  Ni  Ni11  1  0.66907100  0.99451900  0.50321200  1
  O  O0  1  0.08001800  0.75325700  0.75325700  1
  O  O1  1  0.39243900  0.77435000  0.77435100  1
  O  O2  1  0.76160800  0.73836200  0.73836200  1
  O  O3  1  0.07143100  0.24007200  0.80558600  1
  O  O4  1  0.41968500  0.24169700  0.75766800  1
  O  O5  1  0.74219500  0.25128500  0.77059200  1
  O  O6  1  0.07143100  0.80558600  0.24007200  1
  O  O7  1  0.41968500  0.75766800  0.24169800  1
  O  O8  1  0.74219500  0.77059200  0.25128500  1
  O  O9  1  0.07077500  0.24148200  0.24148200  1
  O  O10  1  0.41920800  0.24272100  0.24272100  1
  O  O11  1  0.74203900  0.25171400  0.25171400  1
  O  O12  1  0.24698200  0.75830200  0.24233300  1
  O  O13  1  0.59523500  0.75992700  0.19441400  1
  O  O14  1  0.92447100  0.74871400  0.22940800  1
  O  O15  1  0.27422800  0.22565000  0.22565000  1
  O  O16  1  0.58664900  0.24674200  0.24674300  1
  O  O17  1  0.90505800  0.26163800  0.26163800  1
  O  O18  1  0.24698200  0.24233300  0.75830200  1
  O  O19  1  0.59523500  0.19441400  0.75992800  1
  O  O20  1  0.92447100  0.22940800  0.74871400  1
  O  O21  1  0.24745900  0.75727900  0.75727900  1
  O  O22  1  0.59589200  0.75851800  0.75851800  1
  O  O23  1  0.92462700  0.74828600  0.74828600  1
loop_
_geom_bond_atom_site_label_1
_geom_bond_atom_site_label_2
_geom_bond_distance
_geom_bond_site_symmetry_2
Al0 O0 1.763414 1_555
Al0 O21 1.824402 1_555
Al0 O12 1.825373 1_555
Al0 O18 1.825373 1_555
Al1 O2 1.776743 1_555
Al1 O23 1.812325 1_555
Al1 O14 1.812479 1_555
Al1 O20 1.812479 1_555
Al2 O16 1.763414 1_555
Al2 O10 1.824402 1_555
Al2 O4 1.825378 1_555
Al2 O7 1.825378 1_555
Al3 O17 1.776728 1_555
Al3 O11 1.812338 1_555
Al3 O5 1.812478 1_555
Al3 O8 1.812478 1_555
Ni0 O9 1.870233 1_655
Ni0 O3 1.875713 1_654
Ni0 O14 1.950600 1_555
Ni0 O23 1.950852 1_554
Ni0 O0 2.060606 1_654
Ni0 O17 2.103160 1_555
Ni1 O15 1.865195 1_555
Ni1 O1 1.865206 1_554
Ni1 O21 2.048415 1_554
Ni1 O10 2.048427 1_555
Ni1 O12 2.050732 1_555
Ni1 O4 2.050733 1_554
Ni2 O22 1.870233 1_555
Ni2 O13 1.875708 1_556
Ni2 O5 1.950606 1_555
Ni2 O11 1.950840 1_556
Ni2 O16 2.060610 1_556
Ni2 O2 2.103147 1_555
Ni3 O3 1.873815 1_654
Ni3 O6 1.873815 1_645
Ni3 O14 1.950246 1_545
Ni3 O20 1.950246 1_554
Ni3 O0 2.060835 1_644
Ni3 O17 2.105494 1_555
Ni4 O1 1.864346 1_544
Ni4 O15 1.864353 1_555
Ni4 O12 2.050498 1_545
Ni4 O18 2.050498 1_554
Ni4 O4 2.050507 1_554
Ni4 O7 2.050511 1_545
Ni5 O19 1.873828 1_565
Ni5 O13 1.873832 1_556
Ni5 O5 1.950230 1_565
Ni5 O8 1.950230 1_556
Ni5 O16 2.060831 1_566
Ni5 O2 2.105493 1_555
Ni6 O6 1.947773 1_545
Ni6 O3 1.947774 1_554
Ni6 O9 1.958691 1_555
Ni6 O18 2.010106 1_554
Ni6 O12 2.010106 1_545
Ni6 O21 2.021526 1_544
Ni7 O19 1.947760 1_565
Ni7 O13 1.947760 1_556
Ni7 O22 1.958691 1_555
Ni7 O7 2.010102 1_556
Ni7 O4 2.010102 1_565
Ni7 O10 2.021526 1_566
Ni8 O20 2.062895 1_554
Ni8 O8 2.062895 1_545
Ni8 O14 2.062895 1_545
Ni8 O5 2.062895 1_554
Ni8 O23 2.066136 1_544
Ni8 O11 2.066136 1_555
Ni9 O9 1.870233 1_655
Ni9 O6 1.875713 1_645
Ni9 O20 1.950600 1_555
Ni9 O23 1.950852 1_545
Ni9 O0 2.060606 1_645
Ni9 O17 2.103160 1_555
Ni10 O15 1.865196 1_555
Ni10 O1 1.865211 1_545
Ni10 O21 2.048414 1_545
Ni10 O10 2.048427 1_555
Ni10 O7 2.050729 1_545
Ni10 O18 2.050732 1_555
Ni11 O22 1.870233 1_555
Ni11 O19 1.875712 1_565
Ni11 O8 1.950606 1_555
Ni11 O11 1.950840 1_565
Ni11 O16 2.060606 1_565
Ni11 O2 2.103147 1_555
