# generated using pymatgen
data_Li2Mn3CoO8
_symmetry_space_group_name_H-M   'P 1'
_cell_length_a   5.92612712
_cell_length_b   5.91714456
_cell_length_c   10.17340887
_cell_angle_alpha   72.46084041
_cell_angle_beta   88.50729807
_cell_angle_gamma   60.15585112
_symmetry_Int_Tables_number   1
_chemical_formula_structural   Li2Mn3CoO8
_chemical_formula_sum   'Li4 Mn6 Co2 O16'
_cell_volume   291.71290502
_cell_formula_units_Z   2
loop_
 _symmetry_equiv_pos_site_id
 _symmetry_equiv_pos_as_xyz
  1  'x, y, z'
loop_
 _atom_site_type_symbol
 _atom_site_label
 _atom_site_symmetry_multiplicity
 _atom_site_fract_x
 _atom_site_fract_y
 _atom_site_fract_z
 _atom_site_occupancy
  Li  Li0  1  0.17111300  0.13202100  0.05683900  1
  Li  Li1  1  0.67815000  0.12005600  0.55949100  1
  Li  Li2  1  0.32863300  0.86848000  0.44286700  1
  Li  Li3  1  0.82193900  0.88061800  0.94030100  1
  Mn  Mn0  1  0.25011700  0.99981600  0.75020600  1
  Mn  Mn1  1  0.00854800  0.49385200  0.50092000  1
  Mn  Mn2  1  0.74992300  0.50014000  0.75021800  1
  Mn  Mn3  1  0.75172500  0.99902900  0.25056200  1
  Mn  Mn4  1  0.49181800  0.50665400  0.99878100  1
  Mn  Mn5  1  0.25012000  0.49983100  0.24998900  1
  Co  Co0  1  0.75019100  0.50044200  0.25021200  1
  Co  Co1  1  0.24981200  0.50032200  0.74936600  1
  O  O0  1  0.36237400  0.29457800  0.12163200  1
  O  O1  1  0.89677800  0.25763500  0.63375500  1
  O  O2  1  0.13763800  0.70652100  0.37837000  1
  O  O3  1  0.60353100  0.74283100  0.86628700  1
  O  O4  1  0.82653700  0.26798100  0.12352800  1
  O  O5  1  0.33695400  0.25162400  0.62550000  1
  O  O6  1  0.38471000  0.71455200  0.12940900  1
  O  O7  1  0.88516800  0.70738600  0.62486700  1
  O  O8  1  0.60689300  0.26836600  0.35208600  1
  O  O9  1  0.10234100  0.25576900  0.85293700  1
  O  O10  1  0.89282400  0.73105400  0.14788900  1
  O  O11  1  0.39767700  0.74490300  0.64665200  1
  O  O12  1  0.11427200  0.28533100  0.37068200  1
  O  O13  1  0.61483900  0.29193700  0.87528500  1
  O  O14  1  0.67269700  0.73022100  0.37659700  1
  O  O15  1  0.16267500  0.74805100  0.87477500  1
loop_
_geom_bond_atom_site_label_1
_geom_bond_atom_site_label_2
_geom_bond_distance
_geom_bond_site_symmetry_2
Li0 O9 1.958790 1_554
Li0 O4 1.974598 1_455
Li0 O6 2.021572 1_545
Li0 O0 2.037284 1_555
Li1 O5 1.955265 1_555
Li1 O8 1.990519 1_555
Li1 O7 1.998018 1_545
Li1 O1 2.093706 1_555
Li2 O11 1.957788 1_555
Li2 O14 1.970230 1_555
Li2 O12 2.018731 1_565
Li2 O2 2.031583 1_555
Li3 O15 1.950800 1_655
Li3 O13 1.991577 1_565
Li3 O10 1.992345 1_556
Li3 O3 2.092370 1_555
Mn0 O5 1.919437 1_565
Mn0 O15 1.920958 1_555
Mn0 O9 1.933704 1_565
Mn0 O11 1.935626 1_555
Mn0 O3 1.992513 1_555
Mn0 O1 1.993986 1_465
Mn1 O2 1.919900 1_555
Mn1 O5 1.924991 1_555
Mn1 O7 1.927135 1_455
Mn1 O14 1.952315 1_455
Mn1 O12 1.960390 1_555
Mn1 O1 1.988711 1_455
Mn2 O9 1.934407 1_655
Mn2 O11 1.936754 1_555
Mn2 O7 1.937748 1_555
Mn2 O13 1.939388 1_555
Mn2 O3 1.984406 1_555
Mn2 O1 1.987038 1_555
Mn3 O4 1.957595 1_565
Mn3 O14 1.968306 1_555
Mn3 O8 1.981876 1_565
Mn3 O10 1.984349 1_555
Mn3 O2 2.185280 1_655
Mn3 O0 2.204921 1_565
Mn4 O0 1.920434 1_556
Mn4 O15 1.924985 1_555
Mn4 O13 1.927861 1_555
Mn4 O4 1.949998 1_556
Mn4 O6 1.961244 1_556
Mn4 O3 1.986738 1_555
Mn5 O0 1.931127 1_555
Mn5 O2 1.936985 1_555
Mn5 O6 1.942545 1_555
Mn5 O12 1.947530 1_555
Mn5 O8 1.949302 1_555
Mn5 O10 1.951633 1_455
Co0 O10 1.976391 1_555
Co0 O8 1.984448 1_555
Co0 O14 2.028334 1_555
Co0 O4 2.043633 1_555
Co0 O12 2.059518 1_655
Co0 O6 2.067780 1_555
Co1 O11 2.063301 1_555
Co1 O9 2.063896 1_555
Co1 O7 2.084979 1_455
Co1 O5 2.085089 1_555
Co1 O13 2.092475 1_555
Co1 O15 2.093470 1_555
