# generated using pymatgen
data_ZrSn
_symmetry_space_group_name_H-M   'P 1'
_cell_length_a   5.32493200
_cell_length_b   5.59632300
_cell_length_c   12.69812900
_cell_angle_alpha   90.00000000
_cell_angle_beta   90.00000000
_cell_angle_gamma   90.00000000
_symmetry_Int_Tables_number   1
_chemical_formula_structural   ZrSn
_chemical_formula_sum   'Zr8 Sn8'
_cell_volume   378.40474482
_cell_formula_units_Z   8
loop_
 _symmetry_equiv_pos_site_id
 _symmetry_equiv_pos_as_xyz
  1  'x, y, z'
loop_
 _atom_site_type_symbol
 _atom_site_label
 _atom_site_symmetry_multiplicity
 _atom_site_fract_x
 _atom_site_fract_y
 _atom_site_fract_z
 _atom_site_occupancy
  Zr  Zr0  1  0.00000000  0.66713000  0.11817500  1
  Zr  Zr1  1  0.00000000  0.15739500  0.24711400  1
  Zr  Zr2  1  0.00000000  0.15739500  0.75288600  1
  Zr  Zr3  1  0.00000000  0.66713000  0.88182500  1
  Zr  Zr4  1  0.50000000  0.84260500  0.25288600  1
  Zr  Zr5  1  0.50000000  0.33287000  0.38182500  1
  Zr  Zr6  1  0.50000000  0.33287000  0.61817500  1
  Zr  Zr7  1  0.50000000  0.84260500  0.74711400  1
  Sn  Sn0  1  0.00000000  0.17252300  0.00000000  1
  Sn  Sn1  1  0.00000000  0.66857300  0.35265200  1
  Sn  Sn2  1  0.00000000  0.21287500  0.50000000  1
  Sn  Sn3  1  0.00000000  0.66857300  0.64734800  1
  Sn  Sn4  1  0.50000000  0.78712500  0.00000000  1
  Sn  Sn5  1  0.50000000  0.33142700  0.14734800  1
  Sn  Sn6  1  0.50000000  0.82747700  0.50000000  1
  Sn  Sn7  1  0.50000000  0.33142700  0.85265200  1
loop_
_geom_bond_atom_site_label_1
_geom_bond_atom_site_label_2
_geom_bond_distance
_geom_bond_site_symmetry_2
Zr0 Zr3 3.001203 1_554
Zr0 Zr1 3.195072 1_565
Zr0 Zr1 3.289113 1_555
Zr0 Zr4 3.313481 1_555
Zr0 Zr4 3.313481 1_455
Zr1 Zr4 3.193363 1_445
Zr1 Zr4 3.193363 1_545
Zr1 Zr5 3.313481 1_455
Zr1 Zr5 3.313481 1_555
Zr2 Zr7 3.193363 1_445
Zr2 Zr7 3.193363 1_545
Zr2 Zr3 3.195072 1_545
Zr2 Zr3 3.289113 1_555
Zr2 Zr6 3.313481 1_455
Zr2 Zr6 3.313481 1_555
Zr3 Zr7 3.313481 1_455
Zr3 Zr7 3.313481 1_555
Zr4 Zr5 3.195072 1_565
Zr4 Zr5 3.289113 1_555
Zr5 Zr6 3.001203 1_555
Zr6 Zr7 3.195072 1_545
Zr6 Zr7 3.289113 1_555
Sn0 Zr1 3.139027 1_555
Sn0 Zr2 3.139027 1_554
Sn0 Zr0 3.148574 1_555
Sn0 Zr3 3.148574 1_554
Sn0 Zr0 3.201769 1_545
Sn0 Zr3 3.201769 1_544
Sn0 Sn5 3.373477 1_555
Sn0 Sn5 3.373477 1_455
Sn0 Sn7 3.373477 1_454
Sn0 Sn7 3.373477 1_554
Sn0 Sn4 3.426450 1_445
Sn0 Sn4 3.426450 1_545
Sn1 Zr0 2.977430 1_555
Sn1 Zr1 3.046227 1_565
Sn1 Zr4 3.105184 1_455
Sn1 Zr4 3.105184 1_555
Sn1 Zr1 3.159061 1_555
Sn1 Sn2 3.162988 1_555
Sn1 Zr5 3.279554 1_455
Sn1 Zr5 3.279554 1_555
Sn1 Sn6 3.373477 1_555
Sn1 Sn6 3.373477 1_455
Sn2 Zr6 3.129135 1_455
Sn2 Zr6 3.129135 1_555
Sn2 Zr5 3.129135 1_455
Sn2 Zr5 3.129135 1_555
Sn2 Sn3 3.162988 1_555
Sn2 Zr2 3.226154 1_555
Sn2 Zr1 3.226154 1_555
Sn2 Sn6 3.426450 1_445
Sn2 Sn6 3.426450 1_545
Sn3 Zr3 2.977430 1_555
Sn3 Zr2 3.046227 1_565
Sn3 Zr7 3.105184 1_455
Sn3 Zr7 3.105184 1_555
Sn3 Zr2 3.159061 1_555
Sn3 Zr6 3.279554 1_455
Sn3 Zr6 3.279554 1_555
Sn3 Sn6 3.373477 1_455
Sn3 Sn6 3.373477 1_555
Sn4 Zr0 3.129135 1_555
Sn4 Zr0 3.129135 1_655
Sn4 Zr3 3.129135 1_554
Sn4 Zr3 3.129135 1_654
Sn4 Sn7 3.162988 1_554
Sn4 Sn5 3.162988 1_555
Sn4 Zr4 3.226154 1_555
Sn4 Zr7 3.226154 1_554
Sn5 Zr5 2.977430 1_555
Sn5 Zr4 3.046227 1_545
Sn5 Zr1 3.105184 1_655
Sn5 Zr1 3.105184 1_555
Sn5 Zr4 3.159061 1_555
Sn5 Zr0 3.279554 1_555
Sn5 Zr0 3.279554 1_655
Sn6 Zr7 3.139027 1_555
Sn6 Zr4 3.139027 1_555
Sn6 Zr6 3.148574 1_555
Sn6 Zr5 3.148574 1_555
Sn6 Zr6 3.201769 1_565
Sn6 Zr5 3.201769 1_565
Sn7 Zr6 2.977430 1_555
Sn7 Zr7 3.046227 1_545
Sn7 Zr2 3.105184 1_555
Sn7 Zr2 3.105184 1_655
Sn7 Zr7 3.159061 1_555
Sn7 Zr3 3.279554 1_555
Sn7 Zr3 3.279554 1_655
