# generated using pymatgen
data_LuPb3
_symmetry_space_group_name_H-M   'P 1'
_cell_length_a   4.82594640
_cell_length_b   4.82594640
_cell_length_c   4.82593304
_cell_angle_alpha   90.00000000
_cell_angle_beta   90.00000000
_cell_angle_gamma   90.00000000
_symmetry_Int_Tables_number   1
_chemical_formula_structural   LuPb3
_chemical_formula_sum   'Lu1 Pb3'
_cell_volume   112.39481579
_cell_formula_units_Z   1
loop_
 _symmetry_equiv_pos_site_id
 _symmetry_equiv_pos_as_xyz
  1  'x, y, z'
loop_
 _atom_site_type_symbol
 _atom_site_label
 _atom_site_symmetry_multiplicity
 _atom_site_fract_x
 _atom_site_fract_y
 _atom_site_fract_z
 _atom_site_occupancy
  Lu  Lu0  1  -0.00000000  -0.00000000  -0.00000000  1
  Pb  Pb0  1  -0.00000000  0.50000000  0.50000000  1
  Pb  Pb1  1  0.50000000  0.50000000  -0.00000000  1
  Pb  Pb2  1  0.50000000  -0.00000000  0.50000000  1
loop_
_geom_bond_atom_site_label_1
_geom_bond_atom_site_label_2
_geom_bond_distance
_geom_bond_site_symmetry_2
Lu0 Pb0 3.412455 1_554
Lu0 Pb2 3.412455 1_455
Lu0 Pb0 3.412455 1_555
Lu0 Pb0 3.412455 1_544
Lu0 Pb0 3.412455 1_545
Lu0 Pb2 3.412455 1_554
Lu0 Pb2 3.412455 1_454
Lu0 Pb2 3.412455 1_555
Lu0 Pb1 3.412459 1_455
Lu0 Pb1 3.412459 1_445
Lu0 Pb1 3.412459 1_545
Lu0 Pb1 3.412459 1_555
