# generated using pymatgen
data_CeAlNi
_symmetry_space_group_name_H-M   'P 1'
_cell_length_a   6.86576055
_cell_length_b   6.86576116
_cell_length_c   4.01967808
_cell_angle_alpha   90.00000000
_cell_angle_beta   90.00000000
_cell_angle_gamma   120.00000191
_symmetry_Int_Tables_number   1
_chemical_formula_structural   CeAlNi
_chemical_formula_sum   'Ce3 Al3 Ni3'
_cell_volume   164.09647108
_cell_formula_units_Z   3
loop_
 _symmetry_equiv_pos_site_id
 _symmetry_equiv_pos_as_xyz
  1  'x, y, z'
loop_
 _atom_site_type_symbol
 _atom_site_label
 _atom_site_symmetry_multiplicity
 _atom_site_fract_x
 _atom_site_fract_y
 _atom_site_fract_z
 _atom_site_occupancy
  Ce  Ce0  1  -0.00000000  0.57535907  0.50000000  1
  Ce  Ce1  1  0.57535907  0.00000000  0.50000000  1
  Ce  Ce2  1  0.42464093  0.42464093  0.50000000  1
  Al  Al0  1  0.23015800  0.00000000  -0.00000000  1
  Al  Al1  1  0.76984200  0.76984200  0.00000000  1
  Al  Al2  1  -0.00000000  0.23015800  -0.00000000  1
  Ni  Ni0  1  0.33333300  0.66666700  -0.00000000  1
  Ni  Ni1  1  0.66666700  0.33333300  0.00000000  1
  Ni  Ni2  1  -0.00000000  -0.00000000  0.50000000  1
loop_
_geom_bond_atom_site_label_1
_geom_bond_atom_site_label_2
_geom_bond_distance
_geom_bond_site_symmetry_2
Ce0 Ni0 2.869732 1_556
Ce0 Ni0 2.869732 1_555
Ce0 Ni1 2.869734 1_456
Ce0 Ni1 2.869734 1_455
Ce0 Ni2 2.915483 1_565
Ce0 Ce2 3.547924 1_455
Ce0 Ce1 3.547924 1_565
Ce0 Ce2 3.547924 1_555
Ce0 Ce1 3.547924 1_455
Ce1 Ni1 2.869732 1_555
Ce1 Ni1 2.869732 1_556
Ce1 Ni0 2.869734 1_545
Ce1 Ni0 2.869734 1_546
Ce1 Ni2 2.915483 1_655
Ce1 Ce2 3.547925 1_555
Ce1 Ce2 3.547925 1_545
Ce2 Ni1 2.869737 1_556
Ce2 Ni1 2.869737 1_555
Ce2 Ni0 2.869737 1_556
Ce2 Ni0 2.869737 1_555
Ce2 Ni2 2.915483 1_555
Al0 Ni2 2.556661 1_555
Al0 Ni2 2.556661 1_554
Al0 Ni0 2.713041 1_545
Al0 Ni1 2.713045 1_555
Al0 Al1 2.737003 1_445
Al0 Al2 2.737004 1_555
Al0 Ce1 3.107519 1_555
Al0 Ce1 3.107519 1_554
Al0 Ce0 3.229471 1_544
Al0 Ce0 3.229471 1_545
Al0 Ce2 3.229471 1_555
Al0 Ce2 3.229471 1_554
Al1 Ni2 2.556661 1_665
Al1 Ni2 2.556661 1_664
Al1 Ni0 2.713047 1_555
Al1 Ni1 2.713048 1_555
Al1 Al2 2.737004 1_665
Al1 Ce2 3.107519 1_555
Al1 Ce2 3.107519 1_554
Al1 Ce0 3.229471 1_655
Al1 Ce0 3.229471 1_654
Al1 Ce1 3.229471 1_564
Al1 Ce1 3.229471 1_565
Al2 Ni2 2.556661 1_554
Al2 Ni2 2.556661 1_555
Al2 Ni1 2.713041 1_455
Al2 Ni0 2.713046 1_555
Al2 Ce0 3.107519 1_555
Al2 Ce0 3.107519 1_554
Al2 Ce2 3.229471 1_554
Al2 Ce2 3.229471 1_555
Al2 Ce1 3.229471 1_454
Al2 Ce1 3.229471 1_455
