# generated using pymatgen
data_MgFe3Co5O16
_symmetry_space_group_name_H-M   'P 1'
_cell_length_a   5.88766738
_cell_length_b   5.79908911
_cell_length_c   8.88375980
_cell_angle_alpha   90.04492892
_cell_angle_beta   91.67248456
_cell_angle_gamma   119.60579901
_symmetry_Int_Tables_number   1
_chemical_formula_structural   MgFe3Co5O16
_chemical_formula_sum   'Mg1 Fe3 Co5 O16'
_cell_volume   263.56662983
_cell_formula_units_Z   1
loop_
 _symmetry_equiv_pos_site_id
 _symmetry_equiv_pos_as_xyz
  1  'x, y, z'
loop_
 _atom_site_type_symbol
 _atom_site_label
 _atom_site_symmetry_multiplicity
 _atom_site_fract_x
 _atom_site_fract_y
 _atom_site_fract_z
 _atom_site_occupancy
  Mg  Mg0  1  0.33092500  0.66431200  0.87925300  1
  Fe  Fe0  1  0.67037900  0.83507600  0.21852900  1
  Fe  Fe1  1  0.82783600  0.66176500  0.69415500  1
  Fe  Fe2  1  0.82811300  0.16622200  0.69396200  1
  Co  Co0  1  0.16733400  0.83436800  0.21021000  1
  Co  Co1  1  0.33170400  0.66626100  0.47651200  1
  Co  Co2  1  0.16771100  0.33263500  0.21015200  1
  Co  Co3  1  0.33106700  0.16556200  0.69123800  1
  Co  Co4  1  0.67929000  0.33906600  0.98942100  1
  O  O0  1  0.18226900  0.82375300  0.59595000  1
  O  O1  1  0.04935700  0.52430400  0.33157500  1
  O  O2  1  0.32466700  0.66205000  0.10158500  1
  O  O3  1  0.01686900  0.00820900  0.31697600  1
  O  O4  1  0.02278900  0.01213800  0.79446700  1
  O  O5  1  0.18253800  0.36051900  0.59604100  1
  O  O6  1  0.46087500  0.95088400  0.34225500  1
  O  O7  1  0.46140800  0.51030300  0.34247600  1
  O  O8  1  0.32097800  0.16016100  0.11210200  1
  O  O9  1  0.64707200  0.82388200  0.59134600  1
  O  O10  1  0.52410200  0.47771500  0.84112500  1
  O  O11  1  0.52447400  0.04564700  0.84276000  1
  O  O12  1  0.63815200  0.31818600  0.58682300  1
  O  O13  1  0.83667600  0.66045300  0.10537800  1
  O  O14  1  0.95835600  0.47866900  0.83454100  1
  O  O15  1  0.83797800  0.17430600  0.10594900  1
loop_
_geom_bond_atom_site_label_1
_geom_bond_atom_site_label_2
_geom_bond_distance
_geom_bond_site_symmetry_2
Mg0 O14 1.934848 1_455
Mg0 O10 1.953765 1_555
Mg0 O11 1.956203 1_565
Mg0 O2 1.976496 1_556
Fe0 O3 1.950726 1_665
Fe0 O15 1.996655 1_565
Fe0 O13 2.007500 1_555
Fe0 O7 2.016468 1_555
Fe0 O6 2.019191 1_555
Fe0 O2 2.021409 1_555
Fe1 O9 1.945232 1_555
Fe1 O12 1.965332 1_555
Fe1 O4 1.968028 1_665
Fe1 O14 2.006404 1_555
Fe1 O0 2.041792 1_655
Fe1 O10 2.072304 1_555
Fe2 O9 1.938573 1_545
Fe2 O12 1.961232 1_555
Fe2 O4 1.965409 1_655
Fe2 O14 1.999608 1_555
Fe2 O5 2.040861 1_655
Fe2 O11 2.082440 1_555
Co0 O8 1.872790 1_565
Co0 O6 1.883116 1_555
Co0 O13 1.904530 1_455
Co0 O3 1.905436 1_565
Co0 O1 1.921138 1_555
Co0 O2 1.937306 1_555
Co1 O9 1.880130 1_555
Co1 O6 1.881758 1_555
Co1 O7 1.884889 1_555
Co1 O5 1.887147 1_555
Co1 O0 1.892353 1_555
Co1 O1 1.902700 1_555
Co2 O8 1.873423 1_555
Co2 O7 1.884844 1_555
Co2 O15 1.897737 1_455
Co2 O3 1.905253 1_555
Co2 O1 1.921424 1_555
Co2 O2 1.934978 1_555
Co3 O4 1.851976 1_555
Co3 O12 1.852235 1_555
Co3 O0 1.910867 1_545
Co3 O5 1.921808 1_555
Co3 O10 2.053456 1_555
Co3 O11 2.070410 1_555
Co4 O13 1.904802 1_556
Co4 O15 1.919530 1_556
Co4 O11 1.954084 1_555
Co4 O10 1.968298 1_555
Co4 O14 2.016826 1_555
Co4 O8 2.165204 1_556
