# generated using pymatgen
data_Li2V3SnO8
_symmetry_space_group_name_H-M   'P 1'
_cell_length_a   6.03635921
_cell_length_b   6.18112436
_cell_length_c   8.62778879
_cell_angle_alpha   87.66474606
_cell_angle_beta   89.62958235
_cell_angle_gamma   89.95589125
_symmetry_Int_Tables_number   1
_chemical_formula_structural   Li2V3SnO8
_chemical_formula_sum   'Li4 V6 Sn2 O16'
_cell_volume   321.64151875
_cell_formula_units_Z   2
loop_
 _symmetry_equiv_pos_site_id
 _symmetry_equiv_pos_as_xyz
  1  'x, y, z'
loop_
 _atom_site_type_symbol
 _atom_site_label
 _atom_site_symmetry_multiplicity
 _atom_site_fract_x
 _atom_site_fract_y
 _atom_site_fract_z
 _atom_site_occupancy
  Li  Li0  1  0.00192600  0.24586200  0.12539100  1
  Li  Li1  1  0.50176900  0.74122700  0.61977300  1
  Li  Li2  1  0.99759900  0.75748600  0.87713800  1
  Li  Li3  1  0.49756300  0.26024100  0.37926000  1
  V  V0  1  0.75568800  0.25176200  0.75044200  1
  V  V1  1  0.75373800  0.75087800  0.24927100  1
  V  V2  1  0.24968200  0.24667200  0.74985400  1
  V  V3  1  0.99787600  0.50147900  0.49707700  1
  V  V4  1  0.50170300  0.99745300  0.00366000  1
  V  V5  1  0.24705100  0.74883000  0.24849100  1
  Sn  Sn0  1  0.99993200  0.99688200  0.50109300  1
  Sn  Sn1  1  0.50074400  0.50053900  0.99852300  1
  O  O0  1  0.99971500  0.52967100  0.26384100  1
  O  O1  1  0.51131700  0.03535800  0.77376300  1
  O  O2  1  0.98627700  0.45963900  0.74206400  1
  O  O3  1  0.49921100  0.97885100  0.22170000  1
  O  O4  1  0.22797700  0.74281900  0.49130700  1
  O  O5  1  0.72944300  0.24115300  0.98626000  1
  O  O6  1  0.76769800  0.74920700  0.48767900  1
  O  O7  1  0.27555600  0.24151900  0.98728000  1
  O  O8  1  0.00221800  0.97662200  0.25831000  1
  O  O9  1  0.51042400  0.47074200  0.75770300  1
  O  O10  1  0.98839100  0.02404500  0.74403400  1
  O  O11  1  0.49874600  0.52767800  0.23885900  1
  O  O12  1  0.22983800  0.24923400  0.51723200  1
  O  O13  1  0.72512900  0.76036000  0.00667700  1
  O  O14  1  0.76570400  0.25193200  0.52021100  1
  O  O15  1  0.27708500  0.76185600  0.00310600  1
loop_
_geom_bond_atom_site_label_1
_geom_bond_atom_site_label_2
_geom_bond_distance
_geom_bond_site_symmetry_2
Li0 O8 1.982226 1_545
Li0 O7 2.031234 1_554
Li0 O5 2.043435 1_454
Li0 O0 2.162175 1_455
Li1 O6 1.962140 1_555
Li1 O4 1.995698 1_555
Li1 O9 2.013129 1_555
Li1 O1 2.296044 1_565
Li2 O10 1.970554 1_565
Li2 O13 1.983017 1_556
Li2 O15 2.013534 1_656
Li2 O2 2.219969 1_555
Li3 O12 2.000522 1_555
Li3 O11 2.009167 1_555
Li3 O14 2.030175 1_555
Li3 O3 2.250716 1_545
O0 V3 2.012715 1_555
O0 V5 2.016836 1_655
O0 V1 2.018728 1_555
O1 V4 1.988267 1_546
O1 V0 1.995729 1_555
O1 V2 2.054736 1_555
O2 V0 1.894082 1_555
O2 V2 2.063113 1_655
O2 V3 2.119685 1_555
O3 V4 1.879995 1_555
O3 V5 2.088968 1_555
O3 V1 2.092100 1_555
O4 V3 2.037963 1_455
O4 Sn0 2.091450 1_455
O4 V5 2.096201 1_555
O5 V0 2.038117 1_555
O5 V4 2.040477 1_546
O5 Sn1 2.120398 1_555
O6 V1 2.058809 1_555
O6 V3 2.066364 1_555
O6 Sn0 2.083770 1_555
O7 V4 2.035022 1_546
O7 V2 2.054365 1_555
O7 Sn1 2.106697 1_555
O8 V5 2.044201 1_555
O8 V1 2.053396 1_455
O8 Sn0 2.103464 1_455
O9 V0 2.007614 1_555
O9 Sn1 2.093790 1_555
O9 V2 2.100587 1_555
O10 V0 1.989890 1_555
O10 V2 2.096148 1_655
O10 Sn0 2.110264 1_545
O11 V5 2.046527 1_555
O11 V1 2.072633 1_555
O11 Sn1 2.087101 1_554
O12 V2 2.010775 1_555
O12 V3 2.097494 1_455
O12 Sn0 2.098078 1_445
O13 V4 1.990379 1_555
O13 V1 2.099709 1_555
O13 Sn1 2.105354 1_554
O14 V0 1.986871 1_555
O14 V3 2.087543 1_555
O14 Sn0 2.127524 1_545
O15 V4 1.990675 1_555
O15 Sn1 2.105809 1_554
O15 V5 2.121970 1_555
