# generated using pymatgen
data_Sr3PbS4
_symmetry_space_group_name_H-M   'P 1'
_cell_length_a   4.26703042
_cell_length_b   6.02463731
_cell_length_c   8.53960400
_cell_angle_alpha   90.00000000
_cell_angle_beta   90.00000000
_cell_angle_gamma   90.00000000
_symmetry_Int_Tables_number   1
_chemical_formula_structural   Sr3PbS4
_chemical_formula_sum   'Sr3 Pb1 S4'
_cell_volume   219.53025304
_cell_formula_units_Z   1
loop_
 _symmetry_equiv_pos_site_id
 _symmetry_equiv_pos_as_xyz
  1  'x, y, z'
loop_
 _atom_site_type_symbol
 _atom_site_label
 _atom_site_symmetry_multiplicity
 _atom_site_fract_x
 _atom_site_fract_y
 _atom_site_fract_z
 _atom_site_occupancy
  Sr  Sr0  1  0.50000000  0.50000000  0.24840134  1
  Sr  Sr1  1  -0.00000000  -0.00000000  0.50000000  1
  Sr  Sr2  1  0.50000000  0.50000000  0.75159866  1
  Pb  Pb0  1  -0.00000000  -0.00000000  -0.00000000  1
  S  S0  1  -0.00000000  0.50000000  0.50000000  1
  S  S1  1  0.50000000  0.00000000  0.74832535  1
  S  S2  1  -0.00000000  0.50000000  -0.00000000  1
  S  S3  1  0.50000000  0.00000000  0.25167465  1
loop_
_geom_bond_atom_site_label_1
_geom_bond_atom_site_label_2
_geom_bond_distance
_geom_bond_site_symmetry_2
Pb0 S2 3.012319 1_545
Pb0 S2 3.012319 1_555
Pb0 S1 3.028359 1_554
Pb0 S1 3.028359 1_454
Pb0 S3 3.028359 1_455
Pb0 S3 3.028359 1_555
S0 Sr1 3.012319 1_555
S0 Sr1 3.012319 1_565
S0 Sr0 3.027898 1_455
S0 Sr0 3.027898 1_555
S0 Sr2 3.027898 1_455
S0 Sr2 3.027898 1_555
S1 Sr1 3.008128 1_655
S1 Sr1 3.008128 1_555
S1 Sr2 3.012448 1_545
S1 Sr2 3.012448 1_555
S2 Sr2 3.008585 1_454
S2 Sr2 3.008585 1_554
S2 Sr0 3.008585 1_455
S2 Sr0 3.008585 1_555
S3 Sr1 3.008128 1_655
S3 Sr1 3.008128 1_555
S3 Sr0 3.012448 1_545
S3 Sr0 3.012448 1_555
