# generated using pymatgen
data_ThAsSe
_symmetry_space_group_name_H-M   'P 1'
_cell_length_a   4.14012068
_cell_length_b   4.14012068
_cell_length_c   8.54400688
_cell_angle_alpha   90.00000000
_cell_angle_beta   90.00000000
_cell_angle_gamma   90.00000000
_symmetry_Int_Tables_number   1
_chemical_formula_structural   ThAsSe
_chemical_formula_sum   'Th2 As2 Se2'
_cell_volume   146.44939788
_cell_formula_units_Z   2
loop_
 _symmetry_equiv_pos_site_id
 _symmetry_equiv_pos_as_xyz
  1  'x, y, z'
loop_
 _atom_site_type_symbol
 _atom_site_label
 _atom_site_symmetry_multiplicity
 _atom_site_fract_x
 _atom_site_fract_y
 _atom_site_fract_z
 _atom_site_occupancy
  Th  Th0  1  0.75000000  0.75000000  0.73682672  1
  Th  Th1  1  0.25000000  0.25000000  0.26317328  1
  As  As0  1  0.75000000  0.25000000  -0.00000000  1
  As  As1  1  0.25000000  0.75000000  -0.00000000  1
  Se  Se0  1  0.75000000  0.75000000  0.36928413  1
  Se  Se1  1  0.25000000  0.25000000  0.63071587  1
loop_
_geom_bond_atom_site_label_1
_geom_bond_atom_site_label_2
_geom_bond_distance
_geom_bond_site_symmetry_2
As0 As1 2.927507 1_645
As0 As1 2.927507 1_555
As0 As1 2.927507 1_545
As0 As1 2.927507 1_655
As0 Th0 3.056329 1_554
As0 Th0 3.056329 1_544
As0 Th1 3.056329 1_555
As0 Th1 3.056329 1_655
As1 Th0 3.056329 1_454
As1 Th0 3.056329 1_554
As1 Th1 3.056329 1_555
As1 Th1 3.056329 1_565
Se0 Th1 3.064677 1_665
Se0 Th1 3.064677 1_655
Se0 Th1 3.064677 1_565
Se0 Th1 3.064677 1_555
Se0 Th0 3.140286 1_555
Se1 Th0 3.064677 1_455
Se1 Th0 3.064677 1_445
Se1 Th0 3.064677 1_555
Se1 Th0 3.064677 1_545
Se1 Th1 3.140286 1_555
