# generated using pymatgen
data_LiMnBO3
_symmetry_space_group_name_H-M   'P 1'
_cell_length_a   6.38936600
_cell_length_b   8.27042000
_cell_length_c   8.86599350
_cell_angle_alpha   117.80167259
_cell_angle_beta   68.87953920
_cell_angle_gamma   90.00000000
_symmetry_Int_Tables_number   1
_chemical_formula_structural   LiMnBO3
_chemical_formula_sum   'Li6 Mn6 B6 O18'
_cell_volume   378.48050003
_cell_formula_units_Z   6
loop_
 _symmetry_equiv_pos_site_id
 _symmetry_equiv_pos_as_xyz
  1  'x, y, z'
loop_
 _atom_site_type_symbol
 _atom_site_label
 _atom_site_symmetry_multiplicity
 _atom_site_fract_x
 _atom_site_fract_y
 _atom_site_fract_z
 _atom_site_occupancy
  Li  Li0  1  0.89146800  0.70142900  0.71706500  1
  Li  Li1  1  0.39146800  0.70142900  0.71706500  1
  Li  Li2  1  0.75781800  0.28293500  0.98436500  1
  Li  Li3  1  0.25781800  0.28293500  0.98436500  1
  Li  Li4  1  0.10071500  0.01563500  0.29857100  1
  Li  Li5  1  0.60071500  0.01563500  0.29857100  1
  Mn  Mn0  1  0.49475900  0.63888100  0.01048200  1
  Mn  Mn1  1  0.18580000  0.98951800  0.62839900  1
  Mn  Mn2  1  0.31944100  0.37160100  0.36111900  1
  Mn  Mn3  1  0.99475900  0.63888100  0.01048200  1
  Mn  Mn4  1  0.68580000  0.98951800  0.62839900  1
  Mn  Mn5  1  0.81944100  0.37160100  0.36111900  1
  B  B0  1  0.91666700  0.33333300  0.66666700  1
  B  B1  1  0.41666700  0.33333300  0.66666700  1
  B  B2  1  0.00000000  0.00000000  0.00000000  1
  B  B3  1  0.50000000  0.00000000  0.00000000  1
  B  B4  1  0.08333300  0.66666700  0.33333300  1
  B  B5  1  0.58333300  0.66666700  0.33333300  1
  O  O0  1  0.96080900  0.13965400  0.57838100  1
  O  O1  1  0.46080900  0.13965400  0.57838100  1
  O  O2  1  0.81982700  0.43872700  0.86034600  1
  O  O3  1  0.31982700  0.43872700  0.86034600  1
  O  O4  1  0.96936300  0.42161900  0.56127300  1
  O  O5  1  0.46936300  0.42161900  0.56127300  1
  O  O6  1  0.53929000  0.11501400  0.92142000  1
  O  O7  1  0.03929000  0.11501400  0.92142000  1
  O  O8  1  0.55750700  0.80640600  0.88498600  1
  O  O9  1  0.05750700  0.80640600  0.88498600  1
  O  O10  1  0.90320300  0.07858000  0.19359400  1
  O  O11  1  0.40320300  0.07858000  0.19359400  1
  O  O12  1  0.13952900  0.74791900  0.22094300  1
  O  O13  1  0.63952900  0.74791900  0.22094300  1
  O  O14  1  0.12395900  0.47302400  0.25208200  1
  O  O15  1  0.62395900  0.47302400  0.25208200  1
  O  O16  1  0.98651200  0.77905700  0.52697600  1
  O  O17  1  0.48651200  0.77905700  0.52697600  1
loop_
_geom_bond_atom_site_label_1
_geom_bond_atom_site_label_2
_geom_bond_distance
_geom_bond_site_symmetry_2
Li0 O16 1.973083 1_555
Li0 O9 2.007045 1_655
Li0 O8 2.007050 1_555
Li0 O4 2.008412 1_555
Li1 O17 1.973083 1_555
Li1 O8 2.007045 1_555
Li1 O9 2.007050 1_555
Li1 O5 2.008412 1_555
Li2 O15 1.973083 1_556
Li2 O7 2.007044 1_655
Li2 O6 2.007049 1_555
Li2 O2 2.008419 1_555
Li3 O14 1.973083 1_556
Li3 O6 2.007044 1_555
Li3 O7 2.007049 1_555
Li3 O3 2.008419 1_555
Li4 O12 1.973075 1_545
Li4 O11 2.007049 1_555
Li4 O10 2.007054 1_455
Li4 O0 2.008411 1_455
Li5 O13 1.973075 1_545
Li5 O10 2.007049 1_555
Li5 O11 2.007054 1_555
Li5 O1 2.008411 1_555
Mn0 O8 2.105916 1_554
Mn0 O2 2.185877 1_554
Mn0 O3 2.185877 1_554
Mn0 O12 2.196531 1_555
Mn0 O13 2.196536 1_555
Mn1 O7 2.105916 1_565
Mn1 O1 2.185877 1_565
Mn1 O0 2.185877 1_465
Mn1 O16 2.196531 1_455
Mn1 O17 2.196536 1_555
Mn2 O11 2.105916 1_555
Mn2 O5 2.185873 1_555
Mn2 O4 2.185882 1_455
Mn2 O15 2.196526 1_555
Mn2 O14 2.196531 1_555
Mn3 O9 2.105916 1_654
Mn3 O3 2.185877 1_654
Mn3 O2 2.185877 1_554
Mn3 O13 2.196531 1_555
Mn3 O12 2.196536 1_655
Mn4 O6 2.105916 1_565
Mn4 O0 2.185877 1_565
Mn4 O1 2.185877 1_565
Mn4 O17 2.196531 1_555
Mn4 O16 2.196536 1_555
Mn5 O10 2.105916 1_555
Mn5 O4 2.185873 1_555
Mn5 O5 2.185882 1_555
Mn5 O14 2.196526 1_655
Mn5 O15 2.196531 1_555
B0 O0 1.389008 1_555
B0 O2 1.389008 1_555
B0 O4 1.389015 1_555
B1 O1 1.389008 1_555
B1 O3 1.389008 1_555
B1 O5 1.389015 1_555
B2 O10 1.394758 1_455
B2 O7 1.394758 1_554
B2 O9 1.394758 1_544
B3 O11 1.394758 1_555
B3 O6 1.394758 1_554
B3 O8 1.394758 1_544
B4 O12 1.392904 1_555
B4 O16 1.392911 1_455
B4 O14 1.392913 1_555
B5 O13 1.392904 1_555
B5 O17 1.392911 1_555
B5 O15 1.392913 1_555
