# generated using pymatgen
data_La7SmCo6(CuO12)2
_symmetry_space_group_name_H-M   'P 1'
_cell_length_a   7.68449601
_cell_length_b   7.68449601
_cell_length_c   7.63078000
_cell_angle_alpha   90.00000000
_cell_angle_beta   90.00000000
_cell_angle_gamma   90.10407333
_symmetry_Int_Tables_number   1
_chemical_formula_structural   La7SmCo6(CuO12)2
_chemical_formula_sum   'La7 Sm1 Co6 Cu2 O24'
_cell_volume   450.60810139
_cell_formula_units_Z   1
loop_
 _symmetry_equiv_pos_site_id
 _symmetry_equiv_pos_as_xyz
  1  'x, y, z'
loop_
 _atom_site_type_symbol
 _atom_site_label
 _atom_site_symmetry_multiplicity
 _atom_site_fract_x
 _atom_site_fract_y
 _atom_site_fract_z
 _atom_site_occupancy
  La  La0  1  0.00000000  0.50000000  0.75025900  1
  La  La1  1  0.50000000  0.50000000  0.75016900  1
  La  La2  1  0.00000000  0.50000000  0.24955500  1
  La  La3  1  0.50000000  0.50000000  0.24878900  1
  La  La4  1  0.50000000  0.00000000  0.75025900  1
  La  La5  1  0.00000000  0.00000000  0.24974100  1
  La  La6  1  0.50000000  0.00000000  0.24955500  1
  Sm  Sm0  1  0.00000000  0.00000000  0.75249600  1
  Co  Co0  1  0.75028500  0.75028500  0.99965200  1
  Co  Co1  1  0.24948300  0.75051700  0.99958800  1
  Co  Co2  1  0.75051700  0.75051700  0.50059400  1
  Co  Co3  1  0.75051700  0.24948300  0.99958800  1
  Co  Co4  1  0.24971500  0.24971500  0.99965200  1
  Co  Co5  1  0.24948300  0.24948300  0.50059400  1
  Cu  Cu0  1  0.24955200  0.75044800  0.50040100  1
  Cu  Cu1  1  0.75044800  0.24955200  0.50040100  1
  O  O0  1  0.74960100  0.50227800  0.99887400  1
  O  O1  1  0.25039900  0.49772200  0.99887400  1
  O  O2  1  0.75108500  0.50450400  0.50015800  1
  O  O3  1  0.24891500  0.49549600  0.50015800  1
  O  O4  1  0.75367800  0.99766000  0.99776000  1
  O  O5  1  0.24632200  0.00234000  0.99776000  1
  O  O6  1  0.75214900  0.99551000  0.50293600  1
  O  O7  1  0.24785100  0.00449000  0.50293600  1
  O  O8  1  0.75318800  0.75318800  0.74917700  1
  O  O9  1  0.24738900  0.75261100  0.75379000  1
  O  O10  1  0.75003500  0.75003500  0.25080900  1
  O  O11  1  0.24939700  0.75060300  0.24612100  1
  O  O12  1  0.75261100  0.24738900  0.75379000  1
  O  O13  1  0.24681200  0.24681200  0.74917700  1
  O  O14  1  0.75060300  0.24939700  0.24612100  1
  O  O15  1  0.24996500  0.24996500  0.25080900  1
  O  O16  1  0.99766000  0.75367800  0.99776000  1
  O  O17  1  0.50227800  0.74960100  0.99887400  1
  O  O18  1  0.99551000  0.75214900  0.50293600  1
  O  O19  1  0.50450400  0.75108500  0.50015800  1
  O  O20  1  0.00234000  0.24632200  0.99776000  1
  O  O21  1  0.49772200  0.25039900  0.99887400  1
  O  O22  1  0.00449000  0.24785100  0.50293600  1
  O  O23  1  0.49549600  0.24891500  0.50015800  1
loop_
_geom_bond_atom_site_label_1
_geom_bond_atom_site_label_2
_geom_bond_distance
_geom_bond_site_symmetry_2
La0 O1 2.702226 1_555
La0 O0 2.702226 1_455
La0 O2 2.702301 1_455
La0 O3 2.702301 1_555
La0 O18 2.705116 1_455
La0 O22 2.705116 1_555
La0 O16 2.714308 1_455
La0 O20 2.714308 1_555
La0 O9 2.714693 1_555
La0 O12 2.714693 1_455
La0 O13 2.719579 1_555
La0 O8 2.719579 1_455
La1 O0 2.698300 1_555
La1 O17 2.698300 1_555
La1 O1 2.698300 1_555
La1 O21 2.698300 1_555
La1 O2 2.713558 1_555
La1 O19 2.713558 1_555
La1 O3 2.713558 1_555
La1 O23 2.713558 1_555
La1 O9 2.747886 1_555
La1 O12 2.747886 1_555
La1 O8 2.749036 1_555
La1 O13 2.749036 1_555
La2 O2 2.705008 1_455
La2 O3 2.705008 1_555
La2 O1 2.713317 1_554
La2 O0 2.713317 1_454
La2 O11 2.714545 1_555
La2 O14 2.714545 1_455
La2 O15 2.719363 1_555
La2 O10 2.719363 1_455
La2 O20 2.737209 1_554
La2 O16 2.737209 1_454
La2 O18 2.737568 1_455
La2 O22 2.737568 1_555
La3 O17 2.704802 1_554
La3 O0 2.704802 1_554
La3 O1 2.704802 1_554
La3 O21 2.704802 1_554
La3 O15 2.714835 1_555
La3 O10 2.714835 1_555
La3 O19 2.720854 1_555
La3 O2 2.720854 1_555
La3 O3 2.720854 1_555
La3 O23 2.720854 1_555
La3 O14 2.725981 1_555
La3 O11 2.725981 1_555
La4 O21 2.702226 1_555
La4 O17 2.702226 1_545
La4 O23 2.702301 1_555
La4 O19 2.702301 1_545
La4 O6 2.705116 1_545
La4 O7 2.705116 1_555
La4 O4 2.714308 1_545
La4 O5 2.714308 1_555
La4 O9 2.714693 1_545
La4 O12 2.714693 1_555
La4 O13 2.719579 1_555
La4 O8 2.719579 1_545
La5 O5 2.698208 1_554
La5 O20 2.698208 1_554
La5 O16 2.698208 1_444
La5 O4 2.698208 1_444
La5 O14 2.712928 1_455
La5 O11 2.712928 1_545
La5 O7 2.713191 1_555
La5 O22 2.713191 1_555
La5 O6 2.713191 1_445
La5 O18 2.713191 1_445
La5 O10 2.714043 1_445
La5 O15 2.714043 1_555
La6 O19 2.705008 1_545
La6 O23 2.705008 1_555
La6 O21 2.713317 1_554
La6 O17 2.713317 1_544
La6 O14 2.714545 1_555
La6 O11 2.714545 1_545
La6 O15 2.719363 1_555
La6 O10 2.719363 1_545
La6 O4 2.737209 1_544
La6 O5 2.737209 1_554
La6 O6 2.737568 1_545
La6 O7 2.737568 1_555
Co0 O16 1.901138 1_555
Co0 O4 1.901138 1_555
Co0 O17 1.905816 1_555
Co0 O0 1.905816 1_555
Co0 O8 1.911580 1_555
Co0 O10 1.916526 1_556
Co1 O9 1.875769 1_555
Co1 O11 1.881239 1_556
Co1 O16 1.935380 1_455
Co1 O5 1.935380 1_565
Co1 O1 1.942635 1_555
Co1 O17 1.942635 1_555
Co2 O6 1.882752 1_555
Co2 O18 1.882752 1_555
Co2 O2 1.890502 1_555
Co2 O19 1.890502 1_555
Co2 O8 1.897104 1_555
Co2 O10 1.906062 1_555
Co3 O12 1.875769 1_555
Co3 O14 1.881239 1_556
Co3 O20 1.935380 1_655
Co3 O4 1.935380 1_545
Co3 O21 1.942635 1_555
Co3 O0 1.942635 1_555
Co4 O20 1.901138 1_555
Co4 O5 1.901138 1_555
Co4 O21 1.905816 1_555
Co4 O1 1.905816 1_555
Co4 O13 1.911580 1_555
Co4 O15 1.916526 1_556
Co5 O7 1.882752 1_555
Co5 O22 1.882752 1_555
Co5 O3 1.890502 1_555
Co5 O23 1.890502 1_555
Co5 O13 1.897104 1_555
Co5 O15 1.906062 1_555
Cu0 O9 1.933699 1_555
Cu0 O11 1.940355 1_555
Cu0 O18 1.952348 1_455
Cu0 O7 1.952348 1_565
Cu0 O19 1.959176 1_555
Cu0 O3 1.959176 1_555
Cu1 O12 1.933699 1_555
Cu1 O14 1.940355 1_555
Cu1 O6 1.952348 1_545
Cu1 O22 1.952348 1_655
Cu1 O2 1.959176 1_555
Cu1 O23 1.959176 1_555
O4 Sm0 2.661924 1_665
O5 Sm0 2.661924 1_555
O6 Sm0 2.693509 1_665
O7 Sm0 2.693509 1_555
O8 Sm0 2.679917 1_665
O9 Sm0 2.690963 1_565
O12 Sm0 2.690963 1_655
O13 Sm0 2.679917 1_555
O16 Sm0 2.661924 1_665
O18 Sm0 2.693509 1_665
O20 Sm0 2.661924 1_555
O22 Sm0 2.693509 1_555
