# generated using pymatgen
data_TaTiAl6
_symmetry_space_group_name_H-M   'P 1'
_cell_length_a   3.82408155
_cell_length_b   3.82408155
_cell_length_c   8.54605628
_cell_angle_alpha   90.00000000
_cell_angle_beta   90.00000000
_cell_angle_gamma   90.00000000
_symmetry_Int_Tables_number   1
_chemical_formula_structural   TaTiAl6
_chemical_formula_sum   'Ta1 Ti1 Al6'
_cell_volume   124.97410606
_cell_formula_units_Z   1
loop_
 _symmetry_equiv_pos_site_id
 _symmetry_equiv_pos_as_xyz
  1  'x, y, z'
loop_
 _atom_site_type_symbol
 _atom_site_label
 _atom_site_symmetry_multiplicity
 _atom_site_fract_x
 _atom_site_fract_y
 _atom_site_fract_z
 _atom_site_occupancy
  Ta  Ta0  1  0.00000000  -0.00000000  -0.00000000  1
  Ti  Ti0  1  0.50000000  0.50000000  0.50000000  1
  Al  Al0  1  0.50000000  0.50000000  0.00000000  1
  Al  Al1  1  0.00000000  -0.00000000  0.50000000  1
  Al  Al2  1  0.00000000  0.50000000  0.25093551  1
  Al  Al3  1  0.50000000  -0.00000000  0.74906449  1
  Al  Al4  1  0.50000000  -0.00000000  0.25093551  1
  Al  Al5  1  -0.00000000  0.50000000  0.74906449  1
loop_
_geom_bond_atom_site_label_1
_geom_bond_atom_site_label_2
_geom_bond_distance
_geom_bond_site_symmetry_2
Al0 Ta0 2.704034 1_665
Al0 Ta0 2.704034 1_655
Al0 Ta0 2.704034 1_565
Al0 Ta0 2.704034 1_555
Al0 Al2 2.873120 1_655
Al0 Al4 2.873120 1_565
Al0 Al4 2.873120 1_555
Al0 Al2 2.873120 1_555
Al0 Al3 2.873120 1_554
Al0 Al5 2.873120 1_654
Al0 Al5 2.873120 1_554
Al0 Al3 2.873120 1_564
Al1 Ti0 2.704034 1_555
Al1 Ti0 2.704034 1_455
Al1 Ti0 2.704034 1_545
Al1 Ti0 2.704034 1_445
Al1 Al5 2.861205 1_555
Al1 Al5 2.861205 1_545
Al1 Al3 2.861205 1_455
Al1 Al3 2.861205 1_555
Al1 Al4 2.861205 1_455
Al1 Al2 2.861205 1_545
Al1 Al4 2.861205 1_555
Al1 Al2 2.861205 1_555
Al2 Al4 2.704034 1_555
Al2 Al4 2.704034 1_465
Al2 Al4 2.704034 1_455
Al2 Al4 2.704034 1_565
Al2 Ti0 2.861205 1_455
Al2 Ti0 2.861205 1_555
Al2 Ta0 2.873120 1_565
Al2 Ta0 2.873120 1_555
Al3 Al5 2.704034 1_555
Al3 Al5 2.704034 1_655
Al3 Al5 2.704034 1_545
Al3 Al5 2.704034 1_645
Al3 Ti0 2.861205 1_545
Al3 Ti0 2.861205 1_555
Al3 Ta0 2.873120 1_656
Al3 Ta0 2.873120 1_556
Al4 Ti0 2.861205 1_545
Al4 Ti0 2.861205 1_555
Al4 Ta0 2.873120 1_555
Al4 Ta0 2.873120 1_655
Al5 Ti0 2.861205 1_455
Al5 Ti0 2.861205 1_555
Al5 Ta0 2.873120 1_556
Al5 Ta0 2.873120 1_566
