# generated using pymatgen
data_SmH4I3O11
_symmetry_space_group_name_H-M   'P 1'
_cell_length_a   7.25219900
_cell_length_b   7.57314276
_cell_length_c   10.78231167
_cell_angle_alpha   94.81941995
_cell_angle_beta   105.02574988
_cell_angle_gamma   109.13335919
_symmetry_Int_Tables_number   1
_chemical_formula_structural   SmH4I3O11
_chemical_formula_sum   'Sm2 H8 I6 O22'
_cell_volume   530.99552915
_cell_formula_units_Z   2
loop_
 _symmetry_equiv_pos_site_id
 _symmetry_equiv_pos_as_xyz
  1  'x, y, z'
loop_
 _atom_site_type_symbol
 _atom_site_label
 _atom_site_symmetry_multiplicity
 _atom_site_fract_x
 _atom_site_fract_y
 _atom_site_fract_z
 _atom_site_occupancy
  Sm  Sm0  1  0.60906700  0.41584400  0.28688100  1
  Sm  Sm1  1  0.39093300  0.58415600  0.71311900  1
  H  H0  1  0.75161900  0.10561800  0.35879500  1
  H  H1  1  0.24838100  0.89438200  0.64120500  1
  H  H2  1  0.78314700  0.08903000  0.21717300  1
  H  H3  1  0.21685300  0.91097000  0.78282700  1
  H  H4  1  0.37096800  0.74131500  0.10478100  1
  H  H5  1  0.62903200  0.25868500  0.89521900  1
  H  H6  1  0.30400900  0.91795500  0.10858300  1
  H  H7  1  0.69599100  0.08204500  0.89141700  1
  I  I0  1  0.21607900  0.63502900  0.33266300  1
  I  I1  1  0.78392100  0.36497100  0.66733700  1
  I  I2  1  0.80308400  0.85240600  0.56769600  1
  I  I3  1  0.19691600  0.14759400  0.43230400  1
  I  I4  1  0.22488100  0.26608400  0.95200900  1
  I  I5  1  0.77511900  0.73391600  0.04799100  1
  O  O0  1  0.93923500  0.55595100  0.24763600  1
  O  O1  1  0.06076500  0.44404900  0.75236400  1
  O  O2  1  0.26933500  0.44217700  0.25044700  1
  O  O3  1  0.73066500  0.55782300  0.74955300  1
  O  O4  1  0.20863900  0.53559500  0.48193700  1
  O  O5  1  0.79136100  0.46440500  0.51806300  1
  O  O6  1  0.64262500  0.72278000  0.40241500  1
  O  O7  1  0.35737500  0.27722000  0.59758500  1
  O  O8  1  0.86439800  0.09417300  0.52938600  1
  O  O9  1  0.13560200  0.90582700  0.47061400  1
  O  O10  1  0.59689100  0.84934400  0.63564000  1
  O  O11  1  0.40310900  0.15065600  0.36436000  1
  O  O12  1  0.41890500  0.37154100  0.87060800  1
  O  O13  1  0.58109500  0.62845900  0.12939200  1
  O  O14  1  0.39342400  0.19957600  0.08330700  1
  O  O15  1  0.60657600  0.80042400  0.91669300  1
  O  O16  1  0.08223400  0.03357600  0.84841300  1
  O  O17  1  0.91776600  0.96642400  0.15158700  1
  O  O18  1  0.72903500  0.15298300  0.27551100  1
  O  O19  1  0.27096500  0.84701700  0.72448900  1
  O  O20  1  0.25537700  0.77991800  0.10873600  1
  O  O21  1  0.74462300  0.22008200  0.89126400  1
loop_
_geom_bond_atom_site_label_1
_geom_bond_atom_site_label_2
_geom_bond_distance
_geom_bond_site_symmetry_2
H0 O18 0.989072 1_555
H1 O19 0.989072 1_555
H2 O18 0.992790 1_555
H3 O19 0.992790 1_555
H4 O20 0.983416 1_555
H5 O21 0.983416 1_555
H6 O20 0.987977 1_555
H7 O21 0.987977 1_555
I0 O4 1.839175 1_555
I0 O0 1.842626 1_455
I0 O2 1.843315 1_555
I1 O5 1.839175 1_555
I1 O1 1.842626 1_655
I1 O3 1.843315 1_555
I2 O10 1.822485 1_555
I2 O6 1.837297 1_555
I2 O8 1.846428 1_565
I3 O11 1.822485 1_555
I3 O7 1.837297 1_555
I3 O9 1.846428 1_545
I4 O16 1.815108 1_555
I4 O14 1.837955 1_556
I4 O12 1.846502 1_555
I5 O17 1.815108 1_555
I5 O15 1.837955 1_554
I5 O13 1.846502 1_555
O0 Sm0 2.444090 1_555
O1 Sm1 2.444090 1_555
O2 Sm0 2.469378 1_555
O3 Sm1 2.469378 1_555
O4 Sm1 2.432081 1_555
O5 Sm0 2.432081 1_555
O6 Sm0 2.449413 1_555
O7 Sm1 2.449413 1_555
O10 Sm1 2.434064 1_555
O11 Sm0 2.434064 1_555
O12 Sm1 2.451989 1_555
O13 Sm0 2.451989 1_555
O14 Sm0 2.425530 1_555
O15 Sm1 2.425530 1_555
O18 Sm0 2.425792 1_555
O19 Sm1 2.425792 1_555
