# generated using pymatgen
data_CaCr2O7
_symmetry_space_group_name_H-M   'P 1'
_cell_length_a   7.14168200
_cell_length_b   6.90379700
_cell_length_c   8.14598261
_cell_angle_alpha   70.79494269
_cell_angle_beta   90.00000000
_cell_angle_gamma   90.00000000
_symmetry_Int_Tables_number   1
_chemical_formula_structural   CaCr2O7
_chemical_formula_sum   'Ca2 Cr4 O14'
_cell_volume   379.28333463
_cell_formula_units_Z   2
loop_
 _symmetry_equiv_pos_site_id
 _symmetry_equiv_pos_as_xyz
  1  'x, y, z'
loop_
 _atom_site_type_symbol
 _atom_site_label
 _atom_site_symmetry_multiplicity
 _atom_site_fract_x
 _atom_site_fract_y
 _atom_site_fract_z
 _atom_site_occupancy
  Ca  Ca0  1  0.12387900  0.12343000  0.34249300  1
  Ca  Ca1  1  0.62387900  0.87657000  0.65750700  1
  Cr  Cr0  1  0.14269100  0.89766700  0.78912900  1
  Cr  Cr1  1  0.64269100  0.10233300  0.21087100  1
  Cr  Cr2  1  0.67503900  0.32797300  0.79988800  1
  Cr  Cr3  1  0.17503900  0.67202700  0.20011200  1
  O  O0  1  0.35120200  0.61941900  0.32768900  1
  O  O1  1  0.85120200  0.38058100  0.67231100  1
  O  O2  1  0.77686700  0.06286600  0.38976500  1
  O  O3  1  0.27686700  0.93713400  0.61023500  1
  O  O4  1  0.03874000  0.46801500  0.24768600  1
  O  O5  1  0.53874000  0.53198500  0.75231400  1
  O  O6  1  0.43501400  0.18369700  0.24830500  1
  O  O7  1  0.93501400  0.81630300  0.75169500  1
  O  O8  1  0.06591900  0.87503900  0.21764000  1
  O  O9  1  0.56591900  0.12496100  0.78236000  1
  O  O10  1  0.25006100  0.72942500  0.97714100  1
  O  O11  1  0.75006100  0.27057500  0.02285900  1
  O  O12  1  0.11553100  0.11073300  0.82182900  1
  O  O13  1  0.61553100  0.88926700  0.17817100  1
loop_
_geom_bond_atom_site_label_1
_geom_bond_atom_site_label_2
_geom_bond_distance
_geom_bond_site_symmetry_2
Ca0 O8 2.300835 1_545
Ca0 O4 2.327402 1_555
Ca0 O6 2.342899 1_555
Ca0 O3 2.399855 1_545
Ca0 O2 2.521686 1_455
Ca1 O9 2.300835 1_565
Ca1 O5 2.327402 1_555
Ca1 O7 2.342899 1_555
Ca1 O2 2.399855 1_565
Ca1 O3 2.521686 1_555
Cr0 O12 1.590628 1_565
Cr0 O7 1.649539 1_455
Cr0 O3 1.689636 1_555
Cr0 O10 1.764192 1_555
Cr1 O13 1.590628 1_545
Cr1 O6 1.649539 1_555
Cr1 O2 1.689636 1_555
Cr1 O11 1.764192 1_555
Cr2 O1 1.595752 1_555
Cr2 O5 1.649955 1_555
Cr2 O9 1.650365 1_555
Cr2 O11 1.808198 1_556
Cr3 O0 1.595752 1_555
Cr3 O4 1.649955 1_555
Cr3 O8 1.650365 1_555
Cr3 O10 1.808198 1_554
