# generated using pymatgen
data_Tb2NiAs2
_symmetry_space_group_name_H-M   'P 1'
_cell_length_a   4.08859177
_cell_length_b   4.08859177
_cell_length_c   14.33067188
_cell_angle_alpha   90.00000000
_cell_angle_beta   90.00000000
_cell_angle_gamma   120.00000591
_symmetry_Int_Tables_number   1
_chemical_formula_structural   Tb2NiAs2
_chemical_formula_sum   'Tb4 Ni2 As4'
_cell_volume   207.46491259
_cell_formula_units_Z   2
loop_
 _symmetry_equiv_pos_site_id
 _symmetry_equiv_pos_as_xyz
  1  'x, y, z'
loop_
 _atom_site_type_symbol
 _atom_site_label
 _atom_site_symmetry_multiplicity
 _atom_site_fract_x
 _atom_site_fract_y
 _atom_site_fract_z
 _atom_site_occupancy
  Tb  Tb0  1  0.33333300  0.66666700  0.38243121  1
  Tb  Tb1  1  0.66666700  0.33333300  0.61756879  1
  Tb  Tb2  1  0.66666700  0.33333300  0.88243121  1
  Tb  Tb3  1  0.33333300  0.66666700  0.11756879  1
  Ni  Ni0  1  -0.00000000  0.00000000  0.25000000  1
  Ni  Ni1  1  0.00000000  -0.00000000  0.75000000  1
  As  As0  1  -0.00000000  0.00000000  0.50000000  1
  As  As1  1  -0.00000000  0.00000000  0.00000000  1
  As  As2  1  0.33333300  0.66666700  0.75000000  1
  As  As3  1  0.66666700  0.33333300  0.25000000  1
loop_
_geom_bond_atom_site_label_1
_geom_bond_atom_site_label_2
_geom_bond_distance
_geom_bond_site_symmetry_2
Ni0 Tb3 3.028850 1_545
Ni0 Tb0 3.028850 1_545
Ni0 Tb3 3.028853 1_445
Ni0 Tb3 3.028853 1_555
Ni0 Tb0 3.028853 1_445
Ni0 Tb0 3.028853 1_555
Ni1 Tb2 3.028850 1_455
Ni1 Tb1 3.028850 1_455
Ni1 Tb1 3.028853 1_555
Ni1 Tb1 3.028853 1_445
Ni1 Tb2 3.028853 1_555
Ni1 Tb2 3.028853 1_445
As0 Tb0 2.900150 1_545
As0 Tb1 2.900150 1_455
As0 Tb1 2.900152 1_555
As0 Tb1 2.900152 1_445
As0 Tb0 2.900152 1_555
As0 Tb0 2.900152 1_445
As1 Tb2 2.900150 1_454
As1 Tb3 2.900150 1_545
As1 Tb2 2.900152 1_554
As1 Tb2 2.900152 1_444
As1 Tb3 2.900152 1_555
As1 Tb3 2.900152 1_445
As2 Ni1 2.360547 1_565
As2 Ni1 2.360551 1_555
As2 Ni1 2.360551 1_665
As2 Tb1 3.028850 1_455
As2 Tb2 3.028850 1_455
As2 Tb2 3.028850 1_565
As2 Tb1 3.028850 1_565
As2 Tb1 3.028856 1_555
As2 Tb2 3.028856 1_555
As3 Ni0 2.360547 1_655
As3 Ni0 2.360551 1_555
As3 Ni0 2.360551 1_665
As3 Tb0 3.028850 1_545
As3 Tb3 3.028850 1_545
As3 Tb3 3.028850 1_655
As3 Tb0 3.028850 1_655
As3 Tb0 3.028856 1_555
As3 Tb3 3.028856 1_555
