# generated using pymatgen
data_ErSiPd
_symmetry_space_group_name_H-M   'P 1'
_cell_length_a   4.29001790
_cell_length_b   7.39896987
_cell_length_c   13.77829570
_cell_angle_alpha   90.00000000
_cell_angle_beta   90.00000000
_cell_angle_gamma   90.00000000
_symmetry_Int_Tables_number   1
_chemical_formula_structural   ErSiPd
_chemical_formula_sum   'Er8 Si8 Pd8'
_cell_volume   437.34671027
_cell_formula_units_Z   8
loop_
 _symmetry_equiv_pos_site_id
 _symmetry_equiv_pos_as_xyz
  1  'x, y, z'
loop_
 _atom_site_type_symbol
 _atom_site_label
 _atom_site_symmetry_multiplicity
 _atom_site_fract_x
 _atom_site_fract_y
 _atom_site_fract_z
 _atom_site_occupancy
  Er  Er0  1  -0.00000000  0.30027656  0.00000000  1
  Er  Er1  1  0.50000000  0.69972344  0.50000000  1
  Er  Er2  1  0.00000000  0.29199871  0.50000000  1
  Er  Er3  1  0.50000000  0.70800129  0.00000000  1
  Er  Er4  1  0.00000000  0.21040486  0.24854153  1
  Er  Er5  1  0.50000000  0.78959514  0.25145847  1
  Er  Er6  1  0.00000000  0.21040486  0.75145847  1
  Er  Er7  1  0.50000000  0.78959514  0.74854153  1
  Si  Si0  1  0.00000000  0.90808161  0.59281259  1
  Si  Si1  1  0.50000000  0.09191839  0.90718741  1
  Si  Si2  1  0.00000000  0.90808161  0.40718741  1
  Si  Si3  1  0.50000000  0.09191839  0.09281259  1
  Si  Si4  1  0.00000000  0.59287451  0.14530585  1
  Si  Si5  1  0.50000000  0.40712549  0.35469415  1
  Si  Si6  1  0.00000000  0.59287451  0.85469415  1
  Si  Si7  1  0.50000000  0.40712549  0.64530585  1
  Pd  Pd0  1  0.50000000  0.07567683  0.60875129  1
  Pd  Pd1  1  -0.00000000  0.92432317  0.89124871  1
  Pd  Pd2  1  0.50000000  0.07567683  0.39124871  1
  Pd  Pd3  1  0.00000000  0.92432317  0.10875129  1
  Pd  Pd4  1  0.50000000  0.41824178  0.15643351  1
  Pd  Pd5  1  -0.00000000  0.58175822  0.34356649  1
  Pd  Pd6  1  0.50000000  0.41824178  0.84356649  1
  Pd  Pd7  1  -0.00000000  0.58175822  0.65643351  1
loop_
_geom_bond_atom_site_label_1
_geom_bond_atom_site_label_2
_geom_bond_distance
_geom_bond_site_symmetry_2
Er0 Si1 2.934797 1_554
Er0 Si1 2.934797 1_454
Er0 Si3 2.934797 1_455
Er0 Si3 2.934797 1_555
Er0 Si4 2.948757 1_555
Er0 Si6 2.948757 1_554
Er0 Pd1 3.159573 1_544
Er0 Pd3 3.159573 1_545
Er0 Pd6 3.163633 1_454
Er0 Pd6 3.163633 1_554
Er0 Pd4 3.163633 1_455
Er0 Pd4 3.163633 1_555
Er1 Si2 2.934797 1_655
Er1 Si0 2.934797 1_555
Er1 Si0 2.934797 1_655
Er1 Si2 2.934797 1_555
Er1 Si5 2.948757 1_555
Er1 Si7 2.948757 1_555
Er1 Pd0 3.159573 1_565
Er1 Pd2 3.159573 1_565
Er1 Pd5 3.163633 1_555
Er1 Pd7 3.163633 1_655
Er1 Pd5 3.163633 1_655
Er1 Pd7 3.163633 1_555
Er2 Pd5 3.040081 1_555
Er2 Pd7 3.040081 1_555
Er2 Si7 3.055312 1_555
Er2 Si7 3.055312 1_455
Er2 Si5 3.055312 1_555
Er2 Si5 3.055312 1_455
Er2 Pd0 3.067259 1_455
Er2 Pd0 3.067259 1_555
Er2 Pd2 3.067259 1_455
Er2 Pd2 3.067259 1_555
Er2 Si2 3.115170 1_545
Er2 Si0 3.115170 1_545
Er3 Pd4 3.040081 1_555
Er3 Pd6 3.040081 1_554
Er3 Si6 3.055312 1_654
Er3 Si6 3.055312 1_554
Er3 Si4 3.055312 1_655
Er3 Si4 3.055312 1_555
Er3 Pd1 3.067259 1_654
Er3 Pd1 3.067259 1_554
Er3 Pd3 3.067259 1_655
Er3 Pd3 3.067259 1_555
Er3 Si1 3.115170 1_564
Er3 Si3 3.115170 1_565
Er4 Pd3 2.861854 1_545
Er4 Pd4 2.928553 1_455
Er4 Pd4 2.928553 1_555
Er4 Si5 2.976380 1_555
Er4 Si5 2.976380 1_455
Er4 Pd5 3.043633 1_555
Er4 Pd2 3.075867 1_555
Er4 Pd2 3.075867 1_455
Er4 Si2 3.127565 1_545
Er4 Si3 3.158096 1_555
Er4 Si3 3.158096 1_455
Er4 Si4 3.167252 1_555
Er5 Pd2 2.861854 1_565
Er5 Pd5 2.928553 1_655
Er5 Pd5 2.928553 1_555
Er5 Si4 2.976380 1_655
Er5 Si4 2.976380 1_555
Er5 Pd4 3.043633 1_555
Er5 Pd3 3.075867 1_655
Er5 Pd3 3.075867 1_555
Er5 Si3 3.127565 1_565
Er5 Si2 3.158096 1_655
Er5 Si2 3.158096 1_555
Er5 Si5 3.167252 1_555
Er6 Pd1 2.861854 1_545
Er6 Pd6 2.928553 1_555
Er6 Pd6 2.928553 1_455
Er6 Si7 2.976380 1_555
Er6 Si7 2.976380 1_455
Er6 Pd7 3.043633 1_555
Er6 Pd0 3.075867 1_455
Er6 Pd0 3.075867 1_555
Er6 Si0 3.127565 1_545
Er6 Si1 3.158096 1_555
Er6 Si1 3.158096 1_455
Er6 Si6 3.167252 1_555
Er7 Pd0 2.861854 1_565
Er7 Pd7 2.928553 1_555
Er7 Pd7 2.928553 1_655
Er7 Si6 2.976380 1_555
Er7 Si6 2.976380 1_655
Er7 Pd6 3.043633 1_555
Er7 Pd1 3.075867 1_555
Er7 Pd1 3.075867 1_655
Er7 Si1 3.127565 1_565
Er7 Si0 3.158096 1_655
Er7 Si0 3.158096 1_555
Er7 Si7 3.167252 1_555
Si0 Si2 2.557599 1_555
Si1 Si3 2.557599 1_556
Pd0 Si0 2.487362 1_645
Pd0 Si0 2.487362 1_545
Pd0 Si7 2.503564 1_555
Pd0 Pd2 2.996815 1_555
Pd1 Si1 2.487362 1_465
Pd1 Si1 2.487362 1_565
Pd1 Si6 2.503564 1_555
Pd1 Pd3 2.996815 1_556
Pd2 Si2 2.487362 1_545
Pd2 Si2 2.487362 1_645
Pd2 Si5 2.503564 1_555
Pd3 Si3 2.487362 1_565
Pd3 Si3 2.487362 1_465
Pd3 Si4 2.503564 1_555
Pd4 Si4 2.508804 1_555
Pd4 Si4 2.508804 1_655
Pd4 Si3 2.568659 1_555
Pd4 Si5 2.732932 1_555
Pd5 Si5 2.508804 1_455
Pd5 Si5 2.508804 1_555
Pd5 Si2 2.568659 1_555
Pd5 Si4 2.732932 1_555
Pd6 Si6 2.508804 1_555
Pd6 Si6 2.508804 1_655
Pd6 Si1 2.568659 1_555
Pd6 Si7 2.732932 1_555
Pd7 Si7 2.508804 1_455
Pd7 Si7 2.508804 1_555
Pd7 Si0 2.568659 1_555
Pd7 Si6 2.732932 1_555
