# generated using pymatgen
data_YCoSn
_symmetry_space_group_name_H-M   'P 1'
_cell_length_a   4.53274300
_cell_length_b   7.16908900
_cell_length_c   7.52811700
_cell_angle_alpha   90.00000000
_cell_angle_beta   90.00000000
_cell_angle_gamma   90.00000000
_symmetry_Int_Tables_number   1
_chemical_formula_structural   YCoSn
_chemical_formula_sum   'Y4 Co4 Sn4'
_cell_volume   244.63096471
_cell_formula_units_Z   4
loop_
 _symmetry_equiv_pos_site_id
 _symmetry_equiv_pos_as_xyz
  1  'x, y, z'
loop_
 _atom_site_type_symbol
 _atom_site_label
 _atom_site_symmetry_multiplicity
 _atom_site_fract_x
 _atom_site_fract_y
 _atom_site_fract_z
 _atom_site_occupancy
  Y  Y0  1  0.25000000  0.98238900  0.79924300  1
  Y  Y1  1  0.25000000  0.48238900  0.70075700  1
  Y  Y2  1  0.75000000  0.01761100  0.20075700  1
  Y  Y3  1  0.75000000  0.51761100  0.29924300  1
  Co  Co0  1  0.25000000  0.18007000  0.42440900  1
  Co  Co1  1  0.25000000  0.68007000  0.07559100  1
  Co  Co2  1  0.75000000  0.81993000  0.57559100  1
  Co  Co3  1  0.75000000  0.31993000  0.92440900  1
  Sn  Sn0  1  0.25000000  0.80464100  0.40505000  1
  Sn  Sn1  1  0.25000000  0.30464100  0.09495000  1
  Sn  Sn2  1  0.75000000  0.19535900  0.59495000  1
  Sn  Sn3  1  0.75000000  0.69535900  0.90505000  1
loop_
_geom_bond_atom_site_label_1
_geom_bond_atom_site_label_2
_geom_bond_distance
_geom_bond_site_symmetry_2
Co0 Sn2 2.607054 1_555
Co0 Sn2 2.607054 1_455
Co0 Sn1 2.636092 1_555
Co0 Sn0 2.695427 1_545
Co0 Y1 3.004230 1_555
Co0 Y2 3.054128 1_455
Co0 Y2 3.054128 1_555
Co0 Y0 3.157682 1_545
Co0 Y3 3.446742 1_455
Co0 Y3 3.446742 1_555
Co1 Sn3 2.607054 1_454
Co1 Sn3 2.607054 1_554
Co1 Sn0 2.636092 1_555
Co1 Sn1 2.695427 1_555
Co1 Y0 3.004230 1_554
Co1 Y3 3.054128 1_555
Co1 Y3 3.054128 1_455
Co1 Y1 3.157682 1_554
Co1 Y2 3.446742 1_465
Co1 Y2 3.446742 1_565
Co2 Sn0 2.607054 1_655
Co2 Sn0 2.607054 1_555
Co2 Sn3 2.636092 1_555
Co2 Sn2 2.695427 1_565
Co2 Y3 3.004230 1_555
Co2 Y0 3.054128 1_655
Co2 Y0 3.054128 1_555
Co2 Y2 3.157682 1_565
Co2 Y1 3.446742 1_655
Co2 Y1 3.446742 1_555
Co3 Sn1 2.607054 1_656
Co3 Sn1 2.607054 1_556
Co3 Sn2 2.636092 1_555
Co3 Sn3 2.695427 1_555
Co3 Y2 3.004230 1_556
Co3 Y1 3.054128 1_555
Co3 Y1 3.054128 1_655
Co3 Y3 3.157682 1_556
Co3 Y0 3.446742 1_545
Co3 Y0 3.446742 1_645
Sn0 Y2 3.135734 1_465
Sn0 Y2 3.135734 1_565
Sn0 Y3 3.163100 1_555
Sn0 Y3 3.163100 1_455
Sn0 Y1 3.208250 1_555
Sn0 Y0 3.229560 1_555
Sn1 Y3 3.135734 1_455
Sn1 Y3 3.135734 1_555
Sn1 Y2 3.163100 1_555
Sn1 Y2 3.163100 1_455
Sn1 Y0 3.208250 1_544
Sn1 Y1 3.229560 1_554
Sn2 Y0 3.135734 1_545
Sn2 Y0 3.135734 1_645
Sn2 Y1 3.163100 1_555
Sn2 Y1 3.163100 1_655
Sn2 Y3 3.208250 1_555
Sn2 Y2 3.229560 1_555
Sn3 Y1 3.135734 1_555
Sn3 Y1 3.135734 1_655
Sn3 Y0 3.163100 1_655
Sn3 Y0 3.163100 1_555
Sn3 Y2 3.208250 1_566
Sn3 Y3 3.229560 1_556
