# generated using pymatgen
data_Ba6Sm2Al4O15
_symmetry_space_group_name_H-M   'P 1'
_cell_length_a   6.01736400
_cell_length_b   8.00155878
_cell_length_c   18.68039205
_cell_angle_alpha   91.41767040
_cell_angle_beta   90.00000000
_cell_angle_gamma   90.00000000
_symmetry_Int_Tables_number   1
_chemical_formula_structural   Ba6Sm2Al4O15
_chemical_formula_sum   'Ba12 Sm4 Al8 O30'
_cell_volume   899.15365773
_cell_formula_units_Z   2
loop_
 _symmetry_equiv_pos_site_id
 _symmetry_equiv_pos_as_xyz
  1  'x, y, z'
loop_
 _atom_site_type_symbol
 _atom_site_label
 _atom_site_symmetry_multiplicity
 _atom_site_fract_x
 _atom_site_fract_y
 _atom_site_fract_z
 _atom_site_occupancy
  Ba  Ba0  1  0.75771600  0.50249700  0.41706400  1
  Ba  Ba1  1  0.24228400  0.49750300  0.58293600  1
  Ba  Ba2  1  0.75771600  0.49750300  0.08293600  1
  Ba  Ba3  1  0.24228400  0.50249700  0.91706400  1
  Ba  Ba4  1  0.74251500  0.96748000  0.40947500  1
  Ba  Ba5  1  0.25748500  0.03252000  0.59052500  1
  Ba  Ba6  1  0.74251500  0.03252000  0.09052500  1
  Ba  Ba7  1  0.25748500  0.96748000  0.90947500  1
  Ba  Ba8  1  0.72528100  0.00000000  0.75000000  1
  Ba  Ba9  1  0.27471900  0.00000000  0.25000000  1
  Ba  Ba10  1  0.66824000  0.50000000  0.75000000  1
  Ba  Ba11  1  0.33176000  0.50000000  0.25000000  1
  Sm  Sm0  1  0.74609600  0.75161600  0.59001500  1
  Sm  Sm1  1  0.25390400  0.24838400  0.40998500  1
  Sm  Sm2  1  0.74609600  0.24838400  0.90998500  1
  Sm  Sm3  1  0.25390400  0.75161600  0.09001500  1
  Al  Al0  1  0.75232900  0.75294500  0.94249200  1
  Al  Al1  1  0.24767100  0.24705500  0.05750800  1
  Al  Al2  1  0.75232900  0.24705500  0.55750800  1
  Al  Al3  1  0.24767100  0.75294500  0.44249200  1
  Al  Al4  1  0.77415100  0.78031500  0.23386400  1
  Al  Al5  1  0.22584900  0.21968500  0.76613600  1
  Al  Al6  1  0.77415100  0.21968500  0.26613600  1
  Al  Al7  1  0.22584900  0.78031500  0.73386400  1
  O  O0  1  0.21200500  0.00000000  0.75000000  1
  O  O1  1  0.78799500  0.00000000  0.25000000  1
  O  O2  1  0.49120700  0.76430200  0.49831200  1
  O  O3  1  0.50879300  0.23569800  0.50168800  1
  O  O4  1  0.49120700  0.23569800  0.00168800  1
  O  O5  1  0.50879300  0.76430200  0.99831200  1
  O  O6  1  0.75942800  0.94089700  0.89186300  1
  O  O7  1  0.24057200  0.05910300  0.10813700  1
  O  O8  1  0.75942800  0.05910300  0.60813700  1
  O  O9  1  0.24057200  0.94089700  0.39186300  1
  O  O10  1  0.00827300  0.76208000  0.50093100  1
  O  O11  1  0.99172700  0.23792000  0.49906900  1
  O  O12  1  0.00827300  0.23792000  0.99906900  1
  O  O13  1  0.99172700  0.76208000  0.00093100  1
  O  O14  1  0.31418100  0.69520100  0.81463900  1
  O  O15  1  0.68581900  0.30479900  0.18536100  1
  O  O16  1  0.31418100  0.30479900  0.68536100  1
  O  O17  1  0.68581900  0.69520100  0.31463900  1
  O  O18  1  0.44238500  0.75139800  0.66796800  1
  O  O19  1  0.55761500  0.24860200  0.33203200  1
  O  O20  1  0.44238500  0.24860200  0.83203200  1
  O  O21  1  0.55761500  0.75139800  0.16796800  1
  O  O22  1  0.96753400  0.73000500  0.69278400  1
  O  O23  1  0.03246600  0.26999500  0.30721600  1
  O  O24  1  0.96753400  0.26999500  0.80721600  1
  O  O25  1  0.03246600  0.73000500  0.19278400  1
  O  O26  1  0.75489500  0.54296500  0.90601600  1
  O  O27  1  0.24510500  0.45703500  0.09398400  1
  O  O28  1  0.75489500  0.45703500  0.59398400  1
  O  O29  1  0.24510500  0.54296500  0.40601600  1
loop_
_geom_bond_atom_site_label_1
_geom_bond_atom_site_label_2
_geom_bond_distance
_geom_bond_site_symmetry_2
Ba0 O17 2.524197 1_555
Ba0 O19 2.817884 1_555
Ba0 O29 2.958386 1_655
Ba0 O10 2.980065 1_655
Ba0 O11 2.995293 1_555
Ba0 O2 3.017683 1_555
Ba0 O3 3.076838 1_555
Ba0 O29 3.108907 1_555
Ba0 O23 3.196269 1_655
Ba0 O28 3.333871 1_555
Ba1 O16 2.524197 1_555
Ba1 O18 2.817884 1_555
Ba1 O28 2.958386 1_455
Ba1 O11 2.980065 1_455
Ba1 O10 2.995293 1_555
Ba1 O3 3.017683 1_555
Ba1 O2 3.076838 1_555
Ba1 O28 3.108907 1_555
Ba1 O22 3.196269 1_455
Ba1 O29 3.333871 1_555
Ba2 O15 2.524197 1_555
Ba2 O21 2.817884 1_555
Ba2 O27 2.958386 1_655
Ba2 O12 2.980065 1_654
Ba2 O13 2.995293 1_555
Ba2 O4 3.017683 1_555
Ba2 O5 3.076838 1_554
Ba2 O27 3.108907 1_555
Ba2 O25 3.196269 1_655
Ba2 O26 3.333871 1_554
Ba3 O14 2.524197 1_555
Ba3 O20 2.817884 1_555
Ba3 O26 2.958386 1_455
Ba3 O13 2.980065 1_456
Ba3 O12 2.995293 1_555
Ba3 O5 3.017683 1_555
Ba3 O4 3.076838 1_556
Ba3 O26 3.108907 1_555
Ba3 O24 3.196269 1_455
Ba3 O27 3.333871 1_556
Ba4 O17 2.794714 1_555
Ba4 O2 2.795941 1_555
Ba4 O10 2.883775 1_655
Ba4 O19 2.924316 1_565
Ba4 O1 3.009275 1_565
Ba4 O9 3.021915 1_655
Ba4 O9 3.045107 1_555
Ba4 O3 3.060765 1_565
Ba4 O11 3.090849 1_565
Ba5 O16 2.794714 1_555
Ba5 O3 2.795941 1_555
Ba5 O11 2.883775 1_455
Ba5 O18 2.924316 1_545
Ba5 O0 3.009275 1_555
Ba5 O8 3.021915 1_455
Ba5 O8 3.045107 1_555
Ba5 O2 3.060765 1_545
Ba5 O10 3.090849 1_545
Ba6 O15 2.794714 1_555
Ba6 O4 2.795941 1_555
Ba6 O12 2.883775 1_654
Ba6 O21 2.924316 1_545
Ba6 O1 3.009275 1_555
Ba6 O7 3.021915 1_655
Ba6 O7 3.045107 1_555
Ba6 O5 3.060765 1_544
Ba6 O13 3.090849 1_545
Ba7 O14 2.794714 1_555
Ba7 O5 2.795941 1_555
Ba7 O13 2.883775 1_456
Ba7 O20 2.924316 1_565
Ba7 O0 3.009275 1_565
Ba7 O6 3.021915 1_455
Ba7 O6 3.045107 1_555
Ba7 O4 3.060765 1_566
Ba7 O12 3.090849 1_565
Ba8 O6 2.711214 1_545
Ba8 O8 2.711214 1_555
Ba8 O24 2.796484 1_555
Ba8 O22 2.796484 1_545
Ba8 O0 2.928795 1_655
Ba8 O20 3.008672 1_555
Ba8 O18 3.008672 1_545
Ba8 O0 3.088569 1_555
Ba9 O9 2.711214 1_545
Ba9 O7 2.711214 1_555
Ba9 O23 2.796484 1_555
Ba9 O25 2.796484 1_545
Ba9 O1 2.928795 1_455
Ba9 O19 3.008672 1_555
Ba9 O21 3.008672 1_545
Ba9 O1 3.088569 1_555
Ba10 O24 2.805393 1_555
Ba10 O22 2.805393 1_555
Ba10 O14 2.888477 1_555
Ba10 O16 2.888477 1_555
Ba10 O18 2.897275 1_555
Ba10 O20 2.897275 1_555
Ba10 O26 2.972283 1_555
Ba10 O28 2.972283 1_555
Ba11 O23 2.805393 1_555
Ba11 O25 2.805393 1_555
Ba11 O17 2.888477 1_555
Ba11 O15 2.888477 1_555
Ba11 O21 2.897275 1_555
Ba11 O19 2.897275 1_555
Ba11 O29 2.972283 1_555
Ba11 O27 2.972283 1_555
Al0 O6 1.796782 1_555
Al0 O26 1.797454 1_555
Al0 O5 1.799556 1_555
Al0 O13 1.807842 1_556
Al1 O7 1.796782 1_555
Al1 O27 1.797454 1_555
Al1 O4 1.799556 1_555
Al1 O12 1.807842 1_554
Al2 O8 1.796782 1_555
Al2 O28 1.797454 1_555
Al2 O3 1.799556 1_555
Al2 O11 1.807842 1_555
Al3 O9 1.796782 1_555
Al3 O29 1.797454 1_555
Al3 O2 1.799556 1_555
Al3 O10 1.807842 1_555
Al4 O17 1.753281 1_555
Al4 O25 1.775314 1_655
Al4 O1 1.778066 1_565
Al4 O21 1.803458 1_555
Al5 O16 1.753281 1_555
Al5 O24 1.775314 1_455
Al5 O0 1.778066 1_555
Al5 O20 1.803458 1_555
Al6 O15 1.753281 1_555
Al6 O23 1.775314 1_655
Al6 O1 1.778066 1_555
Al6 O19 1.803458 1_555
Al7 O14 1.753281 1_555
Al7 O22 1.775314 1_455
Al7 O0 1.778066 1_565
Al7 O18 1.803458 1_555
O2 Sm0 2.303445 1_555
O3 Sm1 2.303445 1_555
O4 Sm2 2.303445 1_554
O5 Sm3 2.303445 1_556
O6 Sm2 2.476544 1_565
O7 Sm3 2.476544 1_545
O8 Sm0 2.476544 1_545
O9 Sm1 2.476544 1_565
O10 Sm0 2.296101 1_455
O11 Sm1 2.296101 1_655
O12 Sm2 2.296101 1_455
O13 Sm3 2.296101 1_655
O18 Sm0 2.336777 1_555
O19 Sm1 2.336777 1_555
O20 Sm2 2.336777 1_555
O21 Sm3 2.336777 1_555
O22 Sm0 2.346766 1_555
O23 Sm1 2.346766 1_555
O24 Sm2 2.346766 1_555
O25 Sm3 2.346766 1_555
O26 Sm2 2.360700 1_555
O27 Sm3 2.360700 1_555
O28 Sm0 2.360700 1_555
O29 Sm1 2.360700 1_555
