# generated using pymatgen
data_K(IO3)2
_symmetry_space_group_name_H-M   'P 1'
_cell_length_a   7.48471400
_cell_length_b   8.57399400
_cell_length_c   20.00188500
_cell_angle_alpha   90.00000000
_cell_angle_beta   90.00000000
_cell_angle_gamma   90.00000000
_symmetry_Int_Tables_number   1
_chemical_formula_structural   K(IO3)2
_chemical_formula_sum   'K8 I16 O48'
_cell_volume   1283.59882634
_cell_formula_units_Z   8
loop_
 _symmetry_equiv_pos_site_id
 _symmetry_equiv_pos_as_xyz
  1  'x, y, z'
loop_
 _atom_site_type_symbol
 _atom_site_label
 _atom_site_symmetry_multiplicity
 _atom_site_fract_x
 _atom_site_fract_y
 _atom_site_fract_z
 _atom_site_occupancy
  K  K0  1  0.52123400  0.51487700  0.85337200  1
  K  K1  1  0.47876600  0.48512300  0.35337200  1
  K  K2  1  0.52123400  0.98512300  0.35337200  1
  K  K3  1  0.47876600  0.01487700  0.85337200  1
  K  K4  1  0.99045100  0.53672200  0.65730700  1
  K  K5  1  0.00954900  0.46327800  0.15730700  1
  K  K6  1  0.99045100  0.96327800  0.15730700  1
  K  K7  1  0.00954900  0.03672200  0.65730700  1
  I  I0  1  0.81467600  0.82321000  0.50381500  1
  I  I1  1  0.18532400  0.17679000  0.00381500  1
  I  I2  1  0.81467600  0.67679000  0.00381500  1
  I  I3  1  0.18532400  0.32321000  0.50381500  1
  I  I4  1  0.31347600  0.73551300  0.50461400  1
  I  I5  1  0.68652400  0.26448700  0.00461400  1
  I  I6  1  0.31347600  0.76448700  0.00461400  1
  I  I7  1  0.68652400  0.23551300  0.50461400  1
  I  I8  1  0.96028300  0.81590800  0.83275600  1
  I  I9  1  0.03971700  0.18409200  0.33275600  1
  I  I10  1  0.96028300  0.68409200  0.33275600  1
  I  I11  1  0.03971700  0.31590800  0.83275600  1
  I  I12  1  0.52564100  0.75681000  0.69058400  1
  I  I13  1  0.47435900  0.24319000  0.19058400  1
  I  I14  1  0.52564100  0.74319000  0.19058400  1
  I  I15  1  0.47435900  0.25681000  0.69058400  1
  O  O0  1  0.72860900  0.64050600  0.46314700  1
  O  O1  1  0.27139100  0.35949400  0.96314700  1
  O  O2  1  0.72860900  0.85949400  0.96314700  1
  O  O3  1  0.27139100  0.14050600  0.46314700  1
  O  O4  1  0.60447200  0.93176600  0.48694000  1
  O  O5  1  0.39552800  0.06823400  0.98694000  1
  O  O6  1  0.60447200  0.56823400  0.98694000  1
  O  O7  1  0.39552800  0.43176600  0.48694000  1
  O  O8  1  0.78358800  0.78662100  0.59312100  1
  O  O9  1  0.21641200  0.21337900  0.09312100  1
  O  O10  1  0.78358800  0.71337900  0.09312100  1
  O  O11  1  0.21641200  0.28662100  0.59312100  1
  O  O12  1  0.10506600  0.62788400  0.52614600  1
  O  O13  1  0.89493400  0.37211600  0.02614600  1
  O  O14  1  0.10506600  0.87211600  0.02614600  1
  O  O15  1  0.89493400  0.12788400  0.52614600  1
  O  O16  1  0.20082300  0.92139900  0.53263100  1
  O  O17  1  0.79917700  0.07860100  0.03263100  1
  O  O18  1  0.20082300  0.57860100  0.03263100  1
  O  O19  1  0.79917700  0.42139900  0.53263100  1
  O  O20  1  0.28139400  0.75023500  0.41437200  1
  O  O21  1  0.71860600  0.24976500  0.91437200  1
  O  O22  1  0.28139400  0.74976500  0.91437200  1
  O  O23  1  0.71860600  0.25023500  0.41437200  1
  O  O24  1  0.08603500  0.77439700  0.75410900  1
  O  O25  1  0.91396500  0.22560300  0.25410900  1
  O  O26  1  0.08603500  0.72560300  0.25410900  1
  O  O27  1  0.91396500  0.27439700  0.75410900  1
  O  O28  1  0.88439800  0.62142900  0.85808200  1
  O  O29  1  0.11560200  0.37857100  0.35808200  1
  O  O30  1  0.88439800  0.87857100  0.35808200  1
  O  O31  1  0.11560200  0.12142900  0.85808200  1
  O  O32  1  0.76408700  0.88635400  0.78708200  1
  O  O33  1  0.23591300  0.11364600  0.28708200  1
  O  O34  1  0.76408700  0.61364600  0.28708200  1
  O  O35  1  0.23591300  0.38635400  0.78708200  1
  O  O36  1  0.34830100  0.69356700  0.63405000  1
  O  O37  1  0.65169900  0.30643300  0.13405000  1
  O  O38  1  0.34830100  0.80643300  0.13405000  1
  O  O39  1  0.65169900  0.19356700  0.63405000  1
  O  O40  1  0.39631500  0.75453300  0.77129600  1
  O  O41  1  0.60368500  0.24546700  0.27129600  1
  O  O42  1  0.39631500  0.74546700  0.27129600  1
  O  O43  1  0.60368500  0.25453300  0.77129600  1
  O  O44  1  0.64131000  0.57249500  0.70497600  1
  O  O45  1  0.35869000  0.42750500  0.20497600  1
  O  O46  1  0.64131000  0.92750500  0.20497600  1
  O  O47  1  0.35869000  0.07249500  0.70497600  1
loop_
_geom_bond_atom_site_label_1
_geom_bond_atom_site_label_2
_geom_bond_distance
_geom_bond_site_symmetry_2
K0 O35 2.744620 1_555
K0 O6 2.781177 1_555
K0 O40 2.791331 1_555
K0 O43 2.838767 1_555
K0 O28 2.869145 1_555
K0 O22 2.960928 1_555
K0 O21 2.972853 1_555
K0 O44 3.140380 1_555
K0 O1 3.176939 1_555
K1 O34 2.744620 1_555
K1 O7 2.781177 1_555
K1 O41 2.791331 1_555
K1 O42 2.838767 1_555
K1 O29 2.869145 1_555
K1 O23 2.960928 1_555
K1 O20 2.972853 1_555
K1 O45 3.140380 1_555
K1 O0 3.176939 1_555
K2 O33 2.744620 1_565
K2 O4 2.781177 1_555
K2 O42 2.791331 1_555
K2 O41 2.838767 1_565
K2 O30 2.869145 1_555
K2 O20 2.960928 1_555
K2 O23 2.972853 1_565
K2 O46 3.140380 1_555
K2 O3 3.176939 1_565
K3 O32 2.744620 1_545
K3 O5 2.781177 1_555
K3 O43 2.791331 1_555
K3 O40 2.838767 1_545
K3 O31 2.869145 1_555
K3 O21 2.960928 1_555
K3 O22 2.972853 1_545
K3 O47 3.140380 1_555
K3 O2 3.176939 1_545
K4 O44 2.798589 1_555
K4 O12 2.868700 1_655
K4 O24 2.900605 1_655
K4 O8 2.938773 1_555
K4 O11 3.017762 1_655
K4 O27 3.022493 1_555
K4 O36 3.032937 1_655
K4 O19 3.040734 1_555
K5 O45 2.798589 1_555
K5 O13 2.868700 1_455
K5 O25 2.900605 1_455
K5 O9 2.938773 1_555
K5 O10 3.017762 1_455
K5 O26 3.022493 1_555
K5 O37 3.032937 1_455
K5 O18 3.040734 1_555
K6 O46 2.798589 1_555
K6 O14 2.868700 1_655
K6 O26 2.900605 1_655
K6 O10 2.938773 1_555
K6 O9 3.017762 1_665
K6 O25 3.022493 1_565
K6 O38 3.032937 1_655
K6 O17 3.040734 1_565
K7 O47 2.798589 1_555
K7 O15 2.868700 1_455
K7 O27 2.900605 1_455
K7 O11 2.938773 1_555
K7 O8 3.017762 1_445
K7 O24 3.022493 1_545
K7 O39 3.032937 1_455
K7 O16 3.040734 1_545
I0 O8 1.828492 1_555
I0 O4 1.858915 1_555
I0 O0 1.878986 1_555
I1 O9 1.828492 1_555
I1 O5 1.858915 1_554
I1 O1 1.878986 1_554
I2 O10 1.828492 1_555
I2 O6 1.858915 1_554
I2 O2 1.878986 1_554
I3 O11 1.828492 1_555
I3 O7 1.858915 1_555
I3 O3 1.878986 1_555
I4 O20 1.825282 1_555
I4 O12 1.862879 1_555
I4 O16 1.888157 1_555
I4 O36 2.626789 1_555
I5 O21 1.825282 1_554
I5 O13 1.862879 1_555
I5 O17 1.888157 1_555
I5 O37 2.626789 1_555
I6 O22 1.825282 1_554
I6 O14 1.862879 1_555
I6 O18 1.888157 1_555
I6 O38 2.626789 1_555
I7 O23 1.825282 1_555
I7 O15 1.862879 1_555
I7 O19 1.888157 1_555
I7 O39 2.626789 1_555
I8 O32 1.831893 1_555
I8 O28 1.832932 1_555
I8 O24 1.867397 1_655
I9 O33 1.831893 1_555
I9 O29 1.832932 1_555
I9 O25 1.867397 1_455
I10 O34 1.831893 1_555
I10 O30 1.832932 1_555
I10 O26 1.867397 1_655
I11 O35 1.831893 1_555
I11 O31 1.832932 1_555
I11 O27 1.867397 1_455
I12 O44 1.824770 1_555
I12 O36 1.826072 1_555
I12 O40 1.882447 1_555
I13 O45 1.824770 1_555
I13 O37 1.826072 1_555
I13 O41 1.882447 1_555
I14 O46 1.824770 1_555
I14 O38 1.826072 1_555
I14 O42 1.882447 1_555
I15 O47 1.824770 1_555
I15 O39 1.826072 1_555
I15 O43 1.882447 1_555
