# generated using pymatgen
data_TiInNi2
_symmetry_space_group_name_H-M   'P 1'
_cell_length_a   6.19622800
_cell_length_b   6.19622800
_cell_length_c   12.22384200
_cell_angle_alpha   90.00000000
_cell_angle_beta   90.00000000
_cell_angle_gamma   90.00000000
_symmetry_Int_Tables_number   1
_chemical_formula_structural   TiInNi2
_chemical_formula_sum   'Ti8 In8 Ni16'
_cell_volume   469.31291708
_cell_formula_units_Z   8
loop_
 _symmetry_equiv_pos_site_id
 _symmetry_equiv_pos_as_xyz
  1  'x, y, z'
loop_
 _atom_site_type_symbol
 _atom_site_label
 _atom_site_symmetry_multiplicity
 _atom_site_fract_x
 _atom_site_fract_y
 _atom_site_fract_z
 _atom_site_occupancy
  Ti  Ti0_0  1  0.00000000  0.00000000  0.25000000  1
  Ti  Ti0_1  1  0.00000000  0.00000000  0.75000000  1
  Ti  Ti0_2  1  0.00000000  0.50000000  0.25000000  1
  Ti  Ti0_3  1  0.00000000  0.50000000  0.75000000  1
  Ti  Ti0_4  1  0.50000000  0.00000000  0.25000000  1
  Ti  Ti0_5  1  0.50000000  0.00000000  0.75000000  1
  Ti  Ti0_6  1  0.50000000  0.50000000  0.25000000  1
  Ti  Ti0_7  1  0.50000000  0.50000000  0.75000000  1
  In  In0_0  1  0.00000000  0.00000000  0.00000000  1
  In  In0_1  1  0.00000000  0.00000000  0.50000000  1
  In  In0_2  1  0.00000000  0.50000000  0.00000000  1
  In  In0_3  1  0.00000000  0.50000000  0.50000000  1
  In  In0_4  1  0.50000000  0.00000000  0.00000000  1
  In  In0_5  1  0.50000000  0.00000000  0.50000000  1
  In  In0_6  1  0.50000000  0.50000000  0.00000000  1
  In  In0_7  1  0.50000000  0.50000000  0.50000000  1
  Ni  Ni0_0  1  0.25000000  0.25000000  0.14444200  1
  Ni  Ni0_1  1  0.25000000  0.25000000  0.64444200  1
  Ni  Ni0_2  1  0.25000000  0.75000000  0.14444200  1
  Ni  Ni0_3  1  0.25000000  0.75000000  0.64444200  1
  Ni  Ni0_4  1  0.75000000  0.25000000  0.14444200  1
  Ni  Ni0_5  1  0.75000000  0.25000000  0.64444200  1
  Ni  Ni0_6  1  0.75000000  0.75000000  0.14444200  1
  Ni  Ni0_7  1  0.75000000  0.75000000  0.64444200  1
  Ni  Ni1_0  1  0.25000000  0.25000000  0.35555800  1
  Ni  Ni1_1  1  0.25000000  0.25000000  0.85555800  1
  Ni  Ni1_2  1  0.25000000  0.75000000  0.35555800  1
  Ni  Ni1_3  1  0.25000000  0.75000000  0.85555800  1
  Ni  Ni1_4  1  0.75000000  0.25000000  0.35555800  1
  Ni  Ni1_5  1  0.75000000  0.25000000  0.85555800  1
  Ni  Ni1_6  1  0.75000000  0.75000000  0.35555800  1
  Ni  Ni1_7  1  0.75000000  0.75000000  0.85555800  1
loop_
_geom_bond_atom_site_label_1
_geom_bond_atom_site_label_2
_geom_bond_distance
_geom_bond_site_symmetry_2
In0_0 Ni0_2 2.813650 1_545
In0_0 Ni0_0 2.813650 1_555
In0_0 Ni0_6 2.813650 1_445
In0_0 Ni0_4 2.813650 1_455
In0_0 Ni1_3 2.813650 1_544
In0_0 Ni1_7 2.813650 1_444
In0_0 Ni1_5 2.813650 1_454
In0_0 Ni1_1 2.813650 1_554
In0_0 Ti0_0 3.055960 1_555
In0_0 Ti0_1 3.055960 1_554
In0_0 In0_2 3.098114 1_545
In0_0 In0_2 3.098114 1_555
In0_0 In0_4 3.098114 1_455
In0_0 In0_4 3.098114 1_555
In0_1 Ni0_3 2.813650 1_545
In0_1 Ni0_7 2.813650 1_445
In0_1 Ni1_2 2.813650 1_545
In0_1 Ni0_1 2.813650 1_555
In0_1 Ni1_4 2.813650 1_455
In0_1 Ni1_0 2.813650 1_555
In0_1 Ni1_6 2.813650 1_445
In0_1 Ni0_5 2.813650 1_455
In0_1 Ti0_0 3.055960 1_555
In0_1 Ti0_1 3.055961 1_555
In0_1 In0_5 3.098114 1_555
In0_1 In0_3 3.098114 1_545
In0_1 In0_3 3.098114 1_555
In0_1 In0_5 3.098114 1_455
In0_2 Ni0_6 2.813650 1_455
In0_2 Ni0_0 2.813650 1_555
In0_2 Ni0_4 2.813650 1_455
In0_2 Ni0_2 2.813650 1_555
In0_2 Ni1_7 2.813650 1_454
In0_2 Ni1_5 2.813650 1_454
In0_2 Ni1_3 2.813650 1_554
In0_2 Ni1_1 2.813650 1_554
In0_2 Ti0_2 3.055960 1_555
In0_2 Ti0_3 3.055960 1_554
In0_2 In0_6 3.098114 1_555
In0_2 In0_6 3.098114 1_455
In0_3 Ni1_2 2.813650 1_555
In0_3 Ni0_3 2.813650 1_555
In0_3 Ni1_6 2.813650 1_455
In0_3 Ni0_7 2.813650 1_455
In0_3 Ni0_1 2.813650 1_555
In0_3 Ni1_4 2.813650 1_455
In0_3 Ni1_0 2.813650 1_555
In0_3 Ni0_5 2.813650 1_455
In0_3 Ti0_2 3.055960 1_555
In0_3 Ti0_3 3.055961 1_555
In0_3 In0_7 3.098114 1_455
In0_3 In0_7 3.098114 1_555
In0_4 Ni0_0 2.813650 1_555
In0_4 Ni0_6 2.813650 1_545
In0_4 Ni0_4 2.813650 1_555
In0_4 Ni0_2 2.813650 1_545
In0_4 Ni1_3 2.813650 1_544
In0_4 Ni1_7 2.813650 1_544
In0_4 Ni1_5 2.813650 1_554
In0_4 Ni1_1 2.813650 1_554
In0_4 Ti0_4 3.055960 1_555
In0_4 Ti0_5 3.055960 1_554
In0_4 In0_6 3.098114 1_555
In0_4 In0_6 3.098114 1_545
In0_5 Ni1_4 2.813650 1_555
In0_5 Ni0_3 2.813650 1_545
In0_5 Ni1_6 2.813650 1_545
In0_5 Ni0_7 2.813650 1_545
In0_5 Ni1_2 2.813650 1_545
In0_5 Ni0_1 2.813650 1_555
In0_5 Ni1_0 2.813650 1_555
In0_5 Ni0_5 2.813650 1_555
In0_5 Ti0_4 3.055960 1_555
In0_5 Ti0_5 3.055961 1_555
In0_5 In0_7 3.098114 1_555
In0_5 In0_7 3.098114 1_545
In0_6 Ni0_0 2.813650 1_555
In0_6 Ni0_4 2.813650 1_555
In0_6 Ni0_2 2.813650 1_555
In0_6 Ni0_6 2.813650 1_555
In0_6 Ni1_5 2.813650 1_554
In0_6 Ni1_3 2.813650 1_554
In0_6 Ni1_7 2.813650 1_554
In0_6 Ni1_1 2.813650 1_554
In0_6 Ti0_6 3.055960 1_555
In0_6 Ti0_7 3.055960 1_554
In0_7 Ni1_2 2.813650 1_555
In0_7 Ni0_3 2.813650 1_555
In0_7 Ni1_4 2.813650 1_555
In0_7 Ni0_7 2.813650 1_555
In0_7 Ni0_1 2.813650 1_555
In0_7 Ni1_0 2.813650 1_555
In0_7 Ni0_5 2.813650 1_555
In0_7 Ni1_6 2.813650 1_555
In0_7 Ti0_6 3.055960 1_555
In0_7 Ti0_7 3.055961 1_555
Ni0_0 Ti0_0 2.542458 1_555
Ni0_0 Ti0_4 2.542458 1_555
Ni0_0 Ti0_6 2.542458 1_555
Ni0_0 Ti0_2 2.542458 1_555
Ni0_0 Ni1_0 2.580649 1_555
Ni0_1 Ti0_3 2.542458 1_555
Ni0_1 Ti0_7 2.542458 1_555
Ni0_1 Ti0_1 2.542458 1_555
Ni0_1 Ti0_5 2.542458 1_555
Ni0_1 Ni1_1 2.580649 1_555
Ni0_2 Ti0_0 2.542458 1_565
Ni0_2 Ti0_6 2.542458 1_555
Ni0_2 Ti0_2 2.542458 1_555
Ni0_2 Ti0_4 2.542458 1_565
Ni0_2 Ni1_2 2.580649 1_555
Ni0_3 Ti0_3 2.542458 1_555
Ni0_3 Ti0_7 2.542458 1_555
Ni0_3 Ti0_1 2.542458 1_565
Ni0_3 Ti0_5 2.542458 1_565
Ni0_3 Ni1_3 2.580649 1_555
Ni0_4 Ti0_2 2.542458 1_655
Ni0_4 Ti0_4 2.542458 1_555
Ni0_4 Ti0_6 2.542458 1_555
Ni0_4 Ti0_0 2.542458 1_655
Ni0_4 Ni1_4 2.580649 1_555
Ni0_5 Ti0_7 2.542458 1_555
Ni0_5 Ti0_3 2.542458 1_655
Ni0_5 Ti0_1 2.542458 1_655
Ni0_5 Ti0_5 2.542458 1_555
Ni0_5 Ni1_5 2.580649 1_555
Ni0_6 Ti0_2 2.542458 1_655
Ni0_6 Ti0_6 2.542458 1_555
Ni0_6 Ti0_0 2.542458 1_665
Ni0_6 Ti0_4 2.542458 1_565
Ni0_6 Ni1_6 2.580649 1_555
Ni0_7 Ti0_7 2.542458 1_555
Ni0_7 Ti0_3 2.542458 1_655
Ni0_7 Ti0_1 2.542458 1_665
Ni0_7 Ti0_5 2.542458 1_565
Ni0_7 Ni1_7 2.580649 1_555
Ni1_0 Ti0_0 2.542458 1_555
Ni1_0 Ti0_4 2.542458 1_555
Ni1_0 Ti0_6 2.542458 1_555
Ni1_0 Ti0_2 2.542458 1_555
Ni1_1 Ti0_3 2.542458 1_555
Ni1_1 Ti0_7 2.542458 1_555
Ni1_1 Ti0_1 2.542458 1_555
Ni1_1 Ti0_5 2.542458 1_555
Ni1_2 Ti0_0 2.542458 1_565
Ni1_2 Ti0_6 2.542458 1_555
Ni1_2 Ti0_2 2.542458 1_555
Ni1_2 Ti0_4 2.542458 1_565
Ni1_3 Ti0_3 2.542458 1_555
Ni1_3 Ti0_7 2.542458 1_555
Ni1_3 Ti0_1 2.542458 1_565
Ni1_3 Ti0_5 2.542458 1_565
Ni1_4 Ti0_2 2.542458 1_655
Ni1_4 Ti0_4 2.542458 1_555
Ni1_4 Ti0_6 2.542458 1_555
Ni1_4 Ti0_0 2.542458 1_655
Ni1_5 Ti0_7 2.542458 1_555
Ni1_5 Ti0_3 2.542458 1_655
Ni1_5 Ti0_5 2.542458 1_555
Ni1_5 Ti0_1 2.542458 1_655
Ni1_6 Ti0_2 2.542458 1_655
Ni1_6 Ti0_6 2.542458 1_555
Ni1_6 Ti0_0 2.542458 1_665
Ni1_6 Ti0_4 2.542458 1_565
Ni1_7 Ti0_1 2.542458 1_665
Ni1_7 Ti0_7 2.542458 1_555
Ni1_7 Ti0_3 2.542458 1_655
Ni1_7 Ti0_5 2.542458 1_565
