# generated using pymatgen
data_K7(FeTe2)4
_symmetry_space_group_name_H-M   'P 1'
_cell_length_a   8.79661800
_cell_length_b   17.23496400
_cell_length_c   17.36441500
_cell_angle_alpha   90.00000000
_cell_angle_beta   90.00000000
_cell_angle_gamma   90.00000000
_symmetry_Int_Tables_number   1
_chemical_formula_structural   K7(FeTe2)4
_chemical_formula_sum   'K28 Fe16 Te32'
_cell_volume   2632.60844490
_cell_formula_units_Z   4
loop_
 _symmetry_equiv_pos_site_id
 _symmetry_equiv_pos_as_xyz
  1  'x, y, z'
loop_
 _atom_site_type_symbol
 _atom_site_label
 _atom_site_symmetry_multiplicity
 _atom_site_fract_x
 _atom_site_fract_y
 _atom_site_fract_z
 _atom_site_occupancy
  K  K0  1  0.75670800  0.51084200  0.00980700  1
  K  K1  1  0.74329200  0.01084200  0.49019300  1
  K  K2  1  0.74329200  0.48915800  0.50980700  1
  K  K3  1  0.75670800  0.98915800  0.99019300  1
  K  K4  1  0.24329200  0.48915800  0.99019300  1
  K  K5  1  0.25670800  0.98915800  0.50980700  1
  K  K6  1  0.25670800  0.51084200  0.49019300  1
  K  K7  1  0.24329200  0.01084200  0.00980700  1
  K  K8  1  0.81935600  0.74960500  0.24132700  1
  K  K9  1  0.68064400  0.24960500  0.25867300  1
  K  K10  1  0.68064400  0.25039500  0.74132700  1
  K  K11  1  0.81935600  0.75039500  0.75867300  1
  K  K12  1  0.18064400  0.25039500  0.75867300  1
  K  K13  1  0.31935600  0.75039500  0.74132700  1
  K  K14  1  0.31935600  0.74960500  0.25867300  1
  K  K15  1  0.18064400  0.24960500  0.24132700  1
  K  K16  1  0.79622700  0.50081200  0.26620700  1
  K  K17  1  0.70377300  0.00081200  0.23379300  1
  K  K18  1  0.70377300  0.49918800  0.76620700  1
  K  K19  1  0.79622700  0.99918800  0.73379300  1
  K  K20  1  0.20377300  0.49918800  0.73379300  1
  K  K21  1  0.29622700  0.99918800  0.76620700  1
  K  K22  1  0.29622700  0.50081200  0.23379300  1
  K  K23  1  0.20377300  0.00081200  0.26620700  1
  K  K24  1  0.77902200  0.75000000  0.00000000  1
  K  K25  1  0.72097800  0.25000000  0.50000000  1
  K  K26  1  0.22097800  0.25000000  0.00000000  1
  K  K27  1  0.27902200  0.75000000  0.50000000  1
  Fe  Fe0  1  0.88413500  0.70024500  0.44570000  1
  Fe  Fe1  1  0.61586500  0.20024500  0.05430000  1
  Fe  Fe2  1  0.61586500  0.29975500  0.94570000  1
  Fe  Fe3  1  0.88413500  0.79975500  0.55430000  1
  Fe  Fe4  1  0.11586500  0.29975500  0.55430000  1
  Fe  Fe5  1  0.38413500  0.79975500  0.94570000  1
  Fe  Fe6  1  0.38413500  0.70024500  0.05430000  1
  Fe  Fe7  1  0.11586500  0.20024500  0.44570000  1
  Fe  Fe8  1  0.67498900  0.80462500  0.44969200  1
  Fe  Fe9  1  0.82501100  0.30462500  0.05030800  1
  Fe  Fe10  1  0.82501100  0.19537500  0.94969200  1
  Fe  Fe11  1  0.67498900  0.69537500  0.55030800  1
  Fe  Fe12  1  0.32501100  0.19537500  0.55030800  1
  Fe  Fe13  1  0.17498900  0.69537500  0.94969200  1
  Fe  Fe14  1  0.17498900  0.80462500  0.05030800  1
  Fe  Fe15  1  0.32501100  0.30462500  0.44969200  1
  Te  Te0  1  0.60659500  0.66272300  0.40642100  1
  Te  Te1  1  0.89340500  0.16272300  0.09357900  1
  Te  Te2  1  0.89340500  0.33727700  0.90642100  1
  Te  Te3  1  0.60659500  0.83727700  0.59357900  1
  Te  Te4  1  0.39340500  0.33727700  0.59357900  1
  Te  Te5  1  0.10659500  0.83727700  0.90642100  1
  Te  Te6  1  0.10659500  0.66272300  0.09357900  1
  Te  Te7  1  0.39340500  0.16272300  0.40642100  1
  Te  Te8  1  0.95385800  0.84568100  0.41422500  1
  Te  Te9  1  0.54614200  0.34568100  0.08577500  1
  Te  Te10  1  0.54614200  0.15431900  0.91422500  1
  Te  Te11  1  0.95385800  0.65431900  0.58577500  1
  Te  Te12  1  0.04614200  0.15431900  0.58577500  1
  Te  Te13  1  0.45385800  0.65431900  0.91422500  1
  Te  Te14  1  0.45385800  0.84568100  0.08577500  1
  Te  Te15  1  0.04614200  0.34568100  0.41422500  1
  Te  Te16  1  0.56458300  0.62386000  0.14440100  1
  Te  Te17  1  0.93541700  0.12386000  0.35559900  1
  Te  Te18  1  0.93541700  0.37614000  0.64440100  1
  Te  Te19  1  0.56458300  0.87614000  0.85559900  1
  Te  Te20  1  0.43541700  0.37614000  0.85559900  1
  Te  Te21  1  0.06458300  0.87614000  0.64440100  1
  Te  Te22  1  0.06458300  0.62386000  0.35559900  1
  Te  Te23  1  0.43541700  0.12386000  0.14440100  1
  Te  Te24  1  0.99222100  0.89297000  0.12836800  1
  Te  Te25  1  0.50777900  0.39297000  0.37163200  1
  Te  Te26  1  0.50777900  0.10703000  0.62836800  1
  Te  Te27  1  0.99222100  0.60703000  0.87163200  1
  Te  Te28  1  0.00777900  0.10703000  0.87163200  1
  Te  Te29  1  0.49222100  0.60703000  0.62836800  1
  Te  Te30  1  0.49222100  0.89297000  0.37163200  1
  Te  Te31  1  0.00777900  0.39297000  0.12836800  1
loop_
_geom_bond_atom_site_label_1
_geom_bond_atom_site_label_2
_geom_bond_distance
_geom_bond_site_symmetry_2
K0 Te16 3.480328 1_555
K0 Te27 3.577301 1_554
K0 Te31 3.639134 1_655
K0 Te9 3.643328 1_555
K0 Te2 3.690150 1_554
K0 Te13 3.995838 1_554
K1 Te17 3.480328 1_555
K1 Te26 3.577301 1_555
K1 Te30 3.639134 1_545
K1 Te8 3.643328 1_545
K1 Te3 3.690150 1_545
K1 Te12 3.995838 1_655
K2 Te18 3.480328 1_555
K2 Te25 3.577301 1_555
K2 Te29 3.639134 1_555
K2 Te11 3.643328 1_555
K2 Te0 3.690150 1_555
K2 Te15 3.995838 1_655
K3 Te19 3.480328 1_555
K3 Te24 3.577301 1_556
K3 Te28 3.639134 1_665
K3 Te10 3.643328 1_565
K3 Te1 3.690150 1_566
K3 Te14 3.995838 1_556
K4 Te20 3.480328 1_555
K4 Te31 3.577301 1_556
K4 Te27 3.639134 1_455
K4 Te13 3.643328 1_555
K4 Te6 3.690150 1_556
K4 Te9 3.995838 1_556
K5 Te21 3.480328 1_555
K5 Te30 3.577301 1_555
K5 Te26 3.639134 1_565
K5 Te12 3.643328 1_565
K5 Te7 3.690150 1_565
K5 Te8 3.995838 1_455
K6 Te22 3.480328 1_555
K6 Te29 3.577301 1_555
K6 Te25 3.639134 1_555
K6 Te15 3.643328 1_555
K6 Te4 3.690150 1_555
K6 Te11 3.995838 1_455
K7 Te23 3.480328 1_555
K7 Te28 3.577301 1_554
K7 Te24 3.639134 1_445
K7 Te14 3.643328 1_545
K7 Te5 3.690150 1_544
K7 Te10 3.995838 1_554
K8 Te24 3.502137 1_555
K8 Te16 3.542911 1_555
K8 Te8 3.627039 1_555
K8 Te22 3.645201 1_655
K8 Te0 3.736757 1_555
K8 Te6 3.899832 1_655
K9 Te25 3.502137 1_555
K9 Te17 3.542911 1_555
K9 Te9 3.627039 1_555
K9 Te23 3.645201 1_555
K9 Te1 3.736757 1_555
K9 Te7 3.899832 1_555
K10 Te26 3.502137 1_555
K10 Te18 3.542911 1_555
K10 Te10 3.627039 1_555
K10 Te20 3.645201 1_555
K10 Te2 3.736757 1_555
K10 Te4 3.899832 1_555
K11 Te27 3.502137 1_555
K11 Te19 3.542911 1_555
K11 Te11 3.627039 1_555
K11 Te21 3.645201 1_655
K11 Te3 3.736757 1_555
K11 Te5 3.899832 1_655
K12 Te28 3.502137 1_555
K12 Te20 3.542911 1_555
K12 Te12 3.627039 1_555
K12 Te18 3.645201 1_455
K12 Te4 3.736757 1_555
K12 Te2 3.899832 1_455
K13 Te29 3.502137 1_555
K13 Te21 3.542911 1_555
K13 Te13 3.627039 1_555
K13 Te19 3.645201 1_555
K13 Te5 3.736757 1_555
K13 Te3 3.899832 1_555
K14 Te30 3.502137 1_555
K14 Te22 3.542911 1_555
K14 Te14 3.627039 1_555
K14 Te16 3.645201 1_555
K14 Te6 3.736757 1_555
K14 Te0 3.899832 1_555
K15 Te31 3.502137 1_555
K15 Te23 3.542911 1_555
K15 Te15 3.627039 1_555
K15 Te17 3.645201 1_455
K15 Te7 3.736757 1_555
K15 Te1 3.899832 1_455
K16 Te22 3.532632 1_655
K16 Te31 3.556193 1_655
K16 Te16 3.622602 1_555
K16 Te25 3.639241 1_555
K16 Te0 4.061726 1_555
K17 Te23 3.532632 1_555
K17 Te30 3.556193 1_545
K17 Te17 3.622602 1_555
K17 Te24 3.639241 1_545
K17 Te1 4.061726 1_555
K18 Te20 3.532632 1_555
K18 Te29 3.556193 1_555
K18 Te18 3.622602 1_555
K18 Te27 3.639241 1_555
K18 Te2 4.061726 1_555
K19 Te21 3.532632 1_655
K19 Te28 3.556193 1_665
K19 Te19 3.622602 1_555
K19 Te26 3.639241 1_565
K19 Te3 4.061726 1_555
K20 Te18 3.532632 1_455
K20 Te27 3.556193 1_455
K20 Te20 3.622602 1_555
K20 Te29 3.639241 1_555
K20 Te4 4.061726 1_555
K21 Te19 3.532632 1_555
K21 Te26 3.556193 1_565
K21 Te21 3.622602 1_555
K21 Te28 3.639241 1_565
K21 Te5 4.061726 1_555
K22 Te16 3.532632 1_555
K22 Te25 3.556193 1_555
K22 Te22 3.622602 1_555
K22 Te31 3.639241 1_555
K22 Te6 4.061726 1_555
K23 Te17 3.532632 1_455
K23 Te24 3.556193 1_445
K23 Te23 3.622602 1_555
K23 Te30 3.639241 1_545
K23 Te7 4.061726 1_555
K24 Te14 3.622067 1_555
K24 Te13 3.622067 1_554
K24 Te6 3.634054 1_655
K24 Te5 3.634054 1_654
K24 Te24 3.815434 1_555
K24 Te27 3.815434 1_554
K24 Te16 3.817313 1_555
K24 Te19 3.817313 1_554
K25 Te15 3.622067 1_655
K25 Te12 3.622067 1_655
K25 Te4 3.634054 1_555
K25 Te7 3.634054 1_555
K25 Te26 3.815434 1_555
K25 Te25 3.815434 1_555
K25 Te17 3.817313 1_555
K25 Te18 3.817313 1_555
K26 Te9 3.622067 1_555
K26 Te10 3.622067 1_554
K26 Te1 3.634054 1_455
K26 Te2 3.634054 1_454
K26 Te31 3.815434 1_555
K26 Te28 3.815434 1_554
K26 Te23 3.817313 1_555
K26 Te20 3.817313 1_554
K27 Te11 3.622067 1_455
K27 Te8 3.622067 1_455
K27 Te3 3.634054 1_555
K27 Te0 3.634054 1_555
K27 Te29 3.815434 1_555
K27 Te30 3.815434 1_555
K27 Te22 3.817313 1_555
K27 Te21 3.817313 1_555
Fe0 Te22 2.588551 1_655
Fe0 Te0 2.616087 1_555
Fe0 Te11 2.630376 1_555
Fe0 Te8 2.637773 1_555
Fe0 K27 3.700104 1_655
Fe1 Te23 2.588551 1_555
Fe1 Te1 2.616087 1_555
Fe1 Te10 2.630376 1_554
Fe1 Te9 2.637773 1_555
Fe1 K26 3.700104 1_555
Fe2 Te20 2.588551 1_555
Fe2 Te2 2.616087 1_555
Fe2 Te9 2.630376 1_556
Fe2 Te10 2.637773 1_555
Fe2 K26 3.700104 1_556
Fe3 Te21 2.588551 1_655
Fe3 Te3 2.616087 1_555
Fe3 Te8 2.630376 1_555
Fe3 Te11 2.637773 1_555
Fe3 K27 3.700104 1_655
Fe4 Te18 2.588551 1_455
Fe4 Te4 2.616087 1_555
Fe4 Te15 2.630376 1_555
Fe4 Te12 2.637773 1_555
Fe4 K25 3.700104 1_455
Fe5 Te19 2.588551 1_555
Fe5 Te5 2.616087 1_555
Fe5 Te14 2.630376 1_556
Fe5 Te13 2.637773 1_555
Fe5 K24 3.700104 1_556
Fe6 Te16 2.588551 1_555
Fe6 Te6 2.616087 1_555
Fe6 Te13 2.630376 1_554
Fe6 Te14 2.637773 1_555
Fe6 K24 3.700104 1_555
Fe7 Te17 2.588551 1_455
Fe7 Te7 2.616087 1_555
Fe7 Te12 2.630376 1_555
Fe7 Te15 2.637773 1_555
Fe7 K25 3.700104 1_455
Fe8 Te30 2.596247 1_555
Fe8 Te8 2.626348 1_555
Fe8 Te0 2.628281 1_555
Fe8 Te3 2.630823 1_555
Fe8 K1 3.672537 1_565
Fe8 K27 3.712404 1_555
Fe9 Te31 2.596247 1_655
Fe9 Te9 2.626348 1_555
Fe9 Te1 2.628281 1_555
Fe9 Te2 2.630823 1_554
Fe9 K0 3.672537 1_555
Fe9 K26 3.712404 1_655
Fe10 Te28 2.596247 1_655
Fe10 Te10 2.626348 1_555
Fe10 Te2 2.628281 1_555
Fe10 Te1 2.630823 1_556
Fe10 K3 3.672537 1_545
Fe10 K26 3.712404 1_656
Fe11 Te29 2.596247 1_555
Fe11 Te11 2.626348 1_555
Fe11 Te3 2.628281 1_555
Fe11 Te0 2.630823 1_555
Fe11 K2 3.672537 1_555
Fe11 K27 3.712404 1_555
Fe12 Te26 2.596247 1_555
Fe12 Te12 2.626348 1_555
Fe12 Te4 2.628281 1_555
Fe12 Te7 2.630823 1_555
Fe12 K5 3.672537 1_545
Fe12 K25 3.712404 1_555
Fe13 Te27 2.596247 1_455
Fe13 Te13 2.626348 1_555
Fe13 Te5 2.628281 1_555
Fe13 Te6 2.630823 1_556
Fe13 K4 3.672537 1_555
Fe13 K24 3.712404 1_456
Fe14 Te24 2.596247 1_455
Fe14 Te14 2.626348 1_555
Fe14 Te6 2.628281 1_555
Fe14 Te5 2.630823 1_554
Fe14 K7 3.672537 1_565
Fe14 K24 3.712404 1_455
Fe15 Te25 2.596247 1_555
Fe15 Te15 2.626348 1_555
Fe15 Te7 2.628281 1_555
Fe15 Te4 2.630823 1_555
Fe15 K6 3.672537 1_555
Fe15 K25 3.712404 1_555
