# generated using pymatgen
data_Cs2LiScCl6
_symmetry_space_group_name_H-M   'P 1'
_cell_length_a   12.89373817
_cell_length_b   12.89373817
_cell_length_c   12.89373853
_cell_angle_alpha   33.61241423
_cell_angle_beta   33.61241423
_cell_angle_gamma   33.61241876
_symmetry_Int_Tables_number   1
_chemical_formula_structural   Cs2LiScCl6
_chemical_formula_sum   'Cs4 Li2 Sc2 Cl12'
_cell_volume   585.14990922
_cell_formula_units_Z   2
loop_
 _symmetry_equiv_pos_site_id
 _symmetry_equiv_pos_as_xyz
  1  'x, y, z'
loop_
 _atom_site_type_symbol
 _atom_site_label
 _atom_site_symmetry_multiplicity
 _atom_site_fract_x
 _atom_site_fract_y
 _atom_site_fract_z
 _atom_site_occupancy
  Cs  Cs0  1  0.87384100  0.87384100  0.87384100  1
  Cs  Cs1  1  0.12615900  0.12615900  0.12615900  1
  Cs  Cs2  1  0.71095900  0.71095900  0.71095900  1
  Cs  Cs3  1  0.28904100  0.28904100  0.28904100  1
  Li  Li0  1  0.58876600  0.58876600  0.58876600  1
  Li  Li1  1  0.41123400  0.41123400  0.41123400  1
  Sc  Sc0  1  0.00000000  0.00000000  0.00000000  1
  Sc  Sc1  1  0.50000000  0.50000000  0.50000000  1
  Cl  Cl0  1  0.38788600  0.84886300  0.38788600  1
  Cl  Cl1  1  0.38788600  0.38788600  0.84886300  1
  Cl  Cl2  1  0.84886300  0.38788600  0.38788600  1
  Cl  Cl3  1  0.61211400  0.15113700  0.61211400  1
  Cl  Cl4  1  0.61211400  0.61211400  0.15113700  1
  Cl  Cl5  1  0.15113700  0.61211400  0.61211400  1
  Cl  Cl6  1  0.19954500  0.71947800  0.19954500  1
  Cl  Cl7  1  0.19954500  0.19954500  0.71947800  1
  Cl  Cl8  1  0.71947800  0.19954500  0.19954500  1
  Cl  Cl9  1  0.80045500  0.28052200  0.80045500  1
  Cl  Cl10  1  0.80045500  0.80045500  0.28052200  1
  Cl  Cl11  1  0.28052200  0.80045500  0.80045500  1
loop_
_geom_bond_atom_site_label_1
_geom_bond_atom_site_label_2
_geom_bond_distance
_geom_bond_site_symmetry_2
Cl0 Sc1 2.496490 1_555
Cl0 Li0 2.627221 1_555
Cl0 Cs0 3.732012 1_554
Cl0 Cs0 3.732012 1_455
Cl0 Cs3 3.750995 1_565
Cl0 Cs1 3.786142 1_565
Cl1 Sc1 2.496490 1_555
Cl1 Li0 2.627221 1_555
Cl1 Cs0 3.732012 1_455
Cl1 Cs0 3.732012 1_545
Cl1 Cs3 3.750995 1_556
Cl1 Cs1 3.786141 1_556
Cl2 Sc1 2.496490 1_555
Cl2 Li0 2.627221 1_555
Cl2 Cs0 3.732012 1_554
Cl2 Cs0 3.732012 1_545
Cl2 Cs3 3.750995 1_655
Cl2 Cs1 3.786142 1_655
Cl3 Sc1 2.496490 1_555
Cl3 Li1 2.627221 1_555
Cl3 Cs1 3.732012 1_556
Cl3 Cs1 3.732012 1_655
Cl3 Cs2 3.750995 1_545
Cl3 Cs0 3.786142 1_545
Cl4 Sc1 2.496490 1_555
Cl4 Li1 2.627221 1_555
Cl4 Cs1 3.732012 1_565
Cl4 Cs1 3.732012 1_655
Cl4 Cs2 3.750995 1_554
Cl4 Cs0 3.786141 1_554
Cl5 Sc1 2.496490 1_555
Cl5 Li1 2.627221 1_555
Cl5 Cs1 3.732012 1_556
Cl5 Cs1 3.732012 1_565
Cl5 Cs2 3.750995 1_455
Cl5 Cs0 3.786142 1_455
Cl6 Sc0 2.519406 1_565
Cl6 Li1 2.639624 1_555
Cl6 Cs2 3.733078 1_554
Cl6 Cs2 3.733078 1_455
Cl6 Cs1 3.774844 1_565
Cl6 Cs3 3.787991 1_555
Cl7 Sc0 2.519406 1_556
Cl7 Li1 2.639624 1_555
Cl7 Cs2 3.733078 1_455
Cl7 Cs2 3.733078 1_545
Cl7 Cs1 3.774845 1_556
Cl7 Cs3 3.787991 1_555
Cl8 Sc0 2.519406 1_655
Cl8 Li1 2.639624 1_555
Cl8 Cs2 3.733078 1_554
Cl8 Cs2 3.733078 1_545
Cl8 Cs1 3.774844 1_655
Cl8 Cs3 3.787991 1_555
Cl9 Sc0 2.519406 1_656
Cl9 Li0 2.639624 1_555
Cl9 Cs3 3.733078 1_556
Cl9 Cs3 3.733078 1_655
Cl9 Cs0 3.774844 1_545
Cl9 Cs2 3.787991 1_555
Cl10 Sc0 2.519406 1_665
Cl10 Li0 2.639624 1_555
Cl10 Cs3 3.733078 1_565
Cl10 Cs3 3.733078 1_655
Cl10 Cs0 3.774845 1_554
Cl10 Cs2 3.787991 1_555
Cl11 Sc0 2.519406 1_566
Cl11 Li0 2.639624 1_555
Cl11 Cs3 3.733078 1_556
Cl11 Cs3 3.733078 1_565
Cl11 Cs0 3.774844 1_455
Cl11 Cs2 3.787991 1_555
