# generated using pymatgen
data_La2ZnAs4
_symmetry_space_group_name_H-M   'P 1'
_cell_length_a   10.81065532
_cell_length_b   10.81065532
_cell_length_c   10.81065532
_cell_angle_alpha   158.52155714
_cell_angle_beta   158.52155714
_cell_angle_gamma   30.55846783
_symmetry_Int_Tables_number   1
_chemical_formula_structural   La2ZnAs4
_chemical_formula_sum   'La2 Zn1 As4'
_cell_volume   169.27611432
_cell_formula_units_Z   1
loop_
 _symmetry_equiv_pos_site_id
 _symmetry_equiv_pos_as_xyz
  1  'x, y, z'
loop_
 _atom_site_type_symbol
 _atom_site_label
 _atom_site_symmetry_multiplicity
 _atom_site_fract_x
 _atom_site_fract_y
 _atom_site_fract_z
 _atom_site_occupancy
  La  La0  1  0.87921200  0.87921200  0.00000000  1
  La  La1  1  0.12078800  0.12078800  0.00000000  1
  Zn  Zn0  1  0.25000000  0.75000000  0.50000000  1
  As  As0  1  0.49949500  0.99949500  0.50000000  1
  As  As1  1  0.00050500  0.50050500  0.50000000  1
  As  As2  1  0.67602700  0.67602700  0.00000000  1
  As  As3  1  0.32397300  0.32397300  0.00000000  1
loop_
_geom_bond_atom_site_label_1
_geom_bond_atom_site_label_2
_geom_bond_distance
_geom_bond_site_symmetry_2
La0 Zn0 3.364660 1_655
La0 Zn0 3.364660 1_554
La1 Zn0 3.364660 1_544
La1 Zn0 3.364660 1_555
As0 As1 2.848939 1_565
As0 As1 2.848939 1_666
As0 As1 2.848939 1_655
As0 As1 2.848939 1_554
As0 La0 3.217426 1_455
As0 La0 3.217426 1_556
As0 La1 3.233879 1_565
As0 La1 3.233879 1_666
As1 La1 3.217426 1_555
As1 La1 3.217426 1_566
As1 La0 3.233879 1_445
As1 La0 3.233879 1_456
As2 Zn0 2.537404 1_554
As2 Zn0 2.537404 1_655
As2 La1 3.073011 1_655
As2 La1 3.073011 1_565
As2 La1 3.073011 1_554
As2 La1 3.073011 1_666
As3 Zn0 2.537404 1_555
As3 Zn0 2.537404 1_544
As3 La0 3.073011 1_444
As3 La0 3.073011 1_455
As3 La0 3.073011 1_545
As3 La0 3.073011 1_556
