# generated using pymatgen
data_Na10B18H6O35
_symmetry_space_group_name_H-M   'P 1'
_cell_length_a   6.66516117
_cell_length_b   9.29263919
_cell_length_c   11.76775580
_cell_angle_alpha   83.29759463
_cell_angle_beta   75.39051630
_cell_angle_gamma   80.82969220
_symmetry_Int_Tables_number   1
_chemical_formula_structural   Na10B18H6O35
_chemical_formula_sum   'Na10 B18 H6 O35'
_cell_volume   694.04154981
_cell_formula_units_Z   1
loop_
 _symmetry_equiv_pos_site_id
 _symmetry_equiv_pos_as_xyz
  1  'x, y, z'
loop_
 _atom_site_type_symbol
 _atom_site_label
 _atom_site_symmetry_multiplicity
 _atom_site_fract_x
 _atom_site_fract_y
 _atom_site_fract_z
 _atom_site_occupancy
  Na  Na0  1  0.39004725  0.80282042  0.06854414  1
  Na  Na1  1  0.60745601  0.18663248  0.94053043  1
  Na  Na2  1  0.58819041  0.82033375  0.37584642  1
  Na  Na3  1  0.40270496  0.15659045  0.60963729  1
  Na  Na4  1  0.75617026  0.58252306  0.90278698  1
  Na  Na5  1  0.24906275  0.42374534  0.08903100  1
  Na  Na6  1  0.00860149  0.94592084  0.76903953  1
  Na  Na7  1  0.00015936  0.03181168  0.23103631  1
  Na  Na8  1  0.22369351  0.55780317  0.61311889  1
  Na  Na9  1  0.77586000  0.46234898  0.38332572  1
  B  B0  1  0.75037428  0.57601968  0.15834739  1
  B  B1  1  0.24619396  0.42335550  0.83719724  1
  B  B2  1  0.04630935  0.72442987  0.43064891  1
  B  B3  1  0.94920563  0.31043484  0.56655858  1
  B  B4  1  0.36939012  0.62306255  0.29491737  1
  B  B5  1  0.62489536  0.37664045  0.70792816  1
  B  B6  1  0.76625580  0.75479240  0.61901690  1
  B  B7  1  0.22472927  0.23265347  0.38088509  1
  B  B8  1  0.02937688  0.65679452  0.23205689  1
  B  B9  1  0.96448885  0.33063541  0.77534877  1
  B  B10  1  0.39200496  0.85022771  0.65034239  1
  B  B11  1  0.60434337  0.16755827  0.35076979  1
  B  B12  1  0.89254516  0.80068210  0.06829341  1
  B  B13  1  0.11826742  0.19294816  0.93502368  1
  B  B14  1  0.56233781  0.87292907  0.80056924  1
  B  B15  1  0.44094442  0.12054475  0.20418800  1
  B  B16  1  0.33902210  0.67620237  0.83127938  1
  B  B17  1  0.65169398  0.32954010  0.16871586  1
  H  H0  1  0.70953969  0.92992569  0.91907708  1
  H  H1  1  0.30483823  0.05886137  0.08444316  1
  H  H2  1  0.00567782  0.98730985  0.99694582  1
  H  H3  1  0.20138809  0.89995511  0.52507620  1
  H  H4  1  0.82775413  0.16804527  0.43831830  1
  H  H5  1  0.93091865  0.94392054  0.43563320  1
  O  O0  1  0.26285207  0.61562842  0.21062600  1
  O  O1  1  0.73195129  0.37226173  0.79285682  1
  O  O2  1  0.75515685  0.70406076  0.06967844  1
  O  O3  1  0.25238127  0.29636657  0.92404133  1
  O  O4  1  0.28755774  0.72615513  0.72640159  1
  O  O5  1  0.70873114  0.28589587  0.27309600  1
  O  O6  1  0.25371201  0.93909088  0.58419220  1
  O  O7  1  0.73138118  0.10223481  0.43310161  1
  O  O8  1  0.94699818  0.54167185  0.19188051  1
  O  O9  1  0.05024992  0.45103386  0.80147760  1
  O  O10  1  0.58284242  0.61270610  0.26756592  1
  O  O11  1  0.41526062  0.39292292  0.72620453  1
  O  O12  1  0.43151518  0.94807214  0.72707018  1
  O  O13  1  0.57520091  0.05692615  0.28162972  1
  O  O14  1  0.28433027  0.54704308  0.89135297  1
  O  O15  1  0.70318499  0.45598650  0.10332212  1
  O  O16  1  0.76153708  0.79412614  0.72896477  1
  O  O17  1  0.22910567  0.18536950  0.27570172  1
  O  O18  1  0.00017552  0.79539676  0.15438018  1
  O  O19  1  0.99710719  0.19868538  0.85292144  1
  O  O20  1  0.45566531  0.75141346  0.87920817  1
  O  O21  1  0.53118219  0.24968139  0.12813824  1
  O  O22  1  0.92277854  0.90509276  0.97626123  1
  O  O23  1  0.10409071  0.08851237  0.02457010  1
  O  O24  1  0.59012466  0.78205755  0.57433638  1
  O  O25  1  0.39721462  0.23773659  0.42025387  1
  O  O26  1  0.26797204  0.65074510  0.40878688  1
  O  O27  1  0.73508035  0.35606512  0.59141946  1
  O  O28  1  0.95013022  0.68642377  0.55514852  1
  O  O29  1  0.02610822  0.28141153  0.45034070  1
  O  O30  1  0.61341046  0.97360874  0.86952277  1
  O  O31  1  0.41089490  0.01777041  0.13043560  1
  O  O32  1  0.93349960  0.67775907  0.35459056  1
  O  O33  1  0.05987737  0.29491072  0.64894048  1
  O  O34  1  0.06539997  0.88287967  0.41100786  1
loop_
_geom_bond_atom_site_label_1
_geom_bond_atom_site_label_2
_geom_bond_distance
_geom_bond_site_symmetry_2
Na0 O31 2.240242 1_565
Na0 O20 2.252557 1_554
Na0 O0 2.369860 1_555
Na0 O2 2.462943 1_555
Na0 O18 2.548397 1_555
Na1 O30 2.227728 1_545
Na1 O21 2.261983 1_556
Na1 O1 2.390209 1_555
Na1 O3 2.468740 1_555
Na1 O19 2.556436 1_555
Na2 O24 2.324296 1_555
Na2 O13 2.342907 1_565
Na2 O32 2.435163 1_555
Na2 O10 2.442586 1_555
Na2 O26 2.775104 1_555
Na3 O12 2.256418 1_545
Na3 O25 2.275249 1_555
Na3 O33 2.399330 1_555
Na3 O6 2.468173 1_545
Na3 O7 2.639391 1_555
Na3 O11 2.744346 1_555
Na4 O9 2.270261 1_655
Na4 O2 2.375140 1_556
Na4 O20 2.393439 1_555
Na4 O15 2.477998 1_556
Na4 O1 2.512583 1_555
Na4 O16 2.664303 1_555
Na5 O8 2.257494 1_455
Na5 O21 2.378499 1_555
Na5 O3 2.382791 1_554
Na5 O0 2.439163 1_555
Na5 O14 2.442787 1_554
Na6 O22 2.359481 1_455
Na6 O6 2.368788 1_555
Na6 O16 2.492232 1_455
Na6 O4 2.537245 1_555
Na6 O30 2.585777 1_455
Na6 O19 2.634964 1_465
Na6 O12 2.739207 1_555
Na7 O23 2.372579 1_555
Na7 O17 2.432031 1_555
Na7 O18 2.470355 1_545
Na7 O34 2.485632 1_545
Na7 O13 2.720766 1_455
Na7 O5 2.814034 1_455
Na8 O28 2.227337 1_455
Na8 O4 2.321870 1_555
Na8 O11 2.346577 1_555
Na8 O9 2.406979 1_555
Na8 O26 2.419359 1_555
Na8 O33 2.777690 1_555
Na9 O10 2.308635 1_555
Na9 O8 2.346048 1_555
Na9 O32 2.357617 1_555
Na9 O5 2.365286 1_555
Na9 O29 2.385615 1_655
Na9 O27 2.496236 1_555
B0 O8 1.439873 1_555
B0 O15 1.464767 1_555
B0 O2 1.486943 1_555
B0 O10 1.507292 1_555
B1 O9 1.446754 1_555
B1 O14 1.462072 1_555
B1 O3 1.470678 1_555
B1 O11 1.515896 1_555
B2 O32 1.445186 1_455
B2 O28 1.469605 1_455
B2 O34 1.484273 1_555
B2 O26 1.498243 1_555
B3 O33 1.341248 1_655
B3 O29 1.376325 1_655
B3 O27 1.388405 1_555
B4 O10 1.367299 1_555
B4 O0 1.371080 1_555
B4 O26 1.373601 1_555
B5 O11 1.345389 1_555
B5 O1 1.360383 1_555
B5 O27 1.401486 1_555
B6 O28 1.367158 1_555
B6 O16 1.376521 1_555
B6 O24 1.379951 1_555
B7 O25 1.352640 1_555
B7 O17 1.353015 1_555
B7 O29 1.405456 1_555
B8 O32 1.444502 1_455
B8 O8 1.451103 1_455
B8 O0 1.505438 1_555
B8 O18 1.505772 1_555
B9 O9 1.430331 1_655
B9 O19 1.462164 1_555
B9 O1 1.503559 1_555
B9 O33 1.515952 1_655
B10 O12 1.448864 1_555
B10 O6 1.451477 1_555
B10 O24 1.488229 1_555
B10 O4 1.521739 1_555
B11 O13 1.447498 1_555
B11 O7 1.461796 1_555
B11 O5 1.489048 1_555
B11 O25 1.505935 1_555
B12 O22 1.364497 1_554
B12 O18 1.373705 1_655
B12 O2 1.376984 1_555
B13 O23 1.342187 1_556
B13 O3 1.387756 1_555
B13 O19 1.398675 1_455
B14 O12 1.428769 1_555
B14 O30 1.437936 1_555
B14 O16 1.509573 1_555
B14 O20 1.522183 1_555
B15 O31 1.430949 1_555
B15 O13 1.448356 1_555
B15 O21 1.520045 1_555
B15 O17 1.520687 1_555
B16 O14 1.372803 1_555
B16 O4 1.373102 1_555
B16 O20 1.377467 1_555
B17 O15 1.369264 1_555
B17 O5 1.374014 1_555
B17 O21 1.374807 1_555
H0 O30 0.982690 1_555
H0 Na6 2.317429 1_655
H1 O31 0.998570 1_555
H1 O23 1.635654 1_555
H1 Na7 2.336069 1_555
H1 Na0 2.374490 1_545
H2 O22 1.092737 1_455
H2 O23 1.340112 1_566
H3 O6 0.979642 1_555
H4 O7 0.971716 1_555
H5 O34 0.976950 1_655
H5 Na7 2.403626 1_665
