# generated using pymatgen
data_Pr2MgSe4
_symmetry_space_group_name_H-M   'P 1'
_cell_length_a   7.73346082
_cell_length_b   7.73346082
_cell_length_c   7.73346082
_cell_angle_alpha   110.95728243
_cell_angle_beta   110.95728243
_cell_angle_gamma   106.53831015
_symmetry_Int_Tables_number   1
_chemical_formula_structural   Pr2MgSe4
_chemical_formula_sum   'Pr4 Mg2 Se8'
_cell_volume   355.34564974
_cell_formula_units_Z   2
loop_
 _symmetry_equiv_pos_site_id
 _symmetry_equiv_pos_as_xyz
  1  'x, y, z'
loop_
 _atom_site_type_symbol
 _atom_site_label
 _atom_site_symmetry_multiplicity
 _atom_site_fract_x
 _atom_site_fract_y
 _atom_site_fract_z
 _atom_site_occupancy
  Pr  Pr0  1  0.87500000  0.75426500  0.37926500  1
  Pr  Pr1  1  0.50426500  0.12500000  0.87926500  1
  Pr  Pr2  1  0.37500000  0.49573500  0.62073500  1
  Pr  Pr3  1  0.24573500  0.62500000  0.12073500  1
  Mg  Mg0  1  0.00000000  0.00000000  0.00000000  1
  Mg  Mg1  1  0.75000000  0.25000000  0.50000000  1
  Se  Se0  1  0.50638400  0.37597800  0.26726500  1
  Se  Se1  1  0.76088100  0.49361600  0.86959400  1
  Se  Se2  1  0.10871300  0.23911900  0.73273500  1
  Se  Se3  1  0.62402200  0.89128700  0.13040600  1
  Se  Se4  1  0.24361600  0.01088100  0.36959400  1
  Se  Se5  1  0.98911900  0.35871300  0.23273500  1
  Se  Se6  1  0.64128700  0.87402200  0.63040600  1
  Se  Se7  1  0.12597800  0.75638400  0.76726500  1
loop_
_geom_bond_atom_site_label_1
_geom_bond_atom_site_label_2
_geom_bond_distance
_geom_bond_site_symmetry_2
Pr0 Se3 2.924309 1_555
Pr0 Se7 2.924309 1_655
Pr0 Se4 3.017988 1_665
Pr0 Se0 3.017988 1_555
Pr0 Se2 3.173944 1_665
Pr0 Se6 3.173944 1_555
Pr0 Se1 3.345602 1_554
Pr0 Se5 3.345602 1_555
Pr1 Se6 2.924309 1_545
Pr1 Se0 2.924309 1_556
Pr1 Se1 3.017988 1_555
Pr1 Se7 3.017988 1_545
Pr1 Se5 3.173944 1_556
Pr1 Se3 3.173944 1_546
Pr1 Se4 3.345602 1_555
Pr1 Se2 3.345602 1_555
Pr2 Se1 2.924309 1_555
Pr2 Se5 2.924309 1_455
Pr2 Se6 3.017988 1_555
Pr2 Se2 3.017988 1_555
Pr2 Se0 3.173944 1_555
Pr2 Se4 3.173944 1_555
Pr2 Se7 3.345602 1_555
Pr2 Se3 3.345602 1_556
Pr3 Se4 2.924309 1_565
Pr3 Se2 2.924309 1_554
Pr3 Se5 3.017988 1_455
Pr3 Se3 3.017988 1_555
Pr3 Se7 3.173944 1_554
Pr3 Se1 3.173944 1_454
Pr3 Se6 3.345602 1_555
Pr3 Se0 3.345602 1_555
Mg0 Se4 2.758929 1_555
Mg0 Se5 2.758929 1_455
Mg0 Se7 2.758929 1_544
Mg0 Se6 2.758929 1_444
Mg1 Se2 2.758929 1_655
Mg1 Se0 2.758929 1_555
Mg1 Se3 2.758929 1_545
Mg1 Se1 2.758929 1_555
