# generated using pymatgen
data_Ce2(N2O9)3
_symmetry_space_group_name_H-M   'P 1'
_cell_length_a   9.11949400
_cell_length_b   8.81750500
_cell_length_c   16.10201819
_cell_angle_alpha   74.95994564
_cell_angle_beta   90.00000000
_cell_angle_gamma   90.00000000
_symmetry_Int_Tables_number   1
_chemical_formula_structural   Ce2(N2O9)3
_chemical_formula_sum   'Ce4 N12 O54'
_cell_volume   1250.42913040
_cell_formula_units_Z   2
loop_
 _symmetry_equiv_pos_site_id
 _symmetry_equiv_pos_as_xyz
  1  'x, y, z'
loop_
 _atom_site_type_symbol
 _atom_site_label
 _atom_site_symmetry_multiplicity
 _atom_site_fract_x
 _atom_site_fract_y
 _atom_site_fract_z
 _atom_site_occupancy
  Ce  Ce0  1  0.53116300  0.36476300  0.91515900  1
  Ce  Ce1  1  0.03116300  0.63523700  0.58484100  1
  Ce  Ce2  1  0.46883700  0.63523700  0.08484100  1
  Ce  Ce3  1  0.96883700  0.36476300  0.41515900  1
  N  N0  1  0.74249000  0.21285300  0.04296900  1
  N  N1  1  0.24249000  0.78714700  0.45703100  1
  N  N2  1  0.25751000  0.78714700  0.95703100  1
  N  N3  1  0.75751000  0.21285300  0.54296900  1
  N  N4  1  0.59763300  0.66652200  0.80336800  1
  N  N5  1  0.09763300  0.33347800  0.69663200  1
  N  N6  1  0.40236700  0.33347800  0.19663200  1
  N  N7  1  0.90236700  0.66652200  0.30336800  1
  N  N8  1  0.22527000  0.27461100  0.93975100  1
  N  N9  1  0.72527000  0.72538900  0.56024900  1
  N  N10  1  0.77473000  0.72538900  0.06024900  1
  N  N11  1  0.27473000  0.27461100  0.43975100  1
  O  O0  1  0.62103300  0.14584800  0.02692400  1
  O  O1  1  0.12103300  0.85415200  0.47307600  1
  O  O2  1  0.37896700  0.85415200  0.97307600  1
  O  O3  1  0.87896700  0.14584800  0.52692400  1
  O  O4  1  0.77257700  0.34298500  0.98700600  1
  O  O5  1  0.27257700  0.65701500  0.51299400  1
  O  O6  1  0.22742300  0.65701500  0.01299400  1
  O  O7  1  0.72742300  0.34298500  0.48700600  1
  O  O8  1  0.81748500  0.15702400  0.10589500  1
  O  O9  1  0.31748500  0.84297600  0.39410500  1
  O  O10  1  0.18251500  0.84297600  0.89410500  1
  O  O11  1  0.68251500  0.15702400  0.60589500  1
  O  O12  1  0.69941700  0.56747500  0.83899300  1
  O  O13  1  0.19941700  0.43252500  0.66100700  1
  O  O14  1  0.30058300  0.43252500  0.16100700  1
  O  O15  1  0.80058300  0.56747500  0.33899300  1
  O  O16  1  0.46754000  0.60480500  0.80672400  1
  O  O17  1  0.96754000  0.39519500  0.69327600  1
  O  O18  1  0.53246000  0.39519500  0.19327600  1
  O  O19  1  0.03246000  0.60480500  0.30672400  1
  O  O20  1  0.62141900  0.80509200  0.77148800  1
  O  O21  1  0.12141900  0.19490800  0.72851200  1
  O  O22  1  0.37858100  0.19490800  0.22851200  1
  O  O23  1  0.87858100  0.80509200  0.27148800  1
  O  O24  1  0.32994300  0.20719900  0.99129800  1
  O  O25  1  0.82994300  0.79280100  0.50870200  1
  O  O26  1  0.67005700  0.79280100  0.00870200  1
  O  O27  1  0.17005700  0.20719900  0.49129800  1
  O  O28  1  0.27200500  0.37681400  0.87113100  1
  O  O29  1  0.77200500  0.62318600  0.62886900  1
  O  O30  1  0.72799500  0.62318600  0.12886900  1
  O  O31  1  0.22799500  0.37681400  0.37113100  1
  O  O32  1  0.09647300  0.24532900  0.95456700  1
  O  O33  1  0.59647300  0.75467100  0.54543300  1
  O  O34  1  0.90352700  0.75467100  0.04543300  1
  O  O35  1  0.40352700  0.24532900  0.45456700  1
  O  O36  1  0.50000000  0.50000000  0.00000000  1
  O  O37  1  0.00000000  0.50000000  0.50000000  1
  O  O38  1  0.46355000  0.15276000  0.77899800  1
  O  O39  1  0.96355000  0.84724000  0.72100200  1
  O  O40  1  0.53645000  0.84724000  0.22100200  1
  O  O41  1  0.03645000  0.15276000  0.27899800  1
  O  O42  1  0.49826200  0.28406600  0.73393600  1
  O  O43  1  0.99826200  0.71593400  0.76606400  1
  O  O44  1  0.50173800  0.71593400  0.26606400  1
  O  O45  1  0.00173800  0.28406600  0.23393600  1
  O  O46  1  0.76415400  0.15196300  0.82904800  1
  O  O47  1  0.26415400  0.84803700  0.67095200  1
  O  O48  1  0.23584600  0.84803700  0.17095200  1
  O  O49  1  0.73584600  0.15196300  0.32904800  1
  O  O50  1  0.34000400  0.96364800  0.67029300  1
  O  O51  1  0.84000400  0.03635200  0.82970700  1
  O  O52  1  0.65999600  0.03635200  0.32970700  1
  O  O53  1  0.15999600  0.96364800  0.17029300  1
loop_
_geom_bond_atom_site_label_1
_geom_bond_atom_site_label_2
_geom_bond_distance
_geom_bond_site_symmetry_2
Ce0 O36 2.052904 1_556
Ce0 O0 2.415270 1_556
Ce0 O12 2.432208 1_555
Ce0 O24 2.432405 1_555
Ce0 O16 2.438678 1_555
Ce0 O28 2.461788 1_555
Ce0 O4 2.471210 1_555
Ce1 O37 2.052904 1_555
Ce1 O1 2.415270 1_555
Ce1 O13 2.432208 1_555
Ce1 O25 2.432405 1_455
Ce1 O17 2.438678 1_455
Ce1 O29 2.461788 1_455
Ce1 O5 2.471210 1_555
Ce2 O36 2.052904 1_555
Ce2 O2 2.415270 1_554
Ce2 O14 2.432208 1_555
Ce2 O26 2.432405 1_555
Ce2 O18 2.438678 1_555
Ce2 O30 2.461788 1_555
Ce2 O6 2.471210 1_555
Ce3 O37 2.052904 1_655
Ce3 O3 2.415270 1_555
Ce3 O15 2.432208 1_555
Ce3 O27 2.432405 1_655
Ce3 O19 2.438678 1_655
Ce3 O31 2.461788 1_655
Ce3 O7 2.471210 1_555
N0 O8 1.215671 1_555
N0 O4 1.291236 1_554
N0 O0 1.312200 1_555
N1 O9 1.215671 1_555
N1 O5 1.291236 1_555
N1 O1 1.312200 1_555
N2 O10 1.215671 1_555
N2 O6 1.291236 1_556
N2 O2 1.312200 1_555
N3 O11 1.215671 1_555
N3 O7 1.291236 1_555
N3 O3 1.312200 1_555
N4 O20 1.215707 1_555
N4 O16 1.300501 1_555
N4 O12 1.301299 1_555
N5 O21 1.215707 1_555
N5 O17 1.300501 1_455
N5 O13 1.301299 1_555
N6 O22 1.215707 1_555
N6 O18 1.300501 1_555
N6 O14 1.301299 1_555
N7 O23 1.215707 1_555
N7 O19 1.300501 1_655
N7 O15 1.301299 1_555
N8 O32 1.212934 1_555
N8 O24 1.302835 1_555
N8 O28 1.303013 1_555
N9 O33 1.212934 1_555
N9 O25 1.302835 1_555
N9 O29 1.303013 1_555
N10 O34 1.212934 1_555
N10 O26 1.302835 1_555
N10 O30 1.303013 1_555
N11 O35 1.212934 1_555
N11 O27 1.302835 1_555
N11 O31 1.303013 1_555
O38 O42 1.237407 1_555
O39 O43 1.237407 1_555
O40 O44 1.237407 1_555
O41 O45 1.237407 1_555
O46 O51 1.229693 1_555
O47 O50 1.229693 1_555
O48 O53 1.229693 1_555
O49 O52 1.229693 1_555
