# generated using pymatgen
data_ZrAs
_symmetry_space_group_name_H-M   'P 1'
_cell_length_a   3.83287042
_cell_length_b   3.83287167
_cell_length_c   12.89540899
_cell_angle_alpha   90.00000000
_cell_angle_beta   90.00000000
_cell_angle_gamma   119.99999818
_symmetry_Int_Tables_number   1
_chemical_formula_structural   ZrAs
_chemical_formula_sum   'Zr4 As4'
_cell_volume   164.06433252
_cell_formula_units_Z   4
loop_
 _symmetry_equiv_pos_site_id
 _symmetry_equiv_pos_as_xyz
  1  'x, y, z'
loop_
 _atom_site_type_symbol
 _atom_site_label
 _atom_site_symmetry_multiplicity
 _atom_site_fract_x
 _atom_site_fract_y
 _atom_site_fract_z
 _atom_site_occupancy
  Zr  Zr0  1  0.33333300  0.66666700  0.11654335  1
  Zr  Zr1  1  0.66666700  0.33333300  0.61654335  1
  Zr  Zr2  1  0.66666700  0.33333300  0.88345665  1
  Zr  Zr3  1  0.33333300  0.66666700  0.38345665  1
  As  As0  1  0.00000000  0.00000000  -0.00000000  1
  As  As1  1  0.00000000  0.00000000  0.50000000  1
  As  As2  1  0.33333300  0.66666700  0.75000000  1
  As  As3  1  0.66666700  0.33333300  0.25000000  1
loop_
_geom_bond_atom_site_label_1
_geom_bond_atom_site_label_2
_geom_bond_distance
_geom_bond_site_symmetry_2
As0 Zr0 2.674993 1_545
As0 Zr2 2.674993 1_454
As0 Zr0 2.674996 1_445
As0 Zr2 2.674996 1_554
As0 Zr0 2.674996 1_555
As0 Zr2 2.674996 1_444
As1 Zr3 2.674993 1_545
As1 Zr1 2.674993 1_455
As1 Zr3 2.674996 1_445
As1 Zr1 2.674996 1_555
As1 Zr3 2.674996 1_555
As1 Zr1 2.674996 1_445
As2 Zr1 2.803341 1_455
As2 Zr2 2.803341 1_455
As2 Zr1 2.803342 1_565
As2 Zr2 2.803342 1_565
As2 Zr2 2.803347 1_555
As2 Zr1 2.803347 1_555
As3 Zr0 2.803341 1_655
As3 Zr3 2.803341 1_655
As3 Zr3 2.803342 1_545
As3 Zr0 2.803342 1_545
As3 Zr3 2.803347 1_555
As3 Zr0 2.803347 1_555
