# generated using pymatgen
data_Al4Si2H(O3F)3
_symmetry_space_group_name_H-M   'P 1'
_cell_length_a   4.73400603
_cell_length_b   8.48965233
_cell_length_c   8.92983500
_cell_angle_alpha   90.00000000
_cell_angle_beta   90.00000000
_cell_angle_gamma   90.13424769
_symmetry_Int_Tables_number   1
_chemical_formula_structural   Al4Si2H(O3F)3
_chemical_formula_sum   'Al8 Si4 H2 O18 F6'
_cell_volume   358.88966670
_cell_formula_units_Z   2
loop_
 _symmetry_equiv_pos_site_id
 _symmetry_equiv_pos_as_xyz
  1  'x, y, z'
loop_
 _atom_site_type_symbol
 _atom_site_label
 _atom_site_symmetry_multiplicity
 _atom_site_fract_x
 _atom_site_fract_y
 _atom_site_fract_z
 _atom_site_occupancy
  Al  Al0  1  0.09166900  0.58296000  0.86821500  1
  Al  Al1  1  0.09587500  0.92047000  0.86975300  1
  Al  Al2  1  0.40282500  0.58355500  0.36796300  1
  Al  Al3  1  0.40313200  0.91841000  0.36857900  1
  Al  Al4  1  0.59166900  0.08296000  0.63178500  1
  Al  Al5  1  0.59587500  0.42047000  0.63024700  1
  Al  Al6  1  0.90282500  0.08355500  0.13203700  1
  Al  Al7  1  0.90313200  0.41841000  0.13142100  1
  Si  Si0  1  0.10129300  0.25041300  0.43959400  1
  Si  Si1  1  0.39845400  0.25082600  0.94281100  1
  Si  Si2  1  0.60129300  0.75041300  0.06040600  1
  Si  Si3  1  0.89845400  0.75082600  0.55718900  1
  H  H0  1  0.47875000  0.83303900  0.73423300  1
  H  H1  1  0.97875000  0.33303900  0.76576700  1
  O  O0  1  0.03610200  0.25120300  0.25709100  1
  O  O1  1  0.20363900  0.75064700  0.46697200  1
  O  O2  1  0.20653200  0.09517100  0.99149600  1
  O  O3  1  0.21099300  0.40809900  0.99084400  1
  O  O4  1  0.29202700  0.09444700  0.48641500  1
  O  O5  1  0.29183100  0.40755500  0.48810200  1
  O  O6  1  0.29658200  0.74869200  0.96754600  1
  O  O7  1  0.40416000  0.93838100  0.74795700  1
  O  O8  1  0.44882300  0.25092500  0.75781700  1
  O  O9  1  0.53610200  0.75120300  0.24290900  1
  O  O10  1  0.70363900  0.25064700  0.03302800  1
  O  O11  1  0.70653200  0.59517100  0.50850400  1
  O  O12  1  0.71099300  0.90809900  0.50915600  1
  O  O13  1  0.79202700  0.59444700  0.01358500  1
  O  O14  1  0.79183100  0.90755500  0.01189800  1
  O  O15  1  0.79658200  0.24869200  0.53245400  1
  O  O16  1  0.90416000  0.43838100  0.75204300  1
  O  O17  1  0.94882300  0.75092500  0.74218300  1
  F  F0  1  0.09581700  0.94492500  0.24927000  1
  F  F1  1  0.09601600  0.55619000  0.24973400  1
  F  F2  1  0.40547900  0.56409200  0.74707800  1
  F  F3  1  0.59601600  0.05619000  0.25026600  1
  F  F4  1  0.59581700  0.44492500  0.25073000  1
  F  F5  1  0.90547900  0.06409200  0.75292200  1
loop_
_geom_bond_atom_site_label_1
_geom_bond_atom_site_label_2
_geom_bond_distance
_geom_bond_site_symmetry_2
Al0 O16 1.834561 1_455
Al0 F2 1.844956 1_555
Al0 O6 1.923818 1_555
Al0 O13 1.925477 1_456
Al0 O3 1.930268 1_555
Al0 O17 1.939539 1_455
Al1 O7 1.826174 1_555
Al1 F5 1.841925 1_465
Al1 O2 1.911125 1_565
Al1 O14 1.922031 1_456
Al1 O6 1.949007 1_555
Al1 O17 1.962004 1_455
Al2 F1 1.810138 1_555
Al2 F4 1.822315 1_555
Al2 O11 1.910820 1_555
Al2 O5 1.912049 1_555
Al2 O9 1.914842 1_555
Al2 O1 1.920782 1_555
Al3 F0 1.817646 1_555
Al3 F3 1.820221 1_565
Al3 O4 1.902914 1_565
Al3 O9 1.916992 1_555
Al3 O1 1.919915 1_555
Al3 O12 1.925662 1_555
Al4 O7 1.834561 1_545
Al4 F5 1.844956 1_555
Al4 O15 1.923818 1_555
Al4 O4 1.925477 1_555
Al4 O12 1.930268 1_545
Al4 O8 1.939539 1_555
Al5 O16 1.826174 1_555
Al5 F2 1.841925 1_555
Al5 O11 1.911125 1_555
Al5 O5 1.922031 1_555
Al5 O15 1.949007 1_555
Al5 O8 1.962004 1_555
Al6 F3 1.810138 1_555
Al6 F0 1.822315 1_645
Al6 O2 1.910820 1_654
Al6 O14 1.912049 1_545
Al6 O0 1.914842 1_655
Al6 O10 1.920782 1_555
Al7 F4 1.817646 1_555
Al7 F1 1.820221 1_655
Al7 O13 1.902914 1_555
Al7 O0 1.916992 1_655
Al7 O10 1.919915 1_555
Al7 O3 1.925662 1_654
H0 O7 0.970045 1_555
H1 O16 0.970045 1_555
O0 Si0 1.658701 1_555
O1 Si3 1.654188 1_455
O2 Si1 1.659852 1_555
O3 Si1 1.661272 1_555
O4 Si0 1.657993 1_555
O5 Si0 1.665949 1_555
O6 Si2 1.663894 1_556
O8 Si1 1.669086 1_555
O9 Si2 1.658701 1_555
O10 Si1 1.654188 1_554
O11 Si3 1.659852 1_555
O12 Si3 1.661272 1_555
O13 Si2 1.657993 1_555
O14 Si2 1.665949 1_555
O15 Si0 1.663894 1_655
O17 Si3 1.669086 1_555
