# generated using pymatgen
data_Mg6Si5
_symmetry_space_group_name_H-M   'P 1'
_cell_length_a   5.34413900
_cell_length_b   6.28603701
_cell_length_c   13.40212434
_cell_angle_alpha   95.74511119
_cell_angle_beta   101.35241382
_cell_angle_gamma   90.10226777
_symmetry_Int_Tables_number   1
_chemical_formula_structural   Mg6Si5
_chemical_formula_sum   'Mg12 Si10'
_cell_volume   439.09126213
_cell_formula_units_Z   2
loop_
 _symmetry_equiv_pos_site_id
 _symmetry_equiv_pos_as_xyz
  1  'x, y, z'
loop_
 _atom_site_type_symbol
 _atom_site_label
 _atom_site_symmetry_multiplicity
 _atom_site_fract_x
 _atom_site_fract_y
 _atom_site_fract_z
 _atom_site_occupancy
  Mg  Mg0  1  0.31949200  0.20513600  0.98512100  1
  Mg  Mg1  1  0.16578600  0.20918700  0.51113100  1
  Mg  Mg2  1  0.83526900  0.63321000  0.67344200  1
  Mg  Mg3  1  0.12687900  0.92361800  0.31346100  1
  Mg  Mg4  1  0.28140000  0.52100800  0.19245500  1
  Mg  Mg5  1  0.65886500  0.91362600  0.86643000  1
  Mg  Mg6  1  0.70816600  0.13483000  0.64866300  1
  Mg  Mg7  1  0.61513400  0.46375500  0.42741300  1
  Mg  Mg8  1  0.87208900  0.20154700  0.07868200  1
  Mg  Mg9  1  0.67054600  0.42675400  0.87489900  1
  Mg  Mg10  1  0.18384700  0.68134400  0.95320100  1
  Mg  Mg11  1  0.73166200  0.72287000  0.09290000  1
  Si  Si0  1  0.62504700  0.03175100  0.43147000  1
  Si  Si1  1  0.94944200  0.79218800  0.50298600  1
  Si  Si2  1  0.12181000  0.96847800  0.79742500  1
  Si  Si3  1  0.65227800  0.08487000  0.25597100  1
  Si  Si4  1  0.11144000  0.53174600  0.38647400  1
  Si  Si5  1  0.36732200  0.46619400  0.67976400  1
  Si  Si6  1  0.12153400  0.35363400  0.79758200  1
  Si  Si7  1  0.78073500  0.45293100  0.24016100  1
  Si  Si8  1  0.28790500  0.93671700  0.13249800  1
  Si  Si9  1  0.31319100  0.84093500  0.65428300  1
loop_
_geom_bond_atom_site_label_1
_geom_bond_atom_site_label_2
_geom_bond_distance
_geom_bond_site_symmetry_2
Mg0 Si8 2.752125 1_546
Mg0 Si6 2.781055 1_555
Mg0 Si2 2.802849 1_545
Mg1 Si5 2.679983 1_555
Mg1 Si4 2.734226 1_555
Mg1 Si1 2.846387 1_445
Mg1 Si0 3.034912 1_555
Mg1 Si0 3.044702 1_455
Mg1 Si9 3.156030 1_545
Mg2 Si5 2.730408 1_555
Mg2 Si1 2.755618 1_555
Mg2 Si6 2.791045 1_655
Mg2 Si2 2.798784 1_655
Mg2 Si9 2.933888 1_655
Mg2 Si5 3.021217 1_655
Mg2 Si9 3.058345 1_555
Mg3 Si3 2.729522 1_465
Mg3 Si8 2.736918 1_555
Mg3 Si4 2.746985 1_555
Mg3 Si0 2.858634 1_565
Mg3 Si1 3.065794 1_455
Mg4 Si7 2.664593 1_555
Mg4 Si8 2.811866 1_555
Mg4 Si7 2.911192 1_455
Mg4 Si4 2.913043 1_555
Mg5 Si2 2.838418 1_655
Mg5 Si2 2.869501 1_555
Mg5 Si9 3.061768 1_555
Mg6 Si9 2.819698 1_545
Mg6 Si5 2.822949 1_555
Mg6 Si0 2.864005 1_555
Mg6 Si6 2.908438 1_655
Mg6 Si2 2.940342 1_645
Mg6 Si1 3.205087 1_545
Mg7 Si4 2.683126 1_555
Mg7 Si1 2.708483 1_555
Mg7 Si0 2.721975 1_555
Mg7 Si7 2.815351 1_555
Mg7 Si4 2.852080 1_655
Mg8 Si7 2.674517 1_555
Mg8 Si8 2.802181 1_645
Mg8 Si3 3.001352 1_555
Mg9 Si6 2.825878 1_655
Mg9 Si5 2.826593 1_555
Mg9 Si6 2.931939 1_555
Mg10 Si8 2.712721 1_556
Mg10 Si6 2.751050 1_555
Mg10 Si2 2.865377 1_555
Mg11 Si7 2.703978 1_555
Mg11 Si8 2.841951 1_555
Mg11 Si8 3.185448 1_655
Si0 Si1 2.415770 1_545
Si0 Si3 2.440629 1_555
Si1 Si4 2.427658 1_655
Si1 Si9 2.511175 1_655
Si2 Si9 2.415899 1_555
Si2 Si6 2.420898 1_565
Si3 Si8 2.411203 1_545
Si3 Si7 2.453337 1_555
Si4 Si7 2.377414 1_455
Si5 Si6 2.399199 1_555
Si5 Si9 2.423618 1_555
