# generated using pymatgen
data_LaCoAsO
_symmetry_space_group_name_H-M   'P 1'
_cell_length_a   4.10517700
_cell_length_b   4.10517700
_cell_length_c   8.24037200
_cell_angle_alpha   90.00000000
_cell_angle_beta   90.00000000
_cell_angle_gamma   90.00000000
_symmetry_Int_Tables_number   1
_chemical_formula_structural   LaCoAsO
_chemical_formula_sum   'La2 Co2 As2 O2'
_cell_volume   138.87068950
_cell_formula_units_Z   2
loop_
 _symmetry_equiv_pos_site_id
 _symmetry_equiv_pos_as_xyz
  1  'x, y, z'
loop_
 _atom_site_type_symbol
 _atom_site_label
 _atom_site_symmetry_multiplicity
 _atom_site_fract_x
 _atom_site_fract_y
 _atom_site_fract_z
 _atom_site_occupancy
  La  La0  1  0.00000000  0.50000000  0.85260900  1
  La  La1  1  0.50000000  0.00000000  0.14739100  1
  Co  Co0  1  0.00000000  0.00000000  0.50000000  1
  Co  Co1  1  0.50000000  0.50000000  0.50000000  1
  As  As0  1  0.00000000  0.50000000  0.36918000  1
  As  As1  1  0.50000000  0.00000000  0.63082000  1
  O  O0  1  0.00000000  0.00000000  0.00000000  1
  O  O1  1  0.50000000  0.50000000  0.00000000  1
loop_
_geom_bond_atom_site_label_1
_geom_bond_atom_site_label_2
_geom_bond_distance
_geom_bond_site_symmetry_2
La0 O1 2.385009 1_456
La0 O0 2.385009 1_556
La0 O0 2.385009 1_566
La0 O1 2.385009 1_556
La1 O1 2.385009 1_545
La1 O1 2.385009 1_555
La1 O0 2.385009 1_555
La1 O0 2.385009 1_655
As0 Co0 2.318451 1_565
As0 Co1 2.318451 1_555
As0 Co0 2.318451 1_555
As0 Co1 2.318451 1_455
As1 Co1 2.318451 1_545
As1 Co1 2.318451 1_555
As1 Co0 2.318451 1_555
As1 Co0 2.318451 1_655
