# generated using pymatgen
data_Mg14NbBi
_symmetry_space_group_name_H-M   'P 1'
_cell_length_a   6.37184209
_cell_length_b   6.32026746
_cell_length_c   10.31497905
_cell_angle_alpha   90.00000000
_cell_angle_beta   90.00000000
_cell_angle_gamma   119.73261239
_symmetry_Int_Tables_number   1
_chemical_formula_structural   Mg14NbBi
_chemical_formula_sum   'Mg14 Nb1 Bi1'
_cell_volume   360.71425133
_cell_formula_units_Z   1
loop_
 _symmetry_equiv_pos_site_id
 _symmetry_equiv_pos_as_xyz
  1  'x, y, z'
loop_
 _atom_site_type_symbol
 _atom_site_label
 _atom_site_symmetry_multiplicity
 _atom_site_fract_x
 _atom_site_fract_y
 _atom_site_fract_z
 _atom_site_occupancy
  Mg  Mg0  1  0.16610827  0.33305363  0.62500000  1
  Mg  Mg1  1  0.16713715  0.83356808  0.62500000  1
  Mg  Mg2  1  0.66751372  0.33230705  0.12500000  1
  Mg  Mg3  1  0.66614282  0.33231102  0.62500000  1
  Mg  Mg4  1  0.66751372  0.83520568  0.12500000  1
  Mg  Mg5  1  0.66614282  0.83383080  0.62500000  1
  Mg  Mg6  1  0.33270883  0.17343555  0.37489676  1
  Mg  Mg7  1  0.33270883  0.17343555  0.87510324  1
  Mg  Mg8  1  0.33270883  0.65927428  0.37489676  1
  Mg  Mg9  1  0.33270883  0.65927428  0.87510324  1
  Mg  Mg10  1  0.84029249  0.17014675  0.37172212  1
  Mg  Mg11  1  0.84029249  0.17014675  0.87827788  1
  Mg  Mg12  1  0.82826255  0.66413177  0.38013839  1
  Mg  Mg13  1  0.82826255  0.66413177  0.86986161  1
  Nb  Nb0  1  0.17159068  0.33579484  0.12500000  1
  Bi  Bi0  1  0.15990543  0.82995221  0.12500000  1
loop_
_geom_bond_atom_site_label_1
_geom_bond_atom_site_label_2
_geom_bond_distance
_geom_bond_site_symmetry_2
Mg0 Mg6 3.140431 1_555
Mg0 Mg7 3.140431 1_555
Mg0 Mg8 3.140437 1_555
Mg0 Mg9 3.140437 1_555
Mg0 Mg1 3.160139 1_545
Mg0 Mg1 3.160139 1_555
Mg0 Mg10 3.174161 1_455
Mg0 Mg11 3.174161 1_455
Mg0 Mg5 3.183375 1_445
Mg0 Mg3 3.183376 1_455
Mg0 Mg5 3.188471 1_555
Mg0 Mg3 3.188472 1_555
Mg1 Mg12 3.145625 1_455
Mg1 Mg13 3.145625 1_455
Mg1 Mg3 3.178762 1_565
Mg1 Mg5 3.178762 1_555
Mg1 Mg8 3.183502 1_555
Mg1 Mg9 3.183502 1_555
Mg1 Mg6 3.183508 1_565
Mg1 Mg7 3.183508 1_565
Mg1 Mg3 3.193080 1_455
Mg1 Mg5 3.193081 1_455
Mg2 Mg4 3.141814 1_545
Mg2 Nb0 3.170934 1_555
Mg2 Mg7 3.174742 1_554
Mg2 Mg6 3.174742 1_555
Mg2 Mg4 3.178454 1_555
Mg2 Nb0 3.201023 1_655
Mg3 Mg5 3.150528 1_545
Mg3 Mg5 3.169739 1_555
Mg3 Mg6 3.171983 1_555
Mg3 Mg7 3.171983 1_555
Mg4 Nb0 3.170934 1_555
Mg4 Mg9 3.174742 1_554
Mg4 Mg8 3.174742 1_555
Mg4 Nb0 3.201023 1_665
Mg5 Mg8 3.171983 1_555
Mg5 Mg9 3.171983 1_555
Mg6 Mg8 3.070631 1_555
Mg6 Nb0 3.129907 1_555
Mg6 Mg8 3.249637 1_545
Mg7 Mg9 3.070631 1_555
Mg7 Nb0 3.129907 1_556
Mg7 Mg9 3.249637 1_545
Mg8 Nb0 3.129913 1_555
Mg9 Nb0 3.129913 1_556
Mg10 Mg8 3.127513 1_655
Mg10 Mg6 3.127514 1_655
Mg10 Nb0 3.136371 1_655
Mg10 Mg2 3.139796 1_555
Mg10 Mg4 3.139802 1_545
Mg10 Mg12 3.162027 1_555
Mg10 Mg12 3.162027 1_545
Mg10 Mg3 3.199273 1_555
Mg10 Mg5 3.199279 1_545
Mg10 Mg8 3.244767 1_545
Mg10 Mg6 3.244767 1_555
Mg11 Mg9 3.127513 1_655
Mg11 Mg7 3.127514 1_655
Mg11 Nb0 3.136371 1_656
Mg11 Mg2 3.139796 1_556
Mg11 Mg4 3.139802 1_546
Mg11 Mg13 3.162027 1_555
Mg11 Mg13 3.162027 1_545
Mg11 Mg3 3.199273 1_555
Mg11 Mg5 3.199279 1_545
Mg11 Mg9 3.244767 1_545
Mg11 Mg7 3.244767 1_555
Mg12 Mg5 3.113806 1_555
Mg12 Mg3 3.113812 1_555
Mg12 Mg6 3.142942 1_555
Mg12 Mg8 3.142942 1_555
Mg12 Mg4 3.200435 1_555
Mg12 Mg2 3.200441 1_555
Mg12 Mg6 3.230040 1_665
Mg12 Mg8 3.230041 1_655
Mg13 Mg5 3.113806 1_555
Mg13 Mg3 3.113812 1_555
Mg13 Mg7 3.142942 1_555
Mg13 Mg9 3.142942 1_555
Mg13 Mg4 3.200435 1_556
Mg13 Mg2 3.200441 1_556
Mg13 Mg7 3.230040 1_665
Mg13 Mg9 3.230041 1_655
Bi0 Mg2 3.154041 1_455
Bi0 Mg4 3.154041 1_455
Bi0 Nb0 3.160795 1_555
Bi0 Nb0 3.160795 1_565
Bi0 Mg9 3.193526 1_554
Bi0 Mg8 3.193526 1_555
Bi0 Mg7 3.193533 1_564
Bi0 Mg6 3.193533 1_565
Bi0 Mg13 3.208306 1_454
Bi0 Mg12 3.208306 1_455
Bi0 Mg2 3.218062 1_565
Bi0 Mg4 3.218062 1_555
