# generated using pymatgen
data_DyMn2O5
_symmetry_space_group_name_H-M   'P 1'
_cell_length_a   5.67925258
_cell_length_b   7.23778676
_cell_length_c   8.47219179
_cell_angle_alpha   90.00000000
_cell_angle_beta   90.00000000
_cell_angle_gamma   90.00000000
_symmetry_Int_Tables_number   1
_chemical_formula_structural   DyMn2O5
_chemical_formula_sum   'Dy4 Mn8 O20'
_cell_volume   348.25130004
_cell_formula_units_Z   4
loop_
 _symmetry_equiv_pos_site_id
 _symmetry_equiv_pos_as_xyz
  1  'x, y, z'
loop_
 _atom_site_type_symbol
 _atom_site_label
 _atom_site_symmetry_multiplicity
 _atom_site_fract_x
 _atom_site_fract_y
 _atom_site_fract_z
 _atom_site_occupancy
  Dy  Dy0  1  0.00000000  0.36278404  0.67109377  1
  Dy  Dy1  1  0.00000000  0.63721596  0.32890623  1
  Dy  Dy2  1  0.00000000  0.86278404  0.82890623  1
  Dy  Dy3  1  0.00000000  0.13721596  0.17109377  1
  Mn  Mn0  1  0.50000000  0.08807322  0.84918116  1
  Mn  Mn1  1  0.50000000  0.91192678  0.15081884  1
  Mn  Mn2  1  0.50000000  0.58807322  0.65081884  1
  Mn  Mn3  1  0.50000000  0.41192678  0.34918116  1
  Mn  Mn4  1  0.25409818  0.50000000  -0.00000000  1
  Mn  Mn5  1  0.74590182  -0.00000000  0.50000000  1
  Mn  Mn6  1  0.74590182  0.50000000  -0.00000000  1
  Mn  Mn7  1  0.25409818  -0.00000000  0.50000000  1
  O  O0  1  0.24354313  0.89414873  0.29362880  1
  O  O1  1  0.24354313  0.10585127  0.70637120  1
  O  O2  1  0.75645687  0.39414873  0.20637120  1
  O  O3  1  0.75645687  0.60585127  0.79362880  1
  O  O4  1  0.75645687  0.10585127  0.70637120  1
  O  O5  1  0.75645687  0.89414873  0.29362880  1
  O  O6  1  0.24354313  0.60585127  0.79362880  1
  O  O7  1  0.24354313  0.39414873  0.20637120  1
  O  O8  1  0.50000000  0.34691009  0.93315314  1
  O  O9  1  0.50000000  0.65308991  0.06684686  1
  O  O10  1  0.50000000  0.84691009  0.56684686  1
  O  O11  1  0.50000000  0.15308991  0.43315314  1
  O  O12  1  0.27152298  -0.00000000  -0.00000000  1
  O  O13  1  0.72847702  0.50000000  0.50000000  1
  O  O14  1  0.72847702  -0.00000000  -0.00000000  1
  O  O15  1  0.27152298  0.50000000  0.50000000  1
  O  O16  1  0.00000000  0.16339484  0.44372832  1
  O  O17  1  0.00000000  0.83660516  0.55627168  1
  O  O18  1  0.00000000  0.66339484  0.05627168  1
  O  O19  1  0.00000000  0.33660516  0.94372832  1
loop_
_geom_bond_atom_site_label_1
_geom_bond_atom_site_label_2
_geom_bond_distance
_geom_bond_site_symmetry_2
Dy0 O19 2.317571 1_555
Dy0 O4 2.336796 1_455
Dy0 O1 2.336796 1_555
Dy0 O15 2.337820 1_555
Dy0 O13 2.337820 1_455
Dy0 O16 2.406909 1_555
Dy0 O3 2.466951 1_455
Dy0 O6 2.466951 1_555
Dy1 O18 2.317571 1_555
Dy1 O5 2.336796 1_455
Dy1 O0 2.336796 1_555
Dy1 O15 2.337820 1_555
Dy1 O13 2.337820 1_455
Dy1 O17 2.406909 1_555
Dy1 O2 2.466951 1_455
Dy1 O7 2.466951 1_555
Dy2 O17 2.317571 1_555
Dy2 O3 2.336796 1_455
Dy2 O6 2.336796 1_555
Dy2 O14 2.337820 1_466
Dy2 O12 2.337820 1_566
Dy2 O18 2.406909 1_556
Dy2 O1 2.466951 1_565
Dy2 O4 2.466951 1_465
Dy3 O16 2.317571 1_555
Dy3 O2 2.336796 1_455
Dy3 O7 2.336796 1_555
Dy3 O14 2.337820 1_455
Dy3 O12 2.337820 1_555
Dy3 O19 2.406909 1_554
Dy3 O0 2.466951 1_545
Dy3 O5 2.466951 1_445
Mn0 O1 1.897839 1_555
Mn0 O4 1.897839 1_555
Mn0 O12 1.929442 1_556
Mn0 O14 1.929442 1_556
Mn0 O8 2.003941 1_555
Mn1 O0 1.897839 1_555
Mn1 O5 1.897839 1_555
Mn1 O12 1.929442 1_565
Mn1 O14 1.929442 1_565
Mn1 O9 2.003941 1_555
Mn2 O6 1.897839 1_555
Mn2 O3 1.897839 1_555
Mn2 O15 1.929442 1_555
Mn2 O13 1.929442 1_555
Mn2 O10 2.003941 1_555
Mn3 O7 1.897839 1_555
Mn3 O2 1.897839 1_555
Mn3 O15 1.929442 1_555
Mn3 O13 1.929442 1_555
Mn3 O11 2.003941 1_555
Mn4 O8 1.870507 1_554
Mn4 O9 1.870507 1_555
Mn4 O7 1.909845 1_555
Mn4 O6 1.909845 1_554
Mn4 O19 1.925713 1_554
Mn4 O18 1.925713 1_555
Mn5 O11 1.870507 1_555
Mn5 O10 1.870507 1_545
Mn5 O4 1.909845 1_555
Mn5 O5 1.909845 1_545
Mn5 O17 1.925713 1_645
Mn5 O16 1.925713 1_655
Mn6 O8 1.870507 1_554
Mn6 O9 1.870507 1_555
Mn6 O2 1.909845 1_555
Mn6 O3 1.909845 1_554
Mn6 O19 1.925713 1_654
Mn6 O18 1.925713 1_655
Mn7 O11 1.870507 1_555
Mn7 O10 1.870507 1_545
Mn7 O1 1.909845 1_555
Mn7 O0 1.909845 1_545
Mn7 O17 1.925713 1_545
Mn7 O16 1.925713 1_555
