# generated using pymatgen
data_Sr9Mn5Co2O21
_symmetry_space_group_name_H-M   'P 1'
_cell_length_a   9.70608373
_cell_length_b   9.70608373
_cell_length_c   13.40520975
_cell_angle_alpha   68.77529463
_cell_angle_beta   68.77529463
_cell_angle_gamma   60.00000186
_symmetry_Int_Tables_number   1
_chemical_formula_structural   Sr9Mn5Co2O21
_chemical_formula_sum   'Sr18 Mn10 Co4 O42'
_cell_volume   993.53880305
_cell_formula_units_Z   2
loop_
 _symmetry_equiv_pos_site_id
 _symmetry_equiv_pos_as_xyz
  1  'x, y, z'
loop_
 _atom_site_type_symbol
 _atom_site_label
 _atom_site_symmetry_multiplicity
 _atom_site_fract_x
 _atom_site_fract_y
 _atom_site_fract_z
 _atom_site_occupancy
  Sr  Sr0  1  0.91972000  0.58028000  0.25000000  1
  Sr  Sr1  1  0.58028000  0.25000000  0.25000000  1
  Sr  Sr2  1  0.25000000  0.91972000  0.25000000  1
  Sr  Sr3  1  0.41972000  0.75000000  0.75000000  1
  Sr  Sr4  1  0.75000000  0.08028000  0.75000000  1
  Sr  Sr5  1  0.08028000  0.41972000  0.75000000  1
  Sr  Sr6  1  0.99429400  0.28527900  0.08399500  1
  Sr  Sr7  1  0.28527900  0.63643300  0.08399500  1
  Sr  Sr8  1  0.63643300  0.99429400  0.08399500  1
  Sr  Sr9  1  0.49429400  0.13643300  0.58399500  1
  Sr  Sr10  1  0.13643300  0.78527900  0.58399500  1
  Sr  Sr11  1  0.78527900  0.49429400  0.58399500  1
  Sr  Sr12  1  0.00570600  0.71472100  0.91600500  1
  Sr  Sr13  1  0.71472100  0.36356700  0.91600500  1
  Sr  Sr14  1  0.36356700  0.00570600  0.91600500  1
  Sr  Sr15  1  0.50570600  0.86356700  0.41600500  1
  Sr  Sr16  1  0.86356700  0.21472100  0.41600500  1
  Sr  Sr17  1  0.21472100  0.50570600  0.41600500  1
  Mn  Mn0  1  0.71436700  0.71436700  0.85689800  1
  Mn  Mn1  1  0.21436700  0.21436700  0.35689800  1
  Mn  Mn2  1  0.28563300  0.28563300  0.14310200  1
  Mn  Mn3  1  0.78563300  0.78563300  0.64310200  1
  Mn  Mn4  1  0.57066200  0.57066200  0.28801300  1
  Mn  Mn5  1  0.07066200  0.07066200  0.78801300  1
  Mn  Mn6  1  0.42933800  0.42933800  0.71198700  1
  Mn  Mn7  1  0.92933800  0.92933800  0.21198700  1
  Mn  Mn8  1  0.50000000  0.50000000  0.50000000  1
  Mn  Mn9  1  0.00000000  0.00000000  0.00000000  1
  Co  Co0  1  0.85794000  0.85794000  0.42618000  1
  Co  Co1  1  0.35794000  0.35794000  0.92618000  1
  Co  Co2  1  0.14206000  0.14206000  0.57382000  1
  Co  Co3  1  0.64206000  0.64206000  0.07382000  1
  O  O0  1  0.74872800  0.43665800  0.20052200  1
  O  O1  1  0.43665800  0.61409200  0.20052200  1
  O  O2  1  0.61409200  0.74872800  0.20052200  1
  O  O3  1  0.24872800  0.11409200  0.70052200  1
  O  O4  1  0.11409200  0.93665800  0.70052200  1
  O  O5  1  0.93665800  0.24872800  0.70052200  1
  O  O6  1  0.25127200  0.56334200  0.79947800  1
  O  O7  1  0.56334200  0.38590800  0.79947800  1
  O  O8  1  0.38590800  0.25127200  0.79947800  1
  O  O9  1  0.75127200  0.88590800  0.29947800  1
  O  O10  1  0.88590800  0.06334200  0.29947800  1
  O  O11  1  0.06334200  0.75127200  0.29947800  1
  O  O12  1  0.40353000  0.09647000  0.25000000  1
  O  O13  1  0.09647000  0.25000000  0.25000000  1
  O  O14  1  0.25000000  0.40353000  0.25000000  1
  O  O15  1  0.90353000  0.75000000  0.75000000  1
  O  O16  1  0.75000000  0.59647000  0.75000000  1
  O  O17  1  0.59647000  0.90353000  0.75000000  1
  O  O18  1  0.97119700  0.64937200  0.55308800  1
  O  O19  1  0.64937200  0.82634300  0.55308800  1
  O  O20  1  0.82634300  0.97119700  0.55308800  1
  O  O21  1  0.47119700  0.32634300  0.05308800  1
  O  O22  1  0.32634300  0.14937200  0.05308800  1
  O  O23  1  0.14937200  0.47119700  0.05308800  1
  O  O24  1  0.02880300  0.35062800  0.44691200  1
  O  O25  1  0.35062800  0.17365700  0.44691200  1
  O  O26  1  0.17365700  0.02880300  0.44691200  1
  O  O27  1  0.52880300  0.67365700  0.94691200  1
  O  O28  1  0.67365700  0.85062800  0.94691200  1
  O  O29  1  0.85062800  0.52880300  0.94691200  1
  O  O30  1  0.53518100  0.37677700  0.40105500  1
  O  O31  1  0.37677700  0.68698700  0.40105500  1
  O  O32  1  0.68698700  0.53518100  0.40105500  1
  O  O33  1  0.03518100  0.18698700  0.90105500  1
  O  O34  1  0.18698700  0.87677700  0.90105500  1
  O  O35  1  0.87677700  0.03518100  0.90105500  1
  O  O36  1  0.46481900  0.62322300  0.59894500  1
  O  O37  1  0.62322300  0.31301300  0.59894500  1
  O  O38  1  0.31301300  0.46481900  0.59894500  1
  O  O39  1  0.96481900  0.81301300  0.09894500  1
  O  O40  1  0.81301300  0.12322300  0.09894500  1
  O  O41  1  0.12322300  0.96481900  0.09894500  1
loop_
_geom_bond_atom_site_label_1
_geom_bond_atom_site_label_2
_geom_bond_distance
_geom_bond_site_symmetry_2
Mn0 O27 1.910229 1_555
Mn0 O29 1.910233 1_555
Mn0 O28 1.910237 1_555
Mn0 O16 1.978692 1_555
Mn0 O17 1.978696 1_555
Mn0 O15 1.978700 1_555
Mn1 O26 1.910229 1_555
Mn1 O24 1.910233 1_555
Mn1 O25 1.910237 1_555
Mn1 O13 1.978692 1_555
Mn1 O12 1.978696 1_555
Mn1 O14 1.978700 1_555
Mn2 O21 1.910229 1_555
Mn2 O23 1.910233 1_555
Mn2 O22 1.910237 1_555
Mn2 O14 1.978692 1_555
Mn2 O12 1.978696 1_555
Mn2 O13 1.978700 1_555
Mn3 O20 1.910229 1_555
Mn3 O18 1.910233 1_555
Mn3 O19 1.910237 1_555
Mn3 O15 1.978692 1_555
Mn3 O17 1.978696 1_555
Mn3 O16 1.978700 1_555
Mn4 O1 1.855588 1_555
Mn4 O0 1.855592 1_555
Mn4 O2 1.855596 1_555
Mn4 O30 2.040038 1_555
Mn4 O31 2.040042 1_555
Mn4 O32 2.040045 1_555
Mn5 O4 1.855588 1_545
Mn5 O5 1.855592 1_455
Mn5 O3 1.855596 1_555
Mn5 O35 2.040038 1_455
Mn5 O34 2.040042 1_545
Mn5 O33 2.040045 1_555
Mn6 O7 1.855588 1_555
Mn6 O6 1.855592 1_555
Mn6 O8 1.855596 1_555
Mn6 O36 2.040038 1_555
Mn6 O37 2.040042 1_555
Mn6 O38 2.040045 1_555
Mn7 O10 1.855588 1_565
Mn7 O11 1.855592 1_655
Mn7 O9 1.855596 1_555
Mn7 O41 2.040038 1_655
Mn7 O40 2.040042 1_565
Mn7 O39 2.040045 1_555
Mn8 O38 1.928368 1_555
Mn8 O32 1.928368 1_555
Mn8 O36 1.928368 1_555
Mn8 O30 1.928368 1_555
Mn8 O37 1.928368 1_555
Mn8 O31 1.928368 1_555
Mn9 O33 1.928368 1_554
Mn9 O39 1.928368 1_445
Mn9 O35 1.928368 1_454
Mn9 O41 1.928368 1_545
Mn9 O34 1.928368 1_544
Mn9 O40 1.928368 1_455
Co0 O9 2.165347 1_555
Co0 O10 2.165347 1_565
Co0 O11 2.165347 1_655
Co0 O20 2.199052 1_555
Co0 O19 2.199052 1_555
Co0 O18 2.199052 1_555
Co1 O8 2.165347 1_555
Co1 O7 2.165347 1_555
Co1 O6 2.165347 1_555
Co1 O21 2.199052 1_556
Co1 O22 2.199052 1_556
Co1 O23 2.199052 1_556
Co2 O3 2.165347 1_555
Co2 O4 2.165347 1_545
Co2 O5 2.165347 1_455
Co2 O26 2.199052 1_555
Co2 O25 2.199052 1_555
Co2 O24 2.199052 1_555
Co3 O2 2.165347 1_555
Co3 O1 2.165347 1_555
Co3 O0 2.165347 1_555
Co3 O27 2.199052 1_554
Co3 O28 2.199052 1_554
Co3 O29 2.199052 1_554
O0 Sr6 2.396639 1_555
O0 Sr1 2.775292 1_555
O0 Sr0 2.986256 1_555
O0 Sr16 3.106688 1_555
O1 Sr7 2.396635 1_555
O1 Sr2 2.775292 1_555
O1 Sr1 2.986256 1_555
O1 Sr17 3.106692 1_555
O2 Sr8 2.396643 1_555
O2 Sr0 2.775292 1_555
O2 Sr2 2.986256 1_555
O2 Sr15 3.106687 1_555
O3 Sr9 2.396643 1_555
O3 Sr5 2.775292 1_555
O3 Sr3 2.986256 1_545
O3 Sr14 3.106687 1_555
O4 Sr10 2.396635 1_555
O4 Sr3 2.775292 1_555
O4 Sr4 2.986256 1_465
O4 Sr12 3.106692 1_555
O5 Sr11 2.396639 1_555
O5 Sr4 2.775292 1_555
O5 Sr5 2.986256 1_655
O5 Sr13 3.106688 1_555
O6 Sr12 2.396639 1_555
O6 Sr3 2.775292 1_555
O6 Sr5 2.986256 1_555
O6 Sr10 3.106688 1_555
O7 Sr13 2.396635 1_555
O7 Sr4 2.775292 1_555
O7 Sr3 2.986256 1_555
O7 Sr11 3.106692 1_555
O8 Sr14 2.396643 1_555
O8 Sr5 2.775292 1_555
O8 Sr4 2.986256 1_555
O8 Sr9 3.106687 1_555
O9 Sr15 2.396643 1_555
O9 Sr0 2.775292 1_555
O9 Sr1 2.986256 1_565
O9 Sr8 3.106687 1_555
O10 Sr16 2.396635 1_555
O10 Sr1 2.775292 1_555
O10 Sr2 2.986256 1_645
O10 Sr6 3.106692 1_555
O11 Sr17 2.396639 1_555
O11 Sr2 2.775292 1_555
O11 Sr0 2.986256 1_455
O11 Sr7 3.106688 1_555
O12 Sr8 2.599906 1_545
O12 Sr15 2.599906 1_545
O12 Sr2 2.778526 1_545
O12 Sr1 2.778526 1_555
O13 Sr6 2.599903 1_455
O13 Sr16 2.599909 1_455
O13 Sr2 2.778526 1_545
O13 Sr0 2.778526 1_455
O14 Sr17 2.599903 1_555
O14 Sr7 2.599909 1_555
O14 Sr1 2.778526 1_555
O14 Sr0 2.778526 1_455
O15 Sr12 2.599903 1_655
O15 Sr10 2.599909 1_655
O15 Sr4 2.778526 1_565
O15 Sr5 2.778526 1_655
O16 Sr11 2.599903 1_555
O16 Sr13 2.599909 1_555
O16 Sr3 2.778526 1_555
O16 Sr5 2.778526 1_655
O17 Sr14 2.599906 1_565
O17 Sr9 2.599906 1_565
O17 Sr4 2.778526 1_565
O17 Sr3 2.778526 1_555
O18 Sr17 2.514489 1_655
O18 Sr11 2.723407 1_555
O18 Sr10 2.734290 1_655
O18 Sr5 2.908712 1_655
O19 Sr15 2.514493 1_555
O19 Sr9 2.723416 1_565
O19 Sr11 2.734282 1_555
O19 Sr3 2.908712 1_555
O20 Sr16 2.514485 1_565
O20 Sr10 2.723415 1_655
O20 Sr9 2.734282 1_565
O20 Sr4 2.908712 1_565
O21 Sr13 2.514485 1_554
O21 Sr7 2.723415 1_555
O21 Sr8 2.734282 1_545
O21 Sr1 2.908712 1_555
O22 Sr14 2.514493 1_554
O22 Sr8 2.723416 1_545
O22 Sr6 2.734282 1_455
O22 Sr2 2.908712 1_545
O23 Sr12 2.514489 1_554
O23 Sr6 2.723407 1_455
O23 Sr7 2.734290 1_555
O23 Sr0 2.908712 1_455
O24 Sr11 2.514489 1_455
O24 Sr17 2.723407 1_555
O24 Sr16 2.734290 1_455
O24 Sr0 2.908712 1_455
O25 Sr9 2.514493 1_555
O25 Sr15 2.723416 1_545
O25 Sr17 2.734282 1_555
O25 Sr1 2.908712 1_555
O26 Sr10 2.514485 1_545
O26 Sr16 2.723415 1_455
O26 Sr15 2.734282 1_545
O26 Sr2 2.908712 1_545
O27 Sr7 2.514485 1_556
O27 Sr13 2.723415 1_555
O27 Sr14 2.734282 1_565
O27 Sr3 2.908712 1_555
O28 Sr8 2.514493 1_556
O28 Sr14 2.723416 1_565
O28 Sr12 2.734282 1_655
O28 Sr4 2.908712 1_565
O29 Sr6 2.514489 1_556
O29 Sr12 2.723407 1_655
O29 Sr13 2.734290 1_555
O29 Sr5 2.908712 1_655
O30 Sr1 2.535699 1_555
O30 Sr17 2.668090 1_555
O30 Sr9 2.773514 1_555
O30 Sr16 2.809665 1_555
O31 Sr2 2.535699 1_555
O31 Sr15 2.668081 1_555
O31 Sr10 2.773517 1_555
O31 Sr17 2.809673 1_555
O32 Sr0 2.535699 1_555
O32 Sr16 2.668089 1_555
O32 Sr11 2.773520 1_555
O32 Sr15 2.809665 1_555
O33 Sr5 2.535699 1_555
O33 Sr13 2.668089 1_455
O33 Sr6 2.773520 1_456
O33 Sr14 2.809665 1_555
O34 Sr3 2.535699 1_555
O34 Sr14 2.668081 1_565
O34 Sr7 2.773517 1_556
O34 Sr12 2.809673 1_555
O35 Sr4 2.535699 1_555
O35 Sr12 2.668090 1_645
O35 Sr8 2.773514 1_546
O35 Sr13 2.809665 1_555
O36 Sr3 2.535699 1_555
O36 Sr11 2.668090 1_555
O36 Sr15 2.773514 1_555
O36 Sr10 2.809665 1_555
O37 Sr4 2.535699 1_555
O37 Sr9 2.668081 1_555
O37 Sr16 2.773517 1_555
O37 Sr11 2.809673 1_555
O38 Sr5 2.535699 1_555
O38 Sr10 2.668089 1_555
O38 Sr17 2.773520 1_555
O38 Sr9 2.809665 1_555
O39 Sr0 2.535699 1_555
O39 Sr7 2.668089 1_655
O39 Sr12 2.773520 1_654
O39 Sr8 2.809665 1_555
O40 Sr1 2.535699 1_555
O40 Sr8 2.668081 1_545
O40 Sr13 2.773517 1_554
O40 Sr6 2.809673 1_555
O41 Sr2 2.535699 1_555
O41 Sr6 2.668090 1_465
O41 Sr14 2.773514 1_564
O41 Sr7 2.809665 1_555
