# generated using pymatgen
data_Ta11(Co52B15)2
_symmetry_space_group_name_H-M   'P 1'
_cell_length_a   10.50687700
_cell_length_b   12.87809102
_cell_length_c   12.87676851
_cell_angle_alpha   99.58262932
_cell_angle_beta   114.07788265
_cell_angle_gamma   65.92474661
_symmetry_Int_Tables_number   1
_chemical_formula_structural   Ta11(Co52B15)2
_chemical_formula_sum   'Ta11 Co104 B30'
_cell_volume   1452.36114466
_cell_formula_units_Z   1
loop_
 _symmetry_equiv_pos_site_id
 _symmetry_equiv_pos_as_xyz
  1  'x, y, z'
loop_
 _atom_site_type_symbol
 _atom_site_label
 _atom_site_symmetry_multiplicity
 _atom_site_fract_x
 _atom_site_fract_y
 _atom_site_fract_z
 _atom_site_occupancy
  Ta  Ta0  1  0.25001400  0.50000000  0.50000000  1
  Ta  Ta1  1  0.84994900  0.70007400  0.90002600  1
  Ta  Ta2  1  0.44991400  0.90010900  0.29993100  1
  Ta  Ta3  1  0.05009200  0.09989100  0.70006900  1
  Ta  Ta4  1  0.64999700  0.29992600  0.09997400  1
  Ta  Ta5  1  0.15005100  0.29992600  0.09997400  1
  Ta  Ta6  1  0.74998600  0.50000000  0.50000000  1
  Ta  Ta7  1  0.35000300  0.70007400  0.90002600  1
  Ta  Ta8  1  0.94990800  0.90010900  0.29993100  1
  Ta  Ta9  1  0.55008600  0.09989100  0.70006900  1
  Ta  Ta10  1  0.00000000  0.00000000  0.00000000  1
  Co  Co0  1  0.86123300  0.06938100  0.79184800  1
  Co  Co1  1  0.46456800  0.26799100  0.19712700  1
  Co  Co2  1  0.06471100  0.46777700  0.59719900  1
  Co  Co3  1  0.66487700  0.66722800  0.99698100  1
  Co  Co4  1  0.26655700  0.86661500  0.39973000  1
  Co  Co5  1  0.26794000  0.53503000  0.73238400  1
  Co  Co6  1  0.86654300  0.73352300  0.13344500  1
  Co  Co7  1  0.46768500  0.93519400  0.53264100  1
  Co  Co8  1  0.06945000  0.13893900  0.93066200  1
  Co  Co9  1  0.66742600  0.33546600  0.33266900  1
  Co  Co10  1  0.93501000  0.53262800  0.06485400  1
  Co  Co11  1  0.53563700  0.73234900  0.46497200  1
  Co  Co12  1  0.13878900  0.93064800  0.86108700  1
  Co  Co13  1  0.73315600  0.13343900  0.26641200  1
  Co  Co14  1  0.33466500  0.33274200  0.66460000  1
  Co  Co15  1  0.93064100  0.20814100  0.06942400  1
  Co  Co16  1  0.53247200  0.40283800  0.46778300  1
  Co  Co17  1  0.13323800  0.60015800  0.86663300  1
  Co  Co18  1  0.73262900  0.80274500  0.26800300  1
  Co  Co19  1  0.33212900  0.00306700  0.66732600  1
  Co  Co20  1  0.92941400  0.53503000  0.73238400  1
  Co  Co21  1  0.53337900  0.73352300  0.13344500  1
  Co  Co22  1  0.12976200  0.93519400  0.53264100  1
  Co  Co23  1  0.72227300  0.13893900  0.93066200  1
  Co  Co24  1  0.32977700  0.33546600  0.33266900  1
  Co  Co25  1  0.46436300  0.26765100  0.53502800  1
  Co  Co26  1  0.06499000  0.46737200  0.93514600  1
  Co  Co27  1  0.66533500  0.66725800  0.33540000  1
  Co  Co28  1  0.26684400  0.86656100  0.73358800  1
  Co  Co29  1  0.86121100  0.06935200  0.13891300  1
  Co  Co30  1  0.46752800  0.59716200  0.53221700  1
  Co  Co31  1  0.06935900  0.79185900  0.93057600  1
  Co  Co32  1  0.66787100  0.99693300  0.33267400  1
  Co  Co33  1  0.26737100  0.19725500  0.73199700  1
  Co  Co34  1  0.86676200  0.39984200  0.13336700  1
  Co  Co35  1  0.13345700  0.26647700  0.86655500  1
  Co  Co36  1  0.73206000  0.46497000  0.26761600  1
  Co  Co37  1  0.33257400  0.66453400  0.66733100  1
  Co  Co38  1  0.93055000  0.86106100  0.06933800  1
  Co  Co39  1  0.53231500  0.06480600  0.46735900  1
  Co  Co40  1  0.59721500  0.53262800  0.06485400  1
  Co  Co41  1  0.19698600  0.73234900  0.46497200  1
  Co  Co42  1  0.79165000  0.93064800  0.86108700  1
  Co  Co43  1  0.39981700  0.13343900  0.26641200  1
  Co  Co44  1  0.99719300  0.33274200  0.66460000  1
  Co  Co45  1  0.53543200  0.73200900  0.80287300  1
  Co  Co46  1  0.13876700  0.93061900  0.20815200  1
  Co  Co47  1  0.73344300  0.13338500  0.60027000  1
  Co  Co48  1  0.33512300  0.33277200  0.00301900  1
  Co  Co49  1  0.93528900  0.53222300  0.40280100  1
  Co  Co50  1  0.46662100  0.26647700  0.86655500  1
  Co  Co51  1  0.07058600  0.46497000  0.26761600  1
  Co  Co52  1  0.67022300  0.66453400  0.66733100  1
  Co  Co53  1  0.27772700  0.86106100  0.06933800  1
  Co  Co54  1  0.87023900  0.06480600  0.46735900  1
  Co  Co55  1  0.80301400  0.26765100  0.53502800  1
  Co  Co56  1  0.40278500  0.46737200  0.93514600  1
  Co  Co57  1  0.00280700  0.66725800  0.33540000  1
  Co  Co58  1  0.60018300  0.86656100  0.73358800  1
  Co  Co59  1  0.20835000  0.06935200  0.13891300  1
  Co  Co60  1  0.67658400  0.35371600  0.93951100  1
  Co  Co61  1  0.27673000  0.55352600  0.33941900  1
  Co  Co62  1  0.87682300  0.75326900  0.73935800  1
  Co  Co63  1  0.47720300  0.95348000  0.13950100  1
  Co  Co64  1  0.07684700  0.15339700  0.53938200  1
  Co  Co65  1  0.86254800  0.26064900  0.75325000  1
  Co  Co66  1  0.46255600  0.46059800  0.15340900  1
  Co  Co67  1  0.06269500  0.66058100  0.55355100  1
  Co  Co68  1  0.66232400  0.86047400  0.95344600  1
  Co  Co69  1  0.26287400  0.06053000  0.35372800  1
  Co  Co70  1  0.76974600  0.53940200  0.84659100  1
  Co  Co71  1  0.36994700  0.73935100  0.24675000  1
  Co  Co72  1  0.96967600  0.93947000  0.64627200  1
  Co  Co73  1  0.56935100  0.13952600  0.04655400  1
  Co  Co74  1  0.16972500  0.33941900  0.44644900  1
  Co  Co75  1  0.49083600  0.44647400  0.66058100  1
  Co  Co76  1  0.09078900  0.64628400  0.06048900  1
  Co  Co77  1  0.69086200  0.84660300  0.46061800  1
  Co  Co78  1  0.29118200  0.04652000  0.86049900  1
  Co  Co79  1  0.89073400  0.24673100  0.26064200  1
  Co  Co80  1  0.72327000  0.44647400  0.66058100  1
  Co  Co81  1  0.32341600  0.64628400  0.06048900  1
  Co  Co82  1  0.92315300  0.84660300  0.46061800  1
  Co  Co83  1  0.52279700  0.04652000  0.86049900  1
  Co  Co84  1  0.12317700  0.24673100  0.26064200  1
  Co  Co85  1  0.53744400  0.53940200  0.84659100  1
  Co  Co86  1  0.13745200  0.73935100  0.24675000  1
  Co  Co87  1  0.73712600  0.93947000  0.64627200  1
  Co  Co88  1  0.33767600  0.13952600  0.04655400  1
  Co  Co89  1  0.93730500  0.33941900  0.44644900  1
  Co  Co90  1  0.63005300  0.26064900  0.75325000  1
  Co  Co91  1  0.23025400  0.46059800  0.15340900  1
  Co  Co92  1  0.83027500  0.66058100  0.55355100  1
  Co  Co93  1  0.43064900  0.86047400  0.95344600  1
  Co  Co94  1  0.03032400  0.06053000  0.35372800  1
  Co  Co95  1  0.90921100  0.35371600  0.93951100  1
  Co  Co96  1  0.50916400  0.55352600  0.33941900  1
  Co  Co97  1  0.10926600  0.75326900  0.73935800  1
  Co  Co98  1  0.70881800  0.95348000  0.13950100  1
  Co  Co99  1  0.30913800  0.15339700  0.53938200  1
  Co  Co100  1  0.59993200  0.20022600  0.40008900  1
  Co  Co101  1  0.19979500  0.40010200  0.79969300  1
  Co  Co102  1  0.80020500  0.59989800  0.20030700  1
  Co  Co103  1  0.40006800  0.79977400  0.59991100  1
  B  B0  1  0.47380200  0.40035400  0.79981600  1
  B  B1  1  0.07434000  0.59964600  0.20018400  1
  B  B2  1  0.67400600  0.79981000  0.59972200  1
  B  B3  1  0.27084600  0.00000000  0.00000000  1
  B  B4  1  0.87409500  0.20019000  0.40027800  1
  B  B5  1  0.74499300  0.49071600  0.98070300  1
  B  B6  1  0.34557700  0.68996700  0.38112100  1
  B  B7  1  0.94585400  0.89169300  0.78340100  1
  B  B8  1  0.54523800  0.09042300  0.18089800  1
  B  B9  1  0.14519600  0.29037400  0.58076500  1
  B  B10  1  0.83753300  0.21662000  0.89168600  1
  B  B11  1  0.43555100  0.41923400  0.29033600  1
  B  B12  1  0.03555700  0.61890200  0.69001600  1
  B  B13  1  0.63559600  0.81917300  0.09036500  1
  B  B14  1  0.23571100  0.01924300  0.49066400  1
  B  B15  1  0.92566000  0.40035400  0.79981600  1
  B  B16  1  0.52619800  0.59964600  0.20018400  1
  B  B17  1  0.12590500  0.79981000  0.59972200  1
  B  B18  1  0.72915400  0.00000000  0.00000000  1
  B  B19  1  0.32599400  0.20019000  0.40027800  1
  B  B20  1  0.65442300  0.31003300  0.61887900  1
  B  B21  1  0.25500700  0.50928400  0.01929700  1
  B  B22  1  0.85480400  0.70962600  0.41923500  1
  B  B23  1  0.45476200  0.90957700  0.81910200  1
  B  B24  1  0.05414600  0.10830700  0.21659900  1
  B  B25  1  0.56444900  0.58076600  0.70966400  1
  B  B26  1  0.16246700  0.78338000  0.10831400  1
  B  B27  1  0.76428900  0.98075700  0.50933600  1
  B  B28  1  0.36440400  0.18082700  0.90963500  1
  B  B29  1  0.96444300  0.38109800  0.30998400  1
loop_
_geom_bond_atom_site_label_1
_geom_bond_atom_site_label_2
_geom_bond_distance
_geom_bond_site_symmetry_2
Co0 Ta10 2.579544 1_656
Co1 Co100 2.515650 1_555
Co8 Ta10 2.580669 1_556
Co10 Co102 2.512061 1_555
Co12 Ta10 2.580241 1_566
Co15 Ta10 2.579760 1_655
Co23 Ta10 2.580669 1_656
Co29 Ta10 2.580241 1_655
Co31 Ta10 2.579760 1_566
Co38 Ta10 2.580669 1_665
Co42 Ta10 2.580241 1_666
Co46 Ta10 2.579544 1_565
Co53 Ta10 2.580669 1_565
Co59 Ta10 2.580241 1_555
Co60 Ta4 2.435701 1_556
Co61 Ta0 2.436311 1_555
Co62 Ta1 2.436320 1_555
Co63 Ta2 2.437016 1_555
Co64 Ta3 2.437713 1_555
Co65 Ta3 2.436908 1_655
Co66 Ta4 2.437298 1_555
Co67 Ta0 2.436708 1_555
Co68 Ta1 2.436672 1_555
Co69 Ta2 2.435539 1_545
Co70 Ta1 2.437292 1_555
Co71 Ta2 2.436908 1_555
Co72 Ta3 2.435540 1_665
Co73 Ta4 2.436678 1_555
Co74 Ta0 2.436708 1_555
Co75 Ta0 2.436305 1_555
Co76 Ta1 2.435701 1_454
Co77 Ta2 2.437713 1_555
Co78 Ta3 2.437015 1_555
Co79 Ta4 2.436320 1_555
Co80 Ta6 2.436311 1_555
Co81 Ta7 2.435701 1_554
Co82 Ta8 2.437713 1_555
Co83 Ta9 2.437016 1_555
Co84 Ta5 2.436320 1_555
Co85 Ta7 2.437298 1_555
Co86 Ta8 2.436908 1_455
Co87 Ta9 2.435539 1_565
Co88 Ta5 2.436672 1_555
Co89 Ta6 2.436708 1_555
Co90 Ta9 2.436908 1_555
Co91 Ta5 2.437292 1_555
Co92 Ta6 2.436708 1_555
Co93 Ta7 2.436678 1_555
Co94 Ta8 2.435540 1_445
Co95 Ta5 2.435701 1_656
Co96 Ta6 2.436305 1_555
Co97 Ta7 2.436320 1_555
Co98 Ta8 2.437015 1_555
Co99 Ta9 2.437713 1_555
Co100 Co13 2.480508 1_555
Co100 Co43 2.480516 1_555
Co100 Co47 2.481198 1_555
Co100 Co9 2.510635 1_555
Co100 Co24 2.510642 1_555
Co100 Co16 2.511656 1_555
Co100 Co55 2.511997 1_555
Co100 Co25 2.512004 1_555
Co100 Co54 2.512444 1_555
Co100 Co39 2.512444 1_555
Co100 Co32 2.518218 1_545
Co101 Co35 2.479892 1_555
Co101 Co50 2.479900 1_555
Co101 Co17 2.480344 1_555
Co101 Co44 2.508518 1_455
Co101 Co14 2.508525 1_555
Co101 Co2 2.510096 1_555
Co101 Co20 2.511161 1_455
Co101 Co5 2.511169 1_555
Co101 Co26 2.512061 1_555
Co101 Co56 2.512076 1_555
Co101 Co33 2.514285 1_555
Co101 Co48 2.518097 1_556
Co102 Co6 2.479892 1_555
Co102 Co21 2.479900 1_555
Co102 Co34 2.480344 1_555
Co102 Co57 2.508518 1_655
Co102 Co27 2.508525 1_555
Co102 Co49 2.510096 1_555
Co102 Co51 2.511161 1_655
Co102 Co36 2.511169 1_555
Co102 Co40 2.512076 1_555
Co102 Co18 2.514285 1_555
Co102 Co3 2.518097 1_554
Co103 Co28 2.480508 1_555
Co103 Co58 2.480516 1_555
Co103 Co4 2.481198 1_555
Co103 Co37 2.510635 1_555
Co103 Co52 2.510642 1_555
Co103 Co30 2.511656 1_555
Co103 Co41 2.511997 1_555
Co103 Co11 2.512004 1_555
Co103 Co22 2.512436 1_555
Co103 Co7 2.512444 1_555
Co103 Co45 2.515650 1_555
Co103 Co19 2.518218 1_565
B0 Co75 2.074214 1_555
B0 Co85 2.074997 1_555
B0 Co60 2.079523 1_555
B0 Co90 2.079876 1_555
B0 Co5 2.085354 1_555
B0 Co50 2.090220 1_555
B0 Co56 2.091212 1_555
B0 Co14 2.093734 1_555
B1 Co61 2.074219 1_555
B1 Co91 2.074991 1_555
B1 Co76 2.079523 1_555
B1 Co86 2.079877 1_555
B1 Co51 2.085354 1_555
B1 Co6 2.090220 1_455
B1 Co10 2.091217 1_455
B1 Co57 2.093734 1_555
B2 Co92 2.074581 1_555
B2 Co77 2.075626 1_555
B2 Co62 2.079333 1_555
B2 Co87 2.079371 1_555
B2 Co11 2.085512 1_555
B2 Co58 2.089392 1_555
B2 Co7 2.091676 1_555
B2 Co52 2.093819 1_555
B3 Co12 2.092006 1_544
B3 Co59 2.092006 1_555
B3 Co8 2.092263 1_554
B3 Co53 2.092263 1_545
B3 Co63 2.099343 1_545
B3 Co78 2.099344 1_554
B3 Co88 2.099594 1_555
B3 Co93 2.099600 1_544
B4 Co89 2.074575 1_555
B4 Co64 2.075620 1_655
B4 Co79 2.079327 1_555
B4 Co94 2.079365 1_655
B4 Co55 2.085517 1_555
B4 Co13 2.089398 1_555
B4 Co54 2.091676 1_555
B4 Co9 2.093825 1_555
B5 Co85 2.074364 1_555
B5 Co70 2.074376 1_555
B5 Co60 2.079107 1_555
B5 Co95 2.079113 1_555
B5 Co3 2.084193 1_555
B5 Co34 2.088795 1_556
B5 Co10 2.090619 1_556
B5 Co40 2.090619 1_556
B6 Co61 2.074830 1_555
B6 Co96 2.074836 1_555
B6 Co86 2.079558 1_555
B6 Co71 2.079558 1_555
B6 Co30 2.084771 1_555
B6 Co4 2.088477 1_555
B6 Co11 2.094082 1_555
B6 Co41 2.094082 1_555
B7 Co12 2.090373 1_655
B7 Co42 2.090373 1_555
B7 Co31 2.090892 1_655
B7 Co0 2.091580 1_565
B7 Co87 2.099327 1_555
B7 Co72 2.099327 1_555
B7 Co97 2.099557 1_655
B7 Co62 2.099557 1_555
B8 Co73 2.075862 1_555
B8 Co88 2.075874 1_555
B8 Co98 2.076030 1_545
B8 Co63 2.076036 1_545
B8 Co13 2.081599 1_555
B8 Co43 2.081608 1_555
B8 Co32 2.095800 1_545
B8 Co1 2.096505 1_555
B9 Co74 2.077723 1_555
B9 Co89 2.077729 1_455
B9 Co99 2.078385 1_555
B9 Co64 2.078391 1_555
B9 Co33 2.088067 1_555
B9 Co14 2.088690 1_555
B9 Co44 2.088699 1_455
B9 Co2 2.094794 1_555
B10 Co8 2.090632 1_655
B10 Co23 2.090632 1_555
B10 Co0 2.091541 1_555
B10 Co15 2.091938 1_556
B10 Co60 2.099507 1_555
B10 Co95 2.099507 1_555
B10 Co90 2.099684 1_555
B10 Co65 2.099684 1_555
B11 Co61 2.077760 1_555
B11 Co96 2.077767 1_555
B11 Co66 2.077808 1_555
B11 Co91 2.077814 1_555
B11 Co1 2.088756 1_555
B11 Co9 2.089080 1_555
B11 Co24 2.089080 1_555
B11 Co16 2.095033 1_555
B12 Co92 2.074843 1_455
B12 Co67 2.074843 1_555
B12 Co62 2.079309 1_455
B12 Co97 2.079309 1_555
B12 Co2 2.085160 1_555
B12 Co17 2.088051 1_555
B12 Co5 2.093667 1_555
B12 Co20 2.093667 1_455
B13 Co63 2.075545 1_555
B13 Co98 2.075545 1_555
B13 Co93 2.075629 1_554
B13 Co68 2.075635 1_554
B13 Co6 2.081855 1_555
B13 Co21 2.081855 1_555
B13 Co3 2.096864 1_554
B13 Co18 2.097304 1_555
B14 Co99 2.074898 1_555
B14 Co64 2.074904 1_555
B14 Co69 2.078444 1_555
B14 Co94 2.078450 1_555
B14 Co19 2.085606 1_555
B14 Co4 2.088824 1_545
B14 Co7 2.090865 1_545
B14 Co22 2.090874 1_545
B15 Co80 2.074219 1_555
B15 Co70 2.074991 1_555
B15 Co95 2.079523 1_555
B15 Co65 2.079877 1_555
B15 Co20 2.085354 1_555
B15 Co35 2.090220 1_655
B15 Co26 2.091217 1_655
B15 Co44 2.093734 1_555
B16 Co96 2.074214 1_555
B16 Co66 2.074997 1_555
B16 Co81 2.079523 1_555
B16 Co71 2.079876 1_555
B16 Co36 2.085354 1_555
B16 Co21 2.090220 1_555
B16 Co40 2.091212 1_555
B16 Co27 2.093734 1_555
B17 Co67 2.074575 1_555
B17 Co82 2.075620 1_455
B17 Co97 2.079327 1_555
B17 Co72 2.079365 1_455
B17 Co41 2.085517 1_555
B17 Co28 2.089398 1_555
B17 Co22 2.091682 1_555
B17 Co37 2.093825 1_555
B18 Co29 2.092006 1_555
B18 Co42 2.092006 1_544
B18 Co38 2.092263 1_545
B18 Co23 2.092263 1_554
B18 Co83 2.099343 1_554
B18 Co98 2.099344 1_545
B18 Co68 2.099594 1_544
B18 Co73 2.099600 1_555
B19 Co74 2.074581 1_555
B19 Co99 2.075626 1_555
B19 Co84 2.079333 1_555
B19 Co69 2.079371 1_555
B19 Co25 2.085512 1_555
B19 Co43 2.089392 1_555
B19 Co39 2.091676 1_555
B19 Co24 2.093819 1_555
B20 Co80 2.074830 1_555
B20 Co75 2.074836 1_555
B20 Co65 2.079558 1_555
B20 Co90 2.079558 1_555
B20 Co16 2.084771 1_555
B20 Co47 2.088477 1_555
B20 Co25 2.094082 1_555
B20 Co55 2.094082 1_555
B21 Co66 2.074364 1_555
B21 Co91 2.074376 1_555
B21 Co81 2.079107 1_555
B21 Co76 2.079113 1_555
B21 Co48 2.084193 1_555
B21 Co17 2.088795 1_554
B21 Co26 2.090619 1_554
B21 Co56 2.090619 1_554
B22 Co92 2.077723 1_555
B22 Co67 2.077729 1_655
B22 Co77 2.078385 1_555
B22 Co82 2.078391 1_555
B22 Co18 2.088067 1_555
B22 Co27 2.088690 1_555
B22 Co57 2.088699 1_655
B22 Co49 2.094794 1_555
B23 Co93 2.075862 1_555
B23 Co68 2.075874 1_555
B23 Co78 2.076030 1_565
B23 Co83 2.076036 1_565
B23 Co28 2.081599 1_555
B23 Co58 2.081608 1_555
B23 Co19 2.095800 1_565
B23 Co45 2.096505 1_555
B24 Co29 2.090373 1_455
B24 Co59 2.090373 1_555
B24 Co15 2.090892 1_455
B24 Co46 2.091580 1_545
B24 Co69 2.099327 1_555
B24 Co94 2.099327 1_555
B24 Co79 2.099557 1_455
B24 Co84 2.099557 1_555
B25 Co80 2.077760 1_555
B25 Co75 2.077767 1_555
B25 Co85 2.077808 1_555
B25 Co70 2.077814 1_555
B25 Co45 2.088756 1_555
B25 Co37 2.089080 1_555
B25 Co52 2.089080 1_555
B25 Co30 2.095033 1_555
B26 Co38 2.090632 1_455
B26 Co53 2.090632 1_555
B26 Co46 2.091541 1_555
B26 Co31 2.091938 1_554
B26 Co81 2.099507 1_555
B26 Co76 2.099507 1_555
B26 Co71 2.099684 1_555
B26 Co86 2.099684 1_555
B27 Co77 2.074898 1_555
B27 Co82 2.074904 1_555
B27 Co87 2.078444 1_555
B27 Co72 2.078450 1_555
B27 Co32 2.085606 1_555
B27 Co47 2.088824 1_565
B27 Co39 2.090865 1_565
B27 Co54 2.090883 1_565
B28 Co83 2.075545 1_555
B28 Co78 2.075545 1_555
B28 Co73 2.075629 1_556
B28 Co88 2.075635 1_556
B28 Co35 2.081855 1_555
B28 Co50 2.081855 1_555
B28 Co48 2.096864 1_556
B28 Co33 2.097304 1_555
B29 Co74 2.074843 1_655
B29 Co89 2.074843 1_555
B29 Co84 2.079309 1_655
B29 Co79 2.079309 1_555
B29 Co49 2.085160 1_555
B29 Co34 2.088051 1_555
B29 Co36 2.093667 1_555
B29 Co51 2.093667 1_655
