# generated using pymatgen
data_ZnCo2(PO5)2
_symmetry_space_group_name_H-M   'P 1'
_cell_length_a   9.99005632
_cell_length_b   9.08544067
_cell_length_c   6.46080344
_cell_angle_alpha   77.96134424
_cell_angle_beta   62.80383816
_cell_angle_gamma   39.23481759
_symmetry_Int_Tables_number   1
_chemical_formula_structural   ZnCo2(PO5)2
_chemical_formula_sum   'Zn2 Co4 P4 O20'
_cell_volume   318.68523455
_cell_formula_units_Z   2
loop_
 _symmetry_equiv_pos_site_id
 _symmetry_equiv_pos_as_xyz
  1  'x, y, z'
loop_
 _atom_site_type_symbol
 _atom_site_label
 _atom_site_symmetry_multiplicity
 _atom_site_fract_x
 _atom_site_fract_y
 _atom_site_fract_z
 _atom_site_occupancy
  Zn  Zn0  1  0.25000000  0.25000000  0.25000000  1
  Zn  Zn1  1  0.00000000  0.00000000  0.00000000  1
  Co  Co0  1  0.62500000  0.62500000  0.12500000  1
  Co  Co1  1  0.62500000  0.12500000  0.62500000  1
  Co  Co2  1  0.62500000  0.62500000  0.62500000  1
  Co  Co3  1  0.12500000  0.62500000  0.62500000  1
  P  P0  1  0.79207000  0.79207000  0.20793000  1
  P  P1  1  0.45793000  0.45793000  0.04207000  1
  P  P2  1  0.20793000  0.20793000  0.79207000  1
  P  P3  1  0.04207000  0.04207000  0.45793000  1
  O  O0  1  0.96351000  0.33845700  0.00911000  1
  O  O1  1  0.41626900  0.41626900  0.58373100  1
  O  O2  1  0.90773800  0.06865900  0.36296900  1
  O  O3  1  0.24089000  0.56107700  0.28649000  1
  O  O4  1  0.33845700  0.96351000  0.68892300  1
  O  O5  1  0.34226200  0.18134100  0.88703100  1
  O  O6  1  0.83373100  0.83373100  0.66626900  1
  O  O7  1  0.58373100  0.58373100  0.41626900  1
  O  O8  1  0.66626900  0.66626900  0.83373100  1
  O  O9  1  0.28649000  0.91154300  0.24089000  1
  O  O10  1  0.68892300  0.00911000  0.33845700  1
  O  O11  1  0.56107700  0.24089000  0.91154300  1
  O  O12  1  0.00911000  0.68892300  0.96351000  1
  O  O13  1  0.06865900  0.90773800  0.66063300  1
  O  O14  1  0.58936700  0.88703100  0.18134100  1
  O  O15  1  0.36296900  0.66063300  0.90773800  1
  O  O16  1  0.88703100  0.58936700  0.34226200  1
  O  O17  1  0.66063300  0.36296900  0.06865900  1
  O  O18  1  0.91154300  0.28649000  0.56107700  1
  O  O19  1  0.18134100  0.34226200  0.58936700  1
loop_
_geom_bond_atom_site_label_1
_geom_bond_atom_site_label_2
_geom_bond_distance
_geom_bond_site_symmetry_2
Co0 O7 1.757216 1_555
Co0 O8 1.757216 1_554
Co0 O9 1.906462 1_555
Co0 O0 1.906462 1_555
Co0 O14 2.203866 1_555
Co0 O17 2.203866 1_555
Co1 O1 1.757216 1_555
Co1 O6 1.757216 1_545
Co1 O11 1.906462 1_555
Co1 O10 1.906462 1_555
Co1 O2 2.203858 1_555
Co1 O5 2.203858 1_555
Co2 O8 1.757216 1_555
Co2 O7 1.757216 1_555
Co2 O18 1.906462 1_555
Co2 O4 1.906462 1_555
Co2 O16 2.203864 1_555
Co2 O15 2.203864 1_555
Co3 O6 1.757216 1_455
Co3 O1 1.757216 1_555
Co3 O3 1.906462 1_555
Co3 O12 1.906462 1_555
Co3 O13 2.203857 1_555
Co3 O19 2.203857 1_555
O0 P2 1.553395 1_654
O2 P3 1.557003 1_655
O2 Zn1 2.117031 1_655
O3 P1 1.553395 1_555
O4 P2 1.553395 1_565
O5 P2 1.557003 1_555
O5 Zn0 2.117031 1_556
O9 P3 1.553395 1_565
O10 P0 1.553395 1_545
O11 P1 1.553395 1_556
O12 P0 1.553395 1_456
O13 P3 1.556998 1_565
O13 Zn1 2.117038 1_566
O14 P0 1.556994 1_555
O14 Zn0 2.117034 1_565
O15 P1 1.556997 1_556
O15 Zn1 2.117033 1_566
O16 P0 1.556997 1_555
O16 Zn0 2.117033 1_655
O17 P1 1.556994 1_555
O17 Zn1 2.117034 1_655
O18 P3 1.553395 1_655
O19 P2 1.556998 1_555
O19 Zn0 2.117038 1_555
