# generated using pymatgen
data_FeNiAs
_symmetry_space_group_name_H-M   'P 1'
_cell_length_a   5.99162266
_cell_length_b   5.99162266
_cell_length_c   3.56443600
_cell_angle_alpha   90.00000000
_cell_angle_beta   90.00000000
_cell_angle_gamma   118.72390715
_symmetry_Int_Tables_number   1
_chemical_formula_structural   FeNiAs
_chemical_formula_sum   'Fe3 Ni3 As3'
_cell_volume   112.21539395
_cell_formula_units_Z   3
loop_
 _symmetry_equiv_pos_site_id
 _symmetry_equiv_pos_as_xyz
  1  'x, y, z'
loop_
 _atom_site_type_symbol
 _atom_site_label
 _atom_site_symmetry_multiplicity
 _atom_site_fract_x
 _atom_site_fract_y
 _atom_site_fract_z
 _atom_site_occupancy
  Fe  Fe0  1  0.59911400  0.59911400  0.50000000  1
  Fe  Fe1  1  0.00038900  0.40730800  0.50000000  1
  Fe  Fe2  1  0.40730800  0.00038900  0.50000000  1
  Ni  Ni0  1  0.24695200  0.24695200  0.00000000  1
  Ni  Ni1  1  0.00375100  0.74390600  0.00000000  1
  Ni  Ni2  1  0.74390600  0.00375100  0.00000000  1
  As  As0  1  0.66313700  0.34118400  0.00000000  1
  As  As1  1  0.34118400  0.66313700  0.00000000  1
  As  As2  1  0.99415800  0.99415800  0.50000000  1
loop_
_geom_bond_atom_site_label_1
_geom_bond_atom_site_label_2
_geom_bond_distance
_geom_bond_site_symmetry_2
As0 Ni0 2.276771 1_555
As0 Ni1 2.292180 1_655
As0 Ni2 2.293945 1_555
As0 Fe0 2.506309 1_555
As0 Fe0 2.506309 1_554
As0 Fe1 2.578167 1_654
As0 Fe1 2.578167 1_655
As0 Fe2 2.585901 1_555
As0 Fe2 2.585901 1_554
As1 Ni0 2.276771 1_555
As1 Ni2 2.292180 1_565
As1 Ni1 2.293945 1_555
As1 Fe0 2.506309 1_555
As1 Fe0 2.506309 1_554
As1 Fe2 2.578167 1_565
As1 Fe2 2.578167 1_564
As1 Fe1 2.585901 1_554
As1 Fe1 2.585901 1_555
As2 Ni2 2.347486 1_566
As2 Ni1 2.347486 1_655
As2 Ni2 2.347486 1_565
As2 Ni1 2.347486 1_656
As2 Ni0 2.357863 1_665
As2 Ni0 2.357863 1_666
As2 Fe0 2.412461 1_555
As2 Fe1 2.457715 1_665
As2 Fe2 2.457715 1_665
