# generated using pymatgen
data_MgSi2
_symmetry_space_group_name_H-M   'P 1'
_cell_length_a   12.39048580
_cell_length_b   12.39048580
_cell_length_c   5.38652571
_cell_angle_alpha   77.79825800
_cell_angle_beta   77.79825800
_cell_angle_gamma   17.36789982
_symmetry_Int_Tables_number   1
_chemical_formula_structural   MgSi2
_chemical_formula_sum   'Mg4 Si8'
_cell_volume   241.14496905
_cell_formula_units_Z   4
loop_
 _symmetry_equiv_pos_site_id
 _symmetry_equiv_pos_as_xyz
  1  'x, y, z'
loop_
 _atom_site_type_symbol
 _atom_site_label
 _atom_site_symmetry_multiplicity
 _atom_site_fract_x
 _atom_site_fract_y
 _atom_site_fract_z
 _atom_site_occupancy
  Mg  Mg0  1  0.20273900  0.20273900  0.72281900  1
  Mg  Mg1  1  0.81863800  0.81863800  0.36650500  1
  Mg  Mg2  1  0.43138100  0.43138100  0.01995200  1
  Mg  Mg3  1  0.12923000  0.12923000  0.28208900  1
  Si  Si0  1  0.86222800  0.86222800  0.82791300  1
  Si  Si1  1  0.76308200  0.76308200  0.93547200  1
  Si  Si2  1  0.57537800  0.57537800  0.61169400  1
  Si  Si3  1  0.00303400  0.00303400  0.16671400  1
  Si  Si4  1  0.24129800  0.24129800  0.21307000  1
  Si  Si5  1  0.39308000  0.39308000  0.56016900  1
  Si  Si6  1  0.49410500  0.49410500  0.43947000  1
  Si  Si7  1  0.08773000  0.08773000  0.85437100  1
loop_
_geom_bond_atom_site_label_1
_geom_bond_atom_site_label_2
_geom_bond_distance
_geom_bond_site_symmetry_2
Mg0 Si4 2.706004 1_555
Mg0 Si7 2.754264 1_555
Mg0 Si1 2.778670 1_545
Mg0 Si1 2.778670 1_455
Mg0 Si4 2.988714 1_556
Mg1 Si0 2.869173 1_554
Mg1 Si4 2.905490 1_565
Mg1 Si4 2.905490 1_655
Mg1 Si0 2.907273 1_555
Mg1 Si1 2.931547 1_554
Mg1 Si5 2.954140 1_655
Mg1 Si5 2.954140 1_565
Mg1 Si1 3.075931 1_555
Mg2 Si3 2.792679 1_655
Mg2 Si3 2.792679 1_565
Mg2 Si5 2.829784 1_554
Mg2 Si5 2.860127 1_555
Mg2 Si0 2.861619 1_544
Mg2 Si0 2.861619 1_454
Mg2 Si6 2.992016 1_555
Mg2 Si6 3.175421 1_554
Mg3 Si4 2.690455 1_555
Mg3 Si7 2.709814 1_554
Mg3 Si2 2.718579 1_455
Mg3 Si2 2.718579 1_545
Mg3 Si7 3.032482 1_555
Si0 Si1 2.373367 1_555
Si0 Si5 2.384289 1_565
Si0 Si5 2.384289 1_655
Si1 Si4 2.383109 1_656
Si1 Si4 2.383109 1_566
Si2 Si7 2.338629 1_655
Si2 Si7 2.338629 1_565
Si2 Si6 2.369434 1_555
Si3 Si6 2.359821 1_545
Si3 Si6 2.359821 1_455
Si3 Si7 2.375436 1_554
Si5 Si6 2.420599 1_555
