# generated using pymatgen
data_Y2As7Rh12
_symmetry_space_group_name_H-M   'P 1'
_cell_length_a   9.88798507
_cell_length_b   9.88809760
_cell_length_c   3.90890638
_cell_angle_alpha   90.00024816
_cell_angle_beta   89.99991674
_cell_angle_gamma   120.00162291
_symmetry_Int_Tables_number   1
_chemical_formula_structural   Y2As7Rh12
_chemical_formula_sum   'Y2 As7 Rh12'
_cell_volume   330.97816577
_cell_formula_units_Z   1
loop_
 _symmetry_equiv_pos_site_id
 _symmetry_equiv_pos_as_xyz
  1  'x, y, z'
loop_
 _atom_site_type_symbol
 _atom_site_label
 _atom_site_symmetry_multiplicity
 _atom_site_fract_x
 _atom_site_fract_y
 _atom_site_fract_z
 _atom_site_occupancy
  Y  Y0  1  0.33333230  0.66664765  0.75719869  1
  Y  Y1  1  0.00002415  -0.00000702  0.25096812  1
  As  As0  1  0.66664983  0.33334677  0.51767610  1
  As  As1  1  0.95379544  0.21479187  0.75476942  1
  As  As2  1  0.78521432  0.73898803  0.75479338  1
  As  As3  1  0.26101110  0.04621536  0.75476201  1
  As  As4  1  0.37956414  0.45132174  0.25406772  1
  As  As5  1  0.54865627  0.92823728  0.25404620  1
  As  As6  1  0.07176959  0.62043735  0.25405471  1
  Rh  Rh0  1  0.73294121  0.95163403  0.75320834  1
  Rh  Rh1  1  0.04832668  0.78128246  0.75321635  1
  Rh  Rh2  1  0.21876407  0.26708752  0.75320991  1
  Rh  Rh3  1  0.60027322  0.71519632  0.25514863  1
  Rh  Rh4  1  0.28472249  0.88503690  0.25516377  1
  Rh  Rh5  1  0.11500984  0.39972409  0.25515736  1
  Rh  Rh6  1  0.93133176  0.44752497  0.75904147  1
  Rh  Rh7  1  0.55248672  0.48380709  0.75902970  1
  Rh  Rh8  1  0.51614409  0.06868758  0.75903049  1
  Rh  Rh9  1  0.40382619  0.21941135  0.24988157  1
  Rh  Rh10  1  0.78061695  0.18444470  0.24990259  1
  Rh  Rh11  1  0.81553964  0.59618397  0.24985846  1
loop_
_geom_bond_atom_site_label_1
_geom_bond_atom_site_label_2
_geom_bond_distance
_geom_bond_site_symmetry_2
As0 Rh7 2.461161 1_555
As0 Rh8 2.461424 1_555
As0 Rh6 2.461592 1_555
As0 Rh9 2.488127 1_555
As0 Rh11 2.488285 1_555
As0 Rh10 2.488496 1_555
As1 Rh2 2.403535 1_655
As1 Rh6 2.420068 1_555
As1 Rh0 2.420185 1_545
As1 Rh10 2.500864 1_556
As1 Rh10 2.530427 1_555
As1 Rh5 2.604581 1_655
As1 Rh5 2.606847 1_656
As1 Y1 3.074591 1_656
As1 Y1 3.093412 1_655
As2 Rh0 2.403178 1_555
As2 Rh1 2.419800 1_655
As2 Rh7 2.419881 1_555
As2 Rh11 2.500429 1_556
As2 Rh11 2.530396 1_555
As2 Rh3 2.604555 1_555
As2 Rh3 2.606636 1_556
As2 Y1 3.074384 1_666
As2 Y1 3.093347 1_665
As3 Rh1 2.403321 1_545
As3 Rh8 2.419365 1_555
As3 Rh2 2.420084 1_555
As3 Rh9 2.500844 1_556
As3 Rh9 2.530495 1_555
As3 Rh4 2.604306 1_545
As3 Rh4 2.606673 1_546
As3 Y1 3.074275 1_556
As3 Y1 3.093075 1_555
As4 Rh5 2.401790 1_555
As4 Rh9 2.422092 1_555
As4 Rh3 2.424090 1_555
As4 Rh7 2.494387 1_554
As4 Rh7 2.524601 1_555
As4 Rh2 2.599403 1_555
As4 Rh2 2.604432 1_554
As4 Y0 3.080247 1_554
As4 Y0 3.095727 1_555
As5 Rh3 2.402784 1_555
As5 Rh10 2.422426 1_565
As5 Rh4 2.424570 1_555
As5 Rh8 2.494534 1_564
As5 Rh8 2.524869 1_565
As5 Rh0 2.599899 1_555
As5 Rh0 2.604816 1_554
As5 Y0 3.080278 1_554
As5 Y0 3.095886 1_555
As6 Rh4 2.402048 1_555
As6 Rh11 2.422656 1_455
As6 Rh5 2.424667 1_555
As6 Rh6 2.494260 1_454
As6 Rh6 2.524631 1_455
As6 Rh1 2.599812 1_555
As6 Rh1 2.604745 1_554
As6 Y0 3.080266 1_554
As6 Y0 3.095825 1_555
Rh0 Y1 3.118641 1_666
Rh0 Y1 3.129596 1_665
Rh1 Y1 3.118271 1_566
Rh1 Y1 3.129281 1_565
Rh2 Y1 3.118723 1_556
Rh2 Y1 3.129677 1_555
Rh3 Y0 3.117518 1_554
Rh3 Y0 3.127548 1_555
Rh4 Y0 3.117866 1_554
Rh4 Y0 3.127835 1_555
Rh5 Y0 3.117253 1_554
Rh5 Y0 3.127233 1_555
