# generated using pymatgen
data_Zn(AgO2)2
_symmetry_space_group_name_H-M   'P 1'
_cell_length_a   3.18641400
_cell_length_b   9.89801700
_cell_length_c   10.81725900
_cell_angle_alpha   90.00000000
_cell_angle_beta   90.00000000
_cell_angle_gamma   90.00000000
_symmetry_Int_Tables_number   1
_chemical_formula_structural   Zn(AgO2)2
_chemical_formula_sum   'Zn4 Ag8 O16'
_cell_volume   341.16747807
_cell_formula_units_Z   4
loop_
 _symmetry_equiv_pos_site_id
 _symmetry_equiv_pos_as_xyz
  1  'x, y, z'
loop_
 _atom_site_type_symbol
 _atom_site_label
 _atom_site_symmetry_multiplicity
 _atom_site_fract_x
 _atom_site_fract_y
 _atom_site_fract_z
 _atom_site_occupancy
  Zn  Zn0  1  0.31490200  0.25000000  0.84880800  1
  Zn  Zn1  1  0.31490200  0.75000000  0.65119200  1
  Zn  Zn2  1  0.68509800  0.25000000  0.34880800  1
  Zn  Zn3  1  0.68509800  0.75000000  0.15119200  1
  Ag  Ag0  1  0.82320400  0.07060000  0.61548500  1
  Ag  Ag1  1  0.82320400  0.57060000  0.88451500  1
  Ag  Ag2  1  0.17679600  0.57060000  0.38451500  1
  Ag  Ag3  1  0.82320400  0.92940000  0.88451500  1
  Ag  Ag4  1  0.17679600  0.92940000  0.38451500  1
  Ag  Ag5  1  0.82320400  0.42940000  0.61548500  1
  Ag  Ag6  1  0.17679600  0.42940000  0.11548500  1
  Ag  Ag7  1  0.17679600  0.07060000  0.11548500  1
  O  O0  1  0.12522900  0.37616500  0.45145500  1
  O  O1  1  0.87477100  0.62383500  0.54854500  1
  O  O2  1  0.45407000  0.50000000  0.75000000  1
  O  O3  1  0.87477100  0.37616500  0.95145500  1
  O  O4  1  0.87477100  0.12383500  0.95145500  1
  O  O5  1  0.80273100  0.75000000  0.78469400  1
  O  O6  1  0.12522900  0.62383500  0.04854500  1
  O  O7  1  0.19726900  0.75000000  0.28469400  1
  O  O8  1  0.45407000  0.00000000  0.75000000  1
  O  O9  1  0.54593000  0.50000000  0.25000000  1
  O  O10  1  0.12522900  0.12383500  0.45145500  1
  O  O11  1  0.19726900  0.25000000  0.21530600  1
  O  O12  1  0.80273100  0.25000000  0.71530600  1
  O  O13  1  0.54593000  0.00000000  0.25000000  1
  O  O14  1  0.12522900  0.87616500  0.04854500  1
  O  O15  1  0.87477100  0.87616500  0.54854500  1
loop_
_geom_bond_atom_site_label_1
_geom_bond_atom_site_label_2
_geom_bond_distance
_geom_bond_site_symmetry_2
Ag0 O8 1.997265 1_555
Ag0 O15 2.062792 1_545
Ag0 O12 2.079261 1_555
Ag0 O10 2.086181 1_655
Ag0 O8 2.578080 1_655
Ag1 O2 1.997265 1_555
Ag1 O3 2.062792 1_555
Ag1 O5 2.079261 1_555
Ag1 O6 2.086181 1_656
Ag1 O2 2.578080 1_655
Ag2 O9 1.997265 1_555
Ag2 O0 2.062792 1_555
Ag2 O7 2.079261 1_555
Ag2 O1 2.086181 1_455
Ag2 O9 2.578080 1_455
Ag3 O8 1.997265 1_565
Ag3 O4 2.062792 1_565
Ag3 O5 2.079261 1_555
Ag3 O14 2.086181 1_656
Ag3 O8 2.578080 1_665
Ag4 O13 1.997265 1_565
Ag4 O10 2.062792 1_565
Ag4 O7 2.079261 1_555
Ag4 O15 2.086181 1_455
Ag4 O13 2.578080 1_465
Ag5 O2 1.997265 1_555
Ag5 O1 2.062792 1_555
Ag5 O12 2.079261 1_555
Ag5 O0 2.086181 1_655
Ag5 O2 2.578080 1_655
Ag6 O9 1.997265 1_555
Ag6 O6 2.062792 1_555
Ag6 O11 2.079261 1_555
Ag6 O3 2.086181 1_454
Ag6 O9 2.578080 1_455
Ag7 O13 1.997265 1_555
Ag7 O14 2.062792 1_545
Ag7 O11 2.079261 1_555
Ag7 O4 2.086181 1_454
Ag7 O13 2.578080 1_455
O0 Zn2 2.181558 1_455
O0 Zn2 2.444365 1_555
O1 Zn1 2.181558 1_655
O1 Zn1 2.444365 1_555
O3 Zn0 2.181558 1_655
O3 Zn0 2.444365 1_555
O4 Zn0 2.181558 1_655
O4 Zn0 2.444365 1_555
O5 Zn1 2.121730 1_555
O5 Zn1 2.179194 1_655
O6 Zn3 2.181558 1_455
O6 Zn3 2.444365 1_555
O7 Zn3 2.121730 1_555
O7 Zn3 2.179194 1_455
O10 Zn2 2.181558 1_455
O10 Zn2 2.444365 1_555
O11 Zn2 2.121730 1_555
O11 Zn2 2.179194 1_455
O12 Zn0 2.121730 1_555
O12 Zn0 2.179194 1_655
O14 Zn3 2.181558 1_455
O14 Zn3 2.444365 1_555
O15 Zn1 2.181558 1_655
O15 Zn1 2.444365 1_555
