# generated using pymatgen
data_Mg(CoO2)2
_symmetry_space_group_name_H-M   'P 1'
_cell_length_a   2.82956400
_cell_length_b   8.69342700
_cell_length_c   10.01413300
_cell_angle_alpha   90.00000000
_cell_angle_beta   90.00000000
_cell_angle_gamma   90.00000000
_symmetry_Int_Tables_number   1
_chemical_formula_structural   Mg(CoO2)2
_chemical_formula_sum   'Mg4 Co8 O16'
_cell_volume   246.33373289
_cell_formula_units_Z   4
loop_
 _symmetry_equiv_pos_site_id
 _symmetry_equiv_pos_as_xyz
  1  'x, y, z'
loop_
 _atom_site_type_symbol
 _atom_site_label
 _atom_site_symmetry_multiplicity
 _atom_site_fract_x
 _atom_site_fract_y
 _atom_site_fract_z
 _atom_site_occupancy
  Mg  Mg0  1  0.25000000  0.25909200  0.66175200  1
  Mg  Mg1  1  0.75000000  0.74090800  0.33824800  1
  Mg  Mg2  1  0.25000000  0.75909200  0.83824800  1
  Mg  Mg3  1  0.75000000  0.24090800  0.16175200  1
  Co  Co0  1  0.25000000  0.44905400  0.88252700  1
  Co  Co1  1  0.75000000  0.55094600  0.11747300  1
  Co  Co2  1  0.25000000  0.94905400  0.61747300  1
  Co  Co3  1  0.75000000  0.05094600  0.38252700  1
  Co  Co4  1  0.25000000  0.40709300  0.40330600  1
  Co  Co5  1  0.75000000  0.59290700  0.59669400  1
  Co  Co6  1  0.25000000  0.90709300  0.09669400  1
  Co  Co7  1  0.75000000  0.09290700  0.90330600  1
  O  O0  1  0.25000000  0.19366500  0.32868600  1
  O  O1  1  0.75000000  0.80633500  0.67131400  1
  O  O2  1  0.25000000  0.69366500  0.17131400  1
  O  O3  1  0.75000000  0.30633500  0.82868600  1
  O  O4  1  0.25000000  0.11691900  0.03851800  1
  O  O5  1  0.75000000  0.88308100  0.96148200  1
  O  O6  1  0.25000000  0.61691900  0.46148200  1
  O  O7  1  0.75000000  0.38308100  0.53851800  1
  O  O8  1  0.25000000  0.05523900  0.78417600  1
  O  O9  1  0.75000000  0.94476100  0.21582400  1
  O  O10  1  0.25000000  0.55523900  0.71582400  1
  O  O11  1  0.75000000  0.44476100  0.28417600  1
  O  O12  1  0.25000000  0.40811100  0.07052000  1
  O  O13  1  0.75000000  0.59188900  0.92948000  1
  O  O14  1  0.25000000  0.90811100  0.42948000  1
  O  O15  1  0.75000000  0.09188900  0.57052000  1
loop_
_geom_bond_atom_site_label_1
_geom_bond_atom_site_label_2
_geom_bond_distance
_geom_bond_site_symmetry_2
Mg0 O8 2.154908 1_555
Mg0 O7 2.164812 1_455
Mg0 O7 2.164812 1_555
Mg0 O15 2.224668 1_455
Mg0 O15 2.224668 1_555
Mg0 O3 2.228197 1_455
Mg0 O3 2.228197 1_555
Mg1 O9 2.154908 1_555
Mg1 O6 2.164812 1_555
Mg1 O6 2.164812 1_655
Mg1 O14 2.224668 1_655
Mg1 O14 2.224668 1_555
Mg1 O2 2.228197 1_555
Mg1 O2 2.228197 1_655
Mg2 O10 2.154908 1_555
Mg2 O5 2.164812 1_455
Mg2 O5 2.164812 1_555
Mg2 O13 2.224668 1_455
Mg2 O13 2.224668 1_555
Mg2 O1 2.228197 1_555
Mg2 O1 2.228197 1_455
Mg3 O11 2.154908 1_555
Mg3 O4 2.164812 1_655
Mg3 O4 2.164812 1_555
Mg3 O12 2.224668 1_555
Mg3 O12 2.224668 1_655
Mg3 O0 2.228197 1_555
Mg3 O0 2.228197 1_655
Co0 O10 1.907612 1_555
Co0 O12 1.915939 1_556
Co0 O13 1.940251 1_555
Co0 O13 1.940251 1_455
Co0 O3 1.957471 1_455
Co0 O3 1.957471 1_555
Co1 O11 1.907612 1_555
Co1 O13 1.915939 1_554
Co1 O12 1.940251 1_555
Co1 O12 1.940251 1_655
Co1 O2 1.957471 1_555
Co1 O2 1.957471 1_655
Co2 O8 1.907612 1_565
Co2 O14 1.915939 1_555
Co2 O15 1.940251 1_465
Co2 O15 1.940251 1_565
Co2 O1 1.957471 1_455
Co2 O1 1.957471 1_555
Co3 O9 1.907612 1_545
Co3 O15 1.915939 1_555
Co3 O14 1.940251 1_545
Co3 O14 1.940251 1_645
Co3 O0 1.957471 1_555
Co3 O0 1.957471 1_655
Co4 O11 1.879375 1_555
Co4 O11 1.879375 1_455
Co4 O6 1.914881 1_555
Co4 O7 1.969412 1_555
Co4 O7 1.969412 1_455
Co4 O0 2.000244 1_555
Co5 O10 1.879375 1_655
Co5 O10 1.879375 1_555
Co5 O7 1.914881 1_555
Co5 O6 1.969412 1_555
Co5 O6 1.969412 1_655
Co5 O1 2.000244 1_555
Co6 O9 1.879375 1_455
Co6 O9 1.879375 1_555
Co6 O4 1.914881 1_565
Co6 O5 1.969412 1_454
Co6 O5 1.969412 1_554
Co6 O2 2.000244 1_555
Co7 O8 1.879375 1_555
Co7 O8 1.879375 1_655
Co7 O5 1.914881 1_545
Co7 O4 1.969412 1_656
Co7 O4 1.969412 1_556
Co7 O3 2.000244 1_555
