# generated using pymatgen
data_Nd3GaNiS7
_symmetry_space_group_name_H-M   'P 1'
_cell_length_a   9.86939853
_cell_length_b   9.86939853
_cell_length_c   6.20163300
_cell_angle_alpha   90.00000000
_cell_angle_beta   90.00000000
_cell_angle_gamma   120.00000355
_symmetry_Int_Tables_number   1
_chemical_formula_structural   Nd3GaNiS7
_chemical_formula_sum   'Nd6 Ga2 Ni2 S14'
_cell_volume   523.14014780
_cell_formula_units_Z   2
loop_
 _symmetry_equiv_pos_site_id
 _symmetry_equiv_pos_as_xyz
  1  'x, y, z'
loop_
 _atom_site_type_symbol
 _atom_site_label
 _atom_site_symmetry_multiplicity
 _atom_site_fract_x
 _atom_site_fract_y
 _atom_site_fract_z
 _atom_site_occupancy
  Nd  Nd0  1  0.84734800  0.62605000  0.68018200  1
  Nd  Nd1  1  0.77870200  0.15265200  0.68018200  1
  Nd  Nd2  1  0.37395000  0.22129800  0.68018200  1
  Nd  Nd3  1  0.15265200  0.37395000  0.18018200  1
  Nd  Nd4  1  0.22129800  0.84734800  0.18018200  1
  Nd  Nd5  1  0.62605000  0.77870200  0.18018200  1
  Ga  Ga0  1  0.33333300  0.66666700  0.60551600  1
  Ga  Ga1  1  0.66666700  0.33333300  0.10551600  1
  Ni  Ni0  1  0.00000000  0.00000000  0.99266400  1
  Ni  Ni1  1  0.00000000  0.00000000  0.49266400  1
  S  S0  1  0.56929800  0.47956200  0.95582300  1
  S  S1  1  0.91026400  0.43070200  0.95582300  1
  S  S2  1  0.52043800  0.08973600  0.95582300  1
  S  S3  1  0.43070200  0.52043800  0.45582300  1
  S  S4  1  0.08973600  0.56929800  0.45582300  1
  S  S5  1  0.47956200  0.91026400  0.45582300  1
  S  S6  1  0.33333300  0.66666700  0.97011000  1
  S  S7  1  0.66666700  0.33333300  0.47011000  1
  S  S8  1  0.13205300  0.90611300  0.75543600  1
  S  S9  1  0.77406000  0.86794700  0.75543600  1
  S  S10  1  0.09388700  0.22594000  0.75543600  1
  S  S11  1  0.86794700  0.09388700  0.25543600  1
  S  S12  1  0.22594000  0.13205300  0.25543600  1
  S  S13  1  0.90611300  0.77406000  0.25543600  1
loop_
_geom_bond_atom_site_label_1
_geom_bond_atom_site_label_2
_geom_bond_distance
_geom_bond_site_symmetry_2
Nd0 S8 2.826044 1_655
Nd0 S7 2.841037 1_555
Nd0 S9 2.857860 1_555
Nd0 S1 2.867389 1_555
Nd0 S13 2.926020 1_555
Nd0 S0 2.928391 1_555
Nd0 S4 3.051611 1_655
Nd1 S9 2.826045 1_545
Nd1 S7 2.841030 1_555
Nd1 S10 2.857860 1_655
Nd1 S2 2.867389 1_555
Nd1 S11 2.926020 1_555
Nd1 S1 2.928391 1_555
Nd1 S5 3.051611 1_545
Nd2 S10 2.826045 1_555
Nd2 S7 2.841038 1_555
Nd2 S8 2.857860 1_545
Nd2 S0 2.867389 1_555
Nd2 S12 2.926020 1_555
Nd2 S2 2.928391 1_555
Nd2 S3 3.051611 1_555
Nd3 S11 2.826044 1_455
Nd3 S6 2.841037 1_554
Nd3 S12 2.857860 1_555
Nd3 S4 2.867389 1_555
Nd3 S10 2.926020 1_554
Nd3 S3 2.928391 1_555
Nd3 S1 3.051611 1_454
Nd4 S12 2.826045 1_565
Nd4 S6 2.841030 1_554
Nd4 S13 2.857860 1_455
Nd4 S5 2.867389 1_555
Nd4 S8 2.926020 1_554
Nd4 S4 2.928391 1_555
Nd4 S2 3.051611 1_564
Nd5 S13 2.826045 1_555
Nd5 S6 2.841038 1_554
Nd5 S11 2.857860 1_565
Nd5 S3 2.867389 1_555
Nd5 S9 2.926020 1_554
Nd5 S5 2.928391 1_555
Nd5 S0 3.051611 1_554
Ga0 S6 2.261078 1_555
Ga0 S4 2.292362 1_555
Ga0 S5 2.292363 1_555
Ga0 S3 2.292370 1_555
Ga1 S7 2.261078 1_555
Ga1 S1 2.292362 1_554
Ga1 S2 2.292363 1_554
Ga1 S0 2.292370 1_554
Ni0 S9 2.434998 1_445
Ni0 S10 2.434998 1_555
Ni0 S8 2.434998 1_545
Ni0 S12 2.533857 1_556
Ni0 S13 2.533857 1_446
Ni0 S11 2.533857 1_456
Ni1 S12 2.434998 1_555
Ni1 S13 2.434998 1_445
Ni1 S11 2.434998 1_455
Ni1 S9 2.533857 1_445
Ni1 S10 2.533857 1_555
Ni1 S8 2.533857 1_545
