# generated using pymatgen
data_Al(V4Sn)3
_symmetry_space_group_name_H-M   'P 1'
_cell_length_a   4.90232812
_cell_length_b   4.90173884
_cell_length_c   9.81559226
_cell_angle_alpha   90.00000000
_cell_angle_beta   90.00000000
_cell_angle_gamma   90.00000000
_symmetry_Int_Tables_number   1
_chemical_formula_structural   Al(V4Sn)3
_chemical_formula_sum   'Al1 V12 Sn3'
_cell_volume   235.86801604
_cell_formula_units_Z   1
loop_
 _symmetry_equiv_pos_site_id
 _symmetry_equiv_pos_as_xyz
  1  'x, y, z'
loop_
 _atom_site_type_symbol
 _atom_site_label
 _atom_site_symmetry_multiplicity
 _atom_site_fract_x
 _atom_site_fract_y
 _atom_site_fract_z
 _atom_site_occupancy
  Al  Al0  1  0.50000000  0.50000000  0.50000000  1
  V  V0  1  0.50000000  -0.00000000  0.61766649  1
  V  V1  1  0.50000000  -0.00000000  0.12595446  1
  V  V2  1  0.74212878  0.50000000  0.25844615  1
  V  V3  1  0.74212878  0.50000000  0.74155385  1
  V  V4  1  -0.00000000  0.73264759  0.50000000  1
  V  V5  1  -0.00000000  0.75508384  0.00000000  1
  V  V6  1  0.50000000  -0.00000000  0.38233351  1
  V  V7  1  0.50000000  -0.00000000  0.87404554  1
  V  V8  1  0.25787122  0.50000000  0.25844615  1
  V  V9  1  0.25787122  0.50000000  0.74155385  1
  V  V10  1  -0.00000000  0.26735241  0.50000000  1
  V  V11  1  -0.00000000  0.24491616  0.00000000  1
  Sn  Sn0  1  0.50000000  0.50000000  0.00000000  1
  Sn  Sn1  1  -0.00000000  -0.00000000  0.25174339  1
  Sn  Sn2  1  -0.00000000  -0.00000000  0.74825661  1
loop_
_geom_bond_atom_site_label_1
_geom_bond_atom_site_label_2
_geom_bond_distance
_geom_bond_site_symmetry_2
Al0 V9 2.651522 1_555
Al0 V3 2.651522 1_555
Al0 V8 2.651522 1_555
Al0 V2 2.651522 1_555
Al0 V10 2.703455 1_655
Al0 V4 2.703455 1_555
Al0 V4 2.703455 1_655
Al0 V10 2.703455 1_555
Al0 V0 2.709374 1_565
Al0 V0 2.709374 1_555
Al0 V6 2.709374 1_555
Al0 V6 2.709374 1_565
V0 V6 2.309933 1_555
V0 V7 2.516512 1_555
V0 V9 2.982355 1_555
V0 V3 2.982355 1_545
V0 V9 2.982355 1_545
V0 V3 2.982355 1_555
V0 V10 3.009907 1_655
V0 V10 3.009907 1_555
V0 V4 3.009907 1_545
V0 V4 3.009907 1_645
V1 V7 2.472635 1_554
V1 V6 2.516512 1_555
V2 V8 2.373989 1_555
V2 V8 2.528339 1_655
V2 V4 2.918938 1_655
V2 V6 2.982355 1_555
V2 V6 2.982355 1_565
V3 V9 2.373989 1_555
V3 V9 2.528339 1_655
V3 V4 2.918938 1_655
V4 V9 2.918938 1_555
V4 V8 2.918938 1_555
V4 V6 3.009907 1_465
V4 V6 3.009907 1_565
V6 V8 2.982355 1_555
V6 V8 2.982355 1_545
V10 V4 2.280755 1_555
V10 V4 2.620983 1_545
V10 V3 2.918938 1_455
V10 V9 2.918938 1_555
V10 V2 2.918938 1_455
V10 V8 2.918938 1_555
V10 V6 3.009907 1_455
V10 V6 3.009907 1_555
V11 V5 2.401030 1_545
V11 V5 2.500709 1_555
Sn0 V1 2.745040 1_555
Sn0 V7 2.745040 1_554
Sn0 V1 2.745040 1_565
Sn0 V7 2.745040 1_564
Sn0 V5 2.751652 1_555
Sn0 V11 2.751652 1_555
Sn0 V11 2.751652 1_655
Sn0 V5 2.751652 1_655
Sn0 V8 2.800772 1_555
Sn0 V2 2.800772 1_555
Sn0 V9 2.800772 1_554
Sn0 V3 2.800772 1_554
Sn1 V1 2.744571 1_555
Sn1 V1 2.744571 1_455
Sn1 V11 2.747204 1_555
Sn1 V5 2.747204 1_545
Sn1 V2 2.758480 1_445
Sn1 V8 2.758480 1_545
Sn1 V2 2.758480 1_455
Sn1 V8 2.758480 1_555
Sn1 V6 2.766092 1_555
Sn1 V6 2.766092 1_455
Sn1 V10 2.766824 1_555
Sn1 V4 2.766824 1_545
Sn2 V7 2.744571 1_555
Sn2 V7 2.744571 1_455
Sn2 V11 2.747204 1_556
Sn2 V5 2.747204 1_546
Sn2 V3 2.758480 1_455
Sn2 V9 2.758480 1_555
Sn2 V3 2.758480 1_445
Sn2 V9 2.758480 1_545
Sn2 V0 2.766092 1_555
Sn2 V0 2.766092 1_455
Sn2 V10 2.766824 1_555
Sn2 V4 2.766824 1_545
