# generated using pymatgen
data_BaSrEuWO6
_symmetry_space_group_name_H-M   'P 1'
_cell_length_a   8.57291220
_cell_length_b   8.64432004
_cell_length_c   8.63188323
_cell_angle_alpha   90.00000000
_cell_angle_beta   90.00000000
_cell_angle_gamma   90.00000000
_symmetry_Int_Tables_number   1
_chemical_formula_structural   BaSrEuWO6
_chemical_formula_sum   'Ba4 Sr4 Eu4 W4 O24'
_cell_volume   639.68294231
_cell_formula_units_Z   4
loop_
 _symmetry_equiv_pos_site_id
 _symmetry_equiv_pos_as_xyz
  1  'x, y, z'
loop_
 _atom_site_type_symbol
 _atom_site_label
 _atom_site_symmetry_multiplicity
 _atom_site_fract_x
 _atom_site_fract_y
 _atom_site_fract_z
 _atom_site_occupancy
  Ba  Ba0  1  -0.00000000  0.00000000  0.00000000  1
  Ba  Ba1  1  0.50000000  0.50000000  0.50000000  1
  Ba  Ba2  1  0.50000000  0.50000000  0.00000000  1
  Ba  Ba3  1  0.00000000  0.00000000  0.50000000  1
  Sr  Sr0  1  0.75000000  0.75000000  0.75000000  1
  Sr  Sr1  1  0.25000000  0.25000000  0.75000000  1
  Sr  Sr2  1  0.25000000  0.75000000  0.25000000  1
  Sr  Sr3  1  0.75000000  0.25000000  0.25000000  1
  Eu  Eu0  1  0.00000000  0.50000000  0.50000000  1
  Eu  Eu1  1  0.50000000  0.00000000  0.50000000  1
  Eu  Eu2  1  0.50000000  0.00000000  -0.00000000  1
  Eu  Eu3  1  0.00000000  0.50000000  -0.00000000  1
  W  W0  1  0.25000000  0.25000000  0.25000000  1
  W  W1  1  0.75000000  0.75000000  0.25000000  1
  W  W2  1  0.75000000  0.25000000  0.75000000  1
  W  W3  1  0.25000000  0.75000000  0.75000000  1
  O  O0  1  0.02766326  0.20996352  0.28169208  1
  O  O1  1  0.97233674  0.79003648  0.28169208  1
  O  O2  1  0.97233674  0.20996352  0.71830792  1
  O  O3  1  0.02766326  0.79003648  0.71830792  1
  O  O4  1  0.28882335  0.02973470  0.20002046  1
  O  O5  1  0.28882335  0.97026530  0.79997954  1
  O  O6  1  0.71117665  0.97026530  0.20002046  1
  O  O7  1  0.71117665  0.02973470  0.79997954  1
  O  O8  1  0.20353821  0.29274328  0.02969639  1
  O  O9  1  0.79646179  0.29274328  0.97030361  1
  O  O10  1  0.20353821  0.70725672  0.97030361  1
  O  O11  1  0.79646179  0.70725672  0.02969639  1
  O  O12  1  0.47233674  0.29003648  0.21830792  1
  O  O13  1  0.52766326  0.70996352  0.21830792  1
  O  O14  1  0.52766326  0.29003648  0.78169208  1
  O  O15  1  0.47233674  0.70996352  0.78169208  1
  O  O16  1  0.21117665  0.47026530  0.29997954  1
  O  O17  1  0.21117665  0.52973470  0.70002046  1
  O  O18  1  0.78882335  0.52973470  0.29997954  1
  O  O19  1  0.78882335  0.47026530  0.70002046  1
  O  O20  1  0.29646179  0.20725672  0.47030361  1
  O  O21  1  0.70353821  0.20725672  0.52969639  1
  O  O22  1  0.29646179  0.79274328  0.52969639  1
  O  O23  1  0.70353821  0.79274328  0.47030361  1
loop_
_geom_bond_atom_site_label_1
_geom_bond_atom_site_label_2
_geom_bond_distance
_geom_bond_site_symmetry_2
Ba0 O5 3.029507 1_544
Ba0 O7 3.029507 1_454
Ba0 O6 3.029507 1_445
Ba0 O4 3.029507 1_555
Ba0 O3 3.043483 1_544
Ba0 O1 3.043483 1_445
Ba0 O2 3.043483 1_454
Ba0 O0 3.043483 1_555
Ba0 O11 3.084510 1_445
Ba0 O10 3.084510 1_544
Ba0 O9 3.084510 1_454
Ba0 O8 3.084510 1_555
Ba1 O18 3.029507 1_555
Ba1 O16 3.029507 1_555
Ba1 O19 3.029507 1_555
Ba1 O17 3.029507 1_555
Ba1 O12 3.043483 1_555
Ba1 O13 3.043483 1_555
Ba1 O14 3.043483 1_555
Ba1 O15 3.043483 1_555
Ba1 O20 3.084510 1_555
Ba1 O21 3.084510 1_555
Ba1 O22 3.084510 1_555
Ba1 O23 3.084510 1_555
Ba2 O14 2.627058 1_554
Ba2 O15 2.627058 1_554
Ba2 O12 2.627058 1_555
Ba2 O13 2.627058 1_555
Ba2 O8 3.120087 1_555
Ba2 O10 3.120087 1_554
Ba2 O9 3.120087 1_554
Ba2 O11 3.120087 1_555
Ba3 O1 2.627058 1_445
Ba3 O0 2.627058 1_555
Ba3 O2 2.627058 1_455
Ba3 O3 2.627058 1_545
Ba3 O23 3.120087 1_445
Ba3 O22 3.120087 1_545
Ba3 O21 3.120087 1_455
Ba3 O20 3.120087 1_555
Eu0 O18 2.514875 1_455
Eu0 O19 2.514875 1_455
Eu0 O16 2.514875 1_555
Eu0 O17 2.514875 1_555
Eu0 O0 3.145335 1_555
Eu0 O2 3.145335 1_455
Eu0 O1 3.145335 1_455
Eu0 O3 3.145335 1_555
Eu1 O23 2.514010 1_545
Eu1 O22 2.514010 1_545
Eu1 O20 2.514010 1_555
Eu1 O21 2.514010 1_555
Eu2 O7 2.514875 1_554
Eu2 O5 2.514875 1_544
Eu2 O6 2.514875 1_545
Eu2 O4 2.514875 1_555
Eu2 O14 3.145335 1_554
Eu2 O15 3.145335 1_544
Eu2 O13 3.145335 1_545
Eu2 O12 3.145335 1_555
Eu3 O9 2.514010 1_454
Eu3 O11 2.514010 1_455
Eu3 O8 2.514010 1_555
Eu3 O10 2.514010 1_554
O0 W0 1.956458 1_555
O0 Sr3 2.420916 1_455
O1 W1 1.956458 1_555
O1 Sr2 2.420916 1_655
O2 W2 1.956458 1_555
O2 Sr1 2.420916 1_655
O3 W3 1.956458 1_555
O3 Sr0 2.420916 1_455
O4 W0 1.980474 1_555
O4 Sr2 2.478746 1_545
O5 W3 1.980474 1_555
O5 Sr1 2.478746 1_565
O6 W1 1.980474 1_555
O6 Sr3 2.478746 1_565
O7 W2 1.980474 1_555
O7 Sr0 2.478746 1_545
O8 W0 1.977723 1_555
O8 Sr1 2.474682 1_554
O9 W2 1.977723 1_555
O9 Sr3 2.474682 1_556
O10 W3 1.977723 1_555
O10 Sr2 2.474682 1_556
O11 W1 1.977723 1_555
O11 Sr0 2.474682 1_554
O12 W0 1.956458 1_555
O12 Sr3 2.420916 1_555
O13 W1 1.956458 1_555
O13 Sr2 2.420916 1_555
O14 W2 1.956458 1_555
O14 Sr1 2.420916 1_555
O15 W3 1.956458 1_555
O15 Sr0 2.420916 1_555
O16 W0 1.980474 1_555
O16 Sr2 2.478746 1_555
O17 W3 1.980474 1_555
O17 Sr1 2.478746 1_555
O18 W1 1.980474 1_555
O18 Sr3 2.478746 1_555
O19 W2 1.980474 1_555
O19 Sr0 2.478746 1_555
O20 W0 1.977723 1_555
O20 Sr1 2.474682 1_555
O21 W2 1.977723 1_555
O21 Sr3 2.474682 1_555
O22 W3 1.977723 1_555
O22 Sr2 2.474682 1_555
O23 W1 1.977723 1_555
O23 Sr0 2.474682 1_555
