# generated using pymatgen
data_Nd8AlSi3(NO5)3
_symmetry_space_group_name_H-M   'P 1'
_cell_length_a   10.68191591
_cell_length_b   8.79312280
_cell_length_c   11.28480219
_cell_angle_alpha   88.62514180
_cell_angle_beta   115.27753801
_cell_angle_gamma   93.17419843
_symmetry_Int_Tables_number   1
_chemical_formula_structural   Nd8AlSi3(NO5)3
_chemical_formula_sum   'Nd16 Al2 Si6 N6 O30'
_cell_volume   956.99117369
_cell_formula_units_Z   2
loop_
 _symmetry_equiv_pos_site_id
 _symmetry_equiv_pos_as_xyz
  1  'x, y, z'
loop_
 _atom_site_type_symbol
 _atom_site_label
 _atom_site_symmetry_multiplicity
 _atom_site_fract_x
 _atom_site_fract_y
 _atom_site_fract_z
 _atom_site_occupancy
  Nd  Nd0  1  0.07168400  0.30727800  0.91954300  1
  Nd  Nd1  1  0.03048700  0.12496900  0.35537300  1
  Nd  Nd2  1  0.16158500  0.54663100  0.66277100  1
  Nd  Nd3  1  0.40178300  0.12499900  0.97787500  1
  Nd  Nd4  1  0.26547700  0.94050800  0.19292800  1
  Nd  Nd5  1  0.36138800  0.41333700  0.46912400  1
  Nd  Nd6  1  0.39775400  0.93260500  0.56862200  1
  Nd  Nd7  1  0.58106600  0.43557800  0.81927400  1
  Nd  Nd8  1  0.33144800  0.65058700  0.00867300  1
  Nd  Nd9  1  0.63938000  0.98298900  0.34835200  1
  Nd  Nd10  1  0.77219700  0.57778400  0.59225400  1
  Nd  Nd11  1  0.76618900  0.05697400  0.82024200  1
  Nd  Nd12  1  0.66572000  0.81894700  0.06203200  1
  Nd  Nd13  1  0.67205200  0.43747600  0.21462200  1
  Nd  Nd14  1  0.01762500  0.95977100  0.66662400  1
  Nd  Nd15  1  0.94906800  0.55456400  0.13135400  1
  Al  Al0  1  0.03096700  0.79578200  0.92323100  1
  Al  Al1  1  0.25280900  0.21371800  0.64839800  1
  Si  Si0  1  0.12445700  0.75960900  0.41457000  1
  Si  Si1  1  0.74497300  0.71723600  0.82385000  1
  Si  Si2  1  0.39086300  0.29169000  0.21766100  1
  Si  Si3  1  0.83625000  0.76273100  0.34561500  1
  Si  Si4  1  0.90544900  0.29118400  0.54887900  1
  Si  Si5  1  0.77001600  0.20829700  0.04213200  1
  N  N0  1  0.06320200  0.27413000  0.54640100  1
  N  N1  1  0.26144600  0.18161300  0.08937300  1
  N  N2  1  0.86625100  0.81622000  0.95335200  1
  N  N3  1  0.66962500  0.70185900  0.25188000  1
  N  N4  1  0.96775600  0.66560900  0.33621600  1
  N  N5  1  0.87821700  0.30133000  0.19327100  1
  O  O0  1  0.22537500  0.10614700  0.77187900  1
  O  O1  1  0.93020900  0.38549100  0.68594700  1
  O  O2  1  0.02630800  0.30875300  0.20394400  1
  O  O3  1  0.15316700  0.90449100  0.32966500  1
  O  O4  1  0.14435700  0.84662100  0.55261700  1
  O  O5  1  0.25706600  0.64735900  0.46749000  1
  O  O6  1  0.21561400  0.45886400  0.86219800  1
  O  O7  1  0.34165800  0.40002300  0.67856500  1
  O  O8  1  0.09697400  0.59159800  0.01728000  1
  O  O9  1  0.18530400  0.65592500  0.15304900  1
  O  O10  1  0.27253500  0.16207600  0.50073800  1
  O  O11  1  0.48090400  0.65767100  0.89101400  1
  O  O12  1  0.54229200  0.20089100  0.23860800  1
  O  O13  1  0.44857000  0.10619000  0.75095000  1
  O  O14  1  0.34902200  0.72875200  0.80004300  1
  O  O15  1  0.54725000  0.17119600  0.69596200  1
  O  O16  1  0.45755700  0.92794700  0.39487000  1
  O  O17  1  0.57435200  0.47939100  0.60112700  1
  O  O18  1  0.45864600  0.90452700  0.09251500  1
  O  O19  1  0.63449500  0.83327100  0.71149100  1
  O  O20  1  0.42877600  0.45127700  0.14603700  1
  O  O21  1  0.84303900  0.79295500  0.49356600  1
  O  O22  1  0.61177600  0.27202300  0.01211300  1
  O  O23  1  0.81810600  0.30688600  0.93081700  1
  O  O24  1  0.71593800  0.57276400  0.04082300  1
  O  O25  1  0.79809600  0.41034800  0.44173300  1
  O  O26  1  0.82598000  0.11880500  0.52922300  1
  O  O27  1  0.97042200  0.07971400  0.82193500  1
  O  O28  1  0.95977200  0.72932600  0.75414600  1
  O  O29  1  0.83925400  0.94271100  0.28516700  1
loop_
_geom_bond_atom_site_label_1
_geom_bond_atom_site_label_2
_geom_bond_distance
_geom_bond_site_symmetry_2
Nd0 O6 2.267270 1_555
Nd0 O27 2.288198 1_455
Nd0 O1 2.516288 1_455
Nd0 O8 2.709767 1_556
Nd0 O23 2.765230 1_455
Nd1 O2 2.311719 1_555
Nd1 O29 2.384345 1_445
Nd1 O10 2.406769 1_555
Nd1 O3 2.488573 1_545
Nd2 O6 2.202309 1_555
Nd2 O7 2.316118 1_555
Nd2 O14 2.467418 1_555
Nd2 O4 2.870257 1_555
Nd2 O1 2.886348 1_455
Nd2 O5 2.899451 1_555
Nd2 O28 3.263835 1_455
Nd3 O18 2.267128 1_546
Nd3 O0 2.285865 1_555
Nd3 O22 2.411412 1_556
Nd3 O12 2.750850 1_556
Nd3 O13 2.820869 1_555
Nd4 O16 2.331346 1_555
Nd4 O3 2.331510 1_555
Nd4 O9 2.585613 1_555
Nd4 O18 2.779942 1_555
Nd5 O17 2.175447 1_555
Nd5 O5 2.389810 1_555
Nd5 O10 2.434859 1_555
Nd5 O7 2.460415 1_555
Nd6 O16 2.308845 1_555
Nd6 O10 2.407694 1_565
Nd6 O13 2.441926 1_565
Nd6 O19 2.540173 1_555
Nd6 O15 2.613510 1_565
Nd6 O4 2.700602 1_555
Nd6 O3 2.846476 1_555
Nd6 O5 2.847320 1_555
Nd7 O7 2.372013 1_555
Nd7 O17 2.453676 1_555
Nd7 O22 2.490775 1_556
Nd7 O24 2.580235 1_556
Nd7 O11 2.580873 1_555
Nd7 O23 2.608308 1_555
Nd7 O15 2.665389 1_555
Nd8 O20 2.291359 1_555
Nd8 O6 2.293761 1_554
Nd8 O11 2.472013 1_554
Nd8 O14 2.517161 1_554
Nd8 O18 2.528792 1_555
Nd8 O8 2.571600 1_555
Nd8 O9 2.697700 1_555
Nd9 O16 2.244203 1_555
Nd9 O12 2.299960 1_565
Nd9 O26 2.438079 1_565
Nd9 O29 2.566746 1_555
Nd9 O21 2.727072 1_555
Nd9 O18 2.779640 1_555
Nd10 O17 2.280119 1_555
Nd10 O1 2.352022 1_555
Nd10 O25 2.386594 1_555
Nd10 O28 2.413078 1_555
Nd10 O21 2.419238 1_555
Nd11 O27 2.171636 1_555
Nd11 O19 2.385235 1_545
Nd11 O15 2.415902 1_555
Nd11 O23 2.469672 1_555
Nd12 O24 2.300899 1_555
Nd12 O11 2.490089 1_554
Nd12 O18 2.534540 1_555
Nd12 O29 2.623521 1_555
Nd13 O25 2.344670 1_555
Nd13 O20 2.383176 1_555
Nd13 O24 2.468409 1_555
Nd13 O12 2.509241 1_555
Nd13 O22 2.559852 1_555
Nd14 O27 2.310988 1_465
Nd14 O0 2.344812 1_565
Nd14 O28 2.397904 1_455
Nd14 O26 2.460224 1_465
Nd14 O21 2.483469 1_455
Nd14 O4 2.485094 1_555
Nd15 O24 2.265918 1_555
Nd15 O2 2.357744 1_655
Nd15 O8 2.432931 1_655
Nd15 O9 2.540851 1_655
Nd15 O23 3.002805 1_554
Al0 O28 1.823645 1_455
Al0 N2 1.947387 1_455
Al0 O8 2.063188 1_556
Al1 O0 1.782439 1_555
Al1 O7 1.810802 1_555
Al1 O10 1.836834 1_555
Al1 N0 1.951423 1_555
Al1 O13 2.169274 1_555
N0 Si4 1.712096 1_455
N0 Nd1 2.435377 1_555
N0 Nd2 2.695172 1_555
N1 Si2 1.775869 1_555
N1 Nd4 2.389645 1_545
N1 Nd3 2.408668 1_554
N1 Nd0 2.414865 1_554
N2 Si1 1.700258 1_555
N2 Nd11 2.570458 1_565
N2 Nd12 2.888557 1_556
N2 Nd15 2.932091 1_556
N3 Si3 1.699165 1_555
N3 Nd12 2.339703 1_555
N3 Nd13 2.375881 1_555
N3 Nd9 2.813960 1_555
N4 Si0 1.698449 1_655
N4 Si3 1.725776 1_555
N4 Nd15 2.455694 1_555
N5 O2 1.532120 1_655
N5 Si5 1.786840 1_555
N5 Nd1 2.449281 1_655
N5 Nd15 2.491903 1_555
N5 Nd13 2.664586 1_555
O1 Si4 1.684650 1_555
O3 Si0 1.668581 1_555
O4 Si0 1.677439 1_555
O5 Si0 1.655749 1_555
O8 O9 1.518397 1_555
O11 O14 1.503586 1_555
O12 Si2 1.765568 1_555
O13 O15 1.515834 1_555
O19 Si1 1.683684 1_555
O20 Si2 1.717161 1_555
O21 Si3 1.667094 1_555
O22 Si5 1.700782 1_555
O23 Si5 1.744382 1_556
O25 Si4 1.662247 1_555
O26 Si4 1.667374 1_555
O29 Si3 1.712365 1_555
