# generated using pymatgen
data_HfCrCuS4
_symmetry_space_group_name_H-M   'P 1'
_cell_length_a   3.55128900
_cell_length_b   6.09529900
_cell_length_c   11.58473528
_cell_angle_alpha   89.89278984
_cell_angle_beta   90.00000000
_cell_angle_gamma   90.00000000
_symmetry_Int_Tables_number   1
_chemical_formula_structural   HfCrCuS4
_chemical_formula_sum   'Hf2 Cr2 Cu2 S8'
_cell_volume   250.76469049
_cell_formula_units_Z   2
loop_
 _symmetry_equiv_pos_site_id
 _symmetry_equiv_pos_as_xyz
  1  'x, y, z'
loop_
 _atom_site_type_symbol
 _atom_site_label
 _atom_site_symmetry_multiplicity
 _atom_site_fract_x
 _atom_site_fract_y
 _atom_site_fract_z
 _atom_site_occupancy
  Hf  Hf0  1  0.25000000  0.24743100  0.50447600  1
  Hf  Hf1  1  0.75000000  0.75256900  0.49552400  1
  Cr  Cr0  1  0.25000000  0.26663200  0.98937900  1
  Cr  Cr1  1  0.75000000  0.73336800  0.01062100  1
  Cu  Cu0  1  0.75000000  0.76411700  0.77012000  1
  Cu  Cu1  1  0.25000000  0.23588300  0.22988000  1
  S  S0  1  0.75000000  0.42230300  0.88154000  1
  S  S1  1  0.75000000  0.08036200  0.63424200  1
  S  S2  1  0.25000000  0.91963800  0.36575800  1
  S  S3  1  0.25000000  0.57769700  0.11846000  1
  S  S4  1  0.25000000  0.91018800  0.89328100  1
  S  S5  1  0.25000000  0.58768400  0.63003700  1
  S  S6  1  0.75000000  0.41231600  0.36996300  1
  S  S7  1  0.75000000  0.08981200  0.10671900  1
loop_
_geom_bond_atom_site_label_1
_geom_bond_atom_site_label_2
_geom_bond_distance
_geom_bond_site_symmetry_2
Hf0 S5 2.535422 1_555
Hf0 S1 2.538526 1_555
Hf0 S1 2.538526 1_455
Hf0 S6 2.566206 1_555
Hf0 S6 2.566206 1_455
Hf0 S2 2.566416 1_545
Hf1 S6 2.535422 1_555
Hf1 S2 2.538526 1_555
Hf1 S2 2.538526 1_655
Hf1 S5 2.566206 1_555
Hf1 S5 2.566206 1_655
Hf1 S1 2.566416 1_565
Cr0 S0 2.368445 1_555
Cr0 S0 2.368445 1_455
Cr0 S3 2.416958 1_556
Cr0 S4 2.443103 1_545
Cr0 S7 2.481302 1_556
Cr0 S7 2.481302 1_456
Cr1 S3 2.368445 1_655
Cr1 S3 2.368445 1_555
Cr1 S0 2.416958 1_554
Cr1 S7 2.443103 1_565
Cr1 S4 2.481302 1_554
Cr1 S4 2.481302 1_654
Cu0 S4 2.446652 1_655
Cu0 S4 2.446652 1_555
Cu0 S0 2.448842 1_555
Cu0 S1 2.486391 1_565
Cu0 S5 2.636193 1_555
Cu0 S5 2.636193 1_655
Cu1 S7 2.446652 1_455
Cu1 S7 2.446652 1_555
Cu1 S3 2.448842 1_555
Cu1 S2 2.486391 1_545
Cu1 S6 2.636193 1_555
Cu1 S6 2.636193 1_455
