# generated using pymatgen
data_RbMg6Ni
_symmetry_space_group_name_H-M   'P 1'
_cell_length_a   5.22253900
_cell_length_b   6.46749100
_cell_length_c   11.42569500
_cell_angle_alpha   90.00000000
_cell_angle_beta   90.00000000
_cell_angle_gamma   90.00000000
_symmetry_Int_Tables_number   1
_chemical_formula_structural   RbMg6Ni
_chemical_formula_sum   'Rb2 Mg12 Ni2'
_cell_volume   385.92254629
_cell_formula_units_Z   2
loop_
 _symmetry_equiv_pos_site_id
 _symmetry_equiv_pos_as_xyz
  1  'x, y, z'
loop_
 _atom_site_type_symbol
 _atom_site_label
 _atom_site_symmetry_multiplicity
 _atom_site_fract_x
 _atom_site_fract_y
 _atom_site_fract_z
 _atom_site_occupancy
  Rb  Rb0  1  0.50000000  0.50000000  0.16524900  1
  Rb  Rb1  1  0.50000000  0.00000000  0.66524900  1
  Mg  Mg0  1  0.50000000  0.25347400  0.41697900  1
  Mg  Mg1  1  0.50000000  0.74652600  0.41697900  1
  Mg  Mg2  1  0.00000000  0.77615000  0.08452700  1
  Mg  Mg3  1  0.00000000  0.22385000  0.08452700  1
  Mg  Mg4  1  0.00000000  0.00000000  0.32574900  1
  Mg  Mg5  1  0.00000000  0.50000000  0.34406300  1
  Mg  Mg6  1  0.50000000  0.75347400  0.91697900  1
  Mg  Mg7  1  0.50000000  0.24652600  0.91697900  1
  Mg  Mg8  1  0.00000000  0.27615000  0.58452700  1
  Mg  Mg9  1  0.00000000  0.72385000  0.58452700  1
  Mg  Mg10  1  0.00000000  0.50000000  0.82574900  1
  Mg  Mg11  1  0.00000000  0.00000000  0.84406300  1
  Ni  Ni0  1  0.50000000  0.00000000  0.16192300  1
  Ni  Ni1  1  0.50000000  0.50000000  0.66192300  1
loop_
_geom_bond_atom_site_label_1
_geom_bond_atom_site_label_2
_geom_bond_distance
_geom_bond_site_symmetry_2
Mg0 Mg5 3.170952 1_655
Mg0 Mg5 3.170952 1_555
Mg0 Mg1 3.188809 1_555
Mg0 Ni1 3.220962 1_555
Mg0 Mg8 3.241139 1_555
Mg0 Mg8 3.241139 1_655
Mg0 Mg4 3.254642 1_655
Mg0 Mg4 3.254642 1_555
Mg0 Rb1 3.276288 1_555
Mg0 Mg1 3.278682 1_545
Mg0 Rb0 3.288555 1_555
Mg0 Ni0 3.343644 1_555
Mg1 Mg5 3.170952 1_655
Mg1 Mg5 3.170952 1_555
Mg1 Ni1 3.220962 1_555
Mg1 Mg9 3.241139 1_655
Mg1 Mg9 3.241139 1_555
Mg1 Mg4 3.254642 1_565
Mg1 Mg4 3.254642 1_665
Mg1 Rb1 3.276288 1_565
Mg1 Rb0 3.288555 1_555
Mg1 Ni0 3.343644 1_565
Mg2 Ni0 3.113952 1_565
Mg2 Ni0 3.113952 1_465
Mg2 Mg6 3.241139 1_554
Mg2 Mg6 3.241139 1_454
Mg2 Rb0 3.295324 1_455
Mg2 Rb0 3.295324 1_555
Mg2 Mg5 3.461685 1_555
Mg3 Ni0 3.113952 1_455
Mg3 Ni0 3.113952 1_555
Mg3 Mg7 3.241139 1_454
Mg3 Mg7 3.241139 1_554
Mg3 Rb0 3.295324 1_455
Mg3 Rb0 3.295324 1_555
Mg3 Mg5 3.461685 1_555
Mg4 Ni0 3.212859 1_455
Mg4 Ni0 3.212859 1_555
Mg4 Mg5 3.240509 1_545
Mg4 Mg5 3.240509 1_555
Mg5 Mg8 3.105569 1_555
Mg5 Mg9 3.105569 1_555
Mg5 Rb0 3.315551 1_455
Mg5 Rb0 3.315551 1_555
Mg6 Mg7 3.188809 1_565
Mg6 Ni0 3.220962 1_566
Mg6 Rb0 3.276288 1_556
Mg6 Mg7 3.278682 1_555
Mg6 Rb1 3.288555 1_565
Mg6 Ni1 3.343644 1_555
Mg7 Ni0 3.220962 1_556
Mg7 Rb0 3.276288 1_556
Mg7 Rb1 3.288555 1_555
Mg7 Ni1 3.343644 1_555
Mg8 Ni1 3.113952 1_555
Mg8 Ni1 3.113952 1_455
Mg8 Rb1 3.295324 1_555
Mg8 Rb1 3.295324 1_455
Mg9 Ni1 3.113952 1_555
Mg9 Ni1 3.113952 1_455
Mg9 Rb1 3.295324 1_465
Mg9 Rb1 3.295324 1_565
Mg10 Ni1 3.212859 1_455
Mg10 Ni1 3.212859 1_555
Mg10 Mg11 3.240509 1_565
Mg10 Mg11 3.240509 1_555
Mg10 Mg7 3.254642 1_455
Mg10 Mg7 3.254642 1_555
Mg10 Mg6 3.254642 1_555
Mg10 Mg6 3.254642 1_455
Mg11 Mg3 3.105569 1_556
Mg11 Mg2 3.105569 1_546
Mg11 Mg7 3.170952 1_455
Mg11 Mg7 3.170952 1_555
Mg11 Mg6 3.170952 1_445
Mg11 Mg6 3.170952 1_545
Mg11 Rb1 3.315551 1_555
Mg11 Rb1 3.315551 1_455
Mg11 Mg8 3.461685 1_555
Mg11 Mg9 3.461685 1_545
Ni0 Rb0 3.233969 1_545
Ni0 Rb0 3.233969 1_555
Ni1 Rb1 3.233969 1_565
Ni1 Rb1 3.233969 1_555
