# generated using pymatgen
data_Li5Yb4Sn5
_symmetry_space_group_name_H-M   'P 1'
_cell_length_a   17.22931435
_cell_length_b   17.22931435
_cell_length_c   17.22931388
_cell_angle_alpha   16.33078520
_cell_angle_beta   16.33078520
_cell_angle_gamma   16.33078553
_symmetry_Int_Tables_number   1
_chemical_formula_structural   Li5Yb4Sn5
_chemical_formula_sum   'Li5 Yb4 Sn5'
_cell_volume   352.56622210
_cell_formula_units_Z   1
loop_
 _symmetry_equiv_pos_site_id
 _symmetry_equiv_pos_as_xyz
  1  'x, y, z'
loop_
 _atom_site_type_symbol
 _atom_site_label
 _atom_site_symmetry_multiplicity
 _atom_site_fract_x
 _atom_site_fract_y
 _atom_site_fract_z
 _atom_site_occupancy
  Li  Li0  1  0.96000900  0.96000900  0.96000900  1
  Li  Li1  1  0.55416300  0.55416300  0.55416300  1
  Li  Li2  1  0.13767000  0.13767000  0.13767000  1
  Li  Li3  1  0.68295600  0.68295600  0.68295600  1
  Li  Li4  1  0.37182800  0.37182800  0.37182800  1
  Yb  Yb0  1  0.31011800  0.31011800  0.31011800  1
  Yb  Yb1  1  0.90230900  0.90230900  0.90230900  1
  Yb  Yb2  1  0.50077700  0.50077700  0.50077700  1
  Yb  Yb3  1  0.07413900  0.07413900  0.07413900  1
  Sn  Sn0  1  0.43579500  0.43579500  0.43579500  1
  Sn  Sn1  1  0.19915300  0.19915300  0.19915300  1
  Sn  Sn2  1  0.79722400  0.79722400  0.79722400  1
  Sn  Sn3  1  0.01471400  0.01471400  0.01471400  1
  Sn  Sn4  1  0.60914500  0.60914500  0.60914500  1
loop_
_geom_bond_atom_site_label_1
_geom_bond_atom_site_label_2
_geom_bond_distance
_geom_bond_site_symmetry_2
Li0 Sn3 2.789303 1_666
Li0 Yb1 2.942012 1_555
Li0 Yb0 2.952291 1_566
Li0 Yb0 2.952291 1_656
Li0 Yb0 2.952291 1_665
Li0 Sn4 2.963674 1_655
Li0 Sn4 2.963674 1_565
Li0 Sn4 2.963674 1_556
Li1 Yb2 2.722049 1_555
Li1 Sn4 2.803426 1_555
Li1 Yb1 2.924862 1_545
Li1 Yb1 2.924862 1_455
Li1 Yb1 2.924862 1_554
Li1 Sn1 3.034133 1_565
Li1 Sn1 3.034133 1_655
Li1 Sn1 3.034133 1_556
Li2 Sn2 2.848843 1_445
Li2 Sn2 2.848843 1_544
Li2 Sn2 2.848843 1_454
Li2 Sn1 3.134900 1_555
Li2 Yb2 3.207650 1_455
Li2 Yb2 3.207650 1_545
Li2 Yb2 3.207650 1_554
Li2 Yb3 3.239323 1_555
Li2 Sn0 3.347707 1_554
Li2 Sn0 3.347708 1_455
Li2 Sn0 3.347708 1_545
Li3 Sn3 2.826807 1_665
Li3 Sn3 2.826807 1_656
Li3 Sn3 2.826807 1_566
Li3 Li4 3.044056 1_556
Li3 Li4 3.044056 1_565
Li3 Li4 3.044056 1_655
Li3 Yb0 3.470109 1_655
Li3 Yb0 3.470109 1_565
Li3 Yb0 3.470109 1_556
Li4 Sn3 3.074836 1_565
Li4 Sn3 3.074836 1_655
Li4 Sn3 3.074836 1_556
Li4 Yb0 3.146474 1_555
Li4 Sn0 3.261554 1_555
Li4 Yb3 3.359681 1_556
Li4 Yb3 3.359681 1_565
Li4 Yb3 3.359681 1_655
Sn0 Sn2 3.168054 1_455
Sn0 Sn2 3.168054 1_545
Sn0 Sn2 3.168054 1_554
Sn0 Yb3 3.173305 1_655
Sn0 Yb3 3.173305 1_565
Sn0 Yb3 3.173305 1_556
Sn0 Yb2 3.313307 1_555
Sn1 Yb2 3.255521 1_554
Sn1 Yb2 3.255522 1_455
Sn1 Yb2 3.255522 1_545
Sn1 Yb1 3.383182 1_445
Sn1 Yb1 3.383182 1_454
Sn1 Yb1 3.383182 1_544
Sn2 Yb2 3.394356 1_556
Sn2 Yb2 3.394356 1_565
Sn2 Yb2 3.394356 1_655
Sn3 Yb3 3.029966 1_555
Sn3 Yb0 3.424109 1_554
Sn3 Yb0 3.424109 1_455
Sn3 Yb0 3.424109 1_545
Sn4 Yb0 3.323271 1_556
Sn4 Yb0 3.323272 1_565
Sn4 Yb0 3.323272 1_655
Sn4 Yb1 3.489890 1_554
Sn4 Yb1 3.489890 1_455
Sn4 Yb1 3.489890 1_545
