# generated using pymatgen
data_Y3Rh2
_symmetry_space_group_name_H-M   'P 1'
_cell_length_a   11.22114612
_cell_length_b   11.22114612
_cell_length_c   14.84415091
_cell_angle_alpha   112.20770384
_cell_angle_beta   112.20770384
_cell_angle_gamma   90.00000000
_symmetry_Int_Tables_number   1
_chemical_formula_structural   Y3Rh2
_chemical_formula_sum   'Y42 Rh28'
_cell_volume   1579.66650853
_cell_formula_units_Z   14
loop_
 _symmetry_equiv_pos_site_id
 _symmetry_equiv_pos_as_xyz
  1  'x, y, z'
loop_
 _atom_site_type_symbol
 _atom_site_label
 _atom_site_symmetry_multiplicity
 _atom_site_fract_x
 _atom_site_fract_y
 _atom_site_fract_z
 _atom_site_occupancy
  Y  Y0  1  0.75000000  0.25000000  0.50000000  1
  Y  Y1  1  0.25000000  0.75000000  0.50000000  1
  Y  Y2  1  0.88731937  0.38731937  0.77463973  1
  Y  Y3  1  0.38731937  0.88731937  0.77463973  1
  Y  Y4  1  0.11268063  0.61268063  0.22536027  1
  Y  Y5  1  0.61268063  0.11268063  0.22536027  1
  Y  Y6  1  0.35226105  0.85226105  0.00000000  1
  Y  Y7  1  0.64773895  0.14773895  -0.00000000  1
  Y  Y8  1  0.14773895  0.35226105  0.00000000  1
  Y  Y9  1  0.85226105  0.64773895  0.00000000  1
  Y  Y10  1  0.51645053  0.38752055  0.61313047  1
  Y  Y11  1  0.09667994  0.22560992  0.61313047  1
  Y  Y12  1  0.59667994  0.88752055  0.61313047  1
  Y  Y13  1  0.01645053  0.72560992  0.61313047  1
  Y  Y14  1  0.38752055  0.09667994  0.61313047  1
  Y  Y15  1  0.22560992  0.51645053  0.61313047  1
  Y  Y16  1  0.88752055  0.01645053  0.61313047  1
  Y  Y17  1  0.72560992  0.59667994  0.61313047  1
  Y  Y18  1  0.48354947  0.61247945  0.38686953  1
  Y  Y19  1  0.90332006  0.77439008  0.38686953  1
  Y  Y20  1  0.40332006  0.11247945  0.38686953  1
  Y  Y21  1  0.98354947  0.27439008  0.38686953  1
  Y  Y22  1  0.61247945  0.90332006  0.38686953  1
  Y  Y23  1  0.77439008  0.48354947  0.38686953  1
  Y  Y24  1  0.11247945  0.98354947  0.38686953  1
  Y  Y25  1  0.27439008  0.40332006  0.38686953  1
  Y  Y26  1  0.50455582  0.63188008  0.85674014  1
  Y  Y27  1  0.35218332  0.22486006  0.85674014  1
  Y  Y28  1  0.85218332  0.13188008  0.85674014  1
  Y  Y29  1  0.00455582  0.72486006  0.85674014  1
  Y  Y30  1  0.63188008  0.35218332  0.85674014  1
  Y  Y31  1  0.22486006  0.50455582  0.85674014  1
  Y  Y32  1  0.13188008  0.00455582  0.85674014  1
  Y  Y33  1  0.72486006  0.85218332  0.85674014  1
  Y  Y34  1  0.49544418  0.36811992  0.14325986  1
  Y  Y35  1  0.64781668  0.77513994  0.14325986  1
  Y  Y36  1  0.14781668  0.86811992  0.14325986  1
  Y  Y37  1  0.99544418  0.27513994  0.14325986  1
  Y  Y38  1  0.36811992  0.64781668  0.14325986  1
  Y  Y39  1  0.77513994  0.49544418  0.14325986  1
  Y  Y40  1  0.86811992  0.99544418  0.14325986  1
  Y  Y41  1  0.27513994  0.14781668  0.14325986  1
  Rh  Rh0  1  0.25000000  0.25000000  0.50000000  1
  Rh  Rh1  1  0.75000000  0.75000000  0.50000000  1
  Rh  Rh2  1  0.50000000  0.50000000  0.00000000  1
  Rh  Rh3  1  0.00000000  -0.00000000  0.00000000  1
  Rh  Rh4  1  0.36680021  0.36680021  0.73359943  1
  Rh  Rh5  1  0.86680021  0.86680021  0.73359943  1
  Rh  Rh6  1  0.63319979  0.63319979  0.26640057  1
  Rh  Rh7  1  0.13319979  0.13319979  0.26640057  1
  Rh  Rh8  1  0.09780449  0.59780449  -0.00000000  1
  Rh  Rh9  1  0.90219551  0.40219551  0.00000000  1
  Rh  Rh10  1  0.40219551  0.09780449  0.00000000  1
  Rh  Rh11  1  0.59780449  0.90219551  0.00000000  1
  Rh  Rh12  1  0.96464148  0.46464148  0.62170834  1
  Rh  Rh13  1  0.65706786  0.15706786  0.62170834  1
  Rh  Rh14  1  0.15706786  0.96464148  0.62170834  1
  Rh  Rh15  1  0.46464148  0.65706786  0.62170834  1
  Rh  Rh16  1  0.03535852  0.53535852  0.37829166  1
  Rh  Rh17  1  0.34293214  0.84293214  0.37829166  1
  Rh  Rh18  1  0.84293214  0.03535852  0.37829166  1
  Rh  Rh19  1  0.53535852  0.34293214  0.37829166  1
  Rh  Rh20  1  0.21525120  0.71525120  0.78739179  1
  Rh  Rh21  1  0.57214058  0.07214058  0.78739179  1
  Rh  Rh22  1  0.07214058  0.21525120  0.78739179  1
  Rh  Rh23  1  0.71525120  0.57214058  0.78739179  1
  Rh  Rh24  1  0.78474880  0.28474880  0.21260821  1
  Rh  Rh25  1  0.42785942  0.92785942  0.21260821  1
  Rh  Rh26  1  0.92785942  0.78474880  0.21260821  1
  Rh  Rh27  1  0.28474880  0.42785942  0.21260821  1
loop_
_geom_bond_atom_site_label_1
_geom_bond_atom_site_label_2
_geom_bond_distance
_geom_bond_site_symmetry_2
Rh0 Y24 2.895917 1_545
Rh0 Y10 2.895917 1_555
Rh0 Y15 2.895918 1_555
Rh0 Y21 2.895918 1_455
Rh0 Y20 2.895918 1_555
Rh0 Y14 2.895918 1_555
Rh0 Y11 2.895918 1_555
Rh0 Y25 2.895918 1_555
Rh1 Y16 2.895917 1_565
Rh1 Y18 2.895917 1_555
Rh1 Y23 2.895918 1_555
Rh1 Y13 2.895918 1_655
Rh1 Y22 2.895918 1_555
Rh1 Y12 2.895918 1_555
Rh1 Y17 2.895918 1_555
Rh1 Y19 2.895918 1_555
Rh2 Y31 3.029183 1_554
Rh2 Y39 3.029183 1_555
Rh2 Y34 3.029183 1_555
Rh2 Y26 3.029183 1_554
Rh2 Y27 3.029186 1_554
Rh2 Y35 3.029186 1_555
Rh2 Y38 3.029186 1_555
Rh2 Y30 3.029186 1_554
Rh3 Y29 3.029183 1_544
Rh3 Y37 3.029183 1_455
Rh3 Y40 3.029183 1_445
Rh3 Y32 3.029183 1_554
Rh3 Y33 3.029186 1_444
Rh3 Y41 3.029186 1_555
Rh3 Y36 3.029186 1_545
Rh3 Y28 3.029186 1_454
Rh4 Y26 2.886578 1_555
Rh4 Y30 2.886585 1_555
Rh4 Y31 2.886587 1_555
Rh4 Y27 2.886594 1_555
Rh4 Y10 2.942127 1_555
Rh4 Y15 2.942131 1_555
Rh4 Y14 2.942136 1_555
Rh4 Y11 2.942140 1_555
Rh5 Y32 2.886578 1_665
Rh5 Y28 2.886585 1_565
Rh5 Y29 2.886587 1_655
Rh5 Y33 2.886594 1_555
Rh5 Y16 2.942127 1_565
Rh5 Y13 2.942131 1_655
Rh5 Y12 2.942136 1_555
Rh5 Y17 2.942140 1_555
Rh6 Y34 2.886578 1_555
Rh6 Y38 2.886585 1_555
Rh6 Y39 2.886587 1_555
Rh6 Y35 2.886594 1_555
Rh6 Y18 2.942127 1_555
Rh6 Y23 2.942131 1_555
Rh6 Y22 2.942136 1_555
Rh6 Y19 2.942140 1_555
Rh7 Y40 2.886578 1_445
Rh7 Y36 2.886585 1_545
Rh7 Y37 2.886587 1_455
Rh7 Y41 2.886594 1_555
Rh7 Y24 2.942127 1_545
Rh7 Y21 2.942131 1_455
Rh7 Y20 2.942136 1_555
Rh7 Y25 2.942140 1_555
Rh8 Y8 2.811676 1_555
Rh8 Y9 2.811676 1_455
Rh8 Y38 2.873957 1_555
Rh8 Y36 2.873957 1_555
Rh8 Y29 2.873958 1_554
Rh8 Y31 2.873958 1_554
Rh8 Y4 3.225273 1_555
Rh8 Y2 3.225281 1_454
Rh9 Y8 2.811676 1_655
Rh9 Y9 2.811676 1_555
Rh9 Y30 2.873957 1_554
Rh9 Y28 2.873957 1_554
Rh9 Y37 2.873958 1_555
Rh9 Y39 2.873958 1_555
Rh9 Y2 3.225273 1_554
Rh9 Y4 3.225281 1_655
Rh10 Y7 2.811676 1_555
Rh10 Y6 2.811676 1_545
Rh10 Y41 2.873958 1_555
Rh10 Y27 2.873958 1_554
Rh10 Y32 2.873958 1_554
Rh10 Y34 2.873958 1_555
Rh10 Y5 3.225277 1_555
Rh10 Y3 3.225277 1_544
Rh11 Y7 2.811676 1_565
Rh11 Y6 2.811676 1_555
Rh11 Y33 2.873958 1_554
Rh11 Y35 2.873958 1_555
Rh11 Y26 2.873958 1_554
Rh11 Y40 2.873958 1_555
Rh11 Y5 3.225277 1_565
Rh11 Y3 3.225277 1_554
Rh12 Y0 2.878768 1_555
Rh12 Y15 3.044230 1_655
Rh12 Y13 3.044230 1_655
Rh12 Y11 3.047966 1_655
Rh12 Y17 3.047966 1_555
Rh12 Y2 3.104350 1_555
Rh12 Y21 3.418784 1_555
Rh12 Y23 3.418784 1_555
Rh12 Y31 3.466510 1_655
Rh12 Y29 3.466510 1_655
Rh13 Y0 2.878754 1_555
Rh13 Y12 3.044243 1_545
Rh13 Y14 3.044243 1_555
Rh13 Y16 3.047962 1_555
Rh13 Y10 3.047962 1_555
Rh13 Y2 3.104325 1_555
Rh13 Y22 3.418786 1_545
Rh13 Y20 3.418786 1_555
Rh13 Y30 3.466509 1_555
Rh13 Y28 3.466509 1_555
Rh14 Y1 2.878761 1_555
Rh14 Y11 3.044232 1_565
Rh14 Y16 3.044241 1_465
Rh14 Y14 3.047957 1_565
Rh14 Y13 3.047972 1_555
Rh14 Y3 3.104338 1_555
Rh14 Y24 3.418781 1_555
Rh14 Y19 3.418789 1_455
Rh14 Y27 3.466504 1_565
Rh14 Y32 3.466515 1_565
Rh15 Y1 2.878761 1_555
Rh15 Y17 3.044232 1_555
Rh15 Y10 3.044241 1_555
Rh15 Y12 3.047957 1_555
Rh15 Y15 3.047972 1_555
Rh15 Y3 3.104338 1_555
Rh15 Y18 3.418781 1_555
Rh15 Y25 3.418789 1_555
Rh15 Y33 3.466504 1_555
Rh15 Y26 3.466515 1_555
Rh16 Y1 2.878768 1_555
Rh16 Y23 3.044230 1_455
Rh16 Y21 3.044230 1_455
Rh16 Y19 3.047966 1_455
Rh16 Y25 3.047966 1_555
Rh16 Y4 3.104350 1_555
Rh16 Y13 3.418784 1_555
Rh16 Y15 3.418784 1_555
Rh16 Y39 3.466510 1_455
Rh16 Y37 3.466510 1_455
Rh17 Y1 2.878754 1_555
Rh17 Y20 3.044243 1_565
Rh17 Y22 3.044243 1_555
Rh17 Y18 3.047962 1_555
Rh17 Y24 3.047962 1_555
Rh17 Y4 3.104325 1_555
Rh17 Y14 3.418786 1_565
Rh17 Y12 3.418786 1_555
Rh17 Y36 3.466509 1_555
Rh17 Y38 3.466509 1_555
Rh18 Y0 2.878761 1_555
Rh18 Y19 3.044232 1_545
Rh18 Y24 3.044241 1_645
Rh18 Y22 3.047957 1_545
Rh18 Y21 3.047972 1_555
Rh18 Y5 3.104338 1_555
Rh18 Y16 3.418781 1_555
Rh18 Y11 3.418789 1_655
Rh18 Y35 3.466504 1_545
Rh18 Y40 3.466515 1_545
Rh19 Y0 2.878761 1_555
Rh19 Y25 3.044232 1_555
Rh19 Y18 3.044241 1_555
Rh19 Y20 3.047957 1_555
Rh19 Y23 3.047972 1_555
Rh19 Y5 3.104338 1_555
Rh19 Y10 3.418781 1_555
Rh19 Y17 3.418789 1_555
Rh19 Y41 3.466504 1_555
Rh19 Y34 3.466515 1_555
Rh20 Y6 2.711438 1_556
Rh20 Y15 2.747071 1_555
Rh20 Y13 2.747071 1_555
Rh20 Y3 2.836264 1_555
Rh20 Y31 2.901181 1_555
Rh20 Y29 2.901181 1_555
Rh20 Y32 3.267316 1_565
Rh20 Y26 3.267316 1_555
Rh21 Y7 2.711438 1_556
Rh21 Y12 2.747071 1_545
Rh21 Y14 2.747071 1_555
Rh21 Y3 2.836279 1_545
Rh21 Y28 2.901170 1_555
Rh21 Y30 2.901170 1_555
Rh21 Y27 3.267326 1_555
Rh21 Y33 3.267326 1_545
Rh22 Y8 2.711438 1_556
Rh22 Y16 2.747071 1_455
Rh22 Y11 2.747071 1_555
Rh22 Y2 2.836272 1_455
Rh22 Y27 2.901170 1_555
Rh22 Y32 2.901181 1_555
Rh22 Y31 3.267316 1_555
Rh22 Y28 3.267326 1_455
Rh23 Y9 2.711438 1_556
Rh23 Y10 2.747071 1_555
Rh23 Y17 2.747071 1_555
Rh23 Y2 2.836272 1_555
Rh23 Y33 2.901170 1_555
Rh23 Y26 2.901181 1_555
Rh23 Y29 3.267316 1_655
Rh23 Y30 3.267326 1_555
Rh24 Y7 2.711438 1_555
Rh24 Y23 2.747071 1_555
Rh24 Y21 2.747071 1_555
Rh24 Y5 2.836264 1_555
Rh24 Y39 2.901181 1_555
Rh24 Y37 2.901181 1_555
Rh24 Y34 3.267316 1_555
Rh24 Y40 3.267316 1_545
Rh25 Y6 2.711438 1_555
Rh25 Y20 2.747071 1_565
Rh25 Y22 2.747071 1_555
Rh25 Y5 2.836279 1_565
Rh25 Y36 2.901170 1_555
Rh25 Y38 2.901170 1_555
Rh25 Y41 3.267326 1_565
Rh25 Y35 3.267326 1_555
Rh26 Y9 2.711438 1_555
Rh26 Y24 2.747071 1_655
Rh26 Y19 2.747071 1_555
Rh26 Y4 2.836272 1_655
Rh26 Y35 2.901170 1_555
Rh26 Y40 2.901181 1_555
Rh26 Y39 3.267316 1_555
Rh26 Y36 3.267326 1_655
Rh27 Y8 2.711438 1_555
Rh27 Y18 2.747071 1_555
Rh27 Y25 2.747071 1_555
Rh27 Y4 2.836272 1_555
Rh27 Y41 2.901170 1_555
Rh27 Y34 2.901181 1_555
Rh27 Y37 3.267316 1_455
Rh27 Y38 3.267326 1_555
