# generated using pymatgen
data_DyNi4Sn
_symmetry_space_group_name_H-M   'P 1'
_cell_length_a   4.03121900
_cell_length_b   8.91029267
_cell_length_c   8.91029267
_cell_angle_alpha   120.00000497
_cell_angle_beta   90.00000000
_cell_angle_gamma   90.00000000
_symmetry_Int_Tables_number   1
_chemical_formula_structural   DyNi4Sn
_chemical_formula_sum   'Dy3 Ni12 Sn3'
_cell_volume   277.17301158
_cell_formula_units_Z   3
loop_
 _symmetry_equiv_pos_site_id
 _symmetry_equiv_pos_as_xyz
  1  'x, y, z'
loop_
 _atom_site_type_symbol
 _atom_site_label
 _atom_site_symmetry_multiplicity
 _atom_site_fract_x
 _atom_site_fract_y
 _atom_site_fract_z
 _atom_site_occupancy
  Dy  Dy0  1  0.00000000  0.00000000  0.00000000  1
  Dy  Dy1  1  0.50000000  0.66666700  0.33333300  1
  Dy  Dy2  1  0.50000000  0.33333300  0.66666700  1
  Ni  Ni0  1  0.00000000  0.82262000  0.17738000  1
  Ni  Ni1  1  0.00000000  0.17738000  0.82262000  1
  Ni  Ni2  1  0.00000000  0.35475900  0.17738000  1
  Ni  Ni3  1  0.00000000  0.64524100  0.82262000  1
  Ni  Ni4  1  0.00000000  0.82262000  0.64524100  1
  Ni  Ni5  1  0.00000000  0.17738000  0.35475900  1
  Ni  Ni6  1  0.50000000  0.71408100  0.71408100  1
  Ni  Ni7  1  0.50000000  0.28591900  0.28591900  1
  Ni  Ni8  1  0.50000000  0.00000000  0.28591900  1
  Ni  Ni9  1  0.50000000  0.00000000  0.71408100  1
  Ni  Ni10  1  0.50000000  0.28591900  0.00000000  1
  Ni  Ni11  1  0.50000000  0.71408100  0.00000000  1
  Sn  Sn0  1  0.00000000  0.50000000  0.50000000  1
  Sn  Sn1  1  0.00000000  0.00000000  0.50000000  1
  Sn  Sn2  1  0.00000000  0.50000000  0.00000000  1
loop_
_geom_bond_atom_site_label_1
_geom_bond_atom_site_label_2
_geom_bond_distance
_geom_bond_site_symmetry_2
Dy0 Ni2 2.737512 1_555
Dy0 Ni5 2.737512 1_555
Dy0 Ni3 2.737512 1_544
Dy0 Ni4 2.737512 1_544
Dy0 Ni1 2.737520 1_554
Dy0 Ni0 2.737520 1_545
Dy0 Ni7 3.248547 1_555
Dy0 Ni7 3.248547 1_455
Dy0 Ni6 3.248547 1_544
Dy0 Ni6 3.248547 1_444
Dy0 Ni10 3.248547 1_455
Dy0 Ni10 3.248547 1_555
Dy0 Ni8 3.248547 1_455
Dy0 Ni8 3.248547 1_555
Dy0 Ni9 3.248547 1_554
Dy0 Ni11 3.248547 1_545
Dy0 Ni11 3.248547 1_445
Dy0 Ni9 3.248547 1_454
Dy1 Ni0 3.139353 1_655
Dy1 Ni0 3.139353 1_555
Dy1 Ni4 3.139365 1_655
Dy1 Ni4 3.139365 1_555
Dy1 Ni2 3.139365 1_655
Dy1 Ni2 3.139365 1_555
Dy1 Ni8 3.202301 1_565
Dy1 Ni11 3.202301 1_555
Dy1 Ni9 3.202306 1_565
Dy1 Ni10 3.202306 1_555
Dy1 Ni6 3.202309 1_555
Dy1 Ni7 3.202309 1_555
Dy1 Sn2 3.267840 1_655
Dy1 Sn1 3.267840 1_665
Dy1 Sn1 3.267840 1_565
Dy1 Sn2 3.267840 1_555
Dy1 Sn0 3.267846 1_555
Dy1 Sn0 3.267846 1_655
Dy2 Ni1 3.139353 1_655
Dy2 Ni1 3.139353 1_555
Dy2 Ni3 3.139365 1_655
Dy2 Ni3 3.139365 1_555
Dy2 Ni5 3.139365 1_555
Dy2 Ni5 3.139365 1_655
Dy2 Ni9 3.202301 1_555
Dy2 Ni10 3.202301 1_556
Dy2 Ni11 3.202306 1_556
Dy2 Ni8 3.202306 1_555
Dy2 Ni6 3.202309 1_555
Dy2 Ni7 3.202309 1_555
Dy2 Sn1 3.267840 1_655
Dy2 Sn2 3.267840 1_656
Dy2 Sn1 3.267840 1_555
Dy2 Sn2 3.267840 1_556
Dy2 Sn0 3.267846 1_555
Dy2 Sn0 3.267846 1_655
Ni0 Ni8 2.442839 1_565
Ni0 Ni8 2.442839 1_465
Ni0 Ni11 2.442839 1_555
Ni0 Ni11 2.442839 1_455
Ni0 Sn1 2.493624 1_565
Ni0 Sn2 2.493624 1_555
Ni0 Ni3 2.737520 1_554
Ni0 Ni5 2.737520 1_565
Ni1 Ni10 2.442839 1_556
Ni1 Ni10 2.442839 1_456
Ni1 Ni9 2.442839 1_555
Ni1 Ni9 2.442839 1_455
Ni1 Sn1 2.493624 1_555
Ni1 Sn2 2.493624 1_556
Ni1 Ni4 2.737520 1_545
Ni1 Ni2 2.737520 1_556
Ni2 Ni7 2.442835 1_455
Ni2 Ni7 2.442835 1_555
Ni2 Sn0 2.493624 1_555
Ni2 Sn2 2.493632 1_555
Ni2 Ni5 2.737504 1_555
Ni3 Ni6 2.442835 1_455
Ni3 Ni6 2.442835 1_555
Ni3 Sn0 2.493624 1_555
Ni3 Sn2 2.493632 1_556
Ni3 Ni4 2.737504 1_555
Ni4 Ni6 2.442835 1_455
Ni4 Ni6 2.442835 1_555
Ni4 Ni9 2.442840 1_565
Ni4 Ni9 2.442840 1_465
Ni4 Sn0 2.493624 1_555
Ni4 Sn1 2.493632 1_565
Ni5 Ni7 2.442835 1_455
Ni5 Ni7 2.442835 1_555
Ni5 Ni8 2.442840 1_455
Ni5 Ni8 2.442840 1_555
Ni5 Sn0 2.493624 1_555
Ni5 Sn1 2.493632 1_555
Ni6 Ni9 2.547622 1_565
Ni6 Sn0 2.775127 1_655
Ni6 Sn0 2.775127 1_555
Ni7 Ni8 2.547622 1_555
Ni7 Sn0 2.775127 1_555
Ni7 Sn0 2.775127 1_655
Ni8 Sn1 2.775127 1_655
Ni8 Sn1 2.775127 1_555
Ni9 Sn1 2.775127 1_555
Ni9 Sn1 2.775127 1_655
Ni10 Ni2 2.442840 1_555
Ni10 Ni2 2.442840 1_655
Ni10 Ni9 2.547622 1_554
Ni10 Ni7 2.547622 1_555
Ni10 Sn2 2.775127 1_555
Ni10 Sn2 2.775127 1_655
Ni11 Ni3 2.442840 1_654
Ni11 Ni3 2.442840 1_554
Ni11 Ni8 2.547622 1_565
Ni11 Ni6 2.547622 1_554
Ni11 Sn2 2.775127 1_655
Ni11 Sn2 2.775127 1_555
