# generated using pymatgen
data_Cu5Se4(ClO6)2
_symmetry_space_group_name_H-M   'P 1'
_cell_length_a   8.29696935
_cell_length_b   7.53449484
_cell_length_c   10.90826316
_cell_angle_alpha   89.40964228
_cell_angle_beta   90.00000000
_cell_angle_gamma   90.00000000
_symmetry_Int_Tables_number   1
_chemical_formula_structural   Cu5Se4(ClO6)2
_chemical_formula_sum   'Cu10 Se8 Cl4 O24'
_cell_volume   681.87721470
_cell_formula_units_Z   2
loop_
 _symmetry_equiv_pos_site_id
 _symmetry_equiv_pos_as_xyz
  1  'x, y, z'
loop_
 _atom_site_type_symbol
 _atom_site_label
 _atom_site_symmetry_multiplicity
 _atom_site_fract_x
 _atom_site_fract_y
 _atom_site_fract_z
 _atom_site_occupancy
  Cu  Cu0  1  0.63151719  0.83984923  0.63162317  1
  Cu  Cu1  1  0.13151719  0.66015077  0.36837683  1
  Cu  Cu2  1  0.36848281  0.16015077  0.36837683  1
  Cu  Cu3  1  0.86848281  0.33984923  0.63162317  1
  Cu  Cu4  1  0.50000000  0.50000000  0.50000000  1
  Cu  Cu5  1  0.00000000  -0.00000000  0.50000000  1
  Cu  Cu6  1  0.50482920  0.92294717  0.14076051  1
  Cu  Cu7  1  0.00482920  0.57705283  0.85923949  1
  Cu  Cu8  1  0.49517080  0.07705283  0.85923949  1
  Cu  Cu9  1  0.99517080  0.42294717  0.14076051  1
  Se  Se0  1  0.90463466  0.99721930  0.82131745  1
  Se  Se1  1  0.40463466  0.50278070  0.17868255  1
  Se  Se2  1  0.09536534  0.00278070  0.17868255  1
  Se  Se3  1  0.59536534  0.49721930  0.82131745  1
  Se  Se4  1  0.68827669  0.83210306  0.37683865  1
  Se  Se5  1  0.18827669  0.66789694  0.62316135  1
  Se  Se6  1  0.31172331  0.16789694  0.62316135  1
  Se  Se7  1  0.81172331  0.33210306  0.37683865  1
  Cl  Cl0  1  0.38152112  0.84152589  0.96302529  1
  Cl  Cl1  1  0.88152112  0.65847411  0.03697471  1
  Cl  Cl2  1  0.61847888  0.15847411  0.03697471  1
  Cl  Cl3  1  0.11847888  0.34152589  0.96302529  1
  O  O0  1  0.01401631  0.81242173  0.78681760  1
  O  O1  1  0.51401631  0.68757827  0.21318240  1
  O  O2  1  0.98598369  0.18757827  0.21318240  1
  O  O3  1  0.48598369  0.31242173  0.78681760  1
  O  O4  1  0.71175172  0.93620314  0.78074255  1
  O  O5  1  0.21175172  0.56379686  0.21925745  1
  O  O6  1  0.28824828  0.06379686  0.21925745  1
  O  O7  1  0.78824828  0.43620314  0.78074255  1
  O  O8  1  0.53216912  0.62147679  0.69826771  1
  O  O9  1  0.03216912  0.87852321  0.30173229  1
  O  O10  1  0.46783088  0.37852321  0.30173229  1
  O  O11  1  0.96783088  0.12147679  0.69826771  1
  O  O12  1  0.53613634  0.75887172  0.47728736  1
  O  O13  1  0.03613634  0.74112828  0.52271264  1
  O  O14  1  0.46386366  0.24112828  0.52271264  1
  O  O15  1  0.96386366  0.25887172  0.47728736  1
  O  O16  1  0.76639547  0.95898616  0.49796977  1
  O  O17  1  0.26639547  0.54101384  0.50203023  1
  O  O18  1  0.23360453  0.04101384  0.50203023  1
  O  O19  1  0.73360453  0.45898616  0.49796977  1
  O  O20  1  0.59441835  0.99890008  0.29875957  1
  O  O21  1  0.09441835  0.50109992  0.70124043  1
  O  O22  1  0.40558165  0.00109992  0.70124043  1
  O  O23  1  0.90558165  0.49890008  0.29875957  1
loop_
_geom_bond_atom_site_label_1
_geom_bond_atom_site_label_2
_geom_bond_distance
_geom_bond_site_symmetry_2
Cu0 O4 1.908003 1_555
Cu0 O12 1.963156 1_555
Cu0 O8 1.972408 1_555
Cu0 O16 2.038793 1_555
Cu0 O22 2.363439 1_565
Cu1 O5 1.908003 1_555
Cu1 O13 1.963156 1_555
Cu1 O9 1.972408 1_555
Cu1 O17 2.038793 1_555
Cu1 O23 2.363439 1_455
Cu2 O6 1.908003 1_555
Cu2 O14 1.963156 1_555
Cu2 O10 1.972408 1_555
Cu2 O18 2.038793 1_555
Cu2 O20 2.363439 1_545
Cu3 O7 1.908003 1_555
Cu3 O15 1.963156 1_555
Cu3 O11 1.972408 1_555
Cu3 O19 2.038793 1_555
Cu3 O21 2.363439 1_655
Cu4 O17 1.962850 1_555
Cu4 O19 1.962850 1_555
Cu4 O12 1.986364 1_555
Cu4 O14 1.986364 1_555
Cu4 O8 2.372184 1_555
Cu4 O10 2.372184 1_555
Cu5 O18 1.962850 1_555
Cu5 O16 1.962850 1_445
Cu5 O15 1.986364 1_455
Cu5 O13 1.986364 1_545
Cu5 O11 2.372184 1_455
Cu5 O9 2.372184 1_545
Cu6 O1 1.935441 1_555
Cu6 O20 1.967428 1_555
Cu6 O6 2.259914 1_565
Cu7 O0 1.935441 1_555
Cu7 O21 1.967428 1_555
Cu7 O7 2.259914 1_455
Cu8 O3 1.935441 1_555
Cu8 O22 1.967428 1_555
Cu8 O4 2.259914 1_545
Cu9 O2 1.935441 1_555
Cu9 O23 1.967428 1_555
Cu9 O5 2.259914 1_655
Cl0 Cu6 2.281760 1_556
Cl0 Cu8 2.297515 1_565
Cl1 Cu7 2.281760 1_654
Cl1 Cu9 2.297515 1_555
Cl2 Cu8 2.281760 1_554
Cl2 Cu6 2.297515 1_545
Cl3 Cu9 2.281760 1_456
Cl3 Cu7 2.297515 1_555
O0 Se0 1.707250 1_455
O1 Se1 1.707250 1_555
O2 Se2 1.707250 1_655
O3 Se3 1.707250 1_555
O4 Se0 1.724105 1_555
O5 Se1 1.724105 1_555
O6 Se2 1.724105 1_555
O7 Se3 1.724105 1_555
O8 Se3 1.710905 1_555
O9 Se2 1.710905 1_565
O10 Se1 1.710905 1_555
O11 Se0 1.710905 1_545
O12 Se4 1.756701 1_555
O13 Se5 1.756701 1_555
O14 Se6 1.756701 1_555
O15 Se7 1.756701 1_555
O16 Se4 1.762378 1_555
O17 Se5 1.762378 1_555
O18 Se6 1.762378 1_555
O19 Se7 1.762378 1_555
O20 Se4 1.699752 1_555
O21 Se5 1.699752 1_555
O22 Se6 1.699752 1_555
O23 Se7 1.699752 1_555
