# generated using pymatgen
data_Nb2(Ni7B2)3
_symmetry_space_group_name_H-M   'P 1'
_cell_length_a   7.38139390
_cell_length_b   7.38137240
_cell_length_c   7.38138104
_cell_angle_alpha   60.00181249
_cell_angle_beta   60.00153650
_cell_angle_gamma   60.00166738
_symmetry_Int_Tables_number   1
_chemical_formula_structural   Nb2(Ni7B2)3
_chemical_formula_sum   'Nb2 Ni21 B6'
_cell_volume   284.39017536
_cell_formula_units_Z   1
loop_
 _symmetry_equiv_pos_site_id
 _symmetry_equiv_pos_as_xyz
  1  'x, y, z'
loop_
 _atom_site_type_symbol
 _atom_site_label
 _atom_site_symmetry_multiplicity
 _atom_site_fract_x
 _atom_site_fract_y
 _atom_site_fract_z
 _atom_site_occupancy
  Nb  Nb0  1  0.24999717  0.24999961  0.25000134  1
  Nb  Nb1  1  0.75000283  0.75000039  0.74999866  1
  Ni  Ni0  1  0.34049676  0.99998367  0.00001773  1
  Ni  Ni1  1  0.65950324  0.00001633  0.99998227  1
  Ni  Ni2  1  0.99998446  0.34049217  0.65950480  1
  Ni  Ni3  1  0.00001554  0.65950783  0.34049520  1
  Ni  Ni4  1  0.00001136  0.34045357  -0.00000637  1
  Ni  Ni5  1  0.65954899  -0.00000863  0.34045041  1
  Ni  Ni6  1  -0.00001136  0.65954643  0.00000637  1
  Ni  Ni7  1  0.34045101  0.00000863  0.65954959  1
  Ni  Ni8  1  0.00002707  -0.00002418  0.34048481  1
  Ni  Ni9  1  -0.00002707  0.00002418  0.65951519  1
  Ni  Ni10  1  0.65952151  0.34047409  0.99997583  1
  Ni  Ni11  1  0.34047849  0.65952591  0.00002417  1
  Ni  Ni12  1  0.38445254  0.38451751  0.38447877  1
  Ni  Ni13  1  0.61554746  0.61548249  0.61552123  1
  Ni  Ni14  1  0.38451405  0.38445093  0.84655360  1
  Ni  Ni15  1  0.38447026  0.84655564  0.38445339  1
  Ni  Ni16  1  0.61548595  0.61554907  0.15344640  1
  Ni  Ni17  1  0.61552974  0.15344436  0.61554661  1
  Ni  Ni18  1  0.84655540  0.38447118  0.38451668  1
  Ni  Ni19  1  0.15344460  0.61552882  0.61548332  1
  Ni  Ni20  1  -0.00000000  0.00000000  -0.00000000  1
  B  B0  1  0.73254787  0.26745261  0.26745222  1
  B  B1  1  0.26745213  0.73254739  0.73254778  1
  B  B2  1  0.26745068  0.73254790  0.26745236  1
  B  B3  1  0.73254932  0.26745210  0.73254764  1
  B  B4  1  0.26745181  0.26745282  0.73254755  1
  B  B5  1  0.73254819  0.73254718  0.26745245  1
loop_
_geom_bond_atom_site_label_1
_geom_bond_atom_site_label_2
_geom_bond_distance
_geom_bond_site_symmetry_2
Nb0 Ni12 2.431516 1_555
Nb0 Ni18 2.431544 1_455
Nb0 Ni15 2.431557 1_545
Nb0 Ni14 2.431579 1_554
Nb1 Ni13 2.431516 1_555
Nb1 Ni19 2.431544 1_655
Nb1 Ni17 2.431557 1_565
Nb1 Ni16 2.431579 1_556
Ni0 Ni20 2.513346 1_565
Ni1 Ni20 2.513346 1_656
Ni2 Ni20 2.513381 1_656
Ni10 Ni20 2.513249 1_656
Ni11 Ni20 2.513249 1_565
Ni20 Ni6 2.513033 1_545
Ni20 Ni4 2.513033 1_555
Ni20 Ni7 2.513057 1_554
Ni20 Ni5 2.513057 1_455
Ni20 Ni9 2.513259 1_554
Ni20 Ni8 2.513259 1_555
Ni20 Ni3 2.513381 1_545
B0 Ni5 2.046450 1_555
B0 Ni4 2.046500 1_655
B0 Ni10 2.046626 1_554
B0 Ni8 2.046684 1_655
B0 Ni18 2.097911 1_555
B0 Ni17 2.098004 1_555
B0 Ni12 2.098011 1_555
B0 Ni16 2.098017 1_555
B1 Ni7 2.046450 1_565
B1 Ni6 2.046500 1_556
B1 Ni11 2.046626 1_556
B1 Ni9 2.046684 1_565
B1 Ni19 2.097911 1_555
B1 Ni15 2.098004 1_555
B1 Ni13 2.098011 1_555
B1 Ni14 2.098017 1_555
B2 Ni11 2.046240 1_555
B2 Ni8 2.046308 1_565
B2 Ni3 2.046338 1_555
B2 Ni0 2.046403 1_555
B2 Ni15 2.097535 1_555
B2 Ni12 2.097619 1_555
B2 Ni19 2.097621 1_555
B2 Ni16 2.097648 1_555
B3 Ni10 2.046240 1_555
B3 Ni9 2.046308 1_655
B3 Ni2 2.046338 1_555
B3 Ni1 2.046403 1_555
B3 Ni17 2.097535 1_555
B3 Ni13 2.097619 1_555
B3 Ni18 2.097621 1_555
B3 Ni14 2.097648 1_555
B4 Ni7 2.046318 1_555
B4 Ni4 2.046370 1_556
B4 Ni2 2.046591 1_455
B4 Ni0 2.046648 1_546
B4 Ni14 2.097765 1_555
B4 Ni12 2.097850 1_555
B4 Ni19 2.097894 1_555
B4 Ni17 2.097906 1_555
B5 Ni5 2.046318 1_565
B5 Ni6 2.046370 1_655
B5 Ni3 2.046591 1_655
B5 Ni1 2.046648 1_564
B5 Ni16 2.097765 1_555
B5 Ni13 2.097850 1_555
B5 Ni18 2.097894 1_555
B5 Ni15 2.097906 1_555
