# generated using pymatgen
data_GdH9C5(NO4)2
_symmetry_space_group_name_H-M   'P 1'
_cell_length_a   6.80748717
_cell_length_b   6.80748717
_cell_length_c   6.71987132
_cell_angle_alpha   75.22960809
_cell_angle_beta   75.22960809
_cell_angle_gamma   65.67852535
_symmetry_Int_Tables_number   1
_chemical_formula_structural   GdH9C5(NO4)2
_chemical_formula_sum   'Gd1 H9 C5 N2 O8'
_cell_volume   270.39392560
_cell_formula_units_Z   1
loop_
 _symmetry_equiv_pos_site_id
 _symmetry_equiv_pos_as_xyz
  1  'x, y, z'
loop_
 _atom_site_type_symbol
 _atom_site_label
 _atom_site_symmetry_multiplicity
 _atom_site_fract_x
 _atom_site_fract_y
 _atom_site_fract_z
 _atom_site_occupancy
  Gd  Gd0  1  0.05007000  0.94993000  0.00000000  1
  H  H0  1  0.97023000  0.02977000  0.50000000  1
  H  H1  1  0.58843500  0.78973700  0.11986100  1
  H  H2  1  0.21026300  0.41156500  0.88013900  1
  H  H3  1  0.85524000  0.58457100  0.41734000  1
  H  H4  1  0.41542900  0.14476000  0.58266000  1
  H  H5  1  0.57608000  0.68382700  0.53329800  1
  H  H6  1  0.31617300  0.42392000  0.46670200  1
  H  H7  1  0.61372300  0.42065300  0.81685200  1
  H  H8  1  0.57934700  0.38627700  0.18314800  1
  C  C0  1  0.11943100  0.88056900  0.50000000  1
  C  C1  1  0.57982300  0.89481600  0.96355100  1
  C  C2  1  0.10518400  0.42017700  0.03644900  1
  C  C3  1  0.76443600  0.41595600  0.70410500  1
  C  C4  1  0.58404400  0.23556400  0.29589500  1
  N  N0  1  0.73193700  0.57435600  0.53967700  1
  N  N1  1  0.42564400  0.26806300  0.46032300  1
  O  O0  1  0.20473700  0.80552700  0.66502100  1
  O  O1  1  0.19447300  0.79526300  0.33497900  1
  O  O2  1  0.94624200  0.27109100  0.73584600  1
  O  O3  1  0.72890900  0.05375800  0.26415400  1
  O  O4  1  0.41273300  0.93803300  0.88299400  1
  O  O5  1  0.06196700  0.58726700  0.11700600  1
  O  O6  1  0.73308500  0.96228500  0.87785200  1
  O  O7  1  0.03771500  0.26691500  0.12214800  1
loop_
_geom_bond_atom_site_label_1
_geom_bond_atom_site_label_2
_geom_bond_distance
_geom_bond_site_symmetry_2
Gd0 O4 2.365979 1_554
Gd0 O5 2.365979 1_555
Gd0 O2 2.412142 1_464
Gd0 O3 2.412142 1_465
Gd0 O7 2.460825 1_565
Gd0 O6 2.460825 1_454
Gd0 O0 2.491834 1_554
Gd0 O1 2.491834 1_555
H3 N0 1.025822 1_555
H4 N1 1.025822 1_555
H5 N0 1.019076 1_555
H6 N1 1.019076 1_555
C0 H0 1.101578 1_465
C0 O1 1.273990 1_555
C0 O0 1.273990 1_555
C1 H1 1.110032 1_556
C1 O6 1.258817 1_555
C1 O4 1.276921 1_555
C2 H2 1.110032 1_554
C2 O7 1.258817 1_555
C2 O5 1.276921 1_555
C3 H7 1.103021 1_555
C3 O2 1.253702 1_555
C3 N0 1.324083 1_555
C4 H8 1.103021 1_555
C4 O3 1.253702 1_555
C4 N1 1.324083 1_555
