# generated using pymatgen
data_MgGa2
_symmetry_space_group_name_H-M   'P 1'
_cell_length_a   5.52651871
_cell_length_b   5.52651871
_cell_length_c   5.52651931
_cell_angle_alpha   56.95066004
_cell_angle_beta   56.95066004
_cell_angle_gamma   56.95067945
_symmetry_Int_Tables_number   1
_chemical_formula_structural   MgGa2
_chemical_formula_sum   'Mg2 Ga4'
_cell_volume   110.96086839
_cell_formula_units_Z   2
loop_
 _symmetry_equiv_pos_site_id
 _symmetry_equiv_pos_as_xyz
  1  'x, y, z'
loop_
 _atom_site_type_symbol
 _atom_site_label
 _atom_site_symmetry_multiplicity
 _atom_site_fract_x
 _atom_site_fract_y
 _atom_site_fract_z
 _atom_site_occupancy
  Mg  Mg0  1  0.83249964  0.83249964  0.83249964  1
  Mg  Mg1  1  0.16750036  0.16750036  0.16750036  1
  Ga  Ga0  1  0.00000000  0.66508833  0.33491167  1
  Ga  Ga1  1  0.66508833  0.33491167  -0.00000000  1
  Ga  Ga2  1  0.50000000  0.50000000  0.50000000  1
  Ga  Ga3  1  0.33491167  -0.00000000  0.66508833  1
loop_
_geom_bond_atom_site_label_1
_geom_bond_atom_site_label_2
_geom_bond_distance
_geom_bond_site_symmetry_2
Mg0 Mg1 3.042649 1_665
Mg0 Mg1 3.042650 1_656
Mg0 Mg1 3.042650 1_566
Ga0 Mg1 2.887800 1_555
Ga0 Mg0 2.887800 1_455
Ga0 Ga2 2.896980 1_455
Ga0 Ga2 2.896980 1_555
Ga0 Mg1 2.913708 1_565
Ga0 Mg0 2.913708 1_454
Ga1 Mg0 2.887800 1_554
Ga1 Mg1 2.887800 1_555
Ga1 Ga2 2.896980 1_554
Ga1 Ga2 2.896980 1_555
Ga1 Mg0 2.913708 1_544
Ga1 Mg1 2.913708 1_655
Ga2 Ga3 2.896980 1_555
Ga2 Ga3 2.896980 1_565
Ga2 Mg0 3.042583 1_554
Ga2 Mg1 3.042583 1_556
Ga2 Mg0 3.042584 1_545
Ga2 Mg0 3.042584 1_455
Ga2 Mg1 3.042584 1_655
Ga2 Mg1 3.042584 1_565
Ga3 Mg0 2.887800 1_545
Ga3 Mg1 2.887800 1_555
Ga3 Mg0 2.913708 1_445
Ga3 Mg1 2.913708 1_556
