# generated using pymatgen
data_BMoC
_symmetry_space_group_name_H-M   'P 1'
_cell_length_a   2.83047230
_cell_length_b   2.83047230
_cell_length_c   7.54397400
_cell_angle_alpha   90.00000000
_cell_angle_beta   90.00000000
_cell_angle_gamma   120.00000695
_symmetry_Int_Tables_number   1
_chemical_formula_structural   BMoC
_chemical_formula_sum   'B2 Mo2 C2'
_cell_volume   52.34179372
_cell_formula_units_Z   2
loop_
 _symmetry_equiv_pos_site_id
 _symmetry_equiv_pos_as_xyz
  1  'x, y, z'
loop_
 _atom_site_type_symbol
 _atom_site_label
 _atom_site_symmetry_multiplicity
 _atom_site_fract_x
 _atom_site_fract_y
 _atom_site_fract_z
 _atom_site_occupancy
  B  B0  1  0.33333300  0.66666700  0.75000000  1
  B  B1  1  0.66666700  0.33333300  0.25000000  1
  Mo  Mo0  1  0.00000000  0.00000000  0.50000000  1
  Mo  Mo1  1  0.00000000  0.00000000  0.00000000  1
  C  C0  1  0.33333300  0.66666700  0.25000000  1
  C  C1  1  0.66666700  0.33333300  0.75000000  1
loop_
_geom_bond_atom_site_label_1
_geom_bond_atom_site_label_2
_geom_bond_distance
_geom_bond_site_symmetry_2
B0 C1 1.634172 1_455
B0 C1 1.634172 1_565
B0 C1 1.634177 1_555
B0 Mo1 2.495494 1_566
B0 Mo0 2.495494 1_565
B0 Mo1 2.495496 1_556
B0 Mo0 2.495496 1_555
B0 Mo0 2.495496 1_665
B0 Mo1 2.495496 1_666
B1 C0 1.634172 1_545
B1 C0 1.634172 1_655
B1 C0 1.634177 1_555
B1 Mo0 2.495494 1_655
B1 Mo1 2.495494 1_655
B1 Mo0 2.495496 1_555
B1 Mo0 2.495496 1_665
B1 Mo1 2.495496 1_665
B1 Mo1 2.495496 1_555
C0 Mo0 2.495494 1_565
C0 Mo1 2.495494 1_565
C0 Mo0 2.495496 1_555
C0 Mo0 2.495496 1_665
C0 Mo1 2.495496 1_665
C0 Mo1 2.495496 1_555
C1 Mo0 2.495494 1_655
C1 Mo1 2.495494 1_656
C1 Mo1 2.495496 1_556
C1 Mo0 2.495496 1_555
C1 Mo1 2.495496 1_666
C1 Mo0 2.495496 1_665
