# generated using pymatgen
data_Ga2Sn3N4
_symmetry_space_group_name_H-M   'P 1'
_cell_length_a   8.01248770
_cell_length_b   8.90550418
_cell_length_c   5.62260742
_cell_angle_alpha   89.99999586
_cell_angle_beta   77.59934045
_cell_angle_gamma   123.76076816
_symmetry_Int_Tables_number   1
_chemical_formula_structural   Ga2Sn3N4
_chemical_formula_sum   'Ga4 Sn6 N8'
_cell_volume   322.22631095
_cell_formula_units_Z   2
loop_
 _symmetry_equiv_pos_site_id
 _symmetry_equiv_pos_as_xyz
  1  'x, y, z'
loop_
 _atom_site_type_symbol
 _atom_site_label
 _atom_site_symmetry_multiplicity
 _atom_site_fract_x
 _atom_site_fract_y
 _atom_site_fract_z
 _atom_site_occupancy
  Ga  Ga0  1  0.46005200  0.12915500  0.58323600  1
  Ga  Ga1  1  0.53994800  0.66910200  0.91676400  1
  Ga  Ga2  1  0.53994800  0.87084500  0.41676400  1
  Ga  Ga3  1  0.46005200  0.33089800  0.08323600  1
  Sn  Sn0  1  0.25041800  0.85767900  0.13076600  1
  Sn  Sn1  1  0.74958200  0.60726100  0.36923400  1
  Sn  Sn2  1  0.74958200  0.14232100  0.86923400  1
  Sn  Sn3  1  0.25041800  0.39273900  0.63076600  1
  Sn  Sn4  1  0.00000000  0.62680100  0.75000000  1
  Sn  Sn5  1  0.00000000  0.37319900  0.25000000  1
  N  N0  1  0.28201300  0.88047700  0.50747200  1
  N  N1  1  0.71798700  0.59846400  0.99252800  1
  N  N2  1  0.71798700  0.11952300  0.49252800  1
  N  N3  1  0.28201300  0.40153600  0.00747200  1
  N  N4  1  0.46272400  0.13978300  0.93281900  1
  N  N5  1  0.53727600  0.67705900  0.56718100  1
  N  N6  1  0.53727600  0.86021700  0.06718100  1
  N  N7  1  0.46272400  0.32294100  0.43281900  1
loop_
_geom_bond_atom_site_label_1
_geom_bond_atom_site_label_2
_geom_bond_distance
_geom_bond_site_symmetry_2
Ga0 N7 1.909225 1_555
Ga0 N0 1.967390 1_545
Ga0 N4 1.971978 1_555
Ga0 N2 2.069554 1_555
Ga1 N6 1.909233 1_556
Ga1 N1 1.967384 1_555
Ga1 N5 1.971978 1_555
Ga1 N3 2.069549 1_556
Ga2 N5 1.909225 1_555
Ga2 N2 1.967390 1_565
Ga2 N6 1.971978 1_555
Ga2 N0 2.069554 1_555
Ga3 N4 1.909233 1_554
Ga3 N3 1.967384 1_555
Ga3 N7 1.971978 1_555
Ga3 N1 2.069549 1_554
N0 Sn0 2.182818 1_555
N0 Sn4 2.252092 1_555
N1 Sn1 2.182818 1_556
N1 Sn4 2.252092 1_655
N2 Sn2 2.182818 1_555
N2 Sn5 2.252092 1_655
N3 Sn3 2.182818 1_554
N3 Sn5 2.252092 1_555
N4 Sn0 2.209277 1_546
N4 Sn2 2.236183 1_555
N5 Sn1 2.209277 1_555
N5 Sn3 2.236184 1_555
N6 Sn2 2.209277 1_564
N6 Sn0 2.236183 1_555
N7 Sn3 2.209277 1_555
N7 Sn1 2.236184 1_555
