# generated using pymatgen
data_TmOs3
_symmetry_space_group_name_H-M   'P 1'
_cell_length_a   5.77006263
_cell_length_b   5.77006263
_cell_length_c   4.59719300
_cell_angle_alpha   90.00000000
_cell_angle_beta   90.00000000
_cell_angle_gamma   120.00000721
_symmetry_Int_Tables_number   1
_chemical_formula_structural   TmOs3
_chemical_formula_sum   'Tm2 Os6'
_cell_volume   132.55142196
_cell_formula_units_Z   2
loop_
 _symmetry_equiv_pos_site_id
 _symmetry_equiv_pos_as_xyz
  1  'x, y, z'
loop_
 _atom_site_type_symbol
 _atom_site_label
 _atom_site_symmetry_multiplicity
 _atom_site_fract_x
 _atom_site_fract_y
 _atom_site_fract_z
 _atom_site_occupancy
  Tm  Tm0  1  0.33333300  0.66666700  0.75000000  1
  Tm  Tm1  1  0.66666700  0.33333300  0.25000000  1
  Os  Os0  1  0.16164800  0.32329600  0.25000000  1
  Os  Os1  1  0.67670400  0.83835200  0.25000000  1
  Os  Os2  1  0.16164800  0.83835200  0.25000000  1
  Os  Os3  1  0.83835200  0.67670400  0.75000000  1
  Os  Os4  1  0.32329600  0.16164800  0.75000000  1
  Os  Os5  1  0.83835200  0.16164800  0.75000000  1
loop_
_geom_bond_atom_site_label_1
_geom_bond_atom_site_label_2
_geom_bond_distance
_geom_bond_site_symmetry_2
Os0 Os1 2.798157 1_445
Os0 Os2 2.798157 1_545
Os0 Os5 2.809527 1_455
Os0 Os5 2.809527 1_454
Os0 Os4 2.809527 1_555
Os0 Os4 2.809527 1_554
Os0 Tm0 2.868384 1_555
Os0 Tm0 2.868384 1_554
Os0 Tm1 2.885464 1_455
Os0 Tm1 2.885470 1_555
Os0 Os1 2.971905 1_555
Os0 Os2 2.971905 1_555
Os1 Os2 2.798157 1_655
Os1 Os5 2.809527 1_565
Os1 Os5 2.809527 1_564
Os1 Os3 2.809527 1_554
Os1 Os3 2.809527 1_555
Os1 Tm0 2.868384 1_555
Os1 Tm0 2.868384 1_554
Os1 Tm1 2.885464 1_565
Os1 Tm1 2.885470 1_555
Os1 Os2 2.971905 1_555
Os2 Os4 2.809527 1_565
Os2 Os4 2.809527 1_564
Os2 Os3 2.809527 1_455
Os2 Os3 2.809527 1_454
Os2 Tm0 2.868381 1_555
Os2 Tm0 2.868381 1_554
Os2 Tm1 2.885467 1_455
Os2 Tm1 2.885467 1_565
Os3 Os4 2.798157 1_665
Os3 Os5 2.798157 1_565
Os3 Tm1 2.868384 1_556
Os3 Tm1 2.868384 1_555
Os3 Tm0 2.885464 1_655
Os3 Tm0 2.885470 1_555
Os3 Os4 2.971905 1_555
Os3 Os5 2.971905 1_555
Os4 Os5 2.798157 1_455
Os4 Tm1 2.868384 1_556
Os4 Tm1 2.868384 1_555
Os4 Tm0 2.885464 1_545
Os4 Tm0 2.885470 1_555
Os4 Os5 2.971905 1_555
Os5 Tm1 2.868381 1_555
Os5 Tm1 2.868381 1_556
Os5 Tm0 2.885467 1_545
Os5 Tm0 2.885467 1_655
