# generated using pymatgen
data_Ca2Ta2VO8
_symmetry_space_group_name_H-M   'P 1'
_cell_length_a   5.52683021
_cell_length_b   10.06932837
_cell_length_c   12.67253511
_cell_angle_alpha   108.32853889
_cell_angle_beta   89.99994488
_cell_angle_gamma   91.42733707
_symmetry_Int_Tables_number   1
_chemical_formula_structural   Ca2Ta2VO8
_chemical_formula_sum   'Ca8 Ta8 V4 O32'
_cell_volume   669.23684627
_cell_formula_units_Z   4
loop_
 _symmetry_equiv_pos_site_id
 _symmetry_equiv_pos_as_xyz
  1  'x, y, z'
loop_
 _atom_site_type_symbol
 _atom_site_label
 _atom_site_symmetry_multiplicity
 _atom_site_fract_x
 _atom_site_fract_y
 _atom_site_fract_z
 _atom_site_occupancy
  Ca  Ca0  1  0.75545900  0.58298700  0.55582300  1
  Ca  Ca1  1  0.75545900  0.58298200  0.05582000  1
  Ca  Ca2  1  0.74218700  0.41652000  0.26414900  1
  Ca  Ca3  1  0.74218400  0.41651500  0.76414700  1
  Ca  Ca4  1  0.24224600  0.41680100  0.44481100  1
  Ca  Ca5  1  0.24224500  0.41680000  0.94480700  1
  Ca  Ca6  1  0.25541100  0.58315300  0.73645800  1
  Ca  Ca7  1  0.25540600  0.58314700  0.23645600  1
  Ta  Ta0  1  0.75793500  0.22439800  0.48180400  1
  Ta  Ta1  1  0.75794000  0.22439000  0.98179800  1
  Ta  Ta2  1  0.73968300  0.77526300  0.86957400  1
  Ta  Ta3  1  0.73969100  0.77526500  0.36957500  1
  Ta  Ta4  1  0.23968200  0.77540100  0.51888700  1
  Ta  Ta5  1  0.23968800  0.77539600  0.01888300  1
  Ta  Ta6  1  0.25790100  0.22439300  0.13111400  1
  Ta  Ta7  1  0.25791100  0.22439400  0.63111700  1
  V  V0  1  0.74879700  0.99988500  0.68345300  1
  V  V1  1  0.24875000  0.99987300  0.81733500  1
  V  V2  1  0.74879200  0.99989000  0.18344100  1
  V  V3  1  0.24875800  0.99986800  0.31734500  1
  O  O0  1  0.09062300  0.14168700  0.47308900  1
  O  O1  1  0.09061700  0.14168500  0.97308900  1
  O  O2  1  0.40687200  0.85790600  0.90207200  1
  O  O3  1  0.40686800  0.85790600  0.40207300  1
  O  O4  1  0.90683300  0.85789900  0.52770100  1
  O  O5  1  0.90682800  0.85789800  0.02770000  1
  O  O6  1  0.59074900  0.14192000  0.09874800  1
  O  O7  1  0.59075100  0.14192100  0.59875000  1
  O  O8  1  0.59586600  0.11479100  0.35223000  1
  O  O9  1  0.59587800  0.11479300  0.85223700  1
  O  O10  1  0.90161200  0.88492200  0.79476900  1
  O  O11  1  0.90161900  0.88492500  0.29476700  1
  O  O12  1  0.40157400  0.88497600  0.64851200  1
  O  O13  1  0.40158900  0.88497700  0.14851900  1
  O  O14  1  0.09591000  0.11488100  0.20603200  1
  O  O15  1  0.09591800  0.11488400  0.70602800  1
  O  O16  1  0.50116600  0.36207800  0.55988300  1
  O  O17  1  0.50116200  0.36208000  0.05988600  1
  O  O18  1  0.99648400  0.63763000  0.37889000  1
  O  O19  1  0.99648700  0.63763000  0.87889000  1
  O  O20  1  0.00115300  0.36211200  0.62175400  1
  O  O21  1  0.00115300  0.36211200  0.12175600  1
  O  O22  1  0.49645500  0.63764600  0.44075200  1
  O  O23  1  0.49645500  0.63764800  0.94075600  1
  O  O24  1  0.34389800  0.37030400  0.26680100  1
  O  O25  1  0.34389500  0.37030700  0.76679700  1
  O  O26  1  0.15367500  0.62951500  0.58166200  1
  O  O27  1  0.15366900  0.62951700  0.08166500  1
  O  O28  1  0.65374400  0.62946300  0.73384500  1
  O  O29  1  0.65374000  0.62946200  0.23384100  1
  O  O30  1  0.84403600  0.37015600  0.41895400  1
  O  O31  1  0.84403300  0.37015500  0.91895700  1
loop_
_geom_bond_atom_site_label_1
_geom_bond_atom_site_label_2
_geom_bond_distance
_geom_bond_site_symmetry_2
Ca0 O28 2.230163 1_555
Ca0 O22 2.241098 1_555
Ca0 O26 2.241139 1_655
Ca0 O30 2.356961 1_555
Ca0 O16 2.615742 1_555
Ca0 O18 2.800722 1_555
Ca0 O20 2.967762 1_655
Ca0 O4 2.999137 1_555
Ca1 O29 2.230152 1_555
Ca1 O23 2.241066 1_554
Ca1 O27 2.241123 1_655
Ca1 O31 2.356896 1_554
Ca1 O17 2.615716 1_555
Ca1 O19 2.800719 1_554
Ca1 O21 2.967752 1_655
Ca1 O5 2.999158 1_555
Ca2 O30 2.229903 1_555
Ca2 O21 2.241005 1_655
Ca2 O24 2.241007 1_555
Ca2 O29 2.356726 1_555
Ca2 O18 2.618134 1_555
Ca2 O17 2.801193 1_555
Ca2 O22 2.971106 1_555
Ca2 O6 2.996502 1_555
Ca3 O31 2.229943 1_555
Ca3 O25 2.240989 1_555
Ca3 O20 2.241016 1_655
Ca3 O28 2.356741 1_555
Ca3 O19 2.618191 1_555
Ca3 O16 2.801189 1_555
Ca3 O23 2.971175 1_555
Ca3 O7 2.996432 1_555
Ca4 O24 2.229908 1_555
Ca4 O16 2.241108 1_555
Ca4 O30 2.241289 1_455
Ca4 O26 2.356047 1_555
Ca4 O22 2.614955 1_555
Ca4 O20 2.801210 1_555
Ca4 O18 2.967482 1_455
Ca4 O0 3.002238 1_555
Ca5 O25 2.229909 1_555
Ca5 O17 2.241148 1_556
Ca5 O31 2.241292 1_455
Ca5 O27 2.356113 1_556
Ca5 O23 2.614954 1_555
Ca5 O21 2.801269 1_556
Ca5 O19 2.967454 1_455
Ca5 O1 3.002276 1_555
Ca6 O26 2.229625 1_555
Ca6 O19 2.241221 1_455
Ca6 O28 2.241383 1_555
Ca6 O25 2.356016 1_555
Ca6 O20 2.617427 1_555
Ca6 O23 2.801566 1_555
Ca6 O16 2.970714 1_555
Ca6 O2 2.998712 1_555
Ca7 O27 2.229606 1_555
Ca7 O18 2.241232 1_455
Ca7 O29 2.241399 1_555
Ca7 O24 2.356031 1_555
Ca7 O21 2.617358 1_555
Ca7 O22 2.801553 1_555
Ca7 O17 2.970642 1_555
Ca7 O3 2.998771 1_555
O0 Ta0 2.026110 1_455
O0 Ta7 2.114613 1_555
O0 V3 2.233392 1_545
O1 Ta1 2.026035 1_455
O1 Ta6 2.114573 1_556
O1 V1 2.233448 1_545
O2 Ta2 2.026367 1_555
O2 Ta5 2.114366 1_556
O2 V1 2.233390 1_555
O3 Ta3 2.026420 1_555
O3 Ta4 2.114372 1_555
O3 V3 2.233245 1_555
O4 Ta4 2.025942 1_655
O4 Ta3 2.115228 1_555
O4 V0 2.233864 1_555
O5 Ta5 2.026011 1_655
O5 Ta2 2.115236 1_554
O5 V2 2.233791 1_555
O6 Ta6 2.025799 1_555
O6 Ta1 2.115591 1_554
O6 V2 2.233340 1_545
O7 Ta7 2.025760 1_555
O7 Ta0 2.115575 1_555
O7 V0 2.233481 1_545
O8 Ta0 1.878203 1_555
O8 V3 2.186890 1_545
O8 V2 2.262845 1_545
O9 Ta1 1.878042 1_555
O9 V1 2.186980 1_545
O9 V0 2.262796 1_545
O10 Ta2 1.878277 1_555
O10 V1 2.187156 1_655
O10 V0 2.262531 1_555
O11 Ta3 1.878308 1_555
O11 V3 2.187117 1_655
O11 V2 2.262670 1_555
O12 Ta4 1.878100 1_555
O12 V0 2.187402 1_555
O12 V1 2.262957 1_555
O13 Ta5 1.878237 1_555
O13 V2 2.187316 1_555
O13 V3 2.262988 1_555
O14 Ta6 1.878336 1_555
O14 V2 2.187237 1_445
O14 V3 2.262932 1_545
O15 Ta7 1.878265 1_555
O15 V0 2.187296 1_445
O15 V1 2.262824 1_545
O16 Ta0 2.037195 1_555
O16 Ta7 2.288822 1_555
O17 Ta1 2.037317 1_554
O17 Ta6 2.288818 1_555
O18 Ta3 2.037102 1_555
O18 Ta4 2.288632 1_655
O19 Ta2 2.037135 1_555
O19 Ta5 2.288595 1_656
O20 Ta7 2.037728 1_555
O20 Ta0 2.288148 1_455
O21 Ta6 2.037679 1_555
O21 Ta1 2.288219 1_454
O22 Ta4 2.037816 1_555
O22 Ta3 2.287871 1_555
O23 Ta5 2.037726 1_556
O23 Ta2 2.287854 1_555
O24 Ta6 1.928089 1_555
O25 Ta7 1.928024 1_555
O26 Ta4 1.927918 1_555
O27 Ta5 1.927928 1_555
O28 Ta2 1.927832 1_555
O29 Ta3 1.927903 1_555
O30 Ta0 1.927515 1_555
O31 Ta1 1.927493 1_555
