# generated using pymatgen
data_NaNbO3
_symmetry_space_group_name_H-M   'P 1'
_cell_length_a   5.62623700
_cell_length_b   5.67929500
_cell_length_c   7.88861300
_cell_angle_alpha   90.00000000
_cell_angle_beta   90.00000000
_cell_angle_gamma   90.00000000
_symmetry_Int_Tables_number   1
_chemical_formula_structural   NaNbO3
_chemical_formula_sum   'Na4 Nb4 O12'
_cell_volume   252.06532185
_cell_formula_units_Z   4
loop_
 _symmetry_equiv_pos_site_id
 _symmetry_equiv_pos_as_xyz
  1  'x, y, z'
loop_
 _atom_site_type_symbol
 _atom_site_label
 _atom_site_symmetry_multiplicity
 _atom_site_fract_x
 _atom_site_fract_y
 _atom_site_fract_z
 _atom_site_occupancy
  Na  Na0  1  0.50506000  0.50709100  0.25000000  1
  Na  Na1  1  0.99494000  0.00709100  0.25000000  1
  Na  Na2  1  0.49494000  0.49290900  0.75000000  1
  Na  Na3  1  0.00506000  0.99290900  0.75000000  1
  Nb  Nb0  1  0.50000000  0.00000000  0.00000000  1
  Nb  Nb1  1  0.00000000  0.50000000  0.50000000  1
  Nb  Nb2  1  0.50000000  0.00000000  0.50000000  1
  Nb  Nb3  1  0.00000000  0.50000000  0.00000000  1
  O  O0  1  0.43567800  0.99858000  0.25000000  1
  O  O1  1  0.06432200  0.49858000  0.25000000  1
  O  O2  1  0.56432200  0.00142000  0.75000000  1
  O  O3  1  0.93567800  0.50142000  0.75000000  1
  O  O4  1  0.75124400  0.75147000  0.03325800  1
  O  O5  1  0.74875600  0.25147000  0.46674200  1
  O  O6  1  0.24875600  0.24853000  0.53325800  1
  O  O7  1  0.25124400  0.74853000  0.96674200  1
  O  O8  1  0.24875600  0.24853000  0.96674200  1
  O  O9  1  0.25124400  0.74853000  0.53325800  1
  O  O10  1  0.75124400  0.75147000  0.46674200  1
  O  O11  1  0.74875600  0.25147000  0.03325800  1
loop_
_geom_bond_atom_site_label_1
_geom_bond_atom_site_label_2
_geom_bond_distance
_geom_bond_site_symmetry_2
Na0 O1 2.480168 1_555
Na0 O10 2.601564 1_555
Na0 O4 2.601564 1_555
Na0 O11 2.628851 1_555
Na0 O5 2.628851 1_555
Na0 O0 2.818474 1_555
Na0 O0 2.914246 1_545
Na1 O0 2.480168 1_645
Na1 O11 2.601564 1_555
Na1 O5 2.601564 1_555
Na1 O10 2.628851 1_545
Na1 O4 2.628851 1_545
Na1 O1 2.818474 1_655
Na1 O1 2.914246 1_645
Na2 O3 2.480168 1_555
Na2 O8 2.601564 1_555
Na2 O6 2.601564 1_555
Na2 O9 2.628851 1_555
Na2 O7 2.628851 1_555
Na2 O2 2.818474 1_555
Na2 O2 2.914246 1_565
Na3 O2 2.480168 1_465
Na3 O9 2.601564 1_555
Na3 O7 2.601564 1_555
Na3 O8 2.628851 1_565
Na3 O6 2.628851 1_565
Na3 O3 2.818474 1_455
Na3 O3 2.914246 1_465
Nb0 O2 2.005098 1_554
Nb0 O0 2.005098 1_545
Nb0 O8 2.014756 1_554
Nb0 O4 2.014756 1_545
Nb0 O11 2.016749 1_555
Nb0 O7 2.016749 1_544
Nb1 O3 2.005098 1_455
Nb1 O1 2.005098 1_555
Nb1 O5 2.014756 1_455
Nb1 O9 2.014756 1_555
Nb1 O6 2.016749 1_555
Nb1 O10 2.016749 1_455
Nb2 O0 2.005098 1_545
Nb2 O2 2.005098 1_555
Nb2 O10 2.014756 1_545
Nb2 O6 2.014756 1_555
Nb2 O9 2.016749 1_545
Nb2 O5 2.016749 1_555
Nb3 O3 2.005098 1_454
Nb3 O1 2.005098 1_555
Nb3 O7 2.014756 1_554
Nb3 O11 2.014756 1_455
Nb3 O4 2.016749 1_455
Nb3 O8 2.016749 1_554
