# generated using pymatgen
data_Zn3Cu6(AsS3)4
_symmetry_space_group_name_H-M   'P 1'
_cell_length_a   8.35550000
_cell_length_b   8.41321938
_cell_length_c   8.43333447
_cell_angle_alpha   107.55085861
_cell_angle_beta   107.46001506
_cell_angle_gamma   107.10651423
_symmetry_Int_Tables_number   1
_chemical_formula_structural   Zn3Cu6(AsS3)4
_chemical_formula_sum   'Zn3 Cu6 As4 S12'
_cell_volume   488.60936937
_cell_formula_units_Z   1
loop_
 _symmetry_equiv_pos_site_id
 _symmetry_equiv_pos_as_xyz
  1  'x, y, z'
loop_
 _atom_site_type_symbol
 _atom_site_label
 _atom_site_symmetry_multiplicity
 _atom_site_fract_x
 _atom_site_fract_y
 _atom_site_fract_z
 _atom_site_occupancy
  Zn  Zn0  1  0.40295300  0.16941100  0.45976100  1
  Zn  Zn1  1  0.07204300  0.21731300  0.70320800  1
  Zn  Zn2  1  0.22908100  0.70266400  0.07487300  1
  Cu  Cu0  1  0.16601700  0.45563800  0.39338000  1
  Cu  Cu1  1  0.45840700  0.39855000  0.16890500  1
  Cu  Cu2  1  0.70562900  0.07465500  0.21883000  1
  Cu  Cu3  1  0.29731100  0.90923900  0.76180200  1
  Cu  Cu4  1  0.90911100  0.76057100  0.30361500  1
  Cu  Cu5  1  0.76270000  0.30065500  0.91469600  1
  As  As0  1  0.97469200  0.98554500  0.97835400  1
  As  As1  1  0.56403000  0.62286100  0.85086800  1
  As  As2  1  0.62085400  0.84195800  0.55648900  1
  As  As3  1  0.84206200  0.56216600  0.61431000  1
  S  S0  1  0.22378900  0.13272400  0.92545800  1
  S  S1  1  0.12678700  0.91700900  0.21677400  1
  S  S2  1  0.92026500  0.22102700  0.13468000  1
  S  S3  1  0.29195000  0.36639600  0.61038700  1
  S  S4  1  0.36327300  0.60963700  0.29669900  1
  S  S5  1  0.61728600  0.29463500  0.35808900  1
  S  S6  1  0.44986400  0.82504400  0.97819200  1
  S  S7  1  0.81446500  0.97642500  0.44010900  1
  S  S8  1  0.97474500  0.44488400  0.82130400  1
  S  S9  1  0.50952200  0.05235300  0.66833600  1
  S  S10  1  0.05218400  0.66109700  0.50784400  1
  S  S11  1  0.66257900  0.50914400  0.05463500  1
loop_
_geom_bond_atom_site_label_1
_geom_bond_atom_site_label_2
_geom_bond_distance
_geom_bond_site_symmetry_2
Cu0 S3 2.271136 1_555
Cu0 S2 2.280875 1_455
Cu0 S4 2.290667 1_555
Cu0 S10 2.310037 1_555
Cu1 S4 2.266603 1_555
Cu1 S0 2.301343 1_554
Cu1 S11 2.301782 1_555
Cu1 S5 2.307626 1_555
Cu2 S2 2.286463 1_555
Cu2 S6 2.298372 1_544
Cu2 S7 2.312199 1_545
Cu2 S5 2.315682 1_555
Cu3 S10 2.301278 1_555
Cu3 S9 2.317354 1_565
Cu3 S6 2.317686 1_555
Cu3 S0 2.332535 1_565
Cu4 S11 2.299774 1_555
Cu4 S10 2.306137 1_655
Cu4 S7 2.319216 1_555
Cu4 S1 2.355625 1_655
Cu5 S9 2.302348 1_555
Cu5 S11 2.318743 1_556
Cu5 S8 2.319654 1_555
Cu5 S2 2.329508 1_556
As0 S2 2.276936 1_566
As0 S0 2.332019 1_665
As0 S1 2.363741 1_656
As1 S11 2.269860 1_556
As1 S6 2.328955 1_555
As1 S3 2.375983 1_555
As2 S4 2.316342 1_555
As2 S9 2.318741 1_565
As2 S7 2.325059 1_555
As3 S10 2.262365 1_655
As3 S5 2.325316 1_555
As3 S8 2.402295 1_555
S0 Zn1 2.352944 1_555
S1 Zn2 2.373533 1_555
S1 Zn0 2.385060 1_565
S3 Zn0 2.358393 1_555
S3 Zn1 2.379402 1_555
S4 Zn2 2.347332 1_555
S5 Zn0 2.325641 1_555
S6 Zn2 2.327977 1_556
S7 Zn1 2.349203 1_665
S8 Zn2 2.357342 1_656
S8 Zn1 2.360103 1_655
S9 Zn0 2.340422 1_555
