# generated using pymatgen
data_Ca8Cr(PO4)7
_symmetry_space_group_name_H-M   'P 1'
_cell_length_a   10.48030897
_cell_length_b   10.48030897
_cell_length_c   13.82482170
_cell_angle_alpha   67.75665895
_cell_angle_beta   67.75665895
_cell_angle_gamma   60.15040775
_symmetry_Int_Tables_number   1
_chemical_formula_structural   Ca8Cr(PO4)7
_chemical_formula_sum   'Ca16 Cr2 P14 O56'
_cell_volume   1184.33729106
_cell_formula_units_Z   2
loop_
 _symmetry_equiv_pos_site_id
 _symmetry_equiv_pos_as_xyz
  1  'x, y, z'
loop_
 _atom_site_type_symbol
 _atom_site_label
 _atom_site_symmetry_multiplicity
 _atom_site_fract_x
 _atom_site_fract_y
 _atom_site_fract_z
 _atom_site_occupancy
  Ca  Ca0  1  0.64350400  0.56958200  0.19675500  1
  Ca  Ca1  1  0.84371200  0.91393300  0.30510300  1
  Ca  Ca2  1  0.93554000  0.42474700  0.79636500  1
  Ca  Ca3  1  0.58861800  0.06236800  0.70579200  1
  Ca  Ca4  1  0.01968300  0.95145800  0.48487900  1
  Ca  Ca5  1  0.95145800  0.01968300  0.98487900  1
  Ca  Ca6  1  0.42977200  0.34553600  0.30475800  1
  Ca  Ca7  1  0.14670800  0.09241900  0.69948500  1
  Ca  Ca8  1  0.09241900  0.14670800  0.19948500  1
  Ca  Ca9  1  0.34553600  0.42977200  0.80475800  1
  Ca  Ca10  1  0.91393300  0.84371200  0.80510300  1
  Ca  Ca11  1  0.56958200  0.64350400  0.69675500  1
  Ca  Ca12  1  0.06236800  0.58861800  0.20579200  1
  Ca  Ca13  1  0.44868600  0.54065200  0.48263500  1
  Ca  Ca14  1  0.42474700  0.93554000  0.29636500  1
  Ca  Ca15  1  0.54065200  0.44868600  0.98263500  1
  Cr  Cr0  1  0.49864000  0.99798700  0.50634600  1
  Cr  Cr1  1  0.99798700  0.49864000  0.00634600  1
  P  P0  1  0.27949200  0.81315400  0.59733400  1
  P  P1  1  0.77794400  0.81184400  0.09530700  1
  P  P2  1  0.81184400  0.77794400  0.59530700  1
  P  P3  1  0.31036300  0.31310200  0.09714500  1
  P  P4  1  0.68550100  0.68104600  0.41020800  1
  P  P5  1  0.18697900  0.72035000  0.91314000  1
  P  P6  1  0.68104600  0.68550100  0.91020800  1
  P  P7  1  0.21776100  0.18055300  0.91321900  1
  P  P8  1  0.18055300  0.21776100  0.41321900  1
  P  P9  1  0.31310200  0.31036300  0.59714500  1
  P  P10  1  0.23226200  0.73118000  0.30685300  1
  P  P11  1  0.81315400  0.27949200  0.09733400  1
  P  P12  1  0.72035000  0.18697900  0.41314000  1
  P  P13  1  0.73118000  0.23226200  0.80685300  1
  O  O0  1  0.36782600  0.88556100  0.61500700  1
  O  O1  1  0.60591400  0.38845900  0.77157700  1
  O  O2  1  0.09623500  0.21954100  0.53017700  1
  O  O3  1  0.88556100  0.36782600  0.11500700  1
  O  O4  1  0.63900700  0.85314000  0.85694900  1
  O  O5  1  0.88211200  0.11102300  0.34357600  1
  O  O6  1  0.62317800  0.11598700  0.40122800  1
  O  O7  1  0.35925300  0.64220600  0.86874900  1
  O  O8  1  0.60181400  0.66591900  0.34495000  1
  O  O9  1  0.15067700  0.34841400  0.66424100  1
  O  O10  1  0.61282400  0.85981500  0.40221000  1
  O  O11  1  0.90552200  0.10804800  0.13730600  1
  O  O12  1  0.64220600  0.35925300  0.36874900  1
  O  O13  1  0.12136800  0.36028000  0.90226100  1
  O  O14  1  0.33714300  0.64509500  0.65782600  1
  O  O15  1  0.19352200  0.69961100  0.43311200  1
  O  O16  1  0.88617300  0.81897500  0.47598300  1
  O  O17  1  0.13152100  0.38861600  0.11233500  1
  O  O18  1  0.13124000  0.13780700  0.36907900  1
  O  O19  1  0.69961100  0.19352200  0.93311200  1
  O  O20  1  0.32958700  0.38982800  0.47746800  1
  O  O21  1  0.13780700  0.13124000  0.86907900  1
  O  O22  1  0.10804800  0.90552200  0.63730600  1
  O  O23  1  0.83547000  0.86241900  0.15673000  1
  O  O24  1  0.64509500  0.33714300  0.15782600  1
  O  O25  1  0.86241900  0.83547000  0.65673000  1
  O  O26  1  0.34682300  0.40678600  0.13964300  1
  O  O27  1  0.21954100  0.09623500  0.03017700  1
  O  O28  1  0.38861600  0.13152100  0.61233500  1
  O  O29  1  0.73304300  0.14189700  0.52941700  1
  O  O30  1  0.40678600  0.34682300  0.63964300  1
  O  O31  1  0.16634300  0.37600000  0.34230400  1
  O  O32  1  0.14189700  0.73304300  0.02941700  1
  O  O33  1  0.85314000  0.63900700  0.35694900  1
  O  O34  1  0.10781700  0.74013200  0.26869200  1
  O  O35  1  0.88875700  0.23716000  0.77134900  1
  O  O36  1  0.38982800  0.32958700  0.97746800  1
  O  O37  1  0.59390900  0.64487600  0.02596800  1
  O  O38  1  0.11102300  0.88211200  0.84357600  1
  O  O39  1  0.66591900  0.60181400  0.84495000  1
  O  O40  1  0.85981500  0.61282400  0.90221000  1
  O  O41  1  0.82393200  0.31353800  0.97631400  1
  O  O42  1  0.11598700  0.62317800  0.90122800  1
  O  O43  1  0.36028000  0.12136800  0.40226100  1
  O  O44  1  0.37600000  0.16634300  0.84230400  1
  O  O45  1  0.34841400  0.15067700  0.16424100  1
  O  O46  1  0.83895800  0.61120300  0.64214300  1
  O  O47  1  0.86985900  0.63206700  0.11296200  1
  O  O48  1  0.38845900  0.60591400  0.27157700  1
  O  O49  1  0.74013200  0.10781700  0.76869200  1
  O  O50  1  0.64487600  0.59390900  0.52596800  1
  O  O51  1  0.61120300  0.83895800  0.14214300  1
  O  O52  1  0.81897500  0.88617300  0.97598300  1
  O  O53  1  0.23716000  0.88875700  0.27134900  1
  O  O54  1  0.63206700  0.86985900  0.61296200  1
  O  O55  1  0.31353800  0.82393200  0.47631400  1
loop_
_geom_bond_atom_site_label_1
_geom_bond_atom_site_label_2
_geom_bond_distance
_geom_bond_site_symmetry_2
Ca0 O48 2.356145 1_555
Ca0 O37 2.361759 1_555
Ca0 O8 2.420112 1_555
Ca0 O51 2.506633 1_555
Ca0 O47 2.507994 1_555
Ca0 O3 2.546115 1_555
Ca0 O12 2.559346 1_555
Ca0 O24 2.677595 1_555
Ca1 O16 2.311803 1_555
Ca1 O23 2.350629 1_555
Ca1 O34 2.419308 1_655
Ca1 O10 2.511894 1_555
Ca1 O6 2.554454 1_565
Ca1 O5 2.555919 1_565
Ca1 O11 2.557526 1_565
Ca1 O33 2.651817 1_555
Ca2 O9 2.291916 1_655
Ca2 O35 2.414062 1_555
Ca2 O41 2.423718 1_555
Ca2 O46 2.428906 1_555
Ca2 O39 2.483217 1_555
Ca2 O40 2.530526 1_555
Ca2 O13 2.548047 1_655
Ca2 O21 2.783432 1_655
Ca3 O49 2.369897 1_555
Ca3 O4 2.380687 1_545
Ca3 O44 2.381285 1_555
Ca3 O29 2.419569 1_555
Ca3 O28 2.533247 1_555
Ca3 O54 2.555033 1_545
Ca3 O30 2.637302 1_555
Ca3 O25 2.702576 1_545
Ca4 O22 2.407412 1_555
Ca4 O5 2.439345 1_465
Ca4 O16 2.468660 1_455
Ca4 O18 2.496573 1_565
Ca4 O15 2.540504 1_555
Ca4 O25 2.584956 1_455
Ca4 O29 2.636026 1_465
Ca4 O55 2.651641 1_555
Ca5 O11 2.407412 1_556
Ca5 O38 2.439345 1_645
Ca5 O52 2.468660 1_545
Ca5 O21 2.496573 1_655
Ca5 O19 2.540504 1_555
Ca5 O23 2.584956 1_546
Ca5 O32 2.636026 1_646
Ca5 O41 2.651641 1_555
Ca6 O20 2.339848 1_555
Ca6 O24 2.386142 1_555
Ca6 O48 2.423014 1_555
Ca6 O31 2.481243 1_555
Ca6 O26 2.493182 1_555
Ca6 O43 2.535608 1_555
Ca6 O6 2.537369 1_555
Ca6 O12 2.768767 1_555
Ca7 O2 2.325595 1_555
Ca7 O35 2.371053 1_455
Ca7 O38 2.428687 1_545
Ca7 O21 2.488020 1_555
Ca7 O0 2.510173 1_545
Ca7 O28 2.528837 1_555
Ca7 O9 2.557967 1_555
Ca7 O22 2.658606 1_545
Ca8 O27 2.325595 1_555
Ca8 O53 2.371053 1_545
Ca8 O5 2.428687 1_455
Ca8 O18 2.488020 1_555
Ca8 O3 2.510173 1_455
Ca8 O17 2.528837 1_555
Ca8 O45 2.557967 1_555
Ca8 O11 2.658606 1_455
Ca9 O36 2.339848 1_555
Ca9 O14 2.386142 1_555
Ca9 O1 2.423014 1_555
Ca9 O44 2.481243 1_555
Ca9 O30 2.493182 1_555
Ca9 O13 2.535608 1_555
Ca9 O42 2.537369 1_555
Ca9 O7 2.768767 1_555
Ca10 O52 2.311803 1_555
Ca10 O25 2.350629 1_555
Ca10 O49 2.419308 1_565
Ca10 O40 2.511894 1_555
Ca10 O42 2.554454 1_655
Ca10 O38 2.555919 1_655
Ca10 O22 2.557526 1_655
Ca10 O4 2.651817 1_555
Ca11 O1 2.356145 1_555
Ca11 O50 2.361759 1_555
Ca11 O39 2.420112 1_555
Ca11 O46 2.506633 1_555
Ca11 O54 2.507994 1_555
Ca11 O0 2.546115 1_555
Ca11 O7 2.559346 1_555
Ca11 O14 2.677595 1_555
Ca12 O34 2.369897 1_555
Ca12 O33 2.380687 1_455
Ca12 O31 2.381285 1_555
Ca12 O32 2.419569 1_555
Ca12 O17 2.533247 1_555
Ca12 O47 2.555033 1_455
Ca12 O26 2.637302 1_555
Ca12 O23 2.702576 1_455
Ca13 O8 2.411412 1_555
Ca13 O30 2.420540 1_555
Ca13 O20 2.485690 1_555
Ca13 O12 2.493374 1_555
Ca13 O15 2.546225 1_555
Ca13 O55 2.557205 1_555
Ca13 O14 2.649625 1_555
Ca13 O50 2.688159 1_555
Ca13 O48 2.972152 1_555
Ca14 O45 2.291916 1_565
Ca14 O53 2.414062 1_555
Ca14 O55 2.423718 1_555
Ca14 O51 2.428906 1_555
Ca14 O8 2.483217 1_555
Ca14 O10 2.530526 1_555
Ca14 O43 2.548047 1_565
Ca14 O18 2.783432 1_565
Ca15 O39 2.411412 1_555
Ca15 O26 2.420540 1_556
Ca15 O36 2.485690 1_555
Ca15 O7 2.493374 1_555
Ca15 O19 2.546225 1_555
Ca15 O41 2.557205 1_555
Ca15 O24 2.649625 1_556
Ca15 O37 2.688159 1_556
Ca15 O1 2.972152 1_555
Cr0 O28 2.025375 1_565
Cr0 O54 2.030730 1_555
Cr0 O43 2.037110 1_565
Cr0 O10 2.037309 1_555
Cr0 O6 2.038369 1_565
Cr0 O0 2.057494 1_555
Cr1 O17 2.025375 1_655
Cr1 O47 2.030730 1_555
Cr1 O13 2.037110 1_654
Cr1 O40 2.037309 1_554
Cr1 O42 2.038369 1_654
Cr1 O3 2.057494 1_555
O0 P0 1.582252 1_555
O1 P13 1.543405 1_555
O2 P8 1.523271 1_555
O3 P11 1.582252 1_555
O4 P6 1.522716 1_555
O5 P12 1.560291 1_555
O6 P12 1.609905 1_555
O7 P5 1.541703 1_555
O8 P4 1.566544 1_555
O9 P9 1.525131 1_555
O10 P4 1.609024 1_555
O11 P11 1.546852 1_555
O12 P12 1.541703 1_555
O13 P7 1.611542 1_555
O14 P0 1.541006 1_555
O15 P10 1.575140 1_555
O16 P2 1.528577 1_555
O17 P3 1.592083 1_555
O18 P8 1.548742 1_555
O19 P13 1.575140 1_555
O20 P9 1.531169 1_555
O21 P7 1.548742 1_555
O22 P0 1.546852 1_555
O23 P1 1.553044 1_555
O24 P11 1.541006 1_555
O25 P2 1.553044 1_555
O26 P3 1.560564 1_555
O27 P7 1.523271 1_554
O28 P9 1.592083 1_555
O29 P12 1.532754 1_555
O30 P9 1.560564 1_555
O31 P8 1.538628 1_555
O32 P5 1.532754 1_554
O33 P4 1.522716 1_555
O34 P10 1.532897 1_555
O35 P13 1.556434 1_555
O36 P3 1.531169 1_556
O37 P6 1.530076 1_554
O38 P5 1.560291 1_555
O39 P6 1.566544 1_555
O40 P6 1.609024 1_555
O41 P11 1.544135 1_556
O42 P5 1.609905 1_555
O43 P8 1.611542 1_555
O44 P7 1.538628 1_555
O45 P3 1.525131 1_555
O46 P2 1.530390 1_555
O47 P1 1.600173 1_555
O48 P10 1.543405 1_555
O49 P13 1.532897 1_555
O50 P4 1.530076 1_555
O51 P1 1.530390 1_555
O52 P1 1.528577 1_556
O53 P10 1.556434 1_555
O54 P2 1.600173 1_555
O55 P0 1.544135 1_555
