# generated using pymatgen
data_ReC
_symmetry_space_group_name_H-M   'P 1'
_cell_length_a   2.89627052
_cell_length_b   2.89627052
_cell_length_c   11.31731700
_cell_angle_alpha   90.00000000
_cell_angle_beta   90.00000000
_cell_angle_gamma   120.00001194
_symmetry_Int_Tables_number   1
_chemical_formula_structural   ReC
_chemical_formula_sum   'Re4 C4'
_cell_volume   82.21523615
_cell_formula_units_Z   4
loop_
 _symmetry_equiv_pos_site_id
 _symmetry_equiv_pos_as_xyz
  1  'x, y, z'
loop_
 _atom_site_type_symbol
 _atom_site_label
 _atom_site_symmetry_multiplicity
 _atom_site_fract_x
 _atom_site_fract_y
 _atom_site_fract_z
 _atom_site_occupancy
  Re  Re0  1  0.33333300  0.66666700  0.87394400  1
  Re  Re1  1  0.66666700  0.33333300  0.12605600  1
  Re  Re2  1  0.66666700  0.33333300  0.37394400  1
  Re  Re3  1  0.33333300  0.66666700  0.62605600  1
  C  C0  1  0.00000000  0.00000000  0.50000000  1
  C  C1  1  0.00000000  0.00000000  0.00000000  1
  C  C2  1  0.33333300  0.66666700  0.25000000  1
  C  C3  1  0.66666700  0.33333300  0.75000000  1
loop_
_geom_bond_atom_site_label_1
_geom_bond_atom_site_label_2
_geom_bond_distance
_geom_bond_site_symmetry_2
C0 Re3 2.198034 1_545
C0 Re2 2.198034 1_455
C0 Re3 2.198036 1_555
C0 Re3 2.198036 1_445
C0 Re2 2.198036 1_555
C0 Re2 2.198036 1_445
C1 Re1 2.198034 1_455
C1 Re0 2.198034 1_544
C1 Re1 2.198036 1_555
C1 Re1 2.198036 1_445
C1 Re0 2.198036 1_554
C1 Re0 2.198036 1_444
C2 Re1 2.182596 1_455
C2 Re2 2.182596 1_455
C2 Re2 2.182596 1_565
C2 Re1 2.182596 1_565
C2 Re2 2.182600 1_555
C2 Re1 2.182600 1_555
C3 Re0 2.182596 1_655
C3 Re0 2.182596 1_545
C3 Re3 2.182596 1_545
C3 Re3 2.182596 1_655
C3 Re0 2.182600 1_555
C3 Re3 2.182600 1_555
