# generated using pymatgen
data_Li3FeO4
_symmetry_space_group_name_H-M   'P 1'
_cell_length_a   5.20744192
_cell_length_b   5.77038665
_cell_length_c   5.20747191
_cell_angle_alpha   89.98513394
_cell_angle_beta   67.39582409
_cell_angle_gamma   90.04013093
_symmetry_Int_Tables_number   1
_chemical_formula_structural   Li3FeO4
_chemical_formula_sum   'Li6 Fe2 O8'
_cell_volume   144.45864325
_cell_formula_units_Z   2
loop_
 _symmetry_equiv_pos_site_id
 _symmetry_equiv_pos_as_xyz
  1  'x, y, z'
loop_
 _atom_site_type_symbol
 _atom_site_label
 _atom_site_symmetry_multiplicity
 _atom_site_fract_x
 _atom_site_fract_y
 _atom_site_fract_z
 _atom_site_occupancy
  Li  Li0  1  0.46945800  0.00000000  0.46944200  1
  Li  Li1  1  0.96884100  0.49997600  0.96886300  1
  Li  Li2  1  0.50590300  0.24084300  0.99598100  1
  Li  Li3  1  0.99588400  0.75918700  0.50569500  1
  Li  Li4  1  0.00649800  0.25976700  0.49594700  1
  Li  Li5  1  0.49608000  0.74026700  0.00670300  1
  Fe  Fe0  1  0.51254000  0.50001500  0.51234200  1
  Fe  Fe1  1  0.01204100  0.99996900  0.01221400  1
  O  O0  1  0.72774200  0.26965400  0.26783200  1
  O  O1  1  0.26775300  0.73024400  0.72757400  1
  O  O2  1  0.22728700  0.23051900  0.76703100  1
  O  O3  1  0.76706500  0.76935300  0.22749700  1
  O  O4  1  0.22189300  0.00001000  0.22159100  1
  O  O5  1  0.72177800  0.50003200  0.72206800  1
  O  O6  1  0.29943300  0.50007000  0.29972900  1
  O  O7  1  0.79980500  0.00009200  0.79949100  1
loop_
_geom_bond_atom_site_label_1
_geom_bond_atom_site_label_2
_geom_bond_distance
_geom_bond_site_symmetry_2
Li0 O0 2.059889 1_555
Li0 O1 2.060200 1_545
Li0 O2 2.064551 1_555
Li0 O3 2.064776 1_545
Li0 O4 2.146375 1_555
Li1 O3 2.061477 1_556
Li1 O2 2.061550 1_655
Li1 O1 2.063972 1_655
Li1 O0 2.064100 1_556
Li1 O5 2.139625 1_555
Li2 O7 2.029573 1_555
Li2 O4 2.039473 1_556
Li2 O5 2.073428 1_555
Li2 O6 2.142811 1_556
Li2 O0 2.150176 1_556
Li2 O2 2.204477 1_555
Li3 O7 2.029265 1_565
Li3 O4 2.040392 1_665
Li3 O5 2.074391 1_555
Li3 O6 2.141383 1_655
Li3 O1 2.150567 1_655
Li3 O3 2.202059 1_555
Li4 O6 2.022848 1_555
Li4 O5 2.041725 1_455
Li4 O4 2.077877 1_555
Li4 O7 2.142666 1_455
Li4 O2 2.142667 1_555
Li4 O0 2.201629 1_455
Li5 O6 2.023331 1_555
Li5 O5 2.040640 1_554
Li5 O4 2.076764 1_565
Li5 O3 2.142077 1_555
Li5 O7 2.144216 1_564
Li5 O1 2.204180 1_554
Fe0 O5 1.815150 1_555
Fe0 O6 1.844420 1_555
Fe0 O0 1.884180 1_555
Fe0 O1 1.884387 1_555
Fe0 O3 2.203875 1_555
Fe0 O2 2.205697 1_555
Fe1 O4 1.816298 1_565
Fe1 O7 1.841123 1_464
Fe1 O3 1.884822 1_455
Fe1 O2 1.885021 1_564
Fe1 O0 2.207891 1_465
Fe1 O1 2.208958 1_554
