# generated using pymatgen
data_Mg6MnW
_symmetry_space_group_name_H-M   'P 1'
_cell_length_a   4.87480300
_cell_length_b   5.85999200
_cell_length_c   10.82857800
_cell_angle_alpha   90.00000000
_cell_angle_beta   90.00000000
_cell_angle_gamma   90.00000000
_symmetry_Int_Tables_number   1
_chemical_formula_structural   Mg6MnW
_chemical_formula_sum   'Mg12 Mn2 W2'
_cell_volume   309.33247899
_cell_formula_units_Z   2
loop_
 _symmetry_equiv_pos_site_id
 _symmetry_equiv_pos_as_xyz
  1  'x, y, z'
loop_
 _atom_site_type_symbol
 _atom_site_label
 _atom_site_symmetry_multiplicity
 _atom_site_fract_x
 _atom_site_fract_y
 _atom_site_fract_z
 _atom_site_occupancy
  Mg  Mg0  1  0.50000000  0.74975300  0.92254200  1
  Mg  Mg1  1  0.50000000  0.25024700  0.92254200  1
  Mg  Mg2  1  0.00000000  0.24342700  0.58602100  1
  Mg  Mg3  1  0.00000000  0.75657300  0.58602100  1
  Mg  Mg4  1  0.00000000  0.50000000  0.81923600  1
  Mg  Mg5  1  0.00000000  0.00000000  0.82212000  1
  Mg  Mg6  1  0.50000000  0.24975300  0.42254200  1
  Mg  Mg7  1  0.50000000  0.75024700  0.42254200  1
  Mg  Mg8  1  0.00000000  0.74342700  0.08602100  1
  Mg  Mg9  1  0.00000000  0.25657300  0.08602100  1
  Mg  Mg10  1  0.00000000  0.00000000  0.31923600  1
  Mg  Mg11  1  0.00000000  0.50000000  0.32212000  1
  Mn  Mn0  1  0.50000000  0.50000000  0.66683600  1
  Mn  Mn1  1  0.50000000  0.00000000  0.16683600  1
  W  W0  1  0.50000000  0.00000000  0.67468000  1
  W  W1  1  0.50000000  0.50000000  0.17468000  1
loop_
_geom_bond_atom_site_label_1
_geom_bond_atom_site_label_2
_geom_bond_distance
_geom_bond_site_symmetry_2
Mg0 Mg1 2.927101 1_555
Mg0 Mg1 2.932891 1_565
Mg0 Mg8 3.012651 1_656
Mg0 Mg8 3.012651 1_556
Mg0 Mn1 3.024628 1_566
Mg0 Mg5 3.045306 1_565
Mg0 Mg5 3.045306 1_665
Mg0 Mg4 3.055209 1_555
Mg0 Mg4 3.055209 1_655
Mg0 W0 3.058477 1_565
Mg0 W1 3.097821 1_556
Mg0 Mn0 3.131927 1_555
Mg1 Mg9 3.012651 1_556
Mg1 Mg9 3.012651 1_656
Mg1 Mn1 3.024628 1_556
Mg1 Mg5 3.045306 1_555
Mg1 Mg5 3.045306 1_655
Mg1 Mg4 3.055209 1_655
Mg1 Mg4 3.055209 1_555
Mg1 W0 3.058477 1_555
Mg1 W1 3.097821 1_556
Mg1 Mn0 3.131927 1_555
Mg2 Mg3 2.852961 1_545
Mg2 Mg5 2.927650 1_555
Mg2 Mg4 2.939071 1_555
Mg2 W0 2.982863 1_455
Mg2 W0 2.982863 1_555
Mg2 Mn0 2.994546 1_455
Mg2 Mn0 2.994546 1_555
Mg2 Mg3 3.007031 1_555
Mg2 Mg6 3.012651 1_455
Mg2 Mg6 3.012651 1_555
Mg3 Mg5 2.927650 1_565
Mg3 Mg4 2.939071 1_555
Mg3 W0 2.982863 1_565
Mg3 W0 2.982863 1_465
Mg3 Mn0 2.994546 1_455
Mg3 Mn0 2.994546 1_555
Mg3 Mg7 3.012651 1_555
Mg3 Mg7 3.012651 1_455
Mg4 Mg5 2.930162 1_555
Mg4 Mg5 2.930162 1_565
Mg4 Mn0 2.943524 1_455
Mg4 Mn0 2.943524 1_555
Mg4 Mg8 3.221894 1_556
Mg4 Mg9 3.221894 1_556
Mg5 W0 2.913751 1_455
Mg5 W0 2.913751 1_555
Mg5 Mg9 3.229064 1_556
Mg5 Mg8 3.229064 1_546
Mg6 Mg7 2.927101 1_545
Mg6 Mg7 2.932891 1_555
Mg6 Mn0 3.024628 1_555
Mg6 W1 3.058477 1_555
Mg6 W0 3.097821 1_555
Mg6 Mn1 3.131927 1_555
Mg7 Mn0 3.024628 1_555
Mg7 W1 3.058477 1_555
Mg7 W0 3.097821 1_565
Mg7 Mn1 3.131927 1_565
Mg8 Mg9 2.852961 1_555
Mg8 W1 2.982863 1_455
Mg8 W1 2.982863 1_555
Mg8 Mn1 2.994546 1_465
Mg8 Mn1 2.994546 1_565
Mg8 Mg9 3.007031 1_565
Mg9 W1 2.982863 1_455
Mg9 W1 2.982863 1_555
Mg9 Mn1 2.994546 1_455
Mg9 Mn1 2.994546 1_555
Mg10 Mg11 2.930162 1_545
Mg10 Mg11 2.930162 1_555
Mg10 Mg8 2.939071 1_545
Mg10 Mg9 2.939071 1_555
Mg10 Mn1 2.943524 1_455
Mg10 Mn1 2.943524 1_555
Mg10 Mg6 3.055209 1_455
Mg10 Mg7 3.055209 1_445
Mg10 Mg6 3.055209 1_555
Mg10 Mg7 3.055209 1_545
Mg10 Mg2 3.221894 1_555
Mg10 Mg3 3.221894 1_545
Mg11 W1 2.913751 1_555
Mg11 W1 2.913751 1_455
Mg11 Mg9 2.927650 1_555
Mg11 Mg8 2.927650 1_555
Mg11 Mg6 3.045306 1_555
Mg11 Mg7 3.045306 1_455
Mg11 Mg7 3.045306 1_555
Mg11 Mg6 3.045306 1_455
Mg11 Mg3 3.229064 1_555
Mg11 Mg2 3.229064 1_555
Mn0 W0 2.931227 1_555
Mn0 W0 2.931227 1_565
Mn1 W1 2.931227 1_545
Mn1 W1 2.931227 1_555
