# generated using pymatgen
data_CoHCO4
_symmetry_space_group_name_H-M   'P 1'
_cell_length_a   10.22236048
_cell_length_b   10.22236048
_cell_length_c   6.19829600
_cell_angle_alpha   90.00000000
_cell_angle_beta   90.00000000
_cell_angle_gamma   120.00000310
_symmetry_Int_Tables_number   1
_chemical_formula_structural   CoHCO4
_chemical_formula_sum   'Co6 H6 C6 O24'
_cell_volume   560.92566799
_cell_formula_units_Z   6
loop_
 _symmetry_equiv_pos_site_id
 _symmetry_equiv_pos_as_xyz
  1  'x, y, z'
loop_
 _atom_site_type_symbol
 _atom_site_label
 _atom_site_symmetry_multiplicity
 _atom_site_fract_x
 _atom_site_fract_y
 _atom_site_fract_z
 _atom_site_occupancy
  Co  Co0  1  0.00000000  0.50000000  0.50000000  1
  Co  Co1  1  0.00000000  0.50000000  0.00000000  1
  Co  Co2  1  0.50000000  0.50000000  0.50000000  1
  Co  Co3  1  0.50000000  0.50000000  0.00000000  1
  Co  Co4  1  0.50000000  0.00000000  0.50000000  1
  Co  Co5  1  0.50000000  0.00000000  0.00000000  1
  H  H0  1  0.19010800  0.63971000  0.75000000  1
  H  H1  1  0.44960300  0.80989200  0.75000000  1
  H  H2  1  0.36029000  0.55039700  0.75000000  1
  H  H3  1  0.63971000  0.44960300  0.25000000  1
  H  H4  1  0.55039700  0.19010800  0.25000000  1
  H  H5  1  0.80989200  0.36029000  0.25000000  1
  C  C0  1  0.20181200  0.76374000  0.25000000  1
  C  C1  1  0.23626000  0.43807300  0.25000000  1
  C  C2  1  0.56192700  0.79818800  0.25000000  1
  C  C3  1  0.43807300  0.20181200  0.75000000  1
  C  C4  1  0.76374000  0.56192700  0.75000000  1
  C  C5  1  0.79818800  0.23626000  0.75000000  1
  O  O0  1  0.14496800  0.70328600  0.43505100  1
  O  O1  1  0.14496800  0.70328600  0.06494900  1
  O  O2  1  0.32309800  0.89411500  0.25000000  1
  O  O3  1  0.12175600  0.52898000  0.75000000  1
  O  O4  1  0.10588500  0.42898400  0.25000000  1
  O  O5  1  0.40722400  0.87824400  0.75000000  1
  O  O6  1  0.29671400  0.44168100  0.43505100  1
  O  O7  1  0.29671400  0.44168100  0.06494900  1
  O  O8  1  0.55831900  0.85503200  0.06494900  1
  O  O9  1  0.55831900  0.85503200  0.43505100  1
  O  O10  1  0.47102000  0.59277600  0.75000000  1
  O  O11  1  0.57101600  0.67690200  0.25000000  1
  O  O12  1  0.42898400  0.32309800  0.75000000  1
  O  O13  1  0.52898000  0.40722400  0.25000000  1
  O  O14  1  0.44168100  0.14496800  0.56494900  1
  O  O15  1  0.44168100  0.14496800  0.93505100  1
  O  O16  1  0.70328600  0.55831900  0.93505100  1
  O  O17  1  0.70328600  0.55831900  0.56494900  1
  O  O18  1  0.59277600  0.12175600  0.25000000  1
  O  O19  1  0.89411500  0.57101600  0.75000000  1
  O  O20  1  0.87824400  0.47102000  0.25000000  1
  O  O21  1  0.67690200  0.10588500  0.75000000  1
  O  O22  1  0.85503200  0.29671400  0.93505100  1
  O  O23  1  0.85503200  0.29671400  0.56494900  1
loop_
_geom_bond_atom_site_label_1
_geom_bond_atom_site_label_2
_geom_bond_distance
_geom_bond_site_symmetry_2
Co0 O0 1.896568 1_555
Co0 O23 1.896568 1_455
Co0 O20 1.915552 1_455
Co0 O3 1.915552 1_555
Co0 O19 2.210323 1_455
Co0 O4 2.210323 1_555
Co1 O1 1.896568 1_555
Co1 O22 1.896568 1_454
Co1 O20 1.915552 1_455
Co1 O3 1.915552 1_554
Co1 O19 2.210323 1_454
Co1 O4 2.210323 1_555
Co2 O17 1.896565 1_555
Co2 O6 1.896565 1_555
Co2 O10 1.915552 1_555
Co2 O13 1.915552 1_555
Co2 O12 2.210330 1_555
Co2 O11 2.210330 1_555
Co3 O16 1.896565 1_554
Co3 O7 1.896565 1_555
Co3 O10 1.915552 1_554
Co3 O13 1.915552 1_555
Co3 O12 2.210330 1_554
Co3 O11 2.210330 1_555
Co4 O9 1.896575 1_545
Co4 O14 1.896575 1_555
Co4 O5 1.915552 1_545
Co4 O18 1.915552 1_555
Co4 O21 2.210329 1_555
Co4 O2 2.210329 1_545
Co5 O8 1.896575 1_545
Co5 O15 1.896575 1_554
Co5 O18 1.915552 1_555
Co5 O5 1.915552 1_544
Co5 O2 2.210329 1_545
Co5 O21 2.210329 1_554
H0 O3 0.989222 1_555
H1 O5 0.989230 1_555
H2 O10 0.989221 1_555
H3 O13 0.989221 1_555
H4 O18 0.989230 1_555
H5 O20 0.989222 1_555
C0 O2 1.288799 1_555
C0 O1 1.294631 1_555
C0 O0 1.294631 1_555
C1 O4 1.288799 1_555
C1 O7 1.294636 1_555
C1 O6 1.294636 1_555
C2 O11 1.288799 1_555
C2 O8 1.294626 1_555
C2 O9 1.294626 1_555
C3 O12 1.288799 1_555
C3 O15 1.294626 1_555
C3 O14 1.294626 1_555
C4 O19 1.288799 1_555
C4 O17 1.294636 1_555
C4 O16 1.294636 1_555
C5 O21 1.288799 1_555
C5 O23 1.294631 1_555
C5 O22 1.294631 1_555
