# generated using pymatgen
data_SmAsPt
_symmetry_space_group_name_H-M   'P 1'
_cell_length_a   4.30017127
_cell_length_b   4.30017127
_cell_length_c   15.77443672
_cell_angle_alpha   90.00000000
_cell_angle_beta   90.00000000
_cell_angle_gamma   120.00000047
_symmetry_Int_Tables_number   1
_chemical_formula_structural   SmAsPt
_chemical_formula_sum   'Sm4 As4 Pt4'
_cell_volume   252.61317454
_cell_formula_units_Z   4
loop_
 _symmetry_equiv_pos_site_id
 _symmetry_equiv_pos_as_xyz
  1  'x, y, z'
loop_
 _atom_site_type_symbol
 _atom_site_label
 _atom_site_symmetry_multiplicity
 _atom_site_fract_x
 _atom_site_fract_y
 _atom_site_fract_z
 _atom_site_occupancy
  Sm  Sm0  1  -0.00000000  0.00000000  0.50000000  1
  Sm  Sm1  1  -0.00000000  0.00000000  -0.00000000  1
  Sm  Sm2  1  -0.00000000  0.00000000  0.25000000  1
  Sm  Sm3  1  -0.00000000  0.00000000  0.75000000  1
  As  As0  1  0.33333300  0.66666700  0.88151677  1
  As  As1  1  0.66666700  0.33333300  0.11848323  1
  As  As2  1  0.66666700  0.33333300  0.38151677  1
  As  As3  1  0.33333300  0.66666700  0.61848323  1
  Pt  Pt0  1  0.33333300  0.66666700  0.36721358  1
  Pt  Pt1  1  0.66666700  0.33333300  0.63278642  1
  Pt  Pt2  1  0.66666700  0.33333300  0.86721358  1
  Pt  Pt3  1  0.33333300  0.66666700  0.13278642  1
loop_
_geom_bond_atom_site_label_1
_geom_bond_atom_site_label_2
_geom_bond_distance
_geom_bond_site_symmetry_2
As0 Pt2 2.492934 1_455
As0 Pt2 2.492934 1_565
As0 Pt2 2.492941 1_555
As0 Sm1 3.107571 1_566
As0 Sm1 3.107574 1_556
As0 Sm1 3.107574 1_666
As0 Sm3 3.235396 1_565
As0 Sm3 3.235399 1_555
As0 Sm3 3.235399 1_665
As1 Pt3 2.492934 1_545
As1 Pt3 2.492934 1_655
As1 Pt3 2.492941 1_555
As1 Sm1 3.107571 1_655
As1 Sm1 3.107574 1_665
As1 Sm1 3.107574 1_555
As1 Sm2 3.235396 1_655
As1 Sm2 3.235399 1_555
As1 Sm2 3.235399 1_665
As2 Pt0 2.492934 1_545
As2 Pt0 2.492934 1_655
As2 Pt0 2.492941 1_555
As2 Sm0 3.107571 1_655
As2 Sm0 3.107574 1_555
As2 Sm0 3.107574 1_665
As2 Sm2 3.235396 1_655
As2 Sm2 3.235399 1_555
As2 Sm2 3.235399 1_665
As3 Pt1 2.492934 1_565
As3 Pt1 2.492934 1_455
As3 Pt1 2.492941 1_555
As3 Sm0 3.107571 1_565
As3 Sm0 3.107574 1_665
As3 Sm0 3.107574 1_555
As3 Sm3 3.235396 1_565
As3 Sm3 3.235399 1_665
As3 Sm3 3.235399 1_555
Pt0 Sm2 3.095567 1_565
Pt0 Sm2 3.095570 1_665
Pt0 Sm2 3.095570 1_555
Pt0 Sm0 3.248275 1_565
Pt0 Sm0 3.248278 1_555
Pt0 Sm0 3.248278 1_665
Pt1 Sm3 3.095567 1_655
Pt1 Sm3 3.095570 1_555
Pt1 Sm3 3.095570 1_665
Pt1 Sm0 3.248275 1_655
Pt1 Sm0 3.248278 1_555
Pt1 Sm0 3.248278 1_665
Pt2 Sm3 3.095567 1_655
Pt2 Sm3 3.095570 1_555
Pt2 Sm3 3.095570 1_665
Pt2 Sm1 3.248275 1_656
Pt2 Sm1 3.248278 1_666
Pt2 Sm1 3.248278 1_556
Pt3 Sm2 3.095567 1_565
Pt3 Sm2 3.095570 1_665
Pt3 Sm2 3.095570 1_555
Pt3 Sm1 3.248275 1_565
Pt3 Sm1 3.248278 1_665
Pt3 Sm1 3.248278 1_555
