# generated using pymatgen
data_USeS
_symmetry_space_group_name_H-M   'P 1'
_cell_length_a   4.14817279
_cell_length_b   7.37520482
_cell_length_c   8.68891950
_cell_angle_alpha   89.99824023
_cell_angle_beta   90.00000000
_cell_angle_gamma   90.00000000
_symmetry_Int_Tables_number   1
_chemical_formula_structural   USeS
_chemical_formula_sum   'U4 Se4 S4'
_cell_volume   265.82553570
_cell_formula_units_Z   4
loop_
 _symmetry_equiv_pos_site_id
 _symmetry_equiv_pos_as_xyz
  1  'x, y, z'
loop_
 _atom_site_type_symbol
 _atom_site_label
 _atom_site_symmetry_multiplicity
 _atom_site_fract_x
 _atom_site_fract_y
 _atom_site_fract_z
 _atom_site_occupancy
  U  U0  1  0.25000000  0.72861969  0.37408862  1
  U  U1  1  0.75000000  0.27136030  0.62589472  1
  U  U2  1  0.25000000  0.22862844  0.12590190  1
  U  U3  1  0.75000000  0.77138602  0.87410265  1
  Se  Se0  1  0.75000000  0.53303390  0.16212328  1
  Se  Se1  1  0.25000000  0.46695905  0.83793243  1
  Se  Se2  1  0.75000000  0.03307759  0.33790519  1
  Se  Se3  1  0.25000000  0.96694262  0.66207416  1
  S  S0  1  0.25000000  0.35809900  0.42883818  1
  S  S1  1  0.75000000  0.64188479  0.57115204  1
  S  S2  1  0.25000000  0.85811819  0.07113804  1
  S  S3  1  0.75000000  0.14189140  0.92884980  1
loop_
_geom_bond_atom_site_label_1
_geom_bond_atom_site_label_2
_geom_bond_distance
_geom_bond_site_symmetry_2
Se0 U3 3.058247 1_554
Se0 U2 3.072652 1_555
Se0 U2 3.072652 1_655
Se0 U0 3.126468 1_655
Se0 U0 3.126468 1_555
Se1 U2 3.057792 1_556
Se1 U3 3.072722 1_455
Se1 U3 3.072722 1_555
Se1 U1 3.126883 1_555
Se1 U1 3.126883 1_455
Se2 U1 3.057820 1_555
Se2 U0 3.072887 1_545
Se2 U0 3.072887 1_645
Se2 U2 3.126491 1_655
Se2 U2 3.126491 1_555
Se3 U0 3.057962 1_555
Se3 U1 3.072666 1_565
Se3 U1 3.072666 1_465
Se3 U3 3.126640 1_455
Se3 U3 3.126640 1_555
S0 U1 2.764536 1_555
S0 U1 2.764536 1_455
S0 U0 2.773750 1_555
S0 U2 2.800063 1_555
S1 U0 2.764567 1_655
S1 U0 2.764567 1_555
S1 U1 2.773767 1_555
S1 U3 2.800257 1_555
S2 U3 2.764436 1_454
S2 U3 2.764436 1_554
S2 U2 2.773724 1_565
S2 U0 2.800195 1_555
S3 U2 2.764534 1_656
S3 U2 2.764534 1_556
S3 U3 2.773664 1_545
S3 U1 2.800157 1_555
