# generated using pymatgen
data_Nb9PO25
_symmetry_space_group_name_H-M   'P 1'
_cell_length_a   11.33461543
_cell_length_b   11.33461640
_cell_length_c   11.33459523
_cell_angle_alpha   91.66133903
_cell_angle_beta   91.66124240
_cell_angle_gamma   160.39335009
_symmetry_Int_Tables_number   1
_chemical_formula_structural   Nb9PO25
_chemical_formula_sum   'Nb9 P1 O25'
_cell_volume   481.50698422
_cell_formula_units_Z   1
loop_
 _symmetry_equiv_pos_site_id
 _symmetry_equiv_pos_as_xyz
  1  'x, y, z'
loop_
 _atom_site_type_symbol
 _atom_site_label
 _atom_site_symmetry_multiplicity
 _atom_site_fract_x
 _atom_site_fract_y
 _atom_site_fract_z
 _atom_site_occupancy
  Nb  Nb0  1  0.89048124  0.67335037  0.55735869  1
  Nb  Nb1  1  0.11599428  0.33312447  0.44264232  1
  Nb  Nb2  1  0.66687871  0.10951939  0.78287008  1
  Nb  Nb3  1  0.11720129  0.78915308  0.89147929  1
  Nb  Nb4  1  0.77428508  0.88280485  0.67194880  1
  Nb  Nb5  1  0.21085092  0.10233072  0.32804995  1
  Nb  Nb6  1  0.89766996  0.22572173  0.10852059  1
  Nb  Nb7  1  -0.00004873  0.99995204  0.00000040  1
  Nb  Nb8  1  0.32664656  0.88400617  0.21712856  1
  P  P0  1  0.75000291  0.25000293  0.50000235  1
  O  O0  1  0.34622785  0.14516941  0.51014250  1
  O  O1  1  0.16391498  0.65377234  0.79894140  1
  O  O2  1  0.85483012  0.36497240  0.20105862  1
  O  O3  1  0.63502970  0.83608851  0.48985664  1
  O  O4  1  0.48222638  0.96824125  0.38583428  1
  O  O5  1  0.90360980  0.51777278  0.48601677  1
  O  O6  1  0.03175908  0.41759540  0.51398502  1
  O  O7  1  0.58240392  0.09638728  0.61416213  1
  O  O8  1  0.26992179  0.97973260  0.26987839  1
  O  O9  1  -0.00004855  0.73007545  0.70981150  1
  O  O10  1  0.50000434  0.50000550  -0.00000064  1
  O  O11  1  0.62222593  0.25669989  0.86029936  1
  O  O12  1  0.23808220  0.37778365  0.63447307  1
  O  O13  1  0.74330150  0.60360031  0.36552646  1
  O  O14  1  0.39639576  0.76192281  0.13970209  1
  O  O15  1  0.94858831  0.11798631  0.06209034  1
  O  O16  1  0.11351081  0.05142145  0.16939913  1
  O  O17  1  0.88202703  0.94411612  0.83060123  1
  O  O18  1  0.05589627  0.88649853  0.93791130  1
  O  O19  1  0.79763092  0.19409317  0.95465617  1
  O  O20  1  0.15702034  0.20236465  0.39646436  1
  O  O21  1  0.80590532  0.76056030  0.60353506  1
  O  O22  1  0.23944512  0.84298272  0.04534513  1
  O  O23  1  0.70986605  0.00005441  0.73012201  1
  O  O24  1  0.02025880  0.29013602  0.29018768  1
loop_
_geom_bond_atom_site_label_1
_geom_bond_atom_site_label_2
_geom_bond_distance
_geom_bond_site_symmetry_2
Nb0 O9 1.801985 1_655
Nb0 O0 1.961988 1_665
Nb0 O21 1.988579 1_555
Nb0 O5 2.050447 1_555
Nb0 O0 2.055504 1_555
Nb0 O13 2.311051 1_555
Nb1 O24 1.802011 1_555
Nb1 O3 1.961987 1_555
Nb1 O20 1.988585 1_555
Nb1 O6 2.050450 1_555
Nb1 O3 2.055493 1_445
Nb1 O12 2.311031 1_555
Nb2 O23 1.801992 1_555
Nb2 O1 1.961989 1_545
Nb2 O19 1.988584 1_555
Nb2 O7 2.050467 1_555
Nb2 O1 2.055505 1_655
Nb2 O11 2.311063 1_555
Nb3 O18 1.846423 1_555
Nb3 O22 1.881252 1_556
Nb3 O11 1.998287 1_455
Nb3 O11 2.012223 1_565
Nb3 O9 2.130577 1_555
Nb3 O1 2.281399 1_555
Nb4 O17 1.846438 1_555
Nb4 O21 1.881241 1_555
Nb4 O12 1.998291 1_665
Nb4 O12 2.012215 1_555
Nb4 O23 2.130591 1_565
Nb4 O3 2.281381 1_555
Nb5 O16 1.846421 1_555
Nb5 O20 1.881241 1_555
Nb5 O13 1.998276 1_555
Nb5 O13 2.012231 1_445
Nb5 O8 2.130590 1_545
Nb5 O0 2.281381 1_555
Nb6 O15 1.846453 1_555
Nb6 O19 1.881220 1_554
Nb6 O14 1.998295 1_545
Nb6 O14 2.012208 1_655
Nb6 O24 2.130577 1_655
Nb6 O2 2.281360 1_555
Nb7 O10 1.929700 1_455
Nb7 O10 1.930115 1_565
Nb7 O15 2.015124 1_465
Nb7 O18 2.015134 1_554
Nb7 O17 2.015135 1_454
Nb7 O16 2.015137 1_565
Nb8 O8 1.801987 1_555
Nb8 O2 1.961986 1_455
Nb8 O22 1.988556 1_555
Nb8 O4 2.050454 1_555
Nb8 O2 2.055509 1_565
Nb8 O14 2.311043 1_555
O4 P0 1.535053 1_565
O5 P0 1.535001 1_555
O6 P0 1.535008 1_455
O7 P0 1.534980 1_555
