# generated using pymatgen
data_Si2W
_symmetry_space_group_name_H-M   'P 1'
_cell_length_a   3.21473396
_cell_length_b   3.21473271
_cell_length_c   4.51500845
_cell_angle_alpha   110.85505151
_cell_angle_beta   110.85505705
_cell_angle_gamma   90.00001674
_symmetry_Int_Tables_number   1
_chemical_formula_structural   Si2W
_chemical_formula_sum   'Si2 W1'
_cell_volume   40.31525502
_cell_formula_units_Z   1
loop_
 _symmetry_equiv_pos_site_id
 _symmetry_equiv_pos_as_xyz
  1  'x, y, z'
loop_
 _atom_site_type_symbol
 _atom_site_label
 _atom_site_symmetry_multiplicity
 _atom_site_fract_x
 _atom_site_fract_y
 _atom_site_fract_z
 _atom_site_occupancy
  Si  Si0  1  0.33498935  0.33498935  0.66997969  1
  Si  Si1  1  0.66501065  0.66501065  0.33002031  1
  W  W0  1  0.00000000  -0.00000000  -0.00000000  1
loop_
_geom_bond_atom_site_label_1
_geom_bond_atom_site_label_2
_geom_bond_distance
_geom_bond_site_symmetry_2
Si0 Si1 2.574840 1_556
Si0 W0 2.612411 1_556
Si0 W0 2.612414 1_566
Si0 W0 2.612414 1_656
Si0 W0 2.612415 1_666
Si0 W0 2.613612 1_555
Si0 Si1 2.631733 1_445
Si0 Si1 2.631738 1_545
Si0 Si1 2.631738 1_455
Si0 Si1 2.631741 1_555
Si1 W0 2.612411 1_665
Si1 W0 2.612414 1_655
Si1 W0 2.612414 1_565
Si1 W0 2.612415 1_555
Si1 W0 2.613612 1_666
