# generated using pymatgen
data_Li7Mn4CoO12
_symmetry_space_group_name_H-M   'P 1'
_cell_length_a   2.98975689
_cell_length_b   5.07989333
_cell_length_c   14.74016432
_cell_angle_alpha   98.07098141
_cell_angle_beta   86.44731229
_cell_angle_gamma   93.34291235
_symmetry_Int_Tables_number   1
_chemical_formula_structural   Li7Mn4CoO12
_chemical_formula_sum   'Li7 Mn4 Co1 O12'
_cell_volume   220.94602403
_cell_formula_units_Z   1
loop_
 _symmetry_equiv_pos_site_id
 _symmetry_equiv_pos_as_xyz
  1  'x, y, z'
loop_
 _atom_site_type_symbol
 _atom_site_label
 _atom_site_symmetry_multiplicity
 _atom_site_fract_x
 _atom_site_fract_y
 _atom_site_fract_z
 _atom_site_occupancy
  Li  Li0  1  0.91473900  0.42420200  0.15537100  1
  Li  Li1  1  0.24697200  0.75392500  0.50017700  1
  Li  Li2  1  0.57369800  0.09205100  0.84033300  1
  Li  Li3  1  0.42625800  0.90884400  0.15812100  1
  Li  Li4  1  0.74953000  0.24795400  0.50161900  1
  Li  Li5  1  0.08695700  0.57296100  0.84519200  1
  Li  Li6  1  0.49992700  0.50014100  0.00002800  1
  Mn  Mn0  1  0.99997200  0.99977700  0.99940300  1
  Mn  Mn1  1  0.83743600  0.83217500  0.33256300  1
  Mn  Mn2  1  0.33709900  0.33242800  0.33325100  1
  Mn  Mn3  1  0.66277000  0.66764900  0.66734700  1
  Co  Co0  1  0.16379500  0.16779700  0.66756800  1
  O  O0  1  0.49187900  0.18141200  0.07188500  1
  O  O1  1  0.76600600  0.54960900  0.41225500  1
  O  O2  1  0.11393800  0.87719000  0.74004300  1
  O  O3  1  0.95356700  0.73046200  0.07843000  1
  O  O4  1  0.26348700  0.04891200  0.41229700  1
  O  O5  1  0.59798900  0.37532200  0.74159700  1
  O  O6  1  0.40182700  0.61703400  0.25588300  1
  O  O7  1  0.73659300  0.95748700  0.59082900  1
  O  O8  1  0.04658100  0.26964400  0.92044800  1
  O  O9  1  0.89778300  0.12225500  0.25776800  1
  O  O10  1  0.22203300  0.45315000  0.59098300  1
  O  O11  1  0.50916500  0.81761700  0.92660900  1
loop_
_geom_bond_atom_site_label_1
_geom_bond_atom_site_label_2
_geom_bond_distance
_geom_bond_site_symmetry_2
Li0 O3 2.044064 1_555
Li0 O0 2.053928 1_555
Li0 O6 2.229085 1_655
Li0 O6 2.234333 1_555
Li0 O9 2.294550 1_555
Li0 O0 2.360454 1_655
Li1 O4 2.110551 1_565
Li1 O1 2.122211 1_455
Li1 O7 2.162300 1_555
Li1 O10 2.163384 1_555
Li1 O1 2.173878 1_555
Li1 O7 2.174060 1_455
Li2 O8 1.991553 1_655
Li2 O11 2.008496 1_545
Li2 O8 2.080399 1_555
Li2 O5 2.181029 1_555
Li2 O2 2.211309 1_545
Li2 O2 2.332829 1_645
Li3 O3 1.988886 1_455
Li3 O0 2.000765 1_565
Li3 O3 2.079565 1_555
Li3 O6 2.203055 1_555
Li3 O9 2.225159 1_565
Li3 O9 2.300902 1_465
Li4 O7 2.107069 1_545
Li4 O10 2.119111 1_655
Li4 O4 2.135282 1_555
Li4 O1 2.153061 1_555
Li4 O4 2.161862 1_655
Li4 O10 2.203991 1_555
Li5 O8 2.015159 1_555
Li5 O11 2.040643 1_555
Li5 O5 2.265692 1_555
Li5 O5 2.269773 1_455
Li5 O2 2.332322 1_555
Li5 O11 2.354486 1_455
Li6 O3 2.042902 1_555
Li6 O8 2.051917 1_554
Li6 O0 2.053732 1_555
Li6 O11 2.062539 1_554
Li6 O3 2.232037 1_455
Li6 O8 2.240097 1_654
Mn0 O3 1.911329 1_556
Mn0 O8 1.912813 1_665
Mn0 O0 1.978735 1_666
Mn0 O11 1.979599 1_555
Mn0 O0 1.996477 1_566
Mn0 O11 2.002056 1_655
Mn1 O9 1.954480 1_565
Mn1 O6 1.958997 1_555
Mn1 O4 1.968420 1_665
Mn1 O1 1.972936 1_555
Mn1 O6 2.225100 1_655
Mn1 O4 2.268281 1_565
Mn2 O9 1.946020 1_455
Mn2 O6 1.957356 1_555
Mn2 O1 1.969007 1_555
Mn2 O4 1.970467 1_555
Mn2 O9 2.198150 1_555
Mn2 O1 2.258567 1_455
Mn3 O2 1.947345 1_655
Mn3 O5 1.958852 1_555
Mn3 O10 1.965351 1_555
Mn3 O7 1.971346 1_555
Mn3 O2 2.153890 1_555
Mn3 O10 2.210186 1_655
Co0 O5 1.918373 1_555
Co0 O7 1.932036 1_445
Co0 O2 1.933968 1_545
Co0 O10 1.952334 1_555
Co0 O5 2.195414 1_455
Co0 O7 2.233289 1_545
