# generated using pymatgen
data_La2SbAu3
_symmetry_space_group_name_H-M   'P 1'
_cell_length_a   3.98289300
_cell_length_b   4.66031100
_cell_length_c   8.46835400
_cell_angle_alpha   90.00000000
_cell_angle_beta   90.00000000
_cell_angle_gamma   90.00000000
_symmetry_Int_Tables_number   1
_chemical_formula_structural   La2SbAu3
_chemical_formula_sum   'La2 Sb1 Au3'
_cell_volume   157.18552264
_cell_formula_units_Z   1
loop_
 _symmetry_equiv_pos_site_id
 _symmetry_equiv_pos_as_xyz
  1  'x, y, z'
loop_
 _atom_site_type_symbol
 _atom_site_label
 _atom_site_symmetry_multiplicity
 _atom_site_fract_x
 _atom_site_fract_y
 _atom_site_fract_z
 _atom_site_occupancy
  La  La0  1  0.00000000  0.00000000  0.99135200  1
  La  La1  1  0.00000000  0.50000000  0.50954900  1
  Sb  Sb0  1  0.50000000  0.00000000  0.33593900  1
  Au  Au0  1  0.50000000  0.50000000  0.83622200  1
  Au  Au1  1  0.50000000  0.50000000  0.16067000  1
  Au  Au2  1  0.50000000  0.00000000  0.66626800  1
loop_
_geom_bond_atom_site_label_1
_geom_bond_atom_site_label_2
_geom_bond_distance
_geom_bond_site_symmetry_2
La0 Sb0 3.532857 1_456
La0 Sb0 3.532857 1_556
La1 Sb0 3.399551 1_565
La1 Sb0 3.399551 1_465
La1 Sb0 3.399551 1_455
La1 Sb0 3.399551 1_555
Au0 Au2 2.738797 1_565
Au0 Au2 2.738797 1_555
Au0 Au1 2.747541 1_556
Au0 La0 3.334858 1_555
Au0 La0 3.334858 1_565
Au0 La0 3.334858 1_655
Au0 La0 3.334858 1_665
Au0 La1 3.408626 1_555
Au0 La1 3.408626 1_655
Au1 Sb0 2.762715 1_565
Au1 Sb0 2.762715 1_555
Au1 La0 3.383991 1_564
Au1 La0 3.383991 1_664
Au1 La0 3.383991 1_654
Au1 La0 3.383991 1_554
Au1 La1 3.562937 1_555
Au1 La1 3.562937 1_655
Au2 Sb0 2.797343 1_555
Au2 La1 3.340182 1_645
Au2 La1 3.340182 1_555
Au2 La1 3.340182 1_545
Au2 La1 3.340182 1_655
Au2 La0 3.397714 1_555
Au2 La0 3.397714 1_655
