# generated using pymatgen
data_TbAl2Ni
_symmetry_space_group_name_H-M   'P 1'
_cell_length_a   4.02016769
_cell_length_b   5.54402931
_cell_length_c   6.85245706
_cell_angle_alpha   90.00000000
_cell_angle_beta   90.00000000
_cell_angle_gamma   111.25795924
_symmetry_Int_Tables_number   1
_chemical_formula_structural   TbAl2Ni
_chemical_formula_sum   'Tb2 Al4 Ni2'
_cell_volume   142.33513669
_cell_formula_units_Z   2
loop_
 _symmetry_equiv_pos_site_id
 _symmetry_equiv_pos_as_xyz
  1  'x, y, z'
loop_
 _atom_site_type_symbol
 _atom_site_label
 _atom_site_symmetry_multiplicity
 _atom_site_fract_x
 _atom_site_fract_y
 _atom_site_fract_z
 _atom_site_occupancy
  Tb  Tb0  1  0.05846924  0.11693749  0.75000000  1
  Tb  Tb1  1  0.94153076  0.88306251  0.25000000  1
  Al  Al0  1  0.33751228  0.67502356  0.94459806  1
  Al  Al1  1  0.66248772  0.32497644  0.05540194  1
  Al  Al2  1  0.66248772  0.32497644  0.44459806  1
  Al  Al3  1  0.33751228  0.67502356  0.55540194  1
  Ni  Ni0  1  0.78372232  0.56744463  0.75000000  1
  Ni  Ni1  1  0.21627768  0.43255537  0.25000000  1
loop_
_geom_bond_atom_site_label_1
_geom_bond_atom_site_label_2
_geom_bond_distance
_geom_bond_site_symmetry_2
Tb0 Tb1 3.633075 1_445
Tb0 Tb1 3.633075 1_446
Al0 Ni1 2.439075 1_556
Al0 Ni0 2.475387 1_555
Al0 Ni0 2.475390 1_455
Al0 Al3 2.666950 1_555
Al0 Al1 2.808566 1_556
Al0 Al1 2.808572 1_456
Al0 Tb1 3.094421 1_556
Al0 Tb1 3.094426 1_456
Al0 Tb0 3.176923 1_555
Al0 Tb0 3.321440 1_665
Al0 Tb0 3.321440 1_565
Al1 Ni0 2.439075 1_554
Al1 Ni1 2.475387 1_555
Al1 Ni1 2.475390 1_655
Al1 Al2 2.666950 1_555
Al1 Tb0 3.094421 1_554
Al1 Tb0 3.094426 1_654
Al1 Tb1 3.176923 1_555
Al1 Tb1 3.321440 1_445
Al1 Tb1 3.321440 1_545
Al2 Ni0 2.439075 1_555
Al2 Ni1 2.475387 1_555
Al2 Ni1 2.475390 1_655
Al2 Al3 2.808566 1_555
Al2 Al3 2.808572 1_655
Al2 Tb0 3.094421 1_555
Al2 Tb0 3.094426 1_655
Al2 Tb1 3.176923 1_555
Al2 Tb1 3.321440 1_445
Al2 Tb1 3.321440 1_545
Al3 Ni1 2.439075 1_555
Al3 Ni0 2.475387 1_555
Al3 Ni0 2.475390 1_455
Al3 Tb1 3.094421 1_555
Al3 Tb1 3.094426 1_455
Al3 Tb0 3.176923 1_555
Al3 Tb0 3.321440 1_665
Al3 Tb0 3.321440 1_565
Ni0 Tb0 2.839120 1_665
Ni0 Tb0 3.075471 1_555
Ni0 Tb0 3.075474 1_655
Ni1 Tb1 2.839120 1_445
Ni1 Tb1 3.075471 1_555
Ni1 Tb1 3.075474 1_455
