# generated using pymatgen
data_Al2S3
_symmetry_space_group_name_H-M   'P 1'
_cell_length_a   6.03393352
_cell_length_b   6.03393352
_cell_length_c   6.46875720
_cell_angle_alpha   62.19974616
_cell_angle_beta   62.19974616
_cell_angle_gamma   60.00001117
_symmetry_Int_Tables_number   1
_chemical_formula_structural   Al2S3
_chemical_formula_sum   'Al4 S6'
_cell_volume   171.85949016
_cell_formula_units_Z   2
loop_
 _symmetry_equiv_pos_site_id
 _symmetry_equiv_pos_as_xyz
  1  'x, y, z'
loop_
 _atom_site_type_symbol
 _atom_site_label
 _atom_site_symmetry_multiplicity
 _atom_site_fract_x
 _atom_site_fract_y
 _atom_site_fract_z
 _atom_site_occupancy
  Al  Al0  1  0.65148624  0.65148624  0.04553928  1
  Al  Al1  1  0.15148624  0.15148624  0.54554028  1
  Al  Al2  1  0.34851376  0.34851376  0.95445972  1
  Al  Al3  1  0.84851376  0.84851376  0.45446072  1
  S  S0  1  0.44330186  0.05669814  0.75000000  1
  S  S1  1  0.05669814  0.75000000  0.75000000  1
  S  S2  1  0.75000000  0.44330186  0.75000000  1
  S  S3  1  0.94330186  0.25000000  0.25000000  1
  S  S4  1  0.25000000  0.55669814  0.25000000  1
  S  S5  1  0.55669814  0.94330186  0.25000000  1
loop_
_geom_bond_atom_site_label_1
_geom_bond_atom_site_label_2
_geom_bond_distance
_geom_bond_site_symmetry_2
Al0 S4 2.374104 1_555
Al0 S3 2.374111 1_555
Al0 S5 2.374115 1_555
Al0 S2 2.453476 1_554
Al0 S0 2.453481 1_564
Al0 S1 2.453485 1_654
Al1 S1 2.374104 1_545
Al1 S2 2.374108 1_455
Al1 S0 2.374110 1_555
Al1 S3 2.453482 1_455
Al1 S5 2.453484 1_545
Al1 S4 2.453486 1_555
Al2 S2 2.374104 1_555
Al2 S1 2.374108 1_555
Al2 S0 2.374110 1_555
Al2 S4 2.453482 1_556
Al2 S5 2.453484 1_546
Al2 S3 2.453486 1_456
Al3 S3 2.374104 1_565
Al3 S4 2.374111 1_655
Al3 S5 2.374115 1_555
Al3 S1 2.453476 1_655
Al3 S0 2.453481 1_565
Al3 S2 2.453485 1_555
