# generated using pymatgen
data_BaNa(FeAs)4
_symmetry_space_group_name_H-M   'P 1'
_cell_length_a   6.96934908
_cell_length_b   6.96934908
_cell_length_c   5.46282100
_cell_angle_alpha   90.00000000
_cell_angle_beta   90.00000000
_cell_angle_gamma   133.88879631
_symmetry_Int_Tables_number   1
_chemical_formula_structural   BaNa(FeAs)4
_chemical_formula_sum   'Ba1 Na1 Fe4 As4'
_cell_volume   191.22642478
_cell_formula_units_Z   1
loop_
 _symmetry_equiv_pos_site_id
 _symmetry_equiv_pos_as_xyz
  1  'x, y, z'
loop_
 _atom_site_type_symbol
 _atom_site_label
 _atom_site_symmetry_multiplicity
 _atom_site_fract_x
 _atom_site_fract_y
 _atom_site_fract_z
 _atom_site_occupancy
  Ba  Ba0  1  0.50000000  0.50000000  0.50000000  1
  Na  Na0  1  0.00000000  0.00000000  0.00000000  1
  Fe  Fe0  1  0.50000000  0.00000000  0.75044400  1
  Fe  Fe1  1  0.00000000  0.50000000  0.24955600  1
  Fe  Fe2  1  0.00000000  0.50000000  0.75044400  1
  Fe  Fe3  1  0.50000000  0.00000000  0.24955600  1
  As  As0  1  0.35023800  0.64976200  0.00000000  1
  As  As1  1  0.85020900  0.14979100  0.50000000  1
  As  As2  1  0.14979100  0.85020900  0.50000000  1
  As  As3  1  0.64976200  0.35023800  0.00000000  1
loop_
_geom_bond_atom_site_label_1
_geom_bond_atom_site_label_2
_geom_bond_distance
_geom_bond_site_symmetry_2
As0 Fe1 2.318108 1_555
As0 Fe2 2.318108 1_554
As0 Fe3 2.318108 1_565
As0 Fe0 2.318108 1_564
As0 Na0 3.337472 1_665
As0 Na0 3.337472 1_555
As0 Ba0 3.339144 1_554
As0 Ba0 3.339144 1_555
As1 Fe1 2.320758 1_655
As1 Fe2 2.320758 1_655
As1 Fe3 2.320758 1_555
As1 Fe0 2.320758 1_555
As1 Ba0 3.337686 1_545
As1 Ba0 3.337686 1_655
As1 Na0 3.339358 1_656
As1 Na0 3.339358 1_655
As2 Fe0 2.320758 1_565
As2 Fe2 2.320758 1_555
As2 Fe3 2.320758 1_565
As2 Fe1 2.320758 1_555
As2 Ba0 3.337686 1_455
As2 Ba0 3.337686 1_565
As2 Na0 3.339358 1_566
As2 Na0 3.339358 1_565
As3 Fe3 2.318108 1_555
As3 Fe0 2.318108 1_554
As3 Fe1 2.318108 1_655
As3 Fe2 2.318108 1_654
As3 Na0 3.337472 1_555
As3 Na0 3.337472 1_665
As3 Ba0 3.339144 1_554
As3 Ba0 3.339144 1_555
