# generated using pymatgen
data_ZrCrCu
_symmetry_space_group_name_H-M   'P 1'
_cell_length_a   5.08374721
_cell_length_b   5.08374721
_cell_length_c   5.08374721
_cell_angle_alpha   124.36778300
_cell_angle_beta   119.37710014
_cell_angle_gamma   86.84378612
_symmetry_Int_Tables_number   1
_chemical_formula_structural   ZrCrCu
_chemical_formula_sum   'Zr2 Cr2 Cu2'
_cell_volume   89.89719536
_cell_formula_units_Z   2
loop_
 _symmetry_equiv_pos_site_id
 _symmetry_equiv_pos_as_xyz
  1  'x, y, z'
loop_
 _atom_site_type_symbol
 _atom_site_label
 _atom_site_symmetry_multiplicity
 _atom_site_fract_x
 _atom_site_fract_y
 _atom_site_fract_z
 _atom_site_occupancy
  Zr  Zr0  1  0.13286400  0.88286400  0.25000000  1
  Zr  Zr1  1  0.86713600  0.11713600  0.75000000  1
  Cr  Cr0  1  0.50000000  0.50000000  0.50000000  1
  Cr  Cr1  1  0.50000000  0.00000000  0.00000000  1
  Cu  Cu0  1  0.50000000  0.50000000  0.00000000  1
  Cu  Cu1  1  0.00000000  0.50000000  0.50000000  1
loop_
_geom_bond_atom_site_label_1
_geom_bond_atom_site_label_2
_geom_bond_distance
_geom_bond_site_symmetry_2
Zr0 Zr1 3.078698 1_454
Zr0 Zr1 3.078698 1_465
Zr0 Zr1 3.094547 1_464
Zr0 Zr1 3.094547 1_565
Cr0 Cr1 2.372256 1_566
Cr0 Cr1 2.372256 1_555
Cr0 Cu1 2.541874 1_655
Cr0 Cu1 2.541874 1_555
Cr0 Cu0 2.541874 1_556
Cr0 Cu0 2.541874 1_555
Cr0 Zr1 2.959323 1_565
Cr0 Zr0 2.959323 1_545
Cr0 Zr0 2.992116 1_555
Cr0 Zr1 2.992116 1_555
Cr0 Zr1 2.992116 1_454
Cr0 Zr0 2.992116 1_656
Cr1 Cu1 2.541874 1_655
Cr1 Cu1 2.541874 1_544
Cr1 Cu0 2.541874 1_555
Cr1 Cu0 2.541874 1_545
Cr1 Zr0 2.959323 1_545
Cr1 Zr1 2.959323 1_554
Cr1 Zr0 2.992116 1_544
Cr1 Zr1 2.992116 1_555
Cr1 Zr1 2.992116 1_454
Cr1 Zr0 2.992116 1_645
Cu0 Cu1 2.565768 1_554
Cu0 Cu1 2.565768 1_655
Cu0 Zr0 2.832253 1_555
Cu0 Zr1 2.832253 1_554
Cu0 Zr0 2.832253 1_544
Cu0 Zr1 2.832253 1_565
Cu0 Zr1 3.104799 1_454
Cu0 Zr0 3.104799 1_655
Cu1 Zr1 2.832253 1_465
Cu1 Zr0 2.832253 1_556
Cu1 Zr1 2.832253 1_454
Cu1 Zr0 2.832253 1_545
Cu1 Zr1 3.104799 1_455
Cu1 Zr0 3.104799 1_555
