# generated using pymatgen
data_Ce2Al3Ru
_symmetry_space_group_name_H-M   'P 1'
_cell_length_a   5.57111515
_cell_length_b   5.57111515
_cell_length_c   8.77483200
_cell_angle_alpha   90.00000000
_cell_angle_beta   90.00000000
_cell_angle_gamma   119.99998989
_symmetry_Int_Tables_number   1
_chemical_formula_structural   Ce2Al3Ru
_chemical_formula_sum   'Ce4 Al6 Ru2'
_cell_volume   235.85970778
_cell_formula_units_Z   2
loop_
 _symmetry_equiv_pos_site_id
 _symmetry_equiv_pos_as_xyz
  1  'x, y, z'
loop_
 _atom_site_type_symbol
 _atom_site_label
 _atom_site_symmetry_multiplicity
 _atom_site_fract_x
 _atom_site_fract_y
 _atom_site_fract_z
 _atom_site_occupancy
  Ce  Ce0  1  0.33333300  0.66666700  0.93811200  1
  Ce  Ce1  1  0.66666700  0.33333300  0.06188800  1
  Ce  Ce2  1  0.66666700  0.33333300  0.43811200  1
  Ce  Ce3  1  0.33333300  0.66666700  0.56188800  1
  Al  Al0  1  0.83740400  0.16259600  0.75000000  1
  Al  Al1  1  0.83740400  0.67480800  0.75000000  1
  Al  Al2  1  0.32519200  0.16259600  0.75000000  1
  Al  Al3  1  0.16259600  0.83740400  0.25000000  1
  Al  Al4  1  0.16259600  0.32519200  0.25000000  1
  Al  Al5  1  0.67480800  0.83740400  0.25000000  1
  Ru  Ru0  1  0.00000000  0.00000000  0.00000000  1
  Ru  Ru1  1  0.00000000  0.00000000  0.50000000  1
loop_
_geom_bond_atom_site_label_1
_geom_bond_atom_site_label_2
_geom_bond_distance
_geom_bond_site_symmetry_2
Ce0 Ru0 3.262003 1_566
Ce0 Ru0 3.262008 1_666
Ce0 Ru0 3.262008 1_556
Ce1 Ru0 3.262003 1_655
Ce1 Ru0 3.262008 1_665
Ce1 Ru0 3.262008 1_555
Ce2 Ru1 3.262003 1_655
Ce2 Ru1 3.262008 1_555
Ce2 Ru1 3.262008 1_665
Ce3 Ru1 3.262003 1_565
Ce3 Ru1 3.262008 1_665
Ce3 Ru1 3.262008 1_555
Al0 Ru0 2.697035 1_656
Al0 Ru1 2.697035 1_655
Al0 Al2 2.717523 1_655
Al0 Al1 2.717523 1_545
Al0 Al1 2.853592 1_555
Al0 Al2 2.853592 1_555
Al0 Ce1 3.194401 1_556
Al0 Ce2 3.194401 1_555
Al0 Ce3 3.238136 1_545
Al0 Ce0 3.238136 1_545
Al0 Ce3 3.238136 1_655
Al0 Ce0 3.238136 1_655
Al1 Ru1 2.697035 1_665
Al1 Ru0 2.697035 1_666
Al1 Al2 2.717524 1_665
Al1 Al2 2.853592 1_555
Al1 Ce1 3.194404 1_556
Al1 Ce2 3.194404 1_555
Al1 Ce0 3.238133 1_655
Al1 Ce3 3.238133 1_655
Al1 Ce3 3.238138 1_555
Al1 Ce0 3.238138 1_555
Al2 Ru1 2.697035 1_555
Al2 Ru0 2.697035 1_556
Al2 Ce1 3.194404 1_556
Al2 Ce2 3.194404 1_555
Al2 Ce3 3.238133 1_545
Al2 Ce0 3.238133 1_545
Al2 Ce3 3.238138 1_555
Al2 Ce0 3.238138 1_555
Al3 Ru1 2.697035 1_565
Al3 Ru0 2.697035 1_565
Al3 Al4 2.717523 1_565
Al3 Al5 2.717523 1_455
Al3 Al5 2.853592 1_555
Al3 Al4 2.853592 1_555
Al3 Ce0 3.194401 1_554
Al3 Ce3 3.194401 1_555
Al3 Ce1 3.238136 1_455
Al3 Ce2 3.238136 1_455
Al3 Ce2 3.238136 1_565
Al3 Ce1 3.238136 1_565
Al4 Ru1 2.697035 1_555
Al4 Ru0 2.697035 1_555
Al4 Al5 2.717524 1_445
Al4 Al5 2.853592 1_555
Al4 Ce0 3.194404 1_554
Al4 Ce3 3.194404 1_555
Al4 Ce1 3.238133 1_455
Al4 Ce2 3.238133 1_455
Al4 Ce2 3.238138 1_555
Al4 Ce1 3.238138 1_555
Al5 Ru1 2.697035 1_665
Al5 Ru0 2.697035 1_665
Al5 Ce3 3.194404 1_555
Al5 Ce0 3.194404 1_554
Al5 Ce2 3.238133 1_565
Al5 Ce1 3.238133 1_565
Al5 Ce1 3.238138 1_555
Al5 Ce2 3.238138 1_555
