# generated using pymatgen
data_NaHfMg14O15
_symmetry_space_group_name_H-M   'P 1'
_cell_length_a   8.63255018
_cell_length_b   8.61667130
_cell_length_c   4.33735953
_cell_angle_alpha   90.00000000
_cell_angle_beta   90.00000000
_cell_angle_gamma   90.00000000
_symmetry_Int_Tables_number   1
_chemical_formula_structural   NaHfMg14O15
_chemical_formula_sum   'Na1 Hf1 Mg14 O15'
_cell_volume   322.62948932
_cell_formula_units_Z   1
loop_
 _symmetry_equiv_pos_site_id
 _symmetry_equiv_pos_as_xyz
  1  'x, y, z'
loop_
 _atom_site_type_symbol
 _atom_site_label
 _atom_site_symmetry_multiplicity
 _atom_site_fract_x
 _atom_site_fract_y
 _atom_site_fract_z
 _atom_site_occupancy
  Na  Na0  1  0.00010404  0.00000000  0.00000000  1
  Hf  Hf0  1  0.49286913  0.50000000  0.00000000  1
  Mg  Mg0  1  0.99853523  0.50000000  0.00000000  1
  Mg  Mg1  1  0.50024300  0.00000000  0.00000000  1
  Mg  Mg2  1  0.00080418  0.24534413  0.50000000  1
  Mg  Mg3  1  0.00080418  0.75465587  0.50000000  1
  Mg  Mg4  1  0.49893780  0.23971670  0.50000000  1
  Mg  Mg5  1  0.49893780  0.76028330  0.50000000  1
  Mg  Mg6  1  0.24376260  0.00000000  0.50000000  1
  Mg  Mg7  1  0.24390033  0.50000000  0.50000000  1
  Mg  Mg8  1  0.75584787  0.00000000  0.50000000  1
  Mg  Mg9  1  0.75854906  0.50000000  0.50000000  1
  Mg  Mg10  1  0.23965115  0.24091665  0.00000000  1
  Mg  Mg11  1  0.23965115  0.75908335  -0.00000000  1
  Mg  Mg12  1  0.75996597  0.24321442  0.00000000  1
  Mg  Mg13  1  0.75996597  0.75678558  0.00000000  1
  O  O0  1  0.26701506  0.00000000  0.00000000  1
  O  O1  1  0.73360721  0.00000000  0.00000000  1
  O  O2  1  0.75071573  0.50000000  0.00000000  1
  O  O3  1  0.25129237  0.24515030  0.50000000  1
  O  O4  1  0.25129237  0.75484970  0.50000000  1
  O  O5  1  0.74776386  0.25073854  0.50000000  1
  O  O6  1  0.74776386  0.74926146  0.50000000  1
  O  O7  1  0.99881176  0.00000000  0.50000000  1
  O  O8  1  0.99989130  0.50000000  0.50000000  1
  O  O9  1  0.50111074  0.00000000  0.50000000  1
  O  O10  1  0.50632947  0.50000000  0.50000000  1
  O  O11  1  0.00020965  0.26497275  0.00000000  1
  O  O12  1  0.00020965  0.73502725  0.00000000  1
  O  O13  1  0.50072875  0.25688827  0.00000000  1
  O  O14  1  0.50072875  0.74311173  0.00000000  1
loop_
_geom_bond_atom_site_label_1
_geom_bond_atom_site_label_2
_geom_bond_distance
_geom_bond_site_symmetry_2
Na0 O7 2.168708 1_455
Na0 O7 2.168708 1_454
Na0 O12 2.283183 1_545
Na0 O11 2.283183 1_555
Na0 O1 2.300547 1_455
Na0 O0 2.304123 1_555
Hf0 O14 2.095912 1_555
Hf0 O13 2.095912 1_555
Hf0 O10 2.171790 1_555
Hf0 O10 2.171790 1_554
Hf0 O2 2.225874 1_555
Mg0 O11 2.025204 1_655
Mg0 O12 2.025204 1_655
Mg0 O2 2.139314 1_555
Mg0 O8 2.168711 1_554
Mg0 O8 2.168711 1_555
Mg1 O0 2.013352 1_555
Mg1 O1 2.014528 1_555
Mg1 O9 2.168693 1_554
Mg1 O9 2.168693 1_555
Mg1 O13 2.213526 1_555
Mg1 O14 2.213526 1_545
Mg2 O7 2.114120 1_455
Mg2 O3 2.162353 1_555
Mg2 O11 2.175271 1_556
Mg2 O11 2.175271 1_555
Mg2 O5 2.184878 1_455
Mg2 O8 2.194300 1_455
Mg3 O7 2.114120 1_465
Mg3 O4 2.162353 1_555
Mg3 O12 2.175271 1_556
Mg3 O12 2.175271 1_555
Mg3 O6 2.184878 1_455
Mg3 O8 2.194300 1_455
Mg4 O9 2.065645 1_555
Mg4 O3 2.138324 1_555
Mg4 O5 2.150102 1_555
Mg4 O13 2.173776 1_555
Mg4 O13 2.173776 1_556
Mg4 O10 2.243683 1_555
Mg5 O9 2.065645 1_565
Mg5 O4 2.138324 1_555
Mg5 O6 2.150102 1_555
Mg5 O14 2.173776 1_556
Mg5 O14 2.173776 1_555
Mg5 O10 2.243683 1_555
Mg6 O3 2.113379 1_555
Mg6 O4 2.113379 1_545
Mg6 O7 2.114550 1_455
Mg6 O0 2.177949 1_555
Mg6 O0 2.177949 1_556
Mg6 O9 2.221571 1_555
Mg7 O8 2.106420 1_455
Mg7 O4 2.196883 1_555
Mg7 O3 2.196883 1_555
Mg7 O10 2.265433 1_555
Mg8 O7 2.097398 1_555
Mg8 O6 2.161658 1_545
Mg8 O5 2.161658 1_555
Mg8 O1 2.177162 1_556
Mg8 O1 2.177162 1_555
Mg8 O9 2.199031 1_555
Mg9 O8 2.083399 1_555
Mg9 O5 2.149821 1_555
Mg9 O6 2.149821 1_555
Mg9 O2 2.169734 1_556
Mg9 O2 2.169734 1_555
Mg9 O10 2.177298 1_555
Mg10 O11 2.077358 1_555
Mg10 O0 2.089296 1_555
Mg10 O3 2.171313 1_554
Mg10 O3 2.171313 1_555
Mg10 O13 2.257963 1_555
Mg11 O12 2.077358 1_555
Mg11 O0 2.089296 1_565
Mg11 O4 2.171313 1_555
Mg11 O4 2.171313 1_554
Mg11 O14 2.257963 1_555
Mg12 O11 2.082373 1_655
Mg12 O1 2.108015 1_555
Mg12 O5 2.172204 1_554
Mg12 O5 2.172204 1_555
Mg12 O2 2.214077 1_555
Mg12 O13 2.240978 1_555
Mg13 O12 2.082373 1_655
Mg13 O1 2.108015 1_565
Mg13 O6 2.172204 1_555
Mg13 O6 2.172204 1_554
Mg13 O2 2.214077 1_555
Mg13 O14 2.240978 1_555
