# generated using pymatgen
data_Mg6AlMo
_symmetry_space_group_name_H-M   'P 1'
_cell_length_a   4.81834500
_cell_length_b   6.15691100
_cell_length_c   10.64244700
_cell_angle_alpha   90.00000000
_cell_angle_beta   90.00000000
_cell_angle_gamma   90.00000000
_symmetry_Int_Tables_number   1
_chemical_formula_structural   Mg6AlMo
_chemical_formula_sum   'Mg12 Al2 Mo2'
_cell_volume   315.72012397
_cell_formula_units_Z   2
loop_
 _symmetry_equiv_pos_site_id
 _symmetry_equiv_pos_as_xyz
  1  'x, y, z'
loop_
 _atom_site_type_symbol
 _atom_site_label
 _atom_site_symmetry_multiplicity
 _atom_site_fract_x
 _atom_site_fract_y
 _atom_site_fract_z
 _atom_site_occupancy
  Mg  Mg0  1  0.00000000  0.26244500  0.08716700  1
  Mg  Mg1  1  0.00000000  0.73755500  0.08716700  1
  Mg  Mg2  1  0.00000000  0.50000000  0.83352000  1
  Mg  Mg3  1  0.50000000  0.24540900  0.91742200  1
  Mg  Mg4  1  0.50000000  0.75459100  0.91742200  1
  Mg  Mg5  1  0.50000000  0.50000000  0.66607900  1
  Mg  Mg6  1  0.00000000  0.76244500  0.58716700  1
  Mg  Mg7  1  0.00000000  0.23755500  0.58716700  1
  Mg  Mg8  1  0.00000000  0.00000000  0.33352000  1
  Mg  Mg9  1  0.50000000  0.74540900  0.41742200  1
  Mg  Mg10  1  0.50000000  0.25459100  0.41742200  1
  Mg  Mg11  1  0.50000000  0.00000000  0.16607900  1
  Al  Al0  1  0.00000000  0.50000000  0.31509900  1
  Al  Al1  1  0.00000000  0.00000000  0.81509900  1
  Mo  Mo0  1  0.50000000  0.50000000  0.17612300  1
  Mo  Mo1  1  0.50000000  0.00000000  0.67612300  1
loop_
_geom_bond_atom_site_label_1
_geom_bond_atom_site_label_2
_geom_bond_distance
_geom_bond_site_symmetry_2
Mg0 Mg1 2.925210 1_555
Mg0 Mo0 2.973144 1_455
Mg0 Mo0 2.973144 1_555
Mg0 Mg3 3.013066 1_454
Mg0 Mg3 3.013066 1_554
Mg0 Mg11 3.019996 1_555
Mg0 Mg11 3.019996 1_455
Mg0 Mg2 3.070197 1_554
Mg0 Mg8 3.079740 1_555
Mg0 Mg1 3.231701 1_545
Mg1 Mo0 2.973144 1_555
Mg1 Mo0 2.973144 1_455
Mg1 Mg4 3.013066 1_554
Mg1 Mg4 3.013066 1_454
Mg1 Mg11 3.019996 1_565
Mg1 Mg11 3.019996 1_465
Mg1 Mg2 3.070197 1_554
Mg1 Mg8 3.079740 1_565
Mg2 Mg5 2.996593 1_455
Mg2 Mg5 2.996593 1_555
Mg2 Mg4 3.009728 1_555
Mg2 Mg3 3.009728 1_455
Mg2 Mg4 3.009728 1_455
Mg2 Mg3 3.009728 1_555
Mg2 Mg6 3.079740 1_555
Mg2 Mg7 3.079740 1_555
Mg3 Mo1 2.979545 1_555
Mg3 Mg4 3.021923 1_545
Mg3 Mg5 3.100347 1_555
Mg3 Mg4 3.134988 1_555
Mg3 Mo0 3.168156 1_556
Mg4 Mo1 2.979545 1_565
Mg4 Mg5 3.100347 1_555
Mg4 Mo0 3.168156 1_556
Mg5 Mg6 3.019996 1_555
Mg5 Mg6 3.019996 1_655
Mg5 Mg7 3.019996 1_655
Mg5 Mg7 3.019996 1_555
Mg5 Mg9 3.047295 1_555
Mg5 Mo1 3.080311 1_555
Mg5 Mo1 3.080311 1_565
Mg6 Mg7 2.925210 1_565
Mg6 Mo1 2.973144 1_565
Mg6 Mo1 2.973144 1_465
Mg6 Mg9 3.013066 1_455
Mg6 Mg9 3.013066 1_555
Mg6 Mg8 3.070197 1_565
Mg6 Mg7 3.231701 1_555
Mg7 Mo1 2.973144 1_555
Mg7 Mo1 2.973144 1_455
Mg7 Mg8 3.070197 1_555
Mg8 Mg9 3.009728 1_545
Mg8 Mg9 3.009728 1_445
Mg9 Mo0 2.979545 1_555
Mg9 Mo1 3.168156 1_565
Mg10 Mo0 2.979545 1_555
Mg10 Mg8 3.009728 1_655
Mg10 Mg8 3.009728 1_555
Mg10 Mg7 3.013066 1_555
Mg10 Mg7 3.013066 1_655
Mg10 Mg9 3.021923 1_555
Mg10 Mg5 3.047295 1_555
Mg10 Mg11 3.100347 1_555
Mg10 Mg9 3.134988 1_545
Mg10 Mo1 3.168156 1_555
Mg11 Mg8 2.996593 1_555
Mg11 Mg8 2.996593 1_655
Mg11 Mg3 3.047295 1_554
Mg11 Mg4 3.047295 1_544
Mg11 Mo0 3.080311 1_555
Mg11 Mo0 3.080311 1_545
Mg11 Mg9 3.100347 1_545
Al0 Mo0 2.826957 1_455
Al0 Mo0 2.826957 1_555
Al0 Mg0 2.832578 1_555
Al0 Mg1 2.832578 1_555
Al0 Mg9 3.045154 1_455
Al0 Mg10 3.045154 1_455
Al0 Mg9 3.045154 1_555
Al0 Mg10 3.045154 1_555
Al0 Mg8 3.084692 1_565
Al0 Mg8 3.084692 1_555
Al0 Mg6 3.315828 1_555
Al0 Mg7 3.315828 1_555
Al1 Mo1 2.826957 1_455
Al1 Mo1 2.826957 1_555
Al1 Mg7 2.832578 1_555
Al1 Mg6 2.832578 1_545
Al1 Mg4 3.045154 1_445
Al1 Mg4 3.045154 1_545
Al1 Mg3 3.045154 1_455
Al1 Mg3 3.045154 1_555
Al1 Mg2 3.084692 1_555
Al1 Mg2 3.084692 1_545
Al1 Mg1 3.315828 1_546
Al1 Mg0 3.315828 1_556
