# generated using pymatgen
data_Ca2Nb2NiO8
_symmetry_space_group_name_H-M   'P 1'
_cell_length_a   9.95587492
_cell_length_b   9.95587492
_cell_length_c   5.48497163
_cell_angle_alpha   88.82553978
_cell_angle_beta   88.82553978
_cell_angle_gamma   36.90912338
_symmetry_Int_Tables_number   1
_chemical_formula_structural   Ca2Nb2NiO8
_chemical_formula_sum   'Ca4 Nb4 Ni2 O16'
_cell_volume   326.42186411
_cell_formula_units_Z   2
loop_
 _symmetry_equiv_pos_site_id
 _symmetry_equiv_pos_as_xyz
  1  'x, y, z'
loop_
 _atom_site_type_symbol
 _atom_site_label
 _atom_site_symmetry_multiplicity
 _atom_site_fract_x
 _atom_site_fract_y
 _atom_site_fract_z
 _atom_site_occupancy
  Ca  Ca0  1  0.89118700  0.52281500  0.75754600  1
  Ca  Ca1  1  0.47718500  0.10881300  0.74245400  1
  Ca  Ca2  1  0.10881300  0.47718500  0.24245400  1
  Ca  Ca3  1  0.52281500  0.89118700  0.25754600  1
  Nb  Nb0  1  0.04546400  0.73530200  0.75491600  1
  Nb  Nb1  1  0.26469800  0.95453600  0.74508400  1
  Nb  Nb2  1  0.95453600  0.26469800  0.24508400  1
  Nb  Nb3  1  0.73530200  0.04546400  0.25491600  1
  Ni  Ni0  1  0.64077700  0.35922300  0.75000000  1
  Ni  Ni1  1  0.35922300  0.64077700  0.25000000  1
  O  O0  1  0.06051200  0.80234800  0.09392400  1
  O  O1  1  0.19765200  0.93948800  0.40607600  1
  O  O2  1  0.93948800  0.19765200  0.90607600  1
  O  O3  1  0.80234800  0.06051200  0.59392400  1
  O  O4  1  0.30205900  0.58631200  0.58078600  1
  O  O5  1  0.41368800  0.69794100  0.91921400  1
  O  O6  1  0.69794100  0.41368800  0.41921400  1
  O  O7  1  0.58631200  0.30205900  0.08078600  1
  O  O8  1  0.87718200  0.76035400  0.50681600  1
  O  O9  1  0.23964600  0.12281800  0.99318400  1
  O  O10  1  0.46395600  0.16727800  0.34333100  1
  O  O11  1  0.83272200  0.53604400  0.15666900  1
  O  O12  1  0.53604400  0.83272200  0.65666900  1
  O  O13  1  0.16727800  0.46395600  0.84333100  1
  O  O14  1  0.76035400  0.87718200  0.00681600  1
  O  O15  1  0.12281800  0.23964600  0.49318400  1
loop_
_geom_bond_atom_site_label_1
_geom_bond_atom_site_label_2
_geom_bond_distance
_geom_bond_site_symmetry_2
Ca0 O12 2.211751 1_555
Ca0 O11 2.232855 1_556
Ca0 O15 2.236560 1_655
Ca0 O13 2.363504 1_655
Ca0 O8 2.617395 1_555
Ca0 O9 2.728393 1_655
Ca0 O14 2.964588 1_556
Ca0 O2 2.965365 1_555
Ca1 O13 2.211751 1_555
Ca1 O10 2.232855 1_555
Ca1 O14 2.236560 1_546
Ca1 O12 2.363504 1_545
Ca1 O9 2.617395 1_555
Ca1 O8 2.728393 1_545
Ca1 O15 2.964588 1_555
Ca1 O3 2.965365 1_555
Ca2 O10 2.211751 1_555
Ca2 O13 2.232855 1_554
Ca2 O8 2.236560 1_455
Ca2 O11 2.363504 1_455
Ca2 O15 2.617395 1_555
Ca2 O14 2.728393 1_455
Ca2 O9 2.964588 1_554
Ca2 O0 2.965365 1_555
Ca3 O11 2.211751 1_555
Ca3 O12 2.232855 1_555
Ca3 O9 2.236560 1_564
Ca3 O10 2.363504 1_565
Ca3 O14 2.617395 1_555
Ca3 O15 2.728393 1_565
Ca3 O8 2.964588 1_555
Ca3 O1 2.965365 1_555
Nb0 O4 1.880640 1_555
Nb0 O13 1.932635 1_555
Nb0 O8 2.032804 1_455
Nb0 O0 2.036609 1_556
Nb0 O3 2.135256 1_465
Nb0 O14 2.338536 1_456
Nb1 O5 1.880640 1_555
Nb1 O12 1.932635 1_555
Nb1 O9 2.032804 1_565
Nb1 O1 2.036609 1_555
Nb1 O2 2.135256 1_465
Nb1 O15 2.338536 1_565
Nb2 O6 1.880640 1_555
Nb2 O11 1.932635 1_555
Nb2 O15 2.032804 1_655
Nb2 O2 2.036609 1_554
Nb2 O1 2.135256 1_645
Nb2 O9 2.338536 1_654
Nb3 O7 1.880640 1_555
Nb3 O10 1.932635 1_555
Nb3 O14 2.032804 1_545
Nb3 O3 2.036609 1_555
Nb3 O0 2.135256 1_645
Nb3 O8 2.338536 1_545
Ni0 O6 2.078617 1_555
Ni0 O7 2.078617 1_556
Ni0 O2 2.135979 1_555
Ni0 O3 2.135979 1_555
Ni0 O5 2.279208 1_555
Ni0 O4 2.279208 1_555
Ni1 O5 2.078617 1_554
Ni1 O4 2.078617 1_555
Ni1 O1 2.135979 1_555
Ni1 O0 2.135979 1_555
Ni1 O6 2.279208 1_555
Ni1 O7 2.279208 1_555
