# generated using pymatgen
data_DyFe4(CuO4)3
_symmetry_space_group_name_H-M   'P 1'
_cell_length_a   6.45726035
_cell_length_b   6.45726035
_cell_length_c   6.45726035
_cell_angle_alpha   109.47122063
_cell_angle_beta   109.47122063
_cell_angle_gamma   109.47122063
_symmetry_Int_Tables_number   1
_chemical_formula_structural   DyFe4(CuO4)3
_chemical_formula_sum   'Dy1 Fe4 Cu3 O12'
_cell_volume   207.26358222
_cell_formula_units_Z   1
loop_
 _symmetry_equiv_pos_site_id
 _symmetry_equiv_pos_as_xyz
  1  'x, y, z'
loop_
 _atom_site_type_symbol
 _atom_site_label
 _atom_site_symmetry_multiplicity
 _atom_site_fract_x
 _atom_site_fract_y
 _atom_site_fract_z
 _atom_site_occupancy
  Dy  Dy0  1  0.00000000  0.00000000  0.00000000  1
  Fe  Fe0  1  0.00000000  0.00000000  0.50000000  1
  Fe  Fe1  1  0.50000000  0.00000000  0.00000000  1
  Fe  Fe2  1  0.00000000  0.50000000  0.00000000  1
  Fe  Fe3  1  0.50000000  0.50000000  0.50000000  1
  Cu  Cu0  1  0.50000000  0.00000000  0.50000000  1
  Cu  Cu1  1  0.00000000  0.50000000  0.50000000  1
  Cu  Cu2  1  0.50000000  0.50000000  0.00000000  1
  O  O0  1  0.16429800  0.85674600  0.69244700  1
  O  O1  1  0.83570200  0.14325400  0.30755300  1
  O  O2  1  0.83570200  0.52814900  0.69244700  1
  O  O3  1  0.16429800  0.47185100  0.30755300  1
  O  O4  1  0.85674600  0.69244700  0.16429800  1
  O  O5  1  0.14325400  0.30755300  0.83570200  1
  O  O6  1  0.52814900  0.69244700  0.83570200  1
  O  O7  1  0.47185100  0.30755300  0.16429800  1
  O  O8  1  0.69244700  0.16429800  0.85674600  1
  O  O9  1  0.30755300  0.83570200  0.14325400  1
  O  O10  1  0.69244700  0.83570200  0.52814900  1
  O  O11  1  0.30755300  0.16429800  0.47185100  1
loop_
_geom_bond_atom_site_label_1
_geom_bond_atom_site_label_2
_geom_bond_distance
_geom_bond_site_symmetry_2
Dy0 O4 2.599880 1_445
Dy0 O8 2.599880 1_454
Dy0 O0 2.599880 1_544
Dy0 O1 2.599880 1_455
Dy0 O5 2.599880 1_554
Dy0 O9 2.599880 1_545
Dy0 O7 2.599881 1_555
Dy0 O2 2.599881 1_444
Dy0 O10 2.599881 1_444
Dy0 O3 2.599881 1_555
Dy0 O6 2.599881 1_444
Dy0 O11 2.599881 1_555
Fe0 O1 2.016717 1_455
Fe0 O0 2.016717 1_545
Fe0 O10 2.016723 1_445
Fe0 O11 2.016723 1_555
Fe0 O4 2.016724 1_445
Fe0 O5 2.016724 1_555
Fe1 O9 2.016717 1_545
Fe1 O8 2.016717 1_554
Fe1 O7 2.016723 1_555
Fe1 O6 2.016723 1_544
Fe1 O0 2.016724 1_544
Fe1 O1 2.016724 1_555
Fe2 O5 2.016717 1_554
Fe2 O4 2.016717 1_455
Fe2 O2 2.016723 1_454
Fe2 O3 2.016723 1_555
Fe2 O9 2.016724 1_555
Fe2 O8 2.016724 1_454
Fe3 O7 2.016723 1_555
Fe3 O10 2.016723 1_555
Fe3 O2 2.016723 1_555
Fe3 O11 2.016723 1_555
Fe3 O6 2.016723 1_555
Fe3 O3 2.016723 1_555
Cu0 O11 1.886724 1_555
Cu0 O10 1.886724 1_545
Cu0 O9 1.886729 1_545
Cu0 O8 1.886729 1_555
Cu1 O3 1.886724 1_555
Cu1 O2 1.886724 1_455
Cu1 O0 1.886729 1_555
Cu1 O1 1.886729 1_455
Cu2 O7 1.886724 1_555
Cu2 O6 1.886724 1_554
Cu2 O4 1.886729 1_555
Cu2 O5 1.886729 1_554
