# generated using pymatgen
data_Sm2MgS4
_symmetry_space_group_name_H-M   'P 1'
_cell_length_a   8.12326200
_cell_length_b   7.27660800
_cell_length_c   11.64681400
_cell_angle_alpha   90.00000000
_cell_angle_beta   90.00000000
_cell_angle_gamma   90.00000000
_symmetry_Int_Tables_number   1
_chemical_formula_structural   Sm2MgS4
_chemical_formula_sum   'Sm8 Mg4 S16'
_cell_volume   688.44076762
_cell_formula_units_Z   4
loop_
 _symmetry_equiv_pos_site_id
 _symmetry_equiv_pos_as_xyz
  1  'x, y, z'
loop_
 _atom_site_type_symbol
 _atom_site_label
 _atom_site_symmetry_multiplicity
 _atom_site_fract_x
 _atom_site_fract_y
 _atom_site_fract_z
 _atom_site_occupancy
  Sm  Sm0  1  0.03492400  0.75000000  0.31160100  1
  Sm  Sm1  1  0.96507600  0.25000000  0.68839900  1
  Sm  Sm2  1  0.46507600  0.25000000  0.81160100  1
  Sm  Sm3  1  0.53492400  0.75000000  0.18839900  1
  Sm  Sm4  1  0.08044400  0.25000000  0.02834500  1
  Sm  Sm5  1  0.91955600  0.75000000  0.97165500  1
  Sm  Sm6  1  0.41955600  0.75000000  0.52834500  1
  Sm  Sm7  1  0.58044400  0.25000000  0.47165500  1
  Mg  Mg0  1  0.18698100  0.25000000  0.41257000  1
  Mg  Mg1  1  0.81301900  0.75000000  0.58743000  1
  Mg  Mg2  1  0.31301900  0.75000000  0.91257000  1
  Mg  Mg3  1  0.68698100  0.25000000  0.08743000  1
  S  S0  1  0.13743100  0.49831000  0.84471600  1
  S  S1  1  0.86256900  0.50169000  0.15528400  1
  S  S2  1  0.36256900  0.50169000  0.34471600  1
  S  S3  1  0.63743100  0.49831000  0.65528400  1
  S  S4  1  0.63743100  0.00169000  0.65528400  1
  S  S5  1  0.36256900  0.99831000  0.34471600  1
  S  S6  1  0.86256900  0.99831000  0.15528400  1
  S  S7  1  0.13743100  0.00169000  0.84471600  1
  S  S8  1  0.90497500  0.25000000  0.45046900  1
  S  S9  1  0.09502500  0.75000000  0.54953100  1
  S  S10  1  0.59502500  0.75000000  0.95046900  1
  S  S11  1  0.40497500  0.25000000  0.04953100  1
  S  S12  1  0.21211000  0.75000000  0.10901800  1
  S  S13  1  0.78789000  0.25000000  0.89098200  1
  S  S14  1  0.28789000  0.25000000  0.60901800  1
  S  S15  1  0.71211000  0.75000000  0.39098200  1
loop_
_geom_bond_atom_site_label_1
_geom_bond_atom_site_label_2
_geom_bond_distance
_geom_bond_site_symmetry_2
Mg0 S8 2.332947 1_455
Mg0 S14 2.430399 1_555
Mg0 S5 2.452187 1_545
Mg0 S2 2.452187 1_555
Mg1 S9 2.332947 1_655
Mg1 S15 2.430399 1_555
Mg1 S3 2.452187 1_555
Mg1 S4 2.452187 1_565
Mg2 S10 2.332947 1_555
Mg2 S12 2.430399 1_556
Mg2 S7 2.452187 1_565
Mg2 S0 2.452187 1_555
Mg3 S11 2.332947 1_555
Mg3 S13 2.430399 1_554
Mg3 S6 2.452187 1_545
Mg3 S1 2.452187 1_555
S0 Sm4 2.837785 1_556
S0 Sm1 2.922247 1_455
S0 Sm5 2.944888 1_455
S0 Sm2 3.239954 1_555
S1 Sm5 2.837785 1_554
S1 Sm0 2.922247 1_655
S1 Sm4 2.944888 1_655
S1 Sm3 3.239954 1_555
S2 Sm6 2.837785 1_555
S2 Sm3 2.922247 1_555
S2 Sm7 2.944888 1_555
S2 Sm0 3.239954 1_555
S3 Sm7 2.837785 1_555
S3 Sm2 2.922247 1_555
S3 Sm6 2.944888 1_555
S3 Sm1 3.239954 1_555
S4 Sm7 2.837785 1_555
S4 Sm2 2.922247 1_555
S4 Sm6 2.944888 1_545
S4 Sm1 3.239954 1_555
S5 Sm6 2.837785 1_555
S5 Sm3 2.922247 1_555
S5 Sm7 2.944888 1_565
S5 Sm0 3.239954 1_555
S6 Sm5 2.837785 1_554
S6 Sm0 2.922247 1_655
S6 Sm4 2.944888 1_665
S6 Sm3 3.239954 1_555
S7 Sm4 2.837785 1_556
S7 Sm1 2.922247 1_455
S7 Sm5 2.944888 1_445
S7 Sm2 3.239954 1_555
S8 Sm7 2.647773 1_555
S8 Sm1 2.813805 1_555
S9 Sm6 2.647773 1_555
S9 Sm0 2.813805 1_555
S10 Sm5 2.647773 1_555
S10 Sm3 2.813805 1_556
S11 Sm4 2.647773 1_555
S11 Sm2 2.813805 1_554
S12 Sm0 2.763811 1_555
S12 Sm3 2.780510 1_555
S12 Sm5 2.864823 1_454
S13 Sm1 2.763811 1_555
S13 Sm2 2.780510 1_555
S13 Sm4 2.864823 1_656
S14 Sm2 2.763811 1_555
S14 Sm1 2.780510 1_455
S14 Sm7 2.864823 1_555
S15 Sm3 2.763811 1_555
S15 Sm0 2.780510 1_655
S15 Sm6 2.864823 1_555
