# generated using pymatgen
data_DyCu7
_symmetry_space_group_name_H-M   'P 1'
_cell_length_a   4.11155400
_cell_length_b   4.94141668
_cell_length_c   17.06211522
_cell_angle_alpha   89.99999270
_cell_angle_beta   90.00000000
_cell_angle_gamma   90.00000000
_symmetry_Int_Tables_number   1
_chemical_formula_structural   DyCu7
_chemical_formula_sum   'Dy3 Cu21'
_cell_volume   346.64931496
_cell_formula_units_Z   3
loop_
 _symmetry_equiv_pos_site_id
 _symmetry_equiv_pos_as_xyz
  1  'x, y, z'
loop_
 _atom_site_type_symbol
 _atom_site_label
 _atom_site_symmetry_multiplicity
 _atom_site_fract_x
 _atom_site_fract_y
 _atom_site_fract_z
 _atom_site_occupancy
  Dy  Dy0  1  0.00000000  0.49998400  0.24283900  1
  Dy  Dy1  1  0.00000000  0.99999200  0.50000000  1
  Dy  Dy2  1  0.00000000  0.49998400  0.75716100  1
  Cu  Cu0  1  0.00000000  0.99998200  0.15227100  1
  Cu  Cu1  1  0.00000000  0.49998900  0.41548500  1
  Cu  Cu2  1  0.00000000  0.99998800  0.66917100  1
  Cu  Cu3  1  0.00000000  0.49998400  0.92566600  1
  Cu  Cu4  1  0.00000000  0.49998400  0.07433400  1
  Cu  Cu5  1  0.00000000  0.99998800  0.33082900  1
  Cu  Cu6  1  0.00000000  0.49998900  0.58451500  1
  Cu  Cu7  1  0.00000000  0.99998200  0.84772900  1
  Cu  Cu8  1  0.50000000  0.99997800  0.24612700  1
  Cu  Cu9  1  0.50000000  0.49998000  0.50000000  1
  Cu  Cu10  1  0.50000000  0.99997800  0.75387300  1
  Cu  Cu11  1  0.50000000  0.49997500  0.00000000  1
  Cu  Cu12  1  0.50000000  0.25045200  0.12142700  1
  Cu  Cu13  1  0.50000000  0.74988300  0.37289600  1
  Cu  Cu14  1  0.50000000  0.25008900  0.62710300  1
  Cu  Cu15  1  0.50000000  0.74950500  0.87857300  1
  Cu  Cu16  1  0.50000000  0.74950500  0.12142700  1
  Cu  Cu17  1  0.50000000  0.25008900  0.37289700  1
  Cu  Cu18  1  0.50000000  0.74988300  0.62710400  1
  Cu  Cu19  1  0.50000000  0.25045200  0.87857300  1
  Cu  Cu20  1  0.00000000  0.99998300  0.00000000  1
loop_
_geom_bond_atom_site_label_1
_geom_bond_atom_site_label_2
_geom_bond_distance
_geom_bond_site_symmetry_2
Cu0 Cu12 2.456627 1_465
Cu0 Cu12 2.456627 1_565
Cu0 Cu16 2.456644 1_455
Cu0 Cu16 2.456644 1_555
Cu0 Cu20 2.598065 1_555
Cu0 Cu8 2.605886 1_455
Cu0 Cu8 2.605886 1_555
Cu0 Cu4 2.805823 1_555
Cu0 Cu4 2.805840 1_565
Cu0 Dy0 2.914146 1_555
Cu0 Dy0 2.914163 1_565
Cu0 Cu5 3.046577 1_555
Cu1 Cu13 2.505805 1_555
Cu1 Cu13 2.505805 1_455
Cu1 Cu17 2.505814 1_455
Cu1 Cu17 2.505814 1_555
Cu1 Cu9 2.511095 1_555
Cu1 Cu9 2.511095 1_455
Cu1 Dy1 2.860717 1_545
Cu1 Dy1 2.860743 1_555
Cu1 Cu5 2.861939 1_555
Cu1 Cu5 2.861948 1_545
Cu1 Cu6 2.884009 1_555
Cu1 Dy0 2.945706 1_555
Cu2 Cu6 2.861939 1_555
Cu2 Cu6 2.861948 1_565
Cu2 Dy1 2.886415 1_555
Cu2 Dy2 2.891054 1_565
Cu2 Dy2 2.891087 1_555
Cu2 Cu7 3.046577 1_555
Cu3 Cu4 2.536591 1_556
Cu3 Cu7 2.805822 1_555
Cu3 Cu7 2.805840 1_545
Cu3 Dy2 2.875052 1_555
Cu4 Dy0 2.875052 1_555
Cu5 Cu8 2.512928 1_455
Cu5 Cu8 2.512928 1_555
Cu5 Dy1 2.886415 1_555
Cu5 Dy0 2.891053 1_565
Cu5 Dy0 2.891087 1_555
Cu6 Cu9 2.511095 1_555
Cu6 Cu9 2.511095 1_455
Cu6 Dy1 2.860718 1_545
Cu6 Dy1 2.860743 1_555
Cu6 Dy2 2.945706 1_555
Cu7 Dy2 2.914146 1_555
Cu7 Dy2 2.914162 1_565
Cu8 Dy0 3.214595 1_655
Cu8 Dy0 3.214595 1_555
Cu8 Dy0 3.214640 1_565
Cu8 Dy0 3.214640 1_665
Cu9 Dy1 3.214082 1_645
Cu9 Dy1 3.214082 1_545
Cu9 Dy1 3.214174 1_555
Cu9 Dy1 3.214174 1_655
Cu10 Cu15 2.461454 1_555
Cu10 Cu19 2.461457 1_565
Cu10 Cu18 2.491104 1_555
Cu10 Cu14 2.491158 1_565
Cu10 Cu2 2.512928 1_555
Cu10 Cu2 2.512928 1_655
Cu10 Cu7 2.605886 1_555
Cu10 Cu7 2.605886 1_655
Cu10 Dy2 3.214595 1_555
Cu10 Dy2 3.214595 1_655
Cu10 Dy2 3.214640 1_665
Cu10 Dy2 3.214640 1_565
Cu11 Cu12 2.410942 1_555
Cu11 Cu19 2.410943 1_554
Cu11 Cu15 2.410960 1_554
Cu11 Cu16 2.410960 1_555
Cu11 Cu3 2.415531 1_654
Cu11 Cu3 2.415531 1_554
Cu11 Cu4 2.415531 1_555
Cu11 Cu4 2.415531 1_655
Cu12 Cu8 2.461457 1_545
Cu12 Cu16 2.466029 1_555
Cu12 Cu16 2.475388 1_545
Cu12 Cu4 2.528286 1_555
Cu12 Cu4 2.528286 1_655
Cu12 Dy0 3.168266 1_655
Cu12 Dy0 3.168266 1_555
Cu13 Cu17 2.469690 1_555
Cu13 Cu17 2.471726 1_565
Cu13 Cu8 2.491104 1_555
Cu13 Cu9 2.495599 1_555
Cu13 Cu5 2.503751 1_655
Cu13 Cu5 2.503751 1_555
Cu13 Dy1 3.233690 1_655
Cu13 Dy1 3.233690 1_555
Cu13 Dy0 3.267301 1_655
Cu13 Dy0 3.267301 1_555
Cu14 Cu18 2.469690 1_555
Cu14 Cu18 2.471726 1_545
Cu14 Cu9 2.495555 1_555
Cu14 Cu2 2.503746 1_645
Cu14 Cu2 2.503746 1_545
Cu14 Cu6 2.505814 1_655
Cu14 Cu6 2.505814 1_555
Cu14 Dy1 3.233656 1_645
Cu14 Dy1 3.233656 1_545
Cu14 Dy2 3.267306 1_555
Cu14 Dy2 3.267306 1_655
Cu15 Cu7 2.456644 1_655
Cu15 Cu7 2.456644 1_555
Cu15 Cu19 2.466029 1_555
Cu15 Cu19 2.475388 1_565
Cu15 Cu3 2.528260 1_555
Cu15 Cu3 2.528260 1_655
Cu15 Dy2 3.168245 1_555
Cu15 Dy2 3.168245 1_655
Cu16 Cu8 2.461454 1_555
Cu16 Cu4 2.528260 1_655
Cu16 Cu4 2.528260 1_555
Cu16 Dy0 3.168245 1_655
Cu16 Dy0 3.168245 1_555
Cu17 Cu8 2.491159 1_545
Cu17 Cu9 2.495555 1_555
Cu17 Cu5 2.503746 1_545
Cu17 Cu5 2.503746 1_645
Cu17 Dy1 3.233656 1_645
Cu17 Dy1 3.233656 1_545
Cu17 Dy0 3.267305 1_555
Cu17 Dy0 3.267305 1_655
Cu18 Cu9 2.495599 1_555
Cu18 Cu2 2.503751 1_655
Cu18 Cu2 2.503751 1_555
Cu18 Cu6 2.505805 1_555
Cu18 Cu6 2.505805 1_655
Cu18 Dy1 3.233690 1_555
Cu18 Dy1 3.233690 1_655
Cu18 Dy2 3.267301 1_555
Cu18 Dy2 3.267301 1_655
Cu19 Cu7 2.456627 1_645
Cu19 Cu7 2.456627 1_545
Cu19 Cu3 2.528287 1_655
Cu19 Cu3 2.528287 1_555
Cu19 Dy2 3.168266 1_555
Cu19 Dy2 3.168266 1_655
Cu20 Cu7 2.598065 1_554
Cu20 Cu4 2.777219 1_555
Cu20 Cu3 2.777220 1_554
Cu20 Cu3 2.777228 1_564
Cu20 Cu4 2.777228 1_565
