# generated using pymatgen
data_ErSnPt
_symmetry_space_group_name_H-M   'P 1'
_cell_length_a   7.43404155
_cell_length_b   7.43404155
_cell_length_c   3.98153235
_cell_angle_alpha   90.00000000
_cell_angle_beta   90.00000000
_cell_angle_gamma   119.99998940
_symmetry_Int_Tables_number   1
_chemical_formula_structural   ErSnPt
_chemical_formula_sum   'Er3 Sn3 Pt3'
_cell_volume   190.55962736
_cell_formula_units_Z   3
loop_
 _symmetry_equiv_pos_site_id
 _symmetry_equiv_pos_as_xyz
  1  'x, y, z'
loop_
 _atom_site_type_symbol
 _atom_site_label
 _atom_site_symmetry_multiplicity
 _atom_site_fract_x
 _atom_site_fract_y
 _atom_site_fract_z
 _atom_site_occupancy
  Er  Er0  1  0.40497509  0.40497509  0.50000000  1
  Er  Er1  1  0.59502491  0.00000000  0.50000000  1
  Er  Er2  1  0.00000000  0.59502491  0.50000000  1
  Sn  Sn0  1  0.74005052  0.74005052  -0.00000000  1
  Sn  Sn1  1  0.25994948  1.00000000  0.00000000  1
  Sn  Sn2  1  1.00000000  0.25994948  0.00000000  1
  Pt  Pt0  1  0.66666700  0.33333300  -0.00000000  1
  Pt  Pt1  1  0.33333300  0.66666700  0.00000000  1
  Pt  Pt2  1  0.00000000  0.00000000  0.50000000  1
loop_
_geom_bond_atom_site_label_1
_geom_bond_atom_site_label_2
_geom_bond_distance
_geom_bond_site_symmetry_2
Er0 Pt2 3.010602 1_555
Er0 Pt0 3.011247 1_555
Er0 Pt1 3.011247 1_555
Er0 Pt1 3.011247 1_556
Er0 Pt0 3.011247 1_556
Er0 Sn0 3.188739 1_555
Er0 Sn0 3.188739 1_556
Er0 Sn2 3.308084 1_456
Er0 Sn2 3.308084 1_455
Er0 Sn1 3.308084 1_546
Er0 Sn1 3.308084 1_545
Er1 Pt2 3.010602 1_655
Er1 Pt0 3.011242 1_556
Er1 Pt0 3.011242 1_555
Er1 Pt1 3.011244 1_546
Er1 Pt1 3.011244 1_545
Er1 Sn1 3.188739 1_546
Er1 Sn1 3.188739 1_545
Er1 Sn0 3.308084 1_545
Er1 Sn0 3.308084 1_546
Er1 Sn2 3.308084 1_555
Er1 Sn2 3.308084 1_556
Er2 Pt2 3.010602 1_565
Er2 Pt1 3.011242 1_555
Er2 Pt1 3.011242 1_556
Er2 Pt0 3.011244 1_455
Er2 Pt0 3.011244 1_456
Er2 Sn2 3.188739 1_456
Er2 Sn2 3.188739 1_455
Er2 Sn0 3.308084 1_455
Er2 Sn0 3.308084 1_456
Er2 Sn1 3.308084 1_555
Er2 Sn1 3.308084 1_556
Pt0 Sn2 2.791056 1_555
Pt0 Sn1 2.791061 1_545
Pt0 Sn0 2.791064 1_555
Pt1 Sn1 2.791056 1_555
Pt1 Sn2 2.791061 1_455
Pt1 Sn0 2.791064 1_555
Pt2 Sn2 2.774457 1_455
Pt2 Sn1 2.774457 1_546
Pt2 Sn1 2.774457 1_545
Pt2 Sn2 2.774457 1_456
Pt2 Sn0 2.774457 1_446
Pt2 Sn0 2.774457 1_445
