# generated using pymatgen
data_SrAsO4
_symmetry_space_group_name_H-M   'P 1'
_cell_length_a   9.09067600
_cell_length_b   11.77497229
_cell_length_c   15.45558629
_cell_angle_alpha   106.32557039
_cell_angle_beta   105.03213681
_cell_angle_gamma   88.64034618
_symmetry_Int_Tables_number   1
_chemical_formula_structural   SrAsO4
_chemical_formula_sum   'Sr16 As16 O64'
_cell_volume   1531.20814301
_cell_formula_units_Z   16
loop_
 _symmetry_equiv_pos_site_id
 _symmetry_equiv_pos_as_xyz
  1  'x, y, z'
loop_
 _atom_site_type_symbol
 _atom_site_label
 _atom_site_symmetry_multiplicity
 _atom_site_fract_x
 _atom_site_fract_y
 _atom_site_fract_z
 _atom_site_occupancy
  Sr  Sr0  1  0.70511900  0.51100000  0.47116500  1
  Sr  Sr1  1  0.29488100  0.48900000  0.52883500  1
  Sr  Sr2  1  0.95694100  0.76184900  0.97216700  1
  Sr  Sr3  1  0.04305900  0.23815100  0.02783300  1
  Sr  Sr4  1  0.20953300  0.01657400  0.47574600  1
  Sr  Sr5  1  0.79046700  0.98342600  0.52425400  1
  Sr  Sr6  1  0.45831400  0.26627800  0.97499700  1
  Sr  Sr7  1  0.54168600  0.73372200  0.02500300  1
  Sr  Sr8  1  0.40327900  0.09146800  0.17372800  1
  Sr  Sr9  1  0.59672100  0.90853200  0.82627200  1
  Sr  Sr10  1  0.65244500  0.33932600  0.66990200  1
  Sr  Sr11  1  0.34755500  0.66067400  0.33009800  1
  Sr  Sr12  1  0.90426900  0.59196800  0.17190700  1
  Sr  Sr13  1  0.09573100  0.40803200  0.82809300  1
  Sr  Sr14  1  0.15402000  0.84177000  0.67528000  1
  Sr  Sr15  1  0.84598000  0.15823000  0.32472000  1
  As  As0  1  0.50733500  0.21626500  0.43215800  1
  As  As1  1  0.49266500  0.78373500  0.56784200  1
  As  As2  1  0.75973900  0.46837900  0.93360500  1
  As  As3  1  0.24026100  0.53162100  0.06639500  1
  As  As4  1  0.01060600  0.71945600  0.43702800  1
  As  As5  1  0.98939400  0.28054400  0.56297200  1
  As  As6  1  0.25863800  0.96744000  0.93612600  1
  As  As7  1  0.74136200  0.03256000  0.06387400  1
  As  As8  1  0.60959900  0.40684100  0.22054500  1
  As  As9  1  0.39040100  0.59315900  0.77945500  1
  As  As10  1  0.85688500  0.65177600  0.72211100  1
  As  As11  1  0.14311500  0.34822400  0.27788900  1
  As  As12  1  0.10819200  0.90341200  0.22312000  1
  As  As13  1  0.89180800  0.09658800  0.77688000  1
  As  As14  1  0.35995600  0.15616400  0.72133200  1
  As  As15  1  0.64004400  0.84383600  0.27866800  1
  O  O0  1  0.32303600  0.15089100  0.39978800  1
  O  O1  1  0.67696400  0.84910900  0.60021200  1
  O  O2  1  0.57694900  0.40309600  0.90620800  1
  O  O3  1  0.42305100  0.59690400  0.09379200  1
  O  O4  1  0.82724700  0.65570200  0.41045900  1
  O  O5  1  0.17275300  0.34429800  0.58954100  1
  O  O6  1  0.07336000  0.90410700  0.90543300  1
  O  O7  1  0.92664000  0.09589300  0.09456700  1
  O  O8  1  0.51551700  0.36265800  0.49585200  1
  O  O9  1  0.48448300  0.63734200  0.50414800  1
  O  O10  1  0.76783100  0.61553300  0.99576300  1
  O  O11  1  0.23216900  0.38446700  0.00423700  1
  O  O12  1  0.02061300  0.86639800  0.49899100  1
  O  O13  1  0.97938700  0.13360200  0.50100900  1
  O  O14  1  0.26945300  0.11428200  0.99920000  1
  O  O15  1  0.73054700  0.88571800  0.00080000  1
  O  O16  1  0.57126100  0.19973000  0.33506800  1
  O  O17  1  0.42873900  0.80027000  0.66493200  1
  O  O18  1  0.81726000  0.44853100  0.83372400  1
  O  O19  1  0.18274000  0.55146900  0.16627600  1
  O  O20  1  0.06873100  0.69901400  0.33739800  1
  O  O21  1  0.93126900  0.30098600  0.66260200  1
  O  O22  1  0.32212200  0.94852800  0.83847000  1
  O  O23  1  0.67787800  0.05147200  0.16153000  1
  O  O24  1  0.61035600  0.14356200  0.50801600  1
  O  O25  1  0.38964400  0.85643800  0.49198400  1
  O  O26  1  0.86774700  0.40024500  0.01141400  1
  O  O27  1  0.13225300  0.59975500  0.98858600  1
  O  O28  1  0.11497100  0.64964600  0.51494100  1
  O  O29  1  0.88502900  0.35035400  0.48505900  1
  O  O30  1  0.35783200  0.89345700  0.01245600  1
  O  O31  1  0.64216800  0.10654300  0.98754400  1
  O  O32  1  0.64513100  0.47508000  0.14167300  1
  O  O33  1  0.35486900  0.52492000  0.85832700  1
  O  O34  1  0.89754300  0.73847400  0.65665400  1
  O  O35  1  0.10245700  0.26152600  0.34334600  1
  O  O36  1  0.14730700  0.98878600  0.15632100  1
  O  O37  1  0.85269300  0.01121400  0.84367900  1
  O  O38  1  0.39406300  0.22272400  0.64115200  1
  O  O39  1  0.60593700  0.77727600  0.35884800  1
  O  O40  1  0.53548900  0.49463800  0.30546000  1
  O  O41  1  0.46451100  0.50536200  0.69454000  1
  O  O42  1  0.77340000  0.73308000  0.80621100  1
  O  O43  1  0.22660000  0.26692000  0.19378900  1
  O  O44  1  0.02598200  0.98440400  0.30802600  1
  O  O45  1  0.97401800  0.01559600  0.69197400  1
  O  O46  1  0.28800500  0.24412600  0.80710500  1
  O  O47  1  0.71199500  0.75587400  0.19289500  1
  O  O48  1  0.78137000  0.36223800  0.28148200  1
  O  O49  1  0.21863000  0.63776200  0.71851800  1
  O  O50  1  0.02762800  0.61442600  0.79022300  1
  O  O51  1  0.97237200  0.38557400  0.20977700  1
  O  O52  1  0.27917900  0.86533100  0.29049100  1
  O  O53  1  0.72082100  0.13466900  0.70950900  1
  O  O54  1  0.53210000  0.11047700  0.78107500  1
  O  O55  1  0.46790000  0.88952300  0.21892500  1
  O  O56  1  0.49193600  0.28571800  0.15130300  1
  O  O57  1  0.50806400  0.71428200  0.84869700  1
  O  O58  1  0.75028800  0.53068700  0.64557900  1
  O  O59  1  0.24971200  0.46931300  0.35442100  1
  O  O60  1  0.00043800  0.78232400  0.14716400  1
  O  O61  1  0.99956200  0.21767600  0.85283600  1
  O  O62  1  0.24055900  0.03551600  0.65278000  1
  O  O63  1  0.75944100  0.96448400  0.34722000  1
loop_
_geom_bond_atom_site_label_1
_geom_bond_atom_site_label_2
_geom_bond_distance
_geom_bond_site_symmetry_2
As0 O16 1.705899 1_555
As0 O24 1.714992 1_555
As0 O8 1.720503 1_555
As0 O0 1.749208 1_555
As1 O17 1.705899 1_555
As1 O25 1.714992 1_555
As1 O9 1.720503 1_555
As1 O1 1.749208 1_555
As2 O18 1.709156 1_555
As2 O26 1.716520 1_556
As2 O10 1.721703 1_555
As2 O2 1.744720 1_555
As3 O19 1.709156 1_555
As3 O27 1.716520 1_554
As3 O11 1.721703 1_555
As3 O3 1.744720 1_555
As4 O20 1.707599 1_555
As4 O12 1.717518 1_555
As4 O28 1.718358 1_555
As4 O4 1.744023 1_455
As5 O21 1.707599 1_555
As5 O13 1.717518 1_555
As5 O29 1.718358 1_555
As5 O5 1.744023 1_655
As6 O22 1.708071 1_555
As6 O30 1.718272 1_556
As6 O14 1.720576 1_565
As6 O6 1.750518 1_555
As7 O23 1.708071 1_555
As7 O31 1.718272 1_554
As7 O15 1.720576 1_545
As7 O7 1.750518 1_555
As8 O40 1.705254 1_555
As8 O56 1.715822 1_555
As8 O32 1.732970 1_555
As8 O48 1.754275 1_555
As9 O41 1.705254 1_555
As9 O57 1.715822 1_555
As9 O33 1.732970 1_555
As9 O49 1.754275 1_555
As10 O58 1.701168 1_555
As10 O42 1.720370 1_555
As10 O34 1.730537 1_555
As10 O50 1.758167 1_655
As11 O59 1.701168 1_555
As11 O43 1.720370 1_555
As11 O35 1.730537 1_555
As11 O51 1.758167 1_455
As12 O60 1.702756 1_555
As12 O44 1.720874 1_555
As12 O36 1.730253 1_555
As12 O52 1.758197 1_555
As13 O61 1.702756 1_555
As13 O45 1.720874 1_555
As13 O37 1.730253 1_555
As13 O53 1.758197 1_555
As14 O46 1.704030 1_555
As14 O62 1.717351 1_555
As14 O38 1.732898 1_555
As14 O54 1.755192 1_555
As15 O47 1.704030 1_555
As15 O63 1.717351 1_555
As15 O39 1.732898 1_555
As15 O55 1.755192 1_555
O0 Sr4 2.587255 1_555
O1 Sr5 2.587255 1_555
O2 Sr6 2.555190 1_555
O3 Sr7 2.555190 1_555
O4 Sr0 2.558301 1_555
O5 Sr1 2.558301 1_555
O6 Sr2 2.571269 1_455
O7 Sr3 2.571269 1_655
O8 Sr1 2.541341 1_555
O8 Sr0 2.650688 1_555
O8 Sr10 2.742917 1_555
O9 Sr0 2.541341 1_555
O9 Sr1 2.650688 1_555
O9 Sr11 2.742917 1_555
O10 Sr7 2.521888 1_556
O10 Sr2 2.622157 1_555
O10 Sr12 2.771948 1_556
O11 Sr6 2.521888 1_554
O11 Sr3 2.622157 1_555
O11 Sr13 2.771948 1_554
O12 Sr5 2.532393 1_455
O12 Sr4 2.650821 1_565
O12 Sr14 2.773460 1_555
O13 Sr4 2.532393 1_655
O13 Sr5 2.650821 1_545
O13 Sr15 2.773460 1_555
O14 Sr3 2.554604 1_556
O14 Sr6 2.673225 1_555
O14 Sr8 2.741892 1_556
O15 Sr2 2.554604 1_554
O15 Sr7 2.673225 1_555
O15 Sr9 2.741892 1_554
O16 Sr8 2.550514 1_555
O16 Sr15 2.570334 1_555
O17 Sr9 2.550514 1_555
O17 Sr14 2.570334 1_555
O18 Sr10 2.569517 1_555
O18 Sr13 2.584006 1_655
O19 Sr11 2.569517 1_555
O19 Sr12 2.584006 1_455
O20 Sr12 2.580598 1_455
O20 Sr11 2.589718 1_555
O21 Sr13 2.580598 1_655
O21 Sr10 2.589718 1_555
O22 Sr14 2.566390 1_555
O22 Sr9 2.574338 1_555
O23 Sr15 2.566390 1_555
O23 Sr8 2.574338 1_555
O24 Sr5 2.491122 1_545
O24 Sr10 2.832492 1_555
O25 Sr4 2.491122 1_565
O25 Sr11 2.832492 1_555
O26 Sr3 2.483023 1_655
O26 Sr12 2.796396 1_555
O27 Sr2 2.483023 1_455
O27 Sr13 2.796396 1_555
O28 Sr1 2.489681 1_555
O28 Sr14 2.795535 1_555
O29 Sr0 2.489681 1_555
O29 Sr15 2.795535 1_555
O30 Sr7 2.501295 1_555
O30 Sr8 2.839733 1_565
O31 Sr6 2.501295 1_555
O31 Sr9 2.839733 1_545
O32 Sr12 2.623643 1_555
O33 Sr13 2.623643 1_555
O34 Sr14 2.566704 1_655
O35 Sr15 2.566704 1_455
O36 Sr8 2.564155 1_565
O37 Sr9 2.564155 1_545
O38 Sr10 2.620759 1_555
O38 Sr4 3.117979 1_555
O39 Sr11 2.620759 1_555
O39 Sr5 3.117979 1_555
O40 Sr11 2.578082 1_555
O40 Sr0 2.581129 1_555
O41 Sr10 2.578082 1_555
O41 Sr1 2.581129 1_555
O42 Sr9 2.585468 1_555
O42 Sr2 2.606922 1_555
O43 Sr8 2.585468 1_555
O43 Sr3 2.606922 1_555
O44 Sr15 2.587802 1_465
O44 Sr4 2.623277 1_565
O45 Sr14 2.587802 1_645
O45 Sr5 2.623277 1_545
O46 Sr13 2.582110 1_555
O46 Sr6 2.598673 1_555
O47 Sr12 2.582110 1_555
O47 Sr7 2.598673 1_555
O48 Sr15 2.682163 1_555
O49 Sr14 2.682163 1_555
O50 Sr13 2.678146 1_555
O51 Sr12 2.678146 1_555
O52 Sr11 2.670065 1_555
O52 Sr4 3.128998 1_565
O53 Sr10 2.670065 1_555
O53 Sr5 3.128998 1_545
O54 Sr9 2.672478 1_545
O55 Sr8 2.672478 1_565
O56 Sr8 2.584460 1_555
O56 Sr6 2.606070 1_554
O57 Sr9 2.584460 1_555
O57 Sr7 2.606070 1_556
O58 Sr0 2.562816 1_555
O58 Sr10 2.598933 1_555
O59 Sr1 2.562816 1_555
O59 Sr11 2.598933 1_555
O60 Sr2 2.571566 1_454
O60 Sr12 2.585127 1_455
O61 Sr3 2.571566 1_656
O61 Sr13 2.585127 1_655
O62 Sr14 2.572448 1_545
O62 Sr4 2.622113 1_555
O63 Sr15 2.572448 1_565
O63 Sr5 2.622113 1_555
