# generated using pymatgen
data_BaLiAl3P2(HO7)2
_symmetry_space_group_name_H-M   'P 1'
_cell_length_a   7.23731770
_cell_length_b   7.23732240
_cell_length_c   7.94505735
_cell_angle_alpha   61.31382426
_cell_angle_beta   118.69191629
_cell_angle_gamma   127.02115657
_symmetry_Int_Tables_number   1
_chemical_formula_structural   BaLiAl3P2(HO7)2
_chemical_formula_sum   'Ba1 Li1 Al3 P2 H2 O14'
_cell_volume   280.42425445
_cell_formula_units_Z   1
loop_
 _symmetry_equiv_pos_site_id
 _symmetry_equiv_pos_as_xyz
  1  'x, y, z'
loop_
 _atom_site_type_symbol
 _atom_site_label
 _atom_site_symmetry_multiplicity
 _atom_site_fract_x
 _atom_site_fract_y
 _atom_site_fract_z
 _atom_site_occupancy
  Ba  Ba0  1  0.95885600  0.04080100  0.98567800  1
  Li  Li0  1  0.27608000  0.72332200  0.20751700  1
  Al  Al0  1  0.99513400  0.00445900  0.49166800  1
  Al  Al1  1  0.49568400  0.01279600  0.48546900  1
  Al  Al2  1  0.98676600  0.50389900  0.48548900  1
  P  P0  1  0.26746000  0.73228200  0.83614300  1
  P  P1  1  0.71955600  0.27998900  0.12922300  1
  H  H0  1  0.40124300  0.59827100  0.59735000  1
  H  H1  1  0.66552500  0.33404400  0.62313100  1
  O  O0  1  0.34425000  0.65562500  0.06070100  1
  O  O1  1  0.65282500  0.34670500  0.90647300  1
  O  O2  1  0.12724900  0.87246000  0.74982400  1
  O  O3  1  0.86298700  0.13664100  0.22889100  1
  O  O4  1  0.10350800  0.50537000  0.75435800  1
  O  O5  1  0.49432300  0.89619100  0.75432800  1
  O  O6  1  0.49072900  0.10979400  0.21495600  1
  O  O7  1  0.88973200  0.50881500  0.21497000  1
  O  O8  1  0.31826300  0.68127700  0.47868100  1
  O  O9  1  0.67384700  0.32572600  0.50738000  1
  O  O10  1  0.78154200  0.98133300  0.58470100  1
  O  O11  1  0.01826400  0.21806300  0.58472700  1
  O  O12  1  0.96838200  0.79376000  0.38989000  1
  O  O13  1  0.20577900  0.03112700  0.38988100  1
loop_
_geom_bond_atom_site_label_1
_geom_bond_atom_site_label_2
_geom_bond_distance
_geom_bond_site_symmetry_2
Ba0 O5 2.729977 1_545
Ba0 O4 2.730342 1_655
Ba0 O3 2.801805 1_556
Ba0 O13 2.817076 1_656
Ba0 O12 2.817545 1_546
Ba0 O11 2.950611 1_655
Ba0 O10 2.950753 1_545
Ba0 O6 3.195416 1_656
Ba0 O7 3.196048 1_546
Li0 O0 1.799006 1_555
Li0 O8 1.917877 1_555
Li0 O7 2.252845 1_455
Li0 O6 2.253485 1_565
Al0 O2 1.835630 1_645
Al0 O3 1.858968 1_555
Al0 O10 1.905455 1_545
Al0 O11 1.905615 1_655
Al0 O12 1.922135 1_545
Al0 O13 1.922238 1_655
Al1 O9 1.862381 1_555
Al1 O5 1.885414 1_545
Al1 O6 1.902940 1_555
Al1 O13 1.924837 1_555
Al1 O8 1.938069 1_545
Al1 O10 1.944822 1_545
Al2 O9 1.862281 1_555
Al2 O4 1.885527 1_655
Al2 O7 1.902962 1_555
Al2 O12 1.924797 1_555
Al2 O8 1.938019 1_655
Al2 O11 1.944874 1_655
H0 O8 0.978519 1_555
H1 O9 0.981685 1_555
O0 P0 1.506232 1_554
O1 P1 1.496061 1_556
O2 P0 1.559755 1_555
O3 P1 1.581083 1_555
O4 P0 1.569919 1_555
O5 P0 1.569895 1_555
O6 P1 1.595315 1_555
O7 P1 1.595272 1_555
O10 O11 1.528341 1_665
O12 O13 1.532576 1_665
