# generated using pymatgen
data_Ta2Bi2O9
_symmetry_space_group_name_H-M   'P 1'
_cell_length_a   12.45523286
_cell_length_b   12.45523286
_cell_length_c   5.53818500
_cell_angle_alpha   90.00000000
_cell_angle_beta   90.00000000
_cell_angle_gamma   154.91571544
_symmetry_Int_Tables_number   1
_chemical_formula_structural   Ta2Bi2O9
_chemical_formula_sum   'Ta4 Bi4 O18'
_cell_volume   364.23933835
_cell_formula_units_Z   2
loop_
 _symmetry_equiv_pos_site_id
 _symmetry_equiv_pos_as_xyz
  1  'x, y, z'
loop_
 _atom_site_type_symbol
 _atom_site_label
 _atom_site_symmetry_multiplicity
 _atom_site_fract_x
 _atom_site_fract_y
 _atom_site_fract_z
 _atom_site_occupancy
  Ta  Ta0  1  0.82413500  0.67010900  0.04275600  1
  Ta  Ta1  1  0.17586500  0.32989100  0.54275600  1
  Ta  Ta2  1  0.32989100  0.17586500  0.54275600  1
  Ta  Ta3  1  0.67010900  0.82413500  0.04275600  1
  Bi  Bi0  1  0.02428300  0.41474600  0.93883300  1
  Bi  Bi1  1  0.41474600  0.02428300  0.93883300  1
  Bi  Bi2  1  0.58525400  0.97571700  0.43883300  1
  Bi  Bi3  1  0.97571700  0.58525400  0.43883300  1
  O  O0  1  0.68681700  0.00722200  0.06088600  1
  O  O1  1  0.56801400  0.36561700  0.83969500  1
  O  O2  1  0.66780500  0.66780500  0.07060200  1
  O  O3  1  0.33219500  0.33219500  0.57060200  1
  O  O4  1  0.36561700  0.56801400  0.83969500  1
  O  O5  1  0.26718500  0.75630600  0.22166900  1
  O  O6  1  0.99277800  0.31318300  0.56088600  1
  O  O7  1  0.95323100  0.09478100  0.28644400  1
  O  O8  1  0.09478100  0.95323100  0.28644400  1
  O  O9  1  0.63438300  0.43198600  0.33969500  1
  O  O10  1  0.31318300  0.99277800  0.56088600  1
  O  O11  1  0.04676900  0.90521900  0.78644400  1
  O  O12  1  0.73281500  0.24369400  0.72166900  1
  O  O13  1  0.43198600  0.63438300  0.33969500  1
  O  O14  1  0.24369400  0.73281500  0.72166900  1
  O  O15  1  0.90521900  0.04676900  0.78644400  1
  O  O16  1  0.00722200  0.68681700  0.06088600  1
  O  O17  1  0.75630600  0.26718500  0.22166900  1
loop_
_geom_bond_atom_site_label_1
_geom_bond_atom_site_label_2
_geom_bond_distance
_geom_bond_site_symmetry_2
Bi0 O14 2.235760 1_555
Bi0 O12 2.270424 1_455
Bi0 O6 2.288292 1_455
Bi0 O0 2.289691 1_456
Bi0 O17 2.420777 1_456
Bi0 O5 2.528116 1_556
Bi0 O4 2.705404 1_555
Bi1 O12 2.235760 1_555
Bi1 O14 2.270424 1_545
Bi1 O10 2.288292 1_545
Bi1 O16 2.289691 1_546
Bi1 O5 2.420777 1_546
Bi1 O17 2.528116 1_556
Bi1 O1 2.705404 1_555
Bi2 O5 2.235760 1_555
Bi2 O17 2.270424 1_565
Bi2 O0 2.288292 1_565
Bi2 O6 2.289691 1_565
Bi2 O12 2.420777 1_565
Bi2 O14 2.528116 1_555
Bi2 O13 2.705404 1_555
Bi3 O17 2.235760 1_555
Bi3 O5 2.270424 1_655
Bi3 O16 2.288292 1_655
Bi3 O10 2.289691 1_655
Bi3 O14 2.420777 1_655
Bi3 O12 2.528116 1_555
Bi3 O9 2.705404 1_555
O0 Ta3 2.096182 1_545
O1 Ta0 1.977315 1_556
O1 Ta2 2.095132 1_555
O2 Ta3 1.927354 1_555
O2 Ta0 1.927354 1_555
O3 Ta2 1.927354 1_555
O3 Ta1 1.927354 1_555
O4 Ta3 1.977315 1_556
O4 Ta1 2.095132 1_555
O6 Ta1 2.096182 1_655
O7 Ta1 1.889668 1_655
O7 Ta3 2.021834 1_545
O8 Ta2 1.889668 1_565
O8 Ta0 2.021834 1_455
O9 Ta2 1.977315 1_555
O9 Ta0 2.095132 1_555
O10 Ta2 2.096182 1_565
O11 Ta0 1.889668 1_456
O11 Ta2 2.021834 1_565
O13 Ta1 1.977315 1_555
O13 Ta3 2.095132 1_555
O15 Ta3 1.889668 1_546
O15 Ta1 2.021834 1_655
O16 Ta0 2.096182 1_455
