# generated using pymatgen
data_V3Zn2O8
_symmetry_space_group_name_H-M   'P 1'
_cell_length_a   4.99611142
_cell_length_b   5.83702189
_cell_length_c   5.83701836
_cell_angle_alpha   61.26083255
_cell_angle_beta   100.70906202
_cell_angle_gamma   100.70911095
_symmetry_Int_Tables_number   1
_chemical_formula_structural   V3Zn2O8
_chemical_formula_sum   'V3 Zn2 O8'
_cell_volume   145.73139486
_cell_formula_units_Z   1
loop_
 _symmetry_equiv_pos_site_id
 _symmetry_equiv_pos_as_xyz
  1  'x, y, z'
loop_
 _atom_site_type_symbol
 _atom_site_label
 _atom_site_symmetry_multiplicity
 _atom_site_fract_x
 _atom_site_fract_y
 _atom_site_fract_z
 _atom_site_occupancy
  V  V0  1  0.00000500  0.26256900  0.73742900  1
  V  V1  1  0.49999700  0.00017500  0.99982600  1
  V  V2  1  0.99999900  0.73727200  0.26272900  1
  Zn  Zn0  1  0.59645100  0.70986900  0.70961900  1
  Zn  Zn1  1  0.40354800  0.29038100  0.29013000  1
  O  O0  1  0.11348400  0.39589500  0.39615300  1
  O  O1  1  0.88651500  0.60384700  0.60410500  1
  O  O2  1  0.14237500  0.90025400  0.90058000  1
  O  O3  1  0.85762500  0.09941800  0.09974800  1
  O  O4  1  0.35800200  0.34621500  0.89210800  1
  O  O5  1  0.35789100  0.89200500  0.34580500  1
  O  O6  1  0.64199400  0.10789800  0.65378200  1
  O  O7  1  0.64211100  0.65419800  0.10798900  1
loop_
_geom_bond_atom_site_label_1
_geom_bond_atom_site_label_2
_geom_bond_distance
_geom_bond_site_symmetry_2
O0 V0 1.913173 1_555
O0 V2 1.913634 1_455
O0 Zn1 1.973323 1_555
O1 V0 1.913210 1_655
O1 V2 1.913623 1_555
O1 Zn0 1.973320 1_555
O2 V1 1.849617 1_565
O2 V2 2.062264 1_456
O2 V0 2.062998 1_565
O3 V1 1.849639 1_554
O3 V2 2.062247 1_545
O3 V0 2.063039 1_654
O4 V0 1.936962 1_555
O4 V1 2.030732 1_555
O4 Zn0 2.101674 1_555
O4 Zn1 2.158357 1_556
O5 V2 1.935667 1_455
O5 V1 2.030056 1_564
O5 Zn0 2.102295 1_555
O5 Zn1 2.160677 1_565
O6 V0 1.936999 1_655
O6 V1 2.030749 1_555
O6 Zn1 2.101655 1_555
O6 Zn0 2.158393 1_545
O7 V2 1.935665 1_555
O7 V1 2.030075 1_564
O7 Zn1 2.102317 1_555
O7 Zn0 2.160649 1_554
