# generated using pymatgen
data_Sr12Y4Fe8Co8O43
_symmetry_space_group_name_H-M   'P 1'
_cell_length_a   15.41961800
_cell_length_b   7.89172600
_cell_length_c   7.89724043
_cell_angle_alpha   89.93931054
_cell_angle_beta   90.00000000
_cell_angle_gamma   90.00000000
_symmetry_Int_Tables_number   1
_chemical_formula_structural   Sr12Y4Fe8Co8O43
_chemical_formula_sum   'Sr12 Y4 Fe8 Co8 O43'
_cell_volume   960.99411824
_cell_formula_units_Z   1
loop_
 _symmetry_equiv_pos_site_id
 _symmetry_equiv_pos_as_xyz
  1  'x, y, z'
loop_
 _atom_site_type_symbol
 _atom_site_label
 _atom_site_symmetry_multiplicity
 _atom_site_fract_x
 _atom_site_fract_y
 _atom_site_fract_z
 _atom_site_occupancy
  Sr  Sr0  1  0.87850000  0.49917200  0.47617600  1
  Sr  Sr1  1  0.87281300  0.99999800  0.49637400  1
  Sr  Sr2  1  0.62930000  0.99970500  0.50371000  1
  Sr  Sr3  1  0.38108900  0.00243000  0.97235800  1
  Sr  Sr4  1  0.37038600  0.50039300  0.00306500  1
  Sr  Sr5  1  0.13020400  0.49979800  0.00921100  1
  Sr  Sr6  1  0.86979600  0.49979800  0.00921100  1
  Sr  Sr7  1  0.62961400  0.50039300  0.00306500  1
  Sr  Sr8  1  0.61891100  0.00243000  0.97235800  1
  Sr  Sr9  1  0.37070000  0.99970500  0.50371000  1
  Sr  Sr10  1  0.12718700  0.99999800  0.49637400  1
  Sr  Sr11  1  0.12150000  0.49917200  0.47617600  1
  Y  Y0  1  0.64513000  0.49898100  0.51208200  1
  Y  Y1  1  0.15192400  0.99913200  0.01008400  1
  Y  Y2  1  0.84807600  0.99913200  0.01008400  1
  Y  Y3  1  0.35487000  0.49898100  0.51208200  1
  Fe  Fe0  1  0.74828400  0.74986300  0.25128900  1
  Fe  Fe1  1  0.74823200  0.25041200  0.25164100  1
  Fe  Fe2  1  0.24552500  0.25016100  0.75209500  1
  Fe  Fe3  1  0.24589400  0.74987300  0.75134700  1
  Fe  Fe4  1  0.75410600  0.74987300  0.75134700  1
  Fe  Fe5  1  0.75447500  0.25016100  0.75209500  1
  Fe  Fe6  1  0.25176800  0.25041200  0.25164100  1
  Fe  Fe7  1  0.25171600  0.74986300  0.25128900  1
  Co  Co0  1  0.00000000  0.73412700  0.74467100  1
  Co  Co1  1  0.00000000  0.26493300  0.74450500  1
  Co  Co2  1  0.50000000  0.23840000  0.23393200  1
  Co  Co3  1  0.50000000  0.76232900  0.23411100  1
  Co  Co4  1  0.00000000  0.75171100  0.25156300  1
  Co  Co5  1  0.00000000  0.24855200  0.24786100  1
  Co  Co6  1  0.50000000  0.27536900  0.73502000  1
  Co  Co7  1  0.50000000  0.73832800  0.73806600  1
  O  O0  1  0.73541500  0.00017700  0.24444100  1
  O  O1  1  0.60920800  0.29600300  0.30537900  1
  O  O2  1  0.60835500  0.70176800  0.30555800  1
  O  O3  1  0.00000000  0.22687600  0.51134100  1
  O  O4  1  0.00000000  0.77097000  0.51127100  1
  O  O5  1  0.76453400  0.25337100  0.50172100  1
  O  O6  1  0.76346100  0.74665700  0.50182900  1
  O  O7  1  0.23626100  0.50004300  0.74773800  1
  O  O8  1  0.11260300  0.20428700  0.80461400  1
  O  O9  1  0.11261500  0.79626400  0.80408900  1
  O  O10  1  0.00000000  0.49959800  0.80833700  1
  O  O11  1  0.61882500  0.72193900  0.70845200  1
  O  O12  1  0.62015200  0.27650300  0.71249100  1
  O  O13  1  0.76373900  0.50004300  0.74773800  1
  O  O14  1  0.74260200  0.99974800  0.75699500  1
  O  O15  1  0.88739700  0.20428700  0.80461400  1
  O  O16  1  0.88738500  0.79626400  0.80408900  1
  O  O17  1  0.50000000  0.71797400  0.99434400  1
  O  O18  1  0.26856600  0.75820900  0.00000700  1
  O  O19  1  0.26654700  0.24182300  0.00143200  1
  O  O20  1  0.73143400  0.75820900  0.00000700  1
  O  O21  1  0.73345300  0.24182300  0.00143200  1
  O  O22  1  0.00000000  0.99868100  0.03778100  1
  O  O23  1  0.50000000  0.00032000  0.28006000  1
  O  O24  1  0.12356000  0.23135800  0.20956000  1
  O  O25  1  0.12450200  0.77037600  0.20618400  1
  O  O26  1  0.26458500  0.00017700  0.24444100  1
  O  O27  1  0.24806600  0.49939600  0.25580800  1
  O  O28  1  0.39164500  0.70176800  0.30555800  1
  O  O29  1  0.39079200  0.29600300  0.30537900  1
  O  O30  1  0.00000000  0.49461600  0.23491500  1
  O  O31  1  0.87549800  0.77037600  0.20618400  1
  O  O32  1  0.87644000  0.23135800  0.20956000  1
  O  O33  1  0.00000000  0.00612400  0.22498900  1
  O  O34  1  0.75193400  0.49939600  0.25580800  1
  O  O35  1  0.23546600  0.25337100  0.50172100  1
  O  O36  1  0.23653900  0.74665700  0.50182900  1
  O  O37  1  0.50000000  0.49331900  0.59584600  1
  O  O38  1  0.50000000  0.99898800  0.72499500  1
  O  O39  1  0.37984800  0.27650300  0.71249100  1
  O  O40  1  0.38117500  0.72193900  0.70845200  1
  O  O41  1  0.25739800  0.99974800  0.75699500  1
  O  O42  1  0.50000000  0.28520400  0.99523200  1
loop_
_geom_bond_atom_site_label_1
_geom_bond_atom_site_label_2
_geom_bond_distance
_geom_bond_site_symmetry_2
Fe0 O34 1.977702 1_555
Fe0 O0 1.986031 1_565
Fe0 O6 1.992501 1_555
Fe0 O31 2.000202 1_555
Fe0 O20 2.002386 1_555
Fe0 O2 2.232231 1_555
Fe1 O34 1.966053 1_555
Fe1 O0 1.985525 1_555
Fe1 O21 1.990284 1_555
Fe1 O5 1.991036 1_555
Fe1 O32 2.010314 1_555
Fe1 O1 2.214793 1_555
Fe2 O7 1.977430 1_555
Fe2 O35 1.983473 1_555
Fe2 O41 1.984989 1_545
Fe2 O19 1.996593 1_556
Fe2 O39 2.104948 1_555
Fe2 O8 2.122181 1_555
Fe3 O36 1.975966 1_555
Fe3 O7 1.977413 1_555
Fe3 O41 1.980457 1_555
Fe3 O18 1.995756 1_556
Fe3 O40 2.124812 1_555
Fe3 O9 2.128691 1_555
Fe4 O6 1.975966 1_555
Fe4 O13 1.977413 1_555
Fe4 O14 1.980457 1_555
Fe4 O20 1.995756 1_556
Fe4 O11 2.124812 1_555
Fe4 O16 2.128691 1_555
Fe5 O13 1.977430 1_555
Fe5 O5 1.983473 1_555
Fe5 O14 1.984989 1_545
Fe5 O21 1.996593 1_556
Fe5 O12 2.104948 1_555
Fe5 O15 2.122181 1_555
Fe6 O27 1.966053 1_555
Fe6 O26 1.985525 1_555
Fe6 O19 1.990284 1_555
Fe6 O35 1.991036 1_555
Fe6 O24 2.010314 1_555
Fe6 O29 2.214793 1_555
Fe7 O27 1.977702 1_555
Fe7 O26 1.986031 1_565
Fe7 O36 1.992501 1_555
Fe7 O25 2.000202 1_555
Fe7 O18 2.002386 1_555
Fe7 O28 2.232231 1_555
Co0 O9 1.864537 1_555
Co0 O16 1.864537 1_455
Co0 O4 1.865703 1_555
Co0 O10 1.917401 1_555
Co1 O8 1.862427 1_555
Co1 O15 1.862427 1_455
Co1 O3 1.865999 1_555
Co1 O10 1.919810 1_555
Co2 O1 1.833365 1_555
Co2 O29 1.833365 1_555
Co2 O23 1.913472 1_555
Co2 O42 1.920533 1_554
Co3 O2 1.826952 1_555
Co3 O28 1.826952 1_555
Co3 O23 1.913270 1_565
Co3 O17 1.925945 1_554
Co4 O25 1.958454 1_555
Co4 O31 1.958454 1_455
Co4 O33 2.018475 1_565
Co4 O30 2.033318 1_555
Co4 O4 2.056761 1_555
Co5 O33 1.921873 1_555
Co5 O32 1.933897 1_455
Co5 O24 1.933897 1_555
Co5 O30 1.944451 1_555
Co5 O3 2.087604 1_555
Co6 O12 1.861242 1_555
Co6 O39 1.861242 1_555
Co6 O37 2.040196 1_555
Co6 O42 2.056504 1_555
Co6 O38 2.182643 1_545
Co7 O11 1.851641 1_555
Co7 O40 1.851641 1_555
Co7 O17 2.030084 1_555
Co7 O38 2.059536 1_555
Co7 O37 2.237107 1_555
O0 Y2 2.538364 1_545
O0 Sr2 2.620995 1_545
O0 Sr8 2.800784 1_554
O0 Sr1 2.906368 1_545
O1 Y0 2.354344 1_555
O1 Sr2 2.830031 1_545
O1 Sr7 2.896979 1_555
O2 Y0 2.353120 1_555
O2 Sr2 2.844149 1_555
O2 Sr7 2.889238 1_555
O3 Sr10 2.658264 1_545
O3 Sr1 2.658264 1_445
O3 Sr0 2.864176 1_455
O3 Sr11 2.864176 1_555
O4 Sr10 2.669529 1_555
O4 Sr1 2.669529 1_455
O4 Sr0 2.861616 1_455
O4 Sr11 2.861616 1_555
O5 Sr1 2.605340 1_545
O5 Sr0 2.625036 1_555
O5 Y0 2.674672 1_555
O5 Sr2 2.890662 1_545
O6 Sr1 2.615726 1_555
O6 Sr0 2.646316 1_555
O6 Y0 2.675048 1_555
O6 Sr2 2.875378 1_555
O7 Y3 2.609299 1_555
O7 Sr5 2.634059 1_556
O7 Sr11 2.780419 1_555
O7 Sr4 2.888438 1_556
O8 Y1 2.369869 1_546
O8 Sr5 2.851482 1_556
O8 Sr10 2.929778 1_545
O9 Y1 2.362731 1_556
O9 Sr5 2.857177 1_556
O9 Sr10 2.921071 1_555
O10 Sr6 2.558781 1_456
O10 Sr5 2.558781 1_556
O10 Sr0 3.223494 1_455
O10 Sr11 3.223494 1_555
O11 Y0 2.381417 1_555
O11 Sr2 2.727276 1_555
O11 Sr7 2.913606 1_556
O11 Sr8 3.041909 1_565
O12 Y0 2.393728 1_555
O12 Sr2 2.741845 1_545
O12 Sr7 2.901299 1_556
O12 Sr8 2.980066 1_555
O13 Y0 2.609299 1_555
O13 Sr6 2.634059 1_556
O13 Sr0 2.780419 1_555
O13 Sr7 2.888438 1_556
O14 Sr8 2.555548 1_565
O14 Y2 2.576800 1_556
O14 Sr2 2.655801 1_555
O14 Sr1 2.875309 1_555
O15 Y2 2.369869 1_546
O15 Sr6 2.851482 1_556
O15 Sr1 2.929778 1_545
O16 Y2 2.362731 1_556
O16 Sr6 2.857177 1_556
O16 Sr1 2.921071 1_555
O17 Sr4 2.635770 1_556
O17 Sr7 2.635770 1_556
O17 Sr8 2.903553 1_565
O17 Sr3 2.903553 1_565
O18 Sr4 2.570041 1_555
O18 Sr3 2.602270 1_564
O18 Y1 2.618485 1_555
O18 Sr5 2.952207 1_555
O19 Sr4 2.593806 1_555
O19 Sr3 2.596583 1_554
O19 Y1 2.606997 1_545
O19 Sr5 2.927235 1_555
O20 Sr7 2.570041 1_555
O20 Sr8 2.602270 1_564
O20 Y2 2.618485 1_555
O20 Sr6 2.952207 1_555
O21 Sr7 2.593806 1_555
O21 Sr8 2.596583 1_554
O21 Y2 2.606997 1_545
O21 Sr6 2.927235 1_555
O22 O33 1.479655 1_565
O22 Y1 2.352802 1_555
O22 Y2 2.352802 1_455
O23 Sr9 2.663568 1_545
O23 Sr2 2.663568 1_545
O23 Sr8 3.044179 1_554
O23 Sr3 3.044179 1_554
O24 Y1 2.457165 1_545
O24 Sr5 2.644734 1_555
O24 Sr10 2.908337 1_545
O24 Sr11 2.985070 1_555
O25 Y1 2.414584 1_555
O25 Sr5 2.644637 1_555
O25 Sr10 2.923381 1_555
O25 Sr11 3.019845 1_555
O26 Y1 2.538364 1_545
O26 Sr9 2.620995 1_545
O26 Sr3 2.800784 1_554
O26 Sr10 2.906368 1_545
O27 Y3 2.609253 1_555
O27 Sr11 2.614838 1_555
O27 Sr5 2.663719 1_555
O27 Sr4 2.746163 1_555
O28 Y3 2.353120 1_555
O28 Sr9 2.844149 1_555
O28 Sr4 2.889238 1_555
O29 Y3 2.354344 1_555
O29 Sr9 2.830031 1_545
O29 Sr4 2.896979 1_555
O30 Sr0 2.672364 1_455
O30 Sr11 2.672364 1_555
O30 Sr5 2.685042 1_555
O30 Sr6 2.685042 1_455
O31 Y2 2.414584 1_555
O31 Sr6 2.644637 1_555
O31 Sr1 2.923381 1_555
O31 Sr0 3.019845 1_555
O32 Y2 2.457165 1_545
O32 Sr6 2.644734 1_555
O32 Sr1 2.908337 1_545
O32 Sr0 2.985070 1_555
O33 Sr10 2.905443 1_545
O33 Sr1 2.905443 1_445
O34 Y0 2.609253 1_555
O34 Sr0 2.614838 1_555
O34 Sr6 2.663719 1_555
O34 Sr7 2.746163 1_555
O35 Sr10 2.605340 1_545
O35 Sr11 2.625036 1_555
O35 Y3 2.674672 1_555
O35 Sr9 2.890662 1_545
O36 Sr10 2.615726 1_555
O36 Sr11 2.646316 1_555
O36 Y3 2.675048 1_555
O36 Sr9 2.875378 1_555
O37 Y3 2.333986 1_555
O37 Y0 2.333986 1_555
O38 Sr9 2.651222 1_555
O38 Sr2 2.651222 1_555
O38 Sr8 2.679348 1_565
O38 Sr3 2.679348 1_565
O39 Y3 2.393728 1_555
O39 Sr9 2.741845 1_545
O39 Sr4 2.901299 1_556
O39 Sr3 2.980066 1_555
O40 Y3 2.381417 1_555
O40 Sr9 2.727276 1_555
O40 Sr4 2.913606 1_556
O40 Sr3 3.041909 1_565
O41 Sr3 2.555548 1_565
O41 Y1 2.576800 1_556
O41 Sr9 2.655801 1_555
O41 Sr10 2.875309 1_555
O42 Sr4 2.623427 1_556
O42 Sr7 2.623427 1_556
O42 Sr8 2.894022 1_555
O42 Sr3 2.894022 1_555
