# generated using pymatgen
data_U3Sn4Au3
_symmetry_space_group_name_H-M   'P 1'
_cell_length_a   8.58221129
_cell_length_b   8.58221129
_cell_length_c   8.58221129
_cell_angle_alpha   109.47122063
_cell_angle_beta   109.47122063
_cell_angle_gamma   109.47122063
_symmetry_Int_Tables_number   1
_chemical_formula_structural   U3Sn4Au3
_chemical_formula_sum   'U6 Sn8 Au6'
_cell_volume   486.60404749
_cell_formula_units_Z   2
loop_
 _symmetry_equiv_pos_site_id
 _symmetry_equiv_pos_as_xyz
  1  'x, y, z'
loop_
 _atom_site_type_symbol
 _atom_site_label
 _atom_site_symmetry_multiplicity
 _atom_site_fract_x
 _atom_site_fract_y
 _atom_site_fract_z
 _atom_site_occupancy
  U  U0  1  0.87500000  0.25000000  0.12500000  1
  U  U1  1  0.62500000  0.75000000  0.37500000  1
  U  U2  1  0.25000000  0.12500000  0.87500000  1
  U  U3  1  0.75000000  0.37500000  0.62500000  1
  U  U4  1  0.12500000  0.87500000  0.25000000  1
  U  U5  1  0.37500000  0.62500000  0.75000000  1
  Sn  Sn0  1  0.68929400  0.50000000  0.00000000  1
  Sn  Sn1  1  0.50000000  0.00000000  0.68929400  1
  Sn  Sn2  1  0.00000000  0.68929400  0.50000000  1
  Sn  Sn3  1  0.81070600  0.81070600  0.81070600  1
  Sn  Sn4  1  0.50000000  0.00000000  0.18929400  1
  Sn  Sn5  1  0.18929400  0.50000000  0.00000000  1
  Sn  Sn6  1  0.00000000  0.18929400  0.50000000  1
  Sn  Sn7  1  0.31070600  0.31070600  0.31070600  1
  Au  Au0  1  0.37500000  0.25000000  0.62500000  1
  Au  Au1  1  0.12500000  0.75000000  0.87500000  1
  Au  Au2  1  0.25000000  0.62500000  0.37500000  1
  Au  Au3  1  0.75000000  0.87500000  0.12500000  1
  Au  Au4  1  0.62500000  0.37500000  0.25000000  1
  Au  Au5  1  0.87500000  0.12500000  0.75000000  1
loop_
_geom_bond_atom_site_label_1
_geom_bond_atom_site_label_2
_geom_bond_distance
_geom_bond_site_symmetry_2
Sn0 U3 3.311895 1_554
Sn0 U0 3.311895 1_555
Sn0 U4 3.311895 1_655
Sn0 U2 3.554609 1_554
Sn0 U1 3.554609 1_555
Sn0 U5 3.554609 1_554
Sn1 U5 3.311895 1_545
Sn1 U2 3.311895 1_555
Sn1 U0 3.311895 1_556
Sn1 U3 3.554609 1_555
Sn1 U4 3.554609 1_545
Sn1 U1 3.554609 1_545
Sn2 U1 3.311895 1_455
Sn2 U4 3.311895 1_555
Sn2 U2 3.311895 1_565
Sn2 U0 3.554609 1_455
Sn2 U3 3.554609 1_455
Sn2 U5 3.554609 1_555
Sn3 U1 3.311895 1_555
Sn3 U5 3.311895 1_555
Sn3 U3 3.311895 1_555
Sn3 U4 3.554609 1_656
Sn3 U0 3.554609 1_566
Sn3 U2 3.554609 1_665
Sn4 U3 3.311895 1_555
Sn4 U1 3.311895 1_545
Sn4 U4 3.311895 1_545
Sn4 U5 3.554609 1_544
Sn4 U2 3.554609 1_554
Sn4 U0 3.554609 1_555
Sn5 U2 3.311895 1_554
Sn5 U1 3.311895 1_555
Sn5 U5 3.311895 1_554
Sn5 U0 3.554609 1_455
Sn5 U4 3.554609 1_555
Sn5 U3 3.554609 1_454
Sn6 U3 3.311895 1_455
Sn6 U0 3.311895 1_455
Sn6 U5 3.311895 1_555
Sn6 U1 3.554609 1_445
Sn6 U2 3.554609 1_555
Sn6 U4 3.554609 1_545
Sn7 U2 3.311895 1_554
Sn7 U4 3.311895 1_545
Sn7 U0 3.311895 1_455
Sn7 U3 3.554609 1_555
Sn7 U5 3.554609 1_555
Sn7 U1 3.554609 1_555
Au0 Sn7 2.826271 1_555
Au0 Sn1 2.826271 1_555
Au0 Sn6 2.826271 1_555
Au0 Sn0 2.826271 1_556
Au0 U2 3.034270 1_555
Au0 U3 3.034270 1_555
Au0 U4 3.034270 1_545
Au0 U5 3.034270 1_555
Au1 Sn4 2.826271 1_566
Au1 Sn2 2.826271 1_555
Au1 Sn5 2.826271 1_556
Au1 Sn3 2.826271 1_455
Au1 U2 3.034270 1_565
Au1 U4 3.034270 1_556
Au1 U5 3.034270 1_555
Au1 U3 3.034270 1_455
Au2 Sn1 2.826271 1_565
Au2 Sn7 2.826271 1_555
Au2 Sn5 2.826271 1_555
Au2 Sn2 2.826271 1_555
Au2 U4 3.034270 1_555
Au2 U1 3.034270 1_555
Au2 U5 3.034270 1_555
Au2 U0 3.034270 1_455
Au3 Sn6 2.826271 1_665
Au3 Sn0 2.826271 1_555
Au3 Sn4 2.826271 1_565
Au3 Sn3 2.826271 1_554
Au3 U4 3.034270 1_655
Au3 U1 3.034270 1_555
Au3 U0 3.034270 1_565
Au3 U5 3.034270 1_554
Au4 Sn0 2.826271 1_555
Au4 Sn2 2.826271 1_655
Au4 Sn4 2.826271 1_555
Au4 Sn7 2.826271 1_555
Au4 U3 3.034270 1_555
Au4 U2 3.034270 1_554
Au4 U0 3.034270 1_555
Au4 U1 3.034270 1_555
Au5 Sn6 2.826271 1_655
Au5 Sn1 2.826271 1_555
Au5 Sn5 2.826271 1_656
Au5 Sn3 2.826271 1_545
Au5 U2 3.034270 1_655
Au5 U3 3.034270 1_555
Au5 U0 3.034270 1_556
Au5 U1 3.034270 1_545
