# generated using pymatgen
data_CsGe
_symmetry_space_group_name_H-M   'P 1'
_cell_length_a   7.67866861
_cell_length_b   7.67866861
_cell_length_c   4.12678500
_cell_angle_alpha   90.00000000
_cell_angle_beta   90.00000000
_cell_angle_gamma   135.89822508
_symmetry_Int_Tables_number   1
_chemical_formula_structural   CsGe
_chemical_formula_sum   'Cs2 Ge2'
_cell_volume   169.33720960
_cell_formula_units_Z   2
loop_
 _symmetry_equiv_pos_site_id
 _symmetry_equiv_pos_as_xyz
  1  'x, y, z'
loop_
 _atom_site_type_symbol
 _atom_site_label
 _atom_site_symmetry_multiplicity
 _atom_site_fract_x
 _atom_site_fract_y
 _atom_site_fract_z
 _atom_site_occupancy
  Cs  Cs0  1  0.64823700  0.35176300  0.25000000  1
  Cs  Cs1  1  0.35176300  0.64823700  0.75000000  1
  Ge  Ge0  1  0.94775000  0.05225000  0.25000000  1
  Ge  Ge1  1  0.05225000  0.94775000  0.75000000  1
loop_
_geom_bond_atom_site_label_1
_geom_bond_atom_site_label_2
_geom_bond_distance
_geom_bond_site_symmetry_2
Cs0 Ge1 3.799321 1_544
Cs0 Ge1 3.799321 1_545
Cs0 Ge1 3.799321 1_654
Cs0 Ge1 3.799321 1_655
Cs0 Ge0 4.056389 1_565
Cs0 Ge0 4.056389 1_455
Cs0 Ge0 4.263256 1_555
Cs1 Ge0 3.799321 1_455
Cs1 Ge0 3.799321 1_456
Cs1 Ge0 3.799321 1_565
Cs1 Ge0 3.799321 1_566
Cs1 Ge1 4.056389 1_655
Cs1 Ge1 4.056389 1_545
Cs1 Ge1 4.263256 1_555
Ge0 Ge1 2.543638 1_644
Ge0 Ge1 2.543638 1_645
