# generated using pymatgen
data_TaCu3TeSe2S
_symmetry_space_group_name_H-M   'P 1'
_cell_length_a   5.76318136
_cell_length_b   5.76645139
_cell_length_c   5.76318136
_cell_angle_alpha   91.15296760
_cell_angle_beta   90.11682750
_cell_angle_gamma   91.15296760
_symmetry_Int_Tables_number   1
_chemical_formula_structural   TaCu3TeSe2S
_chemical_formula_sum   'Ta1 Cu3 Te1 Se2 S1'
_cell_volume   191.45029343
_cell_formula_units_Z   1
loop_
 _symmetry_equiv_pos_site_id
 _symmetry_equiv_pos_as_xyz
  1  'x, y, z'
loop_
 _atom_site_type_symbol
 _atom_site_label
 _atom_site_symmetry_multiplicity
 _atom_site_fract_x
 _atom_site_fract_y
 _atom_site_fract_z
 _atom_site_occupancy
  Ta  Ta0  1  0.99716800  0.99934900  0.99716800  1
  Cu  Cu0  1  0.98789700  0.49850400  0.98789700  1
  Cu  Cu1  1  0.50496900  0.99950500  0.98793400  1
  Cu  Cu2  1  0.98793400  0.99950500  0.50496900  1
  Te  Te0  1  0.26708900  0.27124700  0.26708900  1
  Se  Se0  1  0.24098100  0.75233400  0.74830300  1
  Se  Se1  1  0.74830300  0.75233400  0.24098100  1
  S  S0  1  0.76565800  0.22722000  0.76565800  1
loop_
_geom_bond_atom_site_label_1
_geom_bond_atom_site_label_2
_geom_bond_distance
_geom_bond_site_symmetry_2
Ta0 Te0 2.663062 1_666
Cu0 S0 2.357995 1_555
Cu0 Se1 2.485990 1_556
Cu0 Se0 2.485990 1_655
Cu0 Te0 2.656023 1_656
Cu0 Ta0 2.881491 1_545
Cu0 Ta0 2.886934 1_555
Cu1 S0 2.370360 1_565
Cu1 Se0 2.465438 1_555
Cu1 Se1 2.506131 1_556
Cu1 Te0 2.630064 1_566
Cu1 Ta0 2.837041 1_555
Cu1 Ta0 2.927124 1_455
Cu2 S0 2.370360 1_565
Cu2 Se1 2.465438 1_555
Cu2 Se0 2.506131 1_655
Cu2 Te0 2.630064 1_665
Cu2 Ta0 2.837041 1_555
Cu2 Ta0 2.927124 1_554
Se0 Ta0 2.463121 1_455
Se1 Ta0 2.463121 1_554
S0 Ta0 2.328267 1_545
