# generated using pymatgen
data_Dy2NiSn6
_symmetry_space_group_name_H-M   'P 1'
_cell_length_a   11.60771715
_cell_length_b   11.60771715
_cell_length_c   4.38013230
_cell_angle_alpha   90.00000000
_cell_angle_beta   90.00000000
_cell_angle_gamma   158.52068753
_symmetry_Int_Tables_number   1
_chemical_formula_structural   Dy2NiSn6
_chemical_formula_sum   'Dy2 Ni1 Sn6'
_cell_volume   216.10160967
_cell_formula_units_Z   1
loop_
 _symmetry_equiv_pos_site_id
 _symmetry_equiv_pos_as_xyz
  1  'x, y, z'
loop_
 _atom_site_type_symbol
 _atom_site_label
 _atom_site_symmetry_multiplicity
 _atom_site_fract_x
 _atom_site_fract_y
 _atom_site_fract_z
 _atom_site_occupancy
  Dy  Dy0  1  0.32404846  0.67595154  0.50000000  1
  Dy  Dy1  1  0.67595154  0.32404846  0.50000000  1
  Ni  Ni0  1  -0.00000000  0.00000000  -0.00000000  1
  Sn  Sn0  1  0.06852975  0.93147025  0.50000000  1
  Sn  Sn1  1  0.93147025  0.06852975  0.50000000  1
  Sn  Sn2  1  0.20661016  0.79338984  0.00000000  1
  Sn  Sn3  1  0.79338984  0.20661016  0.00000000  1
  Sn  Sn4  1  0.43094376  0.56905624  0.00000000  1
  Sn  Sn5  1  0.56905624  0.43094376  0.00000000  1
loop_
_geom_bond_atom_site_label_1
_geom_bond_atom_site_label_2
_geom_bond_distance
_geom_bond_site_symmetry_2
Dy0 Sn3 3.156615 1_566
Dy0 Sn3 3.156615 1_456
Dy0 Sn3 3.156615 1_565
Dy0 Sn3 3.156615 1_455
Dy0 Sn1 3.268351 1_565
Dy0 Sn1 3.268351 1_455
Dy0 Sn4 3.277343 1_556
Dy0 Sn4 3.277343 1_555
Dy0 Sn2 3.459975 1_555
Dy0 Sn2 3.459975 1_556
Dy1 Sn2 3.156615 1_546
Dy1 Sn2 3.156615 1_545
Dy1 Sn2 3.156615 1_655
Dy1 Sn2 3.156615 1_656
Dy1 Sn0 3.268351 1_545
Dy1 Sn0 3.268351 1_655
Dy1 Sn5 3.277343 1_556
Dy1 Sn5 3.277343 1_555
Dy1 Sn3 3.459975 1_555
Dy1 Sn3 3.459975 1_556
Ni0 Sn4 2.675768 1_445
Ni0 Sn4 2.675768 1_555
Ni0 Sn5 2.675768 1_555
Ni0 Sn5 2.675768 1_445
Ni0 Sn0 2.690653 1_544
Ni0 Sn0 2.690653 1_545
Ni0 Sn1 2.690653 1_455
Ni0 Sn1 2.690653 1_454
Sn0 Sn5 3.078207 1_565
Sn0 Sn5 3.078207 1_566
Sn0 Sn5 3.078207 1_455
Sn0 Sn5 3.078207 1_456
Sn0 Sn1 3.126162 1_465
Sn1 Sn4 3.078207 1_655
Sn1 Sn4 3.078207 1_656
Sn1 Sn4 3.078207 1_545
Sn1 Sn4 3.078207 1_546
Sn2 Sn3 2.931998 1_565
Sn2 Sn3 2.931998 1_455
Sn4 Sn5 3.150179 1_555
