# generated using pymatgen
data_Li3Mn4O8
_symmetry_space_group_name_H-M   'P 1'
_cell_length_a   5.77325705
_cell_length_b   5.77325705
_cell_length_c   6.80544544
_cell_angle_alpha   55.27987674
_cell_angle_beta   55.27987674
_cell_angle_gamma   59.60463363
_symmetry_Int_Tables_number   1
_chemical_formula_structural   Li3Mn4O8
_chemical_formula_sum   'Li3 Mn4 O8'
_cell_volume   147.60652665
_cell_formula_units_Z   1
loop_
 _symmetry_equiv_pos_site_id
 _symmetry_equiv_pos_as_xyz
  1  'x, y, z'
loop_
 _atom_site_type_symbol
 _atom_site_label
 _atom_site_symmetry_multiplicity
 _atom_site_fract_x
 _atom_site_fract_y
 _atom_site_fract_z
 _atom_site_occupancy
  Li  Li0  1  0.76826700  0.23173300  0.00000000  1
  Li  Li1  1  0.23173300  0.76826700  0.00000000  1
  Li  Li2  1  0.00000000  0.00000000  0.50000000  1
  Mn  Mn0  1  0.50000000  0.00000000  0.00000000  1
  Mn  Mn1  1  0.00000000  0.50000000  0.00000000  1
  Mn  Mn2  1  0.70845100  0.70845100  0.53173900  1
  Mn  Mn3  1  0.29154900  0.29154900  0.46826100  1
  O  O0  1  0.57159600  0.57159600  0.14917600  1
  O  O1  1  0.07750100  0.07750100  0.14483700  1
  O  O2  1  0.52195100  0.00412100  0.67849000  1
  O  O3  1  0.00412100  0.52195100  0.67849000  1
  O  O4  1  0.42840400  0.42840400  0.85082400  1
  O  O5  1  0.92249900  0.92249900  0.85516300  1
  O  O6  1  0.47804900  0.99587900  0.32151000  1
  O  O7  1  0.99587900  0.47804900  0.32151000  1
loop_
_geom_bond_atom_site_label_1
_geom_bond_atom_site_label_2
_geom_bond_distance
_geom_bond_site_symmetry_2
Li0 O6 2.046344 1_545
Li0 O3 2.046344 1_654
Li0 O5 2.085144 1_544
Li0 O1 2.085144 1_655
Li0 O4 2.207116 1_554
Li0 O0 2.207116 1_555
Li1 O7 2.046344 1_455
Li1 O2 2.046344 1_564
Li1 O5 2.085144 1_454
Li1 O1 2.085144 1_565
Li1 O4 2.207116 1_554
Li1 O0 2.207116 1_555
Li2 O5 1.995294 1_445
Li2 O1 1.995294 1_555
Li2 O6 2.289254 1_545
Li2 O7 2.289254 1_455
Li2 O2 2.289254 1_455
Li2 O3 2.289254 1_545
Mn0 O5 1.944387 1_544
Mn0 O1 1.944387 1_555
Mn0 O4 1.975321 1_554
Mn0 O0 1.975321 1_545
Mn0 O6 2.105217 1_545
Mn0 O2 2.105217 1_554
Mn1 O5 1.944387 1_454
Mn1 O1 1.944387 1_555
Mn1 O4 1.975321 1_554
Mn1 O0 1.975321 1_455
Mn1 O7 2.105217 1_455
Mn1 O3 2.105217 1_554
Mn2 O6 1.949279 1_555
Mn2 O7 1.949279 1_555
Mn2 O3 1.981838 1_655
Mn2 O2 1.981838 1_565
Mn2 O4 2.142406 1_555
Mn3 O3 1.949279 1_555
Mn3 O2 1.949279 1_555
Mn3 O7 1.981838 1_455
Mn3 O6 1.981838 1_545
Mn3 O0 2.142406 1_555
