# generated using pymatgen
data_Si2H2O3
_symmetry_space_group_name_H-M   'P 1'
_cell_length_a   13.32118083
_cell_length_b   9.24807248
_cell_length_c   13.32229861
_cell_angle_alpha   103.76401857
_cell_angle_beta   142.54816249
_cell_angle_gamma   93.41506619
_symmetry_Int_Tables_number   1
_chemical_formula_structural   Si2H2O3
_chemical_formula_sum   'Si20 H20 O30'
_cell_volume   879.43723307
_cell_formula_units_Z   10
loop_
 _symmetry_equiv_pos_site_id
 _symmetry_equiv_pos_as_xyz
  1  'x, y, z'
loop_
 _atom_site_type_symbol
 _atom_site_label
 _atom_site_symmetry_multiplicity
 _atom_site_fract_x
 _atom_site_fract_y
 _atom_site_fract_z
 _atom_site_occupancy
  Si  Si0  1  0.63565500  0.86129900  0.49319000  1
  Si  Si1  1  0.67092500  0.60254400  0.29452700  1
  Si  Si2  1  0.30750200  0.10011000  0.43220300  1
  Si  Si3  1  0.36507100  0.35653000  0.72422200  1
  Si  Si4  1  0.02959900  0.10585300  0.79682200  1
  Si  Si5  1  0.72849400  0.35341400  0.48067800  1
  Si  Si6  1  0.87113000  0.84775000  0.12198000  1
  Si  Si7  1  0.30516200  0.60266900  0.57624200  1
  Si  Si8  1  0.58190000  0.05357800  0.34054700  1
  Si  Si9  1  0.16738700  0.51278500  0.85536100  1
  Si  Si10  1  0.65440300  0.00690100  0.84232500  1
  Si  Si11  1  0.70990600  0.54696800  0.96725700  1
  Si  Si12  1  0.42551500  0.82917000  0.98313200  1
  Si  Si13  1  0.35341900  0.90739000  0.30996500  1
  Si  Si14  1  0.59677300  0.40483200  0.05383200  1
  Si  Si15  1  0.84570600  0.32273500  0.90051200  1
  Si  Si16  1  0.06918900  0.86673400  0.61627700  1
  Si  Si17  1  0.75104300  0.64457600  0.69057100  1
  Si  Si18  1  0.95003600  0.13806000  0.38902500  1
  Si  Si19  1  0.25054100  0.36513600  0.29967200  1
  H  H0  1  0.99108800  0.84425700  0.85096100  1
  H  H1  1  0.62655900  0.34152900  0.22635900  1
  H  H2  1  0.11534300  0.84047600  0.21280900  1
  H  H3  1  0.99271600  0.33965500  0.35292800  1
  H  H4  1  0.26388100  0.09737600  0.08521000  1
  H  H5  1  0.98163100  0.24282600  0.76502400  1
  H  H6  1  0.47329900  0.74001900  0.76172200  1
  H  H7  1  0.00695900  0.59246000  0.33058700  1
  H  H8  1  0.52364200  0.89046900  0.64695100  1
  H  H9  1  0.24663900  0.39881600  0.86629100  1
  H  H10  1  0.43451500  0.61977900  0.21006800  1
  H  H11  1  0.40900700  0.11666600  0.68588400  1
  H  H12  1  0.12084500  0.14416200  0.70192600  1
  H  H13  1  0.39665100  0.38309000  0.34893200  1
  H  H14  1  0.03803500  0.88224000  0.48761500  1
  H  H15  1  0.43663700  0.64448700  0.52336000  1
  H  H16  1  0.83883200  0.09447200  0.38523200  1
  H  H17  1  0.14886300  0.47843000  0.01141700  1
  H  H18  1  0.47219000  0.98188800  0.83724800  1
  H  H19  1  0.70965600  0.60102800  0.75686400  1
  O  O0  1  0.86860600  0.94086500  0.68600600  1
  O  O1  1  0.65320500  0.41854400  0.32072800  1
  O  O2  1  0.09661700  0.91496300  0.26313900  1
  O  O3  1  0.25170300  0.43715100  0.57203900  1
  O  O4  1  0.21576000  0.16318500  0.01700800  1
  O  O5  1  0.94894800  0.42105500  0.64717000  1
  O  O6  1  0.77061100  0.91487400  0.96843600  1
  O  O7  1  0.14149900  0.65851700  0.44627700  1
  O  O8  1  0.39106000  0.02567700  0.25406600  1
  O  O9  1  0.26188400  0.68738100  0.90616300  1
  O  O10  1  0.77815800  0.17804700  0.91798700  1
  O  O11  1  0.76993200  0.51974300  0.13137500  1
  O  O12  1  0.26753500  0.88028700  0.79898300  1
  O  O13  1  0.96938400  0.76166900  0.87230600  1
  O  O14  1  0.88717700  0.25525800  0.28842900  1
  O  O15  1  0.08115600  0.37736700  0.11415800  1
  O  O16  1  0.62223200  0.73661900  0.56517900  1
  O  O17  1  0.89135800  0.72547000  0.50570400  1
  O  O18  1  0.21997600  0.22387700  0.33613100  1
  O  O19  1  0.16723900  0.23077600  0.61177600  1
  O  O20  1  0.57431700  0.68467500  0.32575500  1
  O  O21  1  0.35585200  0.18012800  0.60928600  1
  O  O22  1  0.06810300  0.05322100  0.69541100  1
  O  O23  1  0.69528000  0.47352900  0.55516000  1
  O  O24  1  0.91635200  0.96767100  0.27515900  1
  O  O25  1  0.35523700  0.55127700  0.48621200  1
  O  O26  1  0.50414700  0.99263900  0.15390100  1
  O  O27  1  0.22412200  0.54690600  0.02816500  1
  O  O28  1  0.52087900  0.04640700  0.82558100  1
  O  O29  1  0.83159000  0.48322800  0.97946700  1
loop_
_geom_bond_atom_site_label_1
_geom_bond_atom_site_label_2
_geom_bond_distance
_geom_bond_site_symmetry_2
H0 O13 0.977442 1_555
H1 O1 1.024265 1_555
H2 O2 1.025958 1_555
H3 O14 0.977842 1_555
H4 O4 0.995861 1_555
H5 Si4 1.454092 1_655
H6 Si7 1.454701 1_555
H7 O7 0.998259 1_555
H8 Si10 1.487526 1_565
H9 Si9 1.485999 1_555
H10 O20 1.036010 1_555
H10 O27 1.547902 1_555
H11 O21 1.036546 1_555
H11 O28 1.547229 1_555
H12 O22 1.003262 1_555
H13 Si19 1.458827 1_555
H14 Si16 1.457895 1_555
H15 O25 0.998696 1_555
H16 Si18 1.469630 1_555
H17 O27 0.978708 1_555
H18 O28 0.979257 1_565
H19 Si17 1.470388 1_555
O0 Si4 1.618118 1_665
O0 Si0 1.715204 1_555
O1 Si5 1.788549 1_555
O1 Si1 1.854391 1_555
O2 Si6 1.788313 1_455
O2 Si2 1.855353 1_565
O3 Si7 1.618462 1_555
O3 Si3 1.714403 1_555
O4 Si4 1.609064 1_554
O5 Si9 1.628449 1_655
O5 Si5 1.647456 1_555
O6 Si10 1.628303 1_565
O6 Si6 1.648344 1_556
O7 Si7 1.607507 1_555
O8 Si13 1.708174 1_545
O8 Si8 1.728246 1_555
O9 Si9 1.592165 1_555
O9 Si12 1.730061 1_555
O10 Si10 1.590766 1_555
O10 Si15 1.729664 1_555
O11 Si14 1.708638 1_555
O11 Si11 1.730131 1_554
O12 Si16 1.589287 1_555
O12 Si12 1.773145 1_555
O13 Si17 1.640310 1_555
O14 Si18 1.639979 1_555
O15 Si19 1.587945 1_555
O15 Si15 1.773931 1_454
O16 Si17 1.661038 1_555
O16 Si0 1.747918 1_555
O17 Si16 1.632010 1_655
O17 Si1 1.671459 1_555
O18 Si19 1.631221 1_555
O18 Si2 1.671658 1_555
O19 Si18 1.665601 1_455
O19 Si3 1.754835 1_555
O20 Si1 1.795093 1_555
O20 Si0 1.877439 1_555
O21 Si2 1.796667 1_555
O21 Si3 1.873498 1_555
O22 Si4 1.772668 1_555
O22 Si16 1.802234 1_545
O23 Si5 1.626477 1_555
O23 Si17 1.637954 1_555
O24 Si6 1.627548 1_555
O24 Si18 1.638027 1_565
O25 Si7 1.773766 1_555
O25 Si19 1.805460 1_555
O26 Si8 1.657658 1_565
O26 Si12 1.717431 1_554
O27 Si9 1.683465 1_554
O28 Si10 1.683225 1_555
O29 Si11 1.655994 1_555
O29 Si15 1.717313 1_555
