# generated using pymatgen
data_Sm2Co17N3
_symmetry_space_group_name_H-M   'P 1'
_cell_length_a   6.38461220
_cell_length_b   6.38461220
_cell_length_c   6.38461208
_cell_angle_alpha   83.68432826
_cell_angle_beta   83.68432826
_cell_angle_gamma   83.68433370
_symmetry_Int_Tables_number   1
_chemical_formula_structural   Sm2Co17N3
_chemical_formula_sum   'Sm2 Co17 N3'
_cell_volume   255.84248965
_cell_formula_units_Z   1
loop_
 _symmetry_equiv_pos_site_id
 _symmetry_equiv_pos_as_xyz
  1  'x, y, z'
loop_
 _atom_site_type_symbol
 _atom_site_label
 _atom_site_symmetry_multiplicity
 _atom_site_fract_x
 _atom_site_fract_y
 _atom_site_fract_z
 _atom_site_occupancy
  Sm  Sm0  1  0.65771800  0.65771800  0.65771800  1
  Sm  Sm1  1  0.34228200  0.34228200  0.34228200  1
  Co  Co0  1  0.00000000  0.00000000  0.50000000  1
  Co  Co1  1  0.50000000  0.00000000  0.00000000  1
  Co  Co2  1  0.00000000  0.50000000  0.00000000  1
  Co  Co3  1  0.71939600  0.28060400  0.00000000  1
  Co  Co4  1  0.00000000  0.71939600  0.28060400  1
  Co  Co5  1  0.28060400  0.00000000  0.71939600  1
  Co  Co6  1  0.00000000  0.28060400  0.71939600  1
  Co  Co7  1  0.71939600  0.00000000  0.28060400  1
  Co  Co8  1  0.28060400  0.71939600  0.00000000  1
  Co  Co9  1  0.34353400  0.34353400  0.86460800  1
  Co  Co10  1  0.86460800  0.34353400  0.34353400  1
  Co  Co11  1  0.34353400  0.86460800  0.34353400  1
  Co  Co12  1  0.65646600  0.65646600  0.13539200  1
  Co  Co13  1  0.13539200  0.65646600  0.65646600  1
  Co  Co14  1  0.65646600  0.13539200  0.65646600  1
  Co  Co15  1  0.90394900  0.90394900  0.90394900  1
  Co  Co16  1  0.09605100  0.09605100  0.09605100  1
  N  N0  1  0.50000000  0.50000000  0.00000000  1
  N  N1  1  0.00000000  0.50000000  0.50000000  1
  N  N2  1  0.50000000  0.00000000  0.50000000  1
loop_
_geom_bond_atom_site_label_1
_geom_bond_atom_site_label_2
_geom_bond_distance
_geom_bond_site_symmetry_2
Co0 Co4 2.392466 1_545
Co0 Co7 2.392466 1_455
Co0 Co6 2.392466 1_555
Co0 Co5 2.392466 1_555
Co0 Co11 2.417989 1_545
Co0 Co10 2.417989 1_455
Co0 Co14 2.417989 1_455
Co0 Co13 2.417989 1_545
Co0 Co15 2.605855 1_445
Co0 Co16 2.605855 1_555
Co0 Sm0 3.263096 1_445
Co0 Sm1 3.263096 1_555
Co1 Co8 2.392466 1_545
Co1 Co3 2.392466 1_555
Co1 Co5 2.392466 1_554
Co1 Co7 2.392466 1_555
Co1 Co14 2.417989 1_554
Co1 Co11 2.417989 1_545
Co1 Co9 2.417989 1_554
Co1 Co12 2.417989 1_545
Co1 Co16 2.605855 1_555
Co1 Co15 2.605855 1_544
Co1 Sm0 3.263096 1_544
Co1 Sm1 3.263096 1_555
Co2 Co3 2.392466 1_455
Co2 Co8 2.392466 1_555
Co2 Co6 2.392466 1_554
Co2 Co4 2.392466 1_555
Co2 Co9 2.417989 1_554
Co2 Sm0 3.263096 1_454
Co2 Sm1 3.263096 1_555
Co3 N0 1.868838 1_555
Co4 N1 1.868838 1_555
Co5 N2 1.868838 1_555
Co6 N1 1.868838 1_555
Co7 N2 1.868838 1_555
Co8 N0 1.868838 1_555
Co9 N0 1.828298 1_556
Co10 N1 1.828298 1_655
Co10 Co2 2.417989 1_655
Co10 Co16 2.588194 1_655
Co11 N2 1.828298 1_565
Co11 Co16 2.588194 1_565
Co12 N0 1.828298 1_555
Co12 Co2 2.417989 1_655
Co12 Co15 2.588194 1_554
Co13 N1 1.828298 1_555
Co13 Co2 2.417989 1_556
Co13 Co15 2.588194 1_455
Co14 N2 1.828298 1_555
Co14 Co15 2.588194 1_545
Co15 Co16 2.346438 1_666
Co15 Co2 2.605855 1_656
Co15 Co6 2.662624 1_665
Co15 Co5 2.662624 1_665
Co15 Co4 2.662624 1_656
Co15 Co7 2.662624 1_566
Co15 Co3 2.662624 1_566
Co15 Co8 2.662624 1_656
Co15 Sm0 3.007599 1_555
Co16 Co9 2.588194 1_554
Co16 Co2 2.605855 1_555
Co16 Co7 2.662624 1_455
Co16 Co4 2.662624 1_545
Co16 Co5 2.662624 1_554
Co16 Co6 2.662624 1_554
Co16 Co8 2.662624 1_545
Co16 Co3 2.662624 1_455
Co16 Sm1 3.007599 1_555
N0 Sm0 2.461393 1_554
N0 Sm1 2.461393 1_555
N1 Sm0 2.461393 1_455
N1 Sm1 2.461393 1_555
N2 Sm1 2.461393 1_555
N2 Sm0 2.461393 1_545
