# generated using pymatgen
data_Sm(Fe5Si)2
_symmetry_space_group_name_H-M   'P 1'
_cell_length_a   8.30085558
_cell_length_b   6.37654671
_cell_length_c   6.30372531
_cell_angle_alpha   81.78064960
_cell_angle_beta   49.48965725
_cell_angle_gamma   48.72969315
_symmetry_Int_Tables_number   1
_chemical_formula_structural   Sm(Fe5Si)2
_chemical_formula_sum   'Sm1 Fe10 Si2'
_cell_volume   165.16204805
_cell_formula_units_Z   1
loop_
 _symmetry_equiv_pos_site_id
 _symmetry_equiv_pos_as_xyz
  1  'x, y, z'
loop_
 _atom_site_type_symbol
 _atom_site_label
 _atom_site_symmetry_multiplicity
 _atom_site_fract_x
 _atom_site_fract_y
 _atom_site_fract_z
 _atom_site_occupancy
  Sm  Sm0  1  0.00000000  0.00000000  0.00000000  1
  Fe  Fe0  1  0.99579800  0.35993500  0.64006500  1
  Fe  Fe1  1  0.00420200  0.64006500  0.35993500  1
  Fe  Fe2  1  0.35993500  0.99579800  0.00420200  1
  Fe  Fe3  1  0.64006500  0.00420200  0.99579800  1
  Fe  Fe4  1  0.00000000  0.50000000  0.00000000  1
  Fe  Fe5  1  0.50000000  0.00000000  0.50000000  1
  Fe  Fe6  1  0.50097200  0.27378400  0.72621600  1
  Fe  Fe7  1  0.49902800  0.72621600  0.27378400  1
  Fe  Fe8  1  0.27378400  0.50097200  0.49902800  1
  Fe  Fe9  1  0.72621600  0.49902800  0.50097200  1
  Si  Si0  1  0.50000000  0.50000000  0.00000000  1
  Si  Si1  1  0.00000000  0.00000000  0.50000000  1
loop_
_geom_bond_atom_site_label_1
_geom_bond_atom_site_label_2
_geom_bond_distance
_geom_bond_site_symmetry_2
Fe0 Fe1 2.327299 1_655
Fe0 Fe9 2.504278 1_555
Fe0 Si0 2.546028 1_556
Fe0 Si1 2.546028 1_655
Fe0 Fe4 2.582689 1_656
Fe0 Fe5 2.582689 1_655
Fe0 Fe8 2.601474 1_655
Fe0 Fe7 2.641691 1_556
Fe0 Fe7 2.641691 1_645
Fe0 Fe2 2.873366 1_645
Fe0 Fe2 2.873366 1_556
Fe0 Fe3 2.941630 1_654
Fe0 Fe3 2.941630 1_565
Fe0 Sm0 2.987505 1_656
Fe1 Fe8 2.504278 1_555
Fe1 Si0 2.546028 1_555
Fe1 Si1 2.546028 1_565
Fe1 Fe5 2.582689 1_465
Fe1 Fe4 2.582689 1_555
Fe1 Fe9 2.601474 1_455
Fe1 Fe6 2.641691 1_465
Fe1 Fe6 2.641691 1_554
Fe1 Fe3 2.873366 1_554
Fe1 Fe3 2.873366 1_465
Fe1 Fe2 2.941630 1_545
Fe1 Fe2 2.941630 1_456
Fe1 Sm0 2.987505 1_565
Fe2 Fe3 2.327299 1_564
Fe2 Fe7 2.504278 1_555
Fe2 Si1 2.546028 1_565
Fe2 Si0 2.546028 1_555
Fe2 Fe5 2.582689 1_564
Fe2 Fe4 2.582689 1_565
Fe2 Fe6 2.601474 1_564
Fe2 Fe9 2.641691 1_465
Fe2 Fe9 2.641691 1_554
Fe2 Sm0 2.987505 1_565
Fe3 Fe6 2.504278 1_555
Fe3 Si1 2.546028 1_655
Fe3 Si0 2.546028 1_556
Fe3 Fe5 2.582689 1_556
Fe3 Fe4 2.582689 1_646
Fe3 Fe7 2.601474 1_546
Fe3 Fe8 2.641691 1_556
Fe3 Fe8 2.641691 1_645
Fe3 Sm0 2.987505 1_656
Fe4 Fe5 2.397196 1_465
Fe4 Fe5 2.397196 1_554
Fe4 Fe8 2.413857 1_554
Fe4 Fe9 2.413857 1_455
Fe4 Fe6 2.413857 1_554
Fe4 Fe7 2.413857 1_455
Fe4 Sm0 3.188273 1_555
Fe4 Sm0 3.188273 1_565
Fe5 Fe9 2.413857 1_545
Fe5 Fe8 2.413857 1_555
Fe5 Fe7 2.413857 1_545
Fe5 Fe6 2.413857 1_555
Fe5 Sm0 3.188273 1_556
Fe5 Sm0 3.188273 1_655
Fe6 Si0 2.395364 1_556
Fe6 Si1 2.395364 1_655
Fe6 Fe8 2.649071 1_555
Fe6 Fe9 2.661839 1_555
Fe6 Sm0 3.045043 1_655
Fe6 Sm0 3.045043 1_566
Fe7 Si0 2.395364 1_555
Fe7 Si1 2.395364 1_565
Fe7 Fe9 2.649071 1_555
Fe7 Fe8 2.661839 1_555
Fe7 Sm0 3.045043 1_655
Fe7 Sm0 3.045043 1_566
Fe8 Si0 2.395364 1_555
Fe8 Si1 2.395364 1_565
Fe8 Sm0 3.045043 1_655
Fe8 Sm0 3.045043 1_566
Fe9 Si0 2.395364 1_556
Fe9 Si1 2.395364 1_655
Fe9 Sm0 3.045043 1_655
Fe9 Sm0 3.045043 1_566
Si0 Si1 2.397196 1_565
Si0 Si1 2.397196 1_654
Si0 Sm0 3.151863 1_565
Si0 Sm0 3.151863 1_655
Si1 Sm0 3.151863 1_556
Si1 Sm0 3.151863 1_555
