# generated using pymatgen
data_NaCa2La7Mn10O30
_symmetry_space_group_name_H-M   'P 1'
_cell_length_a   5.48940438
_cell_length_b   5.49572586
_cell_length_c   55.11518657
_cell_angle_alpha   60.72338420
_cell_angle_beta   60.73221234
_cell_angle_gamma   60.87214132
_symmetry_Int_Tables_number   1
_chemical_formula_structural   NaCa2La7Mn10O30
_chemical_formula_sum   'Na2 Ca4 La14 Mn20 O60'
_cell_volume   1196.30176817
_cell_formula_units_Z   2
loop_
 _symmetry_equiv_pos_site_id
 _symmetry_equiv_pos_as_xyz
  1  'x, y, z'
loop_
 _atom_site_type_symbol
 _atom_site_label
 _atom_site_symmetry_multiplicity
 _atom_site_fract_x
 _atom_site_fract_y
 _atom_site_fract_z
 _atom_site_occupancy
  Na  Na0  1  0.24646104  0.24751531  0.62649476  1
  Na  Na1  1  0.24591350  0.25050850  0.72528711  1
  Ca  Ca0  1  0.74848110  0.74290171  0.47712611  1
  Ca  Ca1  1  0.75688289  0.75613081  0.77242746  1
  Ca  Ca2  1  0.75290753  0.75355097  0.87327579  1
  Ca  Ca3  1  0.75429053  0.75300155  0.97276523  1
  La  La0  1  0.25963382  0.25725881  0.02173630  1
  La  La1  1  0.25271871  0.25273718  0.12388927  1
  La  La2  1  0.24962709  0.25072720  0.22495017  1
  La  La3  1  0.75371640  0.75525229  0.07309218  1
  La  La4  1  0.24753124  0.24767837  0.32596996  1
  La  La5  1  0.75103843  0.75143220  0.17448368  1
  La  La6  1  0.24249247  0.23969798  0.42818768  1
  La  La7  1  0.74856205  0.74917172  0.27545357  1
  La  La8  1  0.24969228  0.24384011  0.52650765  1
  La  La9  1  0.74483170  0.74686648  0.37680106  1
  La  La10  1  0.73513966  0.74084813  0.57884829  1
  La  La11  1  0.25710168  0.25173235  0.82329312  1
  La  La12  1  0.75060158  0.74866935  0.67595297  1
  La  La13  1  0.25402176  0.25357980  0.92321568  1
  Mn  Mn0  1  0.00510365  0.00601095  0.99844507  1
  Mn  Mn1  1  0.00175500  0.00311617  0.09923139  1
  Mn  Mn2  1  0.99991960  0.00097635  0.19987596  1
  Mn  Mn3  1  0.50632597  0.50263675  0.04867396  1
  Mn  Mn4  1  0.50142492  0.50091284  0.14961818  1
  Mn  Mn5  1  0.99893528  0.99882496  0.30035668  1
  Mn  Mn6  1  0.99711482  0.99422838  0.40124802  1
  Mn  Mn7  1  0.49909482  0.49996834  0.25012598  1
  Mn  Mn8  1  0.99962879  0.99704168  0.50079364  1
  Mn  Mn9  1  0.49667083  0.49839826  0.35077351  1
  Mn  Mn10  1  0.49446996  0.49482138  0.45145430  1
  Mn  Mn11  1  0.99371625  0.99176682  0.60196651  1
  Mn  Mn12  1  0.49475054  0.49894171  0.55099182  1
  Mn  Mn13  1  0.00557947  0.00621679  0.79836470  1
  Mn  Mn14  1  0.50046377  0.49124240  0.65146926  1
  Mn  Mn15  1  0.50306796  0.50279216  0.74907971  1
  Mn  Mn16  1  0.99981076  0.99543985  0.70084168  1
  Mn  Mn17  1  0.00117180  0.00360712  0.89928646  1
  Mn  Mn18  1  0.50270851  0.50223100  0.84911008  1
  Mn  Mn19  1  0.50342417  0.50274191  0.94884899  1
  O  O0  1  0.18643211  0.75197182  0.03108819  1
  O  O1  1  0.31616904  0.18913040  0.07518139  1
  O  O2  1  0.25073724  0.68541226  0.08136595  1
  O  O3  1  0.75376701  0.31335552  0.01819821  1
  O  O4  1  0.18585389  0.74867341  0.13166568  1
  O  O5  1  0.68921229  0.81446578  0.02609382  1
  O  O6  1  0.31754493  0.18439842  0.17503536  1
  O  O7  1  0.81372059  0.25295775  0.06796405  1
  O  O8  1  0.24756171  0.68516127  0.18192676  1
  O  O9  1  0.75296303  0.31367414  0.11796485  1
  O  O10  1  0.18455313  0.74835456  0.23196247  1
  O  O11  1  0.68511932  0.81533451  0.12530944  1
  O  O12  1  0.31612071  0.18267598  0.27497009  1
  O  O13  1  0.81523045  0.25310002  0.16789066  1
  O  O14  1  0.24649977  0.68511143  0.28213833  1
  O  O15  1  0.75210943  0.31530668  0.21798102  1
  O  O16  1  0.18587414  0.74830586  0.33189962  1
  O  O17  1  0.68328011  0.81644887  0.22505077  1
  O  O18  1  0.31128579  0.18307313  0.37490437  1
  O  O19  1  0.81564475  0.25157919  0.26812554  1
  O  O20  1  0.24621663  0.68607655  0.38212276  1
  O  O21  1  0.75160852  0.31428780  0.31827068  1
  O  O22  1  0.18455057  0.74822549  0.43168317  1
  O  O23  1  0.68454263  0.81497656  0.32475354  1
  O  O24  1  0.31646218  0.17688626  0.47485960  1
  O  O25  1  0.81612978  0.24812811  0.36865774  1
  O  O26  1  0.24928216  0.68951873  0.48111908  1
  O  O27  1  0.74888518  0.31418500  0.41881588  1
  O  O28  1  0.18254327  0.74838169  0.53203578  1
  O  O29  1  0.68586052  0.81218842  0.42383211  1
  O  O30  1  0.30783183  0.19419650  0.57237727  1
  O  O31  1  0.81135530  0.24484118  0.46986058  1
  O  O32  1  0.24736907  0.70816603  0.57962017  1
  O  O33  1  0.74730418  0.31619401  0.51904788  1
  O  O34  1  0.19417700  0.75396819  0.63031696  1
  O  O35  1  0.68698389  0.80790714  0.52540966  1
  O  O36  1  0.31176594  0.18803522  0.67457044  1
  O  O37  1  0.80862139  0.25282413  0.56875849  1
  O  O38  1  0.24990747  0.68907959  0.68095531  1
  O  O39  1  0.75283769  0.30405423  0.61939160  1
  O  O40  1  0.18764543  0.74643417  0.73128824  1
  O  O41  1  0.69084789  0.81042832  0.62369151  1
  O  O42  1  0.31723634  0.17932354  0.77798423  1
  O  O43  1  0.80970739  0.25199936  0.66902991  1
  O  O44  1  0.24961871  0.68926324  0.78124423  1
  O  O45  1  0.74597199  0.31292750  0.71900661  1
  O  O46  1  0.18471337  0.74648715  0.83180213  1
  O  O47  1  0.68517132  0.81307340  0.72415681  1
  O  O48  1  0.31958229  0.18307892  0.87562304  1
  O  O49  1  0.79954464  0.25024210  0.77031200  1
  O  O50  1  0.25006582  0.68944022  0.88094134  1
  O  O51  1  0.75012290  0.31914155  0.81805577  1
  O  O52  1  0.18218463  0.75383360  0.93111539  1
  O  O53  1  0.69046390  0.80947622  0.82598789  1
  O  O54  1  0.32156883  0.18311437  0.97534279  1
  O  O55  1  0.80983688  0.25144103  0.86864388  1
  O  O56  1  0.25319248  0.68814479  0.98044843  1
  O  O57  1  0.75131347  0.31955317  0.91786479  1
  O  O58  1  0.68932603  0.81591822  0.92527249  1
  O  O59  1  0.81118874  0.25105063  0.96869933  1
loop_
_geom_bond_atom_site_label_1
_geom_bond_atom_site_label_2
_geom_bond_distance
_geom_bond_site_symmetry_2
Na0 O43 2.397471 1_455
Na0 O41 2.456551 1_545
Na0 O32 2.585802 1_555
Na0 O36 2.687718 1_555
Na0 O34 2.758682 1_555
Na0 O34 2.761115 1_545
Na0 O39 2.763041 1_555
Na0 O39 2.773246 1_455
Na1 O47 2.440033 1_545
Na1 O38 2.453371 1_555
Na1 O49 2.493302 1_455
Na1 O40 2.751264 1_555
Na1 O45 2.764804 1_555
Na1 O45 2.768638 1_455
Na1 O40 2.783708 1_545
Na1 O36 2.809242 1_555
Na1 O42 2.931450 1_555
Ca0 O33 2.353433 1_555
Ca0 O24 2.412481 1_565
Ca0 O22 2.477549 1_655
Ca0 O35 2.693951 1_555
Ca0 O26 2.726774 1_655
Ca0 O31 2.756858 1_565
Ca0 O26 2.788120 1_555
Ca0 O31 2.790869 1_555
Ca0 O29 2.942254 1_555
Ca1 O40 2.342746 1_655
Ca1 O42 2.415992 1_565
Ca1 O51 2.486316 1_555
Ca1 O47 2.724092 1_555
Ca1 O44 2.761073 1_555
Ca1 O44 2.798236 1_655
Ca2 O46 2.354668 1_655
Ca2 O48 2.403875 1_565
Ca2 O57 2.448426 1_555
Ca2 O53 2.644271 1_555
Ca2 O55 2.747529 1_555
Ca2 O50 2.753692 1_555
Ca2 O55 2.778712 1_565
Ca2 O50 2.792195 1_655
Ca2 O58 2.884161 1_555
Ca3 O52 2.348360 1_655
Ca3 O54 2.404655 1_565
Ca3 O3 2.488062 1_556
Ca3 O58 2.646862 1_555
Ca3 O59 2.730374 1_555
Ca3 O56 2.746052 1_555
Ca3 O59 2.793499 1_565
Ca3 O56 2.800487 1_655
Ca3 O5 2.950864 1_556
La0 O56 2.348167 1_554
La0 O5 2.436369 1_545
La0 O7 2.526494 1_455
La0 O54 2.618007 1_554
La0 O3 2.735239 1_455
La0 O0 2.760854 1_545
La0 O3 2.780075 1_555
La0 O0 2.814882 1_555
La0 O1 2.935187 1_555
La0 O59 3.009339 1_554
La0 O5 3.144695 1_455
La0 O2 3.251267 1_545
La1 O2 2.386692 1_555
La1 O11 2.421071 1_545
La1 O13 2.440107 1_455
La1 O1 2.708379 1_555
La1 O9 2.760312 1_455
La1 O4 2.768973 1_545
La1 O9 2.769679 1_555
La1 O4 2.785986 1_555
La1 O6 2.833602 1_555
La2 O8 2.405410 1_555
La2 O19 2.407277 1_455
La2 O17 2.414942 1_545
La2 O15 2.768688 1_555
La2 O15 2.771468 1_455
La2 O10 2.771473 1_545
La2 O6 2.772338 1_555
La2 O10 2.775600 1_555
La2 O12 2.777766 1_555
La3 O0 2.371568 1_655
La3 O1 2.427044 1_565
La3 O9 2.476998 1_555
La3 O5 2.627025 1_555
La3 O7 2.755987 1_555
La3 O2 2.758279 1_555
La3 O7 2.774877 1_565
La3 O2 2.797322 1_655
La3 O11 2.877890 1_555
La4 O25 2.386553 1_455
La4 O23 2.420609 1_545
La4 O14 2.436255 1_555
La4 O18 2.718068 1_555
La4 O16 2.766912 1_555
La4 O21 2.767110 1_555
La4 O16 2.769850 1_545
La4 O21 2.780747 1_455
La4 O12 2.826074 1_555
La5 O4 2.399730 1_655
La5 O6 2.411036 1_565
La5 O15 2.423277 1_555
La5 O11 2.739345 1_555
La5 O8 2.768514 1_555
La5 O13 2.768630 1_555
La5 O13 2.774555 1_565
La5 O8 2.776810 1_655
La5 O17 2.804365 1_555
La6 O31 2.358101 1_455
La6 O29 2.432021 1_545
La6 O20 2.524051 1_555
La6 O24 2.630074 1_555
La6 O22 2.747744 1_555
La6 O27 2.767434 1_555
La6 O22 2.775098 1_545
La6 O27 2.803252 1_455
La6 O18 2.925548 1_555
La6 O26 3.003966 1_545
La6 O29 3.148419 1_455
La6 O25 3.251786 1_555
La7 O21 2.400990 1_555
La7 O12 2.409522 1_565
La7 O10 2.421655 1_655
La7 O23 2.746092 1_555
La7 O14 2.766236 1_655
La7 O19 2.770574 1_565
La7 O14 2.771322 1_555
La7 O19 2.780541 1_555
La7 O17 2.796787 1_555
La8 O37 2.402193 1_455
La8 O35 2.430370 1_545
La8 O26 2.502916 1_555
La8 O30 2.568502 1_555
La8 O33 2.754659 1_555
La8 O28 2.763821 1_555
La8 O28 2.774668 1_545
La8 O33 2.795333 1_455
La8 O24 2.871549 1_555
La8 O32 2.967721 1_545
La8 O35 3.135634 1_455
La8 O31 3.137068 1_555
La9 O27 2.372864 1_555
La9 O18 2.421931 1_565
La9 O16 2.475292 1_655
La9 O29 2.632357 1_555
La9 O20 2.751575 1_655
La9 O25 2.759008 1_565
La9 O20 2.774663 1_555
La9 O25 2.802569 1_555
La9 O23 2.869850 1_555
La10 O39 2.346055 1_555
La10 O30 2.469069 1_565
La10 O28 2.547357 1_655
La10 O41 2.561277 1_555
La10 O32 2.748233 1_555
La10 O32 2.749238 1_655
La10 O37 2.782799 1_565
La10 O37 2.802060 1_555
La10 O35 2.912934 1_555
La10 O34 2.936898 1_555
La10 O30 3.129371 1_655
La10 O33 3.265419 1_565
La11 O44 2.387700 1_555
La11 O53 2.439712 1_545
La11 O55 2.505008 1_455
La11 O42 2.557614 1_555
La11 O51 2.764583 1_455
La11 O51 2.766359 1_555
La11 O46 2.775997 1_545
La11 O46 2.790002 1_555
La11 O48 2.890569 1_555
La11 O49 2.981819 1_555
La11 O53 3.131208 1_455
La11 O50 3.168477 1_545
La12 O45 2.410096 1_555
La12 O36 2.444609 1_565
La12 O34 2.503050 1_655
La12 O47 2.678729 1_555
La12 O38 2.733585 1_655
La12 O43 2.760960 1_565
La12 O43 2.781511 1_555
La12 O38 2.790090 1_555
La12 O41 2.894607 1_555
La12 O40 3.104240 1_555
La12 O39 3.118864 1_565
La12 O36 3.122245 1_655
La13 O50 2.388971 1_555
La13 O58 2.431257 1_545
La13 O59 2.496799 1_455
La13 O48 2.663719 1_555
La13 O57 2.747869 1_455
La13 O52 2.757735 1_545
La13 O57 2.782484 1_555
La13 O52 2.801947 1_555
La13 O54 2.890539 1_555
La13 O55 3.063076 1_555
La13 O58 3.137770 1_455
La13 O56 3.165325 1_545
Mn0 O59 1.945741 1_455
Mn0 O54 1.964083 1_555
Mn0 O56 1.986968 1_545
Mn0 O3 2.000737 1_456
Mn0 O5 2.015346 1_446
Mn0 O0 2.029361 1_546
Mn1 O9 1.979838 1_455
Mn1 O2 1.982059 1_545
Mn1 O1 1.984029 1_555
Mn1 O7 1.991424 1_455
Mn1 O11 2.001193 1_445
Mn1 O4 2.029309 1_545
Mn2 O15 1.975188 1_555
Mn2 O8 1.976487 1_645
Mn2 O17 1.989091 1_545
Mn2 O6 1.989412 1_655
Mn2 O13 2.011574 1_555
Mn2 O10 2.015818 1_645
Mn3 O3 1.962382 1_555
Mn3 O5 1.964911 1_555
Mn3 O0 1.980762 1_555
Mn3 O7 1.983374 1_555
Mn3 O1 1.997594 1_555
Mn3 O2 2.037249 1_555
Mn4 O4 1.973796 1_555
Mn4 O13 1.976690 1_555
Mn4 O11 1.977055 1_555
Mn4 O6 1.987585 1_555
Mn4 O9 2.006537 1_555
Mn4 O8 2.025245 1_555
Mn5 O21 1.973782 1_565
Mn5 O14 1.976232 1_655
Mn5 O23 1.976647 1_555
Mn5 O12 1.989508 1_665
Mn5 O16 1.999727 1_655
Mn5 O19 2.017714 1_565
Mn6 O22 1.953350 1_655
Mn6 O29 1.958621 1_555
Mn6 O27 1.982115 1_565
Mn6 O20 1.982701 1_655
Mn6 O18 1.994940 1_665
Mn6 O25 2.025939 1_565
Mn7 O10 1.976329 1_555
Mn7 O19 1.979623 1_555
Mn7 O12 1.987329 1_555
Mn7 O17 1.987986 1_555
Mn7 O14 2.015232 1_555
Mn7 O15 2.019432 1_555
Mn8 O28 1.973311 1_655
Mn8 O24 1.976326 1_665
Mn8 O31 1.977678 1_565
Mn8 O35 1.986769 1_555
Mn8 O26 1.998712 1_655
Mn8 O33 2.001346 1_565
Mn9 O16 1.983928 1_555
Mn9 O18 1.986655 1_555
Mn9 O25 1.988633 1_555
Mn9 O20 1.994793 1_555
Mn9 O23 2.001886 1_555
Mn9 O21 2.033315 1_555
Mn10 O26 1.946005 1_555
Mn10 O24 1.974093 1_555
Mn10 O31 1.994566 1_555
Mn10 O22 2.010749 1_555
Mn10 O29 2.021526 1_555
Mn10 O27 2.027885 1_555
Mn11 O34 1.909017 1_655
Mn11 O41 1.921054 1_555
Mn11 O39 1.943553 1_565
Mn11 O32 1.993193 1_655
Mn11 O30 2.052784 1_665
Mn11 O37 2.066778 1_565
Mn12 O30 1.951089 1_555
Mn12 O32 1.953235 1_555
Mn12 O37 1.960222 1_555
Mn12 O35 1.983103 1_555
Mn12 O28 1.992682 1_555
Mn12 O33 2.004420 1_555
Mn13 O49 1.916623 1_455
Mn13 O42 1.937516 1_555
Mn13 O44 1.954239 1_545
Mn13 O51 2.022728 1_455
Mn13 O53 2.028518 1_445
Mn13 O46 2.057523 1_545
Mn14 O43 1.932926 1_555
Mn14 O36 1.945893 1_555
Mn14 O38 1.949794 1_555
Mn14 O39 2.024793 1_555
Mn14 O41 2.026524 1_555
Mn14 O34 2.043930 1_555
Mn15 O45 1.946804 1_555
Mn15 O47 1.954436 1_555
Mn15 O40 1.967583 1_555
Mn15 O49 2.004771 1_555
Mn15 O44 2.026260 1_555
Mn15 O42 2.035994 1_555
Mn16 O40 1.955493 1_655
Mn16 O47 1.973408 1_555
Mn16 O45 1.991466 1_565
Mn16 O36 1.997624 1_665
Mn16 O38 2.001038 1_655
Mn16 O43 2.022343 1_565
Mn17 O55 1.975481 1_455
Mn17 O48 1.979932 1_555
Mn17 O58 1.980522 1_445
Mn17 O50 1.982484 1_545
Mn17 O52 1.992581 1_545
Mn17 O57 1.997956 1_455
Mn18 O53 1.960309 1_555
Mn18 O46 1.963070 1_555
Mn18 O51 1.966611 1_555
Mn18 O55 1.990597 1_555
Mn18 O48 1.998918 1_555
Mn18 O50 2.014211 1_555
Mn19 O57 1.963962 1_555
Mn19 O58 1.979419 1_555
Mn19 O52 1.991557 1_555
Mn19 O54 1.996870 1_555
Mn19 O56 1.998035 1_555
Mn19 O59 2.004161 1_555
