# generated using pymatgen
data_YMg6Cr
_symmetry_space_group_name_H-M   'P 1'
_cell_length_a   5.13915400
_cell_length_b   6.42330900
_cell_length_c   11.29518000
_cell_angle_alpha   90.00000000
_cell_angle_beta   90.00000000
_cell_angle_gamma   90.00000000
_symmetry_Int_Tables_number   1
_chemical_formula_structural   YMg6Cr
_chemical_formula_sum   'Y2 Mg12 Cr2'
_cell_volume   372.85811779
_cell_formula_units_Z   2
loop_
 _symmetry_equiv_pos_site_id
 _symmetry_equiv_pos_as_xyz
  1  'x, y, z'
loop_
 _atom_site_type_symbol
 _atom_site_label
 _atom_site_symmetry_multiplicity
 _atom_site_fract_x
 _atom_site_fract_y
 _atom_site_fract_z
 _atom_site_occupancy
  Y  Y0  1  0.50000000  0.50000000  0.66680400  1
  Y  Y1  1  0.50000000  0.00000000  0.16680400  1
  Mg  Mg0  1  0.50000000  0.74488300  0.91814100  1
  Mg  Mg1  1  0.50000000  0.25511700  0.91814100  1
  Mg  Mg2  1  0.00000000  0.23896600  0.58416900  1
  Mg  Mg3  1  0.00000000  0.76103400  0.58416900  1
  Mg  Mg4  1  0.00000000  0.50000000  0.83585700  1
  Mg  Mg5  1  0.00000000  0.00000000  0.82820200  1
  Mg  Mg6  1  0.50000000  0.24488300  0.41814100  1
  Mg  Mg7  1  0.50000000  0.75511700  0.41814100  1
  Mg  Mg8  1  0.00000000  0.73896600  0.08416900  1
  Mg  Mg9  1  0.00000000  0.26103400  0.08416900  1
  Mg  Mg10  1  0.00000000  0.00000000  0.33585700  1
  Mg  Mg11  1  0.00000000  0.50000000  0.32820200  1
  Cr  Cr0  1  0.50000000  0.00000000  0.66451200  1
  Cr  Cr1  1  0.50000000  0.50000000  0.16451200  1
loop_
_geom_bond_atom_site_label_1
_geom_bond_atom_site_label_2
_geom_bond_distance
_geom_bond_site_symmetry_2
Mg0 Mg1 3.145918 1_555
Mg0 Mg4 3.152893 1_555
Mg0 Mg4 3.152893 1_655
Mg0 Mg8 3.181349 1_656
Mg0 Mg8 3.181349 1_556
Mg0 Mg5 3.212484 1_665
Mg0 Mg5 3.212484 1_565
Mg0 Y0 3.245541 1_555
Mg0 Y1 3.251781 1_566
Mg0 Mg1 3.277391 1_565
Mg1 Mg4 3.152893 1_555
Mg1 Mg4 3.152893 1_655
Mg1 Mg9 3.181349 1_656
Mg1 Mg9 3.181349 1_556
Mg1 Mg5 3.212484 1_555
Mg1 Mg5 3.212484 1_655
Mg1 Y0 3.245541 1_555
Mg1 Y1 3.251781 1_556
Mg2 Mg3 3.069905 1_545
Mg2 Mg5 3.154965 1_555
Mg2 Mg6 3.181349 1_555
Mg2 Mg6 3.181349 1_455
Mg2 Y0 3.207062 1_455
Mg2 Y0 3.207062 1_555
Mg2 Mg4 3.300483 1_555
Mg2 Mg3 3.353404 1_555
Mg3 Mg5 3.154965 1_565
Mg3 Mg7 3.181349 1_555
Mg3 Mg7 3.181349 1_455
Mg3 Y0 3.207062 1_455
Mg3 Y0 3.207062 1_555
Mg3 Mg4 3.300483 1_555
Mg4 Mg8 3.197277 1_556
Mg4 Mg9 3.197277 1_556
Mg4 Y0 3.201383 1_555
Mg4 Y0 3.201383 1_455
Mg4 Mg5 3.212818 1_555
Mg4 Mg5 3.212818 1_565
Mg5 Mg8 3.342204 1_546
Mg5 Mg9 3.342204 1_556
Mg6 Mg7 3.145918 1_545
Mg6 Y1 3.245541 1_555
Mg6 Y0 3.251781 1_555
Mg6 Mg7 3.277391 1_555
Mg7 Y1 3.245541 1_565
Mg7 Y0 3.251781 1_555
Mg8 Mg9 3.069905 1_555
Mg8 Y1 3.207062 1_465
Mg8 Y1 3.207062 1_565
Mg8 Mg9 3.353404 1_565
Mg9 Y1 3.207062 1_455
Mg9 Y1 3.207062 1_555
Mg10 Mg7 3.152893 1_545
Mg10 Mg7 3.152893 1_445
Mg10 Mg6 3.152893 1_555
Mg10 Mg6 3.152893 1_455
Mg10 Mg3 3.197277 1_545
Mg10 Mg2 3.197277 1_555
Mg10 Y1 3.201383 1_455
Mg10 Y1 3.201383 1_555
Mg10 Mg11 3.212818 1_555
Mg10 Mg11 3.212818 1_545
Mg10 Mg8 3.300483 1_545
Mg10 Mg9 3.300483 1_555
Mg11 Mg9 3.154965 1_555
Mg11 Mg8 3.154965 1_555
Mg11 Mg6 3.212484 1_555
Mg11 Mg7 3.212484 1_455
Mg11 Mg7 3.212484 1_555
Mg11 Mg6 3.212484 1_455
Mg11 Mg3 3.342204 1_555
Mg11 Mg2 3.342204 1_555
Cr0 Mg2 3.127673 1_555
Cr0 Mg3 3.127673 1_645
Cr0 Mg2 3.127673 1_655
Cr0 Mg3 3.127673 1_545
Cr0 Mg5 3.165626 1_655
Cr0 Mg5 3.165626 1_555
Cr0 Mg6 3.196592 1_555
Cr0 Mg7 3.196592 1_545
Cr0 Y0 3.211759 1_555
Cr0 Y0 3.211759 1_545
Cr0 Mg1 3.300351 1_555
Cr0 Mg0 3.300351 1_545
Cr1 Mg8 3.127673 1_655
Cr1 Mg9 3.127673 1_555
Cr1 Mg9 3.127673 1_655
Cr1 Mg8 3.127673 1_555
Cr1 Mg11 3.165626 1_655
Cr1 Mg11 3.165626 1_555
Cr1 Mg0 3.196592 1_554
Cr1 Mg1 3.196592 1_554
Cr1 Y1 3.211759 1_565
Cr1 Y1 3.211759 1_555
Cr1 Mg6 3.300351 1_555
Cr1 Mg7 3.300351 1_555
