# generated using pymatgen
data_NdIn2Ni9
_symmetry_space_group_name_H-M   'P 1'
_cell_length_a   4.86127300
_cell_length_b   8.28084000
_cell_length_c   8.28084000
_cell_angle_alpha   90.00000000
_cell_angle_beta   90.00000000
_cell_angle_gamma   90.00000000
_symmetry_Int_Tables_number   1
_chemical_formula_structural   NdIn2Ni9
_chemical_formula_sum   'Nd2 In4 Ni18'
_cell_volume   333.34872453
_cell_formula_units_Z   2
loop_
 _symmetry_equiv_pos_site_id
 _symmetry_equiv_pos_as_xyz
  1  'x, y, z'
loop_
 _atom_site_type_symbol
 _atom_site_label
 _atom_site_symmetry_multiplicity
 _atom_site_fract_x
 _atom_site_fract_y
 _atom_site_fract_z
 _atom_site_occupancy
  Nd  Nd0  1  0.00000000  0.50000000  0.50000000  1
  Nd  Nd1  1  0.00000000  0.00000000  0.00000000  1
  In  In0  1  0.00000000  0.62400400  0.12400400  1
  In  In1  1  0.00000000  0.37599600  0.87599600  1
  In  In2  1  0.00000000  0.87599600  0.62400400  1
  In  In3  1  0.00000000  0.12400400  0.37599600  1
  Ni  Ni0  1  0.75193900  0.17664500  0.67664500  1
  Ni  Ni1  1  0.75193900  0.82335500  0.32335500  1
  Ni  Ni2  1  0.75193900  0.32335500  0.17664500  1
  Ni  Ni3  1  0.75193900  0.67664500  0.82335500  1
  Ni  Ni4  1  0.24806100  0.82335500  0.32335500  1
  Ni  Ni5  1  0.24806100  0.17664500  0.67664500  1
  Ni  Ni6  1  0.24806100  0.67664500  0.82335500  1
  Ni  Ni7  1  0.24806100  0.32335500  0.17664500  1
  Ni  Ni8  1  0.50000000  0.70883100  0.56445000  1
  Ni  Ni9  1  0.50000000  0.29116900  0.43555000  1
  Ni  Ni10  1  0.50000000  0.79116900  0.06445000  1
  Ni  Ni11  1  0.50000000  0.20883100  0.93555000  1
  Ni  Ni12  1  0.50000000  0.56445000  0.29116900  1
  Ni  Ni13  1  0.50000000  0.43555000  0.70883100  1
  Ni  Ni14  1  0.50000000  0.06445000  0.20883100  1
  Ni  Ni15  1  0.50000000  0.93555000  0.79116900  1
  Ni  Ni16  1  0.50000000  0.00000000  0.50000000  1
  Ni  Ni17  1  0.50000000  0.50000000  0.00000000  1
loop_
_geom_bond_atom_site_label_1
_geom_bond_atom_site_label_2
_geom_bond_distance
_geom_bond_site_symmetry_2
Nd0 Ni9 3.030395 1_555
Nd0 Ni13 3.030395 1_455
Nd0 Ni9 3.030395 1_455
Nd0 Ni12 3.030395 1_455
Nd0 Ni12 3.030395 1_555
Nd0 Ni8 3.030395 1_455
Nd0 Ni13 3.030395 1_555
Nd0 Ni8 3.030395 1_555
Nd0 Ni2 3.280805 1_455
Nd0 Ni3 3.280805 1_455
Nd0 Ni1 3.280805 1_455
Nd0 Ni4 3.280805 1_555
Nd0 Ni6 3.280805 1_555
Nd0 Ni7 3.280805 1_555
Nd0 Ni0 3.280805 1_455
Nd0 Ni5 3.280805 1_555
Nd1 Ni10 3.030395 1_445
Nd1 Ni10 3.030395 1_545
Nd1 Ni15 3.030395 1_544
Nd1 Ni11 3.030395 1_554
Nd1 Ni11 3.030395 1_454
Nd1 Ni14 3.030395 1_555
Nd1 Ni15 3.030395 1_444
Nd1 Ni14 3.030395 1_455
Nd1 Ni2 3.280805 1_455
Nd1 Ni3 3.280805 1_444
Nd1 Ni5 3.280805 1_554
Nd1 Ni0 3.280805 1_454
Nd1 Ni6 3.280805 1_544
Nd1 Ni7 3.280805 1_555
Nd1 Ni4 3.280805 1_545
Nd1 Ni1 3.280805 1_445
In0 Ni1 2.627626 1_455
In0 Ni4 2.627626 1_555
In0 Ni7 2.800435 1_555
In0 Ni2 2.800435 1_455
In0 Ni3 2.800435 1_454
In0 Ni6 2.800435 1_554
In0 Ni17 2.831407 1_455
In0 Ni17 2.831407 1_555
In0 Ni12 2.840315 1_555
In0 Ni10 2.840315 1_555
In0 Ni10 2.840315 1_455
In0 Ni12 2.840315 1_455
In0 In1 2.904391 1_554
In0 Nd1 3.278522 1_565
In0 Nd0 3.278522 1_555
In1 Ni5 2.627626 1_555
In1 Ni0 2.627626 1_455
In1 Ni2 2.800435 1_456
In1 Ni7 2.800435 1_556
In1 Ni3 2.800435 1_455
In1 Ni6 2.800435 1_555
In1 Ni17 2.831407 1_556
In1 Ni17 2.831407 1_456
In1 Ni11 2.840315 1_455
In1 Ni13 2.840315 1_555
In1 Ni13 2.840315 1_455
In1 Ni11 2.840315 1_555
In1 Nd1 3.278522 1_556
In1 Nd0 3.278522 1_555
In2 Ni3 2.627626 1_455
In2 Ni6 2.627626 1_555
In2 Ni0 2.800435 1_465
In2 Ni5 2.800435 1_565
In2 Ni1 2.800435 1_455
In2 Ni4 2.800435 1_555
In2 Ni16 2.831407 1_465
In2 Ni16 2.831407 1_565
In2 Ni8 2.840315 1_555
In2 Ni15 2.840315 1_555
In2 Ni15 2.840315 1_455
In2 Ni8 2.840315 1_455
In2 In3 2.904391 1_565
In2 Nd1 3.278522 1_566
In2 Nd0 3.278522 1_555
In3 Ni2 2.627626 1_455
In3 Ni7 2.627626 1_555
In3 Ni0 2.800435 1_455
In3 Ni4 2.800435 1_545
In3 Ni1 2.800435 1_445
In3 Ni5 2.800435 1_555
In3 Ni16 2.831407 1_555
In3 Ni16 2.831407 1_455
In3 Ni9 2.840315 1_555
In3 Ni9 2.840315 1_455
In3 Ni14 2.840315 1_555
In3 Ni14 2.840315 1_455
In3 Nd1 3.278522 1_555
In3 Nd0 3.278522 1_555
Ni0 Ni16 2.404035 1_555
Ni0 Ni5 2.411784 1_655
Ni0 Ni5 2.449489 1_555
Ni0 Ni11 2.483457 1_555
Ni0 Ni13 2.483457 1_555
Ni0 Ni15 2.526908 1_545
Ni0 Ni9 2.526908 1_555
Ni1 Ni16 2.404035 1_565
Ni1 Ni4 2.411784 1_655
Ni1 Ni4 2.449489 1_555
Ni1 Ni12 2.483457 1_555
Ni1 Ni10 2.483457 1_555
Ni1 Ni8 2.526908 1_555
Ni1 Ni14 2.526908 1_565
Ni2 Ni7 2.411784 1_655
Ni2 Ni7 2.449489 1_555
Ni2 Ni9 2.483457 1_555
Ni3 Ni6 2.411784 1_655
Ni3 Ni6 2.449489 1_555
Ni3 Ni8 2.483457 1_555
Ni4 Ni8 2.526908 1_555
Ni5 Ni9 2.526908 1_555
Ni6 Ni8 2.483457 1_555
Ni7 Ni9 2.483457 1_555
Ni10 Ni17 2.469485 1_555
Ni10 Ni4 2.483457 1_555
Ni10 Ni6 2.526908 1_554
Ni10 Ni3 2.526908 1_554
Ni10 Ni14 2.559414 1_565
Ni10 Ni15 2.559414 1_554
Ni10 Ni12 2.655078 1_555
Ni11 Ni17 2.469485 1_556
Ni11 Ni5 2.483457 1_555
Ni11 Ni2 2.526908 1_556
Ni11 Ni7 2.526908 1_556
Ni11 Ni14 2.559414 1_556
Ni11 Ni15 2.559414 1_545
Ni11 Ni13 2.655078 1_555
Ni12 Ni17 2.469485 1_555
Ni12 Ni4 2.483457 1_555
Ni12 Ni7 2.526908 1_555
Ni12 Ni2 2.526908 1_555
Ni12 Ni8 2.559414 1_555
Ni12 Ni9 2.559414 1_555
Ni13 Ni17 2.469485 1_556
Ni13 Ni5 2.483457 1_555
Ni13 Ni6 2.526908 1_555
Ni13 Ni3 2.526908 1_555
Ni13 Ni8 2.559414 1_555
Ni13 Ni9 2.559414 1_555
Ni14 Ni16 2.469485 1_555
Ni14 Ni7 2.483457 1_555
Ni14 Ni2 2.483457 1_555
Ni14 Ni4 2.526908 1_545
Ni14 Ni9 2.655078 1_555
Ni15 Ni16 2.469485 1_565
Ni15 Ni6 2.483457 1_555
Ni15 Ni3 2.483457 1_555
Ni15 Ni5 2.526908 1_565
Ni15 Ni8 2.655078 1_555
Ni16 Ni5 2.404035 1_555
Ni16 Ni4 2.404035 1_545
Ni16 Ni9 2.469485 1_555
Ni16 Ni8 2.469485 1_545
Ni17 Ni2 2.404035 1_555
Ni17 Ni7 2.404035 1_555
Ni17 Ni6 2.404035 1_554
Ni17 Ni3 2.404035 1_554
