# generated using pymatgen
data_EuPd2
_symmetry_space_group_name_H-M   'P 1'
_cell_length_a   5.49491355
_cell_length_b   5.49491666
_cell_length_c   5.49491525
_cell_angle_alpha   60.00008955
_cell_angle_beta   60.00009431
_cell_angle_gamma   60.00012745
_symmetry_Int_Tables_number   1
_chemical_formula_structural   EuPd2
_chemical_formula_sum   'Eu2 Pd4'
_cell_volume   117.31917399
_cell_formula_units_Z   2
loop_
 _symmetry_equiv_pos_site_id
 _symmetry_equiv_pos_as_xyz
  1  'x, y, z'
loop_
 _atom_site_type_symbol
 _atom_site_label
 _atom_site_symmetry_multiplicity
 _atom_site_fract_x
 _atom_site_fract_y
 _atom_site_fract_z
 _atom_site_occupancy
  Eu  Eu0  1  0.12499917  0.12499997  0.12500001  1
  Eu  Eu1  1  0.87500085  0.87500007  0.87500004  1
  Pd  Pd0  1  0.50000076  0.99999864  0.50000076  1
  Pd  Pd1  1  0.99999865  0.50000076  0.50000076  1
  Pd  Pd2  1  0.50000079  0.50000082  0.50000080  1
  Pd  Pd3  1  0.50000078  0.50000075  0.99999863  1
loop_
_geom_bond_atom_site_label_1
_geom_bond_atom_site_label_2
_geom_bond_distance
_geom_bond_site_symmetry_2
Eu0 Pd0 3.221677 1_445
Eu0 Pd3 3.221678 1_454
Eu0 Pd1 3.221680 1_445
Eu0 Pd1 3.221680 1_454
Eu0 Pd0 3.221682 1_544
Eu0 Pd3 3.221684 1_544
Eu0 Pd2 3.221685 1_455
Eu0 Pd1 3.221686 1_455
Eu0 Pd3 3.221686 1_554
Eu0 Pd0 3.221686 1_545
Eu0 Pd2 3.221687 1_554
Eu0 Pd2 3.221689 1_545
Eu1 Pd0 3.221677 1_655
Eu1 Pd1 3.221678 1_555
Eu1 Pd3 3.221679 1_555
Eu1 Pd3 3.221679 1_655
Eu1 Pd0 3.221679 1_555
Eu1 Pd1 3.221681 1_556
Eu1 Pd1 3.221681 1_565
Eu1 Pd2 3.221681 1_655
Eu1 Pd0 3.221683 1_556
Eu1 Pd2 3.221683 1_556
Eu1 Pd3 3.221684 1_565
Eu1 Pd2 3.221685 1_565
Pd0 Pd2 2.747446 1_555
Pd0 Pd3 2.747450 1_555
Pd0 Pd1 2.747451 1_555
Pd0 Pd2 2.747471 1_565
Pd0 Pd3 2.747473 1_564
Pd0 Pd1 2.747474 1_465
Pd1 Pd2 2.747445 1_555
Pd1 Pd3 2.747449 1_555
Pd1 Pd2 2.747469 1_655
Pd1 Pd3 2.747473 1_654
Pd2 Pd3 2.747445 1_555
Pd2 Pd3 2.747470 1_554
