# generated using pymatgen
data_K2AlB5O14
_symmetry_space_group_name_H-M   'P 1'
_cell_length_a   13.42169100
_cell_length_b   7.01016200
_cell_length_c   7.03477357
_cell_angle_alpha   89.64824658
_cell_angle_beta   90.00000000
_cell_angle_gamma   90.00000000
_symmetry_Int_Tables_number   1
_chemical_formula_structural   K2AlB5O14
_chemical_formula_sum   'K4 Al2 B10 O28'
_cell_volume   661.87690788
_cell_formula_units_Z   2
loop_
 _symmetry_equiv_pos_site_id
 _symmetry_equiv_pos_as_xyz
  1  'x, y, z'
loop_
 _atom_site_type_symbol
 _atom_site_label
 _atom_site_symmetry_multiplicity
 _atom_site_fract_x
 _atom_site_fract_y
 _atom_site_fract_z
 _atom_site_occupancy
  K  K0  1  0.63191300  0.41467200  0.44693700  1
  K  K1  1  0.13191300  0.58532800  0.55306300  1
  K  K2  1  0.91859100  0.97735100  0.90373100  1
  K  K3  1  0.41859100  0.02264900  0.09626900  1
  Al  Al0  1  0.77963300  0.87863600  0.38172700  1
  Al  Al1  1  0.27963300  0.12136400  0.61827300  1
  B  B0  1  0.65131500  0.76901800  0.08446900  1
  B  B1  1  0.15131500  0.23098200  0.91553100  1
  B  B2  1  0.70410400  0.79330600  0.75245100  1
  B  B3  1  0.20410400  0.20669400  0.24754900  1
  B  B4  1  0.52909900  0.67662700  0.81802100  1
  B  B5  1  0.02909900  0.32337300  0.18197900  1
  B  B6  1  0.40898800  0.41739100  0.73111700  1
  B  B7  1  0.90898800  0.58260900  0.26888300  1
  B  B8  1  0.35591600  0.74999500  0.70411700  1
  B  B9  1  0.85591600  0.25000500  0.29588300  1
  O  O0  1  0.78159900  0.12654300  0.33970700  1
  O  O1  1  0.28159900  0.87345700  0.66029300  1
  O  O2  1  0.66234300  0.25480600  0.93384800  1
  O  O3  1  0.16234300  0.74519400  0.06615200  1
  O  O4  1  0.77771500  0.84157100  0.62988100  1
  O  O5  1  0.27771500  0.15842900  0.37011900  1
  O  O6  1  0.45987200  0.54802700  0.22194700  1
  O  O7  1  0.95987200  0.45197300  0.77805300  1
  O  O8  1  0.88759300  0.77073700  0.28625600  1
  O  O9  1  0.38759300  0.22926300  0.71374400  1
  O  O10  1  0.02849900  0.98054900  0.51847900  1
  O  O11  1  0.52849900  0.01945100  0.48152100  1
  O  O12  1  0.67142400  0.78190300  0.27199600  1
  O  O13  1  0.17142400  0.21809700  0.72800400  1
  O  O14  1  0.73765600  0.28643500  0.83717100  1
  O  O15  1  0.23765600  0.71356500  0.16282900  1
  O  O16  1  0.55851400  0.71169300  0.02106200  1
  O  O17  1  0.05851400  0.28830700  0.97893800  1
  O  O18  1  0.72322400  0.81806100  0.94785000  1
  O  O19  1  0.22322400  0.18193900  0.05215000  1
  O  O20  1  0.61490400  0.71862500  0.69454500  1
  O  O21  1  0.11490400  0.28137500  0.30545500  1
  O  O22  1  0.44667500  0.80809700  0.77369300  1
  O  O23  1  0.94667500  0.19190300  0.22630700  1
  O  O24  1  0.50106400  0.47622000  0.79248600  1
  O  O25  1  0.00106400  0.52378000  0.20751400  1
  O  O26  1  0.33609900  0.55455400  0.68405700  1
  O  O27  1  0.83609900  0.44544600  0.31594300  1
loop_
_geom_bond_atom_site_label_1
_geom_bond_atom_site_label_2
_geom_bond_distance
_geom_bond_site_symmetry_2
K0 O20 2.769824 1_555
K0 O12 2.895539 1_555
K0 O27 2.898921 1_555
K0 O6 2.948343 1_555
K0 O0 2.950202 1_555
K0 O24 3.031898 1_555
K0 O11 3.107001 1_555
K0 O14 3.213762 1_555
K1 O21 2.769824 1_555
K1 O13 2.895539 1_555
K1 O26 2.898921 1_555
K1 O7 2.948343 1_455
K1 O1 2.950202 1_555
K1 O25 3.031898 1_555
K1 O10 3.107001 1_555
K1 O15 3.213762 1_555
K2 O23 2.756017 1_566
K2 O18 2.866126 1_555
K2 O4 2.866167 1_555
K2 O17 2.927921 1_665
K2 O8 3.076434 1_556
K2 O10 3.085579 1_655
K2 O14 3.286166 1_565
K3 O22 2.756017 1_544
K3 O19 2.866126 1_555
K3 O5 2.866167 1_555
K3 O16 2.927921 1_545
K3 O9 3.076434 1_554
K3 O11 3.085579 1_555
K3 O15 3.286166 1_545
Al0 O0 1.761237 1_565
Al0 O4 1.763547 1_555
Al0 O8 1.768912 1_555
Al0 O12 1.780859 1_555
Al1 O1 1.761237 1_545
Al1 O5 1.763547 1_555
Al1 O9 1.768912 1_555
Al1 O13 1.780859 1_555
B0 O12 1.350104 1_555
B0 O16 1.383488 1_555
B0 O18 1.403324 1_554
B1 O13 1.350104 1_555
B1 O17 1.383488 1_555
B1 O19 1.403324 1_556
B2 O4 1.352955 1_555
B2 O20 1.369657 1_555
B2 O18 1.410103 1_555
B3 O5 1.352955 1_555
B3 O21 1.369657 1_555
B3 O19 1.410103 1_555
B4 O24 1.466511 1_555
B4 O20 1.471171 1_555
B4 O22 1.472053 1_555
B4 O16 1.503589 1_556
B5 O25 1.466511 1_555
B5 O21 1.471171 1_555
B5 O23 1.472053 1_455
B5 O17 1.503589 1_554
B6 O9 1.355960 1_555
B6 O24 1.373274 1_555
B6 O26 1.409715 1_555
B7 O8 1.355960 1_555
B7 O25 1.373274 1_655
B7 O27 1.409715 1_555
B8 O1 1.354904 1_555
B8 O22 1.375417 1_555
B8 O26 1.403614 1_555
B9 O0 1.354904 1_555
B9 O23 1.375417 1_555
B9 O27 1.403614 1_555
O14 O2 1.237586 1_555
O15 O3 1.237586 1_555
