# generated using pymatgen
data_Sc2CdHg
_symmetry_space_group_name_H-M   'P 1'
_cell_length_a   12.14329396
_cell_length_b   12.14329396
_cell_length_c   12.14329396
_cell_angle_alpha   122.05989111
_cell_angle_beta   121.90085119
_cell_angle_gamma   86.60286925
_symmetry_Int_Tables_number   1
_chemical_formula_structural   Sc2CdHg
_chemical_formula_sum   'Sc2 Cd1 Hg1'
_cell_volume   1225.92807656
_cell_formula_units_Z   1
loop_
 _symmetry_equiv_pos_site_id
 _symmetry_equiv_pos_as_xyz
  1  'x, y, z'
loop_
 _atom_site_type_symbol
 _atom_site_label
 _atom_site_symmetry_multiplicity
 _atom_site_fract_x
 _atom_site_fract_y
 _atom_site_fract_z
 _atom_site_occupancy
  Sc  Sc0  1  0.74361800  0.00000000  0.74361800  1
  Sc  Sc1  1  0.25638200  0.00000000  0.25638200  1
  Cd  Cd0  1  0.00000000  0.00000000  0.00000000  1
  Hg  Hg0  1  0.50000000  0.00000000  0.50000000  1
loop_
_geom_bond_atom_site_label_1
_geom_bond_atom_site_label_2
_geom_bond_distance
_geom_bond_site_symmetry_2
Cd0 Sc0 3.023448 1_454
Cd0 Sc1 3.023448 1_555
Hg0 Sc0 2.872925 1_555
Hg0 Sc1 2.872925 1_555
