# generated using pymatgen
data_K2MgFe4P6(O4F3)4
_symmetry_space_group_name_H-M   'P 1'
_cell_length_a   7.43008289
_cell_length_b   7.97766556
_cell_length_c   10.67987818
_cell_angle_alpha   100.48071168
_cell_angle_beta   109.86194712
_cell_angle_gamma   91.90244224
_symmetry_Int_Tables_number   1
_chemical_formula_structural   K2MgFe4P6(O4F3)4
_chemical_formula_sum   'K2 Mg1 Fe4 P6 O16 F12'
_cell_volume   582.35888969
_cell_formula_units_Z   1
loop_
 _symmetry_equiv_pos_site_id
 _symmetry_equiv_pos_as_xyz
  1  'x, y, z'
loop_
 _atom_site_type_symbol
 _atom_site_label
 _atom_site_symmetry_multiplicity
 _atom_site_fract_x
 _atom_site_fract_y
 _atom_site_fract_z
 _atom_site_occupancy
  K  K0  1  0.75801047  0.07831122  0.77381207  1
  K  K1  1  0.19822312  0.00343114  0.20710284  1
  Mg  Mg0  1  0.41662122  0.59191423  0.20669014  1
  Fe  Fe0  1  0.66128555  0.29822376  0.33410573  1
  Fe  Fe1  1  0.32904424  0.68245371  0.66602389  1
  Fe  Fe2  1  0.51765372  0.48219949  0.97373304  1
  Fe  Fe3  1  0.00296522  0.00289002  0.50509272  1
  P  P0  1  0.62405811  0.73176259  0.48767252  1
  P  P1  1  0.34066257  0.29249649  0.50086924  1
  P  P2  1  0.30333156  0.07419888  0.81443320  1
  P  P3  1  0.69889066  0.90455811  0.19224867  1
  P  P4  1  0.07432863  0.60290597  0.86377100  1
  P  P5  1  0.94915532  0.40244768  0.15522718  1
  O  O0  1  0.64738435  0.57491494  0.39199678  1
  O  O1  1  0.25552033  0.44901487  0.55329044  1
  O  O2  1  0.77498810  0.88184480  0.53171736  1
  O  O3  1  0.22271352  0.12239084  0.48134574  1
  O  O4  1  0.57971794  0.04475009  0.22434184  1
  O  O5  1  0.41046349  0.92504826  0.77549983  1
  O  O6  1  0.43414376  0.23986685  0.86578782  1
  O  O7  1  0.58099816  0.72813555  0.13873633  1
  O  O8  1  0.89602849  0.90500355  0.30155179  1
  O  O9  1  0.10488389  0.08195935  0.70948178  1
  O  O10  1  0.90280193  0.33870845  0.26314307  1
  O  O11  1  0.11908899  0.65232106  0.74913351  1
  O  O12  1  0.81693759  0.47743605  0.04591531  1
  O  O13  1  0.22971586  0.57154443  0.98868426  1
  O  O14  1  0.39649466  0.29724657  0.37722185  1
  O  O15  1  0.55124511  0.70792622  0.59905913  1
  F  F0  1  0.84976209  0.19844327  0.48774022  1
  F  F1  1  0.14378756  0.78915450  0.52627233  1
  F  F2  1  0.48957302  0.37769140  0.14312156  1
  F  F3  1  0.50539359  0.60622252  0.82237534  1
  F  F4  1  0.75569855  0.94006635  0.06669922  1
  F  F5  1  0.24938198  0.03475481  0.94060339  1
  F  F6  1  0.92030142  0.44373169  0.80557782  1
  F  F7  1  0.14163292  0.53775143  0.22597515  1
  F  F8  1  0.53864121  0.28323248  0.62089477  1
  F  F9  1  0.43111461  0.79272826  0.36952305  1
  F  F10  1  0.04484433  0.25854449  0.08207343  1
  F  F11  1  0.95394112  0.74177360  0.91270463  1
loop_
_geom_bond_atom_site_label_1
_geom_bond_atom_site_label_2
_geom_bond_distance
_geom_bond_site_symmetry_2
K0 O2 2.813885 1_545
K0 O5 2.827291 1_545
K0 O9 2.884587 1_655
K0 O6 3.125390 1_555
K0 O15 3.212209 1_545
K1 O14 2.714408 1_555
K1 O4 2.781803 1_555
K1 O3 2.850833 1_555
K1 O8 2.895802 1_445
Mg0 O7 2.000108 1_555
Mg0 O0 2.163835 1_555
Mg0 O13 2.241900 1_554
Fe0 O4 2.098566 1_555
Fe0 O14 2.167653 1_555
Fe0 O0 2.197122 1_555
Fe0 O10 2.207615 1_555
Fe1 O1 1.971282 1_555
Fe1 O5 2.024088 1_555
Fe1 O15 2.027657 1_555
Fe1 O11 2.067070 1_555
Fe2 O6 2.018651 1_555
Fe2 O12 2.095711 1_556
Fe2 O7 2.300782 1_556
Fe2 O13 2.324337 1_555
Fe3 O3 1.976115 1_555
Fe3 O9 2.019976 1_555
Fe3 O8 2.033245 1_445
Fe3 O2 2.049680 1_445
O0 P0 1.519673 1_555
O1 P1 1.520378 1_555
O2 P0 1.503298 1_555
O3 P1 1.531994 1_555
O4 P3 1.511579 1_545
O5 P2 1.526467 1_565
O6 P2 1.510297 1_555
O7 P3 1.536274 1_555
O8 P3 1.531167 1_555
O9 P2 1.530542 1_555
O10 P5 1.475402 1_555
O11 P4 1.486110 1_555
O12 P5 1.483128 1_555
O13 P4 1.506413 1_555
O14 P1 1.518800 1_555
O15 P0 1.502255 1_555
F0 Fe3 1.960516 1_655
F0 Fe0 2.067558 1_555
F1 Fe1 1.997725 1_555
F1 Fe3 2.037475 1_565
F2 Mg0 1.888079 1_555
F2 Fe2 2.192018 1_554
F2 Fe0 2.223926 1_555
F3 Fe1 1.952078 1_555
F3 Fe2 2.021891 1_555
F4 P3 1.603467 1_555
F4 K1 3.094930 1_665
F5 P2 1.608826 1_555
F5 K1 3.048815 1_556
F6 P4 1.562550 1_655
F6 K0 3.032550 1_555
F7 P5 1.627209 1_455
F7 Mg0 2.159501 1_555
F8 P1 1.604010 1_555
F8 K0 2.708470 1_555
F9 P0 1.710056 1_555
F9 Mg0 2.109516 1_555
F9 K1 2.836017 1_565
F10 P5 1.593468 1_455
F10 K1 2.707856 1_555
F10 K0 3.279432 1_454
F11 P4 1.572687 1_655
F11 K1 3.319670 1_666
