# generated using pymatgen
data_ErMn2O3
_symmetry_space_group_name_H-M   'P 1'
_cell_length_a   5.97832400
_cell_length_b   6.43970000
_cell_length_c   9.21068800
_cell_angle_alpha   90.00000000
_cell_angle_beta   90.00000000
_cell_angle_gamma   90.00000000
_symmetry_Int_Tables_number   1
_chemical_formula_structural   ErMn2O3
_chemical_formula_sum   'Er4 Mn8 O12'
_cell_volume   354.59871335
_cell_formula_units_Z   4
loop_
 _symmetry_equiv_pos_site_id
 _symmetry_equiv_pos_as_xyz
  1  'x, y, z'
loop_
 _atom_site_type_symbol
 _atom_site_label
 _atom_site_symmetry_multiplicity
 _atom_site_fract_x
 _atom_site_fract_y
 _atom_site_fract_z
 _atom_site_occupancy
  Er  Er0  1  0.50000000  0.39158500  0.33079200  1
  Er  Er1  1  0.50000000  0.60841500  0.66920800  1
  Er  Er2  1  0.50000000  0.10841500  0.83079200  1
  Er  Er3  1  0.50000000  0.89158500  0.16920800  1
  Mn  Mn0  1  0.23636300  0.00000000  0.50000000  1
  Mn  Mn1  1  0.76363700  0.00000000  0.50000000  1
  Mn  Mn2  1  0.76363700  0.50000000  0.00000000  1
  Mn  Mn3  1  0.23636300  0.50000000  0.00000000  1
  Mn  Mn4  1  0.00000000  0.09942900  0.15120800  1
  Mn  Mn5  1  0.00000000  0.90057100  0.84879200  1
  Mn  Mn6  1  0.00000000  0.40057100  0.65120800  1
  Mn  Mn7  1  0.00000000  0.59942900  0.34879200  1
  O  O0  1  0.26943300  0.10416800  0.30229600  1
  O  O1  1  0.73056700  0.89583200  0.69770400  1
  O  O2  1  0.26943300  0.89583200  0.69770400  1
  O  O3  1  0.73056700  0.39583200  0.80229600  1
  O  O4  1  0.73056700  0.10416800  0.30229600  1
  O  O5  1  0.26943300  0.60416800  0.19770400  1
  O  O6  1  0.73056700  0.60416800  0.19770400  1
  O  O7  1  0.26943300  0.39583200  0.80229600  1
  O  O8  1  0.25834100  0.00000000  0.00000000  1
  O  O9  1  0.74165900  0.00000000  0.00000000  1
  O  O10  1  0.74165900  0.50000000  0.50000000  1
  O  O11  1  0.25834100  0.50000000  0.50000000  1
loop_
_geom_bond_atom_site_label_1
_geom_bond_atom_site_label_2
_geom_bond_distance
_geom_bond_site_symmetry_2
Er0 O10 2.236878 1_555
Er0 O11 2.236878 1_555
Er0 O6 2.297116 1_555
Er0 O5 2.297116 1_555
Er0 O4 2.322637 1_555
Er0 O0 2.322637 1_555
Er1 O10 2.236878 1_555
Er1 O11 2.236878 1_555
Er1 O3 2.297116 1_555
Er1 O7 2.297116 1_555
Er1 O1 2.322637 1_555
Er1 O2 2.322637 1_555
Er2 O9 2.236878 1_556
Er2 O8 2.236878 1_556
Er2 O1 2.297116 1_545
Er2 O2 2.297116 1_545
Er2 O3 2.322637 1_555
Er2 O7 2.322637 1_555
Er3 O9 2.236878 1_565
Er3 O8 2.236878 1_565
Er3 O4 2.297116 1_565
Er3 O0 2.297116 1_565
Er3 O6 2.322637 1_555
Er3 O5 2.322637 1_555
Mn0 O0 1.950661 1_555
Mn0 O2 1.950661 1_545
Mn1 O4 1.950661 1_555
Mn1 O1 1.950661 1_545
Mn2 O3 1.950661 1_554
Mn2 O6 1.950661 1_555
Mn3 O7 1.950661 1_554
Mn3 O5 1.950661 1_555
Mn4 O0 2.128871 1_555
Mn4 O4 2.128871 1_455
Mn4 O8 2.176002 1_555
Mn4 O9 2.176002 1_455
Mn5 O2 2.128871 1_555
Mn5 O1 2.128871 1_455
Mn5 O8 2.176002 1_566
Mn5 O9 2.176002 1_466
Mn6 O7 2.128871 1_555
Mn6 O3 2.128871 1_455
Mn6 O11 2.176002 1_555
Mn6 O10 2.176002 1_455
Mn7 O5 2.128871 1_555
Mn7 O6 2.128871 1_455
Mn7 O11 2.176002 1_555
Mn7 O10 2.176002 1_455
