# generated using pymatgen
data_K2LiMn2O4
_symmetry_space_group_name_H-M   'P 1'
_cell_length_a   6.46327179
_cell_length_b   6.65184541
_cell_length_c   6.46358148
_cell_angle_alpha   93.17562240
_cell_angle_beta   85.86757385
_cell_angle_gamma   86.82348313
_symmetry_Int_Tables_number   1
_chemical_formula_structural   K2LiMn2O4
_chemical_formula_sum   'K4 Li2 Mn4 O8'
_cell_volume   276.24586778
_cell_formula_units_Z   2
loop_
 _symmetry_equiv_pos_site_id
 _symmetry_equiv_pos_as_xyz
  1  'x, y, z'
loop_
 _atom_site_type_symbol
 _atom_site_label
 _atom_site_symmetry_multiplicity
 _atom_site_fract_x
 _atom_site_fract_y
 _atom_site_fract_z
 _atom_site_occupancy
  K  K0  1  0.97397700  0.25000100  0.97399500  1
  K  K1  1  0.01552100  0.74999800  0.01558100  1
  K  K2  1  0.50017100  0.99027200  0.01031600  1
  K  K3  1  0.00999000  0.50970000  0.50035800  1
  Li  Li0  1  0.35326000  0.25002400  0.35327800  1
  Li  Li1  1  0.64188500  0.75005000  0.64180600  1
  Mn  Mn0  1  0.81778500  0.03556600  0.41961400  1
  Mn  Mn1  1  0.20775500  0.96513900  0.58636300  1
  Mn  Mn2  1  0.58608700  0.53483100  0.20762900  1
  Mn  Mn3  1  0.41948100  0.46424800  0.81779500  1
  O  O0  1  0.31006900  0.44003700  0.10770100  1
  O  O1  1  0.10796700  0.05985200  0.31006000  1
  O  O2  1  0.88084200  0.94716000  0.68323900  1
  O  O3  1  0.68327400  0.55288500  0.88063200  1
  O  O4  1  0.67114700  0.24415200  0.29035500  1
  O  O5  1  0.69255100  0.78385700  0.33785200  1
  O  O6  1  0.29027600  0.25600400  0.67093000  1
  O  O7  1  0.33796000  0.71622500  0.69249600  1
loop_
_geom_bond_atom_site_label_1
_geom_bond_atom_site_label_2
_geom_bond_distance
_geom_bond_site_symmetry_2
K0 O4 2.730228 1_556
K0 O6 2.731053 1_655
K0 O0 2.741775 1_656
K0 O1 2.742683 1_656
K0 O2 2.798253 1_545
K0 O3 2.798600 1_555
K1 O3 2.747108 1_454
K1 O2 2.747225 1_454
K1 O5 2.831321 1_455
K1 O7 2.832564 1_554
K1 O1 2.844957 1_565
K1 O0 2.845035 1_555
K2 O4 2.739679 1_565
K2 Li0 2.809180 1_565
K2 Li1 2.857864 1_554
K2 O5 2.902663 1_555
K2 O7 2.957952 1_554
K2 O1 3.075133 1_565
K2 O2 3.116097 1_554
K2 O3 3.126211 1_554
K2 O0 3.182617 1_565
K2 O6 3.220198 1_564
K3 O6 2.738665 1_555
K3 Li0 2.810547 1_555
K3 Li1 2.855761 1_455
K3 O7 2.904490 1_555
K3 O5 2.957463 1_455
K3 O0 3.078688 1_555
K3 O3 3.112801 1_455
K3 O2 3.125565 1_455
K3 O1 3.184000 1_555
K3 O4 3.217193 1_455
Li0 O6 2.061917 1_555
Li0 O4 2.063296 1_555
Li0 O1 2.106813 1_555
Li0 O0 2.107616 1_555
Li1 O7 1.995253 1_555
Li1 O5 1.995487 1_555
Li1 O3 2.102257 1_555
Li1 O2 2.102678 1_555
Mn0 O2 1.897353 1_545
Mn0 O4 1.902156 1_555
Mn0 O5 1.962559 1_545
Mn0 O1 1.974831 1_655
Mn1 O7 1.993713 1_555
Mn1 O1 2.061065 1_565
Mn1 O6 2.089465 1_565
Mn1 O2 2.171743 1_455
Mn2 O5 1.995298 1_555
Mn2 O0 2.059847 1_555
Mn2 O4 2.089470 1_555
Mn2 O3 2.172858 1_554
Mn3 O3 1.898466 1_555
Mn3 O6 1.901066 1_555
Mn3 O7 1.963899 1_555
Mn3 O0 1.972899 1_556
