# generated using pymatgen
data_Ta2O5
_symmetry_space_group_name_H-M   'P 1'
_cell_length_a   3.40078068
_cell_length_b   3.86025716
_cell_length_c   8.21230435
_cell_angle_alpha   90.74534466
_cell_angle_beta   94.88874575
_cell_angle_gamma   90.11964457
_symmetry_Int_Tables_number   1
_chemical_formula_structural   Ta2O5
_chemical_formula_sum   'Ta2 O5'
_cell_volume   107.40836194
_cell_formula_units_Z   1
loop_
 _symmetry_equiv_pos_site_id
 _symmetry_equiv_pos_as_xyz
  1  'x, y, z'
loop_
 _atom_site_type_symbol
 _atom_site_label
 _atom_site_symmetry_multiplicity
 _atom_site_fract_x
 _atom_site_fract_y
 _atom_site_fract_z
 _atom_site_occupancy
  Ta  Ta0  1  0.90726200  0.00856200  0.98015100  1
  Ta  Ta1  1  0.51128700  0.99623100  0.53826100  1
  O  O0  1  0.99212200  0.50661400  0.95813200  1
  O  O1  1  0.49367700  0.49348200  0.54791000  1
  O  O2  1  0.47247400  0.00858000  0.10143100  1
  O  O3  1  0.98288900  0.98618700  0.43012100  1
  O  O4  1  0.58028900  0.00034400  0.77399400  1
loop_
_geom_bond_atom_site_label_1
_geom_bond_atom_site_label_2
_geom_bond_distance
_geom_bond_site_symmetry_2
O0 Ta0 1.956535 1_555
O0 Ta0 1.967887 1_565
O1 Ta1 1.921391 1_545
O1 Ta1 1.944393 1_555
O2 Ta0 1.851840 1_554
O2 Ta0 2.088156 1_454
O3 Ta1 1.898562 1_555
O3 Ta1 1.935481 1_655
O4 Ta1 1.929981 1_545
O4 Ta0 1.944578 1_555
