# generated using pymatgen
data_Sr6Fe2Ru2O11
_symmetry_space_group_name_H-M   'P 1'
_cell_length_a   10.69263489
_cell_length_b   10.69263489
_cell_length_c   5.51174643
_cell_angle_alpha   88.96938076
_cell_angle_beta   88.96938076
_cell_angle_gamma   150.13660716
_symmetry_Int_Tables_number   1
_chemical_formula_structural   Sr6Fe2Ru2O11
_chemical_formula_sum   'Sr6 Fe2 Ru2 O11'
_cell_volume   313.01818066
_cell_formula_units_Z   1
loop_
 _symmetry_equiv_pos_site_id
 _symmetry_equiv_pos_as_xyz
  1  'x, y, z'
loop_
 _atom_site_type_symbol
 _atom_site_label
 _atom_site_symmetry_multiplicity
 _atom_site_fract_x
 _atom_site_fract_y
 _atom_site_fract_z
 _atom_site_occupancy
  Sr  Sr0  1  0.99044300  0.48330900  0.23740700  1
  Sr  Sr1  1  0.51669100  0.00955700  0.76259300  1
  Sr  Sr2  1  0.68989300  0.82151800  0.75542600  1
  Sr  Sr3  1  0.17848200  0.31010700  0.24457400  1
  Sr  Sr4  1  0.80702800  0.67874300  0.25105700  1
  Sr  Sr5  1  0.32125700  0.19297200  0.74894300  1
  Fe  Fe0  1  0.10187600  0.40373300  0.74723900  1
  Fe  Fe1  1  0.59626700  0.89812400  0.25276100  1
  Ru  Ru0  1  0.39164700  0.08508500  0.25893500  1
  Ru  Ru1  1  0.91491500  0.60835300  0.74106500  1
  O  O0  1  0.65242600  0.34757400  0.50000000  1
  O  O1  1  0.15371100  0.84628900  0.00000000  1
  O  O2  1  0.84516600  0.15483400  0.50000000  1
  O  O3  1  0.34511100  0.65488900  0.00000000  1
  O  O4  1  0.80876600  0.69613400  0.75740000  1
  O  O5  1  0.30386600  0.19123400  0.24260000  1
  O  O6  1  0.66919100  0.77839600  0.27628300  1
  O  O7  1  0.22160400  0.33080900  0.72371700  1
  O  O8  1  0.46766600  0.97126000  0.28159300  1
  O  O9  1  0.02874000  0.53233400  0.71840700  1
  O  O10  1  0.84245400  0.15754600  0.00000000  1
loop_
_geom_bond_atom_site_label_1
_geom_bond_atom_site_label_2
_geom_bond_distance
_geom_bond_site_symmetry_2
Fe0 O10 1.905033 1_456
Fe0 O7 1.998198 1_555
Fe0 O3 2.016897 1_556
Fe0 O2 2.017191 1_455
Fe0 O9 2.095082 1_555
Fe1 O10 1.905033 1_565
Fe1 O6 1.998198 1_555
Fe1 O3 2.016897 1_555
Fe1 O2 2.017191 1_565
Fe1 O8 2.095082 1_555
O0 Ru0 2.027707 1_555
O0 Ru1 2.027707 1_555
O0 Sr4 2.597172 1_555
O0 Sr5 2.597172 1_555
O0 Sr0 2.811122 1_555
O0 Sr1 2.811122 1_555
O1 Ru1 2.005950 1_454
O1 Ru0 2.005950 1_565
O1 Sr5 2.659641 1_564
O1 Sr4 2.659641 1_455
O1 Sr1 2.794087 1_564
O1 Sr0 2.794087 1_455
O2 Sr3 2.629286 1_655
O2 Sr2 2.629286 1_545
O2 Sr0 2.667801 1_555
O2 Sr1 2.667801 1_555
O3 Sr2 2.631565 1_554
O3 Sr3 2.631565 1_555
O3 Sr0 2.669767 1_455
O3 Sr1 2.669767 1_564
O4 Ru1 2.006106 1_555
O4 Sr2 2.523644 1_555
O4 Sr4 2.722549 1_556
O4 Sr5 2.737870 1_555
O4 Sr5 2.782684 1_665
O4 Sr4 2.799682 1_555
O5 Ru0 2.006106 1_555
O5 Sr3 2.523644 1_555
O5 Sr5 2.722549 1_554
O5 Sr4 2.737870 1_555
O5 Sr4 2.782684 1_445
O5 Sr5 2.799682 1_555
O6 Sr4 2.459420 1_555
O6 Sr2 2.669052 1_555
O6 Sr3 2.670162 1_555
O6 Sr3 2.870587 1_665
O6 Sr2 2.873286 1_554
O7 Sr5 2.459420 1_555
O7 Sr3 2.669052 1_555
O7 Sr2 2.670162 1_555
O7 Sr2 2.870587 1_445
O7 Sr3 2.873286 1_556
O8 Ru0 1.967658 1_565
O8 Sr1 2.681009 1_565
O8 Sr0 2.689483 1_455
O8 Sr0 2.846646 1_565
O8 Sr1 2.856063 1_564
O9 Ru1 1.967658 1_455
O9 Sr0 2.681009 1_455
O9 Sr1 2.689483 1_565
O9 Sr1 2.846646 1_455
O9 Sr0 2.856063 1_456
O10 Sr1 2.651001 1_554
O10 Sr0 2.651001 1_555
O10 Sr2 2.734143 1_544
O10 Sr3 2.734143 1_655
