# generated using pymatgen
data_KRe3(SO)4
_symmetry_space_group_name_H-M   'P 1'
_cell_length_a   8.40558000
_cell_length_b   8.97753248
_cell_length_c   9.41504772
_cell_angle_alpha   80.73938279
_cell_angle_beta   115.66822851
_cell_angle_gamma   112.26374864
_symmetry_Int_Tables_number   1
_chemical_formula_structural   KRe3(SO)4
_chemical_formula_sum   'K2 Re6 S8 O8'
_cell_volume   592.61759544
_cell_formula_units_Z   2
loop_
 _symmetry_equiv_pos_site_id
 _symmetry_equiv_pos_as_xyz
  1  'x, y, z'
loop_
 _atom_site_type_symbol
 _atom_site_label
 _atom_site_symmetry_multiplicity
 _atom_site_fract_x
 _atom_site_fract_y
 _atom_site_fract_z
 _atom_site_occupancy
  K  K0  1  0.26835900  0.54140100  0.92449400  1
  K  K1  1  0.73164100  0.45859900  0.07550600  1
  Re  Re0  1  0.76440500  0.22061700  0.45760500  1
  Re  Re1  1  0.23559500  0.77938300  0.54239500  1
  Re  Re2  1  0.69754900  0.00152300  0.78738600  1
  Re  Re3  1  0.30245100  0.99847700  0.21261400  1
  Re  Re4  1  0.38799300  0.20180300  0.54238800  1
  Re  Re5  1  0.61200700  0.79819700  0.45761200  1
  S  S0  1  0.52946000  0.73478700  0.67907300  1
  S  S1  1  0.47054000  0.26521300  0.32092700  1
  S  S2  1  0.72258700  0.26751600  0.68241400  1
  S  S3  1  0.27741300  0.73248400  0.31758600  1
  S  S4  1  0.86194000  0.01399400  0.62909600  1
  S  S5  1  0.13806000  0.98600600  0.37090400  1
  S  S6  1  0.38742900  0.98960500  0.73173400  1
  S  S7  1  0.61257100  0.01039500  0.26826600  1
  O  O0  1  0.31055000  0.34080700  0.56870600  1
  O  O1  1  0.68945000  0.65919300  0.43129400  1
  O  O2  1  0.62014700  0.67850600  0.09623000  1
  O  O3  1  0.37985300  0.32149400  0.90377000  1
  O  O4  1  0.93430900  0.36482800  0.40673800  1
  O  O5  1  0.06569100  0.63517200  0.59326200  1
  O  O6  1  0.82683000  0.00486700  0.98583000  1
  O  O7  1  0.17317000  0.99513300  0.01417000  1
loop_
_geom_bond_atom_site_label_1
_geom_bond_atom_site_label_2
_geom_bond_distance
_geom_bond_site_symmetry_2
K0 O3 2.549170 1_555
K0 O2 2.571727 1_556
K0 O5 2.995912 1_555
K1 O2 2.549170 1_555
K1 O3 2.571727 1_554
K1 O4 2.995912 1_555
Re0 S7 2.378055 1_555
Re0 S1 2.397394 1_555
Re0 S4 2.400333 1_555
Re0 S2 2.413352 1_555
Re1 S6 2.378055 1_555
Re1 S0 2.397394 1_555
Re1 S5 2.400333 1_555
Re1 S3 2.413352 1_555
Re2 S6 2.388414 1_545
Re2 S0 2.396765 1_545
Re2 S4 2.399170 1_555
Re2 S2 2.400669 1_555
Re3 S7 2.388414 1_565
Re3 S1 2.396765 1_565
Re3 S5 2.399170 1_555
Re3 S3 2.400669 1_555
Re4 S6 2.390518 1_545
Re4 S1 2.392699 1_555
Re4 S5 2.399522 1_545
Re4 S2 2.403526 1_555
Re5 S7 2.390518 1_565
Re5 S0 2.392699 1_555
Re5 S4 2.399522 1_565
Re5 S3 2.403526 1_555
O0 Re4 1.702122 1_555
O1 Re5 1.702122 1_555
O4 Re0 1.713776 1_555
O5 Re1 1.713776 1_555
O6 Re2 1.704987 1_555
O7 Re3 1.704987 1_555
