# generated using pymatgen
data_Mo3PdPtN
_symmetry_space_group_name_H-M   'P 1'
_cell_length_a   6.88790600
_cell_length_b   6.88790600
_cell_length_c   6.88790600
_cell_angle_alpha   90.00000000
_cell_angle_beta   90.00000000
_cell_angle_gamma   90.00000000
_symmetry_Int_Tables_number   1
_chemical_formula_structural   Mo3PdPtN
_chemical_formula_sum   'Mo12 Pd4 Pt4 N4'
_cell_volume   326.78463989
_cell_formula_units_Z   4
loop_
 _symmetry_equiv_pos_site_id
 _symmetry_equiv_pos_as_xyz
  1  'x, y, z'
loop_
 _atom_site_type_symbol
 _atom_site_label
 _atom_site_symmetry_multiplicity
 _atom_site_fract_x
 _atom_site_fract_y
 _atom_site_fract_z
 _atom_site_occupancy
  Mo  Mo0  1  0.12440400  0.80020000  0.04787100  1
  Mo  Mo1  1  0.37559600  0.19980000  0.54787100  1
  Mo  Mo2  1  0.87559600  0.30020000  0.45212900  1
  Mo  Mo3  1  0.62440400  0.69980000  0.95212900  1
  Mo  Mo4  1  0.80020000  0.04787100  0.12440400  1
  Mo  Mo5  1  0.19980000  0.54787100  0.37559600  1
  Mo  Mo6  1  0.30020000  0.45212900  0.87559600  1
  Mo  Mo7  1  0.69980000  0.95212900  0.62440400  1
  Mo  Mo8  1  0.04787100  0.12440400  0.80020000  1
  Mo  Mo9  1  0.54787100  0.37559600  0.19980000  1
  Mo  Mo10  1  0.45212900  0.87559600  0.30020000  1
  Mo  Mo11  1  0.95212900  0.62440400  0.69980000  1
  Pd  Pd0  1  0.69117700  0.30882300  0.80882300  1
  Pd  Pd1  1  0.30882300  0.80882300  0.69117700  1
  Pd  Pd2  1  0.80882300  0.69117700  0.30882300  1
  Pd  Pd3  1  0.19117700  0.19117700  0.19117700  1
  Pt  Pt0  1  0.05924000  0.94076000  0.44076000  1
  Pt  Pt1  1  0.44076000  0.05924000  0.94076000  1
  Pt  Pt2  1  0.94076000  0.44076000  0.05924000  1
  Pt  Pt3  1  0.55924000  0.55924000  0.55924000  1
  N  N0  1  0.37576500  0.62423500  0.12423500  1
  N  N1  1  0.12423500  0.37576500  0.62423500  1
  N  N2  1  0.62423500  0.12423500  0.37576500  1
  N  N3  1  0.87576500  0.87576500  0.87576500  1
loop_
_geom_bond_atom_site_label_1
_geom_bond_atom_site_label_2
_geom_bond_distance
_geom_bond_site_symmetry_2
Mo0 N3 2.146905 1_454
Mo0 N0 2.177902 1_555
Mo0 Pd1 2.766464 1_554
Mo0 Pt2 2.781311 1_455
Mo0 Pd3 2.904853 1_565
Mo0 Pt0 2.908991 1_555
Mo0 Pt1 2.911357 1_564
Mo0 Pd2 2.918825 1_455
Mo1 N2 2.146905 1_555
Mo1 N1 2.177902 1_555
Mo1 Pd3 2.766464 1_555
Mo1 Pt3 2.781311 1_555
Mo1 Pd1 2.904853 1_545
Mo1 Pt1 2.908991 1_555
Mo1 Pt0 2.911357 1_545
Mo1 Pd0 2.918825 1_555
Mo2 N1 2.146905 1_655
Mo2 N2 2.177902 1_555
Mo2 Pd0 2.766464 1_555
Mo2 Pt0 2.781311 1_645
Mo2 Pd2 2.904853 1_555
Mo2 Pt2 2.908991 1_555
Mo2 Pt3 2.911357 1_555
Mo2 Pd3 2.918825 1_655
Mo3 N0 2.146905 1_556
Mo3 N3 2.177902 1_555
Mo3 Pd2 2.766464 1_556
Mo3 Pt1 2.781311 1_565
Mo3 Pd0 2.904853 1_555
Mo3 Pt3 2.908991 1_555
Mo3 Pt2 2.911357 1_556
Mo3 Pd1 2.918825 1_555
Mo4 N3 2.146905 1_544
Mo4 N2 2.177902 1_555
Mo4 Pd2 2.766464 1_545
Mo4 Pt1 2.781311 1_554
Mo4 Pd3 2.904853 1_655
Mo4 Pt2 2.908991 1_555
Mo4 Pt0 2.911357 1_645
Mo4 Pd0 2.918825 1_554
Mo5 N1 2.146905 1_555
Mo5 N0 2.177902 1_555
Mo5 Pd3 2.766464 1_555
Mo5 Pt3 2.781311 1_555
Mo5 Pd2 2.904853 1_455
Mo5 Pt0 2.908991 1_555
Mo5 Pt2 2.911357 1_455
Mo5 Pd1 2.918825 1_555
Mo6 N0 2.146905 1_556
Mo6 N1 2.177902 1_555
Mo6 Pd1 2.766464 1_555
Mo6 Pt2 2.781311 1_456
Mo6 Pd0 2.904853 1_555
Mo6 Pt1 2.908991 1_555
Mo6 Pt3 2.911357 1_555
Mo6 Pd3 2.918825 1_556
Mo7 N2 2.146905 1_565
Mo7 N3 2.177902 1_555
Mo7 Pd0 2.766464 1_565
Mo7 Pt0 2.781311 1_655
Mo7 Pd1 2.904853 1_555
Mo7 Pt3 2.908991 1_555
Mo7 Pt1 2.911357 1_565
Mo7 Pd2 2.918825 1_555
Mo8 N3 2.146905 1_445
Mo8 N1 2.177902 1_555
Mo8 Pd0 2.766464 1_455
Mo8 Pt0 2.781311 1_545
Mo8 Pd3 2.904853 1_556
Mo8 Pt1 2.908991 1_555
Mo8 Pt2 2.911357 1_456
Mo8 Pd1 2.918825 1_545
Mo9 N0 2.146905 1_555
Mo9 N2 2.177902 1_555
Mo9 Pd3 2.766464 1_555
Mo9 Pt3 2.781311 1_555
Mo9 Pd0 2.904853 1_554
Mo9 Pt2 2.908991 1_555
Mo9 Pt1 2.911357 1_554
Mo9 Pd2 2.918825 1_555
Mo10 N2 2.146905 1_565
Mo10 N0 2.177902 1_555
Mo10 Pd2 2.766464 1_555
Mo10 Pt1 2.781311 1_564
Mo10 Pd1 2.904853 1_555
Mo10 Pt0 2.908991 1_555
Mo10 Pt3 2.911357 1_555
Mo10 Pd3 2.918825 1_565
Mo11 N1 2.146905 1_655
Mo11 N3 2.177902 1_555
Mo11 Pd1 2.766464 1_655
Mo11 Pt2 2.781311 1_556
Mo11 Pd2 2.904853 1_555
Mo11 Pt3 2.908991 1_555
Mo11 Pt0 2.911357 1_655
Mo11 Pd0 2.918825 1_555
Pd0 Pt1 2.599285 1_555
Pd0 Pt3 2.599285 1_555
Pd0 Pt2 2.599285 1_556
Pd1 Pt0 2.599285 1_555
Pd1 Pt3 2.599285 1_555
Pd1 Pt1 2.599285 1_565
Pd2 Pt2 2.599285 1_555
Pd2 Pt3 2.599285 1_555
Pd2 Pt0 2.599285 1_655
Pd3 Pt0 2.599285 1_545
Pd3 Pt1 2.599285 1_554
Pd3 Pt2 2.599285 1_455
