# generated using pymatgen
data_CsYbCl3
_symmetry_space_group_name_H-M   'P 1'
_cell_length_a   5.42572500
_cell_length_b   5.42572500
_cell_length_c   5.42572500
_cell_angle_alpha   90.00000000
_cell_angle_beta   90.00000000
_cell_angle_gamma   90.00000000
_symmetry_Int_Tables_number   1
_chemical_formula_structural   CsYbCl3
_chemical_formula_sum   'Cs1 Yb1 Cl3'
_cell_volume   159.72516079
_cell_formula_units_Z   1
loop_
 _symmetry_equiv_pos_site_id
 _symmetry_equiv_pos_as_xyz
  1  'x, y, z'
loop_
 _atom_site_type_symbol
 _atom_site_label
 _atom_site_symmetry_multiplicity
 _atom_site_fract_x
 _atom_site_fract_y
 _atom_site_fract_z
 _atom_site_occupancy
  Cs  Cs0  1  0.00000000  0.00000000  0.00000000  1
  Yb  Yb0  1  0.50000000  0.50000000  0.50000000  1
  Cl  Cl0  1  0.50000000  0.50000000  0.00000000  1
  Cl  Cl1  1  0.50000000  0.00000000  0.50000000  1
  Cl  Cl2  1  0.00000000  0.50000000  0.50000000  1
loop_
_geom_bond_atom_site_label_1
_geom_bond_atom_site_label_2
_geom_bond_distance
_geom_bond_site_symmetry_2
Cl0 Yb0 2.712862 1_555
Cl0 Yb0 2.712862 1_554
Cl0 Cs0 3.836567 1_565
Cl0 Cs0 3.836567 1_555
Cl0 Cs0 3.836567 1_655
Cl0 Cs0 3.836567 1_665
Cl1 Yb0 2.712862 1_545
Cl1 Yb0 2.712862 1_555
Cl1 Cs0 3.836567 1_656
Cl1 Cs0 3.836567 1_555
Cl1 Cs0 3.836567 1_556
Cl1 Cs0 3.836567 1_655
Cl2 Yb0 2.712862 1_455
Cl2 Yb0 2.712862 1_555
Cl2 Cs0 3.836567 1_565
Cl2 Cs0 3.836567 1_566
Cl2 Cs0 3.836567 1_555
Cl2 Cs0 3.836567 1_556
