# generated using pymatgen
data_K2Ca4U(SiO4)4
_symmetry_space_group_name_H-M   'P 1'
_cell_length_a   6.72230500
_cell_length_b   6.76571075
_cell_length_c   9.81058051
_cell_angle_alpha   98.67428089
_cell_angle_beta   93.17407982
_cell_angle_gamma   112.43482088
_symmetry_Int_Tables_number   1
_chemical_formula_structural   K2Ca4U(SiO4)4
_chemical_formula_sum   'K2 Ca4 U1 Si4 O16'
_cell_volume   404.58291987
_cell_formula_units_Z   1
loop_
 _symmetry_equiv_pos_site_id
 _symmetry_equiv_pos_as_xyz
  1  'x, y, z'
loop_
 _atom_site_type_symbol
 _atom_site_label
 _atom_site_symmetry_multiplicity
 _atom_site_fract_x
 _atom_site_fract_y
 _atom_site_fract_z
 _atom_site_occupancy
  K  K0  1  0.67171200  0.32164200  0.54476600  1
  K  K1  1  0.32828800  0.67835800  0.45523400  1
  Ca  Ca0  1  0.22560900  0.96821900  0.88655800  1
  Ca  Ca1  1  0.77439100  0.03178100  0.11344200  1
  Ca  Ca2  1  0.74173100  0.48378300  0.92823000  1
  Ca  Ca3  1  0.25826900  0.51621700  0.07177000  1
  U  U0  1  0.00000000  0.00000000  0.50000000  1
  Si  Si0  1  0.67412900  0.91506000  0.78799800  1
  Si  Si1  1  0.32587100  0.08494000  0.21200200  1
  Si  Si2  1  0.24593600  0.47739600  0.76586200  1
  Si  Si3  1  0.75406400  0.52260400  0.23413800  1
  O  O0  1  0.62571200  0.10513800  0.88562900  1
  O  O1  1  0.37428800  0.89486200  0.11437100  1
  O  O2  1  0.83679200  0.84302100  0.87849300  1
  O  O3  1  0.16320800  0.15697900  0.12150700  1
  O  O4  1  0.74442300  0.97415800  0.63588900  1
  O  O5  1  0.25557700  0.02584200  0.36411100  1
  O  O6  1  0.43900000  0.70384100  0.73847700  1
  O  O7  1  0.56100000  0.29615900  0.26152300  1
  O  O8  1  0.08030300  0.55251700  0.85511000  1
  O  O9  1  0.91969700  0.44748300  0.14489000  1
  O  O10  1  0.14675400  0.34561800  0.60615100  1
  O  O11  1  0.85324600  0.65438200  0.39384900  1
  O  O12  1  0.35431900  0.35760500  0.86142700  1
  O  O13  1  0.64568100  0.64239500  0.13857300  1
  O  O14  1  0.84115400  0.07380900  0.36577300  1
  O  O15  1  0.15884600  0.92619100  0.63422700  1
loop_
_geom_bond_atom_site_label_1
_geom_bond_atom_site_label_2
_geom_bond_distance
_geom_bond_site_symmetry_2
K0 O7 2.798886 1_555
K0 O11 2.803201 1_555
K0 O14 2.825544 1_555
K0 O4 2.833341 1_545
K0 O5 3.013260 1_555
K0 O10 3.154177 1_655
K1 O6 2.798886 1_555
K1 O10 2.803201 1_555
K1 O15 2.825544 1_555
K1 O5 2.833341 1_565
K1 O4 3.013260 1_555
K1 O11 3.154177 1_455
Ca0 O2 2.412977 1_455
Ca0 O15 2.444930 1_555
Ca0 O0 2.489137 1_565
Ca0 O12 2.495916 1_565
Ca0 O8 2.562731 1_555
Ca0 O1 2.589636 1_556
Ca0 O3 2.597681 1_566
Ca0 O6 2.961942 1_555
Ca1 O3 2.412977 1_655
Ca1 O14 2.444930 1_555
Ca1 O1 2.489137 1_545
Ca1 O13 2.495916 1_545
Ca1 O9 2.562731 1_555
Ca1 O0 2.589636 1_554
Ca1 O2 2.597681 1_544
Ca1 O7 2.961942 1_555
Ca2 O8 2.320459 1_655
Ca2 O0 2.337034 1_555
Ca2 O2 2.400118 1_555
Ca2 O13 2.415643 1_556
Ca2 O12 2.426105 1_555
Ca2 O9 2.471776 1_556
Ca3 O9 2.320459 1_455
Ca3 O1 2.337034 1_555
Ca3 O3 2.400118 1_555
Ca3 O12 2.415643 1_554
Ca3 O13 2.426105 1_555
Ca3 O8 2.471776 1_554
O0 Si0 1.630837 1_545
O1 Si1 1.630837 1_565
O2 Si0 1.628261 1_555
O3 Si1 1.628261 1_555
O4 Si0 1.650428 1_555
O4 U0 2.203244 1_665
O5 Si1 1.650428 1_555
O5 U0 2.203244 1_555
O6 Si2 1.657977 1_555
O6 Si0 1.660735 1_555
O7 Si3 1.657977 1_555
O7 Si1 1.660735 1_555
O8 Si2 1.634119 1_555
O9 Si3 1.634119 1_555
O10 Si2 1.644293 1_555
O10 U0 2.217343 1_555
O11 Si3 1.644293 1_555
O11 U0 2.217343 1_665
O12 Si2 1.634305 1_555
O13 Si3 1.634305 1_555
O14 U0 1.890319 1_655
O15 U0 1.890319 1_565
