# generated using pymatgen
data_MgBi
_symmetry_space_group_name_H-M   'P 1'
_cell_length_a   10.66403296
_cell_length_b   7.08585170
_cell_length_c   35.47722792
_cell_angle_alpha   90.00000000
_cell_angle_beta   90.00000000
_cell_angle_gamma   90.00000000
_symmetry_Int_Tables_number   1
_chemical_formula_structural   MgBi
_chemical_formula_sum   'Mg48 Bi48'
_cell_volume   2680.79259689
_cell_formula_units_Z   48
loop_
 _symmetry_equiv_pos_site_id
 _symmetry_equiv_pos_as_xyz
  1  'x, y, z'
loop_
 _atom_site_type_symbol
 _atom_site_label
 _atom_site_symmetry_multiplicity
 _atom_site_fract_x
 _atom_site_fract_y
 _atom_site_fract_z
 _atom_site_occupancy
  Mg  Mg0_0  1  0.00000000  0.25000000  0.08228571  1
  Mg  Mg0_1  1  0.00000000  0.25000000  0.58228571  1
  Mg  Mg0_2  1  0.00000000  0.75000000  0.08228571  1
  Mg  Mg0_3  1  0.00000000  0.75000000  0.58228571  1
  Mg  Mg0_4  1  0.50000000  0.25000000  0.08228571  1
  Mg  Mg0_5  1  0.50000000  0.25000000  0.58228571  1
  Mg  Mg0_6  1  0.50000000  0.75000000  0.08228571  1
  Mg  Mg0_7  1  0.50000000  0.75000000  0.58228571  1
  Mg  Mg1_0  1  0.25000000  0.25000000  0.03011357  1
  Mg  Mg1_1  1  0.25000000  0.25000000  0.53011357  1
  Mg  Mg1_2  1  0.25000000  0.75000000  0.03011357  1
  Mg  Mg1_3  1  0.25000000  0.75000000  0.53011357  1
  Mg  Mg1_4  1  0.75000000  0.25000000  0.03011357  1
  Mg  Mg1_5  1  0.75000000  0.25000000  0.53011357  1
  Mg  Mg1_6  1  0.75000000  0.75000000  0.03011357  1
  Mg  Mg1_7  1  0.75000000  0.75000000  0.53011357  1
  Mg  Mg2_0  1  0.25000000  0.00000000  0.10685906  1
  Mg  Mg2_1  1  0.25000000  0.00000000  0.60685906  1
  Mg  Mg2_2  1  0.25000000  0.50000000  0.10685906  1
  Mg  Mg2_3  1  0.25000000  0.50000000  0.60685906  1
  Mg  Mg2_4  1  0.75000000  0.00000000  0.10685906  1
  Mg  Mg2_5  1  0.75000000  0.00000000  0.60685906  1
  Mg  Mg2_6  1  0.75000000  0.50000000  0.10685906  1
  Mg  Mg2_7  1  0.75000000  0.50000000  0.60685906  1
  Mg  Mg3_0  1  0.00000000  0.00000000  0.33228571  1
  Mg  Mg3_1  1  0.00000000  0.00000000  0.83228571  1
  Mg  Mg3_2  1  0.00000000  0.50000000  0.33228571  1
  Mg  Mg3_3  1  0.00000000  0.50000000  0.83228571  1
  Mg  Mg3_4  1  0.50000000  0.00000000  0.33228571  1
  Mg  Mg3_5  1  0.50000000  0.00000000  0.83228571  1
  Mg  Mg3_6  1  0.50000000  0.50000000  0.33228571  1
  Mg  Mg3_7  1  0.50000000  0.50000000  0.83228571  1
  Mg  Mg4_0  1  0.25000000  0.00000000  0.28011357  1
  Mg  Mg4_1  1  0.25000000  0.00000000  0.78011357  1
  Mg  Mg4_2  1  0.25000000  0.50000000  0.28011357  1
  Mg  Mg4_3  1  0.25000000  0.50000000  0.78011357  1
  Mg  Mg4_4  1  0.75000000  0.00000000  0.28011357  1
  Mg  Mg4_5  1  0.75000000  0.00000000  0.78011357  1
  Mg  Mg4_6  1  0.75000000  0.50000000  0.28011357  1
  Mg  Mg4_7  1  0.75000000  0.50000000  0.78011357  1
  Mg  Mg5_0  1  0.25000000  0.25000000  0.35685905  1
  Mg  Mg5_1  1  0.25000000  0.25000000  0.85685906  1
  Mg  Mg5_2  1  0.25000000  0.75000000  0.35685905  1
  Mg  Mg5_3  1  0.25000000  0.75000000  0.85685906  1
  Mg  Mg5_4  1  0.75000000  0.25000000  0.35685905  1
  Mg  Mg5_5  1  0.75000000  0.25000000  0.85685906  1
  Mg  Mg5_6  1  0.75000000  0.75000000  0.35685905  1
  Mg  Mg5_7  1  0.75000000  0.75000000  0.85685906  1
  Bi  Bi0_0  1  0.00000000  0.00000000  0.00901494  1
  Bi  Bi0_1  1  0.00000000  0.00000000  0.50901494  1
  Bi  Bi0_2  1  0.00000000  0.50000000  0.00901494  1
  Bi  Bi0_3  1  0.00000000  0.50000000  0.50901494  1
  Bi  Bi0_4  1  0.50000000  0.00000000  0.00901494  1
  Bi  Bi0_5  1  0.50000000  0.00000000  0.50901494  1
  Bi  Bi0_6  1  0.50000000  0.50000000  0.00901494  1
  Bi  Bi0_7  1  0.50000000  0.50000000  0.50901494  1
  Bi  Bi1_0  1  0.00000000  0.00000000  0.15275512  1
  Bi  Bi1_1  1  0.00000000  0.00000000  0.65275512  1
  Bi  Bi1_2  1  0.00000000  0.50000000  0.15275512  1
  Bi  Bi1_3  1  0.00000000  0.50000000  0.65275512  1
  Bi  Bi1_4  1  0.50000000  0.00000000  0.15275512  1
  Bi  Bi1_5  1  0.50000000  0.00000000  0.65275512  1
  Bi  Bi1_6  1  0.50000000  0.50000000  0.15275512  1
  Bi  Bi1_7  1  0.50000000  0.50000000  0.65275512  1
  Bi  Bi2_0  1  0.25000000  0.25000000  0.20230511  1
  Bi  Bi2_1  1  0.25000000  0.25000000  0.70230511  1
  Bi  Bi2_2  1  0.25000000  0.75000000  0.20230511  1
  Bi  Bi2_3  1  0.25000000  0.75000000  0.70230511  1
  Bi  Bi2_4  1  0.75000000  0.25000000  0.20230511  1
  Bi  Bi2_5  1  0.75000000  0.25000000  0.70230511  1
  Bi  Bi2_6  1  0.75000000  0.75000000  0.20230511  1
  Bi  Bi2_7  1  0.75000000  0.75000000  0.70230511  1
  Bi  Bi3_0  1  0.00000000  0.25000000  0.25901494  1
  Bi  Bi3_1  1  0.00000000  0.25000000  0.75901494  1
  Bi  Bi3_2  1  0.00000000  0.75000000  0.25901494  1
  Bi  Bi3_3  1  0.00000000  0.75000000  0.75901494  1
  Bi  Bi3_4  1  0.50000000  0.25000000  0.25901494  1
  Bi  Bi3_5  1  0.50000000  0.25000000  0.75901494  1
  Bi  Bi3_6  1  0.50000000  0.75000000  0.25901494  1
  Bi  Bi3_7  1  0.50000000  0.75000000  0.75901494  1
  Bi  Bi4_0  1  0.00000000  0.25000000  0.40275513  1
  Bi  Bi4_1  1  0.00000000  0.25000000  0.90275513  1
  Bi  Bi4_2  1  0.00000000  0.75000000  0.40275513  1
  Bi  Bi4_3  1  0.00000000  0.75000000  0.90275513  1
  Bi  Bi4_4  1  0.50000000  0.25000000  0.40275513  1
  Bi  Bi4_5  1  0.50000000  0.25000000  0.90275513  1
  Bi  Bi4_6  1  0.50000000  0.75000000  0.40275513  1
  Bi  Bi4_7  1  0.50000000  0.75000000  0.90275513  1
  Bi  Bi5_0  1  0.25000000  0.00000000  0.45230510  1
  Bi  Bi5_1  1  0.25000000  0.00000000  0.95230510  1
  Bi  Bi5_2  1  0.25000000  0.50000000  0.45230510  1
  Bi  Bi5_3  1  0.25000000  0.50000000  0.95230510  1
  Bi  Bi5_4  1  0.75000000  0.00000000  0.45230510  1
  Bi  Bi5_5  1  0.75000000  0.00000000  0.95230510  1
  Bi  Bi5_6  1  0.75000000  0.50000000  0.45230510  1
  Bi  Bi5_7  1  0.75000000  0.50000000  0.95230510  1
loop_
_geom_bond_atom_site_label_1
_geom_bond_atom_site_label_2
_geom_bond_distance
_geom_bond_site_symmetry_2
Mg0_0 Mg1_0 3.245538 1_555
Mg0_0 Mg1_4 3.245538 1_455
Mg0_0 Mg2_6 3.317485 1_455
Mg0_0 Mg2_0 3.317485 1_555
Mg0_0 Mg2_4 3.317485 1_455
Mg0_0 Mg2_2 3.317485 1_555
Mg0_1 Mg1_1 3.245538 1_555
Mg0_1 Mg1_5 3.245538 1_455
Mg0_1 Mg2_1 3.317485 1_555
Mg0_1 Mg2_5 3.317485 1_455
Mg0_1 Mg2_3 3.317485 1_555
Mg0_1 Mg2_7 3.317485 1_455
Mg0_2 Mg1_2 3.245538 1_555
Mg0_2 Mg1_6 3.245538 1_455
Mg0_2 Mg2_6 3.317485 1_455
Mg0_2 Mg2_4 3.317485 1_465
Mg0_2 Mg2_0 3.317485 1_565
Mg0_2 Mg2_2 3.317485 1_555
Mg0_3 Mg1_3 3.245538 1_555
Mg0_3 Mg1_7 3.245538 1_455
Mg0_3 Mg2_7 3.317485 1_455
Mg0_3 Mg2_3 3.317485 1_555
Mg0_3 Mg2_5 3.317485 1_465
Mg0_3 Mg2_1 3.317485 1_565
Mg0_4 Mg1_0 3.245538 1_555
Mg0_4 Mg1_4 3.245538 1_555
Mg0_4 Mg2_6 3.317485 1_555
Mg0_4 Mg2_0 3.317485 1_555
Mg0_4 Mg2_4 3.317485 1_555
Mg0_4 Mg2_2 3.317485 1_555
Mg0_5 Mg1_1 3.245538 1_555
Mg0_5 Mg1_5 3.245538 1_555
Mg0_5 Mg2_7 3.317485 1_555
Mg0_5 Mg2_1 3.317485 1_555
Mg0_5 Mg2_5 3.317485 1_555
Mg0_5 Mg2_3 3.317485 1_555
Mg0_6 Mg1_2 3.245538 1_555
Mg0_6 Mg1_6 3.245538 1_555
Mg0_6 Mg2_4 3.317485 1_565
Mg0_6 Mg2_6 3.317485 1_555
Mg0_6 Mg2_2 3.317485 1_555
Mg0_6 Mg2_0 3.317485 1_565
Mg0_7 Mg1_3 3.245538 1_555
Mg0_7 Mg1_7 3.245538 1_555
Mg0_7 Mg2_5 3.317485 1_565
Mg0_7 Mg2_7 3.317485 1_555
Mg0_7 Mg2_3 3.317485 1_555
Mg0_7 Mg2_1 3.317485 1_565
Mg1_0 Mg2_2 3.248272 1_555
Mg1_0 Mg2_0 3.248272 1_555
Mg1_1 Mg2_1 3.248272 1_555
Mg1_1 Mg2_3 3.248272 1_555
Mg1_2 Mg2_0 3.248272 1_565
Mg1_2 Mg2_2 3.248272 1_555
Mg1_3 Mg2_1 3.248272 1_565
Mg1_3 Mg2_3 3.248272 1_555
Mg1_4 Mg2_6 3.248272 1_555
Mg1_4 Mg2_4 3.248272 1_555
Mg1_5 Mg2_7 3.248272 1_555
Mg1_5 Mg2_5 3.248272 1_555
Mg1_6 Mg2_4 3.248272 1_565
Mg1_6 Mg2_6 3.248272 1_555
Mg1_7 Mg2_5 3.248272 1_565
Mg1_7 Mg2_7 3.248272 1_555
Mg3_0 Mg4_0 3.245538 1_555
Mg3_0 Mg4_4 3.245538 1_455
Mg3_0 Mg5_6 3.317485 1_445
Mg3_0 Mg5_0 3.317485 1_555
Mg3_0 Mg5_4 3.317485 1_455
Mg3_0 Mg5_2 3.317485 1_545
Mg3_1 Mg4_1 3.245538 1_555
Mg3_1 Mg4_5 3.245538 1_455
Mg3_1 Mg5_5 3.317485 1_455
Mg3_1 Mg5_3 3.317485 1_545
Mg3_1 Mg5_7 3.317485 1_445
Mg3_1 Mg5_1 3.317485 1_555
Mg3_2 Mg4_6 3.245538 1_455
Mg3_2 Mg4_2 3.245538 1_555
Mg3_2 Mg5_2 3.317485 1_555
Mg3_2 Mg5_6 3.317485 1_455
Mg3_2 Mg5_0 3.317485 1_555
Mg3_2 Mg5_4 3.317485 1_455
Mg3_3 Mg4_3 3.245538 1_555
Mg3_3 Mg4_7 3.245538 1_455
Mg3_3 Mg5_5 3.317485 1_455
Mg3_3 Mg5_7 3.317485 1_455
Mg3_3 Mg5_3 3.317485 1_555
Mg3_3 Mg5_1 3.317485 1_555
Mg3_4 Mg4_4 3.245538 1_555
Mg3_4 Mg4_0 3.245538 1_555
Mg3_4 Mg5_0 3.317485 1_555
Mg3_4 Mg5_6 3.317485 1_545
Mg3_4 Mg5_4 3.317485 1_555
Mg3_4 Mg5_2 3.317485 1_545
Mg3_5 Mg4_5 3.245538 1_555
Mg3_5 Mg4_1 3.245538 1_555
Mg3_5 Mg5_5 3.317485 1_555
Mg3_5 Mg5_1 3.317485 1_555
Mg3_5 Mg5_7 3.317485 1_545
Mg3_5 Mg5_3 3.317485 1_545
Mg3_6 Mg4_2 3.245538 1_555
Mg3_6 Mg4_6 3.245538 1_555
Mg3_6 Mg5_2 3.317485 1_555
Mg3_6 Mg5_6 3.317485 1_555
Mg3_6 Mg5_4 3.317485 1_555
Mg3_6 Mg5_0 3.317485 1_555
Mg3_7 Mg4_3 3.245538 1_555
Mg3_7 Mg4_7 3.245538 1_555
Mg3_7 Mg5_5 3.317485 1_555
Mg3_7 Mg5_3 3.317485 1_555
Mg3_7 Mg5_1 3.317485 1_555
Mg3_7 Mg5_7 3.317485 1_555
Mg4_0 Mg5_2 3.248272 1_545
Mg4_0 Mg5_0 3.248272 1_555
Mg4_1 Mg5_1 3.248272 1_555
Mg4_1 Mg5_3 3.248272 1_545
Mg4_2 Mg5_2 3.248272 1_555
Mg4_2 Mg5_0 3.248272 1_555
Mg4_3 Mg5_3 3.248272 1_555
Mg4_3 Mg5_1 3.248272 1_555
Mg4_4 Mg5_4 3.248272 1_555
Mg4_4 Mg5_6 3.248272 1_545
Mg4_5 Mg5_7 3.248272 1_545
Mg4_5 Mg5_5 3.248272 1_555
Mg4_6 Mg5_4 3.248272 1_555
Mg4_6 Mg5_6 3.248272 1_555
Mg4_7 Mg5_7 3.248272 1_555
Mg4_7 Mg5_5 3.248272 1_555
Bi0_0 Mg0_0 3.145662 1_555
Bi0_0 Mg0_2 3.145662 1_545
Bi0_0 Mg1_4 3.287243 1_455
Bi0_0 Mg1_6 3.287243 1_445
Bi0_0 Mg1_2 3.287243 1_545
Bi0_0 Mg1_0 3.287243 1_555
Bi0_0 Bi5_1 3.339966 1_554
Bi0_0 Bi5_5 3.339966 1_454
Bi0_0 Bi0_2 3.542926 1_555
Bi0_0 Bi0_2 3.542926 1_545
Bi0_1 Mg0_3 3.145662 1_545
Bi0_1 Mg0_1 3.145662 1_555
Bi0_1 Mg1_7 3.287243 1_445
Bi0_1 Mg1_1 3.287243 1_555
Bi0_1 Mg1_5 3.287243 1_455
Bi0_1 Mg1_3 3.287243 1_545
Bi0_1 Bi5_0 3.339966 1_555
Bi0_1 Bi5_4 3.339966 1_455
Bi0_1 Bi0_3 3.542926 1_555
Bi0_1 Bi0_3 3.542926 1_545
Bi0_2 Mg0_2 3.145662 1_555
Bi0_2 Mg0_0 3.145662 1_555
Bi0_2 Mg1_6 3.287243 1_455
Bi0_2 Mg1_4 3.287243 1_455
Bi0_2 Mg1_2 3.287243 1_555
Bi0_2 Mg1_0 3.287243 1_555
Bi0_2 Bi5_3 3.339966 1_554
Bi0_2 Bi5_7 3.339966 1_454
Bi0_3 Mg0_3 3.145662 1_555
Bi0_3 Mg0_1 3.145662 1_555
Bi0_3 Mg1_7 3.287243 1_455
Bi0_3 Mg1_1 3.287243 1_555
Bi0_3 Mg1_5 3.287243 1_455
Bi0_3 Mg1_3 3.287243 1_555
Bi0_3 Bi5_6 3.339966 1_455
Bi0_3 Bi5_2 3.339966 1_555
Bi0_4 Mg0_6 3.145662 1_545
Bi0_4 Mg0_4 3.145662 1_555
Bi0_4 Mg1_4 3.287243 1_555
Bi0_4 Mg1_6 3.287243 1_545
Bi0_4 Mg1_2 3.287243 1_545
Bi0_4 Mg1_0 3.287243 1_555
Bi0_4 Bi5_5 3.339966 1_554
Bi0_4 Bi5_1 3.339966 1_554
Bi0_4 Bi0_6 3.542926 1_545
Bi0_4 Bi0_6 3.542926 1_555
Bi0_5 Mg0_5 3.145662 1_555
Bi0_5 Mg0_7 3.145662 1_545
Bi0_5 Mg1_1 3.287243 1_555
Bi0_5 Mg1_7 3.287243 1_545
Bi0_5 Mg1_5 3.287243 1_555
Bi0_5 Mg1_3 3.287243 1_545
Bi0_5 Bi5_0 3.339966 1_555
Bi0_5 Bi5_4 3.339966 1_555
Bi0_5 Bi0_7 3.542926 1_545
Bi0_5 Bi0_7 3.542926 1_555
Bi0_6 Mg0_6 3.145662 1_555
Bi0_6 Mg0_4 3.145662 1_555
Bi0_6 Mg1_6 3.287243 1_555
Bi0_6 Mg1_4 3.287243 1_555
Bi0_6 Mg1_2 3.287243 1_555
Bi0_6 Mg1_0 3.287243 1_555
Bi0_6 Bi5_3 3.339966 1_554
Bi0_6 Bi5_7 3.339966 1_554
Bi0_7 Mg0_5 3.145662 1_555
Bi0_7 Mg0_7 3.145662 1_555
Bi0_7 Mg1_1 3.287243 1_555
Bi0_7 Mg1_7 3.287243 1_555
Bi0_7 Mg1_5 3.287243 1_555
Bi0_7 Mg1_3 3.287243 1_555
Bi0_7 Bi5_2 3.339966 1_555
Bi0_7 Bi5_6 3.339966 1_555
Bi1_0 Mg0_2 3.064046 1_545
Bi1_0 Mg0_0 3.064046 1_555
Bi1_0 Mg2_0 3.123915 1_555
Bi1_0 Mg2_4 3.123915 1_455
Bi1_0 Bi1_2 3.542926 1_555
Bi1_0 Bi1_2 3.542926 1_545
Bi1_0 Bi2_0 3.651832 1_555
Bi1_0 Bi2_6 3.651832 1_445
Bi1_0 Bi2_2 3.651832 1_545
Bi1_0 Bi2_4 3.651832 1_455
Bi1_1 Mg0_3 3.064046 1_545
Bi1_1 Mg0_1 3.064046 1_555
Bi1_1 Mg2_5 3.123915 1_455
Bi1_1 Mg2_1 3.123915 1_555
Bi1_1 Bi1_3 3.542926 1_545
Bi1_1 Bi1_3 3.542926 1_555
Bi1_1 Bi2_5 3.651832 1_455
Bi1_1 Bi2_3 3.651832 1_545
Bi1_1 Bi2_7 3.651832 1_445
Bi1_1 Bi2_1 3.651832 1_555
Bi1_2 Mg0_2 3.064046 1_555
Bi1_2 Mg0_0 3.064046 1_555
Bi1_2 Mg2_2 3.123915 1_555
Bi1_2 Mg2_6 3.123915 1_455
Bi1_2 Bi2_0 3.651832 1_555
Bi1_2 Bi2_2 3.651832 1_555
Bi1_2 Bi2_6 3.651832 1_455
Bi1_2 Bi2_4 3.651832 1_455
Bi1_3 Mg0_3 3.064046 1_555
Bi1_3 Mg0_1 3.064046 1_555
Bi1_3 Mg2_7 3.123915 1_455
Bi1_3 Mg2_3 3.123915 1_555
Bi1_3 Bi2_7 3.651832 1_455
Bi1_3 Bi2_3 3.651832 1_555
Bi1_3 Bi2_5 3.651832 1_455
Bi1_3 Bi2_1 3.651832 1_555
Bi1_4 Mg0_4 3.064046 1_555
Bi1_4 Mg0_6 3.064046 1_545
Bi1_4 Mg2_0 3.123915 1_555
Bi1_4 Mg2_4 3.123915 1_555
Bi1_4 Bi1_6 3.542926 1_545
Bi1_4 Bi1_6 3.542926 1_555
Bi1_4 Bi2_0 3.651832 1_555
Bi1_4 Bi2_4 3.651832 1_555
Bi1_4 Bi2_2 3.651832 1_545
Bi1_4 Bi2_6 3.651832 1_545
Bi1_5 Mg0_5 3.064046 1_555
Bi1_5 Mg0_7 3.064046 1_545
Bi1_5 Mg2_1 3.123915 1_555
Bi1_5 Mg2_5 3.123915 1_555
Bi1_5 Bi1_7 3.542926 1_545
Bi1_5 Bi1_7 3.542926 1_555
Bi1_5 Bi2_7 3.651832 1_545
Bi1_5 Bi2_3 3.651832 1_545
Bi1_5 Bi2_1 3.651832 1_555
Bi1_5 Bi2_5 3.651832 1_555
Bi1_6 Mg0_4 3.064046 1_555
Bi1_6 Mg0_6 3.064046 1_555
Bi1_6 Mg2_2 3.123915 1_555
Bi1_6 Mg2_6 3.123915 1_555
Bi1_6 Bi2_0 3.651832 1_555
Bi1_6 Bi2_4 3.651832 1_555
Bi1_6 Bi2_2 3.651832 1_555
Bi1_6 Bi2_6 3.651832 1_555
Bi1_7 Mg0_5 3.064046 1_555
Bi1_7 Mg0_7 3.064046 1_555
Bi1_7 Mg2_3 3.123915 1_555
Bi1_7 Mg2_7 3.123915 1_555
Bi1_7 Bi2_3 3.651832 1_555
Bi1_7 Bi2_7 3.651832 1_555
Bi1_7 Bi2_1 3.651832 1_555
Bi1_7 Bi2_5 3.651832 1_555
Bi2_0 Mg4_2 3.279946 1_555
Bi2_0 Mg4_0 3.279946 1_555
Bi2_0 Bi3_0 3.339966 1_555
Bi2_0 Bi3_4 3.339966 1_555
Bi2_0 Bi2_2 3.542926 1_545
Bi2_0 Bi2_2 3.542926 1_555
Bi2_1 Mg4_3 3.279946 1_555
Bi2_1 Mg4_1 3.279946 1_555
Bi2_1 Bi3_1 3.339966 1_555
Bi2_1 Bi3_5 3.339966 1_555
Bi2_1 Bi2_3 3.542926 1_555
Bi2_1 Bi2_3 3.542926 1_545
Bi2_2 Mg4_2 3.279946 1_555
Bi2_2 Mg4_0 3.279946 1_565
Bi2_2 Bi3_2 3.339966 1_555
Bi2_2 Bi3_6 3.339966 1_555
Bi2_3 Mg4_3 3.279946 1_555
Bi2_3 Mg4_1 3.279946 1_565
Bi2_3 Bi3_3 3.339966 1_555
Bi2_3 Bi3_7 3.339966 1_555
Bi2_4 Mg4_4 3.279946 1_555
Bi2_4 Mg4_6 3.279946 1_555
Bi2_4 Bi3_4 3.339966 1_555
Bi2_4 Bi3_0 3.339966 1_655
Bi2_4 Bi2_6 3.542926 1_545
Bi2_4 Bi2_6 3.542926 1_555
Bi2_5 Mg4_7 3.279946 1_555
Bi2_5 Mg4_5 3.279946 1_555
Bi2_5 Bi3_5 3.339966 1_555
Bi2_5 Bi3_1 3.339966 1_655
Bi2_5 Bi2_7 3.542926 1_545
Bi2_5 Bi2_7 3.542926 1_555
Bi2_6 Mg4_4 3.279946 1_565
Bi2_6 Mg4_6 3.279946 1_555
Bi2_6 Bi3_2 3.339966 1_655
Bi2_6 Bi3_6 3.339966 1_555
Bi2_7 Mg4_7 3.279946 1_555
Bi2_7 Mg4_5 3.279946 1_565
Bi2_7 Bi3_7 3.339966 1_555
Bi2_7 Bi3_3 3.339966 1_655
Bi3_0 Mg3_2 3.145662 1_555
Bi3_0 Mg3_0 3.145662 1_555
Bi3_0 Mg4_2 3.287243 1_555
Bi3_0 Mg4_6 3.287243 1_455
Bi3_0 Mg4_0 3.287243 1_555
Bi3_0 Mg4_4 3.287243 1_455
Bi3_0 Bi3_2 3.542926 1_555
Bi3_0 Bi3_2 3.542926 1_545
Bi3_1 Mg3_3 3.145662 1_555
Bi3_1 Mg3_1 3.145662 1_555
Bi3_1 Mg4_3 3.287243 1_555
Bi3_1 Mg4_7 3.287243 1_455
Bi3_1 Mg4_1 3.287243 1_555
Bi3_1 Mg4_5 3.287243 1_455
Bi3_1 Bi3_3 3.542926 1_545
Bi3_1 Bi3_3 3.542926 1_555
Bi3_2 Mg3_2 3.145662 1_555
Bi3_2 Mg3_0 3.145662 1_565
Bi3_2 Mg4_2 3.287243 1_555
Bi3_2 Mg4_6 3.287243 1_455
Bi3_2 Mg4_4 3.287243 1_465
Bi3_2 Mg4_0 3.287243 1_565
Bi3_3 Mg3_3 3.145662 1_555
Bi3_3 Mg3_1 3.145662 1_565
Bi3_3 Mg4_5 3.287243 1_465
Bi3_3 Mg4_3 3.287243 1_555
Bi3_3 Mg4_7 3.287243 1_455
Bi3_3 Mg4_1 3.287243 1_565
Bi3_4 Mg3_6 3.145662 1_555
Bi3_4 Mg3_4 3.145662 1_555
Bi3_4 Mg4_2 3.287243 1_555
Bi3_4 Mg4_6 3.287243 1_555
Bi3_4 Mg4_0 3.287243 1_555
Bi3_4 Mg4_4 3.287243 1_555
Bi3_4 Bi3_6 3.542926 1_545
Bi3_4 Bi3_6 3.542926 1_555
Bi3_5 Mg3_7 3.145662 1_555
Bi3_5 Mg3_5 3.145662 1_555
Bi3_5 Mg4_5 3.287243 1_555
Bi3_5 Mg4_3 3.287243 1_555
Bi3_5 Mg4_7 3.287243 1_555
Bi3_5 Mg4_1 3.287243 1_555
Bi3_5 Bi3_7 3.542926 1_545
Bi3_5 Bi3_7 3.542926 1_555
Bi3_6 Mg3_6 3.145662 1_555
Bi3_6 Mg3_4 3.145662 1_565
Bi3_6 Mg4_2 3.287243 1_555
Bi3_6 Mg4_0 3.287243 1_565
Bi3_6 Mg4_4 3.287243 1_565
Bi3_6 Mg4_6 3.287243 1_555
Bi3_7 Mg3_7 3.145662 1_555
Bi3_7 Mg3_5 3.145662 1_565
Bi3_7 Mg4_5 3.287243 1_565
Bi3_7 Mg4_3 3.287243 1_555
Bi3_7 Mg4_7 3.287243 1_555
Bi3_7 Mg4_1 3.287243 1_565
Bi4_0 Mg3_2 3.064046 1_555
Bi4_0 Mg3_0 3.064046 1_555
Bi4_0 Mg5_0 3.123915 1_555
Bi4_0 Mg5_4 3.123915 1_455
Bi4_0 Bi4_2 3.542926 1_555
Bi4_0 Bi4_2 3.542926 1_545
Bi4_0 Bi5_2 3.651832 1_555
Bi4_0 Bi5_4 3.651832 1_455
Bi4_0 Bi5_0 3.651832 1_555
Bi4_0 Bi5_6 3.651832 1_455
Bi4_1 Mg3_3 3.064046 1_555
Bi4_1 Mg3_1 3.064046 1_555
Bi4_1 Mg5_1 3.123915 1_555
Bi4_1 Mg5_5 3.123915 1_455
Bi4_1 Bi4_3 3.542926 1_555
Bi4_1 Bi4_3 3.542926 1_545
Bi4_1 Bi5_3 3.651832 1_555
Bi4_1 Bi5_5 3.651832 1_455
Bi4_1 Bi5_1 3.651832 1_555
Bi4_1 Bi5_7 3.651832 1_455
Bi4_2 Mg3_2 3.064046 1_555
Bi4_2 Mg3_0 3.064046 1_565
Bi4_2 Mg5_2 3.123915 1_555
Bi4_2 Mg5_6 3.123915 1_455
Bi4_2 Bi5_2 3.651832 1_555
Bi4_2 Bi5_4 3.651832 1_465
Bi4_2 Bi5_0 3.651832 1_565
Bi4_2 Bi5_6 3.651832 1_455
Bi4_3 Mg3_1 3.064046 1_565
Bi4_3 Mg3_3 3.064046 1_555
Bi4_3 Mg5_7 3.123915 1_455
Bi4_3 Mg5_3 3.123915 1_555
Bi4_3 Bi5_3 3.651832 1_555
Bi4_3 Bi5_1 3.651832 1_565
Bi4_3 Bi5_5 3.651832 1_465
Bi4_3 Bi5_7 3.651832 1_455
Bi4_4 Mg3_6 3.064046 1_555
Bi4_4 Mg3_4 3.064046 1_555
Bi4_4 Mg5_4 3.123915 1_555
Bi4_4 Mg5_0 3.123915 1_555
Bi4_4 Bi4_6 3.542926 1_555
Bi4_4 Bi4_6 3.542926 1_545
Bi4_4 Bi5_2 3.651832 1_555
Bi4_4 Bi5_6 3.651832 1_555
Bi4_4 Bi5_0 3.651832 1_555
Bi4_4 Bi5_4 3.651832 1_555
Bi4_5 Mg3_5 3.064046 1_555
Bi4_5 Mg3_7 3.064046 1_555
Bi4_5 Mg5_1 3.123915 1_555
Bi4_5 Mg5_5 3.123915 1_555
Bi4_5 Bi4_7 3.542926 1_545
Bi4_5 Bi4_7 3.542926 1_555
Bi4_5 Bi5_3 3.651832 1_555
Bi4_5 Bi5_1 3.651832 1_555
Bi4_5 Bi5_7 3.651832 1_555
Bi4_5 Bi5_5 3.651832 1_555
Bi4_6 Mg3_4 3.064046 1_565
Bi4_6 Mg3_6 3.064046 1_555
Bi4_6 Mg5_2 3.123915 1_555
Bi4_6 Mg5_6 3.123915 1_555
Bi4_6 Bi5_2 3.651832 1_555
Bi4_6 Bi5_6 3.651832 1_555
Bi4_6 Bi5_0 3.651832 1_565
Bi4_6 Bi5_4 3.651832 1_565
Bi4_7 Mg3_7 3.064046 1_555
Bi4_7 Mg3_5 3.064046 1_565
Bi4_7 Mg5_7 3.123915 1_555
Bi4_7 Mg5_3 3.123915 1_555
Bi4_7 Bi5_3 3.651832 1_555
Bi4_7 Bi5_7 3.651832 1_555
Bi4_7 Bi5_1 3.651832 1_565
Bi4_7 Bi5_5 3.651832 1_565
Bi5_0 Mg1_3 3.279946 1_545
Bi5_0 Mg1_1 3.279946 1_555
Bi5_0 Bi5_2 3.542926 1_545
Bi5_0 Bi5_2 3.542926 1_555
Bi5_1 Mg1_2 3.279946 1_546
Bi5_1 Mg1_0 3.279946 1_556
Bi5_1 Bi5_3 3.542926 1_545
Bi5_1 Bi5_3 3.542926 1_555
Bi5_2 Mg1_3 3.279946 1_555
Bi5_2 Mg1_1 3.279946 1_555
Bi5_3 Mg1_2 3.279946 1_556
Bi5_3 Mg1_0 3.279946 1_556
Bi5_4 Mg1_7 3.279946 1_545
Bi5_4 Mg1_5 3.279946 1_555
Bi5_4 Bi5_6 3.542926 1_555
Bi5_4 Bi5_6 3.542926 1_545
Bi5_5 Mg1_6 3.279946 1_546
Bi5_5 Mg1_4 3.279946 1_556
Bi5_5 Bi5_7 3.542926 1_555
Bi5_5 Bi5_7 3.542926 1_545
Bi5_6 Mg1_7 3.279946 1_555
Bi5_6 Mg1_5 3.279946 1_555
Bi5_7 Mg1_6 3.279946 1_556
Bi5_7 Mg1_4 3.279946 1_556
