# generated using pymatgen
data_SrCrF5
_symmetry_space_group_name_H-M   'P 1'
_cell_length_a   11.06637396
_cell_length_b   11.06637396
_cell_length_c   11.06637396
_cell_angle_alpha   96.61677835
_cell_angle_beta   96.61677835
_cell_angle_gamma   140.31295051
_symmetry_Int_Tables_number   1
_chemical_formula_structural   SrCrF5
_chemical_formula_sum   'Sr8 Cr8 F40'
_cell_volume   814.06008873
_cell_formula_units_Z   8
loop_
 _symmetry_equiv_pos_site_id
 _symmetry_equiv_pos_as_xyz
  1  'x, y, z'
loop_
 _atom_site_type_symbol
 _atom_site_label
 _atom_site_symmetry_multiplicity
 _atom_site_fract_x
 _atom_site_fract_y
 _atom_site_fract_z
 _atom_site_occupancy
  Sr  Sr0  1  0.02739800  0.75351500  0.82306700  1
  Sr  Sr1  1  0.93044800  0.20433100  0.17693300  1
  Sr  Sr2  1  0.75351500  0.93044800  0.72611700  1
  Sr  Sr3  1  0.20433100  0.02739800  0.27388300  1
  Sr  Sr4  1  0.23154400  0.54706400  0.82506300  1
  Sr  Sr5  1  0.72200100  0.40648200  0.17493700  1
  Sr  Sr6  1  0.54706400  0.72200100  0.31552000  1
  Sr  Sr7  1  0.40648200  0.23154400  0.68448000  1
  Cr  Cr0  1  0.71727100  0.71727100  0.00000000  1
  Cr  Cr1  1  0.31472400  0.79514000  0.15083300  1
  Cr  Cr2  1  0.64430700  0.16389100  0.84916700  1
  Cr  Cr3  1  0.79514000  0.64430700  0.48041600  1
  Cr  Cr4  1  0.16389100  0.31472400  0.51958400  1
  Cr  Cr5  1  0.21832500  0.21832500  0.00000000  1
  Cr  Cr6  1  0.97248800  0.47248800  0.50000000  1
  Cr  Cr7  1  0.47248800  0.97248800  0.50000000  1
  F  F0  1  0.08975100  0.70156700  0.18880600  1
  F  F1  1  0.51276000  0.90094500  0.81119400  1
  F  F2  1  0.70156700  0.51276000  0.61181600  1
  F  F3  1  0.90094500  0.08975100  0.38818400  1
  F  F4  1  0.72244400  0.22244400  0.50000000  1
  F  F5  1  0.22244400  0.72244400  0.50000000  1
  F  F6  1  0.46806600  0.46806600  0.00000000  1
  F  F7  1  0.20491900  0.54477100  0.13383200  1
  F  F8  1  0.41093800  0.07108600  0.86616800  1
  F  F9  1  0.54477100  0.41093800  0.33985200  1
  F  F10  1  0.07108600  0.20491900  0.66014800  1
  F  F11  1  0.21176500  0.72531300  0.96699900  1
  F  F12  1  0.75831400  0.24476600  0.03300100  1
  F  F13  1  0.72531300  0.75831400  0.51354800  1
  F  F14  1  0.24476600  0.21176500  0.48645200  1
  F  F15  1  0.76410100  0.41729700  0.86220000  1
  F  F16  1  0.55509700  0.90190100  0.13780000  1
  F  F17  1  0.41729700  0.55509700  0.65319600  1
  F  F18  1  0.90190100  0.76410100  0.34680400  1
  F  F19  1  0.96825900  0.96825900  0.00000000  1
  F  F20  1  0.04171900  0.58774900  0.68075500  1
  F  F21  1  0.90699400  0.36096400  0.31924500  1
  F  F22  1  0.58774900  0.90699400  0.54603000  1
  F  F23  1  0.36096400  0.04171900  0.45397000  1
  F  F24  1  0.08341400  0.25091300  0.91969900  1
  F  F25  1  0.33121400  0.16371500  0.08030100  1
  F  F26  1  0.25091300  0.33121400  0.16750000  1
  F  F27  1  0.16371500  0.08341400  0.83250000  1
  F  F28  1  0.42442900  0.84871500  0.33081600  1
  F  F29  1  0.51789900  0.09361300  0.66918400  1
  F  F30  1  0.84871500  0.51789900  0.42428700  1
  F  F31  1  0.09361300  0.42442900  0.57571300  1
  F  F32  1  0.85212300  0.68687800  0.08443700  1
  F  F33  1  0.60244000  0.76768500  0.91556300  1
  F  F34  1  0.68687800  0.60244000  0.83475500  1
  F  F35  1  0.76768500  0.85212300  0.16524500  1
  F  F36  1  0.86019400  0.24738200  0.80216900  1
  F  F37  1  0.44521300  0.05802500  0.19783100  1
  F  F38  1  0.24738200  0.44521300  0.38718800  1
  F  F39  1  0.05802500  0.86019400  0.61281200  1
loop_
_geom_bond_atom_site_label_1
_geom_bond_atom_site_label_2
_geom_bond_distance
_geom_bond_site_symmetry_2
Cr0 F6 1.872282 1_555
Cr0 F19 1.885677 1_555
Cr0 F33 1.933095 1_554
Cr0 F32 1.933095 1_555
Cr0 F35 1.933100 1_555
Cr0 F34 1.933100 1_554
Cr1 F11 1.944854 1_554
Cr1 F16 1.945064 1_555
Cr1 F0 1.954661 1_555
Cr1 F37 1.957461 1_565
Cr1 F7 1.958073 1_555
Cr1 F28 1.963491 1_555
Cr2 F12 1.944854 1_556
Cr2 F15 1.945064 1_555
Cr2 F1 1.954656 1_545
Cr2 F36 1.957461 1_555
Cr2 F8 1.958078 1_555
Cr2 F29 1.963491 1_555
Cr3 F13 1.944854 1_555
Cr3 F18 1.945064 1_555
Cr3 F2 1.954665 1_555
Cr3 F39 1.957461 1_655
Cr3 F9 1.958075 1_555
Cr3 F30 1.963488 1_555
Cr4 F14 1.944854 1_555
Cr4 F17 1.945064 1_555
Cr4 F3 1.954661 1_455
Cr4 F38 1.957461 1_555
Cr4 F10 1.958075 1_555
Cr4 F31 1.963487 1_555
Cr5 F6 1.876309 1_555
Cr5 F19 1.878750 1_445
Cr5 F25 1.935325 1_555
Cr5 F24 1.935325 1_554
Cr5 F27 1.935334 1_554
Cr5 F26 1.935335 1_555
Cr6 F5 1.877924 1_655
Cr6 F4 1.878585 1_555
Cr6 F31 1.929417 1_655
Cr6 F30 1.929417 1_555
Cr6 F21 1.941631 1_555
Cr6 F20 1.941631 1_655
Cr7 F4 1.877924 1_565
Cr7 F5 1.878585 1_555
Cr7 F29 1.929421 1_565
Cr7 F28 1.929421 1_555
Cr7 F23 1.941631 1_565
Cr7 F22 1.941631 1_555
F0 Sr5 2.556573 1_455
F0 Sr3 2.720567 1_565
F1 Sr4 2.556573 1_555
F1 Sr2 2.720577 1_555
F2 Sr7 2.556566 1_555
F2 Sr0 2.720565 1_655
F3 Sr6 2.556573 1_545
F3 Sr1 2.720567 1_555
F7 Sr1 2.604374 1_455
F7 Sr6 2.851812 1_555
F8 Sr0 2.604367 1_545
F8 Sr7 2.851811 1_555
F9 Sr3 2.604369 1_555
F9 Sr5 2.851802 1_555
F10 Sr2 2.604369 1_445
F10 Sr4 2.851807 1_555
F11 Sr4 2.536889 1_555
F11 Sr0 2.672603 1_555
F12 Sr5 2.536898 1_555
F12 Sr1 2.672603 1_555
F13 Sr6 2.536889 1_555
F13 Sr2 2.672603 1_555
F14 Sr7 2.536895 1_555
F14 Sr3 2.672603 1_555
F15 Sr0 2.549062 1_655
F15 Sr7 2.917107 1_555
F16 Sr1 2.549062 1_565
F16 Sr6 2.917115 1_555
F17 Sr2 2.549062 1_555
F17 Sr4 2.917115 1_555
F18 Sr3 2.549062 1_665
F18 Sr5 2.917107 1_555
F20 Sr0 2.389490 1_555
F20 Sr4 2.830919 1_555
F21 Sr1 2.389490 1_555
F21 Sr5 2.830928 1_555
F22 Sr2 2.389490 1_555
F22 Sr6 2.830919 1_555
F23 Sr3 2.389490 1_555
F23 Sr7 2.830913 1_555
F24 Sr2 2.648472 1_445
F24 Sr4 2.728156 1_555
F25 Sr3 2.648472 1_555
F25 Sr5 2.728153 1_555
F26 Sr1 2.648469 1_455
F26 Sr6 2.728153 1_555
F27 Sr0 2.648474 1_545
F27 Sr7 2.728154 1_555
F28 Sr6 2.600766 1_555
F29 Sr7 2.600756 1_555
F30 Sr5 2.600777 1_555
F31 Sr4 2.600776 1_555
F32 Sr5 2.622313 1_555
F32 Sr3 2.734572 1_665
F33 Sr4 2.622316 1_555
F33 Sr2 2.734577 1_555
F34 Sr7 2.622316 1_555
F34 Sr0 2.734567 1_655
F35 Sr6 2.622315 1_555
F35 Sr1 2.734567 1_565
F36 Sr4 2.557590 1_655
F36 Sr2 2.668582 1_545
F37 Sr5 2.557597 1_555
F37 Sr3 2.668582 1_555
F38 Sr6 2.557590 1_555
F38 Sr1 2.668582 1_455
F39 Sr7 2.557593 1_565
F39 Sr0 2.668582 1_555
