# generated using pymatgen
data_AlInSb2
_symmetry_space_group_name_H-M   'P 1'
_cell_length_a   4.50616554
_cell_length_b   4.50616554
_cell_length_c   6.34882299
_cell_angle_alpha   90.00000000
_cell_angle_beta   90.00000000
_cell_angle_gamma   90.00000000
_symmetry_Int_Tables_number   1
_chemical_formula_structural   AlInSb2
_chemical_formula_sum   'Al1 In1 Sb2'
_cell_volume   128.91620219
_cell_formula_units_Z   1
loop_
 _symmetry_equiv_pos_site_id
 _symmetry_equiv_pos_as_xyz
  1  'x, y, z'
loop_
 _atom_site_type_symbol
 _atom_site_label
 _atom_site_symmetry_multiplicity
 _atom_site_fract_x
 _atom_site_fract_y
 _atom_site_fract_z
 _atom_site_occupancy
  Al  Al0  1  -0.00000000  0.00000000  -0.00000000  1
  In  In0  1  0.50000000  0.50000000  0.50000000  1
  Sb  Sb0  1  -0.00000000  0.50000000  0.23336537  1
  Sb  Sb1  1  0.50000000  -0.00000000  0.76663463  1
loop_
_geom_bond_atom_site_label_1
_geom_bond_atom_site_label_2
_geom_bond_distance
_geom_bond_site_symmetry_2
Al0 Sb1 2.696573 1_554
Al0 Sb0 2.696573 1_545
Al0 Sb1 2.696573 1_454
Al0 Sb0 2.696573 1_555
In0 Sb1 2.818157 1_555
In0 Sb0 2.818157 1_555
In0 Sb0 2.818157 1_655
In0 Sb1 2.818157 1_565
