# generated using pymatgen
data_Y7Mg3Ge8
_symmetry_space_group_name_H-M   'P 1'
_cell_length_a   7.16318500
_cell_length_b   7.82484200
_cell_length_c   14.47433001
_cell_angle_alpha   89.99745472
_cell_angle_beta   90.00000000
_cell_angle_gamma   90.00000000
_symmetry_Int_Tables_number   1
_chemical_formula_structural   Y7Mg3Ge8
_chemical_formula_sum   'Y14 Mg6 Ge16'
_cell_volume   811.29764340
_cell_formula_units_Z   2
loop_
 _symmetry_equiv_pos_site_id
 _symmetry_equiv_pos_as_xyz
  1  'x, y, z'
loop_
 _atom_site_type_symbol
 _atom_site_label
 _atom_site_symmetry_multiplicity
 _atom_site_fract_x
 _atom_site_fract_y
 _atom_site_fract_z
 _atom_site_occupancy
  Y  Y0  1  0.50895600  0.93376300  0.84717100  1
  Y  Y1  1  0.00895600  0.06623700  0.15282900  1
  Y  Y2  1  0.48747500  0.56664100  0.34452100  1
  Y  Y3  1  0.98747500  0.43335900  0.65547900  1
  Y  Y4  1  0.49020800  0.56613900  0.65669700  1
  Y  Y5  1  0.99020800  0.43386100  0.34330300  1
  Y  Y6  1  0.51121800  0.93485900  0.15226100  1
  Y  Y7  1  0.01121800  0.06514100  0.84773900  1
  Y  Y8  1  0.32913900  0.07315600  0.37463100  1
  Y  Y9  1  0.82913900  0.92684400  0.62536900  1
  Y  Y10  1  0.33057700  0.07478600  0.62408000  1
  Y  Y11  1  0.83057700  0.92521400  0.37592000  1
  Y  Y12  1  0.66909200  0.43064600  0.12061800  1
  Y  Y13  1  0.16909200  0.56935400  0.87938200  1
  Mg  Mg0  1  0.84168300  0.76357400  0.00055600  1
  Mg  Mg1  1  0.34168300  0.23642600  0.99944400  1
  Mg  Mg2  1  0.16080100  0.73222000  0.50011200  1
  Mg  Mg3  1  0.66080100  0.26778000  0.49988800  1
  Mg  Mg4  1  0.67302700  0.42614800  0.87353200  1
  Mg  Mg5  1  0.17302700  0.57385200  0.12646800  1
  Ge  Ge0  1  0.66930900  0.21832300  0.71564700  1
  Ge  Ge1  1  0.16930900  0.78167700  0.28435300  1
  Ge  Ge2  1  0.32793000  0.28672200  0.21000600  1
  Ge  Ge3  1  0.82793000  0.71327800  0.78999400  1
  Ge  Ge4  1  0.33410800  0.28534600  0.78809200  1
  Ge  Ge5  1  0.83410800  0.71465400  0.21190800  1
  Ge  Ge6  1  0.67024100  0.21674900  0.28482200  1
  Ge  Ge7  1  0.17024100  0.78325100  0.71517800  1
  Ge  Ge8  1  0.71407400  0.11249500  0.00000300  1
  Ge  Ge9  1  0.21407400  0.88750500  0.99999700  1
  Ge  Ge10  1  0.28793500  0.38744800  0.50030500  1
  Ge  Ge11  1  0.78793500  0.61255200  0.49969500  1
  Ge  Ge12  1  0.47126900  0.65605200  0.00053000  1
  Ge  Ge13  1  0.97126900  0.34394800  0.99947000  1
  Ge  Ge14  1  0.52296100  0.83896100  0.50066800  1
  Ge  Ge15  1  0.02296100  0.16103900  0.49933200  1
loop_
_geom_bond_atom_site_label_1
_geom_bond_atom_site_label_2
_geom_bond_distance
_geom_bond_site_symmetry_2
Ge0 Ge4 2.672069 1_555
Ge0 Mg4 2.805007 1_555
Ge0 Y9 2.867139 1_545
Ge0 Y3 2.963740 1_555
Ge0 Y10 2.984231 1_555
Ge0 Y4 3.127444 1_555
Ge0 Y0 3.146595 1_545
Ge0 Mg3 3.147426 1_555
Ge0 Y7 3.330225 1_655
Ge1 Ge5 2.672069 1_455
Ge1 Mg5 2.805007 1_555
Ge1 Y8 2.867139 1_565
Ge1 Y2 2.963740 1_555
Ge1 Y11 2.984231 1_455
Ge1 Y5 3.127444 1_455
Ge1 Y1 3.146595 1_565
Ge1 Mg2 3.147426 1_555
Ge1 Y6 3.330225 1_555
Ge2 Ge6 2.735858 1_555
Ge2 Mg5 2.782247 1_555
Ge2 Y8 2.910374 1_555
Ge2 Y1 2.980302 1_555
Ge2 Y12 2.985690 1_555
Ge2 Mg1 3.074645 1_554
Ge2 Y2 3.145610 1_555
Ge2 Y6 3.162765 1_545
Ge2 Y5 3.301616 1_455
Ge3 Ge7 2.735858 1_655
Ge3 Mg4 2.782247 1_555
Ge3 Y9 2.910374 1_555
Ge3 Y0 2.980302 1_555
Ge3 Y13 2.985690 1_655
Ge3 Mg0 3.074645 1_556
Ge3 Y3 3.145610 1_555
Ge3 Y7 3.162765 1_665
Ge3 Y4 3.301616 1_555
Ge4 Y13 2.842916 1_555
Ge4 Y10 2.889857 1_555
Ge4 Mg4 2.938927 1_555
Ge4 Y7 3.010617 1_555
Ge4 Mg1 3.083495 1_555
Ge4 Y4 3.113600 1_555
Ge4 Y0 3.141363 1_545
Ge4 Y3 3.345276 1_455
Ge5 Y12 2.842916 1_555
Ge5 Y11 2.889857 1_555
Ge5 Mg5 2.938927 1_655
Ge5 Y6 3.010617 1_555
Ge5 Mg0 3.083495 1_555
Ge5 Y5 3.113600 1_555
Ge5 Y1 3.141363 1_665
Ge5 Y2 3.345276 1_555
Ge6 Y11 2.874270 1_545
Ge6 Y12 2.906876 1_555
Ge6 Y5 2.975900 1_555
Ge6 Y8 2.987009 1_555
Ge6 Y6 3.137641 1_545
Ge6 Mg3 3.139188 1_555
Ge6 Y2 3.155420 1_555
Ge6 Y1 3.305167 1_655
Ge7 Y10 2.874270 1_565
Ge7 Y13 2.906876 1_555
Ge7 Y4 2.975900 1_555
Ge7 Y9 2.987009 1_455
Ge7 Y7 3.137641 1_565
Ge7 Mg2 3.139188 1_555
Ge7 Y3 3.155420 1_455
Ge7 Y0 3.305167 1_555
Ge8 Mg1 2.838318 1_554
Ge8 Mg0 2.879217 1_545
Ge8 Y6 2.983306 1_545
Ge8 Y0 3.001436 1_544
Ge8 Y12 3.057714 1_555
Ge8 Mg4 3.075809 1_554
Ge8 Y1 3.079921 1_655
Ge8 Y7 3.086281 1_654
Ge9 Mg0 2.838318 1_456
Ge9 Mg1 2.879217 1_565
Ge9 Y7 2.983306 1_565
Ge9 Y1 3.001436 1_566
Ge9 Y13 3.057714 1_555
Ge9 Mg5 3.075809 1_556
Ge9 Y0 3.079921 1_555
Ge9 Y6 3.086281 1_556
Ge10 Ge15 2.596429 1_555
Ge10 Mg3 2.830300 1_555
Ge10 Mg2 2.847350 1_555
Ge10 Y2 3.015496 1_555
Ge10 Y4 3.029668 1_555
Ge10 Y10 3.047640 1_555
Ge10 Y8 3.073195 1_555
Ge10 Y3 3.131454 1_455
Ge10 Y5 3.137574 1_455
Ge11 Ge14 2.596429 1_555
Ge11 Mg2 2.830300 1_655
Ge11 Mg3 2.847350 1_555
Ge11 Y3 3.015496 1_555
Ge11 Y5 3.029668 1_555
Ge11 Y11 3.047640 1_555
Ge11 Y9 3.073195 1_555
Ge11 Y2 3.131454 1_555
Ge11 Y4 3.137574 1_555
Ge12 Ge9 2.583463 1_554
Ge12 Mg0 2.783539 1_555
Ge12 Y12 2.853055 1_555
Ge12 Y13 2.867140 1_554
Ge12 Mg5 2.881059 1_555
Ge12 Mg4 2.950300 1_554
Ge12 Y6 3.108874 1_555
Ge12 Y0 3.118004 1_554
Ge13 Ge8 2.583463 1_556
Ge13 Mg1 2.783539 1_655
Ge13 Y13 2.853055 1_655
Ge13 Y12 2.867140 1_556
Ge13 Mg4 2.881059 1_555
Ge13 Mg5 2.950300 1_656
Ge13 Y7 3.108874 1_655
Ge13 Y1 3.118004 1_656
Ge14 Mg2 2.725371 1_555
Ge14 Y10 2.914687 1_565
Ge14 Y9 2.922510 1_555
Ge14 Y11 2.927663 1_555
Ge14 Y8 2.934891 1_565
Ge14 Y4 3.116469 1_555
Ge14 Y2 3.116692 1_555
Ge15 Mg3 2.725371 1_455
Ge15 Y11 2.914687 1_445
Ge15 Y8 2.922510 1_555
Ge15 Y10 2.927663 1_555
Ge15 Y9 2.934891 1_445
Ge15 Y5 3.116469 1_455
Ge15 Y3 3.116692 1_455
