# generated using pymatgen
data_NdTa7O19
_symmetry_space_group_name_H-M   'P 1'
_cell_length_a   6.23938141
_cell_length_b   6.23938365
_cell_length_c   20.00213331
_cell_angle_alpha   90.00000090
_cell_angle_beta   89.99999841
_cell_angle_gamma   119.99989748
_symmetry_Int_Tables_number   1
_chemical_formula_structural   NdTa7O19
_chemical_formula_sum   'Nd2 Ta14 O38'
_cell_volume   674.35816954
_cell_formula_units_Z   2
loop_
 _symmetry_equiv_pos_site_id
 _symmetry_equiv_pos_as_xyz
  1  'x, y, z'
loop_
 _atom_site_type_symbol
 _atom_site_label
 _atom_site_symmetry_multiplicity
 _atom_site_fract_x
 _atom_site_fract_y
 _atom_site_fract_z
 _atom_site_occupancy
  Nd  Nd0  1  -0.00000064  0.00000027  0.00000102  1
  Nd  Nd1  1  -0.00000006  0.00000003  0.50000022  1
  Ta  Ta0  1  0.02664428  0.33442097  0.65604292  1
  Ta  Ta1  1  0.66557956  0.69222354  0.65604306  1
  Ta  Ta2  1  0.02664050  0.33442101  0.84396231  1
  Ta  Ta3  1  0.66557862  0.69221982  0.84396237  1
  Ta  Ta4  1  0.30778071  0.97336041  0.84396249  1
  Ta  Ta5  1  0.66557544  0.97336409  0.15603443  1
  Ta  Ta6  1  0.30778859  0.33442373  0.15603466  1
  Ta  Ta7  1  0.30778602  0.33441987  0.34395981  1
  Ta  Ta8  1  0.66557992  0.97336576  0.34395966  1
  Ta  Ta9  1  0.02663780  0.69221080  0.15603470  1
  Ta  Ta10  1  0.33333370  0.66666711  0.50000120  1
  Ta  Ta11  1  0.33333279  0.66666638  -0.00000161  1
  Ta  Ta12  1  0.02663307  0.69221321  0.34395973  1
  Ta  Ta13  1  0.30777839  0.97335767  0.65604325  1
  O  O0  1  -0.00000008  -0.00000014  0.63163845  1
  O  O1  1  0.00000026  0.00000011  0.86836804  1
  O  O2  1  0.00000009  0.00000012  0.36836006  1
  O  O3  1  -0.00000000  -0.00000003  0.13163573  1
  O  O4  1  0.33333308  0.66666660  0.66776387  1
  O  O5  1  0.33333292  0.66666625  0.83224054  1
  O  O6  1  0.33333355  0.66666706  0.33223818  1
  O  O7  1  0.33333312  0.66666703  0.16775832  1
  O  O8  1  0.04227125  0.28904021  0.75000460  1
  O  O9  1  0.71095917  0.75323061  0.75000468  1
  O  O10  1  0.24676948  0.95772864  0.75000463  1
  O  O11  1  0.24676922  0.28904593  0.24999607  1
  O  O12  1  0.71095437  0.95772318  0.24999600  1
  O  O13  1  0.04227654  0.75323063  0.24999601  1
  O  O14  1  0.61484011  0.90264841  0.44308250  1
  O  O15  1  0.09736052  0.38516472  0.55691982  1
  O  O16  1  0.91294881  0.33318149  0.15348648  1
  O  O17  1  0.42022951  0.08704458  0.34650953  1
  O  O18  1  0.66681477  0.57977134  0.34650953  1
  O  O19  1  0.66681745  0.57976816  0.15348649  1
  O  O20  1  0.42023342  0.08705175  0.15348648  1
  O  O21  1  0.66681770  0.08704786  0.84651435  1
  O  O22  1  0.42022847  0.33318276  0.84651454  1
  O  O23  1  0.91295085  0.57976923  0.84651439  1
  O  O24  1  0.42023335  0.33318431  0.65348931  1
  O  O25  1  0.91294952  0.57976568  0.65348926  1
  O  O26  1  0.91295598  0.33318484  0.34650955  1
  O  O27  1  0.66681658  0.08704919  0.65348922  1
  O  O28  1  0.09735886  0.38516206  0.94308562  1
  O  O29  1  0.28780442  0.90263980  0.55691985  1
  O  O30  1  0.61483551  0.71219569  0.55691986  1
  O  O31  1  0.61483746  0.71219664  0.94308565  1
  O  O32  1  0.28780271  0.90264138  0.94308565  1
  O  O33  1  0.61484173  0.90265153  0.05691218  1
  O  O34  1  0.28780945  0.38515811  0.05691221  1
  O  O35  1  0.09734808  0.71219045  0.05691226  1
  O  O36  1  0.28780823  0.38516024  0.44308245  1
  O  O37  1  0.09735189  0.71219190  0.44308245  1
loop_
_geom_bond_atom_site_label_1
_geom_bond_atom_site_label_2
_geom_bond_distance
_geom_bond_site_symmetry_2
Nd0 O33 2.445447 1_445
Nd0 O35 2.445451 1_545
Nd0 O34 2.445452 1_555
Nd0 O28 2.445493 1_554
Nd0 O32 2.445494 1_544
Nd0 O31 2.445496 1_444
Nd0 O1 2.632940 1_554
Nd0 O3 2.632975 1_555
Nd1 O14 2.445515 1_445
Nd1 O37 2.445515 1_545
Nd1 O36 2.445520 1_555
Nd1 O29 2.445545 1_545
Nd1 O15 2.445546 1_555
Nd1 O30 2.445547 1_445
Nd1 O0 2.633045 1_555
Nd1 O2 2.633084 1_555
O0 Ta1 2.067089 1_445
O0 Ta0 2.067090 1_555
O0 Ta13 2.067093 1_545
O1 Ta4 2.067100 1_545
O1 Ta2 2.067106 1_555
O1 Ta3 2.067109 1_445
O2 Ta8 2.067091 1_445
O2 Ta7 2.067092 1_555
O2 Ta12 2.067093 1_545
O3 Ta5 2.067105 1_445
O3 Ta6 2.067107 1_555
O3 Ta9 2.067116 1_545
O4 Ta0 2.011767 1_555
O4 Ta1 2.011768 1_555
O4 Ta13 2.011769 1_555
O5 Ta3 2.011775 1_555
O5 Ta2 2.011777 1_555
O5 Ta4 2.011783 1_555
O6 Ta8 2.011797 1_555
O6 Ta12 2.011800 1_555
O6 Ta7 2.011801 1_555
O7 Ta9 2.011764 1_555
O7 Ta5 2.011784 1_555
O7 Ta6 2.011789 1_555
O8 Ta2 1.910307 1_555
O8 Ta0 1.910382 1_555
O9 Ta3 1.910306 1_555
O9 Ta1 1.910380 1_555
O10 Ta4 1.910309 1_555
O10 Ta13 1.910377 1_555
O11 Ta6 1.910385 1_555
O11 Ta7 1.910428 1_555
O12 Ta5 1.910389 1_555
O12 Ta8 1.910426 1_555
O13 Ta9 1.910384 1_555
O13 Ta12 1.910428 1_555
O14 Ta10 1.990725 1_555
O14 Ta8 2.021435 1_555
O15 Ta10 1.990696 1_555
O15 Ta0 2.021440 1_555
O16 Ta9 1.983657 1_655
O16 Ta5 1.989961 1_545
O16 Ta6 2.460218 1_655
O17 Ta8 1.983668 1_545
O17 Ta7 1.989967 1_555
O17 Ta12 2.460193 1_545
O18 Ta7 1.983671 1_555
O18 Ta12 1.989968 1_655
O18 Ta8 2.460177 1_555
O19 Ta6 1.983661 1_555
O19 Ta9 1.989979 1_655
O19 Ta5 2.460208 1_555
O20 Ta5 1.983658 1_545
O20 Ta6 1.989953 1_555
O20 Ta9 2.460220 1_545
O21 Ta4 1.983706 1_545
O21 Ta2 1.989988 1_655
O21 Ta3 2.460157 1_545
O22 Ta3 1.983709 1_555
O22 Ta4 1.989987 1_545
O22 Ta2 2.460147 1_555
O23 Ta2 1.983707 1_655
O23 Ta3 1.989983 1_555
O23 Ta4 2.460173 1_655
O24 Ta1 1.983715 1_555
O24 Ta13 1.990003 1_545
O24 Ta0 2.460150 1_555
O25 Ta0 1.983710 1_655
O25 Ta1 1.990004 1_555
O25 Ta13 2.460173 1_655
O26 Ta12 1.983668 1_655
O26 Ta8 1.989974 1_545
O26 Ta7 2.460180 1_655
O27 Ta13 1.983709 1_545
O27 Ta0 1.990009 1_655
O27 Ta1 2.460149 1_545
O28 Ta11 1.990637 1_556
O28 Ta2 2.021445 1_555
O29 Ta10 1.990692 1_555
O29 Ta13 2.021447 1_555
O30 Ta10 1.990693 1_555
O30 Ta1 2.021442 1_555
O31 Ta11 1.990637 1_556
O31 Ta3 2.021444 1_555
O32 Ta11 1.990639 1_556
O32 Ta4 2.021443 1_555
O33 Ta11 1.990684 1_555
O33 Ta5 2.021417 1_555
O34 Ta11 1.990681 1_555
O34 Ta6 2.021422 1_555
O35 Ta11 1.990681 1_555
O35 Ta9 2.021418 1_555
O36 Ta10 1.990726 1_555
O36 Ta7 2.021432 1_555
O37 Ta10 1.990725 1_555
O37 Ta12 2.021434 1_555
