# generated using pymatgen
data_Tb5CuBi3
_symmetry_space_group_name_H-M   'P 1'
_cell_length_a   9.34038638
_cell_length_b   9.34038638
_cell_length_c   6.41715400
_cell_angle_alpha   90.00000000
_cell_angle_beta   90.00000000
_cell_angle_gamma   120.00000272
_symmetry_Int_Tables_number   1
_chemical_formula_structural   Tb5CuBi3
_chemical_formula_sum   'Tb10 Cu2 Bi6'
_cell_volume   484.84482620
_cell_formula_units_Z   2
loop_
 _symmetry_equiv_pos_site_id
 _symmetry_equiv_pos_as_xyz
  1  'x, y, z'
loop_
 _atom_site_type_symbol
 _atom_site_label
 _atom_site_symmetry_multiplicity
 _atom_site_fract_x
 _atom_site_fract_y
 _atom_site_fract_z
 _atom_site_occupancy
  Tb  Tb0  1  0.66666700  0.33333300  0.50000000  1
  Tb  Tb1  1  0.33333300  0.66666700  0.50000000  1
  Tb  Tb2  1  0.33333300  0.66666700  0.00000000  1
  Tb  Tb3  1  0.66666700  0.33333300  0.00000000  1
  Tb  Tb4  1  0.74423500  0.74423500  0.25000000  1
  Tb  Tb5  1  0.25576500  0.00000000  0.25000000  1
  Tb  Tb6  1  0.00000000  0.25576500  0.25000000  1
  Tb  Tb7  1  0.25576500  0.25576500  0.75000000  1
  Tb  Tb8  1  0.74423500  0.00000000  0.75000000  1
  Tb  Tb9  1  0.00000000  0.74423500  0.75000000  1
  Cu  Cu0  1  0.00000000  0.00000000  0.50000000  1
  Cu  Cu1  1  0.00000000  0.00000000  0.00000000  1
  Bi  Bi0  1  0.38513500  0.38513500  0.25000000  1
  Bi  Bi1  1  0.61486500  0.00000000  0.25000000  1
  Bi  Bi2  1  0.00000000  0.61486500  0.25000000  1
  Bi  Bi3  1  0.61486500  0.61486500  0.75000000  1
  Bi  Bi4  1  0.38513500  0.00000000  0.75000000  1
  Bi  Bi5  1  0.00000000  0.38513500  0.75000000  1
loop_
_geom_bond_atom_site_label_1
_geom_bond_atom_site_label_2
_geom_bond_distance
_geom_bond_site_symmetry_2
Cu0 Tb7 2.877637 1_555
Cu0 Tb4 2.877637 1_445
Cu0 Tb5 2.877637 1_555
Cu0 Tb6 2.877637 1_555
Cu0 Tb8 2.877637 1_455
Cu0 Tb9 2.877637 1_545
Cu1 Tb7 2.877637 1_554
Cu1 Tb4 2.877637 1_445
Cu1 Tb5 2.877637 1_555
Cu1 Tb6 2.877637 1_555
Cu1 Tb8 2.877637 1_454
Cu1 Tb9 2.877637 1_544
Bi0 Tb6 3.170791 1_555
Bi0 Tb5 3.170791 1_555
Bi0 Tb2 3.315884 1_555
Bi0 Tb0 3.315884 1_555
Bi0 Tb3 3.315884 1_555
Bi0 Tb1 3.315884 1_555
Bi0 Tb4 3.354133 1_555
Bi0 Tb7 3.428573 1_554
Bi0 Tb7 3.428573 1_555
Bi1 Tb6 3.170791 1_655
Bi1 Tb4 3.170792 1_545
Bi1 Tb0 3.315876 1_555
Bi1 Tb3 3.315876 1_555
Bi1 Tb1 3.315878 1_545
Bi1 Tb2 3.315878 1_545
Bi1 Tb5 3.354133 1_555
Bi1 Tb8 3.428573 1_555
Bi1 Tb8 3.428573 1_554
Bi2 Tb5 3.170791 1_565
Bi2 Tb4 3.170792 1_455
Bi2 Tb2 3.315876 1_555
Bi2 Tb1 3.315876 1_555
Bi2 Tb3 3.315878 1_455
Bi2 Tb0 3.315878 1_455
Bi2 Tb6 3.354133 1_555
Bi2 Tb9 3.428573 1_555
Bi2 Tb9 3.428573 1_554
Bi3 Tb9 3.170791 1_655
Bi3 Tb8 3.170791 1_565
Bi3 Tb2 3.315884 1_556
Bi3 Tb0 3.315884 1_555
Bi3 Tb3 3.315884 1_556
Bi3 Tb1 3.315884 1_555
Bi3 Tb7 3.354133 1_555
Bi3 Tb4 3.428573 1_555
Bi3 Tb4 3.428573 1_556
Bi4 Tb9 3.170791 1_545
Bi4 Tb7 3.170792 1_555
Bi4 Tb2 3.315876 1_546
Bi4 Tb1 3.315876 1_545
Bi4 Tb0 3.315878 1_555
Bi4 Tb3 3.315878 1_556
Bi4 Tb8 3.354133 1_555
Bi4 Tb5 3.428573 1_555
Bi4 Tb5 3.428573 1_556
Bi5 Tb8 3.170791 1_455
Bi5 Tb7 3.170792 1_555
Bi5 Tb3 3.315876 1_456
Bi5 Tb0 3.315876 1_455
Bi5 Tb2 3.315878 1_556
Bi5 Tb1 3.315878 1_555
Bi5 Tb9 3.354133 1_555
Bi5 Tb6 3.428573 1_555
Bi5 Tb6 3.428573 1_556
