# generated using pymatgen
data_ZrU4O10
_symmetry_space_group_name_H-M   'P 1'
_cell_length_a   15.63546768
_cell_length_b   15.63546768
_cell_length_c   6.59000603
_cell_angle_alpha   86.00494140
_cell_angle_beta   86.00494140
_cell_angle_gamma   14.02903297
_symmetry_Int_Tables_number   1
_chemical_formula_structural   ZrU4O10
_chemical_formula_sum   'Zr2 U8 O20'
_cell_volume   389.57564495
_cell_formula_units_Z   2
loop_
 _symmetry_equiv_pos_site_id
 _symmetry_equiv_pos_as_xyz
  1  'x, y, z'
loop_
 _atom_site_type_symbol
 _atom_site_label
 _atom_site_symmetry_multiplicity
 _atom_site_fract_x
 _atom_site_fract_y
 _atom_site_fract_z
 _atom_site_occupancy
  Zr  Zr0  1  0.40040500  0.40040500  0.69954200  1
  Zr  Zr1  1  0.59959500  0.59959500  0.30045800  1
  U  U0  1  0.00000000  0.00000000  0.50000000  1
  U  U1  1  0.50000000  0.50000000  0.00000000  1
  U  U2  1  0.30057900  0.30057900  0.40083600  1
  U  U3  1  0.69942100  0.69942100  0.59916400  1
  U  U4  1  0.90026200  0.90026200  0.20011500  1
  U  U5  1  0.80112500  0.80112500  0.89942900  1
  U  U6  1  0.19887500  0.19887500  0.10057100  1
  U  U7  1  0.09973800  0.09973800  0.79988500  1
  O  O0  1  0.52656400  0.52656400  0.32662400  1
  O  O1  1  0.07568800  0.07568800  0.46769300  1
  O  O2  1  0.92431200  0.92431200  0.53230700  1
  O  O3  1  0.57582900  0.57582900  0.98229000  1
  O  O4  1  0.37650000  0.37650000  0.38209400  1
  O  O5  1  0.47343600  0.47343600  0.67337600  1
  O  O6  1  0.02497000  0.02497000  0.82330300  1
  O  O7  1  0.32759100  0.32759100  0.72467200  1
  O  O8  1  0.97503000  0.97503000  0.17669700  1
  O  O9  1  0.77524000  0.77524000  0.57562800  1
  O  O10  1  0.22476000  0.22476000  0.42437200  1
  O  O11  1  0.87672500  0.87672500  0.86722200  1
  O  O12  1  0.42417100  0.42417100  0.01771000  1
  O  O13  1  0.72472100  0.72472100  0.92573100  1
  O  O14  1  0.62350000  0.62350000  0.61790600  1
  O  O15  1  0.82587900  0.82587900  0.22401400  1
  O  O16  1  0.17412100  0.17412100  0.77598600  1
  O  O17  1  0.27527900  0.27527900  0.07426900  1
  O  O18  1  0.67240900  0.67240900  0.27532800  1
  O  O19  1  0.12327500  0.12327500  0.13277800  1
loop_
_geom_bond_atom_site_label_1
_geom_bond_atom_site_label_2
_geom_bond_distance
_geom_bond_site_symmetry_2
O0 Zr1 2.261102 1_555
O0 U0 2.344948 1_655
O0 U0 2.344948 1_565
O0 U1 2.358377 1_555
O1 Zr1 2.301349 1_455
O1 Zr1 2.301349 1_545
O1 U0 2.343816 1_555
O1 U7 2.361979 1_555
O2 Zr0 2.301349 1_655
O2 Zr0 2.301349 1_565
O2 U0 2.343816 1_665
O2 U4 2.361979 1_555
O3 Zr1 2.271010 1_556
O3 U1 2.348191 1_556
O3 U7 2.348663 1_655
O3 U7 2.348663 1_565
O4 Zr0 2.268209 1_555
O4 U4 2.346015 1_545
O4 U4 2.346015 1_455
O4 U2 2.350912 1_555
O5 Zr0 2.261102 1_555
O5 U0 2.344948 1_655
O5 U0 2.344948 1_565
O5 U1 2.358377 1_556
O6 U7 2.314857 1_555
O6 U0 2.317702 1_555
O6 U1 2.340020 1_456
O6 U1 2.340020 1_546
O7 Zr0 2.254355 1_555
O7 U2 2.346986 1_555
O7 U5 2.348210 1_545
O7 U5 2.348210 1_455
O8 U4 2.314857 1_555
O8 U0 2.317702 1_665
O8 U1 2.340020 1_565
O8 U1 2.340020 1_655
O9 U5 2.332258 1_555
O9 U2 2.337523 1_565
O9 U2 2.337523 1_655
O9 U3 2.347402 1_555
O10 U6 2.332258 1_555
O10 U3 2.337523 1_455
O10 U3 2.337523 1_545
O10 U2 2.347402 1_555
O11 Zr0 2.300665 1_655
O11 Zr0 2.300665 1_565
O11 U5 2.341083 1_555
O11 U4 2.360350 1_556
O12 Zr0 2.271010 1_554
O12 U1 2.348191 1_555
O12 U4 2.348663 1_545
O12 U4 2.348663 1_455
O13 U3 2.342067 1_555
O13 U6 2.342468 1_566
O13 U6 2.342468 1_656
O13 U5 2.365502 1_555
O14 Zr1 2.268209 1_555
O14 U7 2.346015 1_565
O14 U7 2.346015 1_655
O14 U3 2.350912 1_555
O15 U4 2.302926 1_555
O15 U5 2.323010 1_554
O15 U2 2.343465 1_655
O15 U2 2.343465 1_565
O16 U7 2.302926 1_555
O16 U6 2.323010 1_556
O16 U3 2.343465 1_545
O16 U3 2.343465 1_455
O17 U2 2.342067 1_555
O17 U5 2.342468 1_454
O17 U5 2.342468 1_544
O17 U6 2.365502 1_555
O18 Zr1 2.254355 1_555
O18 U3 2.346986 1_555
O18 U6 2.348210 1_565
O18 U6 2.348210 1_655
O19 Zr1 2.300665 1_455
O19 Zr1 2.300665 1_545
O19 U6 2.341083 1_555
O19 U7 2.360350 1_554
