# generated using pymatgen
data_HfMo2
_symmetry_space_group_name_H-M   'P 1'
_cell_length_a   14.39233369
_cell_length_b   13.94498565
_cell_length_c   5.79773405
_cell_angle_alpha   82.56033524
_cell_angle_beta   73.89625727
_cell_angle_gamma   23.54340749
_symmetry_Int_Tables_number   1
_chemical_formula_structural   HfMo2
_chemical_formula_sum   'Hf8 Mo16'
_cell_volume   422.28460138
_cell_formula_units_Z   8
loop_
 _symmetry_equiv_pos_site_id
 _symmetry_equiv_pos_as_xyz
  1  'x, y, z'
loop_
 _atom_site_type_symbol
 _atom_site_label
 _atom_site_symmetry_multiplicity
 _atom_site_fract_x
 _atom_site_fract_y
 _atom_site_fract_z
 _atom_site_occupancy
  Hf  Hf0_0  1  0.00000000  0.00000000  0.00000000  1
  Hf  Hf0_1  1  0.00000000  0.00000000  0.50000000  1
  Hf  Hf0_2  1  0.00000000  0.50000000  0.00000000  1
  Hf  Hf0_3  1  0.00000000  0.50000000  0.50000000  1
  Hf  Hf0_4  1  0.50000000  0.00000000  0.00000000  1
  Hf  Hf0_5  1  0.50000000  0.00000000  0.50000000  1
  Hf  Hf0_6  1  0.50000000  0.50000000  1.00000000  1
  Hf  Hf0_7  1  0.50000000  0.50000000  0.50000000  1
  Mo  Mo0_0  1  0.16275350  0.16275350  0.33724650  1
  Mo  Mo0_1  1  0.16275350  0.16275350  0.83724650  1
  Mo  Mo0_2  1  0.16275350  0.66275350  0.33724650  1
  Mo  Mo0_3  1  0.16275350  0.66275350  0.83724650  1
  Mo  Mo0_4  1  0.66275350  0.16275350  0.33724650  1
  Mo  Mo0_5  1  0.66275350  0.16275350  0.83724650  1
  Mo  Mo0_6  1  0.66275350  0.66275350  0.33724650  1
  Mo  Mo0_7  1  0.66275350  0.66275350  0.83724650  1
  Mo  Mo1_0  1  0.33724650  0.33724650  0.16275350  1
  Mo  Mo1_1  1  0.33724650  0.33724650  0.66275350  1
  Mo  Mo1_2  1  0.33724650  0.83724650  0.16275350  1
  Mo  Mo1_3  1  0.33724650  0.83724650  0.66275350  1
  Mo  Mo1_4  1  0.83724650  0.33724650  0.16275350  1
  Mo  Mo1_5  1  0.83724650  0.33724650  0.66275350  1
  Mo  Mo1_6  1  0.83724650  0.83724650  0.16275350  1
  Mo  Mo1_7  1  0.83724650  0.83724650  0.66275350  1
loop_
_geom_bond_atom_site_label_1
_geom_bond_atom_site_label_2
_geom_bond_distance
_geom_bond_site_symmetry_2
Hf0_0 Mo1_4 2.866941 1_455
Hf0_0 Mo0_4 2.866941 1_455
Hf0_0 Mo0_3 2.866941 1_544
Hf0_0 Mo1_3 2.866941 1_544
Hf0_0 Hf0_6 2.898867 1_544
Hf0_0 Hf0_1 2.898867 1_554
Hf0_0 Hf0_6 2.898867 1_454
Hf0_0 Hf0_1 2.898867 1_555
Hf0_1 Mo0_5 2.866941 1_455
Hf0_1 Mo1_5 2.866941 1_455
Hf0_1 Mo1_2 2.866941 1_545
Hf0_1 Mo0_2 2.866941 1_545
Hf0_1 Hf0_7 2.898867 1_455
Hf0_1 Hf0_7 2.898867 1_545
Hf0_2 Mo0_1 2.866941 1_554
Hf0_2 Mo0_6 2.866941 1_455
Hf0_2 Mo1_1 2.866941 1_554
Hf0_2 Mo1_6 2.866941 1_455
Hf0_2 Hf0_3 2.898867 1_555
Hf0_2 Hf0_4 2.898867 1_555
Hf0_2 Hf0_4 2.898867 1_465
Hf0_2 Hf0_3 2.898867 1_554
Hf0_3 Mo0_7 2.866941 1_455
Hf0_3 Mo1_0 2.866941 1_555
Hf0_3 Mo0_0 2.866941 1_555
Hf0_3 Mo1_7 2.866941 1_455
Hf0_3 Hf0_5 2.898867 1_555
Hf0_3 Hf0_5 2.898867 1_465
Hf0_4 Mo0_7 2.866941 1_544
Hf0_4 Mo0_0 2.866941 1_555
Hf0_4 Mo1_0 2.866941 1_555
Hf0_4 Mo1_7 2.866941 1_544
Hf0_4 Hf0_5 2.898867 1_554
Hf0_4 Hf0_5 2.898867 1_555
Hf0_5 Mo0_1 2.866941 1_555
Hf0_5 Mo0_6 2.866941 1_545
Hf0_5 Mo1_1 2.866941 1_555
Hf0_5 Mo1_6 2.866941 1_545
Hf0_6 Mo0_5 2.866941 1_555
Hf0_6 Mo0_2 2.866941 1_556
Hf0_6 Mo1_2 2.866941 1_556
Hf0_6 Mo1_5 2.866941 1_555
Hf0_6 Hf0_7 2.898867 1_555
Hf0_6 Hf0_7 2.898867 1_556
Hf0_7 Mo1_3 2.866941 1_555
Hf0_7 Mo1_4 2.866941 1_555
Hf0_7 Mo0_3 2.866941 1_555
Hf0_7 Mo0_4 2.866941 1_555
Mo0_0 Mo1_5 2.610203 1_455
Mo0_0 Mo1_2 2.610203 1_545
Mo0_0 Mo0_6 2.898867 1_455
Mo0_0 Mo0_1 2.898867 1_555
Mo0_0 Mo0_1 2.898867 1_554
Mo0_0 Mo0_6 2.898867 1_545
Mo0_1 Mo1_4 2.610203 1_456
Mo0_1 Mo1_3 2.610203 1_545
Mo0_1 Mo0_7 2.898867 1_455
Mo0_1 Mo0_7 2.898867 1_545
Mo0_2 Mo1_0 2.610203 1_555
Mo0_2 Mo1_7 2.610203 1_455
Mo0_2 Mo0_3 2.898867 1_555
Mo0_2 Mo0_4 2.898867 1_555
Mo0_2 Mo0_4 2.898867 1_465
Mo0_2 Mo0_3 2.898867 1_554
Mo0_3 Mo1_1 2.610203 1_555
Mo0_3 Mo1_6 2.610203 1_456
Mo0_3 Mo0_5 2.898867 1_465
Mo0_3 Mo0_5 2.898867 1_555
Mo0_4 Mo1_6 2.610203 1_545
Mo0_4 Mo1_1 2.610203 1_555
Mo0_4 Mo0_5 2.898867 1_554
Mo0_4 Mo0_5 2.898867 1_555
Mo0_5 Mo1_0 2.610203 1_556
Mo0_5 Mo1_7 2.610203 1_545
Mo0_6 Mo1_4 2.610203 1_555
Mo0_6 Mo1_3 2.610203 1_555
Mo0_6 Mo0_7 2.898867 1_554
Mo0_6 Mo0_7 2.898867 1_555
Mo0_7 Mo1_2 2.610203 1_556
Mo0_7 Mo1_5 2.610203 1_555
Mo1_0 Mo1_1 2.898867 1_554
Mo1_0 Mo1_1 2.898867 1_555
Mo1_0 Mo1_6 2.898867 1_455
Mo1_0 Mo1_6 2.898867 1_545
Mo1_1 Mo1_7 2.898867 1_455
Mo1_1 Mo1_7 2.898867 1_545
Mo1_2 Mo1_4 2.898867 1_555
Mo1_2 Mo1_3 2.898867 1_555
Mo1_2 Mo1_3 2.898867 1_554
Mo1_2 Mo1_4 2.898867 1_465
Mo1_3 Mo1_5 2.898867 1_465
Mo1_3 Mo1_5 2.898867 1_555
Mo1_4 Mo1_5 2.898867 1_554
Mo1_4 Mo1_5 2.898867 1_555
Mo1_6 Mo1_7 2.898867 1_554
Mo1_6 Mo1_7 2.898867 1_555
