# generated using pymatgen
data_Ho2MgNi2
_symmetry_space_group_name_H-M   'P 1'
_cell_length_a   7.28967287
_cell_length_b   7.28967287
_cell_length_c   3.67884813
_cell_angle_alpha   90.00000000
_cell_angle_beta   90.00000000
_cell_angle_gamma   90.00000000
_symmetry_Int_Tables_number   1
_chemical_formula_structural   Ho2MgNi2
_chemical_formula_sum   'Ho4 Mg2 Ni4'
_cell_volume   195.49152683
_cell_formula_units_Z   2
loop_
 _symmetry_equiv_pos_site_id
 _symmetry_equiv_pos_as_xyz
  1  'x, y, z'
loop_
 _atom_site_type_symbol
 _atom_site_label
 _atom_site_symmetry_multiplicity
 _atom_site_fract_x
 _atom_site_fract_y
 _atom_site_fract_z
 _atom_site_occupancy
  Ho  Ho0  1  0.67034317  0.17034317  0.50000000  1
  Ho  Ho1  1  0.32965683  0.82965683  0.50000000  1
  Ho  Ho2  1  0.17034317  0.32965683  0.50000000  1
  Ho  Ho3  1  0.82965683  0.67034317  0.50000000  1
  Mg  Mg0  1  -0.00000000  0.00000000  0.00000000  1
  Mg  Mg1  1  0.50000000  0.50000000  0.00000000  1
  Ni  Ni0  1  0.12129314  0.62129314  0.00000000  1
  Ni  Ni1  1  0.87870686  0.37870686  -0.00000000  1
  Ni  Ni2  1  0.62129314  0.87870686  -0.00000000  1
  Ni  Ni3  1  0.37870686  0.12129314  0.00000000  1
loop_
_geom_bond_atom_site_label_1
_geom_bond_atom_site_label_2
_geom_bond_distance
_geom_bond_site_symmetry_2
Ho0 Ni1 2.828005 1_556
Ho0 Ni1 2.828005 1_555
Ho0 Ni3 2.833888 1_556
Ho0 Ni2 2.833888 1_545
Ho0 Ni3 2.833888 1_555
Ho0 Ni2 2.833888 1_546
Ho0 Mg1 3.271125 1_555
Ho0 Mg0 3.271125 1_656
Ho0 Mg1 3.271125 1_556
Ho0 Mg0 3.271125 1_655
Ho1 Ni0 2.828005 1_556
Ho1 Ni0 2.828005 1_555
Ho1 Ni3 2.833888 1_565
Ho1 Ni2 2.833888 1_555
Ho1 Ni3 2.833888 1_566
Ho1 Ni2 2.833888 1_556
Ho1 Mg1 3.271125 1_555
Ho1 Mg0 3.271125 1_566
Ho1 Mg1 3.271125 1_556
Ho1 Mg0 3.271125 1_565
Ho2 Ni3 2.828005 1_555
Ho2 Ni3 2.828005 1_556
Ho2 Ni0 2.833888 1_556
Ho2 Ni0 2.833888 1_555
Ho2 Ni1 2.833888 1_455
Ho2 Ni1 2.833888 1_456
Ho2 Mg1 3.271125 1_555
Ho2 Mg0 3.271125 1_555
Ho2 Mg0 3.271125 1_556
Ho2 Mg1 3.271125 1_556
Ho3 Ni2 2.828005 1_556
Ho3 Ni2 2.828005 1_555
Ho3 Ni0 2.833888 1_655
Ho3 Ni0 2.833888 1_656
Ho3 Ni1 2.833888 1_556
Ho3 Ni1 2.833888 1_555
Ho3 Mg1 3.271125 1_555
Ho3 Mg1 3.271125 1_556
Ho3 Mg0 3.271125 1_666
Ho3 Mg0 3.271125 1_665
Mg0 Ni3 2.898788 1_555
Mg0 Ni2 2.898788 1_445
Mg0 Ni0 2.898788 1_545
Mg0 Ni1 2.898788 1_455
Mg1 Ni3 2.898788 1_555
Mg1 Ni1 2.898788 1_555
Mg1 Ni2 2.898788 1_555
Mg1 Ni0 2.898788 1_555
Ni0 Ni1 2.500859 1_455
Ni2 Ni3 2.500859 1_565
