# generated using pymatgen
data_Li7Mn2(CoO4)3
_symmetry_space_group_name_H-M   'P 1'
_cell_length_a   3.02514300
_cell_length_b   5.12626341
_cell_length_c   14.78702271
_cell_angle_alpha   95.66667646
_cell_angle_beta   94.09715513
_cell_angle_gamma   104.18838722
_symmetry_Int_Tables_number   1
_chemical_formula_structural   Li7Mn2(CoO4)3
_chemical_formula_sum   'Li7 Mn2 Co3 O12'
_cell_volume   220.14082855
_cell_formula_units_Z   1
loop_
 _symmetry_equiv_pos_site_id
 _symmetry_equiv_pos_as_xyz
  1  'x, y, z'
loop_
 _atom_site_type_symbol
 _atom_site_label
 _atom_site_symmetry_multiplicity
 _atom_site_fract_x
 _atom_site_fract_y
 _atom_site_fract_z
 _atom_site_occupancy
  Li  Li0  1  0.00649100  0.24662300  0.75262900  1
  Li  Li1  1  0.66635300  0.40937900  0.91570100  1
  Li  Li2  1  0.33364700  0.59062100  0.08429900  1
  Li  Li3  1  0.99350900  0.75337700  0.24737100  1
  Li  Li4  1  0.66441200  0.91319500  0.41849200  1
  Li  Li5  1  0.33558800  0.08680500  0.58150800  1
  Li  Li6  1  0.00000000  0.00000000  0.00000000  1
  Mn  Mn0  1  0.66379700  0.66865400  0.66942400  1
  Mn  Mn1  1  0.33620300  0.33134600  0.33057600  1
  Co  Co0  1  0.34980000  0.83919800  0.84185400  1
  Co  Co1  1  0.65020000  0.16080200  0.15814600  1
  Co  Co2  1  0.00000000  0.50000000  0.50000000  1
  O  O0  1  0.35520100  0.94033800  0.71797600  1
  O  O1  1  0.01691200  0.09570300  0.87252100  1
  O  O2  1  0.67413000  0.29032300  0.05398500  1
  O  O3  1  0.34723100  0.43794100  0.20926600  1
  O  O4  1  0.03500800  0.61352500  0.37871100  1
  O  O5  1  0.64084800  0.77308200  0.54577400  1
  O  O6  1  0.65276900  0.56205900  0.79073400  1
  O  O7  1  0.32587000  0.70967700  0.94601500  1
  O  O8  1  0.98308800  0.90429700  0.12747900  1
  O  O9  1  0.64479900  0.05966200  0.28202400  1
  O  O10  1  0.35915200  0.22691800  0.45422600  1
  O  O11  1  0.96499200  0.38647500  0.62128900  1
loop_
_geom_bond_atom_site_label_1
_geom_bond_atom_site_label_2
_geom_bond_distance
_geom_bond_site_symmetry_2
Li0 O1 2.004333 1_555
Li0 O0 2.137965 1_545
Li0 O11 2.141456 1_455
Li0 O0 2.188608 1_445
Li0 O6 2.198109 1_455
Li0 O6 2.206225 1_555
Li1 O6 2.078342 1_555
Li1 O7 2.082937 1_555
Li1 O7 2.186679 1_655
Li1 O2 2.191094 1_556
Li1 O1 2.201795 1_655
Li1 O1 2.218666 1_555
Li2 O3 2.078342 1_555
Li2 O2 2.082937 1_555
Li2 O2 2.186679 1_455
Li2 O7 2.191094 1_554
Li2 O8 2.201795 1_455
Li2 O8 2.218666 1_555
Li3 O8 2.004333 1_555
Li3 O9 2.137965 1_565
Li3 O4 2.141456 1_655
Li3 O9 2.188608 1_665
Li3 O3 2.198109 1_655
Li3 O3 2.206225 1_555
Li4 O5 2.079518 1_555
Li4 O10 2.085262 1_565
Li4 O4 2.135153 1_555
Li4 O4 2.173209 1_655
Li4 O9 2.223365 1_565
Li4 O10 2.302007 1_665
Li5 O10 2.079518 1_555
Li5 O5 2.085262 1_545
Li5 O11 2.135153 1_555
Li5 O11 2.173209 1_455
Li5 O0 2.223365 1_545
Li5 O5 2.302007 1_445
Li6 O8 1.995186 1_445
Li6 O1 1.995186 1_554
Li6 O2 2.102633 1_455
Li6 O7 2.102633 1_544
Li6 O2 2.248553 1_555
Li6 O7 2.248553 1_444
Mn0 O6 1.926307 1_555
Mn0 O5 1.956495 1_555
Mn0 O0 1.965277 1_555
Mn0 O11 1.991162 1_555
Mn0 O0 2.233792 1_655
Mn0 O11 2.269489 1_455
Mn1 O3 1.926307 1_555
Mn1 O10 1.956495 1_555
Mn1 O9 1.965277 1_555
Mn1 O4 1.991162 1_555
Mn1 O9 2.233792 1_455
Mn1 O4 2.269489 1_655
Co0 O7 1.735719 1_555
Co0 O1 1.882919 1_565
Co0 O0 1.952485 1_555
Co0 O6 1.988721 1_555
Co0 O1 2.111398 1_665
Co0 O6 2.264428 1_455
Co1 O2 1.735719 1_555
Co1 O8 1.882919 1_545
Co1 O9 1.952485 1_555
Co1 O3 1.988721 1_555
Co1 O8 2.111398 1_445
Co1 O3 2.264428 1_655
Co2 O11 1.941544 1_455
Co2 O4 1.941544 1_555
Co2 O5 2.064427 1_455
Co2 O10 2.064427 1_555
Co2 O5 2.114516 1_555
Co2 O10 2.114516 1_455
