# generated using pymatgen
data_SiO2
_symmetry_space_group_name_H-M   'P 1'
_cell_length_a   13.46884104
_cell_length_b   13.46884104
_cell_length_c   13.46884104
_cell_angle_alpha   109.47122063
_cell_angle_beta   109.47122063
_cell_angle_gamma   109.47122063
_symmetry_Int_Tables_number   1
_chemical_formula_structural   SiO2
_chemical_formula_sum   'Si48 O96'
_cell_volume   1880.91336063
_cell_formula_units_Z   48
loop_
 _symmetry_equiv_pos_site_id
 _symmetry_equiv_pos_as_xyz
  1  'x, y, z'
loop_
 _atom_site_type_symbol
 _atom_site_label
 _atom_site_symmetry_multiplicity
 _atom_site_fract_x
 _atom_site_fract_y
 _atom_site_fract_z
 _atom_site_occupancy
  Si  Si0  1  0.43621600  0.26584000  0.87510800  1
  Si  Si1  1  0.60926800  0.23416000  0.67037600  1
  Si  Si2  1  0.89073200  0.56110800  0.62489200  1
  Si  Si3  1  0.06378400  0.93889200  0.82962400  1
  Si  Si4  1  0.87510800  0.43621600  0.26584000  1
  Si  Si5  1  0.67037600  0.60926800  0.23416000  1
  Si  Si6  1  0.62489200  0.89073200  0.56110800  1
  Si  Si7  1  0.82962400  0.06378400  0.93889200  1
  Si  Si8  1  0.26584000  0.87510800  0.43621600  1
  Si  Si9  1  0.23416000  0.67037600  0.60926800  1
  Si  Si10  1  0.56110800  0.62489200  0.89073200  1
  Si  Si11  1  0.93889200  0.82962400  0.06378400  1
  Si  Si12  1  0.56378400  0.73416000  0.12489200  1
  Si  Si13  1  0.39073200  0.76584000  0.32962400  1
  Si  Si14  1  0.10926800  0.43889200  0.37510800  1
  Si  Si15  1  0.93621600  0.06110800  0.17037600  1
  Si  Si16  1  0.12489200  0.56378400  0.73416000  1
  Si  Si17  1  0.32962400  0.39073200  0.76584000  1
  Si  Si18  1  0.37510800  0.10926800  0.43889200  1
  Si  Si19  1  0.17037600  0.93621600  0.06110800  1
  Si  Si20  1  0.73416000  0.12489200  0.56378400  1
  Si  Si21  1  0.76584000  0.32962400  0.39073200  1
  Si  Si22  1  0.43889200  0.37510800  0.10926800  1
  Si  Si23  1  0.06110800  0.17037600  0.93621600  1
  Si  Si24  1  0.06378400  0.62489200  0.23416000  1
  Si  Si25  1  0.60926800  0.87510800  0.93889200  1
  Si  Si26  1  0.89073200  0.82962400  0.26584000  1
  Si  Si27  1  0.43621600  0.67037600  0.56110800  1
  Si  Si28  1  0.23416000  0.06378400  0.62489200  1
  Si  Si29  1  0.93889200  0.60926800  0.87510800  1
  Si  Si30  1  0.26584000  0.89073200  0.82962400  1
  Si  Si31  1  0.56110800  0.43621600  0.67037600  1
  Si  Si32  1  0.62489200  0.23416000  0.06378400  1
  Si  Si33  1  0.87510800  0.93889200  0.60926800  1
  Si  Si34  1  0.82962400  0.26584000  0.89073200  1
  Si  Si35  1  0.67037600  0.56110800  0.43621600  1
  Si  Si36  1  0.93621600  0.37510800  0.76584000  1
  Si  Si37  1  0.39073200  0.12489200  0.06110800  1
  Si  Si38  1  0.10926800  0.17037600  0.73416000  1
  Si  Si39  1  0.56378400  0.32962400  0.43889200  1
  Si  Si40  1  0.76584000  0.93621600  0.37510800  1
  Si  Si41  1  0.06110800  0.39073200  0.12489200  1
  Si  Si42  1  0.73416000  0.10926800  0.17037600  1
  Si  Si43  1  0.43889200  0.56378400  0.32962400  1
  Si  Si44  1  0.37510800  0.76584000  0.93621600  1
  Si  Si45  1  0.12489200  0.06110800  0.39073200  1
  Si  Si46  1  0.17037600  0.73416000  0.10926800  1
  Si  Si47  1  0.32962400  0.43889200  0.56378400  1
  O  O0  1  0.37630600  0.31180700  0.95831200  1
  O  O1  1  0.64650600  0.18819300  0.56449900  1
  O  O2  1  0.85349400  0.41799300  0.54168800  1
  O  O3  1  0.12369400  0.08200700  0.93550100  1
  O  O4  1  0.95831200  0.37630600  0.31180700  1
  O  O5  1  0.56449900  0.64650600  0.18819300  1
  O  O6  1  0.54168800  0.85349400  0.41799300  1
  O  O7  1  0.93550100  0.12369400  0.08200700  1
  O  O8  1  0.31180700  0.95831200  0.37630600  1
  O  O9  1  0.18819300  0.56449900  0.64650600  1
  O  O10  1  0.41799300  0.54168800  0.85349400  1
  O  O11  1  0.08200700  0.93550100  0.12369400  1
  O  O12  1  0.62369400  0.68819300  0.04168800  1
  O  O13  1  0.35349400  0.81180700  0.43550100  1
  O  O14  1  0.14650600  0.58200700  0.45831200  1
  O  O15  1  0.87630600  0.91799300  0.06449900  1
  O  O16  1  0.04168800  0.62369400  0.68819300  1
  O  O17  1  0.43550100  0.35349400  0.81180700  1
  O  O18  1  0.45831200  0.14650600  0.58200700  1
  O  O19  1  0.06449900  0.87630600  0.91799300  1
  O  O20  1  0.68819300  0.04168800  0.62369400  1
  O  O21  1  0.81180700  0.43550100  0.35349400  1
  O  O22  1  0.58200700  0.45831200  0.14650600  1
  O  O23  1  0.91799300  0.06449900  0.87630600  1
  O  O24  1  0.12369400  0.54168800  0.18819300  1
  O  O25  1  0.64650600  0.95831200  0.08200700  1
  O  O26  1  0.85349400  0.93550100  0.31180700  1
  O  O27  1  0.37630600  0.56449900  0.41799300  1
  O  O28  1  0.18819300  0.12369400  0.54168800  1
  O  O29  1  0.08200700  0.64650600  0.95831200  1
  O  O30  1  0.31180700  0.85349400  0.93550100  1
  O  O31  1  0.41799300  0.37630600  0.56449900  1
  O  O32  1  0.54168800  0.18819300  0.12369400  1
  O  O33  1  0.95831200  0.08200700  0.64650600  1
  O  O34  1  0.93550100  0.31180700  0.85349400  1
  O  O35  1  0.56449900  0.41799300  0.37630600  1
  O  O36  1  0.87630600  0.45831200  0.81180700  1
  O  O37  1  0.35349400  0.04168800  0.91799300  1
  O  O38  1  0.14650600  0.06449900  0.68819300  1
  O  O39  1  0.62369400  0.43550100  0.58200700  1
  O  O40  1  0.81180700  0.87630600  0.45831200  1
  O  O41  1  0.91799300  0.35349400  0.04168800  1
  O  O42  1  0.68819300  0.14650600  0.06449900  1
  O  O43  1  0.58200700  0.62369400  0.43550100  1
  O  O44  1  0.45831200  0.81180700  0.87630600  1
  O  O45  1  0.04168800  0.91799300  0.35349400  1
  O  O46  1  0.06449900  0.68819300  0.14650600  1
  O  O47  1  0.43550100  0.58200700  0.62369400  1
  O  O48  1  0.36351400  0.13648600  0.75000000  1
  O  O49  1  0.61351400  0.36351400  0.72702800  1
  O  O50  1  0.88648600  0.61351400  0.75000000  1
  O  O51  1  0.13648600  0.88648600  0.77297200  1
  O  O52  1  0.75000000  0.36351400  0.13648600  1
  O  O53  1  0.72702800  0.61351400  0.36351400  1
  O  O54  1  0.75000000  0.88648600  0.61351400  1
  O  O55  1  0.77297200  0.13648600  0.88648600  1
  O  O56  1  0.13648600  0.75000000  0.36351400  1
  O  O57  1  0.36351400  0.72702800  0.61351400  1
  O  O58  1  0.61351400  0.75000000  0.88648600  1
  O  O59  1  0.88648600  0.77297200  0.13648600  1
  O  O60  1  0.63648600  0.86351400  0.25000000  1
  O  O61  1  0.38648600  0.63648600  0.27297200  1
  O  O62  1  0.11351400  0.38648600  0.25000000  1
  O  O63  1  0.86351400  0.11351400  0.22702800  1
  O  O64  1  0.25000000  0.63648600  0.86351400  1
  O  O65  1  0.27297200  0.38648600  0.63648600  1
  O  O66  1  0.25000000  0.11351400  0.38648600  1
  O  O67  1  0.22702800  0.86351400  0.11351400  1
  O  O68  1  0.86351400  0.25000000  0.63648600  1
  O  O69  1  0.63648600  0.27297200  0.38648600  1
  O  O70  1  0.38648600  0.25000000  0.11351400  1
  O  O71  1  0.11351400  0.22702800  0.86351400  1
  O  O72  1  0.54847300  0.25000000  0.95152700  1
  O  O73  1  0.70152700  0.25000000  0.79847300  1
  O  O74  1  0.79847300  0.59694600  0.54847300  1
  O  O75  1  0.95152700  0.90305400  0.70152700  1
  O  O76  1  0.95152700  0.54847300  0.25000000  1
  O  O77  1  0.79847300  0.70152700  0.25000000  1
  O  O78  1  0.54847300  0.79847300  0.59694600  1
  O  O79  1  0.70152700  0.95152700  0.90305400  1
  O  O80  1  0.25000000  0.95152700  0.54847300  1
  O  O81  1  0.25000000  0.79847300  0.70152700  1
  O  O82  1  0.59694600  0.54847300  0.79847300  1
  O  O83  1  0.90305400  0.70152700  0.95152700  1
  O  O84  1  0.45152700  0.75000000  0.04847300  1
  O  O85  1  0.29847300  0.75000000  0.20152700  1
  O  O86  1  0.20152700  0.40305400  0.45152700  1
  O  O87  1  0.04847300  0.09694600  0.29847300  1
  O  O88  1  0.04847300  0.45152700  0.75000000  1
  O  O89  1  0.20152700  0.29847300  0.75000000  1
  O  O90  1  0.45152700  0.20152700  0.40305400  1
  O  O91  1  0.29847300  0.04847300  0.09694600  1
  O  O92  1  0.75000000  0.04847300  0.45152700  1
  O  O93  1  0.75000000  0.20152700  0.29847300  1
  O  O94  1  0.40305400  0.45152700  0.20152700  1
  O  O95  1  0.09694600  0.29847300  0.04847300  1
loop_
_geom_bond_atom_site_label_1
_geom_bond_atom_site_label_2
_geom_bond_distance
_geom_bond_site_symmetry_2
O0 Si0 1.662429 1_555
O0 Si22 1.671528 1_556
O1 Si1 1.662438 1_555
O1 Si20 1.671516 1_555
O2 Si2 1.662436 1_555
O2 Si21 1.671526 1_555
O3 Si3 1.662438 1_545
O3 Si23 1.671516 1_555
O4 Si4 1.662429 1_555
O4 Si14 1.671528 1_655
O5 Si5 1.662438 1_555
O5 Si12 1.671516 1_555
O6 Si6 1.662436 1_555
O6 Si13 1.671526 1_555
O7 Si7 1.662438 1_554
O7 Si15 1.671516 1_555
O8 Si8 1.662429 1_555
O8 Si18 1.671528 1_565
O9 Si9 1.662438 1_555
O9 Si16 1.671516 1_555
O10 Si10 1.662436 1_555
O10 Si17 1.671526 1_555
O11 Si11 1.662438 1_455
O11 Si19 1.671516 1_555
O12 Si12 1.662429 1_555
O12 Si10 1.671528 1_554
O13 Si13 1.662438 1_555
O13 Si8 1.671516 1_555
O14 Si14 1.662436 1_555
O14 Si9 1.671526 1_555
O15 Si15 1.662438 1_565
O15 Si11 1.671516 1_555
O16 Si16 1.662429 1_555
O16 Si2 1.671528 1_455
O17 Si17 1.662438 1_555
O17 Si0 1.671516 1_555
O18 Si18 1.662436 1_555
O18 Si1 1.671526 1_555
O19 Si19 1.662438 1_556
O19 Si3 1.671516 1_555
O20 Si20 1.662429 1_555
O20 Si6 1.671528 1_545
O21 Si21 1.662438 1_555
O21 Si4 1.671516 1_555
O22 Si22 1.662436 1_555
O22 Si5 1.671526 1_555
O23 Si23 1.662438 1_655
O23 Si7 1.671516 1_555
O24 Si24 1.662429 1_555
O24 Si41 1.671528 1_555
O25 Si25 1.662436 1_554
O25 Si42 1.671526 1_565
O26 Si26 1.662438 1_555
O26 Si40 1.671516 1_555
O27 Si27 1.662438 1_555
O27 Si43 1.671516 1_555
O28 Si28 1.662429 1_555
O28 Si45 1.671528 1_555
O29 Si29 1.662436 1_455
O29 Si46 1.671526 1_556
O30 Si30 1.662438 1_555
O30 Si44 1.671516 1_555
O31 Si31 1.662438 1_555
O31 Si47 1.671516 1_555
O32 Si32 1.662429 1_555
O32 Si37 1.671528 1_555
O33 Si33 1.662436 1_545
O33 Si38 1.671526 1_655
O34 Si34 1.662438 1_555
O34 Si36 1.671516 1_555
O35 Si35 1.662438 1_555
O35 Si39 1.671516 1_555
O36 Si36 1.662429 1_555
O36 Si29 1.671528 1_555
O37 Si37 1.662436 1_556
O37 Si30 1.671526 1_545
O38 Si38 1.662438 1_555
O38 Si28 1.671516 1_555
O39 Si39 1.662438 1_555
O39 Si31 1.671516 1_555
O40 Si40 1.662429 1_555
O40 Si33 1.671528 1_555
O41 Si41 1.662436 1_655
O41 Si34 1.671526 1_554
O42 Si42 1.662438 1_555
O42 Si32 1.671516 1_555
O43 Si43 1.662438 1_555
O43 Si35 1.671516 1_555
O44 Si44 1.662429 1_555
O44 Si25 1.671528 1_555
O45 Si45 1.662436 1_565
O45 Si26 1.671526 1_455
O46 Si46 1.662438 1_555
O46 Si24 1.671516 1_555
O47 Si47 1.662438 1_555
O47 Si27 1.671516 1_555
O48 Si28 1.624544 1_555
O48 Si0 1.624544 1_555
O49 Si31 1.624544 1_555
O49 Si1 1.624544 1_555
O50 Si2 1.624544 1_555
O50 Si29 1.624544 1_555
O51 Si3 1.624544 1_555
O51 Si30 1.624544 1_555
O52 Si32 1.624544 1_555
O52 Si4 1.624544 1_555
O53 Si35 1.624544 1_555
O53 Si5 1.624544 1_555
O54 Si6 1.624544 1_555
O54 Si33 1.624544 1_555
O55 Si7 1.624544 1_555
O55 Si34 1.624544 1_555
O56 Si24 1.624544 1_555
O56 Si8 1.624544 1_555
O57 Si27 1.624544 1_555
O57 Si9 1.624544 1_555
O58 Si10 1.624544 1_555
O58 Si25 1.624544 1_555
O59 Si11 1.624544 1_555
O59 Si26 1.624544 1_555
O60 Si40 1.624544 1_555
O60 Si12 1.624544 1_555
O61 Si13 1.624544 1_555
O61 Si43 1.624544 1_555
O62 Si14 1.624544 1_555
O62 Si41 1.624544 1_555
O63 Si42 1.624544 1_555
O63 Si15 1.624544 1_555
O64 Si16 1.624544 1_555
O64 Si44 1.624544 1_555
O65 Si17 1.624544 1_555
O65 Si47 1.624544 1_555
O66 Si18 1.624544 1_555
O66 Si45 1.624544 1_555
O67 Si46 1.624544 1_555
O67 Si19 1.624544 1_555
O68 Si36 1.624544 1_555
O68 Si20 1.624544 1_555
O69 Si21 1.624544 1_555
O69 Si39 1.624544 1_555
O70 Si22 1.624544 1_555
O70 Si37 1.624544 1_555
O71 Si38 1.624544 1_555
O71 Si23 1.624544 1_555
O72 Si0 1.647707 1_555
O72 Si32 1.647707 1_556
O73 Si34 1.647707 1_555
O73 Si1 1.647707 1_555
O74 Si2 1.647707 1_555
O74 Si35 1.647707 1_555
O75 Si33 1.647707 1_555
O75 Si3 1.647707 1_655
O76 Si4 1.647707 1_555
O76 Si24 1.647707 1_655
O77 Si5 1.647707 1_555
O77 Si26 1.647707 1_555
O78 Si6 1.647707 1_555
O78 Si27 1.647707 1_555
O79 Si25 1.647707 1_555
O79 Si7 1.647707 1_565
O80 Si8 1.647707 1_555
O80 Si28 1.647707 1_565
O81 Si30 1.647707 1_555
O81 Si9 1.647707 1_555
O82 Si10 1.647707 1_555
O82 Si31 1.647707 1_555
O83 Si29 1.647707 1_555
O83 Si11 1.647707 1_556
O84 Si12 1.647707 1_555
O84 Si44 1.647707 1_554
O85 Si13 1.647707 1_555
O85 Si46 1.647707 1_555
O86 Si47 1.647707 1_555
O86 Si14 1.647707 1_555
O87 Si15 1.647707 1_455
O87 Si45 1.647707 1_555
O88 Si16 1.647707 1_555
O88 Si36 1.647707 1_455
O89 Si17 1.647707 1_555
O89 Si38 1.647707 1_555
O90 Si39 1.647707 1_555
O90 Si18 1.647707 1_555
O91 Si19 1.647707 1_545
O91 Si37 1.647707 1_555
O92 Si20 1.647707 1_555
O92 Si40 1.647707 1_545
O93 Si21 1.647707 1_555
O93 Si42 1.647707 1_555
O94 Si43 1.647707 1_555
O94 Si22 1.647707 1_555
O95 Si23 1.647707 1_554
O95 Si41 1.647707 1_555
