# generated using pymatgen
data_EuIn2(GeIr)4
_symmetry_space_group_name_H-M   'P 1'
_cell_length_a   6.63908276
_cell_length_b   6.63908276
_cell_length_c   6.63908276
_cell_angle_alpha   116.23124229
_cell_angle_beta   116.23124229
_cell_angle_gamma   96.66187854
_symmetry_Int_Tables_number   1
_chemical_formula_structural   EuIn2(GeIr)4
_chemical_formula_sum   'Eu1 In2 Ge4 Ir4'
_cell_volume   217.12058435
_cell_formula_units_Z   1
loop_
 _symmetry_equiv_pos_site_id
 _symmetry_equiv_pos_as_xyz
  1  'x, y, z'
loop_
 _atom_site_type_symbol
 _atom_site_label
 _atom_site_symmetry_multiplicity
 _atom_site_fract_x
 _atom_site_fract_y
 _atom_site_fract_z
 _atom_site_occupancy
  Eu  Eu0  1  0.00000000  0.00000000  0.00000000  1
  In  In0  1  0.50000000  0.00000000  0.50000000  1
  In  In1  1  0.00000000  0.50000000  0.50000000  1
  Ge  Ge0  1  0.12297600  0.12297600  0.63466800  1
  Ge  Ge1  1  0.48830800  0.48830800  0.36533200  1
  Ge  Ge2  1  0.51169200  0.87702400  0.00000000  1
  Ge  Ge3  1  0.87702400  0.51169200  0.00000000  1
  Ir  Ir0  1  0.55558500  0.24047600  0.00000000  1
  Ir  Ir1  1  0.24047600  0.55558500  0.00000000  1
  Ir  Ir2  1  0.75952400  0.75952400  0.31510900  1
  Ir  Ir3  1  0.44441500  0.44441500  0.68489100  1
loop_
_geom_bond_atom_site_label_1
_geom_bond_atom_site_label_2
_geom_bond_distance
_geom_bond_site_symmetry_2
Eu0 Ge1 3.249999 1_555
Eu0 Ge0 3.249999 1_554
Eu0 Ge2 3.249999 1_445
Eu0 Ge3 3.249999 1_445
Eu0 In1 3.506809 1_555
Eu0 In0 3.506809 1_454
Eu0 In0 3.506809 1_555
Eu0 In1 3.506809 1_544
Eu0 Ir2 3.513885 1_444
Eu0 Ir1 3.513885 1_545
Eu0 Ir0 3.513885 1_455
Eu0 Ir3 3.513885 1_555
Eu0 Ge3 3.584809 1_455
Eu0 Ge2 3.584809 1_545
Eu0 Ge0 3.584809 1_555
Eu0 Ge1 3.584809 1_444
In0 Ir1 2.792834 1_545
In0 Ir2 2.792834 1_545
In0 Ir3 2.792834 1_555
In0 Ir0 2.792834 1_556
In1 Ir2 2.792834 1_455
In1 Ir3 2.792834 1_555
In1 Ir0 2.792834 1_455
In1 Ir1 2.792834 1_556
Ge0 Ir2 2.396723 1_445
Ge0 Ir0 2.527849 1_556
Ge0 Ir1 2.527849 1_556
Ge0 Ir3 2.627717 1_555
Ge0 In1 3.088468 1_555
Ge0 In0 3.088468 1_555
Ge1 Ir3 2.396723 1_555
Ge1 Ir0 2.527849 1_555
Ge1 Ir1 2.527849 1_555
Ge1 Ir2 2.627717 1_555
Ge1 In1 3.088468 1_655
Ge1 In0 3.088468 1_565
Ge2 Ir0 2.396723 1_565
Ge2 Ir3 2.527849 1_554
Ge2 Ir2 2.527849 1_555
Ge2 Ir1 2.627717 1_555
Ge2 In0 3.088468 1_565
Ge2 In1 3.088468 1_554
Ge3 Ir1 2.396723 1_655
Ge3 Ir3 2.527849 1_554
Ge3 Ir2 2.527849 1_555
Ge3 Ir0 2.627717 1_555
Ge3 In1 3.088468 1_655
Ge3 In0 3.088468 1_554
