# generated using pymatgen
data_NaHfMg30O31
_symmetry_space_group_name_H-M   'P 1'
_cell_length_a   8.58045100
_cell_length_b   8.61402300
_cell_length_c   8.61591400
_cell_angle_alpha   90.00000000
_cell_angle_beta   90.00000000
_cell_angle_gamma   90.00000000
_symmetry_Int_Tables_number   1
_chemical_formula_structural   NaHfMg30O31
_chemical_formula_sum   'Na1 Hf1 Mg30 O31'
_cell_volume   636.82117826
_cell_formula_units_Z   1
loop_
 _symmetry_equiv_pos_site_id
 _symmetry_equiv_pos_as_xyz
  1  'x, y, z'
loop_
 _atom_site_type_symbol
 _atom_site_label
 _atom_site_symmetry_multiplicity
 _atom_site_fract_x
 _atom_site_fract_y
 _atom_site_fract_z
 _atom_site_occupancy
  Na  Na0  1  0.99645400  0.00000000  0.00000000  1
  Hf  Hf0  1  0.00033400  0.50000000  0.00000000  1
  Mg  Mg0  1  0.00061400  0.00000000  0.50000000  1
  Mg  Mg1  1  0.00016600  0.50000000  0.50000000  1
  Mg  Mg2  1  0.50192000  0.00000000  0.00000000  1
  Mg  Mg3  1  0.49918400  0.50000000  0.00000000  1
  Mg  Mg4  1  0.49903700  0.00000000  0.50000000  1
  Mg  Mg5  1  0.49987000  0.50000000  0.50000000  1
  Mg  Mg6  1  0.99989600  0.75739200  0.74471400  1
  Mg  Mg7  1  0.99989600  0.24260800  0.74471400  1
  Mg  Mg8  1  0.99989600  0.75739200  0.25528600  1
  Mg  Mg9  1  0.99989600  0.24260800  0.25528600  1
  Mg  Mg10  1  0.49987500  0.75126200  0.74940600  1
  Mg  Mg11  1  0.49987500  0.24873800  0.74940600  1
  Mg  Mg12  1  0.49987500  0.75126200  0.25059400  1
  Mg  Mg13  1  0.49987500  0.24873800  0.25059400  1
  Mg  Mg14  1  0.74381200  0.75459900  0.00000000  1
  Mg  Mg15  1  0.74381200  0.24540100  0.00000000  1
  Mg  Mg16  1  0.74937700  0.75049900  0.50000000  1
  Mg  Mg17  1  0.74937700  0.24950100  0.50000000  1
  Mg  Mg18  1  0.25480600  0.75762100  0.00000000  1
  Mg  Mg19  1  0.25480600  0.24237900  0.00000000  1
  Mg  Mg20  1  0.25058700  0.75123800  0.50000000  1
  Mg  Mg21  1  0.25058700  0.24876200  0.50000000  1
  Mg  Mg22  1  0.74978000  0.00000000  0.74636700  1
  Mg  Mg23  1  0.74620200  0.50000000  0.74555300  1
  Mg  Mg24  1  0.74978000  0.00000000  0.25363300  1
  Mg  Mg25  1  0.74620200  0.50000000  0.25444700  1
  Mg  Mg26  1  0.24921600  0.00000000  0.75077200  1
  Mg  Mg27  1  0.25382900  0.50000000  0.74600200  1
  Mg  Mg28  1  0.24921600  0.00000000  0.24922800  1
  Mg  Mg29  1  0.25382900  0.50000000  0.25399800  1
  O  O0  1  0.74590900  0.50000000  0.00000000  1
  O  O1  1  0.74769000  0.00000000  0.50000000  1
  O  O2  1  0.74945500  0.50000000  0.50000000  1
  O  O3  1  0.26316100  0.00000000  0.00000000  1
  O  O4  1  0.25372200  0.50000000  0.00000000  1
  O  O5  1  0.25173800  0.00000000  0.50000000  1
  O  O6  1  0.25054000  0.50000000  0.50000000  1
  O  O7  1  0.75068400  0.74834500  0.74966900  1
  O  O8  1  0.75068400  0.25165500  0.74966900  1
  O  O9  1  0.75068400  0.74834500  0.25033100  1
  O  O10  1  0.75068400  0.25165500  0.25033100  1
  O  O11  1  0.24899700  0.74946900  0.75089300  1
  O  O12  1  0.24899700  0.25053100  0.75089300  1
  O  O13  1  0.24899700  0.74946900  0.24910700  1
  O  O14  1  0.24899700  0.25053100  0.24910700  1
  O  O15  1  0.00019700  0.73856100  0.00000000  1
  O  O16  1  0.00019700  0.26143900  0.00000000  1
  O  O17  1  0.99994300  0.74728200  0.50000000  1
  O  O18  1  0.99994300  0.25271800  0.50000000  1
  O  O19  1  0.49929700  0.74647700  0.00000000  1
  O  O20  1  0.49929700  0.25352300  0.00000000  1
  O  O21  1  0.49989300  0.74909300  0.50000000  1
  O  O22  1  0.49989300  0.25090700  0.50000000  1
  O  O23  1  0.99991700  0.00000000  0.73630200  1
  O  O24  1  0.00004900  0.50000000  0.74647500  1
  O  O25  1  0.99991700  0.00000000  0.26369800  1
  O  O26  1  0.00004900  0.50000000  0.25352500  1
  O  O27  1  0.49939100  0.00000000  0.74718200  1
  O  O28  1  0.49990300  0.50000000  0.74941800  1
  O  O29  1  0.49939100  0.00000000  0.25281800  1
  O  O30  1  0.49990300  0.50000000  0.25058200  1
loop_
_geom_bond_atom_site_label_1
_geom_bond_atom_site_label_2
_geom_bond_distance
_geom_bond_site_symmetry_2
Na0 O16 2.252271 1_655
Na0 O15 2.252271 1_645
Na0 O23 2.272194 1_554
Na0 O25 2.272194 1_555
Na0 O3 2.288466 1_655
Hf0 O16 2.054970 1_555
Hf0 O15 2.054970 1_555
Hf0 O4 2.174183 1_555
Hf0 O0 2.183081 1_455
Hf0 O26 2.184351 1_555
Hf0 O24 2.184351 1_554
Mg0 O23 2.035966 1_455
Mg0 O25 2.035966 1_455
Mg0 O5 2.154757 1_555
Mg0 O1 2.170202 1_455
Mg0 O18 2.176926 1_455
Mg0 O17 2.176926 1_445
Mg1 O26 2.123608 1_555
Mg1 O24 2.123608 1_555
Mg1 O17 2.130094 1_455
Mg1 O18 2.130094 1_455
Mg1 O6 2.148322 1_555
Mg1 O2 2.151213 1_455
Mg2 O3 2.048660 1_555
Mg2 O27 2.178366 1_554
Mg2 O29 2.178366 1_555
Mg2 O20 2.183969 1_555
Mg2 O19 2.183969 1_545
Mg3 O4 2.106175 1_555
Mg3 O0 2.117012 1_555
Mg3 O19 2.123159 1_555
Mg3 O20 2.123159 1_555
Mg3 O28 2.159002 1_554
Mg3 O30 2.159002 1_555
Mg4 O5 2.121937 1_555
Mg4 O29 2.129701 1_555
Mg4 O27 2.129701 1_555
Mg4 O1 2.133555 1_555
Mg4 O21 2.161331 1_545
Mg4 O22 2.161331 1_555
Mg5 O6 2.139364 1_555
Mg5 O2 2.141552 1_555
Mg5 O22 2.145693 1_555
Mg5 O21 2.145693 1_555
Mg5 O30 2.148964 1_555
Mg5 O28 2.148964 1_555
Mg6 O23 2.091087 1_565
Mg6 O17 2.110233 1_555
Mg6 O11 2.139151 1_655
Mg6 O7 2.140197 1_555
Mg6 O15 2.205497 1_656
Mg6 O24 2.217233 1_655
Mg7 O23 2.091087 1_555
Mg7 O18 2.110233 1_555
Mg7 O12 2.139151 1_655
Mg7 O8 2.140197 1_555
Mg7 O16 2.205497 1_656
Mg7 O24 2.217233 1_655
Mg8 O25 2.091087 1_565
Mg8 O17 2.110233 1_555
Mg8 O13 2.139151 1_655
Mg8 O9 2.140197 1_555
Mg8 O15 2.205497 1_655
Mg8 O26 2.217233 1_655
Mg9 O25 2.091087 1_555
Mg9 O18 2.110233 1_555
Mg9 O14 2.139151 1_655
Mg9 O10 2.140197 1_555
Mg9 O16 2.205497 1_655
Mg9 O26 2.217233 1_655
Mg10 O27 2.142725 1_565
Mg10 O21 2.148942 1_555
Mg10 O7 2.152202 1_555
Mg10 O11 2.152740 1_555
Mg10 O19 2.159495 1_556
Mg10 O28 2.164377 1_555
Mg11 O27 2.142725 1_555
Mg11 O22 2.148942 1_555
Mg11 O8 2.152202 1_555
Mg11 O12 2.152740 1_555
Mg11 O20 2.159495 1_556
Mg11 O28 2.164377 1_555
Mg12 O29 2.142725 1_565
Mg12 O21 2.148942 1_555
Mg12 O9 2.152202 1_555
Mg12 O13 2.152740 1_555
Mg12 O19 2.159495 1_555
Mg12 O30 2.164377 1_555
Mg13 O29 2.142725 1_555
Mg13 O22 2.148942 1_555
Mg13 O10 2.152202 1_555
Mg13 O14 2.152740 1_555
Mg13 O20 2.159495 1_555
Mg13 O30 2.164377 1_555
Mg14 O19 2.099215 1_555
Mg14 O7 2.158309 1_554
Mg14 O9 2.158309 1_555
Mg14 O0 2.193195 1_555
Mg14 O15 2.204233 1_655
Mg15 O20 2.099215 1_555
Mg15 O8 2.158309 1_554
Mg15 O10 2.158309 1_555
Mg15 O0 2.193195 1_555
Mg15 O16 2.204233 1_655
Mg16 O21 2.140719 1_555
Mg16 O1 2.149256 1_565
Mg16 O17 2.150148 1_555
Mg16 O9 2.151236 1_555
Mg16 O7 2.151236 1_555
Mg16 O2 2.157804 1_555
Mg17 O22 2.140719 1_555
Mg17 O1 2.149256 1_555
Mg17 O18 2.150148 1_555
Mg17 O10 2.151236 1_555
Mg17 O8 2.151236 1_555
Mg17 O2 2.157804 1_555
Mg18 O3 2.089089 1_565
Mg18 O19 2.100038 1_555
Mg18 O11 2.148011 1_554
Mg18 O13 2.148011 1_555
Mg18 O15 2.190821 1_555
Mg18 O4 2.219173 1_555
Mg19 O3 2.089089 1_555
Mg19 O20 2.100038 1_555
Mg19 O12 2.148011 1_554
Mg19 O14 2.148011 1_555
Mg19 O16 2.190821 1_555
Mg19 O4 2.219173 1_555
Mg20 O21 2.139238 1_555
Mg20 O5 2.142864 1_565
Mg20 O17 2.150909 1_455
Mg20 O13 2.161769 1_555
Mg20 O11 2.161769 1_555
Mg20 O6 2.164170 1_555
Mg21 O22 2.139238 1_555
Mg21 O5 2.142864 1_555
Mg21 O18 2.150909 1_455
Mg21 O12 2.161769 1_555
Mg21 O14 2.161769 1_555
Mg21 O6 2.164170 1_555
Mg22 O1 2.122753 1_555
Mg22 O23 2.148039 1_555
Mg22 O27 2.148462 1_555
Mg22 O7 2.167963 1_545
Mg22 O8 2.167963 1_555
Mg23 O28 2.113619 1_555
Mg23 O2 2.115848 1_555
Mg23 O8 2.139889 1_555
Mg23 O7 2.139889 1_555
Mg23 O24 2.178136 1_655
Mg23 O0 2.192295 1_556
Mg24 O1 2.122753 1_555
Mg24 O25 2.148039 1_555
Mg24 O29 2.148462 1_555
Mg24 O9 2.167963 1_545
Mg24 O10 2.167963 1_555
Mg25 O30 2.113619 1_555
Mg25 O2 2.115848 1_555
Mg25 O10 2.139889 1_555
Mg25 O9 2.139889 1_555
Mg25 O26 2.178136 1_655
Mg25 O0 2.192295 1_555
Mg26 O23 2.142728 1_455
Mg26 O27 2.146837 1_555
Mg26 O3 2.150658 1_556
Mg26 O11 2.158081 1_545
Mg26 O12 2.158081 1_555
Mg26 O5 2.160738 1_555
Mg27 O28 2.111631 1_555
Mg27 O6 2.119720 1_555
Mg27 O12 2.149745 1_555
Mg27 O11 2.149745 1_555
Mg27 O24 2.177551 1_555
Mg27 O4 2.188425 1_556
Mg28 O25 2.142728 1_455
Mg28 O29 2.146837 1_555
Mg28 O3 2.150658 1_555
Mg28 O13 2.158081 1_545
Mg28 O14 2.158081 1_555
Mg28 O5 2.160738 1_555
Mg29 O30 2.111631 1_555
Mg29 O6 2.119720 1_555
Mg29 O14 2.149745 1_555
Mg29 O13 2.149745 1_555
Mg29 O26 2.177551 1_555
Mg29 O4 2.188425 1_555
