# generated using pymatgen
data_Cd2H18C8O17
_symmetry_space_group_name_H-M   'P 1'
_cell_length_a   7.16325768
_cell_length_b   16.32908810
_cell_length_c   16.21997285
_cell_angle_alpha   90.00000000
_cell_angle_beta   90.00000000
_cell_angle_gamma   99.32479834
_symmetry_Int_Tables_number   1
_chemical_formula_structural   Cd2H18C8O17
_chemical_formula_sum   'Cd8 H72 C32 O68'
_cell_volume   1872.17080037
_cell_formula_units_Z   4
loop_
 _symmetry_equiv_pos_site_id
 _symmetry_equiv_pos_as_xyz
  1  'x, y, z'
loop_
 _atom_site_type_symbol
 _atom_site_label
 _atom_site_symmetry_multiplicity
 _atom_site_fract_x
 _atom_site_fract_y
 _atom_site_fract_z
 _atom_site_occupancy
  Cd  Cd0  1  0.51181595  0.55126853  0.24359801  1
  Cd  Cd1  1  0.01181595  0.05126853  0.25640199  1
  Cd  Cd2  1  0.48818405  0.44873147  0.75640199  1
  Cd  Cd3  1  0.98818405  0.94873147  0.74359801  1
  Cd  Cd4  1  0.47578018  0.75172564  0.54949753  1
  Cd  Cd5  1  0.97578018  0.25172564  0.95050247  1
  Cd  Cd6  1  0.52421982  0.24827436  0.45050247  1
  Cd  Cd7  1  0.02421982  0.74827436  0.04949753  1
  H  H0  1  0.87559703  0.82957392  0.51066840  1
  H  H1  1  0.37559703  0.32957392  0.98933160  1
  H  H2  1  0.12440297  0.17042608  0.48933160  1
  H  H3  1  0.62440297  0.67042608  0.01066840  1
  H  H4  1  0.86739590  0.80286192  0.60648915  1
  H  H5  1  0.36739590  0.30286192  0.89351085  1
  H  H6  1  0.13260410  0.19713808  0.39351085  1
  H  H7  1  0.63260410  0.69713808  0.10648915  1
  H  H8  1  0.08829432  0.68986769  0.48715486  1
  H  H9  1  0.58829432  0.18986769  0.01284514  1
  H  H10  1  0.91170568  0.31013231  0.51284514  1
  H  H11  1  0.41170568  0.81013231  0.98715486  1
  H  H12  1  0.07542174  0.66697512  0.58495287  1
  H  H13  1  0.57542174  0.16697512  0.91504713  1
  H  H14  1  0.92457826  0.33302488  0.41504713  1
  H  H15  1  0.42457826  0.83302488  0.08495287  1
  H  H16  1  0.52921386  0.60070429  0.61849448  1
  H  H17  1  0.02921386  0.10070429  0.88150552  1
  H  H18  1  0.47078614  0.39929571  0.38150552  1
  H  H19  1  0.97078614  0.89929571  0.11849448  1
  H  H20  1  0.43717600  0.58082936  0.52998841  1
  H  H21  1  0.93717600  0.08082936  0.97001159  1
  H  H22  1  0.56282400  0.41917064  0.47001159  1
  H  H23  1  0.06282400  0.91917064  0.02998841  1
  H  H24  1  0.42873605  0.90265476  0.46776307  1
  H  H25  1  0.92873605  0.40265476  0.03223693  1
  H  H26  1  0.57126395  0.09734524  0.53223693  1
  H  H27  1  0.07126395  0.59734524  0.96776307  1
  H  H28  1  0.27335141  0.89462576  0.53864254  1
  H  H29  1  0.77335141  0.39462576  0.96135746  1
  H  H30  1  0.72664859  0.10537424  0.46135746  1
  H  H31  1  0.22664859  0.60537424  0.03864254  1
  H  H32  1  0.78494916  0.61148508  0.36904052  1
  H  H33  1  0.28494916  0.11148508  0.13095948  1
  H  H34  1  0.21505084  0.38851492  0.63095948  1
  H  H35  1  0.71505084  0.88851492  0.86904052  1
  H  H36  1  0.58882120  0.63583203  0.39193481  1
  H  H37  1  0.08882120  0.13583203  0.10806519  1
  H  H38  1  0.41117880  0.36416797  0.60806519  1
  H  H39  1  0.91117880  0.86416797  0.89193481  1
  H  H40  1  0.20792634  0.56777885  0.35581106  1
  H  H41  1  0.70792634  0.06777885  0.14418894  1
  H  H42  1  0.79207366  0.43222115  0.64418894  1
  H  H43  1  0.29207366  0.93222115  0.85581106  1
  H  H44  1  0.13790819  0.48516138  0.30997885  1
  H  H45  1  0.63790819  0.98516138  0.19002115  1
  H  H46  1  0.86209181  0.51483862  0.69002115  1
  H  H47  1  0.36209181  0.01483862  0.80997885  1
  H  H48  1  0.42624191  0.47209363  0.09267815  1
  H  H49  1  0.92624191  0.97209363  0.40732185  1
  H  H50  1  0.57375809  0.52790637  0.90732185  1
  H  H51  1  0.07375809  0.02790637  0.59267815  1
  H  H52  1  0.23202500  0.49314821  0.12269292  1
  H  H53  1  0.73202500  0.99314821  0.37730708  1
  H  H54  1  0.76797500  0.50685179  0.87730708  1
  H  H55  1  0.26797500  0.00685179  0.62269292  1
  H  H56  1  0.90614718  0.60783940  0.19300056  1
  H  H57  1  0.40614718  0.10783940  0.30699944  1
  H  H58  1  0.09385282  0.39216060  0.80699944  1
  H  H59  1  0.59385282  0.89216060  0.69300056  1
  H  H60  1  0.87975763  0.51025932  0.17464723  1
  H  H61  1  0.37975763  0.01025932  0.32535277  1
  H  H62  1  0.12024237  0.48974068  0.82535277  1
  H  H63  1  0.62024237  0.98974068  0.67464723  1
  H  H64  1  0.74317739  0.53525253  0.51079762  1
  H  H65  1  0.24317739  0.03525253  0.98920238  1
  H  H66  1  0.25682261  0.46474747  0.48920238  1
  H  H67  1  0.75682261  0.96474747  0.01079762  1
  H  H68  1  0.85170833  0.46557202  0.47590969  1
  H  H69  1  0.35170833  0.96557202  0.02409031  1
  H  H70  1  0.14829167  0.53442798  0.52409031  1
  H  H71  1  0.64829167  0.03442798  0.97590969  1
  C  C0  1  0.50357545  0.77058788  0.34251448  1
  C  C1  1  0.00357545  0.27058788  0.15748552  1
  C  C2  1  0.49642455  0.22941212  0.65748552  1
  C  C3  1  0.99642455  0.72941212  0.84251448  1
  C  C4  1  0.50115388  0.85872194  0.32472206  1
  C  C5  1  0.00115388  0.35872194  0.17527794  1
  C  C6  1  0.49884612  0.14127806  0.67527794  1
  C  C7  1  0.99884612  0.64127806  0.82472206  1
  C  C8  1  0.51566954  0.84236438  0.23582493  1
  C  C9  1  0.01566954  0.34236438  0.26417507  1
  C  C10  1  0.48433046  0.15763562  0.76417507  1
  C  C11  1  0.98433046  0.65763562  0.73582493  1
  C  C12  1  0.51769444  0.75388099  0.25357933  1
  C  C13  1  0.01769444  0.25388099  0.24642067  1
  C  C14  1  0.48230556  0.24611901  0.74642067  1
  C  C15  1  0.98230556  0.74611901  0.75357933  1
  C  C16  1  0.48436649  0.73797349  0.75403012  1
  C  C17  1  0.98436649  0.23797349  0.74596988  1
  C  C18  1  0.51563351  0.26202651  0.24596988  1
  C  C19  1  0.01563351  0.76202651  0.25403012  1
  C  C20  1  0.49190915  0.65007782  0.76996458  1
  C  C21  1  0.99190915  0.15007782  0.73003542  1
  C  C22  1  0.50809085  0.34992218  0.23003542  1
  C  C23  1  0.00809085  0.84992218  0.26996458  1
  C  C24  1  0.49551697  0.66537472  0.85961825  1
  C  C25  1  0.99551697  0.16537472  0.64038175  1
  C  C26  1  0.50448303  0.33462528  0.14038175  1
  C  C27  1  0.00448303  0.83462528  0.35961825  1
  C  C28  1  0.48882348  0.75432393  0.84376416  1
  C  C29  1  0.98882348  0.25432393  0.65623584  1
  C  C30  1  0.51117652  0.24567607  0.15623584  1
  C  C31  1  0.01117652  0.74567607  0.34376416  1
  O  O0  1  0.49996601  0.72590323  0.40645948  1
  O  O1  1  0.99996601  0.22590323  0.09354052  1
  O  O2  1  0.50003399  0.27409677  0.59354052  1
  O  O3  1  0.00003399  0.77409677  0.90645948  1
  O  O4  1  0.49271043  0.92311019  0.36754512  1
  O  O5  1  0.99271043  0.42311019  0.13245488  1
  O  O6  1  0.50728957  0.07688981  0.63245488  1
  O  O7  1  0.00728957  0.57688981  0.86754512  1
  O  O8  1  0.52506621  0.88609721  0.17181805  1
  O  O9  1  0.02506621  0.38609721  0.32818195  1
  O  O10  1  0.47493379  0.11390279  0.82818195  1
  O  O11  1  0.97493379  0.61390279  0.67181805  1
  O  O12  1  0.53099890  0.69170642  0.20902378  1
  O  O13  1  0.03099890  0.19170642  0.29097622  1
  O  O14  1  0.46900110  0.30829358  0.79097622  1
  O  O15  1  0.96900110  0.80829358  0.70902378  1
  O  O16  1  0.48057048  0.78293062  0.69061243  1
  O  O17  1  0.98057048  0.28293062  0.80938757  1
  O  O18  1  0.51942952  0.21706938  0.30938757  1
  O  O19  1  0.01942952  0.71706938  0.19061243  1
  O  O20  1  0.49970392  0.58814968  0.72347424  1
  O  O21  1  0.99970392  0.08814968  0.77652576  1
  O  O22  1  0.50029608  0.41185032  0.27652576  1
  O  O23  1  0.00029608  0.91185032  0.22347424  1
  O  O24  1  0.50773589  0.62175707  0.92313168  1
  O  O25  1  0.00773589  0.12175707  0.57686832  1
  O  O26  1  0.49226411  0.37824293  0.07686832  1
  O  O27  1  0.99226411  0.87824293  0.42313168  1
  O  O28  1  0.49327319  0.81800389  0.88787786  1
  O  O29  1  0.99327319  0.31800389  0.61212214  1
  O  O30  1  0.50672681  0.18199611  0.11212214  1
  O  O31  1  0.00672681  0.68199611  0.38787786  1
  O  O32  1  0.79841397  0.79649879  0.55353865  1
  O  O33  1  0.29841397  0.29649879  0.94646135  1
  O  O34  1  0.20158603  0.20350121  0.44646135  1
  O  O35  1  0.70158603  0.70350121  0.05353865  1
  O  O36  1  0.16264100  0.68543122  0.53856038  1
  O  O37  1  0.66264100  0.18543122  0.96143962  1
  O  O38  1  0.83735900  0.31456878  0.46143962  1
  O  O39  1  0.33735900  0.81456878  0.03856038  1
  O  O40  1  0.54458925  0.61560789  0.55885329  1
  O  O41  1  0.04458925  0.11560789  0.94114671  1
  O  O42  1  0.45541075  0.38439211  0.44114671  1
  O  O43  1  0.95541075  0.88439211  0.05885329  1
  O  O44  1  0.39965142  0.88277694  0.52547592  1
  O  O45  1  0.89965142  0.38277694  0.97452408  1
  O  O46  1  0.60034858  0.11722306  0.47452408  1
  O  O47  1  0.10034858  0.61722306  0.02547592  1
  O  O48  1  0.64851614  0.58822281  0.37187499  1
  O  O49  1  0.14851614  0.08822281  0.12812501  1
  O  O50  1  0.35148386  0.41177719  0.62812501  1
  O  O51  1  0.85148386  0.91177719  0.87187499  1
  O  O52  1  0.21014969  0.54234212  0.30122521  1
  O  O53  1  0.71014969  0.04234212  0.19877479  1
  O  O54  1  0.78985031  0.45765788  0.69877479  1
  O  O55  1  0.28985031  0.95765788  0.80122521  1
  O  O56  1  0.36512686  0.51917172  0.11432722  1
  O  O57  1  0.86512686  0.01917172  0.38567278  1
  O  O58  1  0.63487314  0.48082828  0.88567278  1
  O  O59  1  0.13487314  0.98082828  0.61432722  1
  O  O60  1  0.81336236  0.55595033  0.19153720  1
  O  O61  1  0.31336236  0.05595033  0.30846280  1
  O  O62  1  0.18663764  0.44404967  0.80846280  1
  O  O63  1  0.68663764  0.94404967  0.69153720  1
  O  O64  1  0.76659949  0.47825302  0.51929969  1
  O  O65  1  0.26659949  0.97825302  0.98070031  1
  O  O66  1  0.23340051  0.52174698  0.48070031  1
  O  O67  1  0.73340051  0.02174698  0.01929969  1
loop_
_geom_bond_atom_site_label_1
_geom_bond_atom_site_label_2
_geom_bond_distance
_geom_bond_site_symmetry_2
Cd0 O60 2.308943 1_555
Cd0 O22 2.326792 1_555
Cd0 O48 2.336795 1_555
Cd0 O52 2.337179 1_555
Cd0 O12 2.343101 1_555
Cd0 O56 2.365753 1_555
Cd1 O61 2.308943 1_555
Cd1 O23 2.326792 1_545
Cd1 O49 2.336795 1_555
Cd1 O53 2.337179 1_455
Cd1 O13 2.343101 1_555
Cd1 O57 2.365753 1_455
Cd2 O62 2.308943 1_555
Cd2 O20 2.326792 1_555
Cd2 O50 2.336795 1_555
Cd2 O54 2.337179 1_555
Cd2 O14 2.343101 1_555
Cd2 O58 2.365753 1_555
Cd3 O63 2.308943 1_555
Cd3 O21 2.326792 1_565
Cd3 O51 2.336795 1_555
Cd3 O55 2.337179 1_655
Cd3 O15 2.343101 1_555
Cd3 O59 2.365753 1_655
Cd4 O32 2.309216 1_555
Cd4 O44 2.325241 1_555
Cd4 O36 2.334080 1_555
Cd4 O16 2.343954 1_555
Cd4 O40 2.358242 1_555
Cd4 O0 2.369435 1_555
Cd5 O33 2.309216 1_655
Cd5 O45 2.325241 1_555
Cd5 O37 2.334080 1_555
Cd5 O17 2.343954 1_555
Cd5 O41 2.358242 1_655
Cd5 O1 2.369435 1_556
Cd6 O34 2.309216 1_555
Cd6 O46 2.325241 1_555
Cd6 O38 2.334080 1_555
Cd6 O18 2.343954 1_555
Cd6 O42 2.358242 1_555
Cd6 O2 2.369435 1_555
Cd7 O35 2.309216 1_455
Cd7 O47 2.325241 1_555
Cd7 O39 2.334080 1_555
Cd7 O19 2.343954 1_555
Cd7 O43 2.358242 1_455
Cd7 O3 2.369435 1_554
H0 O32 0.992030 1_555
H1 O33 0.992030 1_555
H2 O34 0.992030 1_555
H3 O35 0.992030 1_555
H4 O32 0.987907 1_555
H5 O33 0.987907 1_555
H6 O34 0.987907 1_555
H7 O35 0.987907 1_555
H8 O36 0.998294 1_555
H9 O37 0.998294 1_554
H10 O38 0.998294 1_555
H11 O39 0.998294 1_556
H12 O36 0.993168 1_555
H13 O37 0.993168 1_555
H14 O38 0.993168 1_555
H15 O39 0.993168 1_555
H16 O40 0.999245 1_555
H16 O20 1.723975 1_555
H17 O41 0.999245 1_555
H17 O21 1.723975 1_455
H18 O42 0.999245 1_555
H18 O22 1.723975 1_555
H19 O43 0.999245 1_555
H19 O23 1.723975 1_655
H20 O40 0.996057 1_555
H21 O41 0.996057 1_655
H22 O42 0.996057 1_555
H23 O43 0.996057 1_455
H24 O44 1.001565 1_555
H25 O45 1.001565 1_554
H26 O46 1.001565 1_555
H27 O47 1.001565 1_556
H28 O44 0.978921 1_555
H29 O45 0.978921 1_555
H30 O46 0.978921 1_555
H31 O47 0.978921 1_555
H32 O48 0.990568 1_555
H33 O49 0.990568 1_555
H34 O50 0.990568 1_555
H35 O51 0.990568 1_555
H36 O48 1.000409 1_555
H36 O0 1.710903 1_555
H37 O49 1.000409 1_555
H37 O1 1.710903 1_455
H38 O50 1.000409 1_555
H38 O2 1.710903 1_555
H39 O51 1.000409 1_555
H39 O3 1.710903 1_655
H40 O52 0.979193 1_555
H41 O53 0.979193 1_555
H42 O54 0.979193 1_555
H43 O55 0.979193 1_555
H44 O52 1.001590 1_555
H45 O53 1.001590 1_565
H46 O54 1.001590 1_555
H47 O55 1.001590 1_545
H48 O56 1.007464 1_555
H49 O57 1.007464 1_565
H50 O58 1.007464 1_555
H51 O59 1.007464 1_545
H52 O56 0.988304 1_555
H53 O57 0.988304 1_565
H54 O58 0.988304 1_555
H55 O59 0.988304 1_545
H56 O60 0.988805 1_555
H57 O61 0.988805 1_555
H58 O62 0.988805 1_555
H59 O63 0.988805 1_555
H60 O60 0.986356 1_555
H61 O61 0.986356 1_555
H62 O62 0.986356 1_555
H63 O63 0.986356 1_555
H64 O64 0.981870 1_555
H65 O65 0.981870 1_545
H66 O66 0.981870 1_555
H67 O67 0.981870 1_565
H68 O64 0.975080 1_555
H69 O65 0.975080 1_554
H70 O66 0.975080 1_555
H71 O67 0.975080 1_556
C0 O0 1.265983 1_555
C1 O1 1.265983 1_455
C2 O2 1.265983 1_555
C3 O3 1.265983 1_655
C4 O4 1.269710 1_555
C5 O5 1.269710 1_455
C6 O6 1.269710 1_555
C7 O7 1.269710 1_655
C8 O8 1.255689 1_555
C9 O9 1.255689 1_555
C10 O10 1.255689 1_555
C11 O11 1.255689 1_555
C12 O12 1.262323 1_555
C13 O13 1.262323 1_555
C14 O14 1.262323 1_555
C15 O15 1.262323 1_555
C16 O16 1.266574 1_555
C17 O17 1.266574 1_555
C18 O18 1.266574 1_555
C19 O19 1.266574 1_555
C20 O20 1.269892 1_555
C21 O21 1.269892 1_555
C22 O22 1.269892 1_555
C23 O23 1.269892 1_555
C24 O24 1.263498 1_555
C25 O25 1.263498 1_655
C26 O26 1.263498 1_555
C27 O27 1.263498 1_455
C28 O28 1.258375 1_555
C29 O29 1.258375 1_555
C30 O30 1.258375 1_555
C31 O31 1.258375 1_555
