# generated using pymatgen
data_ZrTiCo4
_symmetry_space_group_name_H-M   'P 1'
_cell_length_a   4.82455621
_cell_length_b   4.82454035
_cell_length_c   4.82455235
_cell_angle_alpha   59.99992800
_cell_angle_beta   60.00003665
_cell_angle_gamma   59.99991801
_symmetry_Int_Tables_number   1
_chemical_formula_structural   ZrTiCo4
_chemical_formula_sum   'Zr1 Ti1 Co4'
_cell_volume   79.40629866
_cell_formula_units_Z   1
loop_
 _symmetry_equiv_pos_site_id
 _symmetry_equiv_pos_as_xyz
  1  'x, y, z'
loop_
 _atom_site_type_symbol
 _atom_site_label
 _atom_site_symmetry_multiplicity
 _atom_site_fract_x
 _atom_site_fract_y
 _atom_site_fract_z
 _atom_site_occupancy
  Zr  Zr0  1  -0.00000040  1.00000419  -0.00000240  1
  Ti  Ti0  1  0.24999878  0.24999788  0.25000167  1
  Co  Co0  1  0.62483085  0.62483043  0.12550655  1
  Co  Co1  1  0.62483118  0.12550559  0.62483161  1
  Co  Co2  1  0.12550672  0.62483048  0.62483140  1
  Co  Co3  1  0.62483085  0.62483043  0.62483116  1
loop_
_geom_bond_atom_site_label_1
_geom_bond_atom_site_label_2
_geom_bond_distance
_geom_bond_site_symmetry_2
Ti0 Zr0 2.954407 1_546
Ti0 Zr0 2.954410 1_545
Ti0 Zr0 2.954428 1_645
Ti0 Zr0 2.954437 1_555
Co0 Co1 2.409014 1_555
Co0 Co3 2.409018 1_555
Co0 Co2 2.409019 1_555
Co0 Co1 2.415527 1_564
Co0 Co3 2.415535 1_554
Co0 Co2 2.415538 1_654
Co0 Ti0 2.828288 1_565
Co0 Ti0 2.828296 1_655
Co0 Ti0 2.828303 1_555
Co0 Zr0 2.828969 1_645
Co0 Zr0 2.828997 1_555
Co0 Zr0 2.829006 1_655
Co1 Co3 2.409011 1_555
Co1 Co2 2.409013 1_555
Co1 Co2 2.415529 1_645
Co1 Co3 2.415529 1_545
Co1 Ti0 2.828293 1_655
Co1 Ti0 2.828301 1_555
Co1 Ti0 2.828301 1_556
Co1 Zr0 2.828987 1_546
Co1 Zr0 2.828990 1_646
Co1 Zr0 2.828994 1_645
Co2 Co3 2.409017 1_555
Co2 Co3 2.415540 1_455
Co2 Ti0 2.828282 1_565
Co2 Ti0 2.828298 1_555
Co2 Ti0 2.828298 1_556
Co2 Zr0 2.828966 1_546
Co2 Zr0 2.828997 1_556
Co2 Zr0 2.829002 1_555
Co3 Ti0 2.828286 1_565
Co3 Ti0 2.828294 1_655
Co3 Ti0 2.828305 1_556
Co3 Zr0 2.828970 1_646
Co3 Zr0 2.828997 1_556
Co3 Zr0 2.829007 1_655
