# generated using pymatgen
data_Li3Fe3(PO4)4
_symmetry_space_group_name_H-M   'P 1'
_cell_length_a   7.67575978
_cell_length_b   8.02218713
_cell_length_c   10.05826959
_cell_angle_alpha   90.49176945
_cell_angle_beta   94.87035307
_cell_angle_gamma   89.70310444
_symmetry_Int_Tables_number   1
_chemical_formula_structural   Li3Fe3(PO4)4
_chemical_formula_sum   'Li6 Fe6 P8 O32'
_cell_volume   617.08669384
_cell_formula_units_Z   2
loop_
 _symmetry_equiv_pos_site_id
 _symmetry_equiv_pos_as_xyz
  1  'x, y, z'
loop_
 _atom_site_type_symbol
 _atom_site_label
 _atom_site_symmetry_multiplicity
 _atom_site_fract_x
 _atom_site_fract_y
 _atom_site_fract_z
 _atom_site_occupancy
  Li  Li0  1  0.11238200  0.35848900  0.79512000  1
  Li  Li1  1  0.90555900  0.63357100  0.20762000  1
  Li  Li2  1  0.59251000  0.13389000  0.54229700  1
  Li  Li3  1  0.40634800  0.86403300  0.45516300  1
  Li  Li4  1  0.39157000  0.85939200  0.95473500  1
  Li  Li5  1  0.09438100  0.36246400  0.29621200  1
  Fe  Fe0  1  0.89890900  0.64059900  0.70315400  1
  Fe  Fe1  1  0.60420600  0.14416200  0.05344400  1
  Fe  Fe2  1  0.49132200  0.50830700  0.00193500  1
  Fe  Fe3  1  0.47866800  0.49142900  0.49752300  1
  Fe  Fe4  1  0.01862600  0.99029500  0.25233900  1
  Fe  Fe5  1  0.01204600  0.01473500  0.74626700  1
  P  P0  1  0.20381800  0.19830500  0.02082600  1
  P  P1  1  0.30106700  0.69581900  0.73095600  1
  P  P2  1  0.29834800  0.68581200  0.23303000  1
  P  P3  1  0.69754300  0.30469200  0.76503100  1
  P  P4  1  0.69712400  0.31311600  0.27321000  1
  P  P5  1  0.79610700  0.80545100  0.98779600  1
  P  P6  1  0.19938400  0.18807900  0.51426800  1
  P  P7  1  0.80590500  0.81592400  0.47716900  1
  O  O0  1  0.24160600  0.87145700  0.77406300  1
  O  O1  1  0.87452000  0.79892800  0.84833100  1
  O  O2  1  0.84788300  0.42971200  0.28086300  1
  O  O3  1  0.90209100  0.80746200  0.34889800  1
  O  O4  1  0.94672400  0.85733100  0.60011000  1
  O  O5  1  0.94503300  0.85782000  0.09129800  1
  O  O6  1  0.06268600  0.14293200  0.90892900  1
  O  O7  1  0.05196500  0.12933900  0.40498900  1
  O  O8  1  0.10967800  0.20105500  0.64695900  1
  O  O9  1  0.14088900  0.57621700  0.72067900  1
  O  O10  1  0.11672500  0.18871700  0.15345200  1
  O  O11  1  0.14640700  0.56807200  0.22082400  1
  O  O12  1  0.39117200  0.69244000  0.09959100  1
  O  O13  1  0.26313400  0.37460900  0.97897000  1
  O  O14  1  0.24960300  0.36636700  0.47111900  1
  O  O15  1  0.24660300  0.86754300  0.27285500  1
  O  O16  1  0.72561100  0.63336100  0.02640400  1
  O  O17  1  0.38547000  0.69123500  0.59666700  1
  O  O18  1  0.43963800  0.63852800  0.84267300  1
  O  O19  1  0.36412200  0.07851200  0.02748000  1
  O  O20  1  0.85068100  0.43128300  0.77970100  1
  O  O21  1  0.44719700  0.63264300  0.34192300  1
  O  O22  1  0.55276700  0.36184700  0.65995900  1
  O  O23  1  0.61560500  0.30461500  0.90470300  1
  O  O24  1  0.55478400  0.34957000  0.14897500  1
  O  O25  1  0.64552600  0.93569500  0.97356600  1
  O  O26  1  0.60093700  0.30498700  0.39983400  1
  O  O27  1  0.65172100  0.92982100  0.46665500  1
  O  O28  1  0.76350600  0.13175200  0.72671100  1
  O  O29  1  0.75752300  0.63523300  0.52798100  1
  O  O30  1  0.74982100  0.13186800  0.21870700  1
  O  O31  1  0.35254200  0.07048400  0.52803500  1
loop_
_geom_bond_atom_site_label_1
_geom_bond_atom_site_label_2
_geom_bond_distance
_geom_bond_site_symmetry_2
Li0 O9 1.927053 1_555
Li0 O8 1.943977 1_555
Li0 O20 2.082465 1_455
Li0 O13 2.099852 1_555
Li0 O6 2.135679 1_555
Li1 O2 1.869972 1_555
Li1 O11 1.913330 1_655
Li1 O3 1.984435 1_555
Li1 O5 2.190653 1_555
Li1 O16 2.191484 1_555
Li2 O27 1.869512 1_545
Li2 O31 1.906733 1_555
Li2 O26 1.997962 1_555
Li2 O28 2.179571 1_555
Li2 O22 2.203688 1_555
Li3 O31 1.863933 1_565
Li3 O27 1.952299 1_555
Li3 O17 2.011945 1_555
Li3 O15 2.117895 1_555
Li3 O21 2.204456 1_555
Li4 O19 1.915712 1_566
Li4 O12 1.987696 1_556
Li4 O25 2.039126 1_555
Li4 O0 2.069645 1_555
Li4 O18 2.139036 1_555
Li5 O11 1.880098 1_555
Li5 O2 1.958573 1_455
Li5 O10 2.009733 1_555
Li5 O14 2.039375 1_555
Li5 O7 2.214167 1_555
Fe0 O20 1.904332 1_555
Fe0 O9 1.919301 1_655
Fe0 O1 1.947485 1_555
Fe0 O29 1.989605 1_555
Fe0 O4 2.081829 1_555
Fe1 O25 1.886160 1_544
Fe1 O19 1.915087 1_555
Fe1 O30 1.925693 1_555
Fe1 O24 1.952113 1_555
Fe1 O23 1.989773 1_554
Fe2 O18 1.931656 1_554
Fe2 O12 1.956852 1_555
Fe2 O24 1.987409 1_555
Fe2 O13 2.053788 1_554
Fe2 O16 2.059211 1_555
Fe2 O23 2.156728 1_554
Fe3 O21 1.937660 1_555
Fe3 O22 1.984626 1_555
Fe3 O14 2.025571 1_555
Fe3 O17 2.038928 1_555
Fe3 O26 2.049417 1_555
Fe3 O29 2.431932 1_555
Fe4 O7 1.890493 1_565
Fe4 O5 1.973206 1_455
Fe4 O15 1.999687 1_555
Fe4 O3 2.019955 1_455
Fe4 O10 2.063203 1_565
Fe4 O30 2.350581 1_465
Fe5 O6 1.937222 1_555
Fe5 O4 1.963813 1_445
Fe5 O8 1.989419 1_555
Fe5 O0 2.098804 1_545
Fe5 O28 2.116659 1_455
Fe5 O1 2.323548 1_445
O0 P1 1.548559 1_555
O1 P5 1.573073 1_555
O2 P4 1.488207 1_555
O3 P7 1.540777 1_555
O4 P7 1.605458 1_555
O5 P5 1.537011 1_554
O6 P0 1.557869 1_556
O7 P6 1.579890 1_555
O8 P6 1.555359 1_555
O9 P1 1.559439 1_555
O10 P0 1.544688 1_555
O11 P2 1.500832 1_555
O12 P2 1.573493 1_555
O13 P0 1.560239 1_556
O14 P6 1.558000 1_555
O15 P2 1.566721 1_555
O16 P5 1.549875 1_554
O17 P1 1.546930 1_555
O18 P1 1.551150 1_555
O19 P0 1.554635 1_555
O20 P3 1.554065 1_555
O21 P2 1.573979 1_555
O22 P3 1.538074 1_555
O23 P3 1.587211 1_555
O24 P4 1.616117 1_555
O25 P5 1.552440 1_555
O26 P4 1.527432 1_555
O27 P7 1.488577 1_555
O28 P3 1.531781 1_555
O29 P7 1.597122 1_555
O30 P4 1.611257 1_555
O31 P6 1.501423 1_555
