# generated using pymatgen
data_Na7(WO3)20
_symmetry_space_group_name_H-M   'P 1'
_cell_length_a   3.89200223
_cell_length_b   3.89200223
_cell_length_c   78.26379279
_cell_angle_alpha   90.00000000
_cell_angle_beta   90.00000000
_cell_angle_gamma   90.00000000
_symmetry_Int_Tables_number   1
_chemical_formula_structural   Na7(WO3)20
_chemical_formula_sum   'Na7 W20 O60'
_cell_volume   1185.51499508
_cell_formula_units_Z   1
loop_
 _symmetry_equiv_pos_site_id
 _symmetry_equiv_pos_as_xyz
  1  'x, y, z'
loop_
 _atom_site_type_symbol
 _atom_site_label
 _atom_site_symmetry_multiplicity
 _atom_site_fract_x
 _atom_site_fract_y
 _atom_site_fract_z
 _atom_site_occupancy
  Na  Na0  1  0.00000000  0.00000000  0.05014417  1
  Na  Na1  1  -0.00000000  -0.00000000  0.59985549  1
  Na  Na2  1  -0.00000000  -0.00000000  0.69937510  1
  Na  Na3  1  0.00000000  0.00000000  0.75057856  1
  Na  Na4  1  -0.00000000  -0.00000000  0.84907839  1
  Na  Na5  1  -0.00000000  -0.00000000  0.90020209  1
  Na  Na6  1  0.00000000  0.00000000  0.95080019  1
  W  W0  1  0.50000000  0.50000000  0.02498275  1
  W  W1  1  0.50000000  0.50000000  0.07632660  1
  W  W2  1  0.50000000  0.50000000  0.12633700  1
  W  W3  1  0.50000000  0.50000000  0.17613569  1
  W  W4  1  0.50000000  0.50000000  0.22586173  1
  W  W5  1  0.50000000  0.50000000  0.32501728  1
  W  W6  1  0.50000000  0.50000000  0.27549316  1
  W  W7  1  0.50000000  0.50000000  0.42413492  1
  W  W8  1  0.50000000  0.50000000  0.37452858  1
  W  W9  1  0.50000000  0.50000000  0.52361057  1
  W  W10  1  0.50000000  0.50000000  0.47383305  1
  W  W11  1  0.50000000  0.50000000  0.62514972  1
  W  W12  1  0.50000000  0.50000000  0.57364653  1
  W  W13  1  0.50000000  0.50000000  0.72494300  1
  W  W14  1  0.50000000  0.50000000  0.67417860  1
  W  W15  1  0.50000000  0.50000000  0.77569903  1
  W  W16  1  0.50000000  0.50000000  0.87480113  1
  W  W17  1  0.50000000  0.50000000  0.82432292  1
  W  W18  1  0.50000000  0.50000000  0.92523275  1
  W  W19  1  0.50000000  0.50000000  0.97595865  1
  O  O0  1  0.00000000  0.50000000  0.02569862  1
  O  O1  1  -0.00000000  0.50000000  0.07426529  1
  O  O2  1  0.00000000  0.50000000  0.12472092  1
  O  O3  1  0.00000000  0.50000000  0.17476570  1
  O  O4  1  0.00000000  0.50000000  0.22481231  1
  O  O5  1  0.00000000  0.50000000  0.27489276  1
  O  O6  1  0.00000000  0.50000000  0.32499398  1
  O  O7  1  -0.00000000  0.50000000  0.37509821  1
  O  O8  1  -0.00000000  0.50000000  0.42518319  1
  O  O9  1  -0.00000000  0.50000000  0.47523338  1
  O  O10  1  -0.00000000  0.50000000  0.52528982  1
  O  O11  1  0.00000000  0.50000000  0.57578783  1
  O  O12  1  -0.00000000  0.50000000  0.62416495  1
  O  O13  1  -0.00000000  0.50000000  0.67556436  1
  O  O14  1  0.00000000  0.50000000  0.72517170  1
  O  O15  1  -0.00000000  0.50000000  0.77418190  1
  O  O16  1  -0.00000000  0.50000000  0.82573628  1
  O  O17  1  -0.00000000  0.50000000  0.87491404  1
  O  O18  1  0.00000000  0.50000000  0.92475277  1
  O  O19  1  0.50000000  0.00000000  0.02569862  1
  O  O20  1  0.50000000  -0.00000000  0.07426529  1
  O  O21  1  0.50000000  0.50000000  0.00032822  1
  O  O22  1  0.50000000  0.50000000  0.05025457  1
  O  O23  1  0.50000000  0.00000000  0.12472092  1
  O  O24  1  0.50000000  0.00000000  0.17476570  1
  O  O25  1  0.50000000  0.50000000  0.09981466  1
  O  O26  1  0.50000000  0.50000000  0.14993022  1
  O  O27  1  0.50000000  0.00000000  0.22481231  1
  O  O28  1  0.50000000  0.50000000  0.19993204  1
  O  O29  1  0.50000000  0.00000000  0.27489276  1
  O  O30  1  0.50000000  0.00000000  0.32499398  1
  O  O31  1  0.50000000  0.50000000  0.24991216  1
  O  O32  1  0.50000000  0.50000000  0.29994892  1
  O  O33  1  0.50000000  -0.00000000  0.37509821  1
  O  O34  1  0.50000000  -0.00000000  0.42518319  1
  O  O35  1  0.50000000  0.50000000  0.35003840  1
  O  O36  1  0.50000000  0.50000000  0.40008644  1
  O  O37  1  0.50000000  -0.00000000  0.52528982  1
  O  O38  1  0.50000000  -0.00000000  0.47523338  1
  O  O39  1  0.50000000  0.50000000  0.45006473  1
  O  O40  1  0.50000000  0.00000000  0.57578783  1
  O  O41  1  0.50000000  -0.00000000  0.62416495  1
  O  O42  1  0.50000000  0.50000000  0.50005321  1
  O  O43  1  0.50000000  -0.00000000  0.67556436  1
  O  O44  1  0.50000000  0.00000000  0.72517170  1
  O  O45  1  0.50000000  0.50000000  0.55018458  1
  O  O46  1  0.50000000  0.50000000  0.59983350  1
  O  O47  1  0.50000000  -0.00000000  0.77418190  1
  O  O48  1  0.50000000  -0.00000000  0.82573628  1
  O  O49  1  0.50000000  0.50000000  0.64926902  1
  O  O50  1  0.50000000  0.50000000  0.70052944  1
  O  O51  1  0.50000000  0.50000000  0.74980074  1
  O  O52  1  0.50000000  -0.00000000  0.87491404  1
  O  O53  1  0.50000000  0.00000000  0.92475277  1
  O  O54  1  0.50000000  0.50000000  0.79975702  1
  O  O55  1  0.50000000  0.50000000  0.85029407  1
  O  O56  1  0.50000000  -0.00000000  0.97470170  1
  O  O57  1  0.50000000  0.50000000  0.89942806  1
  O  O58  1  0.50000000  0.50000000  0.95045296  1
  O  O59  1  -0.00000000  0.50000000  0.97470170  1
loop_
_geom_bond_atom_site_label_1
_geom_bond_atom_site_label_2
_geom_bond_distance
_geom_bond_site_symmetry_2
Na0 O20 2.711226 1_555
Na0 O20 2.711226 1_455
Na0 O1 2.711226 1_555
Na0 O1 2.711226 1_545
Na0 O19 2.728967 1_455
Na0 O0 2.728967 1_545
Na0 O0 2.728967 1_555
Na0 O19 2.728967 1_555
Na0 O22 2.752075 1_455
Na0 O22 2.752075 1_555
Na0 O22 2.752075 1_545
Na0 O22 2.752075 1_445
Na1 O11 2.708315 1_545
Na1 O11 2.708315 1_555
Na1 O40 2.708315 1_455
Na1 O40 2.708315 1_555
Na1 O12 2.721510 1_545
Na1 O41 2.721510 1_455
Na1 O12 2.721510 1_555
Na1 O41 2.721510 1_555
Na1 O46 2.752062 1_455
Na1 O46 2.752062 1_545
Na1 O46 2.752062 1_555
Na1 O46 2.752062 1_445
Na2 O43 2.694369 1_555
Na2 O43 2.694369 1_455
Na2 O13 2.694369 1_545
Na2 O13 2.694369 1_555
Na2 O50 2.753544 1_555
Na2 O50 2.753544 1_545
Na2 O50 2.753544 1_445
Na2 O50 2.753544 1_455
Na2 O44 2.804111 1_555
Na2 O14 2.804111 1_555
Na2 O44 2.804111 1_455
Na2 O14 2.804111 1_545
Na3 O15 2.683168 1_545
Na3 O15 2.683168 1_555
Na3 O47 2.683168 1_455
Na3 O47 2.683168 1_555
Na3 O51 2.752734 1_545
Na3 O51 2.752734 1_455
Na3 O51 2.752734 1_555
Na3 O51 2.752734 1_445
Na3 O44 2.782230 1_555
Na3 O14 2.782230 1_555
Na3 O44 2.782230 1_455
Na3 O14 2.782230 1_545
Na4 O48 2.669133 1_455
Na4 O16 2.669133 1_555
Na4 O48 2.669133 1_555
Na4 O16 2.669133 1_545
Na4 O55 2.753705 1_555
Na4 O55 2.753705 1_545
Na4 O55 2.753705 1_445
Na4 O55 2.753705 1_455
Na4 O52 2.806312 1_455
Na4 O17 2.806312 1_545
Na4 O17 2.806312 1_555
Na4 O52 2.806312 1_555
Na5 O53 2.734741 1_555
Na5 O18 2.734741 1_545
Na5 O53 2.734741 1_455
Na5 O18 2.734741 1_555
Na5 O57 2.752728 1_545
Na5 O57 2.752728 1_445
Na5 O57 2.752728 1_455
Na5 O57 2.752728 1_555
Na5 O17 2.775592 1_545
Na5 O17 2.775592 1_555
Na5 O52 2.775592 1_555
Na5 O52 2.775592 1_455
Na6 O56 2.699287 1_555
Na6 O59 2.699287 1_545
Na6 O56 2.699287 1_455
Na6 O59 2.699287 1_555
Na6 O58 2.752195 1_455
Na6 O58 2.752195 1_555
Na6 O58 2.752195 1_445
Na6 O58 2.752195 1_545
Na6 O18 2.818277 1_545
Na6 O18 2.818277 1_555
Na6 O53 2.818277 1_555
Na6 O53 2.818277 1_455
O0 W0 1.946807 1_555
O0 W0 1.946807 1_455
O1 W1 1.952677 1_555
O1 W1 1.952677 1_455
O2 W2 1.950107 1_555
O2 W2 1.950107 1_455
O3 W3 1.948953 1_455
O3 W3 1.948953 1_555
O4 W4 1.947734 1_455
O4 W4 1.947734 1_555
O5 W6 1.946568 1_455
O5 W6 1.946568 1_555
O6 W5 1.946002 1_555
O6 W5 1.946002 1_455
O7 W8 1.946512 1_455
O7 W8 1.946512 1_555
O8 W7 1.947730 1_455
O8 W7 1.947730 1_555
O9 W10 1.949085 1_455
O9 W10 1.949085 1_555
O10 W9 1.950434 1_555
O10 W9 1.950434 1_455
O11 W12 1.953204 1_455
O11 W12 1.953204 1_555
O12 W11 1.947527 1_455
O12 W11 1.947527 1_555
O13 W14 1.949021 1_455
O13 W14 1.949021 1_555
O14 W13 1.946083 1_555
O14 W13 1.946083 1_455
O15 W15 1.949620 1_555
O15 W15 1.949620 1_455
O16 W17 1.949142 1_555
O16 W17 1.949142 1_455
O17 W16 1.946021 1_455
O17 W16 1.946021 1_555
O18 W18 1.946364 1_555
O18 W18 1.946364 1_455
O19 W0 1.946807 1_555
O19 W0 1.946807 1_545
O20 W1 1.952677 1_555
O20 W1 1.952677 1_545
O21 W19 1.907255 1_554
O21 W0 1.929557 1_555
O22 W0 1.977868 1_555
O22 W1 2.040496 1_555
O23 W2 1.950107 1_555
O23 W2 1.950107 1_545
O24 W3 1.948953 1_555
O24 W3 1.948953 1_545
O25 W1 1.838265 1_555
O25 W2 2.075739 1_555
O26 W2 1.846495 1_555
O26 W3 2.050939 1_555
O27 W4 1.947734 1_555
O27 W4 1.947734 1_545
O28 W3 1.862393 1_555
O28 W4 2.029356 1_555
O29 W6 1.946568 1_555
O29 W6 1.946568 1_545
O30 W5 1.946002 1_545
O30 W5 1.946002 1_555
O31 W4 1.882278 1_555
O31 W6 2.002066 1_555
O32 W6 1.914001 1_555
O32 W5 1.961945 1_555
O33 W8 1.946512 1_545
O33 W8 1.946512 1_555
O34 W7 1.947730 1_555
O34 W7 1.947730 1_545
O35 W8 1.916694 1_555
O35 W5 1.958248 1_555
O36 W7 1.882125 1_555
O36 W8 2.000255 1_555
O37 W9 1.950434 1_555
O37 W9 1.950434 1_545
O38 W10 1.949085 1_555
O38 W10 1.949085 1_545
O39 W10 1.860199 1_555
O39 W7 2.029365 1_555
O40 W12 1.953204 1_545
O40 W12 1.953204 1_555
O41 W11 1.947527 1_555
O41 W11 1.947527 1_545
O42 W9 1.843688 1_555
O42 W10 2.052089 1_555
O43 W14 1.949021 1_545
O43 W14 1.949021 1_555
O44 W13 1.946083 1_555
O44 W13 1.946083 1_545
O45 W12 1.836221 1_555
O45 W9 2.079783 1_555
O46 W11 1.981343 1_555
O46 W12 2.049492 1_555
O47 W15 1.949620 1_555
O47 W15 1.949620 1_545
O48 W17 1.949142 1_555
O48 W17 1.949142 1_545
O49 W11 1.887668 1_555
O49 W14 1.949518 1_555
O50 W13 1.910698 1_555
O50 W14 2.062317 1_555
O51 W13 1.945461 1_555
O51 W15 2.026898 1_555
O52 W16 1.946021 1_555
O52 W16 1.946021 1_545
O53 W18 1.946364 1_555
O53 W18 1.946364 1_545
O54 W15 1.882870 1_555
O54 W17 1.922621 1_555
O55 W16 1.918015 1_555
O55 W17 2.032601 1_555
O56 W19 1.948486 1_545
O56 W19 1.948486 1_555
O57 W16 1.927397 1_555
O57 W18 2.019573 1_555
O58 W18 1.973829 1_555
O58 W19 1.996172 1_555
O59 W19 1.948486 1_555
O59 W19 1.948486 1_455
