# generated using pymatgen
data_CeSe2
_symmetry_space_group_name_H-M   'P 1'
_cell_length_a   11.37398399
_cell_length_b   11.37398399
_cell_length_c   11.37398399
_cell_angle_alpha   130.67014671
_cell_angle_beta   130.67014671
_cell_angle_gamma   72.33767339
_symmetry_Int_Tables_number   1
_chemical_formula_structural   CeSe2
_chemical_formula_sum   'Ce4 Se8'
_cell_volume   827.45075206
_cell_formula_units_Z   4
loop_
 _symmetry_equiv_pos_site_id
 _symmetry_equiv_pos_as_xyz
  1  'x, y, z'
loop_
 _atom_site_type_symbol
 _atom_site_label
 _atom_site_symmetry_multiplicity
 _atom_site_fract_x
 _atom_site_fract_y
 _atom_site_fract_z
 _atom_site_occupancy
  Ce  Ce0  1  0.87500000  0.26361200  0.88861200  1
  Ce  Ce1  1  0.37500000  0.98638800  0.11138800  1
  Ce  Ce2  1  0.01361200  0.62500000  0.88861200  1
  Ce  Ce3  1  0.73638800  0.12500000  0.11138800  1
  Se  Se0  1  0.64044200  0.14044200  0.50000000  1
  Se  Se1  1  0.10955800  0.10955800  0.00000000  1
  Se  Se2  1  0.85955800  0.35955800  0.50000000  1
  Se  Se3  1  0.89044200  0.89044200  0.00000000  1
  Se  Se4  1  0.04101700  0.54101700  0.08203400  1
  Se  Se5  1  0.45898300  0.95898300  0.91796600  1
  Se  Se6  1  0.70898300  0.29101700  0.00000000  1
  Se  Se7  1  0.29101700  0.70898300  0.00000000  1
loop_
_geom_bond_atom_site_label_1
_geom_bond_atom_site_label_2
_geom_bond_distance
_geom_bond_site_symmetry_2
Ce0 Se0 2.728394 1_555
Ce0 Se1 2.728394 1_656
Ce0 Se4 2.741186 1_656
Ce0 Se6 2.741186 1_556
Ce1 Se0 2.728394 1_565
Ce1 Se1 2.728394 1_565
Ce1 Se5 2.741186 1_554
Ce1 Se7 2.741186 1_555
Ce2 Se3 2.728394 1_456
Ce2 Se2 2.728394 1_455
Ce2 Se4 2.741186 1_556
Ce2 Se7 2.741186 1_556
Ce3 Se2 2.728394 1_555
Ce3 Se3 2.728394 1_545
Ce3 Se6 2.741186 1_555
Ce3 Se5 2.741186 1_544
