# generated using pymatgen
data_LaMg3
_symmetry_space_group_name_H-M   'P 1'
_cell_length_a   6.96667463
_cell_length_b   6.96667463
_cell_length_c   5.21989616
_cell_angle_alpha   90.00000000
_cell_angle_beta   90.00000000
_cell_angle_gamma   119.99999875
_symmetry_Int_Tables_number   1
_chemical_formula_structural   LaMg3
_chemical_formula_sum   'La2 Mg6'
_cell_volume   219.40350248
_cell_formula_units_Z   2
loop_
 _symmetry_equiv_pos_site_id
 _symmetry_equiv_pos_as_xyz
  1  'x, y, z'
loop_
 _atom_site_type_symbol
 _atom_site_label
 _atom_site_symmetry_multiplicity
 _atom_site_fract_x
 _atom_site_fract_y
 _atom_site_fract_z
 _atom_site_occupancy
  La  La0  1  0.66666700  0.33333300  0.75000000  1
  La  La1  1  0.33333300  0.66666700  0.25000000  1
  Mg  Mg0  1  0.15820260  0.84179740  0.75000000  1
  Mg  Mg1  1  0.68359481  0.84179740  0.75000000  1
  Mg  Mg2  1  0.15820260  0.31640519  0.75000000  1
  Mg  Mg3  1  0.84179740  0.15820260  0.25000000  1
  Mg  Mg4  1  0.84179740  0.68359481  0.25000000  1
  Mg  Mg5  1  0.31640519  0.15820260  0.25000000  1
loop_
_geom_bond_atom_site_label_1
_geom_bond_atom_site_label_2
_geom_bond_distance
_geom_bond_site_symmetry_2
La0 Mg3 3.358212 1_556
La0 Mg3 3.358212 1_555
La0 Mg4 3.358216 1_556
La0 Mg5 3.358216 1_555
La0 Mg4 3.358216 1_555
La0 Mg5 3.358216 1_556
La0 Mg2 3.484831 1_655
La0 Mg1 3.484831 1_545
La0 Mg0 3.484834 1_655
La0 Mg0 3.484834 1_545
La0 Mg1 3.484838 1_555
La0 Mg2 3.484838 1_555
La1 Mg0 3.358212 1_554
La1 Mg0 3.358212 1_555
La1 Mg1 3.358216 1_555
La1 Mg1 3.358216 1_554
La1 Mg2 3.358216 1_554
La1 Mg2 3.358216 1_555
La1 Mg5 3.484831 1_565
La1 Mg4 3.484831 1_455
La1 Mg3 3.484834 1_565
La1 Mg3 3.484834 1_455
La1 Mg4 3.484838 1_555
La1 Mg5 3.484838 1_555
Mg0 Mg4 3.233575 1_456
Mg0 Mg5 3.233575 1_565
Mg0 Mg4 3.233575 1_455
Mg0 Mg5 3.233575 1_566
Mg0 Mg1 3.306438 1_455
Mg0 Mg2 3.306438 1_565
Mg1 Mg4 3.233575 1_556
Mg1 Mg4 3.233575 1_555
Mg1 Mg3 3.233575 1_566
Mg1 Mg3 3.233575 1_565
Mg1 Mg2 3.306438 1_665
Mg2 Mg5 3.233575 1_556
Mg2 Mg5 3.233575 1_555
Mg2 Mg3 3.233575 1_456
Mg2 Mg3 3.233575 1_455
Mg3 Mg4 3.306438 1_545
Mg3 Mg5 3.306438 1_655
Mg4 Mg5 3.306438 1_665
