# generated using pymatgen
data_Cs2HgBr4
_symmetry_space_group_name_H-M   'P 1'
_cell_length_a   7.94222200
_cell_length_b   10.92259000
_cell_length_c   16.67023700
_cell_angle_alpha   61.09822102
_cell_angle_beta   90.00000000
_cell_angle_gamma   90.00000000
_symmetry_Int_Tables_number   1
_chemical_formula_structural   Cs2HgBr4
_chemical_formula_sum   'Cs8 Hg4 Br16'
_cell_volume   1266.01991655
_cell_formula_units_Z   4
loop_
 _symmetry_equiv_pos_site_id
 _symmetry_equiv_pos_as_xyz
  1  'x, y, z'
loop_
 _atom_site_type_symbol
 _atom_site_label
 _atom_site_symmetry_multiplicity
 _atom_site_fract_x
 _atom_site_fract_y
 _atom_site_fract_z
 _atom_site_occupancy
  Cs  Cs0  1  0.25447500  0.43736400  0.40194400  1
  Cs  Cs1  1  0.75447500  0.56263600  0.09805600  1
  Cs  Cs2  1  0.74552500  0.56263600  0.59805600  1
  Cs  Cs3  1  0.24552500  0.43736400  0.90194400  1
  Cs  Cs4  1  0.24631500  0.93575500  0.15932000  1
  Cs  Cs5  1  0.74631500  0.06424500  0.34068000  1
  Cs  Cs6  1  0.75368500  0.06424500  0.84068000  1
  Cs  Cs7  1  0.25368500  0.93575500  0.65932000  1
  Hg  Hg0  1  0.25679900  0.80543900  0.95437700  1
  Hg  Hg1  1  0.75679900  0.19456100  0.54562300  1
  Hg  Hg2  1  0.74320100  0.19456100  0.04562300  1
  Hg  Hg3  1  0.24320100  0.80543900  0.45437700  1
  Br  Br0  1  0.99390800  0.75069300  0.87561400  1
  Br  Br1  1  0.49390800  0.24930700  0.62438600  1
  Br  Br2  1  0.00609200  0.24930700  0.12438600  1
  Br  Br3  1  0.50609200  0.75069300  0.37561400  1
  Br  Br4  1  0.51537400  0.74569600  0.87650700  1
  Br  Br5  1  0.01537400  0.25430400  0.62349300  1
  Br  Br6  1  0.48462600  0.25430400  0.12349300  1
  Br  Br7  1  0.98462600  0.74569600  0.37650700  1
  Br  Br8  1  0.24932700  0.62020000  0.13358600  1
  Br  Br9  1  0.74932700  0.37980000  0.36641400  1
  Br  Br10  1  0.75067300  0.37980000  0.86641400  1
  Br  Br11  1  0.25067300  0.62020000  0.63358600  1
  Br  Br12  1  0.25836200  0.07471700  0.90920200  1
  Br  Br13  1  0.75836200  0.92528300  0.59079800  1
  Br  Br14  1  0.74163800  0.92528300  0.09079800  1
  Br  Br15  1  0.24163800  0.07471700  0.40920200  1
loop_
_geom_bond_atom_site_label_1
_geom_bond_atom_site_label_2
_geom_bond_distance
_geom_bond_site_symmetry_2
Br0 Hg0 2.683270 1_655
Br0 Cs6 3.712225 1_565
Br0 Cs1 3.771378 1_556
Br0 Cs7 3.781338 1_655
Br0 Cs3 3.800895 1_655
Br1 Hg1 2.683270 1_555
Br1 Cs7 3.712225 1_545
Br1 Cs0 3.771378 1_555
Br1 Cs6 3.781338 1_555
Br1 Cs2 3.800895 1_555
Br2 Hg2 2.683270 1_455
Br2 Cs4 3.712225 1_545
Br2 Cs3 3.771378 1_554
Br2 Cs5 3.781338 1_455
Br2 Cs1 3.800895 1_455
Br3 Hg3 2.683270 1_555
Br3 Cs5 3.712225 1_565
Br3 Cs2 3.771378 1_555
Br3 Cs4 3.781338 1_555
Br3 Cs0 3.800895 1_555
Br4 Hg0 2.673432 1_555
Br4 Cs6 3.746531 1_565
Br4 Cs1 3.755829 1_556
Br4 Cs7 3.804276 1_555
Br4 Cs3 3.838578 1_555
Br5 Hg1 2.673432 1_455
Br5 Cs7 3.746531 1_545
Br5 Cs0 3.755829 1_555
Br5 Cs6 3.804276 1_455
Br5 Cs2 3.838578 1_455
Br6 Hg2 2.673432 1_555
Br6 Cs4 3.746531 1_545
Br6 Cs3 3.755829 1_554
Br6 Cs5 3.804276 1_555
Br6 Cs1 3.838578 1_555
Br7 Hg3 2.673432 1_655
Br7 Cs5 3.746531 1_565
Br7 Cs2 3.755829 1_555
Br7 Cs4 3.804276 1_655
Br7 Cs0 3.838578 1_655
Br8 Hg0 2.679440 1_554
Br8 Cs4 3.673341 1_555
Br8 Cs0 3.920095 1_555
Br8 Cs1 4.068510 1_455
Br8 Cs1 4.147557 1_555
Br9 Hg1 2.679440 1_555
Br9 Cs5 3.673341 1_555
Br9 Cs1 3.920095 1_555
Br9 Cs0 4.068510 1_555
Br9 Cs0 4.147557 1_655
Br10 Hg2 2.679440 1_556
Br10 Cs6 3.673341 1_555
Br10 Cs2 3.920095 1_555
Br10 Cs3 4.068510 1_655
Br10 Cs3 4.147557 1_555
Br11 Hg3 2.679440 1_555
Br11 Cs7 3.673341 1_555
Br11 Cs3 3.920095 1_555
Br11 Cs2 4.068510 1_555
Br11 Cs2 4.147557 1_455
Br12 Hg0 2.660261 1_545
Br12 Cs4 3.685178 1_546
Br12 Cs3 3.905336 1_555
Br12 Cs6 4.113424 1_555
Br12 Cs6 4.184531 1_455
Br13 Hg1 2.660261 1_565
Br13 Cs5 3.685178 1_565
Br13 Cs2 3.905336 1_555
Br13 Cs7 4.113424 1_655
Br13 Cs7 4.184531 1_555
Br14 Hg2 2.660261 1_565
Br14 Cs6 3.685178 1_564
Br14 Cs1 3.905336 1_555
Br14 Cs4 4.113424 1_555
Br14 Cs4 4.184531 1_655
Br15 Hg3 2.660261 1_545
Br15 Cs7 3.685178 1_545
Br15 Cs0 3.905336 1_555
Br15 Cs5 4.113424 1_455
Br15 Cs5 4.184531 1_555
