# generated using pymatgen
data_Ba3CaIr2O9
_symmetry_space_group_name_H-M   'P 1'
_cell_length_a   5.92938351
_cell_length_b   5.92938351
_cell_length_c   14.59492904
_cell_angle_alpha   89.75470082
_cell_angle_beta   89.75470082
_cell_angle_gamma   119.98556807
_symmetry_Int_Tables_number   1
_chemical_formula_structural   Ba3CaIr2O9
_chemical_formula_sum   'Ba6 Ca2 Ir4 O18'
_cell_volume   444.42545669
_cell_formula_units_Z   2
loop_
 _symmetry_equiv_pos_site_id
 _symmetry_equiv_pos_as_xyz
  1  'x, y, z'
loop_
 _atom_site_type_symbol
 _atom_site_label
 _atom_site_symmetry_multiplicity
 _atom_site_fract_x
 _atom_site_fract_y
 _atom_site_fract_z
 _atom_site_occupancy
  Ba  Ba0  1  0.66829815  0.33467764  0.41239502  1
  Ba  Ba1  1  0.66532236  0.33170185  0.08760498  1
  Ba  Ba2  1  0.00060285  0.99939715  0.25000000  1
  Ba  Ba3  1  0.99939715  0.00060285  0.75000000  1
  Ba  Ba4  1  0.33467764  0.66829815  0.91239502  1
  Ba  Ba5  1  0.33170185  0.66532236  0.58760498  1
  Ca  Ca0  1  -0.00000000  -0.00000000  0.00000000  1
  Ca  Ca1  1  -0.00000000  -0.00000000  0.50000000  1
  Ir  Ir0  1  0.66270114  0.32989339  0.66374991  1
  Ir  Ir1  1  0.67010661  0.33729886  0.83625009  1
  Ir  Ir2  1  0.33729886  0.67010661  0.33625009  1
  Ir  Ir3  1  0.32989339  0.66270114  0.16374991  1
  O  O0  1  0.82793466  0.64953558  0.90900569  1
  O  O1  1  0.35046442  0.17206534  0.59099431  1
  O  O2  1  0.17206534  0.35046442  0.09099431  1
  O  O3  1  0.64953558  0.82793466  0.40900569  1
  O  O4  1  0.36533495  0.18661280  0.91419655  1
  O  O5  1  0.81338720  0.63466505  0.58580345  1
  O  O6  1  0.63466505  0.81338720  0.08580345  1
  O  O7  1  0.18661280  0.36533495  0.41419655  1
  O  O8  1  0.82806748  0.18666066  0.91172396  1
  O  O9  1  0.81333934  0.17193252  0.58827604  1
  O  O10  1  0.17193252  0.81333934  0.08827604  1
  O  O11  1  0.18666066  0.82806748  0.41172396  1
  O  O12  1  0.49027729  0.50972271  0.25000000  1
  O  O13  1  0.50972271  0.49027729  0.75000000  1
  O  O14  1  0.02031056  0.50996957  0.25257199  1
  O  O15  1  0.49003043  0.97968944  0.24742801  1
  O  O16  1  0.97968944  0.49003043  0.74742801  1
  O  O17  1  0.50996957  0.02031056  0.75257199  1
loop_
_geom_bond_atom_site_label_1
_geom_bond_atom_site_label_2
_geom_bond_distance
_geom_bond_site_symmetry_2
Ba0 O11 2.933393 1_545
Ba0 O14 2.940565 1_655
Ba0 O7 2.951165 1_555
Ba0 O3 2.951285 1_545
Ba0 O5 2.972712 1_555
Ba0 O3 2.982079 1_555
Ba0 O12 2.984038 1_555
Ba0 O7 2.986828 1_655
Ba0 O11 3.002859 1_655
Ba0 O9 3.014523 1_555
Ba0 O15 3.030831 1_545
Ba0 O1 3.065282 1_555
Ba1 O10 2.933393 1_655
Ba1 O15 2.940565 1_545
Ba1 O6 2.951165 1_555
Ba1 O2 2.951285 1_655
Ba1 O4 2.972712 1_554
Ba1 O2 2.982079 1_555
Ba1 O12 2.984038 1_555
Ba1 O6 2.986828 1_545
Ba1 O10 3.002859 1_545
Ba1 O8 3.014523 1_554
Ba1 O14 3.030831 1_655
Ba1 O0 3.065282 1_554
Ba2 O2 2.928364 1_565
Ba2 O3 2.928364 1_455
Ba2 O14 2.962222 1_555
Ba2 O15 2.962222 1_555
Ba2 O12 2.967234 1_565
Ba2 O12 2.967234 1_455
Ba2 O14 2.971110 1_565
Ba2 O15 2.971110 1_455
Ba2 O11 2.990373 1_555
Ba2 O10 2.990373 1_555
Ba2 O6 3.056536 1_455
Ba2 O7 3.056536 1_565
Ba3 O1 2.928364 1_655
Ba3 O0 2.928364 1_545
Ba3 O16 2.962222 1_555
Ba3 O17 2.962222 1_555
Ba3 O13 2.967234 1_545
Ba3 O13 2.967234 1_655
Ba3 O17 2.971110 1_655
Ba3 O16 2.971110 1_545
Ba3 O8 2.990373 1_555
Ba3 O9 2.990373 1_555
Ba3 O5 3.056536 1_545
Ba3 O4 3.056536 1_655
Ba4 O8 2.933393 1_455
Ba4 O17 2.940565 1_565
Ba4 O4 2.951165 1_555
Ba4 O0 2.951285 1_455
Ba4 O6 2.972712 1_556
Ba4 O0 2.982079 1_555
Ba4 O13 2.984038 1_555
Ba4 O4 2.986828 1_565
Ba4 O8 3.002859 1_565
Ba4 O10 3.014523 1_556
Ba4 O16 3.030831 1_455
Ba4 O2 3.065282 1_556
Ba5 O9 2.933393 1_565
Ba5 O16 2.940565 1_455
Ba5 O5 2.951165 1_555
Ba5 O1 2.951285 1_565
Ba5 O7 2.972712 1_555
Ba5 O1 2.982079 1_555
Ba5 O13 2.984038 1_555
Ba5 O5 2.986828 1_455
Ba5 O9 3.002859 1_455
Ba5 O11 3.014523 1_555
Ba5 O17 3.030831 1_565
Ba5 O3 3.065282 1_555
Ca0 O2 2.244754 1_555
Ca0 O0 2.244754 1_444
Ca0 O8 2.247452 1_454
Ca0 O10 2.247452 1_545
Ca0 O6 2.248132 1_445
Ca0 O4 2.248132 1_554
Ca1 O3 2.244754 1_445
Ca1 O1 2.244754 1_555
Ca1 O11 2.247452 1_545
Ca1 O9 2.247452 1_455
Ca1 O7 2.248132 1_555
Ca1 O5 2.248132 1_445
Ir0 O5 1.928190 1_555
Ir0 O1 1.929879 1_555
Ir0 O9 1.930033 1_555
Ir0 O16 2.042423 1_555
Ir0 O13 2.043145 1_555
Ir0 O17 2.044051 1_555
Ir1 O4 1.928190 1_555
Ir1 O0 1.929879 1_555
Ir1 O8 1.930033 1_555
Ir1 O17 2.042423 1_555
Ir1 O13 2.043145 1_555
Ir1 O16 2.044051 1_555
Ir2 O7 1.928190 1_555
Ir2 O3 1.929879 1_555
Ir2 O11 1.930033 1_555
Ir2 O14 2.042423 1_555
Ir2 O12 2.043145 1_555
Ir2 O15 2.044051 1_555
Ir3 O6 1.928190 1_555
Ir3 O2 1.929879 1_555
Ir3 O10 1.930033 1_555
Ir3 O15 2.042423 1_555
Ir3 O12 2.043145 1_555
Ir3 O14 2.044051 1_555
