# generated using pymatgen
data_NdTlZn
_symmetry_space_group_name_H-M   'P 1'
_cell_length_a   4.70989013
_cell_length_b   4.71056898
_cell_length_c   7.70936014
_cell_angle_alpha   90.00000000
_cell_angle_beta   90.00000000
_cell_angle_gamma   119.99523298
_symmetry_Int_Tables_number   1
_chemical_formula_structural   NdTlZn
_chemical_formula_sum   'Nd2 Tl2 Zn2'
_cell_volume   148.13373378
_cell_formula_units_Z   2
loop_
 _symmetry_equiv_pos_site_id
 _symmetry_equiv_pos_as_xyz
  1  'x, y, z'
loop_
 _atom_site_type_symbol
 _atom_site_label
 _atom_site_symmetry_multiplicity
 _atom_site_fract_x
 _atom_site_fract_y
 _atom_site_fract_z
 _atom_site_occupancy
  Nd  Nd0  1  0.00000000  -0.00000000  0.50000000  1
  Nd  Nd1  1  0.00000000  0.00000000  0.00000000  1
  Tl  Tl0  1  0.33350267  0.66700534  0.25000000  1
  Tl  Tl1  1  0.66649733  0.33299466  0.75000000  1
  Zn  Zn0  1  0.33319655  0.66639210  0.75000000  1
  Zn  Zn1  1  0.66680345  0.33360790  0.25000000  1
loop_
_geom_bond_atom_site_label_1
_geom_bond_atom_site_label_2
_geom_bond_distance
_geom_bond_site_symmetry_2
Nd0 Zn0 3.332528 1_555
Nd0 Zn1 3.332528 1_445
Nd0 Tl1 3.332559 1_555
Nd0 Tl0 3.332559 1_445
Nd0 Tl0 3.332559 1_545
Nd0 Tl1 3.332559 1_455
Nd0 Zn0 3.333578 1_445
Nd0 Zn1 3.333578 1_555
Nd0 Zn1 3.333581 1_455
Nd0 Zn0 3.333581 1_545
Nd0 Tl1 3.334570 1_445
Nd0 Tl0 3.334570 1_555
Nd1 Zn0 3.332528 1_554
Nd1 Zn1 3.332528 1_445
Nd1 Tl0 3.332559 1_445
Nd1 Tl1 3.332559 1_554
Nd1 Tl0 3.332559 1_545
Nd1 Tl1 3.332559 1_454
Nd1 Zn0 3.333578 1_444
Nd1 Zn1 3.333578 1_555
Nd1 Zn1 3.333581 1_455
Nd1 Zn0 3.333581 1_544
Nd1 Tl1 3.334570 1_444
Nd1 Tl0 3.334570 1_555
Tl0 Zn1 2.719516 1_555
Tl0 Zn1 2.719517 1_565
Tl0 Zn1 2.719520 1_455
Tl1 Zn0 2.719516 1_555
Tl1 Zn0 2.719517 1_545
Tl1 Zn0 2.719520 1_655
