# generated using pymatgen
data_Er(TiGa2)2
_symmetry_space_group_name_H-M   'P 1'
_cell_length_a   5.41519867
_cell_length_b   5.45377303
_cell_length_c   5.45377303
_cell_angle_alpha   75.73091683
_cell_angle_beta   60.23368770
_cell_angle_gamma   60.23369740
_symmetry_Int_Tables_number   1
_chemical_formula_structural   Er(TiGa2)2
_chemical_formula_sum   'Er1 Ti2 Ga4'
_cell_volume   121.36837819
_cell_formula_units_Z   1
loop_
 _symmetry_equiv_pos_site_id
 _symmetry_equiv_pos_as_xyz
  1  'x, y, z'
loop_
 _atom_site_type_symbol
 _atom_site_label
 _atom_site_symmetry_multiplicity
 _atom_site_fract_x
 _atom_site_fract_y
 _atom_site_fract_z
 _atom_site_occupancy
  Er  Er0  1  -0.00000000  0.00000000  0.00000000  1
  Ti  Ti0  1  0.75000000  0.50000000  0.50000000  1
  Ti  Ti1  1  0.25000000  0.50000000  0.50000000  1
  Ga  Ga0  1  0.69700840  0.60598421  0.00000000  1
  Ga  Ga1  1  0.30299160  0.39401579  -0.00000000  1
  Ga  Ga2  1  0.69700840  -0.00000000  0.60598421  1
  Ga  Ga3  1  0.30299160  0.00000000  0.39401579  1
loop_
_geom_bond_atom_site_label_1
_geom_bond_atom_site_label_2
_geom_bond_distance
_geom_bond_site_symmetry_2
Er0 Ga3 2.868844 1_554
Er0 Ga2 2.868844 1_455
Er0 Ga1 2.868844 1_545
Er0 Ga0 2.868844 1_455
Er0 Ga0 3.287947 1_445
Er0 Ga1 3.287947 1_555
Er0 Ga2 3.287947 1_454
Er0 Ga3 3.287947 1_555
Er0 Ga2 3.287951 1_554
Er0 Ga3 3.287951 1_455
Er0 Ga1 3.287951 1_455
Er0 Ga0 3.287951 1_545
Ti0 Ti1 2.707599 1_555
Ti0 Ti1 2.707599 1_655
Ga0 Ga2 2.637996 1_564
Ga0 Ga3 2.637996 1_565
Ga0 Ti1 2.772662 1_654
Ga0 Ti0 2.772662 1_555
Ga0 Ti1 2.772664 1_555
Ga0 Ti0 2.772665 1_554
Ga0 Ga1 2.887572 1_655
Ga0 Ga1 2.887583 1_555
Ga1 Ga3 2.637996 1_555
Ga1 Ga2 2.637996 1_554
Ga1 Ti0 2.772662 1_455
Ga1 Ti1 2.772662 1_554
Ga1 Ti0 2.772664 1_554
Ga1 Ti1 2.772665 1_555
Ga2 Ti1 2.772662 1_645
Ga2 Ti0 2.772662 1_555
Ga2 Ti0 2.772665 1_545
Ga2 Ti1 2.772665 1_555
Ga2 Ga3 2.887572 1_655
Ga2 Ga3 2.887583 1_555
Ga3 Ti1 2.772662 1_545
Ga3 Ti0 2.772662 1_455
Ga3 Ti1 2.772665 1_555
Ga3 Ti0 2.772665 1_545
