# generated using pymatgen
data_Tb4MgNi
_symmetry_space_group_name_H-M   'P 1'
_cell_length_a   9.63018571
_cell_length_b   9.63016837
_cell_length_c   9.63017072
_cell_angle_alpha   60.00019140
_cell_angle_beta   60.00030497
_cell_angle_gamma   60.00031547
_symmetry_Int_Tables_number   1
_chemical_formula_structural   Tb4MgNi
_chemical_formula_sum   'Tb16 Mg4 Ni4'
_cell_volume   631.52448813
_cell_formula_units_Z   4
loop_
 _symmetry_equiv_pos_site_id
 _symmetry_equiv_pos_as_xyz
  1  'x, y, z'
loop_
 _atom_site_type_symbol
 _atom_site_label
 _atom_site_symmetry_multiplicity
 _atom_site_fract_x
 _atom_site_fract_y
 _atom_site_fract_z
 _atom_site_occupancy
  Tb  Tb0  1  0.18546376  0.81453368  0.81453413  1
  Tb  Tb1  1  0.81453493  0.18546172  0.18546231  1
  Tb  Tb2  1  0.81453639  0.18546081  0.81453300  1
  Tb  Tb3  1  0.18546450  0.81453243  0.18546144  1
  Tb  Tb4  1  0.81453648  0.81453260  0.18546093  1
  Tb  Tb5  1  0.18546439  0.18546141  0.81453269  1
  Tb  Tb6  1  0.06209201  0.43790548  0.43790554  1
  Tb  Tb7  1  0.43790830  0.06209218  0.06209219  1
  Tb  Tb8  1  0.43790664  0.06208724  0.43790649  1
  Tb  Tb9  1  0.06209658  0.43790691  0.06208984  1
  Tb  Tb10  1  0.43790668  0.43790658  0.06208783  1
  Tb  Tb11  1  0.06209643  0.06208926  0.43790688  1
  Tb  Tb12  1  0.59593758  0.59594220  0.59594215  1
  Tb  Tb13  1  0.59593681  0.59594138  0.21218671  1
  Tb  Tb14  1  0.59593672  0.21218707  0.59594142  1
  Tb  Tb15  1  0.21218443  0.59594089  0.59594075  1
  Mg  Mg0  1  0.82917773  0.82917579  0.82917552  1
  Mg  Mg1  1  0.82917549  0.82917320  0.51246958  1
  Mg  Mg2  1  0.82917587  0.51246912  0.82917366  1
  Mg  Mg3  1  0.51247079  0.82917329  0.82917393  1
  Ni  Ni0  1  0.39185175  0.39186135  0.39186242  1
  Ni  Ni1  1  0.39185951  0.39187096  0.82442446  1
  Ni  Ni2  1  0.39186088  0.82442429  0.39186956  1
  Ni  Ni3  1  0.82442533  0.39186716  0.39186555  1
loop_
_geom_bond_atom_site_label_1
_geom_bond_atom_site_label_2
_geom_bond_distance
_geom_bond_site_symmetry_2
Tb0 Tb15 3.503856 1_555
Tb0 Tb12 3.503914 1_555
Tb0 Tb3 3.572091 1_556
Tb0 Tb5 3.572093 1_565
Tb0 Tb4 3.572110 1_456
Tb0 Tb2 3.572112 1_465
Tb0 Tb9 3.616619 1_556
Tb0 Tb11 3.616624 1_565
Tb0 Tb10 3.616640 1_556
Tb0 Tb8 3.616641 1_565
Tb1 Tb14 3.503999 1_555
Tb1 Tb13 3.504000 1_555
Tb1 Tb4 3.572109 1_545
Tb1 Tb2 3.572110 1_554
Tb1 Tb3 3.572133 1_645
Tb1 Tb5 3.572134 1_654
Tb1 Tb8 3.616673 1_555
Tb1 Tb10 3.616674 1_555
Tb1 Tb11 3.616696 1_655
Tb1 Tb9 3.616701 1_655
Tb2 Tb5 3.572107 1_655
Tb2 Tb4 3.572111 1_546
Tb2 Tb7 3.616643 1_556
Tb2 Tb6 3.616658 1_655
Tb3 Tb4 3.572107 1_455
Tb3 Tb5 3.572118 1_564
Tb3 Tb6 3.616646 1_555
Tb3 Tb7 3.616685 1_565
Tb4 Tb9 3.616634 1_655
Tb4 Tb7 3.616645 1_565
Tb4 Tb6 3.616657 1_655
Tb4 Tb8 3.616673 1_565
Tb5 Tb6 3.616648 1_555
Tb5 Tb8 3.616654 1_555
Tb5 Tb9 3.616683 1_556
Tb5 Tb7 3.616685 1_556
Tb10 Tb3 3.616648 1_555
Tb10 Tb2 3.616675 1_554
Tb11 Tb2 3.616640 1_455
Tb11 Tb3 3.616679 1_545
Tb12 Tb4 3.503962 1_555
Tb12 Tb2 3.503964 1_555
Tb13 Tb4 3.503870 1_555
Tb13 Tb3 3.503947 1_555
Tb14 Tb2 3.503871 1_555
Tb14 Tb5 3.503948 1_555
Tb15 Tb3 3.503978 1_555
Tb15 Tb5 3.503979 1_555
Mg0 Mg1 3.049956 1_555
Mg0 Mg2 3.049956 1_555
Mg0 Mg3 3.049966 1_555
Mg0 Tb2 3.296119 1_565
Mg0 Tb4 3.296121 1_556
Mg0 Tb0 3.296137 1_655
Mg0 Tb15 3.488596 1_655
Mg0 Tb14 3.488630 1_565
Mg0 Tb13 3.488630 1_556
Mg0 Tb11 3.519643 1_665
Mg0 Tb9 3.519649 1_656
Mg0 Tb7 3.519659 1_566
Mg1 Mg2 3.049923 1_555
Mg1 Mg3 3.049935 1_555
Mg1 Tb4 3.296168 1_555
Mg1 Tb1 3.296173 1_565
Mg1 Tb3 3.296189 1_655
Mg1 Tb12 3.488531 1_555
Mg1 Tb15 3.488643 1_655
Mg1 Tb14 3.488683 1_565
Mg1 Tb6 3.519636 1_655
Mg1 Tb8 3.519645 1_565
Mg1 Tb11 3.519673 1_665
Mg2 Mg3 3.049936 1_555
Mg2 Tb2 3.296166 1_555
Mg2 Tb1 3.296174 1_556
Mg2 Tb5 3.296184 1_655
Mg2 Tb12 3.488537 1_555
Mg2 Tb15 3.488642 1_655
Mg2 Tb13 3.488678 1_556
Mg2 Tb6 3.519638 1_655
Mg2 Tb10 3.519645 1_556
Mg2 Tb9 3.519675 1_656
Mg3 Tb0 3.296156 1_555
Mg3 Tb3 3.296171 1_556
Mg3 Tb5 3.296175 1_565
Mg3 Tb12 3.488505 1_555
Mg3 Tb13 3.488645 1_556
Mg3 Tb14 3.488652 1_565
Mg3 Tb10 3.519622 1_556
Mg3 Tb8 3.519630 1_565
Mg3 Tb7 3.519675 1_566
Ni0 Tb15 2.789306 1_555
Ni0 Tb14 2.789343 1_555
Ni0 Tb13 2.789349 1_555
Ni0 Tb6 2.803280 1_555
Ni0 Tb8 2.803371 1_555
Ni0 Tb10 2.803373 1_555
Ni0 Tb5 3.498460 1_555
Ni0 Tb3 3.498467 1_555
Ni0 Tb1 3.498576 1_555
Ni1 Tb12 2.789245 1_555
Ni1 Tb15 2.789306 1_555
Ni1 Tb14 2.789360 1_555
Ni1 Tb10 2.803155 1_556
Ni1 Tb9 2.803285 1_556
Ni1 Tb7 2.803382 1_556
Ni1 Tb0 3.498375 1_555
Ni1 Tb2 3.498497 1_555
Ni1 Tb5 3.498639 1_555
Ni2 Tb12 2.789245 1_555
Ni2 Tb15 2.789311 1_555
Ni2 Tb13 2.789352 1_555
Ni2 Tb8 2.803150 1_565
Ni2 Tb11 2.803293 1_565
Ni2 Tb7 2.803374 1_565
Ni2 Tb0 3.498390 1_555
Ni2 Tb4 3.498485 1_555
Ni2 Tb3 3.498638 1_555
Ni3 Tb12 2.789268 1_555
Ni3 Tb13 2.789366 1_555
Ni3 Tb14 2.789374 1_555
Ni3 Tb6 2.803161 1_655
Ni3 Tb9 2.803379 1_655
Ni3 Tb11 2.803392 1_655
Ni3 Tb4 3.498398 1_555
Ni3 Tb2 3.498415 1_555
Ni3 Tb1 3.498664 1_555
