# generated using pymatgen
data_PrN2
_symmetry_space_group_name_H-M   'P 1'
_cell_length_a   4.99056886
_cell_length_b   6.68238795
_cell_length_c   6.25679084
_cell_angle_alpha   65.62408531
_cell_angle_beta   90.00663788
_cell_angle_gamma   111.94186825
_symmetry_Int_Tables_number   1
_chemical_formula_structural   PrN2
_chemical_formula_sum   'Pr3 N6'
_cell_volume   173.33255144
_cell_formula_units_Z   3
loop_
 _symmetry_equiv_pos_site_id
 _symmetry_equiv_pos_as_xyz
  1  'x, y, z'
loop_
 _atom_site_type_symbol
 _atom_site_label
 _atom_site_symmetry_multiplicity
 _atom_site_fract_x
 _atom_site_fract_y
 _atom_site_fract_z
 _atom_site_occupancy
  Pr  Pr0  1  0.63911000  0.27896100  0.07351100  1
  Pr  Pr1  1  0.82359000  0.64680000  0.47515900  1
  Pr  Pr2  1  0.41706400  0.83363000  0.82965300  1
  N  N0  1  0.84626600  0.69233000  0.81755000  1
  N  N1  1  0.38326500  0.76569500  0.26392900  1
  N  N2  1  0.17957700  0.35963500  0.11843300  1
  N  N3  1  0.62070800  0.24176900  0.73061000  1
  N  N4  1  0.39573900  0.79101000  0.45152800  1
  N  N5  1  0.07213100  0.14516900  0.19547600  1
loop_
_geom_bond_atom_site_label_1
_geom_bond_atom_site_label_2
_geom_bond_distance
_geom_bond_site_symmetry_2
N0 Pr1 2.281866 1_555
N0 Pr0 2.340610 1_556
N0 Pr2 2.656279 1_555
N0 Pr2 2.657200 1_655
N1 N4 1.251493 1_555
N1 Pr2 2.557784 1_554
N1 Pr1 2.764806 1_555
N1 Pr1 2.766767 1_455
N1 Pr0 2.857984 1_565
N2 N5 1.195535 1_555
N2 Pr0 2.584213 1_555
N2 Pr0 2.585139 1_455
N2 Pr2 2.678222 1_554
N3 Pr0 2.257484 1_556
N3 Pr1 2.299315 1_555
N3 Pr2 2.321398 1_545
N4 Pr2 2.494625 1_555
N4 Pr1 2.632424 1_455
N4 Pr1 2.632439 1_555
N4 Pr0 2.894195 1_565
N5 Pr0 2.632872 1_455
N5 Pr0 2.633395 1_555
N5 Pr1 2.791873 1_445
