# generated using pymatgen
data_TbH9C5(NO4)2
_symmetry_space_group_name_H-M   'P 1'
_cell_length_a   6.73841129
_cell_length_b   6.73841129
_cell_length_c   6.68019460
_cell_angle_alpha   75.43664904
_cell_angle_beta   75.43664904
_cell_angle_gamma   65.70805318
_symmetry_Int_Tables_number   1
_chemical_formula_structural   TbH9C5(NO4)2
_chemical_formula_sum   'Tb1 H9 C5 N2 O8'
_cell_volume   263.79063453
_cell_formula_units_Z   1
loop_
 _symmetry_equiv_pos_site_id
 _symmetry_equiv_pos_as_xyz
  1  'x, y, z'
loop_
 _atom_site_type_symbol
 _atom_site_label
 _atom_site_symmetry_multiplicity
 _atom_site_fract_x
 _atom_site_fract_y
 _atom_site_fract_z
 _atom_site_occupancy
  Tb  Tb0  1  0.51589000  0.48411000  0.00000000  1
  H  H0  1  0.15855300  0.28282800  0.42136600  1
  H  H1  1  0.71717200  0.84144700  0.57863400  1
  H  H2  1  0.24963800  0.00138400  0.54018500  1
  H  H3  1  0.99861600  0.75036200  0.45981500  1
  H  H4  1  0.97893800  0.04569400  0.81828100  1
  H  H5  1  0.95430600  0.02106200  0.18171900  1
  H  H6  1  0.34639000  0.02884600  0.11957800  1
  H  H7  1  0.97115400  0.65361000  0.88042200  1
  H  H8  1  0.59708900  0.40291100  0.50000000  1
  C  C0  1  0.97902300  0.19682700  0.70605500  1
  C  C1  1  0.80317300  0.02097700  0.29394500  1
  C  C2  1  0.45618700  0.01638300  0.96448900  1
  C  C3  1  0.98361700  0.54381300  0.03551100  1
  C  C4  1  0.44661800  0.55338200  0.50000000  1
  N  N0  1  0.14214400  0.16050300  0.54357900  1
  N  N1  1  0.83949700  0.85785600  0.45642100  1
  O  O0  1  0.83489400  0.38192700  0.73678400  1
  O  O1  1  0.61807300  0.16510600  0.26321600  1
  O  O2  1  0.50234500  0.84537900  0.88609000  1
  O  O3  1  0.15462100  0.49765500  0.11391000  1
  O  O4  1  0.37034400  0.63991500  0.66605400  1
  O  O5  1  0.36008500  0.62965600  0.33394600  1
  O  O6  1  0.83017400  0.47424300  0.12199100  1
  O  O7  1  0.52575700  0.16982600  0.87800900  1
loop_
_geom_bond_atom_site_label_1
_geom_bond_atom_site_label_2
_geom_bond_distance
_geom_bond_site_symmetry_2
H0 N0 1.024375 1_555
H1 N1 1.024375 1_555
H2 N0 1.019696 1_555
H3 N1 1.019696 1_555
C0 H4 1.102487 1_555
C0 O0 1.254155 1_555
C0 N0 1.326048 1_655
C1 H5 1.102487 1_555
C1 O1 1.254155 1_555
C1 N1 1.326048 1_545
C2 H6 1.111280 1_556
C2 O7 1.258889 1_555
C2 O2 1.274950 1_545
C3 H7 1.111280 1_554
C3 O6 1.258889 1_555
C3 O3 1.274950 1_655
C4 H8 1.100121 1_555
C4 O4 1.275396 1_555
C4 O5 1.275396 1_555
O0 Tb0 2.382607 1_556
O1 Tb0 2.382607 1_555
O2 Tb0 2.331115 1_556
O3 Tb0 2.331115 1_555
O4 Tb0 2.473045 1_556
O5 Tb0 2.473045 1_555
O6 Tb0 2.424523 1_555
O7 Tb0 2.424523 1_556
