# generated using pymatgen
data_LaPS
_symmetry_space_group_name_H-M   'P 1'
_cell_length_a   5.63159309
_cell_length_b   5.73347878
_cell_length_c   17.32981077
_cell_angle_alpha   90.00000000
_cell_angle_beta   90.00000000
_cell_angle_gamma   90.00000000
_symmetry_Int_Tables_number   1
_chemical_formula_structural   LaPS
_chemical_formula_sum   'La8 P8 S8'
_cell_volume   559.55566560
_cell_formula_units_Z   8
loop_
 _symmetry_equiv_pos_site_id
 _symmetry_equiv_pos_as_xyz
  1  'x, y, z'
loop_
 _atom_site_type_symbol
 _atom_site_label
 _atom_site_symmetry_multiplicity
 _atom_site_fract_x
 _atom_site_fract_y
 _atom_site_fract_z
 _atom_site_occupancy
  La  La0  1  0.25000000  0.48369656  0.36243878  1
  La  La1  1  0.25000000  0.98369656  0.13756122  1
  La  La2  1  0.75000000  0.51630344  0.63756122  1
  La  La3  1  0.75000000  0.01630344  0.86243878  1
  La  La4  1  0.25000000  0.01727196  0.64968786  1
  La  La5  1  0.25000000  0.51727196  0.85031214  1
  La  La6  1  0.75000000  0.98272804  0.35031214  1
  La  La7  1  0.75000000  0.48272804  0.14968786  1
  P  P0  1  0.05023569  0.31272332  0.99686608  1
  P  P1  1  0.44976431  0.81272332  0.50313392  1
  P  P2  1  0.55023569  0.68727668  0.00313392  1
  P  P3  1  0.94976431  0.18727668  0.49686608  1
  P  P4  1  0.94976431  0.68727668  0.00313392  1
  P  P5  1  0.55023569  0.18727668  0.49686608  1
  P  P6  1  0.44976431  0.31272332  0.99686608  1
  P  P7  1  0.05023569  0.81272332  0.50313392  1
  S  S0  1  0.25000000  0.48558764  0.18896020  1
  S  S1  1  0.25000000  0.98558764  0.31103980  1
  S  S2  1  0.75000000  0.51441236  0.81103980  1
  S  S3  1  0.75000000  0.01441236  0.68896020  1
  S  S4  1  0.25000000  0.01256633  0.81978264  1
  S  S5  1  0.25000000  0.51256633  0.68021736  1
  S  S6  1  0.75000000  0.98743367  0.18021736  1
  S  S7  1  0.75000000  0.48743367  0.31978264  1
loop_
_geom_bond_atom_site_label_1
_geom_bond_atom_site_label_2
_geom_bond_distance
_geom_bond_site_symmetry_2
La0 S7 2.911292 1_555
La0 S7 2.911292 1_455
La0 S1 2.991581 1_545
La0 S0 3.006371 1_555
La0 S1 3.012289 1_555
La0 P7 3.281659 1_555
La0 P1 3.281659 1_555
La0 P3 3.342786 1_455
La0 P5 3.342786 1_555
La1 S6 2.911292 1_455
La1 S6 2.911292 1_555
La1 S0 2.991581 1_555
La1 S1 3.006371 1_555
La1 S0 3.012289 1_565
La1 P6 3.281659 1_564
La1 P0 3.281659 1_564
La1 P4 3.342786 1_455
La1 P2 3.342786 1_555
La2 S5 2.911292 1_555
La2 S5 2.911292 1_655
La2 S3 2.991581 1_565
La2 S2 3.006371 1_555
La2 S3 3.012289 1_555
La2 P5 3.281659 1_555
La2 P3 3.281659 1_555
La2 P7 3.342786 1_655
La2 P1 3.342786 1_555
La3 S4 2.911292 1_555
La3 S4 2.911292 1_655
La3 S2 2.991581 1_555
La3 S3 3.006371 1_555
La3 S2 3.012289 1_545
La3 P2 3.281659 1_546
La3 P4 3.281659 1_546
La3 P6 3.342786 1_555
La3 P0 3.342786 1_655
La4 S5 2.888624 1_555
La4 S3 2.896924 1_455
La4 S3 2.896924 1_555
La4 S5 2.941687 1_545
La4 S4 2.947834 1_555
La4 P7 3.015186 1_545
La4 P1 3.015186 1_545
La4 P5 3.289799 1_555
La4 P3 3.289799 1_455
La5 S4 2.888624 1_565
La5 S2 2.896924 1_555
La5 S2 2.896924 1_455
La5 S4 2.941687 1_555
La5 S5 2.947834 1_555
La5 P6 3.015186 1_555
La5 P0 3.015186 1_555
La5 P2 3.289799 1_556
La5 P4 3.289799 1_456
La6 S7 2.888624 1_555
La6 S1 2.896924 1_555
La6 S1 2.896924 1_655
La6 S7 2.941687 1_565
La6 S6 2.947834 1_555
La6 P5 3.015186 1_565
La6 P3 3.015186 1_565
La6 P1 3.289799 1_555
La6 P7 3.289799 1_655
La7 S6 2.888624 1_545
La7 S0 2.896924 1_555
La7 S0 2.896924 1_655
La7 S6 2.941687 1_555
La7 S7 2.947834 1_555
La7 P2 3.015186 1_555
La7 P4 3.015186 1_555
La7 P0 3.289799 1_654
La7 P6 3.289799 1_554
P0 P4 2.223437 1_456
P0 P6 2.249983 1_555
P1 P5 2.223437 1_565
P1 P7 2.249983 1_555
P2 P6 2.223437 1_554
P2 P4 2.249983 1_555
P3 P7 2.223437 1_645
P3 P5 2.249983 1_555
