# generated using pymatgen
data_GaPt
_symmetry_space_group_name_H-M   'P 1'
_cell_length_a   4.92186618
_cell_length_b   4.92186618
_cell_length_c   4.92186618
_cell_angle_alpha   90.00000000
_cell_angle_beta   90.00000000
_cell_angle_gamma   90.00000000
_symmetry_Int_Tables_number   1
_chemical_formula_structural   GaPt
_chemical_formula_sum   'Ga4 Pt4'
_cell_volume   119.23105991
_cell_formula_units_Z   4
loop_
 _symmetry_equiv_pos_site_id
 _symmetry_equiv_pos_as_xyz
  1  'x, y, z'
loop_
 _atom_site_type_symbol
 _atom_site_label
 _atom_site_symmetry_multiplicity
 _atom_site_fract_x
 _atom_site_fract_y
 _atom_site_fract_z
 _atom_site_occupancy
  Ga  Ga0  1  0.09297790  0.09297790  0.09297790  1
  Ga  Ga1  1  0.40702210  0.90702210  0.59297790  1
  Ga  Ga2  1  0.90702210  0.59297790  0.40702210  1
  Ga  Ga3  1  0.59297790  0.40702210  0.90702210  1
  Pt  Pt0  1  0.39943358  0.39943358  0.39943358  1
  Pt  Pt1  1  0.10056642  0.60056642  0.89943358  1
  Pt  Pt2  1  0.60056642  0.89943358  0.10056642  1
  Pt  Pt3  1  0.89943358  0.10056642  0.60056642  1
loop_
_geom_bond_atom_site_label_1
_geom_bond_atom_site_label_2
_geom_bond_distance
_geom_bond_site_symmetry_2
Ga0 Pt1 2.604342 1_544
Ga0 Pt2 2.604342 1_445
Ga0 Pt3 2.604342 1_454
Ga0 Pt0 2.612511 1_555
Ga0 Pt1 2.673996 1_554
Ga0 Pt2 2.673996 1_545
Ga0 Pt3 2.673996 1_455
Ga1 Pt2 2.604342 1_555
Ga1 Pt3 2.604342 1_565
Ga1 Pt0 2.604342 1_565
Ga1 Pt1 2.612511 1_555
Ga1 Pt0 2.673996 1_555
Ga1 Pt2 2.673996 1_556
Ga1 Pt3 2.673996 1_465
Ga2 Pt3 2.604342 1_555
Ga2 Pt1 2.604342 1_655
Ga2 Pt0 2.604342 1_655
Ga2 Pt2 2.612511 1_555
Ga2 Pt0 2.673996 1_555
Ga2 Pt3 2.673996 1_565
Ga2 Pt1 2.673996 1_654
Ga3 Pt1 2.604342 1_555
Ga3 Pt2 2.604342 1_556
Ga3 Pt0 2.604342 1_556
Ga3 Pt3 2.612511 1_555
Ga3 Pt0 2.673996 1_555
Ga3 Pt1 2.673996 1_655
Ga3 Pt2 2.673996 1_546
