# generated using pymatgen
data_Pr2B5
_symmetry_space_group_name_H-M   'P 1'
_cell_length_a   7.34059541
_cell_length_b   7.37745900
_cell_length_c   8.50486814
_cell_angle_alpha   107.89692660
_cell_angle_beta   115.56613592
_cell_angle_gamma   90.00000336
_symmetry_Int_Tables_number   1
_chemical_formula_structural   Pr2B5
_chemical_formula_sum   'Pr8 B20'
_cell_volume   390.63254903
_cell_formula_units_Z   4
loop_
 _symmetry_equiv_pos_site_id
 _symmetry_equiv_pos_as_xyz
  1  'x, y, z'
loop_
 _atom_site_type_symbol
 _atom_site_label
 _atom_site_symmetry_multiplicity
 _atom_site_fract_x
 _atom_site_fract_y
 _atom_site_fract_z
 _atom_site_occupancy
  Pr  Pr0  1  0.81765533  0.77908917  0.76349919  1
  Pr  Pr1  1  0.05415514  0.72091083  0.23650081  1
  Pr  Pr2  1  0.18234467  0.22091083  0.23650081  1
  Pr  Pr3  1  0.94584486  0.27908917  0.76349919  1
  Pr  Pr4  1  0.30934466  0.90752470  0.76398256  1
  Pr  Pr5  1  0.54536210  0.59247530  0.23601744  1
  Pr  Pr6  1  0.69065534  0.09247530  0.23601744  1
  Pr  Pr7  1  0.45463790  0.40752470  0.76398256  1
  B  B0  1  0.28849857  0.84783812  0.08762654  1
  B  B1  1  0.20087104  0.65216188  0.91237346  1
  B  B2  1  0.71150143  0.15216188  0.91237346  1
  B  B3  1  0.79912896  0.34783812  0.08762654  1
  B  B4  1  0.09386652  0.09367611  0.50092556  1
  B  B5  1  0.59293996  0.40632389  0.49907444  1
  B  B6  1  0.90613348  0.90632389  0.49907444  1
  B  B7  1  0.40706004  0.59367611  0.50092556  1
  B  B8  1  0.53908291  0.16955576  0.49775054  1
  B  B9  1  0.04133437  0.33044424  0.50224946  1
  B  B10  1  0.46091709  0.83044424  0.50224946  1
  B  B11  1  0.95866563  0.66955576  0.49775054  1
  B  B12  1  0.67038889  0.95959328  0.49949133  1
  B  B13  1  0.17089556  0.54040672  0.50050867  1
  B  B14  1  0.32961111  0.04040672  0.50050867  1
  B  B15  1  0.82910444  0.45959328  0.49949133  1
  B  B16  1  0.58992886  0.06287083  0.67892572  1
  B  B17  1  0.91100314  0.43712917  0.32107428  1
  B  B18  1  0.41007114  0.93712917  0.32107428  1
  B  B19  1  0.08899686  0.56287083  0.67892572  1
loop_
_geom_bond_atom_site_label_1
_geom_bond_atom_site_label_2
_geom_bond_distance
_geom_bond_site_symmetry_2
B0 B1 1.602926 1_554
B0 B18 1.684992 1_555
B0 Pr1 2.836857 1_555
B0 Pr5 2.846859 1_555
B0 Pr2 2.914685 1_565
B0 Pr4 2.983675 1_554
B0 Pr6 2.991527 1_565
B0 Pr0 3.274055 1_454
B1 B19 1.684992 1_555
B1 Pr0 2.836845 1_455
B1 Pr4 2.846863 1_555
B1 Pr3 2.914678 1_455
B1 Pr5 2.983678 1_556
B1 Pr7 2.991533 1_555
B1 Pr1 3.274055 1_556
B2 B3 1.602926 1_556
B2 Pr3 2.836857 1_555
B2 Pr7 2.846859 1_555
B2 Pr0 2.914685 1_545
B2 Pr6 2.983675 1_556
B2 Pr4 2.991527 1_545
B2 Pr2 3.274055 1_656
B3 Pr2 2.836845 1_655
B3 Pr6 2.846863 1_555
B3 Pr1 2.914678 1_655
B3 Pr7 2.983678 1_554
B3 Pr5 2.991533 1_555
B3 Pr3 3.274055 1_554
B4 B9 1.786509 1_555
B4 B6 1.943621 1_445
B4 Pr6 2.840552 1_455
B4 Pr4 2.868332 1_545
B4 Pr3 2.873248 1_455
B4 Pr1 2.887629 1_545
B4 Pr2 2.986396 1_555
B4 Pr7 3.013672 1_555
B5 B8 1.786510 1_555
B5 B7 1.943611 1_555
B5 Pr7 2.840547 1_555
B5 Pr5 2.868334 1_555
B5 Pr2 2.873248 1_555
B5 Pr0 2.887632 1_555
B5 Pr3 2.986404 1_555
B5 Pr6 3.013677 1_555
B6 Pr4 2.840552 1_655
B6 Pr6 2.868332 1_565
B6 Pr1 2.873248 1_655
B6 Pr3 2.887629 1_565
B6 Pr0 2.986396 1_555
B6 Pr5 3.013672 1_555
B7 Pr5 2.840547 1_555
B7 Pr7 2.868334 1_555
B7 Pr0 2.873248 1_555
B7 Pr2 2.887632 1_555
B7 Pr1 2.986404 1_555
B7 Pr4 3.013677 1_555
B8 Pr7 2.713219 1_555
B8 Pr2 2.726404 1_555
B8 Pr3 2.780203 1_555
B8 Pr6 2.806439 1_555
B9 Pr6 2.713227 1_455
B9 Pr3 2.726409 1_455
B9 Pr2 2.780187 1_555
B9 Pr7 2.806428 1_555
B10 B7 1.786510 1_555
B10 B16 1.811950 1_565
B10 B12 1.821426 1_555
B10 B14 1.824938 1_565
B10 B18 1.839036 1_555
B10 Pr5 2.713219 1_555
B10 Pr0 2.726404 1_555
B10 Pr1 2.780203 1_555
B10 Pr4 2.806439 1_555
B11 B6 1.786509 1_555
B11 B17 1.811952 1_555
B11 B13 1.821426 1_655
B11 B15 1.824923 1_555
B11 B19 1.839039 1_655
B11 Pr4 2.713227 1_655
B11 Pr1 2.726409 1_655
B11 Pr0 2.780187 1_555
B11 Pr5 2.806428 1_555
B12 B6 1.775822 1_555
B12 B16 1.822512 1_565
B12 B18 1.823259 1_555
B12 B8 1.824938 1_565
B12 Pr3 2.741258 1_565
B12 Pr6 2.764467 1_565
B12 Pr5 2.773780 1_555
B12 Pr0 2.779615 1_555
B13 B7 1.775844 1_555
B13 B17 1.822502 1_455
B13 B19 1.823249 1_555
B13 B9 1.824923 1_555
B13 Pr2 2.741262 1_555
B13 Pr7 2.764473 1_555
B13 Pr4 2.773780 1_555
B13 Pr1 2.779616 1_555
B14 B4 1.775822 1_555
B14 B8 1.821426 1_555
B14 B18 1.822512 1_545
B14 B16 1.823259 1_555
B14 Pr1 2.741258 1_545
B14 Pr4 2.764467 1_545
B14 Pr7 2.773780 1_555
B14 Pr2 2.779615 1_555
B15 B5 1.775844 1_555
B15 B9 1.821426 1_655
B15 B19 1.822502 1_655
B15 B17 1.823249 1_555
B15 Pr0 2.741262 1_555
B15 Pr5 2.764473 1_555
B15 Pr6 2.773780 1_555
B15 Pr3 2.779616 1_555
B16 B2 1.684992 1_555
B16 B8 1.839036 1_555
B16 Pr7 2.732093 1_555
B16 Pr3 2.749646 1_555
B16 Pr0 2.753658 1_545
B16 Pr4 2.806148 1_545
B17 B3 1.684992 1_555
B17 B9 1.839039 1_655
B17 Pr6 2.732093 1_555
B17 Pr2 2.749641 1_655
B17 Pr1 2.753654 1_655
B17 Pr5 2.806148 1_555
B18 B8 1.811950 1_565
B18 Pr5 2.732093 1_555
B18 Pr1 2.749646 1_555
B18 Pr2 2.753658 1_565
B18 Pr6 2.806148 1_565
B19 B9 1.811952 1_555
B19 Pr4 2.732093 1_555
B19 Pr0 2.749641 1_455
B19 Pr3 2.753654 1_455
B19 Pr7 2.806148 1_555
