# generated using pymatgen
data_Zn11Fe25O48
_symmetry_space_group_name_H-M   'P 1'
_cell_length_a   10.48962771
_cell_length_b   10.48579825
_cell_length_c   10.46984398
_cell_angle_alpha   119.94967637
_cell_angle_beta   109.47095403
_cell_angle_gamma   80.42079419
_symmetry_Int_Tables_number   1
_chemical_formula_structural   Zn11Fe25O48
_chemical_formula_sum   'Zn11 Fe25 O48'
_cell_volume   940.75572984
_cell_formula_units_Z   1
loop_
 _symmetry_equiv_pos_site_id
 _symmetry_equiv_pos_as_xyz
  1  'x, y, z'
loop_
 _atom_site_type_symbol
 _atom_site_label
 _atom_site_symmetry_multiplicity
 _atom_site_fract_x
 _atom_site_fract_y
 _atom_site_fract_z
 _atom_site_occupancy
  Zn  Zn0  1  0.56154600  0.66666700  0.02044300  1
  Zn  Zn1  1  0.93809100  0.33410600  0.47925700  1
  Zn  Zn2  1  0.56159100  0.33395900  0.35391800  1
  Zn  Zn3  1  0.43577400  0.99863200  0.31222200  1
  Zn  Zn4  1  0.43479700  0.66666700  0.64415800  1
  Zn  Zn5  1  0.93809100  0.99922700  0.81181700  1
  Zn  Zn6  1  0.06434500  0.99983900  0.18739100  1
  Zn  Zn7  1  0.06406000  0.66666700  0.52084900  1
  Zn  Zn8  1  0.56159100  0.99937400  0.68662500  1
  Zn  Zn9  1  0.43577400  0.33470100  0.98025600  1
  Zn  Zn10  1  0.06434500  0.33349400  0.85421900  1
  Fe  Fe0  1  0.93743100  0.66666700  0.14677000  1
  Fe  Fe1  1  0.74805900  0.83196100  0.41786800  1
  Fe  Fe2  1  0.75146500  0.16800200  0.08436600  1
  Fe  Fe3  1  0.74805900  0.50137200  0.25257400  1
  Fe  Fe4  1  0.25449100  0.66666700  0.08425300  1
  Fe  Fe5  1  0.74944400  0.00130000  0.24955000  1
  Fe  Fe6  1  0.49928800  0.99993800  0.00018500  1
  Fe  Fe7  1  0.49854900  0.66666700  0.33404900  1
  Fe  Fe8  1  0.74799300  0.66666700  0.58192200  1
  Fe  Fe9  1  0.74922800  0.83507500  0.91588300  1
  Fe  Fe10  1  0.75146500  0.16533100  0.58303100  1
  Fe  Fe11  1  0.25018000  0.83372900  0.41723800  1
  Fe  Fe12  1  0.24922200  0.16700200  0.08297000  1
  Fe  Fe13  1  0.25018000  0.49960500  0.25017600  1
  Fe  Fe14  1  0.74922800  0.49825800  0.74747400  1
  Fe  Fe15  1  0.74944400  0.33203400  0.91491800  1
  Fe  Fe16  1  0.24937100  0.33519900  0.41756800  1
  Fe  Fe17  1  0.49928800  0.33339500  0.66691300  1
  Fe  Fe18  1  0.00145200  0.33305000  0.16702600  1
  Fe  Fe19  1  0.25002900  0.49985000  0.75019400  1
  Fe  Fe20  1  0.25002900  0.83348300  0.91701000  1
  Fe  Fe21  1  0.24922200  0.16633200  0.58263600  1
  Fe  Fe22  1  0.24937100  0.99813400  0.74903600  1
  Fe  Fe23  1  0.00145200  0.00028300  0.50064300  1
  Fe  Fe24  1  0.00271300  0.66666700  0.83215800  1
  O  O0  1  0.63109700  0.84755700  0.04353200  1
  O  O1  1  0.87356000  0.49102000  0.12352200  1
  O  O2  1  0.87356000  0.84231300  0.29916900  1
  O  O3  1  0.64160800  0.33384200  0.04669600  1
  O  O4  1  0.87179200  0.33379100  0.27553800  1
  O  O5  1  0.85992000  0.00003200  0.11972100  1
  O  O6  1  0.63725200  0.66666700  0.22224300  1
  O  O7  1  0.86110600  0.66666700  0.45373200  1
  O  O8  1  0.63069300  0.15248700  0.19628100  1
  O  O9  1  0.63786400  0.82469000  0.53691600  1
  O  O10  1  0.13023900  0.81894600  0.02837300  1
  O  O11  1  0.63786400  0.50864400  0.37889300  1
  O  O12  1  0.35971600  0.50906300  0.13048600  1
  O  O13  1  0.35971600  0.82427100  0.28809000  1
  O  O14  1  0.87084200  0.15152400  0.45529500  1
  O  O15  1  0.87139100  0.51450400  0.64033200  1
  O  O16  1  0.87139100  0.81882900  0.79249600  1
  O  O17  1  0.35949100  0.66666700  0.44372000  1
  O  O18  1  0.36926200  0.00049400  0.10970500  1
  O  O19  1  0.64048700  0.66666700  0.71535800  1
  O  O20  1  0.64160800  0.99949100  0.37952100  1
  O  O21  1  0.13228300  0.66666700  0.21086100  1
  O  O22  1  0.87179200  0.99954300  0.60841500  1
  O  O23  1  0.87361300  0.66666700  0.95014400  1
  O  O24  1  0.12887100  0.33273900  0.05626700  1
  O  O25  1  0.35849400  0.33378600  0.28663100  1
  O  O26  1  0.85992000  0.33330200  0.78635600  1
  O  O27  1  0.63027800  0.33236400  0.55733300  1
  O  O28  1  0.12861900  0.84734400  0.54315500  1
  O  O29  1  0.13037400  0.18121400  0.21070700  1
  O  O30  1  0.63069300  0.18084700  0.71046100  1
  O  O31  1  0.12861900  0.48599000  0.36247700  1
  O  O32  1  0.63109700  0.48577600  0.86264100  1
  O  O33  1  0.36883500  0.18166000  0.47062100  1
  O  O34  1  0.36967600  0.84705000  0.80414600  1
  O  O35  1  0.36967600  0.48628300  0.62376300  1
  O  O36  1  0.87084200  0.18180900  0.97043800  1
  O  O37  1  0.36926200  0.33283900  0.77587800  1
  O  O38  1  0.14056400  0.33374600  0.54718700  1
  O  O39  1  0.12887100  0.00059400  0.39019500  1
  O  O40  1  0.35849400  0.99954800  0.61951200  1
  O  O41  1  0.63027800  0.00096900  0.89163600  1
  O  O42  1  0.36021600  0.66666700  0.95310600  1
  O  O43  1  0.13150500  0.66666700  0.72289900  1
  O  O44  1  0.13037400  0.15211900  0.69615900  1
  O  O45  1  0.13023900  0.51438700  0.87609300  1
  O  O46  1  0.36883500  0.15167400  0.95562700  1
  O  O47  1  0.14056400  0.99958700  0.88010700  1
loop_
_geom_bond_atom_site_label_1
_geom_bond_atom_site_label_2
_geom_bond_distance
_geom_bond_site_symmetry_2
Fe0 O21 1.927061 1_655
Fe0 O2 1.937702 1_555
Fe0 O1 1.937706 1_555
Fe0 O23 1.940983 1_554
Fe1 O9 1.995036 1_555
Fe1 O6 2.022119 1_555
Fe1 O7 2.054317 1_555
Fe1 O20 2.060702 1_555
Fe1 O22 2.070023 1_555
Fe1 O2 2.135939 1_555
Fe2 O4 2.047747 1_555
Fe2 O3 2.054835 1_555
Fe2 O5 2.058347 1_555
Fe2 O36 2.059207 1_554
Fe2 O8 2.062248 1_555
Fe2 O41 2.063369 1_554
Fe3 O11 1.995032 1_555
Fe3 O6 2.022128 1_555
Fe3 O7 2.054321 1_555
Fe3 O3 2.060706 1_555
Fe3 O4 2.070011 1_555
Fe3 O1 2.135947 1_555
Fe4 O12 2.004785 1_555
Fe4 O13 2.004785 1_555
Fe4 O42 2.032353 1_554
Fe4 O10 2.079054 1_555
Fe4 O45 2.079062 1_554
Fe4 O21 2.129146 1_555
Fe5 O8 2.034296 1_555
Fe5 O20 2.047111 1_545
Fe5 O14 2.047925 1_555
Fe5 O0 2.049766 1_545
Fe5 O5 2.053713 1_555
Fe5 O2 2.106092 1_545
Fe6 O18 2.051450 1_565
Fe6 O34 2.052057 1_554
Fe6 O46 2.052461 1_564
Fe6 O41 2.058630 1_564
Fe6 O0 2.059409 1_555
Fe6 O8 2.059600 1_565
Fe7 O17 2.136058 1_555
Fe7 O13 2.146928 1_555
Fe7 O12 2.146928 1_555
Fe7 O11 2.148284 1_555
Fe7 O9 2.148284 1_555
Fe7 O6 2.150013 1_555
Fe8 O9 2.020351 1_555
Fe8 O11 2.020351 1_555
Fe8 O7 2.066579 1_555
Fe8 O19 2.067306 1_555
Fe8 O15 2.086724 1_555
Fe8 O16 2.086725 1_555
Fe9 O16 2.037447 1_555
Fe9 O41 2.038296 1_565
Fe9 O19 2.049229 1_555
Fe9 O0 2.052844 1_556
Fe9 O5 2.055554 1_566
Fe9 O23 2.122039 1_555
Fe10 O22 2.047742 1_545
Fe10 O20 2.054836 1_545
Fe10 O26 2.058351 1_555
Fe10 O14 2.059216 1_555
Fe10 O30 2.062245 1_555
Fe10 O27 2.063373 1_555
Fe11 O13 2.005558 1_555
Fe11 O17 2.016151 1_555
Fe11 O40 2.043487 1_555
Fe11 O28 2.063130 1_555
Fe11 O39 2.067444 1_565
Fe11 O21 2.104081 1_555
Fe12 O24 2.052264 1_555
Fe12 O46 2.052269 1_554
Fe12 O29 2.053211 1_555
Fe12 O47 2.054543 1_544
Fe12 O25 2.057528 1_555
Fe12 O18 2.057567 1_555
Fe13 O12 2.005558 1_555
Fe13 O17 2.016152 1_555
Fe13 O25 2.043487 1_555
Fe13 O31 2.063121 1_555
Fe13 O24 2.067452 1_555
Fe13 O21 2.104081 1_555
Fe14 O15 2.037456 1_555
Fe14 O27 2.038296 1_555
Fe14 O19 2.049233 1_555
Fe14 O32 2.052844 1_555
Fe14 O26 2.055549 1_555
Fe14 O23 2.122048 1_555
Fe15 O30 2.034301 1_555
Fe15 O3 2.047098 1_556
Fe15 O36 2.047929 1_555
Fe15 O32 2.049767 1_555
Fe15 O26 2.053722 1_555
Fe15 O1 2.106079 1_556
Fe16 O31 2.047963 1_555
Fe16 O35 2.048700 1_555
Fe16 O38 2.050273 1_555
Fe16 O25 2.051829 1_555
Fe16 O33 2.056286 1_555
Fe16 O29 2.057359 1_555
Fe17 O37 2.051458 1_555
Fe17 O35 2.052053 1_555
Fe17 O33 2.052449 1_555
Fe17 O27 2.058630 1_555
Fe17 O32 2.059410 1_555
Fe17 O30 2.059595 1_555
Fe18 O31 2.038195 1_555
Fe18 O4 2.039218 1_455
Fe18 O24 2.039422 1_555
Fe18 O29 2.042292 1_555
Fe18 O36 2.052436 1_454
Fe18 O1 2.087431 1_455
Fe19 O45 2.044379 1_555
Fe19 O35 2.051268 1_555
Fe19 O38 2.052299 1_555
Fe19 O37 2.054374 1_555
Fe19 O43 2.055622 1_555
Fe19 O42 2.057772 1_555
Fe20 O10 2.044388 1_556
Fe20 O34 2.051268 1_555
Fe20 O47 2.052298 1_555
Fe20 O18 2.054374 1_566
Fe20 O43 2.055614 1_555
Fe20 O42 2.057767 1_555
Fe21 O33 2.052269 1_555
Fe21 O39 2.052273 1_555
Fe21 O44 2.053198 1_555
Fe21 O38 2.054538 1_555
Fe21 O40 2.057523 1_545
Fe21 O37 2.057559 1_555
Fe22 O28 2.047955 1_555
Fe22 O34 2.048695 1_555
Fe22 O47 2.050264 1_555
Fe22 O40 2.051833 1_555
Fe22 O46 2.056285 1_565
Fe22 O44 2.057364 1_565
Fe23 O28 2.038190 1_545
Fe23 O22 2.039222 1_445
Fe23 O39 2.039422 1_555
Fe23 O44 2.042288 1_555
Fe23 O14 2.052440 1_455
Fe23 O2 2.087431 1_445
Fe24 O10 2.040338 1_556
Fe24 O45 2.040342 1_555
Fe24 O43 2.040583 1_555
Fe24 O16 2.040697 1_455
Fe24 O15 2.040709 1_455
Fe24 O23 2.115434 1_455
O0 Zn0 2.018323 1_555
O3 Zn9 2.035752 1_554
O4 Zn1 2.009430 1_555
O5 Zn6 2.021716 1_645
O6 Zn0 1.994010 1_555
O7 Zn7 2.007173 1_655
O8 Zn2 2.018161 1_555
O9 Zn8 1.983349 1_555
O10 Zn6 2.006279 1_555
O11 Zn2 1.983358 1_555
O12 Zn9 1.983175 1_554
O13 Zn3 1.983165 1_555
O14 Zn1 2.019371 1_555
O15 Zn1 2.018088 1_555
O16 Zn5 2.018098 1_555
O17 Zn4 1.980605 1_555
O18 Zn3 2.008361 1_545
O19 Zn4 2.034388 1_555
O20 Zn3 2.035752 1_555
O22 Zn5 2.009415 1_555
O24 Zn10 1.998389 1_554
O25 Zn2 2.008586 1_555
O26 Zn10 2.021716 1_655
O27 Zn2 2.015865 1_555
O28 Zn7 1.995551 1_555
O29 Zn6 2.004625 1_545
O30 Zn8 2.018166 1_545
O31 Zn7 1.995556 1_555
O32 Zn0 2.018333 1_556
O33 Zn3 2.019036 1_545
O34 Zn4 2.004830 1_555
O35 Zn4 2.004840 1_555
O36 Zn5 2.019376 1_545
O37 Zn9 2.008351 1_555
O38 Zn1 2.002413 1_455
O39 Zn6 1.998399 1_545
O40 Zn8 2.008586 1_555
O41 Zn8 2.015875 1_545
O42 Zn0 1.991100 1_556
O43 Zn7 1.994453 1_555
O44 Zn10 2.004630 1_555
O45 Zn10 2.006284 1_555
O46 Zn9 2.019026 1_555
O47 Zn5 2.002413 1_455
