# generated using pymatgen
data_Er3AlNi8
_symmetry_space_group_name_H-M   'P 1'
_cell_length_a   5.04158999
_cell_length_b   5.04158999
_cell_length_c   15.93534400
_cell_angle_alpha   90.00000000
_cell_angle_beta   90.00000000
_cell_angle_gamma   119.99999982
_symmetry_Int_Tables_number   1
_chemical_formula_structural   Er3AlNi8
_chemical_formula_sum   'Er6 Al2 Ni16'
_cell_volume   350.77377942
_cell_formula_units_Z   2
loop_
 _symmetry_equiv_pos_site_id
 _symmetry_equiv_pos_as_xyz
  1  'x, y, z'
loop_
 _atom_site_type_symbol
 _atom_site_label
 _atom_site_symmetry_multiplicity
 _atom_site_fract_x
 _atom_site_fract_y
 _atom_site_fract_z
 _atom_site_occupancy
  Er  Er0  1  0.33333300  0.66666700  0.95586700  1
  Er  Er1  1  0.66666700  0.33333300  0.04413300  1
  Er  Er2  1  0.66666700  0.33333300  0.45586700  1
  Er  Er3  1  0.33333300  0.66666700  0.54413300  1
  Er  Er4  1  0.33333300  0.66666700  0.75000000  1
  Er  Er5  1  0.66666700  0.33333300  0.25000000  1
  Al  Al0  1  0.00000000  0.00000000  0.50000000  1
  Al  Al1  1  0.00000000  0.00000000  0.00000000  1
  Ni  Ni0  1  0.16882100  0.83117900  0.37452100  1
  Ni  Ni1  1  0.16882100  0.33764200  0.37452100  1
  Ni  Ni2  1  0.66235800  0.83117900  0.37452100  1
  Ni  Ni3  1  0.83117900  0.16882100  0.62547900  1
  Ni  Ni4  1  0.83117900  0.66235800  0.62547900  1
  Ni  Ni5  1  0.33764200  0.16882100  0.62547900  1
  Ni  Ni6  1  0.83117900  0.16882100  0.87452100  1
  Ni  Ni7  1  0.83117900  0.66235800  0.87452100  1
  Ni  Ni8  1  0.33764200  0.16882100  0.87452100  1
  Ni  Ni9  1  0.16882100  0.83117900  0.12547900  1
  Ni  Ni10  1  0.16882100  0.33764200  0.12547900  1
  Ni  Ni11  1  0.66235800  0.83117900  0.12547900  1
  Ni  Ni12  1  0.33333300  0.66666700  0.25000000  1
  Ni  Ni13  1  0.66666700  0.33333300  0.75000000  1
  Ni  Ni14  1  0.00000000  0.00000000  0.25000000  1
  Ni  Ni15  1  0.00000000  0.00000000  0.75000000  1
loop_
_geom_bond_atom_site_label_1
_geom_bond_atom_site_label_2
_geom_bond_distance
_geom_bond_site_symmetry_2
Er0 Ni8 2.834622 1_565
Er0 Ni7 2.834622 1_455
Er0 Ni6 2.834624 1_565
Er0 Ni6 2.834624 1_455
Er0 Ni7 2.834626 1_555
Er0 Ni8 2.834626 1_555
Er0 Ni9 3.060880 1_556
Er0 Ni10 3.060883 1_556
Er0 Ni11 3.060883 1_556
Er0 Er1 3.232786 1_456
Er0 Er1 3.232786 1_566
Er0 Er1 3.232794 1_556
Er0 Er4 3.280561 1_555
Er1 Ni10 2.834622 1_655
Er1 Ni11 2.834622 1_545
Er1 Ni9 2.834624 1_655
Er1 Ni9 2.834624 1_545
Er1 Ni10 2.834626 1_555
Er1 Ni11 2.834626 1_555
Er1 Ni6 3.060880 1_554
Er1 Ni8 3.060883 1_554
Er1 Ni7 3.060883 1_554
Er1 Er5 3.280561 1_555
Er2 Ni1 2.834622 1_655
Er2 Ni2 2.834622 1_545
Er2 Ni0 2.834624 1_655
Er2 Ni0 2.834624 1_545
Er2 Ni1 2.834626 1_555
Er2 Ni2 2.834626 1_555
Er2 Ni3 3.060880 1_555
Er2 Ni4 3.060883 1_555
Er2 Ni5 3.060883 1_555
Er2 Er3 3.232786 1_545
Er2 Er3 3.232786 1_655
Er2 Er3 3.232794 1_555
Er2 Er5 3.280561 1_555
Er3 Ni5 2.834622 1_565
Er3 Ni4 2.834622 1_455
Er3 Ni3 2.834624 1_565
Er3 Ni3 2.834624 1_455
Er3 Ni4 2.834626 1_555
Er3 Ni5 2.834626 1_555
Er3 Ni0 3.060880 1_555
Er3 Ni2 3.060883 1_555
Er3 Ni1 3.060883 1_555
Er3 Er4 3.280561 1_555
Er4 Ni15 2.910760 1_565
Er4 Ni13 2.910760 1_455
Er4 Ni13 2.910760 1_565
Er4 Ni15 2.910765 1_555
Er4 Ni15 2.910765 1_665
Er4 Ni13 2.910769 1_555
Er4 Ni7 3.208136 1_455
Er4 Ni4 3.208136 1_455
Er4 Ni8 3.208136 1_565
Er4 Ni5 3.208136 1_565
Er4 Ni6 3.208138 1_565
Er4 Ni3 3.208138 1_565
Er4 Ni6 3.208138 1_455
Er4 Ni3 3.208138 1_455
Er4 Ni4 3.208140 1_555
Er4 Ni5 3.208140 1_555
Er4 Ni7 3.208140 1_555
Er4 Ni8 3.208140 1_555
Er5 Ni14 2.910760 1_655
Er5 Ni12 2.910760 1_545
Er5 Ni12 2.910760 1_655
Er5 Ni14 2.910765 1_665
Er5 Ni14 2.910765 1_555
Er5 Ni12 2.910769 1_555
Er5 Ni10 3.208136 1_655
Er5 Ni1 3.208136 1_655
Er5 Ni2 3.208136 1_545
Er5 Ni11 3.208136 1_545
Er5 Ni0 3.208138 1_655
Er5 Ni9 3.208138 1_655
Er5 Ni9 3.208138 1_545
Er5 Ni0 3.208138 1_545
Er5 Ni1 3.208140 1_555
Er5 Ni10 3.208140 1_555
Er5 Ni11 3.208140 1_555
Er5 Ni2 3.208140 1_555
Al0 Ni3 2.484241 1_455
Al0 Ni0 2.484241 1_545
Al0 Ni4 2.484241 1_445
Al0 Ni1 2.484241 1_555
Al0 Ni5 2.484241 1_555
Al0 Ni2 2.484241 1_445
Al0 Er3 2.994515 1_545
Al0 Er2 2.994515 1_455
Al0 Er3 2.994519 1_445
Al0 Er3 2.994519 1_555
Al0 Er2 2.994519 1_555
Al0 Er2 2.994519 1_445
Al1 Ni6 2.484241 1_454
Al1 Ni9 2.484241 1_545
Al1 Ni8 2.484241 1_554
Al1 Ni10 2.484241 1_555
Al1 Ni7 2.484241 1_444
Al1 Ni11 2.484241 1_445
Al1 Er1 2.994515 1_455
Al1 Er0 2.994515 1_544
Al1 Er1 2.994519 1_445
Al1 Er1 2.994519 1_555
Al1 Er0 2.994519 1_554
Al1 Er0 2.994519 1_444
Ni0 Ni12 2.449716 1_555
Ni0 Ni14 2.471970 1_565
Ni0 Ni1 2.488211 1_555
Ni0 Ni2 2.488211 1_555
Ni0 Ni2 2.553379 1_455
Ni0 Ni1 2.553379 1_565
Ni1 Ni12 2.449719 1_555
Ni1 Ni14 2.471970 1_555
Ni1 Ni2 2.488211 1_555
Ni1 Ni2 2.553379 1_445
Ni3 Ni4 2.488211 1_555
Ni3 Ni5 2.488211 1_555
Ni3 Ni5 2.553379 1_655
Ni3 Ni4 2.553379 1_545
Ni4 Ni5 2.488211 1_555
Ni4 Ni5 2.553379 1_665
Ni6 Ni7 2.488211 1_555
Ni6 Ni8 2.488211 1_555
Ni6 Ni8 2.553379 1_655
Ni6 Ni7 2.553379 1_545
Ni7 Ni8 2.488211 1_555
Ni7 Ni8 2.553379 1_665
Ni10 Ni12 2.449719 1_555
Ni10 Ni14 2.471970 1_555
Ni10 Ni9 2.488211 1_555
Ni10 Ni11 2.488211 1_555
Ni10 Ni9 2.553379 1_545
Ni10 Ni11 2.553379 1_445
Ni11 Ni12 2.449719 1_555
Ni11 Ni14 2.471970 1_665
Ni11 Ni9 2.488211 1_555
Ni11 Ni9 2.553379 1_655
Ni12 Ni9 2.449716 1_555
Ni12 Ni2 2.449719 1_555
Ni12 Ni14 2.910760 1_565
Ni12 Ni14 2.910765 1_665
Ni12 Ni14 2.910765 1_555
Ni13 Ni3 2.449716 1_555
Ni13 Ni6 2.449716 1_555
Ni13 Ni7 2.449719 1_555
Ni13 Ni4 2.449719 1_555
Ni13 Ni8 2.449719 1_555
Ni13 Ni5 2.449719 1_555
Ni13 Ni15 2.910760 1_655
Ni13 Ni15 2.910765 1_665
Ni13 Ni15 2.910765 1_555
Ni14 Ni9 2.471970 1_545
Ni14 Ni2 2.471970 1_445
Ni15 Ni6 2.471970 1_455
Ni15 Ni3 2.471970 1_455
Ni15 Ni4 2.471970 1_445
Ni15 Ni7 2.471970 1_445
Ni15 Ni8 2.471970 1_555
Ni15 Ni5 2.471970 1_555
