# generated using pymatgen
data_Ca4CoSi8(NiO8)3
_symmetry_space_group_name_H-M   'P 1'
_cell_length_a   8.99898200
_cell_length_b   5.30858700
_cell_length_c   9.85877513
_cell_angle_alpha   74.78478796
_cell_angle_beta   90.00000000
_cell_angle_gamma   90.00000000
_symmetry_Int_Tables_number   1
_chemical_formula_structural   Ca4CoSi8(NiO8)3
_chemical_formula_sum   'Ca4 Co1 Si8 Ni3 O24'
_cell_volume   454.46315132
_cell_formula_units_Z   1
loop_
 _symmetry_equiv_pos_site_id
 _symmetry_equiv_pos_as_xyz
  1  'x, y, z'
loop_
 _atom_site_type_symbol
 _atom_site_label
 _atom_site_symmetry_multiplicity
 _atom_site_fract_x
 _atom_site_fract_y
 _atom_site_fract_z
 _atom_site_occupancy
  Ca  Ca0  1  0.79712000  0.50000000  0.50000000  1
  Ca  Ca1  1  0.29719200  0.00000000  0.00000000  1
  Ca  Ca2  1  0.20322800  0.00000000  0.50000000  1
  Ca  Ca3  1  0.70290900  0.50000000  0.00000000  1
  Co  Co0  1  0.40744000  0.50000000  0.50000000  1
  Si  Si0  1  0.09249500  0.69188200  0.28615700  1
  Si  Si1  1  0.59340200  0.19148600  0.78672200  1
  Si  Si2  1  0.09249500  0.30811800  0.71384300  1
  Si  Si3  1  0.59340200  0.80851400  0.21327800  1
  Si  Si4  1  0.90695300  0.80829900  0.71351800  1
  Si  Si5  1  0.40691800  0.30778700  0.21300100  1
  Si  Si6  1  0.90695300  0.19170100  0.28648200  1
  Si  Si7  1  0.40691800  0.69221300  0.78699900  1
  Ni  Ni0  1  0.90890400  0.00000000  0.00000000  1
  Ni  Ni1  1  0.59102200  0.00000000  0.50000000  1
  Ni  Ni2  1  0.09105800  0.50000000  0.00000000  1
  O  O0  1  0.08804600  0.77679800  0.11557000  1
  O  O1  1  0.58899600  0.27573400  0.61585700  1
  O  O2  1  0.08804600  0.22320200  0.88443000  1
  O  O3  1  0.58899600  0.72426600  0.38414300  1
  O  O4  1  0.91202600  0.72318900  0.88421800  1
  O  O5  1  0.41189500  0.22017700  0.38368500  1
  O  O6  1  0.91202600  0.27681100  0.11578200  1
  O  O7  1  0.41189500  0.77982300  0.61631500  1
  O  O8  1  0.01899000  0.39319900  0.34922500  1
  O  O9  1  0.51907100  0.89329500  0.84953800  1
  O  O10  1  0.01899000  0.60680100  0.65077500  1
  O  O11  1  0.51907100  0.10670500  0.15046200  1
  O  O12  1  0.98100500  0.10680500  0.65077500  1
  O  O13  1  0.48101200  0.60666900  0.15103300  1
  O  O14  1  0.98100500  0.89319500  0.34922500  1
  O  O15  1  0.48101200  0.39333100  0.84896700  1
  O  O16  1  0.24884000  0.70969200  0.36211700  1
  O  O17  1  0.74926300  0.20895600  0.86279600  1
  O  O18  1  0.24884000  0.29030800  0.63788300  1
  O  O19  1  0.74926300  0.79104400  0.13720400  1
  O  O20  1  0.75084600  0.79106600  0.63723200  1
  O  O21  1  0.25080600  0.29124900  0.13711000  1
  O  O22  1  0.75084600  0.20893400  0.36276800  1
  O  O23  1  0.25080600  0.70875100  0.86289000  1
loop_
_geom_bond_atom_site_label_1
_geom_bond_atom_site_label_2
_geom_bond_distance
_geom_bond_site_symmetry_2
Ca0 O22 2.342780 1_555
Ca0 O20 2.342780 1_555
Ca0 O3 2.348620 1_555
Ca0 O1 2.348620 1_555
Ca0 O10 2.638141 1_655
Ca0 O8 2.638141 1_655
Ca0 O14 2.770583 1_555
Ca0 O12 2.770583 1_555
Ca1 O23 2.342845 1_544
Ca1 O21 2.342845 1_555
Ca1 O2 2.352833 1_554
Ca1 O0 2.352833 1_545
Ca1 O11 2.636106 1_555
Ca1 O9 2.636106 1_544
Ca1 O15 2.771539 1_554
Ca1 O13 2.771539 1_545
Ca2 O16 2.343291 1_545
Ca2 O18 2.343291 1_555
Ca2 O7 2.345999 1_545
Ca2 O5 2.345999 1_555
Ca2 O12 2.640554 1_455
Ca2 O14 2.640554 1_445
Ca2 O8 2.772494 1_555
Ca2 O10 2.772494 1_545
Ca3 O19 2.342606 1_555
Ca3 O17 2.342606 1_554
Ca3 O4 2.353335 1_554
Ca3 O6 2.353335 1_555
Ca3 O15 2.639648 1_554
Ca3 O13 2.639648 1_555
Ca3 O11 2.769612 1_555
Ca3 O9 2.769612 1_554
Co0 O18 2.080804 1_555
Co0 O16 2.080804 1_555
Co0 O7 2.101736 1_555
Co0 O5 2.101736 1_555
Co0 O1 2.162779 1_555
Co0 O3 2.162779 1_555
Ni0 O17 2.082407 1_554
Ni0 O19 2.082407 1_545
Ni0 O6 2.084113 1_555
Ni0 O4 2.084113 1_544
Ni0 O0 2.142982 1_645
Ni0 O2 2.142982 1_654
Ni1 O1 2.079695 1_555
Ni1 O3 2.079695 1_545
Ni1 O20 2.083642 1_545
Ni1 O22 2.083642 1_555
Ni1 O7 2.139166 1_545
Ni1 O5 2.139166 1_555
Ni2 O23 2.082206 1_554
Ni2 O21 2.082206 1_555
Ni2 O2 2.082511 1_554
Ni2 O0 2.082511 1_555
Ni2 O6 2.143018 1_455
Ni2 O4 2.143018 1_454
O0 Si0 1.623348 1_555
O1 Si1 1.625964 1_555
O2 Si2 1.623348 1_555
O3 Si3 1.625964 1_555
O4 Si4 1.624575 1_555
O5 Si5 1.624537 1_555
O6 Si6 1.624575 1_555
O7 Si7 1.624537 1_555
O8 Si0 1.679508 1_555
O8 Si6 1.700185 1_455
O9 Si1 1.679939 1_565
O9 Si7 1.698142 1_555
O10 Si2 1.679508 1_555
O10 Si4 1.700185 1_455
O11 Si3 1.679939 1_545
O11 Si5 1.698142 1_555
O12 Si4 1.680269 1_545
O12 Si2 1.698258 1_655
O13 Si5 1.681207 1_555
O13 Si3 1.700816 1_555
O14 Si6 1.680269 1_565
O14 Si0 1.698258 1_655
O15 Si7 1.681207 1_555
O15 Si1 1.700816 1_555
O16 Si0 1.608232 1_555
O17 Si1 1.604638 1_555
O18 Si2 1.608232 1_555
O19 Si3 1.604638 1_555
O20 Si4 1.607356 1_555
O21 Si5 1.604861 1_555
O22 Si6 1.607356 1_555
O23 Si7 1.604861 1_555
