# generated using pymatgen
data_Sm(Ga3Co)3
_symmetry_space_group_name_H-M   'P 1'
_cell_length_a   10.90386116
_cell_length_b   10.90386116
_cell_length_c   12.09597267
_cell_angle_alpha   56.51106316
_cell_angle_beta   56.51106316
_cell_angle_gamma   21.45232333
_symmetry_Int_Tables_number   1
_chemical_formula_structural   Sm(Ga3Co)3
_chemical_formula_sum   'Sm2 Ga18 Co6'
_cell_volume   435.19383276
_cell_formula_units_Z   2
loop_
 _symmetry_equiv_pos_site_id
 _symmetry_equiv_pos_as_xyz
  1  'x, y, z'
loop_
 _atom_site_type_symbol
 _atom_site_label
 _atom_site_symmetry_multiplicity
 _atom_site_fract_x
 _atom_site_fract_y
 _atom_site_fract_z
 _atom_site_occupancy
  Sm  Sm0  1  0.96680400  0.96680400  0.78241700  1
  Sm  Sm1  1  0.03319600  0.03319600  0.21758300  1
  Ga  Ga0  1  0.58591700  0.58591700  0.56395100  1
  Ga  Ga1  1  0.41408300  0.41408300  0.43604900  1
  Ga  Ga2  1  0.41706200  0.41706200  0.22750200  1
  Ga  Ga3  1  0.58293800  0.58293800  0.77249800  1
  Ga  Ga4  1  0.79515000  0.79515000  0.79712500  1
  Ga  Ga5  1  0.20485000  0.20485000  0.20287500  1
  Ga  Ga6  1  0.20226900  0.20226900  0.88981200  1
  Ga  Ga7  1  0.79773100  0.79773100  0.11018800  1
  Ga  Ga8  1  0.59342100  0.59342100  0.97337200  1
  Ga  Ga9  1  0.40657900  0.40657900  0.02662800  1
  Ga  Ga10  1  0.40147500  0.40147500  0.66275800  1
  Ga  Ga11  1  0.59852500  0.59852500  0.33724200  1
  Ga  Ga12  1  0.00000000  0.00000000  0.50000000  1
  Ga  Ga13  1  0.00000000  0.00000000  0.00000000  1
  Ga  Ga14  1  0.67447300  0.67447300  0.07281100  1
  Ga  Ga15  1  0.32552700  0.32552700  0.92718900  1
  Ga  Ga16  1  0.19020100  0.19020100  0.55699700  1
  Ga  Ga17  1  0.80979900  0.80979900  0.44300300  1
  Co  Co0  1  0.87600400  0.87600400  0.18773800  1
  Co  Co1  1  0.12399600  0.12399600  0.81226200  1
  Co  Co2  1  0.12448900  0.12448900  0.43563400  1
  Co  Co3  1  0.87551100  0.87551100  0.56436600  1
  Co  Co4  1  0.72205700  0.72205700  0.36386700  1
  Co  Co5  1  0.27794300  0.27794300  0.63613300  1
loop_
_geom_bond_atom_site_label_1
_geom_bond_atom_site_label_2
_geom_bond_distance
_geom_bond_site_symmetry_2
Ga0 Ga3 2.487293 1_555
Ga0 Ga11 2.600180 1_555
Ga0 Sm0 3.168615 1_545
Ga0 Sm0 3.168615 1_455
Ga1 Ga2 2.487293 1_555
Ga1 Ga10 2.600180 1_555
Ga1 Sm1 3.168615 1_565
Ga1 Sm1 3.168615 1_655
Ga2 Ga9 2.562656 1_555
Ga2 Sm1 3.160602 1_565
Ga2 Sm1 3.160602 1_655
Ga3 Ga8 2.562656 1_555
Ga3 Sm0 3.160602 1_455
Ga3 Sm0 3.160602 1_545
Ga4 Ga6 2.613407 1_565
Ga4 Ga6 2.613407 1_655
Ga5 Ga7 2.613407 1_455
Ga5 Ga7 2.613407 1_545
Ga6 Ga8 2.816327 1_545
Ga6 Ga8 2.816327 1_455
Ga6 Sm1 3.565204 1_556
Ga7 Ga9 2.816327 1_565
Ga7 Ga9 2.816327 1_655
Ga7 Sm0 3.565204 1_554
Ga8 Sm1 3.198138 1_566
Ga8 Sm1 3.198138 1_656
Ga9 Sm0 3.198138 1_454
Ga9 Sm0 3.198138 1_544
Ga10 Ga15 2.651922 1_555
Ga10 Ga12 2.789764 1_565
Ga10 Ga12 2.789764 1_655
Ga10 Ga4 2.791288 1_545
Ga10 Ga4 2.791288 1_455
Ga10 Sm0 3.232383 1_455
Ga10 Sm0 3.232383 1_545
Ga11 Ga14 2.651922 1_555
Ga11 Ga12 2.789764 1_565
Ga11 Ga12 2.789764 1_655
Ga11 Ga5 2.791288 1_565
Ga11 Ga5 2.791288 1_655
Ga11 Sm1 3.232383 1_565
Ga11 Sm1 3.232383 1_655
Ga12 Sm1 3.073534 1_555
Ga12 Sm0 3.073534 1_445
Ga13 Ga9 2.739484 1_455
Ga13 Ga8 2.739484 1_454
Ga13 Ga8 2.739484 1_544
Ga13 Ga9 2.739484 1_545
Ga13 Sm0 3.087927 1_444
Ga13 Sm1 3.087927 1_555
Ga14 Ga8 2.609406 1_554
Ga14 Ga6 2.809298 1_564
Ga14 Ga6 2.809298 1_654
Ga14 Ga4 2.849811 1_554
Ga14 Ga5 2.857840 1_655
Ga14 Ga5 2.857840 1_565
Ga14 Ga7 2.918982 1_555
Ga14 Sm1 3.224030 1_565
Ga14 Sm1 3.224030 1_655
Ga15 Ga9 2.609406 1_556
Ga15 Ga7 2.809298 1_546
Ga15 Ga7 2.809298 1_456
Ga15 Ga5 2.849811 1_556
Ga15 Ga4 2.857840 1_455
Ga15 Ga4 2.857840 1_545
Ga15 Ga6 2.918982 1_555
Ga15 Sm0 3.224030 1_545
Ga15 Sm0 3.224030 1_455
Co0 Ga13 2.332190 1_665
Co0 Ga7 2.336600 1_555
Co0 Ga2 2.366201 1_565
Co0 Ga2 2.366201 1_655
Co0 Ga17 2.574199 1_555
Co0 Ga9 2.628945 1_655
Co0 Ga9 2.628945 1_565
Co0 Co4 2.743420 1_555
Co1 Ga13 2.332190 1_556
Co1 Ga6 2.336600 1_555
Co1 Ga3 2.366201 1_545
Co1 Ga3 2.366201 1_455
Co1 Ga16 2.574199 1_555
Co1 Ga8 2.628945 1_545
Co1 Ga8 2.628945 1_455
Co1 Co5 2.743420 1_555
Co2 Ga12 2.321331 1_555
Co2 Ga5 2.333796 1_555
Co2 Ga0 2.402020 1_455
Co2 Ga0 2.402020 1_545
Co2 Ga16 2.541457 1_555
Co2 Ga11 2.566704 1_545
Co2 Ga11 2.566704 1_455
Co2 Co4 2.684036 1_545
Co2 Co4 2.684036 1_455
Co3 Ga12 2.321331 1_665
Co3 Ga4 2.333796 1_555
Co3 Ga1 2.402020 1_655
Co3 Ga1 2.402020 1_565
Co3 Ga17 2.541457 1_555
Co3 Ga10 2.566704 1_655
Co3 Ga10 2.566704 1_565
Co3 Co5 2.684036 1_655
Co3 Co5 2.684036 1_565
Co4 Ga0 2.537135 1_555
Co4 Ga7 2.540964 1_555
Co4 Ga17 2.544020 1_555
Co4 Ga11 2.840273 1_555
Co4 Ga16 2.872394 1_655
Co4 Ga16 2.872394 1_565
Co4 Ga5 2.975381 1_655
Co4 Ga5 2.975381 1_565
Co5 Ga1 2.537135 1_555
Co5 Ga6 2.540964 1_555
Co5 Ga16 2.544020 1_555
Co5 Ga10 2.840273 1_555
Co5 Ga17 2.872394 1_455
Co5 Ga17 2.872394 1_545
Co5 Ga4 2.975381 1_455
Co5 Ga4 2.975381 1_545
