# generated using pymatgen
data_NaEu(GeO3)4
_symmetry_space_group_name_H-M   'P 1'
_cell_length_a   5.22915664
_cell_length_b   5.22915664
_cell_length_c   7.70365633
_cell_angle_alpha   90.00000000
_cell_angle_beta   90.00000000
_cell_angle_gamma   92.20444919
_symmetry_Int_Tables_number   1
_chemical_formula_structural   NaEu(GeO3)4
_chemical_formula_sum   'Na1 Eu1 Ge4 O12'
_cell_volume   210.49349395
_cell_formula_units_Z   1
loop_
 _symmetry_equiv_pos_site_id
 _symmetry_equiv_pos_as_xyz
  1  'x, y, z'
loop_
 _atom_site_type_symbol
 _atom_site_label
 _atom_site_symmetry_multiplicity
 _atom_site_fract_x
 _atom_site_fract_y
 _atom_site_fract_z
 _atom_site_occupancy
  Na  Na0  1  0.98697095  0.01302905  -0.00000000  1
  Eu  Eu0  1  0.52122905  0.47877095  0.50000000  1
  Ge  Ge0  1  0.49963592  0.99620721  0.23666225  1
  Ge  Ge1  1  0.49963592  0.99620721  0.76333775  1
  Ge  Ge2  1  0.00379279  0.50036408  0.76333775  1
  Ge  Ge3  1  0.00379279  0.50036408  0.23666225  1
  O  O0  1  0.30168702  0.29927479  0.25586938  1
  O  O1  1  0.70072521  0.69831298  0.25586938  1
  O  O2  1  0.70072521  0.69831298  0.74413062  1
  O  O3  1  0.30168702  0.29927479  0.74413062  1
  O  O4  1  0.20237471  0.79762529  0.20585894  1
  O  O5  1  0.78899070  0.21100930  0.30197111  1
  O  O6  1  0.78899070  0.21100930  0.69802889  1
  O  O7  1  0.20237471  0.79762529  0.79414106  1
  O  O8  1  0.55206382  0.04175445  0.00000000  1
  O  O9  1  0.45024153  0.95306360  0.50000000  1
  O  O10  1  0.95824555  0.44793618  0.00000000  1
  O  O11  1  0.04693640  0.54975847  0.50000000  1
loop_
_geom_bond_atom_site_label_1
_geom_bond_atom_site_label_2
_geom_bond_distance
_geom_bond_site_symmetry_2
Na0 O4 2.269370 1_645
Na0 O7 2.269370 1_644
Na0 O10 2.284911 1_555
Na0 O8 2.284911 1_555
Na0 O6 2.763622 1_554
Na0 O5 2.763622 1_555
Eu0 O2 2.377619 1_555
Eu0 O3 2.377619 1_555
Eu0 O1 2.377619 1_555
Eu0 O0 2.377619 1_555
Eu0 O11 2.521858 1_555
Eu0 O9 2.521858 1_555
Eu0 O5 2.529635 1_555
Eu0 O6 2.529635 1_555
Eu0 O9 2.759769 1_545
Eu0 O11 2.759769 1_655
Ge0 O4 1.851129 1_555
Ge0 O8 1.857631 1_565
Ge0 O5 1.916624 1_565
Ge0 O1 1.918373 1_555
Ge0 O0 1.931603 1_565
Ge0 O9 2.056357 1_555
Ge1 O7 1.851129 1_555
Ge1 O8 1.857631 1_566
Ge1 O6 1.916624 1_565
Ge1 O2 1.918373 1_555
Ge1 O3 1.931603 1_565
Ge1 O9 2.056357 1_555
Ge2 O7 1.851129 1_555
Ge2 O10 1.857631 1_456
Ge2 O6 1.916624 1_455
Ge2 O3 1.918373 1_555
Ge2 O2 1.931603 1_455
Ge2 O11 2.056357 1_555
Ge3 O4 1.851129 1_555
Ge3 O10 1.857631 1_455
Ge3 O5 1.916624 1_455
Ge3 O0 1.918373 1_555
Ge3 O1 1.931603 1_455
Ge3 O11 2.056357 1_555
