# generated using pymatgen
data_ZrW2
_symmetry_space_group_name_H-M   'P 1'
_cell_length_a   5.74587735
_cell_length_b   5.74587735
_cell_length_c   14.31901075
_cell_angle_alpha   97.36271246
_cell_angle_beta   97.36271246
_cell_angle_gamma   111.17923899
_symmetry_Int_Tables_number   1
_chemical_formula_structural   ZrW2
_chemical_formula_sum   'Zr8 W16'
_cell_volume   429.32842989
_cell_formula_units_Z   8
loop_
 _symmetry_equiv_pos_site_id
 _symmetry_equiv_pos_as_xyz
  1  'x, y, z'
loop_
 _atom_site_type_symbol
 _atom_site_label
 _atom_site_symmetry_multiplicity
 _atom_site_fract_x
 _atom_site_fract_y
 _atom_site_fract_z
 _atom_site_occupancy
  Zr  Zr0_0  1  0.00000000  0.00000000  0.00000000  1
  Zr  Zr0_1  1  0.00000000  1.00000000  0.50000000  1
  Zr  Zr0_2  1  0.00000000  0.50000000  0.00000000  1
  Zr  Zr0_3  1  0.00000000  0.50000000  0.50000000  1
  Zr  Zr0_4  1  0.50000000  0.00000000  0.00000000  1
  Zr  Zr0_5  1  0.50000000  1.00000000  0.50000000  1
  Zr  Zr0_6  1  0.50000000  0.50000000  0.00000000  1
  Zr  Zr0_7  1  0.50000000  0.50000000  0.50000000  1
  W  W0_0  1  0.33745450  0.33745450  0.17490850  1
  W  W0_1  1  0.33745450  0.33745450  0.67490850  1
  W  W0_2  1  0.33745450  0.83745450  0.17490850  1
  W  W0_3  1  0.33745450  0.83745450  0.67490850  1
  W  W0_4  1  0.83745450  0.33745450  0.17490850  1
  W  W0_5  1  0.83745450  0.33745450  0.67490850  1
  W  W0_6  1  0.83745450  0.83745450  0.17490850  1
  W  W0_7  1  0.83745450  0.83745450  0.67490850  1
  W  W1_0  1  0.16254550  0.16254550  0.32509150  1
  W  W1_1  1  0.16254550  0.16254550  0.82509150  1
  W  W1_2  1  0.16254550  0.66254550  0.32509150  1
  W  W1_3  1  0.16254550  0.66254550  0.82509150  1
  W  W1_4  1  0.66254550  0.16254550  0.32509150  1
  W  W1_5  1  0.66254550  0.16254550  0.82509150  1
  W  W1_6  1  0.66254550  0.66254550  0.32509150  1
  W  W1_7  1  0.66254550  0.66254550  0.82509150  1
loop_
_geom_bond_atom_site_label_1
_geom_bond_atom_site_label_2
_geom_bond_distance
_geom_bond_site_symmetry_2
Zr0_0 Zr0_2 2.872939 1_555
Zr0_0 Zr0_2 2.872939 1_545
Zr0_0 Zr0_4 2.872939 1_555
Zr0_0 Zr0_4 2.872939 1_455
Zr0_1 Zr0_3 2.872939 1_565
Zr0_1 Zr0_5 2.872939 1_555
Zr0_1 Zr0_3 2.872939 1_555
Zr0_1 Zr0_5 2.872939 1_455
Zr0_2 Zr0_6 2.872939 1_455
Zr0_2 Zr0_6 2.872939 1_555
Zr0_3 Zr0_7 2.872939 1_455
Zr0_3 Zr0_7 2.872939 1_555
Zr0_4 Zr0_6 2.872939 1_545
Zr0_4 Zr0_6 2.872939 1_555
Zr0_5 Zr0_7 2.872939 1_555
Zr0_5 Zr0_7 2.872939 1_565
W0_0 W1_6 2.650020 1_555
W0_0 W1_0 2.650024 1_555
W0_0 W0_4 2.872939 1_555
W0_0 W0_2 2.872939 1_545
W0_0 W0_2 2.872939 1_555
W0_0 W0_4 2.872939 1_455
W0_0 Zr0_6 2.930177 1_555
W0_0 Zr0_0 2.930179 1_555
W0_1 W1_7 2.650020 1_555
W0_1 W1_1 2.650024 1_555
W0_1 W0_3 2.872939 1_555
W0_1 W0_5 2.872939 1_555
W0_1 W0_5 2.872939 1_455
W0_1 W0_3 2.872939 1_545
W0_1 Zr0_7 2.930177 1_555
W0_1 Zr0_1 2.930179 1_545
W0_2 W1_4 2.650020 1_565
W0_2 W1_2 2.650024 1_555
W0_2 W0_6 2.872939 1_555
W0_2 W0_6 2.872939 1_455
W0_2 Zr0_4 2.930177 1_565
W0_2 Zr0_2 2.930179 1_555
W0_3 W1_5 2.650020 1_565
W0_3 W1_3 2.650024 1_555
W0_3 W0_7 2.872939 1_555
W0_3 W0_7 2.872939 1_455
W0_3 Zr0_5 2.930177 1_555
W0_3 Zr0_3 2.930179 1_555
W0_4 W1_2 2.650020 1_655
W0_4 W1_4 2.650024 1_555
W0_4 W0_6 2.872939 1_545
W0_4 W0_6 2.872939 1_555
W0_4 Zr0_2 2.930177 1_655
W0_4 Zr0_4 2.930179 1_555
W0_5 W1_3 2.650020 1_655
W0_5 W1_5 2.650024 1_555
W0_5 W0_7 2.872939 1_555
W0_5 W0_7 2.872939 1_545
W0_5 Zr0_3 2.930177 1_655
W0_5 Zr0_5 2.930179 1_545
W0_6 W1_0 2.650020 1_665
W0_6 W1_6 2.650024 1_555
W0_6 Zr0_0 2.930177 1_665
W0_6 Zr0_6 2.930179 1_555
W0_7 W1_1 2.650020 1_665
W0_7 W1_7 2.650024 1_555
W0_7 Zr0_1 2.930177 1_655
W0_7 Zr0_7 2.930179 1_555
W1_0 W1_4 2.872939 1_455
W1_0 W1_2 2.872939 1_555
W1_0 W1_2 2.872939 1_545
W1_0 W1_4 2.872939 1_555
W1_0 Zr0_1 2.930177 1_545
W1_0 Zr0_7 2.930179 1_555
W1_1 W1_5 2.872939 1_555
W1_1 W1_3 2.872939 1_545
W1_1 W1_3 2.872939 1_555
W1_1 W1_5 2.872939 1_455
W1_1 Zr0_0 2.930177 1_556
W1_1 Zr0_6 2.930179 1_556
W1_2 W1_6 2.872939 1_455
W1_2 W1_6 2.872939 1_555
W1_2 Zr0_3 2.930177 1_555
W1_2 Zr0_5 2.930179 1_555
W1_3 W1_7 2.872939 1_455
W1_3 W1_7 2.872939 1_555
W1_3 Zr0_2 2.930177 1_556
W1_3 Zr0_4 2.930179 1_566
W1_4 W1_6 2.872939 1_555
W1_4 W1_6 2.872939 1_545
W1_4 Zr0_5 2.930177 1_545
W1_4 Zr0_3 2.930179 1_655
W1_5 W1_7 2.872939 1_555
W1_5 W1_7 2.872939 1_545
W1_5 Zr0_4 2.930177 1_556
W1_5 Zr0_2 2.930179 1_656
W1_6 Zr0_7 2.930177 1_555
W1_6 Zr0_1 2.930179 1_655
W1_7 Zr0_6 2.930177 1_556
W1_7 Zr0_0 2.930179 1_666
