# generated using pymatgen
data_Ca(BeN)2
_symmetry_space_group_name_H-M   'P 1'
_cell_length_a   5.21453705
_cell_length_b   5.21453752
_cell_length_c   5.21453765
_cell_angle_alpha   97.51882951
_cell_angle_beta   115.75818195
_cell_angle_gamma   115.75819778
_symmetry_Int_Tables_number   1
_chemical_formula_structural   Ca(BeN)2
_chemical_formula_sum   'Ca2 Be4 N4'
_cell_volume   105.70243697
_cell_formula_units_Z   2
loop_
 _symmetry_equiv_pos_site_id
 _symmetry_equiv_pos_as_xyz
  1  'x, y, z'
loop_
 _atom_site_type_symbol
 _atom_site_label
 _atom_site_symmetry_multiplicity
 _atom_site_fract_x
 _atom_site_fract_y
 _atom_site_fract_z
 _atom_site_occupancy
  Ca  Ca0  1  0.00000000  0.75000000  0.75000000  1
  Ca  Ca1  1  0.00000000  0.25000000  0.25000000  1
  Be  Be0  1  0.75267975  0.12633988  0.62633988  1
  Be  Be1  1  0.50000000  0.62633988  0.87366012  1
  Be  Be2  1  0.24732025  0.87366012  0.37366012  1
  Be  Be3  1  0.50000000  0.37366012  0.12633988  1
  N  N0  1  0.50000000  0.16934160  0.33065840  1
  N  N1  1  0.83868320  0.66934160  0.16934160  1
  N  N2  1  0.16131680  0.33065840  0.83065840  1
  N  N3  1  0.50000000  0.83065840  0.66934160  1
loop_
_geom_bond_atom_site_label_1
_geom_bond_atom_site_label_2
_geom_bond_distance
_geom_bond_site_symmetry_2
Ca0 N3 2.682899 1_555
Ca0 N0 2.682899 1_455
Ca0 N3 2.682899 1_455
Ca0 N1 2.682899 1_456
Ca0 N2 2.682899 1_565
Ca0 N2 2.682899 1_555
Ca0 N0 2.682899 1_566
Ca0 N1 2.682899 1_455
Ca1 N0 2.682899 1_455
Ca1 N3 2.682899 1_555
Ca1 N0 2.682899 1_555
Ca1 N2 2.682899 1_554
Ca1 N1 2.682899 1_445
Ca1 N1 2.682899 1_455
Ca1 N3 2.682899 1_444
Ca1 N2 2.682899 1_555
Be0 N2 1.602291 1_655
Be0 N3 1.656867 1_545
Be0 N0 1.656867 1_555
Be0 Ca0 2.781776 1_655
Be0 Ca1 2.781776 1_655
Be0 Ca0 2.781777 1_645
Be0 Ca1 2.781777 1_656
Be1 N3 1.602291 1_555
Be1 N2 1.656867 1_555
Be1 N1 1.656867 1_556
Be1 Ca0 2.781776 1_655
Be1 Ca1 2.781776 1_666
Be1 Ca0 2.781776 1_555
Be1 Ca1 2.781777 1_555
Be2 N1 1.602291 1_455
Be2 N0 1.656867 1_565
Be2 N3 1.656867 1_555
Be2 Ca1 2.781776 1_555
Be2 Ca0 2.781776 1_555
Be2 Ca1 2.781777 1_565
Be2 Ca0 2.781777 1_554
Be3 N0 1.602291 1_555
Be3 N1 1.656867 1_555
Be3 N2 1.656867 1_554
Be3 Ca1 2.781776 1_555
Be3 Ca0 2.781776 1_544
Be3 Ca1 2.781776 1_655
Be3 Ca0 2.781777 1_655
