# generated using pymatgen
data_NaCo2O3
_symmetry_space_group_name_H-M   'P 1'
_cell_length_a   5.99683356
_cell_length_b   5.88731488
_cell_length_c   5.17598500
_cell_angle_alpha   89.99981502
_cell_angle_beta   90.00028587
_cell_angle_gamma   119.68786280
_symmetry_Int_Tables_number   1
_chemical_formula_structural   NaCo2O3
_chemical_formula_sum   'Na2 Co4 O6'
_cell_volume   158.75240470
_cell_formula_units_Z   2
loop_
 _symmetry_equiv_pos_site_id
 _symmetry_equiv_pos_as_xyz
  1  'x, y, z'
loop_
 _atom_site_type_symbol
 _atom_site_label
 _atom_site_symmetry_multiplicity
 _atom_site_fract_x
 _atom_site_fract_y
 _atom_site_fract_z
 _atom_site_occupancy
  Na  Na0  1  0.32712700  0.32847900  0.99351200  1
  Na  Na1  1  0.67287700  0.67151900  0.49351300  1
  Co  Co0  1  0.32689200  0.98839800  0.51750300  1
  Co  Co1  1  0.00430400  0.67342100  0.00605300  1
  Co  Co2  1  0.99569200  0.32657800  0.50605200  1
  Co  Co3  1  0.67310800  0.01160200  0.01750300  1
  O  O0  1  0.04324500  0.65670800  0.38029600  1
  O  O1  1  0.32932900  0.93713900  0.90038600  1
  O  O2  1  0.27706300  0.29179900  0.46314800  1
  O  O3  1  0.72293900  0.70820000  0.96314900  1
  O  O4  1  0.67067100  0.06286300  0.40038600  1
  O  O5  1  0.95675500  0.34329400  0.88029600  1
loop_
_geom_bond_atom_site_label_1
_geom_bond_atom_site_label_2
_geom_bond_distance
_geom_bond_site_symmetry_2
Na0 O3 2.323839 1_555
Na0 O5 2.340083 1_455
Na0 O1 2.360256 1_545
Na0 O2 2.445707 1_556
Na0 O2 2.758338 1_555
Na1 O2 2.323843 1_555
Na1 O0 2.340055 1_655
Na1 O4 2.360289 1_565
Na1 O3 2.445704 1_555
Na1 O3 2.758338 1_554
Co0 O2 1.971730 1_565
Co0 O4 1.978524 1_565
Co0 O0 1.980090 1_555
Co0 O1 2.005783 1_555
Co1 O3 1.811196 1_454
Co1 O1 1.873809 1_554
Co1 O5 1.932222 1_454
Co1 O0 1.959396 1_555
Co2 O2 1.811234 1_655
Co2 O4 1.873784 1_555
Co2 O0 1.932225 1_655
Co2 O5 1.959403 1_555
Co3 O3 1.971744 1_544
Co3 O1 1.978522 1_544
Co3 O5 1.980099 1_554
Co3 O4 2.005787 1_555
