# generated using pymatgen
data_Y(Fe2Si)2
_symmetry_space_group_name_H-M   'P 1'
_cell_length_a   7.08465400
_cell_length_b   7.08465400
_cell_length_c   3.75993000
_cell_angle_alpha   90.00000000
_cell_angle_beta   90.00000000
_cell_angle_gamma   90.00000000
_symmetry_Int_Tables_number   1
_chemical_formula_structural   Y(Fe2Si)2
_chemical_formula_sum   'Y2 Fe8 Si4'
_cell_volume   188.71961838
_cell_formula_units_Z   2
loop_
 _symmetry_equiv_pos_site_id
 _symmetry_equiv_pos_as_xyz
  1  'x, y, z'
loop_
 _atom_site_type_symbol
 _atom_site_label
 _atom_site_symmetry_multiplicity
 _atom_site_fract_x
 _atom_site_fract_y
 _atom_site_fract_z
 _atom_site_occupancy
  Y  Y0  1  0.50000000  0.50000000  0.00000000  1
  Y  Y1  1  0.00000000  0.00000000  0.50000000  1
  Fe  Fe0  1  0.58570000  0.14566700  0.50000000  1
  Fe  Fe1  1  0.41430000  0.85433300  0.50000000  1
  Fe  Fe2  1  0.08570000  0.35433300  0.00000000  1
  Fe  Fe3  1  0.91430000  0.64566700  0.00000000  1
  Fe  Fe4  1  0.14566700  0.58570000  0.50000000  1
  Fe  Fe5  1  0.85433300  0.41430000  0.50000000  1
  Fe  Fe6  1  0.35433300  0.08570000  0.00000000  1
  Fe  Fe7  1  0.64566700  0.91430000  0.00000000  1
  Si  Si0  1  0.71913800  0.71913800  0.50000000  1
  Si  Si1  1  0.28086200  0.28086200  0.50000000  1
  Si  Si2  1  0.21913800  0.78086200  0.00000000  1
  Si  Si3  1  0.78086200  0.21913800  0.00000000  1
loop_
_geom_bond_atom_site_label_1
_geom_bond_atom_site_label_2
_geom_bond_distance
_geom_bond_site_symmetry_2
Fe0 Si1 2.362537 1_555
Fe0 Si3 2.391013 1_556
Fe0 Si3 2.391013 1_555
Fe0 Fe1 2.394712 1_545
Fe0 Fe6 2.530137 1_556
Fe0 Fe6 2.530137 1_555
Fe0 Fe7 2.530137 1_546
Fe0 Fe7 2.530137 1_545
Fe0 Fe5 2.691491 1_555
Fe0 Y1 3.111312 1_655
Fe0 Y0 3.194471 1_556
Fe0 Y0 3.194471 1_555
Fe1 Si0 2.362537 1_555
Fe1 Si2 2.391013 1_556
Fe1 Si2 2.391013 1_555
Fe1 Fe7 2.530137 1_555
Fe1 Fe7 2.530137 1_556
Fe1 Fe6 2.530137 1_566
Fe1 Fe6 2.530137 1_565
Fe1 Fe4 2.691491 1_555
Fe1 Y1 3.111312 1_565
Fe1 Y0 3.194471 1_556
Fe1 Y0 3.194471 1_555
Fe2 Si3 2.362537 1_455
Fe2 Si1 2.391013 1_554
Fe2 Si1 2.391013 1_555
Fe2 Fe3 2.394712 1_455
Fe2 Fe5 2.530137 1_454
Fe2 Fe4 2.530137 1_555
Fe2 Fe5 2.530137 1_455
Fe2 Fe4 2.530137 1_554
Fe2 Fe6 2.691491 1_555
Fe2 Y0 3.111312 1_555
Fe2 Y1 3.194471 1_555
Fe2 Y1 3.194471 1_554
Fe3 Si2 2.362537 1_655
Fe3 Si0 2.391013 1_555
Fe3 Si0 2.391013 1_554
Fe3 Fe4 2.530137 1_654
Fe3 Fe5 2.530137 1_554
Fe3 Fe4 2.530137 1_655
Fe3 Fe5 2.530137 1_555
Fe3 Fe7 2.691491 1_555
Fe3 Y0 3.111312 1_555
Fe3 Y1 3.194471 1_664
Fe3 Y1 3.194471 1_665
Fe4 Si1 2.362537 1_555
Fe4 Si2 2.391013 1_556
Fe4 Si2 2.391013 1_555
Fe4 Fe5 2.394712 1_455
Fe4 Y1 3.111312 1_565
Fe4 Y0 3.194471 1_556
Fe4 Y0 3.194471 1_555
Fe5 Si0 2.362537 1_555
Fe5 Si3 2.391013 1_556
Fe5 Si3 2.391013 1_555
Fe5 Y1 3.111312 1_655
Fe5 Y0 3.194471 1_556
Fe5 Y0 3.194471 1_555
Fe6 Si2 2.362537 1_545
Fe6 Si1 2.391013 1_554
Fe6 Si1 2.391013 1_555
Fe6 Fe7 2.394712 1_545
Fe6 Y0 3.111312 1_555
Fe6 Y1 3.194471 1_555
Fe6 Y1 3.194471 1_554
Fe7 Si3 2.362537 1_565
Fe7 Si0 2.391013 1_555
Fe7 Si0 2.391013 1_554
Fe7 Y0 3.111312 1_555
Fe7 Y1 3.194471 1_665
Fe7 Y1 3.194471 1_664
Si0 Y1 2.814016 1_665
Si0 Y0 2.890482 1_555
Si0 Y0 2.890482 1_556
Si1 Y1 2.814016 1_555
Si1 Y0 2.890482 1_555
Si1 Y0 2.890482 1_556
Si2 Y0 2.814016 1_555
Si2 Y1 2.890482 1_565
Si2 Y1 2.890482 1_564
Si3 Y0 2.814016 1_555
Si3 Y1 2.890482 1_655
Si3 Y1 2.890482 1_654
