# generated using pymatgen
data_Mn3Fe2(GeO4)3
_symmetry_space_group_name_H-M   'P 1'
_cell_length_a   10.60526396
_cell_length_b   10.60526396
_cell_length_c   10.60526396
_cell_angle_alpha   109.47122063
_cell_angle_beta   109.47122063
_cell_angle_gamma   109.47122063
_symmetry_Int_Tables_number   1
_chemical_formula_structural   Mn3Fe2(GeO4)3
_chemical_formula_sum   'Mn12 Fe8 Ge12 O48'
_cell_volume   918.21113675
_cell_formula_units_Z   4
loop_
 _symmetry_equiv_pos_site_id
 _symmetry_equiv_pos_as_xyz
  1  'x, y, z'
loop_
 _atom_site_type_symbol
 _atom_site_label
 _atom_site_symmetry_multiplicity
 _atom_site_fract_x
 _atom_site_fract_y
 _atom_site_fract_z
 _atom_site_occupancy
  Mn  Mn0  1  0.12500000  0.37500000  0.75000000  1
  Mn  Mn1  1  0.37500000  0.12500000  0.25000000  1
  Mn  Mn2  1  0.37500000  0.75000000  0.12500000  1
  Mn  Mn3  1  0.12500000  0.25000000  0.37500000  1
  Mn  Mn4  1  0.75000000  0.12500000  0.37500000  1
  Mn  Mn5  1  0.25000000  0.37500000  0.12500000  1
  Mn  Mn6  1  0.87500000  0.62500000  0.25000000  1
  Mn  Mn7  1  0.62500000  0.87500000  0.75000000  1
  Mn  Mn8  1  0.62500000  0.25000000  0.87500000  1
  Mn  Mn9  1  0.87500000  0.75000000  0.62500000  1
  Mn  Mn10  1  0.25000000  0.87500000  0.62500000  1
  Mn  Mn11  1  0.75000000  0.62500000  0.87500000  1
  Fe  Fe0  1  0.00000000  0.50000000  0.00000000  1
  Fe  Fe1  1  0.00000000  0.00000000  0.50000000  1
  Fe  Fe2  1  0.50000000  0.00000000  0.00000000  1
  Fe  Fe3  1  0.50000000  0.50000000  0.50000000  1
  Fe  Fe4  1  0.50000000  0.50000000  0.00000000  1
  Fe  Fe5  1  0.50000000  0.00000000  0.50000000  1
  Fe  Fe6  1  0.00000000  0.50000000  0.50000000  1
  Fe  Fe7  1  0.00000000  0.00000000  0.00000000  1
  Ge  Ge0  1  0.37500000  0.62500000  0.75000000  1
  Ge  Ge1  1  0.12500000  0.87500000  0.25000000  1
  Ge  Ge2  1  0.62500000  0.75000000  0.37500000  1
  Ge  Ge3  1  0.87500000  0.25000000  0.12500000  1
  Ge  Ge4  1  0.75000000  0.37500000  0.62500000  1
  Ge  Ge5  1  0.25000000  0.12500000  0.87500000  1
  Ge  Ge6  1  0.62500000  0.37500000  0.25000000  1
  Ge  Ge7  1  0.87500000  0.12500000  0.75000000  1
  Ge  Ge8  1  0.37500000  0.25000000  0.62500000  1
  Ge  Ge9  1  0.12500000  0.75000000  0.87500000  1
  Ge  Ge10  1  0.25000000  0.62500000  0.37500000  1
  Ge  Ge11  1  0.75000000  0.87500000  0.12500000  1
  O  O0  1  0.08510200  0.87665200  0.40084700  1
  O  O1  1  0.97580500  0.68425500  0.09915300  1
  O  O2  1  0.52419500  0.62334800  0.70845000  1
  O  O3  1  0.41489800  0.81574500  0.79155000  1
  O  O4  1  0.87665200  0.40084700  0.08510200  1
  O  O5  1  0.68425500  0.09915300  0.97580500  1
  O  O6  1  0.62334800  0.70845000  0.52419500  1
  O  O7  1  0.81574500  0.79155000  0.41489800  1
  O  O8  1  0.40084700  0.08510200  0.87665200  1
  O  O9  1  0.09915300  0.97580500  0.68425500  1
  O  O10  1  0.70845000  0.52419500  0.62334800  1
  O  O11  1  0.79155000  0.41489800  0.81574500  1
  O  O12  1  0.91489800  0.12334800  0.59915300  1
  O  O13  1  0.02419500  0.31574500  0.90084700  1
  O  O14  1  0.47580500  0.37665200  0.29155000  1
  O  O15  1  0.58510200  0.18425500  0.20845000  1
  O  O16  1  0.12334800  0.59915300  0.91489800  1
  O  O17  1  0.31574500  0.90084700  0.02419500  1
  O  O18  1  0.37665200  0.29155000  0.47580500  1
  O  O19  1  0.18425500  0.20845000  0.58510200  1
  O  O20  1  0.59915300  0.91489800  0.12334800  1
  O  O21  1  0.90084700  0.02419500  0.31574500  1
  O  O22  1  0.29155000  0.47580500  0.37665200  1
  O  O23  1  0.20845000  0.58510200  0.18425500  1
  O  O24  1  0.58510200  0.90084700  0.37665200  1
  O  O25  1  0.47580500  0.59915300  0.18425500  1
  O  O26  1  0.02419500  0.20845000  0.12334800  1
  O  O27  1  0.91489800  0.29155000  0.31574500  1
  O  O28  1  0.37665200  0.58510200  0.90084700  1
  O  O29  1  0.18425500  0.47580500  0.59915300  1
  O  O30  1  0.12334800  0.02419500  0.20845000  1
  O  O31  1  0.31574500  0.91489800  0.29155000  1
  O  O32  1  0.90084700  0.37665200  0.58510200  1
  O  O33  1  0.59915300  0.18425500  0.47580500  1
  O  O34  1  0.20845000  0.12334800  0.02419500  1
  O  O35  1  0.29155000  0.31574500  0.91489800  1
  O  O36  1  0.41489800  0.09915300  0.62334800  1
  O  O37  1  0.52419500  0.40084700  0.81574500  1
  O  O38  1  0.97580500  0.79155000  0.87665200  1
  O  O39  1  0.08510200  0.70845000  0.68425500  1
  O  O40  1  0.62334800  0.41489800  0.09915300  1
  O  O41  1  0.81574500  0.52419500  0.40084700  1
  O  O42  1  0.87665200  0.97580500  0.79155000  1
  O  O43  1  0.68425500  0.08510200  0.70845000  1
  O  O44  1  0.09915300  0.62334800  0.41489800  1
  O  O45  1  0.40084700  0.81574500  0.52419500  1
  O  O46  1  0.79155000  0.87665200  0.97580500  1
  O  O47  1  0.70845000  0.68425500  0.08510200  1
loop_
_geom_bond_atom_site_label_1
_geom_bond_atom_site_label_2
_geom_bond_distance
_geom_bond_site_symmetry_2
Mn0 O13 2.336575 1_555
Mn0 O29 2.336575 1_555
Mn0 O12 2.336575 1_455
Mn0 O28 2.336575 1_555
Mn0 O19 2.446704 1_555
Mn0 O35 2.446704 1_555
Mn0 O16 2.446704 1_555
Mn0 O32 2.446704 1_455
Mn1 O30 2.336575 1_555
Mn1 O31 2.336575 1_545
Mn1 O14 2.336575 1_555
Mn1 O15 2.336575 1_555
Mn1 O18 2.446704 1_555
Mn1 O17 2.446704 1_545
Mn1 O33 2.446704 1_555
Mn1 O34 2.446704 1_555
Mn2 O25 2.336575 1_555
Mn2 O17 2.336575 1_555
Mn2 O24 2.336575 1_555
Mn2 O16 2.336575 1_554
Mn2 O23 2.446704 1_555
Mn2 O31 2.446704 1_555
Mn2 O28 2.446704 1_554
Mn2 O20 2.446704 1_555
Mn3 O19 2.336575 1_555
Mn3 O27 2.336575 1_455
Mn3 O18 2.336575 1_555
Mn3 O26 2.336575 1_555
Mn3 O22 2.446704 1_555
Mn3 O29 2.446704 1_555
Mn3 O30 2.446704 1_555
Mn3 O21 2.446704 1_455
Mn4 O21 2.336575 1_555
Mn4 O33 2.336575 1_555
Mn4 O20 2.336575 1_545
Mn4 O32 2.336575 1_555
Mn4 O15 2.446704 1_555
Mn4 O12 2.446704 1_555
Mn4 O27 2.446704 1_555
Mn4 O24 2.446704 1_545
Mn5 O34 2.336575 1_555
Mn5 O35 2.336575 1_554
Mn5 O22 2.336575 1_555
Mn5 O23 2.336575 1_555
Mn5 O26 2.446704 1_555
Mn5 O14 2.446704 1_555
Mn5 O25 2.446704 1_555
Mn5 O13 2.446704 1_554
Mn6 O0 2.336575 1_655
Mn6 O40 2.336575 1_555
Mn6 O41 2.336575 1_555
Mn6 O1 2.336575 1_555
Mn6 O7 2.446704 1_555
Mn6 O47 2.446704 1_555
Mn6 O4 2.446704 1_555
Mn6 O44 2.446704 1_655
Mn7 O43 2.336575 1_565
Mn7 O3 2.336575 1_555
Mn7 O42 2.336575 1_555
Mn7 O2 2.336575 1_555
Mn7 O45 2.446704 1_555
Mn7 O46 2.446704 1_555
Mn7 O6 2.446704 1_555
Mn7 O5 2.446704 1_565
Mn8 O4 2.336575 1_556
Mn8 O36 2.336575 1_555
Mn8 O37 2.336575 1_555
Mn8 O5 2.336575 1_555
Mn8 O43 2.446704 1_555
Mn8 O11 2.446704 1_555
Mn8 O8 2.446704 1_555
Mn8 O40 2.446704 1_556
Mn9 O7 2.336575 1_555
Mn9 O39 2.336575 1_655
Mn9 O6 2.336575 1_555
Mn9 O38 2.336575 1_555
Mn9 O41 2.446704 1_555
Mn9 O10 2.446704 1_555
Mn9 O42 2.446704 1_555
Mn9 O9 2.446704 1_655
Mn10 O8 2.336575 1_565
Mn10 O44 2.336575 1_555
Mn10 O45 2.336575 1_555
Mn10 O9 2.336575 1_555
Mn10 O39 2.446704 1_555
Mn10 O3 2.446704 1_555
Mn10 O0 2.446704 1_555
Mn10 O36 2.446704 1_565
Mn11 O10 2.336575 1_555
Mn11 O11 2.336575 1_555
Mn11 O46 2.336575 1_555
Mn11 O47 2.336575 1_556
Mn11 O38 2.446704 1_555
Mn11 O2 2.446704 1_555
Mn11 O1 2.446704 1_556
Mn11 O37 2.446704 1_555
Fe0 O1 2.033291 1_455
Fe0 O23 2.033291 1_555
Fe0 O11 2.033291 1_454
Fe0 O16 2.033291 1_554
Fe0 O4 2.033291 1_455
Fe0 O13 2.033291 1_554
Fe1 O9 2.033291 1_545
Fe1 O19 2.033291 1_555
Fe1 O0 2.033291 1_545
Fe1 O7 2.033291 1_445
Fe1 O21 2.033291 1_455
Fe1 O12 2.033291 1_455
Fe2 O3 2.033291 1_544
Fe2 O5 2.033291 1_554
Fe2 O8 2.033291 1_554
Fe2 O15 2.033291 1_555
Fe2 O17 2.033291 1_545
Fe2 O20 2.033291 1_545
Fe3 O2 2.033291 1_555
Fe3 O18 2.033291 1_555
Fe3 O22 2.033291 1_555
Fe3 O14 2.033291 1_555
Fe3 O6 2.033291 1_555
Fe3 O10 2.033291 1_555
Fe4 O37 2.033291 1_554
Fe4 O47 2.033291 1_555
Fe4 O35 2.033291 1_554
Fe4 O25 2.033291 1_555
Fe4 O40 2.033291 1_555
Fe4 O28 2.033291 1_554
Fe5 O45 2.033291 1_545
Fe5 O43 2.033291 1_555
Fe5 O36 2.033291 1_555
Fe5 O31 2.033291 1_545
Fe5 O33 2.033291 1_555
Fe5 O24 2.033291 1_545
Fe6 O41 2.033291 1_455
Fe6 O39 2.033291 1_555
Fe6 O29 2.033291 1_555
Fe6 O32 2.033291 1_455
Fe6 O44 2.033291 1_555
Fe6 O27 2.033291 1_455
Fe7 O26 2.033291 1_555
Fe7 O34 2.033291 1_555
Fe7 O46 2.033291 1_444
Fe7 O42 2.033291 1_444
Fe7 O30 2.033291 1_555
Fe7 O38 2.033291 1_444
Ge0 O2 1.782175 1_555
Ge0 O28 1.782175 1_555
Ge0 O29 1.782175 1_555
Ge0 O3 1.782175 1_555
Ge1 O30 1.782175 1_565
Ge1 O0 1.782175 1_555
Ge1 O31 1.782175 1_555
Ge1 O1 1.782175 1_455
Ge2 O6 1.782175 1_555
Ge2 O24 1.782175 1_555
Ge2 O25 1.782175 1_555
Ge2 O7 1.782175 1_555
Ge3 O26 1.782175 1_655
Ge3 O4 1.782175 1_555
Ge3 O27 1.782175 1_555
Ge3 O5 1.782175 1_554
Ge4 O32 1.782175 1_555
Ge4 O10 1.782175 1_555
Ge4 O33 1.782175 1_555
Ge4 O11 1.782175 1_555
Ge5 O34 1.782175 1_556
Ge5 O35 1.782175 1_555
Ge5 O8 1.782175 1_555
Ge5 O9 1.782175 1_545
Ge6 O15 1.782175 1_555
Ge6 O40 1.782175 1_555
Ge6 O41 1.782175 1_555
Ge6 O14 1.782175 1_555
Ge7 O42 1.782175 1_545
Ge7 O12 1.782175 1_555
Ge7 O13 1.782175 1_655
Ge7 O43 1.782175 1_555
Ge8 O36 1.782175 1_555
Ge8 O18 1.782175 1_555
Ge8 O19 1.782175 1_555
Ge8 O37 1.782175 1_555
Ge9 O38 1.782175 1_455
Ge9 O16 1.782175 1_555
Ge9 O17 1.782175 1_556
Ge9 O39 1.782175 1_555
Ge10 O23 1.782175 1_555
Ge10 O44 1.782175 1_555
Ge10 O22 1.782175 1_555
Ge10 O45 1.782175 1_555
Ge11 O20 1.782175 1_555
Ge11 O46 1.782175 1_554
Ge11 O21 1.782175 1_565
Ge11 O47 1.782175 1_555
