# generated using pymatgen
data_Zn5(SiN3)2
_symmetry_space_group_name_H-M   'P 1'
_cell_length_a   5.23868993
_cell_length_b   5.59519993
_cell_length_c   13.35994231
_cell_angle_alpha   90.00000151
_cell_angle_beta   92.22039657
_cell_angle_gamma   122.27791350
_symmetry_Int_Tables_number   1
_chemical_formula_structural   Zn5(SiN3)2
_chemical_formula_sum   'Zn10 Si4 N12'
_cell_volume   330.73751686
_cell_formula_units_Z   2
loop_
 _symmetry_equiv_pos_site_id
 _symmetry_equiv_pos_as_xyz
  1  'x, y, z'
loop_
 _atom_site_type_symbol
 _atom_site_label
 _atom_site_symmetry_multiplicity
 _atom_site_fract_x
 _atom_site_fract_y
 _atom_site_fract_z
 _atom_site_occupancy
  Zn  Zn0  1  0.00000000  0.54340100  0.75000000  1
  Zn  Zn1  1  0.00000000  0.45659900  0.25000000  1
  Zn  Zn2  1  0.22899500  0.84971300  0.03754000  1
  Zn  Zn3  1  0.77100500  0.62071900  0.46246000  1
  Zn  Zn4  1  0.77100500  0.15028700  0.96246000  1
  Zn  Zn5  1  0.22899500  0.37928100  0.53754000  1
  Zn  Zn6  1  0.28374400  0.20996200  0.72734600  1
  Zn  Zn7  1  0.71625600  0.92621800  0.77265400  1
  Zn  Zn8  1  0.71625600  0.79003800  0.27265400  1
  Zn  Zn9  1  0.28374400  0.07378200  0.22734600  1
  Si  Si0  1  0.57583000  0.03174100  0.59290700  1
  Si  Si1  1  0.42417000  0.45591100  0.90709300  1
  Si  Si2  1  0.42417000  0.96825900  0.40709300  1
  Si  Si3  1  0.57583000  0.54408900  0.09290700  1
  N  N0  1  0.35596200  0.90655900  0.69747400  1
  N  N1  1  0.64403800  0.55059700  0.80252600  1
  N  N2  1  0.64403800  0.09344100  0.30252600  1
  N  N3  1  0.35596200  0.44940300  0.19747400  1
  N  N4  1  0.49066500  0.22235200  0.50326300  1
  N  N5  1  0.50933500  0.73168700  0.99673700  1
  N  N6  1  0.50933500  0.77764800  0.49673700  1
  N  N7  1  0.49066500  0.26831300  0.00326300  1
  N  N8  1  0.94586700  0.23002600  0.64129900  1
  N  N9  1  0.05413300  0.28415900  0.85870100  1
  N  N10  1  0.05413300  0.76997400  0.35870100  1
  N  N11  1  0.94586700  0.71584100  0.14129900  1
loop_
_geom_bond_atom_site_label_1
_geom_bond_atom_site_label_2
_geom_bond_distance
_geom_bond_site_symmetry_2
N0 Si0 1.741246 1_565
N0 Zn6 1.970255 1_565
N0 Zn0 2.037901 1_555
N0 Zn7 2.053002 1_555
N1 Si1 1.741246 1_555
N1 Zn7 1.970256 1_555
N1 Zn0 2.037901 1_655
N1 Zn6 2.053002 1_555
N2 Si2 1.741246 1_545
N2 Zn8 1.970255 1_545
N2 Zn1 2.037901 1_655
N2 Zn9 2.053002 1_555
N3 Si3 1.741246 1_555
N3 Zn9 1.970256 1_555
N3 Zn1 2.037901 1_555
N3 Zn8 2.053002 1_555
N4 Si2 1.797144 1_545
N4 Si0 1.799342 1_555
N4 Zn3 1.996994 1_555
N4 Zn5 2.047922 1_555
N5 Si3 1.797144 1_556
N5 Si1 1.799342 1_555
N5 Zn2 1.996990 1_556
N5 Zn4 2.047926 1_565
N6 Si0 1.797144 1_565
N6 Si2 1.799342 1_555
N6 Zn5 1.996994 1_555
N6 Zn3 2.047922 1_555
N7 Si1 1.797144 1_554
N7 Si3 1.799342 1_555
N7 Zn4 1.996990 1_554
N7 Zn2 2.047926 1_545
N8 Si0 1.735663 1_555
N8 Zn5 1.911887 1_655
N8 Zn6 2.126434 1_655
N8 Zn0 2.168139 1_655
N8 Zn7 2.322885 1_545
N9 Si1 1.735663 1_555
N9 Zn4 1.911887 1_455
N9 Zn7 2.126434 1_445
N9 Zn0 2.168139 1_555
N9 Zn6 2.322885 1_555
N10 Si2 1.735663 1_555
N10 Zn3 1.911887 1_455
N10 Zn8 2.126434 1_455
N10 Zn1 2.168139 1_555
N10 Zn9 2.322885 1_565
N11 Si3 1.735663 1_555
N11 Zn2 1.911887 1_655
N11 Zn9 2.126434 1_665
N11 Zn1 2.168139 1_655
N11 Zn8 2.322885 1_555
