# generated using pymatgen
data_NaSr3SbO6
_symmetry_space_group_name_H-M   'P 1'
_cell_length_a   6.91926628
_cell_length_b   6.91926628
_cell_length_c   6.91926613
_cell_angle_alpha   91.18726168
_cell_angle_beta   91.18726168
_cell_angle_gamma   91.18727273
_symmetry_Int_Tables_number   1
_chemical_formula_structural   NaSr3SbO6
_chemical_formula_sum   'Na2 Sr6 Sb2 O12'
_cell_volume   331.05213503
_cell_formula_units_Z   2
loop_
 _symmetry_equiv_pos_site_id
 _symmetry_equiv_pos_as_xyz
  1  'x, y, z'
loop_
 _atom_site_type_symbol
 _atom_site_label
 _atom_site_symmetry_multiplicity
 _atom_site_fract_x
 _atom_site_fract_y
 _atom_site_fract_z
 _atom_site_occupancy
  Na  Na0  1  0.75000000  0.75000000  0.75000000  1
  Na  Na1  1  0.25000000  0.25000000  0.25000000  1
  Sr  Sr0  1  0.09966300  0.75000000  0.40033700  1
  Sr  Sr1  1  0.40033700  0.09966300  0.75000000  1
  Sr  Sr2  1  0.25000000  0.59966300  0.90033700  1
  Sr  Sr3  1  0.90033700  0.25000000  0.59966300  1
  Sr  Sr4  1  0.59966300  0.90033700  0.25000000  1
  Sr  Sr5  1  0.75000000  0.40033700  0.09966300  1
  Sb  Sb0  1  0.50000000  0.50000000  0.50000000  1
  Sb  Sb1  1  0.00000000  0.00000000  0.00000000  1
  O  O0  1  0.07295100  0.27992800  0.94584600  1
  O  O1  1  0.94584600  0.07295100  0.27992800  1
  O  O2  1  0.27992800  0.94584600  0.07295100  1
  O  O3  1  0.42704900  0.55415400  0.22007200  1
  O  O4  1  0.22007200  0.42704900  0.55415400  1
  O  O5  1  0.55415400  0.22007200  0.42704900  1
  O  O6  1  0.92704900  0.72007200  0.05415400  1
  O  O7  1  0.05415400  0.92704900  0.72007200  1
  O  O8  1  0.72007200  0.05415400  0.92704900  1
  O  O9  1  0.57295100  0.44584600  0.77992800  1
  O  O10  1  0.44584600  0.77992800  0.57295100  1
  O  O11  1  0.77992800  0.57295100  0.44584600  1
loop_
_geom_bond_atom_site_label_1
_geom_bond_atom_site_label_2
_geom_bond_distance
_geom_bond_site_symmetry_2
Na0 O7 2.427833 1_655
Na0 O9 2.427833 1_555
Na0 O6 2.427834 1_556
Na0 O11 2.427834 1_555
Na0 O8 2.427834 1_565
Na0 O10 2.427834 1_555
Na1 O3 2.427833 1_555
Na1 O1 2.427833 1_455
Na1 O4 2.427834 1_555
Na1 O0 2.427834 1_554
Na1 O5 2.427834 1_555
Na1 O2 2.427834 1_545
O0 Sb1 2.035721 1_556
O0 Sr2 2.535124 1_555
O0 Sr5 2.638027 1_456
O0 Sr3 2.656622 1_455
O0 Sr1 2.949202 1_555
O1 Sb1 2.035721 1_655
O1 Sr3 2.535124 1_555
O1 Sr0 2.638027 1_645
O1 Sr4 2.656622 1_545
O1 Sr5 2.949202 1_555
O2 Sb1 2.035721 1_565
O2 Sr4 2.535124 1_555
O2 Sr1 2.638027 1_564
O2 Sr2 2.656622 1_554
O2 Sr0 2.949202 1_555
O3 Sb0 2.035721 1_555
O3 Sr2 2.535124 1_554
O3 Sr5 2.638027 1_555
O3 Sr4 2.656622 1_555
O3 Sr0 2.949202 1_555
O4 Sb0 2.035721 1_555
O4 Sr3 2.535124 1_455
O4 Sr0 2.638027 1_555
O4 Sr2 2.656622 1_555
O4 Sr1 2.949202 1_555
O5 Sb0 2.035721 1_555
O5 Sr4 2.535124 1_545
O5 Sr1 2.638027 1_555
O5 Sr3 2.656622 1_555
O5 Sr5 2.949202 1_555
O6 Sb1 2.035721 1_665
O6 Sr5 2.535124 1_555
O6 Sr2 2.638027 1_654
O6 Sr0 2.656622 1_655
O6 Sr4 2.949202 1_555
O7 Sb1 2.035721 1_566
O7 Sr0 2.535124 1_555
O7 Sr3 2.638027 1_465
O7 Sr1 2.656622 1_565
O7 Sr2 2.949202 1_555
O8 Sb1 2.035721 1_656
O8 Sr1 2.535124 1_555
O8 Sr4 2.638027 1_546
O8 Sr5 2.656622 1_556
O8 Sr3 2.949202 1_555
O9 Sb0 2.035721 1_555
O9 Sr5 2.535124 1_556
O9 Sr2 2.638027 1_555
O9 Sr1 2.656622 1_555
O9 Sr3 2.949202 1_555
O10 Sb0 2.035721 1_555
O10 Sr1 2.535124 1_565
O10 Sr4 2.638027 1_555
O10 Sr0 2.656622 1_555
O10 Sr2 2.949202 1_555
O11 Sb0 2.035721 1_555
O11 Sr0 2.535124 1_655
O11 Sr3 2.638027 1_555
O11 Sr5 2.656622 1_555
O11 Sr4 2.949202 1_555
