# generated using pymatgen
data_U2AsSe
_symmetry_space_group_name_H-M   'P 1'
_cell_length_a   7.19734805
_cell_length_b   7.19734805
_cell_length_c   7.19734805
_cell_angle_alpha   131.84622589
_cell_angle_beta   131.51457739
_cell_angle_gamma   70.73460660
_symmetry_Int_Tables_number   1
_chemical_formula_structural   U2AsSe
_chemical_formula_sum   'U4 As2 Se2'
_cell_volume   203.71411421
_cell_formula_units_Z   2
loop_
 _symmetry_equiv_pos_site_id
 _symmetry_equiv_pos_as_xyz
  1  'x, y, z'
loop_
 _atom_site_type_symbol
 _atom_site_label
 _atom_site_symmetry_multiplicity
 _atom_site_fract_x
 _atom_site_fract_y
 _atom_site_fract_z
 _atom_site_occupancy
  U  U0  1  0.74826271  0.74826271  -0.00000000  1
  U  U1  1  0.25210782  0.25210782  0.00000000  1
  U  U2  1  0.00173729  0.50173729  0.50000000  1
  U  U3  1  0.49789218  0.99789218  0.50000000  1
  As  As0  1  0.49865747  0.49865747  0.00000000  1
  As  As1  1  0.25134253  0.75134253  0.50000000  1
  Se  Se0  1  0.00120178  0.00120178  -0.00000000  1
  Se  Se1  1  0.74879822  0.24879822  0.50000000  1
loop_
_geom_bond_atom_site_label_1
_geom_bond_atom_site_label_2
_geom_bond_distance
_geom_bond_site_symmetry_2
As0 U1 2.894067 1_555
As0 U0 2.929935 1_555
As0 U3 2.936260 1_544
As0 U3 2.936260 1_555
As0 U2 2.955473 1_655
As0 U2 2.955473 1_554
As1 U3 2.894067 1_555
As1 U2 2.929935 1_555
As1 U1 2.936260 1_566
As1 U1 2.936260 1_555
As1 U0 2.955473 1_556
As1 U0 2.955473 1_455
Se0 U2 2.936253 1_555
Se0 U2 2.936253 1_544
Se0 U1 2.945204 1_555
Se0 U3 2.955507 1_545
Se0 U3 2.955507 1_444
Se0 U0 2.969068 1_445
Se1 U0 2.936253 1_545
Se1 U0 2.936253 1_556
Se1 U3 2.945204 1_545
Se1 U1 2.955507 1_555
Se1 U1 2.955507 1_656
Se1 U2 2.969068 1_655
