# generated using pymatgen
data_VGeN2
_symmetry_space_group_name_H-M   'P 1'
_cell_length_a   6.54236300
_cell_length_b   9.69293500
_cell_length_c   3.35716300
_cell_angle_alpha   90.00000000
_cell_angle_beta   90.00000000
_cell_angle_gamma   90.00000000
_symmetry_Int_Tables_number   1
_chemical_formula_structural   VGeN2
_chemical_formula_sum   'V4 Ge4 N8'
_cell_volume   212.89348216
_cell_formula_units_Z   4
loop_
 _symmetry_equiv_pos_site_id
 _symmetry_equiv_pos_as_xyz
  1  'x, y, z'
loop_
 _atom_site_type_symbol
 _atom_site_label
 _atom_site_symmetry_multiplicity
 _atom_site_fract_x
 _atom_site_fract_y
 _atom_site_fract_z
 _atom_site_occupancy
  V  V0  1  0.53045800  0.89483300  0.93750000  1
  V  V1  1  0.46954200  0.10516700  0.43750000  1
  V  V2  1  0.96954200  0.39483300  0.43750000  1
  V  V3  1  0.03045800  0.60516700  0.93750000  1
  Ge  Ge0  1  0.56086100  0.38259900  0.93750000  1
  Ge  Ge1  1  0.43913900  0.61740100  0.43750000  1
  Ge  Ge2  1  0.93913900  0.88259900  0.43750000  1
  Ge  Ge3  1  0.06086100  0.11740100  0.93750000  1
  N  N0  1  0.61350300  0.26347400  0.43750000  1
  N  N1  1  0.38649700  0.73652600  0.93750000  1
  N  N2  1  0.88649700  0.76347400  0.93750000  1
  N  N3  1  0.11350300  0.23652600  0.43750000  1
  N  N4  1  0.64963300  0.94132500  0.43750000  1
  N  N5  1  0.35036700  0.05867500  0.93750000  1
  N  N6  1  0.85036700  0.44132500  0.93750000  1
  N  N7  1  0.14963300  0.55867500  0.43750000  1
loop_
_geom_bond_atom_site_label_1
_geom_bond_atom_site_label_2
_geom_bond_distance
_geom_bond_site_symmetry_2
Ge0 N6 1.977741 1_555
Ge0 N0 2.066280 1_556
Ge0 N0 2.066280 1_555
Ge1 N7 1.977741 1_555
Ge1 N1 2.066280 1_555
Ge1 N1 2.066280 1_554
Ge2 N4 1.977741 1_555
Ge2 N2 2.066280 1_555
Ge2 N2 2.066280 1_554
Ge3 N5 1.977741 1_555
Ge3 N3 2.066280 1_556
Ge3 N3 2.066280 1_555
N0 V1 1.800455 1_555
N0 V2 2.654616 1_555
N1 V0 1.800455 1_555
N1 V3 2.654616 1_555
N2 V3 1.800455 1_655
N2 V0 2.654616 1_555
N3 V2 1.800455 1_455
N3 V1 2.654616 1_555
N4 V0 1.904895 1_554
N4 V0 1.904895 1_555
N4 V1 1.977447 1_565
N5 V1 1.904895 1_556
N5 V1 1.904895 1_555
N5 V0 1.977447 1_545
N6 V2 1.904895 1_556
N6 V2 1.904895 1_555
N6 V3 1.977447 1_655
N7 V3 1.904895 1_554
N7 V3 1.904895 1_555
N7 V2 1.977447 1_455
