# generated using pymatgen
data_Li2U3(SeO10)2
_symmetry_space_group_name_H-M   'P 1'
_cell_length_a   7.19269000
_cell_length_b   7.47586000
_cell_length_c   17.57605198
_cell_angle_alpha   84.88789296
_cell_angle_beta   90.00000000
_cell_angle_gamma   90.00000000
_symmetry_Int_Tables_number   1
_chemical_formula_structural   Li2U3(SeO10)2
_chemical_formula_sum   'Li4 U6 Se4 O40'
_cell_volume   941.33211411
_cell_formula_units_Z   2
loop_
 _symmetry_equiv_pos_site_id
 _symmetry_equiv_pos_as_xyz
  1  'x, y, z'
loop_
 _atom_site_type_symbol
 _atom_site_label
 _atom_site_symmetry_multiplicity
 _atom_site_fract_x
 _atom_site_fract_y
 _atom_site_fract_z
 _atom_site_occupancy
  Li  Li0  1  0.49686300  0.46284600  0.13266100  1
  Li  Li1  1  0.99686300  0.53715400  0.36733900  1
  Li  Li2  1  0.50313700  0.53715400  0.86733900  1
  Li  Li3  1  0.00313700  0.46284600  0.63266100  1
  U  U0  1  0.00000000  0.00000000  0.00000000  1
  U  U1  1  0.50000000  0.00000000  0.50000000  1
  U  U2  1  0.49714200  0.96804600  0.10598400  1
  U  U3  1  0.99714200  0.03195400  0.39401600  1
  U  U4  1  0.50285800  0.03195400  0.89401600  1
  U  U5  1  0.00285800  0.96804600  0.60598400  1
  Se  Se0  1  0.00746300  0.90631000  0.19902300  1
  Se  Se1  1  0.50746300  0.09369000  0.30097700  1
  Se  Se2  1  0.99253700  0.09369000  0.80097700  1
  Se  Se3  1  0.49253700  0.90631000  0.69902300  1
  O  O0  1  0.32483100  0.01352100  0.99893900  1
  O  O1  1  0.82483100  0.98647900  0.50106100  1
  O  O2  1  0.67516900  0.98647900  0.00106100  1
  O  O3  1  0.17516900  0.01352100  0.49893900  1
  O  O4  1  0.46658300  0.71841300  0.11437000  1
  O  O5  1  0.96658300  0.28158700  0.38563000  1
  O  O6  1  0.53341700  0.28158700  0.88563000  1
  O  O7  1  0.03341700  0.71841300  0.61437000  1
  O  O8  1  0.02008800  0.75976100  0.99843700  1
  O  O9  1  0.52008800  0.24023900  0.50156300  1
  O  O10  1  0.97991200  0.24023900  0.00156300  1
  O  O11  1  0.47991200  0.75976100  0.49843700  1
  O  O12  1  0.52132200  0.21243800  0.12093500  1
  O  O13  1  0.02132200  0.78756200  0.37906500  1
  O  O14  1  0.47867800  0.78756200  0.87906500  1
  O  O15  1  0.97867800  0.21243800  0.62093500  1
  O  O16  1  0.97342200  0.07528500  0.25754800  1
  O  O17  1  0.47342200  0.92471500  0.24245200  1
  O  O18  1  0.02657800  0.92471500  0.74245200  1
  O  O19  1  0.52657800  0.07528500  0.75754800  1
  O  O20  1  0.16331000  0.99802300  0.13081100  1
  O  O21  1  0.66331000  0.00197700  0.36918900  1
  O  O22  1  0.83669000  0.00197700  0.86918900  1
  O  O23  1  0.33669000  0.99802300  0.63081100  1
  O  O24  1  0.82148500  0.91940600  0.13637700  1
  O  O25  1  0.32148500  0.08059400  0.36362300  1
  O  O26  1  0.17851500  0.08059400  0.86362300  1
  O  O27  1  0.67851500  0.91940600  0.63637700  1
  O  O28  1  0.41486300  0.49422600  0.99512100  1
  O  O29  1  0.91486300  0.50577400  0.50487900  1
  O  O30  1  0.58513700  0.50577400  0.00487900  1
  O  O31  1  0.08513700  0.49422600  0.49512100  1
  O  O32  1  0.83087300  0.53768200  0.25484800  1
  O  O33  1  0.33087300  0.46231800  0.24515200  1
  O  O34  1  0.16912700  0.46231800  0.74515200  1
  O  O35  1  0.66912700  0.53768200  0.75484800  1
  O  O36  1  0.67652400  0.46993100  0.24727600  1
  O  O37  1  0.17652400  0.53006900  0.25272400  1
  O  O38  1  0.32347600  0.53006900  0.75272400  1
  O  O39  1  0.82347600  0.46993100  0.74727600  1
loop_
_geom_bond_atom_site_label_1
_geom_bond_atom_site_label_2
_geom_bond_distance
_geom_bond_site_symmetry_2
Li0 O12 1.909613 1_555
Li0 O4 1.921368 1_555
Li0 O33 2.309366 1_555
Li0 O30 2.328467 1_555
Li0 O36 2.397884 1_555
Li0 O28 2.479054 1_554
Li1 O13 1.909613 1_655
Li1 O5 1.921368 1_555
Li1 O32 2.309366 1_555
Li1 O31 2.328467 1_655
Li1 O37 2.397884 1_655
Li1 O29 2.479054 1_555
Li2 O14 1.909613 1_555
Li2 O6 1.921368 1_555
Li2 O35 2.309366 1_555
Li2 O28 2.328467 1_555
Li2 O38 2.397884 1_555
Li2 O30 2.479054 1_556
Li3 O15 1.909613 1_455
Li3 O7 1.921368 1_555
Li3 O34 2.309366 1_555
Li3 O29 2.328467 1_455
Li3 O39 2.397884 1_455
Li3 O31 2.479054 1_555
O0 U4 2.239238 1_555
O0 U2 2.253314 1_546
O0 U0 2.338597 1_556
O1 U5 2.239238 1_655
O1 U3 2.253314 1_565
O1 U1 2.338597 1_565
O2 U2 2.239238 1_555
O2 U4 2.253314 1_564
O2 U0 2.338597 1_665
O3 U3 2.239238 1_455
O3 U5 2.253314 1_545
O3 U1 2.338597 1_555
O4 U2 1.871844 1_555
O5 U3 1.871844 1_555
O6 U4 1.871844 1_555
O7 U5 1.871844 1_555
O8 U0 1.804443 1_566
O9 U1 1.804443 1_555
O10 U0 1.804443 1_655
O11 U1 1.804443 1_565
O12 U2 1.876949 1_545
O13 U3 1.876949 1_465
O14 U4 1.876949 1_565
O15 U5 1.876949 1_645
O16 Se0 1.716209 1_645
O16 U3 2.397646 1_555
O17 Se1 1.716209 1_565
O17 U2 2.397646 1_555
O18 Se2 1.716209 1_465
O18 U5 2.397646 1_555
O19 Se3 1.716209 1_545
O19 U4 2.397646 1_555
O20 Se0 1.737098 1_555
O20 U2 2.454299 1_555
O20 U0 2.580695 1_565
O21 Se1 1.737098 1_555
O21 U3 2.454299 1_555
O21 U1 2.580695 1_555
O22 Se2 1.737098 1_555
O22 U4 2.454299 1_555
O22 U0 2.580695 1_656
O23 Se3 1.737098 1_555
O23 U5 2.454299 1_555
O23 U1 2.580695 1_565
O24 Se0 1.729775 1_655
O24 U2 2.413583 1_555
O24 U0 2.738571 1_665
O25 Se1 1.729775 1_555
O25 U3 2.413583 1_455
O25 U1 2.738571 1_555
O26 Se2 1.729775 1_455
O26 U4 2.413583 1_555
O26 U0 2.738571 1_556
O27 Se3 1.729775 1_555
O27 U5 2.413583 1_655
O27 U1 2.738571 1_565
O28 O30 1.240752 1_556
O29 O31 1.240752 1_655
O32 O36 1.232385 1_555
O33 O37 1.232385 1_555
O34 O38 1.232385 1_555
O35 O39 1.232385 1_555
