# generated using pymatgen
data_MgSi
_symmetry_space_group_name_H-M   'P 1'
_cell_length_a   5.41761600
_cell_length_b   5.89013176
_cell_length_c   14.02434244
_cell_angle_alpha   95.79913969
_cell_angle_beta   93.79743739
_cell_angle_gamma   90.78850029
_symmetry_Int_Tables_number   1
_chemical_formula_structural   MgSi
_chemical_formula_sum   'Mg12 Si12'
_cell_volume   444.16121709
_cell_formula_units_Z   12
loop_
 _symmetry_equiv_pos_site_id
 _symmetry_equiv_pos_as_xyz
  1  'x, y, z'
loop_
 _atom_site_type_symbol
 _atom_site_label
 _atom_site_symmetry_multiplicity
 _atom_site_fract_x
 _atom_site_fract_y
 _atom_site_fract_z
 _atom_site_occupancy
  Mg  Mg0  1  0.73129400  0.64253200  0.76214900  1
  Mg  Mg1  1  0.61254600  0.74062700  0.09665100  1
  Mg  Mg2  1  0.49068900  0.24377900  0.43496500  1
  Mg  Mg3  1  0.88067100  0.14796500  0.77375800  1
  Mg  Mg4  1  0.70283100  0.24277200  0.09492300  1
  Mg  Mg5  1  0.98563700  0.74100400  0.43220000  1
  Mg  Mg6  1  0.38745400  0.25937300  0.90334900  1
  Mg  Mg7  1  0.26870600  0.35746800  0.23785100  1
  Mg  Mg8  1  0.50931100  0.75622100  0.56503500  1
  Mg  Mg9  1  0.29716900  0.75722800  0.90507700  1
  Mg  Mg10  1  0.11932900  0.85203500  0.22624200  1
  Mg  Mg11  1  0.01436300  0.25899600  0.56780000  1
  Si  Si0  1  0.23911500  0.49495300  0.72984100  1
  Si  Si1  1  0.17335400  0.48833000  0.05760500  1
  Si  Si2  1  0.98164600  0.21650800  0.37256800  1
  Si  Si3  1  0.35105800  0.98937900  0.73025100  1
  Si  Si4  1  0.17646600  0.06549500  0.06010300  1
  Si  Si5  1  0.46919600  0.72361600  0.36844600  1
  Si  Si6  1  0.82353400  0.93450500  0.93989700  1
  Si  Si7  1  0.64894200  0.01062100  0.26974900  1
  Si  Si8  1  0.01835400  0.78349200  0.62743200  1
  Si  Si9  1  0.82664600  0.51167000  0.94239500  1
  Si  Si10  1  0.76088500  0.50504700  0.27015900  1
  Si  Si11  1  0.53080400  0.27638400  0.63155400  1
loop_
_geom_bond_atom_site_label_1
_geom_bond_atom_site_label_2
_geom_bond_distance
_geom_bond_site_symmetry_2
Mg0 Si8 2.710740 1_655
Mg0 Si9 2.735443 1_555
Mg0 Si0 2.787002 1_555
Mg0 Si11 2.838872 1_555
Mg0 Si6 2.892464 1_555
Mg0 Si0 2.946395 1_655
Mg0 Si3 2.965772 1_555
Mg1 Si7 2.758426 1_565
Mg1 Si9 2.762242 1_554
Mg1 Si1 2.781243 1_555
Mg1 Si6 2.871888 1_554
Mg1 Si10 2.991051 1_555
Mg1 Si4 3.109334 1_565
Mg2 Si11 2.738215 1_555
Mg2 Si7 2.764470 1_555
Mg2 Si2 2.834918 1_455
Mg2 Si2 2.856194 1_555
Mg2 Si5 3.065829 1_555
Mg2 Si5 3.109514 1_545
Mg3 Si6 2.789681 1_545
Mg3 Si3 2.809865 1_645
Mg3 Si11 2.825908 1_555
Mg3 Si0 2.937869 1_655
Mg3 Si8 2.955146 1_645
Mg3 Si3 3.009406 1_545
Mg3 Si9 3.058335 1_555
Mg4 Si10 2.764437 1_555
Mg4 Si6 2.806176 1_544
Mg4 Si4 2.837195 1_655
Mg4 Si9 2.894782 1_554
Mg4 Si7 2.954280 1_555
Mg4 Si4 3.015163 1_555
Mg4 Si1 3.015307 1_655
Mg5 Si8 2.717852 1_655
Mg5 Si10 2.743571 1_555
Mg5 Si5 2.823487 1_655
Mg5 Si5 2.877550 1_555
Mg5 Si2 3.002807 1_565
Mg5 Si2 3.117308 1_555
Mg6 Si3 2.758426 1_545
Mg6 Si1 2.762242 1_556
Mg6 Si9 2.781243 1_555
Mg6 Si4 2.871888 1_556
Mg6 Si0 2.991051 1_555
Mg6 Si6 3.109334 1_545
Mg7 Si2 2.710740 1_455
Mg7 Si1 2.735443 1_555
Mg7 Si10 2.787002 1_555
Mg7 Si5 2.838872 1_555
Mg7 Si4 2.892464 1_555
Mg7 Si10 2.946395 1_455
Mg7 Si7 2.965772 1_555
Mg8 Si5 2.738215 1_555
Mg8 Si3 2.764470 1_555
Mg8 Si8 2.834918 1_655
Mg8 Si8 2.856194 1_555
Mg8 Si11 3.065829 1_555
Mg8 Si11 3.109514 1_565
Mg9 Si0 2.764437 1_555
Mg9 Si4 2.806176 1_566
Mg9 Si6 2.837195 1_455
Mg9 Si1 2.894782 1_556
Mg9 Si3 2.954280 1_555
Mg9 Si6 3.015163 1_555
Mg9 Si9 3.015307 1_455
Mg10 Si4 2.789681 1_565
Mg10 Si7 2.809865 1_465
Mg10 Si5 2.825908 1_555
Mg10 Si10 2.937869 1_455
Mg10 Si2 2.955146 1_465
Mg10 Si7 3.009406 1_565
Mg10 Si1 3.058335 1_555
Mg11 Si2 2.717852 1_455
Mg11 Si0 2.743571 1_555
Mg11 Si11 2.823487 1_455
Mg11 Si11 2.877550 1_555
Mg11 Si8 3.002807 1_545
Mg11 Si8 3.117308 1_555
Si0 Si11 2.457752 1_555
Si0 Si8 2.589060 1_555
Si1 Si9 2.409907 1_454
Si1 Si4 2.494610 1_555
Si2 Si7 2.457840 1_555
Si3 Si8 2.457840 1_555
Si4 Si6 2.522453 1_444
Si5 Si7 2.515561 1_565
Si6 Si9 2.494610 1_555
Si10 Si5 2.457752 1_555
Si10 Si2 2.589060 1_555
Si11 Si3 2.515561 1_545
