# generated using pymatgen
data_La(Al5Fe)2
_symmetry_space_group_name_H-M   'P 1'
_cell_length_a   6.82171558
_cell_length_b   6.82171558
_cell_length_c   9.06416500
_cell_angle_alpha   90.00000000
_cell_angle_beta   90.00000000
_cell_angle_gamma   97.28702689
_symmetry_Int_Tables_number   1
_chemical_formula_structural   La(Al5Fe)2
_chemical_formula_sum   'La2 Al20 Fe4'
_cell_volume   418.40133517
_cell_formula_units_Z   2
loop_
 _symmetry_equiv_pos_site_id
 _symmetry_equiv_pos_as_xyz
  1  'x, y, z'
loop_
 _atom_site_type_symbol
 _atom_site_label
 _atom_site_symmetry_multiplicity
 _atom_site_fract_x
 _atom_site_fract_y
 _atom_site_fract_z
 _atom_site_occupancy
  La  La0  1  0.87725100  0.12274900  0.75000000  1
  La  La1  1  0.12274900  0.87725100  0.25000000  1
  Al  Al0  1  0.62432000  0.37568000  0.54676200  1
  Al  Al1  1  0.37568000  0.62432000  0.45323800  1
  Al  Al2  1  0.37568000  0.62432000  0.04676200  1
  Al  Al3  1  0.62432000  0.37568000  0.95323800  1
  Al  Al4  1  0.23026400  0.23026400  0.50000000  1
  Al  Al5  1  0.76973600  0.76973600  0.50000000  1
  Al  Al6  1  0.76973600  0.76973600  0.00000000  1
  Al  Al7  1  0.23026400  0.23026400  0.00000000  1
  Al  Al8  1  0.83846000  0.16154000  0.09907900  1
  Al  Al9  1  0.16154000  0.83846000  0.90092100  1
  Al  Al10  1  0.16154000  0.83846000  0.59907900  1
  Al  Al11  1  0.83846000  0.16154000  0.40092100  1
  Al  Al12  1  0.86640300  0.58735500  0.75000000  1
  Al  Al13  1  0.13359700  0.41264500  0.25000000  1
  Al  Al14  1  0.41264500  0.13359700  0.75000000  1
  Al  Al15  1  0.58735500  0.86640300  0.25000000  1
  Al  Al16  1  0.22184900  0.48108000  0.75000000  1
  Al  Al17  1  0.77815100  0.51892000  0.25000000  1
  Al  Al18  1  0.51892000  0.77815100  0.75000000  1
  Al  Al19  1  0.48108000  0.22184900  0.25000000  1
  Fe  Fe0  1  0.00000000  0.50000000  0.50000000  1
  Fe  Fe1  1  0.00000000  0.50000000  0.00000000  1
  Fe  Fe2  1  0.50000000  0.00000000  0.00000000  1
  Fe  Fe3  1  0.50000000  0.00000000  0.50000000  1
loop_
_geom_bond_atom_site_label_1
_geom_bond_atom_site_label_2
_geom_bond_distance
_geom_bond_site_symmetry_2
Al0 Al11 2.560608 1_555
Al0 Fe0 2.629712 1_655
Al0 Fe3 2.629712 1_555
Al0 Al1 2.683711 1_555
Al0 Al12 2.756990 1_555
Al0 Al14 2.756990 1_555
Al0 Al5 2.777286 1_555
Al0 Al4 2.777286 1_555
Al0 Al17 3.005240 1_555
Al0 Al19 3.005240 1_555
Al0 La0 3.178527 1_555
Al1 Al10 2.560608 1_555
Al1 Fe3 2.629712 1_565
Al1 Fe0 2.629712 1_555
Al1 Al15 2.756990 1_555
Al1 Al13 2.756990 1_555
Al1 Al5 2.777286 1_555
Al1 Al4 2.777286 1_555
Al1 Al18 3.005240 1_555
Al1 Al16 3.005240 1_555
Al1 La1 3.178527 1_555
Al2 Al9 2.560608 1_554
Al2 Fe2 2.629712 1_565
Al2 Fe1 2.629712 1_555
Al2 Al3 2.683711 1_554
Al2 Al6 2.777286 1_555
Al2 Al7 2.777286 1_555
Al2 La1 3.178527 1_555
Al3 Al8 2.560608 1_556
Al3 Fe1 2.629712 1_656
Al3 Fe2 2.629712 1_556
Al3 Al6 2.777286 1_556
Al3 Al7 2.777286 1_556
Al3 La0 3.178527 1_555
Al4 Fe3 2.566409 1_555
Al4 Fe0 2.566409 1_555
Al4 La1 3.320244 1_545
Al4 La0 3.320244 1_455
Al5 Fe3 2.566409 1_565
Al5 Fe0 2.566409 1_655
Al5 La0 3.320244 1_565
Al5 La1 3.320244 1_655
Al6 Fe1 2.566409 1_655
Al6 Fe2 2.566409 1_565
Al6 Al9 2.802173 1_654
Al6 Al8 2.802173 1_565
Al6 La0 3.320244 1_564
Al6 La1 3.320244 1_655
Al7 Fe2 2.566409 1_555
Al7 Fe1 2.566409 1_555
Al7 Al9 2.802173 1_544
Al7 Al8 2.802173 1_455
Al7 La1 3.320244 1_545
Al7 La0 3.320244 1_454
Al8 Fe1 2.589663 1_655
Al8 Fe2 2.589663 1_555
Al8 La0 3.188950 1_554
Al8 La1 3.216756 1_645
Al9 Fe2 2.589663 1_566
Al9 Fe1 2.589663 1_556
Al9 La1 3.188950 1_556
Al9 La0 3.216756 1_465
Al10 Fe3 2.589663 1_565
Al10 Fe0 2.589663 1_555
Al10 Al9 2.735946 1_555
Al10 Al4 2.802173 1_565
Al10 Al5 2.802173 1_455
Al10 Al14 2.825643 1_565
Al10 Al12 2.825643 1_455
Al10 Al16 2.870300 1_555
Al10 Al18 2.870300 1_555
Al10 La1 3.188950 1_555
Al10 La0 3.216756 1_465
Al11 Fe0 2.589663 1_655
Al11 Fe3 2.589663 1_555
Al11 Al8 2.735946 1_555
Al11 Al4 2.802173 1_655
Al11 Al5 2.802173 1_545
Al11 Al13 2.825643 1_655
Al11 Al15 2.825643 1_545
Al11 Al19 2.870300 1_555
Al11 Al17 2.870300 1_555
Al11 La0 3.188950 1_555
Al11 La1 3.216756 1_645
Al12 Fe1 2.541339 1_656
Al12 Fe0 2.541339 1_655
Al12 Al16 2.617433 1_655
Al12 Al5 2.706629 1_555
Al12 Al6 2.706629 1_556
Al12 Al3 2.756990 1_555
Al12 Al9 2.825643 1_655
Al12 Al18 2.845286 1_555
Al12 La0 3.179644 1_555
Al12 La0 3.643659 1_565
Al13 Fe0 2.541339 1_555
Al13 Fe1 2.541339 1_555
Al13 Al17 2.617433 1_455
Al13 Al4 2.706629 1_555
Al13 Al7 2.706629 1_555
Al13 Al2 2.756990 1_555
Al13 Al8 2.825643 1_455
Al13 Al19 2.845286 1_555
Al13 La1 3.179644 1_555
Al13 La1 3.643659 1_545
Al14 Fe2 2.541339 1_556
Al14 Fe3 2.541339 1_555
Al14 Al18 2.617433 1_545
Al14 Al7 2.706629 1_556
Al14 Al4 2.706629 1_555
Al14 Al3 2.756990 1_555
Al14 Al9 2.825643 1_545
Al14 Al16 2.845286 1_555
Al14 La0 3.179644 1_555
Al14 La0 3.643659 1_455
Al15 Fe2 2.541339 1_565
Al15 Fe3 2.541339 1_565
Al15 Al19 2.617433 1_565
Al15 Al5 2.706629 1_555
Al15 Al6 2.706629 1_555
Al15 Al2 2.756990 1_555
Al15 Al8 2.825643 1_565
Al15 Al17 2.845286 1_555
Al15 La1 3.179644 1_555
Al15 La1 3.643659 1_655
Al16 Al18 2.678032 1_555
Al16 Fe1 2.737061 1_556
Al16 Fe0 2.737061 1_555
Al16 Al7 2.844409 1_556
Al16 Al4 2.844409 1_555
Al16 Al9 2.870300 1_555
Al16 Al2 3.005240 1_556
Al16 La0 3.169158 1_455
Al17 Al19 2.678032 1_555
Al17 Fe1 2.737061 1_655
Al17 Fe0 2.737061 1_655
Al17 Al6 2.844409 1_555
Al17 Al5 2.844409 1_555
Al17 Al8 2.870300 1_555
Al17 Al3 3.005240 1_554
Al17 La1 3.169158 1_655
Al18 Fe3 2.737061 1_565
Al18 Fe2 2.737061 1_566
Al18 Al6 2.844409 1_556
Al18 Al5 2.844409 1_555
Al18 Al9 2.870300 1_555
Al18 Al2 3.005240 1_556
Al18 La0 3.169158 1_565
Al19 Fe3 2.737061 1_555
Al19 Fe2 2.737061 1_555
Al19 Al4 2.844409 1_555
Al19 Al7 2.844409 1_555
Al19 Al8 2.870300 1_555
Al19 Al3 3.005240 1_554
Al19 La1 3.169158 1_545
Fe0 La1 3.451426 1_555
Fe0 La0 3.451426 1_455
Fe1 La1 3.451426 1_555
Fe1 La0 3.451426 1_454
Fe2 La1 3.451426 1_545
Fe2 La0 3.451426 1_554
Fe3 La1 3.451426 1_545
Fe3 La0 3.451426 1_555
