# generated using pymatgen
data_Mg14ZnW
_symmetry_space_group_name_H-M   'P 1'
_cell_length_a   6.25088728
_cell_length_b   6.25088679
_cell_length_c   9.88608657
_cell_angle_alpha   90.00000000
_cell_angle_beta   90.00000000
_cell_angle_gamma   120.00000257
_symmetry_Int_Tables_number   1
_chemical_formula_structural   Mg14ZnW
_chemical_formula_sum   'Mg14 Zn1 W1'
_cell_volume   334.53251139
_cell_formula_units_Z   1
loop_
 _symmetry_equiv_pos_site_id
 _symmetry_equiv_pos_as_xyz
  1  'x, y, z'
loop_
 _atom_site_type_symbol
 _atom_site_label
 _atom_site_symmetry_multiplicity
 _atom_site_fract_x
 _atom_site_fract_y
 _atom_site_fract_z
 _atom_site_occupancy
  Mg  Mg0  1  0.16650322  0.83325111  0.12500000  1
  Mg  Mg1  1  0.16786973  0.83393436  0.62500000  1
  Mg  Mg2  1  0.66674889  0.33349678  0.12500000  1
  Mg  Mg3  1  0.66606564  0.33213027  0.62500000  1
  Mg  Mg4  1  0.66674889  0.83325111  0.12500000  1
  Mg  Mg5  1  0.66606564  0.83393436  0.62500000  1
  Mg  Mg6  1  0.32627990  0.17372010  0.37924156  1
  Mg  Mg7  1  0.32627990  0.17372010  0.87075844  1
  Mg  Mg8  1  0.32627990  0.65256081  0.37924156  1
  Mg  Mg9  1  0.32627990  0.65256081  0.87075844  1
  Mg  Mg10  1  0.84743919  0.17372010  0.37924156  1
  Mg  Mg11  1  0.84743919  0.17372010  0.87075844  1
  Mg  Mg12  1  0.83333300  0.66666700  0.37575316  1
  Mg  Mg13  1  0.83333300  0.66666700  0.87424684  1
  Zn  Zn0  1  0.16666700  0.33333300  0.12500000  1
  W  W0  1  0.16666700  0.33333300  0.62500000  1
loop_
_geom_bond_atom_site_label_1
_geom_bond_atom_site_label_2
_geom_bond_distance
_geom_bond_site_symmetry_2
Mg0 Mg12 3.065653 1_455
Mg0 Mg13 3.065653 1_454
Mg0 Mg9 3.117486 1_554
Mg0 Mg8 3.117486 1_555
Mg0 Mg7 3.117492 1_564
Mg0 Mg6 3.117492 1_565
Mg0 Mg2 3.123908 1_455
Mg0 Mg4 3.123908 1_455
Mg0 Zn0 3.125444 1_565
Mg0 Zn0 3.125444 1_555
Mg0 Mg2 3.126979 1_565
Mg0 Mg4 3.126979 1_555
Mg1 Mg13 3.057999 1_455
Mg1 Mg12 3.057999 1_455
Mg1 W0 3.125450 1_555
Mg1 W0 3.125450 1_565
Mg2 Mg7 3.117492 1_554
Mg2 Mg6 3.117492 1_555
Mg2 Mg4 3.123908 1_555
Mg2 Zn0 3.125444 1_655
Mg2 Zn0 3.125444 1_555
Mg2 Mg4 3.126979 1_545
Mg3 W0 3.125450 1_655
Mg3 W0 3.125450 1_555
Mg4 Mg8 3.117492 1_555
Mg4 Mg9 3.117492 1_554
Mg4 Zn0 3.125444 1_665
Mg4 Zn0 3.125444 1_555
Mg5 W0 3.125450 1_555
Mg5 W0 3.125450 1_665
Mg6 W0 2.981485 1_555
Mg6 Zn0 3.050213 1_555
Mg7 W0 2.981485 1_555
Mg7 Zn0 3.050213 1_556
Mg8 W0 2.981491 1_555
Mg8 Zn0 3.050219 1_555
Mg9 W0 2.981491 1_555
Mg9 Zn0 3.050219 1_556
Mg10 W0 2.981491 1_655
Mg10 Zn0 3.050219 1_655
Mg10 Mg2 3.117486 1_555
Mg10 Mg4 3.117492 1_545
Mg10 Mg12 3.126566 1_555
Mg10 Mg12 3.126566 1_545
Mg11 W0 2.981491 1_655
Mg11 Zn0 3.050219 1_656
Mg11 Mg2 3.117486 1_556
Mg11 Mg4 3.117492 1_546
Mg11 Mg13 3.126566 1_555
Mg11 Mg13 3.126566 1_545
Mg12 Mg5 3.057992 1_555
Mg12 Mg3 3.057998 1_555
Mg12 Mg4 3.065646 1_555
Mg12 Mg2 3.065653 1_555
Mg12 Mg6 3.126566 1_665
Mg12 Mg6 3.126566 1_555
Mg12 Mg8 3.126567 1_655
Mg12 Mg8 3.126567 1_555
Mg13 Mg5 3.057992 1_555
Mg13 Mg3 3.057998 1_555
Mg13 Mg4 3.065646 1_556
Mg13 Mg2 3.065653 1_556
Mg13 Mg7 3.126566 1_665
Mg13 Mg7 3.126566 1_555
Mg13 Mg9 3.126567 1_655
Mg13 Mg9 3.126567 1_555
