# generated using pymatgen
data_LaErS3
_symmetry_space_group_name_H-M   'P 1'
_cell_length_a   4.00156755
_cell_length_b   11.07649514
_cell_length_c   21.61047509
_cell_angle_alpha   78.68363080
_cell_angle_beta   90.00000000
_cell_angle_gamma   90.00000000
_symmetry_Int_Tables_number   1
_chemical_formula_structural   LaErS3
_chemical_formula_sum   'La8 Er8 S24'
_cell_volume   939.22663116
_cell_formula_units_Z   8
loop_
 _symmetry_equiv_pos_site_id
 _symmetry_equiv_pos_as_xyz
  1  'x, y, z'
loop_
 _atom_site_type_symbol
 _atom_site_label
 _atom_site_symmetry_multiplicity
 _atom_site_fract_x
 _atom_site_fract_y
 _atom_site_fract_z
 _atom_site_occupancy
  La  La0  1  0.25000000  0.30136131  0.76563541  1
  La  La1  1  0.75000000  0.69863869  0.23436459  1
  La  La2  1  0.25000000  0.90824657  0.86516402  1
  La  La3  1  0.75000000  0.09175343  0.13483598  1
  La  La4  1  0.25000000  0.69028302  0.73381866  1
  La  La5  1  0.75000000  0.30971698  0.26618134  1
  La  La6  1  0.25000000  0.79994334  0.53628443  1
  La  La7  1  0.75000000  0.20005666  0.46371557  1
  Er  Er0  1  0.25000000  0.55286386  0.41662139  1
  Er  Er1  1  0.75000000  0.44713614  0.58337861  1
  Er  Er2  1  0.25000000  0.97169067  0.34989135  1
  Er  Er3  1  0.75000000  0.02830933  0.65010865  1
  Er  Er4  1  0.25000000  0.81866845  0.04678748  1
  Er  Er5  1  0.75000000  0.18133155  0.95321252  1
  Er  Er6  1  0.25000000  0.47795562  0.08686258  1
  Er  Er7  1  0.75000000  0.52204438  0.91313742  1
  S  S0  1  0.25000000  0.08716499  0.03467069  1
  S  S1  1  0.75000000  0.91283501  0.96532931  1
  S  S2  1  0.25000000  0.20511819  0.36474797  1
  S  S3  1  0.75000000  0.79488181  0.63525203  1
  S  S4  1  0.25000000  0.74643863  0.32543605  1
  S  S5  1  0.75000000  0.25356137  0.67456395  1
  S  S6  1  0.25000000  0.63442729  0.96457490  1
  S  S7  1  0.75000000  0.36557271  0.03542510  1
  S  S8  1  0.25000000  0.50750810  0.21955969  1
  S  S9  1  0.75000000  0.49249190  0.78044031  1
  S  S10  1  0.25000000  0.25323693  0.17208224  1
  S  S11  1  0.75000000  0.74676307  0.82791776  1
  S  S12  1  0.25000000  0.87519897  0.16242633  1
  S  S13  1  0.75000000  0.12480103  0.83757367  1
  S  S14  1  0.25000000  0.35778475  0.51368892  1
  S  S15  1  0.75000000  0.64221525  0.48631108  1
  S  S16  1  0.25000000  0.05747827  0.55733922  1
  S  S17  1  0.75000000  0.94252173  0.44266078  1
  S  S18  1  0.25000000  0.96400434  0.72961690  1
  S  S19  1  0.75000000  0.03599566  0.27038310  1
  S  S20  1  0.25000000  0.54420356  0.63441467  1
  S  S21  1  0.75000000  0.45579644  0.36558533  1
  S  S22  1  0.25000000  0.34258545  0.90195749  1
  S  S23  1  0.75000000  0.65741455  0.09804251  1
loop_
_geom_bond_atom_site_label_1
_geom_bond_atom_site_label_2
_geom_bond_distance
_geom_bond_site_symmetry_2
La0 S5 2.926741 1_455
La0 S5 2.926741 1_555
La0 S9 2.975441 1_555
La0 S9 2.975441 1_455
La0 S13 3.008561 1_555
La0 S13 3.008561 1_455
La0 S22 3.068428 1_555
La0 S20 3.504736 1_555
La1 S4 2.926741 1_655
La1 S4 2.926741 1_555
La1 S8 2.975441 1_555
La1 S8 2.975441 1_655
La1 S12 3.008561 1_555
La1 S12 3.008561 1_655
La1 S23 3.068428 1_555
La1 S21 3.504736 1_555
La2 S18 2.872608 1_555
La2 S11 2.900928 1_555
La2 S11 2.900928 1_455
La2 S1 2.955414 1_555
La2 S1 2.955414 1_455
La2 S13 3.090461 1_565
La2 S13 3.090461 1_465
La2 S6 3.355141 1_555
La3 S19 2.872608 1_555
La3 S10 2.900928 1_655
La3 S10 2.900928 1_555
La3 S0 2.955414 1_555
La3 S0 2.955414 1_655
La3 S12 3.090461 1_545
La3 S12 3.090461 1_645
La3 S7 3.355141 1_555
La4 S20 2.932031 1_555
La4 S3 2.985656 1_455
La4 S3 2.985656 1_555
La4 S9 2.991941 1_455
La4 S9 2.991941 1_555
La4 S11 3.004831 1_455
La4 S11 3.004831 1_555
La4 S18 3.015370 1_555
La5 S21 2.932031 1_555
La5 S2 2.985656 1_655
La5 S2 2.985656 1_555
La5 S8 2.991941 1_555
La5 S8 2.991941 1_655
La5 S10 3.004831 1_555
La5 S10 3.004831 1_655
La5 S19 3.015370 1_555
La6 S3 2.921201 1_455
La6 S3 2.921201 1_555
La6 S16 2.975508 1_565
La6 S15 2.993685 1_455
La6 S15 2.993685 1_555
La6 S17 3.055615 1_555
La6 S17 3.055615 1_455
La6 S20 3.188070 1_555
La7 S2 2.921201 1_655
La7 S2 2.921201 1_555
La7 S17 2.975508 1_545
La7 S14 2.993685 1_555
La7 S14 2.993685 1_655
La7 S16 3.055615 1_655
La7 S16 3.055615 1_555
La7 S21 3.188070 1_555
Er0 S4 2.611940 1_555
Er0 S21 2.615514 1_455
Er0 S21 2.615514 1_555
Er0 S14 2.700078 1_555
Er0 S15 2.799235 1_455
Er0 S15 2.799235 1_555
Er1 S5 2.611940 1_555
Er1 S20 2.615514 1_655
Er1 S20 2.615514 1_555
Er1 S15 2.700078 1_555
Er1 S14 2.799235 1_555
Er1 S14 2.799235 1_655
Er2 S19 2.642427 1_465
Er2 S19 2.642427 1_565
Er2 S4 2.649873 1_555
Er2 S2 2.667203 1_565
Er2 S17 2.805799 1_455
Er2 S17 2.805799 1_555
Er3 S18 2.642427 1_545
Er3 S18 2.642427 1_645
Er3 S5 2.649873 1_555
Er3 S3 2.667203 1_545
Er3 S16 2.805799 1_555
Er3 S16 2.805799 1_655
Er4 S12 2.692811 1_555
Er4 S1 2.733003 1_454
Er4 S1 2.733003 1_554
Er4 S23 2.764750 1_555
Er4 S23 2.764750 1_455
Er4 S0 2.933876 1_565
Er4 S6 2.957035 1_554
Er5 S13 2.692811 1_555
Er5 S0 2.733003 1_556
Er5 S0 2.733003 1_656
Er5 S22 2.764750 1_555
Er5 S22 2.764750 1_655
Er5 S1 2.933876 1_545
Er5 S7 2.957035 1_556
Er6 S7 2.707648 1_455
Er6 S7 2.707648 1_555
Er6 S10 2.790738 1_555
Er6 S6 2.861845 1_554
Er6 S23 2.863780 1_455
Er6 S23 2.863780 1_555
Er6 S8 2.949397 1_555
Er7 S6 2.707648 1_555
Er7 S6 2.707648 1_655
Er7 S11 2.790738 1_555
Er7 S7 2.861845 1_556
Er7 S22 2.863780 1_655
Er7 S22 2.863780 1_555
Er7 S9 2.949397 1_555
