# generated using pymatgen
data_Te3(Mo2N)2
_symmetry_space_group_name_H-M   'P 1'
_cell_length_a   6.51570000
_cell_length_b   9.76578800
_cell_length_c   10.35557000
_cell_angle_alpha   90.00000000
_cell_angle_beta   90.00000000
_cell_angle_gamma   90.00000000
_symmetry_Int_Tables_number   1
_chemical_formula_structural   Te3(Mo2N)2
_chemical_formula_sum   'Te12 Mo16 N8'
_cell_volume   658.93470378
_cell_formula_units_Z   4
loop_
 _symmetry_equiv_pos_site_id
 _symmetry_equiv_pos_as_xyz
  1  'x, y, z'
loop_
 _atom_site_type_symbol
 _atom_site_label
 _atom_site_symmetry_multiplicity
 _atom_site_fract_x
 _atom_site_fract_y
 _atom_site_fract_z
 _atom_site_occupancy
  Te  Te0  1  0.88757500  0.25000000  0.18820600  1
  Te  Te1  1  0.38757500  0.25000000  0.31179400  1
  Te  Te2  1  0.11242500  0.75000000  0.81179400  1
  Te  Te3  1  0.61242500  0.75000000  0.68820600  1
  Te  Te4  1  0.65835300  0.57786700  0.38410300  1
  Te  Te5  1  0.15835300  0.92213300  0.11589700  1
  Te  Te6  1  0.34164700  0.07786700  0.61589700  1
  Te  Te7  1  0.84164700  0.42213300  0.88410300  1
  Te  Te8  1  0.34164700  0.42213300  0.61589700  1
  Te  Te9  1  0.84164700  0.07786700  0.88410300  1
  Te  Te10  1  0.65835300  0.92213300  0.38410300  1
  Te  Te11  1  0.15835300  0.57786700  0.11589700  1
  Mo  Mo0  1  0.51293400  0.25000000  0.81962100  1
  Mo  Mo1  1  0.01293400  0.25000000  0.68037900  1
  Mo  Mo2  1  0.48706600  0.75000000  0.18037900  1
  Mo  Mo3  1  0.98706600  0.75000000  0.31962100  1
  Mo  Mo4  1  0.67207100  0.25000000  0.53515200  1
  Mo  Mo5  1  0.17207100  0.25000000  0.96484800  1
  Mo  Mo6  1  0.32792900  0.75000000  0.46484800  1
  Mo  Mo7  1  0.82792900  0.75000000  0.03515200  1
  Mo  Mo8  1  0.52841500  0.39476100  0.07791100  1
  Mo  Mo9  1  0.02841500  0.10523900  0.42208900  1
  Mo  Mo10  1  0.47158500  0.89476100  0.92208900  1
  Mo  Mo11  1  0.97158500  0.60523900  0.57791100  1
  Mo  Mo12  1  0.47158500  0.60523900  0.92208900  1
  Mo  Mo13  1  0.97158500  0.89476100  0.57791100  1
  Mo  Mo14  1  0.52841500  0.10523900  0.07791100  1
  Mo  Mo15  1  0.02841500  0.39476100  0.42208900  1
  N  N0  1  0.64225000  0.59723700  0.08621800  1
  N  N1  1  0.14225000  0.90276300  0.41378200  1
  N  N2  1  0.35775000  0.09723700  0.91378200  1
  N  N3  1  0.85775000  0.40276300  0.58621800  1
  N  N4  1  0.35775000  0.40276300  0.91378200  1
  N  N5  1  0.85775000  0.09723700  0.58621800  1
  N  N6  1  0.64225000  0.90276300  0.08621800  1
  N  N7  1  0.14225000  0.59723700  0.41378200  1
loop_
_geom_bond_atom_site_label_1
_geom_bond_atom_site_label_2
_geom_bond_distance
_geom_bond_site_symmetry_2
Mo0 N4 2.049100 1_555
Mo0 N2 2.049100 1_555
Mo0 Te9 2.803388 1_555
Mo0 Te7 2.803388 1_555
Mo0 Te6 2.919269 1_555
Mo0 Te8 2.919269 1_555
Mo1 N5 2.049100 1_455
Mo1 N3 2.049100 1_455
Mo1 Te8 2.803388 1_555
Mo1 Te6 2.803388 1_555
Mo1 Te9 2.919269 1_455
Mo1 Te7 2.919269 1_455
Mo2 N6 2.049100 1_555
Mo2 N0 2.049100 1_555
Mo2 Te5 2.803388 1_555
Mo2 Te11 2.803388 1_555
Mo2 Te4 2.919269 1_555
Mo2 Te10 2.919269 1_555
Mo3 N1 2.049100 1_655
Mo3 N7 2.049100 1_655
Mo3 Te10 2.803388 1_555
Mo3 Te4 2.803388 1_555
Mo3 Te5 2.919269 1_655
Mo3 Te11 2.919269 1_655
Mo4 N5 1.992223 1_555
Mo4 N3 1.992223 1_555
Mo4 Te8 2.856596 1_555
Mo4 Te6 2.856596 1_555
Mo4 Te1 2.964142 1_555
Mo5 N4 1.992223 1_555
Mo5 N2 1.992223 1_555
Mo5 Te9 2.856596 1_455
Mo5 Te7 2.856596 1_455
Mo5 Te0 2.964142 1_456
Mo6 N7 1.992223 1_555
Mo6 N1 1.992223 1_555
Mo6 Te10 2.856596 1_555
Mo6 Te4 2.856596 1_555
Mo6 Te3 2.964142 1_555
Mo7 N6 1.992223 1_555
Mo7 N0 1.992223 1_555
Mo7 Te11 2.856596 1_655
Mo7 Te5 2.856596 1_655
Mo7 Te2 2.964142 1_654
Mo8 N4 2.032600 1_554
Mo8 N0 2.113624 1_555
Mo8 Te7 2.874865 1_554
Mo8 Te1 2.950716 1_555
Mo8 Te0 2.963030 1_555
Mo8 Te11 3.027582 1_555
Mo9 N5 2.032600 1_455
Mo9 N1 2.113624 1_545
Mo9 Te6 2.874865 1_555
Mo9 Te0 2.950716 1_455
Mo9 Te1 2.963030 1_555
Mo9 Te10 3.027582 1_445
Mo10 N6 2.032600 1_556
Mo10 N2 2.113624 1_565
Mo10 Te5 2.874865 1_556
Mo10 Te3 2.950716 1_555
Mo10 Te2 2.963030 1_555
Mo10 Te9 3.027582 1_565
Mo11 N7 2.032600 1_655
Mo11 N3 2.113624 1_555
Mo11 Te4 2.874865 1_555
Mo11 Te2 2.950716 1_655
Mo11 Te3 2.963030 1_555
Mo11 Te8 3.027582 1_655
Mo12 N0 2.032600 1_556
Mo12 N4 2.113624 1_555
Mo12 Te11 2.874865 1_556
Mo12 Te3 2.950716 1_555
Mo12 Te2 2.963030 1_555
Mo12 Te7 3.027582 1_555
Mo13 N1 2.032600 1_655
Mo13 N5 2.113624 1_565
Mo13 Te10 2.874865 1_555
Mo13 Te2 2.950716 1_655
Mo13 Te3 2.963030 1_555
Mo13 Te6 3.027582 1_665
Mo14 N2 2.032600 1_554
Mo14 N6 2.113624 1_545
Mo14 Te9 2.874865 1_554
Mo14 Te1 2.950716 1_555
Mo14 Te0 2.963030 1_555
Mo14 Te5 3.027582 1_545
Mo15 N3 2.032600 1_455
Mo15 N7 2.113624 1_555
Mo15 Te8 2.874865 1_555
Mo15 Te0 2.950716 1_455
Mo15 Te1 2.963030 1_555
Mo15 Te4 3.027582 1_455
