# generated using pymatgen
data_TlHg6Se4Br5
_symmetry_space_group_name_H-M   'P 1'
_cell_length_a   11.49107599
_cell_length_b   11.49107599
_cell_length_c   11.49107599
_cell_angle_alpha   99.00237200
_cell_angle_beta   99.00237200
_cell_angle_gamma   133.39698617
_symmetry_Int_Tables_number   1
_chemical_formula_structural   TlHg6Se4Br5
_chemical_formula_sum   'Tl2 Hg12 Se8 Br10'
_cell_volume   1012.58813257
_cell_formula_units_Z   2
loop_
 _symmetry_equiv_pos_site_id
 _symmetry_equiv_pos_as_xyz
  1  'x, y, z'
loop_
 _atom_site_type_symbol
 _atom_site_label
 _atom_site_symmetry_multiplicity
 _atom_site_fract_x
 _atom_site_fract_y
 _atom_site_fract_z
 _atom_site_occupancy
  Tl  Tl0  1  0.75000000  0.25000000  0.50000000  1
  Tl  Tl1  1  0.25000000  0.75000000  0.50000000  1
  Hg  Hg0  1  0.22279100  0.08583500  0.78421500  1
  Hg  Hg1  1  0.30162000  0.43857600  0.21578500  1
  Hg  Hg2  1  0.43857600  0.22279100  0.13695600  1
  Hg  Hg3  1  0.08583500  0.30162000  0.86304400  1
  Hg  Hg4  1  0.77720900  0.91416500  0.21578500  1
  Hg  Hg5  1  0.69838000  0.56142400  0.78421500  1
  Hg  Hg6  1  0.56142400  0.77720900  0.86304400  1
  Hg  Hg7  1  0.91416500  0.69838000  0.13695600  1
  Hg  Hg8  1  0.76052000  0.86365600  0.62417600  1
  Hg  Hg9  1  0.23948000  0.13634400  0.37582400  1
  Hg  Hg10  1  0.13634400  0.76052000  0.89686400  1
  Hg  Hg11  1  0.86365600  0.23948000  0.10313600  1
  Se  Se0  1  0.07274200  0.14670700  0.66582300  1
  Se  Se1  1  0.48088400  0.40692000  0.33417700  1
  Se  Se2  1  0.40692000  0.07274200  0.92603600  1
  Se  Se3  1  0.14670700  0.48088400  0.07396400  1
  Se  Se4  1  0.92725800  0.85329300  0.33417700  1
  Se  Se5  1  0.51911600  0.59308000  0.66582300  1
  Se  Se6  1  0.59308000  0.92725800  0.07396400  1
  Se  Se7  1  0.85329300  0.51911600  0.92603600  1
  Br  Br0  1  0.50000000  0.50000000  0.00000000  1
  Br  Br1  1  0.00000000  0.00000000  0.00000000  1
  Br  Br2  1  0.56993400  0.83153000  0.40146300  1
  Br  Br3  1  0.43006600  0.16847000  0.59853700  1
  Br  Br4  1  0.16847000  0.56993400  0.73840400  1
  Br  Br5  1  0.83153000  0.43006600  0.26159600  1
  Br  Br6  1  0.93312800  0.68754300  0.62067100  1
  Br  Br7  1  0.06687200  0.31245700  0.37932900  1
  Br  Br8  1  0.31245700  0.93312800  0.24558500  1
  Br  Br9  1  0.68754300  0.06687200  0.75441500  1
loop_
_geom_bond_atom_site_label_1
_geom_bond_atom_site_label_2
_geom_bond_distance
_geom_bond_site_symmetry_2
Hg0 Se0 2.556174 1_555
Hg0 Se2 2.567161 1_555
Hg1 Se1 2.556165 1_555
Hg1 Se3 2.567153 1_555
Hg2 Se2 2.556170 1_554
Hg2 Se1 2.567153 1_555
Hg3 Se3 2.556165 1_556
Hg3 Se0 2.567147 1_555
Hg4 Se4 2.556174 1_555
Hg4 Se6 2.567161 1_555
Hg5 Se5 2.556165 1_555
Hg5 Se7 2.567153 1_555
Hg6 Se6 2.556170 1_556
Hg6 Se5 2.567153 1_555
Hg7 Se7 2.556165 1_554
Hg7 Se4 2.567147 1_555
Hg8 Se0 2.573099 1_665
Hg8 Se5 2.573105 1_555
Hg9 Se4 2.573099 1_445
Hg9 Se1 2.573105 1_555
Hg10 Se2 2.573098 1_565
Hg10 Se7 2.573105 1_455
Hg11 Se6 2.573098 1_545
Hg11 Se3 2.573105 1_655
Br2 Hg8 2.884701 1_555
Br2 Hg4 3.200592 1_555
Br2 Hg1 3.200598 1_555
Br3 Hg9 2.884701 1_555
Br3 Hg0 3.200592 1_555
Br3 Hg5 3.200598 1_555
Br4 Hg10 2.884693 1_555
Br4 Hg3 3.200601 1_555
Br4 Hg6 3.200601 1_555
Br5 Hg11 2.884693 1_555
Br5 Hg7 3.200601 1_555
Br5 Hg2 3.200601 1_555
Br6 Hg0 3.158417 1_665
Br6 Hg5 3.158417 1_555
Br6 Hg10 3.222714 1_655
Br7 Hg4 3.158417 1_445
Br7 Hg1 3.158417 1_555
Br7 Hg11 3.222714 1_455
Br8 Hg7 3.158417 1_455
Br8 Hg2 3.158417 1_565
Br8 Hg9 3.222714 1_565
Br9 Hg3 3.158417 1_655
Br9 Hg6 3.158417 1_545
Br9 Hg8 3.222714 1_545
