# generated using pymatgen
data_Mg7Sb
_symmetry_space_group_name_H-M   'P 1'
_cell_length_a   6.32833090
_cell_length_b   6.32833090
_cell_length_c   5.31983100
_cell_angle_alpha   90.00000000
_cell_angle_beta   90.00000000
_cell_angle_gamma   119.99998845
_symmetry_Int_Tables_number   1
_chemical_formula_structural   Mg7Sb
_chemical_formula_sum   'Mg7 Sb1'
_cell_volume   184.50446350
_cell_formula_units_Z   1
loop_
 _symmetry_equiv_pos_site_id
 _symmetry_equiv_pos_as_xyz
  1  'x, y, z'
loop_
 _atom_site_type_symbol
 _atom_site_label
 _atom_site_symmetry_multiplicity
 _atom_site_fract_x
 _atom_site_fract_y
 _atom_site_fract_z
 _atom_site_occupancy
  Mg  Mg0  1  0.83381800  0.66763700  0.50000000  1
  Mg  Mg1  1  0.33236300  0.16618200  0.50000000  1
  Mg  Mg2  1  0.83381800  0.16618200  0.50000000  1
  Mg  Mg3  1  0.50070300  0.49929700  0.00000000  1
  Mg  Mg4  1  0.99859500  0.49929700  0.00000000  1
  Mg  Mg5  1  0.50070300  0.00140500  0.00000000  1
  Mg  Mg6  1  0.00000000  0.00000000  0.00000000  1
  Sb  Sb0  1  0.33333300  0.66666700  0.50000000  1
loop_
_geom_bond_atom_site_label_1
_geom_bond_atom_site_label_2
_geom_bond_distance
_geom_bond_site_symmetry_2
Mg0 Sb0 3.164170 1_655
Mg0 Sb0 3.164170 1_555
Mg0 Mg6 3.223828 1_665
Mg0 Mg6 3.223828 1_666
Mg0 Mg3 3.226178 1_555
Mg0 Mg3 3.226178 1_556
Mg0 Mg4 3.226184 1_555
Mg0 Mg4 3.226184 1_556
Mg1 Sb0 3.164170 1_545
Mg1 Sb0 3.164170 1_555
Mg1 Mg6 3.223828 1_556
Mg1 Mg6 3.223828 1_555
Mg1 Mg3 3.226178 1_555
Mg1 Mg3 3.226178 1_556
Mg1 Mg5 3.226184 1_556
Mg1 Mg5 3.226184 1_555
Mg2 Sb0 3.164170 1_545
Mg2 Sb0 3.164170 1_655
Mg2 Mg6 3.223830 1_656
Mg2 Mg6 3.223830 1_655
Mg2 Mg5 3.226178 1_556
Mg2 Mg5 3.226178 1_555
Mg2 Mg4 3.226178 1_555
Mg2 Mg4 3.226178 1_556
Mg3 Mg5 3.150825 1_555
Mg3 Mg4 3.150825 1_555
Mg3 Mg6 3.164175 1_665
Mg3 Mg6 3.164175 1_555
Mg3 Mg4 3.177506 1_455
Mg3 Mg5 3.177506 1_565
Mg3 Sb0 3.231206 1_555
Mg3 Sb0 3.231206 1_554
Mg4 Mg5 3.150826 1_555
Mg4 Mg6 3.164172 1_655
Mg4 Mg6 3.164178 1_665
Mg4 Mg5 3.177506 1_665
Mg4 Sb0 3.231200 1_654
Mg4 Sb0 3.231200 1_655
Mg5 Mg6 3.164172 1_655
Mg5 Mg6 3.164178 1_555
Mg5 Sb0 3.231200 1_545
Mg5 Sb0 3.231200 1_544
