# generated using pymatgen
data_Sb2O3
_symmetry_space_group_name_H-M   'P 1'
_cell_length_a   6.72618377
_cell_length_b   6.72618377
_cell_length_c   16.64689900
_cell_angle_alpha   90.00000000
_cell_angle_beta   90.00000000
_cell_angle_gamma   151.10285957
_symmetry_Int_Tables_number   1
_chemical_formula_structural   Sb2O3
_chemical_formula_sum   'Sb8 O12'
_cell_volume   363.94226961
_cell_formula_units_Z   4
loop_
 _symmetry_equiv_pos_site_id
 _symmetry_equiv_pos_as_xyz
  1  'x, y, z'
loop_
 _atom_site_type_symbol
 _atom_site_label
 _atom_site_symmetry_multiplicity
 _atom_site_fract_x
 _atom_site_fract_y
 _atom_site_fract_z
 _atom_site_occupancy
  Sb  Sb0  1  0.62732700  0.37267300  0.05516900  1
  Sb  Sb1  1  0.37267300  0.62732700  0.94483100  1
  Sb  Sb2  1  0.62732700  0.37267300  0.44483100  1
  Sb  Sb3  1  0.37267300  0.62732700  0.55516900  1
  Sb  Sb4  1  0.09458200  0.90541800  0.63258700  1
  Sb  Sb5  1  0.90541800  0.09458200  0.36741300  1
  Sb  Sb6  1  0.90541800  0.09458200  0.13258700  1
  Sb  Sb7  1  0.09458200  0.90541800  0.86741300  1
  O  O0  1  0.00000000  0.00000000  0.50000000  1
  O  O1  1  0.00000000  0.00000000  0.00000000  1
  O  O2  1  0.49671300  0.50328700  0.86234400  1
  O  O3  1  0.50328700  0.49671300  0.13765600  1
  O  O4  1  0.50328700  0.49671300  0.36234400  1
  O  O5  1  0.49671300  0.50328700  0.63765600  1
  O  O6  1  0.82178100  0.17821900  0.88441500  1
  O  O7  1  0.17821900  0.82178100  0.11558500  1
  O  O8  1  0.17821900  0.82178100  0.38441500  1
  O  O9  1  0.82178100  0.17821900  0.61558500  1
  O  O10  1  0.10697900  0.89302100  0.75000000  1
  O  O11  1  0.89302100  0.10697900  0.25000000  1
loop_
_geom_bond_atom_site_label_1
_geom_bond_atom_site_label_2
_geom_bond_distance
_geom_bond_site_symmetry_2
O0 Sb4 2.527778 1_545
O0 Sb5 2.527778 1_455
O0 Sb2 2.532033 1_445
O0 Sb3 2.532033 1_445
O0 Sb2 2.532033 1_555
O0 Sb3 2.532033 1_555
O1 Sb6 2.527778 1_455
O1 Sb7 2.527778 1_544
O1 Sb0 2.532033 1_445
O1 Sb0 2.532033 1_555
O1 Sb1 2.532033 1_554
O1 Sb1 2.532033 1_444
O2 Sb7 2.109291 1_545
O2 Sb7 2.109291 1_655
O2 Sb1 2.120505 1_555
O3 Sb6 2.109291 1_455
O3 Sb6 2.109291 1_565
O3 Sb0 2.120505 1_555
O4 Sb5 2.109291 1_455
O4 Sb5 2.109291 1_565
O4 Sb2 2.120505 1_555
O5 Sb4 2.109291 1_545
O5 Sb4 2.109291 1_655
O5 Sb3 2.120505 1_555
O6 Sb1 2.065811 1_545
O6 Sb1 2.065811 1_655
O7 Sb0 2.065811 1_455
O7 Sb0 2.065811 1_565
O8 Sb2 2.065811 1_455
O8 Sb2 2.065811 1_565
O9 Sb3 2.065811 1_545
O9 Sb3 2.065811 1_655
O10 Sb7 1.961223 1_555
O10 Sb4 1.961223 1_555
O11 Sb5 1.961223 1_555
O11 Sb6 1.961223 1_555
