# generated using pymatgen
data_NaLi3Fe4(SiO3)8
_symmetry_space_group_name_H-M   'P 1'
_cell_length_a   8.79699400
_cell_length_b   5.36398300
_cell_length_c   9.46620756
_cell_angle_alpha   77.41275230
_cell_angle_beta   90.00000000
_cell_angle_gamma   90.00000000
_symmetry_Int_Tables_number   1
_chemical_formula_structural   NaLi3Fe4(SiO3)8
_chemical_formula_sum   'Na1 Li3 Fe4 Si8 O24'
_cell_volume   435.94538383
_cell_formula_units_Z   1
loop_
 _symmetry_equiv_pos_site_id
 _symmetry_equiv_pos_as_xyz
  1  'x, y, z'
loop_
 _atom_site_type_symbol
 _atom_site_label
 _atom_site_symmetry_multiplicity
 _atom_site_fract_x
 _atom_site_fract_y
 _atom_site_fract_z
 _atom_site_occupancy
  Na  Na0  1  0.79070300  0.50000000  0.50000000  1
  Li  Li0  1  0.26841400  0.00000000  0.00000000  1
  Li  Li1  1  0.23241700  0.00000000  0.50000000  1
  Li  Li2  1  0.73139100  0.50000000  0.00000000  1
  Fe  Fe0  1  0.39890100  0.50000000  0.50000000  1
  Fe  Fe1  1  0.89809400  0.00000000  0.00000000  1
  Fe  Fe2  1  0.59859100  0.00000000  0.50000000  1
  Fe  Fe3  1  0.10166300  0.50000000  0.00000000  1
  Si  Si0  1  0.09080300  0.71427500  0.29375000  1
  Si  Si1  1  0.58765400  0.21384600  0.79571000  1
  Si  Si2  1  0.09080300  0.28572500  0.70625000  1
  Si  Si3  1  0.58765400  0.78615400  0.20429000  1
  Si  Si4  1  0.91048000  0.78852800  0.70764600  1
  Si  Si5  1  0.41021300  0.28451400  0.20457400  1
  Si  Si6  1  0.91048000  0.21147200  0.29235400  1
  Si  Si7  1  0.41021300  0.71548600  0.79542600  1
  O  O0  1  0.00067100  0.94067400  0.35386300  1
  O  O1  1  0.50036400  0.44408800  0.85472000  1
  O  O2  1  0.00067100  0.05932600  0.64613700  1
  O  O3  1  0.50036400  0.55591200  0.14528000  1
  O  O4  1  0.00103500  0.55981300  0.64883400  1
  O  O5  1  0.49863100  0.05801900  0.14310200  1
  O  O6  1  0.00103500  0.44018700  0.35116600  1
  O  O7  1  0.49863100  0.94198100  0.85689800  1
  O  O8  1  0.25646200  0.70767100  0.36744000  1
  O  O9  1  0.75620900  0.20797400  0.86619900  1
  O  O10  1  0.25646200  0.29232900  0.63256000  1
  O  O11  1  0.75620900  0.79202600  0.13380100  1
  O  O12  1  0.74195600  0.80559800  0.63868600  1
  O  O13  1  0.24265900  0.29245800  0.13286100  1
  O  O14  1  0.74195600  0.19440200  0.36131400  1
  O  O15  1  0.24265900  0.70754200  0.86713900  1
  O  O16  1  0.08617600  0.78329900  0.11507600  1
  O  O17  1  0.57814300  0.27743500  0.61732200  1
  O  O18  1  0.08617600  0.21670100  0.88492400  1
  O  O19  1  0.57814300  0.72256500  0.38267800  1
  O  O20  1  0.91501100  0.71776500  0.88628200  1
  O  O21  1  0.41344700  0.21796400  0.38344900  1
  O  O22  1  0.91501100  0.28223500  0.11371800  1
  O  O23  1  0.41344700  0.78203600  0.61655100  1
loop_
_geom_bond_atom_site_label_1
_geom_bond_atom_site_label_2
_geom_bond_distance
_geom_bond_site_symmetry_2
Na0 O12 2.352112 1_555
Na0 O14 2.352112 1_555
Na0 O17 2.361623 1_555
Na0 O19 2.361623 1_555
Na0 O4 2.389247 1_655
Na0 O6 2.389247 1_655
Li0 O16 2.134472 1_545
Li0 O18 2.134472 1_554
Li0 O13 2.225756 1_555
Li0 O15 2.225756 1_544
Li0 O5 2.493419 1_555
Li0 O7 2.493419 1_544
Li1 O21 2.134968 1_555
Li1 O23 2.134968 1_545
Li1 O10 2.221654 1_555
Li1 O8 2.221654 1_545
Li1 O2 2.522498 1_555
Li1 O0 2.522498 1_545
Li2 O22 2.141119 1_555
Li2 O20 2.141119 1_554
Li2 O11 2.229423 1_555
Li2 O9 2.229423 1_554
Li2 O1 2.508276 1_554
Li2 O3 2.508276 1_555
Fe0 O8 1.943283 1_555
Fe0 O10 1.943283 1_555
Fe0 O23 2.061503 1_555
Fe0 O21 2.061503 1_555
Fe0 O17 2.137066 1_555
Fe0 O19 2.137066 1_555
Fe1 O11 1.946998 1_545
Fe1 O9 1.946998 1_554
Fe1 O20 2.045277 1_544
Fe1 O22 2.045277 1_555
Fe1 O16 2.173349 1_645
Fe1 O18 2.173349 1_654
Fe2 O12 1.950589 1_545
Fe2 O14 1.950589 1_555
Fe2 O17 2.049570 1_555
Fe2 O19 2.049570 1_545
Fe2 O21 2.162098 1_555
Fe2 O23 2.162098 1_545
Fe3 O13 1.936314 1_555
Fe3 O15 1.936314 1_554
Fe3 O16 2.058135 1_555
Fe3 O18 2.058135 1_554
Fe3 O20 2.161312 1_454
Fe3 O22 2.161312 1_455
O0 Si6 1.646151 1_465
O0 Si0 1.651801 1_555
O1 Si7 1.645335 1_555
O1 Si1 1.651555 1_555
O2 Si4 1.646151 1_445
O2 Si2 1.651801 1_555
O3 Si5 1.645335 1_555
O3 Si3 1.651555 1_555
O4 Si2 1.652947 1_555
O4 Si4 1.657504 1_455
O5 Si3 1.645365 1_545
O5 Si5 1.651593 1_555
O6 Si0 1.652947 1_555
O6 Si6 1.657504 1_455
O7 Si1 1.645365 1_565
O7 Si7 1.651593 1_555
O8 Si0 1.612702 1_555
O9 Si1 1.623484 1_555
O10 Si2 1.612702 1_555
O11 Si3 1.623484 1_555
O12 Si4 1.614400 1_555
O13 Si5 1.619456 1_555
O14 Si6 1.614400 1_555
O15 Si7 1.619456 1_555
O16 Si0 1.651216 1_555
O17 Si1 1.650413 1_555
O18 Si2 1.651216 1_555
O19 Si3 1.650413 1_555
O20 Si4 1.650881 1_555
O21 Si5 1.652859 1_555
O22 Si6 1.650881 1_555
O23 Si7 1.652859 1_555
