# generated using pymatgen
data_LiH2BrO5
_symmetry_space_group_name_H-M   'P 1'
_cell_length_a   5.56326500
_cell_length_b   8.11648282
_cell_length_c   10.94410318
_cell_angle_alpha   109.70454591
_cell_angle_beta   90.00000000
_cell_angle_gamma   110.04230994
_symmetry_Int_Tables_number   1
_chemical_formula_structural   LiH2BrO5
_chemical_formula_sum   'Li4 H8 Br4 O20'
_cell_volume   433.31371913
_cell_formula_units_Z   4
loop_
 _symmetry_equiv_pos_site_id
 _symmetry_equiv_pos_as_xyz
  1  'x, y, z'
loop_
 _atom_site_type_symbol
 _atom_site_label
 _atom_site_symmetry_multiplicity
 _atom_site_fract_x
 _atom_site_fract_y
 _atom_site_fract_z
 _atom_site_occupancy
  Li  Li0  1  0.00000000  0.50000000  0.00000000  1
  Li  Li1  1  0.50000000  0.50000000  0.50000000  1
  Li  Li2  1  0.42988900  0.00000000  0.25000000  1
  Li  Li3  1  0.57011100  0.00000000  0.75000000  1
  H  H0  1  0.54877500  0.21049200  0.50973100  1
  H  H1  1  0.33828300  0.78950800  0.99026900  1
  H  H2  1  0.45122500  0.78950800  0.49026900  1
  H  H3  1  0.66171700  0.21049200  0.00973100  1
  H  H4  1  0.76981200  0.29228500  0.43363000  1
  H  H5  1  0.47752600  0.70771500  0.06637000  1
  H  H6  1  0.23018800  0.70771500  0.56637000  1
  H  H7  1  0.52247400  0.29228500  0.93363000  1
  Br  Br0  1  0.81709800  0.74112100  0.28892200  1
  Br  Br1  1  0.07597700  0.25887900  0.21107800  1
  Br  Br2  1  0.18290200  0.25887900  0.71107800  1
  Br  Br3  1  0.92402300  0.74112100  0.78892200  1
  O  O0  1  0.76839900  0.65206600  0.12694400  1
  O  O1  1  0.11633300  0.34793400  0.37305600  1
  O  O2  1  0.23160100  0.34793400  0.87305600  1
  O  O3  1  0.88366700  0.65206600  0.62694400  1
  O  O4  1  0.73261300  0.57000500  0.34740100  1
  O  O5  1  0.16260900  0.42999500  0.15259900  1
  O  O6  1  0.26738700  0.42999500  0.65259900  1
  O  O7  1  0.83739100  0.57000500  0.84740100  1
  O  O8  1  0.12257800  0.87219600  0.34148000  1
  O  O9  1  0.25038200  0.12780400  0.15852000  1
  O  O10  1  0.87742200  0.12780400  0.65852000  1
  O  O11  1  0.74961800  0.87219600  0.84148000  1
  O  O12  1  0.63684400  0.86954400  0.34065200  1
  O  O13  1  0.76730000  0.13045600  0.15934800  1
  O  O14  1  0.36315600  0.13045600  0.65934800  1
  O  O15  1  0.23270000  0.86954400  0.84065200  1
  O  O16  1  0.58193000  0.25270500  0.43514500  1
  O  O17  1  0.32922400  0.74729500  0.06485500  1
  O  O18  1  0.41807000  0.74729500  0.56485500  1
  O  O19  1  0.67077600  0.25270500  0.93514500  1
loop_
_geom_bond_atom_site_label_1
_geom_bond_atom_site_label_2
_geom_bond_distance
_geom_bond_site_symmetry_2
Li0 O17 2.099195 1_555
Li0 O19 2.099195 1_454
Li0 O5 2.218675 1_555
Li0 O7 2.218675 1_454
Li0 O0 2.246621 1_455
Li0 O2 2.246621 1_554
Li1 O18 2.099198 1_555
Li1 O16 2.099198 1_555
Li1 O6 2.218673 1_555
Li1 O4 2.218673 1_555
Li1 O3 2.246622 1_555
Li1 O1 2.246622 1_555
Li2 O9 2.118023 1_555
Li2 O8 2.118023 1_545
Li2 O12 2.230472 1_545
Li2 O13 2.230472 1_555
Li2 O17 2.244181 1_545
Li2 O16 2.244181 1_555
Li3 O11 2.118023 1_545
Li3 O10 2.118023 1_555
Li3 O14 2.230472 1_555
Li3 O15 2.230472 1_545
Li3 O19 2.244181 1_555
Li3 O18 2.244181 1_545
H0 O16 0.981324 1_555
H1 O17 0.981324 1_556
H2 O18 0.981324 1_555
H3 O19 0.981324 1_554
H4 O16 0.984599 1_555
H5 O17 0.984599 1_555
H6 O18 0.984599 1_555
H7 O19 0.984599 1_555
Br0 O8 1.642846 1_655
Br0 O4 1.646636 1_555
Br0 O12 1.652610 1_555
Br0 O0 1.655312 1_555
Br1 O9 1.642846 1_555
Br1 O5 1.646636 1_555
Br1 O13 1.652610 1_455
Br1 O1 1.655312 1_555
Br2 O10 1.642846 1_455
Br2 O6 1.646636 1_555
Br2 O14 1.652610 1_555
Br2 O2 1.655312 1_555
Br3 O11 1.642846 1_555
Br3 O7 1.646636 1_555
Br3 O15 1.652610 1_655
Br3 O3 1.655312 1_555
