# generated using pymatgen
data_Ce2Al41Mo3
_symmetry_space_group_name_H-M   'P 1'
_cell_length_a   10.32233194
_cell_length_b   10.32233194
_cell_length_c   10.32233240
_cell_angle_alpha   60.26177518
_cell_angle_beta   60.26177518
_cell_angle_gamma   60.26177741
_symmetry_Int_Tables_number   1
_chemical_formula_structural   Ce2Al41Mo3
_chemical_formula_sum   'Ce2 Al41 Mo3'
_cell_volume   782.31956058
_cell_formula_units_Z   1
loop_
 _symmetry_equiv_pos_site_id
 _symmetry_equiv_pos_as_xyz
  1  'x, y, z'
loop_
 _atom_site_type_symbol
 _atom_site_label
 _atom_site_symmetry_multiplicity
 _atom_site_fract_x
 _atom_site_fract_y
 _atom_site_fract_z
 _atom_site_occupancy
  Ce  Ce0  1  0.12508100  0.12508100  0.12508100  1
  Ce  Ce1  1  0.87491900  0.87491900  0.87491900  1
  Al  Al0  1  0.76132300  0.48789900  0.48789900  1
  Al  Al1  1  0.48727300  0.76225900  0.76225900  1
  Al  Al2  1  0.48789900  0.48789900  0.76132300  1
  Al  Al3  1  0.76225900  0.76225900  0.48727300  1
  Al  Al4  1  0.76225900  0.48727300  0.76225900  1
  Al  Al5  1  0.48789900  0.76132300  0.48789900  1
  Al  Al6  1  0.23867700  0.51210100  0.51210100  1
  Al  Al7  1  0.51272700  0.23774100  0.23774100  1
  Al  Al8  1  0.51210100  0.51210100  0.23867700  1
  Al  Al9  1  0.23774100  0.23774100  0.51272700  1
  Al  Al10  1  0.23774100  0.51272700  0.23774100  1
  Al  Al11  1  0.51210100  0.23867800  0.51210100  1
  Al  Al12  1  0.32516100  0.79294700  0.32516100  1
  Al  Al13  1  0.05706600  0.32504300  0.79336300  1
  Al  Al14  1  0.79336300  0.32504300  0.05706600  1
  Al  Al15  1  0.32507100  0.05642200  0.32507100  1
  Al  Al16  1  0.32504300  0.79336300  0.05706600  1
  Al  Al17  1  0.79294700  0.32516100  0.32516100  1
  Al  Al18  1  0.05642200  0.32507100  0.32507100  1
  Al  Al19  1  0.32504300  0.05706600  0.79336300  1
  Al  Al20  1  0.05706600  0.79336300  0.32504300  1
  Al  Al21  1  0.32507100  0.32507100  0.05642200  1
  Al  Al22  1  0.32516100  0.32516100  0.79294700  1
  Al  Al23  1  0.79336300  0.05706600  0.32504300  1
  Al  Al24  1  0.67483900  0.20705300  0.67483900  1
  Al  Al25  1  0.94293400  0.67495700  0.20663700  1
  Al  Al26  1  0.20663700  0.67495700  0.94293400  1
  Al  Al27  1  0.67492900  0.94357800  0.67492900  1
  Al  Al28  1  0.67495700  0.20663700  0.94293400  1
  Al  Al29  1  0.20705300  0.67483900  0.67483900  1
  Al  Al30  1  0.94357800  0.67492900  0.67492900  1
  Al  Al31  1  0.67495700  0.94293400  0.20663700  1
  Al  Al32  1  0.94293400  0.20663700  0.67495700  1
  Al  Al33  1  0.67492900  0.67492900  0.94357800  1
  Al  Al34  1  0.67483900  0.67483900  0.20705300  1
  Al  Al35  1  0.20663700  0.94293400  0.67495700  1
  Al  Al36  1  0.00000000  0.00000000  0.00000000  1
  Al  Al37  1  0.50000000  0.00000000  0.00000000  1
  Al  Al38  1  0.00000000  0.00000000  0.50000000  1
  Al  Al39  1  0.00000000  0.50000000  0.00000000  1
  Al  Al40  1  0.50000000  0.50000000  0.50000000  1
  Mo  Mo0  1  0.00000000  0.50000000  0.50000000  1
  Mo  Mo1  1  0.50000000  0.50000000  0.00000000  1
  Mo  Mo2  1  0.50000000  0.00000000  0.50000000  1
loop_
_geom_bond_atom_site_label_1
_geom_bond_atom_site_label_2
_geom_bond_distance
_geom_bond_site_symmetry_2
Al0 Al40 2.579621 1_555
Al0 Mo0 2.593670 1_655
Al0 Al17 2.731616 1_555
Al0 Al18 2.751883 1_655
Al0 Al2 2.833533 1_555
Al0 Al5 2.833533 1_555
Al0 Al3 2.833635 1_555
Al0 Al4 2.833635 1_555
Al0 Al24 2.869389 1_555
Al0 Al34 2.869389 1_555
Al0 Al25 2.881267 1_555
Al0 Al32 2.881267 1_555
Al1 Mo1 2.596991 1_556
Al1 Mo2 2.596991 1_565
Al1 Al19 2.747382 1_565
Al1 Al16 2.747382 1_556
Al1 Al2 2.833635 1_555
Al1 Al5 2.833635 1_555
Al1 Al3 2.849721 1_555
Al1 Al4 2.849721 1_555
Al1 Al26 2.871337 1_555
Al1 Al35 2.871338 1_555
Al1 Al27 2.873738 1_555
Al1 Al33 2.873738 1_555
Al2 Al40 2.579621 1_555
Al2 Mo1 2.593670 1_556
Al2 Al22 2.731616 1_555
Al2 Al21 2.751883 1_556
Al2 Al5 2.833533 1_555
Al2 Al4 2.833635 1_555
Al2 Al29 2.869389 1_555
Al2 Al24 2.869389 1_555
Al2 Al28 2.881267 1_555
Al2 Al26 2.881267 1_555
Al3 Mo2 2.596991 1_565
Al3 Mo0 2.596991 1_655
Al3 Al5 2.833635 1_555
Al3 Al4 2.849721 1_555
Al3 Al31 2.871338 1_555
Al3 Al30 2.873738 1_555
Al4 Mo1 2.596991 1_556
Al4 Mo0 2.596991 1_655
Al5 Mo2 2.593670 1_565
Al6 Mo0 2.593670 1_555
Al6 Al8 2.833533 1_555
Al6 Al9 2.833635 1_555
Al7 Mo1 2.596991 1_555
Al7 Mo2 2.596991 1_555
Al7 Al8 2.833635 1_555
Al7 Al9 2.849721 1_555
Al8 Mo1 2.593670 1_555
Al9 Mo2 2.596991 1_555
Al9 Mo0 2.596991 1_555
Al10 Mo1 2.596991 1_555
Al10 Mo0 2.596991 1_555
Al10 Al25 2.747382 1_455
Al10 Al26 2.747382 1_554
Al10 Al8 2.833635 1_555
Al10 Al6 2.833635 1_555
Al10 Al9 2.849721 1_555
Al10 Al7 2.849721 1_555
Al10 Al16 2.871337 1_555
Al10 Al20 2.871338 1_555
Al10 Al18 2.873738 1_555
Al10 Al21 2.873738 1_555
Al11 Al40 2.579611 1_555
Al11 Mo2 2.593681 1_555
Al11 Al24 2.731611 1_555
Al11 Al27 2.751888 1_545
Al11 Al8 2.833528 1_555
Al11 Al6 2.833528 1_555
Al11 Al9 2.833640 1_555
Al11 Al7 2.833640 1_555
Al11 Al17 2.869384 1_555
Al11 Al22 2.869384 1_555
Al11 Al19 2.881271 1_555
Al11 Al23 2.881272 1_555
Al12 Al15 2.718755 1_565
Al12 Al5 2.731616 1_555
Al12 Al20 2.765842 1_555
Al12 Al16 2.765842 1_555
Al12 Al40 2.839229 1_555
Al12 Al6 2.869389 1_555
Al12 Al8 2.869389 1_555
Al12 Al34 2.957085 1_555
Al12 Al29 2.957085 1_555
Al12 Al37 3.129062 1_565
Al12 Al38 3.129062 1_565
Al12 Ce0 3.235326 1_565
Al13 Al14 2.732793 1_456
Al13 Al4 2.747382 1_455
Al13 Al22 2.765842 1_555
Al13 Al19 2.777085 1_555
Al13 Mo0 2.840284 1_555
Al13 Al9 2.871338 1_555
Al13 Al6 2.881267 1_555
Al13 Al32 2.952054 1_455
Al13 Al30 2.958702 1_455
Al13 Al39 3.110911 1_556
Al13 Al36 3.125435 1_556
Al13 Ce0 3.226990 1_556
Al14 Al4 2.747382 1_554
Al14 Al17 2.765842 1_555
Al14 Al23 2.777085 1_555
Al14 Mo1 2.840284 1_555
Al14 Al7 2.871337 1_555
Al14 Al8 2.881267 1_555
Al14 Al28 2.952054 1_554
Al14 Al33 2.958702 1_554
Al14 Al39 3.110911 1_655
Al14 Al36 3.125435 1_655
Al14 Ce0 3.226990 1_655
Al15 Al5 2.751883 1_545
Al15 Al21 2.784049 1_555
Al15 Al18 2.784049 1_555
Al15 Mo2 2.829866 1_555
Al15 Al7 2.873738 1_555
Al15 Al9 2.873738 1_555
Al15 Al31 2.958702 1_545
Al15 Al35 2.958702 1_545
Al15 Al38 3.121463 1_555
Al15 Al37 3.121463 1_555
Al15 Ce0 3.217200 1_555
Al16 Al19 2.732793 1_564
Al16 Al20 2.777085 1_555
Al16 Mo1 2.840284 1_555
Al16 Al8 2.881267 1_555
Al16 Al26 2.952054 1_554
Al16 Al33 2.958702 1_554
Al16 Al37 3.110911 1_565
Al16 Al36 3.125435 1_565
Al16 Ce0 3.226990 1_565
Al17 Al18 2.718755 1_655
Al17 Al23 2.765842 1_555
Al17 Al40 2.839229 1_555
Al17 Al8 2.869389 1_555
Al17 Al34 2.957085 1_555
Al17 Al24 2.957085 1_555
Al17 Al39 3.129062 1_655
Al17 Al38 3.129062 1_655
Al17 Ce0 3.235326 1_655
Al18 Al21 2.784049 1_555
Al18 Mo0 2.829866 1_555
Al18 Al9 2.873738 1_555
Al18 Al25 2.958702 1_455
Al18 Al32 2.958702 1_455
Al18 Al38 3.121463 1_555
Al18 Al39 3.121463 1_555
Al18 Ce0 3.217200 1_555
Al19 Al22 2.765842 1_555
Al19 Mo2 2.840284 1_555
Al19 Al9 2.871338 1_555
Al19 Al35 2.952054 1_545
Al19 Al27 2.958702 1_545
Al19 Al37 3.110911 1_556
Al19 Al36 3.125435 1_556
Al19 Ce0 3.226990 1_556
Al20 Al23 2.732793 1_465
Al20 Al3 2.747382 1_455
Al20 Mo0 2.840284 1_555
Al20 Al6 2.881267 1_555
Al20 Al25 2.952054 1_455
Al20 Al30 2.958702 1_455
Al20 Al38 3.110911 1_565
Al20 Al36 3.125435 1_565
Al20 Ce0 3.226990 1_565
Al21 Al22 2.718755 1_554
Al21 Mo1 2.829866 1_555
Al21 Al7 2.873738 1_555
Al21 Al28 2.958702 1_554
Al21 Al26 2.958702 1_554
Al21 Al37 3.121463 1_555
Al21 Al39 3.121463 1_555
Al21 Ce0 3.217200 1_555
Al22 Al40 2.839229 1_555
Al22 Al6 2.869389 1_555
Al22 Al29 2.957085 1_555
Al22 Al24 2.957085 1_555
Al22 Al39 3.129062 1_556
Al22 Al37 3.129062 1_556
Al22 Ce0 3.235326 1_556
Al23 Al3 2.747382 1_545
Al23 Mo2 2.840284 1_555
Al23 Al7 2.871338 1_555
Al23 Al31 2.952054 1_545
Al23 Al27 2.958702 1_545
Al23 Al38 3.110911 1_655
Al23 Al36 3.125435 1_655
Al23 Ce0 3.226990 1_655
Al24 Al27 2.718755 1_545
Al24 Al32 2.765842 1_555
Al24 Al28 2.765842 1_555
Al24 Al40 2.839229 1_555
Al24 Al37 3.129062 1_556
Al24 Al38 3.129062 1_655
Al24 Ce1 3.235326 1_545
Al25 Al26 2.732793 1_654
Al25 Al34 2.765842 1_555
Al25 Al31 2.777085 1_555
Al25 Mo0 2.840284 1_655
Al25 Al3 2.871338 1_555
Al25 Al39 3.110911 1_655
Al25 Al36 3.125435 1_665
Al25 Ce1 3.226990 1_554
Al26 Al29 2.765842 1_555
Al26 Al35 2.777085 1_555
Al26 Mo1 2.840284 1_556
Al26 Al39 3.110911 1_556
Al26 Al36 3.125435 1_566
Al26 Ce1 3.226990 1_455
Al27 Al33 2.784049 1_555
Al27 Al30 2.784049 1_555
Al27 Mo2 2.829866 1_565
Al27 Al3 2.873738 1_555
Al27 Al38 3.121463 1_665
Al27 Al37 3.121463 1_566
Al27 Ce1 3.217200 1_555
Al28 Al31 2.732793 1_546
Al28 Al7 2.747382 1_556
Al28 Al32 2.777085 1_555
Al28 Mo1 2.840284 1_556
Al28 Al4 2.871337 1_555
Al28 Al37 3.110911 1_556
Al28 Al36 3.125435 1_656
Al28 Ce1 3.226990 1_545
Al29 Al30 2.718755 1_455
Al29 Al6 2.731616 1_555
Al29 Al35 2.765842 1_555
Al29 Al40 2.839229 1_555
Al29 Al5 2.869389 1_555
Al29 Al39 3.129062 1_556
Al29 Al38 3.129062 1_565
Al29 Ce1 3.235326 1_455
Al30 Al6 2.751883 1_655
Al30 Al33 2.784049 1_555
Al30 Mo0 2.829866 1_655
Al30 Al4 2.873738 1_555
Al30 Al38 3.121463 1_665
Al30 Al39 3.121463 1_656
Al30 Ce1 3.217200 1_555
Al31 Al7 2.747382 1_565
Al31 Al34 2.765842 1_555
Al31 Mo2 2.840284 1_565
Al31 Al5 2.881267 1_555
Al31 Al37 3.110911 1_565
Al31 Al36 3.125435 1_665
Al31 Ce1 3.226990 1_554
Al32 Al35 2.732793 1_645
Al32 Al9 2.747382 1_655
Al32 Mo0 2.840284 1_655
Al32 Al4 2.871338 1_555
Al32 Al38 3.110911 1_655
Al32 Al36 3.125435 1_656
Al32 Ce1 3.226990 1_545
Al33 Al34 2.718755 1_556
Al33 Al8 2.751883 1_556
Al33 Mo1 2.829866 1_556
Al33 Al4 2.873738 1_555
Al33 Al39 3.121463 1_656
Al33 Al37 3.121463 1_566
Al33 Ce1 3.217200 1_555
Al34 Al8 2.731616 1_555
Al34 Al40 2.839229 1_555
Al34 Al5 2.869389 1_555
Al34 Al39 3.129062 1_655
Al34 Al37 3.129062 1_565
Al34 Ce1 3.235326 1_554
Al35 Al9 2.747382 1_565
Al35 Mo2 2.840284 1_565
Al35 Al5 2.881267 1_555
Al35 Al38 3.110911 1_565
Al35 Al36 3.125435 1_566
Al35 Ce1 3.226990 1_455
Al36 Ce1 3.156333 1_444
Al36 Ce0 3.156333 1_555
Al37 Ce0 3.170296 1_555
Al37 Ce1 3.170296 1_544
Al38 Ce0 3.170297 1_555
Al38 Ce1 3.170297 1_445
Al39 Ce0 3.170296 1_555
Al39 Ce1 3.170296 1_454
Al40 Al5 2.579621 1_555
Al40 Al6 2.579621 1_555
Al40 Al8 2.579621 1_555
