# generated using pymatgen
data_CsU(SeO4)2
_symmetry_space_group_name_H-M   'P 1'
_cell_length_a   10.40292800
_cell_length_b   8.88693500
_cell_length_c   13.72101353
_cell_angle_alpha   50.88609611
_cell_angle_beta   90.00000000
_cell_angle_gamma   90.00000000
_symmetry_Int_Tables_number   1
_chemical_formula_structural   CsU(SeO4)2
_chemical_formula_sum   'Cs4 U4 Se8 O32'
_cell_volume   984.22821845
_cell_formula_units_Z   4
loop_
 _symmetry_equiv_pos_site_id
 _symmetry_equiv_pos_as_xyz
  1  'x, y, z'
loop_
 _atom_site_type_symbol
 _atom_site_label
 _atom_site_symmetry_multiplicity
 _atom_site_fract_x
 _atom_site_fract_y
 _atom_site_fract_z
 _atom_site_occupancy
  Cs  Cs0  1  0.44851800  0.42887900  0.71415100  1
  Cs  Cs1  1  0.05148200  0.42887900  0.21415100  1
  Cs  Cs2  1  0.55148200  0.57112100  0.28584900  1
  Cs  Cs3  1  0.94851800  0.57112100  0.78584900  1
  U  U0  1  0.20786600  0.07493200  0.12205300  1
  U  U1  1  0.29213400  0.07493200  0.62205300  1
  U  U2  1  0.79213400  0.92506800  0.87794700  1
  U  U3  1  0.70786600  0.92506800  0.37794700  1
  Se  Se0  1  0.54878000  0.25349700  0.05699200  1
  Se  Se1  1  0.95122000  0.25349700  0.55699200  1
  Se  Se2  1  0.45122000  0.74650300  0.94300800  1
  Se  Se3  1  0.04878000  0.74650300  0.44300800  1
  Se  Se4  1  0.87273600  0.97859700  0.11765200  1
  Se  Se5  1  0.62726400  0.97859700  0.61765200  1
  Se  Se6  1  0.12726400  0.02140300  0.88234800  1
  Se  Se7  1  0.37273600  0.02140300  0.38234800  1
  O  O0  1  0.29260300  0.84433500  0.20850700  1
  O  O1  1  0.20739700  0.84433500  0.70850700  1
  O  O2  1  0.70739700  0.15566500  0.79149300  1
  O  O3  1  0.79260300  0.15566500  0.29149300  1
  O  O4  1  0.11382200  0.29695300  0.04674500  1
  O  O5  1  0.38617800  0.29695300  0.54674500  1
  O  O6  1  0.88617800  0.70304700  0.95325500  1
  O  O7  1  0.61382200  0.70304700  0.45325500  1
  O  O8  1  0.32409100  0.15930500  0.22711600  1
  O  O9  1  0.17590900  0.15930500  0.72711600  1
  O  O10  1  0.67590900  0.84069500  0.77288400  1
  O  O11  1  0.82409100  0.84069500  0.27288400  1
  O  O12  1  0.40728700  0.23915400  0.00005800  1
  O  O13  1  0.09271300  0.23915400  0.50005800  1
  O  O14  1  0.59271300  0.76084600  0.99994200  1
  O  O15  1  0.90728700  0.76084600  0.49994200  1
  O  O16  1  0.03115800  0.89749900  0.14144600  1
  O  O17  1  0.46884200  0.89749900  0.64144600  1
  O  O18  1  0.96884200  0.10250100  0.85855400  1
  O  O19  1  0.53115800  0.10250100  0.35855400  1
  O  O20  1  0.09129000  0.97437200  0.31392200  1
  O  O21  1  0.40871000  0.97437200  0.81392200  1
  O  O22  1  0.90871000  0.02562800  0.68607800  1
  O  O23  1  0.59129000  0.02562800  0.18607800  1
  O  O24  1  0.20029400  0.14531300  0.92565100  1
  O  O25  1  0.29970600  0.14531300  0.42565100  1
  O  O26  1  0.79970600  0.85468700  0.07434900  1
  O  O27  1  0.70029400  0.85468700  0.57434900  1
  O  O28  1  0.65957500  0.34267700  0.94470700  1
  O  O29  1  0.84042500  0.34267700  0.44470700  1
  O  O30  1  0.34042500  0.65732300  0.05529300  1
  O  O31  1  0.15957500  0.65732300  0.55529300  1
loop_
_geom_bond_atom_site_label_1
_geom_bond_atom_site_label_2
_geom_bond_distance
_geom_bond_site_symmetry_2
Cs0 O12 3.173438 1_556
Cs0 O5 3.235601 1_555
Cs0 O7 3.271619 1_555
Cs0 O2 3.320131 1_555
Cs0 O21 3.373987 1_545
Cs0 O24 3.494712 1_555
Cs0 O31 3.510622 1_555
Cs0 O28 3.515301 1_555
Cs0 O17 3.625166 1_555
Cs0 O9 3.643590 1_555
Cs1 O13 3.173438 1_555
Cs1 O4 3.235601 1_555
Cs1 O6 3.271619 1_454
Cs1 O3 3.320131 1_455
Cs1 O20 3.373987 1_545
Cs1 O25 3.494712 1_555
Cs1 O30 3.510622 1_555
Cs1 O29 3.515301 1_455
Cs1 O16 3.625166 1_555
Cs1 O8 3.643590 1_555
Cs2 O14 3.173438 1_554
Cs2 O7 3.235601 1_555
Cs2 O5 3.271619 1_555
Cs2 O0 3.320131 1_555
Cs2 O23 3.373987 1_565
Cs2 O26 3.494712 1_555
Cs2 O29 3.510622 1_555
Cs2 O30 3.515301 1_555
Cs2 O19 3.625166 1_555
Cs2 O11 3.643590 1_555
Cs3 O15 3.173438 1_555
Cs3 O6 3.235601 1_555
Cs3 O4 3.271619 1_656
Cs3 O1 3.320131 1_655
Cs3 O22 3.373987 1_565
Cs3 O27 3.494712 1_555
Cs3 O28 3.510622 1_555
Cs3 O31 3.515301 1_655
Cs3 O18 3.625166 1_555
Cs3 O10 3.643590 1_555
O0 U0 1.821167 1_565
O1 U1 1.821167 1_565
O2 U2 1.821167 1_545
O3 U3 1.821167 1_545
O4 U0 1.829075 1_555
O5 U1 1.829075 1_555
O6 U2 1.829075 1_555
O7 U3 1.829075 1_555
O8 Se7 1.732386 1_555
O8 U0 2.337958 1_555
O9 Se6 1.732386 1_555
O9 U1 2.337958 1_555
O10 Se5 1.732386 1_555
O10 U2 2.337958 1_555
O11 Se4 1.732386 1_555
O11 U3 2.337958 1_555
O12 Se0 1.708437 1_555
O12 U0 2.480595 1_555
O13 Se1 1.708437 1_455
O13 U1 2.480595 1_555
O14 Se2 1.708437 1_555
O14 U2 2.480595 1_555
O15 Se3 1.708437 1_655
O15 U3 2.480595 1_555
O16 Se4 1.745053 1_455
O16 U0 2.325315 1_565
O17 Se5 1.745053 1_555
O17 U1 2.325315 1_565
O18 Se6 1.745053 1_655
O18 U2 2.325315 1_545
O19 Se7 1.745053 1_555
O19 U3 2.325315 1_545
O20 Se3 1.705292 1_555
O20 U0 2.496330 1_565
O21 Se2 1.705292 1_555
O21 U1 2.496330 1_565
O22 Se1 1.705292 1_555
O22 U2 2.496330 1_545
O23 Se0 1.705292 1_555
O23 U3 2.496330 1_545
O24 Se6 1.722884 1_555
O24 U0 2.352202 1_556
O25 Se7 1.722884 1_555
O25 U1 2.352202 1_555
O26 Se4 1.722884 1_555
O26 U2 2.352202 1_554
O27 Se5 1.722884 1_555
O27 U3 2.352202 1_555
O28 Se0 1.670215 1_556
O29 Se1 1.670215 1_555
O30 Se2 1.670215 1_554
O31 Se3 1.670215 1_555
