# generated using pymatgen
data_Sc15C19
_symmetry_space_group_name_H-M   'P 1'
_cell_length_a   7.53863275
_cell_length_b   7.53863275
_cell_length_c   14.58714526
_cell_angle_alpha   90.00000000
_cell_angle_beta   90.00000000
_cell_angle_gamma   90.00000000
_symmetry_Int_Tables_number   1
_chemical_formula_structural   Sc15C19
_chemical_formula_sum   'Sc30 C38'
_cell_volume   829.00181507
_cell_formula_units_Z   2
loop_
 _symmetry_equiv_pos_site_id
 _symmetry_equiv_pos_as_xyz
  1  'x, y, z'
loop_
 _atom_site_type_symbol
 _atom_site_label
 _atom_site_symmetry_multiplicity
 _atom_site_fract_x
 _atom_site_fract_y
 _atom_site_fract_z
 _atom_site_occupancy
  Sc  Sc0  1  0.50000000  0.50000000  0.50000000  1
  Sc  Sc1  1  0.00000000  -0.00000000  0.00000000  1
  Sc  Sc2  1  0.00000000  -0.00000000  0.33360027  1
  Sc  Sc3  1  0.00000000  -0.00000000  0.66639973  1
  Sc  Sc4  1  0.50000000  0.50000000  0.16641203  1
  Sc  Sc5  1  0.50000000  0.50000000  0.83358797  1
  Sc  Sc6  1  0.59833023  0.21644982  0.64639699  1
  Sc  Sc7  1  0.40166977  0.78355018  0.64639699  1
  Sc  Sc8  1  0.28354636  0.90167010  0.14640103  1
  Sc  Sc9  1  0.78355018  0.59833023  0.35360301  1
  Sc  Sc10  1  0.21644982  0.40166977  0.35360301  1
  Sc  Sc11  1  0.90167010  0.71645364  0.85359897  1
  Sc  Sc12  1  0.09832990  0.28354636  0.85359897  1
  Sc  Sc13  1  0.71645364  0.09832990  0.14640103  1
  Sc  Sc14  1  0.78353737  0.59833288  0.64641307  1
  Sc  Sc15  1  0.21646263  0.40166712  0.64641307  1
  Sc  Sc16  1  0.90166760  0.71646607  0.14641704  1
  Sc  Sc17  1  0.40166712  0.78353737  0.35358693  1
  Sc  Sc18  1  0.59833288  0.21646263  0.35358693  1
  Sc  Sc19  1  0.71646607  0.09833240  0.85358296  1
  Sc  Sc20  1  0.28353393  0.90166760  0.85358296  1
  Sc  Sc21  1  0.09833240  0.28353393  0.14641704  1
  Sc  Sc22  1  0.70376816  0.90761694  0.49998406  1
  Sc  Sc23  1  0.29623184  0.09238306  0.49998406  1
  Sc  Sc24  1  0.59238353  0.79623308  0.99998419  1
  Sc  Sc25  1  0.09238306  0.70376816  0.50001594  1
  Sc  Sc26  1  0.90761694  0.29623184  0.50001594  1
  Sc  Sc27  1  0.79623308  0.40761647  0.00001581  1
  Sc  Sc28  1  0.20376692  0.59238353  0.00001581  1
  Sc  Sc29  1  0.40761647  0.20376692  0.99998419  1
  C  C0  1  0.50000000  0.50000000  0.00000000  1
  C  C1  1  0.00000000  -0.00000000  0.50000000  1
  C  C2  1  0.50000000  0.50000000  0.66141504  1
  C  C3  1  0.50000000  0.50000000  0.33858496  1
  C  C4  1  0.00000000  -0.00000000  0.83857751  1
  C  C5  1  0.00000000  -0.00000000  0.16142249  1
  C  C6  1  0.90585881  0.30283201  0.66727685  1
  C  C7  1  0.09414119  0.69716799  0.66727685  1
  C  C8  1  0.19716736  0.59414143  0.16728345  1
  C  C9  1  0.69716799  0.90585881  0.33272315  1
  C  C10  1  0.30283201  0.09414119  0.33272315  1
  C  C11  1  0.59414143  0.80283264  0.83271655  1
  C  C12  1  0.40585857  0.19716736  0.83271655  1
  C  C13  1  0.80283264  0.40585857  0.16728345  1
  C  C14  1  0.65079629  0.84925055  0.74995805  1
  C  C15  1  0.34920371  0.15074945  0.74995805  1
  C  C16  1  0.60308742  0.19803861  0.49999027  1
  C  C17  1  0.65074784  0.84920199  0.24996634  1
  C  C18  1  0.84925055  0.34920371  0.25004195  1
  C  C19  1  0.84920199  0.34925216  0.75003366  1
  C  C20  1  0.15079801  0.65074784  0.75003366  1
  C  C21  1  0.34925216  0.15079801  0.24996634  1
  C  C22  1  0.69718565  0.90587328  0.66716537  1
  C  C23  1  0.30281435  0.09412672  0.66716537  1
  C  C24  1  0.59412718  0.80281490  0.16717202  1
  C  C25  1  0.09412672  0.69718565  0.33283463  1
  C  C26  1  0.90587328  0.30281435  0.33283463  1
  C  C27  1  0.80281490  0.40587282  0.83282798  1
  C  C28  1  0.19718510  0.59412718  0.83282798  1
  C  C29  1  0.40587282  0.19718510  0.16717202  1
  C  C30  1  0.69803947  0.10308646  0.99999032  1
  C  C31  1  0.10308646  0.30196053  0.00000968  1
  C  C32  1  0.89691354  0.69803947  0.00000968  1
  C  C33  1  0.19803861  0.39691258  0.50000973  1
  C  C34  1  0.80196139  0.60308742  0.50000973  1
  C  C35  1  0.30196053  0.89691354  0.99999032  1
  C  C36  1  0.39691258  0.80196139  0.49999027  1
  C  C37  1  0.15074945  0.65079629  0.25004195  1
loop_
_geom_bond_atom_site_label_1
_geom_bond_atom_site_label_2
_geom_bond_distance
_geom_bond_site_symmetry_2
C0 Sc28 2.339270 1_555
C0 Sc27 2.339270 1_555
C0 Sc29 2.339270 1_554
C0 Sc24 2.339270 1_554
C0 Sc4 2.427476 1_555
C0 Sc5 2.427476 1_554
C1 Sc22 2.339260 1_445
C1 Sc23 2.339260 1_555
C1 Sc26 2.339260 1_455
C1 Sc25 2.339260 1_545
C1 Sc3 2.427297 1_555
C1 Sc2 2.427297 1_555
C2 Sc14 2.272938 1_555
C2 Sc15 2.272938 1_555
C2 Sc7 2.273045 1_555
C2 Sc6 2.273045 1_555
C2 Sc0 2.354585 1_555
C2 Sc5 2.511512 1_555
C3 Sc17 2.272938 1_555
C3 Sc18 2.272938 1_555
C3 Sc10 2.273045 1_555
C3 Sc9 2.273045 1_555
C3 Sc0 2.354585 1_555
C3 Sc4 2.511512 1_555
C4 Sc20 2.272917 1_545
C4 Sc19 2.272917 1_455
C4 Sc12 2.273022 1_555
C4 Sc11 2.273022 1_445
C4 Sc1 2.354693 1_556
C4 Sc3 2.511582 1_555
C5 Sc21 2.272917 1_555
C5 Sc16 2.272917 1_445
C5 Sc8 2.273022 1_545
C5 Sc13 2.273022 1_455
C5 Sc1 2.354693 1_555
C5 Sc2 2.511582 1_555
C6 Sc3 2.390741 1_655
C6 Sc6 2.427253 1_555
C6 Sc14 2.430120 1_555
C6 Sc26 2.440402 1_555
C6 Sc15 2.475990 1_655
C7 Sc3 2.390741 1_565
C7 Sc7 2.427253 1_555
C7 Sc15 2.430120 1_555
C7 Sc25 2.440402 1_555
C7 Sc14 2.475990 1_455
C8 Sc4 2.390746 1_555
C8 Sc8 2.427252 1_555
C8 Sc16 2.430127 1_455
C8 Sc28 2.440501 1_555
C8 Sc21 2.476020 1_555
C9 Sc2 2.390741 1_665
C9 Sc9 2.427253 1_555
C9 Sc17 2.430120 1_555
C9 Sc22 2.440402 1_555
C9 Sc18 2.475990 1_565
C10 C21 1.327473 1_555
C10 Sc2 2.390741 1_555
C10 Sc10 2.427253 1_555
C10 Sc18 2.430120 1_555
C10 Sc23 2.440402 1_555
C10 Sc17 2.475990 1_545
C11 C14 1.327487 1_555
C11 Sc5 2.390746 1_555
C11 Sc11 2.427252 1_555
C11 Sc19 2.430127 1_565
C11 Sc24 2.440501 1_555
C11 Sc20 2.476020 1_555
C12 C15 1.327487 1_555
C12 Sc5 2.390746 1_555
C12 Sc12 2.427252 1_555
C12 Sc20 2.430127 1_545
C12 Sc29 2.440501 1_555
C12 Sc19 2.476020 1_555
C13 C18 1.327487 1_555
C13 Sc4 2.390746 1_555
C13 Sc13 2.427252 1_555
C13 Sc21 2.430127 1_655
C13 Sc27 2.440501 1_555
C13 Sc16 2.476020 1_555
C14 C22 1.327805 1_555
C14 Sc7 2.460603 1_555
C14 Sc19 2.460872 1_565
C14 Sc14 2.619317 1_555
C14 Sc11 2.620046 1_555
C15 C23 1.327805 1_555
C15 Sc6 2.460603 1_555
C15 Sc20 2.460872 1_545
C15 Sc15 2.619317 1_555
C15 Sc12 2.620046 1_555
C16 Sc18 2.140419 1_555
C16 Sc6 2.140462 1_555
C16 Sc22 2.317211 1_545
C16 Sc0 2.405376 1_555
C16 Sc26 2.412129 1_555
C16 Sc23 2.446556 1_555
C17 C9 1.327473 1_555
C17 C24 1.327818 1_555
C17 Sc13 2.460657 1_565
C17 Sc17 2.460818 1_555
C17 Sc16 2.619349 1_555
C17 Sc9 2.620015 1_555
C18 C26 1.327805 1_555
C18 Sc9 2.460603 1_555
C18 Sc21 2.460872 1_655
C18 Sc18 2.619317 1_555
C18 Sc13 2.620046 1_555
C19 C6 1.327473 1_555
C19 C27 1.327818 1_555
C19 Sc12 2.460657 1_655
C19 Sc14 2.460818 1_555
C19 Sc19 2.619349 1_555
C19 Sc6 2.620015 1_555
C20 C7 1.327473 1_555
C20 C28 1.327818 1_555
C20 Sc11 2.460657 1_455
C20 Sc15 2.460818 1_555
C20 Sc20 2.619349 1_555
C20 Sc7 2.620015 1_555
C21 C29 1.327818 1_555
C21 Sc8 2.460657 1_545
C21 Sc18 2.460818 1_555
C21 Sc21 2.619349 1_555
C21 Sc10 2.620015 1_555
C22 Sc3 2.390574 1_665
C22 Sc14 2.427044 1_555
C22 Sc7 2.430055 1_555
C22 Sc22 2.439238 1_555
C22 Sc6 2.475671 1_565
C23 Sc3 2.390574 1_555
C23 Sc15 2.427044 1_555
C23 Sc6 2.430055 1_555
C23 Sc23 2.439238 1_555
C23 Sc7 2.475671 1_545
C24 Sc4 2.390578 1_555
C24 Sc16 2.427043 1_555
C24 Sc13 2.430063 1_565
C24 Sc24 2.439333 1_554
C24 Sc8 2.475705 1_555
C25 C37 1.327805 1_555
C25 Sc2 2.390574 1_565
C25 Sc17 2.427044 1_555
C25 Sc10 2.430055 1_555
C25 Sc25 2.439238 1_555
C25 Sc9 2.475671 1_455
C26 Sc2 2.390574 1_655
C26 Sc18 2.427044 1_555
C26 Sc9 2.430055 1_555
C26 Sc26 2.439238 1_555
C26 Sc10 2.475671 1_655
C27 Sc5 2.390578 1_555
C27 Sc19 2.427043 1_555
C27 Sc12 2.430063 1_655
C27 Sc27 2.439333 1_556
C27 Sc11 2.475705 1_555
C28 Sc5 2.390578 1_555
C28 Sc20 2.427043 1_555
C28 Sc11 2.430063 1_455
C28 Sc28 2.439333 1_556
C28 Sc12 2.475705 1_555
C29 Sc4 2.390578 1_555
C29 Sc21 2.427043 1_555
C29 Sc8 2.430063 1_545
C29 Sc29 2.439333 1_554
C29 Sc13 2.475705 1_555
C30 Sc19 2.140478 1_555
C30 Sc13 2.140521 1_556
C30 Sc29 2.317220 1_555
C30 Sc1 2.405367 1_656
C30 Sc27 2.412133 1_556
C30 Sc24 2.446541 1_545
C31 Sc21 2.140478 1_555
C31 Sc12 2.140521 1_554
C31 Sc28 2.317220 1_555
C31 Sc1 2.405367 1_555
C31 Sc29 2.412133 1_554
C31 Sc27 2.446541 1_455
C32 Sc16 2.140478 1_555
C32 Sc11 2.140521 1_554
C32 Sc27 2.317220 1_555
C32 Sc1 2.405367 1_665
C32 Sc24 2.412133 1_554
C32 Sc28 2.446541 1_655
C33 Sc15 2.140419 1_555
C33 Sc10 2.140462 1_555
C33 Sc26 2.317211 1_455
C33 Sc0 2.405376 1_555
C33 Sc23 2.412129 1_555
C33 Sc25 2.446556 1_555
C34 Sc14 2.140419 1_555
C34 Sc9 2.140462 1_555
C34 Sc25 2.317211 1_655
C34 Sc0 2.405376 1_555
C34 Sc22 2.412129 1_555
C34 Sc26 2.446556 1_555
C35 Sc20 2.140478 1_555
C35 Sc8 2.140521 1_556
C35 Sc24 2.317220 1_555
C35 Sc1 2.405367 1_566
C35 Sc28 2.412133 1_556
C35 Sc29 2.446541 1_565
C36 Sc17 2.140419 1_555
C36 Sc7 2.140462 1_555
C36 Sc23 2.317211 1_565
C36 Sc0 2.405376 1_555
C36 Sc25 2.412129 1_555
C36 Sc22 2.446556 1_555
C37 C8 1.327487 1_555
C37 Sc10 2.460603 1_555
C37 Sc16 2.460872 1_455
C37 Sc17 2.619317 1_555
C37 Sc8 2.620046 1_555
