# generated using pymatgen
data_Sb2H5C3SCl6O5F3
_symmetry_space_group_name_H-M   'P 1'
_cell_length_a   14.48053000
_cell_length_b   7.06909200
_cell_length_c   10.04084583
_cell_angle_alpha   74.90112065
_cell_angle_beta   90.00000000
_cell_angle_gamma   90.00000000
_symmetry_Int_Tables_number   1
_chemical_formula_structural   Sb2H5C3SCl6O5F3
_chemical_formula_sum   'Sb4 H10 C6 S2 Cl12 O10 F6'
_cell_volume   992.34034654
_cell_formula_units_Z   2
loop_
 _symmetry_equiv_pos_site_id
 _symmetry_equiv_pos_as_xyz
  1  'x, y, z'
loop_
 _atom_site_type_symbol
 _atom_site_label
 _atom_site_symmetry_multiplicity
 _atom_site_fract_x
 _atom_site_fract_y
 _atom_site_fract_z
 _atom_site_occupancy
  Sb  Sb0  1  0.36127000  0.66026000  0.72716700  1
  Sb  Sb1  1  0.86127000  0.33974000  0.27283300  1
  Sb  Sb2  1  0.63873000  0.33974000  0.27283300  1
  Sb  Sb3  1  0.13873000  0.66026000  0.72716700  1
  H  H0  1  0.31151200  0.13248300  0.66040800  1
  H  H1  1  0.81151200  0.86751700  0.33959200  1
  H  H2  1  0.68848800  0.86751700  0.33959200  1
  H  H3  1  0.18848800  0.13248300  0.66040800  1
  H  H4  1  0.25000000  0.30176600  0.42687500  1
  H  H5  1  0.75000000  0.69823400  0.57312500  1
  H  H6  1  0.18804400  0.08755000  0.41915100  1
  H  H7  1  0.68804400  0.91245000  0.58084900  1
  H  H8  1  0.81195600  0.91245000  0.58084900  1
  H  H9  1  0.31195600  0.08755000  0.41915100  1
  C  C0  1  0.25000000  0.08004400  0.61679700  1
  C  C1  1  0.75000000  0.91995600  0.38320300  1
  C  C2  1  0.25000000  0.14071000  0.46107000  1
  C  C3  1  0.75000000  0.85929000  0.53893000  1
  C  C4  1  0.25000000  0.91584600  0.07881200  1
  C  C5  1  0.75000000  0.08415400  0.92118800  1
  S  S0  1  0.25000000  0.67818800  0.02630200  1
  S  S1  1  0.75000000  0.32181200  0.97369800  1
  Cl  Cl0  1  0.38475400  0.64132200  0.50032500  1
  Cl  Cl1  1  0.88475400  0.35867800  0.49967500  1
  Cl  Cl2  1  0.61524600  0.35867800  0.49967500  1
  Cl  Cl3  1  0.11524600  0.64132200  0.50032500  1
  Cl  Cl4  1  0.45832300  0.40005700  0.83065400  1
  Cl  Cl5  1  0.95832300  0.59994300  0.16934600  1
  Cl  Cl6  1  0.54167700  0.59994300  0.16934600  1
  Cl  Cl7  1  0.04167700  0.40005700  0.83065400  1
  Cl  Cl8  1  0.47007300  0.90833300  0.71664700  1
  Cl  Cl9  1  0.97007300  0.09166700  0.28335300  1
  Cl  Cl10  1  0.52992700  0.09166700  0.28335300  1
  Cl  Cl11  1  0.02992700  0.90833300  0.71664700  1
  O  O0  1  0.25000000  0.86455200  0.67267500  1
  O  O1  1  0.75000000  0.13544800  0.32732500  1
  O  O2  1  0.25000000  0.49294000  0.76233800  1
  O  O3  1  0.75000000  0.50706000  0.23766200  1
  O  O4  1  0.33563800  0.69509200  0.94032200  1
  O  O5  1  0.83563800  0.30490800  0.05967800  1
  O  O6  1  0.66436200  0.30490800  0.05967800  1
  O  O7  1  0.16436200  0.69509200  0.94032200  1
  O  O8  1  0.25000000  0.52477400  0.15124100  1
  O  O9  1  0.75000000  0.47522600  0.84875900  1
  F  F0  1  0.25000000  0.06945000  0.96666000  1
  F  F1  1  0.75000000  0.93055000  0.03334000  1
  F  F2  1  0.32596100  0.92252000  0.15498600  1
  F  F3  1  0.82596100  0.07748000  0.84501400  1
  F  F4  1  0.67403900  0.07748000  0.84501400  1
  F  F5  1  0.17403900  0.92252000  0.15498600  1
loop_
_geom_bond_atom_site_label_1
_geom_bond_atom_site_label_2
_geom_bond_distance
_geom_bond_site_symmetry_2
C0 H0 1.098692 1_555
C0 H3 1.098692 1_555
C0 O0 1.479888 1_545
C1 H1 1.098692 1_555
C1 H2 1.098692 1_555
C1 O1 1.479888 1_565
C2 H6 1.098030 1_555
C2 H9 1.098030 1_555
C2 H4 1.100210 1_555
C3 H8 1.098030 1_555
C3 H7 1.098030 1_555
C3 H5 1.100210 1_555
C4 F0 1.345410 1_564
C4 F5 1.347563 1_555
C4 F2 1.347563 1_555
C5 F1 1.345410 1_546
C5 F4 1.347563 1_555
C5 F3 1.347563 1_555
Cl0 Sb0 2.340998 1_555
Cl1 Sb1 2.340998 1_555
Cl2 Sb2 2.340998 1_555
Cl3 Sb3 2.340998 1_555
Cl4 Sb0 2.332908 1_555
Cl5 Sb1 2.332908 1_555
Cl6 Sb2 2.332908 1_555
Cl7 Sb3 2.332908 1_555
Cl8 Sb0 2.339279 1_555
Cl9 Sb1 2.339279 1_555
Cl10 Sb2 2.339279 1_555
Cl11 Sb3 2.339279 1_555
O0 Sb3 2.137623 1_555
O0 Sb0 2.137623 1_555
O1 Sb2 2.137623 1_555
O1 Sb1 2.137623 1_555
O2 Sb0 1.975409 1_555
O2 Sb3 1.975409 1_555
O3 Sb2 1.975409 1_555
O3 Sb1 1.975409 1_555
O4 S0 1.497882 1_556
O4 Sb0 2.248030 1_555
O5 S1 1.497882 1_554
O5 Sb1 2.248030 1_555
O6 S1 1.497882 1_554
O6 Sb2 2.248030 1_555
O7 S0 1.497882 1_556
O7 Sb3 2.248030 1_555
O8 S0 1.428674 1_555
O9 S1 1.428674 1_555
