# generated using pymatgen
data_Y6CoI10
_symmetry_space_group_name_H-M   'P 1'
_cell_length_a   7.66348376
_cell_length_b   9.53929069
_cell_length_c   9.66134092
_cell_angle_alpha   107.44808180
_cell_angle_beta   97.04640732
_cell_angle_gamma   104.70405776
_symmetry_Int_Tables_number   1
_chemical_formula_structural   Y6CoI10
_chemical_formula_sum   'Y6 Co1 I10'
_cell_volume   636.41914959
_cell_formula_units_Z   1
loop_
 _symmetry_equiv_pos_site_id
 _symmetry_equiv_pos_as_xyz
  1  'x, y, z'
loop_
 _atom_site_type_symbol
 _atom_site_label
 _atom_site_symmetry_multiplicity
 _atom_site_fract_x
 _atom_site_fract_y
 _atom_site_fract_z
 _atom_site_occupancy
  Y  Y0  1  0.88635356  0.95819798  0.23996794  1
  Y  Y1  1  0.11364644  0.04180202  0.76003206  1
  Y  Y2  1  0.03127275  0.72959160  0.92050138  1
  Y  Y3  1  0.96872725  0.27040840  0.07949862  1
  Y  Y4  1  0.65326121  0.87679743  0.83543755  1
  Y  Y5  1  0.34673879  0.12320257  0.16456245  1
  Co  Co0  1  -0.00000000  -0.00000000  -0.00000000  1
  I  I0  1  0.64803862  0.54545921  0.72664068  1
  I  I1  1  0.35196138  0.45454079  0.27335932  1
  I  I2  1  0.73678969  0.90947985  0.53497239  1
  I  I3  1  0.26321031  0.09052015  0.46502761  1
  I  I4  1  0.08642800  0.37303483  0.81938642  1
  I  I5  1  0.91357200  0.62696517  0.18061358  1
  I  I6  1  0.45181070  0.81069674  0.09153076  1
  I  I7  1  0.54818930  0.18930326  0.90846924  1
  I  I8  1  0.21777497  0.73887996  0.65082445  1
  I  I9  1  0.78222503  0.26112004  0.34917555  1
loop_
_geom_bond_atom_site_label_1
_geom_bond_atom_site_label_2
_geom_bond_distance
_geom_bond_site_symmetry_2
Co0 Y3 2.544030 1_455
Co0 Y2 2.544030 1_544
Co0 Y1 2.676949 1_554
Co0 Y0 2.676949 1_445
Co0 Y4 2.688390 1_444
Co0 Y5 2.688390 1_555
I0 Y4 3.004964 1_555
I0 Y2 3.045885 1_655
I1 Y5 3.004964 1_555
I1 Y3 3.045885 1_455
I2 Y1 3.102377 1_665
I2 Y4 3.135455 1_555
I2 Y0 3.313366 1_555
I3 Y0 3.102377 1_445
I3 Y5 3.135455 1_555
I3 Y1 3.313366 1_555
I4 Y1 3.103799 1_555
I4 Y3 3.109751 1_456
I4 Y2 3.397114 1_555
I5 Y0 3.103799 1_555
I5 Y2 3.109751 1_654
I5 Y3 3.397114 1_555
I6 Y5 3.182716 1_565
I6 Y4 3.206429 1_554
I6 Y0 3.219570 1_555
I6 Y2 3.221227 1_554
I7 Y4 3.182716 1_545
I7 Y5 3.206429 1_556
I7 Y1 3.219570 1_555
I7 Y3 3.221227 1_556
I8 Y1 3.106279 1_565
I8 Y2 3.134761 1_555
I8 Y4 3.309594 1_555
I9 Y0 3.106279 1_545
I9 Y3 3.134761 1_555
I9 Y5 3.309594 1_555
