# generated using pymatgen
data_Yb9Zn4Bi9
_symmetry_space_group_name_H-M   'P 1'
_cell_length_a   4.72654700
_cell_length_b   12.53332800
_cell_length_c   22.07659700
_cell_angle_alpha   90.00000000
_cell_angle_beta   90.00000000
_cell_angle_gamma   90.00000000
_symmetry_Int_Tables_number   1
_chemical_formula_structural   Yb9Zn4Bi9
_chemical_formula_sum   'Yb18 Zn8 Bi18'
_cell_volume   1307.80356244
_cell_formula_units_Z   2
loop_
 _symmetry_equiv_pos_site_id
 _symmetry_equiv_pos_as_xyz
  1  'x, y, z'
loop_
 _atom_site_type_symbol
 _atom_site_label
 _atom_site_symmetry_multiplicity
 _atom_site_fract_x
 _atom_site_fract_y
 _atom_site_fract_z
 _atom_site_occupancy
  Yb  Yb0  1  0.00000000  0.63114300  0.36061100  1
  Yb  Yb1  1  0.00000000  0.36885700  0.63938900  1
  Yb  Yb2  1  0.00000000  0.86885700  0.86061100  1
  Yb  Yb3  1  0.00000000  0.13114300  0.13938900  1
  Yb  Yb4  1  0.50000000  0.50000000  0.50000000  1
  Yb  Yb5  1  0.50000000  0.00000000  0.00000000  1
  Yb  Yb6  1  0.00000000  0.87346100  0.23477200  1
  Yb  Yb7  1  0.00000000  0.12653900  0.76522800  1
  Yb  Yb8  1  0.00000000  0.62653900  0.73477200  1
  Yb  Yb9  1  0.00000000  0.37346100  0.26522800  1
  Yb  Yb10  1  0.00000000  0.92637300  0.41139100  1
  Yb  Yb11  1  0.00000000  0.07362700  0.58860900  1
  Yb  Yb12  1  0.00000000  0.57362700  0.91139100  1
  Yb  Yb13  1  0.00000000  0.42637300  0.08860900  1
  Yb  Yb14  1  0.50000000  0.70530900  0.09994600  1
  Yb  Yb15  1  0.50000000  0.29469100  0.90005400  1
  Yb  Yb16  1  0.50000000  0.79469100  0.59994600  1
  Yb  Yb17  1  0.50000000  0.20530900  0.40005400  1
  Zn  Zn0  1  0.50000000  0.61030100  0.26244400  1
  Zn  Zn1  1  0.50000000  0.38969900  0.73755600  1
  Zn  Zn2  1  0.50000000  0.88969900  0.76244400  1
  Zn  Zn3  1  0.50000000  0.11030100  0.23755600  1
  Zn  Zn4  1  0.50000000  0.77053600  0.45232300  1
  Zn  Zn5  1  0.50000000  0.22946400  0.54767700  1
  Zn  Zn6  1  0.50000000  0.72946400  0.95232300  1
  Zn  Zn7  1  0.50000000  0.27053600  0.04767700  1
  Bi  Bi0  1  0.50000000  0.95295900  0.14505000  1
  Bi  Bi1  1  0.50000000  0.04704100  0.85495000  1
  Bi  Bi2  1  0.50000000  0.54704100  0.64505000  1
  Bi  Bi3  1  0.50000000  0.45295900  0.35495000  1
  Bi  Bi4  1  0.00000000  0.80914500  0.00840200  1
  Bi  Bi5  1  0.00000000  0.19085500  0.99159800  1
  Bi  Bi6  1  0.00000000  0.69085500  0.50840200  1
  Bi  Bi7  1  0.00000000  0.30914500  0.49159800  1
  Bi  Bi8  1  0.00000000  0.61438700  0.19277600  1
  Bi  Bi9  1  0.00000000  0.38561300  0.80722400  1
  Bi  Bi10  1  0.00000000  0.88561300  0.69277600  1
  Bi  Bi11  1  0.00000000  0.11438700  0.30722400  1
  Bi  Bi12  1  0.50000000  0.00000000  0.50000000  1
  Bi  Bi13  1  0.50000000  0.50000000  0.00000000  1
  Bi  Bi14  1  0.50000000  0.80927400  0.32910700  1
  Bi  Bi15  1  0.50000000  0.19072600  0.67089300  1
  Bi  Bi16  1  0.50000000  0.69072600  0.82910700  1
  Bi  Bi17  1  0.50000000  0.30927400  0.17089300  1
loop_
_geom_bond_atom_site_label_1
_geom_bond_atom_site_label_2
_geom_bond_distance
_geom_bond_site_symmetry_2
Yb0 Zn0 3.217145 1_455
Yb0 Zn0 3.217145 1_555
Yb0 Zn4 3.568843 1_555
Yb0 Zn4 3.568843 1_455
Yb1 Zn1 3.217145 1_455
Yb1 Zn1 3.217145 1_555
Yb1 Zn5 3.568843 1_555
Yb1 Zn5 3.568843 1_455
Yb2 Zn2 3.217145 1_455
Yb2 Zn2 3.217145 1_555
Yb2 Zn6 3.568843 1_455
Yb2 Zn6 3.568843 1_555
Yb3 Zn3 3.217145 1_555
Yb3 Zn3 3.217145 1_455
Yb3 Zn7 3.568843 1_555
Yb3 Zn7 3.568843 1_455
Yb4 Zn5 3.550325 1_555
Yb4 Zn4 3.550325 1_555
Yb5 Zn6 3.550325 1_544
Yb5 Zn7 3.550325 1_555
Yb10 Zn4 3.196317 1_555
Yb10 Zn4 3.196317 1_455
Yb11 Zn5 3.196317 1_455
Yb11 Zn5 3.196317 1_555
Yb12 Zn6 3.196317 1_555
Yb12 Zn6 3.196317 1_455
Yb13 Zn7 3.196317 1_555
Yb13 Zn7 3.196317 1_455
Yb14 Zn6 3.273045 1_554
Yb15 Zn7 3.273045 1_556
Yb16 Zn4 3.273045 1_555
Yb17 Zn5 3.273045 1_555
Bi0 Zn3 2.838928 1_565
Bi0 Yb6 3.240559 1_655
Bi0 Yb6 3.240559 1_555
Bi0 Yb3 3.253926 1_565
Bi0 Yb3 3.253926 1_665
Bi0 Yb5 3.256034 1_565
Bi0 Yb14 3.259688 1_555
Bi1 Zn2 2.838928 1_545
Bi1 Yb7 3.240559 1_655
Bi1 Yb7 3.240559 1_555
Bi1 Yb2 3.253926 1_545
Bi1 Yb2 3.253926 1_645
Bi1 Yb5 3.256034 1_556
Bi1 Yb15 3.259688 1_555
Bi2 Zn1 2.838928 1_555
Bi2 Yb8 3.240559 1_555
Bi2 Yb8 3.240559 1_655
Bi2 Yb1 3.253926 1_655
Bi2 Yb1 3.253926 1_555
Bi2 Yb4 3.256034 1_555
Bi2 Yb16 3.259688 1_555
Bi3 Zn0 2.838928 1_555
Bi3 Yb9 3.240559 1_555
Bi3 Yb9 3.240559 1_655
Bi3 Yb0 3.253926 1_555
Bi3 Yb0 3.253926 1_655
Bi3 Yb4 3.256034 1_555
Bi3 Yb17 3.259688 1_555
Bi4 Zn6 2.848706 1_554
Bi4 Zn6 2.848706 1_454
Bi4 Yb2 3.347453 1_554
Bi4 Yb5 3.367694 1_465
Bi4 Yb5 3.367694 1_565
Bi4 Yb14 3.370918 1_555
Bi4 Yb14 3.370918 1_455
Bi4 Yb12 3.646920 1_554
Bi5 Zn7 2.848706 1_556
Bi5 Zn7 2.848706 1_456
Bi5 Yb3 3.347453 1_556
Bi5 Yb5 3.367694 1_456
Bi5 Yb5 3.367694 1_556
Bi5 Yb15 3.370918 1_455
Bi5 Yb15 3.370918 1_555
Bi5 Yb13 3.646920 1_556
Bi6 Zn4 2.848706 1_455
Bi6 Zn4 2.848706 1_555
Bi6 Yb0 3.347453 1_555
Bi6 Yb4 3.367694 1_455
Bi6 Yb4 3.367694 1_555
Bi6 Yb16 3.370918 1_555
Bi6 Yb16 3.370918 1_455
Bi6 Yb10 3.646920 1_555
Bi7 Zn5 2.848706 1_555
Bi7 Zn5 2.848706 1_455
Bi7 Yb1 3.347453 1_555
Bi7 Yb4 3.367694 1_455
Bi7 Yb4 3.367694 1_555
Bi7 Yb17 3.370918 1_555
Bi7 Yb17 3.370918 1_455
Bi7 Yb11 3.646920 1_555
Bi8 Zn0 2.820147 1_455
Bi8 Zn0 2.820147 1_555
Bi8 Yb13 3.292601 1_555
Bi8 Yb14 3.329199 1_555
Bi8 Yb14 3.329199 1_455
Bi8 Yb6 3.376827 1_555
Bi8 Yb9 3.417074 1_555
Bi9 Zn1 2.820147 1_455
Bi9 Zn1 2.820147 1_555
Bi9 Yb12 3.292601 1_555
Bi9 Yb15 3.329199 1_455
Bi9 Yb15 3.329199 1_555
Bi9 Yb7 3.376827 1_555
Bi9 Yb8 3.417074 1_555
Bi10 Zn2 2.820147 1_555
Bi10 Zn2 2.820147 1_455
Bi10 Yb11 3.292601 1_565
Bi10 Yb16 3.329199 1_455
Bi10 Yb16 3.329199 1_555
Bi10 Yb8 3.376827 1_555
Bi10 Yb7 3.417074 1_565
Bi11 Zn3 2.820147 1_455
Bi11 Zn3 2.820147 1_555
Bi11 Yb10 3.292601 1_545
Bi11 Yb17 3.329199 1_555
Bi11 Yb17 3.329199 1_455
Bi11 Yb9 3.376827 1_555
Bi11 Yb6 3.417074 1_545
Bi12 Zn5 3.062503 1_555
Bi12 Zn4 3.062503 1_545
Bi12 Yb10 3.203633 1_645
Bi12 Yb10 3.203633 1_545
Bi12 Yb11 3.203633 1_655
Bi12 Yb11 3.203633 1_555
Bi12 Yb17 3.389673 1_555
Bi12 Yb16 3.389673 1_545
Bi13 Zn6 3.062503 1_554
Bi13 Zn7 3.062503 1_555
Bi13 Yb13 3.203633 1_555
Bi13 Yb13 3.203633 1_655
Bi13 Yb12 3.203633 1_654
Bi13 Yb12 3.203633 1_554
Bi13 Yb14 3.389673 1_555
Bi13 Yb15 3.389673 1_554
Bi14 Zn4 2.763179 1_555
Bi14 Zn0 2.895667 1_555
Bi14 Yb6 3.251069 1_555
Bi14 Yb6 3.251069 1_655
Bi14 Yb10 3.322482 1_555
Bi14 Yb10 3.322482 1_655
Bi14 Yb0 3.324631 1_655
Bi14 Yb0 3.324631 1_555
Bi15 Zn5 2.763179 1_555
Bi15 Zn1 2.895667 1_555
Bi15 Yb7 3.251069 1_655
Bi15 Yb7 3.251069 1_555
Bi15 Yb11 3.322482 1_555
Bi15 Yb11 3.322482 1_655
Bi15 Yb1 3.324631 1_555
Bi15 Yb1 3.324631 1_655
Bi16 Zn6 2.763179 1_555
Bi16 Zn2 2.895667 1_555
Bi16 Yb8 3.251069 1_555
Bi16 Yb8 3.251069 1_655
Bi16 Yb12 3.322482 1_555
Bi16 Yb12 3.322482 1_655
Bi16 Yb2 3.324631 1_555
Bi16 Yb2 3.324631 1_655
Bi17 Zn7 2.763179 1_555
Bi17 Zn3 2.895667 1_555
Bi17 Yb9 3.251069 1_555
Bi17 Yb9 3.251069 1_655
Bi17 Yb13 3.322482 1_555
Bi17 Yb13 3.322482 1_655
Bi17 Yb3 3.324631 1_555
Bi17 Yb3 3.324631 1_655
