# generated using pymatgen
data_TbPOs2C
_symmetry_space_group_name_H-M   'P 1'
_cell_length_a   5.88526145
_cell_length_b   5.88526145
_cell_length_c   7.04803800
_cell_angle_alpha   90.00000000
_cell_angle_beta   90.00000000
_cell_angle_gamma   141.89112230
_symmetry_Int_Tables_number   1
_chemical_formula_structural   TbPOs2C
_chemical_formula_sum   'Tb2 P2 Os4 C2'
_cell_volume   150.65931240
_cell_formula_units_Z   2
loop_
 _symmetry_equiv_pos_site_id
 _symmetry_equiv_pos_as_xyz
  1  'x, y, z'
loop_
 _atom_site_type_symbol
 _atom_site_label
 _atom_site_symmetry_multiplicity
 _atom_site_fract_x
 _atom_site_fract_y
 _atom_site_fract_z
 _atom_site_occupancy
  Tb  Tb0  1  0.54455600  0.45544400  0.25000000  1
  Tb  Tb1  1  0.45544400  0.54455600  0.75000000  1
  P  P0  1  0.26840400  0.73159600  0.25000000  1
  P  P1  1  0.73159600  0.26840400  0.75000000  1
  Os  Os0  1  0.83406500  0.16593500  0.05233200  1
  Os  Os1  1  0.16593500  0.83406500  0.94766800  1
  Os  Os2  1  0.16593500  0.83406500  0.55233200  1
  Os  Os3  1  0.83406500  0.16593500  0.44766800  1
  C  C0  1  0.00000000  0.00000000  0.00000000  1
  C  C1  1  0.00000000  0.00000000  0.50000000  1
loop_
_geom_bond_atom_site_label_1
_geom_bond_atom_site_label_2
_geom_bond_distance
_geom_bond_site_symmetry_2
P0 Tb0 3.072357 1_555
P0 Tb0 3.145450 1_455
P0 Tb0 3.145450 1_565
P1 Tb1 3.072357 1_555
P1 Tb1 3.145450 1_655
P1 Tb1 3.145450 1_545
Os0 P1 2.416646 1_554
Os0 P0 2.483170 1_655
Os0 P0 2.483170 1_545
Os1 P0 2.416646 1_556
Os1 P1 2.483170 1_565
Os1 P1 2.483170 1_455
Os2 P0 2.416646 1_555
Os2 P1 2.483170 1_455
Os2 P1 2.483170 1_565
Os3 P1 2.416646 1_555
Os3 P0 2.483170 1_655
Os3 P0 2.483170 1_545
C0 Os0 1.882611 1_455
C0 Os1 1.882611 1_544
C0 Tb1 2.653668 1_554
C0 Tb1 2.653668 1_444
C0 Tb0 2.653668 1_445
C0 Tb0 2.653668 1_555
C1 Os3 1.882611 1_455
C1 Os2 1.882611 1_545
C1 Tb0 2.653668 1_445
C1 Tb1 2.653668 1_555
C1 Tb1 2.653668 1_445
C1 Tb0 2.653668 1_555
