# generated using pymatgen
data_Al3Pb5F19
_symmetry_space_group_name_H-M   'P 1'
_cell_length_a   7.31196544
_cell_length_b   20.47941517
_cell_length_c   20.47941517
_cell_angle_alpha   90.00000000
_cell_angle_beta   90.00000000
_cell_angle_gamma   90.00000000
_symmetry_Int_Tables_number   1
_chemical_formula_structural   Al3Pb5F19
_chemical_formula_sum   'Al24 Pb40 F152'
_cell_volume   3066.68543631
_cell_formula_units_Z   8
loop_
 _symmetry_equiv_pos_site_id
 _symmetry_equiv_pos_as_xyz
  1  'x, y, z'
loop_
 _atom_site_type_symbol
 _atom_site_label
 _atom_site_symmetry_multiplicity
 _atom_site_fract_x
 _atom_site_fract_y
 _atom_site_fract_z
 _atom_site_occupancy
  Al  Al0  1  0.75715634  0.75000000  0.75000000  1
  Al  Al1  1  0.24284366  0.25000000  0.25000000  1
  Al  Al2  1  0.25196927  0.75000000  0.75000000  1
  Al  Al3  1  0.74803073  0.25000000  0.25000000  1
  Al  Al4  1  0.74686575  0.25000000  0.75000000  1
  Al  Al5  1  0.74686575  0.75000000  0.25000000  1
  Al  Al6  1  0.25313425  0.75000000  0.25000000  1
  Al  Al7  1  0.25313425  0.25000000  0.75000000  1
  Al  Al8  1  0.99081217  0.83307982  0.50852882  1
  Al  Al9  1  0.99081217  0.66692018  0.99147118  1
  Al  Al10  1  0.99081217  0.50852882  0.66692018  1
  Al  Al11  1  0.99081217  0.99147118  0.83307982  1
  Al  Al12  1  0.00918783  0.16692018  0.49147118  1
  Al  Al13  1  0.00918783  0.33307982  0.00852882  1
  Al  Al14  1  0.00918783  0.49147118  0.33307982  1
  Al  Al15  1  0.00918783  0.00852882  0.16692018  1
  Al  Al16  1  0.50564100  0.99121311  0.33472506  1
  Al  Al17  1  0.50564100  0.50878689  0.16527494  1
  Al  Al18  1  0.50564100  0.33472506  0.50878689  1
  Al  Al19  1  0.50564100  0.16527494  0.99121311  1
  Al  Al20  1  0.49435900  0.00878689  0.66527494  1
  Al  Al21  1  0.49435900  0.49121311  0.83472506  1
  Al  Al22  1  0.49435900  0.66527494  0.49121311  1
  Al  Al23  1  0.49435900  0.83472506  0.00878689  1
  Pb  Pb0  1  0.98876843  0.91455056  0.67325086  1
  Pb  Pb1  1  0.98876843  0.58544944  0.82674914  1
  Pb  Pb2  1  0.98876843  0.67325086  0.58544944  1
  Pb  Pb3  1  0.98876843  0.82674914  0.91455056  1
  Pb  Pb4  1  0.01123157  0.08544944  0.32674914  1
  Pb  Pb5  1  0.01123157  0.41455056  0.17325086  1
  Pb  Pb6  1  0.01123157  0.32674914  0.41455056  1
  Pb  Pb7  1  0.01123157  0.17325086  0.08544944  1
  Pb  Pb8  1  0.49386531  0.82626890  0.60998989  1
  Pb  Pb9  1  0.49386531  0.67373110  0.89001011  1
  Pb  Pb10  1  0.49386531  0.60998989  0.67373110  1
  Pb  Pb11  1  0.49386531  0.89001011  0.82626890  1
  Pb  Pb12  1  0.50613469  0.17373110  0.39001011  1
  Pb  Pb13  1  0.50613469  0.32626890  0.10998989  1
  Pb  Pb14  1  0.50613469  0.39001011  0.32626890  1
  Pb  Pb15  1  0.50613469  0.10998989  0.17373110  1
  Pb  Pb16  1  0.99764349  0.11147912  0.66890301  1
  Pb  Pb17  1  0.99764349  0.38852088  0.83109699  1
  Pb  Pb18  1  0.99764349  0.66890301  0.38852088  1
  Pb  Pb19  1  0.99764349  0.83109699  0.11147912  1
  Pb  Pb20  1  0.00235651  0.88852088  0.33109699  1
  Pb  Pb21  1  0.00235651  0.61147912  0.16890301  1
  Pb  Pb22  1  0.00235651  0.33109699  0.61147912  1
  Pb  Pb23  1  0.00235651  0.16890301  0.88852088  1
  Pb  Pb24  1  0.50553254  0.82923218  0.41145948  1
  Pb  Pb25  1  0.50553254  0.67076782  0.08854052  1
  Pb  Pb26  1  0.50553254  0.41145948  0.67076782  1
  Pb  Pb27  1  0.50553254  0.08854052  0.82923218  1
  Pb  Pb28  1  0.49446746  0.17076782  0.58854052  1
  Pb  Pb29  1  0.49446746  0.32923218  0.91145948  1
  Pb  Pb30  1  0.49446746  0.58854052  0.32923218  1
  Pb  Pb31  1  0.49446746  0.91145948  0.17076782  1
  Pb  Pb32  1  0.75421846  0.01779932  0.49260919  1
  Pb  Pb33  1  0.75421846  0.48220068  0.00739081  1
  Pb  Pb34  1  0.75421846  0.49260919  0.48220068  1
  Pb  Pb35  1  0.75421846  0.00739081  0.01779932  1
  Pb  Pb36  1  0.24578154  0.98220068  0.50739081  1
  Pb  Pb37  1  0.24578154  0.51779932  0.99260919  1
  Pb  Pb38  1  0.24578154  0.50739081  0.51779932  1
  Pb  Pb39  1  0.24578154  0.99260919  0.98220068  1
  F  F0  1  0.00491894  0.75000000  0.75000000  1
  F  F1  1  0.99508106  0.25000000  0.25000000  1
  F  F2  1  0.50422238  0.75000000  0.75000000  1
  F  F3  1  0.49577762  0.25000000  0.25000000  1
  F  F4  1  0.74990591  0.83013008  0.71276783  1
  F  F5  1  0.74990591  0.66986992  0.78723217  1
  F  F6  1  0.74990591  0.71276783  0.66986992  1
  F  F7  1  0.74990591  0.78723217  0.83013008  1
  F  F8  1  0.25009409  0.16986992  0.28723217  1
  F  F9  1  0.25009409  0.33013008  0.21276783  1
  F  F10  1  0.25009409  0.28723217  0.33013008  1
  F  F11  1  0.25009409  0.21276783  0.16986992  1
  F  F12  1  0.25948887  0.66664335  0.78121074  1
  F  F13  1  0.25948887  0.83335665  0.71878926  1
  F  F14  1  0.25948887  0.78121074  0.83335665  1
  F  F15  1  0.25948887  0.71878926  0.66664335  1
  F  F16  1  0.74051113  0.33335665  0.21878926  1
  F  F17  1  0.74051113  0.16664335  0.28121074  1
  F  F18  1  0.74051113  0.21878926  0.16664335  1
  F  F19  1  0.74051113  0.28121074  0.33335665  1
  F  F20  1  0.00000000  0.25000000  0.75000000  1
  F  F21  1  0.00000000  0.75000000  0.25000000  1
  F  F22  1  0.75326235  0.78238577  0.33196581  1
  F  F23  1  0.75326235  0.71761423  0.16803419  1
  F  F24  1  0.75326235  0.33196581  0.71761423  1
  F  F25  1  0.75326235  0.16803419  0.78238577  1
  F  F26  1  0.24673765  0.21761423  0.66803419  1
  F  F27  1  0.24673765  0.28238577  0.83196581  1
  F  F28  1  0.24673765  0.66803419  0.28238577  1
  F  F29  1  0.24673765  0.83196581  0.21761423  1
  F  F30  1  0.75326036  0.21743129  0.66690382  1
  F  F31  1  0.75326036  0.28256871  0.83309618  1
  F  F32  1  0.75326036  0.66690382  0.28256871  1
  F  F33  1  0.75326036  0.83309618  0.21743129  1
  F  F34  1  0.24673964  0.78256871  0.33309618  1
  F  F35  1  0.24673964  0.71743129  0.16690382  1
  F  F36  1  0.24673964  0.33309618  0.71743129  1
  F  F37  1  0.24673964  0.16690382  0.78256871  1
  F  F38  1  0.50000000  0.75000000  0.25000000  1
  F  F39  1  0.50000000  0.25000000  0.75000000  1
  F  F40  1  0.16115110  0.82806465  0.57356343  1
  F  F41  1  0.16115110  0.67193535  0.92643657  1
  F  F42  1  0.16115110  0.57356343  0.67193535  1
  F  F43  1  0.16115110  0.92643657  0.82806465  1
  F  F44  1  0.83884890  0.17193535  0.42643657  1
  F  F45  1  0.83884890  0.32806465  0.07356343  1
  F  F46  1  0.83884890  0.42643657  0.32806465  1
  F  F47  1  0.83884890  0.07356343  0.17193535  1
  F  F48  1  0.16869775  0.86115916  0.45006001  1
  F  F49  1  0.16869775  0.63884084  0.04993999  1
  F  F50  1  0.16869775  0.45006001  0.63884084  1
  F  F51  1  0.16869775  0.04993999  0.86115916  1
  F  F52  1  0.83130225  0.13884084  0.54993999  1
  F  F53  1  0.83130225  0.36115916  0.95006001  1
  F  F54  1  0.83130225  0.54993999  0.36115916  1
  F  F55  1  0.83130225  0.95006001  0.13884084  1
  F  F56  1  0.82648801  0.84714722  0.44328645  1
  F  F57  1  0.82648801  0.65285278  0.05671355  1
  F  F58  1  0.82648801  0.44328645  0.65285278  1
  F  F59  1  0.82648801  0.05671355  0.84714722  1
  F  F60  1  0.17351199  0.15285278  0.55671355  1
  F  F61  1  0.17351199  0.34714722  0.94328645  1
  F  F62  1  0.17351199  0.55671355  0.34714722  1
  F  F63  1  0.17351199  0.94328645  0.15285278  1
  F  F64  1  0.81702670  0.80945944  0.56691912  1
  F  F65  1  0.81702670  0.69054056  0.93308088  1
  F  F66  1  0.81702670  0.56691912  0.69054056  1
  F  F67  1  0.81702670  0.93308088  0.80945944  1
  F  F68  1  0.18297330  0.19054056  0.43308088  1
  F  F69  1  0.18297330  0.30945944  0.06691912  1
  F  F70  1  0.18297330  0.43308088  0.30945944  1
  F  F71  1  0.18297330  0.06691912  0.19054056  1
  F  F72  1  0.02213352  0.74725042  0.48662892  1
  F  F73  1  0.02213352  0.75274958  0.01337108  1
  F  F74  1  0.02213352  0.48662892  0.75274958  1
  F  F75  1  0.02213352  0.01337108  0.74725042  1
  F  F76  1  0.97786648  0.25274958  0.51337108  1
  F  F77  1  0.97786648  0.24725042  0.98662892  1
  F  F78  1  0.97786648  0.51337108  0.24725042  1
  F  F79  1  0.97786648  0.98662892  0.25274958  1
  F  F80  1  0.95912495  0.91875013  0.53357027  1
  F  F81  1  0.95912495  0.58124987  0.96642973  1
  F  F82  1  0.95912495  0.53357027  0.58124987  1
  F  F83  1  0.95912495  0.96642973  0.91875013  1
  F  F84  1  0.04087505  0.08124987  0.46642973  1
  F  F85  1  0.04087505  0.41875013  0.03357027  1
  F  F86  1  0.04087505  0.46642973  0.41875013  1
  F  F87  1  0.04087505  0.03357027  0.08124987  1
  F  F88  1  0.48515541  0.97127712  0.42261171  1
  F  F89  1  0.48515541  0.52872288  0.07738829  1
  F  F90  1  0.48515541  0.42261171  0.52872288  1
  F  F91  1  0.48515541  0.07738829  0.97127712  1
  F  F92  1  0.51484459  0.02872288  0.57738829  1
  F  F93  1  0.51484459  0.47127712  0.92261171  1
  F  F94  1  0.51484459  0.57738829  0.47127712  1
  F  F95  1  0.51484459  0.92261171  0.02872288  1
  F  F96  1  0.68087437  0.05166976  0.35974377  1
  F  F97  1  0.68087437  0.44833024  0.14025623  1
  F  F98  1  0.68087437  0.35974377  0.44833024  1
  F  F99  1  0.68087437  0.14025623  0.05166976  1
  F  F100  1  0.31912563  0.94833024  0.64025623  1
  F  F101  1  0.31912563  0.55166976  0.85974377  1
  F  F102  1  0.31912563  0.64025623  0.55166976  1
  F  F103  1  0.31912563  0.85974377  0.94833024  1
  F  F104  1  0.33616124  0.05548190  0.34601863  1
  F  F105  1  0.33616124  0.44451810  0.15398137  1
  F  F106  1  0.33616124  0.34601863  0.44451810  1
  F  F107  1  0.33616124  0.15398137  0.05548190  1
  F  F108  1  0.66383876  0.94451810  0.65398137  1
  F  F109  1  0.66383876  0.55548190  0.84601863  1
  F  F110  1  0.66383876  0.65398137  0.55548190  1
  F  F111  1  0.66383876  0.84601863  0.94451810  1
  F  F112  1  0.33397095  0.92953580  0.31721469  1
  F  F113  1  0.33397095  0.57046420  0.18278531  1
  F  F114  1  0.33397095  0.31721469  0.57046420  1
  F  F115  1  0.33397095  0.18278531  0.92953580  1
  F  F116  1  0.66602905  0.07046420  0.68278531  1
  F  F117  1  0.66602905  0.42953580  0.81721469  1
  F  F118  1  0.66602905  0.68278531  0.42953580  1
  F  F119  1  0.66602905  0.81721469  0.07046420  1
  F  F120  1  0.67593781  0.92597163  0.33096982  1
  F  F121  1  0.67593781  0.57402837  0.16903018  1
  F  F122  1  0.67593781  0.33096982  0.57402837  1
  F  F123  1  0.67593781  0.16903018  0.92597163  1
  F  F124  1  0.32406219  0.07402837  0.66903018  1
  F  F125  1  0.32406219  0.42597163  0.83096982  1
  F  F126  1  0.32406219  0.66903018  0.42597163  1
  F  F127  1  0.32406219  0.83096982  0.07402837  1
  F  F128  1  0.53216480  0.00869323  0.24790387  1
  F  F129  1  0.53216480  0.49130677  0.25209613  1
  F  F130  1  0.53216480  0.24790387  0.49130677  1
  F  F131  1  0.53216480  0.25209613  0.00869323  1
  F  F132  1  0.46783520  0.99130677  0.75209613  1
  F  F133  1  0.46783520  0.50869323  0.74790387  1
  F  F134  1  0.46783520  0.75209613  0.50869323  1
  F  F135  1  0.46783520  0.74790387  0.99130677  1
  F  F136  1  0.00838048  0.97945808  0.39906552  1
  F  F137  1  0.00838048  0.52054192  0.10093448  1
  F  F138  1  0.00838048  0.39906552  0.52054192  1
  F  F139  1  0.00838048  0.10093448  0.97945808  1
  F  F140  1  0.99161952  0.02054192  0.60093448  1
  F  F141  1  0.99161952  0.47945808  0.89906552  1
  F  F142  1  0.99161952  0.60093448  0.47945808  1
  F  F143  1  0.99161952  0.89906552  0.02054192  1
  F  F144  1  0.49361507  0.89411595  0.51946789  1
  F  F145  1  0.49361507  0.60588405  0.98053211  1
  F  F146  1  0.49361507  0.51946789  0.60588405  1
  F  F147  1  0.49361507  0.98053211  0.89411595  1
  F  F148  1  0.50638493  0.10588405  0.48053211  1
  F  F149  1  0.50638493  0.39411595  0.01946789  1
  F  F150  1  0.50638493  0.48053211  0.39411595  1
  F  F151  1  0.50638493  0.01946789  0.10588405  1
loop_
_geom_bond_atom_site_label_1
_geom_bond_atom_site_label_2
_geom_bond_distance
_geom_bond_site_symmetry_2
Al0 F5 1.810288 1_555
Al0 F4 1.810288 1_555
Al0 F6 1.810288 1_555
Al0 F7 1.810288 1_555
Al0 F0 1.811632 1_655
Al0 F2 1.849444 1_555
Al1 F8 1.810288 1_555
Al1 F9 1.810288 1_555
Al1 F10 1.810288 1_555
Al1 F11 1.810288 1_555
Al1 F1 1.811632 1_455
Al1 F3 1.849444 1_555
Al2 F0 1.806423 1_555
Al2 F14 1.823663 1_555
Al2 F12 1.823663 1_555
Al2 F15 1.823663 1_555
Al2 F13 1.823663 1_555
Al2 F2 1.844466 1_555
Al3 F1 1.806423 1_555
Al3 F16 1.823663 1_555
Al3 F19 1.823663 1_555
Al3 F18 1.823663 1_555
Al3 F17 1.823663 1_555
Al3 F3 1.844466 1_555
Al4 F39 1.805074 1_555
Al4 F24 1.805496 1_555
Al4 F25 1.805496 1_555
Al4 F31 1.828401 1_555
Al4 F30 1.828401 1_555
Al4 F20 1.850909 1_655
Al5 F38 1.805074 1_555
Al5 F22 1.805496 1_555
Al5 F23 1.805496 1_555
Al5 F33 1.828401 1_555
Al5 F32 1.828401 1_555
Al5 F21 1.850909 1_655
Al6 F38 1.805074 1_555
Al6 F28 1.805496 1_555
Al6 F29 1.805496 1_555
Al6 F35 1.828401 1_555
Al6 F34 1.828401 1_555
Al6 F21 1.850909 1_555
Al7 F39 1.805074 1_555
Al7 F27 1.805496 1_555
Al7 F26 1.805496 1_555
Al7 F37 1.828401 1_555
Al7 F36 1.828401 1_555
Al7 F20 1.850909 1_555
Al8 F64 1.810703 1_555
Al8 F56 1.819865 1_555
Al8 F40 1.826398 1_655
Al8 F72 1.828452 1_655
Al8 F80 1.842519 1_555
Al8 F48 1.859104 1_655
Al9 F65 1.810703 1_555
Al9 F57 1.819865 1_556
Al9 F41 1.826398 1_655
Al9 F73 1.828452 1_656
Al9 F81 1.842519 1_555
Al9 F49 1.859104 1_656
Al10 F66 1.810703 1_555
Al10 F58 1.819865 1_555
Al10 F42 1.826398 1_655
Al10 F74 1.828452 1_655
Al10 F82 1.842519 1_555
Al10 F50 1.859104 1_655
Al11 F67 1.810703 1_555
Al11 F59 1.819865 1_565
Al11 F43 1.826398 1_655
Al11 F75 1.828452 1_665
Al11 F83 1.842519 1_555
Al11 F51 1.859104 1_665
Al12 F68 1.810703 1_555
Al12 F60 1.819865 1_555
Al12 F44 1.826398 1_455
Al12 F76 1.828452 1_455
Al12 F84 1.842519 1_555
Al12 F52 1.859104 1_455
Al13 F69 1.810703 1_555
Al13 F61 1.819865 1_554
Al13 F45 1.826398 1_455
Al13 F77 1.828452 1_454
Al13 F85 1.842519 1_555
Al13 F53 1.859104 1_454
Al14 F70 1.810703 1_555
Al14 F62 1.819865 1_555
Al14 F46 1.826398 1_455
Al14 F78 1.828452 1_455
Al14 F86 1.842519 1_555
Al14 F54 1.859104 1_455
Al15 F71 1.810703 1_555
Al15 F63 1.819865 1_545
Al15 F47 1.826398 1_455
Al15 F79 1.828452 1_445
Al15 F87 1.842519 1_555
Al15 F55 1.859104 1_445
Al16 F112 1.816507 1_555
Al16 F104 1.822507 1_565
Al16 F128 1.824066 1_565
Al16 F120 1.828013 1_555
Al16 F88 1.851661 1_555
Al16 F96 1.853965 1_565
Al17 F113 1.816507 1_555
Al17 F105 1.822507 1_555
Al17 F129 1.824066 1_555
Al17 F121 1.828013 1_555
Al17 F89 1.851661 1_555
Al17 F97 1.853965 1_555
Al18 F114 1.816507 1_555
Al18 F106 1.822507 1_555
Al18 F130 1.824066 1_555
Al18 F122 1.828013 1_555
Al18 F90 1.851661 1_555
Al18 F98 1.853965 1_555
Al19 F115 1.816507 1_555
Al19 F107 1.822507 1_556
Al19 F131 1.824066 1_556
Al19 F123 1.828013 1_555
Al19 F91 1.851661 1_555
Al19 F99 1.853965 1_556
Al20 F116 1.816507 1_555
Al20 F108 1.822507 1_545
Al20 F132 1.824066 1_545
Al20 F124 1.828013 1_555
Al20 F92 1.851661 1_555
Al20 F100 1.853965 1_545
Al21 F117 1.816507 1_555
Al21 F109 1.822507 1_555
Al21 F133 1.824066 1_555
Al21 F125 1.828013 1_555
Al21 F93 1.851661 1_555
Al21 F101 1.853965 1_555
Al22 F118 1.816507 1_555
Al22 F110 1.822507 1_555
Al22 F134 1.824066 1_555
Al22 F126 1.828013 1_555
Al22 F94 1.851661 1_555
Al22 F102 1.853965 1_555
Al23 F119 1.816507 1_555
Al23 F111 1.822507 1_554
Al23 F135 1.824066 1_554
Al23 F127 1.828013 1_555
Al23 F95 1.851661 1_555
Al23 F103 1.853965 1_554
F4 Pb0 2.587359 1_555
F5 Pb1 2.587359 1_555
F6 Pb2 2.587359 1_555
F7 Pb3 2.587359 1_555
F8 Pb4 2.587359 1_555
F9 Pb5 2.587359 1_555
F10 Pb6 2.587359 1_555
F11 Pb7 2.587359 1_555
F12 Pb1 2.748285 1_455
F13 Pb0 2.748285 1_455
F14 Pb3 2.748285 1_455
F15 Pb2 2.748285 1_455
F16 Pb5 2.748285 1_655
F17 Pb4 2.748285 1_655
F18 Pb7 2.748285 1_655
F19 Pb6 2.748285 1_655
F22 Pb24 2.617613 1_555
F23 Pb25 2.617613 1_555
F24 Pb26 2.617613 1_555
F25 Pb27 2.617613 1_555
F26 Pb28 2.617613 1_555
F27 Pb29 2.617613 1_555
F28 Pb30 2.617613 1_555
F29 Pb31 2.617613 1_555
F30 Pb28 2.658850 1_555
F31 Pb29 2.658850 1_555
F32 Pb30 2.658850 1_555
F33 Pb31 2.658850 1_555
F34 Pb24 2.658850 1_555
F35 Pb25 2.658850 1_555
F36 Pb26 2.658850 1_555
F37 Pb27 2.658850 1_555
F40 Pb8 2.544867 1_555
F41 Pb9 2.544867 1_555
F42 Pb10 2.544867 1_555
F43 Pb11 2.544867 1_555
F44 Pb12 2.544867 1_555
F45 Pb13 2.544867 1_555
F46 Pb14 2.544867 1_555
F47 Pb15 2.544867 1_555
F48 Pb24 2.668038 1_555
F49 Pb25 2.668038 1_555
F50 Pb26 2.668038 1_555
F51 Pb27 2.668038 1_555
F52 Pb28 2.668038 1_555
F53 Pb29 2.668038 1_555
F54 Pb30 2.668038 1_555
F55 Pb31 2.668038 1_555
F56 Pb24 2.463126 1_555
F57 Pb25 2.463126 1_555
F58 Pb26 2.463126 1_555
F59 Pb27 2.463126 1_555
F60 Pb28 2.463126 1_555
F61 Pb29 2.463126 1_555
F62 Pb30 2.463126 1_555
F63 Pb31 2.463126 1_555
F64 Pb8 2.545595 1_555
F65 Pb9 2.545595 1_555
F66 Pb10 2.545595 1_555
F67 Pb11 2.545595 1_555
F68 Pb12 2.545595 1_555
F69 Pb13 2.545595 1_555
F70 Pb14 2.545595 1_555
F71 Pb15 2.545595 1_555
F72 Pb2 2.540054 1_455
F72 Pb18 2.577476 1_455
F73 Pb3 2.540054 1_454
F73 Pb19 2.577476 1_455
F74 Pb1 2.540054 1_455
F74 Pb17 2.577476 1_455
F75 Pb0 2.540054 1_445
F75 Pb16 2.577476 1_455
F76 Pb6 2.540054 1_655
F76 Pb22 2.577476 1_655
F77 Pb7 2.540054 1_656
F77 Pb23 2.577476 1_655
F78 Pb5 2.540054 1_655
F78 Pb21 2.577476 1_655
F79 Pb4 2.540054 1_665
F79 Pb20 2.577476 1_655
F80 Pb36 2.523743 1_655
F80 Pb32 2.657665 1_565
F81 Pb37 2.523743 1_655
F81 Pb33 2.657665 1_556
F82 Pb38 2.523743 1_655
F82 Pb34 2.657665 1_555
F83 Pb39 2.523743 1_655
F83 Pb35 2.657665 1_566
F84 Pb32 2.523743 1_455
F84 Pb36 2.657665 1_545
F85 Pb33 2.523743 1_455
F85 Pb37 2.657665 1_554
F86 Pb34 2.523743 1_455
F86 Pb38 2.657665 1_555
F87 Pb35 2.523743 1_455
F87 Pb39 2.657665 1_544
F88 Pb36 2.475491 1_555
F88 Pb32 2.614049 1_565
F89 Pb37 2.475491 1_554
F89 Pb33 2.614049 1_555
F90 Pb38 2.475491 1_555
F90 Pb34 2.614049 1_555
F91 Pb39 2.475491 1_545
F91 Pb35 2.614049 1_556
F92 Pb32 2.475491 1_555
F92 Pb36 2.614049 1_545
F93 Pb33 2.475491 1_556
F93 Pb37 2.614049 1_555
F94 Pb34 2.475491 1_555
F94 Pb38 2.614049 1_555
F95 Pb35 2.475491 1_565
F95 Pb39 2.614049 1_554
F96 Pb4 2.601939 1_655
F97 Pb5 2.601939 1_655
F98 Pb6 2.601939 1_655
F99 Pb7 2.601939 1_655
F100 Pb0 2.601939 1_455
F101 Pb1 2.601939 1_455
F102 Pb2 2.601939 1_455
F103 Pb3 2.601939 1_455
F104 Pb4 2.485389 1_555
F105 Pb5 2.485389 1_555
F106 Pb6 2.485389 1_555
F107 Pb7 2.485389 1_555
F108 Pb0 2.485389 1_555
F109 Pb1 2.485389 1_555
F110 Pb2 2.485389 1_555
F111 Pb3 2.485389 1_555
F112 Pb20 2.581819 1_555
F113 Pb21 2.581819 1_555
F114 Pb22 2.581819 1_555
F115 Pb23 2.581819 1_555
F116 Pb16 2.581819 1_555
F117 Pb17 2.581819 1_555
F118 Pb18 2.581819 1_555
F119 Pb19 2.581819 1_555
F120 Pb20 2.506967 1_655
F121 Pb21 2.506967 1_655
F122 Pb22 2.506967 1_655
F123 Pb23 2.506967 1_655
F124 Pb16 2.506967 1_455
F125 Pb17 2.506967 1_455
F126 Pb18 2.506967 1_455
F127 Pb19 2.506967 1_455
F128 Pb31 2.556691 1_545
F128 Pb15 2.578210 1_555
F129 Pb30 2.556691 1_555
F129 Pb14 2.578210 1_555
F130 Pb28 2.556691 1_555
F130 Pb12 2.578210 1_555
F131 Pb29 2.556691 1_554
F131 Pb13 2.578210 1_555
F132 Pb27 2.556691 1_565
F132 Pb11 2.578210 1_555
F133 Pb26 2.556691 1_555
F133 Pb10 2.578210 1_555
F134 Pb24 2.556691 1_555
F134 Pb8 2.578210 1_555
F135 Pb25 2.556691 1_556
F135 Pb9 2.578210 1_555
F136 Pb20 2.325466 1_555
F136 Pb4 2.627826 1_565
F137 Pb21 2.325466 1_555
F137 Pb5 2.627826 1_555
F138 Pb22 2.325466 1_555
F138 Pb6 2.627826 1_555
F139 Pb23 2.325466 1_555
F139 Pb7 2.627826 1_556
F140 Pb16 2.325466 1_555
F140 Pb0 2.627826 1_545
F141 Pb17 2.325466 1_555
F141 Pb1 2.627826 1_555
F142 Pb18 2.325466 1_555
F142 Pb2 2.627826 1_555
F143 Pb19 2.325466 1_555
F143 Pb3 2.627826 1_554
F144 Pb8 2.316752 1_555
F144 Pb36 2.568891 1_555
F144 Pb24 2.581855 1_555
F145 Pb9 2.316752 1_555
F145 Pb37 2.568891 1_555
F145 Pb25 2.581855 1_556
F146 Pb10 2.316752 1_555
F146 Pb38 2.568891 1_555
F146 Pb26 2.581855 1_555
F147 Pb11 2.316752 1_555
F147 Pb39 2.568891 1_555
F147 Pb27 2.581855 1_565
F148 Pb12 2.316752 1_555
F148 Pb32 2.568891 1_555
F148 Pb28 2.581855 1_555
F149 Pb13 2.316752 1_555
F149 Pb33 2.568891 1_555
F149 Pb29 2.581855 1_554
F150 Pb14 2.316752 1_555
F150 Pb34 2.568891 1_555
F150 Pb30 2.581855 1_555
F151 Pb15 2.316752 1_555
F151 Pb35 2.568891 1_555
F151 Pb31 2.581855 1_545
