# generated using pymatgen
data_Ca(WO2)4
_symmetry_space_group_name_H-M   'P 1'
_cell_length_a   6.66635643
_cell_length_b   6.66635643
_cell_length_c   6.66635659
_cell_angle_alpha   58.92239527
_cell_angle_beta   58.92239527
_cell_angle_gamma   58.92239800
_symmetry_Int_Tables_number   1
_chemical_formula_structural   Ca(WO2)4
_chemical_formula_sum   'Ca1 W4 O8'
_cell_volume   204.33230097
_cell_formula_units_Z   1
loop_
 _symmetry_equiv_pos_site_id
 _symmetry_equiv_pos_as_xyz
  1  'x, y, z'
loop_
 _atom_site_type_symbol
 _atom_site_label
 _atom_site_symmetry_multiplicity
 _atom_site_fract_x
 _atom_site_fract_y
 _atom_site_fract_z
 _atom_site_occupancy
  Ca  Ca0  1  0.50000000  0.50000000  0.50000000  1
  W  W0  1  0.00000000  0.50000000  0.50000000  1
  W  W1  1  0.50000000  0.00000000  0.50000000  1
  W  W2  1  0.50000000  0.50000000  0.00000000  1
  W  W3  1  0.00000000  0.00000000  0.00000000  1
  O  O0  1  0.28146900  0.76211000  0.76211000  1
  O  O1  1  0.23789000  0.23789000  0.71853100  1
  O  O2  1  0.71853100  0.23789000  0.23789000  1
  O  O3  1  0.23789000  0.71853100  0.23789000  1
  O  O4  1  0.27864600  0.27864600  0.27864600  1
  O  O5  1  0.72135400  0.72135400  0.72135400  1
  O  O6  1  0.76211000  0.28146900  0.76211000  1
  O  O7  1  0.76211000  0.76211000  0.28146900  1
loop_
_geom_bond_atom_site_label_1
_geom_bond_atom_site_label_2
_geom_bond_distance
_geom_bond_site_symmetry_2
Ca0 O7 2.474797 1_555
Ca0 O1 2.474797 1_555
Ca0 O6 2.474797 1_555
Ca0 O0 2.474797 1_555
Ca0 O2 2.474797 1_555
Ca0 O3 2.474797 1_555
O0 W1 2.141669 1_565
O0 W2 2.141669 1_556
O0 W3 2.236732 1_566
O1 W1 2.141669 1_555
O1 W0 2.141669 1_555
O1 W3 2.236732 1_556
O2 W1 2.141669 1_555
O2 W2 2.141669 1_555
O2 W3 2.236732 1_655
O3 W0 2.141669 1_555
O3 W2 2.141669 1_555
O3 W3 2.236732 1_565
O4 W2 2.096126 1_555
O4 W0 2.096126 1_555
O4 W1 2.096126 1_555
O5 W2 2.096126 1_556
O5 W1 2.096126 1_565
O5 W0 2.096126 1_655
O6 W0 2.141669 1_655
O6 W2 2.141669 1_556
O6 W3 2.236732 1_656
O7 W0 2.141669 1_655
O7 W1 2.141669 1_565
O7 W3 2.236732 1_665
