# generated using pymatgen
data_Li8Mn7Sn(PO4)12
_symmetry_space_group_name_H-M   'P 1'
_cell_length_a   8.57024800
_cell_length_b   8.86322155
_cell_length_c   12.08362657
_cell_angle_alpha   89.93196033
_cell_angle_beta   89.80426618
_cell_angle_gamma   88.19957001
_symmetry_Int_Tables_number   1
_chemical_formula_structural   Li8Mn7Sn(PO4)12
_chemical_formula_sum   'Li8 Mn7 Sn1 P12 O48'
_cell_volume   917.41333612
_cell_formula_units_Z   1
loop_
 _symmetry_equiv_pos_site_id
 _symmetry_equiv_pos_as_xyz
  1  'x, y, z'
loop_
 _atom_site_type_symbol
 _atom_site_label
 _atom_site_symmetry_multiplicity
 _atom_site_fract_x
 _atom_site_fract_y
 _atom_site_fract_z
 _atom_site_occupancy
  Li  Li0  1  0.21454500  0.27538000  0.81906100  1
  Li  Li1  1  0.21622300  0.21959100  0.18188300  1
  Li  Li2  1  0.28212100  0.78239600  0.68193800  1
  Li  Li3  1  0.28276500  0.72714500  0.31572000  1
  Li  Li4  1  0.71570300  0.27649100  0.68261600  1
  Li  Li5  1  0.72091900  0.21684900  0.31667800  1
  Li  Li6  1  0.78183400  0.78034900  0.81997400  1
  Li  Li7  1  0.78541300  0.72769600  0.17527200  1
  Mn  Mn0  1  0.25017400  0.03541300  0.38840100  1
  Mn  Mn1  1  0.24760500  0.46225300  0.61358900  1
  Mn  Mn2  1  0.25099700  0.96496100  0.88559100  1
  Mn  Mn3  1  0.25120000  0.53772900  0.11052600  1
  Mn  Mn4  1  0.74747600  0.46138200  0.88737000  1
  Mn  Mn5  1  0.74925600  0.03566700  0.11192100  1
  Mn  Mn6  1  0.75157000  0.96488800  0.61450700  1
  Sn  Sn0  1  0.74917200  0.53923600  0.38602500  1
  P  P0  1  0.03930100  0.74798500  0.50079700  1
  P  P1  1  0.46531200  0.25450500  0.99969600  1
  P  P2  1  0.53313600  0.74455000  0.00045300  1
  P  P3  1  0.96802200  0.25021900  0.50134600  1
  P  P4  1  0.10542900  0.60440600  0.85060700  1
  P  P5  1  0.10493100  0.89478000  0.14201500  1
  P  P6  1  0.38883700  0.39435800  0.35178800  1
  P  P7  1  0.39715500  0.10609400  0.64771600  1
  P  P8  1  0.60458200  0.90050800  0.35409800  1
  P  P9  1  0.60164600  0.60523100  0.65468500  1
  P  P10  1  0.89565200  0.39618700  0.14399300  1
  P  P11  1  0.89500700  0.10523100  0.85394700  1
  O  O0  1  0.05996200  0.35876200  0.57507000  1
  O  O1  1  0.06379300  0.14168600  0.42748200  1
  O  O2  1  0.07606800  0.10528300  0.84236300  1
  O  O3  1  0.07699900  0.39976800  0.15468300  1
  O  O4  1  0.14779300  0.83065800  0.42224900  1
  O  O5  1  0.14438200  0.65700300  0.58588500  1
  O  O6  1  0.15375600  0.55918700  0.96976800  1
  O  O7  1  0.15068300  0.93154800  0.02362700  1
  O  O8  1  0.15710800  0.76054600  0.81668800  1
  O  O9  1  0.16032900  0.73053300  0.17549700  1
  O  O10  1  0.17828200  0.47918700  0.77316300  1
  O  O11  1  0.17375200  0.01070500  0.22133100  1
  O  O12  1  0.32815100  0.98938600  0.72933800  1
  O  O13  1  0.31883400  0.51941000  0.27345200  1
  O  O14  1  0.33723400  0.23795300  0.31871800  1
  O  O15  1  0.34072200  0.26994700  0.67927300  1
  O  O16  1  0.34463400  0.44087600  0.47113900  1
  O  O17  1  0.34886800  0.06242600  0.53211300  1
  O  O18  1  0.35722000  0.17297500  0.92110000  1
  O  O19  1  0.35921000  0.34453900  0.08542100  1
  O  O20  1  0.42355800  0.90021200  0.34310000  1
  O  O21  1  0.42056300  0.60258100  0.66299600  1
  O  O22  1  0.43877300  0.85241900  0.92607900  1
  O  O23  1  0.43928500  0.63824200  0.07558700  1
  O  O24  1  0.55917700  0.35955800  0.92397800  1
  O  O25  1  0.56042100  0.14594600  0.07369300  1
  O  O26  1  0.57190400  0.39419900  0.34240000  1
  O  O27  1  0.57865500  0.10504700  0.65906600  1
  O  O28  1  0.64179400  0.65382100  0.91684000  1
  O  O29  1  0.63957500  0.82779700  0.07930700  1
  O  O30  1  0.65476400  0.93539300  0.47132200  1
  O  O31  1  0.65123600  0.55681400  0.53746700  1
  O  O32  1  0.65463700  0.76217700  0.68536600  1
  O  O33  1  0.65928100  0.73740900  0.31782800  1
  O  O34  1  0.67699600  0.48069500  0.73174500  1
  O  O35  1  0.67514400  0.01553700  0.27341300  1
  O  O36  1  0.82660600  0.98740300  0.77398100  1
  O  O37  1  0.82243000  0.52308600  0.22017600  1
  O  O38  1  0.83802700  0.26873100  0.82178400  1
  O  O39  1  0.84366300  0.24119600  0.18053700  1
  O  O40  1  0.84858900  0.43665400  0.02464300  1
  O  O41  1  0.84596500  0.06301800  0.97055400  1
  O  O42  1  0.85964300  0.33549500  0.41587000  1
  O  O43  1  0.86074100  0.17016100  0.58225400  1
  O  O44  1  0.92298200  0.89532200  0.15376200  1
  O  O45  1  0.92360000  0.60218000  0.84265900  1
  O  O46  1  0.94105300  0.85565400  0.57380300  1
  O  O47  1  0.94717300  0.63939700  0.42922500  1
loop_
_geom_bond_atom_site_label_1
_geom_bond_atom_site_label_2
_geom_bond_distance
_geom_bond_site_symmetry_2
Li0 O10 1.905449 1_555
Li0 O18 1.943488 1_555
Li0 O2 1.967168 1_555
Li0 O15 2.002331 1_555
Li1 O11 1.956134 1_555
Li1 O14 1.964422 1_555
Li1 O3 1.990895 1_555
Li1 O19 2.039415 1_555
Li2 O8 1.958830 1_555
Li2 O21 1.969855 1_555
Li2 O12 1.974575 1_555
Li2 O5 2.017591 1_555
Li3 O13 1.926612 1_555
Li3 O4 1.939784 1_555
Li3 O9 1.995744 1_555
Li3 O20 2.009627 1_555
Li4 O34 1.923982 1_555
Li4 O43 1.955193 1_555
Li4 O27 1.971038 1_555
Li4 O38 1.984682 1_555
Li5 O35 1.912708 1_555
Li5 O39 1.964951 1_555
Li5 O42 2.011776 1_555
Li5 O26 2.017605 1_555
Li6 O36 1.965783 1_555
Li6 O32 1.970717 1_555
Li6 O45 1.981338 1_555
Li6 O28 2.034693 1_555
Li7 O29 1.905725 1_555
Li7 O37 1.909593 1_555
Li7 O44 1.942159 1_555
Li7 O33 2.031021 1_555
Mn0 O1 1.887606 1_555
Mn0 O17 1.952473 1_555
Mn0 O20 1.956464 1_545
Mn0 O4 2.080017 1_545
Mn0 O14 2.136487 1_555
Mn0 O11 2.138135 1_555
Mn1 O16 1.916091 1_555
Mn1 O0 1.934676 1_555
Mn1 O5 1.943922 1_555
Mn1 O10 2.020108 1_555
Mn1 O15 2.021786 1_555
Mn1 O21 2.055288 1_555
Mn2 O7 1.901048 1_556
Mn2 O22 1.930671 1_555
Mn2 O2 1.988430 1_565
Mn2 O12 2.012092 1_555
Mn2 O18 2.126501 1_565
Mn2 O8 2.173242 1_555
Mn3 O6 1.904075 1_554
Mn3 O23 1.911784 1_555
Mn3 O19 1.944360 1_555
Mn3 O9 2.014564 1_555
Mn3 O3 2.028915 1_555
Mn3 O13 2.058979 1_555
Mn4 O40 1.883471 1_556
Mn4 O24 1.923566 1_555
Mn4 O28 1.938680 1_555
Mn4 O34 1.982672 1_555
Mn4 O38 2.015356 1_555
Mn4 O45 2.058826 1_555
Mn5 O41 1.914605 1_554
Mn5 O25 1.921583 1_555
Mn5 O44 1.976602 1_545
Mn5 O35 2.059389 1_555
Mn5 O29 2.132231 1_545
Mn5 O39 2.182035 1_555
Mn6 O46 1.926979 1_555
Mn6 O30 1.942870 1_555
Mn6 O27 1.977291 1_565
Mn6 O36 2.045541 1_555
Mn6 O43 2.107181 1_565
Mn6 O32 2.176366 1_555
O0 P3 1.547407 1_455
O1 P3 1.530716 1_455
O2 P11 1.557576 1_455
O3 P10 1.561306 1_455
O4 P0 1.528876 1_555
O5 P0 1.573899 1_555
O6 P4 1.548466 1_555
O7 P5 1.519713 1_555
O8 P4 1.521600 1_555
O9 P5 1.569972 1_555
O10 P4 1.565966 1_555
O11 P5 1.538321 1_545
O12 P7 1.557091 1_565
O13 P6 1.563338 1_555
O14 P6 1.522502 1_555
O15 P7 1.563430 1_555
O16 P6 1.543142 1_555
O17 P7 1.512512 1_555
O18 P1 1.527099 1_555
O19 P1 1.576899 1_554
O20 P8 1.557639 1_555
O21 P9 1.555742 1_555
O22 P2 1.526466 1_556
O23 P2 1.549067 1_555
O24 P1 1.546363 1_555
O25 P1 1.530803 1_554
O26 P6 1.572595 1_555
O26 Sn0 2.090034 1_555
O27 P7 1.561737 1_555
O28 P2 1.575783 1_556
O29 P2 1.527854 1_555
O30 P8 1.516762 1_555
O31 P9 1.535216 1_555
O31 Sn0 2.014822 1_555
O32 P9 1.523410 1_555
O33 P8 1.568142 1_555
O33 Sn0 2.067263 1_555
O34 P9 1.568220 1_555
O35 P8 1.545333 1_545
O36 P11 1.553292 1_565
O37 P10 1.568575 1_555
O37 Sn0 2.101750 1_555
O38 P11 1.563651 1_555
O39 P10 1.521940 1_555
O40 P10 1.537813 1_555
O41 P11 1.518750 1_555
O42 P3 1.568880 1_555
O42 Sn0 2.044675 1_555
O43 P3 1.529007 1_555
O44 P5 1.565170 1_655
O45 P4 1.562348 1_655
O46 P0 1.531120 1_655
O47 P0 1.533640 1_655
O47 Sn0 2.010457 1_555
