# generated using pymatgen
data_Ca10Ge16(B2O17)3
_symmetry_space_group_name_H-M   'P 1'
_cell_length_a   4.78334100
_cell_length_b   15.28853400
_cell_length_c   26.68680400
_cell_angle_alpha   90.00000000
_cell_angle_beta   90.00000000
_cell_angle_gamma   90.00000000
_symmetry_Int_Tables_number   1
_chemical_formula_structural   Ca10Ge16(B2O17)3
_chemical_formula_sum   'Ca20 Ge32 B12 O102'
_cell_volume   1951.61322231
_cell_formula_units_Z   2
loop_
 _symmetry_equiv_pos_site_id
 _symmetry_equiv_pos_as_xyz
  1  'x, y, z'
loop_
 _atom_site_type_symbol
 _atom_site_label
 _atom_site_symmetry_multiplicity
 _atom_site_fract_x
 _atom_site_fract_y
 _atom_site_fract_z
 _atom_site_occupancy
  Ca  Ca0  1  0.50538800  0.86103900  0.35335800  1
  Ca  Ca1  1  0.50538800  0.13896100  0.64664200  1
  Ca  Ca2  1  0.50538800  0.63896100  0.85335800  1
  Ca  Ca3  1  0.50538800  0.36103900  0.14664200  1
  Ca  Ca4  1  0.53713400  0.25573900  0.42407000  1
  Ca  Ca5  1  0.53713400  0.74426100  0.57593000  1
  Ca  Ca6  1  0.53713400  0.24426100  0.92407000  1
  Ca  Ca7  1  0.53713400  0.75573900  0.07593000  1
  Ca  Ca8  1  0.51764700  0.38431000  0.29560800  1
  Ca  Ca9  1  0.51764700  0.61569000  0.70439200  1
  Ca  Ca10  1  0.51764700  0.11569000  0.79560800  1
  Ca  Ca11  1  0.51764700  0.88431000  0.20439200  1
  Ca  Ca12  1  0.51949100  0.14628100  0.22332900  1
  Ca  Ca13  1  0.51949100  0.85371900  0.77667100  1
  Ca  Ca14  1  0.51949100  0.35371900  0.72332900  1
  Ca  Ca15  1  0.51949100  0.64628100  0.27667100  1
  Ca  Ca16  1  0.50681600  0.50697600  0.40042700  1
  Ca  Ca17  1  0.50681600  0.49302400  0.59957300  1
  Ca  Ca18  1  0.50681600  0.99302400  0.90042700  1
  Ca  Ca19  1  0.50681600  0.00697600  0.09957300  1
  Ge  Ge0  1  0.02668600  0.04110800  0.42244200  1
  Ge  Ge1  1  0.02668600  0.95889200  0.57755800  1
  Ge  Ge2  1  0.02668600  0.45889200  0.92244200  1
  Ge  Ge3  1  0.02668600  0.54110800  0.07755800  1
  Ge  Ge4  1  0.52662500  0.08058300  0.34627400  1
  Ge  Ge5  1  0.52662500  0.91941700  0.65372600  1
  Ge  Ge6  1  0.52662500  0.41941700  0.84627400  1
  Ge  Ge7  1  0.52662500  0.58058300  0.15372600  1
  Ge  Ge8  1  0.03090500  0.21493100  0.32302700  1
  Ge  Ge9  1  0.03090500  0.78506900  0.67697300  1
  Ge  Ge10  1  0.03090500  0.28506900  0.82302700  1
  Ge  Ge11  1  0.03090500  0.71493100  0.17697300  1
  Ge  Ge12  1  0.52520300  0.71534100  0.45075600  1
  Ge  Ge13  1  0.52520300  0.28465900  0.54924400  1
  Ge  Ge14  1  0.52520300  0.78465900  0.95075600  1
  Ge  Ge15  1  0.52520300  0.21534100  0.04924400  1
  Ge  Ge16  1  0.01866600  0.99079300  0.28446700  1
  Ge  Ge17  1  0.01866600  0.00920700  0.71553300  1
  Ge  Ge18  1  0.01866600  0.50920700  0.78446700  1
  Ge  Ge19  1  0.01866600  0.49079300  0.21553300  1
  Ge  Ge20  1  0.02311800  0.85321000  0.47482900  1
  Ge  Ge21  1  0.02311800  0.14679000  0.52517100  1
  Ge  Ge22  1  0.02311800  0.64679000  0.97482900  1
  Ge  Ge23  1  0.02311800  0.35321000  0.02517100  1
  Ge  Ge24  1  0.02557800  0.68850200  0.37039100  1
  Ge  Ge25  1  0.02557800  0.31149800  0.62960900  1
  Ge  Ge26  1  0.02557800  0.81149800  0.87039100  1
  Ge  Ge27  1  0.02557800  0.18850200  0.12960900  1
  Ge  Ge28  1  0.01770200  0.39271700  0.49394100  1
  Ge  Ge29  1  0.01770200  0.60728300  0.50605900  1
  Ge  Ge30  1  0.01770200  0.10728300  0.99394100  1
  Ge  Ge31  1  0.01770200  0.89271700  0.00605900  1
  B  B0  1  0.05501600  0.79926200  0.27721900  1
  B  B1  1  0.05501600  0.20073800  0.72278100  1
  B  B2  1  0.05501600  0.70073800  0.77721900  1
  B  B3  1  0.05501600  0.29926200  0.22278100  1
  B  B4  1  0.98878300  0.01932000  0.17809100  1
  B  B5  1  0.98878300  0.98068000  0.82190900  1
  B  B6  1  0.98878300  0.48068000  0.67809100  1
  B  B7  1  0.98878300  0.51932000  0.32190900  1
  B  B8  1  0.99814000  0.37665000  0.38100000  1
  B  B9  1  0.99814000  0.62335000  0.61900000  1
  B  B10  1  0.99814000  0.12335000  0.88100000  1
  B  B11  1  0.99814000  0.87665000  0.11900000  1
  O  O0  1  0.76016700  0.98190900  0.33177300  1
  O  O1  1  0.76016700  0.01809100  0.66822700  1
  O  O2  1  0.76016700  0.51809100  0.83177300  1
  O  O3  1  0.76016700  0.48190900  0.16822700  1
  O  O4  1  0.29634800  0.17717200  0.36391700  1
  O  O5  1  0.29634800  0.82282800  0.63608300  1
  O  O6  1  0.29634800  0.32282800  0.86391700  1
  O  O7  1  0.29634800  0.67717200  0.13608300  1
  O  O8  1  0.75789800  0.14699700  0.30125200  1
  O  O9  1  0.75789800  0.85300300  0.69874800  1
  O  O10  1  0.75789800  0.35300300  0.80125200  1
  O  O11  1  0.75789800  0.64699700  0.19874800  1
  O  O12  1  0.19116600  0.10648000  0.46990400  1
  O  O13  1  0.19116600  0.89352000  0.53009600  1
  O  O14  1  0.19116600  0.39352000  0.96990400  1
  O  O15  1  0.19116600  0.60648000  0.03009600  1
  O  O16  1  0.29607900  0.31552900  0.49336500  1
  O  O17  1  0.29607900  0.68447100  0.50663500  1
  O  O18  1  0.29607900  0.18447100  0.99336500  1
  O  O19  1  0.29607900  0.81552900  0.00663500  1
  O  O20  1  0.75747000  0.75468400  0.39629900  1
  O  O21  1  0.75747000  0.24531600  0.60370100  1
  O  O22  1  0.75747000  0.74531600  0.89629900  1
  O  O23  1  0.75747000  0.25468400  0.10370100  1
  O  O24  1  0.29333000  0.06771300  0.28854800  1
  O  O25  1  0.29333000  0.93228700  0.71145200  1
  O  O26  1  0.29333000  0.43228700  0.78854800  1
  O  O27  1  0.29333000  0.56771300  0.21145200  1
  O  O28  1  0.83232600  0.00525700  0.22807700  1
  O  O29  1  0.83232600  0.99474300  0.77192300  1
  O  O30  1  0.83232600  0.49474300  0.72807700  1
  O  O31  1  0.83232600  0.50525700  0.27192300  1
  O  O32  1  0.20222100  0.26128200  0.26966800  1
  O  O33  1  0.20222100  0.73871800  0.73033200  1
  O  O34  1  0.20222100  0.23871800  0.76966800  1
  O  O35  1  0.20222100  0.76128200  0.23033200  1
  O  O36  1  0.18276100  0.50000000  0.50000000  1
  O  O37  1  0.18276100  0.00000000  0.00000000  1
  O  O38  1  0.75609700  0.11153900  0.40090100  1
  O  O39  1  0.75609700  0.88846100  0.59909900  1
  O  O40  1  0.75609700  0.38846100  0.90090100  1
  O  O41  1  0.75609700  0.61153900  0.09909900  1
  O  O42  1  0.29583300  0.00171300  0.38226700  1
  O  O43  1  0.29583300  0.99828700  0.61773300  1
  O  O44  1  0.29583300  0.49828700  0.88226700  1
  O  O45  1  0.29583300  0.50171300  0.11773300  1
  O  O46  1  0.29156500  0.81313400  0.43455700  1
  O  O47  1  0.29156500  0.18686600  0.56544300  1
  O  O48  1  0.29156500  0.68686600  0.93455700  1
  O  O49  1  0.29156500  0.31313400  0.06544300  1
  O  O50  1  0.75756500  0.77924200  0.49580200  1
  O  O51  1  0.75756500  0.22075800  0.50419800  1
  O  O52  1  0.75756500  0.72075800  0.99580200  1
  O  O53  1  0.75756500  0.27924200  0.00419800  1
  O  O54  1  0.85149700  0.38370700  0.43441100  1
  O  O55  1  0.85149700  0.61629300  0.56558900  1
  O  O56  1  0.85149700  0.11629300  0.93441100  1
  O  O57  1  0.85149700  0.88370700  0.06558900  1
  O  O58  1  0.29463400  0.64429700  0.40845500  1
  O  O59  1  0.29463400  0.35570300  0.59154500  1
  O  O60  1  0.29463400  0.85570300  0.90845500  1
  O  O61  1  0.29463400  0.14429700  0.09154500  1
  O  O62  1  0.20021800  0.74758500  0.32144300  1
  O  O63  1  0.20021800  0.25241500  0.67855700  1
  O  O64  1  0.20021800  0.75241500  0.82144300  1
  O  O65  1  0.20021800  0.24758500  0.17855700  1
  O  O66  1  0.20181800  0.88866200  0.28172700  1
  O  O67  1  0.20181800  0.11133800  0.71827300  1
  O  O68  1  0.20181800  0.61133800  0.78172700  1
  O  O69  1  0.20181800  0.38866200  0.21827300  1
  O  O70  1  0.86002400  0.94331700  0.44416600  1
  O  O71  1  0.86002400  0.05668300  0.55583400  1
  O  O72  1  0.86002400  0.55668300  0.94416600  1
  O  O73  1  0.86002400  0.44331700  0.05583400  1
  O  O74  1  0.83895900  0.60266300  0.34140100  1
  O  O75  1  0.83895900  0.39733700  0.65859900  1
  O  O76  1  0.83895900  0.89733700  0.84140100  1
  O  O77  1  0.83895900  0.10266300  0.15859900  1
  O  O78  1  0.84880600  0.29695300  0.35752800  1
  O  O79  1  0.84880600  0.70304700  0.64247200  1
  O  O80  1  0.84880600  0.20304700  0.85752800  1
  O  O81  1  0.84880600  0.79695300  0.14247200  1
  O  O82  1  0.75435300  0.38880400  0.54104400  1
  O  O83  1  0.75435300  0.61119600  0.45895600  1
  O  O84  1  0.75435300  0.11119600  0.04104400  1
  O  O85  1  0.75435300  0.88880400  0.95895600  1
  O  O86  1  0.76552800  0.79908400  0.27758700  1
  O  O87  1  0.76552800  0.20091600  0.72241300  1
  O  O88  1  0.76552800  0.70091600  0.77758700  1
  O  O89  1  0.76552800  0.29908400  0.22241300  1
  O  O90  1  0.28034900  0.02463700  0.18114800  1
  O  O91  1  0.28034900  0.97536300  0.81885200  1
  O  O92  1  0.28034900  0.47536300  0.68114800  1
  O  O93  1  0.28034900  0.52463700  0.31885200  1
  O  O94  1  0.86838900  0.95011900  0.14595500  1
  O  O95  1  0.86838900  0.04988100  0.85404500  1
  O  O96  1  0.86838900  0.54988100  0.64595500  1
  O  O97  1  0.86838900  0.45011900  0.35404500  1
  O  O98  1  0.28968000  0.37162400  0.38202400  1
  O  O99  1  0.28968000  0.62837600  0.61797600  1
  O  O100  1  0.28968000  0.12837600  0.88202400  1
  O  O101  1  0.28968000  0.87162400  0.11797600  1
loop_
_geom_bond_atom_site_label_1
_geom_bond_atom_site_label_2
_geom_bond_distance
_geom_bond_site_symmetry_2
Ca0 O0 2.287326 1_555
Ca0 O20 2.326172 1_555
Ca0 O62 2.421750 1_555
Ca0 O66 2.437439 1_555
Ca0 O42 2.495086 1_565
Ca0 O46 2.505621 1_555
Ca0 O86 2.556247 1_555
Ca1 O1 2.287326 1_555
Ca1 O21 2.326172 1_555
Ca1 O63 2.421750 1_555
Ca1 O67 2.437439 1_555
Ca1 O43 2.495086 1_545
Ca1 O47 2.505621 1_555
Ca1 O87 2.556247 1_555
Ca2 O2 2.287326 1_555
Ca2 O22 2.326172 1_555
Ca2 O64 2.421750 1_555
Ca2 O68 2.437439 1_555
Ca2 O44 2.495086 1_555
Ca2 O48 2.505621 1_555
Ca2 O88 2.556247 1_555
Ca3 O3 2.287326 1_555
Ca3 O23 2.326172 1_555
Ca3 O65 2.421750 1_555
Ca3 O69 2.437439 1_555
Ca3 O45 2.495086 1_555
Ca3 O49 2.505621 1_555
Ca3 O89 2.556247 1_555
Ca4 O4 2.312214 1_555
Ca4 O16 2.363233 1_555
Ca4 O78 2.402718 1_555
Ca4 O98 2.408123 1_555
Ca4 O51 2.443431 1_555
Ca4 O54 2.482933 1_555
Ca4 O38 2.517854 1_555
Ca5 O5 2.312214 1_555
Ca5 O17 2.363233 1_555
Ca5 O79 2.402718 1_555
Ca5 O99 2.408123 1_555
Ca5 O50 2.443431 1_555
Ca5 O55 2.482933 1_555
Ca5 O39 2.517854 1_555
Ca6 O6 2.312214 1_555
Ca6 O18 2.363233 1_555
Ca6 O80 2.402718 1_555
Ca6 O100 2.408123 1_555
Ca6 O53 2.443431 1_556
Ca6 O56 2.482933 1_555
Ca6 O40 2.517854 1_555
Ca7 O7 2.312214 1_555
Ca7 O19 2.363233 1_555
Ca7 O81 2.402718 1_555
Ca7 O101 2.408123 1_555
Ca7 O52 2.443431 1_554
Ca7 O57 2.482933 1_555
Ca7 O41 2.517854 1_555
Ca8 O31 2.466653 1_555
Ca8 O97 2.501810 1_555
Ca8 O93 2.505174 1_555
Ca8 O32 2.508688 1_555
Ca8 O98 2.558337 1_555
Ca8 O69 2.558528 1_555
Ca8 O89 2.630434 1_555
Ca8 O78 2.650190 1_555
Ca9 O30 2.466653 1_555
Ca9 O96 2.501810 1_555
Ca9 O92 2.505174 1_555
Ca9 O33 2.508688 1_555
Ca9 O99 2.558337 1_555
Ca9 O68 2.558528 1_555
Ca9 O88 2.630434 1_555
Ca9 O79 2.650190 1_555
Ca10 O29 2.466653 1_545
Ca10 O95 2.501810 1_555
Ca10 O91 2.505174 1_545
Ca10 O34 2.508688 1_555
Ca10 O100 2.558337 1_555
Ca10 O67 2.558528 1_555
Ca10 O87 2.630434 1_555
Ca10 O80 2.650190 1_555
Ca11 O28 2.466653 1_565
Ca11 O94 2.501810 1_555
Ca11 O90 2.505174 1_565
Ca11 O35 2.508688 1_555
Ca11 O101 2.558337 1_555
Ca11 O66 2.558528 1_555
Ca11 O86 2.630434 1_555
Ca11 O81 2.650190 1_555
Ca12 O8 2.371703 1_555
Ca12 O24 2.375385 1_555
Ca12 O77 2.400812 1_555
Ca12 O90 2.456491 1_555
Ca12 O65 2.481665 1_555
Ca12 O89 2.615944 1_555
Ca12 O28 2.627510 1_555
Ca12 O32 2.631288 1_555
Ca13 O9 2.371703 1_555
Ca13 O25 2.375385 1_555
Ca13 O76 2.400812 1_555
Ca13 O91 2.456491 1_555
Ca13 O64 2.481665 1_555
Ca13 O88 2.615944 1_555
Ca13 O29 2.627510 1_555
Ca13 O33 2.631288 1_555
Ca14 O10 2.371703 1_555
Ca14 O26 2.375385 1_555
Ca14 O75 2.400812 1_555
Ca14 O92 2.456491 1_555
Ca14 O63 2.481665 1_555
Ca14 O87 2.615944 1_555
Ca14 O30 2.627510 1_555
Ca14 O34 2.631288 1_555
Ca15 O11 2.371703 1_555
Ca15 O27 2.375385 1_555
Ca15 O74 2.400812 1_555
Ca15 O93 2.456491 1_555
Ca15 O62 2.481665 1_555
Ca15 O86 2.615944 1_555
Ca15 O31 2.627510 1_555
Ca15 O35 2.631288 1_555
Ca16 O97 2.297606 1_555
Ca16 O58 2.341716 1_555
Ca16 O98 2.366876 1_555
Ca16 O93 2.446549 1_555
Ca16 O83 2.525967 1_555
Ca16 O54 2.663182 1_555
Ca16 O74 2.673118 1_555
Ca16 O36 3.078188 1_555
Ca17 O96 2.297606 1_555
Ca17 O59 2.341716 1_555
Ca17 O99 2.366876 1_555
Ca17 O92 2.446549 1_555
Ca17 O82 2.525967 1_555
Ca17 O55 2.663182 1_555
Ca17 O75 2.673118 1_555
Ca17 O36 3.078188 1_555
Ca18 O95 2.297606 1_565
Ca18 O60 2.341716 1_555
Ca18 O100 2.366876 1_565
Ca18 O91 2.446549 1_555
Ca18 O85 2.525967 1_555
Ca18 O56 2.663182 1_565
Ca18 O76 2.673118 1_555
Ca18 O37 3.078188 1_566
Ca19 O94 2.297606 1_545
Ca19 O61 2.341716 1_555
Ca19 O101 2.366876 1_545
Ca19 O90 2.446549 1_555
Ca19 O84 2.525967 1_555
Ca19 O57 2.663182 1_545
Ca19 O77 2.673118 1_555
Ca19 O37 3.078188 1_555
Ge0 O38 1.779100 1_455
Ge0 O42 1.780365 1_555
Ge0 O70 1.790782 1_445
Ge0 O12 1.795043 1_555
Ge1 O39 1.779100 1_455
Ge1 O43 1.780365 1_555
Ge1 O71 1.790782 1_465
Ge1 O13 1.795043 1_555
Ge2 O40 1.779100 1_455
Ge2 O44 1.780365 1_555
Ge2 O72 1.790782 1_455
Ge2 O14 1.795043 1_555
Ge3 O41 1.779100 1_455
Ge3 O45 1.780365 1_555
Ge3 O73 1.790782 1_455
Ge3 O15 1.795043 1_555
Ge4 O38 1.885218 1_555
Ge4 O42 1.896134 1_555
Ge4 O4 1.901481 1_555
Ge4 O24 1.912387 1_555
Ge4 O0 1.916640 1_545
Ge4 O8 1.923116 1_555
Ge5 O39 1.885218 1_555
Ge5 O43 1.896134 1_555
Ge5 O5 1.901481 1_555
Ge5 O25 1.912387 1_555
Ge5 O1 1.916640 1_565
Ge5 O9 1.923116 1_555
Ge6 O40 1.885218 1_555
Ge6 O44 1.896134 1_555
Ge6 O6 1.901481 1_555
Ge6 O26 1.912387 1_555
Ge6 O2 1.916640 1_555
Ge6 O10 1.923116 1_555
Ge7 O41 1.885218 1_555
Ge7 O45 1.896134 1_555
Ge7 O7 1.901481 1_555
Ge7 O27 1.912387 1_555
Ge7 O3 1.916640 1_555
Ge7 O11 1.923116 1_555
Ge8 O8 1.766843 1_455
Ge8 O4 1.770923 1_555
Ge8 O78 1.782960 1_455
Ge8 O32 1.789249 1_555
Ge9 O9 1.766843 1_455
Ge9 O5 1.770923 1_555
Ge9 O79 1.782960 1_455
Ge9 O33 1.789249 1_555
Ge10 O10 1.766843 1_455
Ge10 O6 1.770923 1_555
Ge10 O80 1.782960 1_455
Ge10 O34 1.789249 1_555
Ge11 O11 1.766843 1_455
Ge11 O7 1.770923 1_555
Ge11 O81 1.782960 1_455
Ge11 O35 1.789249 1_555
Ge12 O50 1.906547 1_555
Ge12 O17 1.909891 1_555
Ge12 O58 1.915848 1_555
Ge12 O46 1.916039 1_555
Ge12 O20 1.925663 1_555
Ge12 O83 1.945381 1_555
Ge13 O51 1.906547 1_555
Ge13 O16 1.909891 1_555
Ge13 O59 1.915848 1_555
Ge13 O47 1.916039 1_555
Ge13 O21 1.925663 1_555
Ge13 O82 1.945381 1_555
Ge14 O52 1.906547 1_555
Ge14 O19 1.909891 1_556
Ge14 O60 1.915848 1_555
Ge14 O48 1.916039 1_555
Ge14 O22 1.925663 1_555
Ge14 O85 1.945381 1_555
Ge15 O53 1.906547 1_555
Ge15 O18 1.909891 1_554
Ge15 O61 1.915848 1_555
Ge15 O49 1.916039 1_555
Ge15 O23 1.925663 1_555
Ge15 O84 1.945381 1_555
Ge16 O28 1.762951 1_465
Ge16 O24 1.766614 1_565
Ge16 O0 1.772321 1_455
Ge16 O66 1.791908 1_555
Ge17 O29 1.762951 1_445
Ge17 O25 1.766614 1_545
Ge17 O1 1.772321 1_455
Ge17 O67 1.791908 1_555
Ge18 O30 1.762951 1_455
Ge18 O26 1.766614 1_555
Ge18 O2 1.772321 1_455
Ge18 O68 1.791908 1_555
Ge19 O31 1.762951 1_455
Ge19 O27 1.766614 1_555
Ge19 O3 1.772321 1_455
Ge19 O69 1.791908 1_555
Ge20 O70 1.782137 1_455
Ge20 O46 1.783058 1_555
Ge20 O13 1.789211 1_555
Ge20 O50 1.790419 1_455
Ge21 O71 1.782137 1_455
Ge21 O47 1.783058 1_555
Ge21 O12 1.789211 1_555
Ge21 O51 1.790419 1_455
Ge22 O72 1.782137 1_455
Ge22 O48 1.783058 1_555
Ge22 O15 1.789211 1_556
Ge22 O52 1.790419 1_455
Ge23 O73 1.782137 1_455
Ge23 O49 1.783058 1_555
Ge23 O14 1.789211 1_554
Ge23 O53 1.790419 1_455
Ge24 O74 1.765687 1_455
Ge24 O58 1.773399 1_555
Ge24 O20 1.773841 1_455
Ge24 O62 1.794463 1_555
Ge25 O75 1.765687 1_455
Ge25 O59 1.773399 1_555
Ge25 O21 1.773841 1_455
Ge25 O63 1.794463 1_555
Ge26 O76 1.765687 1_455
Ge26 O60 1.773399 1_555
Ge26 O22 1.773841 1_455
Ge26 O64 1.794463 1_555
Ge27 O77 1.765687 1_455
Ge27 O61 1.773399 1_555
Ge27 O23 1.773841 1_455
Ge27 O65 1.794463 1_555
Ge28 O16 1.779308 1_555
Ge28 O82 1.780594 1_455
Ge28 O54 1.781820 1_455
Ge28 O36 1.827502 1_555
Ge29 O17 1.779308 1_555
Ge29 O83 1.780594 1_455
Ge29 O55 1.781820 1_455
Ge29 O36 1.827502 1_555
Ge30 O18 1.779308 1_555
Ge30 O84 1.780594 1_456
Ge30 O56 1.781820 1_455
Ge30 O37 1.827502 1_556
Ge31 O19 1.779308 1_555
Ge31 O85 1.780594 1_454
Ge31 O57 1.781820 1_455
Ge31 O37 1.827502 1_565
B0 O86 1.384757 1_455
B0 O66 1.541328 1_555
B0 O35 1.548750 1_555
B0 O62 1.580971 1_555
B1 O87 1.384757 1_455
B1 O67 1.541328 1_555
B1 O34 1.548750 1_555
B1 O63 1.580971 1_555
B2 O88 1.384757 1_455
B2 O68 1.541328 1_555
B2 O33 1.548750 1_555
B2 O64 1.580971 1_555
B3 O89 1.384757 1_455
B3 O69 1.541328 1_555
B3 O32 1.548750 1_555
B3 O65 1.580971 1_555
B4 O90 1.399407 1_655
B4 O94 1.478668 1_545
B4 O28 1.544596 1_555
B4 O77 1.551694 1_555
B5 O91 1.399407 1_655
B5 O95 1.478668 1_565
B5 O29 1.544596 1_555
B5 O76 1.551694 1_555
B6 O92 1.399407 1_655
B6 O96 1.478668 1_555
B6 O30 1.544596 1_555
B6 O75 1.551694 1_555
B7 O93 1.399407 1_655
B7 O97 1.478668 1_555
B7 O31 1.544596 1_555
B7 O74 1.551694 1_555
B8 O98 1.396918 1_655
B8 O97 1.471158 1_555
B8 O78 1.545068 1_555
B8 O54 1.592275 1_555
B9 O99 1.396918 1_655
B9 O96 1.471158 1_555
B9 O79 1.545068 1_555
B9 O55 1.592275 1_555
B10 O100 1.396918 1_655
B10 O95 1.471158 1_555
B10 O80 1.545068 1_555
B10 O56 1.592275 1_555
B11 O101 1.396918 1_655
B11 O94 1.471158 1_555
B11 O81 1.545068 1_555
B11 O57 1.592275 1_555
