# generated using pymatgen
data_Eu3Sn13Ir4
_symmetry_space_group_name_H-M   'P 1'
_cell_length_a   9.80852575
_cell_length_b   9.81282098
_cell_length_c   9.80858072
_cell_angle_alpha   89.99747934
_cell_angle_beta   89.99987128
_cell_angle_gamma   89.99732212
_symmetry_Int_Tables_number   1
_chemical_formula_structural   Eu3Sn13Ir4
_chemical_formula_sum   'Eu6 Sn26 Ir8'
_cell_volume   944.06909759
_cell_formula_units_Z   2
loop_
 _symmetry_equiv_pos_site_id
 _symmetry_equiv_pos_as_xyz
  1  'x, y, z'
loop_
 _atom_site_type_symbol
 _atom_site_label
 _atom_site_symmetry_multiplicity
 _atom_site_fract_x
 _atom_site_fract_y
 _atom_site_fract_z
 _atom_site_occupancy
  Eu  Eu0  1  0.24983976  0.00000191  0.50000483  1
  Eu  Eu1  1  0.75016045  -0.00000837  0.49999661  1
  Eu  Eu2  1  0.49999749  0.25000104  0.00000315  1
  Eu  Eu3  1  0.50000726  0.75000084  0.99999597  1
  Eu  Eu4  1  -0.00000503  0.50000303  0.25015511  1
  Eu  Eu5  1  0.00000374  0.50000646  0.74984457  1
  Sn  Sn0  1  -0.00000079  -0.00000562  -0.00000037  1
  Sn  Sn1  1  0.50000158  0.50000692  0.50000188  1
  Sn  Sn2  1  -0.00000898  0.15230078  0.30312085  1
  Sn  Sn3  1  0.00000179  0.84769580  0.69688121  1
  Sn  Sn4  1  -0.00000879  0.84769054  0.30311748  1
  Sn  Sn5  1  0.00001301  0.15230625  0.69688077  1
  Sn  Sn6  1  0.30304523  0.00000655  0.15216343  1
  Sn  Sn7  1  0.65216175  0.49998930  0.19694894  1
  Sn  Sn8  1  0.69694740  -0.00002182  0.84784160  1
  Sn  Sn9  1  0.34783947  0.50001983  0.80305557  1
  Sn  Sn10  1  0.30304634  0.00001821  0.84783858  1
  Sn  Sn11  1  0.34784525  0.50000423  0.19694253  1
  Sn  Sn12  1  0.69694942  -0.00002556  0.15216426  1
  Sn  Sn13  1  0.65216110  0.50002186  0.80305583  1
  Sn  Sn14  1  0.15220765  0.30276919  -0.00000297  1
  Sn  Sn15  1  0.50001196  0.80275528  0.34777138  1
  Sn  Sn16  1  0.84778351  0.69724180  -0.00001066  1
  Sn  Sn17  1  0.49998830  0.19724097  0.65221920  1
  Sn  Sn18  1  0.15221763  0.69724101  -0.00000907  1
  Sn  Sn19  1  0.49999628  0.19723960  0.34778306  1
  Sn  Sn20  1  0.84779136  0.30276272  0.00000572  1
  Sn  Sn21  1  0.50001288  0.80275578  0.65222312  1
  Sn  Sn22  1  0.19687835  0.65230699  0.50000975  1
  Sn  Sn23  1  0.80312314  0.34769695  0.49999066  1
  Sn  Sn24  1  0.19687543  0.34770583  0.50001313  1
  Sn  Sn25  1  0.80312324  0.65230398  0.50000003  1
  Ir  Ir0  1  0.25000219  0.24998578  0.25000180  1
  Ir  Ir1  1  0.75000019  0.75000067  0.74999766  1
  Ir  Ir2  1  0.75002069  0.75007716  0.25002688  1
  Ir  Ir3  1  0.75000350  0.25000150  0.74999730  1
  Ir  Ir4  1  0.24998064  0.24994633  0.74998130  1
  Ir  Ir5  1  0.24999881  0.75000704  0.25000181  1
  Ir  Ir6  1  0.24997791  0.74994763  0.74997938  1
  Ir  Ir7  1  0.75000488  0.25000161  0.25000570  1
loop_
_geom_bond_atom_site_label_1
_geom_bond_atom_site_label_2
_geom_bond_distance
_geom_bond_site_symmetry_2
Eu0 Sn22 3.451212 1_545
Eu0 Sn24 3.451255 1_555
Eu0 Sn10 3.451440 1_555
Eu0 Sn6 3.451510 1_555
Eu0 Sn5 3.459362 1_555
Eu0 Sn2 3.459469 1_555
Eu0 Sn3 3.459476 1_545
Eu0 Sn4 3.459711 1_545
Eu0 Sn17 3.463514 1_555
Eu0 Sn19 3.463515 1_555
Eu0 Sn21 3.463539 1_545
Eu0 Sn15 3.463668 1_545
Eu0 Ir4 3.468134 1_555
Eu0 Ir0 3.468440 1_555
Eu0 Ir5 3.468669 1_545
Eu0 Ir6 3.468731 1_545
Eu1 Sn25 3.451095 1_545
Eu1 Sn23 3.451314 1_555
Eu1 Sn12 3.451433 1_555
Eu1 Sn8 3.451557 1_555
Eu1 Sn4 3.459394 1_645
Eu1 Sn3 3.459408 1_645
Eu1 Sn2 3.459434 1_655
Eu1 Sn5 3.459735 1_655
Eu1 Sn21 3.463463 1_545
Eu1 Sn19 3.463467 1_555
Eu1 Sn15 3.463545 1_545
Eu1 Sn17 3.463636 1_555
Eu1 Ir2 3.467880 1_545
Eu1 Ir1 3.468475 1_545
Eu1 Ir7 3.468537 1_555
Eu1 Ir3 3.468757 1_555
Eu2 Sn19 3.450271 1_555
Eu2 Sn17 3.450353 1_554
Eu2 Sn14 3.450357 1_555
Eu2 Sn20 3.450434 1_555
Eu2 Sn11 3.460795 1_555
Eu2 Sn6 3.460844 1_555
Eu2 Sn9 3.460857 1_554
Eu2 Sn10 3.460872 1_554
Eu2 Sn7 3.460880 1_555
Eu2 Sn12 3.460945 1_555
Eu2 Sn13 3.460988 1_554
Eu2 Sn8 3.460999 1_554
Eu2 Ir0 3.467801 1_555
Eu2 Ir7 3.467920 1_555
Eu2 Ir3 3.467926 1_554
Eu2 Ir4 3.468120 1_554
Eu3 Sn21 3.450193 1_555
Eu3 Sn16 3.450212 1_556
Eu3 Sn15 3.450262 1_556
Eu3 Sn18 3.450390 1_556
Eu3 Sn8 3.460633 1_565
Eu3 Sn13 3.460638 1_555
Eu3 Sn12 3.460774 1_566
Eu3 Sn11 3.460809 1_556
Eu3 Sn9 3.460815 1_555
Eu3 Sn7 3.460821 1_556
Eu3 Sn10 3.460914 1_565
Eu3 Sn6 3.460971 1_566
Eu3 Ir1 3.467783 1_555
Eu3 Ir5 3.467942 1_556
Eu3 Ir2 3.468159 1_556
Eu3 Ir6 3.468170 1_555
Eu4 Sn4 3.451140 1_555
Eu4 Sn2 3.451243 1_555
Eu4 Sn7 3.451416 1_455
Eu4 Sn11 3.451589 1_555
Eu4 Sn23 3.459417 1_455
Eu4 Sn25 3.459475 1_455
Eu4 Sn24 3.459511 1_555
Eu4 Sn22 3.459704 1_555
Eu4 Sn16 3.463426 1_455
Eu4 Sn14 3.463467 1_555
Eu4 Sn20 3.463486 1_455
Eu4 Sn18 3.463531 1_555
Eu4 Ir7 3.468619 1_455
Eu4 Ir0 3.468686 1_555
Eu4 Ir5 3.468733 1_555
Eu4 Ir2 3.468852 1_455
Eu5 Sn3 3.451114 1_555
Eu5 Sn5 3.451265 1_555
Eu5 Sn9 3.451448 1_555
Eu5 Sn13 3.451513 1_455
Eu5 Sn24 3.459380 1_555
Eu5 Sn22 3.459404 1_555
Eu5 Sn25 3.459419 1_455
Eu5 Sn23 3.459707 1_455
Eu5 Sn14 3.463293 1_556
Eu5 Sn16 3.463414 1_456
Eu5 Sn18 3.463477 1_556
Eu5 Sn20 3.463498 1_456
Eu5 Ir6 3.468091 1_555
Eu5 Ir1 3.468501 1_455
Eu5 Ir3 3.468714 1_455
Eu5 Ir4 3.468773 1_555
Sn0 Sn18 3.324874 1_545
Sn0 Sn20 3.324958 1_455
Sn0 Sn16 3.324980 1_445
Sn0 Sn14 3.325142 1_555
Sn0 Sn10 3.326097 1_554
Sn0 Sn6 3.326105 1_555
Sn0 Sn8 3.326131 1_454
Sn0 Sn12 3.326136 1_455
Sn0 Sn4 3.327595 1_545
Sn0 Sn5 3.327639 1_554
Sn0 Sn3 3.327694 1_544
Sn0 Sn2 3.327753 1_555
Sn1 Sn15 3.324890 1_555
Sn1 Sn21 3.324971 1_555
Sn1 Sn17 3.324987 1_555
Sn1 Sn19 3.325123 1_555
Sn1 Sn7 3.326155 1_555
Sn1 Sn13 3.326167 1_555
Sn1 Sn9 3.326170 1_555
Sn1 Sn11 3.326200 1_555
Sn1 Sn22 3.327607 1_555
Sn1 Sn23 3.327636 1_555
Sn1 Sn25 3.327704 1_555
Sn1 Sn24 3.327761 1_555
Sn2 Sn4 2.989086 1_545
Sn2 Sn23 3.336742 1_455
Sn2 Sn24 3.337122 1_555
Sn3 Sn5 2.989088 1_565
Sn10 Sn6 2.984995 1_556
Sn10 Sn17 3.340440 1_555
Sn10 Sn21 3.340776 1_545
Sn11 Sn7 2.984896 1_555
Sn11 Sn18 3.340521 1_555
Sn11 Sn14 3.340735 1_555
Sn12 Sn8 2.984973 1_554
Sn12 Sn15 3.340325 1_545
Sn12 Sn19 3.340734 1_555
Sn13 Sn9 2.984947 1_555
Sn13 Sn16 3.340496 1_556
Sn13 Sn20 3.340653 1_556
Sn14 Sn20 2.985875 1_455
Sn14 Sn9 3.340665 1_554
Sn15 Sn21 2.986239 1_555
Sn15 Sn6 3.340578 1_565
Sn16 Sn18 2.986050 1_655
Sn16 Sn7 3.340722 1_555
Sn17 Sn19 2.986086 1_555
Sn17 Sn8 3.340682 1_555
Sn18 Sn9 3.340401 1_554
Sn19 Sn6 3.340654 1_555
Sn20 Sn7 3.340520 1_555
Sn21 Sn8 3.340493 1_565
Sn22 Sn24 2.988997 1_555
Sn22 Sn3 3.336759 1_555
Sn22 Sn4 3.336815 1_555
Sn23 Sn25 2.989054 1_555
Sn23 Sn5 3.336859 1_655
Sn24 Sn5 3.336724 1_555
Sn25 Sn4 3.336767 1_655
Sn25 Sn3 3.336952 1_655
Ir0 Sn19 2.683333 1_555
Ir0 Sn14 2.683557 1_555
Ir0 Sn2 2.684021 1_555
Ir0 Sn24 2.684169 1_555
Ir0 Sn6 2.684944 1_555
Ir0 Sn11 2.685345 1_555
Ir1 Sn21 2.683265 1_555
Ir1 Sn16 2.683354 1_556
Ir1 Sn25 2.683957 1_555
Ir1 Sn3 2.683966 1_655
Ir1 Sn8 2.684967 1_565
Ir1 Sn13 2.684974 1_555
Ir2 Sn15 2.683219 1_555
Ir2 Sn4 2.683370 1_655
Ir2 Sn16 2.683876 1_555
Ir2 Sn25 2.683892 1_555
Ir2 Sn12 2.684272 1_565
Ir2 Sn7 2.686102 1_555
Ir3 Sn20 2.683583 1_556
Ir3 Sn17 2.683599 1_555
Ir3 Sn23 2.683967 1_555
Ir3 Sn5 2.683972 1_655
Ir3 Sn13 2.685319 1_555
Ir3 Sn8 2.685352 1_555
Ir4 Sn17 2.683322 1_555
Ir4 Sn5 2.683456 1_555
Ir4 Sn14 2.683692 1_556
Ir4 Sn24 2.683805 1_555
Ir4 Sn10 2.684519 1_555
Ir4 Sn9 2.685965 1_555
Ir5 Sn15 2.683527 1_555
Ir5 Sn18 2.683591 1_555
Ir5 Sn4 2.683912 1_555
Ir5 Sn22 2.683997 1_555
Ir5 Sn6 2.685100 1_565
Ir5 Sn11 2.685177 1_555
Ir6 Sn18 2.683366 1_556
Ir6 Sn22 2.683485 1_555
Ir6 Sn21 2.683769 1_555
Ir6 Sn3 2.683809 1_555
Ir6 Sn9 2.684549 1_555
Ir6 Sn10 2.685930 1_565
Ir7 Sn20 2.683457 1_555
Ir7 Sn19 2.683519 1_555
Ir7 Sn2 2.683765 1_655
Ir7 Sn23 2.683849 1_555
Ir7 Sn7 2.684984 1_555
Ir7 Sn12 2.685454 1_555
