# generated using pymatgen
data_Ti2MnO4
_symmetry_space_group_name_H-M   'P 1'
_cell_length_a   6.11215827
_cell_length_b   6.11334455
_cell_length_c   10.62741039
_cell_angle_alpha   90.00309080
_cell_angle_beta   73.22796552
_cell_angle_gamma   59.99588440
_symmetry_Int_Tables_number   1
_chemical_formula_structural   Ti2MnO4
_chemical_formula_sum   'Ti8 Mn4 O16'
_cell_volume   324.22817561
_cell_formula_units_Z   4
loop_
 _symmetry_equiv_pos_site_id
 _symmetry_equiv_pos_as_xyz
  1  'x, y, z'
loop_
 _atom_site_type_symbol
 _atom_site_label
 _atom_site_symmetry_multiplicity
 _atom_site_fract_x
 _atom_site_fract_y
 _atom_site_fract_z
 _atom_site_occupancy
  Ti  Ti0  1  0.50016400  0.49992200  0.99971700  1
  Ti  Ti1  1  0.49966200  0.00016700  0.50056500  1
  Ti  Ti2  1  0.50229400  0.24463300  0.25101400  1
  Ti  Ti3  1  0.49781300  0.75520200  0.74895600  1
  Ti  Ti4  1  0.50230400  0.75306000  0.25101400  1
  Ti  Ti5  1  0.49780000  0.24699300  0.74895400  1
  Ti  Ti6  1  0.99343800  0.75327000  0.25097400  1
  Ti  Ti7  1  0.00639600  0.24681300  0.74902600  1
  Mn  Mn0  1  0.12807200  0.68594300  0.55836800  1
  Mn  Mn1  1  0.87200300  0.31401900  0.44149200  1
  Mn  Mn2  1  0.12326700  0.18833700  0.06611500  1
  Mn  Mn3  1  0.87673700  0.81167000  0.93385400  1
  O  O0  1  0.74092400  0.87953400  0.13814700  1
  O  O1  1  0.73630400  0.38184800  0.64520500  1
  O  O2  1  0.26305700  0.39423200  0.13117100  1
  O  O3  1  0.25960300  0.89043600  0.63063300  1
  O  O4  1  0.26379300  0.61810100  0.35471400  1
  O  O5  1  0.25916600  0.12041900  0.86170600  1
  O  O6  1  0.28095100  0.10952000  0.36942800  1
  O  O7  1  0.28746000  0.60627500  0.86897500  1
  O  O8  1  0.74005700  0.65052000  0.36946600  1
  O  O9  1  0.73707200  0.15712800  0.86878800  1
  O  O10  1  0.26306000  0.84267600  0.13118200  1
  O  O11  1  0.25961100  0.34994900  0.63063300  1
  O  O12  1  0.74006500  0.10942400  0.36946600  1
  O  O13  1  0.73708400  0.60583800  0.86880300  1
  O  O14  1  0.71237500  0.39380300  0.13099200  1
  O  O15  1  0.71946800  0.89026900  0.63063900  1
loop_
_geom_bond_atom_site_label_1
_geom_bond_atom_site_label_2
_geom_bond_distance
_geom_bond_site_symmetry_2
Mn0 O11 2.039657 1_555
Mn0 O15 2.039689 1_455
Mn0 O3 2.039693 1_555
Mn0 O4 2.040601 1_555
Mn1 O8 2.040923 1_555
Mn1 O12 2.040969 1_555
Mn1 O1 2.041192 1_555
Mn1 O6 2.041342 1_655
Mn2 O5 2.048169 1_554
Mn2 O14 2.050862 1_455
Mn2 O2 2.051537 1_555
Mn2 O10 2.051580 1_545
Mn3 O0 2.047007 1_556
Mn3 O7 2.050013 1_655
Mn3 O13 2.050509 1_555
Mn3 O9 2.050556 1_565
O0 Ti4 2.069301 1_555
O0 Ti2 2.069302 1_565
O0 Ti6 2.071792 1_555
O1 Ti3 2.072381 1_555
O1 Ti5 2.072410 1_555
O1 Ti7 2.076653 1_655
O2 Ti0 2.058529 1_554
O2 Ti6 2.079824 1_455
O2 Ti2 2.081868 1_555
O3 Ti7 2.056335 1_565
O3 Ti3 2.058512 1_555
O3 Ti1 2.080288 1_565
O4 Ti2 2.072726 1_555
O4 Ti4 2.072748 1_555
O4 Ti6 2.077204 1_455
O5 Ti5 2.069347 1_555
O5 Ti3 2.069359 1_545
O5 Ti7 2.071689 1_555
O6 Ti4 2.057013 1_545
O6 Ti2 2.057028 1_555
O6 Ti1 2.087513 1_555
O7 Ti0 2.059306 1_555
O7 Ti5 2.081631 1_555
O7 Ti3 2.081641 1_555
O8 Ti6 2.055793 1_555
O8 Ti4 2.057706 1_555
O8 Ti1 2.084738 1_565
O9 Ti0 2.055837 1_555
O9 Ti7 2.079397 1_655
O9 Ti5 2.081807 1_555
O10 Ti0 2.058376 1_554
O10 Ti6 2.079756 1_455
O10 Ti4 2.081796 1_555
O11 Ti7 2.056248 1_555
O11 Ti5 2.058395 1_555
O11 Ti1 2.080224 1_555
O12 Ti6 2.055867 1_545
O12 Ti2 2.057791 1_555
O12 Ti1 2.084824 1_555
O13 Ti0 2.055966 1_555
O13 Ti7 2.079502 1_655
O13 Ti3 2.081914 1_555
O14 Ti0 2.062151 1_554
O14 Ti4 2.081664 1_555
O14 Ti2 2.081668 1_555
O15 Ti5 2.057656 1_565
O15 Ti3 2.057690 1_555
O15 Ti1 2.082409 1_565
