# generated using pymatgen
data_MgSn
_symmetry_space_group_name_H-M   'P 1'
_cell_length_a   5.86822683
_cell_length_b   5.86822683
_cell_length_c   7.97811903
_cell_angle_alpha   70.45398886
_cell_angle_beta   70.45398886
_cell_angle_gamma   33.94292081
_symmetry_Int_Tables_number   1
_chemical_formula_structural   MgSn
_chemical_formula_sum   'Mg3 Sn3'
_cell_volume   143.71181823
_cell_formula_units_Z   3
loop_
 _symmetry_equiv_pos_site_id
 _symmetry_equiv_pos_as_xyz
  1  'x, y, z'
loop_
 _atom_site_type_symbol
 _atom_site_label
 _atom_site_symmetry_multiplicity
 _atom_site_fract_x
 _atom_site_fract_y
 _atom_site_fract_z
 _atom_site_occupancy
  Mg  Mg0  1  0.97665700  0.97665700  0.00602247  1
  Mg  Mg1  1  0.61108483  0.61108483  0.27310539  1
  Mg  Mg2  1  0.68660080  0.68660080  0.66444353  1
  Sn  Sn0  1  0.32746381  0.32746381  0.32943038  1
  Sn  Sn1  1  0.97269663  0.97269663  0.61679292  1
  Sn  Sn2  1  0.25882793  0.25882793  0.94353730  1
loop_
_geom_bond_atom_site_label_1
_geom_bond_atom_site_label_2
_geom_bond_distance
_geom_bond_site_symmetry_2
Mg0 Sn2 3.029300 1_664
Mg0 Sn0 3.061557 1_565
Mg0 Sn0 3.061557 1_655
Mg0 Sn1 3.121148 1_554
Mg0 Sn2 3.164550 1_564
Mg0 Sn2 3.164550 1_654
Mg1 Sn0 3.055691 1_555
Mg1 Sn2 3.089865 1_654
Mg1 Sn2 3.089865 1_564
Mg1 Sn0 3.130377 1_655
Mg1 Sn0 3.130377 1_565
Mg1 Sn1 3.144165 1_455
Mg1 Sn1 3.144165 1_545
Mg2 Sn1 3.079397 1_455
Mg2 Sn1 3.079397 1_545
Mg2 Sn1 3.099074 1_555
Mg2 Sn0 3.101837 1_565
Mg2 Sn0 3.101837 1_655
Mg2 Sn2 3.132464 1_565
Mg2 Sn2 3.132464 1_655
