# generated using pymatgen
data_La3Rh4Pb13
_symmetry_space_group_name_H-M   'P 1'
_cell_length_a   10.11796769
_cell_length_b   10.11813191
_cell_length_c   10.11789174
_cell_angle_alpha   90.00021281
_cell_angle_beta   90.00004813
_cell_angle_gamma   90.00025443
_symmetry_Int_Tables_number   1
_chemical_formula_structural   La3Rh4Pb13
_chemical_formula_sum   'La6 Rh8 Pb26'
_cell_volume   1035.81847631
_cell_formula_units_Z   2
loop_
 _symmetry_equiv_pos_site_id
 _symmetry_equiv_pos_as_xyz
  1  'x, y, z'
loop_
 _atom_site_type_symbol
 _atom_site_label
 _atom_site_symmetry_multiplicity
 _atom_site_fract_x
 _atom_site_fract_y
 _atom_site_fract_z
 _atom_site_occupancy
  La  La0  1  0.99999585  0.50000594  0.74999125  1
  La  La1  1  0.50000258  0.24999607  0.00000125  1
  La  La2  1  0.75000098  -0.00000166  0.50000071  1
  La  La3  1  0.99999729  0.50000119  0.25000601  1
  La  La4  1  0.50000348  0.75000290  0.00000055  1
  La  La5  1  0.24998383  -0.00000729  0.49999343  1
  Rh  Rh0  1  0.75000019  0.24998717  0.74998863  1
  Rh  Rh1  1  0.25000011  0.74999751  0.24999950  1
  Rh  Rh2  1  0.75000025  0.75001114  0.25001516  1
  Rh  Rh3  1  0.24999996  0.25000440  0.75000422  1
  Rh  Rh4  1  0.24999859  0.74999885  0.75000347  1
  Rh  Rh5  1  0.74999897  0.24998426  0.25001422  1
  Rh  Rh6  1  0.25000118  0.25000106  0.24999877  1
  Rh  Rh7  1  0.75000185  0.75001212  0.74998759  1
  Pb  Pb0  1  0.50000150  0.50000082  0.50000013  1
  Pb  Pb1  1  -0.00000064  -0.00000066  0.00000091  1
  Pb  Pb2  1  0.80641494  0.34475577  0.50000139  1
  Pb  Pb3  1  0.65522967  0.50000128  0.80641010  1
  Pb  Pb4  1  0.50001301  0.19358342  0.65523379  1
  Pb  Pb5  1  0.19358107  0.65522704  0.49999896  1
  Pb  Pb6  1  0.34476786  0.50000257  0.19359252  1
  Pb  Pb7  1  0.50001094  0.80641454  0.34476470  1
  Pb  Pb8  1  0.80641318  0.65524809  0.50000102  1
  Pb  Pb9  1  0.65522878  0.49999005  0.19358113  1
  Pb  Pb10  1  0.19357911  0.34477816  0.50000027  1
  Pb  Pb11  1  0.34476362  0.50000083  0.80640758  1
  Pb  Pb12  1  0.50001291  0.80641659  0.65523392  1
  Pb  Pb13  1  0.50001171  0.19358419  0.34476450  1
  Pb  Pb14  1  0.30642994  0.00000901  0.84477722  1
  Pb  Pb15  1  0.15523665  0.30640759  -0.00000236  1
  Pb  Pb16  1  0.99998748  0.15523372  0.69358428  1
  Pb  Pb17  1  0.69358764  -0.00000050  0.15524539  1
  Pb  Pb18  1  0.84476846  0.69359220  -0.00000115  1
  Pb  Pb19  1  0.99998902  0.84476894  0.30641861  1
  Pb  Pb20  1  0.30641834  -0.00000205  0.15522538  1
  Pb  Pb21  1  0.15523835  0.69359380  -0.00000078  1
  Pb  Pb22  1  0.69358502  -0.00000217  0.84475900  1
  Pb  Pb23  1  0.84476925  0.30640782  -0.00000317  1
  Pb  Pb24  1  0.99998915  0.15522709  0.30641980  1
  Pb  Pb25  1  0.99998696  0.84476720  0.69358411  1
loop_
_geom_bond_atom_site_label_1
_geom_bond_atom_site_label_2
_geom_bond_distance
_geom_bond_site_symmetry_2
La0 Pb25 3.534721 1_555
La0 Pb3 3.534732 1_555
La0 Pb11 3.534743 1_655
La0 Pb16 3.534826 1_555
La0 Pb5 3.563837 1_655
La0 Pb10 3.563845 1_655
La0 Pb8 3.563907 1_555
La0 Pb2 3.563914 1_555
La0 Pb18 3.563985 1_556
La0 Pb23 3.564035 1_556
La0 Pb21 3.564054 1_656
La0 Pb15 3.564112 1_656
La0 Rh4 3.577232 1_655
La0 Rh7 3.577280 1_555
La0 Rh3 3.577319 1_655
La0 Rh0 3.577366 1_555
La1 Pb13 3.534669 1_555
La1 Pb4 3.534708 1_554
La1 Pb15 3.534722 1_555
La1 Pb23 3.534724 1_555
La1 Pb14 3.563756 1_554
La1 Pb9 3.563853 1_555
La1 Pb20 3.563910 1_555
La1 Pb22 3.563986 1_554
La1 Pb17 3.564004 1_555
La1 Pb3 3.564012 1_554
La1 Pb6 3.564055 1_555
La1 Pb11 3.564084 1_554
La1 Rh6 3.577222 1_555
La1 Rh3 3.577224 1_554
La1 Rh5 3.577294 1_555
La1 Rh0 3.577303 1_554
La2 Pb17 3.534588 1_555
La2 Pb8 3.534620 1_545
La2 Pb22 3.534623 1_555
La2 Pb2 3.534690 1_555
La2 Pb24 3.563821 1_555
La2 Pb19 3.563833 1_545
La2 Pb25 3.563837 1_545
La2 Pb16 3.563844 1_555
La2 Pb12 3.563852 1_545
La2 Pb4 3.563875 1_555
La2 Pb7 3.563882 1_545
La2 Pb13 3.563907 1_555
La2 Rh2 3.577056 1_545
La2 Rh5 3.577067 1_555
La2 Rh7 3.577072 1_545
La2 Rh0 3.577084 1_555
La3 Pb9 3.534764 1_555
La3 Pb6 3.534767 1_655
La3 Pb19 3.534791 1_555
La3 Pb24 3.534860 1_555
La3 Pb5 3.563844 1_655
La3 Pb10 3.563846 1_655
La3 Pb2 3.563951 1_555
La3 Pb8 3.563964 1_555
La3 Pb18 3.564023 1_555
La3 Pb23 3.564029 1_555
La3 Pb21 3.564078 1_655
La3 Pb15 3.564084 1_655
La3 Rh1 3.577257 1_655
La3 Rh6 3.577308 1_655
La3 Rh2 3.577329 1_555
La3 Rh5 3.577372 1_555
La4 Pb7 3.534674 1_555
La4 Pb21 3.534705 1_555
La4 Pb12 3.534706 1_554
La4 Pb18 3.534711 1_555
La4 Pb20 3.563900 1_565
La4 Pb14 3.563915 1_564
La4 Pb22 3.563950 1_564
La4 Pb3 3.563978 1_554
La4 Pb17 3.563981 1_565
La4 Pb9 3.564008 1_555
La4 Pb6 3.564019 1_555
La4 Pb11 3.564045 1_554
La4 Rh4 3.577241 1_554
La4 Rh1 3.577246 1_555
La4 Rh2 3.577308 1_555
La4 Rh7 3.577311 1_554
La5 Pb20 3.534751 1_555
La5 Pb5 3.534754 1_545
La5 Pb14 3.534926 1_555
La5 Pb10 3.534960 1_555
La5 Pb19 3.563803 1_445
La5 Pb24 3.563859 1_455
La5 Pb25 3.563923 1_445
La5 Pb16 3.563993 1_455
La5 Pb7 3.564098 1_545
La5 Pb12 3.564158 1_545
La5 Pb13 3.564173 1_555
La5 Pb4 3.564221 1_555
La5 Rh1 3.577173 1_545
La5 Rh6 3.577286 1_555
La5 Rh4 3.577292 1_545
La5 Rh3 3.577412 1_555
Pb0 Pb3 3.475362 1_555
Pb0 Pb6 3.475365 1_555
Pb0 Pb11 3.475386 1_555
Pb0 Pb9 3.475441 1_555
Pb0 Pb10 3.475476 1_555
Pb0 Pb5 3.475487 1_555
Pb0 Pb8 3.475492 1_555
Pb0 Pb7 3.475495 1_555
Pb0 Pb12 3.475496 1_555
Pb0 Pb2 3.475510 1_555
Pb0 Pb13 3.475512 1_555
Pb0 Pb4 3.475520 1_555
Pb1 Pb18 3.475409 1_445
Pb1 Pb23 3.475430 1_455
Pb1 Pb20 3.475441 1_555
Pb1 Pb21 3.475444 1_545
Pb1 Pb24 3.475448 1_455
Pb1 Pb15 3.475448 1_555
Pb1 Pb25 3.475449 1_444
Pb1 Pb19 3.475459 1_445
Pb1 Pb16 3.475468 1_454
Pb1 Pb17 3.475470 1_455
Pb1 Pb22 3.475479 1_454
Pb1 Pb14 3.475545 1_554
Pb2 Rh0 2.764573 1_555
Pb2 Rh5 2.764578 1_555
Pb2 Pb8 3.141602 1_555
Pb2 Pb24 3.368944 1_555
Pb3 Rh7 2.764864 1_555
Pb3 Rh0 2.764891 1_555
Pb4 Rh0 2.764506 1_555
Pb4 Rh3 2.764842 1_555
Pb5 Rh1 2.764702 1_555
Pb5 Rh4 2.764743 1_555
Pb6 Rh1 2.764673 1_555
Pb6 Rh6 2.764725 1_555
Pb6 Pb9 3.141234 1_555
Pb7 Rh2 2.764513 1_555
Pb7 Rh1 2.764789 1_555
Pb8 Rh2 2.764538 1_555
Pb8 Rh7 2.764539 1_555
Pb9 Rh5 2.764840 1_555
Pb9 Rh2 2.764977 1_555
Pb10 Rh6 2.764745 1_555
Pb10 Rh3 2.764760 1_555
Pb10 Pb5 3.141163 1_555
Pb10 Pb24 3.369147 1_455
Pb10 Pb16 3.369149 1_455
Pb11 Rh3 2.764657 1_555
Pb11 Rh4 2.764690 1_555
Pb11 Pb3 3.141285 1_555
Pb11 Pb21 3.369094 1_556
Pb11 Pb15 3.369095 1_556
Pb12 Rh7 2.764526 1_555
Pb12 Rh4 2.764841 1_555
Pb12 Pb7 3.141294 1_555
Pb12 Pb22 3.368898 1_565
Pb12 Pb14 3.369144 1_565
Pb13 Rh5 2.764486 1_555
Pb13 Rh6 2.764794 1_555
Pb13 Pb4 3.141295 1_555
Pb13 Pb17 3.368918 1_555
Pb13 Pb20 3.369133 1_555
Pb14 Rh3 2.764745 1_555
Pb14 Rh4 2.764877 1_545
Pb14 Pb20 3.141081 1_556
Pb14 Pb4 3.369038 1_555
Pb15 Rh3 2.764581 1_554
Pb15 Rh6 2.764666 1_555
Pb15 Pb23 3.141299 1_455
Pb15 Pb6 3.369147 1_555
Pb16 Rh0 2.764516 1_555
Pb16 Rh3 2.764834 1_655
Pb16 Pb25 3.141341 1_545
Pb16 Pb2 3.368910 1_555
Pb17 Rh5 2.764582 1_555
Pb17 Rh2 2.764633 1_545
Pb17 Pb22 3.141468 1_554
Pb17 Pb7 3.368924 1_545
Pb18 Rh7 2.764795 1_554
Pb18 Rh2 2.764843 1_555
Pb18 Pb21 3.141324 1_655
Pb18 Pb3 3.369131 1_554
Pb18 Pb9 3.369175 1_555
Pb19 Rh2 2.764534 1_555
Pb19 Rh1 2.764830 1_655
Pb19 Pb24 3.141257 1_565
Pb19 Pb8 3.368911 1_555
Pb19 Pb5 3.369124 1_655
Pb20 Rh1 2.764767 1_545
Pb20 Rh6 2.764785 1_555
Pb20 Pb7 3.369131 1_545
Pb21 Rh4 2.764598 1_554
Pb21 Rh1 2.764637 1_555
Pb21 Pb6 3.369125 1_555
Pb22 Rh7 2.764617 1_545
Pb22 Rh0 2.764645 1_555
Pb22 Pb4 3.368942 1_555
Pb23 Rh0 2.764771 1_554
Pb23 Rh5 2.764872 1_555
Pb23 Pb9 3.369075 1_555
Pb23 Pb3 3.369157 1_554
Pb24 Rh5 2.764559 1_555
Pb24 Rh6 2.764846 1_655
Pb25 Rh7 2.764493 1_555
Pb25 Rh4 2.764826 1_655
Pb25 Pb8 3.368883 1_555
Pb25 Pb5 3.369148 1_655
