# generated using pymatgen
data_Mg6ZrGa
_symmetry_space_group_name_H-M   'P 1'
_cell_length_a   4.88647300
_cell_length_b   6.40145900
_cell_length_c   11.00977800
_cell_angle_alpha   90.00000000
_cell_angle_beta   90.00000000
_cell_angle_gamma   90.00000000
_symmetry_Int_Tables_number   1
_chemical_formula_structural   Mg6ZrGa
_chemical_formula_sum   'Mg12 Zr2 Ga2'
_cell_volume   344.39198349
_cell_formula_units_Z   2
loop_
 _symmetry_equiv_pos_site_id
 _symmetry_equiv_pos_as_xyz
  1  'x, y, z'
loop_
 _atom_site_type_symbol
 _atom_site_label
 _atom_site_symmetry_multiplicity
 _atom_site_fract_x
 _atom_site_fract_y
 _atom_site_fract_z
 _atom_site_occupancy
  Mg  Mg0  1  0.00000000  0.25270500  0.08134700  1
  Mg  Mg1  1  0.00000000  0.74729500  0.08134700  1
  Mg  Mg2  1  0.00000000  0.50000000  0.83390600  1
  Mg  Mg3  1  0.50000000  0.24975500  0.91637800  1
  Mg  Mg4  1  0.50000000  0.75024500  0.91637800  1
  Mg  Mg5  1  0.50000000  0.50000000  0.66754200  1
  Mg  Mg6  1  0.00000000  0.75270500  0.58134700  1
  Mg  Mg7  1  0.00000000  0.24729500  0.58134700  1
  Mg  Mg8  1  0.00000000  0.00000000  0.33390600  1
  Mg  Mg9  1  0.50000000  0.74975500  0.41637800  1
  Mg  Mg10  1  0.50000000  0.25024500  0.41637800  1
  Mg  Mg11  1  0.50000000  0.00000000  0.16754200  1
  Zr  Zr0  1  0.00000000  0.50000000  0.32402800  1
  Zr  Zr1  1  0.00000000  0.00000000  0.82402800  1
  Ga  Ga0  1  0.50000000  0.50000000  0.17907600  1
  Ga  Ga1  1  0.50000000  0.00000000  0.67907600  1
loop_
_geom_bond_atom_site_label_1
_geom_bond_atom_site_label_2
_geom_bond_distance
_geom_bond_site_symmetry_2
Mg0 Mg3 3.044438 1_554
Mg0 Mg3 3.044438 1_454
Mg0 Mg11 3.080077 1_555
Mg0 Mg11 3.080077 1_455
Mg0 Zr0 3.105624 1_555
Mg0 Mg2 3.150824 1_554
Mg0 Mg1 3.166098 1_555
Mg0 Mg8 3.216944 1_555
Mg0 Mg1 3.235361 1_545
Mg0 Zr1 3.262349 1_554
Mg1 Mg4 3.044438 1_554
Mg1 Mg4 3.044438 1_454
Mg1 Mg11 3.080077 1_565
Mg1 Mg11 3.080077 1_465
Mg1 Zr0 3.105624 1_555
Mg1 Mg2 3.150824 1_554
Mg1 Mg8 3.216944 1_565
Mg1 Zr1 3.262349 1_564
Mg2 Mg5 3.053568 1_455
Mg2 Mg5 3.053568 1_555
Mg2 Mg3 3.059421 1_455
Mg2 Mg4 3.059421 1_455
Mg2 Mg4 3.059421 1_555
Mg2 Mg3 3.059421 1_555
Mg2 Zr1 3.202577 1_565
Mg2 Zr1 3.202577 1_555
Mg2 Mg6 3.216944 1_555
Mg2 Mg7 3.216944 1_555
Mg3 Zr1 3.091818 1_555
Mg3 Zr1 3.091818 1_655
Mg3 Mg5 3.173603 1_555
Mg3 Mg4 3.197593 1_545
Mg3 Mg4 3.203866 1_555
Mg4 Zr1 3.091818 1_665
Mg4 Zr1 3.091818 1_565
Mg4 Mg5 3.173603 1_555
Mg5 Mg6 3.080077 1_555
Mg5 Mg6 3.080077 1_655
Mg5 Mg7 3.080077 1_555
Mg5 Mg7 3.080077 1_655
Mg5 Mg9 3.194184 1_555
Mg6 Mg9 3.044438 1_555
Mg6 Mg9 3.044438 1_455
Mg6 Zr1 3.105624 1_565
Mg6 Mg8 3.150824 1_565
Mg6 Mg7 3.166098 1_565
Mg6 Mg7 3.235361 1_555
Mg6 Zr0 3.262349 1_555
Mg7 Zr1 3.105624 1_555
Mg7 Mg8 3.150824 1_555
Mg7 Zr0 3.262349 1_555
Mg8 Mg9 3.059421 1_545
Mg8 Mg9 3.059421 1_445
Mg8 Zr0 3.202577 1_545
Mg8 Zr0 3.202577 1_555
Mg9 Zr0 3.091818 1_555
Mg9 Zr0 3.091818 1_655
Mg10 Mg7 3.044438 1_555
Mg10 Mg7 3.044438 1_655
Mg10 Mg8 3.059421 1_555
Mg10 Mg8 3.059421 1_655
Mg10 Zr0 3.091818 1_655
Mg10 Zr0 3.091818 1_555
Mg10 Mg11 3.173603 1_555
Mg10 Mg5 3.194184 1_555
Mg10 Mg9 3.197593 1_555
Mg10 Mg9 3.203866 1_545
Mg11 Mg8 3.053568 1_555
Mg11 Mg8 3.053568 1_655
Mg11 Mg9 3.173603 1_545
Mg11 Mg4 3.194184 1_544
Mg11 Mg3 3.194184 1_554
Ga0 Zr0 2.918264 1_555
Ga0 Zr0 2.918264 1_655
Ga0 Mg9 3.063013 1_555
Ga0 Mg10 3.063013 1_555
Ga0 Mg0 3.103735 1_555
Ga0 Mg0 3.103735 1_655
Ga0 Mg1 3.103735 1_555
Ga0 Mg1 3.103735 1_655
Ga0 Mg11 3.203248 1_555
Ga0 Mg11 3.203248 1_565
Ga0 Mg3 3.306249 1_554
Ga0 Mg4 3.306249 1_554
Ga1 Zr1 2.918264 1_555
Ga1 Zr1 2.918264 1_655
Ga1 Mg4 3.063013 1_545
Ga1 Mg3 3.063013 1_555
Ga1 Mg7 3.103735 1_555
Ga1 Mg7 3.103735 1_655
Ga1 Mg6 3.103735 1_645
Ga1 Mg6 3.103735 1_545
Ga1 Mg5 3.203248 1_545
Ga1 Mg5 3.203248 1_555
Ga1 Mg9 3.306249 1_545
Ga1 Mg10 3.306249 1_555
