# generated using pymatgen
data_Sr2V3HO9
_symmetry_space_group_name_H-M   'P 1'
_cell_length_a   6.23016600
_cell_length_b   7.71827491
_cell_length_c   8.88997106
_cell_angle_alpha   111.61748134
_cell_angle_beta   90.00000000
_cell_angle_gamma   90.00000000
_symmetry_Int_Tables_number   1
_chemical_formula_structural   Sr2V3HO9
_chemical_formula_sum   'Sr4 V6 H2 O18'
_cell_volume   397.41685409
_cell_formula_units_Z   2
loop_
 _symmetry_equiv_pos_site_id
 _symmetry_equiv_pos_as_xyz
  1  'x, y, z'
loop_
 _atom_site_type_symbol
 _atom_site_label
 _atom_site_symmetry_multiplicity
 _atom_site_fract_x
 _atom_site_fract_y
 _atom_site_fract_z
 _atom_site_occupancy
  Sr  Sr0  1  0.75000000  0.32674500  0.40878500  1
  Sr  Sr1  1  0.25000000  0.67325500  0.59121500  1
  Sr  Sr2  1  0.75000000  0.73552500  0.24862000  1
  Sr  Sr3  1  0.25000000  0.26447500  0.75138000  1
  V  V0  1  0.50000000  0.00000000  0.00000000  1
  V  V1  1  0.00000000  0.00000000  0.00000000  1
  V  V2  1  0.25000000  0.03822800  0.34054800  1
  V  V3  1  0.75000000  0.96177200  0.65945200  1
  V  V4  1  0.75000000  0.55776900  0.82241200  1
  V  V5  1  0.25000000  0.44223100  0.17758800  1
  H  H0  1  0.75000000  0.28203000  0.03429400  1
  H  H1  1  0.25000000  0.71797000  0.96570600  1
  O  O0  1  0.49003300  0.98477600  0.22101400  1
  O  O1  1  0.99003300  0.01522400  0.77898600  1
  O  O2  1  0.50996700  0.01522400  0.77898600  1
  O  O3  1  0.00996700  0.98477600  0.22101400  1
  O  O4  1  0.52592300  0.49027100  0.69880900  1
  O  O5  1  0.02592300  0.50972900  0.30119100  1
  O  O6  1  0.47407700  0.50972900  0.30119100  1
  O  O7  1  0.97407700  0.49027100  0.69880900  1
  O  O8  1  0.75000000  0.80666000  0.94174400  1
  O  O9  1  0.25000000  0.19334000  0.05825600  1
  O  O10  1  0.25000000  0.26960100  0.45747400  1
  O  O11  1  0.75000000  0.73039900  0.54252600  1
  O  O12  1  0.75000000  0.18058800  0.08010600  1
  O  O13  1  0.25000000  0.81941200  0.91989400  1
  O  O14  1  0.25000000  0.92033500  0.46902300  1
  O  O15  1  0.75000000  0.07966500  0.53097700  1
  O  O16  1  0.75000000  0.45429700  0.96291900  1
  O  O17  1  0.25000000  0.54570300  0.03708100  1
loop_
_geom_bond_atom_site_label_1
_geom_bond_atom_site_label_2
_geom_bond_distance
_geom_bond_site_symmetry_2
H0 O12 1.006896 1_555
H0 O16 1.670955 1_554
H1 O13 1.006896 1_555
H1 O17 1.670955 1_556
O0 V2 1.792420 1_565
O0 V0 2.012025 1_565
O0 Sr2 2.594665 1_555
O0 Sr0 3.021565 1_565
O1 V3 1.792420 1_545
O1 V1 2.012025 1_656
O1 Sr3 2.594665 1_655
O1 Sr1 3.021565 1_645
O2 V3 1.792420 1_545
O2 V0 2.012025 1_556
O2 Sr3 2.594665 1_555
O2 Sr1 3.021565 1_545
O3 V2 1.792420 1_565
O3 V1 2.012025 1_565
O3 Sr2 2.594665 1_455
O3 Sr0 3.021565 1_465
O4 V4 1.733769 1_555
O4 Sr3 2.609763 1_555
O4 Sr1 2.619167 1_555
O4 Sr0 2.791386 1_555
O5 V5 1.733769 1_555
O5 Sr2 2.609763 1_455
O5 Sr0 2.619167 1_455
O5 Sr1 2.791386 1_555
O6 V5 1.733769 1_555
O6 Sr2 2.609763 1_555
O6 Sr0 2.619167 1_555
O6 Sr1 2.791386 1_555
O7 V4 1.733769 1_555
O7 Sr3 2.609763 1_655
O7 Sr1 2.619167 1_655
O7 Sr0 2.791386 1_555
O8 V4 1.820474 1_555
O8 V0 2.086032 1_566
O8 V1 2.086032 1_666
O8 Sr2 2.974511 1_556
O9 V5 1.820474 1_555
O9 V0 2.086032 1_555
O9 V1 2.086032 1_555
O9 Sr3 2.974511 1_554
O10 V2 1.703478 1_555
O10 Sr3 2.627649 1_555
O10 Sr1 2.896673 1_555
O10 Sr0 3.197857 1_555
O10 Sr0 3.197857 1_455
O11 V3 1.703478 1_555
O11 Sr2 2.627649 1_555
O11 Sr0 2.896673 1_555
O11 Sr1 3.197857 1_555
O11 Sr1 3.197857 1_655
O12 V0 2.035797 1_555
O12 V1 2.035797 1_655
O12 Sr0 2.716919 1_555
O13 V0 2.035797 1_566
O13 V1 2.035797 1_566
O13 Sr1 2.716919 1_555
O14 V2 1.702411 1_565
O14 Sr1 2.518561 1_555
O14 Sr3 2.905758 1_565
O15 V3 1.702411 1_545
O15 Sr0 2.518561 1_555
O15 Sr2 2.905758 1_545
O16 V4 1.712625 1_555
O16 Sr2 2.664647 1_556
O17 V5 1.712625 1_555
O17 Sr3 2.664647 1_554
