# generated using pymatgen
data_RbNaTi2(PO5)2
_symmetry_space_group_name_H-M   'P 1'
_cell_length_a   6.39985799
_cell_length_b   12.98808031
_cell_length_c   10.70330523
_cell_angle_alpha   90.00000000
_cell_angle_beta   90.00000000
_cell_angle_gamma   90.00000000
_symmetry_Int_Tables_number   1
_chemical_formula_structural   RbNaTi2(PO5)2
_chemical_formula_sum   'Rb4 Na4 Ti8 P8 O40'
_cell_volume   889.67874105
_cell_formula_units_Z   4
loop_
 _symmetry_equiv_pos_site_id
 _symmetry_equiv_pos_as_xyz
  1  'x, y, z'
loop_
 _atom_site_type_symbol
 _atom_site_label
 _atom_site_symmetry_multiplicity
 _atom_site_fract_x
 _atom_site_fract_y
 _atom_site_fract_z
 _atom_site_occupancy
  Rb  Rb0  1  0.83851531  0.90246347  0.41860783  1
  Rb  Rb1  1  0.16148469  0.09753653  0.91860783  1
  Rb  Rb2  1  0.66148469  0.40246347  0.41860783  1
  Rb  Rb3  1  0.33851531  0.59753653  0.91860783  1
  Na  Na0  1  0.25851876  0.84925503  0.69857824  1
  Na  Na1  1  0.74148124  0.15074497  0.19857824  1
  Na  Na2  1  0.24148124  0.34925503  0.69857824  1
  Na  Na3  1  0.75851876  0.65074497  0.19857824  1
  Ti  Ti0  1  0.52449775  0.87242824  0.98899414  1
  Ti  Ti1  1  0.47550225  0.12757176  0.48899414  1
  Ti  Ti2  1  0.97550225  0.37242824  0.98899414  1
  Ti  Ti3  1  0.02449775  0.62757176  0.48899414  1
  Ti  Ti4  1  0.75231286  0.75047719  0.72994717  1
  Ti  Ti5  1  0.24768714  0.24952281  0.22994717  1
  Ti  Ti6  1  0.74768714  0.25047719  0.72994717  1
  Ti  Ti7  1  0.25231286  0.74952281  0.22994717  1
  P  P0  1  0.66183343  0.99992455  0.72579851  1
  P  P1  1  0.33816657  0.00007545  0.22579851  1
  P  P2  1  0.83816657  0.49992455  0.72579851  1
  P  P3  1  0.16183343  0.50007545  0.22579851  1
  P  P4  1  0.01686548  0.81524604  0.97352161  1
  P  P5  1  0.98313452  0.18475396  0.47352161  1
  P  P6  1  0.48313452  0.31524604  0.97352161  1
  P  P7  1  0.51686548  0.68475396  0.47352161  1
  O  O0  1  0.98548451  0.51019282  0.60956603  1
  O  O1  1  0.01451549  0.48980718  0.10956603  1
  O  O2  1  0.51451549  0.01019282  0.60956603  1
  O  O3  1  0.48548451  0.98980718  0.10956603  1
  O  O4  1  0.71299062  0.61917718  0.44682180  1
  O  O5  1  0.28700938  0.38082282  0.94682180  1
  O  O6  1  0.78700938  0.11917718  0.44682180  1
  O  O7  1  0.21299062  0.88082282  0.94682180  1
  O  O8  1  0.55493687  0.78087609  0.84297851  1
  O  O9  1  0.44506313  0.21912391  0.34297851  1
  O  O10  1  0.94506313  0.28087609  0.84297851  1
  O  O11  1  0.05493687  0.71912391  0.34297851  1
  O  O12  1  0.98672643  0.72797507  0.59967652  1
  O  O13  1  0.01327357  0.27202493  0.09967652  1
  O  O14  1  0.51327357  0.22797507  0.59967652  1
  O  O15  1  0.48672643  0.77202493  0.09967652  1
  O  O16  1  0.54911829  0.75948415  0.58508994  1
  O  O17  1  0.45088171  0.24051585  0.08508994  1
  O  O18  1  0.95088171  0.25948415  0.58508994  1
  O  O19  1  0.04911829  0.74051585  0.08508994  1
  O  O20  1  0.83126793  0.88728668  0.99980498  1
  O  O21  1  0.16873207  0.11271332  0.49980498  1
  O  O22  1  0.66873207  0.38728668  0.99980498  1
  O  O23  1  0.33126793  0.61271332  0.49980498  1
  O  O24  1  0.52601173  0.98512594  0.84221558  1
  O  O25  1  0.47398827  0.01487406  0.34221558  1
  O  O26  1  0.97398827  0.48512594  0.84221558  1
  O  O27  1  0.02601173  0.51487406  0.34221558  1
  O  O28  1  0.98062558  0.74858996  0.85428807  1
  O  O29  1  0.01937442  0.25141004  0.35428807  1
  O  O30  1  0.51937442  0.24858996  0.85428807  1
  O  O31  1  0.48062558  0.75141004  0.35428807  1
  O  O32  1  0.70334026  0.59951079  0.74017425  1
  O  O33  1  0.29665974  0.40048921  0.24017425  1
  O  O34  1  0.79665974  0.09951079  0.74017425  1
  O  O35  1  0.20334026  0.90048921  0.24017425  1
  O  O36  1  0.81115820  0.90668677  0.70213681  1
  O  O37  1  0.18884180  0.09331323  0.20213681  1
  O  O38  1  0.68884180  0.40668677  0.70213681  1
  O  O39  1  0.31115820  0.59331323  0.20213681  1
loop_
_geom_bond_atom_site_label_1
_geom_bond_atom_site_label_2
_geom_bond_distance
_geom_bond_site_symmetry_2
Na0 O16 2.508740 1_555
Na0 O12 2.574382 1_455
Na0 O8 2.603120 1_555
Na0 O7 2.704218 1_555
Na0 O28 2.765860 1_455
Na0 O2 2.821541 1_565
Na0 O24 2.899727 1_555
Na0 O36 2.958865 1_455
Na1 O17 2.508740 1_555
Na1 O13 2.574382 1_655
Na1 O9 2.603120 1_555
Na1 O6 2.704218 1_555
Na1 O29 2.765860 1_655
Na1 O3 2.821541 1_545
Na1 O25 2.899727 1_555
Na1 O37 2.958865 1_655
Na2 O18 2.508740 1_455
Na2 O14 2.574382 1_555
Na2 O10 2.603120 1_455
Na2 O5 2.704218 1_555
Na2 O30 2.765860 1_555
Na2 O0 2.821541 1_455
Na2 O26 2.899727 1_455
Na2 O38 2.958865 1_555
Na3 O19 2.508740 1_655
Na3 O15 2.574382 1_555
Na3 O11 2.603120 1_655
Na3 O4 2.704218 1_555
Na3 O31 2.765860 1_555
Na3 O1 2.821541 1_655
Na3 O27 2.899727 1_655
Na3 O39 2.958865 1_555
O0 P2 1.566652 1_555
O0 Ti3 2.012948 1_655
O0 Rb2 3.230300 1_555
O1 P3 1.566652 1_555
O1 Ti2 2.012948 1_454
O1 Rb3 3.230300 1_554
O2 P0 1.566652 1_545
O2 Ti1 2.012948 1_555
O2 Rb0 3.230300 1_545
O3 P1 1.566652 1_565
O3 Ti0 2.012948 1_554
O3 Rb1 3.230300 1_564
O4 P7 1.543551 1_555
O4 Ti3 2.046969 1_655
O4 Rb2 2.849975 1_555
O5 P6 1.543551 1_555
O5 Ti2 2.046969 1_455
O5 Rb3 2.849975 1_555
O6 P5 1.543551 1_555
O6 Ti1 2.046969 1_555
O6 Rb0 2.849975 1_545
O7 P4 1.543551 1_555
O7 Ti0 2.046969 1_555
O7 Rb1 2.849975 1_565
O8 Ti4 1.793082 1_555
O8 Ti0 1.973417 1_555
O8 Rb3 2.871224 1_555
O9 Ti5 1.793082 1_555
O9 Ti1 1.973417 1_555
O9 Rb2 2.871224 1_555
O10 Ti6 1.793082 1_555
O10 Ti2 1.973417 1_555
O10 Rb1 2.871224 1_655
O11 Ti7 1.793082 1_555
O11 Ti3 1.973417 1_555
O11 Rb0 2.871224 1_455
O12 Ti3 1.778316 1_655
O12 Ti4 2.068865 1_555
O12 Rb0 3.129163 1_555
O13 Ti2 1.778316 1_454
O13 Ti5 2.068865 1_555
O13 Rb1 3.129163 1_554
O14 Ti1 1.778316 1_555
O14 Ti6 2.068865 1_555
O14 Rb2 3.129163 1_555
O15 Ti0 1.778316 1_554
O15 Ti7 2.068865 1_555
O15 Rb3 3.129163 1_554
O16 P7 1.552633 1_555
O16 Ti4 2.026985 1_555
O16 Rb0 3.170808 1_555
O17 P6 1.552633 1_554
O17 Ti5 2.026985 1_555
O17 Rb1 3.170808 1_554
O18 P5 1.552633 1_555
O18 Ti6 2.026985 1_555
O18 Rb2 3.170808 1_555
O19 P4 1.552633 1_554
O19 Ti7 2.026985 1_555
O19 Rb3 3.170808 1_554
O20 P4 1.538012 1_655
O20 Ti0 1.976138 1_555
O21 P5 1.538012 1_455
O21 Ti1 1.976138 1_555
O22 P6 1.538012 1_555
O22 Ti2 1.976138 1_555
O23 P7 1.538012 1_555
O23 Ti3 1.976138 1_555
O24 P0 1.531390 1_555
O24 Ti0 2.147249 1_555
O24 Rb1 2.871004 1_565
O25 P1 1.531390 1_555
O25 Ti1 2.147249 1_555
O25 Rb0 2.871004 1_545
O26 P2 1.531390 1_555
O26 Ti2 2.147249 1_555
O26 Rb3 2.871004 1_655
O27 P3 1.531390 1_555
O27 Ti3 2.147249 1_555
O27 Rb2 2.871004 1_455
O28 P4 1.559473 1_655
O28 Ti4 1.976563 1_555
O28 Rb3 3.093396 1_655
O29 P5 1.559473 1_455
O29 Ti5 1.976563 1_555
O29 Rb2 3.093396 1_455
O30 P6 1.559473 1_555
O30 Ti6 1.976563 1_555
O30 Rb1 3.093396 1_555
O31 P7 1.559473 1_555
O31 Ti7 1.976563 1_555
O31 Rb0 3.093396 1_555
O32 P2 1.562431 1_555
O32 Ti4 1.988670 1_555
O32 Rb3 3.016542 1_555
O33 P3 1.562431 1_555
O33 Ti5 1.988670 1_555
O33 Rb2 3.016542 1_555
O34 P0 1.562431 1_545
O34 Ti6 1.988670 1_555
O34 Rb1 3.016542 1_655
O35 P1 1.562431 1_565
O35 Ti7 1.988670 1_555
O35 Rb0 3.016542 1_455
O36 P0 1.563295 1_555
O36 Ti4 2.084878 1_555
O36 Rb0 3.040238 1_555
O37 P1 1.563295 1_555
O37 Ti5 2.084878 1_555
O37 Rb1 3.040238 1_554
O38 P2 1.563295 1_555
O38 Ti6 2.084878 1_555
O38 Rb2 3.040238 1_555
O39 P3 1.563295 1_555
O39 Ti7 2.084878 1_555
O39 Rb3 3.040238 1_554
