# generated using pymatgen
data_Li14Nd5Si11N19O7F2
_symmetry_space_group_name_H-M   'P 1'
_cell_length_a   7.70817927
_cell_length_b   10.08144284
_cell_length_c   17.20127887
_cell_angle_alpha   90.00000000
_cell_angle_beta   90.00000000
_cell_angle_gamma   90.00000000
_symmetry_Int_Tables_number   1
_chemical_formula_structural   Li14Nd5Si11N19O7F2
_chemical_formula_sum   'Li28 Nd10 Si22 N38 O14 F4'
_cell_volume   1336.70396226
_cell_formula_units_Z   2
loop_
 _symmetry_equiv_pos_site_id
 _symmetry_equiv_pos_as_xyz
  1  'x, y, z'
loop_
 _atom_site_type_symbol
 _atom_site_label
 _atom_site_symmetry_multiplicity
 _atom_site_fract_x
 _atom_site_fract_y
 _atom_site_fract_z
 _atom_site_occupancy
  Li  Li0  1  0.49812661  0.37656513  0.88394791  1
  Li  Li1  1  0.49712362  0.37596750  0.61559844  1
  Li  Li2  1  0.00187339  0.37656513  0.88394791  1
  Li  Li3  1  0.00287638  0.37596750  0.61559844  1
  Li  Li4  1  0.50287638  0.62403250  0.11559844  1
  Li  Li5  1  0.50187339  0.62343487  0.38394791  1
  Li  Li6  1  0.99712362  0.62403250  0.11559844  1
  Li  Li7  1  0.99812661  0.62343487  0.38394791  1
  Li  Li8  1  0.75000000  0.45758175  0.01245705  1
  Li  Li9  1  0.75000000  0.45560903  0.48756755  1
  Li  Li10  1  0.25000000  0.54439097  0.98756755  1
  Li  Li11  1  0.25000000  0.54241825  0.51245705  1
  Li  Li12  1  0.75000000  0.52829963  0.85088791  1
  Li  Li13  1  0.75000000  0.52770817  0.64901431  1
  Li  Li14  1  0.25000000  0.47229183  0.14901431  1
  Li  Li15  1  0.25000000  0.47170037  0.35088791  1
  Li  Li16  1  0.75000000  0.75556213  0.06620880  1
  Li  Li17  1  0.75000000  0.75034327  0.43544981  1
  Li  Li18  1  0.25000000  0.24965673  0.93544981  1
  Li  Li19  1  0.25000000  0.24443787  0.56620880  1
  Li  Li20  1  0.41156346  0.00981231  0.82751130  1
  Li  Li21  1  0.40241882  0.01256723  0.67123129  1
  Li  Li22  1  0.08843654  0.00981231  0.82751130  1
  Li  Li23  1  0.09758118  0.01256723  0.67123129  1
  Li  Li24  1  0.59758118  0.98743277  0.17123129  1
  Li  Li25  1  0.58843654  0.99018769  0.32751130  1
  Li  Li26  1  0.90241882  0.98743277  0.17123129  1
  Li  Li27  1  0.91156346  0.99018769  0.32751130  1
  Nd  Nd0  1  0.51123360  0.99758878  0.00477585  1
  Nd  Nd1  1  0.48876640  0.00241122  0.50477585  1
  Nd  Nd2  1  0.98876640  0.99758878  0.00477585  1
  Nd  Nd3  1  0.01123360  0.00241122  0.50477585  1
  Nd  Nd4  1  0.25000000  0.81761155  0.24993244  1
  Nd  Nd5  1  0.75000000  0.18238845  0.74993244  1
  Nd  Nd6  1  0.49138079  0.27229122  0.25000204  1
  Nd  Nd7  1  0.00861921  0.27229122  0.25000204  1
  Nd  Nd8  1  0.50861921  0.72770878  0.75000204  1
  Nd  Nd9  1  0.99138079  0.72770878  0.75000204  1
  Si  Si0  1  0.45530109  0.30291820  0.06391738  1
  Si  Si1  1  0.45527039  0.30281293  0.43588760  1
  Si  Si2  1  0.04469891  0.30291820  0.06391738  1
  Si  Si3  1  0.04472961  0.30281293  0.43588760  1
  Si  Si4  1  0.54472961  0.69718707  0.93588760  1
  Si  Si5  1  0.54469891  0.69708180  0.56391738  1
  Si  Si6  1  0.95527039  0.69718707  0.93588760  1
  Si  Si7  1  0.95530109  0.69708180  0.56391738  1
  Si  Si8  1  0.75000000  0.74129817  0.25016545  1
  Si  Si9  1  0.25000000  0.25870183  0.75016545  1
  Si  Si10  1  0.75000000  0.47844523  0.15770287  1
  Si  Si11  1  0.75000000  0.47832149  0.34221417  1
  Si  Si12  1  0.25000000  0.52167851  0.84221417  1
  Si  Si13  1  0.25000000  0.52155477  0.65770287  1
  Si  Si14  1  0.25000000  0.77106028  0.06712349  1
  Si  Si15  1  0.25000000  0.77134631  0.43253311  1
  Si  Si16  1  0.75000000  0.22865369  0.93253311  1
  Si  Si17  1  0.75000000  0.22893972  0.56712349  1
  Si  Si18  1  0.25000000  0.08205968  0.14849199  1
  Si  Si19  1  0.25000000  0.08206342  0.35177444  1
  Si  Si20  1  0.75000000  0.91793658  0.85177444  1
  Si  Si21  1  0.75000000  0.91794032  0.64849199  1
  N  N0  1  0.55730838  0.84338297  0.87838184  1
  N  N1  1  0.55815666  0.84252190  0.62197683  1
  N  N2  1  0.94269162  0.84338297  0.87838184  1
  N  N3  1  0.94184334  0.84252190  0.62197683  1
  N  N4  1  0.44184334  0.15747810  0.12197683  1
  N  N5  1  0.44269162  0.15661703  0.37838184  1
  N  N6  1  0.05815666  0.15747810  0.12197683  1
  N  N7  1  0.05730838  0.15661703  0.37838184  1
  N  N8  1  0.56059779  0.42401966  0.11732945  1
  N  N9  1  0.56031951  0.42374860  0.38212124  1
  N  N10  1  0.93940221  0.42401966  0.11732945  1
  N  N11  1  0.93968049  0.42374860  0.38212124  1
  N  N12  1  0.43968049  0.57625140  0.88212124  1
  N  N13  1  0.43940221  0.57598034  0.61732945  1
  N  N14  1  0.06031951  0.57625140  0.88212124  1
  N  N15  1  0.06059779  0.57598034  0.61732945  1
  N  N16  1  0.55634347  0.25407944  0.97867917  1
  N  N17  1  0.55782042  0.25580131  0.52092230  1
  N  N18  1  0.94365653  0.25407944  0.97867917  1
  N  N19  1  0.94217958  0.25580131  0.52092230  1
  N  N20  1  0.44217958  0.74419869  0.02092230  1
  N  N21  1  0.44365653  0.74592056  0.47867917  1
  N  N22  1  0.05782042  0.74419869  0.02092230  1
  N  N23  1  0.05634347  0.74592056  0.47867917  1
  N  N24  1  0.25000000  0.36066914  0.04077882  1
  N  N25  1  0.25000000  0.36053732  0.45871346  1
  N  N26  1  0.75000000  0.63946268  0.95871346  1
  N  N27  1  0.75000000  0.63933086  0.54077882  1
  N  N28  1  0.75000000  0.93369080  0.75008706  1
  N  N29  1  0.25000000  0.06630920  0.25008706  1
  N  N30  1  0.25000000  0.92878568  0.10463549  1
  N  N31  1  0.25000000  0.92820975  0.39462379  1
  N  N32  1  0.75000000  0.07179025  0.89462379  1
  N  N33  1  0.75000000  0.07121432  0.60463549  1
  N  N34  1  0.75000000  0.64704655  0.16625896  1
  N  N35  1  0.75000000  0.64721649  0.33424454  1
  N  N36  1  0.25000000  0.35278351  0.83424454  1
  N  N37  1  0.25000000  0.35295345  0.66625896  1
  O  O0  1  0.57314389  0.84350851  0.25047548  1
  O  O1  1  0.92685611  0.84350851  0.25047548  1
  O  O2  1  0.42685611  0.15649149  0.75047548  1
  O  O3  1  0.07314389  0.15649149  0.75047548  1
  O  O4  1  0.75000000  0.33396629  0.85531747  1
  O  O5  1  0.75000000  0.33346618  0.64475794  1
  O  O6  1  0.25000000  0.66653382  0.14475794  1
  O  O7  1  0.25000000  0.66603371  0.35531747  1
  O  O8  1  0.25000000  0.59147666  0.74989840  1
  O  O9  1  0.75000000  0.40852334  0.24989840  1
  O  O10  1  0.75000000  0.61130902  0.74989856  1
  O  O11  1  0.25000000  0.38869098  0.24989856  1
  O  O12  1  0.75000000  0.95169603  0.07814036  1
  O  O13  1  0.25000000  0.04830397  0.57814036  1
  F  F0  1  0.75000000  0.09354953  0.25113978  1
  F  F1  1  0.25000000  0.90645047  0.75113978  1
  F  F2  1  0.75000000  0.94764336  0.41446576  1
  F  F3  1  0.25000000  0.05235664  0.91446576  1
loop_
_geom_bond_atom_site_label_1
_geom_bond_atom_site_label_2
_geom_bond_distance
_geom_bond_site_symmetry_2
Li0 O4 2.048496 1_555
Li0 N12 2.063159 1_555
Li0 N16 2.093191 1_555
Li0 N36 2.108672 1_555
Li1 O5 2.057819 1_555
Li1 N13 2.065136 1_555
Li1 N17 2.082950 1_555
Li1 N37 2.107547 1_555
Li2 O4 2.048496 1_455
Li2 N14 2.063159 1_555
Li2 N18 2.093191 1_455
Li2 N36 2.108672 1_555
Li3 O5 2.057819 1_455
Li3 N15 2.065136 1_555
Li3 N19 2.082950 1_455
Li3 N37 2.107547 1_555
Li4 O6 2.057819 1_555
Li4 N8 2.065136 1_555
Li4 N20 2.082950 1_555
Li4 N34 2.107547 1_555
Li5 O7 2.048496 1_555
Li5 N9 2.063159 1_555
Li5 N21 2.093191 1_555
Li5 N35 2.108672 1_555
Li6 O6 2.057819 1_655
Li6 N10 2.065136 1_555
Li6 N22 2.082950 1_655
Li6 N34 2.107547 1_555
Li7 O7 2.048496 1_655
Li7 N11 2.063159 1_555
Li7 N23 2.093191 1_655
Li7 N35 2.108672 1_555
Li8 N26 2.053483 1_554
Li8 N10 2.345234 1_555
Li8 N8 2.345234 1_555
Li8 N18 2.602865 1_554
Li8 N16 2.602865 1_554
Li9 N27 2.065999 1_555
Li9 N11 2.351763 1_555
Li9 N9 2.351763 1_555
Li9 N17 2.565385 1_555
Li9 N19 2.565385 1_555
Li10 N24 2.065999 1_556
Li10 N12 2.351763 1_555
Li10 N14 2.351763 1_555
Li10 N20 2.565385 1_556
Li10 N22 2.565385 1_556
Li11 N25 2.053483 1_555
Li11 N13 2.345234 1_555
Li11 N15 2.345234 1_555
Li11 N21 2.602865 1_555
Li11 N23 2.602865 1_555
Li12 O10 1.928212 1_555
Li12 O4 1.960642 1_555
Li12 N26 2.167022 1_555
Li12 N14 2.498799 1_655
Li12 N12 2.498799 1_555
Li13 O10 1.929181 1_555
Li13 O5 1.959608 1_555
Li13 N27 2.175453 1_555
Li13 N13 2.503158 1_555
Li13 N15 2.503158 1_655
Li14 O11 1.929181 1_555
Li14 O6 1.959608 1_555
Li14 N24 2.175453 1_555
Li14 N8 2.503158 1_555
Li14 N10 2.503158 1_455
Li15 O11 1.928212 1_555
Li15 O7 1.960642 1_555
Li15 N25 2.167022 1_555
Li15 N11 2.498799 1_455
Li15 N9 2.498799 1_555
Li16 O12 1.987936 1_555
Li16 N34 2.039272 1_555
Li16 N26 2.188371 1_554
Li16 N20 2.499963 1_555
Li16 N22 2.499963 1_655
Li17 N35 2.027684 1_555
Li17 N27 2.129584 1_555
Li17 N21 2.476066 1_555
Li17 N23 2.476066 1_655
Li18 N36 2.027684 1_555
Li18 N24 2.129584 1_556
Li18 N16 2.476066 1_555
Li18 N18 2.476066 1_455
Li19 O13 1.987936 1_555
Li19 N37 2.039272 1_555
Li19 N25 2.188371 1_555
Li19 N17 2.499963 1_555
Li19 N19 2.499963 1_455
Li20 O2 1.989093 1_555
Li20 N0 2.200672 1_545
Li21 O2 1.999706 1_555
Li21 O13 2.018472 1_555
Li21 N1 2.257818 1_545
Li22 O3 1.989093 1_555
Li22 N2 2.200672 1_445
Li23 O3 1.999706 1_555
Li23 O13 2.018472 1_555
Li23 N3 2.257818 1_445
Li24 O0 1.999706 1_555
Li24 O12 2.018472 1_555
Li24 N4 2.257818 1_565
Li25 O0 1.989093 1_555
Li25 N5 2.200672 1_565
Li26 O1 1.999706 1_555
Li26 O12 2.018472 1_555
Li26 N6 2.257818 1_665
Li27 O1 1.989093 1_555
Li27 N7 2.200672 1_665
Nd0 O12 2.279009 1_555
Nd1 O13 2.279009 1_555
Nd2 O12 2.279009 1_555
Nd3 O13 2.279009 1_555
Nd4 O6 2.364900 1_555
Nd4 O7 2.370918 1_555
Nd4 O0 2.504514 1_555
Nd4 O1 2.504514 1_455
Nd5 O5 2.364900 1_555
Nd5 O4 2.370918 1_555
Nd5 O2 2.504514 1_555
Nd5 O3 2.504514 1_655
Nd6 O11 2.199752 1_555
Nd6 O9 2.420796 1_555
Nd7 O11 2.199752 1_555
Nd7 O9 2.420796 1_455
Nd8 O10 2.199752 1_555
Nd8 O8 2.420796 1_555
Nd9 O10 2.199752 1_555
Nd9 O8 2.420796 1_655
N0 Si20 1.726415 1_555
N0 Si4 1.777679 1_555
N0 Nd8 2.525344 1_555
N0 Nd0 2.696265 1_556
N1 Si21 1.724198 1_555
N1 Si5 1.777086 1_555
N1 Nd8 2.516991 1_555
N1 Nd1 2.636028 1_565
N2 Si20 1.726415 1_555
N2 Si6 1.777679 1_555
N2 Nd9 2.525344 1_555
N2 Nd2 2.696265 1_556
N3 Si21 1.724198 1_555
N3 Si7 1.777086 1_555
N3 Nd9 2.516991 1_555
N3 Nd3 2.636028 1_665
N4 Si18 1.724198 1_555
N4 Si0 1.777086 1_555
N4 Nd6 2.516991 1_555
N4 Nd0 2.636028 1_545
N5 Si19 1.726415 1_555
N5 Si1 1.777679 1_555
N5 Nd6 2.525344 1_555
N5 Nd1 2.696265 1_555
N6 Si18 1.724198 1_555
N6 Si2 1.777086 1_555
N6 Nd7 2.516991 1_555
N6 Nd2 2.636028 1_445
N7 Si19 1.726415 1_555
N7 Si3 1.777679 1_555
N7 Nd7 2.525344 1_555
N7 Nd3 2.696265 1_555
N8 Si10 1.707278 1_555
N8 Si0 1.730151 1_555
N8 Nd6 2.798682 1_555
N9 Si11 1.706347 1_555
N9 Si1 1.731325 1_555
N9 Nd6 2.789019 1_555
N10 Si10 1.707278 1_555
N10 Si2 1.730151 1_655
N10 Nd7 2.798682 1_655
N11 Si11 1.706347 1_555
N11 Si3 1.731325 1_655
N11 Nd7 2.789019 1_655
N12 Si12 1.706347 1_555
N12 Si4 1.731325 1_555
N12 Nd8 2.789019 1_555
N13 Si13 1.707278 1_555
N13 Si5 1.730151 1_555
N13 Nd8 2.798682 1_555
N14 Si12 1.706347 1_555
N14 Si6 1.731325 1_455
N14 Nd9 2.789019 1_455
N15 Si13 1.707278 1_555
N15 Si7 1.730151 1_455
N15 Nd9 2.798682 1_455
N16 Si16 1.709985 1_555
N16 Si0 1.731703 1_556
N16 Nd0 2.647405 1_546
N17 Si17 1.702741 1_555
N17 Si1 1.728867 1_555
N17 Nd1 2.624143 1_555
N18 Si16 1.709985 1_555
N18 Si2 1.731703 1_656
N18 Nd2 2.647405 1_546
N19 Si17 1.702741 1_555
N19 Si3 1.728867 1_655
N19 Nd3 2.624143 1_655
N20 Si14 1.702741 1_555
N20 Si4 1.728867 1_554
N20 Nd0 2.624143 1_555
N21 Si15 1.709985 1_555
N21 Si5 1.731703 1_555
N21 Nd1 2.647405 1_565
N22 Si14 1.702741 1_555
N22 Si6 1.728867 1_454
N22 Nd2 2.624143 1_455
N23 Si15 1.709985 1_555
N23 Si7 1.731703 1_455
N23 Nd3 2.647405 1_565
N24 Si2 1.732537 1_555
N24 Si0 1.732537 1_555
N25 Si3 1.731003 1_555
N25 Si1 1.731003 1_555
N26 Si4 1.731003 1_555
N26 Si6 1.731003 1_555
N27 Si7 1.732537 1_555
N27 Si5 1.732537 1_555
N28 Si21 1.754764 1_555
N28 Si20 1.756349 1_555
N28 Nd5 2.507233 1_565
N28 Nd9 2.788209 1_555
N28 Nd8 2.788209 1_555
N29 Si18 1.754764 1_555
N29 Si19 1.756349 1_555
N29 Nd4 2.507233 1_545
N29 Nd6 2.788209 1_555
N29 Nd7 2.788209 1_555
N30 Si14 1.716033 1_555
N30 Si18 1.719539 1_565
N30 Nd0 2.736128 1_555
N30 Nd2 2.736128 1_455
N30 Nd4 2.739097 1_555
N31 Si15 1.710578 1_555
N31 Si19 1.717286 1_565
N31 Nd4 2.727216 1_555
N31 Nd1 2.745353 1_565
N31 Nd3 2.745353 1_565
N32 Si16 1.710578 1_555
N32 Si20 1.717286 1_545
N32 Nd5 2.727216 1_555
N32 Nd2 2.745353 1_546
N32 Nd0 2.745353 1_546
N33 Si17 1.716033 1_555
N33 Si21 1.719539 1_545
N33 Nd3 2.736128 1_655
N33 Nd1 2.736128 1_555
N33 Nd5 2.739097 1_555
N34 Si10 1.706104 1_555
N34 Si8 1.727998 1_555
N35 Si11 1.708215 1_555
N35 Si8 1.729538 1_555
N36 Si12 1.708215 1_555
N36 Si9 1.729538 1_555
N37 Si13 1.706104 1_555
N37 Si9 1.727998 1_555
O0 Si8 1.708868 1_555
O1 Si8 1.708868 1_555
O2 Si9 1.708868 1_555
O3 Si9 1.708868 1_555
O4 Si16 1.700397 1_555
O5 Si17 1.701109 1_555
O6 Si14 1.701109 1_555
O7 Si15 1.700397 1_555
O8 Si13 1.735489 1_555
O8 Si12 1.736873 1_555
O9 Si10 1.735489 1_555
O9 Si11 1.736873 1_555
F0 Li25 2.088669 1_545
F0 Li27 2.088669 1_545
F0 Li26 2.100987 1_545
F0 Li24 2.100987 1_545
F0 Nd7 2.687279 1_655
F0 Nd6 2.687279 1_555
F1 Li22 2.088669 1_565
F1 Li20 2.088669 1_565
F1 Li23 2.100987 1_565
F1 Li21 2.100987 1_565
F1 Nd9 2.687279 1_455
F1 Nd8 2.687279 1_555
F2 Li25 1.993009 1_555
F2 Li27 1.993009 1_555
F2 Li17 2.021555 1_555
F2 Nd3 2.602458 1_665
F2 Nd1 2.602458 1_565
F3 Li22 1.993009 1_555
F3 Li20 1.993009 1_555
F3 Li18 2.021555 1_555
F3 Nd2 2.602458 1_446
F3 Nd0 2.602458 1_546
