# generated using pymatgen
data_DyAlGe
_symmetry_space_group_name_H-M   'P 1'
_cell_length_a   5.59096535
_cell_length_b   5.59096535
_cell_length_c   5.73572886
_cell_angle_alpha   90.00000000
_cell_angle_beta   90.00000000
_cell_angle_gamma   137.83598882
_symmetry_Int_Tables_number   1
_chemical_formula_structural   DyAlGe
_chemical_formula_sum   'Dy2 Al2 Ge2'
_cell_volume   120.35103758
_cell_formula_units_Z   2
loop_
 _symmetry_equiv_pos_site_id
 _symmetry_equiv_pos_as_xyz
  1  'x, y, z'
loop_
 _atom_site_type_symbol
 _atom_site_label
 _atom_site_symmetry_multiplicity
 _atom_site_fract_x
 _atom_site_fract_y
 _atom_site_fract_z
 _atom_site_occupancy
  Dy  Dy0  1  0.68954635  0.31045365  0.25000000  1
  Dy  Dy1  1  0.31045365  0.68954635  0.75000000  1
  Al  Al0  1  0.00000000  -0.00000000  0.50000000  1
  Al  Al1  1  0.00000000  -0.00000000  -0.00000000  1
  Ge  Ge0  1  0.39449848  0.60550152  0.25000000  1
  Ge  Ge1  1  0.60550152  0.39449848  0.75000000  1
loop_
_geom_bond_atom_site_label_1
_geom_bond_atom_site_label_2
_geom_bond_distance
_geom_bond_site_symmetry_2
Dy0 Ge0 2.935489 1_655
Dy0 Ge0 2.935489 1_545
Dy0 Ge1 2.998927 1_555
Dy0 Ge1 2.998927 1_554
Dy0 Ge0 3.078378 1_555
Dy1 Ge1 2.935489 1_455
Dy1 Ge1 2.935489 1_565
Dy1 Ge0 2.998927 1_556
Dy1 Ge0 2.998927 1_555
Dy1 Ge1 3.078378 1_555
Al0 Ge0 2.704126 1_445
Al0 Ge1 2.704126 1_555
Al0 Ge0 2.704126 1_555
Al0 Ge1 2.704126 1_445
Al0 Dy1 3.164122 1_555
Al0 Dy0 3.164122 1_445
Al0 Dy0 3.164122 1_555
Al0 Dy1 3.164122 1_445
Al1 Ge0 2.704126 1_445
Al1 Ge1 2.704126 1_554
Al1 Ge0 2.704126 1_555
Al1 Ge1 2.704126 1_444
Al1 Dy1 3.164122 1_444
Al1 Dy1 3.164122 1_554
Al1 Dy0 3.164122 1_445
Al1 Dy0 3.164122 1_555
