# generated using pymatgen
data_Bi2WO6
_symmetry_space_group_name_H-M   'P 1'
_cell_length_a   15.67026700
_cell_length_b   10.46479400
_cell_length_c   3.69015400
_cell_angle_alpha   90.00000000
_cell_angle_beta   90.00000000
_cell_angle_gamma   90.00000000
_symmetry_Int_Tables_number   1
_chemical_formula_structural   Bi2WO6
_chemical_formula_sum   'Bi8 W4 O24'
_cell_volume   605.13402220
_cell_formula_units_Z   4
loop_
 _symmetry_equiv_pos_site_id
 _symmetry_equiv_pos_as_xyz
  1  'x, y, z'
loop_
 _atom_site_type_symbol
 _atom_site_label
 _atom_site_symmetry_multiplicity
 _atom_site_fract_x
 _atom_site_fract_y
 _atom_site_fract_z
 _atom_site_occupancy
  Bi  Bi0  1  0.89606700  0.36620500  0.01051200  1
  Bi  Bi1  1  0.10393300  0.86620500  0.98948800  1
  Bi  Bi2  1  0.60393300  0.86620500  0.01051200  1
  Bi  Bi3  1  0.17611400  0.46103400  0.97665900  1
  Bi  Bi4  1  0.39606700  0.36620500  0.98948800  1
  Bi  Bi5  1  0.67611400  0.46103400  0.02334100  1
  Bi  Bi6  1  0.32388600  0.96103400  0.97665900  1
  Bi  Bi7  1  0.82388600  0.96103400  0.02334100  1
  W  W0  1  0.94530900  0.67471400  0.51642900  1
  W  W1  1  0.44530900  0.67471400  0.48357100  1
  W  W2  1  0.55469100  0.17471400  0.51642900  1
  W  W3  1  0.05469100  0.17471400  0.48357100  1
  O  O0  1  0.60694300  0.34257100  0.52959800  1
  O  O1  1  0.53137100  0.10736300  0.01497000  1
  O  O2  1  0.76681000  0.31855700  0.03377000  1
  O  O3  1  0.10694300  0.34257100  0.47040200  1
  O  O4  1  0.23318900  0.81855700  0.96623000  1
  O  O5  1  0.24976000  0.05303200  0.47213700  1
  O  O6  1  0.39305700  0.84257100  0.47040200  1
  O  O7  1  0.75024000  0.55303200  0.52786300  1
  O  O8  1  0.57006300  0.74570200  0.50673900  1
  O  O9  1  0.65630600  0.02952200  0.53085400  1
  O  O10  1  0.07006300  0.74570200  0.49326100  1
  O  O11  1  0.46862900  0.60736300  0.98503000  1
  O  O12  1  0.15630600  0.02952200  0.46914600  1
  O  O13  1  0.25024000  0.55303200  0.47213700  1
  O  O14  1  0.89305700  0.84257100  0.52959800  1
  O  O15  1  0.34369400  0.52952200  0.46914600  1
  O  O16  1  0.03137100  0.10736300  0.98503000  1
  O  O17  1  0.26681100  0.31855700  0.96623000  1
  O  O18  1  0.84369400  0.52952200  0.53085400  1
  O  O19  1  0.96862900  0.60736300  0.01497000  1
  O  O20  1  0.74976000  0.05303200  0.52786300  1
  O  O21  1  0.92993700  0.24570200  0.50673900  1
  O  O22  1  0.73319000  0.81855700  0.03377000  1
  O  O23  1  0.42993700  0.24570200  0.49326100  1
loop_
_geom_bond_atom_site_label_1
_geom_bond_atom_site_label_2
_geom_bond_distance
_geom_bond_site_symmetry_2
Bi0 O2 2.087729 1_555
Bi0 O21 2.285835 1_555
Bi0 O21 2.308202 1_554
Bi0 O18 2.593731 1_554
Bi0 O18 2.698415 1_555
Bi0 O19 2.768049 1_555
Bi1 O4 2.087713 1_555
Bi1 O10 2.285835 1_555
Bi1 O10 2.308202 1_556
Bi1 O12 2.593731 1_566
Bi1 O12 2.698415 1_565
Bi1 O16 2.768049 1_565
Bi2 O22 2.087729 1_555
Bi2 O8 2.285835 1_555
Bi2 O8 2.308202 1_554
Bi2 O9 2.593731 1_564
Bi2 O9 2.698415 1_565
Bi2 O1 2.768049 1_565
Bi3 O17 2.060214 1_555
Bi3 O13 2.370471 1_556
Bi3 O13 2.396307 1_555
Bi3 O3 2.455885 1_556
Bi3 O3 2.490337 1_555
Bi4 O17 2.087713 1_555
Bi4 O23 2.285835 1_555
Bi4 O23 2.308202 1_556
Bi4 O15 2.593731 1_556
Bi4 O15 2.698415 1_555
Bi4 O11 2.768049 1_555
Bi5 O2 2.060203 1_555
Bi5 O7 2.370471 1_554
Bi5 O7 2.396307 1_555
Bi5 O0 2.455885 1_554
Bi5 O0 2.490337 1_555
Bi6 O4 2.060214 1_555
Bi6 O5 2.370471 1_566
Bi6 O5 2.396307 1_565
Bi6 O6 2.455885 1_556
Bi6 O6 2.490337 1_555
Bi7 O22 2.060203 1_555
Bi7 O20 2.370471 1_564
Bi7 O20 2.396307 1_565
Bi7 O14 2.455885 1_554
Bi7 O14 2.490337 1_555
O0 W2 1.938660 1_555
O1 W2 2.003690 1_554
O1 W2 2.013581 1_555
O3 W3 1.938660 1_555
O6 W1 1.938660 1_555
O8 W1 2.093064 1_555
O9 W2 2.201579 1_555
O10 W0 2.093064 1_455
O11 W1 2.003690 1_556
O11 W1 2.013581 1_555
O12 O5 1.485013 1_555
O12 W3 2.201579 1_555
O13 O15 1.485013 1_555
O14 W0 1.938660 1_555
O15 W1 2.201579 1_555
O16 W3 2.003690 1_556
O16 W3 2.013581 1_555
O18 O7 1.485013 1_555
O18 W0 2.201579 1_555
O19 W0 2.003690 1_554
O19 W0 2.013581 1_555
O20 O9 1.485013 1_555
O21 W3 2.093064 1_655
O23 W2 2.093064 1_555
