# generated using pymatgen
data_BaDy2O4
_symmetry_space_group_name_H-M   'P 1'
_cell_length_a   3.46001165
_cell_length_b   10.42739001
_cell_length_c   12.12215877
_cell_angle_alpha   90.00000000
_cell_angle_beta   90.00000000
_cell_angle_gamma   90.00000000
_symmetry_Int_Tables_number   1
_chemical_formula_structural   BaDy2O4
_chemical_formula_sum   'Ba4 Dy8 O16'
_cell_volume   437.35404390
_cell_formula_units_Z   4
loop_
 _symmetry_equiv_pos_site_id
 _symmetry_equiv_pos_as_xyz
  1  'x, y, z'
loop_
 _atom_site_type_symbol
 _atom_site_label
 _atom_site_symmetry_multiplicity
 _atom_site_fract_x
 _atom_site_fract_y
 _atom_site_fract_z
 _atom_site_occupancy
  Ba  Ba0  1  0.75000000  0.25285278  0.14921956  1
  Ba  Ba1  1  0.75000000  0.75285278  0.35078044  1
  Ba  Ba2  1  0.25000000  0.74714722  0.85078044  1
  Ba  Ba3  1  0.25000000  0.24714722  0.64921956  1
  Dy  Dy0  1  0.75000000  0.42252696  0.89077442  1
  Dy  Dy1  1  0.75000000  0.92252696  0.60922558  1
  Dy  Dy2  1  0.25000000  0.57747304  0.10922558  1
  Dy  Dy3  1  0.25000000  0.07747304  0.39077442  1
  Dy  Dy4  1  0.75000000  0.92578172  0.11086370  1
  Dy  Dy5  1  0.75000000  0.42578172  0.38913630  1
  Dy  Dy6  1  0.25000000  0.07421828  0.88913630  1
  Dy  Dy7  1  0.25000000  0.57421828  0.61086370  1
  O  O0  1  0.75000000  0.20990844  0.84114329  1
  O  O1  1  0.75000000  0.70990844  0.65885671  1
  O  O2  1  0.25000000  0.79009156  0.15885671  1
  O  O3  1  0.25000000  0.29009156  0.34114329  1
  O  O4  1  0.75000000  0.11515710  0.51750511  1
  O  O5  1  0.75000000  0.61515710  0.98249489  1
  O  O6  1  0.25000000  0.88484290  0.48249489  1
  O  O7  1  0.25000000  0.38484290  0.01750511  1
  O  O8  1  0.75000000  0.01832598  0.28260874  1
  O  O9  1  0.75000000  0.51832598  0.21739126  1
  O  O10  1  0.25000000  0.98167402  0.71739126  1
  O  O11  1  0.25000000  0.48167402  0.78260874  1
  O  O12  1  0.75000000  0.43056867  0.57410315  1
  O  O13  1  0.75000000  0.93056867  0.92589685  1
  O  O14  1  0.25000000  0.56943133  0.42589685  1
  O  O15  1  0.25000000  0.06943133  0.07410315  1
loop_
_geom_bond_atom_site_label_1
_geom_bond_atom_site_label_2
_geom_bond_distance
_geom_bond_site_symmetry_2
Ba0 O7 2.726993 1_655
Ba0 O7 2.726993 1_555
Ba0 O15 2.734982 1_655
Ba0 O15 2.734982 1_555
Ba0 O9 2.888911 1_555
Ba0 O3 2.925139 1_555
Ba0 O3 2.925139 1_655
Ba0 O8 2.931733 1_555
Ba1 O6 2.726993 1_555
Ba1 O6 2.726993 1_655
Ba1 O14 2.734982 1_655
Ba1 O14 2.734982 1_555
Ba1 O8 2.888911 1_565
Ba1 O2 2.925139 1_555
Ba1 O2 2.925139 1_655
Ba1 O9 2.931733 1_555
Ba2 O5 2.726993 1_455
Ba2 O5 2.726993 1_555
Ba2 O13 2.734982 1_455
Ba2 O13 2.734982 1_555
Ba2 O11 2.888911 1_555
Ba2 O1 2.925139 1_555
Ba2 O1 2.925139 1_455
Ba2 O10 2.931733 1_555
Ba3 O4 2.726993 1_455
Ba3 O4 2.726993 1_555
Ba3 O12 2.734982 1_555
Ba3 O12 2.734982 1_455
Ba3 O10 2.888911 1_545
Ba3 O0 2.925139 1_455
Ba3 O0 2.925139 1_555
Ba3 O11 2.931733 1_555
Dy0 O11 2.256668 1_655
Dy0 O11 2.256668 1_555
Dy0 O5 2.295823 1_555
Dy0 O0 2.297239 1_555
Dy0 O7 2.346783 1_556
Dy0 O7 2.346783 1_656
Dy1 O10 2.256668 1_655
Dy1 O10 2.256668 1_555
Dy1 O4 2.295823 1_565
Dy1 O1 2.297239 1_555
Dy1 O6 2.346783 1_555
Dy1 O6 2.346783 1_655
Dy2 O9 2.256668 1_455
Dy2 O9 2.256668 1_555
Dy2 O7 2.295823 1_555
Dy2 O2 2.297239 1_555
Dy2 O5 2.346783 1_454
Dy2 O5 2.346783 1_554
Dy3 O8 2.256668 1_555
Dy3 O8 2.256668 1_455
Dy3 O6 2.295823 1_545
Dy3 O3 2.297239 1_555
Dy3 O4 2.346783 1_455
Dy3 O4 2.346783 1_555
Dy4 O13 2.242753 1_554
Dy4 O8 2.294692 1_565
Dy4 O2 2.309397 1_555
Dy4 O2 2.309397 1_655
Dy4 O15 2.331345 1_565
Dy4 O15 2.331345 1_665
Dy5 O12 2.242753 1_555
Dy5 O9 2.294692 1_555
Dy5 O3 2.309397 1_555
Dy5 O3 2.309397 1_655
Dy5 O14 2.331345 1_655
Dy5 O14 2.331345 1_555
Dy6 O15 2.242753 1_556
Dy6 O10 2.294692 1_545
Dy6 O0 2.309397 1_455
Dy6 O0 2.309397 1_555
Dy6 O13 2.331345 1_545
Dy6 O13 2.331345 1_445
Dy7 O14 2.242753 1_555
Dy7 O11 2.294692 1_555
Dy7 O1 2.309397 1_455
Dy7 O1 2.309397 1_555
Dy7 O12 2.331345 1_555
Dy7 O12 2.331345 1_455
