# generated using pymatgen
data_ScRe2
_symmetry_space_group_name_H-M   'P 1'
_cell_length_a   5.28014091
_cell_length_b   5.28014046
_cell_length_c   8.57513327
_cell_angle_alpha   90.00000000
_cell_angle_beta   90.00000000
_cell_angle_gamma   119.99999647
_symmetry_Int_Tables_number   1
_chemical_formula_structural   ScRe2
_chemical_formula_sum   'Sc4 Re8'
_cell_volume   207.04393543
_cell_formula_units_Z   4
loop_
 _symmetry_equiv_pos_site_id
 _symmetry_equiv_pos_as_xyz
  1  'x, y, z'
loop_
 _atom_site_type_symbol
 _atom_site_label
 _atom_site_symmetry_multiplicity
 _atom_site_fract_x
 _atom_site_fract_y
 _atom_site_fract_z
 _atom_site_occupancy
  Sc  Sc0  1  0.33333300  0.66666700  0.43746488  1
  Sc  Sc1  1  0.66666700  0.33333300  0.93746488  1
  Sc  Sc2  1  0.66666700  0.33333300  0.56253512  1
  Sc  Sc3  1  0.33333300  0.66666700  0.06253512  1
  Re  Re0  1  0.65660721  0.82830311  0.75000000  1
  Re  Re1  1  0.34339279  0.17169689  0.25000000  1
  Re  Re2  1  0.82830311  0.17169689  0.25000000  1
  Re  Re3  1  0.17169689  0.34339279  0.75000000  1
  Re  Re4  1  0.17169689  0.82830311  0.75000000  1
  Re  Re5  1  0.82830311  0.65660721  0.25000000  1
  Re  Re6  1  -0.00000000  -0.00000000  0.50000000  1
  Re  Re7  1  -0.00000000  -0.00000000  -0.00000000  1
loop_
_geom_bond_atom_site_label_1
_geom_bond_atom_site_label_2
_geom_bond_distance
_geom_bond_site_symmetry_2
Sc0 Sc3 3.215073 1_555
Sc0 Sc2 3.231644 1_565
Sc0 Sc2 3.231644 1_455
Sc0 Sc2 3.231652 1_555
Sc1 Sc2 3.215073 1_555
Sc1 Sc3 3.231644 1_546
Sc1 Sc3 3.231644 1_656
Sc1 Sc3 3.231652 1_556
Re0 Re4 2.560395 1_555
Re0 Re3 2.560395 1_555
Re0 Re6 2.657344 1_665
Re0 Re7 2.657344 1_666
Re0 Re4 2.719746 1_655
Re0 Re3 2.719746 1_665
Re0 Sc0 3.060683 1_555
Re0 Sc3 3.060683 1_556
Re0 Sc2 3.091320 1_565
Re0 Sc1 3.091320 1_565
Re0 Sc2 3.091320 1_555
Re0 Sc1 3.091320 1_555
Re1 Re2 2.560395 1_555
Re1 Re5 2.560395 1_555
Re1 Re7 2.657344 1_555
Re1 Re6 2.657344 1_555
Re1 Re2 2.719746 1_455
Re1 Re5 2.719746 1_445
Re1 Sc1 3.060683 1_554
Re1 Sc2 3.060683 1_555
Re1 Sc3 3.091320 1_545
Re1 Sc0 3.091320 1_545
Re1 Sc0 3.091320 1_555
Re1 Sc3 3.091320 1_555
Re2 Re5 2.560395 1_555
Re2 Re7 2.657346 1_655
Re2 Re6 2.657346 1_655
Re2 Re5 2.719746 1_545
Re2 Sc1 3.060678 1_554
Re2 Sc2 3.060678 1_555
Re2 Sc3 3.091320 1_545
Re2 Sc0 3.091320 1_545
Re2 Sc3 3.091320 1_655
Re2 Sc0 3.091320 1_655
Re3 Re4 2.560395 1_555
Re3 Re6 2.657344 1_555
Re3 Re7 2.657344 1_556
Re3 Re4 2.719746 1_545
Re3 Sc0 3.060683 1_555
Re3 Sc3 3.060683 1_556
Re3 Sc2 3.091320 1_455
Re3 Sc1 3.091320 1_455
Re3 Sc2 3.091320 1_555
Re3 Sc1 3.091320 1_555
Re4 Re6 2.657346 1_565
Re4 Re7 2.657346 1_566
Re4 Sc3 3.060678 1_556
Re4 Sc0 3.060678 1_555
Re4 Sc2 3.091320 1_565
Re4 Sc1 3.091320 1_565
Re4 Sc1 3.091320 1_455
Re4 Sc2 3.091320 1_455
Re5 Re7 2.657344 1_665
Re5 Re6 2.657344 1_665
Re5 Sc1 3.060683 1_554
Re5 Sc2 3.060683 1_555
Re5 Sc3 3.091320 1_655
Re5 Sc0 3.091320 1_655
Re5 Sc3 3.091320 1_555
Re5 Sc0 3.091320 1_555
Re6 Sc2 3.095293 1_455
Re6 Sc0 3.095293 1_545
Re6 Sc0 3.095297 1_555
Re6 Sc2 3.095297 1_445
Re6 Sc2 3.095298 1_555
Re6 Sc0 3.095298 1_445
Re7 Sc3 3.095293 1_545
Re7 Sc1 3.095293 1_454
Re7 Sc3 3.095297 1_555
Re7 Sc1 3.095297 1_444
Re7 Sc1 3.095298 1_554
Re7 Sc3 3.095298 1_445
