# generated using pymatgen
data_Li9Mn2Co5O16
_symmetry_space_group_name_H-M   'P 1'
_cell_length_a   3.00467000
_cell_length_b   9.79967457
_cell_length_c   10.09689349
_cell_angle_alpha   77.39281581
_cell_angle_beta   88.67094745
_cell_angle_gamma   87.12184385
_symmetry_Int_Tables_number   1
_chemical_formula_structural   Li9Mn2Co5O16
_chemical_formula_sum   'Li9 Mn2 Co5 O16'
_cell_volume   289.74397611
_cell_formula_units_Z   1
loop_
 _symmetry_equiv_pos_site_id
 _symmetry_equiv_pos_as_xyz
  1  'x, y, z'
loop_
 _atom_site_type_symbol
 _atom_site_label
 _atom_site_symmetry_multiplicity
 _atom_site_fract_x
 _atom_site_fract_y
 _atom_site_fract_z
 _atom_site_occupancy
  Li  Li0  1  0.99830400  0.74907500  0.62690100  1
  Li  Li1  1  0.49962700  0.49831800  0.24415000  1
  Li  Li2  1  0.00340200  0.24908100  0.87848400  1
  Li  Li3  1  0.50000000  0.00000000  0.50000000  1
  Li  Li4  1  0.50037300  0.50168200  0.75585000  1
  Li  Li5  1  0.00169600  0.25092500  0.37309900  1
  Li  Li6  1  0.50000000  0.00000000  0.00000000  1
  Li  Li7  1  0.99659800  0.75091900  0.12151600  1
  Li  Li8  1  0.00000000  0.50000000  0.00000000  1
  Mn  Mn0  1  0.00442900  0.99700300  0.75145200  1
  Mn  Mn1  1  0.99557100  0.00299700  0.24854800  1
  Co  Co0  1  0.49706900  0.74851700  0.37374900  1
  Co  Co1  1  0.50293100  0.25148300  0.62625100  1
  Co  Co2  1  0.49263000  0.73796200  0.88029300  1
  Co  Co3  1  0.00000000  0.50000000  0.50000000  1
  Co  Co4  1  0.50737000  0.26203800  0.11970700  1
  O  O0  1  0.47424400  0.86721600  0.70332200  1
  O  O1  1  0.00584100  0.62610300  0.31976600  1
  O  O2  1  0.49667900  0.36075300  0.95503200  1
  O  O3  1  0.00826100  0.12465800  0.57227600  1
  O  O4  1  0.97025300  0.63383700  0.81770500  1
  O  O5  1  0.50520800  0.37735600  0.44781500  1
  O  O6  1  0.97690000  0.12779000  0.07187700  1
  O  O7  1  0.46392900  0.87478900  0.19621000  1
  O  O8  1  0.49479200  0.62264400  0.55218500  1
  O  O9  1  0.02974700  0.36616300  0.18229500  1
  O  O10  1  0.53607100  0.12521100  0.80379000  1
  O  O11  1  0.99173900  0.87534200  0.42772400  1
  O  O12  1  0.99415900  0.37389700  0.68023400  1
  O  O13  1  0.52575600  0.13278400  0.29667800  1
  O  O14  1  0.02310000  0.87221000  0.92812300  1
  O  O15  1  0.50332100  0.63924700  0.04496800  1
loop_
_geom_bond_atom_site_label_1
_geom_bond_atom_site_label_2
_geom_bond_distance
_geom_bond_site_symmetry_2
Li0 O4 2.011522 1_555
Li0 O11 2.118724 1_555
Li0 O8 2.121276 1_655
Li0 O0 2.136759 1_555
Li0 O0 2.142008 1_655
Li0 O8 2.245491 1_555
Li1 O1 2.128505 1_555
Li1 O5 2.137674 1_555
Li1 O9 2.153638 1_555
Li1 O9 2.168911 1_655
Li1 O15 2.177176 1_555
Li1 O1 2.264290 1_655
Li2 O6 2.054549 1_456
Li2 O2 2.064073 1_455
Li2 O12 2.105727 1_455
Li2 O2 2.139380 1_555
Li2 O10 2.152661 1_455
Li2 O10 2.180005 1_555
Li3 O3 2.089452 1_555
Li3 O11 2.089452 1_545
Li3 O0 2.179522 1_545
Li3 O13 2.179522 1_555
Li3 O11 2.232778 1_445
Li3 O3 2.232778 1_655
Li4 O12 2.128505 1_555
Li4 O8 2.137674 1_555
Li4 O4 2.153638 1_555
Li4 O4 2.168911 1_455
Li4 O2 2.177176 1_555
Li4 O12 2.264290 1_455
Li5 O9 2.011522 1_555
Li5 O3 2.118724 1_555
Li5 O5 2.121276 1_455
Li5 O13 2.136759 1_555
Li5 O13 2.142008 1_455
Li5 O5 2.245491 1_555
Li6 O7 2.093892 1_545
Li6 O10 2.093892 1_554
Li6 O14 2.170594 1_644
Li6 O6 2.170594 1_455
Li6 O14 2.184814 1_544
Li6 O6 2.184814 1_555
Li7 O14 2.054549 1_654
Li7 O15 2.064073 1_655
Li7 O1 2.105727 1_655
Li7 O15 2.139380 1_555
Li7 O7 2.152661 1_655
Li7 O7 2.180005 1_555
Li8 O4 2.014466 1_454
Li8 O9 2.014466 1_555
Li8 O15 2.080833 1_455
Li8 O2 2.080833 1_554
Li8 O2 2.205643 1_454
Li8 O15 2.205643 1_555
Mn0 O14 1.930339 1_555
Mn0 O3 1.962277 1_565
Mn0 O0 1.975911 1_555
Mn0 O10 1.978877 1_465
Mn0 O0 2.213766 1_455
Mn0 O10 2.222622 1_565
Mn1 O6 1.930339 1_555
Mn1 O11 1.962277 1_545
Mn1 O13 1.975911 1_555
Mn1 O7 1.978877 1_645
Mn1 O13 2.213766 1_655
Mn1 O7 2.222622 1_545
Co0 O7 1.944766 1_555
Co0 O8 1.948766 1_555
Co0 O1 2.033639 1_655
Co0 O11 2.053005 1_455
Co0 O1 2.101249 1_555
Co0 O11 2.137655 1_555
Co1 O10 1.944766 1_555
Co1 O5 1.948766 1_555
Co1 O12 2.033639 1_455
Co1 O3 2.053005 1_655
Co1 O12 2.101249 1_555
Co1 O3 2.137655 1_555
Co2 O15 1.731661 1_556
Co2 O4 1.895369 1_555
Co2 O0 1.951883 1_555
Co2 O14 2.003411 1_555
Co2 O4 2.095815 1_455
Co2 O14 2.242343 1_655
Co3 O1 1.964209 1_555
Co3 O12 1.964209 1_455
Co3 O5 2.020525 1_555
Co3 O8 2.020525 1_455
Co3 O5 2.103469 1_455
Co3 O8 2.103469 1_555
Co4 O2 1.731661 1_554
Co4 O9 1.895369 1_555
Co4 O13 1.951883 1_555
Co4 O6 2.003411 1_555
Co4 O9 2.095815 1_655
Co4 O6 2.242343 1_455
