# generated using pymatgen
data_H12PbN3Cl5
_symmetry_space_group_name_H-M   'P 1'
_cell_length_a   8.07191952
_cell_length_b   8.63956850
_cell_length_c   15.96845954
_cell_angle_alpha   90.00000000
_cell_angle_beta   90.00000000
_cell_angle_gamma   90.00000000
_symmetry_Int_Tables_number   1
_chemical_formula_structural   H12PbN3Cl5
_chemical_formula_sum   'H48 Pb4 N12 Cl20'
_cell_volume   1113.60686042
_cell_formula_units_Z   4
loop_
 _symmetry_equiv_pos_site_id
 _symmetry_equiv_pos_as_xyz
  1  'x, y, z'
loop_
 _atom_site_type_symbol
 _atom_site_label
 _atom_site_symmetry_multiplicity
 _atom_site_fract_x
 _atom_site_fract_y
 _atom_site_fract_z
 _atom_site_occupancy
  H  H0  1  0.46494189  0.22677376  0.75000000  1
  H  H1  1  0.53505811  0.77322624  0.25000000  1
  H  H2  1  0.03505811  0.72677376  0.25000000  1
  H  H3  1  0.96494189  0.27322624  0.75000000  1
  H  H4  1  0.20661659  0.15355056  0.55713221  1
  H  H5  1  0.79338341  0.84644944  0.44286779  1
  H  H6  1  0.29338341  0.65355056  0.44286779  1
  H  H7  1  0.79338341  0.84644944  0.05713221  1
  H  H8  1  0.70661659  0.34644944  0.55713221  1
  H  H9  1  0.20661659  0.15355056  0.94286779  1
  H  H10  1  0.70661659  0.34644944  0.94286779  1
  H  H11  1  0.29338341  0.65355056  0.05713221  1
  H  H12  1  0.32691128  0.46620146  0.07844342  1
  H  H13  1  0.67308872  0.53379854  0.92155658  1
  H  H14  1  0.17308872  0.96620146  0.92155658  1
  H  H15  1  0.67308872  0.53379854  0.57844342  1
  H  H16  1  0.82691128  0.03379854  0.07844342  1
  H  H17  1  0.32691128  0.46620146  0.42155658  1
  H  H18  1  0.82691128  0.03379854  0.42155658  1
  H  H19  1  0.17308872  0.96620146  0.57844342  1
  H  H20  1  0.04143520  0.09270300  0.75000000  1
  H  H21  1  0.95856480  0.90729700  0.25000000  1
  H  H22  1  0.45856480  0.59270300  0.25000000  1
  H  H23  1  0.54143520  0.40729700  0.75000000  1
  H  H24  1  0.22607537  0.51394889  0.51050460  1
  H  H25  1  0.77392463  0.48605111  0.48949540  1
  H  H26  1  0.27392463  0.01394889  0.48949540  1
  H  H27  1  0.77392463  0.48605111  0.01050460  1
  H  H28  1  0.72607537  0.98605111  0.51050460  1
  H  H29  1  0.22607537  0.51394889  0.98949540  1
  H  H30  1  0.72607537  0.98605111  0.98949540  1
  H  H31  1  0.27392463  0.01394889  0.01050460  1
  H  H32  1  0.36544913  0.04024216  0.58306057  1
  H  H33  1  0.63455087  0.95975784  0.41693943  1
  H  H34  1  0.13455087  0.54024216  0.41693943  1
  H  H35  1  0.63455087  0.95975784  0.08306057  1
  H  H36  1  0.86544913  0.45975784  0.58306057  1
  H  H37  1  0.36544913  0.04024216  0.91693943  1
  H  H38  1  0.86544913  0.45975784  0.91693943  1
  H  H39  1  0.13455087  0.54024216  0.08306057  1
  H  H40  1  0.36384746  0.36490929  0.69768718  1
  H  H41  1  0.63615254  0.63509071  0.30231282  1
  H  H42  1  0.13615254  0.86490929  0.30231282  1
  H  H43  1  0.63615254  0.63509071  0.19768718  1
  H  H44  1  0.86384746  0.13509071  0.69768718  1
  H  H45  1  0.36384746  0.36490929  0.80231282  1
  H  H46  1  0.86384746  0.13509071  0.80231282  1
  H  H47  1  0.13615254  0.86490929  0.19768718  1
  Pb  Pb0  1  0.12791353  0.67308540  0.75000000  1
  Pb  Pb1  1  0.87208647  0.32691460  0.25000000  1
  Pb  Pb2  1  0.37208647  0.17308540  0.25000000  1
  Pb  Pb3  1  0.62791353  0.82691460  0.75000000  1
  N  N0  1  0.25448971  0.04349122  0.55138442  1
  N  N1  1  0.74551029  0.95650878  0.44861558  1
  N  N2  1  0.24551029  0.54349122  0.44861558  1
  N  N3  1  0.74551029  0.95650878  0.05138442  1
  N  N4  1  0.75448971  0.45650878  0.55138442  1
  N  N5  1  0.25448971  0.04349122  0.94861558  1
  N  N6  1  0.75448971  0.45650878  0.94861558  1
  N  N7  1  0.24551029  0.54349122  0.05138442  1
  N  N8  1  0.43464723  0.34183632  0.75000000  1
  N  N9  1  0.56535277  0.65816368  0.25000000  1
  N  N10  1  0.06535277  0.84183632  0.25000000  1
  N  N11  1  0.93464723  0.15816368  0.75000000  1
  Cl  Cl0  1  0.04425745  0.17874679  0.12343579  1
  Cl  Cl1  1  0.95574255  0.82125321  0.87656421  1
  Cl  Cl2  1  0.45574255  0.67874679  0.87656421  1
  Cl  Cl3  1  0.95574255  0.82125321  0.62343579  1
  Cl  Cl4  1  0.54425745  0.32125321  0.12343579  1
  Cl  Cl5  1  0.04425745  0.17874679  0.37656421  1
  Cl  Cl6  1  0.54425745  0.32125321  0.37656421  1
  Cl  Cl7  1  0.45574255  0.67874679  0.62343579  1
  Cl  Cl8  1  0.28964284  0.97788753  0.75000000  1
  Cl  Cl9  1  0.71035716  0.02211247  0.25000000  1
  Cl  Cl10  1  0.21035716  0.47788753  0.25000000  1
  Cl  Cl11  1  0.78964284  0.52211247  0.75000000  1
  Cl  Cl12  1  0.13311655  0.38062373  0.61895022  1
  Cl  Cl13  1  0.86688345  0.61937627  0.38104978  1
  Cl  Cl14  1  0.36688345  0.88062373  0.38104978  1
  Cl  Cl15  1  0.86688345  0.61937627  0.11895022  1
  Cl  Cl16  1  0.63311655  0.11937627  0.61895022  1
  Cl  Cl17  1  0.13311655  0.38062373  0.88104978  1
  Cl  Cl18  1  0.63311655  0.11937627  0.88104978  1
  Cl  Cl19  1  0.36688345  0.88062373  0.11895022  1
loop_
_geom_bond_atom_site_label_1
_geom_bond_atom_site_label_2
_geom_bond_distance
_geom_bond_site_symmetry_2
H0 N8 1.023726 1_555
H1 N9 1.023726 1_555
H2 N10 1.023726 1_555
H3 N11 1.023726 1_555
H4 N0 1.030483 1_555
H5 N1 1.030483 1_555
H6 N2 1.030483 1_555
H7 N3 1.030483 1_555
H8 N4 1.030483 1_555
H9 N5 1.030483 1_555
H10 N6 1.030483 1_555
H11 N7 1.030483 1_555
H12 N7 1.031660 1_555
H13 N6 1.031660 1_555
H14 N5 1.031660 1_565
H15 N4 1.031660 1_555
H16 N3 1.031660 1_545
H17 N2 1.031660 1_555
H18 N1 1.031660 1_545
H19 N0 1.031660 1_565
H20 N11 1.030954 1_455
H21 N10 1.030954 1_655
H22 N9 1.030954 1_555
H23 N8 1.030954 1_555
H24 N2 1.032684 1_555
H25 N4 1.032684 1_555
H26 N0 1.032684 1_555
H27 N6 1.032684 1_554
H28 N1 1.032684 1_555
H29 N7 1.032684 1_556
H30 N3 1.032684 1_556
H31 N5 1.032684 1_554
H32 N0 1.028999 1_555
H33 N1 1.028999 1_555
H34 N2 1.028999 1_555
H35 N3 1.028999 1_555
H36 N4 1.028999 1_555
H37 N5 1.028999 1_555
H38 N6 1.028999 1_555
H39 N7 1.028999 1_555
H40 N8 1.031579 1_555
H41 N9 1.031579 1_555
H42 N10 1.031579 1_555
H43 N9 1.031579 1_555
H44 N11 1.031579 1_555
H45 N8 1.031579 1_555
H46 N11 1.031579 1_555
H47 N10 1.031579 1_555
Cl0 Pb1 2.766706 1_455
Cl1 Pb0 2.766706 1_655
Cl2 Pb3 2.766706 1_555
Cl3 Pb0 2.766706 1_655
Cl4 Pb2 2.766706 1_555
Cl5 Pb1 2.766706 1_455
Cl6 Pb2 2.766706 1_555
Cl7 Pb3 2.766706 1_555
Cl8 Pb0 2.939187 1_555
Cl8 Pb3 3.026037 1_555
Cl9 Pb1 2.939187 1_555
Cl9 Pb2 3.026037 1_555
Cl10 Pb2 2.939187 1_555
Cl10 Pb1 3.026037 1_455
Cl11 Pb3 2.939187 1_555
Cl11 Pb0 3.026037 1_655
