# generated using pymatgen
data_YBi2C
_symmetry_space_group_name_H-M   'P 1'
_cell_length_a   11.53226900
_cell_length_b   11.53226900
_cell_length_c   5.68054400
_cell_angle_alpha   90.00000000
_cell_angle_beta   90.00000000
_cell_angle_gamma   90.00000000
_symmetry_Int_Tables_number   1
_chemical_formula_structural   YBi2C
_chemical_formula_sum   'Y8 Bi16 C8'
_cell_volume   755.47388499
_cell_formula_units_Z   8
loop_
 _symmetry_equiv_pos_site_id
 _symmetry_equiv_pos_as_xyz
  1  'x, y, z'
loop_
 _atom_site_type_symbol
 _atom_site_label
 _atom_site_symmetry_multiplicity
 _atom_site_fract_x
 _atom_site_fract_y
 _atom_site_fract_z
 _atom_site_occupancy
  Y  Y0  1  0.16436100  0.66436100  0.25000000  1
  Y  Y1  1  0.83563900  0.33563900  0.75000000  1
  Y  Y2  1  0.83563900  0.33563900  0.25000000  1
  Y  Y3  1  0.33563900  0.16436100  0.75000000  1
  Y  Y4  1  0.16436100  0.66436100  0.75000000  1
  Y  Y5  1  0.66436100  0.83563900  0.25000000  1
  Y  Y6  1  0.66436100  0.83563900  0.75000000  1
  Y  Y7  1  0.33563900  0.16436100  0.25000000  1
  Bi  Bi0  1  0.10967600  0.39079900  0.00000000  1
  Bi  Bi1  1  0.89032400  0.60920100  0.00000000  1
  Bi  Bi2  1  0.60920100  0.10967600  0.50000000  1
  Bi  Bi3  1  0.39032400  0.89079900  0.00000000  1
  Bi  Bi4  1  0.39079900  0.89032400  0.50000000  1
  Bi  Bi5  1  0.60967600  0.10920100  0.00000000  1
  Bi  Bi6  1  0.89079900  0.60967600  0.50000000  1
  Bi  Bi7  1  0.10920100  0.39032400  0.50000000  1
  Bi  Bi8  1  0.93208000  0.11998600  0.00000000  1
  Bi  Bi9  1  0.06792000  0.88001400  0.00000000  1
  Bi  Bi10  1  0.88001400  0.93208000  0.50000000  1
  Bi  Bi11  1  0.56792000  0.61998600  0.00000000  1
  Bi  Bi12  1  0.11998600  0.06792000  0.50000000  1
  Bi  Bi13  1  0.43208000  0.38001400  0.00000000  1
  Bi  Bi14  1  0.61998600  0.43208000  0.50000000  1
  Bi  Bi15  1  0.38001400  0.56792000  0.50000000  1
  C  C0  1  0.35630000  0.57864800  0.00000000  1
  C  C1  1  0.64370000  0.42135200  0.00000000  1
  C  C2  1  0.42135200  0.35630000  0.50000000  1
  C  C3  1  0.14370000  0.07864800  0.00000000  1
  C  C4  1  0.57864800  0.64370000  0.50000000  1
  C  C5  1  0.85630000  0.92135200  0.00000000  1
  C  C6  1  0.07864800  0.85630000  0.50000000  1
  C  C7  1  0.92135200  0.14370000  0.50000000  1
loop_
_geom_bond_atom_site_label_1
_geom_bond_atom_site_label_2
_geom_bond_distance
_geom_bond_site_symmetry_2
Bi0 Bi7 2.840283 1_555
Bi0 Bi7 2.840283 1_554
Bi0 Y0 3.516703 1_555
Bi0 Y4 3.516703 1_554
Bi0 Y1 3.522603 1_454
Bi0 Y2 3.522603 1_455
Bi1 Bi6 2.840283 1_555
Bi1 Bi6 2.840283 1_554
Bi1 Y2 3.516703 1_555
Bi1 Y1 3.516703 1_554
Bi1 Y0 3.522603 1_655
Bi1 Y4 3.522603 1_654
Bi2 Bi5 2.840283 1_555
Bi2 Bi5 2.840283 1_556
Bi2 Y3 3.516703 1_555
Bi2 Y7 3.516703 1_555
Bi2 Y6 3.522603 1_545
Bi2 Y5 3.522603 1_545
Bi3 Bi4 2.840283 1_555
Bi3 Bi4 2.840283 1_554
Bi3 Y7 3.516703 1_565
Bi3 Y3 3.516703 1_564
Bi3 Y6 3.522603 1_554
Bi3 Y5 3.522603 1_555
Bi4 Y5 3.516703 1_555
Bi4 Y6 3.516703 1_555
Bi4 Y7 3.522603 1_565
Bi4 Y3 3.522603 1_565
Bi5 Y5 3.516703 1_545
Bi5 Y6 3.516703 1_544
Bi5 Y7 3.522603 1_555
Bi5 Y3 3.522603 1_554
Bi6 Y0 3.516703 1_655
Bi6 Y4 3.516703 1_655
Bi6 Y1 3.522603 1_555
Bi6 Y2 3.522603 1_555
Bi7 Y1 3.516703 1_455
Bi7 Y2 3.516703 1_455
Bi7 Y0 3.522603 1_555
Bi7 Y4 3.522603 1_555
Bi8 C5 2.451742 1_545
Bi8 C3 2.486584 1_655
Bi8 C7 2.856088 1_555
Bi8 C7 2.856088 1_554
Bi8 Y2 3.072255 1_555
Bi8 Y1 3.072255 1_554
Bi9 C3 2.451742 1_565
Bi9 C5 2.486584 1_455
Bi9 C6 2.856088 1_555
Bi9 C6 2.856088 1_554
Bi9 Y0 3.072255 1_555
Bi9 Y4 3.072255 1_554
Bi10 C6 2.451742 1_655
Bi10 C7 2.486584 1_565
Bi10 C5 2.856088 1_556
Bi10 C5 2.856088 1_555
Bi10 Y5 3.072255 1_555
Bi10 Y6 3.072255 1_555
Bi11 C1 2.451742 1_555
Bi11 C0 2.486584 1_555
Bi11 C4 2.856088 1_554
Bi11 C4 2.856088 1_555
Bi11 Y6 3.072255 1_554
Bi11 Y5 3.072255 1_555
Bi12 C7 2.451742 1_455
Bi12 C6 2.486584 1_545
Bi12 C3 2.856088 1_556
Bi12 C3 2.856088 1_555
Bi12 Y7 3.072255 1_555
Bi12 Y3 3.072255 1_555
Bi13 C0 2.451742 1_555
Bi13 C1 2.486584 1_555
Bi13 C2 2.856088 1_555
Bi13 C2 2.856088 1_554
Bi13 Y7 3.072255 1_555
Bi13 Y3 3.072255 1_554
Bi14 C2 2.451742 1_555
Bi14 C4 2.486584 1_555
Bi14 C1 2.856088 1_556
Bi14 C1 2.856088 1_555
Bi14 Y1 3.072255 1_555
Bi14 Y2 3.072255 1_555
Bi15 C4 2.451742 1_555
Bi15 C2 2.486584 1_555
Bi15 C0 2.856088 1_555
Bi15 C0 2.856088 1_556
Bi15 Y0 3.072255 1_555
Bi15 Y4 3.072255 1_555
C0 Y0 2.809519 1_555
C0 Y4 2.809519 1_554
C1 Y2 2.809519 1_555
C1 Y1 2.809519 1_554
C2 Y7 2.809519 1_555
C2 Y3 2.809519 1_555
C3 Y7 2.809519 1_555
C3 Y3 2.809519 1_554
C4 Y6 2.809519 1_555
C4 Y5 2.809519 1_555
C5 Y6 2.809519 1_554
C5 Y5 2.809519 1_555
C6 Y4 2.809519 1_555
C6 Y0 2.809519 1_555
C7 Y2 2.809519 1_555
C7 Y1 2.809519 1_555
