# generated using pymatgen
data_ZnAg2GeO4
_symmetry_space_group_name_H-M   'P 1'
_cell_length_a   5.68643600
_cell_length_b   5.63768400
_cell_length_c   9.10277138
_cell_angle_alpha   52.30590918
_cell_angle_beta   90.00000000
_cell_angle_gamma   90.00000000
_symmetry_Int_Tables_number   1
_chemical_formula_structural   ZnAg2GeO4
_chemical_formula_sum   'Zn2 Ag4 Ge2 O8'
_cell_volume   230.91297184
_cell_formula_units_Z   2
loop_
 _symmetry_equiv_pos_site_id
 _symmetry_equiv_pos_as_xyz
  1  'x, y, z'
loop_
 _atom_site_type_symbol
 _atom_site_label
 _atom_site_symmetry_multiplicity
 _atom_site_fract_x
 _atom_site_fract_y
 _atom_site_fract_z
 _atom_site_occupancy
  Zn  Zn0  1  0.81115100  0.99830200  0.50114800  1
  Zn  Zn1  1  0.18884900  0.99830200  0.00114800  1
  Ag  Ag0  1  0.19494100  0.51013200  0.49607300  1
  Ag  Ag1  1  0.80505900  0.51013200  0.99607300  1
  Ag  Ag2  1  0.30492800  0.73880500  0.75681200  1
  Ag  Ag3  1  0.69507200  0.73880500  0.25681200  1
  Ge  Ge0  1  0.68663400  0.25048600  0.75049700  1
  Ge  Ge1  1  0.31336600  0.25048600  0.25049700  1
  O  O0  1  0.29327300  0.59622400  0.21673400  1
  O  O1  1  0.70672700  0.59622400  0.71673400  1
  O  O2  1  0.79712000  0.29565000  0.55142100  1
  O  O3  1  0.20288000  0.29565000  0.05142100  1
  O  O4  1  0.61421800  0.13713100  0.28203600  1
  O  O5  1  0.14883800  0.97127100  0.45327800  1
  O  O6  1  0.38578200  0.13713100  0.78203600  1
  O  O7  1  0.85116200  0.97127100  0.95327800  1
loop_
_geom_bond_atom_site_label_1
_geom_bond_atom_site_label_2
_geom_bond_distance
_geom_bond_site_symmetry_2
Ag0 O0 2.346193 1_555
Ag0 O6 2.383622 1_555
Ag0 O5 2.395984 1_555
Ag0 O2 2.467475 1_455
Ag1 O1 2.346193 1_555
Ag1 O4 2.383622 1_556
Ag1 O7 2.395984 1_555
Ag1 O3 2.467475 1_656
Ag2 O3 2.361570 1_556
Ag2 O5 2.389848 1_555
Ag2 O6 2.436706 1_565
Ag2 O1 2.521543 1_555
Ag3 O2 2.361570 1_555
Ag3 O7 2.389848 1_554
Ag3 O4 2.436706 1_565
Ag3 O0 2.521543 1_555
Ge0 O1 1.781620 1_555
Ge0 O2 1.783022 1_555
Ge0 O6 1.786955 1_555
Ge0 O7 1.790850 1_545
Ge1 O0 1.781620 1_555
Ge1 O3 1.783022 1_555
Ge1 O4 1.786955 1_555
Ge1 O5 1.790850 1_545
O0 Zn1 1.975383 1_555
O1 Zn0 1.975383 1_555
O2 Zn0 1.990999 1_545
O3 Zn1 1.990999 1_545
O4 Zn0 1.983875 1_545
O5 Zn0 1.995398 1_455
O6 Zn1 1.983875 1_546
O7 Zn1 1.995398 1_656
