# generated using pymatgen
data_Mg14ZrCo
_symmetry_space_group_name_H-M   'P 1'
_cell_length_a   6.30269528
_cell_length_b   6.30269478
_cell_length_c   10.02787052
_cell_angle_alpha   90.00000000
_cell_angle_beta   90.00000000
_cell_angle_gamma   120.00000261
_symmetry_Int_Tables_number   1
_chemical_formula_structural   Mg14ZrCo
_chemical_formula_sum   'Mg14 Zr1 Co1'
_cell_volume   344.97841681
_cell_formula_units_Z   1
loop_
 _symmetry_equiv_pos_site_id
 _symmetry_equiv_pos_as_xyz
  1  'x, y, z'
loop_
 _atom_site_type_symbol
 _atom_site_label
 _atom_site_symmetry_multiplicity
 _atom_site_fract_x
 _atom_site_fract_y
 _atom_site_fract_z
 _atom_site_occupancy
  Mg  Mg0  1  0.17708474  0.83854187  0.12500000  1
  Mg  Mg1  1  0.16190852  0.83095376  0.62500000  1
  Mg  Mg2  1  0.66145813  0.32291526  0.12500000  1
  Mg  Mg3  1  0.66904624  0.33809148  0.62500000  1
  Mg  Mg4  1  0.66145813  0.83854187  0.12500000  1
  Mg  Mg5  1  0.66904624  0.83095376  0.62500000  1
  Mg  Mg6  1  0.32458920  0.17541080  0.38851141  1
  Mg  Mg7  1  0.32458920  0.17541080  0.86148859  1
  Mg  Mg8  1  0.32458920  0.64917940  0.38851141  1
  Mg  Mg9  1  0.32458920  0.64917940  0.86148859  1
  Mg  Mg10  1  0.85082060  0.17541080  0.38851141  1
  Mg  Mg11  1  0.85082060  0.17541080  0.86148859  1
  Mg  Mg12  1  0.83333300  0.66666700  0.36555858  1
  Mg  Mg13  1  0.83333300  0.66666700  0.88444142  1
  Zr  Zr0  1  0.16666700  0.33333300  0.12500000  1
  Co  Co0  1  0.16666700  0.33333300  0.62500000  1
loop_
_geom_bond_atom_site_label_1
_geom_bond_atom_site_label_2
_geom_bond_distance
_geom_bond_site_symmetry_2
Mg0 Mg2 3.052858 1_565
Mg0 Mg4 3.052858 1_555
Mg0 Mg13 3.056082 1_454
Mg0 Mg12 3.056082 1_455
Mg0 Zr0 3.151860 1_555
Mg0 Zr0 3.151860 1_565
Mg0 Mg8 3.221936 1_555
Mg0 Mg9 3.221936 1_554
Mg0 Mg7 3.221943 1_564
Mg0 Mg6 3.221943 1_565
Mg0 Mg2 3.249837 1_455
Mg0 Mg4 3.249837 1_455
Mg1 Mg9 3.026952 1_555
Mg1 Mg8 3.026952 1_555
Mg1 Mg7 3.026959 1_565
Mg1 Mg6 3.026959 1_565
Mg1 Mg3 3.106361 1_455
Mg1 Mg5 3.106361 1_455
Mg1 Mg12 3.159915 1_455
Mg1 Mg13 3.159915 1_455
Mg1 Mg3 3.196334 1_565
Mg1 Mg5 3.196335 1_555
Mg2 Mg4 3.052858 1_545
Mg2 Zr0 3.151861 1_655
Mg2 Zr0 3.151861 1_555
Mg2 Mg7 3.221943 1_554
Mg2 Mg6 3.221943 1_555
Mg2 Mg4 3.249837 1_555
Mg3 Mg7 3.026959 1_555
Mg3 Mg6 3.026959 1_555
Mg3 Mg5 3.106361 1_555
Mg3 Mg5 3.196334 1_545
Mg4 Zr0 3.151860 1_555
Mg4 Zr0 3.151860 1_665
Mg4 Mg8 3.221942 1_555
Mg4 Mg9 3.221942 1_554
Mg5 Mg8 3.026959 1_555
Mg5 Mg9 3.026959 1_555
Mg6 Zr0 3.155101 1_555
Mg7 Zr0 3.155101 1_556
Mg8 Zr0 3.155107 1_555
Mg9 Zr0 3.155107 1_556
Mg10 Mg3 3.026952 1_555
Mg10 Mg5 3.026959 1_545
Mg10 Zr0 3.155107 1_655
Mg10 Mg12 3.161183 1_545
Mg10 Mg12 3.161183 1_555
Mg10 Mg2 3.221936 1_555
Mg10 Mg4 3.221942 1_545
Mg11 Mg3 3.026952 1_555
Mg11 Mg5 3.026959 1_545
Mg11 Zr0 3.155107 1_656
Mg11 Mg13 3.161183 1_545
Mg11 Mg13 3.161183 1_555
Mg11 Mg2 3.221936 1_556
Mg11 Mg4 3.221942 1_546
Mg12 Mg4 3.056076 1_555
Mg12 Mg2 3.056082 1_555
Mg12 Mg5 3.159909 1_555
Mg12 Mg3 3.159915 1_555
Mg12 Mg6 3.161183 1_665
Mg12 Mg6 3.161183 1_555
Mg12 Mg8 3.161183 1_555
Mg12 Mg8 3.161183 1_655
Mg13 Mg4 3.056076 1_556
Mg13 Mg2 3.056082 1_556
Mg13 Mg5 3.159909 1_555
Mg13 Mg3 3.159915 1_555
Mg13 Mg7 3.161183 1_665
Mg13 Mg7 3.161183 1_555
Mg13 Mg9 3.161183 1_555
Mg13 Mg9 3.161183 1_655
Co0 Mg7 2.931890 1_555
Co0 Mg6 2.931890 1_555
Co0 Mg8 2.931897 1_555
Co0 Mg9 2.931897 1_555
Co0 Mg11 2.931897 1_455
Co0 Mg10 2.931897 1_455
Co0 Mg5 3.151454 1_445
Co0 Mg1 3.151454 1_545
Co0 Mg1 3.151454 1_555
Co0 Mg5 3.151454 1_555
Co0 Mg3 3.151455 1_555
Co0 Mg3 3.151455 1_455
