# generated using pymatgen
data_K2YbF5
_symmetry_space_group_name_H-M   'P 1'
_cell_length_a   6.50133023
_cell_length_b   7.09289920
_cell_length_c   10.67067065
_cell_angle_alpha   90.00000000
_cell_angle_beta   90.00000000
_cell_angle_gamma   90.00000000
_symmetry_Int_Tables_number   1
_chemical_formula_structural   K2YbF5
_chemical_formula_sum   'K8 Yb4 F20'
_cell_volume   492.05962349
_cell_formula_units_Z   4
loop_
 _symmetry_equiv_pos_site_id
 _symmetry_equiv_pos_as_xyz
  1  'x, y, z'
loop_
 _atom_site_type_symbol
 _atom_site_label
 _atom_site_symmetry_multiplicity
 _atom_site_fract_x
 _atom_site_fract_y
 _atom_site_fract_z
 _atom_site_occupancy
  K  K0  1  0.53884966  0.49635729  0.82954819  1
  K  K1  1  0.46115034  0.50364271  0.17045181  1
  K  K2  1  0.03884966  0.50364271  0.67045181  1
  K  K3  1  0.46115034  0.99635729  0.17045181  1
  K  K4  1  0.96115034  0.49635729  0.32954819  1
  K  K5  1  0.53884966  0.00364271  0.82954819  1
  K  K6  1  0.96115034  0.00364271  0.32954819  1
  K  K7  1  0.03884966  0.99635729  0.67045181  1
  Yb  Yb0  1  0.56400384  0.75000000  0.50287588  1
  Yb  Yb1  1  0.43599616  0.25000000  0.49712412  1
  Yb  Yb2  1  0.06400384  0.25000000  0.99712412  1
  Yb  Yb3  1  0.93599616  0.75000000  0.00287688  1
  F  F0  1  0.84398218  0.75000000  0.81016690  1
  F  F1  1  0.15601782  0.25000000  0.18983310  1
  F  F2  1  0.34398218  0.25000000  0.68983310  1
  F  F3  1  0.65601782  0.75000000  0.31016690  1
  F  F4  1  0.37719100  0.75000000  0.66698721  1
  F  F5  1  0.62280900  0.25000000  0.33301279  1
  F  F6  1  0.87719100  0.25000000  0.83301279  1
  F  F7  1  0.12280900  0.75000000  0.16698721  1
  F  F8  1  0.89136563  0.75000000  0.51348995  1
  F  F9  1  0.10863437  0.25000000  0.48651005  1
  F  F10  1  0.39136563  0.25000000  0.98651005  1
  F  F11  1  0.60863437  0.75000000  0.01348995  1
  F  F12  1  0.64913483  0.03639527  0.57227570  1
  F  F13  1  0.35086517  0.96360473  0.42772430  1
  F  F14  1  0.14913483  0.96360473  0.92772430  1
  F  F15  1  0.35086517  0.53639527  0.42772430  1
  F  F16  1  0.85086517  0.03639527  0.07227570  1
  F  F17  1  0.64913483  0.46360473  0.57227570  1
  F  F18  1  0.85086517  0.46360473  0.07227570  1
  F  F19  1  0.14913483  0.53639527  0.92772430  1
loop_
_geom_bond_atom_site_label_1
_geom_bond_atom_site_label_2
_geom_bond_distance
_geom_bond_site_symmetry_2
F0 Yb3 2.141591 1_556
F0 K2 2.623173 1_655
F0 K7 2.623173 1_655
F0 K5 2.686025 1_565
F0 K0 2.686025 1_555
F1 Yb2 2.141581 1_554
F1 K4 2.623173 1_455
F1 K6 2.623173 1_455
F1 K3 2.686025 1_545
F1 K1 2.686025 1_555
F2 Yb1 2.141581 1_555
F2 K0 2.623173 1_555
F2 K5 2.623173 1_555
F2 K7 2.686025 1_545
F2 K2 2.686025 1_555
F3 Yb0 2.141581 1_555
F3 K1 2.623173 1_555
F3 K3 2.623173 1_555
F3 K6 2.686025 1_565
F3 K4 2.686025 1_555
F4 Yb0 2.131129 1_555
F4 K5 2.711121 1_565
F4 K0 2.711121 1_555
F4 K2 2.809497 1_555
F4 K7 2.809497 1_555
F5 Yb1 2.131129 1_555
F5 K3 2.711121 1_545
F5 K1 2.711121 1_555
F5 K4 2.809497 1_555
F5 K6 2.809497 1_555
F6 Yb2 2.131129 1_655
F6 K7 2.711121 1_645
F6 K2 2.711121 1_655
F6 K0 2.809497 1_555
F6 K5 2.809497 1_555
F7 Yb3 2.131121 1_455
F7 K6 2.711121 1_465
F7 K4 2.711121 1_455
F7 K1 2.809497 1_555
F7 K3 2.809497 1_555
F8 Yb0 2.131299 1_555
F8 K2 2.603458 1_655
F8 K7 2.603458 1_655
F8 K6 2.700921 1_565
F8 K4 2.700921 1_555
F9 Yb1 2.131299 1_555
F9 K4 2.603458 1_455
F9 K6 2.603458 1_455
F9 K7 2.700921 1_545
F9 K2 2.700921 1_555
F10 Yb2 2.131299 1_555
F10 K0 2.603458 1_555
F10 K5 2.603458 1_555
F10 K3 2.700921 1_546
F10 K1 2.700921 1_556
F11 Yb3 2.131298 1_555
F11 K1 2.603458 1_555
F11 K3 2.603458 1_555
F11 K5 2.700921 1_564
F11 K0 2.700921 1_554
F12 Yb1 2.204235 1_555
F12 Yb0 2.231861 1_545
F12 K7 2.756371 1_645
F12 K5 2.846852 1_555
F13 Yb0 2.204235 1_555
F13 Yb1 2.231861 1_565
F13 K6 2.756371 1_465
F13 K3 2.846852 1_555
F14 Yb3 2.204239 1_456
F14 Yb2 2.231861 1_565
F14 K5 2.756371 1_565
F14 K7 2.846852 1_555
F15 Yb0 2.204235 1_555
F15 Yb1 2.231861 1_555
F15 K4 2.756371 1_455
F15 K1 2.846852 1_555
F16 Yb2 2.204235 1_654
F16 Yb3 2.231857 1_545
F16 K3 2.756371 1_545
F16 K6 2.846852 1_555
F17 Yb1 2.204235 1_555
F17 Yb0 2.231861 1_555
F17 K2 2.756371 1_655
F17 K0 2.846852 1_555
F18 Yb2 2.204235 1_654
F18 Yb3 2.231857 1_555
F18 K1 2.756371 1_555
F18 K4 2.846852 1_555
F19 Yb3 2.204239 1_456
F19 Yb2 2.231861 1_555
F19 K0 2.756371 1_555
F19 K2 2.846852 1_555
