# generated using pymatgen
data_CoSI
_symmetry_space_group_name_H-M   'P 1'
_cell_length_a   3.55031808
_cell_length_b   3.55031808
_cell_length_c   6.11678050
_cell_angle_alpha   78.18482689
_cell_angle_beta   78.18482689
_cell_angle_gamma   59.96627233
_symmetry_Int_Tables_number   1
_chemical_formula_structural   CoSI
_chemical_formula_sum   'Co1 S1 I1'
_cell_volume   64.85654482
_cell_formula_units_Z   1
loop_
 _symmetry_equiv_pos_site_id
 _symmetry_equiv_pos_as_xyz
  1  'x, y, z'
loop_
 _atom_site_type_symbol
 _atom_site_label
 _atom_site_symmetry_multiplicity
 _atom_site_fract_x
 _atom_site_fract_y
 _atom_site_fract_z
 _atom_site_occupancy
  Co  Co0  1  0.99593800  0.99593800  0.03200800  1
  S  S0  1  0.28800500  0.28800500  0.20796400  1
  I  I0  1  0.72398200  0.72398200  0.76002900  1
loop_
_geom_bond_atom_site_label_1
_geom_bond_atom_site_label_2
_geom_bond_distance
_geom_bond_site_symmetry_2
Co0 S0 2.300243 1_655
Co0 S0 2.300243 1_565
Co0 S0 2.302002 1_665
Co0 I0 2.603779 1_564
Co0 I0 2.603779 1_654
Co0 I0 2.623160 1_554
