# generated using pymatgen
data_PmMn3
_symmetry_space_group_name_H-M   'P 1'
_cell_length_a   6.05519192
_cell_length_b   6.05519192
_cell_length_c   4.63874700
_cell_angle_alpha   90.00000000
_cell_angle_beta   90.00000000
_cell_angle_gamma   119.99999908
_symmetry_Int_Tables_number   1
_chemical_formula_structural   PmMn3
_chemical_formula_sum   'Pm2 Mn6'
_cell_volume   147.29470911
_cell_formula_units_Z   2
loop_
 _symmetry_equiv_pos_site_id
 _symmetry_equiv_pos_as_xyz
  1  'x, y, z'
loop_
 _atom_site_type_symbol
 _atom_site_label
 _atom_site_symmetry_multiplicity
 _atom_site_fract_x
 _atom_site_fract_y
 _atom_site_fract_z
 _atom_site_occupancy
  Pm  Pm0  1  0.33333300  0.66666700  0.75000000  1
  Pm  Pm1  1  0.66666700  0.33333300  0.25000000  1
  Mn  Mn0  1  0.14553200  0.29106300  0.25000000  1
  Mn  Mn1  1  0.70893700  0.85446800  0.25000000  1
  Mn  Mn2  1  0.14553200  0.85446800  0.25000000  1
  Mn  Mn3  1  0.85446800  0.70893700  0.75000000  1
  Mn  Mn4  1  0.29106300  0.14553200  0.75000000  1
  Mn  Mn5  1  0.85446800  0.14553200  0.75000000  1
loop_
_geom_bond_atom_site_label_1
_geom_bond_atom_site_label_2
_geom_bond_distance
_geom_bond_site_symmetry_2
Mn0 Mn2 2.643667 1_545
Mn0 Mn1 2.643667 1_445
Mn0 Mn4 2.776532 1_554
Mn0 Mn4 2.776532 1_555
Mn0 Mn5 2.776538 1_455
Mn0 Mn5 2.776538 1_454
Mn0 Pm1 3.035699 1_455
Mn0 Pm1 3.035699 1_555
Mn0 Pm0 3.042862 1_554
Mn0 Pm0 3.042862 1_555
Mn1 Mn2 2.643667 1_655
Mn1 Mn3 2.776532 1_555
Mn1 Mn3 2.776532 1_554
Mn1 Mn5 2.776538 1_564
Mn1 Mn5 2.776538 1_565
Mn1 Pm1 3.035699 1_565
Mn1 Pm1 3.035699 1_555
Mn1 Pm0 3.042862 1_554
Mn1 Pm0 3.042862 1_555
Mn2 Mn4 2.776538 1_565
Mn2 Mn4 2.776538 1_564
Mn2 Mn3 2.776538 1_455
Mn2 Mn3 2.776538 1_454
Mn2 Pm1 3.035700 1_565
Mn2 Pm1 3.035700 1_455
Mn2 Pm0 3.042855 1_555
Mn2 Pm0 3.042855 1_554
Mn3 Mn5 2.643667 1_565
Mn3 Mn4 2.643667 1_665
Mn3 Pm0 3.035699 1_655
Mn3 Pm0 3.035699 1_555
Mn3 Pm1 3.042862 1_556
Mn3 Pm1 3.042862 1_555
Mn4 Mn5 2.643667 1_455
Mn4 Pm0 3.035699 1_545
Mn4 Pm0 3.035699 1_555
Mn4 Pm1 3.042862 1_556
Mn4 Pm1 3.042862 1_555
Mn5 Pm0 3.035700 1_545
Mn5 Pm0 3.035700 1_655
Mn5 Pm1 3.042855 1_556
Mn5 Pm1 3.042855 1_555
