# generated using pymatgen
data_RbLiMg6
_symmetry_space_group_name_H-M   'P 1'
_cell_length_a   5.41691500
_cell_length_b   6.47474100
_cell_length_c   12.68661100
_cell_angle_alpha   90.00000000
_cell_angle_beta   90.00000000
_cell_angle_gamma   90.00000000
_symmetry_Int_Tables_number   1
_chemical_formula_structural   RbLiMg6
_chemical_formula_sum   'Rb2 Li2 Mg12'
_cell_volume   444.95905085
_cell_formula_units_Z   2
loop_
 _symmetry_equiv_pos_site_id
 _symmetry_equiv_pos_as_xyz
  1  'x, y, z'
loop_
 _atom_site_type_symbol
 _atom_site_label
 _atom_site_symmetry_multiplicity
 _atom_site_fract_x
 _atom_site_fract_y
 _atom_site_fract_z
 _atom_site_occupancy
  Rb  Rb0  1  0.50000000  0.50000000  0.18448400  1
  Rb  Rb1  1  0.50000000  0.00000000  0.68448400  1
  Li  Li0  1  0.50000000  0.00000000  0.16274500  1
  Li  Li1  1  0.50000000  0.50000000  0.66274500  1
  Mg  Mg0  1  0.50000000  0.24627900  0.42709100  1
  Mg  Mg1  1  0.50000000  0.75372100  0.42709100  1
  Mg  Mg2  1  0.00000000  0.75928800  0.06339000  1
  Mg  Mg3  1  0.00000000  0.24071200  0.06339000  1
  Mg  Mg4  1  0.00000000  0.00000000  0.31972600  1
  Mg  Mg5  1  0.00000000  0.50000000  0.35207900  1
  Mg  Mg6  1  0.50000000  0.74627900  0.92709100  1
  Mg  Mg7  1  0.50000000  0.25372100  0.92709100  1
  Mg  Mg8  1  0.00000000  0.25928800  0.56339000  1
  Mg  Mg9  1  0.00000000  0.74071200  0.56339000  1
  Mg  Mg10  1  0.00000000  0.50000000  0.81972600  1
  Mg  Mg11  1  0.00000000  0.00000000  0.85207900  1
loop_
_geom_bond_atom_site_label_1
_geom_bond_atom_site_label_2
_geom_bond_distance
_geom_bond_site_symmetry_2
Li0 Rb0 3.249097 1_555
Li0 Rb0 3.249097 1_545
Li0 Mg4 3.361851 1_555
Li0 Mg4 3.361851 1_655
Li0 Mg3 3.369513 1_555
Li0 Mg3 3.369513 1_655
Li0 Mg2 3.369513 1_645
Li0 Mg2 3.369513 1_545
Li0 Mg7 3.411265 1_554
Li0 Mg6 3.411265 1_544
Li1 Rb1 3.249097 1_555
Li1 Rb1 3.249097 1_565
Li1 Mg10 3.361851 1_555
Li1 Mg10 3.361851 1_655
Li1 Mg9 3.369513 1_655
Li1 Mg9 3.369513 1_555
Li1 Mg8 3.369513 1_655
Li1 Mg8 3.369513 1_555
Li1 Mg1 3.411265 1_555
Li1 Mg0 3.411265 1_555
Mg0 Mg1 3.189185 1_545
Mg0 Mg8 3.214479 1_555
Mg0 Mg8 3.214479 1_655
Mg0 Mg1 3.285556 1_555
Mg0 Mg5 3.307581 1_555
Mg0 Mg5 3.307581 1_655
Mg0 Mg4 3.425460 1_555
Mg0 Mg4 3.425460 1_655
Mg0 Rb0 3.488831 1_555
Mg0 Rb1 3.633986 1_555
Mg1 Mg9 3.214479 1_555
Mg1 Mg9 3.214479 1_655
Mg1 Mg5 3.307581 1_555
Mg1 Mg5 3.307581 1_655
Mg1 Mg4 3.425460 1_665
Mg1 Mg4 3.425460 1_565
Mg1 Rb0 3.488831 1_555
Mg1 Rb1 3.633986 1_565
Mg2 Mg3 3.117096 1_565
Mg2 Mg6 3.214479 1_454
Mg2 Mg6 3.214479 1_554
Mg2 Mg3 3.357645 1_555
Mg2 Rb0 3.537559 1_455
Mg2 Rb0 3.537559 1_555
Mg3 Mg7 3.214479 1_554
Mg3 Mg7 3.214479 1_454
Mg3 Rb0 3.537559 1_455
Mg3 Rb0 3.537559 1_555
Mg4 Mg5 3.263286 1_545
Mg4 Mg5 3.263286 1_555
Mg5 Mg9 3.100947 1_555
Mg5 Mg8 3.100947 1_555
Mg5 Rb0 3.443330 1_455
Mg5 Rb0 3.443330 1_555
Mg6 Mg7 3.189185 1_555
Mg6 Mg7 3.285556 1_565
Mg6 Rb1 3.488831 1_565
Mg6 Rb0 3.633986 1_556
Mg7 Rb1 3.488831 1_555
Mg7 Rb0 3.633986 1_556
Mg8 Mg9 3.117096 1_555
Mg8 Mg9 3.357645 1_545
Mg8 Rb1 3.537559 1_455
Mg8 Rb1 3.537559 1_555
Mg9 Rb1 3.537559 1_565
Mg9 Rb1 3.537559 1_465
Mg10 Mg11 3.263286 1_565
Mg10 Mg11 3.263286 1_555
Mg10 Mg6 3.425460 1_555
Mg10 Mg6 3.425460 1_455
Mg10 Mg7 3.425460 1_455
Mg10 Mg7 3.425460 1_555
Mg11 Mg3 3.100947 1_556
Mg11 Mg2 3.100947 1_546
Mg11 Mg7 3.307581 1_555
Mg11 Mg7 3.307581 1_455
Mg11 Mg6 3.307581 1_545
Mg11 Mg6 3.307581 1_445
Mg11 Rb1 3.443330 1_455
Mg11 Rb1 3.443330 1_555
