# generated using pymatgen
data_LiMgIr
_symmetry_space_group_name_H-M   'P 1'
_cell_length_a   6.06443800
_cell_length_b   6.06443800
_cell_length_c   6.06443800
_cell_angle_alpha   90.00000000
_cell_angle_beta   90.00000000
_cell_angle_gamma   90.00000000
_symmetry_Int_Tables_number   1
_chemical_formula_structural   LiMgIr
_chemical_formula_sum   'Li4 Mg4 Ir4'
_cell_volume   223.03431217
_cell_formula_units_Z   4
loop_
 _symmetry_equiv_pos_site_id
 _symmetry_equiv_pos_as_xyz
  1  'x, y, z'
loop_
 _atom_site_type_symbol
 _atom_site_label
 _atom_site_symmetry_multiplicity
 _atom_site_fract_x
 _atom_site_fract_y
 _atom_site_fract_z
 _atom_site_occupancy
  Li  Li0  1  0.50000000  0.50000000  0.50000000  1
  Li  Li1  1  0.50000000  0.50000000  0.00000000  1
  Li  Li2  1  0.50000000  0.00000000  0.50000000  1
  Li  Li3  1  0.00000000  0.50000000  0.50000000  1
  Mg  Mg0  1  0.00000000  0.00000000  0.00000000  1
  Mg  Mg1  1  0.00000000  0.00000000  0.50000000  1
  Mg  Mg2  1  0.00000000  0.50000000  0.00000000  1
  Mg  Mg3  1  0.50000000  0.00000000  0.00000000  1
  Ir  Ir0  1  0.25552100  0.25552100  0.74447900  1
  Ir  Ir1  1  0.25552100  0.74447900  0.25552100  1
  Ir  Ir2  1  0.74447900  0.25552100  0.25552100  1
  Ir  Ir3  1  0.74447900  0.74447900  0.74447900  1
loop_
_geom_bond_atom_site_label_1
_geom_bond_atom_site_label_2
_geom_bond_distance
_geom_bond_site_symmetry_2
Ir0 Li0 2.567987 1_555
Ir0 Li2 2.607221 1_555
Ir0 Li3 2.607221 1_555
Ir0 Li1 2.607221 1_556
Ir0 Mg2 2.645874 1_556
Ir0 Mg3 2.645874 1_556
Ir0 Mg1 2.645874 1_555
Ir0 Mg0 2.683971 1_556
Ir1 Li0 2.567987 1_555
Ir1 Li2 2.607221 1_565
Ir1 Li3 2.607221 1_555
Ir1 Li1 2.607221 1_555
Ir1 Mg1 2.645874 1_565
Ir1 Mg3 2.645874 1_565
Ir1 Mg2 2.645874 1_555
Ir1 Mg0 2.683971 1_565
Ir2 Li0 2.567987 1_555
Ir2 Li2 2.607221 1_555
Ir2 Li3 2.607221 1_655
Ir2 Li1 2.607221 1_555
Ir2 Mg3 2.645874 1_555
Ir2 Mg2 2.645874 1_655
Ir2 Mg1 2.645874 1_655
Ir2 Mg0 2.683971 1_655
Ir3 Li0 2.567987 1_555
Ir3 Li2 2.607221 1_565
Ir3 Li3 2.607221 1_655
Ir3 Li1 2.607221 1_556
Ir3 Mg1 2.645874 1_665
Ir3 Mg3 2.645874 1_566
Ir3 Mg2 2.645874 1_656
Ir3 Mg0 2.683971 1_666
