# generated using pymatgen
data_BaSi(S2O7)3
_symmetry_space_group_name_H-M   'P 1'
_cell_length_a   13.77487397
_cell_length_b   15.57468411
_cell_length_c   16.75634900
_cell_angle_alpha   90.00000000
_cell_angle_beta   90.00000000
_cell_angle_gamma   90.00000000
_symmetry_Int_Tables_number   1
_chemical_formula_structural   BaSi(S2O7)3
_chemical_formula_sum   'Ba8 Si8 S48 O168'
_cell_volume   3594.89556494
_cell_formula_units_Z   8
loop_
 _symmetry_equiv_pos_site_id
 _symmetry_equiv_pos_as_xyz
  1  'x, y, z'
loop_
 _atom_site_type_symbol
 _atom_site_label
 _atom_site_symmetry_multiplicity
 _atom_site_fract_x
 _atom_site_fract_y
 _atom_site_fract_z
 _atom_site_occupancy
  Ba  Ba0  1  0.76001037  0.70124134  0.99251954  1
  Ba  Ba1  1  0.73998963  0.20124134  0.00748046  1
  Ba  Ba2  1  0.26001037  0.29875866  0.50748046  1
  Ba  Ba3  1  0.23998963  0.79875866  0.49251954  1
  Ba  Ba4  1  0.23998963  0.29875866  0.00748046  1
  Ba  Ba5  1  0.26001037  0.79875866  0.99251954  1
  Ba  Ba6  1  0.73998963  0.70124134  0.49251954  1
  Ba  Ba7  1  0.76001037  0.20124134  0.50748046  1
  Si  Si0  1  0.87367328  0.89544108  0.74856661  1
  Si  Si1  1  0.62632672  0.39544108  0.25143339  1
  Si  Si2  1  0.37367328  0.10455892  0.75143339  1
  Si  Si3  1  0.12632672  0.60455892  0.24856661  1
  Si  Si4  1  0.12632672  0.10455892  0.25143339  1
  Si  Si5  1  0.37367328  0.60455892  0.74856661  1
  Si  Si6  1  0.62632672  0.89544108  0.24856661  1
  Si  Si7  1  0.87367328  0.39544108  0.75143339  1
  S  S0  1  0.97626461  0.86515479  0.90671632  1
  S  S1  1  0.52373539  0.36515479  0.09328368  1
  S  S2  1  0.47626461  0.13484521  0.59328368  1
  S  S3  1  0.02373539  0.63484521  0.40671632  1
  S  S4  1  0.02373539  0.13484521  0.09328368  1
  S  S5  1  0.47626461  0.63484521  0.90671632  1
  S  S6  1  0.52373539  0.86515479  0.40671632  1
  S  S7  1  0.97626461  0.36515479  0.59328368  1
  S  S8  1  0.74235897  0.73884208  0.75317803  1
  S  S9  1  0.75764103  0.23884208  0.24682197  1
  S  S10  1  0.24235897  0.26115792  0.74682197  1
  S  S11  1  0.25764103  0.76115792  0.25317803  1
  S  S12  1  0.25764103  0.26115792  0.24682197  1
  S  S13  1  0.24235897  0.76115792  0.75317803  1
  S  S14  1  0.75764103  0.73884208  0.25317803  1
  S  S15  1  0.74235897  0.23884208  0.74682197  1
  S  S16  1  0.96802291  0.84926504  0.59029562  1
  S  S17  1  0.53197709  0.34926504  0.40970438  1
  S  S18  1  0.46802291  0.15073496  0.90970438  1
  S  S19  1  0.03197709  0.65073496  0.09029562  1
  S  S20  1  0.03197709  0.15073496  0.40970438  1
  S  S21  1  0.46802291  0.65073496  0.59029562  1
  S  S22  1  0.53197709  0.84926504  0.09029562  1
  S  S23  1  0.96802291  0.34926504  0.90970438  1
  S  S24  1  0.79440090  0.95090020  0.91017727  1
  S  S25  1  0.70559910  0.45090020  0.08982273  1
  S  S26  1  0.29440090  0.04909980  0.58982273  1
  S  S27  1  0.20559910  0.54909980  0.41017727  1
  S  S28  1  0.20559910  0.04909980  0.08982273  1
  S  S29  1  0.29440090  0.54909980  0.91017727  1
  S  S30  1  0.70559910  0.95090020  0.41017727  1
  S  S31  1  0.79440090  0.45090020  0.58982273  1
  S  S32  1  0.94717779  0.02969006  0.63141132  1
  S  S33  1  0.55282221  0.52969006  0.36858868  1
  S  S34  1  0.44717779  0.97030994  0.86858868  1
  S  S35  1  0.05282221  0.47030994  0.13141132  1
  S  S36  1  0.05282221  0.97030994  0.36858868  1
  S  S37  1  0.44717779  0.47030994  0.63141132  1
  S  S38  1  0.55282221  0.02969006  0.13141132  1
  S  S39  1  0.94717779  0.52969006  0.86858868  1
  S  S40  1  0.67103536  0.88161515  0.66604019  1
  S  S41  1  0.82896464  0.38161515  0.33395981  1
  S  S42  1  0.17103536  0.11838485  0.83395981  1
  S  S43  1  0.32896464  0.61838485  0.16604019  1
  S  S44  1  0.32896464  0.11838485  0.33395981  1
  S  S45  1  0.17103536  0.61838485  0.66604019  1
  S  S46  1  0.82896464  0.88161515  0.16604019  1
  S  S47  1  0.67103536  0.38161515  0.83395981  1
  O  O0  1  0.76608027  0.69723196  0.67915119  1
  O  O1  1  0.73391973  0.19723196  0.32084881  1
  O  O2  1  0.26608027  0.30276804  0.82084881  1
  O  O3  1  0.23391973  0.80276804  0.17915119  1
  O  O4  1  0.23391973  0.30276804  0.32084881  1
  O  O5  1  0.26608027  0.80276804  0.67915119  1
  O  O6  1  0.73391973  0.69723196  0.17915119  1
  O  O7  1  0.76608027  0.19723196  0.82084881  1
  O  O8  1  0.82497612  0.79617162  0.78261423  1
  O  O9  1  0.67502388  0.29617162  0.21738577  1
  O  O10  1  0.32497612  0.20382838  0.71738577  1
  O  O11  1  0.17502388  0.70382838  0.28261423  1
  O  O12  1  0.17502388  0.20382838  0.21738577  1
  O  O13  1  0.32497612  0.70382838  0.78261423  1
  O  O14  1  0.67502388  0.79617162  0.28261423  1
  O  O15  1  0.82497612  0.29617162  0.71738577  1
  O  O16  1  0.90706573  0.79471501  0.54299445  1
  O  O17  1  0.59293427  0.29471501  0.45700555  1
  O  O18  1  0.40706573  0.20528499  0.95700555  1
  O  O19  1  0.09293427  0.70528499  0.04299445  1
  O  O20  1  0.09293427  0.20528499  0.45700555  1
  O  O21  1  0.40706573  0.70528499  0.54299445  1
  O  O22  1  0.59293427  0.79471501  0.04299445  1
  O  O23  1  0.90706573  0.29471501  0.95700555  1
  O  O24  1  0.65513887  0.80847573  0.73729323  1
  O  O25  1  0.84486113  0.30847573  0.26270677  1
  O  O26  1  0.15513887  0.19152427  0.76270677  1
  O  O27  1  0.34486113  0.69152427  0.23729323  1
  O  O28  1  0.34486113  0.19152427  0.26270677  1
  O  O29  1  0.15513887  0.69152427  0.73729323  1
  O  O30  1  0.84486113  0.80847573  0.23729323  1
  O  O31  1  0.65513887  0.30847573  0.76270677  1
  O  O32  1  0.92764381  0.94537340  0.57111331  1
  O  O33  1  0.57235619  0.44537340  0.42888669  1
  O  O34  1  0.42764381  0.05462660  0.92888669  1
  O  O35  1  0.07235619  0.55462660  0.07111331  1
  O  O36  1  0.07235619  0.05462660  0.42888669  1
  O  O37  1  0.42764381  0.55462660  0.57111331  1
  O  O38  1  0.57235619  0.94537340  0.07111331  1
  O  O39  1  0.92764381  0.44537340  0.92888669  1
  O  O40  1  0.80667558  0.95772686  0.82012552  1
  O  O41  1  0.69332442  0.45772686  0.17987448  1
  O  O42  1  0.30667558  0.04227314  0.67987448  1
  O  O43  1  0.19332442  0.54227314  0.32012552  1
  O  O44  1  0.19332442  0.04227314  0.17987448  1
  O  O45  1  0.30667558  0.54227314  0.82012552  1
  O  O46  1  0.69332442  0.95772686  0.32012552  1
  O  O47  1  0.80667558  0.45772686  0.67987448  1
  O  O48  1  0.97230800  0.88238661  0.81719082  1
  O  O49  1  0.52769200  0.38238661  0.18280918  1
  O  O50  1  0.47230800  0.11761339  0.68280918  1
  O  O51  1  0.02769200  0.61761339  0.31719082  1
  O  O52  1  0.02769200  0.11761339  0.18280918  1
  O  O53  1  0.47230800  0.61761339  0.81719082  1
  O  O54  1  0.52769200  0.88238661  0.31719082  1
  O  O55  1  0.97230800  0.38238661  0.68280918  1
  O  O56  1  0.90752412  0.94352532  0.94186013  1
  O  O57  1  0.59247588  0.44352532  0.05813987  1
  O  O58  1  0.40752412  0.05647468  0.55813987  1
  O  O59  1  0.09247588  0.55647468  0.44186013  1
  O  O60  1  0.09247588  0.05647468  0.05813987  1
  O  O61  1  0.40752412  0.55647468  0.94186013  1
  O  O62  1  0.59247588  0.94352532  0.44186013  1
  O  O63  1  0.90752412  0.44352532  0.55813987  1
  O  O64  1  0.92415104  0.99342281  0.71381231  1
  O  O65  1  0.57584896  0.49342281  0.28618769  1
  O  O66  1  0.42415104  0.00657719  0.78618769  1
  O  O67  1  0.07584896  0.50657719  0.21381231  1
  O  O68  1  0.07584896  0.00657719  0.28618769  1
  O  O69  1  0.42415104  0.50657719  0.71381231  1
  O  O70  1  0.57584896  0.99342281  0.21381231  1
  O  O71  1  0.92415104  0.49342281  0.78618769  1
  O  O72  1  0.74389327  0.87415245  0.93265819  1
  O  O73  1  0.75610673  0.37415245  0.06734181  1
  O  O74  1  0.24389327  0.12584755  0.56734181  1
  O  O75  1  0.25610673  0.62584755  0.43265819  1
  O  O76  1  0.25610673  0.12584755  0.06734181  1
  O  O77  1  0.24389327  0.62584755  0.93265819  1
  O  O78  1  0.75610673  0.87415245  0.43265819  1
  O  O79  1  0.74389327  0.37415245  0.56734181  1
  O  O80  1  0.93196131  0.78472306  0.92781838  1
  O  O81  1  0.56803869  0.28472306  0.07218162  1
  O  O82  1  0.43196131  0.21527694  0.57218162  1
  O  O83  1  0.06803869  0.71527694  0.42781838  1
  O  O84  1  0.06803869  0.21527694  0.07218162  1
  O  O85  1  0.43196131  0.71527694  0.92781838  1
  O  O86  1  0.56803869  0.78472306  0.42781838  1
  O  O87  1  0.93196131  0.28472306  0.57218162  1
  O  O88  1  0.07003548  0.88549903  0.93748143  1
  O  O89  1  0.42996452  0.38549903  0.06251857  1
  O  O90  1  0.57003548  0.11450097  0.56251857  1
  O  O91  1  0.92996452  0.61450097  0.43748143  1
  O  O92  1  0.92996452  0.11450097  0.06251857  1
  O  O93  1  0.57003548  0.61450097  0.93748143  1
  O  O94  1  0.42996452  0.88549903  0.43748143  1
  O  O95  1  0.07003548  0.38549903  0.56251857  1
  O  O96  1  0.76420029  0.03169554  0.94188139  1
  O  O97  1  0.73579971  0.53169554  0.05811861  1
  O  O98  1  0.26420029  0.96830446  0.55811861  1
  O  O99  1  0.23579971  0.46830446  0.44188139  1
  O  O100  1  0.23579971  0.96830446  0.05811861  1
  O  O101  1  0.26420029  0.46830446  0.94188139  1
  O  O102  1  0.73579971  0.03169554  0.44188139  1
  O  O103  1  0.76420029  0.53169554  0.55811861  1
  O  O104  1  0.94777075  0.83753615  0.67875869  1
  O  O105  1  0.55222925  0.33753615  0.32124131  1
  O  O106  1  0.44777075  0.16246385  0.82124131  1
  O  O107  1  0.05222925  0.66246385  0.17875869  1
  O  O108  1  0.05222925  0.16246385  0.32124131  1
  O  O109  1  0.44777075  0.66246385  0.67875869  1
  O  O110  1  0.55222925  0.83753615  0.17875869  1
  O  O111  1  0.94777075  0.33753615  0.82124131  1
  O  O112  1  0.70693023  0.69031924  0.81956510  1
  O  O113  1  0.79306977  0.19031924  0.18043490  1
  O  O114  1  0.20693023  0.30968076  0.68043490  1
  O  O115  1  0.29306977  0.80968076  0.31956510  1
  O  O116  1  0.29306977  0.30968076  0.18043490  1
  O  O117  1  0.20693023  0.80968076  0.81956510  1
  O  O118  1  0.79306977  0.69031924  0.31956510  1
  O  O119  1  0.70693023  0.19031924  0.68043490  1
  O  O120  1  0.77667241  0.90794568  0.67851505  1
  O  O121  1  0.72332759  0.40794568  0.32148495  1
  O  O122  1  0.27667241  0.09205432  0.82148495  1
  O  O123  1  0.22332759  0.59205432  0.17851505  1
  O  O124  1  0.22332759  0.09205432  0.32148495  1
  O  O125  1  0.27667241  0.59205432  0.67851505  1
  O  O126  1  0.72332759  0.90794568  0.17851505  1
  O  O127  1  0.77667241  0.40794568  0.82148495  1
  O  O128  1  0.07080397  0.84779948  0.57671290  1
  O  O129  1  0.42919603  0.34779948  0.42328710  1
  O  O130  1  0.57080397  0.15220052  0.92328710  1
  O  O131  1  0.92919603  0.65220052  0.07671290  1
  O  O132  1  0.92919603  0.15220052  0.42328710  1
  O  O133  1  0.57080397  0.65220052  0.57671290  1
  O  O134  1  0.42919603  0.84779948  0.07671290  1
  O  O135  1  0.07080397  0.34779948  0.92328710  1
  O  O136  1  0.66296523  0.83731595  0.59091725  1
  O  O137  1  0.83703477  0.33731595  0.40908275  1
  O  O138  1  0.16296523  0.16268405  0.90908275  1
  O  O139  1  0.33703477  0.66268405  0.09091725  1
  O  O140  1  0.33703477  0.16268405  0.40908275  1
  O  O141  1  0.16296523  0.66268405  0.59091725  1
  O  O142  1  0.83703477  0.83731595  0.09091725  1
  O  O143  1  0.66296523  0.33731595  0.90908275  1
  O  O144  1  0.04639574  0.05399815  0.62560564  1
  O  O145  1  0.45360426  0.55399815  0.37439436  1
  O  O146  1  0.54639574  0.94600185  0.87439436  1
  O  O147  1  0.95360426  0.44600185  0.12560564  1
  O  O148  1  0.95360426  0.94600185  0.37439436  1
  O  O149  1  0.54639574  0.44600185  0.62560564  1
  O  O150  1  0.45360426  0.05399815  0.12560564  1
  O  O151  1  0.04639574  0.55399815  0.87439436  1
  O  O152  1  0.87226864  0.08732422  0.60538051  1
  O  O153  1  0.62773136  0.58732422  0.39461949  1
  O  O154  1  0.37226864  0.91267578  0.89461949  1
  O  O155  1  0.12773136  0.41267578  0.10538051  1
  O  O156  1  0.12773136  0.91267578  0.39461949  1
  O  O157  1  0.37226864  0.41267578  0.60538051  1
  O  O158  1  0.62773136  0.08732422  0.10538051  1
  O  O159  1  0.87226864  0.58732422  0.89461949  1
  O  O160  1  0.60434542  0.94756421  0.68603467  1
  O  O161  1  0.89565458  0.44756421  0.31396533  1
  O  O162  1  0.10434542  0.05243579  0.81396533  1
  O  O163  1  0.39565458  0.55243579  0.18603467  1
  O  O164  1  0.39565458  0.05243579  0.31396533  1
  O  O165  1  0.10434542  0.55243579  0.68603467  1
  O  O166  1  0.89565458  0.94756421  0.18603467  1
  O  O167  1  0.60434542  0.44756421  0.81396533  1
loop_
_geom_bond_atom_site_label_1
_geom_bond_atom_site_label_2
_geom_bond_distance
_geom_bond_site_symmetry_2
Ba0 O131 2.829301 1_556
Ba0 O22 2.851568 1_556
Ba0 O159 2.868817 1_555
Ba0 O97 2.879644 1_556
Ba0 O72 2.882335 1_555
Ba0 O142 2.887167 1_556
Ba0 O80 2.911390 1_555
Ba0 O112 2.993734 1_555
Ba0 O93 3.086043 1_555
Ba0 O6 3.148468 1_556
Ba1 O130 2.829301 1_554
Ba1 O23 2.851568 1_554
Ba1 O158 2.868817 1_555
Ba1 O96 2.879644 1_554
Ba1 O73 2.882335 1_555
Ba1 O143 2.887167 1_554
Ba1 O81 2.911390 1_555
Ba1 O113 2.993734 1_555
Ba1 O92 3.086043 1_555
Ba1 O7 3.148468 1_554
Ba2 O129 2.829301 1_555
Ba2 O20 2.851568 1_555
Ba2 O157 2.868817 1_555
Ba2 O99 2.879644 1_555
Ba2 O74 2.882335 1_555
Ba2 O140 2.887167 1_555
Ba2 O82 2.911390 1_555
Ba2 O114 2.993734 1_555
Ba2 O95 3.086043 1_555
Ba2 O4 3.148468 1_555
Ba3 O128 2.829301 1_555
Ba3 O21 2.851568 1_555
Ba3 O156 2.868817 1_555
Ba3 O98 2.879644 1_555
Ba3 O75 2.882335 1_555
Ba3 O141 2.887167 1_555
Ba3 O83 2.911390 1_555
Ba3 O115 2.993734 1_555
Ba3 O94 3.086043 1_555
Ba3 O5 3.148468 1_555
Ba4 O135 2.829301 1_554
Ba4 O18 2.851568 1_554
Ba4 O155 2.868817 1_555
Ba4 O101 2.879644 1_554
Ba4 O76 2.882335 1_555
Ba4 O138 2.887167 1_554
Ba4 O84 2.911390 1_555
Ba4 O116 2.993734 1_555
Ba4 O89 3.086043 1_555
Ba4 O2 3.148468 1_554
Ba5 O134 2.829301 1_556
Ba5 O19 2.851568 1_556
Ba5 O154 2.868817 1_555
Ba5 O100 2.879644 1_556
Ba5 O77 2.882335 1_555
Ba5 O139 2.887167 1_556
Ba5 O85 2.911390 1_555
Ba5 O117 2.993734 1_555
Ba5 O88 3.086043 1_555
Ba5 O3 3.148468 1_556
Ba6 O133 2.829301 1_555
Ba6 O16 2.851568 1_555
Ba6 O153 2.868817 1_555
Ba6 O103 2.879644 1_555
Ba6 O78 2.882335 1_555
Ba6 O136 2.887167 1_555
Ba6 O86 2.911390 1_555
Ba6 O118 2.993734 1_555
Ba6 O91 3.086043 1_555
Ba6 O0 3.148468 1_555
Ba7 O132 2.829301 1_555
Ba7 O17 2.851568 1_555
Ba7 O152 2.868817 1_555
Ba7 O102 2.879644 1_555
Ba7 O79 2.882335 1_555
Ba7 O137 2.887167 1_555
Ba7 O87 2.911390 1_555
Ba7 O119 2.993734 1_555
Ba7 O90 3.086043 1_555
Ba7 O1 3.148468 1_555
O0 S8 1.437150 1_555
O1 S9 1.437150 1_555
O2 S10 1.437150 1_555
O3 S11 1.437150 1_555
O4 S12 1.437150 1_555
O5 S13 1.437150 1_555
O6 S14 1.437150 1_555
O7 S15 1.437150 1_555
O8 S8 1.528292 1_555
O8 Si0 1.779284 1_555
O9 S9 1.528292 1_555
O9 Si1 1.779284 1_555
O10 S10 1.528292 1_555
O10 Si2 1.779284 1_555
O11 S11 1.528292 1_555
O11 Si3 1.779284 1_555
O12 S12 1.528292 1_555
O12 Si4 1.779284 1_555
O13 S13 1.528292 1_555
O13 Si5 1.779284 1_555
O14 S14 1.528292 1_555
O14 Si6 1.779284 1_555
O15 S15 1.528292 1_555
O15 Si7 1.779284 1_555
O16 S16 1.433556 1_555
O17 S17 1.433556 1_555
O18 S18 1.433556 1_555
O19 S19 1.433556 1_555
O20 S20 1.433556 1_555
O21 S21 1.433556 1_555
O22 S22 1.433556 1_555
O23 S23 1.433556 1_555
O24 S8 1.640277 1_555
O24 S40 1.664646 1_555
O25 S9 1.640277 1_555
O25 S41 1.664646 1_555
O26 S10 1.640277 1_555
O26 S42 1.664646 1_555
O27 S11 1.640277 1_555
O27 S43 1.664646 1_555
O28 S12 1.640277 1_555
O28 S44 1.664646 1_555
O29 S13 1.640277 1_555
O29 S45 1.664646 1_555
O30 S14 1.640277 1_555
O30 S46 1.664646 1_555
O31 S15 1.640277 1_555
O31 S47 1.664646 1_555
O32 S16 1.628887 1_555
O32 S32 1.678621 1_565
O33 S17 1.628887 1_555
O33 S33 1.678621 1_555
O34 S18 1.628887 1_555
O34 S34 1.678621 1_545
O35 S19 1.628887 1_555
O35 S35 1.678621 1_555
O36 S20 1.628887 1_555
O36 S36 1.678621 1_545
O37 S21 1.628887 1_555
O37 S37 1.678621 1_555
O38 S22 1.628887 1_555
O38 S38 1.678621 1_565
O39 S23 1.628887 1_555
O39 S39 1.678621 1_555
O40 S24 1.522100 1_555
O40 Si0 1.797369 1_555
O41 S25 1.522100 1_555
O41 Si1 1.797369 1_555
O42 S26 1.522100 1_555
O42 Si2 1.797369 1_555
O43 S27 1.522100 1_555
O43 Si3 1.797369 1_555
O44 S28 1.522100 1_555
O44 Si4 1.797369 1_555
O45 S29 1.522100 1_555
O45 Si5 1.797369 1_555
O46 S30 1.522100 1_555
O46 Si6 1.797369 1_555
O47 S31 1.522100 1_555
O47 Si7 1.797369 1_555
O48 S0 1.524913 1_555
O48 Si0 1.791536 1_555
O49 S1 1.524913 1_555
O49 Si1 1.791536 1_555
O50 S2 1.524913 1_555
O50 Si2 1.791536 1_555
O51 S3 1.524913 1_555
O51 Si3 1.791536 1_555
O52 S4 1.524913 1_555
O52 Si4 1.791536 1_555
O53 S5 1.524913 1_555
O53 Si5 1.791536 1_555
O54 S6 1.524913 1_555
O54 Si6 1.791536 1_555
O55 S7 1.524913 1_555
O55 Si7 1.791536 1_555
O56 S24 1.650214 1_555
O56 S0 1.653252 1_555
O57 S25 1.650214 1_555
O57 S1 1.653252 1_555
O58 S26 1.650214 1_555
O58 S2 1.653252 1_555
O59 S27 1.650214 1_555
O59 S3 1.653252 1_555
O60 S28 1.650214 1_555
O60 S4 1.653252 1_555
O61 S29 1.650214 1_555
O61 S5 1.653252 1_555
O62 S30 1.650214 1_555
O62 S6 1.653252 1_555
O63 S31 1.650214 1_555
O63 S7 1.653252 1_555
O64 S32 1.525159 1_565
O64 Si0 1.775217 1_555
O65 S33 1.525159 1_555
O65 Si1 1.775217 1_555
O66 S34 1.525159 1_545
O66 Si2 1.775217 1_555
O67 S35 1.525159 1_555
O67 Si3 1.775217 1_555
O68 S36 1.525159 1_545
O68 Si4 1.775217 1_555
O69 S37 1.525159 1_555
O69 Si5 1.775217 1_555
O70 S38 1.525159 1_565
O70 Si6 1.775217 1_555
O71 S39 1.525159 1_555
O71 Si7 1.775217 1_555
O72 S24 1.433438 1_555
O73 S25 1.433438 1_555
O74 S26 1.433438 1_555
O75 S27 1.433438 1_555
O76 S28 1.433438 1_555
O77 S29 1.433438 1_555
O78 S30 1.433438 1_555
O79 S31 1.433438 1_555
O80 S0 1.437607 1_555
O81 S1 1.437607 1_555
O82 S2 1.437607 1_555
O83 S3 1.437607 1_555
O84 S4 1.437607 1_555
O85 S5 1.437607 1_555
O86 S6 1.437607 1_555
O87 S7 1.437607 1_555
O88 S0 1.426391 1_455
O89 S1 1.426391 1_555
O90 S2 1.426391 1_555
O91 S3 1.426391 1_655
O92 S4 1.426391 1_655
O93 S5 1.426391 1_555
O94 S6 1.426391 1_555
O95 S7 1.426391 1_455
O96 S24 1.427852 1_545
O97 S25 1.427852 1_555
O98 S26 1.427852 1_565
O99 S27 1.427852 1_555
O100 S28 1.427852 1_565
O101 S29 1.427852 1_555
O102 S30 1.427852 1_545
O103 S31 1.427852 1_555
O104 S16 1.519362 1_555
O104 Si0 1.795380 1_555
O105 S17 1.519362 1_555
O105 Si1 1.795380 1_555
O106 S18 1.519362 1_555
O106 Si2 1.795380 1_555
O107 S19 1.519362 1_555
O107 Si3 1.795380 1_555
O108 S20 1.519362 1_555
O108 Si4 1.795380 1_555
O109 S21 1.519362 1_555
O109 Si5 1.795380 1_555
O110 S22 1.519362 1_555
O110 Si6 1.795380 1_555
O111 S23 1.519362 1_555
O111 Si7 1.795380 1_555
O112 S8 1.430643 1_555
O113 S9 1.430643 1_555
O114 S10 1.430643 1_555
O115 S11 1.430643 1_555
O116 S12 1.430643 1_555
O117 S13 1.430643 1_555
O118 S14 1.430643 1_555
O119 S15 1.430643 1_555
O120 S40 1.526202 1_555
O120 Si0 1.789167 1_555
O121 S41 1.526202 1_555
O121 Si1 1.789167 1_555
O122 S42 1.526202 1_555
O122 Si2 1.789167 1_555
O123 S43 1.526202 1_555
O123 Si3 1.789167 1_555
O124 S44 1.526202 1_555
O124 Si4 1.789167 1_555
O125 S45 1.526202 1_555
O125 Si5 1.789167 1_555
O126 S46 1.526202 1_555
O126 Si6 1.789167 1_555
O127 S47 1.526202 1_555
O127 Si7 1.789167 1_555
O128 S16 1.434155 1_455
O129 S17 1.434155 1_555
O130 S18 1.434155 1_555
O131 S19 1.434155 1_655
O132 S20 1.434155 1_655
O133 S21 1.434155 1_555
O134 S22 1.434155 1_555
O135 S23 1.434155 1_455
O136 S40 1.439766 1_555
O137 S41 1.439766 1_555
O138 S42 1.439766 1_555
O139 S43 1.439766 1_555
O140 S44 1.439766 1_555
O141 S45 1.439766 1_555
O142 S46 1.439766 1_555
O143 S47 1.439766 1_555
O144 S32 1.421515 1_455
O145 S33 1.421515 1_555
O146 S34 1.421515 1_555
O147 S35 1.421515 1_655
O148 S36 1.421515 1_655
O149 S37 1.421515 1_555
O150 S38 1.421515 1_555
O151 S39 1.421515 1_455
O152 S32 1.435529 1_555
O153 S33 1.435529 1_555
O154 S34 1.435529 1_555
O155 S35 1.435529 1_555
O156 S36 1.435529 1_555
O157 S37 1.435529 1_555
O158 S38 1.435529 1_555
O159 S39 1.435529 1_555
O160 S40 1.418156 1_555
O161 S41 1.418156 1_555
O162 S42 1.418156 1_555
O163 S43 1.418156 1_555
O164 S44 1.418156 1_555
O165 S45 1.418156 1_555
O166 S46 1.418156 1_555
O167 S47 1.418156 1_555
