# generated using pymatgen
data_NaTi2(AsO4)3
_symmetry_space_group_name_H-M   'P 1'
_cell_length_a   9.17861929
_cell_length_b   9.17861929
_cell_length_c   9.17861955
_cell_angle_alpha   58.70246415
_cell_angle_beta   58.70246415
_cell_angle_gamma   58.70246858
_symmetry_Int_Tables_number   1
_chemical_formula_structural   NaTi2(AsO4)3
_chemical_formula_sum   'Na2 Ti4 As6 O24'
_cell_volume   530.57439389
_cell_formula_units_Z   2
loop_
 _symmetry_equiv_pos_site_id
 _symmetry_equiv_pos_as_xyz
  1  'x, y, z'
loop_
 _atom_site_type_symbol
 _atom_site_label
 _atom_site_symmetry_multiplicity
 _atom_site_fract_x
 _atom_site_fract_y
 _atom_site_fract_z
 _atom_site_occupancy
  Na  Na0  1  0.50000000  0.50000000  0.50000000  1
  Na  Na1  1  0.00000000  0.00000000  0.00000000  1
  Ti  Ti0  1  0.35656500  0.35656500  0.35656500  1
  Ti  Ti1  1  0.85656500  0.85656500  0.85656500  1
  Ti  Ti2  1  0.64343500  0.64343500  0.64343500  1
  Ti  Ti3  1  0.14343500  0.14343500  0.14343500  1
  As  As0  1  0.96330300  0.53669700  0.25000000  1
  As  As1  1  0.25000000  0.96330300  0.53669700  1
  As  As2  1  0.53669700  0.25000000  0.96330300  1
  As  As3  1  0.75000000  0.03669700  0.46330300  1
  As  As4  1  0.46330300  0.75000000  0.03669700  1
  As  As5  1  0.03669700  0.46330300  0.75000000  1
  O  O0  1  0.14589700  0.50395100  0.28504100  1
  O  O1  1  0.28504100  0.14589700  0.50395100  1
  O  O2  1  0.50395100  0.28504100  0.14589700  1
  O  O3  1  0.78504100  0.00395100  0.64589700  1
  O  O4  1  0.64589700  0.78504100  0.00395100  1
  O  O5  1  0.00395100  0.64589700  0.78504100  1
  O  O6  1  0.85410300  0.49604900  0.71495900  1
  O  O7  1  0.71495900  0.85410300  0.49604900  1
  O  O8  1  0.49604900  0.71495900  0.85410300  1
  O  O9  1  0.21495900  0.99604900  0.35410300  1
  O  O10  1  0.35410300  0.21495900  0.99604900  1
  O  O11  1  0.99604900  0.35410300  0.21495900  1
  O  O12  1  0.23134200  0.44186500  0.56782900  1
  O  O13  1  0.56782900  0.23134200  0.44186500  1
  O  O14  1  0.44186500  0.56782900  0.23134200  1
  O  O15  1  0.06782900  0.94186500  0.73134200  1
  O  O16  1  0.73134200  0.06782900  0.94186500  1
  O  O17  1  0.94186500  0.73134200  0.06782900  1
  O  O18  1  0.76865800  0.55813500  0.43217100  1
  O  O19  1  0.43217100  0.76865800  0.55813500  1
  O  O20  1  0.55813500  0.43217100  0.76865800  1
  O  O21  1  0.93217100  0.05813500  0.26865800  1
  O  O22  1  0.26865800  0.93217100  0.05813500  1
  O  O23  1  0.05813500  0.26865800  0.93217100  1
loop_
_geom_bond_atom_site_label_1
_geom_bond_atom_site_label_2
_geom_bond_distance
_geom_bond_site_symmetry_2
Na0 O12 2.485946 1_555
Na0 O18 2.485946 1_555
Na0 O19 2.485946 1_555
Na0 O13 2.485946 1_555
Na0 O20 2.485946 1_555
Na0 O14 2.485946 1_555
Na1 O17 2.485946 1_445
Na1 O23 2.485946 1_554
Na1 O22 2.485946 1_545
Na1 O16 2.485946 1_454
Na1 O15 2.485946 1_544
Na1 O21 2.485946 1_455
As0 O18 1.702736 1_555
As0 O17 1.702736 1_555
As0 O0 1.714314 1_655
As0 O11 1.714314 1_555
As1 O15 1.702736 1_555
As1 O19 1.702736 1_555
As1 O1 1.714313 1_565
As1 O9 1.714314 1_555
As2 O20 1.702736 1_555
As2 O16 1.702736 1_555
As2 O10 1.714313 1_555
As2 O2 1.714314 1_556
As3 O21 1.702736 1_555
As3 O13 1.702736 1_555
As3 O7 1.714313 1_545
As3 O3 1.714314 1_555
As4 O14 1.702736 1_555
As4 O22 1.702736 1_555
As4 O4 1.714313 1_555
As4 O8 1.714314 1_554
As5 O23 1.702736 1_555
As5 O12 1.702736 1_555
As5 O5 1.714314 1_555
As5 O6 1.714314 1_455
O0 Ti0 1.917926 1_555
O1 Ti0 1.917925 1_555
O2 Ti0 1.917926 1_555
O3 Ti1 1.917926 1_545
O4 Ti1 1.917925 1_554
O5 Ti1 1.917926 1_455
O6 Ti2 1.917926 1_555
O7 Ti2 1.917925 1_555
O8 Ti2 1.917926 1_555
O9 Ti3 1.917926 1_565
O10 Ti3 1.917925 1_556
O11 Ti3 1.917926 1_655
O12 Ti0 2.005244 1_555
O13 Ti0 2.005244 1_555
O14 Ti0 2.005244 1_555
O15 Ti1 2.005244 1_455
O16 Ti1 2.005244 1_545
O17 Ti1 2.005244 1_554
O18 Ti2 2.005244 1_555
O19 Ti2 2.005244 1_555
O20 Ti2 2.005244 1_555
O21 Ti3 2.005244 1_655
O22 Ti3 2.005244 1_565
O23 Ti3 2.005244 1_556
