# generated using pymatgen
data_Y2O3
_symmetry_space_group_name_H-M   'P 1'
_cell_length_a   3.80614400
_cell_length_b   3.80614400
_cell_length_c   5.55722500
_cell_angle_alpha   90.00000000
_cell_angle_beta   90.00000000
_cell_angle_gamma   90.00000000
_symmetry_Int_Tables_number   1
_chemical_formula_structural   Y2O3
_chemical_formula_sum   'Y2 O3'
_cell_volume   80.50603007
_cell_formula_units_Z   1
loop_
 _symmetry_equiv_pos_site_id
 _symmetry_equiv_pos_as_xyz
  1  'x, y, z'
loop_
 _atom_site_type_symbol
 _atom_site_label
 _atom_site_symmetry_multiplicity
 _atom_site_fract_x
 _atom_site_fract_y
 _atom_site_fract_z
 _atom_site_occupancy
  Y  Y0  1  0.50000000  0.00000000  0.78874500  1
  Y  Y1  1  0.00000000  0.50000000  0.21125500  1
  O  O0  1  0.00000000  0.00000000  0.00000000  1
  O  O1  1  0.50000000  0.50000000  0.00000000  1
  O  O2  1  0.00000000  0.00000000  0.50000000  1
loop_
_geom_bond_atom_site_label_1
_geom_bond_atom_site_label_2
_geom_bond_distance
_geom_bond_site_symmetry_2
O0 Y1 2.236054 1_555
O0 Y1 2.236054 1_545
O0 Y0 2.236054 1_454
O0 Y0 2.236054 1_554
O1 Y1 2.236054 1_555
O1 Y1 2.236054 1_655
O1 Y0 2.236054 1_564
O1 Y0 2.236054 1_554
O2 Y0 2.489275 1_455
O2 Y0 2.489275 1_555
O2 Y1 2.489275 1_555
O2 Y1 2.489275 1_545
