# generated using pymatgen
data_Li4MoO5
_symmetry_space_group_name_H-M   'P 1'
_cell_length_a   5.03178019
_cell_length_b   5.07494537
_cell_length_c   7.65322355
_cell_angle_alpha   108.34761035
_cell_angle_beta   102.03719046
_cell_angle_gamma   101.29352512
_symmetry_Int_Tables_number   1
_chemical_formula_structural   Li4MoO5
_chemical_formula_sum   'Li8 Mo2 O10'
_cell_volume   174.07322404
_cell_formula_units_Z   2
loop_
 _symmetry_equiv_pos_site_id
 _symmetry_equiv_pos_as_xyz
  1  'x, y, z'
loop_
 _atom_site_type_symbol
 _atom_site_label
 _atom_site_symmetry_multiplicity
 _atom_site_fract_x
 _atom_site_fract_y
 _atom_site_fract_z
 _atom_site_occupancy
  Li  Li0  1  0.42278636  0.80860344  0.29647239  1
  Li  Li1  1  0.57721364  0.19139656  0.70352761  1
  Li  Li2  1  -0.00000000  -0.00000000  0.50000000  1
  Li  Li3  1  0.50000000  -0.00000000  0.00000000  1
  Li  Li4  1  0.21905634  0.40293948  0.90422133  1
  Li  Li5  1  0.78094366  0.59706052  0.09577867  1
  Li  Li6  1  0.30914010  0.61459605  0.61103898  1
  Li  Li7  1  0.69085990  0.38540395  0.38896102  1
  Mo  Mo0  1  0.89481208  0.77290597  0.78139038  1
  Mo  Mo1  1  0.10518792  0.22709303  0.21860962  1
  O  O0  1  0.57396808  0.60854331  0.84477759  1
  O  O1  1  0.42603192  0.39145669  0.15522241  1
  O  O2  1  0.05052825  0.57342618  0.33850211  1
  O  O3  1  0.94947175  0.42657382  0.66149789  1
  O  O4  1  0.13259476  0.82039342  0.04095784  1
  O  O5  1  0.86740524  0.17960658  0.95904216  1
  O  O6  1  0.22353086  0.98899953  0.75185904  1
  O  O7  1  0.77646914  0.01100047  0.24814096  1
  O  O8  1  0.33267056  0.18842336  0.42721936  1
  O  O9  1  0.66732944  0.81157664  0.57278064  1
loop_
_geom_bond_atom_site_label_1
_geom_bond_atom_site_label_2
_geom_bond_distance
_geom_bond_site_symmetry_2
Li0 O7 2.038829 1_565
Li0 O1 2.056863 1_555
Li0 O8 2.059048 1_565
Li0 O2 2.157291 1_555
Li0 O9 2.207580 1_555
Li0 O4 2.208312 1_555
Li1 O6 2.038829 1_545
Li1 O0 2.056863 1_555
Li1 O9 2.059048 1_545
Li1 O3 2.157291 1_555
Li1 O8 2.207580 1_555
Li1 O5 2.208312 1_555
Li2 O9 2.030752 1_445
Li2 O8 2.030752 1_555
Li2 O6 2.042464 1_545
Li2 O7 2.042464 1_455
Li2 O2 2.222823 1_545
Li2 O3 2.222823 1_455
Li3 O4 2.026909 1_545
Li3 O5 2.026909 1_554
Li3 O6 2.084657 1_544
Li3 O7 2.084657 1_555
Li3 O1 2.117702 1_555
Li3 O0 2.117702 1_544
Li4 O1 2.009465 1_556
Li4 O6 2.064112 1_545
Li4 O0 2.095901 1_555
Li4 O5 2.101200 1_455
Li4 O3 2.111441 1_455
Li4 O4 2.219866 1_556
Li5 O0 2.009465 1_554
Li5 O7 2.064112 1_565
Li5 O1 2.095901 1_555
Li5 O4 2.101200 1_655
Li5 O2 2.111441 1_655
Li5 O5 2.219866 1_554
Li6 O9 2.008023 1_555
Li6 O0 2.008240 1_555
Li6 O3 2.044999 1_455
Li6 O6 2.045084 1_555
Li6 O2 2.138823 1_555
Li6 O8 2.219253 1_555
Li7 O8 2.008023 1_555
Li7 O1 2.008240 1_555
Li7 O2 2.044999 1_655
Li7 O7 2.045084 1_555
Li7 O3 2.138823 1_555
Li7 O9 2.219253 1_555
Mo0 O3 1.812752 1_555
Mo0 O9 1.849505 1_555
Mo0 O6 1.895020 1_655
Mo0 O0 1.895106 1_555
Mo0 O4 2.007541 1_656
Mo0 O5 2.133210 1_565
Mo1 O2 1.812756 1_555
Mo1 O8 1.849503 1_555
Mo1 O7 1.895018 1_455
Mo1 O1 1.895108 1_555
Mo1 O5 2.007542 1_454
Mo1 O4 2.133206 1_545
