# generated using pymatgen
data_CaFeSeO
_symmetry_space_group_name_H-M   'P 1'
_cell_length_a   3.93730300
_cell_length_b   6.03420100
_cell_length_c   13.49444400
_cell_angle_alpha   90.00000000
_cell_angle_beta   90.00000000
_cell_angle_gamma   90.00000000
_symmetry_Int_Tables_number   1
_chemical_formula_structural   CaFeSeO
_chemical_formula_sum   'Ca4 Fe4 Se4 O4'
_cell_volume   320.60744685
_cell_formula_units_Z   4
loop_
 _symmetry_equiv_pos_site_id
 _symmetry_equiv_pos_as_xyz
  1  'x, y, z'
loop_
 _atom_site_type_symbol
 _atom_site_label
 _atom_site_symmetry_multiplicity
 _atom_site_fract_x
 _atom_site_fract_y
 _atom_site_fract_z
 _atom_site_occupancy
  Ca  Ca0  1  0.75000000  0.25111400  0.08157600  1
  Ca  Ca1  1  0.75000000  0.75111400  0.41842400  1
  Ca  Ca2  1  0.25000000  0.74888600  0.91842400  1
  Ca  Ca3  1  0.25000000  0.24888600  0.58157600  1
  Fe  Fe0  1  0.75000000  0.38764500  0.79441900  1
  Fe  Fe1  1  0.75000000  0.88764500  0.70558100  1
  Fe  Fe2  1  0.25000000  0.61235500  0.20558100  1
  Fe  Fe3  1  0.25000000  0.11235500  0.29441900  1
  Se  Se0  1  0.75000000  0.25770800  0.40558500  1
  Se  Se1  1  0.75000000  0.75770800  0.09441500  1
  Se  Se2  1  0.25000000  0.74229200  0.59441500  1
  Se  Se3  1  0.25000000  0.24229200  0.90558500  1
  O  O0  1  0.75000000  0.20726600  0.67258400  1
  O  O1  1  0.75000000  0.70726600  0.82741600  1
  O  O2  1  0.25000000  0.79273400  0.32741600  1
  O  O3  1  0.25000000  0.29273400  0.17258400  1
loop_
_geom_bond_atom_site_label_1
_geom_bond_atom_site_label_2
_geom_bond_distance
_geom_bond_site_symmetry_2
Ca0 O3 2.333859 1_555
Ca0 O3 2.333859 1_655
Ca0 Se1 2.982348 1_545
Ca0 Se1 3.061796 1_555
Ca0 Se3 3.085219 1_554
Ca0 Se3 3.085219 1_654
Ca1 O2 2.333859 1_555
Ca1 O2 2.333859 1_655
Ca1 Se0 2.982348 1_555
Ca1 Se0 3.061796 1_565
Ca1 Se2 3.085219 1_555
Ca1 Se2 3.085219 1_655
Ca2 O1 2.333859 1_455
Ca2 O1 2.333859 1_555
Ca2 Se3 2.982348 1_565
Ca2 Se3 3.061796 1_555
Ca2 Se1 3.085219 1_556
Ca2 Se1 3.085219 1_456
Ca3 O0 2.333859 1_455
Ca3 O0 2.333859 1_555
Ca3 Se2 2.982348 1_555
Ca3 Se2 3.061796 1_545
Ca3 Se0 3.085219 1_555
Ca3 Se0 3.085219 1_455
Fe0 O0 1.971740 1_555
Fe0 O1 1.979391 1_555
Fe0 Se3 2.625880 1_555
Fe0 Se3 2.625880 1_655
Fe1 O1 1.971740 1_555
Fe1 O0 1.979391 1_565
Fe1 Se2 2.625880 1_655
Fe1 Se2 2.625880 1_555
Fe2 O2 1.971740 1_555
Fe2 O3 1.979391 1_555
Fe2 Se1 2.625880 1_455
Fe2 Se1 2.625880 1_555
Fe3 O3 1.971740 1_555
Fe3 O2 1.979391 1_545
Fe3 Se0 2.625880 1_555
Fe3 Se0 2.625880 1_455
