# generated using pymatgen
data_Al2Fe3(PO5)3
_symmetry_space_group_name_H-M   'P 1'
_cell_length_a   10.48010900
_cell_length_b   7.22535800
_cell_length_c   16.13439932
_cell_angle_alpha   80.94554368
_cell_angle_beta   90.00000000
_cell_angle_gamma   90.00000000
_symmetry_Int_Tables_number   1
_chemical_formula_structural   Al2Fe3(PO5)3
_chemical_formula_sum   'Al8 Fe12 P12 O60'
_cell_volume   1206.51387466
_cell_formula_units_Z   4
loop_
 _symmetry_equiv_pos_site_id
 _symmetry_equiv_pos_as_xyz
  1  'x, y, z'
loop_
 _atom_site_type_symbol
 _atom_site_label
 _atom_site_symmetry_multiplicity
 _atom_site_fract_x
 _atom_site_fract_y
 _atom_site_fract_z
 _atom_site_occupancy
  Al  Al0  1  0.17811900  0.35954100  0.99013200  1
  Al  Al1  1  0.17251200  0.36452500  0.31612800  1
  Al  Al2  1  0.67251200  0.63547500  0.18387200  1
  Al  Al3  1  0.67811900  0.64045900  0.50986800  1
  Al  Al4  1  0.32188100  0.35954100  0.49013200  1
  Al  Al5  1  0.32748800  0.36452500  0.81612800  1
  Al  Al6  1  0.82188100  0.64045900  0.00986800  1
  Al  Al7  1  0.82748800  0.63547500  0.68387200  1
  Fe  Fe0  1  0.63638900  0.98532100  0.04247200  1
  Fe  Fe1  1  0.64951400  0.98536200  0.36982800  1
  Fe  Fe2  1  0.63672200  0.96915600  0.71282500  1
  Fe  Fe3  1  0.14951400  0.01463800  0.13017200  1
  Fe  Fe4  1  0.13638900  0.01467900  0.45752800  1
  Fe  Fe5  1  0.13672200  0.03084400  0.78717500  1
  Fe  Fe6  1  0.36361100  0.01467900  0.95752800  1
  Fe  Fe7  1  0.36327800  0.03084400  0.28717500  1
  Fe  Fe8  1  0.35048600  0.01463800  0.63017200  1
  Fe  Fe9  1  0.85048600  0.98536200  0.86982800  1
  Fe  Fe10  1  0.86327800  0.96915600  0.21282500  1
  Fe  Fe11  1  0.86361100  0.98532100  0.54247200  1
  P  P0  1  0.60363500  0.23814900  0.85518200  1
  P  P1  1  0.59560800  0.22407900  0.17909600  1
  P  P2  1  0.59605500  0.22243700  0.52236100  1
  P  P3  1  0.39636500  0.76185100  0.14481800  1
  P  P4  1  0.40394500  0.77756300  0.47763900  1
  P  P5  1  0.40439200  0.77592100  0.82090400  1
  P  P6  1  0.90394500  0.22243700  0.02236100  1
  P  P7  1  0.89636500  0.23814900  0.35518200  1
  P  P8  1  0.90439200  0.22407900  0.67909600  1
  P  P9  1  0.09605500  0.77756300  0.97763900  1
  P  P10  1  0.09560800  0.77592100  0.32090400  1
  P  P11  1  0.10363500  0.76185100  0.64481800  1
  O  O0  1  0.45278200  0.89277700  0.06112600  1
  O  O1  1  0.45155800  0.89730400  0.39376800  1
  O  O2  1  0.44795900  0.89340100  0.73267600  1
  O  O3  1  0.95155800  0.10269600  0.10623200  1
  O  O4  1  0.95278200  0.10722300  0.43887400  1
  O  O5  1  0.94795900  0.10659900  0.76732400  1
  O  O6  1  0.54721800  0.10722300  0.93887400  1
  O  O7  1  0.55204100  0.10659900  0.26732400  1
  O  O8  1  0.54844200  0.10269600  0.60623200  1
  O  O9  1  0.04844200  0.89730400  0.89376800  1
  O  O10  1  0.05204100  0.89340100  0.23267600  1
  O  O11  1  0.04721800  0.89277700  0.56112600  1
  O  O12  1  0.69430700  0.08266500  0.14410200  1
  O  O13  1  0.68591800  0.08923800  0.47980300  1
  O  O14  1  0.68241600  0.09054400  0.81090600  1
  O  O15  1  0.18591800  0.91076200  0.02019700  1
  O  O16  1  0.19430700  0.91733500  0.35589800  1
  O  O17  1  0.18241600  0.90945600  0.68909400  1
  O  O18  1  0.30569300  0.91733500  0.85589800  1
  O  O19  1  0.31758400  0.90945600  0.18909400  1
  O  O20  1  0.31408200  0.91076200  0.52019700  1
  O  O21  1  0.81408200  0.08923800  0.97980300  1
  O  O22  1  0.81758400  0.09054400  0.31090600  1
  O  O23  1  0.80569300  0.08266500  0.64410200  1
  O  O24  1  0.98160300  0.71877700  0.03577100  1
  O  O25  1  0.99058900  0.73520500  0.38281400  1
  O  O26  1  0.98464100  0.71447000  0.70136700  1
  O  O27  1  0.49058900  0.26479500  0.11718600  1
  O  O28  1  0.48160300  0.28122300  0.46422900  1
  O  O29  1  0.48464100  0.28553000  0.79863300  1
  O  O30  1  0.01839700  0.28122300  0.96422900  1
  O  O31  1  0.01535900  0.28553000  0.29863300  1
  O  O32  1  0.00941100  0.26479500  0.61718600  1
  O  O33  1  0.50941100  0.73520500  0.88281400  1
  O  O34  1  0.51535900  0.71447000  0.20136700  1
  O  O35  1  0.51839700  0.71877700  0.53577100  1
  O  O36  1  0.80302800  0.75074900  0.90774500  1
  O  O37  1  0.78913700  0.74491900  0.23383300  1
  O  O38  1  0.79392000  0.73172400  0.57412200  1
  O  O39  1  0.29392000  0.26827600  0.92587800  1
  O  O40  1  0.28913700  0.25508100  0.26616700  1
  O  O41  1  0.30302800  0.24925100  0.59225500  1
  O  O42  1  0.19697200  0.24925100  0.09225500  1
  O  O43  1  0.20608000  0.26827600  0.42587800  1
  O  O44  1  0.21086300  0.25508100  0.76616700  1
  O  O45  1  0.70608000  0.73172400  0.07412200  1
  O  O46  1  0.69697200  0.75074900  0.40774500  1
  O  O47  1  0.71086300  0.74491900  0.73383300  1
  O  O48  1  0.68574100  0.38977500  0.87628900  1
  O  O49  1  0.67550200  0.38958700  0.20024900  1
  O  O50  1  0.67144600  0.39388000  0.53988400  1
  O  O51  1  0.31425900  0.61022500  0.12371100  1
  O  O52  1  0.32855400  0.60612000  0.46011600  1
  O  O53  1  0.32449800  0.61041300  0.79975100  1
  O  O54  1  0.17144600  0.60612000  0.96011600  1
  O  O55  1  0.17550200  0.61041300  0.29975100  1
  O  O56  1  0.18574100  0.61022500  0.62371100  1
  O  O57  1  0.82855400  0.39388000  0.03988400  1
  O  O58  1  0.81425900  0.38977500  0.37628900  1
  O  O59  1  0.82449800  0.38958700  0.70024900  1
loop_
_geom_bond_atom_site_label_1
_geom_bond_atom_site_label_2
_geom_bond_distance
_geom_bond_site_symmetry_2
Al0 O42 1.725018 1_556
Al0 O54 1.772578 1_555
Al0 O39 1.788182 1_555
Al0 O30 1.836102 1_555
Al1 O40 1.723256 1_555
Al1 O55 1.754838 1_555
Al1 O31 1.780086 1_555
Al1 O43 1.831763 1_555
Al2 O37 1.723256 1_555
Al2 O49 1.754838 1_555
Al2 O34 1.780086 1_555
Al2 O45 1.831763 1_555
Al3 O46 1.725018 1_555
Al3 O50 1.772578 1_555
Al3 O38 1.788182 1_555
Al3 O35 1.836102 1_555
Al4 O41 1.725018 1_555
Al4 O52 1.772578 1_555
Al4 O43 1.788182 1_555
Al4 O28 1.836102 1_555
Al5 O44 1.723256 1_555
Al5 O53 1.754838 1_555
Al5 O29 1.780086 1_555
Al5 O39 1.831763 1_555
Al6 O36 1.725018 1_554
Al6 O57 1.772578 1_555
Al6 O45 1.788182 1_555
Al6 O24 1.836102 1_555
Al7 O47 1.723256 1_555
Al7 O59 1.754838 1_555
Al7 O26 1.780086 1_555
Al7 O38 1.831763 1_555
Fe0 O45 1.963958 1_555
Fe0 O12 1.978603 1_565
Fe0 O6 1.994899 1_564
Fe0 O0 2.043766 1_555
Fe0 O21 2.194340 1_564
Fe1 O46 1.780113 1_555
Fe1 O7 2.022391 1_565
Fe1 O13 2.067960 1_565
Fe1 O22 2.087209 1_565
Fe1 O1 2.186464 1_555
Fe2 O47 1.780675 1_555
Fe2 O14 1.984859 1_565
Fe2 O8 2.054852 1_565
Fe2 O2 2.064099 1_555
Fe2 O23 2.179842 1_565
Fe3 O42 1.780113 1_555
Fe3 O10 2.022391 1_545
Fe3 O15 2.067960 1_545
Fe3 O19 2.087209 1_545
Fe3 O3 2.186464 1_455
Fe4 O43 1.963958 1_555
Fe4 O16 1.978603 1_545
Fe4 O11 1.994899 1_545
Fe4 O4 2.043766 1_455
Fe4 O20 2.194340 1_545
Fe5 O44 1.780675 1_555
Fe5 O17 1.984859 1_545
Fe5 O9 2.054852 1_545
Fe5 O5 2.064099 1_455
Fe5 O18 2.179842 1_545
Fe6 O39 1.963958 1_555
Fe6 O18 1.978603 1_545
Fe6 O0 1.994899 1_546
Fe6 O6 2.043766 1_555
Fe6 O15 2.194340 1_546
Fe7 O40 1.780675 1_555
Fe7 O19 1.984859 1_545
Fe7 O1 2.054852 1_545
Fe7 O7 2.064099 1_555
Fe7 O16 2.179842 1_545
Fe8 O41 1.780113 1_555
Fe8 O2 2.022391 1_545
Fe8 O20 2.067960 1_545
Fe8 O17 2.087209 1_545
Fe8 O8 2.186464 1_555
Fe9 O36 1.780113 1_555
Fe9 O5 2.022391 1_565
Fe9 O21 2.067960 1_565
Fe9 O14 2.087209 1_565
Fe9 O9 2.186464 1_655
Fe10 O37 1.780675 1_555
Fe10 O22 1.984859 1_565
Fe10 O3 2.054852 1_565
Fe10 O10 2.064099 1_655
Fe10 O12 2.179842 1_565
Fe11 O38 1.963958 1_555
Fe11 O23 1.978603 1_565
Fe11 O4 1.994899 1_565
Fe11 O11 2.043766 1_655
Fe11 O13 2.194340 1_565
O0 P3 1.632724 1_555
O1 P4 1.568500 1_555
O2 P5 1.604695 1_555
O3 P6 1.568500 1_555
O4 P7 1.632724 1_555
O5 P8 1.604695 1_555
O6 P0 1.632724 1_555
O7 P1 1.604695 1_555
O8 P2 1.568500 1_555
O9 P9 1.568500 1_555
O10 P10 1.604695 1_555
O11 P11 1.632724 1_555
O12 P1 1.616879 1_555
O13 P2 1.578814 1_555
O14 P0 1.602874 1_555
O15 P9 1.578814 1_554
O16 P10 1.616879 1_555
O17 P11 1.602874 1_555
O18 P5 1.616879 1_555
O19 P3 1.602874 1_555
O20 P4 1.578814 1_555
O21 P6 1.578814 1_556
O22 P7 1.602874 1_555
O23 P8 1.616879 1_555
O24 P9 1.540601 1_654
O25 P10 1.484305 1_655
O26 P11 1.551295 1_655
O27 P1 1.484305 1_555
O28 P2 1.540601 1_555
O29 P0 1.551295 1_555
O30 P6 1.540601 1_456
O31 P7 1.551295 1_455
O32 P8 1.484305 1_455
O33 P5 1.484305 1_555
O34 P3 1.551295 1_555
O35 P4 1.540601 1_555
O48 P0 1.474470 1_555
O49 P1 1.541452 1_555
O50 P2 1.532612 1_555
O51 P3 1.474470 1_555
O52 P4 1.532612 1_555
O53 P5 1.541452 1_555
O54 P9 1.532612 1_555
O55 P10 1.541452 1_555
O56 P11 1.474470 1_555
O57 P6 1.532612 1_555
O58 P7 1.474470 1_555
O59 P8 1.541452 1_555
