# generated using pymatgen
data_Y3CuGeSe7
_symmetry_space_group_name_H-M   'P 1'
_cell_length_a   10.34170367
_cell_length_b   10.34170367
_cell_length_c   6.15214300
_cell_angle_alpha   90.00000000
_cell_angle_beta   90.00000000
_cell_angle_gamma   119.99999788
_symmetry_Int_Tables_number   1
_chemical_formula_structural   Y3CuGeSe7
_chemical_formula_sum   'Y6 Cu2 Ge2 Se14'
_cell_volume   569.82466161
_cell_formula_units_Z   2
loop_
 _symmetry_equiv_pos_site_id
 _symmetry_equiv_pos_as_xyz
  1  'x, y, z'
loop_
 _atom_site_type_symbol
 _atom_site_label
 _atom_site_symmetry_multiplicity
 _atom_site_fract_x
 _atom_site_fract_y
 _atom_site_fract_z
 _atom_site_occupancy
  Y  Y0  1  0.86328500  0.64384900  0.25126700  1
  Y  Y1  1  0.21943600  0.86328500  0.75126700  1
  Y  Y2  1  0.64384900  0.78056400  0.75126700  1
  Y  Y3  1  0.35615100  0.21943600  0.25126700  1
  Y  Y4  1  0.78056400  0.13671500  0.25126700  1
  Y  Y5  1  0.13671500  0.35615100  0.75126700  1
  Cu  Cu0  1  0.00000000  0.00000000  0.69226900  1
  Cu  Cu1  1  0.00000000  0.00000000  0.19226900  1
  Ge  Ge0  1  0.66666700  0.33333300  0.83421900  1
  Ge  Ge1  1  0.33333300  0.66666700  0.33421900  1
  Se  Se0  1  0.57461000  0.48170200  0.00055100  1
  Se  Se1  1  0.48170200  0.90709200  0.50055100  1
  Se  Se2  1  0.90709200  0.42539000  0.00055100  1
  Se  Se3  1  0.09290800  0.57461000  0.50055100  1
  Se  Se4  1  0.51829800  0.09290800  0.00055100  1
  Se  Se5  1  0.42539000  0.51829800  0.50055100  1
  Se  Se6  1  0.33333300  0.66666700  0.94904300  1
  Se  Se7  1  0.66666700  0.33333300  0.44904300  1
  Se  Se8  1  0.84118300  0.10368600  0.71000500  1
  Se  Se9  1  0.73749700  0.84118300  0.21000500  1
  Se  Se10  1  0.10368600  0.26250300  0.21000500  1
  Se  Se11  1  0.89631400  0.73749700  0.71000500  1
  Se  Se12  1  0.26250300  0.15881700  0.71000500  1
  Se  Se13  1  0.15881700  0.89631400  0.21000500  1
loop_
_geom_bond_atom_site_label_1
_geom_bond_atom_site_label_2
_geom_bond_distance
_geom_bond_site_symmetry_2
Cu0 Se8 2.370756 1_455
Cu0 Se11 2.370756 1_445
Cu0 Se12 2.370756 1_555
Cu0 Y1 3.238706 1_545
Cu0 Y5 3.238706 1_555
Cu0 Y2 3.238706 1_445
Cu1 Se13 2.370756 1_545
Cu1 Se10 2.370756 1_555
Cu1 Se9 2.370756 1_445
Cu1 Y4 3.238706 1_455
Cu1 Y0 3.238706 1_445
Cu1 Y3 3.238706 1_555
Ge0 Se7 2.369658 1_555
Ge0 Se2 2.401786 1_556
Ge0 Se4 2.401787 1_556
Ge0 Se0 2.401795 1_556
Ge1 Se6 2.369658 1_554
Ge1 Se3 2.401786 1_555
Ge1 Se1 2.401787 1_555
Ge1 Se5 2.401795 1_555
Se0 Y3 2.951618 1_555
Se0 Y0 3.016201 1_555
Se0 Y2 3.194419 1_554
Se1 Y1 2.951618 1_555
Se1 Y2 3.016201 1_555
Se1 Y4 3.194419 1_565
Se2 Y0 2.951618 1_555
Se2 Y4 3.016201 1_555
Se2 Y5 3.194419 1_654
Se3 Y5 2.951618 1_555
Se3 Y1 3.016201 1_555
Se3 Y0 3.194419 1_455
Se4 Y4 2.951618 1_555
Se4 Y3 3.016201 1_555
Se4 Y1 3.194419 1_544
Se5 Y2 2.951618 1_555
Se5 Y5 3.016201 1_555
Se5 Y3 3.194419 1_555
Se6 Y1 3.065542 1_555
Se6 Y5 3.065549 1_555
Se6 Y2 3.065551 1_555
Se7 Y4 3.065542 1_555
Se7 Y0 3.065549 1_555
Se7 Y3 3.065551 1_555
Se8 Y5 2.870988 1_655
Se8 Y2 2.928512 1_545
Se8 Y4 2.947669 1_555
Se8 Y4 3.436887 1_556
Se9 Y4 2.870988 1_565
Se9 Y0 2.928512 1_555
Se9 Y2 2.947669 1_554
Se9 Y2 3.436887 1_555
Se10 Y3 2.870987 1_555
Se10 Y4 2.928512 1_455
Se10 Y5 2.947669 1_554
Se10 Y5 3.436887 1_555
Se11 Y2 2.870987 1_555
Se11 Y1 2.928512 1_655
Se11 Y0 2.947669 1_555
Se11 Y0 3.436887 1_556
Se12 Y1 2.870988 1_545
Se12 Y5 2.928512 1_555
Se12 Y3 2.947669 1_555
Se12 Y3 3.436887 1_556
Se13 Y0 2.870988 1_455
Se13 Y3 2.928512 1_565
Se13 Y1 2.947669 1_554
Se13 Y1 3.436887 1_555
