# generated using pymatgen
data_LiLaV4O12
_symmetry_space_group_name_H-M   'P 1'
_cell_length_a   5.45495836
_cell_length_b   5.45495836
_cell_length_c   7.40846093
_cell_angle_alpha   90.00000000
_cell_angle_beta   90.00000000
_cell_angle_gamma   97.41933931
_symmetry_Int_Tables_number   1
_chemical_formula_structural   LiLaV4O12
_chemical_formula_sum   'Li1 La1 V4 O12'
_cell_volume   218.60470023
_cell_formula_units_Z   1
loop_
 _symmetry_equiv_pos_site_id
 _symmetry_equiv_pos_as_xyz
  1  'x, y, z'
loop_
 _atom_site_type_symbol
 _atom_site_label
 _atom_site_symmetry_multiplicity
 _atom_site_fract_x
 _atom_site_fract_y
 _atom_site_fract_z
 _atom_site_occupancy
  Li  Li0  1  0.99886251  0.00113749  0.50000000  1
  La  La0  1  0.47054618  0.52945382  -0.00000000  1
  V  V0  1  0.47999707  0.03402492  0.25963497  1
  V  V1  1  0.47999707  0.03402492  0.74036503  1
  V  V2  1  0.96597508  0.52000293  0.74036503  1
  V  V3  1  0.96597508  0.52000293  0.25963497  1
  O  O0  1  0.30306389  0.26841985  0.25578105  1
  O  O1  1  0.73158015  0.69693611  0.25578105  1
  O  O2  1  0.73158015  0.69693611  0.74421895  1
  O  O3  1  0.30306389  0.26841985  0.74421895  1
  O  O4  1  0.24266363  0.75733637  0.20770935  1
  O  O5  1  0.79560353  0.20439647  0.30425751  1
  O  O6  1  0.79560353  0.20439647  0.69574249  1
  O  O7  1  0.24266363  0.75733637  0.79229065  1
  O  O8  1  0.54919566  0.04012916  0.00000000  1
  O  O9  1  0.43732322  0.95856511  0.50000000  1
  O  O10  1  0.95987084  0.45080434  -0.00000000  1
  O  O11  1  0.04143489  0.56267678  0.50000000  1
loop_
_geom_bond_atom_site_label_1
_geom_bond_atom_site_label_2
_geom_bond_distance
_geom_bond_site_symmetry_2
Li0 O6 2.208885 1_555
Li0 O5 2.208885 1_555
Li0 O9 2.432697 1_645
Li0 O11 2.432697 1_645
La0 O7 2.420238 1_554
La0 O4 2.420238 1_555
La0 O2 2.473276 1_554
La0 O0 2.473276 1_555
La0 O3 2.473276 1_554
La0 O1 2.473276 1_555
La0 O10 2.757661 1_555
La0 O8 2.757661 1_555
La0 O8 2.763259 1_565
La0 O10 2.763259 1_455
O0 V0 1.698800 1_555
O0 V3 2.432522 1_455
O1 V3 1.698800 1_555
O1 V0 2.432522 1_565
O2 V2 1.698800 1_555
O2 V1 2.432522 1_565
O3 V1 1.698800 1_555
O3 V2 2.432522 1_455
O4 V3 1.896707 1_455
O4 V0 1.896707 1_565
O5 V3 1.877170 1_555
O5 V0 1.877170 1_555
O6 V2 1.877170 1_555
O6 V1 1.877170 1_555
O7 V2 1.896707 1_455
O7 V1 1.896707 1_565
O8 V0 1.959639 1_555
O8 V1 1.959639 1_554
O9 V1 1.835728 1_565
O9 V0 1.835728 1_565
O10 V2 1.959639 1_554
O10 V3 1.959639 1_555
O11 V2 1.835728 1_455
O11 V3 1.835728 1_455
