# generated using pymatgen
data_Ba4Li(GeO3)4
_symmetry_space_group_name_H-M   'P 1'
_cell_length_a   4.80899823
_cell_length_b   5.85612927
_cell_length_c   13.00747519
_cell_angle_alpha   91.62774827
_cell_angle_beta   91.23664792
_cell_angle_gamma   89.33019190
_symmetry_Int_Tables_number   1
_chemical_formula_structural   Ba4Li(GeO3)4
_chemical_formula_sum   'Ba4 Li1 Ge4 O12'
_cell_volume   366.06242173
_cell_formula_units_Z   1
loop_
 _symmetry_equiv_pos_site_id
 _symmetry_equiv_pos_as_xyz
  1  'x, y, z'
loop_
 _atom_site_type_symbol
 _atom_site_label
 _atom_site_symmetry_multiplicity
 _atom_site_fract_x
 _atom_site_fract_y
 _atom_site_fract_z
 _atom_site_occupancy
  Ba  Ba0  1  0.23828700  0.75992400  0.88452300  1
  Ba  Ba1  1  0.77956600  0.68560400  0.15702500  1
  Ba  Ba2  1  0.72577300  0.30142500  0.63835200  1
  Ba  Ba3  1  0.23308600  0.19305800  0.36200200  1
  Li  Li0  1  0.69389600  0.77595300  0.73167300  1
  Ge  Ge0  1  0.79182900  0.27336800  0.90577100  1
  Ge  Ge1  1  0.30713100  0.21025300  0.07435300  1
  Ge  Ge2  1  0.20082200  0.83324000  0.58084200  1
  Ge  Ge3  1  0.69147000  0.69602500  0.43614900  1
  O  O0  1  0.75220300  0.53801700  0.83777400  1
  O  O1  1  0.25908700  0.91285500  0.09011000  1
  O  O2  1  0.23853400  0.13072700  0.57916500  1
  O  O3  1  0.74884300  0.40273300  0.41791600  1
  O  O4  1  0.77217400  0.03949700  0.81219700  1
  O  O5  1  0.23281000  0.39870800  0.17899600  1
  O  O6  1  0.32546400  0.67942200  0.68490200  1
  O  O7  1  0.76246300  0.88738400  0.33971000  1
  O  O8  1  0.31446300  0.71931300  0.45691400  1
  O  O9  1  0.82318800  0.78182800  0.56967400  1
  O  O10  1  0.67475300  0.26186900  0.04594900  1
  O  O11  1  0.17026900  0.28963200  0.94559600  1
loop_
_geom_bond_atom_site_label_1
_geom_bond_atom_site_label_2
_geom_bond_distance
_geom_bond_site_symmetry_2
Ba0 O6 2.667017 1_555
Ba0 O0 2.736339 1_455
Ba0 O1 2.796022 1_556
Ba0 O0 2.848038 1_555
Ba0 O11 2.911986 1_555
Ba0 O4 2.915597 1_465
Ba0 O11 3.195029 1_565
Ba0 O4 3.232250 1_565
Ba1 O7 2.626093 1_555
Ba1 O5 2.751373 1_655
Ba1 O1 2.840871 1_655
Ba1 O10 2.879803 1_555
Ba1 O1 2.947450 1_555
Ba1 O5 3.159253 1_555
Ba2 O2 2.648661 1_555
Ba2 O2 2.766415 1_655
Ba2 O4 2.771872 1_555
Ba2 O0 2.906927 1_555
Ba2 O3 2.949185 1_555
Ba2 O6 2.974414 1_555
Ba2 O9 3.020566 1_555
Ba2 O9 3.179088 1_545
Ba3 O5 2.698071 1_555
Ba3 O3 2.723075 1_455
Ba3 O3 2.851496 1_555
Ba3 O2 2.858016 1_555
Ba3 O7 2.906460 1_445
Ba3 O8 3.085847 1_545
Ba3 O7 3.108891 1_545
Ba3 O8 3.311509 1_555
Li0 O4 1.877613 1_565
Li0 O6 1.945833 1_555
Li0 O0 2.002061 1_555
Li0 O9 2.211160 1_555
Ge0 O4 1.808181 1_555
Ge0 O0 1.812245 1_555
Ge0 O11 1.884164 1_655
Ge0 O10 1.923108 1_556
Ge1 O5 1.767725 1_555
Ge1 O1 1.777722 1_545
Ge1 O10 1.844004 1_555
Ge1 O11 1.855731 1_554
Ge2 O6 1.739088 1_555
Ge2 O2 1.754444 1_565
Ge2 O8 1.819531 1_555
Ge2 O9 1.846257 1_455
Ge3 O3 1.746703 1_555
Ge3 O7 1.747351 1_555
Ge3 O8 1.841706 1_555
Ge3 O9 1.892259 1_555
