# generated using pymatgen
data_Rb2MoSe4
_symmetry_space_group_name_H-M   'P 1'
_cell_length_a   7.30380190
_cell_length_b   10.14112496
_cell_length_c   12.91296842
_cell_angle_alpha   90.00000000
_cell_angle_beta   90.00000000
_cell_angle_gamma   90.00000000
_symmetry_Int_Tables_number   1
_chemical_formula_structural   Rb2MoSe4
_chemical_formula_sum   'Rb8 Mo4 Se16'
_cell_volume   956.44765888
_cell_formula_units_Z   4
loop_
 _symmetry_equiv_pos_site_id
 _symmetry_equiv_pos_as_xyz
  1  'x, y, z'
loop_
 _atom_site_type_symbol
 _atom_site_label
 _atom_site_symmetry_multiplicity
 _atom_site_fract_x
 _atom_site_fract_y
 _atom_site_fract_z
 _atom_site_occupancy
  Rb  Rb0  1  0.25000000  0.45516205  0.83977406  1
  Rb  Rb1  1  0.25000000  0.95516205  0.66022594  1
  Rb  Rb2  1  0.75000000  0.54483795  0.16022594  1
  Rb  Rb3  1  0.75000000  0.04483795  0.33977406  1
  Rb  Rb4  1  0.25000000  0.15828408  0.11142035  1
  Rb  Rb5  1  0.25000000  0.65828408  0.38857965  1
  Rb  Rb6  1  0.75000000  0.84171592  0.88857965  1
  Rb  Rb7  1  0.75000000  0.34171592  0.61142035  1
  Mo  Mo0  1  0.25000000  0.25004902  0.42775660  1
  Mo  Mo1  1  0.25000000  0.75004902  0.07224340  1
  Mo  Mo2  1  0.75000000  0.74995098  0.57224340  1
  Mo  Mo3  1  0.75000000  0.24995098  0.92775660  1
  Se  Se0  1  0.49499140  0.15064426  0.85684300  1
  Se  Se1  1  0.00500860  0.65064426  0.64315700  1
  Se  Se2  1  0.99499140  0.84935574  0.14315700  1
  Se  Se3  1  0.50500860  0.34935574  0.35684300  1
  Se  Se4  1  0.50500860  0.84935574  0.14315700  1
  Se  Se5  1  0.99499140  0.34935574  0.35684300  1
  Se  Se6  1  0.00500860  0.15064426  0.85684300  1
  Se  Se7  1  0.49499140  0.65064426  0.64315700  1
  Se  Se8  1  0.25000000  0.52570696  0.11113892  1
  Se  Se9  1  0.25000000  0.02570696  0.38886108  1
  Se  Se10  1  0.75000000  0.47429304  0.88886108  1
  Se  Se11  1  0.75000000  0.97429304  0.61113892  1
  Se  Se12  1  0.25000000  0.28427958  0.60497758  1
  Se  Se13  1  0.25000000  0.78427958  0.89502242  1
  Se  Se14  1  0.75000000  0.71572042  0.39502242  1
  Se  Se15  1  0.75000000  0.21572042  0.10497758  1
loop_
_geom_bond_atom_site_label_1
_geom_bond_atom_site_label_2
_geom_bond_distance
_geom_bond_site_symmetry_2
Rb0 Se13 3.413018 1_555
Rb0 Se12 3.492223 1_555
Rb0 Se0 3.575907 1_555
Rb0 Se6 3.575907 1_555
Rb0 Se8 3.576409 1_556
Rb0 Se7 3.684814 1_555
Rb0 Se1 3.684814 1_555
Rb0 Se10 3.711576 1_455
Rb0 Se10 3.711576 1_555
Rb1 Se12 3.413018 1_565
Rb1 Se13 3.492223 1_555
Rb1 Se7 3.575907 1_555
Rb1 Se1 3.575907 1_555
Rb1 Se9 3.576409 1_565
Rb1 Se0 3.684814 1_565
Rb1 Se6 3.684814 1_565
Rb1 Se11 3.711576 1_555
Rb1 Se11 3.711576 1_455
Rb2 Se15 3.413018 1_555
Rb2 Se14 3.492223 1_555
Rb2 Se4 3.575907 1_555
Rb2 Se2 3.575907 1_555
Rb2 Se10 3.576409 1_554
Rb2 Se5 3.684814 1_555
Rb2 Se3 3.684814 1_555
Rb2 Se8 3.711576 1_655
Rb2 Se8 3.711576 1_555
Rb3 Se14 3.413018 1_545
Rb3 Se15 3.492223 1_555
Rb3 Se5 3.575907 1_555
Rb3 Se3 3.575907 1_555
Rb3 Se11 3.576409 1_545
Rb3 Se2 3.684814 1_545
Rb3 Se4 3.684814 1_545
Rb3 Se9 3.711576 1_655
Rb3 Se9 3.711576 1_555
Rb4 Se4 3.667686 1_545
Rb4 Se2 3.667686 1_445
Rb4 Se15 3.698996 1_455
Rb4 Se15 3.698996 1_555
Rb4 Se8 3.726083 1_555
Rb4 Se0 3.743596 1_554
Rb4 Se6 3.743596 1_554
Rb4 Se9 3.826556 1_555
Rb5 Se5 3.667686 1_455
Rb5 Se3 3.667686 1_555
Rb5 Se14 3.698996 1_455
Rb5 Se14 3.698996 1_555
Rb5 Se9 3.726083 1_565
Rb5 Se7 3.743596 1_555
Rb5 Se1 3.743596 1_555
Rb5 Se8 3.826556 1_555
Rb6 Se6 3.667686 1_665
Rb6 Se0 3.667686 1_565
Rb6 Se13 3.698996 1_555
Rb6 Se13 3.698996 1_655
Rb6 Se10 3.726083 1_555
Rb6 Se4 3.743596 1_556
Rb6 Se2 3.743596 1_556
Rb6 Se11 3.826556 1_555
Rb7 Se1 3.667686 1_655
Rb7 Se7 3.667686 1_555
Rb7 Se12 3.698996 1_555
Rb7 Se12 3.698996 1_655
Rb7 Se11 3.726083 1_545
Rb7 Se5 3.743596 1_555
Rb7 Se3 3.743596 1_555
Rb7 Se10 3.826556 1_555
Mo0 Se3 2.306893 1_555
Mo0 Se5 2.306893 1_455
Mo0 Se12 2.314628 1_555
Mo0 Se9 2.329862 1_555
Mo1 Se2 2.306893 1_455
Mo1 Se4 2.306893 1_555
Mo1 Se13 2.314628 1_554
Mo1 Se8 2.329862 1_555
Mo2 Se1 2.306893 1_655
Mo2 Se7 2.306893 1_555
Mo2 Se14 2.314628 1_555
Mo2 Se11 2.329862 1_555
Mo3 Se6 2.306893 1_655
Mo3 Se0 2.306893 1_555
Mo3 Se15 2.314628 1_556
Mo3 Se10 2.329862 1_555
