# generated using pymatgen
data_CeCoCuSi2
_symmetry_space_group_name_H-M   'P 1'
_cell_length_a   5.65056931
_cell_length_b   5.65056931
_cell_length_c   5.65056931
_cell_angle_alpha   138.04854436
_cell_angle_beta   138.04854436
_cell_angle_gamma   60.82865879
_symmetry_Int_Tables_number   1
_chemical_formula_structural   CeCoCuSi2
_chemical_formula_sum   'Ce1 Co1 Cu1 Si2'
_cell_volume   79.75134257
_cell_formula_units_Z   1
loop_
 _symmetry_equiv_pos_site_id
 _symmetry_equiv_pos_as_xyz
  1  'x, y, z'
loop_
 _atom_site_type_symbol
 _atom_site_label
 _atom_site_symmetry_multiplicity
 _atom_site_fract_x
 _atom_site_fract_y
 _atom_site_fract_z
 _atom_site_occupancy
  Ce  Ce0  1  0.00000000  0.00000000  0.00000000  1
  Co  Co0  1  0.25000000  0.75000000  0.50000000  1
  Cu  Cu0  1  0.75000000  0.25000000  0.50000000  1
  Si  Si0  1  0.62538500  0.62538500  0.00000000  1
  Si  Si1  1  0.37461500  0.37461500  0.00000000  1
loop_
_geom_bond_atom_site_label_1
_geom_bond_atom_site_label_2
_geom_bond_distance
_geom_bond_site_symmetry_2
Ce0 Si0 3.110674 1_444
Ce0 Si0 3.110674 1_455
Ce0 Si0 3.110674 1_545
Ce0 Si0 3.110674 1_556
Ce0 Si1 3.110674 1_545
Ce0 Si1 3.110674 1_444
Ce0 Si1 3.110674 1_455
Ce0 Si1 3.110674 1_556
Ce0 Cu0 3.166700 1_454
Ce0 Co0 3.166700 1_555
Ce0 Co0 3.166700 1_545
Ce0 Cu0 3.166700 1_444
Ce0 Cu0 3.166700 1_555
Ce0 Co0 3.166700 1_444
Ce0 Co0 3.166700 1_544
Ce0 Cu0 3.166700 1_455
Co0 Si1 2.359343 1_566
Co0 Si1 2.359343 1_555
Co0 Si0 2.359343 1_455
Co0 Si0 2.359343 1_556
Co0 Cu0 2.860598 1_555
Co0 Cu0 2.860598 1_566
Co0 Cu0 2.860598 1_465
Co0 Cu0 2.860598 1_454
Cu0 Si1 2.359343 1_656
Cu0 Si1 2.359343 1_555
Cu0 Si0 2.359343 1_545
Cu0 Si0 2.359343 1_556
Si0 Si1 2.443993 1_555
