# generated using pymatgen
data_TaTe5Pt
_symmetry_space_group_name_H-M   'P 1'
_cell_length_a   3.77235764
_cell_length_b   7.29008575
_cell_length_c   15.54830766
_cell_angle_alpha   90.00000000
_cell_angle_beta   90.00000000
_cell_angle_gamma   104.99484439
_symmetry_Int_Tables_number   1
_chemical_formula_structural   TaTe5Pt
_chemical_formula_sum   'Ta2 Te10 Pt2'
_cell_volume   413.03120942
_cell_formula_units_Z   2
loop_
 _symmetry_equiv_pos_site_id
 _symmetry_equiv_pos_as_xyz
  1  'x, y, z'
loop_
 _atom_site_type_symbol
 _atom_site_label
 _atom_site_symmetry_multiplicity
 _atom_site_fract_x
 _atom_site_fract_y
 _atom_site_fract_z
 _atom_site_occupancy
  Ta  Ta0  1  0.49242379  0.98484658  0.75000000  1
  Ta  Ta1  1  0.50757621  0.01515342  0.25000000  1
  Te  Te0  1  0.84068539  0.68137179  0.75000000  1
  Te  Te1  1  0.15931461  0.31862821  0.25000000  1
  Te  Te2  1  0.60318189  0.20636478  0.08100439  1
  Te  Te3  1  0.39681811  0.79363522  0.91899561  1
  Te  Te4  1  0.09819810  0.19639820  0.85244416  1
  Te  Te5  1  0.90180190  0.80360180  0.14755584  1
  Te  Te6  1  0.90180190  0.80360180  0.35244416  1
  Te  Te7  1  0.09819810  0.19639820  0.64755584  1
  Te  Te8  1  0.60318189  0.20636478  0.41899561  1
  Te  Te9  1  0.39681811  0.79363522  0.58100439  1
  Pt  Pt0  1  -0.00000000  -0.00000000  -0.00000000  1
  Pt  Pt1  1  -0.00000000  -0.00000000  0.50000000  1
loop_
_geom_bond_atom_site_label_1
_geom_bond_atom_site_label_2
_geom_bond_distance
_geom_bond_site_symmetry_2
Ta0 Te0 2.850356 1_555
Ta0 Te0 2.850361 1_455
Ta0 Te7 2.883404 1_665
Ta0 Te4 2.883404 1_665
Ta0 Te4 2.883411 1_565
Ta0 Te7 2.883411 1_565
Ta0 Te9 2.952503 1_555
Ta0 Te3 2.952503 1_555
Ta1 Te1 2.850356 1_555
Ta1 Te1 2.850361 1_655
Ta1 Te6 2.883404 1_445
Ta1 Te5 2.883404 1_445
Ta1 Te5 2.883411 1_545
Ta1 Te6 2.883411 1_545
Ta1 Te8 2.952503 1_555
Ta1 Te2 2.952503 1_555
Pt0 Te4 2.678855 1_554
Pt0 Te5 2.678855 1_445
Pt0 Te3 2.693644 1_444
Pt0 Te2 2.693644 1_555
Pt0 Te3 2.693647 1_544
Pt0 Te2 2.693647 1_455
Pt1 Te7 2.678855 1_555
Pt1 Te6 2.678855 1_445
Pt1 Te8 2.693644 1_555
Pt1 Te9 2.693644 1_445
Pt1 Te8 2.693647 1_455
Pt1 Te9 2.693647 1_545
