# generated using pymatgen
data_BaLi(B3O5)3
_symmetry_space_group_name_H-M   'P 1'
_cell_length_a   8.56155000
_cell_length_b   8.56155000
_cell_length_c   8.56154959
_cell_angle_alpha   80.66152684
_cell_angle_beta   80.66152684
_cell_angle_gamma   80.66152429
_symmetry_Int_Tables_number   1
_chemical_formula_structural   BaLi(B3O5)3
_chemical_formula_sum   'Ba2 Li2 B18 O30'
_cell_volume   605.05444282
_cell_formula_units_Z   2
loop_
 _symmetry_equiv_pos_site_id
 _symmetry_equiv_pos_as_xyz
  1  'x, y, z'
loop_
 _atom_site_type_symbol
 _atom_site_label
 _atom_site_symmetry_multiplicity
 _atom_site_fract_x
 _atom_site_fract_y
 _atom_site_fract_z
 _atom_site_occupancy
  Ba  Ba0  1  0.98561200  0.98561200  0.98561200  1
  Ba  Ba1  1  0.48561200  0.48561200  0.48561200  1
  Li  Li0  1  0.20574900  0.20574900  0.20574900  1
  Li  Li1  1  0.70574900  0.70574900  0.70574900  1
  B  B0  1  0.08169100  0.61494100  0.73931400  1
  B  B1  1  0.61494100  0.73931400  0.08169100  1
  B  B2  1  0.73931400  0.08169100  0.61494100  1
  B  B3  1  0.11494100  0.58169100  0.23931400  1
  B  B4  1  0.23931400  0.11494100  0.58169100  1
  B  B5  1  0.58169100  0.23931400  0.11494100  1
  B  B6  1  0.17412600  0.32312300  0.76300300  1
  B  B7  1  0.32312300  0.76300300  0.17412600  1
  B  B8  1  0.76300300  0.17412600  0.32312300  1
  B  B9  1  0.82312300  0.67412600  0.26300300  1
  B  B10  1  0.26300300  0.82312300  0.67412600  1
  B  B11  1  0.67412600  0.26300300  0.82312300  1
  B  B12  1  0.89084100  0.42845100  0.75246800  1
  B  B13  1  0.42845100  0.75246800  0.89084100  1
  B  B14  1  0.75246800  0.89084100  0.42845000  1
  B  B15  1  0.92845100  0.39084100  0.25246800  1
  B  B16  1  0.25246800  0.92845100  0.39084100  1
  B  B17  1  0.39084100  0.25246800  0.92845100  1
  O  O0  1  0.23842900  0.23826400  0.91102500  1
  O  O1  1  0.23826400  0.91102500  0.23842900  1
  O  O2  1  0.91102500  0.23842900  0.23826400  1
  O  O3  1  0.73826400  0.73842900  0.41102500  1
  O  O4  1  0.41102500  0.73826400  0.73842900  1
  O  O5  1  0.73842900  0.41102500  0.73826400  1
  O  O6  1  0.20243800  0.49077200  0.74092500  1
  O  O7  1  0.49077200  0.74092500  0.20243800  1
  O  O8  1  0.74092500  0.20243800  0.49077200  1
  O  O9  1  0.99077200  0.70243800  0.24092500  1
  O  O10  1  0.24092500  0.99077200  0.70243800  1
  O  O11  1  0.70243800  0.24092500  0.99077200  1
  O  O12  1  0.24653100  0.26602900  0.60775800  1
  O  O13  1  0.26602900  0.60775800  0.24653100  1
  O  O14  1  0.60775800  0.24653100  0.26602900  1
  O  O15  1  0.76602900  0.74653100  0.10775800  1
  O  O16  1  0.10775800  0.76602900  0.74653100  1
  O  O17  1  0.74653100  0.10775800  0.76602900  1
  O  O18  1  0.00391600  0.30305600  0.79006200  1
  O  O19  1  0.30305600  0.79006200  0.00391600  1
  O  O20  1  0.79006200  0.00391600  0.30305600  1
  O  O21  1  0.80305600  0.50391600  0.29006200  1
  O  O22  1  0.29006200  0.80305600  0.50391600  1
  O  O23  1  0.50391600  0.29006200  0.80305600  1
  O  O24  1  0.92544300  0.58709400  0.72994000  1
  O  O25  1  0.58709400  0.72994000  0.92544300  1
  O  O26  1  0.72994000  0.92544300  0.58709400  1
  O  O27  1  0.08709400  0.42544300  0.22994000  1
  O  O28  1  0.22994000  0.08709400  0.42544300  1
  O  O29  1  0.42544300  0.22994000  0.08709400  1
loop_
_geom_bond_atom_site_label_1
_geom_bond_atom_site_label_2
_geom_bond_distance
_geom_bond_site_symmetry_2
Ba0 O16 2.955308 1_655
Ba0 O17 2.955308 1_565
Ba0 O15 2.955308 1_556
Ba0 O20 2.964867 1_566
Ba0 O19 2.964867 1_656
Ba0 O18 2.964867 1_665
Ba0 O10 2.989062 1_655
Ba0 O11 2.989062 1_565
Ba0 O9 2.989062 1_556
Ba0 O1 3.224044 1_656
Ba0 O2 3.224044 1_566
Ba0 O0 3.224044 1_665
Ba1 O13 2.955308 1_555
Ba1 O14 2.955308 1_555
Ba1 O12 2.955308 1_555
Ba1 O23 2.964867 1_555
Ba1 O22 2.964867 1_555
Ba1 O21 2.964867 1_555
Ba1 O7 2.989062 1_555
Ba1 O8 2.989062 1_555
Ba1 O6 2.989062 1_555
Ba1 O4 3.224044 1_555
Ba1 O5 3.224044 1_555
Ba1 O3 3.224044 1_555
Li0 O28 2.012657 1_555
Li0 O27 2.012657 1_555
Li0 O29 2.012657 1_555
Li0 O0 2.467993 1_554
Li0 O2 2.467993 1_455
Li0 O1 2.467993 1_545
Li1 O25 2.012657 1_555
Li1 O24 2.012657 1_555
Li1 O26 2.012657 1_555
Li1 O3 2.467993 1_555
Li1 O5 2.467993 1_555
Li1 O4 2.467993 1_555
B0 O6 1.357292 1_555
B0 O16 1.360512 1_555
B0 O24 1.413275 1_455
B1 O7 1.357292 1_555
B1 O15 1.360512 1_555
B1 O25 1.413275 1_554
B2 O8 1.357292 1_555
B2 O17 1.360511 1_555
B2 O26 1.413275 1_545
B3 O9 1.357292 1_455
B3 O13 1.360512 1_555
B3 O27 1.413275 1_555
B4 O10 1.357292 1_545
B4 O12 1.360512 1_555
B4 O28 1.413275 1_555
B5 O11 1.357292 1_554
B5 O14 1.360511 1_555
B5 O29 1.413275 1_555
B6 O6 1.471280 1_555
B6 O18 1.471587 1_555
B6 O0 1.494919 1_555
B6 O12 1.494971 1_555
B7 O7 1.471280 1_555
B7 O19 1.471587 1_555
B7 O1 1.494919 1_555
B7 O13 1.494971 1_555
B8 O8 1.471280 1_555
B8 O20 1.471587 1_555
B8 O2 1.494919 1_555
B8 O14 1.494971 1_555
B9 O9 1.471280 1_555
B9 O21 1.471587 1_555
B9 O3 1.494919 1_555
B9 O15 1.494971 1_555
B10 O10 1.471280 1_555
B10 O22 1.471587 1_555
B10 O4 1.494919 1_555
B10 O16 1.494971 1_555
B11 O11 1.471280 1_555
B11 O23 1.471587 1_555
B11 O5 1.494919 1_555
B11 O17 1.494971 1_555
B12 O18 1.358330 1_655
B12 O5 1.363940 1_555
B12 O24 1.413072 1_555
B13 O19 1.358330 1_556
B13 O4 1.363940 1_555
B13 O25 1.413072 1_555
B14 O20 1.358324 1_565
B14 O3 1.363938 1_555
B14 O26 1.413081 1_555
B15 O21 1.358330 1_555
B15 O2 1.363940 1_555
B15 O27 1.413072 1_655
B16 O22 1.358330 1_555
B16 O1 1.363940 1_555
B16 O28 1.413072 1_565
B17 O23 1.358330 1_555
B17 O0 1.363940 1_555
B17 O29 1.413072 1_556
