# generated using pymatgen
data_Na3(CoO2)4
_symmetry_space_group_name_H-M   'P 1'
_cell_length_a   11.41054054
_cell_length_b   11.41054054
_cell_length_c   11.41054054
_cell_angle_alpha   164.70834360
_cell_angle_beta   154.01735758
_cell_angle_gamma   30.28556392
_symmetry_Int_Tables_number   1
_chemical_formula_structural   Na3(CoO2)4
_chemical_formula_sum   'Na3 Co4 O8'
_cell_volume   171.57190055
_cell_formula_units_Z   1
loop_
 _symmetry_equiv_pos_site_id
 _symmetry_equiv_pos_as_xyz
  1  'x, y, z'
loop_
 _atom_site_type_symbol
 _atom_site_label
 _atom_site_symmetry_multiplicity
 _atom_site_fract_x
 _atom_site_fract_y
 _atom_site_fract_z
 _atom_site_occupancy
  Na  Na0  1  0.41599800  0.75018500  0.66581300  1
  Na  Na1  1  0.91562700  0.24981500  0.66581300  1
  Na  Na2  1  0.33117300  0.00000000  0.33117300  1
  Co  Co0  1  0.87563800  0.87683300  0.99880600  1
  Co  Co1  1  0.37482300  0.37310800  0.00171500  1
  Co  Co2  1  0.12197300  0.12316700  0.99880600  1
  Co  Co3  1  0.62860700  0.62689200  0.00171500  1
  O  O0  1  0.00358100  0.67481100  0.32877000  1
  O  O1  1  0.50109900  0.17553000  0.32556800  1
  O  O2  1  0.74387100  0.08181500  0.66205600  1
  O  O3  1  0.26013300  0.57843400  0.68169900  1
  O  O4  1  0.58024200  0.91818500  0.66205600  1
  O  O5  1  0.10326500  0.42156600  0.68169900  1
  O  O6  1  0.15003800  0.82447000  0.32556800  1
  O  O7  1  0.65395900  0.32518900  0.32877000  1
loop_
_geom_bond_atom_site_label_1
_geom_bond_atom_site_label_2
_geom_bond_distance
_geom_bond_site_symmetry_2
Na0 O1 2.383495 1_566
Na0 O1 2.383497 1_555
Na0 O6 2.392642 1_555
Na0 O7 2.394500 1_566
Na0 O7 2.394500 1_555
Na0 O0 2.397236 1_555
Na1 O6 2.383511 1_656
Na1 O6 2.383512 1_645
Na1 O1 2.392623 1_555
Na1 O0 2.394492 1_656
Na1 O0 2.394494 1_645
Na1 O7 2.397242 1_555
Na2 O3 2.424489 1_544
Na2 O3 2.424489 1_555
Na2 O5 2.424489 1_555
Na2 O5 2.424489 1_544
Na2 O4 2.475829 1_545
Na2 O2 2.475835 1_555
Co0 O4 1.953066 1_555
Co0 O6 2.034882 1_656
Co0 O5 2.038690 1_666
Co0 O5 2.038692 1_655
Co0 O7 2.088058 1_566
Co0 O7 2.088061 1_555
Co1 O5 1.958284 1_554
Co1 O7 1.982308 1_555
Co1 O4 1.991863 1_555
Co1 O4 1.991866 1_544
Co1 O6 2.066258 1_544
Co1 O6 2.066258 1_555
Co2 O2 1.953060 1_455
Co2 O1 2.034895 1_556
Co2 O3 2.038685 1_556
Co2 O3 2.038685 1_545
Co2 O0 2.088067 1_545
Co2 O0 2.088067 1_556
Co3 O3 1.958284 1_554
Co3 O0 1.982308 1_655
Co3 O2 1.991858 1_554
Co3 O2 1.991858 1_565
Co3 O1 2.066261 1_565
Co3 O1 2.066263 1_554
