# generated using pymatgen
data_Sb2H3NF11
_symmetry_space_group_name_H-M   'P 1'
_cell_length_a   6.76469100
_cell_length_b   8.58201129
_cell_length_c   8.62662051
_cell_angle_alpha   76.99059409
_cell_angle_beta   72.21569029
_cell_angle_gamma   70.94667119
_symmetry_Int_Tables_number   1
_chemical_formula_structural   Sb2H3NF11
_chemical_formula_sum   'Sb4 H6 N2 F22'
_cell_volume   446.36045410
_cell_formula_units_Z   2
loop_
 _symmetry_equiv_pos_site_id
 _symmetry_equiv_pos_as_xyz
  1  'x, y, z'
loop_
 _atom_site_type_symbol
 _atom_site_label
 _atom_site_symmetry_multiplicity
 _atom_site_fract_x
 _atom_site_fract_y
 _atom_site_fract_z
 _atom_site_occupancy
  Sb  Sb0  1  0.62347100  0.63985300  0.68010500  1
  Sb  Sb1  1  0.37652900  0.36014700  0.31989500  1
  Sb  Sb2  1  0.79891400  0.12812700  0.77000500  1
  Sb  Sb3  1  0.20108600  0.87187300  0.22999500  1
  H  H0  1  0.19002900  0.35813200  0.98188100  1
  H  H1  1  0.80997100  0.64186800  0.01811900  1
  H  H2  1  0.07223000  0.47724200  0.82824500  1
  H  H3  1  0.92777000  0.52275800  0.17175500  1
  H  H4  1  0.93572900  0.35824100  0.98304900  1
  H  H5  1  0.06427100  0.64175900  0.01695100  1
  N  N0  1  0.04440500  0.43027100  0.95337300  1
  N  N1  1  0.95559500  0.56972900  0.04662700  1
  F  F0  1  0.53299300  0.87255200  0.66745600  1
  F  F1  1  0.46700700  0.12744800  0.33254400  1
  F  F2  1  0.63966200  0.63166000  0.45962000  1
  F  F3  1  0.36033800  0.36834000  0.54038000  1
  F  F4  1  0.33792600  0.61311500  0.75902600  1
  F  F5  1  0.66207400  0.38688500  0.24097400  1
  F  F6  1  0.92778700  0.61146100  0.63713700  1
  F  F7  1  0.07221300  0.38853900  0.36286300  1
  F  F8  1  0.63582800  0.60228900  0.90714700  1
  F  F9  1  0.36417200  0.39771100  0.09285300  1
  F  F10  1  0.77885800  0.11849300  0.55959500  1
  F  F11  1  0.22114200  0.88150700  0.44040500  1
  F  F12  1  0.08939700  0.13564900  0.68605900  1
  F  F13  1  0.91060300  0.86435100  0.31394100  1
  F  F14  1  0.86392200  0.89539300  0.84449600  1
  F  F15  1  0.13607800  0.10460700  0.15550400  1
  F  F16  1  0.49500500  0.16424900  0.85826600  1
  F  F17  1  0.50499500  0.83575100  0.14173400  1
  F  F18  1  0.81422400  0.18818200  0.96812300  1
  F  F19  1  0.18577600  0.81181800  0.03187700  1
  F  F20  1  0.71765500  0.38490400  0.69905700  1
  F  F21  1  0.28234500  0.61509600  0.30094300  1
loop_
_geom_bond_atom_site_label_1
_geom_bond_atom_site_label_2
_geom_bond_distance
_geom_bond_site_symmetry_2
H0 N0 1.046636 1_555
H1 N1 1.046636 1_555
H2 N0 1.045283 1_555
H3 N1 1.045283 1_555
H4 N0 1.048147 1_655
H5 N1 1.048147 1_455
F0 Sb0 1.875977 1_555
F1 Sb1 1.875977 1_555
F2 Sb0 1.887491 1_555
F3 Sb1 1.887491 1_555
F4 Sb0 1.913909 1_555
F5 Sb1 1.913909 1_555
F6 Sb0 1.918764 1_555
F7 Sb1 1.918764 1_555
F8 Sb0 1.935250 1_555
F9 Sb1 1.935250 1_555
F10 Sb2 1.882885 1_555
F11 Sb3 1.882885 1_555
F12 Sb2 1.892728 1_455
F13 Sb3 1.892728 1_655
F14 Sb2 1.901826 1_565
F15 Sb3 1.901826 1_545
F16 Sb2 1.906911 1_555
F17 Sb3 1.906911 1_555
F18 Sb2 1.933106 1_555
F19 Sb3 1.933106 1_555
F20 Sb0 2.052395 1_555
F20 Sb2 2.083338 1_555
F21 Sb1 2.052395 1_555
F21 Sb3 2.083338 1_555
