# generated using pymatgen
data_LiYb(CuP)2
_symmetry_space_group_name_H-M   'P 1'
_cell_length_a   3.98336004
_cell_length_b   3.98336004
_cell_length_c   6.60895400
_cell_angle_alpha   90.00000000
_cell_angle_beta   90.00000000
_cell_angle_gamma   120.00000068
_symmetry_Int_Tables_number   1
_chemical_formula_structural   LiYb(CuP)2
_chemical_formula_sum   'Li1 Yb1 Cu2 P2'
_cell_volume   90.81602368
_cell_formula_units_Z   1
loop_
 _symmetry_equiv_pos_site_id
 _symmetry_equiv_pos_as_xyz
  1  'x, y, z'
loop_
 _atom_site_type_symbol
 _atom_site_label
 _atom_site_symmetry_multiplicity
 _atom_site_fract_x
 _atom_site_fract_y
 _atom_site_fract_z
 _atom_site_occupancy
  Li  Li0  1  0.00000000  0.00000000  0.50000000  1
  Yb  Yb0  1  0.00000000  0.00000000  0.00000000  1
  Cu  Cu0  1  0.33333300  0.66666700  0.33578800  1
  Cu  Cu1  1  0.66666700  0.33333300  0.66421200  1
  P  P0  1  0.33333300  0.66666700  0.72763500  1
  P  P1  1  0.66666700  0.33333300  0.27236500  1
loop_
_geom_bond_atom_site_label_1
_geom_bond_atom_site_label_2
_geom_bond_distance
_geom_bond_site_symmetry_2
Li0 P1 2.748154 1_455
Li0 P0 2.748154 1_545
Li0 P1 2.748157 1_555
Li0 P1 2.748157 1_445
Li0 P0 2.748157 1_445
Li0 P0 2.748157 1_555
Cu0 P1 2.337678 1_455
Cu0 P1 2.337678 1_565
Cu0 P1 2.337684 1_555
Cu0 Li0 2.543001 1_565
Cu0 Li0 2.543004 1_665
Cu0 Li0 2.543004 1_555
Cu0 P0 2.589699 1_555
Cu0 Yb0 3.195923 1_565
Cu0 Yb0 3.195925 1_555
Cu0 Yb0 3.195925 1_665
Cu1 P0 2.337678 1_545
Cu1 P0 2.337678 1_655
Cu1 P0 2.337684 1_555
Cu1 Li0 2.543001 1_655
Cu1 Li0 2.543004 1_665
Cu1 Li0 2.543004 1_555
Cu1 P1 2.589699 1_555
Cu1 Yb0 3.195923 1_656
Cu1 Yb0 3.195925 1_556
Cu1 Yb0 3.195925 1_666
P0 Yb0 2.920482 1_566
P0 Yb0 2.920484 1_556
P0 Yb0 2.920484 1_666
P1 Yb0 2.920482 1_655
P1 Yb0 2.920484 1_555
P1 Yb0 2.920484 1_665
