# generated using pymatgen
data_CsMg14Bi
_symmetry_space_group_name_H-M   'P 1'
_cell_length_a   6.68223661
_cell_length_b   6.78073407
_cell_length_c   10.66915181
_cell_angle_alpha   90.00000000
_cell_angle_beta   90.00000000
_cell_angle_gamma   120.48881728
_symmetry_Int_Tables_number   1
_chemical_formula_structural   CsMg14Bi
_chemical_formula_sum   'Cs1 Mg14 Bi1'
_cell_volume   416.58033369
_cell_formula_units_Z   1
loop_
 _symmetry_equiv_pos_site_id
 _symmetry_equiv_pos_as_xyz
  1  'x, y, z'
loop_
 _atom_site_type_symbol
 _atom_site_label
 _atom_site_symmetry_multiplicity
 _atom_site_fract_x
 _atom_site_fract_y
 _atom_site_fract_z
 _atom_site_occupancy
  Cs  Cs0  1  0.17239965  0.33619932  0.12500000  1
  Mg  Mg0  1  0.16622212  0.33311056  0.62500000  1
  Mg  Mg1  1  0.15976546  0.82988223  0.62500000  1
  Mg  Mg2  1  0.66573440  0.32520147  0.12500000  1
  Mg  Mg3  1  0.67188808  0.34074091  0.62500000  1
  Mg  Mg4  1  0.66573440  0.84053193  0.12500000  1
  Mg  Mg5  1  0.67188808  0.83114616  0.62500000  1
  Mg  Mg6  1  0.33804438  0.15920499  0.39470207  1
  Mg  Mg7  1  0.33804438  0.15920499  0.85529793  1
  Mg  Mg8  1  0.33804438  0.67884038  0.39470207  1
  Mg  Mg9  1  0.33804438  0.67884038  0.85529793  1
  Mg  Mg10  1  0.81752127  0.15876113  0.39331798  1
  Mg  Mg11  1  0.81752127  0.15876113  0.85668202  1
  Mg  Mg12  1  0.82619408  0.66309754  0.37068555  1
  Mg  Mg13  1  0.82619408  0.66309754  0.87931445  1
  Bi  Bi0  1  0.18675963  0.84337932  0.12500000  1
loop_
_geom_bond_atom_site_label_1
_geom_bond_atom_site_label_2
_geom_bond_distance
_geom_bond_site_symmetry_2
Cs0 Mg4 3.335035 1_555
Cs0 Mg2 3.335035 1_555
Cs0 Mg4 3.348437 1_445
Cs0 Mg2 3.348437 1_455
Cs0 Mg7 3.506209 1_554
Cs0 Mg6 3.506209 1_555
Cs0 Mg9 3.506216 1_554
Cs0 Mg8 3.506216 1_555
Cs0 Mg11 3.517248 1_454
Cs0 Mg10 3.517248 1_455
Mg0 Mg7 3.181183 1_555
Mg0 Mg6 3.181183 1_555
Mg0 Mg8 3.181191 1_555
Mg0 Mg9 3.181191 1_555
Mg0 Mg10 3.184614 1_455
Mg0 Mg11 3.184614 1_455
Mg0 Mg5 3.329806 1_445
Mg0 Mg3 3.329807 1_455
Mg0 Mg5 3.353025 1_555
Mg0 Mg3 3.353025 1_555
Mg0 Mg1 3.390571 1_545
Mg0 Mg1 3.390571 1_555
Mg1 Mg8 3.121455 1_555
Mg1 Mg9 3.121455 1_555
Mg1 Mg7 3.121462 1_565
Mg1 Mg6 3.121462 1_565
Mg1 Mg3 3.264469 1_455
Mg1 Mg5 3.264469 1_455
Mg1 Mg12 3.324388 1_455
Mg1 Mg13 3.324388 1_455
Mg1 Mg3 3.417784 1_565
Mg1 Mg5 3.417784 1_555
Mg2 Mg4 3.286415 1_545
Mg2 Mg6 3.441028 1_555
Mg2 Mg7 3.441028 1_554
Mg2 Mg4 3.494319 1_555
Mg3 Mg6 3.121307 1_555
Mg3 Mg7 3.121307 1_555
Mg3 Mg5 3.325308 1_555
Mg3 Mg5 3.455426 1_545
Mg4 Mg8 3.441028 1_555
Mg4 Mg9 3.441028 1_554
Mg5 Mg8 3.121308 1_555
Mg5 Mg9 3.121308 1_555
Mg6 Mg8 3.257225 1_545
Mg6 Mg8 3.523509 1_555
Mg7 Mg9 3.257225 1_545
Mg7 Mg9 3.523509 1_555
Mg10 Mg3 3.130217 1_555
Mg10 Mg5 3.130224 1_545
Mg10 Mg8 3.205540 1_545
Mg10 Mg6 3.205540 1_555
Mg10 Mg12 3.399322 1_545
Mg10 Mg12 3.399322 1_555
Mg10 Mg2 3.414562 1_555
Mg10 Mg4 3.414568 1_545
Mg10 Mg8 3.476764 1_655
Mg10 Mg6 3.476764 1_655
Mg11 Mg3 3.130217 1_555
Mg11 Mg5 3.130224 1_545
Mg11 Mg9 3.205540 1_545
Mg11 Mg7 3.205540 1_555
Mg11 Mg13 3.399322 1_545
Mg11 Mg13 3.399322 1_555
Mg11 Mg2 3.414562 1_556
Mg11 Mg4 3.414568 1_546
Mg11 Mg9 3.476764 1_655
Mg11 Mg7 3.476764 1_655
Mg12 Mg4 3.282872 1_555
Mg12 Mg2 3.282879 1_555
Mg12 Mg5 3.303936 1_555
Mg12 Mg3 3.303943 1_555
Mg12 Mg6 3.327249 1_555
Mg12 Mg8 3.327249 1_555
Mg12 Mg6 3.377135 1_665
Mg12 Mg8 3.377136 1_655
Mg13 Mg4 3.282872 1_556
Mg13 Mg2 3.282879 1_556
Mg13 Mg5 3.303936 1_555
Mg13 Mg3 3.303943 1_555
Mg13 Mg7 3.327249 1_555
Mg13 Mg9 3.327249 1_555
Mg13 Mg7 3.377135 1_665
Mg13 Mg9 3.377136 1_655
Bi0 Mg2 3.210462 1_565
Bi0 Mg4 3.210462 1_555
Bi0 Mg13 3.343910 1_454
Bi0 Mg12 3.343910 1_455
Bi0 Cs0 3.391375 1_565
Bi0 Cs0 3.391375 1_555
Bi0 Mg8 3.419240 1_555
Bi0 Mg9 3.419240 1_554
Bi0 Mg7 3.419246 1_564
Bi0 Mg6 3.419246 1_565
Bi0 Mg2 3.471857 1_455
Bi0 Mg4 3.471858 1_455
