# generated using pymatgen
data_Er2Ga3(Fe7C)2
_symmetry_space_group_name_H-M   'P 1'
_cell_length_a   6.47037623
_cell_length_b   6.47037623
_cell_length_c   6.50584759
_cell_angle_alpha   83.70946180
_cell_angle_beta   83.70946180
_cell_angle_gamma   82.57564805
_symmetry_Int_Tables_number   1
_chemical_formula_structural   Er2Ga3(Fe7C)2
_chemical_formula_sum   'Er2 Ga3 Fe14 C2'
_cell_volume   267.20186805
_cell_formula_units_Z   1
loop_
 _symmetry_equiv_pos_site_id
 _symmetry_equiv_pos_as_xyz
  1  'x, y, z'
loop_
 _atom_site_type_symbol
 _atom_site_label
 _atom_site_symmetry_multiplicity
 _atom_site_fract_x
 _atom_site_fract_y
 _atom_site_fract_z
 _atom_site_occupancy
  Er  Er0  1  0.34610000  0.34610000  0.34058900  1
  Er  Er1  1  0.65390000  0.65390000  0.65941100  1
  Ga  Ga0  1  0.00000000  0.00000000  0.50000000  1
  Ga  Ga1  1  0.00000000  0.50000000  0.00000000  1
  Ga  Ga2  1  0.50000000  0.00000000  0.00000000  1
  Fe  Fe0  1  0.09260600  0.09260600  0.09506800  1
  Fe  Fe1  1  0.90739400  0.90739400  0.90493200  1
  Fe  Fe2  1  0.65396100  0.65396100  0.15158100  1
  Fe  Fe3  1  0.65348300  0.15162600  0.65583000  1
  Fe  Fe4  1  0.15162600  0.65348300  0.65583000  1
  Fe  Fe5  1  0.34603900  0.34603900  0.84841900  1
  Fe  Fe6  1  0.34651700  0.84837400  0.34417000  1
  Fe  Fe7  1  0.84837400  0.34651700  0.34417000  1
  Fe  Fe8  1  0.70785700  0.29214300  0.00000000  1
  Fe  Fe9  1  0.28655300  0.00019600  0.71378500  1
  Fe  Fe10  1  0.99980400  0.71344700  0.28621500  1
  Fe  Fe11  1  0.71344700  0.99980400  0.28621500  1
  Fe  Fe12  1  0.00019600  0.28655300  0.71378500  1
  Fe  Fe13  1  0.29214300  0.70785700  0.00000000  1
  C  C0  1  0.50000000  0.00000000  0.50000000  1
  C  C1  1  0.00000000  0.50000000  0.50000000  1
loop_
_geom_bond_atom_site_label_1
_geom_bond_atom_site_label_2
_geom_bond_distance
_geom_bond_site_symmetry_2
Er0 Fe8 3.054895 1_555
Er0 Fe13 3.054895 1_555
Er0 Fe2 3.065927 1_555
Er0 Fe0 3.126577 1_555
Er0 Fe5 3.202070 1_554
Er0 Fe5 3.303778 1_555
Er0 Ga1 3.308160 1_555
Er0 Ga2 3.308160 1_555
Er0 Ga0 3.373945 1_555
Er1 Fe8 3.054895 1_556
Er1 Fe13 3.054895 1_556
Er1 Fe5 3.065927 1_555
Er1 Fe1 3.126577 1_555
Er1 Fe2 3.202070 1_556
Er1 Fe2 3.303778 1_555
Er1 Ga1 3.308160 1_656
Er1 Ga2 3.308160 1_566
Er1 Ga0 3.373945 1_665
Fe0 Fe1 2.328798 1_444
Fe0 Ga2 2.646843 1_555
Fe0 Ga1 2.646843 1_555
Fe0 Ga0 2.656918 1_555
Fe0 Fe7 2.678447 1_455
Fe0 Fe6 2.678447 1_545
Fe0 Fe10 2.733902 1_445
Fe0 Fe11 2.733902 1_445
Fe0 Fe5 2.737613 1_554
Fe0 Fe12 2.744903 1_554
Fe0 Fe9 2.744903 1_554
Fe0 Fe8 2.752941 1_455
Fe0 Fe13 2.752941 1_545
Fe1 Ga2 2.646843 1_566
Fe1 Ga1 2.646843 1_656
Fe1 Ga0 2.656918 1_665
Fe1 Fe4 2.678447 1_655
Fe1 Fe3 2.678447 1_565
Fe1 Fe12 2.733902 1_665
Fe1 Fe9 2.733902 1_665
Fe1 Fe2 2.737613 1_556
Fe1 Fe11 2.744903 1_556
Fe1 Fe10 2.744903 1_556
Fe1 Fe8 2.752941 1_566
Fe1 Fe13 2.752941 1_656
Fe2 Ga2 2.476494 1_565
Fe2 Ga1 2.476494 1_655
Fe2 Fe6 2.502398 1_555
Fe2 Fe7 2.502398 1_555
Fe2 Fe8 2.606617 1_555
Fe3 Ga0 2.483683 1_655
Fe3 Ga2 2.499099 1_556
Fe3 Fe5 2.502398 1_555
Fe3 Fe8 2.581761 1_556
Fe4 Ga0 2.483683 1_565
Fe4 Ga1 2.499099 1_556
Fe4 Fe5 2.502398 1_555
Fe5 Ga1 2.476494 1_556
Fe5 Ga2 2.476494 1_556
Fe5 Fe9 2.578529 1_555
Fe5 Fe8 2.606617 1_556
Fe6 Ga0 2.483683 1_565
Fe6 Ga2 2.499099 1_565
Fe7 Ga0 2.483683 1_655
Fe7 Ga1 2.499099 1_655
Fe7 Fe8 2.581761 1_555
Fe8 Ga2 2.457425 1_555
Fe8 Ga1 2.457425 1_655
Fe9 Ga2 2.436655 1_556
Fe9 Ga0 2.436861 1_555
Fe10 Ga1 2.436655 1_655
Fe10 Ga0 2.436861 1_665
Fe10 Fe13 2.504352 1_655
Fe10 Fe2 2.578529 1_555
Fe11 Ga2 2.436655 1_565
Fe11 Ga0 2.436861 1_665
Fe11 Fe8 2.504352 1_565
Fe11 Fe2 2.578529 1_555
Fe12 Ga1 2.436655 1_556
Fe12 Ga0 2.436861 1_555
Fe12 Fe8 2.504352 1_456
Fe12 Fe5 2.578529 1_555
Fe13 Ga1 2.457425 1_555
Fe13 Ga2 2.457425 1_565
Fe13 Fe9 2.504352 1_564
Fe13 Fe6 2.581761 1_555
Fe13 Fe4 2.581761 1_554
Fe13 Fe2 2.606617 1_555
Fe13 Fe5 2.606617 1_554
C0 Fe11 1.849555 1_545
C0 Fe9 1.849555 1_555
C0 Fe3 1.914924 1_555
C0 Fe6 1.914924 1_545
C0 Er1 2.494624 1_545
C0 Er0 2.494624 1_555
C1 Fe10 1.849555 1_455
C1 Fe12 1.849555 1_555
C1 Fe4 1.914924 1_555
C1 Fe7 1.914924 1_455
C1 Er1 2.494624 1_455
C1 Er0 2.494624 1_555
