# generated using pymatgen
data_CaMgFeP2O13
_symmetry_space_group_name_H-M   'P 1'
_cell_length_a   16.09154180
_cell_length_b   18.83697948
_cell_length_c   6.99792139
_cell_angle_alpha   90.00000000
_cell_angle_beta   90.00000000
_cell_angle_gamma   90.00000000
_symmetry_Int_Tables_number   1
_chemical_formula_structural   CaMgFeP2O13
_chemical_formula_sum   'Ca8 Mg8 Fe8 P16 O104'
_cell_volume   2121.18223878
_cell_formula_units_Z   8
loop_
 _symmetry_equiv_pos_site_id
 _symmetry_equiv_pos_as_xyz
  1  'x, y, z'
loop_
 _atom_site_type_symbol
 _atom_site_label
 _atom_site_symmetry_multiplicity
 _atom_site_fract_x
 _atom_site_fract_y
 _atom_site_fract_z
 _atom_site_occupancy
  Ca  Ca0  1  0.51002296  0.25162760  0.27734723  1
  Ca  Ca1  1  0.01002296  0.24837240  0.72265277  1
  Ca  Ca2  1  0.48997704  0.75162760  0.22265277  1
  Ca  Ca3  1  0.98997704  0.74837240  0.77734723  1
  Ca  Ca4  1  0.48997704  0.74837240  0.72265277  1
  Ca  Ca5  1  0.98997704  0.75162760  0.27734723  1
  Ca  Ca6  1  0.51002296  0.24837240  0.77734723  1
  Ca  Ca7  1  0.01002296  0.25162760  0.22265277  1
  Mg  Mg0  1  0.65008022  0.50565367  0.75617714  1
  Mg  Mg1  1  0.15008022  0.99434633  0.24382286  1
  Mg  Mg2  1  0.34991978  0.00565367  0.74382286  1
  Mg  Mg3  1  0.84991978  0.49434633  0.25617714  1
  Mg  Mg4  1  0.34991978  0.49434633  0.24382286  1
  Mg  Mg5  1  0.84991978  0.00565367  0.75617714  1
  Mg  Mg6  1  0.65008022  0.99434633  0.25617714  1
  Mg  Mg7  1  0.15008022  0.50565367  0.74382286  1
  Fe  Fe0  1  0.76191955  0.25051027  0.24686289  1
  Fe  Fe1  1  0.26191955  0.24948973  0.75313711  1
  Fe  Fe2  1  0.23808045  0.75051027  0.25313711  1
  Fe  Fe3  1  0.73808045  0.74948973  0.74686289  1
  Fe  Fe4  1  0.23808045  0.74948973  0.75313711  1
  Fe  Fe5  1  0.73808045  0.75051027  0.24686289  1
  Fe  Fe6  1  0.76191955  0.24948973  0.74686289  1
  Fe  Fe7  1  0.26191955  0.25051027  0.25313711  1
  P  P0  1  0.88730408  0.34895643  0.01137257  1
  P  P1  1  0.38730408  0.15104357  0.98862743  1
  P  P2  1  0.11269592  0.84895643  0.48862743  1
  P  P3  1  0.61269592  0.65104357  0.51137257  1
  P  P4  1  0.11269592  0.65104357  0.98862743  1
  P  P5  1  0.61269592  0.84895643  0.01137257  1
  P  P6  1  0.88730408  0.15104357  0.51137257  1
  P  P7  1  0.38730408  0.34895643  0.48862743  1
  P  P8  1  0.63542037  0.34653527  0.97650953  1
  P  P9  1  0.13542037  0.15346473  0.02349047  1
  P  P10  1  0.36457963  0.84653527  0.52349047  1
  P  P11  1  0.86457963  0.65346473  0.47650953  1
  P  P12  1  0.36457963  0.65346473  0.02349047  1
  P  P13  1  0.86457963  0.84653527  0.97650953  1
  P  P14  1  0.63542037  0.15346473  0.47650953  1
  P  P15  1  0.13542037  0.34653527  0.52349047  1
  O  O0  1  0.82822499  0.33387055  0.84221403  1
  O  O1  1  0.32822499  0.16612945  0.15778597  1
  O  O2  1  0.17177501  0.83387055  0.65778597  1
  O  O3  1  0.67177501  0.66612945  0.34221403  1
  O  O4  1  0.17177501  0.66612945  0.15778597  1
  O  O5  1  0.67177501  0.83387055  0.84221403  1
  O  O6  1  0.82822499  0.16612945  0.34221403  1
  O  O7  1  0.32822499  0.33387055  0.65778597  1
  O  O8  1  0.86888238  0.30063065  0.19031539  1
  O  O9  1  0.36888238  0.19936935  0.80968461  1
  O  O10  1  0.13111762  0.80063065  0.30968461  1
  O  O11  1  0.63111762  0.69936935  0.69031539  1
  O  O12  1  0.13111762  0.69936935  0.80968461  1
  O  O13  1  0.63111762  0.80063065  0.19031539  1
  O  O14  1  0.86888238  0.19936935  0.69031539  1
  O  O15  1  0.36888238  0.30063065  0.30968461  1
  O  O16  1  0.97841592  0.32924454  0.96088762  1
  O  O17  1  0.47841592  0.17075546  0.03911238  1
  O  O18  1  0.02158408  0.82924454  0.53911238  1
  O  O19  1  0.52158408  0.67075546  0.46088762  1
  O  O20  1  0.02158408  0.67075546  0.03911238  1
  O  O21  1  0.52158408  0.82924454  0.96088762  1
  O  O22  1  0.97841592  0.17075546  0.46088762  1
  O  O23  1  0.47841592  0.32924454  0.53911238  1
  O  O24  1  0.87996832  0.42760264  0.07006848  1
  O  O25  1  0.37996832  0.07239736  0.92993152  1
  O  O26  1  0.12003168  0.92760264  0.42993152  1
  O  O27  1  0.62003168  0.57239736  0.57006848  1
  O  O28  1  0.12003168  0.57239736  0.92993152  1
  O  O29  1  0.62003168  0.92760264  0.07006848  1
  O  O30  1  0.87996832  0.07239736  0.57006848  1
  O  O31  1  0.37996832  0.42760264  0.42993152  1
  O  O32  1  0.65245648  0.29505448  0.80429497  1
  O  O33  1  0.15245648  0.20494552  0.19570503  1
  O  O34  1  0.34754352  0.79505448  0.69570503  1
  O  O35  1  0.84754352  0.70494552  0.30429497  1
  O  O36  1  0.34754352  0.70494552  0.19570503  1
  O  O37  1  0.84754352  0.79505448  0.80429497  1
  O  O38  1  0.65245648  0.20494552  0.30429497  1
  O  O39  1  0.15245648  0.29505448  0.69570503  1
  O  O40  1  0.69500788  0.33466221  0.14618486  1
  O  O41  1  0.19500788  0.16533779  0.85381514  1
  O  O42  1  0.30499212  0.83466221  0.35381514  1
  O  O43  1  0.80499212  0.66533779  0.64618486  1
  O  O44  1  0.30499212  0.66533779  0.85381514  1
  O  O45  1  0.80499212  0.83466221  0.14618486  1
  O  O46  1  0.69500788  0.16533779  0.64618486  1
  O  O47  1  0.19500788  0.33466221  0.35381514  1
  O  O48  1  0.54440330  0.32837193  0.03238928  1
  O  O49  1  0.04440330  0.17162807  0.96761072  1
  O  O50  1  0.45559670  0.82837193  0.46761072  1
  O  O51  1  0.95559670  0.67162807  0.53238928  1
  O  O52  1  0.45559670  0.67162807  0.96761072  1
  O  O53  1  0.95559670  0.82837193  0.03238928  1
  O  O54  1  0.54440330  0.17162807  0.53238928  1
  O  O55  1  0.04440330  0.32837193  0.46761072  1
  O  O56  1  0.64326174  0.42375993  0.90656560  1
  O  O57  1  0.14326174  0.07624007  0.09343440  1
  O  O58  1  0.35673826  0.92375993  0.59343440  1
  O  O59  1  0.85673826  0.57624007  0.40656560  1
  O  O60  1  0.35673826  0.57624007  0.09343440  1
  O  O61  1  0.85673826  0.92375993  0.90656560  1
  O  O62  1  0.64326174  0.07624007  0.40656560  1
  O  O63  1  0.14326174  0.42375993  0.59343440  1
  O  O64  1  0.76280088  0.28849797  0.49707654  1
  O  O65  1  0.26280088  0.21150203  0.50292346  1
  O  O66  1  0.23719912  0.78849797  0.00292346  1
  O  O67  1  0.73719912  0.71150203  0.99707654  1
  O  O68  1  0.23719912  0.71150203  0.50292346  1
  O  O69  1  0.73719912  0.78849797  0.49707654  1
  O  O70  1  0.76280088  0.21150203  0.99707654  1
  O  O71  1  0.26280088  0.28849797  0.00292346  1
  O  O72  1  0.78298169  0.53636036  0.83508466  1
  O  O73  1  0.28298169  0.96363964  0.16491534  1
  O  O74  1  0.21701831  0.03636036  0.66491534  1
  O  O75  1  0.71701831  0.46363964  0.33508466  1
  O  O76  1  0.21701831  0.46363964  0.16491534  1
  O  O77  1  0.71701831  0.03636036  0.83508466  1
  O  O78  1  0.78298169  0.96363964  0.33508466  1
  O  O79  1  0.28298169  0.53636036  0.66491534  1
  O  O80  1  0.46529760  0.47447499  0.90605447  1
  O  O81  1  0.96529760  0.02552501  0.09394553  1
  O  O82  1  0.53470240  0.97447499  0.59394553  1
  O  O83  1  0.03470240  0.52552501  0.40605447  1
  O  O84  1  0.53470240  0.52552501  0.09394553  1
  O  O85  1  0.03470240  0.97447499  0.90605447  1
  O  O86  1  0.46529760  0.02552501  0.40605447  1
  O  O87  1  0.96529760  0.47447499  0.59394553  1
  O  O88  1  0.68223418  0.43732777  0.47710553  1
  O  O89  1  0.18223418  0.06267223  0.52289447  1
  O  O90  1  0.31776582  0.93732777  0.02289447  1
  O  O91  1  0.81776582  0.56267223  0.97710553  1
  O  O92  1  0.31776582  0.56267223  0.52289447  1
  O  O93  1  0.81776582  0.93732777  0.47710553  1
  O  O94  1  0.68223418  0.06267223  0.97710553  1
  O  O95  1  0.18223418  0.43732777  0.02289447  1
  O  O96  1  0.59185354  0.55801820  0.01313244  1
  O  O97  1  0.09185354  0.94198180  0.98686756  1
  O  O98  1  0.40814646  0.05801820  0.48686756  1
  O  O99  1  0.90814646  0.44198180  0.51313244  1
  O  O100  1  0.40814646  0.44198180  0.98686756  1
  O  O101  1  0.90814646  0.05801820  0.01313244  1
  O  O102  1  0.59185354  0.94198180  0.51313244  1
  O  O103  1  0.09185354  0.55801820  0.48686756  1
loop_
_geom_bond_atom_site_label_1
_geom_bond_atom_site_label_2
_geom_bond_distance
_geom_bond_site_symmetry_2
Ca0 O48 2.309629 1_555
Ca0 O17 2.314902 1_555
Ca0 O23 2.398304 1_555
Ca0 O54 2.400489 1_555
Ca0 O15 2.462007 1_555
Ca0 O38 2.462106 1_555
Ca1 O49 2.309629 1_555
Ca1 O16 2.314902 1_455
Ca1 O22 2.398304 1_455
Ca1 O55 2.400489 1_555
Ca1 O14 2.462007 1_455
Ca1 O39 2.462106 1_555
Ca2 O50 2.309629 1_555
Ca2 O19 2.314902 1_555
Ca2 O21 2.398304 1_554
Ca2 O52 2.400489 1_554
Ca2 O13 2.462007 1_555
Ca2 O36 2.462106 1_555
Ca3 O51 2.309629 1_555
Ca3 O18 2.314902 1_655
Ca3 O20 2.398304 1_656
Ca3 O53 2.400489 1_556
Ca3 O12 2.462007 1_655
Ca3 O37 2.462106 1_555
Ca4 O52 2.309629 1_555
Ca4 O21 2.314902 1_555
Ca4 O19 2.398304 1_555
Ca4 O50 2.400489 1_555
Ca4 O11 2.462007 1_555
Ca4 O34 2.462106 1_555
Ca5 O53 2.309629 1_555
Ca5 O20 2.314902 1_655
Ca5 O18 2.398304 1_655
Ca5 O51 2.400489 1_555
Ca5 O10 2.462007 1_655
Ca5 O35 2.462106 1_555
Ca6 O54 2.309629 1_555
Ca6 O23 2.314902 1_555
Ca6 O17 2.398304 1_556
Ca6 O48 2.400489 1_556
Ca6 O9 2.462007 1_555
Ca6 O32 2.462106 1_555
Ca7 O55 2.309629 1_555
Ca7 O22 2.314902 1_455
Ca7 O16 2.398304 1_454
Ca7 O49 2.400489 1_554
Ca7 O8 2.462007 1_455
Ca7 O33 2.462106 1_555
Mg0 O56 1.870644 1_555
Mg0 O27 1.873674 1_555
Mg0 O96 2.254819 1_556
Mg0 O72 2.283210 1_555
Mg0 O88 2.395437 1_555
Mg1 O57 1.870644 1_565
Mg1 O26 1.873674 1_555
Mg1 O97 2.254819 1_554
Mg1 O73 2.283210 1_555
Mg1 O89 2.395437 1_565
Mg2 O58 1.870644 1_545
Mg2 O25 1.873674 1_555
Mg2 O98 2.254819 1_555
Mg2 O74 2.283210 1_555
Mg2 O90 2.395437 1_546
Mg3 O59 1.870644 1_555
Mg3 O24 1.873674 1_555
Mg3 O99 2.254819 1_555
Mg3 O75 2.283210 1_555
Mg3 O91 2.395437 1_554
Mg4 O60 1.870644 1_555
Mg4 O31 1.873674 1_555
Mg4 O100 2.254819 1_554
Mg4 O76 2.283210 1_555
Mg4 O92 2.395437 1_555
Mg5 O61 1.870644 1_545
Mg5 O30 1.873674 1_555
Mg5 O101 2.254819 1_556
Mg5 O77 2.283210 1_555
Mg5 O93 2.395437 1_545
Mg6 O62 1.870644 1_565
Mg6 O29 1.873674 1_555
Mg6 O102 2.254819 1_555
Mg6 O78 2.283210 1_555
Mg6 O94 2.395437 1_564
Mg7 O63 1.870644 1_555
Mg7 O28 1.873674 1_555
Mg7 O103 2.254819 1_555
Mg7 O79 2.283210 1_555
Mg7 O95 2.395437 1_556
Fe0 O64 1.891603 1_555
Fe0 O70 1.896202 1_554
Fe0 O38 2.000211 1_555
Fe0 O8 2.002615 1_555
Fe0 O6 2.027333 1_555
Fe0 O40 2.041676 1_555
Fe1 O65 1.891603 1_555
Fe1 O71 1.896202 1_556
Fe1 O39 2.000211 1_555
Fe1 O9 2.002615 1_555
Fe1 O7 2.027333 1_555
Fe1 O41 2.041676 1_555
Fe2 O66 1.891603 1_555
Fe2 O68 1.896202 1_555
Fe2 O36 2.000211 1_555
Fe2 O10 2.002615 1_555
Fe2 O4 2.027333 1_555
Fe2 O42 2.041676 1_555
Fe3 O67 1.891603 1_555
Fe3 O69 1.896202 1_555
Fe3 O37 2.000211 1_555
Fe3 O11 2.002615 1_555
Fe3 O5 2.027333 1_555
Fe3 O43 2.041676 1_555
Fe4 O68 1.891603 1_555
Fe4 O66 1.896202 1_556
Fe4 O34 2.000211 1_555
Fe4 O12 2.002615 1_555
Fe4 O2 2.027333 1_555
Fe4 O44 2.041676 1_555
Fe5 O69 1.891603 1_555
Fe5 O67 1.896202 1_554
Fe5 O35 2.000211 1_555
Fe5 O13 2.002615 1_555
Fe5 O3 2.027333 1_555
Fe5 O45 2.041676 1_555
Fe6 O70 1.891603 1_555
Fe6 O64 1.896202 1_555
Fe6 O32 2.000211 1_555
Fe6 O14 2.002615 1_555
Fe6 O0 2.027333 1_555
Fe6 O46 2.041676 1_555
Fe7 O71 1.891603 1_555
Fe7 O65 1.896202 1_555
Fe7 O33 2.000211 1_555
Fe7 O15 2.002615 1_555
Fe7 O1 2.027333 1_555
Fe7 O47 2.041676 1_555
O0 P0 1.544609 1_556
O1 P1 1.544609 1_554
O2 P2 1.544609 1_555
O3 P3 1.544609 1_555
O4 P4 1.544609 1_554
O5 P5 1.544609 1_556
O6 P6 1.544609 1_555
O7 P7 1.544609 1_555
O8 P0 1.576266 1_555
O9 P1 1.576266 1_555
O10 P2 1.576266 1_555
O11 P3 1.576266 1_555
O12 P4 1.576266 1_555
O13 P5 1.576266 1_555
O14 P6 1.576266 1_555
O15 P7 1.576266 1_555
O16 P0 1.553134 1_556
O17 P1 1.553134 1_554
O18 P2 1.553134 1_555
O19 P3 1.553134 1_555
O20 P4 1.553134 1_554
O21 P5 1.553134 1_556
O22 P6 1.553134 1_555
O23 P7 1.553134 1_555
O24 P0 1.541870 1_555
O25 P1 1.541870 1_555
O26 P2 1.541870 1_555
O27 P3 1.541870 1_555
O28 P4 1.541870 1_555
O29 P5 1.541870 1_555
O30 P6 1.541870 1_555
O31 P7 1.541870 1_555
O32 P8 1.570963 1_555
O33 P9 1.570963 1_555
O34 P10 1.570963 1_555
O35 P11 1.570963 1_555
O36 P12 1.570963 1_555
O37 P13 1.570963 1_555
O38 P14 1.570963 1_555
O39 P15 1.570963 1_555
O40 P8 1.542492 1_554
O41 P9 1.542492 1_556
O42 P10 1.542492 1_555
O43 P11 1.542492 1_555
O44 P12 1.542492 1_556
O45 P13 1.542492 1_554
O46 P14 1.542492 1_555
O47 P15 1.542492 1_555
O48 P8 1.554041 1_554
O49 P9 1.554041 1_556
O50 P10 1.554041 1_555
O51 P11 1.554041 1_555
O52 P12 1.554041 1_556
O53 P13 1.554041 1_554
O54 P14 1.554041 1_555
O55 P15 1.554041 1_555
O56 P8 1.539996 1_555
O57 P9 1.539996 1_555
O58 P10 1.539996 1_555
O59 P11 1.539996 1_555
O60 P12 1.539996 1_555
O61 P13 1.539996 1_555
O62 P14 1.539996 1_555
O63 P15 1.539996 1_555
O72 O91 1.243661 1_555
O73 O90 1.243661 1_555
O74 O89 1.243661 1_555
O75 O88 1.243661 1_555
O76 O95 1.243661 1_555
O77 O94 1.243661 1_555
O78 O93 1.243661 1_555
O79 O92 1.243661 1_555
O80 O84 1.975060 1_556
O81 O85 1.975060 1_644
O82 O86 1.975060 1_565
O83 O87 1.975060 1_455
O84 O96 1.241051 1_555
O85 O97 1.241051 1_555
O86 O98 1.241051 1_555
O87 O99 1.241051 1_555
O100 O80 1.241051 1_555
O101 O81 1.241051 1_555
O102 O82 1.241051 1_555
O103 O83 1.241051 1_555
