# generated using pymatgen
data_CaTi2Zn2(PO5)2
_symmetry_space_group_name_H-M   'P 1'
_cell_length_a   5.51767819
_cell_length_b   7.52117958
_cell_length_c   9.43053787
_cell_angle_alpha   85.40683890
_cell_angle_beta   38.09736298
_cell_angle_gamma   103.95400444
_symmetry_Int_Tables_number   1
_chemical_formula_structural   CaTi2Zn2(PO5)2
_chemical_formula_sum   'Ca1 Ti2 Zn2 P2 O10'
_cell_volume   209.19842593
_cell_formula_units_Z   1
loop_
 _symmetry_equiv_pos_site_id
 _symmetry_equiv_pos_as_xyz
  1  'x, y, z'
loop_
 _atom_site_type_symbol
 _atom_site_label
 _atom_site_symmetry_multiplicity
 _atom_site_fract_x
 _atom_site_fract_y
 _atom_site_fract_z
 _atom_site_occupancy
  Ca  Ca0  1  0.46931800  0.99368500  0.01969100  1
  Ti  Ti0  1  0.49065700  0.48154600  0.50530500  1
  Ti  Ti1  1  0.40367600  0.95829600  0.48044600  1
  Zn  Zn0  1  0.21172100  0.19882600  0.38435400  1
  Zn  Zn1  1  0.69227300  0.80087400  0.64079800  1
  P  P0  1  0.47880600  0.32034100  0.84358500  1
  P  P1  1  0.54937200  0.68211000  0.14706800  1
  O  O0  1  0.58168500  0.16794500  0.72777800  1
  O  O1  1  0.40888000  0.46232000  0.76118000  1
  O  O2  1  0.46927400  0.83862200  0.25928600  1
  O  O3  1  0.59203400  0.52750800  0.23736800  1
  O  O4  1  0.14992600  0.57314200  0.23209100  1
  O  O5  1  0.98087600  0.80953900  0.85186500  1
  O  O6  1  0.87457800  0.44473900  0.75925800  1
  O  O7  1  0.06011600  0.19049800  0.13885200  1
  O  O8  1  0.68310100  0.78917700  0.42638600  1
  O  O9  1  0.31039700  0.20595700  0.56889100  1
loop_
_geom_bond_atom_site_label_1
_geom_bond_atom_site_label_2
_geom_bond_distance
_geom_bond_site_symmetry_2
Ca0 O8 2.354729 1_455
Ca0 O0 2.454477 1_564
Ca0 O2 2.458148 1_555
Ca0 O7 2.537071 1_565
Ca0 O9 2.538976 1_664
O0 P0 1.538591 1_555
O0 Zn0 2.097042 1_655
O1 P0 1.559104 1_555
O1 Ti0 2.060632 1_555
O1 Zn1 2.245084 1_555
O2 P1 1.554108 1_555
O2 Ti1 2.135595 1_555
O2 Zn1 2.525343 1_455
O3 P1 1.556148 1_555
O3 Ti0 2.087898 1_555
O3 Zn0 2.192529 1_555
O4 P1 1.553834 1_555
O4 Ti0 2.025090 1_455
O5 P1 1.541833 1_556
O5 Ti1 2.053130 1_655
O6 P0 1.561626 1_555
O6 Ti0 1.998536 1_655
O7 P0 1.547880 1_554
O7 Ti1 2.056731 1_445
O8 Ti1 2.016789 1_555
O8 Zn1 2.070331 1_555
O8 Ti0 2.080941 1_555
O9 Ti0 1.874322 1_555
O9 Ti1 2.113241 1_545
O9 Zn0 2.195471 1_555
