# generated using pymatgen
data_Sr2BBrN2
_symmetry_space_group_name_H-M   'P 1'
_cell_length_a   4.14919837
_cell_length_b   4.14919837
_cell_length_c   9.21272332
_cell_angle_alpha   76.98602997
_cell_angle_beta   76.98602997
_cell_angle_gamma   59.99999406
_symmetry_Int_Tables_number   1
_chemical_formula_structural   Sr2BBrN2
_chemical_formula_sum   'Sr2 B1 Br1 N2'
_cell_volume   132.63101295
_cell_formula_units_Z   1
loop_
 _symmetry_equiv_pos_site_id
 _symmetry_equiv_pos_as_xyz
  1  'x, y, z'
loop_
 _atom_site_type_symbol
 _atom_site_label
 _atom_site_symmetry_multiplicity
 _atom_site_fract_x
 _atom_site_fract_y
 _atom_site_fract_z
 _atom_site_occupancy
  Sr  Sr0  1  0.75216500  0.75216500  0.74350500  1
  Sr  Sr1  1  0.24783500  0.24783500  0.25649500  1
  B  B0  1  0.50000000  0.50000000  0.50000000  1
  Br  Br0  1  0.00000000  0.00000000  0.00000000  1
  N  N0  1  0.55057800  0.55057800  0.34826600  1
  N  N1  1  0.44942200  0.44942200  0.65173400  1
loop_
_geom_bond_atom_site_label_1
_geom_bond_atom_site_label_2
_geom_bond_distance
_geom_bond_site_symmetry_2
B0 N1 1.349799 1_555
B0 N0 1.349799 1_555
Br0 Sr1 3.308311 1_545
Br0 Sr0 3.308311 1_454
Br0 Sr1 3.308311 1_455
Br0 Sr0 3.308311 1_544
Br0 Sr1 3.308312 1_555
Br0 Sr0 3.308312 1_444
N0 Sr1 2.530828 1_655
N0 Sr1 2.530828 1_565
N0 Sr1 2.530828 1_555
N1 Sr0 2.530828 1_545
N1 Sr0 2.530828 1_455
N1 Sr0 2.530828 1_555
