# generated using pymatgen
data_VCrAs2
_symmetry_space_group_name_H-M   'P 1'
_cell_length_a   3.43703300
_cell_length_b   5.77868100
_cell_length_c   6.22008500
_cell_angle_alpha   90.00000000
_cell_angle_beta   90.00000000
_cell_angle_gamma   90.00000000
_symmetry_Int_Tables_number   1
_chemical_formula_structural   VCrAs2
_chemical_formula_sum   'V2 Cr2 As4'
_cell_volume   123.54032579
_cell_formula_units_Z   2
loop_
 _symmetry_equiv_pos_site_id
 _symmetry_equiv_pos_as_xyz
  1  'x, y, z'
loop_
 _atom_site_type_symbol
 _atom_site_label
 _atom_site_symmetry_multiplicity
 _atom_site_fract_x
 _atom_site_fract_y
 _atom_site_fract_z
 _atom_site_occupancy
  V  V0  1  0.75000000  0.49308900  0.69323700  1
  V  V1  1  0.75000000  0.99308900  0.80676300  1
  Cr  Cr0  1  0.25000000  0.50715700  0.30714300  1
  Cr  Cr1  1  0.25000000  0.00715700  0.19285700  1
  As  As0  1  0.75000000  0.29901400  0.08019700  1
  As  As1  1  0.75000000  0.79901400  0.41980300  1
  As  As2  1  0.25000000  0.70074000  0.92618200  1
  As  As3  1  0.25000000  0.20074000  0.57381800  1
loop_
_geom_bond_atom_site_label_1
_geom_bond_atom_site_label_2
_geom_bond_distance
_geom_bond_site_symmetry_2
As0 V1 2.453147 1_544
As0 Cr1 2.507748 1_555
As0 Cr1 2.507748 1_655
As0 Cr0 2.528377 1_555
As0 Cr0 2.528377 1_655
As0 V0 2.655379 1_554
As1 V0 2.453147 1_555
As1 Cr0 2.507748 1_555
As1 Cr0 2.507748 1_655
As1 Cr1 2.528377 1_565
As1 Cr1 2.528377 1_665
As1 V1 2.655379 1_555
As2 Cr1 2.426263 1_566
As2 V1 2.521723 1_555
As2 V1 2.521723 1_455
As2 V0 2.548057 1_455
As2 V0 2.548057 1_555
As2 Cr0 2.620389 1_556
As3 Cr0 2.426263 1_555
As3 V0 2.521723 1_555
As3 V0 2.521723 1_455
As3 V1 2.548057 1_445
As3 V1 2.548057 1_545
As3 Cr1 2.620389 1_555
