# generated using pymatgen
data_Na2SrMg(PO4)2
_symmetry_space_group_name_H-M   'P 1'
_cell_length_a   5.33531400
_cell_length_b   9.24176100
_cell_length_c   13.69312166
_cell_angle_alpha   89.71901647
_cell_angle_beta   90.00000000
_cell_angle_gamma   90.00000000
_symmetry_Int_Tables_number   1
_chemical_formula_structural   Na2SrMg(PO4)2
_chemical_formula_sum   'Na8 Sr4 Mg4 P8 O32'
_cell_volume   675.16817271
_cell_formula_units_Z   4
loop_
 _symmetry_equiv_pos_site_id
 _symmetry_equiv_pos_as_xyz
  1  'x, y, z'
loop_
 _atom_site_type_symbol
 _atom_site_label
 _atom_site_symmetry_multiplicity
 _atom_site_fract_x
 _atom_site_fract_y
 _atom_site_fract_z
 _atom_site_occupancy
  Na  Na0  1  0.77237500  0.91644300  0.90732600  1
  Na  Na1  1  0.27237500  0.08355700  0.59267400  1
  Na  Na2  1  0.22762500  0.08355700  0.09267400  1
  Na  Na3  1  0.72762500  0.91644300  0.40732600  1
  Na  Na4  1  0.76983100  0.58442600  0.58968600  1
  Na  Na5  1  0.26983100  0.41557400  0.91031400  1
  Na  Na6  1  0.23016900  0.41557400  0.41031400  1
  Na  Na7  1  0.73016900  0.58442600  0.08968600  1
  Sr  Sr0  1  0.80605700  0.25355000  0.74997500  1
  Sr  Sr1  1  0.30605700  0.74645000  0.75002500  1
  Sr  Sr2  1  0.19394300  0.74645000  0.25002500  1
  Sr  Sr3  1  0.69394300  0.25355000  0.24997500  1
  Mg  Mg0  1  0.74684500  0.24937600  0.50084700  1
  Mg  Mg1  1  0.24684500  0.75062400  0.99915300  1
  Mg  Mg2  1  0.25315500  0.75062400  0.49915300  1
  Mg  Mg3  1  0.75315500  0.24937600  0.00084700  1
  P  P0  1  0.77113100  0.91714900  0.63173800  1
  P  P1  1  0.27113100  0.08285100  0.86826200  1
  P  P2  1  0.22886900  0.08285100  0.36826200  1
  P  P3  1  0.72886900  0.91714900  0.13173800  1
  P  P4  1  0.76575500  0.58105300  0.86733300  1
  P  P5  1  0.26575500  0.41894700  0.63266700  1
  P  P6  1  0.23424500  0.41894700  0.13266700  1
  P  P7  1  0.73424500  0.58105300  0.36733300  1
  O  O0  1  0.29819400  0.92328300  0.90429100  1
  O  O1  1  0.79819400  0.07671700  0.59570900  1
  O  O2  1  0.70180600  0.07671700  0.09570900  1
  O  O3  1  0.20180600  0.92328300  0.40429100  1
  O  O4  1  0.71172500  0.91261200  0.74124200  1
  O  O5  1  0.21172500  0.08738800  0.75875800  1
  O  O6  1  0.28827500  0.08738800  0.25875800  1
  O  O7  1  0.78827500  0.91261200  0.24124200  1
  O  O8  1  0.01909300  0.83443100  0.60831100  1
  O  O9  1  0.51909300  0.16556900  0.89168900  1
  O  O10  1  0.98090700  0.16556900  0.39168900  1
  O  O11  1  0.48090700  0.83443100  0.10831100  1
  O  O12  1  0.55251000  0.84508400  0.57377100  1
  O  O13  1  0.05251000  0.15491600  0.92622900  1
  O  O14  1  0.44749000  0.15491600  0.42622900  1
  O  O15  1  0.94749000  0.84508400  0.07377100  1
  O  O16  1  0.53874600  0.65063800  0.92195300  1
  O  O17  1  0.03874600  0.34936200  0.57804700  1
  O  O18  1  0.46125400  0.34936200  0.07804700  1
  O  O19  1  0.96125400  0.65063800  0.42195300  1
  O  O20  1  0.71184100  0.57861300  0.75729800  1
  O  O21  1  0.21184100  0.42138700  0.74270200  1
  O  O22  1  0.28815900  0.42138700  0.24270200  1
  O  O23  1  0.78815900  0.57861300  0.25729800  1
  O  O24  1  0.80036200  0.42383800  0.90698800  1
  O  O25  1  0.30036200  0.57616200  0.59301200  1
  O  O26  1  0.19963800  0.57616200  0.09301200  1
  O  O27  1  0.69963800  0.42383800  0.40698800  1
  O  O28  1  0.50656000  0.33026100  0.60910800  1
  O  O29  1  0.00656000  0.66973900  0.89089200  1
  O  O30  1  0.49344000  0.66973900  0.39089200  1
  O  O31  1  0.99344000  0.33026100  0.10910800  1
loop_
_geom_bond_atom_site_label_1
_geom_bond_atom_site_label_2
_geom_bond_distance
_geom_bond_site_symmetry_2
Na0 O4 2.297559 1_555
Na0 O0 2.531030 1_555
Na0 O15 2.547079 1_556
Na0 O29 2.610576 1_655
Na0 O13 2.676503 1_665
Na0 O9 2.677313 1_565
Na0 O16 2.761057 1_555
Na0 O0 2.806425 1_655
Na1 O5 2.297559 1_555
Na1 O1 2.531030 1_455
Na1 O14 2.547079 1_555
Na1 O28 2.610576 1_555
Na1 O12 2.676503 1_545
Na1 O8 2.677313 1_545
Na1 O17 2.761057 1_555
Na1 O1 2.806425 1_555
Na2 O6 2.297559 1_555
Na2 O2 2.531030 1_555
Na2 O13 2.547079 1_554
Na2 O31 2.610576 1_455
Na2 O15 2.676503 1_445
Na2 O11 2.677313 1_545
Na2 O18 2.761057 1_555
Na2 O2 2.806425 1_455
Na3 O7 2.297559 1_555
Na3 O3 2.531030 1_655
Na3 O12 2.547079 1_555
Na3 O30 2.610576 1_555
Na3 O14 2.676503 1_565
Na3 O10 2.677313 1_565
Na3 O19 2.761057 1_555
Na3 O3 2.806425 1_555
Na4 O20 2.316254 1_555
Na4 O25 2.506336 1_555
Na4 O19 2.584366 1_555
Na4 O17 2.608953 1_655
Na4 O8 2.679138 1_655
Na4 O12 2.681364 1_555
Na4 O28 2.748650 1_555
Na4 O25 2.831940 1_655
Na4 O27 2.939013 1_555
Na5 O21 2.316254 1_555
Na5 O24 2.506336 1_455
Na5 O18 2.584366 1_556
Na5 O16 2.608953 1_555
Na5 O9 2.679138 1_555
Na5 O13 2.681364 1_555
Na5 O29 2.748650 1_555
Na5 O24 2.831940 1_555
Na5 O26 2.939013 1_556
Na6 O22 2.316254 1_555
Na6 O27 2.506336 1_555
Na6 O17 2.584366 1_555
Na6 O19 2.608953 1_455
Na6 O10 2.679138 1_455
Na6 O14 2.681364 1_555
Na6 O30 2.748650 1_555
Na6 O27 2.831940 1_455
Na6 O25 2.939013 1_555
Na7 O23 2.316254 1_555
Na7 O26 2.506336 1_655
Na7 O16 2.584366 1_554
Na7 O18 2.608953 1_555
Na7 O11 2.679138 1_555
Na7 O15 2.681364 1_555
Na7 O31 2.748650 1_555
Na7 O26 2.831940 1_555
Na7 O24 2.939013 1_554
Mg0 O1 2.070794 1_555
Mg0 O27 2.072326 1_555
Mg0 O14 2.089429 1_555
Mg0 O10 2.098785 1_555
Mg0 O17 2.099135 1_655
Mg0 O28 2.100183 1_555
Mg1 O0 2.070794 1_555
Mg1 O26 2.072326 1_556
Mg1 O15 2.089429 1_456
Mg1 O11 2.098785 1_556
Mg1 O16 2.099135 1_555
Mg1 O29 2.100183 1_555
Mg2 O3 2.070794 1_555
Mg2 O25 2.072326 1_555
Mg2 O12 2.089429 1_555
Mg2 O8 2.098785 1_555
Mg2 O19 2.099135 1_455
Mg2 O30 2.100183 1_555
Mg3 O2 2.070794 1_555
Mg3 O24 2.072326 1_554
Mg3 O13 2.089429 1_654
Mg3 O9 2.098785 1_554
Mg3 O18 2.099135 1_555
Mg3 O31 2.100183 1_555
O0 P1 1.559428 1_565
O0 Sr1 2.677415 1_555
O1 P0 1.559428 1_545
O1 Sr0 2.677415 1_555
O2 P3 1.559428 1_545
O2 Sr3 2.677415 1_555
O3 P2 1.559428 1_565
O3 Sr2 2.677415 1_555
O4 P0 1.532956 1_555
O4 Sr1 2.656180 1_555
O4 Sr0 3.193629 1_565
O5 P1 1.532956 1_555
O5 Sr0 2.656180 1_455
O5 Sr1 3.193629 1_545
O6 P2 1.532956 1_555
O6 Sr3 2.656180 1_555
O6 Sr2 3.193629 1_545
O7 P3 1.532956 1_555
O7 Sr2 2.656180 1_655
O7 Sr3 3.193629 1_565
O8 P0 1.562024 1_455
O8 Sr1 2.599099 1_555
O9 P1 1.562024 1_555
O9 Sr0 2.599099 1_555
O10 P2 1.562024 1_655
O10 Sr3 2.599099 1_555
O11 P3 1.562024 1_555
O11 Sr2 2.599099 1_555
O12 P0 1.561827 1_555
O12 Sr1 2.891911 1_555
O13 P1 1.561827 1_555
O13 Sr0 2.891911 1_455
O14 P2 1.561827 1_555
O14 Sr3 2.891911 1_555
O15 P3 1.561827 1_555
O15 Sr2 2.891911 1_655
O16 P4 1.563515 1_555
O16 Sr1 2.801297 1_555
O17 P5 1.563515 1_555
O17 Sr0 2.801297 1_455
O18 P6 1.563515 1_555
O18 Sr3 2.801297 1_555
O19 P7 1.563515 1_555
O19 Sr2 2.801297 1_655
O20 P4 1.534209 1_555
O20 Sr1 2.664865 1_555
O20 Sr0 3.048054 1_555
O21 P5 1.534209 1_555
O21 Sr0 2.664865 1_455
O21 Sr1 3.048054 1_555
O22 P6 1.534209 1_555
O22 Sr3 2.664865 1_555
O22 Sr2 3.048054 1_555
O23 P7 1.534209 1_555
O23 Sr2 2.664865 1_655
O23 Sr3 3.048054 1_555
O24 P4 1.559567 1_555
O24 Sr0 2.670829 1_555
O25 P5 1.559567 1_555
O25 Sr1 2.670829 1_555
O26 P6 1.559567 1_555
O26 Sr2 2.670829 1_555
O27 P7 1.559567 1_555
O27 Sr3 2.670829 1_555
O28 P5 1.558546 1_555
O28 Sr0 2.600615 1_555
O29 P4 1.558546 1_455
O29 Sr1 2.600615 1_555
O30 P7 1.558546 1_555
O30 Sr2 2.600615 1_555
O31 P6 1.558546 1_655
O31 Sr3 2.600615 1_555
