# generated using pymatgen
data_BaLaInO4
_symmetry_space_group_name_H-M   'P 1'
_cell_length_a   5.99125300
_cell_length_b   5.91932700
_cell_length_c   13.42382700
_cell_angle_alpha   90.00000000
_cell_angle_beta   90.00000000
_cell_angle_gamma   90.00000000
_symmetry_Int_Tables_number   1
_chemical_formula_structural   BaLaInO4
_chemical_formula_sum   'Ba4 La4 In4 O16'
_cell_volume   476.06509282
_cell_formula_units_Z   4
loop_
 _symmetry_equiv_pos_site_id
 _symmetry_equiv_pos_as_xyz
  1  'x, y, z'
loop_
 _atom_site_type_symbol
 _atom_site_label
 _atom_site_symmetry_multiplicity
 _atom_site_fract_x
 _atom_site_fract_y
 _atom_site_fract_z
 _atom_site_occupancy
  Ba  Ba0  1  0.48338600  0.99821600  0.35424700  1
  Ba  Ba1  1  0.01661400  0.49821600  0.64575300  1
  Ba  Ba2  1  0.48338600  0.49821600  0.14575300  1
  Ba  Ba3  1  0.01661400  0.99821600  0.85424700  1
  La  La0  1  0.55083400  0.47698000  0.85312700  1
  La  La1  1  0.94916600  0.97698000  0.14687300  1
  La  La2  1  0.55083400  0.97698000  0.64687300  1
  La  La3  1  0.94916600  0.47698000  0.35312700  1
  In  In0  1  0.49471800  0.99547300  0.00092200  1
  In  In1  1  0.49471800  0.49547300  0.49907800  1
  In  In2  1  0.00528200  0.49547300  0.99907800  1
  In  In3  1  0.00528200  0.99547300  0.50092200  1
  O  O0  1  0.55662500  0.97439500  0.16440100  1
  O  O1  1  0.49502900  0.57739200  0.67787600  1
  O  O2  1  0.94337500  0.47439500  0.83559900  1
  O  O3  1  0.00497100  0.07739200  0.32212400  1
  O  O4  1  0.49502900  0.07739200  0.82212400  1
  O  O5  1  0.55662500  0.47439500  0.33559900  1
  O  O6  1  0.00497100  0.57739200  0.17787600  1
  O  O7  1  0.94337500  0.97439500  0.66440100  1
  O  O8  1  0.70518400  0.78868300  0.49675700  1
  O  O9  1  0.30952400  0.68885900  0.96899300  1
  O  O10  1  0.79481600  0.28868300  0.50324300  1
  O  O11  1  0.19047600  0.18885900  0.03100700  1
  O  O12  1  0.30952400  0.18885900  0.53100700  1
  O  O13  1  0.70518400  0.28868300  0.00324300  1
  O  O14  1  0.19047600  0.68885900  0.46899300  1
  O  O15  1  0.79481600  0.78868300  0.99675700  1
loop_
_geom_bond_atom_site_label_1
_geom_bond_atom_site_label_2
_geom_bond_distance
_geom_bond_site_symmetry_2
Ba0 O0 2.589801 1_555
Ba0 O8 2.638911 1_555
Ba0 O12 2.826422 1_565
Ba0 O5 2.863572 1_565
Ba0 O3 2.936205 1_565
Ba0 O14 2.967410 1_555
Ba0 O5 3.141551 1_555
Ba0 O3 3.189184 1_665
Ba0 O10 3.230795 1_565
Ba1 O2 2.589801 1_455
Ba1 O10 2.638911 1_455
Ba1 O14 2.826422 1_555
Ba1 O7 2.863572 1_455
Ba1 O1 2.936205 1_555
Ba1 O12 2.967410 1_555
Ba1 O7 3.141551 1_445
Ba1 O1 3.189184 1_455
Ba1 O8 3.230795 1_455
Ba2 O5 2.589801 1_555
Ba2 O13 2.638911 1_555
Ba2 O9 2.826422 1_554
Ba2 O0 2.863572 1_555
Ba2 O6 2.936205 1_555
Ba2 O11 2.967410 1_555
Ba2 O0 3.141551 1_545
Ba2 O6 3.189184 1_655
Ba2 O15 3.230795 1_554
Ba3 O7 2.589801 1_455
Ba3 O15 2.638911 1_455
Ba3 O11 2.826422 1_566
Ba3 O2 2.863572 1_465
Ba3 O4 2.936205 1_565
Ba3 O9 2.967410 1_555
Ba3 O2 3.141551 1_455
Ba3 O4 3.189184 1_465
Ba3 O13 3.230795 1_466
La0 O2 2.363603 1_555
La0 O4 2.424788 1_555
La0 O1 2.449388 1_555
La0 O9 2.466236 1_555
La0 O13 2.481578 1_556
La1 O0 2.363603 1_555
La1 O6 2.424788 1_655
La1 O3 2.449388 1_665
La1 O11 2.466236 1_665
La1 O15 2.481578 1_554
La2 O7 2.363603 1_555
La2 O1 2.424788 1_555
La2 O4 2.449388 1_565
La2 O12 2.466236 1_565
La2 O8 2.481578 1_555
La3 O5 2.363603 1_555
La3 O3 2.424788 1_655
La3 O6 2.449388 1_655
La3 O14 2.466236 1_655
La3 O10 2.481578 1_555
In0 O13 2.145532 1_565
In0 O9 2.169984 1_554
In0 O15 2.175802 1_554
In0 O11 2.189986 1_565
In0 O0 2.229131 1_555
In0 O4 2.448647 1_564
In1 O8 2.145532 1_555
In1 O12 2.169984 1_555
In1 O10 2.175802 1_555
In1 O14 2.189986 1_555
In1 O5 2.229131 1_555
In1 O1 2.448647 1_555
In2 O15 2.145532 1_455
In2 O11 2.169984 1_556
In2 O13 2.175802 1_456
In2 O9 2.189986 1_555
In2 O2 2.229131 1_455
In2 O6 2.448647 1_556
In3 O10 2.145532 1_465
In3 O14 2.169984 1_555
In3 O8 2.175802 1_455
In3 O12 2.189986 1_565
In3 O7 2.229131 1_455
In3 O3 2.448647 1_565
