# generated using pymatgen
data_KZr4BiO12
_symmetry_space_group_name_H-M   'P 1'
_cell_length_a   5.73955933
_cell_length_b   5.73955933
_cell_length_c   8.42234811
_cell_angle_alpha   90.00000000
_cell_angle_beta   90.00000000
_cell_angle_gamma   89.25821372
_symmetry_Int_Tables_number   1
_chemical_formula_structural   KZr4BiO12
_chemical_formula_sum   'K1 Zr4 Bi1 O12'
_cell_volume   277.43029802
_cell_formula_units_Z   1
loop_
 _symmetry_equiv_pos_site_id
 _symmetry_equiv_pos_as_xyz
  1  'x, y, z'
loop_
 _atom_site_type_symbol
 _atom_site_label
 _atom_site_symmetry_multiplicity
 _atom_site_fract_x
 _atom_site_fract_y
 _atom_site_fract_z
 _atom_site_occupancy
  K  K0  1  0.02602167  0.97397833  0.50000000  1
  Zr  Zr0  1  0.50692436  0.01303814  0.25486770  1
  Zr  Zr1  1  0.50692436  0.01303814  0.74513230  1
  Zr  Zr2  1  0.98696186  0.49307564  0.74513230  1
  Zr  Zr3  1  0.98696186  0.49307564  0.25486770  1
  Bi  Bi0  1  0.44945419  0.55054581  -0.00000000  1
  O  O0  1  0.19465637  0.19504173  0.25712870  1
  O  O1  1  0.80495827  0.80534363  0.25712870  1
  O  O2  1  0.80495827  0.80534363  0.74287130  1
  O  O3  1  0.19465637  0.19504173  0.74287130  1
  O  O4  1  0.30761430  0.69238570  0.23557143  1
  O  O5  1  0.66652001  0.33347999  0.16926276  1
  O  O6  1  0.66652001  0.33347999  0.83073724  1
  O  O7  1  0.30761430  0.69238570  0.76442857  1
  O  O8  1  0.52218073  0.91278137  -0.00000000  1
  O  O9  1  0.52599816  0.03164373  0.50000000  1
  O  O10  1  0.08721863  0.47781927  -0.00000000  1
  O  O11  1  0.96835627  0.47400184  0.50000000  1
loop_
_geom_bond_atom_site_label_1
_geom_bond_atom_site_label_2
_geom_bond_distance
_geom_bond_site_symmetry_2
K0 O1 2.600526 1_455
K0 O3 2.600526 1_565
K0 O0 2.600526 1_565
K0 O2 2.600526 1_455
K0 O9 2.884677 1_465
K0 O11 2.884677 1_465
K0 O11 2.892922 1_455
K0 O9 2.892922 1_565
K0 O7 3.180676 1_555
K0 O4 3.180676 1_555
Bi0 O10 2.125853 1_555
Bi0 O8 2.125853 1_555
Bi0 O6 2.257534 1_554
Bi0 O5 2.257534 1_555
Bi0 O4 2.290167 1_555
Bi0 O7 2.290167 1_554
O0 Zr0 2.062859 1_555
O0 Zr3 2.072366 1_455
O1 Zr3 2.062859 1_555
O1 Zr0 2.072366 1_565
O2 Zr2 2.062859 1_555
O2 Zr1 2.072366 1_565
O3 Zr1 2.062859 1_555
O3 Zr2 2.072366 1_455
O4 Zr0 2.185552 1_565
O4 Zr3 2.185552 1_455
O5 Zr3 2.187502 1_555
O5 Zr0 2.187502 1_555
O6 Zr2 2.187502 1_555
O6 Zr1 2.187502 1_555
O7 Zr2 2.185552 1_455
O7 Zr1 2.185552 1_565
O8 Zr0 2.223805 1_565
O8 Zr1 2.223805 1_564
O9 Zr1 2.070319 1_555
O9 Zr0 2.070319 1_555
O10 Zr3 2.223805 1_455
O10 Zr2 2.223805 1_454
O11 Zr2 2.070319 1_555
O11 Zr3 2.070319 1_555
