# generated using pymatgen
data_YbMn2
_symmetry_space_group_name_H-M   'P 1'
_cell_length_a   5.51272757
_cell_length_b   5.51272757
_cell_length_c   8.89351600
_cell_angle_alpha   90.00000000
_cell_angle_beta   90.00000000
_cell_angle_gamma   119.99999488
_symmetry_Int_Tables_number   1
_chemical_formula_structural   YbMn2
_chemical_formula_sum   'Yb4 Mn8'
_cell_volume   234.06539298
_cell_formula_units_Z   4
loop_
 _symmetry_equiv_pos_site_id
 _symmetry_equiv_pos_as_xyz
  1  'x, y, z'
loop_
 _atom_site_type_symbol
 _atom_site_label
 _atom_site_symmetry_multiplicity
 _atom_site_fract_x
 _atom_site_fract_y
 _atom_site_fract_z
 _atom_site_occupancy
  Yb  Yb0  1  0.33333300  0.66666700  0.43750500  1
  Yb  Yb1  1  0.66666700  0.33333300  0.56249500  1
  Yb  Yb2  1  0.66666700  0.33333300  0.93750500  1
  Yb  Yb3  1  0.33333300  0.66666700  0.06249500  1
  Mn  Mn0  1  0.00000000  0.00000000  0.50000000  1
  Mn  Mn1  1  0.00000000  0.00000000  0.00000000  1
  Mn  Mn2  1  0.84392700  0.15607300  0.25000000  1
  Mn  Mn3  1  0.84392700  0.68785300  0.25000000  1
  Mn  Mn4  1  0.31214700  0.15607300  0.25000000  1
  Mn  Mn5  1  0.15607300  0.84392700  0.75000000  1
  Mn  Mn6  1  0.15607300  0.31214700  0.75000000  1
  Mn  Mn7  1  0.68785300  0.84392700  0.75000000  1
loop_
_geom_bond_atom_site_label_1
_geom_bond_atom_site_label_2
_geom_bond_distance
_geom_bond_site_symmetry_2
Yb0 Yb3 3.335157 1_555
Yb0 Yb1 3.371304 1_455
Yb0 Yb1 3.371304 1_565
Yb0 Yb1 3.371313 1_555
Yb1 Yb2 3.335157 1_555
Yb2 Yb3 3.371304 1_546
Yb2 Yb3 3.371304 1_656
Yb2 Yb3 3.371313 1_556
Mn0 Mn5 2.676605 1_545
Mn0 Mn2 2.676605 1_455
Mn0 Mn7 2.676608 1_445
Mn0 Mn3 2.676608 1_445
Mn0 Mn4 2.676608 1_555
Mn0 Mn6 2.676608 1_555
Mn0 Yb0 3.230936 1_545
Mn0 Yb1 3.230936 1_455
Mn0 Yb0 3.230941 1_555
Mn0 Yb0 3.230941 1_445
Mn0 Yb1 3.230941 1_555
Mn0 Yb1 3.230941 1_445
Mn1 Mn2 2.676605 1_455
Mn1 Mn5 2.676605 1_544
Mn1 Mn3 2.676608 1_445
Mn1 Mn7 2.676608 1_444
Mn1 Mn4 2.676608 1_555
Mn1 Mn6 2.676608 1_554
Mn1 Yb3 3.230936 1_545
Mn1 Yb2 3.230936 1_454
Mn1 Yb3 3.230941 1_555
Mn1 Yb2 3.230941 1_444
Mn1 Yb2 3.230941 1_554
Mn1 Yb3 3.230941 1_445
Mn2 Mn3 2.581169 1_545
Mn2 Mn4 2.581169 1_655
Mn2 Mn4 2.931558 1_555
Mn2 Mn3 2.931558 1_555
Mn2 Yb0 3.223134 1_545
Mn2 Yb3 3.223134 1_545
Mn2 Yb3 3.223134 1_655
Mn2 Yb0 3.223134 1_655
Mn2 Yb2 3.254000 1_554
Mn2 Yb1 3.254000 1_555
Mn3 Mn4 2.581170 1_665
Mn3 Mn4 2.931558 1_555
Mn3 Yb0 3.223129 1_655
Mn3 Yb3 3.223129 1_655
Mn3 Yb3 3.223138 1_555
Mn3 Yb0 3.223138 1_555
Mn3 Yb2 3.254000 1_554
Mn3 Yb1 3.254000 1_555
Mn4 Yb0 3.223129 1_545
Mn4 Yb3 3.223129 1_545
Mn4 Yb3 3.223138 1_555
Mn4 Yb0 3.223138 1_555
Mn4 Yb1 3.254000 1_555
Mn4 Yb2 3.254000 1_554
Mn5 Mn7 2.581169 1_455
Mn5 Mn6 2.581169 1_565
Mn5 Mn6 2.931558 1_555
Mn5 Mn7 2.931558 1_555
Mn5 Yb1 3.223134 1_455
Mn5 Yb2 3.223134 1_455
Mn5 Yb1 3.223134 1_565
Mn5 Yb2 3.223134 1_565
Mn5 Yb3 3.254000 1_556
Mn5 Yb0 3.254000 1_555
Mn6 Mn7 2.581170 1_445
Mn6 Mn7 2.931558 1_555
Mn6 Yb2 3.223129 1_455
Mn6 Yb1 3.223129 1_455
Mn6 Yb1 3.223138 1_555
Mn6 Yb2 3.223138 1_555
Mn6 Yb3 3.254000 1_556
Mn6 Yb0 3.254000 1_555
Mn7 Yb1 3.223129 1_565
Mn7 Yb2 3.223129 1_565
Mn7 Yb1 3.223138 1_555
Mn7 Yb2 3.223138 1_555
Mn7 Yb0 3.254000 1_555
Mn7 Yb3 3.254000 1_556
