# generated using pymatgen
data_MgMoF5
_symmetry_space_group_name_H-M   'P 1'
_cell_length_a   5.52094424
_cell_length_b   5.52094424
_cell_length_c   7.73243475
_cell_angle_alpha   69.46001040
_cell_angle_beta   69.46001040
_cell_angle_gamma   72.85107742
_symmetry_Int_Tables_number   1
_chemical_formula_structural   MgMoF5
_chemical_formula_sum   'Mg2 Mo2 F10'
_cell_volume   202.67348883
_cell_formula_units_Z   2
loop_
 _symmetry_equiv_pos_site_id
 _symmetry_equiv_pos_as_xyz
  1  'x, y, z'
loop_
 _atom_site_type_symbol
 _atom_site_label
 _atom_site_symmetry_multiplicity
 _atom_site_fract_x
 _atom_site_fract_y
 _atom_site_fract_z
 _atom_site_occupancy
  Mg  Mg0  1  0.51630100  0.48369900  0.75000000  1
  Mg  Mg1  1  0.48369900  0.51630100  0.25000000  1
  Mo  Mo0  1  0.00000000  0.00000000  0.00000000  1
  Mo  Mo1  1  0.00000000  0.00000000  0.50000000  1
  F  F0  1  0.13915200  0.86084800  0.25000000  1
  F  F1  1  0.86084800  0.13915200  0.75000000  1
  F  F2  1  0.22827400  0.28947800  0.36525100  1
  F  F3  1  0.71052200  0.77172600  0.13474900  1
  F  F4  1  0.69787500  0.32130000  0.05257000  1
  F  F5  1  0.67870000  0.30212500  0.44743000  1
  F  F6  1  0.30212500  0.67870000  0.94743000  1
  F  F7  1  0.32130000  0.69787500  0.55257000  1
  F  F8  1  0.28947800  0.22827400  0.86525100  1
  F  F9  1  0.77172600  0.71052200  0.63474900  1
loop_
_geom_bond_atom_site_label_1
_geom_bond_atom_site_label_2
_geom_bond_distance
_geom_bond_site_symmetry_2
F0 Mo0 2.137586 1_565
F0 Mo1 2.137586 1_565
F0 Mg1 2.258997 1_555
F1 Mo1 2.137586 1_655
F1 Mo0 2.137586 1_656
F1 Mg0 2.258997 1_555
F2 Mg1 1.930655 1_555
F2 Mo1 2.079901 1_555
F3 Mg1 1.930655 1_555
F3 Mo0 2.079901 1_665
F4 Mg1 2.005909 1_555
F4 Mo0 2.092721 1_655
F5 Mg1 2.005909 1_555
F5 Mo1 2.092721 1_655
F6 Mg0 2.005909 1_555
F6 Mo0 2.092721 1_566
F7 Mg0 2.005909 1_555
F7 Mo1 2.092721 1_565
F8 Mg0 1.930655 1_555
F8 Mo0 2.079901 1_556
F9 Mg0 1.930655 1_555
F9 Mo1 2.079901 1_665
