# generated using pymatgen
data_LiZnSO4F
_symmetry_space_group_name_H-M   'P 1'
_cell_length_a   6.37504800
_cell_length_b   7.56482500
_cell_length_c   7.57921300
_cell_angle_alpha   90.00000000
_cell_angle_beta   90.00000000
_cell_angle_gamma   90.00000000
_symmetry_Int_Tables_number   1
_chemical_formula_structural   LiZnSO4F
_chemical_formula_sum   'Li4 Zn4 S4 O16 F4'
_cell_volume   365.51605449
_cell_formula_units_Z   4
loop_
 _symmetry_equiv_pos_site_id
 _symmetry_equiv_pos_as_xyz
  1  'x, y, z'
loop_
 _atom_site_type_symbol
 _atom_site_label
 _atom_site_symmetry_multiplicity
 _atom_site_fract_x
 _atom_site_fract_y
 _atom_site_fract_z
 _atom_site_occupancy
  Li  Li0  1  0.00000000  0.00000000  0.00000000  1
  Li  Li1  1  0.50000000  0.50000000  0.50000000  1
  Li  Li2  1  0.50000000  0.00000000  0.00000000  1
  Li  Li3  1  0.00000000  0.50000000  0.50000000  1
  Zn  Zn0  1  0.25000000  0.14189400  0.70552800  1
  Zn  Zn1  1  0.25000000  0.64189400  0.79447200  1
  Zn  Zn2  1  0.75000000  0.85810600  0.29447200  1
  Zn  Zn3  1  0.75000000  0.35810600  0.20552800  1
  S  S0  1  0.25000000  0.36832600  0.14149000  1
  S  S1  1  0.25000000  0.86832600  0.35851000  1
  S  S2  1  0.75000000  0.63167400  0.85851000  1
  S  S3  1  0.75000000  0.13167400  0.64149000  1
  O  O0  1  0.56311800  0.13183200  0.76133600  1
  O  O1  1  0.93688200  0.63183200  0.73866400  1
  O  O2  1  0.06311800  0.86816800  0.23866400  1
  O  O3  1  0.43688200  0.36816800  0.26133600  1
  O  O4  1  0.43688200  0.86816800  0.23866400  1
  O  O5  1  0.06311800  0.36816800  0.26133600  1
  O  O6  1  0.93688200  0.13183200  0.76133600  1
  O  O7  1  0.56311800  0.63183200  0.73866400  1
  O  O8  1  0.25000000  0.20667400  0.02962300  1
  O  O9  1  0.25000000  0.70667400  0.47037700  1
  O  O10  1  0.75000000  0.79332600  0.97037700  1
  O  O11  1  0.75000000  0.29332600  0.52962300  1
  O  O12  1  0.25000000  0.03039100  0.46585800  1
  O  O13  1  0.25000000  0.53039100  0.03414200  1
  O  O14  1  0.75000000  0.96960900  0.53414200  1
  O  O15  1  0.75000000  0.46960900  0.96585800  1
  F  F0  1  0.25000000  0.40052600  0.63617900  1
  F  F1  1  0.25000000  0.90052600  0.86382100  1
  F  F2  1  0.75000000  0.59947400  0.36382100  1
  F  F3  1  0.75000000  0.09947400  0.13617900  1
loop_
_geom_bond_atom_site_label_1
_geom_bond_atom_site_label_2
_geom_bond_distance
_geom_bond_site_symmetry_2
Li0 O6 2.104413 1_454
Li0 O2 2.104413 1_545
Li0 O8 2.243852 1_555
Li0 O10 2.243852 1_444
Li1 O7 2.104413 1_555
Li1 O3 2.104413 1_555
Li1 O9 2.243852 1_555
Li1 O11 2.243852 1_555
Li2 O0 2.104413 1_554
Li2 O4 2.104413 1_545
Li2 O8 2.243852 1_555
Li2 O10 2.243852 1_544
Li3 O1 2.104413 1_455
Li3 O5 2.104413 1_555
Li3 O9 2.243852 1_555
Li3 O11 2.243852 1_455
O0 S3 1.498156 1_555
O0 Zn0 2.041884 1_555
O1 S2 1.498156 1_555
O1 Zn1 2.041884 1_655
O2 S1 1.498156 1_555
O2 Zn2 2.041884 1_455
O3 S0 1.498156 1_555
O3 Zn3 2.041884 1_555
O4 S1 1.498156 1_555
O4 Zn2 2.041884 1_555
O5 S0 1.498156 1_555
O5 Zn3 2.041884 1_455
O6 S3 1.498156 1_555
O6 Zn0 2.041884 1_655
O7 S2 1.498156 1_555
O7 Zn1 2.041884 1_555
O8 S0 1.488046 1_555
O8 Zn0 2.504791 1_554
O9 S1 1.488046 1_555
O9 Zn1 2.504791 1_555
O10 S2 1.488046 1_555
O10 Zn2 2.504791 1_556
O11 S3 1.488046 1_555
O11 Zn3 2.504791 1_555
O12 S1 1.471403 1_545
O12 Zn0 2.002799 1_555
O13 S0 1.471403 1_555
O13 Zn1 2.002799 1_554
O14 S3 1.471403 1_565
O14 Zn2 2.002799 1_555
O15 S2 1.471403 1_555
O15 Zn3 2.002799 1_556
F0 Zn0 2.025878 1_555
F0 Li1 2.042457 1_555
F0 Li3 2.042457 1_555
F0 Zn1 2.184789 1_555
F1 Zn1 2.025878 1_555
F1 Li0 2.042457 1_566
F1 Li2 2.042457 1_566
F1 Zn0 2.184789 1_565
F2 Zn2 2.025878 1_555
F2 Li3 2.042457 1_655
F2 Li1 2.042457 1_555
F2 Zn3 2.184789 1_555
F3 Zn3 2.025878 1_555
F3 Li2 2.042457 1_555
F3 Li0 2.042457 1_655
F3 Zn2 2.184789 1_545
