# generated using pymatgen
data_KMg14Ni
_symmetry_space_group_name_H-M   'P 1'
_cell_length_a   6.49759748
_cell_length_b   6.34725170
_cell_length_c   10.32528784
_cell_angle_alpha   90.00000000
_cell_angle_beta   90.00000000
_cell_angle_gamma   119.23749123
_symmetry_Int_Tables_number   1
_chemical_formula_structural   KMg14Ni
_chemical_formula_sum   'K1 Mg14 Ni1'
_cell_volume   371.58418801
_cell_formula_units_Z   1
loop_
 _symmetry_equiv_pos_site_id
 _symmetry_equiv_pos_as_xyz
  1  'x, y, z'
loop_
 _atom_site_type_symbol
 _atom_site_label
 _atom_site_symmetry_multiplicity
 _atom_site_fract_x
 _atom_site_fract_y
 _atom_site_fract_z
 _atom_site_occupancy
  K  K0  1  0.12660415  0.81330158  0.12500000  1
  Mg  Mg0  1  0.16466165  0.33233033  0.62500000  1
  Mg  Mg1  1  0.17299701  0.83649800  0.62500000  1
  Mg  Mg2  1  0.62155112  0.32109486  0.12500000  1
  Mg  Mg3  1  0.66563831  0.32641985  0.62500000  1
  Mg  Mg4  1  0.62155112  0.80045526  0.12500000  1
  Mg  Mg5  1  0.66563831  0.83921746  0.62500000  1
  Mg  Mg6  1  0.34016897  0.17930424  0.37816574  1
  Mg  Mg7  1  0.34016897  0.17930424  0.87183426  1
  Mg  Mg8  1  0.34016897  0.66086573  0.37816574  1
  Mg  Mg9  1  0.34016897  0.66086573  0.87183426  1
  Mg  Mg10  1  0.85956058  0.17978079  0.34668078  1
  Mg  Mg11  1  0.85956058  0.17978079  0.90331922  1
  Mg  Mg12  1  0.82845934  0.66423017  0.39501826  1
  Mg  Mg13  1  0.82845934  0.66423017  0.85498174  1
  Ni  Ni0  1  0.22464260  0.36232080  0.12500000  1
loop_
_geom_bond_atom_site_label_1
_geom_bond_atom_site_label_2
_geom_bond_distance
_geom_bond_site_symmetry_2
K0 Ni0 3.221938 1_565
K0 Ni0 3.221938 1_555
K0 Mg2 3.242586 1_455
K0 Mg4 3.242586 1_455
K0 Mg2 3.256569 1_565
K0 Mg4 3.256570 1_555
K0 Mg13 3.260457 1_454
K0 Mg12 3.260457 1_455
K0 Mg8 3.317582 1_555
K0 Mg9 3.317582 1_554
K0 Mg6 3.317588 1_565
K0 Mg7 3.317588 1_564
Mg0 Mg6 3.133915 1_555
Mg0 Mg7 3.133915 1_555
Mg0 Mg9 3.133921 1_555
Mg0 Mg8 3.133921 1_555
Mg0 Mg1 3.173978 1_555
Mg0 Mg1 3.173978 1_545
Mg0 Mg5 3.224295 1_445
Mg0 Mg3 3.224295 1_455
Mg0 Mg5 3.273632 1_555
Mg0 Mg3 3.273632 1_555
Mg0 Mg11 3.354213 1_455
Mg0 Mg10 3.354213 1_455
Mg1 Mg12 3.074880 1_455
Mg1 Mg13 3.074880 1_455
Mg1 Mg8 3.178210 1_555
Mg1 Mg9 3.178210 1_555
Mg1 Mg7 3.178217 1_565
Mg1 Mg6 3.178217 1_565
Mg1 Mg3 3.192589 1_565
Mg1 Mg5 3.192590 1_555
Mg1 Mg3 3.305077 1_455
Mg1 Mg5 3.305078 1_455
Mg2 Ni0 2.716374 1_555
Mg2 Mg4 3.042621 1_555
Mg2 Mg7 3.062409 1_554
Mg2 Mg6 3.062409 1_555
Mg2 Mg4 3.304631 1_545
Mg3 Mg5 3.092396 1_545
Mg3 Mg6 3.148126 1_555
Mg3 Mg7 3.148126 1_555
Mg3 Mg5 3.254856 1_555
Mg4 Ni0 2.716374 1_555
Mg4 Mg8 3.062409 1_555
Mg4 Mg9 3.062409 1_554
Mg5 Mg8 3.148125 1_555
Mg5 Mg9 3.148125 1_555
Mg6 Mg8 3.056592 1_555
Mg6 Ni0 3.098025 1_555
Mg6 Mg8 3.290660 1_545
Mg7 Mg9 3.056592 1_555
Mg7 Ni0 3.098025 1_556
Mg7 Mg9 3.290660 1_545
Mg8 Ni0 3.098031 1_555
Mg9 Ni0 3.098031 1_556
Mg10 Ni0 3.086071 1_655
Mg10 Mg2 3.128952 1_555
Mg10 Mg4 3.128959 1_545
Mg10 Mg8 3.141146 1_655
Mg10 Mg6 3.141146 1_655
Mg10 Mg12 3.217467 1_545
Mg10 Mg12 3.217467 1_555
Mg10 Mg8 3.388950 1_545
Mg10 Mg6 3.388950 1_555
Mg10 Mg3 3.443533 1_555
Mg10 Mg5 3.443539 1_545
Mg11 Ni0 3.086071 1_656
Mg11 Mg2 3.128952 1_556
Mg11 Mg4 3.128959 1_546
Mg11 Mg9 3.141146 1_655
Mg11 Mg7 3.141146 1_655
Mg11 Mg13 3.217467 1_545
Mg11 Mg13 3.217467 1_555
Mg11 Mg9 3.388950 1_545
Mg11 Mg7 3.388950 1_555
Mg11 Mg3 3.443533 1_555
Mg11 Mg5 3.443539 1_545
Mg12 Mg5 3.023176 1_555
Mg12 Mg3 3.023183 1_555
Mg12 Mg6 3.167122 1_555
Mg12 Mg8 3.167123 1_555
Mg12 Mg6 3.339901 1_665
Mg12 Mg8 3.339902 1_655
Mg12 Mg4 3.385800 1_555
Mg12 Mg2 3.385806 1_555
Mg13 Mg5 3.023176 1_555
Mg13 Mg3 3.023183 1_555
Mg13 Mg7 3.167122 1_555
Mg13 Mg9 3.167123 1_555
Mg13 Mg7 3.339901 1_665
Mg13 Mg9 3.339902 1_655
Mg13 Mg4 3.385800 1_556
Mg13 Mg2 3.385806 1_556
