# generated using pymatgen
data_MgSi2
_symmetry_space_group_name_H-M   'P 1'
_cell_length_a   5.99250200
_cell_length_b   7.34754600
_cell_length_c   9.47483998
_cell_angle_alpha   83.45075558
_cell_angle_beta   90.00000000
_cell_angle_gamma   90.00000000
_symmetry_Int_Tables_number   1
_chemical_formula_structural   MgSi2
_chemical_formula_sum   'Mg8 Si16'
_cell_volume   414.45651921
_cell_formula_units_Z   8
loop_
 _symmetry_equiv_pos_site_id
 _symmetry_equiv_pos_as_xyz
  1  'x, y, z'
loop_
 _atom_site_type_symbol
 _atom_site_label
 _atom_site_symmetry_multiplicity
 _atom_site_fract_x
 _atom_site_fract_y
 _atom_site_fract_z
 _atom_site_occupancy
  Mg  Mg0  1  0.25000000  0.24524600  0.62206900  1
  Mg  Mg1  1  0.75000000  0.36539400  0.14276500  1
  Mg  Mg2  1  0.25000000  0.83148000  0.35336500  1
  Mg  Mg3  1  0.75000000  0.71779300  0.89013800  1
  Mg  Mg4  1  0.75000000  0.75475400  0.37793100  1
  Mg  Mg5  1  0.25000000  0.63460600  0.85723500  1
  Mg  Mg6  1  0.75000000  0.16852000  0.64663500  1
  Mg  Mg7  1  0.25000000  0.28220700  0.10986200  1
  Si  Si0  1  0.04463000  0.87525300  0.61745700  1
  Si  Si1  1  0.54945500  0.98730300  0.13064900  1
  Si  Si2  1  0.04681600  0.45402800  0.37348000  1
  Si  Si3  1  0.54738800  0.34131700  0.86739500  1
  Si  Si4  1  0.95537000  0.12474700  0.38254300  1
  Si  Si5  1  0.45054500  0.01269700  0.86935100  1
  Si  Si6  1  0.95318400  0.54597200  0.62652000  1
  Si  Si7  1  0.45261200  0.65868300  0.13260500  1
  Si  Si8  1  0.45318400  0.45402800  0.37348000  1
  Si  Si9  1  0.95261200  0.34131700  0.86739500  1
  Si  Si10  1  0.45537000  0.87525300  0.61745700  1
  Si  Si11  1  0.95054500  0.98730300  0.13064900  1
  Si  Si12  1  0.54681600  0.54597200  0.62652000  1
  Si  Si13  1  0.04738800  0.65868300  0.13260500  1
  Si  Si14  1  0.54463000  0.12474700  0.38254300  1
  Si  Si15  1  0.04945500  0.01269700  0.86935100  1
loop_
_geom_bond_atom_site_label_1
_geom_bond_atom_site_label_2
_geom_bond_distance
_geom_bond_site_symmetry_2
Mg0 Si12 2.840603 1_555
Mg0 Si6 2.840603 1_455
Mg0 Si8 2.925608 1_555
Mg0 Si2 2.925608 1_555
Mg0 Si10 2.988987 1_545
Mg0 Si0 2.988987 1_545
Mg0 Si5 2.989985 1_555
Mg0 Si15 2.989985 1_555
Mg0 Mg6 3.052798 1_555
Mg0 Mg6 3.052798 1_455
Mg0 Si3 3.074310 1_555
Mg0 Si9 3.074310 1_455
Mg0 Si4 3.083825 1_455
Mg0 Si14 3.083825 1_555
Mg1 Si13 2.789561 1_655
Mg1 Si7 2.789561 1_555
Mg1 Si9 2.901394 1_554
Mg1 Si3 2.901394 1_554
Mg1 Si2 2.948063 1_655
Mg1 Si8 2.948063 1_555
Mg1 Si14 2.980936 1_555
Mg1 Si4 2.980936 1_555
Mg1 Si1 3.041000 1_545
Mg1 Si11 3.041000 1_545
Mg2 Si4 2.823595 1_465
Mg2 Si14 2.823595 1_565
Mg2 Si0 2.839498 1_555
Mg2 Si10 2.839498 1_555
Mg2 Si7 2.840245 1_555
Mg2 Si13 2.840245 1_555
Mg2 Si1 2.903932 1_555
Mg2 Si11 2.903932 1_455
Mg2 Si8 3.014913 1_555
Mg2 Si2 3.014913 1_555
Mg2 Mg4 3.052798 1_555
Mg2 Mg4 3.052798 1_455
Mg3 Si15 2.802985 1_665
Mg3 Si5 2.802985 1_565
Mg3 Si13 2.900802 1_656
Mg3 Si7 2.900802 1_556
Mg3 Si9 3.050950 1_555
Mg3 Si3 3.050950 1_555
Mg3 Si6 3.167700 1_555
Mg3 Si12 3.167700 1_555
Mg3 Si0 3.232482 1_655
Mg3 Si10 3.232482 1_555
Mg4 Si2 2.840603 1_655
Mg4 Si8 2.840603 1_555
Mg4 Si6 2.925608 1_555
Mg4 Si12 2.925608 1_555
Mg4 Si14 2.988987 1_565
Mg4 Si4 2.988987 1_565
Mg4 Si1 2.989985 1_555
Mg4 Si11 2.989985 1_555
Mg4 Si13 3.074310 1_655
Mg4 Si7 3.074310 1_555
Mg4 Si10 3.083825 1_555
Mg4 Si0 3.083825 1_655
Mg5 Si3 2.789561 1_555
Mg5 Si9 2.789561 1_455
Mg5 Si7 2.901394 1_556
Mg5 Si13 2.901394 1_556
Mg5 Si12 2.948063 1_555
Mg5 Si6 2.948063 1_455
Mg5 Si0 2.980936 1_555
Mg5 Si10 2.980936 1_555
Mg5 Si5 3.041000 1_565
Mg5 Si15 3.041000 1_565
Mg6 Si0 2.823595 1_645
Mg6 Si10 2.823595 1_545
Mg6 Si14 2.839498 1_555
Mg6 Si4 2.839498 1_555
Mg6 Si9 2.840245 1_555
Mg6 Si3 2.840245 1_555
Mg6 Si5 2.903932 1_555
Mg6 Si15 2.903932 1_655
Mg6 Si6 3.014913 1_555
Mg6 Si12 3.014913 1_555
Mg7 Si1 2.802985 1_545
Mg7 Si11 2.802985 1_445
Mg7 Si3 2.900802 1_554
Mg7 Si9 2.900802 1_454
Mg7 Si7 3.050950 1_555
Mg7 Si13 3.050950 1_555
Mg7 Si8 3.167700 1_555
Mg7 Si2 3.167700 1_555
Mg7 Si4 3.232482 1_455
Mg7 Si14 3.232482 1_555
Si0 Si10 2.461360 1_555
Si0 Si6 2.472611 1_455
Si0 Si15 2.695666 1_565
Si0 Si4 2.769463 1_465
Si1 Si11 2.403533 1_555
Si1 Si7 2.481325 1_555
Si1 Si5 2.531823 1_564
Si1 Si14 2.695666 1_565
Si2 Si8 2.435161 1_555
Si2 Si4 2.472611 1_455
Si2 Si6 2.624642 1_455
Si3 Si9 2.428306 1_555
Si3 Si5 2.481325 1_555
Si6 Si9 2.585920 1_555
Si7 Si8 2.585920 1_555
Si10 Si12 2.472611 1_555
Si10 Si5 2.695666 1_565
Si10 Si14 2.769463 1_565
Si11 Si13 2.481325 1_655
Si11 Si15 2.531823 1_664
Si11 Si4 2.695666 1_565
Si12 Si6 2.435161 1_555
Si12 Si3 2.585920 1_555
Si12 Si8 2.624642 1_555
Si13 Si7 2.428306 1_555
Si13 Si2 2.585920 1_555
Si14 Si4 2.461360 1_555
Si14 Si8 2.472611 1_555
Si15 Si5 2.403533 1_555
Si15 Si9 2.481325 1_455
