# generated using pymatgen
data_AlAg4
_symmetry_space_group_name_H-M   'P 1'
_cell_length_a   23.61047040
_cell_length_b   23.61047040
_cell_length_c   23.61047011
_cell_angle_alpha   14.33467106
_cell_angle_beta   14.33467106
_cell_angle_gamma   14.33467169
_symmetry_Int_Tables_number   1
_chemical_formula_structural   AlAg4
_chemical_formula_sum   'Al8 Ag32'
_cell_volume   702.35019450
_cell_formula_units_Z   8
loop_
 _symmetry_equiv_pos_site_id
 _symmetry_equiv_pos_as_xyz
  1  'x, y, z'
loop_
 _atom_site_type_symbol
 _atom_site_label
 _atom_site_symmetry_multiplicity
 _atom_site_fract_x
 _atom_site_fract_y
 _atom_site_fract_z
 _atom_site_occupancy
  Al  Al0_0  1  0.00000000  0.00000000  0.00000000  1
  Al  Al0_1  1  0.00000000  0.00000000  0.50000000  1
  Al  Al0_2  1  0.00000000  0.50000000  0.00000000  1
  Al  Al0_3  1  0.00000000  0.50000000  0.50000000  1
  Al  Al0_4  1  0.50000000  0.00000000  0.00000000  1
  Al  Al0_5  1  0.50000000  0.00000000  0.50000000  1
  Al  Al0_6  1  0.50000000  0.50000000  0.00000000  1
  Al  Al0_7  1  0.50000000  0.50000000  0.50000000  1
  Ag  Ag0_0  1  0.30182250  0.30182250  0.30182250  1
  Ag  Ag0_1  1  0.30182250  0.30182250  0.80182250  1
  Ag  Ag0_2  1  0.30182250  0.80182250  0.30182250  1
  Ag  Ag0_3  1  0.30182250  0.80182250  0.80182250  1
  Ag  Ag0_4  1  0.80182250  0.30182250  0.30182250  1
  Ag  Ag0_5  1  0.80182250  0.30182250  0.80182250  1
  Ag  Ag0_6  1  0.80182250  0.80182250  0.30182250  1
  Ag  Ag0_7  1  0.80182250  0.80182250  0.80182250  1
  Ag  Ag1_0  1  0.10059500  0.10059500  0.10059500  1
  Ag  Ag1_1  1  0.10059500  0.10059500  0.60059500  1
  Ag  Ag1_2  1  0.10059500  0.60059500  0.10059500  1
  Ag  Ag1_3  1  0.10059500  0.60059500  0.60059500  1
  Ag  Ag1_4  1  0.60059500  0.10059500  0.10059500  1
  Ag  Ag1_5  1  0.60059500  0.10059500  0.60059500  1
  Ag  Ag1_6  1  0.60059500  0.60059500  0.10059500  1
  Ag  Ag1_7  1  0.60059500  0.60059500  0.60059500  1
  Ag  Ag2_0  1  0.39940500  0.39940500  0.39940500  1
  Ag  Ag2_1  1  0.39940500  0.39940500  0.89940500  1
  Ag  Ag2_2  1  0.39940500  0.89940500  0.39940500  1
  Ag  Ag2_3  1  0.39940500  0.89940500  0.89940500  1
  Ag  Ag2_4  1  0.89940500  0.39940500  0.39940500  1
  Ag  Ag2_5  1  0.89940500  0.39940500  0.89940500  1
  Ag  Ag2_6  1  0.89940500  0.89940500  0.39940500  1
  Ag  Ag2_7  1  0.89940500  0.89940500  0.89940500  1
  Ag  Ag3_0  1  0.19817750  0.19817750  0.19817750  1
  Ag  Ag3_1  1  0.19817750  0.19817750  0.69817750  1
  Ag  Ag3_2  1  0.19817750  0.69817750  0.19817750  1
  Ag  Ag3_3  1  0.19817750  0.69817750  0.69817750  1
  Ag  Ag3_4  1  0.69817750  0.19817750  0.19817750  1
  Ag  Ag3_5  1  0.69817750  0.19817750  0.69817750  1
  Ag  Ag3_6  1  0.69817750  0.69817750  0.19817750  1
  Ag  Ag3_7  1  0.69817750  0.69817750  0.69817750  1
loop_
_geom_bond_atom_site_label_1
_geom_bond_atom_site_label_2
_geom_bond_distance
_geom_bond_site_symmetry_2
Al0_0 Al0_5 2.945822 1_455
Al0_0 Al0_3 2.945822 1_554
Al0_0 Al0_3 2.945822 1_545
Al0_0 Al0_5 2.945822 1_554
Al0_0 Al0_6 2.945822 1_455
Al0_0 Al0_6 2.945822 1_545
Al0_1 Al0_4 2.945822 1_555
Al0_1 Al0_4 2.945822 1_456
Al0_1 Al0_2 2.945822 1_555
Al0_1 Al0_2 2.945822 1_546
Al0_1 Al0_7 2.945822 1_545
Al0_1 Al0_7 2.945822 1_455
Al0_2 Al0_7 2.945822 1_455
Al0_2 Al0_7 2.945822 1_554
Al0_2 Al0_4 2.945822 1_465
Al0_2 Al0_4 2.945822 1_555
Al0_3 Al0_6 2.945822 1_456
Al0_3 Al0_6 2.945822 1_555
Al0_3 Al0_5 2.945822 1_555
Al0_3 Al0_5 2.945822 1_465
Al0_4 Al0_7 2.945822 1_545
Al0_4 Al0_7 2.945822 1_554
Al0_5 Al0_6 2.945822 1_546
Al0_5 Al0_6 2.945822 1_555
Ag0_0 Al0_5 2.787625 1_555
Ag0_0 Al0_3 2.787625 1_555
Ag0_0 Al0_6 2.787625 1_555
Ag0_0 Ag0_5 2.945822 1_455
Ag0_0 Ag0_5 2.945822 1_554
Ag0_0 Ag0_3 2.945822 1_545
Ag0_0 Ag0_3 2.945822 1_554
Ag0_0 Ag0_6 2.945822 1_545
Ag0_0 Ag0_6 2.945822 1_455
Ag0_0 Ag1_4 2.959883 1_555
Ag0_0 Ag1_2 2.959883 1_555
Ag0_0 Ag1_1 2.959883 1_555
Ag0_1 Al0_2 2.787625 1_556
Ag0_1 Al0_4 2.787625 1_556
Ag0_1 Al0_7 2.787625 1_555
Ag0_1 Ag0_2 2.945822 1_555
Ag0_1 Ag0_4 2.945822 1_555
Ag0_1 Ag0_2 2.945822 1_546
Ag0_1 Ag0_4 2.945822 1_456
Ag0_1 Ag0_7 2.945822 1_455
Ag0_1 Ag0_7 2.945822 1_545
Ag0_1 Ag1_3 2.959883 1_555
Ag0_1 Ag1_5 2.959883 1_555
Ag0_1 Ag1_0 2.959883 1_556
Ag0_2 Al0_1 2.787625 1_565
Ag0_2 Al0_7 2.787625 1_555
Ag0_2 Al0_4 2.787625 1_565
Ag0_2 Ag0_7 2.945822 1_455
Ag0_2 Ag0_7 2.945822 1_554
Ag0_2 Ag0_4 2.945822 1_555
Ag0_2 Ag0_4 2.945822 1_465
Ag0_2 Ag1_6 2.959883 1_555
Ag0_2 Ag1_0 2.959883 1_565
Ag0_2 Ag1_3 2.959883 1_555
Ag0_3 Al0_6 2.787625 1_556
Ag0_3 Al0_0 2.787625 1_566
Ag0_3 Al0_5 2.787625 1_565
Ag0_3 Ag0_6 2.945822 1_555
Ag0_3 Ag0_6 2.945822 1_456
Ag0_3 Ag0_5 2.945822 1_555
Ag0_3 Ag0_5 2.945822 1_465
Ag0_3 Ag1_7 2.959883 1_555
Ag0_3 Ag1_1 2.959883 1_565
Ag0_3 Ag1_2 2.959883 1_556
Ag0_4 Al0_1 2.787625 1_655
Ag0_4 Al0_7 2.787625 1_555
Ag0_4 Al0_2 2.787625 1_655
Ag0_4 Ag0_7 2.945822 1_545
Ag0_4 Ag0_7 2.945822 1_554
Ag0_4 Ag1_6 2.959883 1_555
Ag0_4 Ag1_0 2.959883 1_655
Ag0_4 Ag1_5 2.959883 1_555
Ag0_5 Al0_6 2.787625 1_556
Ag0_5 Al0_0 2.787625 1_656
Ag0_5 Al0_3 2.787625 1_655
Ag0_5 Ag0_6 2.945822 1_555
Ag0_5 Ag0_6 2.945822 1_546
Ag0_5 Ag1_7 2.959883 1_555
Ag0_5 Ag1_1 2.959883 1_655
Ag0_5 Ag1_4 2.959883 1_556
Ag0_6 Al0_3 2.787625 1_655
Ag0_6 Al0_5 2.787625 1_565
Ag0_6 Al0_0 2.787625 1_665
Ag0_6 Ag1_2 2.959883 1_655
Ag0_6 Ag1_4 2.959883 1_565
Ag0_6 Ag1_7 2.959883 1_555
Ag0_7 Al0_4 2.787625 1_566
Ag0_7 Al0_2 2.787625 1_656
Ag0_7 Al0_1 2.787625 1_665
Ag0_7 Ag1_3 2.959883 1_655
Ag0_7 Ag1_5 2.959883 1_565
Ag0_7 Ag1_6 2.959883 1_556
Ag1_0 Ag1_3 2.945822 1_554
Ag1_0 Ag1_5 2.945822 1_554
Ag1_0 Ag1_5 2.945822 1_455
Ag1_0 Ag1_3 2.945822 1_545
Ag1_0 Ag1_6 2.945822 1_455
Ag1_0 Ag1_6 2.945822 1_545
Ag1_0 Ag2_5 2.957732 1_454
Ag1_0 Ag2_3 2.957732 1_544
Ag1_0 Ag2_6 2.957732 1_445
Ag1_1 Ag1_2 2.945822 1_555
Ag1_1 Ag1_4 2.945822 1_555
Ag1_1 Ag1_2 2.945822 1_546
Ag1_1 Ag1_4 2.945822 1_456
Ag1_1 Ag1_7 2.945822 1_545
Ag1_1 Ag1_7 2.945822 1_455
Ag1_1 Ag2_2 2.957732 1_545
Ag1_1 Ag2_4 2.957732 1_455
Ag1_1 Ag2_7 2.957732 1_445
Ag1_2 Ag1_7 2.945822 1_455
Ag1_2 Ag1_7 2.945822 1_554
Ag1_2 Ag1_4 2.945822 1_555
Ag1_2 Ag1_4 2.945822 1_465
Ag1_2 Ag2_7 2.957732 1_454
Ag1_2 Ag2_1 2.957732 1_554
Ag1_2 Ag2_4 2.957732 1_455
Ag1_3 Ag1_6 2.945822 1_555
Ag1_3 Ag1_6 2.945822 1_456
Ag1_3 Ag1_5 2.945822 1_555
Ag1_3 Ag1_5 2.945822 1_465
Ag1_3 Ag2_0 2.957732 1_555
Ag1_3 Ag2_6 2.957732 1_455
Ag1_3 Ag2_5 2.957732 1_455
Ag1_4 Ag1_7 2.945822 1_545
Ag1_4 Ag1_7 2.945822 1_554
Ag1_4 Ag2_7 2.957732 1_544
Ag1_4 Ag2_1 2.957732 1_554
Ag1_4 Ag2_2 2.957732 1_545
Ag1_5 Ag1_6 2.945822 1_555
Ag1_5 Ag1_6 2.945822 1_546
Ag1_5 Ag2_0 2.957732 1_555
Ag1_5 Ag2_6 2.957732 1_545
Ag1_5 Ag2_3 2.957732 1_545
Ag1_6 Ag2_3 2.957732 1_554
Ag1_6 Ag2_5 2.957732 1_554
Ag1_6 Ag2_0 2.957732 1_555
Ag1_7 Ag2_4 2.957732 1_555
Ag1_7 Ag2_2 2.957732 1_555
Ag1_7 Ag2_1 2.957732 1_555
Ag2_0 Ag2_5 2.945822 1_455
Ag2_0 Ag2_3 2.945822 1_545
Ag2_0 Ag2_5 2.945822 1_554
Ag2_0 Ag2_3 2.945822 1_554
Ag2_0 Ag2_6 2.945822 1_545
Ag2_0 Ag2_6 2.945822 1_455
Ag2_0 Ag3_4 2.959883 1_555
Ag2_0 Ag3_2 2.959883 1_555
Ag2_0 Ag3_1 2.959883 1_555
Ag2_1 Ag2_2 2.945822 1_555
Ag2_1 Ag2_4 2.945822 1_456
Ag2_1 Ag2_4 2.945822 1_555
Ag2_1 Ag2_2 2.945822 1_546
Ag2_1 Ag2_7 2.945822 1_455
Ag2_1 Ag2_7 2.945822 1_545
Ag2_1 Ag3_5 2.959883 1_555
Ag2_1 Ag3_3 2.959883 1_555
Ag2_1 Ag3_0 2.959883 1_556
Ag2_2 Ag2_7 2.945822 1_455
Ag2_2 Ag2_7 2.945822 1_554
Ag2_2 Ag2_4 2.945822 1_555
Ag2_2 Ag2_4 2.945822 1_465
Ag2_2 Ag3_0 2.959883 1_565
Ag2_2 Ag3_6 2.959883 1_555
Ag2_2 Ag3_3 2.959883 1_555
Ag2_3 Ag2_6 2.945822 1_555
Ag2_3 Ag2_6 2.945822 1_456
Ag2_3 Ag2_5 2.945822 1_465
Ag2_3 Ag2_5 2.945822 1_555
Ag2_3 Ag3_7 2.959883 1_555
Ag2_3 Ag3_1 2.959883 1_565
Ag2_3 Ag3_2 2.959883 1_556
Ag2_4 Ag2_7 2.945822 1_545
Ag2_4 Ag2_7 2.945822 1_554
Ag2_4 Ag3_0 2.959883 1_655
Ag2_4 Ag3_6 2.959883 1_555
Ag2_4 Ag3_5 2.959883 1_555
Ag2_5 Ag2_6 2.945822 1_555
Ag2_5 Ag2_6 2.945822 1_546
Ag2_5 Ag3_7 2.959883 1_555
Ag2_5 Ag3_1 2.959883 1_655
Ag2_5 Ag3_4 2.959883 1_556
Ag2_6 Ag3_2 2.959883 1_655
Ag2_6 Ag3_4 2.959883 1_565
Ag2_6 Ag3_7 2.959883 1_555
Ag2_7 Ag3_5 2.959883 1_565
Ag2_7 Ag3_3 2.959883 1_655
Ag2_7 Ag3_6 2.959883 1_556
Ag3_0 Al0_2 2.787625 1_555
Ag3_0 Al0_4 2.787625 1_555
Ag3_0 Al0_1 2.787625 1_555
Ag3_0 Ag3_3 2.945822 1_545
Ag3_0 Ag3_5 2.945822 1_455
Ag3_0 Ag3_3 2.945822 1_554
Ag3_0 Ag3_5 2.945822 1_554
Ag3_0 Ag3_6 2.945822 1_455
Ag3_0 Ag3_6 2.945822 1_545
Ag3_1 Al0_3 2.787625 1_555
Ag3_1 Al0_5 2.787625 1_555
Ag3_1 Al0_0 2.787625 1_556
Ag3_1 Ag3_2 2.945822 1_555
Ag3_1 Ag3_4 2.945822 1_555
Ag3_1 Ag3_2 2.945822 1_546
Ag3_1 Ag3_4 2.945822 1_456
Ag3_1 Ag3_7 2.945822 1_545
Ag3_1 Ag3_7 2.945822 1_455
Ag3_2 Al0_0 2.787625 1_565
Ag3_2 Al0_6 2.787625 1_555
Ag3_2 Al0_3 2.787625 1_555
Ag3_2 Ag3_7 2.945822 1_455
Ag3_2 Ag3_7 2.945822 1_554
Ag3_2 Ag3_4 2.945822 1_555
Ag3_2 Ag3_4 2.945822 1_465
Ag3_3 Al0_7 2.787625 1_555
Ag3_3 Al0_1 2.787625 1_565
Ag3_3 Al0_2 2.787625 1_556
Ag3_3 Ag3_6 2.945822 1_555
Ag3_3 Ag3_6 2.945822 1_456
Ag3_3 Ag3_5 2.945822 1_465
Ag3_3 Ag3_5 2.945822 1_555
Ag3_4 Al0_6 2.787625 1_555
Ag3_4 Al0_0 2.787625 1_655
Ag3_4 Al0_5 2.787625 1_555
Ag3_4 Ag3_7 2.945822 1_545
Ag3_4 Ag3_7 2.945822 1_554
Ag3_5 Al0_7 2.787625 1_555
Ag3_5 Al0_1 2.787625 1_655
Ag3_5 Al0_4 2.787625 1_556
Ag3_5 Ag3_6 2.945822 1_555
Ag3_5 Ag3_6 2.945822 1_546
Ag3_6 Al0_4 2.787625 1_565
Ag3_6 Al0_2 2.787625 1_655
Ag3_6 Al0_7 2.787625 1_555
Ag3_7 Al0_3 2.787625 1_655
Ag3_7 Al0_5 2.787625 1_565
Ag3_7 Al0_6 2.787625 1_556
