# generated using pymatgen
data_MgCo5(P2O7)4
_symmetry_space_group_name_H-M   'P 1'
_cell_length_a   7.80525216
_cell_length_b   7.80573593
_cell_length_c   10.54640192
_cell_angle_alpha   109.27280666
_cell_angle_beta   87.04954421
_cell_angle_gamma   95.11378308
_symmetry_Int_Tables_number   1
_chemical_formula_structural   MgCo5(P2O7)4
_chemical_formula_sum   'Mg1 Co5 P8 O28'
_cell_volume   603.95706294
_cell_formula_units_Z   1
loop_
 _symmetry_equiv_pos_site_id
 _symmetry_equiv_pos_as_xyz
  1  'x, y, z'
loop_
 _atom_site_type_symbol
 _atom_site_label
 _atom_site_symmetry_multiplicity
 _atom_site_fract_x
 _atom_site_fract_y
 _atom_site_fract_z
 _atom_site_occupancy
  Mg  Mg0  1  0.88758290  0.20739826  0.17214556  1
  Co  Co0  1  0.26752289  0.86374196  0.59948366  1
  Co  Co1  1  0.23952702  0.83688448  0.06747609  1
  Co  Co2  1  0.49946529  0.50815493  0.99688307  1
  Co  Co3  1  0.74163837  0.16893247  0.91809551  1
  Co  Co4  1  0.72259186  0.14315434  0.40821387  1
  P  P0  1  0.18377598  0.21648597  0.03105802  1
  P  P1  1  0.16390222  0.18336752  0.31671867  1
  P  P2  1  0.29981618  0.56612112  0.75696178  1
  P  P3  1  0.46677283  0.75750597  0.31054215  1
  P  P4  1  0.52010028  0.25066932  0.69097159  1
  P  P5  1  0.66550503  0.42961288  0.24118300  1
  P  P6  1  0.85734588  0.80852779  0.69272564  1
  P  P7  1  0.84354278  0.78969270  0.97436429  1
  O  O0  1  0.00515314  0.76931258  0.04619569  1
  O  O1  1  0.96344531  0.13966556  0.32635180  1
  O  O2  1  0.12722408  0.46622314  0.74320286  1
  O  O3  1  0.16333142  0.28108573  0.19495809  1
  O  O4  1  0.29263028  0.36352824  0.99395634  1
  O  O5  1  0.25041837  0.30883855  0.43613351  1
  O  O6  1  0.32997246  0.71496035  0.68941773  1
  O  O7  1  0.31849682  0.79340207  0.41388664  1
  O  O8  1  0.35740563  0.65613036  0.90845853  1
  O  O9  1  0.37168151  0.10275211  0.65993826  1
  O  O10  1  0.26088156  0.03055099  0.98442956  1
  O  O11  1  0.40423150  0.70405491  0.16327262  1
  O  O12  1  0.24743489  0.00314040  0.24421550  1
  O  O13  1  0.45343645  0.43716896  0.68968507  1
  O  O14  1  0.53494289  0.57191048  0.32114690  1
  O  O15  1  0.74704289  0.96992740  0.74815189  1
  O  O16  1  0.58375977  0.29407851  0.83641500  1
  O  O17  1  0.77256367  0.97828611  0.03487754  1
  O  O18  1  0.61763502  0.89824943  0.33867723  1
  O  O19  1  0.61491788  0.35854385  0.08842299  1
  O  O20  1  0.67119515  0.21357068  0.59255412  1
  O  O21  1  0.63880350  0.25928442  0.28685028  1
  O  O22  1  0.77441224  0.64398374  0.58945882  1
  O  O23  1  0.70631474  0.63991923  0.97855404  1
  O  O24  1  0.90735203  0.75657855  0.82371985  1
  O  O25  1  0.85437221  0.49030666  0.24994838  1
  O  O26  1  0.03198818  0.86827286  0.63699581  1
  O  O27  1  0.99700891  0.21435741  0.99080205  1
loop_
_geom_bond_atom_site_label_1
_geom_bond_atom_site_label_2
_geom_bond_distance
_geom_bond_site_symmetry_2
Mg0 O1 1.999403 1_555
Mg0 O17 2.058778 1_545
Mg0 O27 2.069378 1_554
Mg0 O25 2.121577 1_555
Mg0 O3 2.182275 1_655
Mg0 O21 2.230009 1_555
Co0 O6 1.833466 1_555
Co0 O26 1.861448 1_555
Co0 O7 1.881600 1_555
Co0 O9 1.883042 1_565
Co1 O0 1.862041 1_555
Co1 O12 1.887607 1_565
Co1 O10 1.973380 1_564
Co1 O8 2.039689 1_554
Co1 O11 2.193453 1_555
Co2 O23 1.872153 1_555
Co2 O4 1.881203 1_555
Co2 O19 2.032071 1_556
Co2 O11 2.065707 1_556
Co2 O16 2.074565 1_555
Co2 O8 2.116394 1_555
Co3 O15 1.947589 1_545
Co3 O16 2.023416 1_555
Co3 O27 2.130384 1_555
Co3 O19 2.172251 1_556
Co3 O17 2.257050 1_546
Co4 O20 1.869835 1_555
Co4 O18 1.928883 1_545
Co4 O21 1.960983 1_555
Co4 O1 2.026511 1_555
O0 P7 1.550505 1_454
O1 P1 1.576731 1_655
O2 P2 1.483920 1_555
O3 P0 1.636520 1_555
O3 P1 1.696650 1_555
O4 P0 1.510223 1_556
O5 P1 1.468573 1_555
O6 P2 1.546912 1_555
O7 P3 1.527152 1_555
O8 P2 1.589047 1_555
O9 P4 1.527533 1_555
O10 P0 1.537714 1_556
O11 P3 1.561618 1_555
O12 P1 1.546273 1_555
O13 P4 1.593418 1_555
O13 P2 1.615682 1_555
O14 P5 1.574295 1_555
O14 P3 1.626309 1_555
O15 P6 1.524967 1_555
O16 P4 1.555605 1_555
O17 P7 1.539523 1_554
O18 P3 1.507214 1_555
O19 P5 1.579760 1_555
O20 P4 1.512771 1_555
O21 P5 1.551145 1_555
O22 P6 1.501916 1_555
O23 P7 1.523805 1_555
O24 P7 1.584112 1_555
O24 P6 1.636735 1_555
O25 P5 1.505572 1_555
O26 P6 1.551190 1_455
O27 P0 1.536339 1_656
