# generated using pymatgen
data_Zn4Si2H2O9
_symmetry_space_group_name_H-M   'P 1'
_cell_length_a   7.34845705
_cell_length_b   7.34845705
_cell_length_c   5.20012663
_cell_angle_alpha   69.43215335
_cell_angle_beta   69.43215335
_cell_angle_gamma   97.03260078
_symmetry_Int_Tables_number   1
_chemical_formula_structural   Zn4Si2H2O9
_chemical_formula_sum   'Zn4 Si2 H2 O9'
_cell_volume   236.26796573
_cell_formula_units_Z   1
loop_
 _symmetry_equiv_pos_site_id
 _symmetry_equiv_pos_as_xyz
  1  'x, y, z'
loop_
 _atom_site_type_symbol
 _atom_site_label
 _atom_site_symmetry_multiplicity
 _atom_site_fract_x
 _atom_site_fract_y
 _atom_site_fract_z
 _atom_site_occupancy
  Zn  Zn0  1  0.36837100  0.05526200  0.78872600  1
  Zn  Zn1  1  0.63243100  0.95412900  0.20002500  1
  Zn  Zn2  1  0.95412900  0.63243100  0.20002500  1
  Zn  Zn3  1  0.05526200  0.36837100  0.78872600  1
  Si  Si0  1  0.14463200  0.85824000  0.50554700  1
  Si  Si1  1  0.85824000  0.14463200  0.50554700  1
  H  H0  1  0.43390700  0.43390700  0.59375200  1
  H  H1  1  0.67233100  0.67233100  0.58049300  1
  O  O0  1  0.16258400  0.84226400  0.19176700  1
  O  O1  1  0.84226400  0.16258400  0.19176700  1
  O  O2  1  0.36753800  0.95775700  0.47558700  1
  O  O3  1  0.63380500  0.03527000  0.79488000  1
  O  O4  1  0.03527000  0.63380500  0.79488000  1
  O  O5  1  0.95775700  0.36753800  0.47558700  1
  O  O6  1  0.31576000  0.31576000  0.73224100  1
  O  O7  1  0.68713600  0.68713600  0.37895000  1
  O  O8  1  0.99958300  0.99958300  0.59620200  1
loop_
_geom_bond_atom_site_label_1
_geom_bond_atom_site_label_2
_geom_bond_distance
_geom_bond_site_symmetry_2
H0 O6 0.981307 1_555
H1 O7 0.979260 1_555
O0 Si0 1.637303 1_555
O0 Zn0 2.004457 1_564
O0 Zn2 2.013656 1_455
O1 Si1 1.637303 1_555
O1 Zn3 2.004457 1_654
O1 Zn1 2.013656 1_545
O2 Si0 1.639963 1_555
O2 Zn1 1.980613 1_555
O2 Zn0 1.997676 1_565
O3 Si1 1.646799 1_555
O3 Zn1 1.973623 1_546
O3 Zn0 1.984414 1_555
O4 Si0 1.646799 1_555
O4 Zn2 1.973623 1_456
O4 Zn3 1.984414 1_555
O5 Si1 1.639963 1_555
O5 Zn2 1.980613 1_555
O5 Zn3 1.997676 1_655
O6 Zn3 1.940636 1_555
O6 Zn0 1.940636 1_555
O7 Zn1 2.012457 1_555
O7 Zn2 2.012457 1_555
O8 Si1 1.642930 1_565
O8 Si0 1.642930 1_655
