# generated using pymatgen
data_Nd3TiSb5
_symmetry_space_group_name_H-M   'P 1'
_cell_length_a   9.52639865
_cell_length_b   9.52684379
_cell_length_c   6.18524185
_cell_angle_alpha   89.99914886
_cell_angle_beta   90.00028097
_cell_angle_gamma   119.99581169
_symmetry_Int_Tables_number   1
_chemical_formula_structural   Nd3TiSb5
_chemical_formula_sum   'Nd6 Ti2 Sb10'
_cell_volume   486.16472055
_cell_formula_units_Z   2
loop_
 _symmetry_equiv_pos_site_id
 _symmetry_equiv_pos_as_xyz
  1  'x, y, z'
loop_
 _atom_site_type_symbol
 _atom_site_label
 _atom_site_symmetry_multiplicity
 _atom_site_fract_x
 _atom_site_fract_y
 _atom_site_fract_z
 _atom_site_occupancy
  Nd  Nd0  1  0.61989560  -0.00000441  0.74999842  1
  Nd  Nd1  1  0.38014479  -0.00000322  0.25000257  1
  Nd  Nd2  1  0.00001281  0.61986702  0.75000104  1
  Nd  Nd3  1  0.00001324  0.38011477  0.25000288  1
  Nd  Nd4  1  0.38013715  0.38012054  0.74999820  1
  Nd  Nd5  1  0.61989196  0.61987435  0.25000238  1
  Ti  Ti0  1  0.00001710  -0.00000430  0.50000080  1
  Ti  Ti1  1  0.00001708  -0.00000528  0.00000114  1
  Sb  Sb0  1  0.25201337  -0.00000115  0.75000626  1
  Sb  Sb1  1  0.74800269  -0.00000128  0.24999345  1
  Sb  Sb2  1  0.00000408  0.25200156  0.75000527  1
  Sb  Sb3  1  0.00001248  0.74799422  0.25000364  1
  Sb  Sb4  1  0.74800022  0.74799284  0.75000621  1
  Sb  Sb5  1  0.25201097  0.25200442  0.24999261  1
  Sb  Sb6  1  0.33330152  0.66669028  0.49998604  1
  Sb  Sb7  1  0.66661421  0.33334304  0.50000076  1
  Sb  Sb8  1  0.66661418  0.33334345  -0.00000029  1
  Sb  Sb9  1  0.33329655  0.66667213  -0.00000038  1
loop_
_geom_bond_atom_site_label_1
_geom_bond_atom_site_label_2
_geom_bond_distance
_geom_bond_site_symmetry_2
Nd0 Sb4 3.191020 1_545
Nd0 Sb2 3.191179 1_655
Nd0 Sb1 3.324668 1_556
Nd0 Sb1 3.324736 1_555
Nd0 Sb6 3.355596 1_545
Nd0 Sb9 3.355643 1_546
Nd0 Sb7 3.355761 1_555
Nd0 Sb8 3.355816 1_556
Nd0 Sb0 3.504608 1_555
Nd1 Sb5 3.191275 1_555
Nd1 Sb3 3.191345 1_545
Nd1 Sb0 3.324769 1_554
Nd1 Sb0 3.324823 1_555
Nd1 Sb6 3.354973 1_545
Nd1 Sb9 3.355206 1_545
Nd1 Sb8 3.355346 1_555
Nd1 Sb7 3.355362 1_555
Nd1 Sb1 3.504352 1_555
Nd2 Sb4 3.191199 1_455
Nd2 Sb0 3.191446 1_565
Nd2 Sb3 3.324767 1_555
Nd2 Sb3 3.324831 1_556
Nd2 Sb9 3.354828 1_556
Nd2 Sb6 3.354866 1_555
Nd2 Sb8 3.355745 1_456
Nd2 Sb7 3.355773 1_455
Nd2 Sb2 3.504555 1_555
Nd3 Sb5 3.190954 1_555
Nd3 Sb1 3.191350 1_455
Nd3 Sb2 3.324730 1_555
Nd3 Sb2 3.324737 1_554
Nd3 Sb9 3.355275 1_555
Nd3 Sb6 3.355325 1_555
Nd3 Sb7 3.355909 1_455
Nd3 Sb8 3.355917 1_455
Nd3 Sb3 3.504734 1_555
Nd4 Sb2 3.191255 1_555
Nd4 Sb0 3.191315 1_555
Nd4 Sb5 3.324752 1_556
Nd4 Sb5 3.324839 1_555
Nd4 Sb8 3.354643 1_556
Nd4 Sb7 3.354652 1_555
Nd4 Sb9 3.355724 1_556
Nd4 Sb6 3.355842 1_555
Nd4 Sb4 3.504758 1_555
Nd5 Sb3 3.191141 1_655
Nd5 Sb1 3.191362 1_565
Nd5 Sb4 3.324735 1_554
Nd5 Sb4 3.324801 1_555
Nd5 Sb7 3.354897 1_555
Nd5 Sb8 3.354945 1_555
Nd5 Sb9 3.355745 1_555
Nd5 Sb6 3.355761 1_555
Nd5 Sb5 3.504832 1_555
Sb0 Ti1 2.855500 1_556
Sb0 Ti0 2.855527 1_555
Sb1 Ti1 2.855669 1_655
Sb1 Ti0 2.855703 1_655
Sb2 Ti1 2.855725 1_556
Sb2 Ti0 2.855785 1_555
Sb3 Ti1 2.855626 1_565
Sb3 Ti0 2.855655 1_565
Sb4 Ti1 2.855803 1_666
Sb4 Ti0 2.855817 1_665
Sb5 Ti1 2.855731 1_555
Sb5 Ti0 2.855757 1_555
Sb6 Sb9 3.092537 1_555
Sb6 Sb9 3.092705 1_556
Sb7 Sb8 3.092614 1_556
Sb7 Sb8 3.092627 1_555
