# generated using pymatgen
data_Ba6Dy2Al4O15
_symmetry_space_group_name_H-M   'P 1'
_cell_length_a   5.94655325
_cell_length_b   5.94655325
_cell_length_c   14.89733800
_cell_angle_alpha   90.00000000
_cell_angle_beta   90.00000000
_cell_angle_gamma   119.78808988
_symmetry_Int_Tables_number   1
_chemical_formula_structural   Ba6Dy2Al4O15
_chemical_formula_sum   'Ba6 Dy2 Al4 O15'
_cell_volume   457.18644096
_cell_formula_units_Z   1
loop_
 _symmetry_equiv_pos_site_id
 _symmetry_equiv_pos_as_xyz
  1  'x, y, z'
loop_
 _atom_site_type_symbol
 _atom_site_label
 _atom_site_symmetry_multiplicity
 _atom_site_fract_x
 _atom_site_fract_y
 _atom_site_fract_z
 _atom_site_occupancy
  Ba  Ba0  1  0.65630900  0.34369100  0.15344300  1
  Ba  Ba1  1  0.33925000  0.66075000  0.32367700  1
  Ba  Ba2  1  0.65630900  0.34369100  0.84655700  1
  Ba  Ba3  1  0.33925000  0.66075000  0.67632300  1
  Ba  Ba4  1  0.96605000  0.03395000  0.00000000  1
  Ba  Ba5  1  0.02220200  0.97779800  0.50000000  1
  Dy  Dy0  1  0.00077600  0.99922400  0.25002100  1
  Dy  Dy1  1  0.00077600  0.99922400  0.74997900  1
  Al  Al0  1  0.32372600  0.67627400  0.11263100  1
  Al  Al1  1  0.67322400  0.32677600  0.38621900  1
  Al  Al2  1  0.32372600  0.67627400  0.88736900  1
  Al  Al3  1  0.67322400  0.32677600  0.61378100  1
  O  O0  1  0.16222200  0.37093900  0.82828600  1
  O  O1  1  0.35842200  0.14939100  0.66118900  1
  O  O2  1  0.16222200  0.37093900  0.17171400  1
  O  O3  1  0.35842200  0.14939100  0.33881100  1
  O  O4  1  0.85060900  0.64157800  0.66118900  1
  O  O5  1  0.62906100  0.83777800  0.82828600  1
  O  O6  1  0.85060900  0.64157800  0.33881100  1
  O  O7  1  0.62906100  0.83777800  0.17171400  1
  O  O8  1  0.37406000  0.62594000  0.00000000  1
  O  O9  1  0.62436500  0.37563500  0.50000000  1
  O  O10  1  0.15826300  0.84173700  0.14578800  1
  O  O11  1  0.84419200  0.15580800  0.36727400  1
  O  O12  1  0.15826300  0.84173700  0.85421200  1
  O  O13  1  0.84419200  0.15580800  0.63272600  1
  O  O14  1  0.72421900  0.27578100  0.00000000  1
loop_
_geom_bond_atom_site_label_1
_geom_bond_atom_site_label_2
_geom_bond_distance
_geom_bond_site_symmetry_2
Ba0 O14 2.390292 1_555
Ba0 O2 2.943927 1_655
Ba0 O7 2.943927 1_545
Ba0 O10 2.985042 1_655
Ba0 O10 2.985042 1_545
Ba0 O7 3.034118 1_555
Ba0 O2 3.034118 1_555
Ba0 O6 3.172553 1_555
Ba0 O3 3.172553 1_555
Ba1 O7 2.720410 1_555
Ba1 O2 2.720410 1_555
Ba1 O6 2.859710 1_455
Ba1 O3 2.859710 1_565
Ba1 O11 3.053109 1_455
Ba1 O11 3.053109 1_565
Ba1 O6 3.107232 1_555
Ba1 O3 3.107232 1_555
Ba1 O10 3.238887 1_555
Ba2 O14 2.390292 1_556
Ba2 O0 2.943927 1_655
Ba2 O5 2.943927 1_545
Ba2 O12 2.985042 1_655
Ba2 O12 2.985042 1_545
Ba2 O5 3.034118 1_555
Ba2 O0 3.034118 1_555
Ba2 O4 3.172553 1_555
Ba2 O1 3.172553 1_555
Ba3 O0 2.720410 1_555
Ba3 O5 2.720410 1_555
Ba3 O1 2.859710 1_565
Ba3 O4 2.859710 1_455
Ba3 O13 3.053109 1_455
Ba3 O13 3.053109 1_565
Ba3 O4 3.107232 1_555
Ba3 O1 3.107232 1_555
Ba3 O12 3.238887 1_555
Ba4 O14 2.488131 1_555
Ba4 O12 2.937337 1_644
Ba4 O10 2.937337 1_645
Ba4 O7 3.098006 1_545
Ba4 O5 3.098006 1_544
Ba4 O2 3.098006 1_655
Ba4 O0 3.098006 1_654
Ba4 O8 3.129353 1_545
Ba4 O8 3.129353 1_655
Ba5 O13 2.695171 1_465
Ba5 O11 2.695171 1_465
Ba5 O4 2.962725 1_455
Ba5 O6 2.962725 1_455
Ba5 O3 2.962725 1_565
Ba5 O1 2.962725 1_565
Ba5 O9 3.162583 1_455
Ba5 O9 3.162583 1_565
Dy0 O10 2.244253 1_555
Dy0 O2 2.249452 1_565
Dy0 O7 2.249452 1_455
Dy0 O6 2.276659 1_455
Dy0 O3 2.276659 1_565
Dy0 O11 2.376266 1_465
Dy1 O12 2.244253 1_555
Dy1 O5 2.249452 1_455
Dy1 O0 2.249452 1_565
Dy1 O1 2.276659 1_565
Dy1 O4 2.276659 1_455
Dy1 O13 2.376266 1_465
Al0 O8 1.756003 1_555
Al0 O10 1.772614 1_555
Al0 O7 1.805882 1_555
Al0 O2 1.805882 1_555
Al1 O9 1.768006 1_555
Al1 O6 1.775902 1_555
Al1 O3 1.775902 1_555
Al1 O11 1.781539 1_555
Al2 O8 1.756003 1_556
Al2 O12 1.772614 1_555
Al2 O5 1.805882 1_555
Al2 O0 1.805882 1_555
Al3 O9 1.768006 1_555
Al3 O4 1.775902 1_555
Al3 O1 1.775902 1_555
Al3 O13 1.781539 1_555
