# generated using pymatgen
data_Eu2ZrO4
_symmetry_space_group_name_H-M   'P 1'
_cell_length_a   6.96102330
_cell_length_b   6.96102330
_cell_length_c   6.96102330
_cell_angle_alpha   145.15971465
_cell_angle_beta   145.15971465
_cell_angle_gamma   50.09657712
_symmetry_Int_Tables_number   1
_chemical_formula_structural   Eu2ZrO4
_chemical_formula_sum   'Eu2 Zr1 O4'
_cell_volume   109.55161023
_cell_formula_units_Z   1
loop_
 _symmetry_equiv_pos_site_id
 _symmetry_equiv_pos_as_xyz
  1  'x, y, z'
loop_
 _atom_site_type_symbol
 _atom_site_label
 _atom_site_symmetry_multiplicity
 _atom_site_fract_x
 _atom_site_fract_y
 _atom_site_fract_z
 _atom_site_occupancy
  Eu  Eu0  1  0.35291100  0.35291100  0.00000000  1
  Eu  Eu1  1  0.64708900  0.64708900  0.00000000  1
  Zr  Zr0  1  0.00000000  0.00000000  0.00000000  1
  O  O0  1  0.16875400  0.16875400  0.00000000  1
  O  O1  1  0.83124600  0.83124600  0.00000000  1
  O  O2  1  0.50000000  0.00000000  0.50000000  1
  O  O3  1  0.00000000  0.50000000  0.50000000  1
loop_
_geom_bond_atom_site_label_1
_geom_bond_atom_site_label_2
_geom_bond_distance
_geom_bond_site_symmetry_2
Eu0 O0 2.322716 1_555
Eu0 O2 2.790096 1_565
Eu0 O2 2.790096 1_554
Eu0 O3 2.790096 1_554
Eu0 O3 2.790096 1_655
Eu0 O1 2.959812 1_444
Eu0 O1 2.959812 1_545
Eu0 O1 2.959812 1_455
Eu0 O1 2.959812 1_556
Eu1 O1 2.322716 1_555
Eu1 O2 2.790096 1_554
Eu1 O3 2.790096 1_655
Eu1 O2 2.790096 1_565
Eu1 O3 2.790096 1_554
Eu1 O0 2.959812 1_666
Eu1 O0 2.959812 1_554
Eu1 O0 2.959812 1_655
Eu1 O0 2.959812 1_565
O0 Zr0 2.128443 1_555
O1 Zr0 2.128443 1_665
O2 Zr0 2.083965 1_555
O2 Zr0 2.083965 1_656
O3 Zr0 2.083965 1_566
O3 Zr0 2.083965 1_555
