# generated using pymatgen
data_Li2ZnCdP2
_symmetry_space_group_name_H-M   'P 1'
_cell_length_a   4.10216685
_cell_length_b   4.10216685
_cell_length_c   7.12473946
_cell_angle_alpha   73.26879814
_cell_angle_beta   90.00000000
_cell_angle_gamma   120.00000000
_symmetry_Int_Tables_number   1
_chemical_formula_structural   Li2ZnCdP2
_chemical_formula_sum   'Li2 Zn1 Cd1 P2'
_cell_volume   97.92619538
_cell_formula_units_Z   1
loop_
 _symmetry_equiv_pos_site_id
 _symmetry_equiv_pos_as_xyz
  1  'x, y, z'
loop_
 _atom_site_type_symbol
 _atom_site_label
 _atom_site_symmetry_multiplicity
 _atom_site_fract_x
 _atom_site_fract_y
 _atom_site_fract_z
 _atom_site_occupancy
  Li  Li0  1  0.87198800  0.74397600  0.38403500  1
  Li  Li1  1  0.37730300  0.75460600  0.86809100  1
  Zn  Zn0  1  0.74940100  0.49880200  0.75179700  1
  Cd  Cd0  1  0.25076500  0.50153000  0.24770500  1
  P  P0  1  0.00369700  0.00739400  0.98890900  1
  P  P1  1  0.49684600  0.99369200  0.50946200  1
loop_
_geom_bond_atom_site_label_1
_geom_bond_atom_site_label_2
_geom_bond_distance
_geom_bond_site_symmetry_2
Li0 Zn0 2.471203 1_555
Li0 P1 2.513878 1_545
Li0 P1 2.513882 1_555
Li0 P1 2.513882 1_655
Li0 P0 2.655078 1_664
Li1 P1 2.409833 1_555
Li1 Zn0 2.493976 1_565
Li1 Zn0 2.493976 1_455
Li1 Zn0 2.493976 1_555
Li1 P0 2.503667 1_555
Li1 P0 2.503667 1_565
Li1 P0 2.503667 1_665
Cd0 Li0 2.539381 1_555
Cd0 Li0 2.539381 1_455
Cd0 Li0 2.539384 1_445
Cd0 Li1 2.550844 1_554
Cd0 P0 2.938260 1_664
Cd0 P0 2.938260 1_564
Cd0 P0 2.938261 1_554
Cd0 P1 2.950079 1_445
Cd0 P1 2.950079 1_545
Cd0 P1 2.950080 1_555
P0 Zn0 2.854441 1_455
P0 Zn0 2.854441 1_555
P0 Zn0 2.854441 1_445
P1 Zn0 2.874179 1_455
P1 Zn0 2.874179 1_555
P1 Zn0 2.874179 1_565
