# generated using pymatgen
data_Ce2InRh2
_symmetry_space_group_name_H-M   'P 1'
_cell_length_a   7.63326868
_cell_length_b   7.63326868
_cell_length_c   3.70281748
_cell_angle_alpha   90.00000000
_cell_angle_beta   90.00000000
_cell_angle_gamma   90.01449540
_symmetry_Int_Tables_number   1
_chemical_formula_structural   Ce2InRh2
_chemical_formula_sum   'Ce4 In2 Rh4'
_cell_volume   215.75128442
_cell_formula_units_Z   2
loop_
 _symmetry_equiv_pos_site_id
 _symmetry_equiv_pos_as_xyz
  1  'x, y, z'
loop_
 _atom_site_type_symbol
 _atom_site_label
 _atom_site_symmetry_multiplicity
 _atom_site_fract_x
 _atom_site_fract_y
 _atom_site_fract_z
 _atom_site_occupancy
  Ce  Ce0  1  0.67082297  0.17082297  0.50000000  1
  Ce  Ce1  1  0.32917703  0.82917703  0.50000000  1
  Ce  Ce2  1  0.17096023  0.32903977  0.50000000  1
  Ce  Ce3  1  0.82903977  0.67096023  0.50000000  1
  In  In0  1  0.00000000  0.00000000  0.00000000  1
  In  In1  1  0.50000000  0.50000000  0.00000000  1
  Rh  Rh0  1  0.13779118  0.63779118  -0.00000000  1
  Rh  Rh1  1  0.86220882  0.36220882  0.00000000  1
  Rh  Rh2  1  0.63747681  0.86252319  0.00000000  1
  Rh  Rh3  1  0.36252319  0.13747681  0.00000000  1
loop_
_geom_bond_atom_site_label_1
_geom_bond_atom_site_label_2
_geom_bond_distance
_geom_bond_site_symmetry_2
Ce0 Rh1 2.774002 1_555
Ce0 Rh1 2.774002 1_556
Ce0 Rh3 3.005060 1_556
Ce0 Rh3 3.005060 1_555
Ce0 Rh2 3.005060 1_546
Ce0 Rh2 3.005060 1_545
Ce0 In0 3.382790 1_656
Ce0 In1 3.382790 1_556
Ce0 In1 3.382790 1_555
Ce0 In0 3.382790 1_655
Ce1 Rh0 2.774002 1_556
Ce1 Rh0 2.774002 1_555
Ce1 Rh3 3.005060 1_566
Ce1 Rh3 3.005060 1_565
Ce1 Rh2 3.005060 1_555
Ce1 Rh2 3.005060 1_556
Ce1 In1 3.382790 1_556
Ce1 In1 3.382790 1_555
Ce1 In0 3.382790 1_566
Ce1 In0 3.382790 1_565
Ce2 Rh3 2.775816 1_555
Ce2 Rh3 2.775816 1_556
Ce2 Rh0 3.007747 1_555
Ce2 Rh0 3.007747 1_556
Ce2 Rh1 3.007747 1_455
Ce2 Rh1 3.007747 1_456
Ce2 In1 3.381926 1_556
Ce2 In1 3.381926 1_555
Ce2 In0 3.381926 1_555
Ce2 In0 3.381926 1_556
Ce3 Rh2 2.775816 1_556
Ce3 Rh2 2.775816 1_555
Ce3 Rh0 3.007747 1_655
Ce3 Rh0 3.007747 1_656
Ce3 Rh1 3.007747 1_555
Ce3 Rh1 3.007747 1_556
Ce3 In0 3.381926 1_666
Ce3 In0 3.381926 1_665
Ce3 In1 3.381926 1_556
Ce3 In1 3.381926 1_555
In0 Rh1 2.958390 1_455
In0 Rh0 2.958390 1_545
In0 Rh2 2.959285 1_445
In0 Rh3 2.959285 1_555
In1 Rh1 2.958390 1_555
In1 Rh0 2.958390 1_555
In1 Rh3 2.959285 1_555
In1 Rh2 2.959285 1_555
Rh0 Rh1 2.974555 1_455
Rh2 Rh3 2.968520 1_565
