# generated using pymatgen
data_Zn13Fe
_symmetry_space_group_name_H-M   'P 1'
_cell_length_a   5.07502858
_cell_length_b   6.48548284
_cell_length_c   6.48547394
_cell_angle_alpha   70.37653804
_cell_angle_beta   80.93352305
_cell_angle_gamma   80.93362115
_symmetry_Int_Tables_number   1
_chemical_formula_structural   Zn13Fe
_chemical_formula_sum   'Zn13 Fe1'
_cell_volume   197.29212470
_cell_formula_units_Z   1
loop_
 _symmetry_equiv_pos_site_id
 _symmetry_equiv_pos_as_xyz
  1  'x, y, z'
loop_
 _atom_site_type_symbol
 _atom_site_label
 _atom_site_symmetry_multiplicity
 _atom_site_fract_x
 _atom_site_fract_y
 _atom_site_fract_z
 _atom_site_occupancy
  Zn  Zn0  1  0.99999988  0.00000111  0.99999873  1
  Zn  Zn1  1  0.93885510  0.38498265  0.38498028  1
  Zn  Zn2  1  0.06114466  0.61501739  0.61501943  1
  Zn  Zn3  1  0.37565224  0.77673138  0.77673557  1
  Zn  Zn4  1  0.62434802  0.22326648  0.22326582  1
  Zn  Zn5  1  0.31572207  0.62929591  0.21800543  1
  Zn  Zn6  1  0.68428436  0.78199321  0.37070396  1
  Zn  Zn7  1  0.68427896  0.37070355  0.78199512  1
  Zn  Zn8  1  0.31571557  0.21800671  0.62929578  1
  Zn  Zn9  1  0.80180102  0.64295075  0.00620238  1
  Zn  Zn10  1  0.19820052  0.99379621  0.35705094  1
  Zn  Zn11  1  0.19819995  0.35705015  0.99379777  1
  Zn  Zn12  1  0.80179851  0.00620363  0.64294788  1
  Fe  Fe0  1  0.50000013  -0.00000014  0.99999992  1
loop_
_geom_bond_atom_site_label_1
_geom_bond_atom_site_label_2
_geom_bond_distance
_geom_bond_site_symmetry_2
Zn0 Zn9 2.652231 1_546
Zn0 Zn11 2.652232 1_655
Zn0 Zn12 2.652242 1_555
Zn0 Zn10 2.652243 1_646
Zn0 Zn4 2.737910 1_556
Zn0 Zn3 2.737913 1_645
Zn0 Zn8 2.750117 1_655
Zn0 Zn7 2.750130 1_555
Zn0 Zn6 2.750130 1_546
Zn0 Zn5 2.750151 1_646
Zn1 Zn8 2.547772 1_655
Zn1 Zn5 2.547786 1_655
Zn1 Zn4 2.557656 1_555
Zn1 Zn9 2.593986 1_555
Zn1 Zn12 2.593994 1_555
Zn1 Zn2 2.629697 1_655
Zn1 Zn6 2.671429 1_555
Zn1 Zn7 2.671453 1_555
Zn1 Zn11 2.717117 1_654
Zn1 Zn10 2.717139 1_645
Zn2 Zn6 2.547771 1_455
Zn2 Zn7 2.547784 1_455
Zn2 Zn3 2.557656 1_555
Zn2 Zn8 2.671430 1_555
Zn2 Zn5 2.671452 1_555
Zn2 Zn9 2.717119 1_456
Zn3 Zn5 2.678857 1_556
Zn3 Zn8 2.678895 1_565
Zn3 Zn9 2.683391 1_556
Zn3 Zn7 2.836418 1_555
Zn3 Zn6 2.836441 1_555
Zn4 Zn7 2.678862 1_554
Zn4 Zn6 2.678882 1_545
Zn4 Zn9 2.828538 1_555
Zn4 Zn5 2.836424 1_555
Zn4 Zn8 2.836436 1_555
Zn5 Zn9 2.626661 1_555
Zn5 Zn6 2.699334 1_555
Zn6 Zn9 2.752306 1_555
Zn7 Zn8 2.699340 1_555
Zn7 Zn9 2.813774 1_556
Zn10 Zn12 2.522934 1_465
Zn10 Zn2 2.593994 1_555
Zn10 Zn6 2.626686 1_555
Zn10 Zn4 2.683397 1_565
Zn10 Zn11 2.715214 1_564
Zn10 Zn5 2.752313 1_555
Zn10 Zn8 2.813763 1_565
Zn10 Zn3 2.828537 1_555
Zn11 Zn9 2.522939 1_456
Zn11 Zn2 2.593988 1_555
Zn11 Zn7 2.626661 1_555
Zn11 Zn4 2.683393 1_556
Zn11 Zn8 2.752312 1_555
Zn11 Zn5 2.813769 1_556
Zn11 Zn3 2.828519 1_555
Zn12 Zn8 2.626682 1_555
Zn12 Zn3 2.683399 1_545
Zn12 Zn9 2.715215 1_546
Zn12 Zn2 2.717137 1_645
Zn12 Zn7 2.752317 1_555
Zn12 Zn6 2.813756 1_545
Zn12 Zn4 2.828519 1_555
Fe0 Zn0 2.537513 1_555
Fe0 Zn0 2.537515 1_455
Fe0 Zn9 2.559063 1_546
Fe0 Zn10 2.559064 1_546
Fe0 Zn12 2.559066 1_555
Fe0 Zn11 2.559068 1_555
Fe0 Zn4 2.564341 1_556
Fe0 Zn3 2.564342 1_545
Fe0 Zn7 2.581186 1_555
Fe0 Zn5 2.581186 1_546
Fe0 Zn6 2.581201 1_546
Fe0 Zn8 2.581203 1_555
