# generated using pymatgen
data_Tb3Co6Sn5
_symmetry_space_group_name_H-M   'P 1'
_cell_length_a   4.31660300
_cell_length_b   8.11254650
_cell_length_c   8.11254650
_cell_angle_alpha   72.81956313
_cell_angle_beta   74.57094706
_cell_angle_gamma   74.57094706
_symmetry_Int_Tables_number   1
_chemical_formula_structural   Tb3Co6Sn5
_chemical_formula_sum   'Tb3 Co6 Sn5'
_cell_volume   256.15499540
_cell_formula_units_Z   1
loop_
 _symmetry_equiv_pos_site_id
 _symmetry_equiv_pos_as_xyz
  1  'x, y, z'
loop_
 _atom_site_type_symbol
 _atom_site_label
 _atom_site_symmetry_multiplicity
 _atom_site_fract_x
 _atom_site_fract_y
 _atom_site_fract_z
 _atom_site_occupancy
  Tb  Tb0  1  0.00000000  0.00000000  0.00000000  1
  Tb  Tb1  1  0.68275600  0.31724400  0.31724400  1
  Tb  Tb2  1  0.31724400  0.68275600  0.68275600  1
  Co  Co0  1  0.50000000  0.30321200  0.69678800  1
  Co  Co1  1  0.50000000  0.69678800  0.30321200  1
  Co  Co2  1  0.89273700  0.83352900  0.38099700  1
  Co  Co3  1  0.10726300  0.16647100  0.61900300  1
  Co  Co4  1  0.89273700  0.38099700  0.83352900  1
  Co  Co5  1  0.10726300  0.61900300  0.16647100  1
  Sn  Sn0  1  0.67653200  0.98266300  0.66427400  1
  Sn  Sn1  1  0.32346800  0.01733700  0.33572600  1
  Sn  Sn2  1  0.67653200  0.66427400  0.98266300  1
  Sn  Sn3  1  0.32346800  0.33572600  0.01733700  1
  Sn  Sn4  1  0.00000000  0.50000000  0.50000000  1
loop_
_geom_bond_atom_site_label_1
_geom_bond_atom_site_label_2
_geom_bond_distance
_geom_bond_site_symmetry_2
Co0 Co4 2.546806 1_455
Co0 Co3 2.546806 1_655
Co0 Co4 2.546806 1_555
Co0 Co3 2.546806 1_555
Co0 Sn3 2.580032 1_556
Co0 Sn0 2.580032 1_545
Co0 Sn4 2.872269 1_555
Co0 Sn4 2.872269 1_655
Co0 Tb2 2.943504 1_555
Co0 Tb1 2.943504 1_555
Co1 Co2 2.546806 1_455
Co1 Co5 2.546806 1_655
Co1 Co2 2.546806 1_555
Co1 Co5 2.546806 1_555
Co1 Sn1 2.580032 1_565
Co1 Sn2 2.580032 1_554
Co1 Sn4 2.872269 1_555
Co1 Sn4 2.872269 1_655
Co1 Tb2 2.943504 1_555
Co1 Tb1 2.943504 1_555
Co2 Sn4 2.548656 1_655
Co2 Sn1 2.569774 1_665
Co2 Sn1 2.569777 1_565
Co2 Co5 2.643757 1_655
Co2 Sn0 2.741632 1_555
Co2 Tb0 2.949050 1_665
Co2 Tb2 3.205013 1_555
Co2 Tb2 3.205013 1_655
Co3 Sn4 2.548656 1_555
Co3 Sn0 2.569774 1_445
Co3 Sn0 2.569777 1_545
Co3 Co4 2.643757 1_455
Co3 Sn1 2.741632 1_555
Co3 Tb0 2.949050 1_556
Co3 Tb1 3.205013 1_555
Co3 Tb1 3.205013 1_455
Co4 Sn4 2.548656 1_655
Co4 Sn3 2.569774 1_656
Co4 Sn3 2.569777 1_556
Co4 Sn2 2.741632 1_555
Co4 Tb0 2.949050 1_656
Co4 Tb2 3.205013 1_555
Co4 Tb2 3.205013 1_655
Co5 Sn4 2.548656 1_555
Co5 Sn2 2.569774 1_454
Co5 Sn2 2.569777 1_554
Co5 Sn3 2.741632 1_555
Co5 Tb0 2.949050 1_565
Co5 Tb1 3.205013 1_555
Co5 Tb1 3.205013 1_455
Sn0 Sn2 3.066247 1_555
Sn0 Tb2 3.164779 1_655
Sn0 Tb2 3.164782 1_555
Sn0 Tb1 3.283026 1_565
Sn0 Sn1 3.316067 1_665
Sn0 Sn1 3.316073 1_565
Sn0 Tb0 3.426606 1_666
Sn0 Tb0 3.426608 1_566
Sn1 Sn3 3.066247 1_555
Sn1 Tb1 3.164779 1_455
Sn1 Tb1 3.164782 1_555
Sn1 Tb2 3.283026 1_545
Sn1 Tb0 3.426606 1_555
Sn1 Tb0 3.426608 1_655
Sn2 Tb2 3.164779 1_655
Sn2 Tb2 3.164782 1_555
Sn2 Tb1 3.283026 1_556
Sn2 Sn3 3.316067 1_656
Sn2 Sn3 3.316073 1_556
Sn2 Tb0 3.426606 1_666
Sn2 Tb0 3.426608 1_566
Sn3 Tb1 3.164779 1_455
Sn3 Tb1 3.164782 1_555
Sn3 Tb2 3.283026 1_554
Sn3 Tb0 3.426606 1_555
Sn3 Tb0 3.426608 1_655
Sn4 Tb2 3.119426 1_455
Sn4 Tb1 3.119426 1_555
Sn4 Tb2 3.119426 1_555
Sn4 Tb1 3.119426 1_455
