# generated using pymatgen
data_CsCr5S8
_symmetry_space_group_name_H-M   'P 1'
_cell_length_a   9.35077941
_cell_length_b   9.35077941
_cell_length_c   8.91679287
_cell_angle_alpha   77.24123589
_cell_angle_beta   77.24123589
_cell_angle_gamma   21.65228387
_symmetry_Int_Tables_number   1
_chemical_formula_structural   CsCr5S8
_chemical_formula_sum   'Cs1 Cr5 S8'
_cell_volume   280.30650994
_cell_formula_units_Z   1
loop_
 _symmetry_equiv_pos_site_id
 _symmetry_equiv_pos_as_xyz
  1  'x, y, z'
loop_
 _atom_site_type_symbol
 _atom_site_label
 _atom_site_symmetry_multiplicity
 _atom_site_fract_x
 _atom_site_fract_y
 _atom_site_fract_z
 _atom_site_occupancy
  Cs  Cs0  1  0.00000000  0.00000000  0.50000000  1
  Cr  Cr0  1  0.00000000  0.00000000  0.00000000  1
  Cr  Cr1  1  0.66153800  0.66153800  0.01287500  1
  Cr  Cr2  1  0.33846200  0.33846200  0.98712500  1
  Cr  Cr3  1  0.70508500  0.70508500  0.66544000  1
  Cr  Cr4  1  0.29491500  0.29491500  0.33456000  1
  S  S0  1  0.42522800  0.42522800  0.15241100  1
  S  S1  1  0.57477200  0.57477200  0.84758900  1
  S  S2  1  0.90621300  0.90621300  0.85222700  1
  S  S3  1  0.09378700  0.09378700  0.14777300  1
  S  S4  1  0.82212400  0.82212400  0.48880800  1
  S  S5  1  0.17787600  0.17787600  0.51119200  1
  S  S6  1  0.76133900  0.76133900  0.15712800  1
  S  S7  1  0.23866100  0.23866100  0.84287200  1
loop_
_geom_bond_atom_site_label_1
_geom_bond_atom_site_label_2
_geom_bond_distance
_geom_bond_site_symmetry_2
Cs0 S3 3.224732 1_555
Cs0 S2 3.224732 1_445
Cs0 S5 3.291227 1_555
Cs0 S4 3.291227 1_445
Cr0 S3 2.392675 1_555
Cr0 S2 2.392675 1_444
Cr0 S0 2.445142 1_545
Cr0 S0 2.445142 1_455
Cr0 S1 2.445142 1_454
Cr0 S1 2.445142 1_544
Cr1 S3 2.325347 1_565
Cr1 S3 2.325347 1_655
Cr1 S1 2.401790 1_554
Cr1 S6 2.464867 1_555
Cr1 S7 2.534532 1_654
Cr1 S7 2.534532 1_564
Cr2 S2 2.325347 1_455
Cr2 S2 2.325347 1_545
Cr2 S0 2.401790 1_556
Cr2 S7 2.464867 1_555
Cr2 S6 2.534532 1_546
Cr2 S6 2.534532 1_456
Cr3 S5 2.352746 1_655
Cr3 S5 2.352746 1_565
Cr3 S4 2.362159 1_555
Cr3 S7 2.531219 1_565
Cr3 S7 2.531219 1_655
Cr3 S1 2.572812 1_555
Cr4 S4 2.352746 1_455
Cr4 S4 2.352746 1_545
Cr4 S5 2.362159 1_555
Cr4 S6 2.531219 1_545
Cr4 S6 2.531219 1_455
Cr4 S0 2.572812 1_555
