# generated using pymatgen
data_Na4P2NO16
_symmetry_space_group_name_H-M   'P 1'
_cell_length_a   5.78989500
_cell_length_b   10.68438905
_cell_length_c   13.78697918
_cell_angle_alpha   80.76448507
_cell_angle_beta   77.87900210
_cell_angle_gamma   74.27912914
_symmetry_Int_Tables_number   1
_chemical_formula_structural   Na4P2NO16
_chemical_formula_sum   'Na8 P4 N2 O32'
_cell_volume   797.79871018
_cell_formula_units_Z   2
loop_
 _symmetry_equiv_pos_site_id
 _symmetry_equiv_pos_as_xyz
  1  'x, y, z'
loop_
 _atom_site_type_symbol
 _atom_site_label
 _atom_site_symmetry_multiplicity
 _atom_site_fract_x
 _atom_site_fract_y
 _atom_site_fract_z
 _atom_site_occupancy
  Na  Na0  1  0.46424500  0.31027700  0.03893300  1
  Na  Na1  1  0.81345400  0.18972300  0.46106700  1
  Na  Na2  1  0.53575500  0.68972300  0.96106700  1
  Na  Na3  1  0.18654600  0.81027700  0.53893300  1
  Na  Na4  1  0.44774400  0.55367400  0.33294900  1
  Na  Na5  1  0.33436700  0.94632600  0.16705100  1
  Na  Na6  1  0.55225600  0.44632600  0.66705100  1
  Na  Na7  1  0.66563300  0.05367400  0.83294900  1
  P  P0  1  0.16970000  0.31926400  0.83563000  1
  P  P1  1  0.32459400  0.18073600  0.66437000  1
  P  P2  1  0.83030000  0.68073600  0.16437000  1
  P  P3  1  0.67540600  0.81926400  0.33563000  1
  N  N0  1  0.10292100  0.25000000  0.75000000  1
  N  N1  1  0.89707900  0.75000000  0.25000000  1
  O  O0  1  0.36069000  0.23093400  0.89148600  1
  O  O1  1  0.48311000  0.26906600  0.60851400  1
  O  O2  1  0.63931000  0.76906600  0.10851400  1
  O  O3  1  0.51689000  0.73093400  0.39148600  1
  O  O4  1  0.90795200  0.32473900  0.92077700  1
  O  O5  1  0.15346800  0.17526100  0.57922300  1
  O  O6  1  0.09204800  0.67526100  0.07922300  1
  O  O7  1  0.84653200  0.82473900  0.42077700  1
  O  O8  1  0.19163000  0.45470600  0.79208100  1
  O  O9  1  0.43841700  0.04529400  0.70791900  1
  O  O10  1  0.80837000  0.54529400  0.20791900  1
  O  O11  1  0.56158300  0.95470600  0.29208100  1
  O  O12  1  0.36942400  0.57896800  0.53929200  1
  O  O13  1  0.48768400  0.92103200  0.96070800  1
  O  O14  1  0.63057600  0.42103200  0.46070800  1
  O  O15  1  0.51231600  0.07896800  0.03929200  1
  O  O16  1  0.81490600  0.98620700  0.54913400  1
  O  O17  1  0.35024700  0.51379300  0.95086600  1
  O  O18  1  0.18509400  0.01379300  0.45086600  1
  O  O19  1  0.64975300  0.48620700  0.04913400  1
  O  O20  1  0.81757800  0.70080000  0.70885400  1
  O  O21  1  0.22723200  0.79920000  0.79114600  1
  O  O22  1  0.18242200  0.29920000  0.29114600  1
  O  O23  1  0.77276800  0.20080000  0.20885400  1
  O  O24  1  0.01475400  0.08567900  0.61739100  1
  O  O25  1  0.71782400  0.41432100  0.88260900  1
  O  O26  1  0.98524600  0.91432100  0.38260900  1
  O  O27  1  0.28217600  0.58567900  0.11739100  1
  O  O28  1  0.08335900  0.87745500  0.84609700  1
  O  O29  1  0.80691100  0.62254500  0.65390300  1
  O  O30  1  0.91664100  0.12254500  0.15390300  1
  O  O31  1  0.19308900  0.37745500  0.34609700  1
loop_
_geom_bond_atom_site_label_1
_geom_bond_atom_site_label_2
_geom_bond_distance
_geom_bond_site_symmetry_2
Na0 O17 2.312885 1_554
Na0 O15 2.410226 1_555
Na0 O19 2.439070 1_555
Na0 O0 2.559504 1_554
Na0 O25 2.612077 1_554
Na0 O4 2.766629 1_554
Na1 O16 2.312884 1_545
Na1 O14 2.410225 1_555
Na1 O18 2.439074 1_655
Na1 O1 2.559501 1_555
Na1 O24 2.612079 1_655
Na1 O5 2.766634 1_655
Na2 O19 2.312885 1_556
Na2 O13 2.410226 1_555
Na2 O17 2.439070 1_555
Na2 O2 2.559504 1_556
Na2 O27 2.612077 1_556
Na2 O6 2.766629 1_556
Na3 O18 2.312884 1_565
Na3 O12 2.410225 1_555
Na3 O16 2.439074 1_455
Na3 O3 2.559501 1_555
Na3 O26 2.612079 1_455
Na3 O7 2.766634 1_455
Na4 O14 2.323879 1_555
Na4 O3 2.331461 1_555
Na4 O10 2.403302 1_555
Na4 O31 2.652215 1_555
Na5 O15 2.323879 1_565
Na5 O2 2.331461 1_555
Na5 O11 2.403302 1_555
Na5 O30 2.652215 1_465
Na6 O12 2.323879 1_555
Na6 O1 2.331461 1_555
Na6 O8 2.403302 1_555
Na6 O29 2.652215 1_555
Na7 O13 2.323879 1_545
Na7 O0 2.331461 1_555
Na7 O9 2.403302 1_555
Na7 O28 2.652215 1_645
N0 P0 1.648670 1_555
N0 P1 1.648670 1_555
N1 P2 1.648670 1_555
N1 P3 1.648670 1_555
O0 P0 1.505098 1_555
O1 P1 1.505098 1_555
O2 P2 1.505098 1_555
O3 P3 1.505098 1_555
O4 P0 1.704437 1_655
O5 P1 1.704437 1_555
O6 P2 1.704437 1_455
O7 P3 1.704437 1_555
O8 P0 1.503136 1_555
O9 P1 1.503136 1_555
O10 P2 1.503136 1_555
O11 P3 1.503136 1_555
O20 O29 1.236049 1_555
O21 O28 1.236050 1_555
O22 O31 1.236049 1_555
O23 O30 1.236050 1_555
O24 O5 1.383998 1_555
O25 O4 1.383998 1_555
O26 O7 1.383998 1_555
O27 O6 1.383998 1_555
