# generated using pymatgen
data_NaInBP2HO9
_symmetry_space_group_name_H-M   'P 1'
_cell_length_a   5.17658486
_cell_length_b   16.79093092
_cell_length_c   8.95999236
_cell_angle_alpha   90.00000000
_cell_angle_beta   121.13523207
_cell_angle_gamma   90.00000000
_symmetry_Int_Tables_number   1
_chemical_formula_structural   NaInBP2HO9
_chemical_formula_sum   'Na4 In4 B4 P8 H4 O36'
_cell_volume   666.61302120
_cell_formula_units_Z   4
loop_
 _symmetry_equiv_pos_site_id
 _symmetry_equiv_pos_as_xyz
  1  'x, y, z'
loop_
 _atom_site_type_symbol
 _atom_site_label
 _atom_site_symmetry_multiplicity
 _atom_site_fract_x
 _atom_site_fract_y
 _atom_site_fract_z
 _atom_site_occupancy
  Na  Na0  1  0.47451474  0.16140491  0.33390542  1
  Na  Na1  1  0.52548526  0.66140491  0.16609458  1
  Na  Na2  1  0.52548526  0.83859509  0.66609458  1
  Na  Na3  1  0.47451474  0.33859509  0.83390542  1
  In  In0  1  0.97276645  0.33992471  0.29751677  1
  In  In1  1  0.02723355  0.83992471  0.20248323  1
  In  In2  1  0.02723355  0.66007529  0.70248323  1
  In  In3  1  0.97276645  0.16007529  0.79751677  1
  B  B0  1  0.15000766  0.52377476  0.25748590  1
  B  B1  1  0.84999234  0.02377476  0.24251410  1
  B  B2  1  0.84999234  0.47622524  0.74251410  1
  B  B3  1  0.15000766  0.97622524  0.75748590  1
  P  P0  1  0.27157656  0.66857733  0.42309164  1
  P  P1  1  0.72842344  0.16857733  0.07690836  1
  P  P2  1  0.72842344  0.33142267  0.57690836  1
  P  P3  1  0.27157656  0.83142267  0.92309164  1
  P  P4  1  0.76315539  0.91225532  0.43447653  1
  P  P5  1  0.23684461  0.41225532  0.06552347  1
  P  P6  1  0.23684461  0.08774468  0.56552347  1
  P  P7  1  0.76315539  0.58774468  0.93447653  1
  H  H0  1  0.23521728  0.46902596  0.48072085  1
  H  H1  1  0.76478272  0.96902596  0.01927915  1
  H  H2  1  0.76478272  0.53097404  0.51927915  1
  H  H3  1  0.23521728  0.03097404  0.98072085  1
  O  O0  1  0.01732284  0.65856157  0.46109129  1
  O  O1  1  0.98267716  0.15856157  0.03890871  1
  O  O2  1  0.98267716  0.34143843  0.53890871  1
  O  O3  1  0.01732284  0.84143843  0.96109129  1
  O  O4  1  0.01721220  0.86694608  0.43545594  1
  O  O5  1  0.98278780  0.36694608  0.06454406  1
  O  O6  1  0.98278780  0.13305392  0.56454406  1
  O  O7  1  0.01721220  0.63305392  0.93545594  1
  O  O8  1  0.16270274  0.71945457  0.26068081  1
  O  O9  1  0.83729726  0.21945457  0.23931919  1
  O  O10  1  0.83729726  0.28054543  0.73931919  1
  O  O11  1  0.16270274  0.78054543  0.76068081  1
  O  O12  1  0.13593307  0.05734692  0.37857664  1
  O  O13  1  0.86406693  0.55734692  0.12142336  1
  O  O14  1  0.86406693  0.94265308  0.62142336  1
  O  O15  1  0.13593307  0.44265308  0.87857664  1
  O  O16  1  0.07919036  0.46780462  0.35804811  1
  O  O17  1  0.92080964  0.96780462  0.14195189  1
  O  O18  1  0.92080964  0.53219538  0.64195189  1
  O  O19  1  0.07919036  0.03219538  0.85804811  1
  O  O20  1  0.67869390  0.98614956  0.31298069  1
  O  O21  1  0.32130610  0.48614956  0.18701931  1
  O  O22  1  0.32130610  0.01385044  0.68701931  1
  O  O23  1  0.67869390  0.51385044  0.81298069  1
  O  O24  1  0.35528141  0.58578410  0.37610110  1
  O  O25  1  0.64471859  0.08578410  0.12389890  1
  O  O26  1  0.64471859  0.41421590  0.62389890  1
  O  O27  1  0.35528141  0.91421590  0.87610110  1
  O  O28  1  0.43801766  0.30099332  0.41944579  1
  O  O29  1  0.56198234  0.80099332  0.08055421  1
  O  O30  1  0.56198234  0.69900668  0.58055421  1
  O  O31  1  0.43801766  0.19900668  0.91944579  1
  O  O32  1  0.48729999  0.86369622  0.38314021  1
  O  O33  1  0.51270001  0.36369622  0.11685979  1
  O  O34  1  0.51270001  0.13630378  0.61685979  1
  O  O35  1  0.48729999  0.63630378  0.88314021  1
loop_
_geom_bond_atom_site_label_1
_geom_bond_atom_site_label_2
_geom_bond_distance
_geom_bond_site_symmetry_2
Na0 O6 2.407723 1_555
Na0 O34 2.475087 1_555
Na0 O28 2.503270 1_555
Na0 O1 2.551806 1_455
Na0 O9 2.615522 1_555
Na0 O12 2.647720 1_555
Na0 O25 2.764710 1_555
Na1 O7 2.407723 1_554
Na1 O35 2.475087 1_554
Na1 O29 2.503270 1_555
Na1 O0 2.551806 1_655
Na1 O8 2.615522 1_555
Na1 O13 2.647720 1_555
Na1 O24 2.764710 1_555
Na2 O4 2.407723 1_555
Na2 O32 2.475087 1_555
Na2 O30 2.503270 1_555
Na2 O3 2.551806 1_655
Na2 O11 2.615522 1_555
Na2 O14 2.647720 1_555
Na2 O27 2.764710 1_555
Na3 O5 2.407723 1_556
Na3 O33 2.475087 1_556
Na3 O31 2.503270 1_555
Na3 O2 2.551806 1_455
Na3 O10 2.615522 1_555
Na3 O15 2.647720 1_555
Na3 O26 2.764710 1_555
In0 O33 2.113007 1_555
In0 O9 2.115958 1_555
In0 O2 2.136945 1_555
In0 O5 2.162848 1_555
In0 O28 2.168032 1_655
In0 O16 2.213422 1_655
In1 O32 2.113007 1_555
In1 O8 2.115958 1_555
In1 O3 2.136945 1_554
In1 O4 2.162848 1_555
In1 O29 2.168032 1_455
In1 O17 2.213422 1_455
In2 O35 2.113007 1_555
In2 O11 2.115958 1_555
In2 O0 2.136945 1_555
In2 O7 2.162848 1_555
In2 O30 2.168032 1_455
In2 O18 2.213422 1_455
In3 O34 2.113007 1_555
In3 O10 2.115958 1_555
In3 O1 2.136945 1_556
In3 O6 2.162848 1_555
In3 O31 2.168032 1_655
In3 O19 2.213422 1_655
B0 O13 1.459073 1_455
B0 O21 1.470730 1_555
B0 O16 1.473447 1_555
B0 O24 1.474752 1_555
B1 O12 1.459073 1_655
B1 O20 1.470730 1_545
B1 O17 1.473447 1_545
B1 O25 1.474752 1_555
B2 O15 1.459073 1_655
B2 O23 1.470730 1_555
B2 O18 1.473447 1_555
B2 O26 1.474752 1_555
B3 O14 1.459073 1_455
B3 O22 1.470730 1_565
B3 O19 1.473447 1_565
B3 O27 1.474752 1_555
H0 O16 0.971002 1_555
H1 O17 0.971002 1_555
H2 O18 0.971002 1_555
H3 O19 0.971002 1_555
O0 P0 1.529677 1_555
O1 P1 1.529677 1_555
O2 P2 1.529677 1_555
O3 P3 1.529677 1_555
O4 P4 1.515436 1_455
O5 P5 1.515436 1_655
O6 P6 1.515436 1_655
O7 P7 1.515436 1_455
O8 P0 1.522139 1_555
O9 P1 1.522139 1_555
O10 P2 1.522139 1_555
O11 P3 1.522139 1_555
O12 P6 1.560225 1_555
O13 P7 1.560225 1_554
O14 P4 1.560225 1_555
O15 P5 1.560225 1_556
O20 P4 1.556755 1_555
O21 P5 1.556755 1_555
O22 P6 1.556755 1_555
O23 P7 1.556755 1_555
O24 P0 1.576792 1_555
O25 P1 1.576792 1_555
O26 P2 1.576792 1_555
O27 P3 1.576792 1_555
O28 P2 1.522564 1_555
O29 P3 1.522564 1_554
O30 P0 1.522564 1_555
O31 P1 1.522564 1_556
O32 P4 1.495420 1_555
O33 P5 1.495420 1_555
O34 P6 1.495420 1_555
O35 P7 1.495420 1_555
