# generated using pymatgen
data_Sr(GaSe2)2
_symmetry_space_group_name_H-M   'P 1'
_cell_length_a   6.32401618
_cell_length_b   6.32401618
_cell_length_c   11.02815678
_cell_angle_alpha   90.00000000
_cell_angle_beta   90.00000000
_cell_angle_gamma   120.35425013
_symmetry_Int_Tables_number   1
_chemical_formula_structural   Sr(GaSe2)2
_chemical_formula_sum   'Sr2 Ga4 Se8'
_cell_volume   380.59066351
_cell_formula_units_Z   2
loop_
 _symmetry_equiv_pos_site_id
 _symmetry_equiv_pos_as_xyz
  1  'x, y, z'
loop_
 _atom_site_type_symbol
 _atom_site_label
 _atom_site_symmetry_multiplicity
 _atom_site_fract_x
 _atom_site_fract_y
 _atom_site_fract_z
 _atom_site_occupancy
  Sr  Sr0  1  0.50000000  0.50000000  0.75000000  1
  Sr  Sr1  1  0.50000000  0.50000000  0.25000000  1
  Ga  Ga0  1  0.76209126  0.24019031  0.50000000  1
  Ga  Ga1  1  0.23790874  0.75980969  0.50000000  1
  Ga  Ga2  1  0.75980969  0.23790874  0.00000000  1
  Ga  Ga3  1  0.24019031  0.76209126  0.00000000  1
  Se  Se0  1  0.34937281  0.18380762  0.50000000  1
  Se  Se1  1  0.65062719  0.81619238  0.50000000  1
  Se  Se2  1  0.81619238  0.65062719  0.00000000  1
  Se  Se3  1  0.18380762  0.34937281  0.00000000  1
  Se  Se4  1  0.50000000  0.00000000  0.83253419  1
  Se  Se5  1  -0.00000000  0.50000000  0.66746581  1
  Se  Se6  1  0.50000000  0.00000000  0.16746581  1
  Se  Se7  1  -0.00000000  0.50000000  0.33253419  1
loop_
_geom_bond_atom_site_label_1
_geom_bond_atom_site_label_2
_geom_bond_distance
_geom_bond_site_symmetry_2
Ga0 Se1 2.403399 1_545
Ga0 Se7 2.423962 1_655
Ga0 Se5 2.423962 1_655
Ga0 Se0 2.449253 1_555
Ga1 Se0 2.403399 1_565
Ga1 Se7 2.423962 1_555
Ga1 Se5 2.423962 1_555
Ga1 Se1 2.449253 1_555
Ga2 Se3 2.403399 1_655
Ga2 Se4 2.423962 1_554
Ga2 Se6 2.423962 1_555
Ga2 Se2 2.449253 1_555
Ga3 Se2 2.403399 1_455
Ga3 Se6 2.423962 1_565
Ga3 Se4 2.423962 1_564
Ga3 Se3 2.449253 1_555
Se0 Sr1 3.252991 1_555
Se0 Sr0 3.252991 1_555
Se1 Sr1 3.252991 1_555
Se1 Sr0 3.252991 1_555
Se2 Sr1 3.252991 1_555
Se2 Sr0 3.252991 1_554
Se3 Sr1 3.252991 1_555
Se3 Sr0 3.252991 1_554
Se4 Sr0 3.290404 1_545
Se4 Sr0 3.290404 1_555
Se5 Sr0 3.290404 1_555
Se5 Sr0 3.290404 1_455
Se6 Sr1 3.290404 1_555
Se6 Sr1 3.290404 1_545
Se7 Sr1 3.290404 1_555
Se7 Sr1 3.290404 1_455
