# generated using pymatgen
data_GeC4NCl3
_symmetry_space_group_name_H-M   'P 1'
_cell_length_a   8.33348800
_cell_length_b   8.85965400
_cell_length_c   11.40841700
_cell_angle_alpha   90.00000000
_cell_angle_beta   90.00000000
_cell_angle_gamma   90.00000000
_symmetry_Int_Tables_number   1
_chemical_formula_structural   GeC4NCl3
_chemical_formula_sum   'Ge4 C16 N4 Cl12'
_cell_volume   842.30419377
_cell_formula_units_Z   4
loop_
 _symmetry_equiv_pos_site_id
 _symmetry_equiv_pos_as_xyz
  1  'x, y, z'
loop_
 _atom_site_type_symbol
 _atom_site_label
 _atom_site_symmetry_multiplicity
 _atom_site_fract_x
 _atom_site_fract_y
 _atom_site_fract_z
 _atom_site_occupancy
  Ge  Ge0  1  0.27708600  0.75000000  0.22938300  1
  Ge  Ge1  1  0.22291400  0.75000000  0.72938300  1
  Ge  Ge2  1  0.72291400  0.25000000  0.77061700  1
  Ge  Ge3  1  0.77708600  0.25000000  0.27061700  1
  C  C0  1  0.39658800  0.25000000  0.01137600  1
  C  C1  1  0.10341200  0.25000000  0.51137600  1
  C  C2  1  0.60341200  0.75000000  0.98862400  1
  C  C3  1  0.89658800  0.75000000  0.48862400  1
  C  C4  1  0.18772900  0.25000000  0.06246700  1
  C  C5  1  0.31227100  0.25000000  0.56246700  1
  C  C6  1  0.81227100  0.75000000  0.93753300  1
  C  C7  1  0.68772900  0.75000000  0.43753300  1
  C  C8  1  0.27854500  0.12401600  0.00846100  1
  C  C9  1  0.22145500  0.37598400  0.50846100  1
  C  C10  1  0.72145500  0.62401600  0.99153900  1
  C  C11  1  0.77854500  0.87598400  0.49153900  1
  C  C12  1  0.72145500  0.87598400  0.99153900  1
  C  C13  1  0.77854500  0.62401600  0.49153900  1
  C  C14  1  0.27854500  0.37598400  0.00846100  1
  C  C15  1  0.22145500  0.12401600  0.50846100  1
  N  N0  1  0.23877700  0.25000000  0.91942400  1
  N  N1  1  0.26122300  0.25000000  0.41942400  1
  N  N2  1  0.76122300  0.75000000  0.08057600  1
  N  N3  1  0.73877700  0.75000000  0.58057600  1
  Cl  Cl0  1  0.42925300  0.95175400  0.23782300  1
  Cl  Cl1  1  0.07074700  0.54824600  0.73782300  1
  Cl  Cl2  1  0.57074700  0.45175400  0.76217700  1
  Cl  Cl3  1  0.92925300  0.04824600  0.26217700  1
  Cl  Cl4  1  0.57074700  0.04824600  0.76217700  1
  Cl  Cl5  1  0.92925300  0.45175400  0.26217700  1
  Cl  Cl6  1  0.42925300  0.54824600  0.23782300  1
  Cl  Cl7  1  0.07074700  0.95175400  0.73782300  1
  Cl  Cl8  1  0.15635300  0.75000000  0.05802100  1
  Cl  Cl9  1  0.34364700  0.75000000  0.55802100  1
  Cl  Cl10  1  0.84364700  0.25000000  0.94197900  1
  Cl  Cl11  1  0.65635300  0.25000000  0.44197900  1
loop_
_geom_bond_atom_site_label_1
_geom_bond_atom_site_label_2
_geom_bond_distance
_geom_bond_site_symmetry_2
C0 C8 1.488166 1_555
C0 C14 1.488166 1_555
C0 N0 1.682257 1_554
C1 C9 1.488166 1_555
C1 C15 1.488166 1_555
C1 N1 1.682257 1_555
C2 N2 1.682257 1_556
C3 N3 1.682257 1_555
C4 C8 1.482640 1_555
C4 N0 1.686431 1_554
C5 C9 1.482640 1_555
C5 N1 1.686431 1_555
C6 N2 1.686431 1_556
C7 N3 1.686431 1_555
C8 N0 1.545143 1_554
C9 N1 1.545143 1_555
C10 C6 1.482640 1_555
C10 C2 1.488166 1_555
C10 N2 1.545143 1_556
C11 C7 1.482640 1_555
C11 C3 1.488166 1_555
C11 N3 1.545143 1_555
C12 C6 1.482640 1_555
C12 C2 1.488166 1_555
C12 N2 1.545143 1_556
C13 C7 1.482640 1_555
C13 C3 1.488166 1_555
C13 N3 1.545143 1_555
C14 C4 1.482640 1_555
C14 N0 1.545143 1_554
C15 C5 1.482640 1_555
C15 N1 1.545143 1_555
Cl0 Ge0 2.193708 1_555
Cl1 Ge1 2.193708 1_555
Cl2 Ge2 2.193708 1_555
Cl3 Ge3 2.193708 1_555
Cl4 Ge2 2.193708 1_555
Cl5 Ge3 2.193708 1_555
Cl6 Ge0 2.193708 1_555
Cl7 Ge1 2.193708 1_555
Cl8 Ge0 2.198681 1_555
Cl9 Ge1 2.198681 1_555
Cl10 Ge2 2.198681 1_555
Cl11 Ge3 2.198681 1_555
