# generated using pymatgen
data_Cd3(SeO3)4
_symmetry_space_group_name_H-M   'P 1'
_cell_length_a   9.53566600
_cell_length_b   7.42673400
_cell_length_c   9.48716336
_cell_angle_alpha   66.99712661
_cell_angle_beta   90.00000000
_cell_angle_gamma   90.00000000
_symmetry_Int_Tables_number   1
_chemical_formula_structural   Cd3(SeO3)4
_chemical_formula_sum   'Cd6 Se8 O24'
_cell_volume   618.44647111
_cell_formula_units_Z   2
loop_
 _symmetry_equiv_pos_site_id
 _symmetry_equiv_pos_as_xyz
  1  'x, y, z'
loop_
 _atom_site_type_symbol
 _atom_site_label
 _atom_site_symmetry_multiplicity
 _atom_site_fract_x
 _atom_site_fract_y
 _atom_site_fract_z
 _atom_site_occupancy
  Cd  Cd0  1  0.87064200  0.38213200  0.65923700  1
  Cd  Cd1  1  0.37064200  0.11786800  0.34076300  1
  Cd  Cd2  1  0.12935800  0.61786800  0.34076300  1
  Cd  Cd3  1  0.62935800  0.88213200  0.65923700  1
  Cd  Cd4  1  0.50000000  0.50000000  0.50000000  1
  Cd  Cd5  1  0.00000000  0.00000000  0.50000000  1
  Se  Se0  1  0.88451600  0.86849900  0.88484700  1
  Se  Se1  1  0.38451600  0.63150100  0.11515300  1
  Se  Se2  1  0.11548400  0.13150100  0.11515300  1
  Se  Se3  1  0.61548400  0.36849900  0.88484700  1
  Se  Se4  1  0.16560900  0.54196600  0.70589200  1
  Se  Se5  1  0.66560900  0.95803400  0.29410800  1
  Se  Se6  1  0.83439100  0.45803400  0.29410800  1
  Se  Se7  1  0.33439100  0.04196600  0.70589200  1
  O  O0  1  0.86242300  0.04718100  0.69808600  1
  O  O1  1  0.36242300  0.45281900  0.30191400  1
  O  O2  1  0.13757700  0.95281900  0.30191400  1
  O  O3  1  0.63757700  0.54718100  0.69808600  1
  O  O4  1  0.73387200  0.74100400  0.90126300  1
  O  O5  1  0.23387200  0.75899600  0.09873700  1
  O  O6  1  0.26612800  0.25899600  0.09873700  1
  O  O7  1  0.76612800  0.24100400  0.90126300  1
  O  O8  1  0.02561600  0.74356000  0.87029700  1
  O  O9  1  0.52561600  0.75644000  0.12970300  1
  O  O10  1  0.97438400  0.25644000  0.12970300  1
  O  O11  1  0.47438400  0.24356000  0.87029700  1
  O  O12  1  0.08587700  0.31869600  0.78317300  1
  O  O13  1  0.58587700  0.18130400  0.21682700  1
  O  O14  1  0.91412300  0.68130400  0.21682700  1
  O  O15  1  0.41412300  0.81869600  0.78317300  1
  O  O16  1  0.02025500  0.66295400  0.59070200  1
  O  O17  1  0.52025500  0.83704600  0.40929800  1
  O  O18  1  0.97974500  0.33704600  0.40929800  1
  O  O19  1  0.47974500  0.16295400  0.59070200  1
  O  O20  1  0.26491300  0.52666500  0.55546400  1
  O  O21  1  0.76491300  0.97333500  0.44453600  1
  O  O22  1  0.73508700  0.47333500  0.44453600  1
  O  O23  1  0.23508700  0.02666500  0.55546400  1
loop_
_geom_bond_atom_site_label_1
_geom_bond_atom_site_label_2
_geom_bond_distance
_geom_bond_site_symmetry_2
Cd0 O22 2.280418 1_555
Cd0 O12 2.320325 1_655
Cd0 O7 2.341609 1_555
Cd0 O0 2.369290 1_555
Cd0 O16 2.397494 1_655
Cd0 O3 2.632613 1_555
Cd0 O18 2.727210 1_555
Cd1 O23 2.280418 1_555
Cd1 O13 2.320325 1_555
Cd1 O6 2.341609 1_555
Cd1 O1 2.369290 1_555
Cd1 O17 2.397494 1_545
Cd1 O2 2.632613 1_545
Cd1 O19 2.727210 1_555
Cd2 O20 2.280418 1_555
Cd2 O14 2.320325 1_455
Cd2 O5 2.341609 1_555
Cd2 O2 2.369290 1_555
Cd2 O18 2.397494 1_455
Cd2 O1 2.632613 1_555
Cd2 O16 2.727210 1_555
Cd3 O21 2.280418 1_555
Cd3 O15 2.320325 1_555
Cd3 O4 2.341609 1_555
Cd3 O3 2.369290 1_555
Cd3 O19 2.397494 1_565
Cd3 O0 2.632613 1_565
Cd3 O17 2.727210 1_555
Cd4 O17 2.315187 1_555
Cd4 O19 2.315187 1_555
Cd4 O20 2.328693 1_555
Cd4 O22 2.328693 1_555
Cd4 O3 2.426964 1_555
Cd4 O1 2.426964 1_555
Cd5 O18 2.315187 1_455
Cd5 O16 2.315187 1_545
Cd5 O23 2.328693 1_555
Cd5 O21 2.328693 1_445
Cd5 O0 2.426964 1_455
Cd5 O2 2.426964 1_545
O0 Se0 1.762703 1_545
O1 Se1 1.762703 1_555
O2 Se2 1.762703 1_565
O3 Se3 1.762703 1_555
O4 Se0 1.693834 1_555
O5 Se1 1.693834 1_555
O6 Se2 1.693834 1_555
O7 Se3 1.693834 1_555
O8 Se0 1.670467 1_455
O9 Se1 1.670467 1_555
O10 Se2 1.670467 1_655
O11 Se3 1.670467 1_555
O12 Se4 1.707325 1_555
O13 Se5 1.707325 1_545
O14 Se6 1.707325 1_555
O15 Se7 1.707325 1_565
O16 Se4 1.776325 1_555
O17 Se5 1.776325 1_555
O18 Se6 1.776325 1_555
O19 Se7 1.776325 1_555
O20 Se4 1.753012 1_555
O21 Se5 1.753012 1_555
O22 Se6 1.753012 1_555
O23 Se7 1.753012 1_555
