# generated using pymatgen
data_GdSbO4
_symmetry_space_group_name_H-M   'P 1'
_cell_length_a   5.38705479
_cell_length_b   7.46104011
_cell_length_c   8.14903748
_cell_angle_alpha   85.68387705
_cell_angle_beta   91.49173058
_cell_angle_gamma   96.35832317
_symmetry_Int_Tables_number   1
_chemical_formula_structural   GdSbO4
_chemical_formula_sum   'Gd4 Sb4 O16'
_cell_volume   324.54483378
_cell_formula_units_Z   4
loop_
 _symmetry_equiv_pos_site_id
 _symmetry_equiv_pos_as_xyz
  1  'x, y, z'
loop_
 _atom_site_type_symbol
 _atom_site_label
 _atom_site_symmetry_multiplicity
 _atom_site_fract_x
 _atom_site_fract_y
 _atom_site_fract_z
 _atom_site_occupancy
  Gd  Gd0  1  0.23261900  0.13309400  0.63687700  1
  Gd  Gd1  1  0.76739200  0.86688500  0.36310000  1
  Gd  Gd2  1  0.23370900  0.16934700  0.10572800  1
  Gd  Gd3  1  0.76627700  0.83063300  0.89429400  1
  Sb  Sb0  1  0.21857800  0.62962800  0.21719300  1
  Sb  Sb1  1  0.78143500  0.37034700  0.78279100  1
  Sb  Sb2  1  0.75833000  0.33041200  0.33388700  1
  Sb  Sb3  1  0.24169600  0.66962300  0.66609500  1
  O  O0  1  0.08793200  0.41858400  0.62979000  1
  O  O1  1  0.91202300  0.58144900  0.37022000  1
  O  O2  1  0.62647500  0.27978700  0.56499200  1
  O  O3  1  0.37357400  0.72019400  0.43506100  1
  O  O4  1  0.97587000  0.40605000  0.13025400  1
  O  O5  1  0.02411900  0.59392300  0.86971500  1
  O  O6  1  0.42757700  0.41694300  0.24526800  1
  O  O7  1  0.57242200  0.58305100  0.75471100  1
  O  O8  1  0.04304800  0.85469100  0.14386500  1
  O  O9  1  0.95693500  0.14533600  0.85613400  1
  O  O10  1  0.57241000  0.10733300  0.25689100  1
  O  O11  1  0.42749100  0.89265700  0.74315600  1
  O  O12  1  0.48438700  0.23651300  0.88554000  1
  O  O13  1  0.51570600  0.76349700  0.11445400  1
  O  O14  1  0.01821100  0.15415800  0.38443200  1
  O  O15  1  0.98178500  0.84586600  0.61555200  1
loop_
_geom_bond_atom_site_label_1
_geom_bond_atom_site_label_2
_geom_bond_distance
_geom_bond_site_symmetry_2
Gd0 O11 2.281704 1_545
Gd0 O14 2.336370 1_555
Gd0 O0 2.344110 1_555
Gd0 O2 2.344487 1_555
Gd0 O9 2.366246 1_455
Gd0 O15 2.418897 1_445
Gd0 O12 2.530121 1_555
Gd1 O10 2.281913 1_565
Gd1 O15 2.336361 1_555
Gd1 O1 2.343585 1_555
Gd1 O3 2.344453 1_555
Gd1 O8 2.365950 1_655
Gd1 O14 2.419146 1_665
Gd1 O13 2.529725 1_555
Gd2 O10 2.246072 1_555
Gd2 O12 2.266112 1_554
Gd2 O6 2.371369 1_555
Gd2 O4 2.387277 1_455
Gd2 O8 2.456777 1_545
Gd2 O9 2.495979 1_454
Gd2 O14 2.566736 1_555
Gd3 O11 2.246363 1_555
Gd3 O13 2.265569 1_556
Gd3 O7 2.371449 1_555
Gd3 O5 2.387397 1_655
Gd3 O9 2.457100 1_565
Gd3 O8 2.495842 1_656
Gd3 O15 2.567015 1_555
O0 Sb3 2.002211 1_555
O0 Sb1 2.078045 1_455
O1 Sb2 2.002128 1_555
O1 Sb0 2.078404 1_655
O2 Sb2 2.024134 1_555
O2 Sb1 2.069281 1_555
O3 Sb3 2.023611 1_555
O3 Sb0 2.069853 1_555
O4 Sb2 2.063804 1_555
O4 Sb0 2.154216 1_655
O5 Sb3 2.063901 1_555
O5 Sb1 2.154094 1_455
O6 Sb0 2.041012 1_555
O6 Sb2 2.056868 1_555
O7 Sb1 2.041179 1_555
O7 Sb3 2.056848 1_555
O8 Sb0 2.059655 1_555
O9 Sb1 2.059266 1_555
O10 Sb2 1.980476 1_555
O11 Sb3 1.980127 1_555
O12 Sb1 1.961847 1_555
O13 Sb0 1.962247 1_555
O14 Sb2 2.038427 1_455
O15 Sb3 2.038489 1_655
