# generated using pymatgen
data_ZnSi2WO6
_symmetry_space_group_name_H-M   'P 1'
_cell_length_a   5.39087900
_cell_length_b   9.48299700
_cell_length_c   19.09117900
_cell_angle_alpha   90.00000000
_cell_angle_beta   90.00000000
_cell_angle_gamma   90.00000000
_symmetry_Int_Tables_number   1
_chemical_formula_structural   ZnSi2WO6
_chemical_formula_sum   'Zn8 Si16 W8 O48'
_cell_volume   975.97332282
_cell_formula_units_Z   8
loop_
 _symmetry_equiv_pos_site_id
 _symmetry_equiv_pos_as_xyz
  1  'x, y, z'
loop_
 _atom_site_type_symbol
 _atom_site_label
 _atom_site_symmetry_multiplicity
 _atom_site_fract_x
 _atom_site_fract_y
 _atom_site_fract_z
 _atom_site_occupancy
  Zn  Zn0  1  0.61502800  0.14460300  0.37263100  1
  Zn  Zn1  1  0.38497200  0.85539700  0.62736900  1
  Zn  Zn2  1  0.61502800  0.64460300  0.12736900  1
  Zn  Zn3  1  0.11502800  0.85539700  0.12736900  1
  Zn  Zn4  1  0.88497200  0.14460300  0.87263100  1
  Zn  Zn5  1  0.38497200  0.35539700  0.87263100  1
  Zn  Zn6  1  0.11502800  0.35539700  0.37263100  1
  Zn  Zn7  1  0.88497200  0.64460300  0.62736900  1
  Si  Si0  1  0.56791300  0.67120400  0.77000700  1
  Si  Si1  1  0.73385400  0.83740000  0.48150400  1
  Si  Si2  1  0.76614600  0.83740000  0.98150400  1
  Si  Si3  1  0.93208700  0.17120400  0.22999300  1
  Si  Si4  1  0.06791300  0.32879600  0.72999300  1
  Si  Si5  1  0.43208700  0.82879600  0.27000700  1
  Si  Si6  1  0.23385400  0.66260000  0.48150400  1
  Si  Si7  1  0.73385400  0.33740000  0.01849600  1
  Si  Si8  1  0.76614600  0.33740000  0.51849600  1
  Si  Si9  1  0.93208700  0.67120400  0.27000700  1
  Si  Si10  1  0.43208700  0.32879600  0.22999300  1
  Si  Si11  1  0.56791300  0.17120400  0.72999300  1
  Si  Si12  1  0.26614600  0.16260000  0.51849600  1
  Si  Si13  1  0.06791300  0.82879600  0.77000700  1
  Si  Si14  1  0.26614600  0.66260000  0.98150400  1
  Si  Si15  1  0.23385400  0.16260000  0.01849600  1
  W  W0  1  0.36914400  0.97084500  0.87546600  1
  W  W1  1  0.63085600  0.02915500  0.12453400  1
  W  W2  1  0.86914400  0.02915500  0.62453400  1
  W  W3  1  0.13085600  0.97084500  0.37546600  1
  W  W4  1  0.36914400  0.47084500  0.62453400  1
  W  W5  1  0.63085600  0.52915500  0.37546600  1
  W  W6  1  0.86914400  0.52915500  0.87546600  1
  W  W7  1  0.13085600  0.47084500  0.12453400  1
  O  O0  1  0.95427800  0.51675400  0.30594900  1
  O  O1  1  0.28528300  0.01820400  0.06269300  1
  O  O2  1  0.04572200  0.48324600  0.69405100  1
  O  O3  1  0.72935900  0.34475700  0.93205800  1
  O  O4  1  0.22935900  0.15524300  0.93205800  1
  O  O5  1  0.96155400  0.22834100  0.04112100  1
  O  O6  1  0.92231600  0.69191100  0.18628000  1
  O  O7  1  0.07768400  0.80808900  0.68628000  1
  O  O8  1  0.72935900  0.84475700  0.56794200  1
  O  O9  1  0.92231600  0.19191100  0.31372000  1
  O  O10  1  0.45427800  0.48324600  0.19405100  1
  O  O11  1  0.77064100  0.34475700  0.43205800  1
  O  O12  1  0.71471700  0.98179600  0.93730700  1
  O  O13  1  0.42231600  0.80808900  0.18628000  1
  O  O14  1  0.54572200  0.01675400  0.69405100  1
  O  O15  1  0.28528300  0.51820400  0.43730700  1
  O  O16  1  0.45427800  0.98324600  0.30594900  1
  O  O17  1  0.15335800  0.77637800  0.30372400  1
  O  O18  1  0.34664200  0.77637800  0.80372400  1
  O  O19  1  0.53844600  0.72834100  0.95887900  1
  O  O20  1  0.77064100  0.84475700  0.06794200  1
  O  O21  1  0.57768400  0.69191100  0.68628000  1
  O  O22  1  0.78528300  0.48179600  0.06269300  1
  O  O23  1  0.15335800  0.27637800  0.19627600  1
  O  O24  1  0.27064100  0.15524300  0.43205800  1
  O  O25  1  0.57768400  0.19191100  0.81372000  1
  O  O26  1  0.71471700  0.48179600  0.56269300  1
  O  O27  1  0.22935900  0.65524300  0.56794200  1
  O  O28  1  0.21471700  0.51820400  0.93730700  1
  O  O29  1  0.65335800  0.72362200  0.30372400  1
  O  O30  1  0.04572200  0.98324600  0.80594900  1
  O  O31  1  0.84664200  0.72362200  0.80372400  1
  O  O32  1  0.84664200  0.22362200  0.69627600  1
  O  O33  1  0.78528300  0.98179600  0.43730700  1
  O  O34  1  0.27064100  0.65524300  0.06794200  1
  O  O35  1  0.21471700  0.01820400  0.56269300  1
  O  O36  1  0.34664200  0.27637800  0.69627600  1
  O  O37  1  0.03844600  0.77165900  0.95887900  1
  O  O38  1  0.46155400  0.77165900  0.45887900  1
  O  O39  1  0.65335800  0.22362200  0.19627600  1
  O  O40  1  0.46155400  0.27165900  0.04112100  1
  O  O41  1  0.53844600  0.22834100  0.54112100  1
  O  O42  1  0.03844600  0.27165900  0.54112100  1
  O  O43  1  0.42231600  0.30808900  0.31372000  1
  O  O44  1  0.54572200  0.51675400  0.80594900  1
  O  O45  1  0.96155400  0.72834100  0.45887900  1
  O  O46  1  0.07768400  0.30808900  0.81372000  1
  O  O47  1  0.95427800  0.01675400  0.19405100  1
loop_
_geom_bond_atom_site_label_1
_geom_bond_atom_site_label_2
_geom_bond_distance
_geom_bond_site_symmetry_2
O0 Si9 1.621833 1_555
O0 Zn6 2.170932 1_655
O0 W5 2.194329 1_555
O1 Si15 1.632121 1_555
O1 Zn3 2.179589 1_545
O1 W1 2.207985 1_555
O2 Si4 1.621833 1_555
O2 Zn7 2.170932 1_455
O2 W4 2.194329 1_555
O3 Si7 1.651855 1_556
O3 Zn5 2.178099 1_555
O3 W6 2.189270 1_555
O3 Zn4 2.365065 1_555
O4 Si15 1.651855 1_556
O4 Zn4 2.178099 1_455
O4 W0 2.189270 1_545
O4 Zn5 2.365065 1_555
O5 Si15 1.652290 1_655
O5 Si7 1.662202 1_555
O6 Si9 1.611325 1_555
O6 Zn2 2.051910 1_555
O6 Zn3 2.178930 1_655
O6 W7 2.654844 1_655
O7 Si13 1.611325 1_555
O7 Zn1 2.051910 1_555
O7 Zn7 2.178930 1_455
O7 W2 2.654844 1_465
O8 Si1 1.651855 1_555
O8 Zn1 2.178099 1_555
O8 W2 2.189270 1_565
O8 Zn7 2.365065 1_555
O9 Si3 1.611325 1_555
O9 Zn0 2.051910 1_555
O9 Zn6 2.178930 1_655
O9 W3 2.654844 1_645
O10 Si10 1.621833 1_555
O10 Zn2 2.170932 1_555
O10 W7 2.194329 1_555
O11 Si8 1.651855 1_555
O11 Zn6 2.178099 1_655
O11 W5 2.189270 1_555
O11 Zn0 2.365065 1_555
O12 Si2 1.632121 1_555
O12 Zn4 2.179589 1_565
O12 W0 2.207985 1_555
O13 Si5 1.611325 1_555
O13 Zn3 2.051910 1_555
O13 Zn2 2.178930 1_555
O13 W1 2.654844 1_565
O14 Si11 1.621833 1_555
O14 Zn1 2.170932 1_545
O14 W2 2.194329 1_555
O15 Si6 1.632121 1_555
O15 Zn6 2.179589 1_555
O15 W5 2.207985 1_555
O16 Si5 1.621833 1_555
O16 Zn0 2.170932 1_565
O16 W3 2.194329 1_555
O17 Si9 1.682843 1_455
O17 Si5 1.708574 1_555
O17 W3 2.300314 1_555
O18 Si0 1.682843 1_555
O18 Si13 1.708574 1_555
O18 W0 2.300314 1_555
O19 Si14 1.652290 1_555
O19 Si2 1.662202 1_555
O20 Si2 1.651855 1_554
O20 Zn3 2.178099 1_655
O20 W1 2.189270 1_565
O20 Zn2 2.365065 1_555
O21 Si0 1.611325 1_555
O21 Zn7 2.051910 1_555
O21 Zn1 2.178930 1_555
O21 W4 2.654844 1_555
O22 Si7 1.632121 1_555
O22 Zn2 2.179589 1_555
O22 W7 2.207985 1_655
O23 Si3 1.682843 1_455
O23 Si10 1.708574 1_555
O23 W7 2.300314 1_555
O24 Si12 1.651855 1_555
O24 Zn0 2.178099 1_555
O24 W3 2.189270 1_545
O24 Zn6 2.365065 1_555
O25 Si11 1.611325 1_555
O25 Zn4 2.051910 1_555
O25 Zn5 2.178930 1_555
O25 W0 2.654844 1_545
O26 Si8 1.632121 1_555
O26 Zn7 2.179589 1_555
O26 W4 2.207985 1_555
O27 Si6 1.651855 1_555
O27 Zn7 2.178099 1_455
O27 W4 2.189270 1_555
O27 Zn1 2.365065 1_555
O28 Si14 1.632121 1_555
O28 Zn5 2.179589 1_555
O28 W6 2.207985 1_455
O29 Si5 1.682843 1_555
O29 Si9 1.708574 1_555
O29 W5 2.300314 1_555
O30 Si13 1.621833 1_555
O30 Zn4 2.170932 1_465
O30 W0 2.194329 1_555
O31 Si13 1.682843 1_655
O31 Si0 1.708574 1_555
O31 W6 2.300314 1_555
O32 Si4 1.682843 1_655
O32 Si11 1.708574 1_555
O32 W2 2.300314 1_555
O33 Si1 1.632121 1_555
O33 Zn0 2.179589 1_565
O33 W3 2.207985 1_655
O34 Si14 1.651855 1_554
O34 Zn2 2.178099 1_555
O34 W7 2.189270 1_555
O34 Zn3 2.365065 1_555
O35 Si12 1.632121 1_555
O35 Zn1 2.179589 1_545
O35 W2 2.207985 1_455
O36 Si11 1.682843 1_555
O36 Si4 1.708574 1_555
O36 W4 2.300314 1_555
O37 Si2 1.652290 1_455
O37 Si14 1.662202 1_555
O38 Si1 1.652290 1_555
O38 Si6 1.662202 1_555
O39 Si10 1.682843 1_555
O39 Si3 1.708574 1_555
O39 W1 2.300314 1_555
O40 Si7 1.652290 1_555
O40 Si15 1.662202 1_555
O41 Si12 1.652290 1_555
O41 Si8 1.662202 1_555
O42 Si8 1.652290 1_455
O42 Si12 1.662202 1_555
O43 Si10 1.611325 1_555
O43 Zn6 2.051910 1_555
O43 Zn0 2.178930 1_555
O43 W5 2.654844 1_555
O44 Si0 1.621833 1_555
O44 Zn5 2.170932 1_555
O44 W6 2.194329 1_555
O45 Si6 1.652290 1_655
O45 Si1 1.662202 1_555
O46 Si4 1.611325 1_555
O46 Zn5 2.051910 1_555
O46 Zn4 2.178930 1_455
O46 W6 2.654844 1_455
O47 Si3 1.621833 1_555
O47 Zn3 2.170932 1_645
O47 W1 2.194329 1_555
