# generated using pymatgen
data_Al13Fe4
_symmetry_space_group_name_H-M   'P 1'
_cell_length_a   7.98717534
_cell_length_b   8.63074379
_cell_length_c   12.30141247
_cell_angle_alpha   105.68038140
_cell_angle_beta   90.00000000
_cell_angle_gamma   117.56253484
_symmetry_Int_Tables_number   1
_chemical_formula_structural   Al13Fe4
_chemical_formula_sum   'Al39 Fe12'
_cell_volume   715.96969643
_cell_formula_units_Z   3
loop_
 _symmetry_equiv_pos_site_id
 _symmetry_equiv_pos_as_xyz
  1  'x, y, z'
loop_
 _atom_site_type_symbol
 _atom_site_label
 _atom_site_symmetry_multiplicity
 _atom_site_fract_x
 _atom_site_fract_y
 _atom_site_fract_z
 _atom_site_occupancy
  Al  Al0  1  0.06598421  0.13196743  0.17337218  1
  Al  Al1  1  0.93401591  0.86803281  0.82662830  1
  Al  Al2  1  0.32524327  0.65048655  0.28162410  1
  Al  Al3  1  0.67475675  0.34951351  0.71837610  1
  Al  Al4  1  0.23695407  0.47390814  0.53734146  1
  Al  Al5  1  0.76304544  0.52609087  0.46265773  1
  Al  Al6  1  0.07396990  0.14793980  0.57980956  1
  Al  Al7  1  0.92602985  0.85205970  0.42018919  1
  Al  Al8  1  0.24013244  0.48026489  0.95601795  1
  Al  Al9  1  0.75986766  0.51973532  0.04398212  1
  Al  Al10  1  0.47940001  0.95880002  0.82909008  1
  Al  Al11  1  0.52059993  0.04119986  0.17091019  1
  Al  Al12  1  0.50000013  0.00000025  0.49999981  1
  Al  Al13  1  0.30576208  0.61152316  0.77171953  1
  Al  Al14  1  0.69423912  0.38847923  0.22828137  1
  Al  Al15  1  0.08526736  0.17053572  0.78652901  1
  Al  Al16  1  0.91473202  0.82946305  0.21347191  1
  Al  Al17  1  0.96796465  0.37060316  0.11111818  1
  Al  Al18  1  0.40263851  0.37060316  0.11111818  1
  Al  Al19  1  0.03203575  0.62939795  0.88888205  1
  Al  Al20  1  0.59736219  0.62939795  0.88888205  1
  Al  Al21  1  0.15491479  0.73639918  0.10944139  1
  Al  Al22  1  0.58148439  0.73639918  0.10944139  1
  Al  Al23  1  0.84508460  0.26360005  0.89055878  1
  Al  Al24  1  0.41851545  0.26360005  0.89055878  1
  Al  Al25  1  0.95753677  0.35568297  0.33514991  1
  Al  Al26  1  0.39814521  0.35568297  0.33514991  1
  Al  Al27  1  0.04246362  0.64431766  0.66485061  1
  Al  Al28  1  0.60185505  0.64431766  0.66485061  1
  Al  Al29  1  0.25859126  0.98561225  0.33112418  1
  Al  Al30  1  0.72702099  0.98561225  0.33112418  1
  Al  Al31  1  0.74140813  0.01438755  0.66887636  1
  Al  Al32  1  0.27297942  0.01438755  0.66887636  1
  Al  Al33  1  0.14380853  0.72477047  0.47771080  1
  Al  Al34  1  0.58096194  0.72477047  0.47771080  1
  Al  Al35  1  0.85619098  0.27522901  0.52228819  1
  Al  Al36  1  0.41903802  0.27522901  0.52228819  1
  Al  Al37  1  0.75104484  0.99999964  0.99999946  1
  Al  Al38  1  0.24895480  0.99999964  0.99999946  1
  Fe  Fe0  1  0.08457494  0.16914989  0.38199386  1
  Fe  Fe1  1  0.91542478  0.83084956  0.61800564  1
  Fe  Fe2  1  0.40206854  0.80413807  0.62372475  1
  Fe  Fe3  1  0.59793159  0.19586219  0.37627537  1
  Fe  Fe4  1  0.09082924  0.18165749  0.98786000  1
  Fe  Fe5  1  0.90917059  0.81834219  0.01213991  1
  Fe  Fe6  1  0.40331744  0.80663488  0.98552375  1
  Fe  Fe7  1  0.59668252  0.19336503  0.01447605  1
  Fe  Fe8  1  0.02496836  0.63877170  0.27691777  1
  Fe  Fe9  1  0.61380334  0.63877170  0.27691777  1
  Fe  Fe10  1  0.97502914  0.36122860  0.72308238  1
  Fe  Fe11  1  0.38619947  0.36122860  0.72308238  1
loop_
_geom_bond_atom_site_label_1
_geom_bond_atom_site_label_2
_geom_bond_distance
_geom_bond_site_symmetry_2
Al0 Fe4 2.425154 1_554
Al0 Fe0 2.494367 1_555
Al0 Al16 2.509284 1_445
Al0 Fe5 2.605757 1_445
Al0 Al18 2.790367 1_555
Al0 Al17 2.790372 1_455
Al0 Al26 2.812386 1_555
Al0 Al25 2.812396 1_455
Al0 Al38 2.865120 1_544
Al0 Al37 2.865125 1_444
Al1 Fe5 2.425149 1_556
Al1 Fe1 2.494378 1_555
Al1 Al15 2.509270 1_665
Al1 Fe4 2.605750 1_665
Al1 Al20 2.790360 1_555
Al1 Al19 2.790364 1_655
Al1 Al28 2.812385 1_555
Al1 Al27 2.812395 1_655
Al1 Al37 2.865107 1_555
Al1 Al38 2.865112 1_655
Al2 Fe8 2.353312 1_555
Al2 Fe9 2.353312 1_555
Al2 Al33 2.890222 1_555
Al2 Al34 2.890222 1_555
Al2 Al21 2.944384 1_555
Al2 Al22 2.944385 1_555
Al2 Al29 3.081077 1_555
Al2 Al30 3.081077 1_555
Al2 Al26 3.085950 1_555
Al2 Al25 3.085954 1_455
Al3 Fe11 2.353290 1_555
Al3 Fe10 2.353291 1_555
Al3 Al35 2.890232 1_555
Al3 Al36 2.890232 1_555
Al3 Al31 3.081076 1_555
Al3 Al32 3.081076 1_555
Al4 Fe2 2.424064 1_555
Al4 Fe0 2.524288 1_555
Al4 Al6 2.699569 1_555
Al5 Fe3 2.424054 1_555
Al5 Fe1 2.524292 1_555
Al5 Al7 2.699575 1_555
Al6 Fe0 2.487694 1_555
Al6 Al7 2.504018 1_445
Al6 Fe10 2.590750 1_455
Al6 Fe11 2.590750 1_555
Al6 Fe1 2.608051 1_445
Al7 Fe1 2.487703 1_555
Al7 Fe8 2.590726 1_655
Al7 Fe9 2.590726 1_555
Al7 Fe0 2.608046 1_665
Al8 Fe6 2.411374 1_555
Al8 Fe4 2.432898 1_555
Al9 Fe7 2.411376 1_555
Al9 Fe5 2.432895 1_555
Al10 Fe7 2.434360 1_566
Al10 Fe2 2.441232 1_555
Al10 Al13 2.532743 1_555
Al10 Fe6 2.534699 1_555
Al10 Al24 2.799505 1_565
Al10 Al23 2.799505 1_565
Al10 Al32 2.841799 1_565
Al10 Al31 2.841799 1_565
Al10 Al38 2.852377 1_555
Al10 Al37 2.852377 1_555
Al11 Fe6 2.434364 1_544
Al11 Fe3 2.441231 1_555
Al11 Al14 2.532761 1_555
Al11 Fe7 2.534704 1_555
Al11 Al22 2.799509 1_545
Al11 Al21 2.799510 1_545
Al11 Al30 2.841805 1_545
Al11 Al29 2.841805 1_545
Al11 Al37 2.852388 1_544
Al11 Al38 2.852388 1_544
Al12 Fe3 2.439856 1_555
Al12 Fe2 2.439863 1_545
Al12 Al36 2.684307 1_555
Al12 Al35 2.684307 1_555
Al12 Al34 2.684313 1_545
Al12 Al33 2.684313 1_545
Al12 Al30 2.772702 1_545
Al12 Al29 2.772702 1_545
Al12 Al31 2.772709 1_555
Al12 Al32 2.772709 1_555
Al13 Fe11 2.454194 1_555
Al13 Fe10 2.454200 1_455
Al13 Fe6 2.598446 1_555
Al13 Al27 2.642542 1_555
Al13 Al28 2.642542 1_555
Al13 Al20 2.659486 1_555
Al13 Al19 2.659492 1_555
Al13 Fe2 2.668750 1_555
Al13 Al8 2.745316 1_555
Al13 Al4 2.751425 1_555
Al14 Fe9 2.454169 1_555
Al14 Fe8 2.454174 1_655
Al14 Fe7 2.598463 1_555
Al14 Al25 2.642543 1_555
Al14 Al26 2.642543 1_555
Al14 Al18 2.659488 1_555
Al14 Al17 2.659495 1_555
Al14 Fe3 2.668755 1_555
Al14 Al9 2.745315 1_555
Al14 Al5 2.751404 1_555
Al15 Fe4 2.452052 1_555
Al15 Fe10 2.475595 1_455
Al15 Fe11 2.475600 1_555
Al15 Al6 2.495671 1_555
Al15 Al23 2.614071 1_455
Al15 Al24 2.614078 1_555
Al15 Al8 2.636341 1_555
Al15 Al31 2.640889 1_455
Al15 Al32 2.640895 1_555
Al15 Fe1 2.786975 1_445
Al16 Fe5 2.452066 1_555
Al16 Fe8 2.475568 1_655
Al16 Fe9 2.475573 1_555
Al16 Al7 2.495643 1_555
Al16 Al21 2.614073 1_655
Al16 Al22 2.614080 1_555
Al16 Al9 2.636339 1_555
Al16 Al29 2.640886 1_655
Al16 Al30 2.640892 1_555
Al16 Fe0 2.786971 1_665
Al17 Fe4 2.462884 1_654
Al17 Fe8 2.489407 1_655
Al17 Al23 2.642789 1_554
Al17 Fe7 2.714113 1_555
Al17 Al37 2.758498 1_544
Al17 Al9 2.766901 1_555
Al17 Al25 2.792928 1_555
Al17 Al21 2.805326 1_655
Al17 Al8 2.886826 1_654
Al17 Al2 3.042991 1_655
Al18 Fe4 2.462878 1_554
Al18 Fe9 2.489407 1_555
Al18 Al24 2.642789 1_554
Al18 Fe7 2.714113 1_555
Al18 Al38 2.758498 1_544
Al18 Al9 2.766901 1_555
Al18 Al26 2.792928 1_555
Al18 Al22 2.805326 1_555
Al18 Al8 2.886826 1_554
Al18 Al2 3.042991 1_555
Al19 Fe5 2.462877 1_456
Al19 Fe10 2.489406 1_455
Al19 Al21 2.642788 1_556
Al19 Fe6 2.714109 1_555
Al19 Al38 2.758483 1_555
Al19 Al8 2.766905 1_555
Al19 Al27 2.792923 1_555
Al19 Al23 2.805340 1_455
Al19 Al9 2.886828 1_456
Al19 Al3 3.042995 1_455
Al20 Fe5 2.462871 1_556
Al20 Fe11 2.489406 1_555
Al20 Al22 2.642788 1_556
Al20 Fe6 2.714109 1_555
Al20 Al37 2.758483 1_555
Al20 Al8 2.766905 1_555
Al20 Al28 2.792923 1_555
Al20 Al24 2.805340 1_555
Al20 Al9 2.886828 1_556
Al20 Al3 3.042995 1_555
Al21 Fe6 2.452348 1_554
Al21 Fe8 2.482063 1_555
Al21 Fe5 2.743658 1_455
Al21 Al38 2.761669 1_554
Al21 Al9 2.797657 1_455
Al21 Al29 2.815990 1_555
Al21 Al8 2.837144 1_554
Al22 Fe6 2.452348 1_554
Al22 Fe9 2.482063 1_555
Al22 Fe5 2.743652 1_555
Al22 Al37 2.761669 1_554
Al22 Al9 2.797657 1_555
Al22 Al30 2.815990 1_555
Al22 Al8 2.837145 1_554
Al23 Fe7 2.452341 1_556
Al23 Fe10 2.482062 1_555
Al23 Fe4 2.743657 1_655
Al23 Al37 2.761658 1_545
Al23 Al8 2.797662 1_655
Al23 Al31 2.815985 1_555
Al23 Al9 2.837146 1_556
Al23 Al3 2.944386 1_555
Al24 Fe7 2.452341 1_556
Al24 Fe11 2.482062 1_555
Al24 Fe4 2.743650 1_555
Al24 Al38 2.761658 1_545
Al24 Al8 2.797662 1_555
Al24 Al32 2.815985 1_555
Al24 Al9 2.837147 1_556
Al24 Al3 2.944386 1_555
Al25 Fe0 2.442677 1_655
Al25 Fe8 2.549713 1_655
Al25 Al35 2.603996 1_555
Al25 Fe3 2.668157 1_555
Al25 Al5 2.811388 1_555
Al25 Al33 2.833858 1_655
Al25 Al30 2.840112 1_545
Al25 Al4 2.954488 1_655
Al26 Fe0 2.442672 1_555
Al26 Fe9 2.549715 1_555
Al26 Al36 2.603997 1_555
Al26 Fe3 2.668170 1_555
Al26 Al5 2.811395 1_555
Al26 Al34 2.833858 1_555
Al26 Al29 2.840113 1_545
Al26 Al4 2.954483 1_555
Al27 Fe1 2.442677 1_455
Al27 Fe10 2.549707 1_455
Al27 Al33 2.604009 1_555
Al27 Fe2 2.668157 1_555
Al27 Al4 2.811398 1_555
Al27 Al35 2.833871 1_455
Al27 Al32 2.840106 1_565
Al27 Al5 2.954501 1_455
Al27 Al3 3.085957 1_455
Al28 Fe1 2.442671 1_555
Al28 Fe11 2.549709 1_555
Al28 Al34 2.604010 1_555
Al28 Fe2 2.668170 1_555
Al28 Al4 2.811405 1_555
Al28 Al36 2.833871 1_555
Al28 Al31 2.840107 1_565
Al28 Al5 2.954496 1_555
Al28 Al3 3.085952 1_555
Al29 Fe3 2.418903 1_565
Al29 Fe0 2.516818 1_565
Al29 Fe8 2.576677 1_555
Al29 Al36 2.697875 1_565
Al29 Al7 2.726495 1_455
Al29 Al33 3.073205 1_555
Al30 Fe3 2.418897 1_565
Al30 Fe0 2.516818 1_665
Al30 Fe9 2.576677 1_555
Al30 Al35 2.697875 1_565
Al30 Al7 2.726495 1_555
Al30 Al34 3.073205 1_555
Al31 Fe2 2.418898 1_545
Al31 Fe1 2.516824 1_545
Al31 Fe10 2.576678 1_555
Al31 Al34 2.697888 1_545
Al31 Al6 2.726509 1_655
Al31 Al35 3.073218 1_555
Al32 Fe2 2.418892 1_545
Al32 Fe1 2.516824 1_445
Al32 Fe11 2.576678 1_555
Al32 Al33 2.697888 1_545
Al32 Al6 2.726509 1_555
Al32 Al36 3.073218 1_555
Al33 Fe8 2.431046 1_555
Al33 Fe2 2.444951 1_555
Al33 Al7 2.630952 1_455
Al33 Al5 2.688118 1_455
Al33 Fe1 2.799220 1_455
Al33 Al4 2.851057 1_555
Al34 Fe9 2.431046 1_555
Al34 Fe2 2.444956 1_555
Al34 Al7 2.630952 1_555
Al34 Al5 2.688118 1_555
Al34 Fe1 2.799220 1_555
Al34 Al4 2.851057 1_555
Al35 Fe10 2.431054 1_555
Al35 Fe3 2.444940 1_555
Al35 Al6 2.630952 1_655
Al35 Al4 2.688117 1_655
Al35 Fe0 2.799218 1_655
Al35 Al5 2.851052 1_555
Al36 Fe11 2.431054 1_555
Al36 Fe3 2.444946 1_555
Al36 Al6 2.630952 1_555
Al36 Al4 2.688117 1_555
Al36 Fe0 2.799218 1_555
Al36 Al5 2.851053 1_555
Al37 Fe5 2.456541 1_556
Al37 Fe4 2.456547 1_665
Al37 Fe6 2.465868 1_555
Al37 Fe7 2.465869 1_566
Al38 Fe4 2.456540 1_565
Al38 Fe5 2.456548 1_456
Al38 Fe6 2.465868 1_555
Al38 Fe7 2.465869 1_566
Fe4 Fe5 2.884918 1_446
Fe6 Fe7 2.870484 1_566
