# generated using pymatgen
data_V5S4
_symmetry_space_group_name_H-M   'P 1'
_cell_length_a   3.16971228
_cell_length_b   6.51784672
_cell_length_c   12.64398388
_cell_angle_alpha   89.99678547
_cell_angle_beta   90.00130355
_cell_angle_gamma   104.08005964
_symmetry_Int_Tables_number   1
_chemical_formula_structural   V5S4
_chemical_formula_sum   'V10 S8'
_cell_volume   253.37297115
_cell_formula_units_Z   2
loop_
 _symmetry_equiv_pos_site_id
 _symmetry_equiv_pos_as_xyz
  1  'x, y, z'
loop_
 _atom_site_type_symbol
 _atom_site_label
 _atom_site_symmetry_multiplicity
 _atom_site_fract_x
 _atom_site_fract_y
 _atom_site_fract_z
 _atom_site_occupancy
  V  V0  1  0.15996258  0.31978616  0.46046017  1
  V  V1  1  0.65989702  0.31967532  0.96054521  1
  V  V2  1  0.53968753  0.07897507  0.15985658  1
  V  V3  1  0.03971400  0.07900808  0.65985688  1
  V  V4  1  0.00000096  0.00000206  0.00000644  1
  V  V5  1  0.50000285  -0.00000560  0.49998978  1
  V  V6  1  0.34004618  0.68023652  0.03952110  1
  V  V7  1  0.84009463  0.68030785  0.53946983  1
  V  V8  1  0.96031463  0.92101398  0.34011980  1
  V  V9  1  0.46029394  0.92099806  0.84017220  1
  S  S0  1  0.16781998  0.33570942  0.10354784  1
  S  S1  1  0.66786483  0.33581228  0.60350434  1
  S  S2  1  0.89642932  0.79285813  0.16791895  1
  S  S3  1  0.39644402  0.79291767  0.66787678  1
  S  S4  1  0.33216857  0.66425812  0.39642348  1
  S  S5  1  0.83214075  0.66422686  0.89652400  1
  S  S6  1  0.60357983  0.20714774  0.33207209  1
  S  S7  1  0.10354138  0.20707027  0.83213453  1
loop_
_geom_bond_atom_site_label_1
_geom_bond_atom_site_label_2
_geom_bond_distance
_geom_bond_site_symmetry_2
S0 V6 2.323652 1_555
S0 V2 2.376971 1_455
S0 V2 2.378212 1_555
S0 V1 2.406295 1_454
S0 V1 2.406759 1_554
S0 V4 2.493714 1_555
S1 V7 2.323499 1_555
S1 V3 2.377404 1_555
S1 V3 2.378714 1_655
S1 V0 2.406653 1_555
S1 V0 2.407186 1_655
S1 V5 2.494130 1_555
S2 V8 2.323203 1_555
S2 V6 2.377840 1_655
S2 V6 2.377978 1_555
S2 V2 2.406812 1_565
S2 V2 2.407352 1_665
S2 V4 2.494427 1_665
S3 V9 2.324158 1_555
S3 V7 2.377955 1_555
S3 V7 2.377976 1_455
S3 V3 2.406611 1_565
S3 V3 2.407255 1_665
S3 V5 2.493929 1_565
S4 V0 2.323369 1_555
S4 V8 2.377051 1_555
S4 V8 2.378279 1_455
S4 V7 2.406705 1_555
S4 V7 2.407188 1_455
S4 V5 2.494035 1_565
S5 V1 2.323772 1_555
S5 V9 2.377298 1_655
S5 V9 2.378529 1_555
S5 V6 2.406225 1_656
S5 V6 2.406711 1_556
S5 V4 2.493688 1_666
S6 V2 2.323414 1_555
S6 V0 2.377806 1_555
S6 V0 2.377907 1_655
S6 V8 2.406887 1_545
S6 V8 2.407421 1_445
S6 V5 2.494514 1_555
S7 V3 2.323907 1_555
S7 V1 2.377960 1_455
S7 V1 2.378017 1_555
S7 V9 2.406562 1_545
S7 V9 2.407150 1_445
S7 V4 2.493739 1_556
