# generated using pymatgen
data_Mg2V3CoS8
_symmetry_space_group_name_H-M   'P 1'
_cell_length_a   7.24666655
_cell_length_b   7.24342147
_cell_length_c   7.24337805
_cell_angle_alpha   58.68960149
_cell_angle_beta   58.66291553
_cell_angle_gamma   58.69002232
_symmetry_Int_Tables_number   1
_chemical_formula_structural   Mg2V3CoS8
_chemical_formula_sum   'Mg2 V3 Co1 S8'
_cell_volume   260.74411354
_cell_formula_units_Z   1
loop_
 _symmetry_equiv_pos_site_id
 _symmetry_equiv_pos_as_xyz
  1  'x, y, z'
loop_
 _atom_site_type_symbol
 _atom_site_label
 _atom_site_symmetry_multiplicity
 _atom_site_fract_x
 _atom_site_fract_y
 _atom_site_fract_z
 _atom_site_occupancy
  Mg  Mg0  1  0.87521000  0.87471000  0.87507800  1
  Mg  Mg1  1  0.12479100  0.12529100  0.12492500  1
  V  V0  1  0.50001000  0.49999900  0.99998900  1
  V  V1  1  0.99998800  0.50000100  0.50001800  1
  V  V2  1  0.50000100  0.99999400  0.50000400  1
  Co  Co0  1  0.50000100  0.50000400  0.49999300  1
  S  S0  1  0.73929500  0.73828300  0.73898500  1
  S  S1  1  0.27238500  0.27127300  0.70788200  1
  S  S2  1  0.27178500  0.70783600  0.27136000  1
  S  S3  1  0.70794300  0.27162500  0.27231800  1
  S  S4  1  0.72821000  0.29215900  0.72863300  1
  S  S5  1  0.29205800  0.72837100  0.72767900  1
  S  S6  1  0.26070400  0.26172200  0.26102200  1
  S  S7  1  0.72762400  0.72872900  0.29211600  1
loop_
_geom_bond_atom_site_label_1
_geom_bond_atom_site_label_2
_geom_bond_distance
_geom_bond_site_symmetry_2
Mg0 S7 2.425298 1_556
Mg0 S5 2.425316 1_655
Mg0 S4 2.428368 1_565
Mg0 S0 2.439740 1_555
Mg1 S3 2.425315 1_455
Mg1 S1 2.425328 1_554
Mg1 S2 2.428400 1_545
Mg1 S6 2.439776 1_555
Co0 S5 2.320914 1_555
Co0 S3 2.320920 1_555
Co0 S1 2.323141 1_555
Co0 S7 2.323155 1_555
Co0 S4 2.326777 1_555
Co0 S2 2.326785 1_555
S0 V1 2.420527 1_555
S0 V0 2.422675 1_555
S0 V2 2.427384 1_555
S1 V2 2.443830 1_545
S1 V1 2.451138 1_455
S2 V0 2.443738 1_554
S2 V1 2.446642 1_455
S3 V2 2.446586 1_545
S3 V0 2.451029 1_554
S4 V0 2.443680 1_555
S4 V1 2.446589 1_555
S5 V2 2.446551 1_555
S5 V0 2.451017 1_555
S6 V1 2.420662 1_455
S6 V0 2.422752 1_554
S6 V2 2.427408 1_545
S7 V2 2.443798 1_555
S7 V1 2.451140 1_555
