# generated using pymatgen
data_Mo12PH13O40
_symmetry_space_group_name_H-M   'P 1'
_cell_length_a   13.97724944
_cell_length_b   14.54764853
_cell_length_c   14.57236978
_cell_angle_alpha   60.70999344
_cell_angle_beta   67.97173493
_cell_angle_gamma   70.40803183
_symmetry_Int_Tables_number   1
_chemical_formula_structural   Mo12PH13O40
_chemical_formula_sum   'Mo24 P2 H26 O80'
_cell_volume   2352.99657844
_cell_formula_units_Z   2
loop_
 _symmetry_equiv_pos_site_id
 _symmetry_equiv_pos_as_xyz
  1  'x, y, z'
loop_
 _atom_site_type_symbol
 _atom_site_label
 _atom_site_symmetry_multiplicity
 _atom_site_fract_x
 _atom_site_fract_y
 _atom_site_fract_z
 _atom_site_occupancy
  Mo  Mo0  1  0.21148720  0.56957201  0.19625703  1
  Mo  Mo1  1  0.78851280  0.43042799  0.80374297  1
  Mo  Mo2  1  0.43793783  0.27930465  0.04754242  1
  Mo  Mo3  1  0.56206217  0.72069535  0.95245758  1
  Mo  Mo4  1  0.18137418  0.21739654  0.08344810  1
  Mo  Mo5  1  0.81862582  0.78260346  0.91655190  1
  Mo  Mo6  1  0.00154554  0.69874259  0.49463998  1
  Mo  Mo7  1  0.99845446  0.30125741  0.50536002  1
  Mo  Mo8  1  0.20431678  0.01913751  0.34046136  1
  Mo  Mo9  1  0.79568322  0.98086249  0.65953864  1
  Mo  Mo10  1  0.79918892  0.50034236  0.99654520  1
  Mo  Mo11  1  0.20081108  0.49965764  0.00345480  1
  Mo  Mo12  1  0.44988698  0.09364156  0.31126991  1
  Mo  Mo13  1  0.55011302  0.90635844  0.68873009  1
  Mo  Mo14  1  0.01666097  0.49897072  0.77825801  1
  Mo  Mo15  1  0.98333903  0.50102928  0.22174199  1
  Mo  Mo16  1  0.45798317  0.35991049  0.22696102  1
  Mo  Mo17  1  0.54201683  0.64008951  0.77303898  1
  Mo  Mo18  1  0.21555981  0.09528664  0.54741262  1
  Mo  Mo19  1  0.78444019  0.90471336  0.45258738  1
  Mo  Mo20  1  0.23559460  0.35580892  0.47465608  1
  Mo  Mo21  1  0.76440540  0.64419108  0.52534392  1
  Mo  Mo22  1  0.97636842  0.21242996  0.31255996  1
  Mo  Mo23  1  0.02363158  0.78757004  0.68744004  1
  P  P0  1  0.21285169  0.29191835  0.27279238  1
  P  P1  1  0.78714831  0.70808165  0.72720762  1
  H  H0  1  0.05228905  0.95365443  0.17791862  1
  H  H1  1  0.94771095  0.04634557  0.82208138  1
  H  H2  1  0.62032713  0.18841469  0.44705451  1
  H  H3  1  0.37967287  0.81158531  0.55294549  1
  H  H4  1  0.28734272  0.59919230  0.58534833  1
  H  H5  1  0.71265728  0.40080770  0.41465167  1
  H  H6  1  0.27138250  0.92655977  0.03957966  1
  H  H7  1  0.72861750  0.07344023  0.96042034  1
  H  H8  1  0.36186804  0.65079940  0.32944714  1
  H  H9  1  0.63813196  0.34920060  0.67055286  1
  H  H10  1  0.26119450  0.11809602  0.80046029  1
  H  H11  1  0.73880550  0.88190398  0.19953971  1
  H  H12  1  0.73844830  0.18748526  0.10814357  1
  H  H13  1  0.26155170  0.81251474  0.89185643  1
  H  H14  1  0.44080135  0.95440838  0.10073938  1
  H  H15  1  0.55919865  0.04559162  0.89926062  1
  H  H16  1  0.94115283  0.14149647  0.06749811  1
  H  H17  1  0.05884717  0.85850353  0.93250189  1
  H  H18  1  0.03991196  0.18027759  0.84282013  1
  H  H19  1  0.96008804  0.81972241  0.15717987  1
  H  H20  1  0.51859307  0.27980762  0.56774933  1
  H  H21  1  0.48140693  0.72019238  0.43225067  1
  H  H22  1  0.62425111  0.57352010  0.25501057  1
  H  H23  1  0.37574889  0.42647990  0.74498943  1
  H  H24  1  0.41624426  0.21083963  0.76953258  1
  H  H25  1  0.58375574  0.78916037  0.23046742  1
  O  O0  1  0.03618593  0.21921520  0.16336054  1
  O  O1  1  0.96381407  0.78078480  0.83663946  1
  O  O2  1  0.22898576  0.59210596  0.04641852  1
  O  O3  1  0.77101424  0.40789404  0.95358148  1
  O  O4  1  0.50232240  0.34952567  0.08979516  1
  O  O5  1  0.49767760  0.65047433  0.91020484  1
  O  O6  1  0.18345972  0.19781946  0.97612577  1
  O  O7  1  0.81654028  0.80218054  0.02387423  1
  O  O8  1  0.76739755  0.01356948  0.33457262  1
  O  O9  1  0.23260245  0.98643052  0.66542738  1
  O  O10  1  0.85141135  0.19777179  0.33927732  1
  O  O11  1  0.14858865  0.80222821  0.66072268  1
  O  O12  1  0.05137602  0.54324816  0.06855180  1
  O  O13  1  0.94862398  0.45675184  0.93144820  1
  O  O14  1  0.02699904  0.77177753  0.56382870  1
  O  O15  1  0.97300096  0.22822247  0.43617130  1
  O  O16  1  0.25220104  0.20443267  0.56566726  1
  O  O17  1  0.74779896  0.79556733  0.43433274  1
  O  O18  1  0.26141699  0.40419485  0.54700370  1
  O  O19  1  0.73858301  0.59580515  0.45299630  1
  O  O20  1  0.06215860  0.59633693  0.21507926  1
  O  O21  1  0.93784140  0.40366307  0.78492074  1
  O  O22  1  0.16523244  0.21929394  0.25827653  1
  O  O23  1  0.83476756  0.78070606  0.74172347  1
  O  O24  1  0.35666546  0.08781195  0.44811890  1
  O  O25  1  0.64333454  0.91218805  0.55188110  1
  O  O26  1  0.33427510  0.26691620  0.23315472  1
  O  O27  1  0.66572490  0.73308380  0.76684528  1
  O  O28  1  0.07105885  0.15796547  0.59140299  1
  O  O29  1  0.92894115  0.84203453  0.40859701  1
  O  O30  1  0.34550809  0.03566034  0.30426323  1
  O  O31  1  0.65449191  0.96433966  0.69573677  1
  O  O32  1  0.51218946  0.20339421  0.29186527  1
  O  O33  1  0.48781054  0.79660579  0.70813473  1
  O  O34  1  0.13862648  0.42034525  0.78002290  1
  O  O35  1  0.86137352  0.57965475  0.21997710  1
  O  O36  1  0.05033066  0.06641940  0.36240910  1
  O  O37  1  0.94966934  0.93358060  0.63759090  1
  O  O38  1  0.11884994  0.69003674  0.40156464  1
  O  O39  1  0.88115006  0.30996326  0.59843536  1
  O  O40  1  0.16319431  0.37023379  0.02643878  1
  O  O41  1  0.83680569  0.62976621  0.97356122  1
  O  O42  1  0.49575287  0.14506185  0.15070844  1
  O  O43  1  0.50424713  0.85493815  0.84929156  1
  O  O44  1  0.55792856  0.40787728  0.21920731  1
  O  O45  1  0.44207144  0.59212272  0.78079269  1
  O  O46  1  0.17171218  0.41101258  0.20496172  1
  O  O47  1  0.82828782  0.58898742  0.79503828  1
  O  O48  1  0.65994737  0.58447893  0.99768655  1
  O  O49  1  0.34005263  0.41552107  0.00231345  1
  O  O50  1  0.35594061  0.48707016  0.17975321  1
  O  O51  1  0.64405939  0.51292984  0.82024679  1
  O  O52  1  0.79156788  0.42214600  0.13130498  1
  O  O53  1  0.20843212  0.57785400  0.86869502  1
  O  O54  1  0.08275976  0.36007358  0.53464007  1
  O  O55  1  0.91724024  0.63992642  0.46535993  1
  O  O56  1  0.22840840  0.69091657  0.17257337  1
  O  O57  1  0.77159160  0.30908343  0.82742663  1
  O  O58  1  0.21025698  0.06738597  0.18924358  1
  O  O59  1  0.78974302  0.93261403  0.81075642  1
  O  O60  1  0.45604570  0.01885134  0.65297308  1
  O  O61  1  0.54395430  0.98114866  0.34702692  1
  O  O62  1  0.18061692  0.26999196  0.39462327  1
  O  O63  1  0.81938308  0.73000804  0.60537673  1
  O  O64  1  0.21784326  0.88366965  0.38768376  1
  O  O65  1  0.78215674  0.11633035  0.61231624  1
  O  O66  1  0.18380271  0.03694905  0.47149203  1
  O  O67  1  0.81619729  0.96305095  0.52850797  1
  O  O68  1  0.19934687  0.48651397  0.34921403  1
  O  O69  1  0.80065313  0.51348603  0.65078597  1
  O  O70  1  0.02261646  0.57161623  0.62255366  1
  O  O71  1  0.97738354  0.42838377  0.37744634  1
  O  O72  1  0.32948486  0.21886364  0.05740636  1
  O  O73  1  0.67051514  0.78113636  0.94259364  1
  O  O74  1  0.47464919  0.71562728  0.07331558  1
  O  O75  1  0.52535081  0.28437272  0.92668442  1
  O  O76  1  0.36911893  0.33916767  0.37430429  1
  O  O77  1  0.63088107  0.66083233  0.62569571  1
  O  O78  1  0.03683710  0.63017126  0.76014374  1
  O  O79  1  0.96316290  0.36982874  0.23985626  1
loop_
_geom_bond_atom_site_label_1
_geom_bond_atom_site_label_2
_geom_bond_distance
_geom_bond_site_symmetry_2
Mo0 O56 1.707016 1_555
Mo0 O68 1.917171 1_555
Mo0 O20 1.926991 1_555
Mo0 O50 1.966717 1_555
Mo0 O2 1.971741 1_555
Mo1 O57 1.707016 1_555
Mo1 O69 1.917171 1_555
Mo1 O21 1.926991 1_555
Mo1 O51 1.966717 1_555
Mo1 O3 1.971741 1_555
Mo2 O75 1.708574 1_554
Mo2 O72 1.923128 1_555
Mo2 O42 1.925423 1_555
Mo2 O49 1.952788 1_555
Mo2 O4 1.969810 1_555
Mo3 O74 1.708574 1_556
Mo3 O73 1.923128 1_555
Mo3 O43 1.925423 1_555
Mo3 O48 1.952788 1_555
Mo3 O5 1.969810 1_555
Mo4 O6 1.709948 1_554
Mo4 O40 1.915841 1_555
Mo4 O0 1.922610 1_555
Mo4 O72 1.965327 1_555
Mo4 O58 1.971368 1_555
Mo5 O7 1.709948 1_556
Mo5 O41 1.915841 1_555
Mo5 O1 1.922610 1_555
Mo5 O73 1.965327 1_555
Mo5 O59 1.971368 1_555
Mo6 O38 1.704287 1_555
Mo6 O70 1.911805 1_555
Mo6 O55 1.926975 1_455
Mo6 O14 1.960294 1_555
Mo6 O29 1.981345 1_455
Mo7 O39 1.704287 1_555
Mo7 O71 1.911805 1_555
Mo7 O54 1.926975 1_655
Mo7 O15 1.960294 1_555
Mo7 O28 1.981345 1_655
Mo8 O64 1.707008 1_545
Mo8 O30 1.908869 1_555
Mo8 O58 1.934906 1_555
Mo8 O66 1.954191 1_555
Mo8 O36 1.978350 1_555
Mo9 O65 1.707008 1_565
Mo9 O31 1.908869 1_555
Mo9 O59 1.934906 1_555
Mo9 O67 1.954191 1_555
Mo9 O37 1.978350 1_555
Mo10 O52 1.703040 1_556
Mo10 O48 1.919441 1_555
Mo10 O3 1.928693 1_555
Mo10 O41 1.961727 1_555
Mo10 O13 1.969437 1_555
Mo11 O53 1.703040 1_554
Mo11 O49 1.919441 1_555
Mo11 O2 1.928693 1_555
Mo11 O40 1.961727 1_555
Mo11 O12 1.969437 1_555
Mo12 O61 1.707313 1_545
Mo12 O24 1.908224 1_555
Mo12 O32 1.921854 1_555
Mo12 O30 1.967656 1_555
Mo12 O42 1.982152 1_555
Mo12 O26 2.470146 1_555
Mo13 O60 1.707313 1_565
Mo13 O25 1.908224 1_555
Mo13 O33 1.921854 1_555
Mo13 O31 1.967656 1_555
Mo13 O43 1.982152 1_555
Mo13 O27 2.470146 1_555
Mo14 O34 1.706324 1_555
Mo14 O78 1.898512 1_555
Mo14 O13 1.929416 1_455
Mo14 O70 1.960392 1_555
Mo14 O21 1.989460 1_455
Mo15 O35 1.706324 1_555
Mo15 O79 1.898512 1_555
Mo15 O12 1.929416 1_655
Mo15 O71 1.960392 1_555
Mo15 O20 1.989460 1_655
Mo16 O44 1.705694 1_555
Mo16 O50 1.910744 1_555
Mo16 O4 1.925015 1_555
Mo16 O76 1.964917 1_555
Mo16 O32 1.981539 1_555
Mo17 O45 1.705694 1_555
Mo17 O51 1.910744 1_555
Mo17 O5 1.925015 1_555
Mo17 O77 1.964917 1_555
Mo17 O33 1.981539 1_555
Mo18 O9 1.706359 1_545
Mo18 O66 1.918588 1_555
Mo18 O28 1.920235 1_555
Mo18 O24 1.965898 1_555
Mo18 O16 1.978650 1_555
Mo18 O62 2.470162 1_555
Mo19 O8 1.706359 1_565
Mo19 O67 1.918588 1_555
Mo19 O29 1.920235 1_555
Mo19 O25 1.965898 1_555
Mo19 O17 1.978650 1_555
Mo19 O63 2.470162 1_555
Mo20 O18 1.708561 1_555
Mo20 O76 1.917378 1_555
Mo20 O16 1.921657 1_555
Mo20 O68 1.965054 1_555
Mo20 O54 1.973523 1_555
Mo21 O19 1.708561 1_555
Mo21 O77 1.917378 1_555
Mo21 O17 1.921657 1_555
Mo21 O69 1.965054 1_555
Mo21 O55 1.973523 1_555
Mo22 O10 1.704689 1_555
Mo22 O15 1.906251 1_555
Mo22 O36 1.920720 1_655
Mo22 O79 1.972105 1_555
Mo22 O0 1.979305 1_655
Mo23 O11 1.704689 1_555
Mo23 O14 1.906251 1_555
Mo23 O37 1.920720 1_455
Mo23 O78 1.972105 1_555
Mo23 O1 1.979305 1_455
O22 P0 1.549145 1_555
O23 P1 1.549145 1_555
O26 P0 1.550009 1_555
O27 P1 1.550009 1_555
O46 P0 1.546600 1_555
O47 P1 1.546600 1_555
O62 P0 1.548844 1_555
O63 P1 1.548844 1_555
