# generated using pymatgen
data_InCuTe2
_symmetry_space_group_name_H-M   'P 1'
_cell_length_a   4.19910700
_cell_length_b   4.19910700
_cell_length_c   5.87082000
_cell_angle_alpha   90.00000000
_cell_angle_beta   90.00000000
_cell_angle_gamma   90.00000000
_symmetry_Int_Tables_number   1
_chemical_formula_structural   InCuTe2
_chemical_formula_sum   'In1 Cu1 Te2'
_cell_volume   103.51723129
_cell_formula_units_Z   1
loop_
 _symmetry_equiv_pos_site_id
 _symmetry_equiv_pos_as_xyz
  1  'x, y, z'
loop_
 _atom_site_type_symbol
 _atom_site_label
 _atom_site_symmetry_multiplicity
 _atom_site_fract_x
 _atom_site_fract_y
 _atom_site_fract_z
 _atom_site_occupancy
  In  In0  1  0.50000000  0.50000000  0.50000000  1
  Cu  Cu0  1  0.00000000  0.00000000  0.00000000  1
  Te  Te0  1  0.00000000  0.00000000  0.50000000  1
  Te  Te1  1  0.50000000  0.50000000  0.00000000  1
loop_
_geom_bond_atom_site_label_1
_geom_bond_atom_site_label_2
_geom_bond_distance
_geom_bond_site_symmetry_2
In0 Te1 2.935410 1_556
In0 Te1 2.935410 1_555
In0 Te0 2.969217 1_565
In0 Te0 2.969217 1_655
In0 Te0 2.969217 1_665
In0 Te0 2.969217 1_555
Cu0 Te0 2.935410 1_554
Cu0 Te0 2.935410 1_555
Cu0 Te1 2.969217 1_455
Cu0 Te1 2.969217 1_445
Cu0 Te1 2.969217 1_545
Cu0 Te1 2.969217 1_555
