# generated using pymatgen
data_Sm(Re2Si)2
_symmetry_space_group_name_H-M   'P 1'
_cell_length_a   7.41300866
_cell_length_b   7.41300866
_cell_length_c   4.13419648
_cell_angle_alpha   90.00000000
_cell_angle_beta   90.00000000
_cell_angle_gamma   90.00000000
_symmetry_Int_Tables_number   1
_chemical_formula_structural   Sm(Re2Si)2
_chemical_formula_sum   'Sm2 Re8 Si4'
_cell_volume   227.18524813
_cell_formula_units_Z   2
loop_
 _symmetry_equiv_pos_site_id
 _symmetry_equiv_pos_as_xyz
  1  'x, y, z'
loop_
 _atom_site_type_symbol
 _atom_site_label
 _atom_site_symmetry_multiplicity
 _atom_site_fract_x
 _atom_site_fract_y
 _atom_site_fract_z
 _atom_site_occupancy
  Sm  Sm0  1  0.50000000  0.50000000  -0.00000000  1
  Sm  Sm1  1  0.00000000  0.00000000  0.50000000  1
  Re  Re0  1  0.59280951  0.15750115  0.50000000  1
  Re  Re1  1  0.40719049  0.84249885  0.50000000  1
  Re  Re2  1  0.09280951  0.34249885  0.00000000  1
  Re  Re3  1  0.90719049  0.65750115  0.00000000  1
  Re  Re4  1  0.15750115  0.59280951  0.50000000  1
  Re  Re5  1  0.84249885  0.40719049  0.50000000  1
  Re  Re6  1  0.34249885  0.09280951  -0.00000000  1
  Re  Re7  1  0.65750115  0.90719049  -0.00000000  1
  Si  Si0  1  0.70998315  0.70998315  0.50000000  1
  Si  Si1  1  0.29001685  0.29001685  0.50000000  1
  Si  Si2  1  0.20998315  0.79001685  -0.00000000  1
  Si  Si3  1  0.79001685  0.20998315  -0.00000000  1
loop_
_geom_bond_atom_site_label_1
_geom_bond_atom_site_label_2
_geom_bond_distance
_geom_bond_site_symmetry_2
Re0 Si1 2.450151 1_555
Re0 Si3 2.561524 1_556
Re0 Si3 2.561524 1_555
Re0 Re5 2.617638 1_555
Re0 Re1 2.710373 1_545
Re0 Re7 2.818857 1_545
Re0 Re7 2.818857 1_546
Re0 Re6 2.818857 1_555
Re0 Re6 2.818857 1_556
Re0 Sm1 3.236444 1_655
Re0 Sm0 3.345518 1_556
Re0 Sm0 3.345518 1_555
Re1 Si0 2.450151 1_555
Re1 Si2 2.561524 1_555
Re1 Si2 2.561524 1_556
Re1 Re4 2.617638 1_555
Re1 Re7 2.818857 1_556
Re1 Re7 2.818857 1_555
Re1 Re6 2.818857 1_565
Re1 Re6 2.818857 1_566
Re1 Sm1 3.236444 1_565
Re1 Sm0 3.345518 1_556
Re1 Sm0 3.345518 1_555
Re2 Si3 2.450151 1_455
Re2 Si1 2.561524 1_554
Re2 Si1 2.561524 1_555
Re2 Re6 2.617638 1_555
Re2 Re3 2.710373 1_455
Re2 Re5 2.818857 1_455
Re2 Re5 2.818857 1_454
Re2 Re4 2.818857 1_555
Re2 Re4 2.818857 1_554
Re2 Sm0 3.236444 1_555
Re2 Sm1 3.345518 1_554
Re2 Sm1 3.345518 1_555
Re3 Si2 2.450151 1_655
Re3 Si0 2.561524 1_555
Re3 Si0 2.561524 1_554
Re3 Re7 2.617638 1_555
Re3 Re5 2.818857 1_554
Re3 Re5 2.818857 1_555
Re3 Re4 2.818857 1_654
Re3 Re4 2.818857 1_655
Re3 Sm0 3.236444 1_555
Re3 Sm1 3.345518 1_664
Re3 Sm1 3.345518 1_665
Re4 Si1 2.450151 1_555
Re4 Si2 2.561524 1_556
Re4 Si2 2.561524 1_555
Re4 Re5 2.710373 1_455
Re4 Sm1 3.236444 1_565
Re4 Sm0 3.345518 1_556
Re4 Sm0 3.345518 1_555
Re5 Si0 2.450151 1_555
Re5 Si3 2.561524 1_556
Re5 Si3 2.561524 1_555
Re5 Sm1 3.236444 1_655
Re5 Sm0 3.345518 1_556
Re5 Sm0 3.345518 1_555
Re6 Si2 2.450151 1_545
Re6 Si1 2.561524 1_554
Re6 Si1 2.561524 1_555
Re6 Re7 2.710373 1_545
Re6 Sm0 3.236444 1_555
Re6 Sm1 3.345518 1_554
Re6 Sm1 3.345518 1_555
Re7 Si3 2.450151 1_565
Re7 Si0 2.561524 1_555
Re7 Si0 2.561524 1_554
Re7 Sm0 3.236444 1_555
Re7 Sm1 3.345518 1_665
Re7 Sm1 3.345518 1_664
Si0 Sm0 3.019759 1_556
Si0 Sm0 3.019759 1_555
Si0 Sm1 3.040414 1_665
Si1 Sm0 3.019759 1_556
Si1 Sm0 3.019759 1_555
Si1 Sm1 3.040414 1_555
Si2 Sm1 3.019759 1_565
Si2 Sm1 3.019759 1_564
Si2 Sm0 3.040414 1_555
Si3 Sm1 3.019759 1_655
Si3 Sm1 3.019759 1_654
Si3 Sm0 3.040414 1_555
