# generated using pymatgen
data_Na3Eu9B8O27
_symmetry_space_group_name_H-M   'P 1'
_cell_length_a   8.47210571
_cell_length_b   8.80928115
_cell_length_c   8.80928115
_cell_angle_alpha   120.00000009
_cell_angle_beta   90.00000000
_cell_angle_gamma   90.00000000
_symmetry_Int_Tables_number   1
_chemical_formula_structural   Na3Eu9B8O27
_chemical_formula_sum   'Na3 Eu9 B8 O27'
_cell_volume   569.38095840
_cell_formula_units_Z   1
loop_
 _symmetry_equiv_pos_site_id
 _symmetry_equiv_pos_as_xyz
  1  'x, y, z'
loop_
 _atom_site_type_symbol
 _atom_site_label
 _atom_site_symmetry_multiplicity
 _atom_site_fract_x
 _atom_site_fract_y
 _atom_site_fract_z
 _atom_site_occupancy
  Na  Na0  1  -0.00000000  0.66456542  0.66456542  1
  Na  Na1  1  -0.00000000  0.00000000  0.33543458  1
  Na  Na2  1  -0.00000000  0.33543458  0.00000000  1
  Eu  Eu0  1  0.76295657  0.34861656  0.34861656  1
  Eu  Eu1  1  0.76295657  -0.00000000  0.65138344  1
  Eu  Eu2  1  0.23704343  0.34861656  0.34861656  1
  Eu  Eu3  1  0.23704343  -0.00000000  0.65138344  1
  Eu  Eu4  1  0.76295657  0.65138344  -0.00000000  1
  Eu  Eu5  1  0.23704343  0.65138344  -0.00000000  1
  Eu  Eu6  1  0.50000000  0.71869146  0.71869146  1
  Eu  Eu7  1  0.50000000  0.00000000  0.28130854  1
  Eu  Eu8  1  0.50000000  0.28130854  0.00000000  1
  B  B0  1  0.79017303  0.00000000  -0.00000000  1
  B  B1  1  0.20982697  0.00000000  -0.00000000  1
  B  B2  1  -0.00000000  0.66666700  0.33333300  1
  B  B3  1  -0.00000000  0.33333300  0.66666700  1
  B  B4  1  0.67483199  0.66666700  0.33333300  1
  B  B5  1  0.32516801  0.66666700  0.33333300  1
  B  B6  1  0.32516801  0.33333300  0.66666700  1
  B  B7  1  0.67483199  0.33333300  0.66666700  1
  O  O0  1  0.68102914  0.82258850  0.33388976  1
  O  O1  1  0.68102914  0.51130126  0.17741150  1
  O  O2  1  0.31897086  0.82258850  0.33388976  1
  O  O3  1  0.31897086  0.48869874  0.66611024  1
  O  O4  1  0.68102914  0.66611024  0.48869874  1
  O  O5  1  0.31897086  0.51130126  0.17741150  1
  O  O6  1  0.31897086  0.33388976  0.82258850  1
  O  O7  1  0.68102914  0.48869874  0.66611024  1
  O  O8  1  0.31897086  0.66611024  0.48869874  1
  O  O9  1  0.68102914  0.33388976  0.82258850  1
  O  O10  1  0.31897086  0.17741150  0.51130126  1
  O  O11  1  0.68102914  0.17741150  0.51130126  1
  O  O12  1  -0.00000000  0.67783282  0.18120355  1
  O  O13  1  -0.00000000  0.50337073  0.32216718  1
  O  O14  1  -0.00000000  0.49662927  0.81879645  1
  O  O15  1  -0.00000000  0.81879645  0.49662927  1
  O  O16  1  -0.00000000  0.18120355  0.67783282  1
  O  O17  1  -0.00000000  0.32216718  0.50337073  1
  O  O18  1  0.50000000  0.25413152  0.25413152  1
  O  O19  1  0.50000000  1.00000000  0.74586848  1
  O  O20  1  0.50000000  0.74586848  1.00000000  1
  O  O21  1  0.78792952  0.84334236  0.84334236  1
  O  O22  1  0.78792952  1.00000000  0.15665764  1
  O  O23  1  0.21207048  0.84334236  0.84334236  1
  O  O24  1  0.21207048  1.00000000  0.15665764  1
  O  O25  1  0.78792952  0.15665764  1.00000000  1
  O  O26  1  0.21207048  0.15665764  1.00000000  1
loop_
_geom_bond_atom_site_label_1
_geom_bond_atom_site_label_2
_geom_bond_distance
_geom_bond_site_symmetry_2
Na0 O21 2.389220 1_455
Na0 O23 2.389220 1_555
Na0 O15 2.458574 1_555
Na0 O14 2.458574 1_555
Na0 O17 2.613663 1_555
Na0 O13 2.613663 1_555
Na1 O22 2.389220 1_445
Na1 O24 2.389220 1_545
Na1 O17 2.458574 1_555
Na1 O12 2.458574 1_545
Na1 O16 2.613663 1_555
Na1 O15 2.613663 1_545
Na2 O25 2.389220 1_454
Na2 O26 2.389220 1_554
Na2 O13 2.458574 1_555
Na2 O16 2.458574 1_554
Na2 O12 2.613663 1_555
Na2 O14 2.613663 1_554
Eu0 O18 2.378208 1_555
Eu0 O13 2.502707 1_655
Eu0 O17 2.502707 1_655
Eu0 O7 2.525026 1_555
Eu0 O4 2.525026 1_555
Eu0 O11 2.640406 1_555
Eu0 O1 2.640406 1_555
Eu0 O25 2.672546 1_554
Eu0 O22 2.672546 1_545
Eu1 O19 2.378208 1_545
Eu1 O15 2.502707 1_645
Eu1 O16 2.502707 1_655
Eu1 O0 2.525026 1_545
Eu1 O11 2.525026 1_555
Eu1 O9 2.640406 1_555
Eu1 O4 2.640406 1_545
Eu1 O25 2.672546 1_555
Eu1 O21 2.672546 1_545
Eu2 O18 2.378208 1_555
Eu2 O13 2.502707 1_555
Eu2 O17 2.502707 1_555
Eu2 O3 2.525026 1_555
Eu2 O8 2.525026 1_555
Eu2 O10 2.640406 1_555
Eu2 O5 2.640406 1_555
Eu2 O24 2.672546 1_545
Eu2 O26 2.672546 1_554
Eu3 O19 2.378208 1_545
Eu3 O15 2.502707 1_545
Eu3 O16 2.502707 1_555
Eu3 O2 2.525026 1_545
Eu3 O10 2.525026 1_555
Eu3 O6 2.640406 1_555
Eu3 O8 2.640406 1_545
Eu3 O26 2.672546 1_555
Eu3 O23 2.672546 1_545
Eu4 O20 2.378208 1_554
Eu4 O14 2.502707 1_654
Eu4 O12 2.502707 1_655
Eu4 O9 2.525026 1_554
Eu4 O1 2.525026 1_555
Eu4 O0 2.640406 1_555
Eu4 O7 2.640406 1_554
Eu4 O22 2.672546 1_555
Eu4 O21 2.672546 1_554
Eu5 O20 2.378208 1_554
Eu5 O14 2.502707 1_554
Eu5 O12 2.502707 1_555
Eu5 O6 2.525026 1_554
Eu5 O5 2.525026 1_555
Eu5 O2 2.640406 1_555
Eu5 O3 2.640406 1_554
Eu5 O24 2.672546 1_555
Eu5 O23 2.672546 1_554
Eu6 O20 2.367517 1_555
Eu6 O19 2.367517 1_555
Eu6 O3 2.394424 1_555
Eu6 O8 2.394424 1_555
Eu6 O7 2.394424 1_555
Eu6 O4 2.394424 1_555
Eu6 O23 2.675129 1_555
Eu6 O21 2.675129 1_555
Eu7 O20 2.367517 1_544
Eu7 O18 2.367517 1_555
Eu7 O10 2.394424 1_555
Eu7 O11 2.394424 1_555
Eu7 O2 2.394424 1_545
Eu7 O0 2.394424 1_545
Eu7 O24 2.675129 1_545
Eu7 O22 2.675129 1_545
Eu8 O19 2.367517 1_544
Eu8 O18 2.367517 1_555
Eu8 O1 2.394424 1_555
Eu8 O5 2.394424 1_555
Eu8 O6 2.394424 1_554
Eu8 O9 2.394424 1_554
Eu8 O26 2.675129 1_554
Eu8 O25 2.675129 1_554
B0 O21 1.380172 1_544
B0 O22 1.380172 1_545
B0 O25 1.380172 1_554
B1 O23 1.380172 1_544
B1 O26 1.380172 1_554
B1 O24 1.380172 1_545
B2 O12 1.391942 1_555
B2 O15 1.391946 1_555
B2 O13 1.391950 1_555
B3 O16 1.391942 1_555
B3 O14 1.391946 1_555
B3 O17 1.391950 1_555
B4 O0 1.372115 1_555
B4 O1 1.372120 1_555
B4 O4 1.372124 1_555
B5 O2 1.372115 1_555
B5 O5 1.372120 1_555
B5 O8 1.372124 1_555
B6 O6 1.372115 1_555
B6 O10 1.372120 1_555
B6 O3 1.372124 1_555
B7 O9 1.372115 1_555
B7 O11 1.372120 1_555
B7 O7 1.372124 1_555
