# generated using pymatgen
data_Tc3Pd
_symmetry_space_group_name_H-M   'P 1'
_cell_length_a   18.41998376
_cell_length_b   18.41998376
_cell_length_c   18.41998296
_cell_angle_alpha   17.12397135
_cell_angle_beta   17.12397135
_cell_angle_gamma   17.12397009
_symmetry_Int_Tables_number   1
_chemical_formula_structural   Tc3Pd
_chemical_formula_sum   'Tc24 Pd8'
_cell_volume   472.72954275
_cell_formula_units_Z   8
loop_
 _symmetry_equiv_pos_site_id
 _symmetry_equiv_pos_as_xyz
  1  'x, y, z'
loop_
 _atom_site_type_symbol
 _atom_site_label
 _atom_site_symmetry_multiplicity
 _atom_site_fract_x
 _atom_site_fract_y
 _atom_site_fract_z
 _atom_site_occupancy
  Tc  Tc0_0  1  0.12395200  0.12395200  0.12395200  1
  Tc  Tc0_1  1  0.12395200  0.12395200  0.62395200  1
  Tc  Tc0_2  1  0.12395200  0.62395200  0.12395200  1
  Tc  Tc0_3  1  0.12395200  0.62395200  0.62395200  1
  Tc  Tc0_4  1  0.62395200  0.12395200  0.12395200  1
  Tc  Tc0_5  1  0.62395200  0.12395200  0.62395200  1
  Tc  Tc0_6  1  0.62395200  0.62395200  0.12395200  1
  Tc  Tc0_7  1  0.62395200  0.62395200  0.62395200  1
  Tc  Tc1_0  1  0.25000000  0.25000000  0.25000000  1
  Tc  Tc1_1  1  0.25000000  0.25000000  0.75000000  1
  Tc  Tc1_2  1  0.25000000  0.75000000  0.25000000  1
  Tc  Tc1_3  1  0.25000000  0.75000000  0.75000000  1
  Tc  Tc1_4  1  0.75000000  0.25000000  0.25000000  1
  Tc  Tc1_5  1  0.75000000  0.25000000  0.75000000  1
  Tc  Tc1_6  1  0.75000000  0.75000000  0.25000000  1
  Tc  Tc1_7  1  0.75000000  0.75000000  0.75000000  1
  Tc  Tc2_0  1  0.37604800  0.37604800  0.37604800  1
  Tc  Tc2_1  1  0.37604800  0.37604800  0.87604800  1
  Tc  Tc2_2  1  0.37604800  0.87604800  0.37604800  1
  Tc  Tc2_3  1  0.37604800  0.87604800  0.87604800  1
  Tc  Tc2_4  1  0.87604800  0.37604800  0.37604800  1
  Tc  Tc2_5  1  0.87604800  0.37604800  0.87604800  1
  Tc  Tc2_6  1  0.87604800  0.87604800  0.37604800  1
  Tc  Tc2_7  1  0.87604800  0.87604800  0.87604800  1
  Pd  Pd0_0  1  0.00000000  0.00000000  0.00000000  1
  Pd  Pd0_1  1  0.00000000  0.00000000  0.50000000  1
  Pd  Pd0_2  1  0.00000000  0.50000000  0.00000000  1
  Pd  Pd0_3  1  0.00000000  0.50000000  0.50000000  1
  Pd  Pd0_4  1  0.50000000  0.00000000  0.00000000  1
  Pd  Pd0_5  1  0.50000000  0.00000000  0.50000000  1
  Pd  Pd0_6  1  0.50000000  0.50000000  0.00000000  1
  Pd  Pd0_7  1  0.50000000  0.50000000  0.50000000  1
loop_
_geom_bond_atom_site_label_1
_geom_bond_atom_site_label_2
_geom_bond_distance
_geom_bond_site_symmetry_2
Tc0_0 Tc1_1 2.719578 1_554
Tc0_0 Tc1_4 2.719578 1_455
Tc0_0 Tc1_2 2.719578 1_545
Tc0_0 Tc0_6 2.742354 1_545
Tc0_0 Tc0_6 2.742354 1_455
Tc0_0 Tc0_5 2.742354 1_455
Tc0_0 Tc0_3 2.742354 1_545
Tc0_0 Tc0_3 2.742354 1_554
Tc0_0 Tc0_5 2.742354 1_554
Tc0_1 Tc1_0 2.719578 1_555
Tc0_1 Tc1_3 2.719578 1_545
Tc0_1 Tc1_5 2.719578 1_455
Tc0_1 Tc0_7 2.742354 1_545
Tc0_1 Tc0_7 2.742354 1_455
Tc0_1 Tc0_4 2.742354 1_555
Tc0_1 Tc0_2 2.742354 1_555
Tc0_1 Tc0_4 2.742354 1_456
Tc0_1 Tc0_2 2.742354 1_546
Tc0_2 Tc1_3 2.719578 1_554
Tc0_2 Tc1_0 2.719578 1_555
Tc0_2 Tc1_6 2.719578 1_455
Tc0_2 Tc0_4 2.742354 1_465
Tc0_2 Tc0_4 2.742354 1_555
Tc0_2 Tc0_7 2.742354 1_455
Tc0_2 Tc0_7 2.742354 1_554
Tc0_3 Tc1_2 2.719578 1_555
Tc0_3 Tc1_1 2.719578 1_555
Tc0_3 Tc1_7 2.719578 1_455
Tc0_3 Tc0_5 2.742354 1_555
Tc0_3 Tc0_5 2.742354 1_465
Tc0_3 Tc0_6 2.742354 1_555
Tc0_3 Tc0_6 2.742354 1_456
Tc0_4 Tc1_5 2.719578 1_554
Tc0_4 Tc1_0 2.719578 1_555
Tc0_4 Tc1_6 2.719578 1_545
Tc0_4 Tc0_7 2.742354 1_545
Tc0_4 Tc0_7 2.742354 1_554
Tc0_5 Tc1_4 2.719578 1_555
Tc0_5 Tc1_1 2.719578 1_555
Tc0_5 Tc1_7 2.719578 1_545
Tc0_5 Tc0_6 2.742354 1_555
Tc0_5 Tc0_6 2.742354 1_546
Tc0_6 Tc1_7 2.719578 1_554
Tc0_6 Tc1_2 2.719578 1_555
Tc0_6 Tc1_4 2.719578 1_555
Tc0_7 Tc1_6 2.719578 1_555
Tc0_7 Tc1_3 2.719578 1_555
Tc0_7 Tc1_5 2.719578 1_555
Tc1_0 Tc2_1 2.719578 1_554
Tc1_0 Tc2_2 2.719578 1_545
Tc1_0 Tc2_4 2.719578 1_455
Tc1_0 Tc1_6 2.742354 1_545
Tc1_0 Tc1_6 2.742354 1_455
Tc1_0 Tc1_5 2.742354 1_554
Tc1_0 Tc1_3 2.742354 1_545
Tc1_0 Tc1_3 2.742354 1_554
Tc1_0 Tc1_5 2.742354 1_455
Tc1_1 Tc2_0 2.719578 1_555
Tc1_1 Tc2_3 2.719578 1_545
Tc1_1 Tc2_5 2.719578 1_455
Tc1_1 Tc1_7 2.742354 1_455
Tc1_1 Tc1_7 2.742354 1_545
Tc1_1 Tc1_2 2.742354 1_555
Tc1_1 Tc1_4 2.742354 1_555
Tc1_1 Tc1_4 2.742354 1_456
Tc1_1 Tc1_2 2.742354 1_546
Tc1_2 Tc2_3 2.719578 1_554
Tc1_2 Tc2_6 2.719578 1_455
Tc1_2 Tc2_0 2.719578 1_555
Tc1_2 Tc1_4 2.742354 1_555
Tc1_2 Tc1_4 2.742354 1_465
Tc1_2 Tc1_7 2.742354 1_554
Tc1_2 Tc1_7 2.742354 1_455
Tc1_3 Tc2_2 2.719578 1_555
Tc1_3 Tc2_1 2.719578 1_555
Tc1_3 Tc2_7 2.719578 1_455
Tc1_3 Tc1_5 2.742354 1_555
Tc1_3 Tc1_5 2.742354 1_465
Tc1_3 Tc1_6 2.742354 1_456
Tc1_3 Tc1_6 2.742354 1_555
Tc1_4 Tc2_5 2.719578 1_554
Tc1_4 Tc2_6 2.719578 1_545
Tc1_4 Tc2_0 2.719578 1_555
Tc1_4 Tc1_7 2.742354 1_554
Tc1_4 Tc1_7 2.742354 1_545
Tc1_5 Tc2_4 2.719578 1_555
Tc1_5 Tc2_1 2.719578 1_555
Tc1_5 Tc2_7 2.719578 1_545
Tc1_5 Tc1_6 2.742354 1_555
Tc1_5 Tc1_6 2.742354 1_546
Tc1_6 Tc2_7 2.719578 1_554
Tc1_6 Tc2_2 2.719578 1_555
Tc1_6 Tc2_4 2.719578 1_555
Tc1_7 Tc2_6 2.719578 1_555
Tc1_7 Tc2_3 2.719578 1_555
Tc1_7 Tc2_5 2.719578 1_555
Tc2_0 Tc2_6 2.742354 1_455
Tc2_0 Tc2_6 2.742354 1_545
Tc2_0 Tc2_3 2.742354 1_545
Tc2_0 Tc2_5 2.742354 1_554
Tc2_0 Tc2_5 2.742354 1_455
Tc2_0 Tc2_3 2.742354 1_554
Tc2_1 Tc2_7 2.742354 1_545
Tc2_1 Tc2_7 2.742354 1_455
Tc2_1 Tc2_4 2.742354 1_555
Tc2_1 Tc2_2 2.742354 1_555
Tc2_1 Tc2_2 2.742354 1_546
Tc2_1 Tc2_4 2.742354 1_456
Tc2_2 Tc2_4 2.742354 1_555
Tc2_2 Tc2_4 2.742354 1_465
Tc2_2 Tc2_7 2.742354 1_455
Tc2_2 Tc2_7 2.742354 1_554
Tc2_3 Tc2_5 2.742354 1_555
Tc2_3 Tc2_5 2.742354 1_465
Tc2_3 Tc2_6 2.742354 1_456
Tc2_3 Tc2_6 2.742354 1_555
Tc2_4 Tc2_7 2.742354 1_545
Tc2_4 Tc2_7 2.742354 1_554
Tc2_5 Tc2_6 2.742354 1_555
Tc2_5 Tc2_6 2.742354 1_546
Pd0_0 Pd0_6 2.742354 1_545
Pd0_0 Pd0_6 2.742354 1_455
Pd0_0 Pd0_5 2.742354 1_554
Pd0_0 Pd0_3 2.742354 1_554
Pd0_0 Pd0_3 2.742354 1_545
Pd0_0 Pd0_5 2.742354 1_455
Pd0_0 Tc2_6 2.813132 1_445
Pd0_0 Tc0_1 2.813132 1_554
Pd0_0 Tc2_5 2.813133 1_454
Pd0_0 Tc0_2 2.813133 1_545
Pd0_0 Tc2_3 2.813133 1_544
Pd0_0 Tc0_4 2.813133 1_455
Pd0_1 Pd0_7 2.742354 1_455
Pd0_1 Pd0_7 2.742354 1_545
Pd0_1 Pd0_2 2.742354 1_555
Pd0_1 Pd0_4 2.742354 1_456
Pd0_1 Pd0_2 2.742354 1_546
Pd0_1 Pd0_4 2.742354 1_555
Pd0_1 Tc2_7 2.813132 1_445
Pd0_1 Tc0_0 2.813132 1_555
Pd0_1 Tc2_4 2.813133 1_455
Pd0_1 Tc2_2 2.813133 1_545
Pd0_1 Tc0_5 2.813133 1_455
Pd0_1 Tc0_3 2.813133 1_545
Pd0_2 Pd0_4 2.742354 1_555
Pd0_2 Pd0_4 2.742354 1_465
Pd0_2 Pd0_7 2.742354 1_554
Pd0_2 Pd0_7 2.742354 1_455
Pd0_2 Tc2_4 2.813132 1_455
Pd0_2 Tc0_3 2.813132 1_554
Pd0_2 Tc2_7 2.813133 1_454
Pd0_2 Tc2_1 2.813133 1_554
Pd0_2 Tc0_0 2.813133 1_555
Pd0_2 Tc0_6 2.813133 1_455
Pd0_3 Pd0_5 2.742354 1_555
Pd0_3 Pd0_5 2.742354 1_465
Pd0_3 Pd0_6 2.742354 1_555
Pd0_3 Pd0_6 2.742354 1_456
Pd0_3 Tc2_5 2.813132 1_455
Pd0_3 Tc0_2 2.813132 1_555
Pd0_3 Tc2_0 2.813133 1_555
Pd0_3 Tc2_6 2.813133 1_455
Pd0_3 Tc0_1 2.813133 1_555
Pd0_3 Tc0_7 2.813133 1_455
Pd0_4 Pd0_7 2.742354 1_554
Pd0_4 Pd0_7 2.742354 1_545
Pd0_4 Tc2_2 2.813132 1_545
Pd0_4 Tc0_5 2.813132 1_554
Pd0_4 Tc2_7 2.813133 1_544
Pd0_4 Tc2_1 2.813133 1_554
Pd0_4 Tc0_0 2.813133 1_555
Pd0_4 Tc0_6 2.813133 1_545
Pd0_5 Pd0_6 2.742354 1_555
Pd0_5 Pd0_6 2.742354 1_546
Pd0_5 Tc2_3 2.813132 1_545
Pd0_5 Tc0_4 2.813132 1_555
Pd0_5 Tc2_0 2.813133 1_555
Pd0_5 Tc2_6 2.813133 1_545
Pd0_5 Tc0_1 2.813133 1_555
Pd0_5 Tc0_7 2.813133 1_545
Pd0_6 Tc2_0 2.813132 1_555
Pd0_6 Tc0_7 2.813132 1_554
Pd0_6 Tc0_2 2.813133 1_555
Pd0_6 Tc2_5 2.813133 1_554
Pd0_6 Tc0_4 2.813133 1_555
Pd0_6 Tc2_3 2.813133 1_554
Pd0_7 Tc0_6 2.813132 1_555
Pd0_7 Tc2_1 2.813132 1_555
Pd0_7 Tc0_3 2.813133 1_555
Pd0_7 Tc0_5 2.813133 1_555
Pd0_7 Tc2_4 2.813133 1_555
Pd0_7 Tc2_2 2.813133 1_555
