# generated using pymatgen
data_BeAu2
_symmetry_space_group_name_H-M   'P 1'
_cell_length_a   5.83740685
_cell_length_b   5.83740889
_cell_length_c   10.91042591
_cell_angle_alpha   105.51647088
_cell_angle_beta   105.51646192
_cell_angle_gamma   89.99999414
_symmetry_Int_Tables_number   1
_chemical_formula_structural   BeAu2
_chemical_formula_sum   'Be8 Au16'
_cell_volume   344.14347549
_cell_formula_units_Z   8
loop_
 _symmetry_equiv_pos_site_id
 _symmetry_equiv_pos_as_xyz
  1  'x, y, z'
loop_
 _atom_site_type_symbol
 _atom_site_label
 _atom_site_symmetry_multiplicity
 _atom_site_fract_x
 _atom_site_fract_y
 _atom_site_fract_z
 _atom_site_occupancy
  Be  Be0_0  1  0.00000000  0.00000000  0.00000000  1
  Be  Be0_1  1  0.00000000  0.00000000  0.50000000  1
  Be  Be0_2  1  0.00000000  0.50000000  0.00000000  1
  Be  Be0_3  1  0.00000000  0.50000000  0.50000000  1
  Be  Be0_4  1  0.50000000  0.00000000  0.00000000  1
  Be  Be0_5  1  0.50000000  0.00000000  0.50000000  1
  Be  Be0_6  1  0.50000000  0.50000000  0.00000000  1
  Be  Be0_7  1  0.50000000  0.50000000  0.50000000  1
  Au  Au0_0  1  0.17911527  0.17911527  0.35823155  1
  Au  Au0_1  1  0.17911527  0.17911527  0.85823155  1
  Au  Au0_2  1  0.17911527  0.67911528  0.35823155  1
  Au  Au0_3  1  0.17911527  0.67911528  0.85823155  1
  Au  Au0_4  1  0.67911528  0.17911527  0.35823155  1
  Au  Au0_5  1  0.67911528  0.17911527  0.85823155  1
  Au  Au0_6  1  0.67911527  0.67911528  0.35823155  1
  Au  Au0_7  1  0.67911528  0.67911527  0.85823155  1
  Au  Au1_0  1  0.32088472  0.32088472  0.14176845  1
  Au  Au1_1  1  0.32088472  0.32088472  0.64176845  1
  Au  Au1_2  1  0.32088472  0.82088472  0.14176845  1
  Au  Au1_3  1  0.32088473  0.82088472  0.64176845  1
  Au  Au1_4  1  0.82088472  0.32088472  0.14176845  1
  Au  Au1_5  1  0.82088472  0.32088472  0.64176845  1
  Au  Au1_6  1  0.82088472  0.82088472  0.14176845  1
  Au  Au1_7  1  0.82088473  0.82088472  0.64176845  1
loop_
_geom_bond_atom_site_label_1
_geom_bond_atom_site_label_2
_geom_bond_distance
_geom_bond_site_symmetry_2
Au0_0 Be0_1 2.511856 1_555
Au0_0 Be0_3 2.511859 1_555
Au0_0 Be0_5 2.511859 1_555
Au0_0 Be0_7 2.511862 1_555
Au0_0 Au1_1 2.863578 1_555
Au0_0 Au0_4 2.918703 1_455
Au0_0 Au0_4 2.918703 1_555
Au0_0 Au0_2 2.918704 1_545
Au0_0 Au0_2 2.918704 1_555
Au0_0 Au1_6 3.006444 1_445
Au0_0 Au1_2 3.006450 1_545
Au0_0 Au1_4 3.006450 1_455
Au0_0 Au1_0 3.006456 1_555
Au0_1 Be0_0 2.511856 1_556
Au0_1 Be0_2 2.511859 1_556
Au0_1 Be0_4 2.511859 1_556
Au0_1 Be0_6 2.511862 1_556
Au0_1 Au1_0 2.863578 1_556
Au0_1 Au0_5 2.918703 1_455
Au0_1 Au0_5 2.918703 1_555
Au0_1 Au0_3 2.918704 1_555
Au0_1 Au0_3 2.918704 1_545
Au0_1 Au1_7 3.006444 1_445
Au0_1 Au1_3 3.006450 1_545
Au0_1 Au1_5 3.006450 1_455
Au0_1 Au1_1 3.006456 1_555
Au0_2 Be0_3 2.511856 1_555
Au0_2 Be0_1 2.511859 1_565
Au0_2 Be0_7 2.511859 1_555
Au0_2 Be0_5 2.511862 1_565
Au0_2 Au1_3 2.863578 1_555
Au0_2 Au0_6 2.918703 1_555
Au0_2 Au0_6 2.918703 1_455
Au0_2 Au1_4 3.006444 1_455
Au0_2 Au1_0 3.006450 1_555
Au0_2 Au1_6 3.006450 1_455
Au0_2 Au1_2 3.006456 1_555
Au0_3 Be0_2 2.511856 1_556
Au0_3 Be0_0 2.511859 1_566
Au0_3 Be0_6 2.511859 1_556
Au0_3 Be0_4 2.511862 1_566
Au0_3 Au1_2 2.863578 1_556
Au0_3 Au0_7 2.918703 1_455
Au0_3 Au0_7 2.918703 1_555
Au0_3 Au1_5 3.006444 1_455
Au0_3 Au1_1 3.006450 1_555
Au0_3 Au1_7 3.006450 1_455
Au0_3 Au1_3 3.006456 1_555
Au0_4 Be0_5 2.511856 1_555
Au0_4 Be0_7 2.511859 1_555
Au0_4 Be0_1 2.511859 1_655
Au0_4 Be0_3 2.511862 1_655
Au0_4 Au1_5 2.863578 1_555
Au0_4 Au0_6 2.918704 1_555
Au0_4 Au0_6 2.918704 1_545
Au0_4 Au1_2 3.006444 1_545
Au0_4 Au1_6 3.006450 1_545
Au0_4 Au1_0 3.006450 1_555
Au0_4 Au1_4 3.006456 1_555
Au0_5 Be0_4 2.511856 1_556
Au0_5 Be0_6 2.511859 1_556
Au0_5 Be0_0 2.511859 1_656
Au0_5 Be0_2 2.511862 1_656
Au0_5 Au1_4 2.863578 1_556
Au0_5 Au0_7 2.918704 1_555
Au0_5 Au0_7 2.918704 1_545
Au0_5 Au1_3 3.006444 1_545
Au0_5 Au1_7 3.006450 1_545
Au0_5 Au1_1 3.006450 1_555
Au0_5 Au1_5 3.006456 1_555
Au0_6 Be0_7 2.511856 1_555
Au0_6 Be0_5 2.511859 1_565
Au0_6 Be0_3 2.511859 1_655
Au0_6 Be0_1 2.511862 1_665
Au0_6 Au1_7 2.863578 1_555
Au0_6 Au1_0 3.006444 1_555
Au0_6 Au1_4 3.006450 1_555
Au0_6 Au1_2 3.006450 1_555
Au0_6 Au1_6 3.006456 1_555
Au0_7 Be0_6 2.511856 1_556
Au0_7 Be0_4 2.511859 1_566
Au0_7 Be0_2 2.511859 1_656
Au0_7 Be0_0 2.511862 1_666
Au0_7 Au1_6 2.863578 1_556
Au0_7 Au1_1 3.006444 1_555
Au0_7 Au1_5 3.006450 1_555
Au0_7 Au1_3 3.006450 1_555
Au0_7 Au1_7 3.006456 1_555
Au1_0 Be0_6 2.511856 1_555
Au1_0 Be0_4 2.511859 1_555
Au1_0 Be0_2 2.511859 1_555
Au1_0 Be0_0 2.511862 1_555
Au1_0 Au1_4 2.918703 1_455
Au1_0 Au1_4 2.918703 1_555
Au1_0 Au1_2 2.918704 1_555
Au1_0 Au1_2 2.918704 1_545
Au1_1 Be0_7 2.511856 1_555
Au1_1 Be0_5 2.511859 1_555
Au1_1 Be0_3 2.511859 1_555
Au1_1 Be0_1 2.511862 1_555
Au1_1 Au1_5 2.918703 1_555
Au1_1 Au1_5 2.918703 1_455
Au1_1 Au1_3 2.918704 1_555
Au1_1 Au1_3 2.918704 1_545
Au1_2 Be0_4 2.511856 1_565
Au1_2 Be0_6 2.511859 1_555
Au1_2 Be0_0 2.511859 1_565
Au1_2 Be0_2 2.511862 1_555
Au1_2 Au1_6 2.918703 1_455
Au1_2 Au1_6 2.918703 1_555
Au1_3 Be0_5 2.511856 1_565
Au1_3 Be0_7 2.511859 1_555
Au1_3 Be0_1 2.511859 1_565
Au1_3 Be0_3 2.511862 1_555
Au1_3 Au1_7 2.918703 1_455
Au1_3 Au1_7 2.918703 1_555
Au1_4 Be0_2 2.511856 1_655
Au1_4 Be0_0 2.511859 1_655
Au1_4 Be0_6 2.511859 1_555
Au1_4 Be0_4 2.511862 1_555
Au1_4 Au1_6 2.918704 1_545
Au1_4 Au1_6 2.918704 1_555
Au1_5 Be0_3 2.511856 1_655
Au1_5 Be0_1 2.511859 1_655
Au1_5 Be0_7 2.511859 1_555
Au1_5 Be0_5 2.511862 1_555
Au1_5 Au1_7 2.918704 1_555
Au1_5 Au1_7 2.918704 1_545
Au1_6 Be0_0 2.511856 1_665
Au1_6 Be0_2 2.511859 1_655
Au1_6 Be0_4 2.511859 1_565
Au1_6 Be0_6 2.511862 1_555
Au1_7 Be0_1 2.511856 1_665
Au1_7 Be0_3 2.511859 1_655
Au1_7 Be0_5 2.511859 1_565
Au1_7 Be0_7 2.511862 1_555
