# generated using pymatgen
data_BaMg14CdO16
_symmetry_space_group_name_H-M   'P 1'
_cell_length_a   8.79538501
_cell_length_b   8.88352734
_cell_length_c   4.55668240
_cell_angle_alpha   90.00000000
_cell_angle_beta   90.00000000
_cell_angle_gamma   90.00000000
_symmetry_Int_Tables_number   1
_chemical_formula_structural   BaMg14CdO16
_chemical_formula_sum   'Ba1 Mg14 Cd1 O16'
_cell_volume   356.03201950
_cell_formula_units_Z   1
loop_
 _symmetry_equiv_pos_site_id
 _symmetry_equiv_pos_as_xyz
  1  'x, y, z'
loop_
 _atom_site_type_symbol
 _atom_site_label
 _atom_site_symmetry_multiplicity
 _atom_site_fract_x
 _atom_site_fract_y
 _atom_site_fract_z
 _atom_site_occupancy
  Ba  Ba0  1  -0.00000000  0.00000000  -0.00000000  1
  Mg  Mg0  1  0.50000000  0.00000000  -0.00000000  1
  Mg  Mg1  1  0.50000000  0.50000000  -0.00000000  1
  Mg  Mg2  1  -0.00000000  0.26126482  0.50000000  1
  Mg  Mg3  1  -0.00000000  0.73873518  0.50000000  1
  Mg  Mg4  1  0.50000000  0.25212142  0.50000000  1
  Mg  Mg5  1  0.50000000  0.74787858  0.50000000  1
  Mg  Mg6  1  0.26471522  0.00000000  0.50000000  1
  Mg  Mg7  1  0.25699212  0.50000000  0.50000000  1
  Mg  Mg8  1  0.73528478  0.00000000  0.50000000  1
  Mg  Mg9  1  0.74300788  0.50000000  0.50000000  1
  Mg  Mg10  1  0.26257493  0.25712956  0.00000000  1
  Mg  Mg11  1  0.26257493  0.74287044  0.00000000  1
  Mg  Mg12  1  0.73742507  0.25712956  -0.00000000  1
  Mg  Mg13  1  0.73742507  0.74287044  -0.00000000  1
  Cd  Cd0  1  -0.00000000  0.50000000  -0.00000000  1
  O  O0  1  0.28135747  -0.00000000  0.00000000  1
  O  O1  1  0.27133982  0.50000000  -0.00000000  1
  O  O2  1  0.71864253  0.00000000  -0.00000000  1
  O  O3  1  0.72866018  0.50000000  0.00000000  1
  O  O4  1  0.25093266  0.25113379  0.50000000  1
  O  O5  1  0.25093266  0.74886621  0.50000000  1
  O  O6  1  0.74906734  0.25113379  0.50000000  1
  O  O7  1  0.74906734  0.74886621  0.50000000  1
  O  O8  1  -0.00000000  0.00000000  0.50000000  1
  O  O9  1  -0.00000000  0.50000000  0.50000000  1
  O  O10  1  0.50000000  0.00000000  0.50000000  1
  O  O11  1  0.50000000  0.50000000  0.50000000  1
  O  O12  1  -0.00000000  0.26728505  -0.00000000  1
  O  O13  1  -0.00000000  0.73271495  -0.00000000  1
  O  O14  1  0.50000000  0.25428240  -0.00000000  1
  O  O15  1  0.50000000  0.74571760  0.00000000  1
loop_
_geom_bond_atom_site_label_1
_geom_bond_atom_site_label_2
_geom_bond_distance
_geom_bond_site_symmetry_2
Ba0 O8 2.278341 1_555
Ba0 O8 2.278341 1_554
Ba0 O13 2.374434 1_545
Ba0 O12 2.374434 1_555
Ba0 O0 2.474647 1_555
Ba0 O2 2.474647 1_455
Mg0 O0 1.923045 1_555
Mg0 O2 1.923045 1_555
Mg0 O15 2.258925 1_545
Mg0 O14 2.258925 1_555
Mg0 O10 2.278341 1_555
Mg0 O10 2.278341 1_554
Mg1 O3 2.011154 1_555
Mg1 O1 2.011154 1_555
Mg1 O15 2.182839 1_555
Mg1 O14 2.182839 1_555
Mg1 O11 2.278341 1_555
Mg1 O11 2.278341 1_554
Mg2 O9 2.120810 1_555
Mg2 O4 2.208884 1_555
Mg2 O6 2.208884 1_455
Mg2 O12 2.278969 1_555
Mg2 O12 2.278969 1_556
Mg2 O8 2.320953 1_555
Mg3 O9 2.120810 1_555
Mg3 O5 2.208884 1_555
Mg3 O7 2.208884 1_455
Mg3 O13 2.278969 1_555
Mg3 O13 2.278969 1_556
Mg3 O8 2.320953 1_565
Mg4 O6 2.190661 1_555
Mg4 O4 2.190661 1_555
Mg4 O11 2.202036 1_555
Mg4 O10 2.239728 1_555
Mg4 O14 2.278422 1_556
Mg4 O14 2.278422 1_555
Mg5 O7 2.190661 1_555
Mg5 O5 2.190661 1_555
Mg5 O11 2.202036 1_555
Mg5 O10 2.239728 1_565
Mg5 O15 2.278422 1_556
Mg5 O15 2.278422 1_555
Mg6 O10 2.069420 1_555
Mg6 O5 2.234245 1_545
Mg6 O4 2.234245 1_555
Mg6 O0 2.283038 1_555
Mg6 O0 2.283038 1_556
Mg6 O8 2.328272 1_555
Mg7 O11 2.137348 1_555
Mg7 O4 2.211452 1_555
Mg7 O5 2.211452 1_555
Mg7 O9 2.260345 1_555
Mg7 O1 2.281833 1_556
Mg7 O1 2.281833 1_555
Mg8 O10 2.069420 1_555
Mg8 O6 2.234245 1_555
Mg8 O7 2.234245 1_545
Mg8 O2 2.283038 1_556
Mg8 O2 2.283038 1_555
Mg8 O8 2.328272 1_655
Mg9 O11 2.137348 1_555
Mg9 O6 2.211452 1_555
Mg9 O7 2.211452 1_555
Mg9 O9 2.260345 1_655
Mg9 O3 2.281833 1_556
Mg9 O3 2.281833 1_555
Mg10 O14 2.088398 1_555
Mg10 O1 2.158923 1_555
Mg10 O4 2.281263 1_554
Mg10 O4 2.281263 1_555
Mg10 O0 2.290183 1_555
Mg10 O12 2.311209 1_555
Mg11 O15 2.088398 1_555
Mg11 O1 2.158923 1_555
Mg11 O5 2.281263 1_554
Mg11 O5 2.281263 1_555
Mg11 O0 2.290183 1_565
Mg11 O13 2.311209 1_555
Mg12 O14 2.088398 1_555
Mg12 O3 2.158923 1_555
Mg12 O6 2.281263 1_555
Mg12 O6 2.281263 1_554
Mg12 O2 2.290183 1_555
Mg12 O12 2.311209 1_655
Mg13 O15 2.088398 1_555
Mg13 O3 2.158923 1_555
Mg13 O7 2.281263 1_554
Mg13 O7 2.281263 1_555
Mg13 O2 2.290183 1_565
Mg13 O13 2.311209 1_655
Cd0 O12 2.067330 1_555
Cd0 O13 2.067330 1_555
Cd0 O9 2.278341 1_555
Cd0 O9 2.278341 1_554
Cd0 O1 2.386538 1_555
Cd0 O3 2.386538 1_455
