# generated using pymatgen
data_La2CuRhO6
_symmetry_space_group_name_H-M   'P 1'
_cell_length_a   5.84734100
_cell_length_b   5.61447500
_cell_length_c   9.59823847
_cell_angle_alpha   54.42418732
_cell_angle_beta   90.00000000
_cell_angle_gamma   90.00000000
_symmetry_Int_Tables_number   1
_chemical_formula_structural   La2CuRhO6
_chemical_formula_sum   'La4 Cu2 Rh2 O12'
_cell_volume   256.29177843
_cell_formula_units_Z   2
loop_
 _symmetry_equiv_pos_site_id
 _symmetry_equiv_pos_as_xyz
  1  'x, y, z'
loop_
 _atom_site_type_symbol
 _atom_site_label
 _atom_site_symmetry_multiplicity
 _atom_site_fract_x
 _atom_site_fract_y
 _atom_site_fract_z
 _atom_site_occupancy
  La  La0  1  0.93809500  0.76349800  0.75033900  1
  La  La1  1  0.43809500  0.23650200  0.74966100  1
  La  La2  1  0.06190500  0.23650200  0.24966100  1
  La  La3  1  0.56190500  0.76349800  0.25033900  1
  Cu  Cu0  1  0.00000000  0.50000000  0.50000000  1
  Cu  Cu1  1  0.50000000  0.50000000  0.00000000  1
  Rh  Rh0  1  0.00000000  0.00000000  0.00000000  1
  Rh  Rh1  1  0.50000000  0.00000000  0.50000000  1
  O  O0  1  0.79049900  0.85973800  0.44954100  1
  O  O1  1  0.29049900  0.14026200  0.05045900  1
  O  O2  1  0.19502600  0.75259400  0.95137100  1
  O  O3  1  0.69502600  0.24740600  0.54862900  1
  O  O4  1  0.20950100  0.14026200  0.55045900  1
  O  O5  1  0.70950100  0.85973800  0.94954100  1
  O  O6  1  0.80497400  0.24740600  0.04862900  1
  O  O7  1  0.30497400  0.75259400  0.45137100  1
  O  O8  1  0.52866800  0.65203800  0.75217800  1
  O  O9  1  0.02866800  0.34796200  0.74782200  1
  O  O10  1  0.47133200  0.34796200  0.24782200  1
  O  O11  1  0.97133200  0.65203800  0.25217800  1
loop_
_geom_bond_atom_site_label_1
_geom_bond_atom_site_label_2
_geom_bond_distance
_geom_bond_site_symmetry_2
La0 O9 2.406163 1_655
La0 O2 2.417968 1_655
La0 O4 2.439634 1_665
La0 O8 2.471961 1_555
La0 O5 2.633712 1_555
La0 O3 2.651328 1_565
La0 O6 2.747031 1_556
La0 O0 2.749028 1_555
La1 O8 2.406163 1_555
La1 O3 2.417968 1_555
La1 O5 2.439634 1_545
La1 O9 2.471961 1_555
La1 O4 2.633712 1_555
La1 O2 2.651328 1_545
La1 O7 2.747031 1_555
La1 O1 2.749028 1_556
La2 O11 2.406163 1_455
La2 O6 2.417968 1_455
La2 O0 2.439634 1_445
La2 O10 2.471961 1_555
La2 O1 2.633712 1_555
La2 O7 2.651328 1_545
La2 O2 2.747031 1_554
La2 O4 2.749028 1_555
La3 O10 2.406163 1_555
La3 O7 2.417968 1_555
La3 O1 2.439634 1_565
La3 O11 2.471961 1_555
La3 O0 2.633712 1_555
La3 O6 2.651328 1_565
La3 O3 2.747031 1_555
La3 O5 2.749028 1_554
Cu0 O9 2.013008 1_555
Cu0 O11 2.013008 1_455
Cu0 O7 2.153835 1_555
Cu0 O3 2.153835 1_455
Cu0 O0 2.162500 1_455
Cu0 O4 2.162500 1_555
Cu1 O10 2.013008 1_555
Cu1 O8 2.013008 1_554
Cu1 O6 2.153835 1_555
Cu1 O2 2.153835 1_554
Cu1 O5 2.162500 1_554
Cu1 O1 2.162500 1_555
O0 Rh1 2.045458 1_565
O1 Rh0 2.045458 1_555
O2 Rh0 2.049925 1_566
O3 Rh1 2.049925 1_555
O4 Rh1 2.045458 1_555
O5 Rh0 2.045458 1_666
O6 Rh0 2.049925 1_655
O7 Rh1 2.049925 1_565
O8 Rh1 2.049707 1_565
O9 Rh0 2.049707 1_556
O10 Rh1 2.049707 1_555
O11 Rh0 2.049707 1_665
