# generated using pymatgen
data_Zr4Sc(NiSn)5
_symmetry_space_group_name_H-M   'P 1'
_cell_length_a   18.03262278
_cell_length_b   18.03262278
_cell_length_c   18.03262266
_cell_angle_alpha   13.95169973
_cell_angle_beta   13.95169973
_cell_angle_gamma   13.95170217
_symmetry_Int_Tables_number   1
_chemical_formula_structural   Zr4Sc(NiSn)5
_chemical_formula_sum   'Zr4 Sc1 Ni5 Sn5'
_cell_volume   296.65806505
_cell_formula_units_Z   1
loop_
 _symmetry_equiv_pos_site_id
 _symmetry_equiv_pos_as_xyz
  1  'x, y, z'
loop_
 _atom_site_type_symbol
 _atom_site_label
 _atom_site_symmetry_multiplicity
 _atom_site_fract_x
 _atom_site_fract_y
 _atom_site_fract_z
 _atom_site_occupancy
  Zr  Zr0  1  0.65028700  0.65028700  0.65028700  1
  Zr  Zr1  1  0.25016100  0.25016100  0.25016100  1
  Zr  Zr2  1  0.85005800  0.85005800  0.85005800  1
  Zr  Zr3  1  0.45009800  0.45009800  0.45009800  1
  Sc  Sc0  1  0.04969700  0.04969700  0.04969700  1
  Ni  Ni0  1  0.99959600  0.99959600  0.99959600  1
  Ni  Ni1  1  0.59990700  0.59990700  0.59990700  1
  Ni  Ni2  1  0.20003300  0.20003300  0.20003300  1
  Ni  Ni3  1  0.80005200  0.80005200  0.80005200  1
  Ni  Ni4  1  0.40048100  0.40048100  0.40048100  1
  Sn  Sn0  1  0.35011500  0.35011500  0.35011500  1
  Sn  Sn1  1  0.14996300  0.14996300  0.14996300  1
  Sn  Sn2  1  0.74979000  0.74979000  0.74979000  1
  Sn  Sn3  1  0.94985400  0.94985400  0.94985400  1
  Sn  Sn4  1  0.54990800  0.54990800  0.54990800  1
loop_
_geom_bond_atom_site_label_1
_geom_bond_atom_site_label_2
_geom_bond_distance
_geom_bond_site_symmetry_2
Sc0 Sn0 3.082794 1_554
Sc0 Sn0 3.082794 1_455
Sc0 Sn0 3.082794 1_545
Sc0 Sn2 3.098529 1_445
Sc0 Sn2 3.098529 1_544
Sc0 Sn2 3.098529 1_454
Ni0 Sn3 2.664343 1_555
Ni0 Zr0 2.669738 1_556
Ni0 Zr0 2.669739 1_655
Ni0 Zr0 2.669739 1_565
Ni0 Sc0 2.683572 1_666
Ni0 Sn0 2.691212 1_665
Ni0 Sn0 2.691212 1_656
Ni0 Sn0 2.691212 1_566
Ni1 Zr1 2.677332 1_556
Ni1 Zr1 2.677333 1_565
Ni1 Zr1 2.677333 1_655
Ni1 Sn4 2.678109 1_555
Ni1 Sn3 2.680887 1_554
Ni1 Sn3 2.680887 1_455
Ni1 Sn3 2.680887 1_545
Ni1 Zr0 2.698517 1_555
Ni2 Sn4 2.679609 1_554
Ni2 Sn4 2.679610 1_455
Ni2 Sn4 2.679610 1_545
Ni2 Zr2 2.681385 1_445
Ni2 Zr2 2.681385 1_454
Ni2 Zr2 2.681385 1_544
Ni2 Sn1 2.681912 1_555
Ni2 Zr1 2.685019 1_555
Ni3 Zr2 2.678484 1_555
Ni3 Sn1 2.680247 1_665
Ni3 Sn1 2.680248 1_656
Ni3 Sn1 2.680248 1_566
Ni3 Zr3 2.681011 1_556
Ni3 Zr3 2.681012 1_565
Ni3 Zr3 2.681012 1_655
Ni3 Sn2 2.692196 1_555
Ni4 Zr3 2.657648 1_555
Ni4 Sn2 2.669738 1_554
Ni4 Sn2 2.669739 1_545
Ni4 Sn2 2.669739 1_455
Ni4 Sc0 2.696100 1_556
Ni4 Sc0 2.696100 1_565
Ni4 Sc0 2.696100 1_655
Ni4 Sn0 2.697767 1_555
Sn0 Zr0 3.090348 1_554
Sn0 Zr0 3.090349 1_545
Sn0 Zr0 3.090349 1_455
Sn1 Zr3 3.091488 1_554
Sn1 Zr3 3.091488 1_455
Sn1 Zr3 3.091488 1_545
Sn1 Zr2 3.098590 1_445
Sn1 Zr2 3.098591 1_544
Sn1 Zr2 3.098591 1_454
Sn2 Zr3 3.105197 1_556
Sn2 Zr3 3.105197 1_655
Sn2 Zr3 3.105197 1_565
Sn3 Zr1 3.086198 1_665
Sn3 Zr1 3.086198 1_566
Sn3 Zr1 3.086198 1_656
Sn3 Zr0 3.109087 1_556
Sn3 Zr0 3.109088 1_655
Sn3 Zr0 3.109088 1_565
Sn4 Zr2 3.091026 1_554
Sn4 Zr2 3.091026 1_545
Sn4 Zr2 3.091026 1_455
Sn4 Zr1 3.103488 1_556
Sn4 Zr1 3.103489 1_565
Sn4 Zr1 3.103489 1_655
