# generated using pymatgen
data_Sc44Ir7
_symmetry_space_group_name_H-M   'P 1'
_cell_length_a   14.66711291
_cell_length_b   14.66711291
_cell_length_c   14.66711291
_cell_angle_alpha   60.00000000
_cell_angle_beta   60.00000000
_cell_angle_gamma   60.00000000
_symmetry_Int_Tables_number   1
_chemical_formula_structural   Sc44Ir7
_chemical_formula_sum   'Sc88 Ir14'
_cell_volume   2231.09934186
_cell_formula_units_Z   2
loop_
 _symmetry_equiv_pos_site_id
 _symmetry_equiv_pos_as_xyz
  1  'x, y, z'
loop_
 _atom_site_type_symbol
 _atom_site_label
 _atom_site_symmetry_multiplicity
 _atom_site_fract_x
 _atom_site_fract_y
 _atom_site_fract_z
 _atom_site_occupancy
  Sc  Sc0  1  0.05641200  0.05641200  0.83076500  1
  Sc  Sc1  1  0.05641200  0.83076500  0.05641200  1
  Sc  Sc2  1  0.83076500  0.05641200  0.05641200  1
  Sc  Sc3  1  0.05641200  0.05641200  0.05641200  1
  Sc  Sc4  1  0.30808600  0.30808600  0.07574200  1
  Sc  Sc5  1  0.30808600  0.07574200  0.30808600  1
  Sc  Sc6  1  0.07574200  0.30808600  0.30808600  1
  Sc  Sc7  1  0.30808600  0.30808600  0.30808600  1
  Sc  Sc8  1  0.16212200  0.16212200  0.51363500  1
  Sc  Sc9  1  0.16212200  0.51363500  0.16212200  1
  Sc  Sc10  1  0.51363500  0.16212200  0.16212200  1
  Sc  Sc11  1  0.16212200  0.16212200  0.16212200  1
  Sc  Sc12  1  0.44014100  0.44014100  0.67957600  1
  Sc  Sc13  1  0.44014100  0.67957600  0.44014100  1
  Sc  Sc14  1  0.67957600  0.44014100  0.44014100  1
  Sc  Sc15  1  0.44014100  0.44014100  0.44014100  1
  Sc  Sc16  1  0.19051500  0.19051500  0.80948500  1
  Sc  Sc17  1  0.80948500  0.19051500  0.80948500  1
  Sc  Sc18  1  0.19051500  0.80948500  0.80948500  1
  Sc  Sc19  1  0.80948500  0.80948500  0.19051500  1
  Sc  Sc20  1  0.19051500  0.80948500  0.19051500  1
  Sc  Sc21  1  0.80948500  0.19051500  0.19051500  1
  Sc  Sc22  1  0.85618400  0.85618400  0.64381600  1
  Sc  Sc23  1  0.64381600  0.85618400  0.64381600  1
  Sc  Sc24  1  0.85618400  0.64381600  0.64381600  1
  Sc  Sc25  1  0.64381600  0.64381600  0.85618400  1
  Sc  Sc26  1  0.85618400  0.64381600  0.85618400  1
  Sc  Sc27  1  0.64381600  0.85618400  0.85618400  1
  Sc  Sc28  1  0.02104400  0.29912500  0.65878700  1
  Sc  Sc29  1  0.02104400  0.02104400  0.65878700  1
  Sc  Sc30  1  0.29912500  0.02104400  0.65878700  1
  Sc  Sc31  1  0.02104400  0.65878700  0.29912500  1
  Sc  Sc32  1  0.29912500  0.65878700  0.02104400  1
  Sc  Sc33  1  0.02104400  0.65878700  0.02104400  1
  Sc  Sc34  1  0.65878700  0.02104400  0.02104400  1
  Sc  Sc35  1  0.65878700  0.29912500  0.02104400  1
  Sc  Sc36  1  0.65878700  0.02104400  0.29912500  1
  Sc  Sc37  1  0.29912500  0.02104400  0.02104400  1
  Sc  Sc38  1  0.02104400  0.02104400  0.29912500  1
  Sc  Sc39  1  0.02104400  0.29912500  0.02104400  1
  Sc  Sc40  1  0.28604900  0.53591200  0.89199000  1
  Sc  Sc41  1  0.28604900  0.28604900  0.89199000  1
  Sc  Sc42  1  0.53591200  0.28604900  0.89199000  1
  Sc  Sc43  1  0.28604900  0.89199000  0.53591200  1
  Sc  Sc44  1  0.53591200  0.89199000  0.28604900  1
  Sc  Sc45  1  0.28604900  0.89199000  0.28604900  1
  Sc  Sc46  1  0.89199000  0.28604900  0.28604900  1
  Sc  Sc47  1  0.89199000  0.53591200  0.28604900  1
  Sc  Sc48  1  0.89199000  0.28604900  0.53591200  1
  Sc  Sc49  1  0.53591200  0.28604900  0.28604900  1
  Sc  Sc50  1  0.28604900  0.28604900  0.53591200  1
  Sc  Sc51  1  0.28604900  0.53591200  0.28604900  1
  Sc  Sc52  1  0.66315200  0.44837900  0.22531800  1
  Sc  Sc53  1  0.66315200  0.66315200  0.22531800  1
  Sc  Sc54  1  0.44837900  0.66315200  0.22531800  1
  Sc  Sc55  1  0.66315200  0.22531800  0.44837900  1
  Sc  Sc56  1  0.44837900  0.22531800  0.66315200  1
  Sc  Sc57  1  0.66315200  0.22531800  0.66315200  1
  Sc  Sc58  1  0.22531800  0.66315200  0.66315200  1
  Sc  Sc59  1  0.22531800  0.44837900  0.66315200  1
  Sc  Sc60  1  0.22531800  0.66315200  0.44837900  1
  Sc  Sc61  1  0.44837900  0.66315200  0.66315200  1
  Sc  Sc62  1  0.66315200  0.66315200  0.44837900  1
  Sc  Sc63  1  0.66315200  0.44837900  0.66315200  1
  Sc  Sc64  1  0.51497200  0.87897300  0.09108400  1
  Sc  Sc65  1  0.51497200  0.51497200  0.09108400  1
  Sc  Sc66  1  0.87897300  0.51497200  0.09108400  1
  Sc  Sc67  1  0.51497200  0.09108400  0.87897300  1
  Sc  Sc68  1  0.87897300  0.09108400  0.51497200  1
  Sc  Sc69  1  0.51497200  0.09108400  0.51497200  1
  Sc  Sc70  1  0.09108400  0.51497200  0.51497200  1
  Sc  Sc71  1  0.09108400  0.87897300  0.51497200  1
  Sc  Sc72  1  0.09108400  0.51497200  0.87897300  1
  Sc  Sc73  1  0.87897300  0.51497200  0.51497200  1
  Sc  Sc74  1  0.51497200  0.51497200  0.87897300  1
  Sc  Sc75  1  0.51497200  0.87897300  0.51497200  1
  Sc  Sc76  1  0.78796500  0.99755500  0.42651500  1
  Sc  Sc77  1  0.78796500  0.78796500  0.42651500  1
  Sc  Sc78  1  0.99755500  0.78796500  0.42651500  1
  Sc  Sc79  1  0.78796500  0.42651500  0.99755500  1
  Sc  Sc80  1  0.99755500  0.42651500  0.78796500  1
  Sc  Sc81  1  0.78796500  0.42651500  0.78796500  1
  Sc  Sc82  1  0.42651500  0.78796500  0.78796500  1
  Sc  Sc83  1  0.42651500  0.99755500  0.78796500  1
  Sc  Sc84  1  0.42651500  0.78796500  0.99755500  1
  Sc  Sc85  1  0.99755500  0.78796500  0.78796500  1
  Sc  Sc86  1  0.78796500  0.78796500  0.99755500  1
  Sc  Sc87  1  0.78796500  0.99755500  0.78796500  1
  Ir  Ir0  1  0.91866100  0.91866100  0.24401700  1
  Ir  Ir1  1  0.91866100  0.24401700  0.91866100  1
  Ir  Ir2  1  0.24401700  0.91866100  0.91866100  1
  Ir  Ir3  1  0.91866100  0.91866100  0.91866100  1
  Ir  Ir4  1  0.65098800  0.65098800  0.04703600  1
  Ir  Ir5  1  0.65098800  0.04703600  0.65098800  1
  Ir  Ir6  1  0.04703600  0.65098800  0.65098800  1
  Ir  Ir7  1  0.65098800  0.65098800  0.65098800  1
  Ir  Ir8  1  0.40940700  0.40940700  0.09059300  1
  Ir  Ir9  1  0.09059300  0.40940700  0.09059300  1
  Ir  Ir10  1  0.40940700  0.09059300  0.09059300  1
  Ir  Ir11  1  0.09059300  0.09059300  0.40940700  1
  Ir  Ir12  1  0.40940700  0.09059300  0.40940700  1
  Ir  Ir13  1  0.09059300  0.40940700  0.40940700  1
loop_
_geom_bond_atom_site_label_1
_geom_bond_atom_site_label_2
_geom_bond_distance
_geom_bond_site_symmetry_2
Sc0 Sc30 3.128392 1_555
Sc0 Sc28 3.128392 1_555
Sc0 Sc29 3.128401 1_555
Sc0 Sc16 3.236625 1_555
Sc0 Sc17 3.236638 1_455
Sc0 Sc18 3.236638 1_545
Sc1 Sc32 3.128392 1_555
Sc1 Sc31 3.128392 1_555
Sc1 Sc33 3.128401 1_555
Sc1 Sc20 3.236625 1_555
Sc1 Sc19 3.236638 1_455
Sc1 Sc18 3.236638 1_554
Sc2 Sc36 3.128392 1_555
Sc2 Sc35 3.128392 1_555
Sc2 Sc34 3.128401 1_555
Sc2 Sc21 3.236625 1_555
Sc3 Sc39 3.128387 1_555
Sc3 Sc37 3.128387 1_555
Sc3 Sc38 3.128387 1_555
Sc4 Sc42 3.052746 1_554
Sc4 Sc40 3.052746 1_554
Sc4 Sc41 3.052746 1_554
Sc10 Sc36 2.926900 1_555
Sc10 Sc35 2.926900 1_555
Sc10 Sc34 2.926911 1_555
Sc10 Sc49 3.347555 1_555
Sc10 Sc44 3.347568 1_545
Sc10 Sc42 3.347568 1_554
Sc11 Sc37 2.926911 1_555
Sc11 Sc39 2.926911 1_555
Sc11 Sc38 2.926911 1_555
Sc11 Sc41 3.347564 1_554
Sc11 Sc45 3.347564 1_545
Sc11 Sc46 3.347564 1_455
Sc12 Sc59 3.217076 1_555
Sc12 Sc56 3.217076 1_555
Sc12 Sc57 3.217090 1_555
Sc12 Sc58 3.217090 1_555
Sc12 Sc61 3.217105 1_555
Sc12 Sc63 3.217105 1_555
Sc12 Sc41 3.308731 1_555
Sc12 Sc42 3.308739 1_555
Sc12 Sc40 3.308739 1_555
Sc12 Sc14 3.511820 1_555
Sc12 Sc13 3.511820 1_555
Sc12 Sc15 3.511820 1_555
Sc13 Sc60 3.217076 1_555
Sc13 Sc54 3.217076 1_555
Sc13 Sc53 3.217090 1_555
Sc13 Sc58 3.217090 1_555
Sc13 Sc62 3.217105 1_555
Sc13 Sc61 3.217105 1_555
Sc13 Sc45 3.308731 1_555
Sc13 Sc44 3.308739 1_555
Sc13 Sc43 3.308739 1_555
Sc13 Sc14 3.511820 1_555
Sc13 Sc15 3.511820 1_555
Sc14 Sc52 3.217076 1_555
Sc14 Sc55 3.217076 1_555
Sc14 Sc57 3.217090 1_555
Sc14 Sc53 3.217090 1_555
Sc14 Sc62 3.217105 1_555
Sc14 Sc63 3.217105 1_555
Sc14 Sc46 3.308731 1_555
Sc14 Sc47 3.308739 1_555
Sc14 Sc48 3.308739 1_555
Sc14 Sc15 3.511820 1_555
Sc15 Sc56 3.217092 1_555
Sc15 Sc60 3.217092 1_555
Sc15 Sc54 3.217092 1_555
Sc15 Sc55 3.217092 1_555
Sc15 Sc59 3.217092 1_555
Sc15 Sc52 3.217092 1_555
Sc15 Sc50 3.308727 1_555
Sc15 Sc49 3.308727 1_555
Sc15 Sc51 3.308727 1_555
Sc16 Sc80 3.177314 1_455
Sc16 Sc83 3.177314 1_545
Sc16 Sc3 3.236633 1_556
Sc16 Sc41 3.278071 1_555
Sc16 Sc50 3.278071 1_555
Sc16 Sc28 3.408071 1_555
Sc16 Sc30 3.408071 1_555
Sc16 Sc39 3.408071 1_556
Sc16 Sc37 3.408071 1_556
Sc16 Sc56 3.448052 1_555
Sc16 Sc59 3.448052 1_555
Sc17 Sc81 3.177314 1_555
Sc17 Sc87 3.177314 1_545
Sc17 Sc2 3.236638 1_556
Sc17 Sc48 3.278071 1_555
Sc17 Sc42 3.278071 1_555
Sc17 Sc29 3.408071 1_655
Sc17 Sc34 3.408071 1_556
Sc17 Sc28 3.408071 1_655
Sc17 Sc35 3.408071 1_556
Sc17 Sc57 3.448039 1_555
Sc17 Sc63 3.448046 1_555
Sc18 Sc85 3.177314 1_455
Sc18 Sc82 3.177314 1_555
Sc18 Sc43 3.278071 1_555
Sc18 Sc40 3.278071 1_555
Sc18 Sc33 3.408071 1_556
Sc18 Sc29 3.408071 1_565
Sc18 Sc32 3.408071 1_556
Sc18 Sc30 3.408071 1_565
Sc18 Sc58 3.448039 1_555
Sc18 Sc61 3.448046 1_555
Sc19 Sc86 3.177314 1_554
Sc19 Sc77 3.177314 1_555
Sc19 Sc2 3.236638 1_565
Sc19 Sc44 3.278071 1_555
Sc19 Sc47 3.278071 1_555
Sc19 Sc34 3.408071 1_565
Sc19 Sc33 3.408071 1_655
Sc19 Sc36 3.408071 1_565
Sc19 Sc31 3.408071 1_655
Sc19 Sc53 3.448039 1_555
Sc19 Sc62 3.448046 1_555
Sc20 Sc78 3.177314 1_455
Sc20 Sc84 3.177314 1_554
Sc20 Sc3 3.236633 1_565
Sc20 Sc45 3.278071 1_555
Sc20 Sc51 3.278071 1_555
Sc20 Sc32 3.408071 1_555
Sc20 Sc31 3.408071 1_555
Sc20 Sc38 3.408071 1_565
Sc20 Sc37 3.408071 1_565
Sc20 Sc60 3.448052 1_555
Sc20 Sc54 3.448052 1_555
Sc21 Sc76 3.177314 1_545
Sc21 Sc79 3.177314 1_554
Sc21 Sc3 3.236633 1_655
Sc21 Sc46 3.278071 1_555
Sc21 Sc49 3.278071 1_555
Sc21 Sc35 3.408071 1_555
Sc21 Sc36 3.408071 1_555
Sc21 Sc38 3.408071 1_655
Sc21 Sc39 3.408071 1_655
Sc21 Sc55 3.448052 1_555
Sc21 Sc52 3.448052 1_555
Sc28 Sc8 2.926900 1_555
Sc28 Sc81 3.072974 1_455
Sc28 Sc80 3.072974 1_455
Sc28 Sc73 3.151933 1_455
Sc28 Sc70 3.151941 1_555
Sc28 Sc48 3.314765 1_455
Sc28 Sc50 3.314765 1_555
Sc29 Sc8 2.926911 1_555
Sc29 Sc85 3.072974 1_445
Sc29 Sc87 3.072974 1_445
Sc29 Sc68 3.151928 1_455
Sc29 Sc71 3.151928 1_545
Sc29 Sc43 3.314765 1_545
Sc29 Sc48 3.314765 1_455
Sc30 Sc8 2.926900 1_555
Sc30 Sc82 3.072974 1_545
Sc30 Sc83 3.072974 1_545
Sc30 Sc75 3.151933 1_545
Sc30 Sc69 3.151941 1_555
Sc30 Sc43 3.314765 1_545
Sc30 Sc50 3.314765 1_555
Sc31 Sc9 2.926900 1_555
Sc31 Sc77 3.072974 1_455
Sc31 Sc78 3.072974 1_455
Sc31 Sc73 3.151933 1_455
Sc31 Sc70 3.151941 1_555
Sc31 Sc47 3.314765 1_455
Sc31 Sc51 3.314765 1_555
Sc32 Sc9 2.926900 1_555
Sc32 Sc84 3.072974 1_554
Sc32 Sc82 3.072974 1_554
Sc32 Sc74 3.151933 1_554
Sc32 Sc65 3.151941 1_555
Sc32 Sc40 3.314765 1_554
Sc32 Sc51 3.314765 1_555
Sc33 Sc9 2.926911 1_555
Sc33 Sc86 3.072974 1_454
Sc33 Sc85 3.072974 1_454
Sc33 Sc66 3.151928 1_455
Sc33 Sc72 3.151928 1_554
Sc33 Sc47 3.314765 1_455
Sc33 Sc40 3.314765 1_554
Sc34 Sc86 3.072974 1_544
Sc34 Sc87 3.072974 1_544
Sc34 Sc67 3.151928 1_554
Sc34 Sc64 3.151928 1_545
Sc34 Sc42 3.314765 1_554
Sc34 Sc44 3.314765 1_545
Sc35 Sc79 3.072974 1_554
Sc35 Sc81 3.072974 1_554
Sc35 Sc74 3.151933 1_554
Sc35 Sc65 3.151941 1_555
Sc35 Sc49 3.314765 1_555
Sc35 Sc42 3.314765 1_554
Sc36 Sc76 3.072974 1_545
Sc36 Sc77 3.072974 1_545
Sc36 Sc75 3.151933 1_545
Sc36 Sc69 3.151941 1_555
Sc36 Sc49 3.314765 1_555
Sc36 Sc44 3.314765 1_545
Sc37 Sc83 3.072974 1_544
Sc37 Sc84 3.072974 1_544
Sc37 Sc67 3.151941 1_554
Sc37 Sc64 3.151941 1_545
Sc37 Sc45 3.314765 1_545
Sc37 Sc41 3.314765 1_554
Sc38 Sc76 3.072974 1_445
Sc38 Sc78 3.072974 1_445
Sc38 Sc68 3.151941 1_455
Sc38 Sc71 3.151941 1_545
Sc38 Sc45 3.314765 1_545
Sc38 Sc46 3.314765 1_455
Sc39 Sc79 3.072974 1_454
Sc39 Sc80 3.072974 1_454
Sc39 Sc66 3.151941 1_455
Sc39 Sc72 3.151941 1_554
Sc39 Sc46 3.314765 1_455
Sc39 Sc41 3.314765 1_554
Sc40 Sc72 3.129024 1_555
Sc40 Sc74 3.129039 1_555
Sc40 Sc58 3.256558 1_555
Sc40 Sc61 3.256566 1_555
Sc40 Sc9 3.347568 1_556
Sc40 Sc42 3.664769 1_555
Sc40 Sc41 3.664769 1_555
Sc41 Sc67 3.129033 1_555
Sc41 Sc72 3.129033 1_555
Sc41 Sc56 3.256559 1_555
Sc41 Sc59 3.256559 1_555
Sc41 Sc42 3.664769 1_555
Sc42 Sc67 3.129024 1_555
Sc42 Sc74 3.129039 1_555
Sc42 Sc57 3.256558 1_555
Sc42 Sc63 3.256566 1_555
Sc43 Sc5 3.052746 1_565
Sc43 Sc71 3.129024 1_555
Sc43 Sc75 3.129039 1_555
Sc43 Sc58 3.256558 1_555
Sc43 Sc61 3.256566 1_555
Sc43 Sc8 3.347568 1_565
Sc43 Sc44 3.664769 1_555
Sc43 Sc45 3.664769 1_555
Sc44 Sc5 3.052746 1_565
Sc44 Sc64 3.129024 1_555
Sc44 Sc75 3.129039 1_555
Sc44 Sc53 3.256558 1_555
Sc44 Sc62 3.256566 1_555
Sc44 Sc45 3.664769 1_555
Sc45 Sc5 3.052746 1_565
Sc45 Sc64 3.129033 1_555
Sc45 Sc71 3.129033 1_555
Sc45 Sc54 3.256559 1_555
Sc45 Sc60 3.256559 1_555
Sc46 Sc6 3.052746 1_655
Sc46 Sc66 3.129033 1_555
Sc46 Sc68 3.129033 1_555
Sc46 Sc55 3.256559 1_555
Sc46 Sc52 3.256559 1_555
Sc46 Sc48 3.664769 1_555
Sc46 Sc47 3.664769 1_555
Sc47 Sc6 3.052746 1_655
Sc47 Sc66 3.129024 1_555
Sc47 Sc73 3.129039 1_555
Sc47 Sc53 3.256558 1_555
Sc47 Sc62 3.256566 1_555
Sc47 Sc9 3.347568 1_655
Sc47 Sc48 3.664769 1_555
Sc48 Sc6 3.052746 1_655
Sc48 Sc68 3.129024 1_555
Sc48 Sc73 3.129039 1_555
Sc48 Sc57 3.256558 1_555
Sc48 Sc63 3.256566 1_555
Sc48 Sc8 3.347568 1_655
Sc49 Sc7 3.052746 1_555
Sc49 Sc65 3.129033 1_555
Sc49 Sc69 3.129033 1_555
Sc49 Sc52 3.256571 1_555
Sc49 Sc55 3.256571 1_555
Sc49 Sc50 3.664769 1_555
Sc49 Sc51 3.664769 1_555
Sc50 Sc7 3.052746 1_555
Sc50 Sc69 3.129033 1_555
Sc50 Sc70 3.129033 1_555
Sc50 Sc59 3.256571 1_555
Sc50 Sc56 3.256571 1_555
Sc50 Sc8 3.347555 1_555
Sc50 Sc51 3.664769 1_555
Sc51 Sc7 3.052746 1_555
Sc51 Sc65 3.129033 1_555
Sc51 Sc70 3.129033 1_555
Sc51 Sc60 3.256571 1_555
Sc51 Sc54 3.256571 1_555
Sc51 Sc9 3.347555 1_555
Ir0 Sc77 2.815411 1_555
Ir0 Sc78 2.815411 1_555
Ir0 Sc76 2.815411 1_555
Ir0 Sc2 2.949362 1_565
Ir0 Sc1 2.949362 1_655
Ir0 Sc3 2.949370 1_665
Ir0 Sc36 3.137802 1_565
Ir0 Sc31 3.137802 1_655
Ir0 Sc38 3.137802 1_665
Ir0 Sc19 3.289586 1_555
Ir0 Sc20 3.289586 1_655
Ir0 Sc21 3.289586 1_565
Ir1 Sc81 2.815411 1_555
Ir1 Sc80 2.815411 1_555
Ir1 Sc79 2.815411 1_555
Ir1 Sc0 2.949362 1_655
Ir1 Sc2 2.949362 1_556
Ir1 Sc3 2.949370 1_656
Ir1 Sc28 3.137802 1_655
Ir1 Sc35 3.137802 1_556
Ir1 Sc39 3.137802 1_656
Ir1 Sc17 3.289586 1_555
Ir1 Sc16 3.289586 1_655
Ir1 Sc21 3.289586 1_556
Ir2 Sc82 2.815411 1_555
Ir2 Sc84 2.815411 1_555
Ir2 Sc83 2.815411 1_555
Ir2 Sc0 2.949362 1_565
Ir2 Sc1 2.949362 1_556
Ir2 Sc3 2.949370 1_566
Ir2 Sc30 3.137802 1_565
Ir2 Sc32 3.137802 1_556
Ir2 Sc37 3.137802 1_566
Ir2 Sc18 3.289586 1_555
Ir2 Sc20 3.289586 1_556
Ir2 Sc16 3.289586 1_565
Ir3 Sc87 2.815411 1_555
Ir3 Sc85 2.815411 1_555
Ir3 Sc86 2.815411 1_555
Ir3 Sc0 2.949374 1_665
Ir3 Sc2 2.949374 1_566
Ir3 Sc1 2.949374 1_656
Ir3 Sc34 3.137802 1_566
Ir3 Sc33 3.137802 1_656
Ir3 Sc29 3.137802 1_665
Ir3 Sc19 3.289586 1_556
Ir3 Sc17 3.289586 1_565
Ir3 Sc18 3.289586 1_655
Ir4 Sc52 2.804657 1_555
Ir4 Sc54 2.804657 1_555
Ir4 Sc53 2.804665 1_555
Ir4 Sc27 2.908248 1_554
Ir4 Sc26 2.908248 1_554
Ir4 Sc25 2.908248 1_554
Ir4 Sc86 3.117614 1_554
Ir4 Sc84 3.117614 1_554
Ir4 Sc79 3.117614 1_554
Ir4 Sc65 3.127186 1_555
Ir4 Sc66 3.127198 1_555
Ir4 Sc64 3.127198 1_555
Ir5 Sc56 2.804657 1_555
Ir5 Sc55 2.804657 1_555
Ir5 Sc57 2.804665 1_555
Ir5 Sc27 2.908248 1_545
Ir5 Sc22 2.908248 1_545
Ir5 Sc23 2.908248 1_545
Ir5 Sc76 3.117614 1_545
Ir5 Sc83 3.117614 1_545
Ir5 Sc87 3.117614 1_545
Ir5 Sc69 3.127186 1_555
Ir5 Sc68 3.127198 1_555
Ir5 Sc67 3.127198 1_555
Ir6 Sc60 2.804657 1_555
Ir6 Sc59 2.804657 1_555
Ir6 Sc58 2.804665 1_555
Ir6 Sc22 2.908248 1_455
Ir6 Sc26 2.908248 1_455
Ir6 Sc24 2.908248 1_455
Ir6 Sc80 3.117614 1_455
Ir6 Sc85 3.117614 1_455
Ir6 Sc78 3.117614 1_455
Ir6 Sc70 3.127186 1_555
Ir6 Sc71 3.127198 1_555
Ir6 Sc72 3.127198 1_555
Ir7 Sc62 2.804651 1_555
Ir7 Sc63 2.804651 1_555
Ir7 Sc61 2.804651 1_555
Ir7 Sc23 2.908248 1_555
Ir7 Sc25 2.908248 1_555
Ir7 Sc24 2.908248 1_555
Ir7 Sc82 3.117614 1_555
Ir7 Sc77 3.117614 1_555
Ir7 Sc81 3.117614 1_555
Ir7 Sc73 3.127192 1_555
Ir7 Sc74 3.127192 1_555
Ir7 Sc75 3.127192 1_555
Ir8 Sc74 2.685949 1_554
Ir8 Sc65 2.685957 1_555
Ir8 Sc4 2.705588 1_555
Ir8 Sc7 2.705588 1_555
Ir8 Sc9 2.974315 1_555
Ir8 Sc10 2.974315 1_555
Ir8 Sc32 3.006340 1_555
Ir8 Sc35 3.006340 1_555
Ir8 Sc49 3.421981 1_555
Ir8 Sc51 3.421981 1_555
Ir8 Sc42 3.421981 1_554
Ir8 Sc40 3.421981 1_554
Ir9 Sc72 2.685944 1_554
Ir9 Sc66 2.685944 1_455
Ir9 Sc6 2.705588 1_555
Ir9 Sc4 2.705588 1_555
Ir9 Sc11 2.974314 1_555
Ir9 Sc9 2.974327 1_555
Ir9 Sc33 3.006340 1_555
Ir9 Sc39 3.006340 1_555
Ir9 Sc40 3.421981 1_554
Ir9 Sc41 3.421981 1_554
Ir9 Sc47 3.421981 1_455
Ir9 Sc46 3.421981 1_455
Ir10 Sc67 2.685944 1_554
Ir10 Sc64 2.685944 1_545
Ir10 Sc4 2.705588 1_555
Ir10 Sc5 2.705588 1_555
Ir10 Sc11 2.974314 1_555
Ir10 Sc10 2.974327 1_555
Ir10 Sc34 3.006340 1_555
Ir10 Sc37 3.006340 1_555
Ir10 Sc41 3.421981 1_554
Ir10 Sc45 3.421981 1_545
Ir10 Sc44 3.421981 1_545
Ir10 Sc42 3.421981 1_554
Ir11 Sc68 2.685944 1_455
Ir11 Sc71 2.685944 1_545
Ir11 Sc5 2.705588 1_555
Ir11 Sc6 2.705588 1_555
Ir11 Sc11 2.974314 1_555
Ir11 Sc8 2.974327 1_555
Ir11 Sc29 3.006340 1_555
Ir11 Sc38 3.006340 1_555
Ir11 Sc45 3.421981 1_545
Ir11 Sc43 3.421981 1_545
Ir11 Sc46 3.421981 1_455
Ir11 Sc48 3.421981 1_455
Ir12 Sc75 2.685949 1_545
Ir12 Sc69 2.685957 1_555
Ir12 Sc5 2.705588 1_555
Ir12 Sc7 2.705588 1_555
Ir12 Sc8 2.974315 1_555
Ir12 Sc10 2.974315 1_555
Ir12 Sc30 3.006340 1_555
Ir12 Sc36 3.006340 1_555
Ir12 Sc49 3.421981 1_555
Ir12 Sc43 3.421981 1_545
Ir12 Sc50 3.421981 1_555
Ir12 Sc44 3.421981 1_545
Ir13 Sc73 2.685949 1_455
Ir13 Sc70 2.685957 1_555
Ir13 Sc7 2.705588 1_555
Ir13 Sc6 2.705588 1_555
Ir13 Sc9 2.974315 1_555
Ir13 Sc8 2.974315 1_555
Ir13 Sc28 3.006340 1_555
Ir13 Sc31 3.006340 1_555
Ir13 Sc51 3.421981 1_555
Ir13 Sc50 3.421981 1_555
Ir13 Sc48 3.421981 1_455
Ir13 Sc47 3.421981 1_455
