# generated using pymatgen
data_Sr2AlGaW2O7
_symmetry_space_group_name_H-M   'P 1'
_cell_length_a   5.50473485
_cell_length_b   6.12728308
_cell_length_c   11.83236414
_cell_angle_alpha   105.09288936
_cell_angle_beta   103.11877988
_cell_angle_gamma   90.00518469
_symmetry_Int_Tables_number   1
_chemical_formula_structural   Sr2AlGaW2O7
_chemical_formula_sum   'Sr4 Al2 Ga2 W4 O14'
_cell_volume   374.52717717
_cell_formula_units_Z   2
loop_
 _symmetry_equiv_pos_site_id
 _symmetry_equiv_pos_as_xyz
  1  'x, y, z'
loop_
 _atom_site_type_symbol
 _atom_site_label
 _atom_site_symmetry_multiplicity
 _atom_site_fract_x
 _atom_site_fract_y
 _atom_site_fract_z
 _atom_site_occupancy
  Sr  Sr0  1  0.15353200  0.16979100  0.30624300  1
  Sr  Sr1  1  0.83423500  0.81148100  0.68732100  1
  Sr  Sr2  1  0.65936400  0.62347400  0.31238600  1
  Sr  Sr3  1  0.32989200  0.37552700  0.67995800  1
  Al  Al0  1  0.45610900  0.45435600  0.98181900  1
  Al  Al1  1  0.03235800  0.99655800  0.99969200  1
  Ga  Ga0  1  0.22181500  0.81883700  0.49601500  1
  Ga  Ga1  1  0.72222100  0.17664000  0.49908900  1
  W  W0  1  0.44265800  0.91325000  0.87098800  1
  W  W1  1  0.08520300  0.58590300  0.13260300  1
  W  W2  1  0.94183200  0.41899900  0.86719300  1
  W  W3  1  0.56513900  0.07954500  0.13397300  1
  O  O0  1  0.70067500  0.40782400  0.10304600  1
  O  O1  1  0.88997600  0.90687800  0.50262000  1
  O  O2  1  0.21094100  0.24429000  0.12135000  1
  O  O3  1  0.83857000  0.38142200  0.65183500  1
  O  O4  1  0.80146700  0.09398300  0.88540600  1
  O  O5  1  0.27908800  0.22887600  0.85042400  1
  O  O6  1  0.38753100  0.09388500  0.49901100  1
  O  O7  1  0.09162200  0.75376100  0.87315300  1
  O  O8  1  0.59407700  0.58511200  0.88519800  1
  O  O9  1  0.35458100  0.75182600  0.64180600  1
  O  O10  1  0.17533200  0.60848500  0.34652500  1
  O  O11  1  0.71360600  0.25085100  0.35639900  1
  O  O12  1  0.90235100  0.89986500  0.10970000  1
  O  O13  1  0.39610200  0.83102900  0.19445000  1
loop_
_geom_bond_atom_site_label_1
_geom_bond_atom_site_label_2
_geom_bond_distance
_geom_bond_site_symmetry_2
Al0 O0 1.813199 1_556
Al0 O8 1.843030 1_555
Al0 O5 1.862499 1_555
Al1 O12 1.838988 1_456
Al1 O4 1.854923 1_465
Al1 O2 1.887352 1_566
Al1 O7 1.903482 1_555
Ga0 O10 1.860822 1_555
Ga0 O9 1.864172 1_555
Ga0 O6 1.904616 1_565
Ga0 O1 1.917531 1_455
Ga1 O11 1.850144 1_555
Ga1 O3 1.882690 1_555
Ga1 O1 1.898771 1_545
Ga1 O6 1.910574 1_555
O0 W3 2.289872 1_555
O0 W1 2.293084 1_655
O0 Sr2 2.546455 1_555
O1 Sr1 2.486290 1_555
O1 Sr2 2.522009 1_555
O2 W1 2.185196 1_555
O2 W3 2.188502 1_555
O2 Sr0 2.434798 1_555
O3 W2 2.430295 1_555
O3 Sr1 2.559092 1_555
O3 Sr3 2.650400 1_655
O3 Sr3 2.895172 1_555
O4 W0 2.214704 1_545
O4 W2 2.215446 1_555
O4 Sr1 2.569325 1_545
O5 W0 2.180813 1_545
O5 W2 2.211401 1_455
O5 Sr3 2.480700 1_555
O6 Sr3 2.459079 1_555
O6 Sr0 2.509363 1_555
O7 W0 2.173666 1_555
O7 W2 2.188647 1_455
O7 Sr1 2.440954 1_455
O8 W2 2.195096 1_555
O8 W0 2.208677 1_555
O8 Sr3 2.536521 1_555
O9 Sr3 2.471499 1_555
O9 W0 2.563850 1_555
O9 Sr1 2.578179 1_555
O9 Sr1 3.037461 1_455
O10 W1 2.433067 1_555
O10 Sr0 2.602635 1_555
O10 Sr2 2.781596 1_455
O10 Sr2 2.789058 1_555
O11 Sr2 2.474259 1_555
O11 W3 2.506198 1_555
O11 Sr0 2.638657 1_655
O11 Sr0 3.019899 1_555
O12 W3 2.194995 1_565
O12 W1 2.221566 1_655
O12 Sr0 2.567569 1_665
O13 W3 2.136833 1_565
O13 W1 2.139853 1_555
O13 Sr2 2.381456 1_555
O13 Sr0 2.685821 1_565
