# generated using pymatgen
data_NaCaMg2F7
_symmetry_space_group_name_H-M   'P 1'
_cell_length_a   7.34366009
_cell_length_b   7.34366009
_cell_length_c   7.34366009
_cell_angle_alpha   121.05602312
_cell_angle_beta   118.82548962
_cell_angle_gamma   90.11347825
_symmetry_Int_Tables_number   1
_chemical_formula_structural   NaCaMg2F7
_chemical_formula_sum   'Na2 Ca2 Mg4 F14'
_cell_volume   280.15943233
_cell_formula_units_Z   2
loop_
 _symmetry_equiv_pos_site_id
 _symmetry_equiv_pos_as_xyz
  1  'x, y, z'
loop_
 _atom_site_type_symbol
 _atom_site_label
 _atom_site_symmetry_multiplicity
 _atom_site_fract_x
 _atom_site_fract_y
 _atom_site_fract_z
 _atom_site_occupancy
  Na  Na0  1  0.00000000  0.50000000  0.00000000  1
  Na  Na1  1  0.00000000  0.00000000  0.50000000  1
  Ca  Ca0  1  0.00000000  0.50000000  0.50000000  1
  Ca  Ca1  1  0.50000000  0.50000000  0.00000000  1
  Mg  Mg0  1  0.50000000  0.00000000  0.00000000  1
  Mg  Mg1  1  0.50000000  0.50000000  0.50000000  1
  Mg  Mg2  1  0.50000000  0.00000000  0.50000000  1
  Mg  Mg3  1  0.00000000  0.00000000  0.00000000  1
  F  F0  1  0.82183400  0.07183400  0.75000000  1
  F  F1  1  0.41839600  0.66839600  0.75000000  1
  F  F2  1  0.82541800  0.66846900  0.73835700  1
  F  F3  1  0.43011200  0.08706100  0.76164300  1
  F  F4  1  0.82541800  0.08706100  0.15694900  1
  F  F5  1  0.43011200  0.66846900  0.34305100  1
  F  F6  1  0.17816600  0.92816600  0.25000000  1
  F  F7  1  0.58160400  0.33160400  0.25000000  1
  F  F8  1  0.17458200  0.33153100  0.26164300  1
  F  F9  1  0.56988800  0.91293900  0.23835700  1
  F  F10  1  0.17458200  0.91293900  0.84305100  1
  F  F11  1  0.56988800  0.33153100  0.65694900  1
  F  F12  1  0.86860700  0.61860700  0.25000000  1
  F  F13  1  0.13139300  0.38139300  0.75000000  1
loop_
_geom_bond_atom_site_label_1
_geom_bond_atom_site_label_2
_geom_bond_distance
_geom_bond_site_symmetry_2
Ca0 F13 2.237246 1_555
Ca0 F12 2.237246 1_455
Ca0 F10 2.484797 1_555
Ca0 F8 2.484797 1_555
Ca0 F4 2.484797 1_455
Ca0 F2 2.484797 1_455
Ca0 F7 2.558021 1_455
Ca0 F1 2.558021 1_555
Ca1 F13 2.237246 1_554
Ca1 F12 2.237246 1_555
Ca1 F9 2.484797 1_555
Ca1 F11 2.484797 1_554
Ca1 F3 2.484797 1_554
Ca1 F5 2.484797 1_555
Ca1 F7 2.558021 1_555
Ca1 F1 2.558021 1_554
F0 Mg2 2.011571 1_555
F0 Mg3 2.011571 1_656
F0 Na0 2.584676 1_656
F0 Na1 2.584676 1_655
F1 Mg0 1.995092 1_566
F1 Mg1 1.995092 1_555
F2 Mg1 2.006436 1_555
F2 Mg3 2.012158 1_666
F2 Na0 2.636218 1_656
F3 Mg0 2.006436 1_556
F3 Mg2 2.012158 1_555
F3 Na1 2.636218 1_555
F4 Mg0 2.006436 1_555
F4 Mg3 2.012158 1_655
F4 Na1 2.636218 1_655
F5 Mg1 2.006436 1_555
F5 Mg2 2.012158 1_565
F5 Na0 2.636218 1_555
F6 Mg3 2.011571 1_565
F6 Mg2 2.011571 1_565
F6 Na0 2.584676 1_555
F6 Na1 2.584676 1_565
F7 Mg0 1.995092 1_555
F7 Mg1 1.995092 1_555
F8 Mg1 2.006436 1_555
F8 Mg3 2.012158 1_555
F8 Na0 2.636218 1_555
F9 Mg0 2.006436 1_565
F9 Mg2 2.012158 1_565
F9 Na1 2.636218 1_665
F10 Mg0 2.006436 1_566
F10 Mg3 2.012158 1_566
F10 Na1 2.636218 1_565
F11 Mg1 2.006436 1_555
F11 Mg2 2.012158 1_555
F11 Na0 2.636218 1_656
F12 Na0 2.263175 1_655
F12 Na1 2.263175 1_665
F13 Na1 2.263175 1_555
F13 Na0 2.263175 1_556
