# generated using pymatgen
data_CsSrTa6Cl18
_symmetry_space_group_name_H-M   'P 1'
_cell_length_a   9.39775055
_cell_length_b   9.39775055
_cell_length_c   17.44717353
_cell_angle_alpha   90.00000000
_cell_angle_beta   90.00000000
_cell_angle_gamma   120.00000188
_symmetry_Int_Tables_number   1
_chemical_formula_structural   CsSrTa6Cl18
_chemical_formula_sum   'Cs2 Sr2 Ta12 Cl36'
_cell_volume   1334.45376106
_cell_formula_units_Z   2
loop_
 _symmetry_equiv_pos_site_id
 _symmetry_equiv_pos_as_xyz
  1  'x, y, z'
loop_
 _atom_site_type_symbol
 _atom_site_label
 _atom_site_symmetry_multiplicity
 _atom_site_fract_x
 _atom_site_fract_y
 _atom_site_fract_z
 _atom_site_occupancy
  Cs  Cs0  1  0.33333300  0.66666700  0.75000000  1
  Cs  Cs1  1  0.66666700  0.33333300  0.25000000  1
  Sr  Sr0  1  0.66666700  0.33333300  0.75000000  1
  Sr  Sr1  1  0.33333300  0.66666700  0.25000000  1
  Ta  Ta0  1  0.83629770  0.02819569  0.56824455  1
  Ta  Ta1  1  0.16370230  0.97180431  0.43175545  1
  Ta  Ta2  1  0.97180431  0.80810201  0.56824455  1
  Ta  Ta3  1  0.83629770  0.80810201  0.93175545  1
  Ta  Ta4  1  0.02819569  0.19189799  0.43175545  1
  Ta  Ta5  1  0.16370230  0.19189799  0.06824455  1
  Ta  Ta6  1  0.19189799  0.16370230  0.56824455  1
  Ta  Ta7  1  0.97180431  0.16370230  0.93175545  1
  Ta  Ta8  1  0.80810201  0.83629770  0.43175545  1
  Ta  Ta9  1  0.02819569  0.83629770  0.06824455  1
  Ta  Ta10  1  0.19189799  0.02819569  0.93175545  1
  Ta  Ta11  1  0.80810201  0.97180431  0.06824455  1
  Cl  Cl0  1  0.62846807  0.05805029  0.65547068  1
  Cl  Cl1  1  0.37153193  0.94194971  0.34452932  1
  Cl  Cl2  1  0.94194971  0.57041778  0.65547068  1
  Cl  Cl3  1  0.62846807  0.57041778  0.84452932  1
  Cl  Cl4  1  0.05805029  0.42958222  0.34452932  1
  Cl  Cl5  1  0.37153193  0.42958222  0.15547068  1
  Cl  Cl6  1  0.42958222  0.37153193  0.65547068  1
  Cl  Cl7  1  0.94194971  0.37153193  0.84452932  1
  Cl  Cl8  1  0.57041778  0.62846807  0.34452932  1
  Cl  Cl9  1  0.05805029  0.62846807  0.15547068  1
  Cl  Cl10  1  0.42958222  0.05805029  0.84452932  1
  Cl  Cl11  1  0.57041778  0.94194971  0.15547068  1
  Cl  Cl12  1  0.03236069  0.22485848  0.66009898  1
  Cl  Cl13  1  0.96763931  0.77514152  0.33990102  1
  Cl  Cl14  1  0.77514152  0.80750220  0.66009898  1
  Cl  Cl15  1  0.03236069  0.80750220  0.83990102  1
  Cl  Cl16  1  0.22485848  0.19249780  0.33990102  1
  Cl  Cl17  1  0.96763931  0.19249780  0.16009898  1
  Cl  Cl18  1  0.19249780  0.96763931  0.66009898  1
  Cl  Cl19  1  0.77514152  0.96763931  0.83990102  1
  Cl  Cl20  1  0.80750220  0.03236069  0.33990102  1
  Cl  Cl21  1  0.22485848  0.03236069  0.16009898  1
  Cl  Cl22  1  0.19249780  0.22485848  0.83990102  1
  Cl  Cl23  1  0.80750220  0.77514152  0.16009898  1
  Cl  Cl24  1  0.25830054  0.41650232  0.49990879  1
  Cl  Cl25  1  0.74169946  0.58349768  0.50009121  1
  Cl  Cl26  1  0.58349768  0.84179822  0.49990879  1
  Cl  Cl27  1  0.25830054  0.84179822  0.00009121  1
  Cl  Cl28  1  0.41650232  0.15820178  0.50009121  1
  Cl  Cl29  1  0.74169946  0.15820178  0.99990879  1
  Cl  Cl30  1  0.15820178  0.74169946  0.49990879  1
  Cl  Cl31  1  0.58349768  0.74169946  0.00009121  1
  Cl  Cl32  1  0.84179822  0.25830054  0.50009121  1
  Cl  Cl33  1  0.41650232  0.25830054  0.99990879  1
  Cl  Cl34  1  0.15820178  0.41650232  0.00009121  1
  Cl  Cl35  1  0.84179822  0.58349768  0.99990879  1
loop_
_geom_bond_atom_site_label_1
_geom_bond_atom_site_label_2
_geom_bond_distance
_geom_bond_site_symmetry_2
Cl0 Ta0 2.599509 1_555
Cl0 Sr0 2.934795 1_555
Cl0 Cs0 3.706737 1_545
Cl1 Ta1 2.599509 1_555
Cl1 Sr1 2.934795 1_555
Cl1 Cs1 3.706737 1_565
Cl2 Ta2 2.599509 1_555
Cl2 Sr0 2.934798 1_555
Cl2 Cs0 3.706735 1_655
Cl3 Ta3 2.599509 1_555
Cl3 Sr0 2.934803 1_555
Cl3 Cs0 3.706743 1_555
Cl4 Ta4 2.599509 1_555
Cl4 Sr1 2.934798 1_555
Cl4 Cs1 3.706735 1_455
Cl5 Ta5 2.599509 1_555
Cl5 Sr1 2.934803 1_555
Cl5 Cs1 3.706743 1_555
Cl6 Ta6 2.599509 1_555
Cl6 Sr0 2.934803 1_555
Cl6 Cs0 3.706743 1_555
Cl7 Ta7 2.599509 1_555
Cl7 Sr0 2.934795 1_555
Cl7 Cs0 3.706737 1_655
Cl8 Ta8 2.599509 1_555
Cl8 Sr1 2.934803 1_555
Cl8 Cs1 3.706743 1_555
Cl9 Ta9 2.599509 1_555
Cl9 Sr1 2.934795 1_555
Cl9 Cs1 3.706737 1_455
Cl10 Ta10 2.599509 1_555
Cl10 Sr0 2.934798 1_555
Cl10 Cs0 3.706735 1_545
Cl11 Ta11 2.599509 1_555
Cl11 Sr1 2.934798 1_555
Cl11 Cs1 3.706735 1_565
Cl12 Ta0 2.444123 1_455
Cl12 Ta6 2.451164 1_555
Cl12 Cs0 3.994473 1_555
Cl13 Ta1 2.444123 1_655
Cl13 Ta8 2.451164 1_555
Cl13 Cs1 3.994473 1_555
Cl14 Ta2 2.444123 1_555
Cl14 Ta0 2.451164 1_565
Cl14 Cs0 3.994475 1_555
Cl15 Ta3 2.444124 1_455
Cl15 Ta10 2.451164 1_565
Cl15 Cs0 3.994466 1_555
Cl16 Ta4 2.444123 1_555
Cl16 Ta1 2.451164 1_545
Cl16 Cs1 3.994475 1_555
Cl17 Ta5 2.444124 1_655
Cl17 Ta11 2.451164 1_545
Cl17 Cs1 3.994466 1_555
Cl18 Ta6 2.444124 1_565
Cl18 Ta2 2.451164 1_455
Cl18 Cs0 3.994466 1_555
Cl19 Ta7 2.444123 1_565
Cl19 Ta3 2.451164 1_555
Cl19 Cs0 3.994473 1_555
Cl20 Ta8 2.444124 1_545
Cl20 Ta4 2.451164 1_655
Cl20 Cs1 3.994466 1_555
Cl21 Ta9 2.444123 1_545
Cl21 Ta5 2.451164 1_555
Cl21 Cs1 3.994473 1_555
Cl22 Ta10 2.444123 1_555
Cl22 Ta7 2.451164 1_455
Cl22 Cs0 3.994475 1_555
Cl23 Ta11 2.444123 1_555
Cl23 Ta9 2.451164 1_655
Cl23 Cs1 3.994475 1_555
Cl24 Ta6 2.443882 1_555
Cl24 Ta4 2.445624 1_555
Cl25 Ta8 2.443882 1_555
Cl25 Ta2 2.445624 1_555
Cl26 Ta0 2.443882 1_565
Cl26 Ta8 2.445624 1_555
Cl27 Ta10 2.443882 1_564
Cl27 Ta9 2.445624 1_555
Cl28 Ta1 2.443882 1_545
Cl28 Ta6 2.445624 1_555
Cl29 Ta11 2.443882 1_546
Cl29 Ta7 2.445624 1_555
Cl30 Ta2 2.443882 1_455
Cl30 Ta1 2.445624 1_555
Cl31 Ta3 2.443882 1_554
Cl31 Ta11 2.445624 1_555
Cl32 Ta4 2.443882 1_655
Cl32 Ta0 2.445624 1_555
Cl33 Ta5 2.443882 1_556
Cl33 Ta10 2.445624 1_555
Cl34 Ta7 2.443882 1_454
Cl34 Ta5 2.445624 1_555
Cl35 Ta9 2.443882 1_656
Cl35 Ta3 2.445624 1_555
