# generated using pymatgen
data_Ho20In40Rh19
_symmetry_space_group_name_H-M   'P 1'
_cell_length_a   13.55206900
_cell_length_b   13.55206900
_cell_length_c   9.39701900
_cell_angle_alpha   90.00000000
_cell_angle_beta   90.00000000
_cell_angle_gamma   90.00000000
_symmetry_Int_Tables_number   1
_chemical_formula_structural   Ho20In40Rh19
_chemical_formula_sum   'Ho20 In40 Rh19'
_cell_volume   1725.84311109
_cell_formula_units_Z   1
loop_
 _symmetry_equiv_pos_site_id
 _symmetry_equiv_pos_as_xyz
  1  'x, y, z'
loop_
 _atom_site_type_symbol
 _atom_site_label
 _atom_site_symmetry_multiplicity
 _atom_site_fract_x
 _atom_site_fract_y
 _atom_site_fract_z
 _atom_site_occupancy
  Ho  Ho0  1  0.50000000  0.00000000  0.84932100  1
  Ho  Ho1  1  0.00000000  0.50000000  0.15067900  1
  Ho  Ho2  1  0.50000000  0.00000000  0.35748500  1
  Ho  Ho3  1  0.00000000  0.50000000  0.64251500  1
  Ho  Ho4  1  0.70355900  0.79831000  0.26339300  1
  Ho  Ho5  1  0.29644100  0.79831000  0.26339300  1
  Ho  Ho6  1  0.70355900  0.20169000  0.26339300  1
  Ho  Ho7  1  0.29644100  0.20169000  0.26339300  1
  Ho  Ho8  1  0.79831000  0.70355900  0.73660700  1
  Ho  Ho9  1  0.20169000  0.70355900  0.73660700  1
  Ho  Ho10  1  0.79831000  0.29644100  0.73660700  1
  Ho  Ho11  1  0.20169000  0.29644100  0.73660700  1
  Ho  Ho12  1  0.77468700  0.00000000  0.76953400  1
  Ho  Ho13  1  0.22531300  0.00000000  0.76953400  1
  Ho  Ho14  1  0.50000000  0.72308400  0.76678200  1
  Ho  Ho15  1  0.50000000  0.27691600  0.76678200  1
  Ho  Ho16  1  0.72308400  0.50000000  0.23321800  1
  Ho  Ho17  1  0.27691600  0.50000000  0.23321800  1
  Ho  Ho18  1  0.00000000  0.77468700  0.23046600  1
  Ho  Ho19  1  0.00000000  0.22531300  0.23046600  1
  In  In0  1  0.15031600  0.15031600  0.00000000  1
  In  In1  1  0.84968400  0.15031600  0.00000000  1
  In  In2  1  0.15031600  0.84968400  0.00000000  1
  In  In3  1  0.84968400  0.84968400  0.00000000  1
  In  In4  1  0.34985000  0.34985000  0.00000000  1
  In  In5  1  0.65015000  0.34985000  0.00000000  1
  In  In6  1  0.34985000  0.65015000  0.00000000  1
  In  In7  1  0.65015000  0.65015000  0.00000000  1
  In  In8  1  0.33071400  0.00000000  0.09844200  1
  In  In9  1  0.66928600  0.00000000  0.09844200  1
  In  In10  1  0.50000000  0.16936200  0.09831100  1
  In  In11  1  0.50000000  0.83063800  0.09831100  1
  In  In12  1  0.16936200  0.50000000  0.90168900  1
  In  In13  1  0.83063800  0.50000000  0.90168900  1
  In  In14  1  0.00000000  0.33071400  0.90155800  1
  In  In15  1  0.00000000  0.66928600  0.90155800  1
  In  In16  1  0.11319700  0.00000000  0.23924100  1
  In  In17  1  0.88680300  0.00000000  0.23924100  1
  In  In18  1  0.50000000  0.38568600  0.24001000  1
  In  In19  1  0.50000000  0.61431400  0.24001000  1
  In  In20  1  0.38568600  0.50000000  0.75999000  1
  In  In21  1  0.61431400  0.50000000  0.75999000  1
  In  In22  1  0.00000000  0.11319700  0.76075900  1
  In  In23  1  0.00000000  0.88680300  0.76075900  1
  In  In24  1  0.64020100  0.64020100  0.50000000  1
  In  In25  1  0.35979900  0.64020100  0.50000000  1
  In  In26  1  0.64020100  0.35979900  0.50000000  1
  In  In27  1  0.35979900  0.35979900  0.50000000  1
  In  In28  1  0.86745500  0.86745500  0.50000000  1
  In  In29  1  0.13254500  0.86745500  0.50000000  1
  In  In30  1  0.86745500  0.13254500  0.50000000  1
  In  In31  1  0.13254500  0.13254500  0.50000000  1
  In  In32  1  0.63043200  0.86966100  0.59461600  1
  In  In33  1  0.36956800  0.86966100  0.59461600  1
  In  In34  1  0.63043200  0.13033900  0.59461600  1
  In  In35  1  0.36956800  0.13033900  0.59461600  1
  In  In36  1  0.86966100  0.63043200  0.40538400  1
  In  In37  1  0.13033900  0.63043200  0.40538400  1
  In  In38  1  0.86966100  0.36956800  0.40538400  1
  In  In39  1  0.13033900  0.36956800  0.40538400  1
  Rh  Rh0  1  0.27751700  0.00000000  0.40653500  1
  Rh  Rh1  1  0.72248300  0.00000000  0.40653500  1
  Rh  Rh2  1  0.50000000  0.22053400  0.40609100  1
  Rh  Rh3  1  0.50000000  0.77946600  0.40609100  1
  Rh  Rh4  1  0.22053400  0.50000000  0.59390900  1
  Rh  Rh5  1  0.77946600  0.50000000  0.59390900  1
  Rh  Rh6  1  0.00000000  0.27751700  0.59346500  1
  Rh  Rh7  1  0.00000000  0.72248300  0.59346500  1
  Rh  Rh8  1  0.84505700  0.65464500  0.10535500  1
  Rh  Rh9  1  0.15494300  0.65464500  0.10535500  1
  Rh  Rh10  1  0.84505700  0.34535500  0.10535500  1
  Rh  Rh11  1  0.15494300  0.34535500  0.10535500  1
  Rh  Rh12  1  0.65464500  0.84505700  0.89464500  1
  Rh  Rh13  1  0.34535500  0.84505700  0.89464500  1
  Rh  Rh14  1  0.65464500  0.15494300  0.89464500  1
  Rh  Rh15  1  0.34535500  0.15494300  0.89464500  1
  Rh  Rh16  1  0.00000000  0.00000000  0.00000000  1
  Rh  Rh17  1  0.50000000  0.50000000  0.00000000  1
  Rh  Rh18  1  0.50000000  0.50000000  0.50000000  1
loop_
_geom_bond_atom_site_label_1
_geom_bond_atom_site_label_2
_geom_bond_distance
_geom_bond_site_symmetry_2
Ho0 Rh15 2.997125 1_555
Ho0 Rh14 2.997125 1_555
Ho0 Rh13 2.997125 1_545
Ho0 Rh12 2.997125 1_545
Ho0 In10 3.277570 1_556
Ho0 In11 3.277570 1_546
Ho0 In9 3.277728 1_556
Ho0 In8 3.277728 1_556
Ho0 In35 3.460234 1_555
Ho0 In33 3.460234 1_545
Ho0 In32 3.460234 1_545
Ho0 In34 3.460234 1_555
Ho1 Rh11 2.997125 1_555
Ho1 Rh9 2.997125 1_555
Ho1 Rh10 2.997125 1_455
Ho1 Rh8 2.997125 1_455
Ho1 In13 3.277570 1_454
Ho1 In12 3.277570 1_554
Ho1 In14 3.277728 1_554
Ho1 In15 3.277728 1_554
Ho1 In38 3.460234 1_455
Ho1 In37 3.460234 1_555
Ho1 In39 3.460234 1_555
Ho1 In36 3.460234 1_455
Ho2 Rh3 3.023392 1_545
Ho2 Rh2 3.023392 1_555
Ho2 Rh1 3.050133 1_555
Ho2 Rh0 3.050133 1_555
Ho2 In8 3.344955 1_555
Ho2 In9 3.344955 1_555
Ho2 In11 3.346558 1_545
Ho2 In10 3.346558 1_555
Ho2 In32 3.348128 1_545
Ho2 In33 3.348128 1_545
Ho2 In35 3.348128 1_555
Ho2 In34 3.348128 1_555
Ho3 Rh5 3.023392 1_455
Ho3 Rh4 3.023392 1_555
Ho3 Rh7 3.050133 1_555
Ho3 Rh6 3.050133 1_555
Ho3 In14 3.344955 1_555
Ho3 In15 3.344955 1_555
Ho3 In12 3.346558 1_555
Ho3 In13 3.346558 1_455
Ho3 In38 3.348128 1_455
Ho3 In37 3.348128 1_555
Ho3 In39 3.348128 1_555
Ho3 In36 3.348128 1_455
Ho4 Rh1 3.057140 1_565
Ho4 Rh3 3.077897 1_555
Ho4 Rh8 3.110190 1_555
Ho4 In9 3.176382 1_565
Ho4 In11 3.195079 1_555
Ho4 In24 3.204987 1_555
Ho4 In3 3.245376 1_555
Ho4 In7 3.268274 1_555
Ho4 In28 3.279482 1_555
Ho4 In32 3.406587 1_555
Ho4 In36 3.467493 1_555
Ho4 Rh12 3.584397 1_554
Ho4 In17 3.699930 1_565
Ho4 In19 3.725061 1_555
Ho5 Rh0 3.057140 1_565
Ho5 Rh3 3.077897 1_555
Ho5 Rh9 3.110190 1_555
Ho5 In8 3.176382 1_565
Ho5 In11 3.195079 1_555
Ho5 In25 3.204987 1_555
Ho5 In2 3.245376 1_555
Ho5 In6 3.268274 1_555
Ho5 In29 3.279482 1_555
Ho5 In33 3.406587 1_555
Ho5 In37 3.467493 1_555
Ho5 Rh13 3.584397 1_554
Ho5 In16 3.699930 1_565
Ho5 In19 3.725061 1_555
Ho6 Rh1 3.057140 1_555
Ho6 Rh2 3.077897 1_555
Ho6 Rh10 3.110190 1_555
Ho6 In9 3.176382 1_555
Ho6 In10 3.195079 1_555
Ho6 In26 3.204987 1_555
Ho6 In1 3.245376 1_555
Ho6 In5 3.268274 1_555
Ho6 In30 3.279482 1_555
Ho6 In34 3.406587 1_555
Ho6 In38 3.467493 1_555
Ho6 Rh14 3.584397 1_554
Ho6 In17 3.699930 1_555
Ho6 In18 3.725061 1_555
Ho7 Rh0 3.057140 1_555
Ho7 Rh2 3.077897 1_555
Ho7 Rh11 3.110190 1_555
Ho7 In8 3.176382 1_555
Ho7 In10 3.195079 1_555
Ho7 In27 3.204987 1_555
Ho7 In0 3.245376 1_555
Ho7 In4 3.268274 1_555
Ho7 In31 3.279482 1_555
Ho7 In35 3.406587 1_555
Ho7 In39 3.467493 1_555
Ho7 Rh15 3.584397 1_554
Ho7 In16 3.699930 1_555
Ho7 In18 3.725061 1_555
Ho8 Rh7 3.057140 1_655
Ho8 Rh5 3.077897 1_555
Ho8 Rh12 3.110190 1_555
Ho8 In15 3.176382 1_655
Ho8 In13 3.195079 1_555
Ho8 In24 3.204987 1_555
Ho8 In3 3.245376 1_556
Ho8 In7 3.268274 1_556
Ho8 In28 3.279482 1_555
Ho8 In36 3.406587 1_555
Ho8 In32 3.467493 1_555
Ho8 Rh8 3.584397 1_556
Ho8 In23 3.699930 1_655
Ho8 In21 3.725061 1_555
Ho9 Rh7 3.057140 1_555
Ho9 Rh4 3.077897 1_555
Ho9 Rh13 3.110190 1_555
Ho9 In15 3.176382 1_555
Ho9 In12 3.195079 1_555
Ho9 In25 3.204987 1_555
Ho9 In2 3.245376 1_556
Ho9 In6 3.268274 1_556
Ho9 In29 3.279482 1_555
Ho9 In37 3.406587 1_555
Ho9 In33 3.467493 1_555
Ho9 Rh9 3.584397 1_556
Ho9 In23 3.699930 1_555
Ho9 In20 3.725061 1_555
Ho10 Rh6 3.057140 1_655
Ho10 Rh5 3.077897 1_555
Ho10 Rh14 3.110190 1_555
Ho10 In14 3.176382 1_655
Ho10 In13 3.195079 1_555
Ho10 In26 3.204987 1_555
Ho10 In1 3.245376 1_556
Ho10 In5 3.268274 1_556
Ho10 In30 3.279482 1_555
Ho10 In38 3.406587 1_555
Ho10 In34 3.467493 1_555
Ho10 Rh10 3.584397 1_556
Ho10 In22 3.699930 1_655
Ho10 In21 3.725061 1_555
Ho11 Rh6 3.057140 1_555
Ho11 Rh4 3.077897 1_555
Ho11 Rh15 3.110190 1_555
Ho11 In14 3.176382 1_555
Ho11 In12 3.195079 1_555
Ho11 In27 3.204987 1_555
Ho11 In0 3.245376 1_556
Ho11 In4 3.268274 1_556
Ho11 In31 3.279482 1_555
Ho11 In39 3.406587 1_555
Ho11 In35 3.467493 1_555
Ho11 Rh11 3.584397 1_556
Ho11 In22 3.699930 1_555
Ho11 In20 3.725061 1_555
Ho12 Rh14 2.904804 1_555
Ho12 Rh12 2.904804 1_545
Ho12 In32 3.105424 1_545
Ho12 In34 3.105424 1_555
Ho12 In1 3.142129 1_556
Ho12 In3 3.142129 1_546
Ho12 In9 3.404864 1_556
Ho13 Rh15 2.904804 1_555
Ho13 Rh13 2.904804 1_545
Ho13 In33 3.105424 1_545
Ho13 In35 3.105424 1_555
Ho13 In0 3.142129 1_556
Ho13 In2 3.142129 1_546
Ho13 In8 3.404864 1_556
Ho14 Rh13 2.927157 1_555
Ho14 Rh12 2.927157 1_555
Ho14 In33 3.112522 1_555
Ho14 In32 3.112522 1_555
Ho14 In7 3.149673 1_556
Ho14 In6 3.149673 1_556
Ho14 In24 3.340140 1_555
Ho14 In25 3.340140 1_555
Ho14 In11 3.439499 1_556
Ho15 Rh15 2.927157 1_555
Ho15 Rh14 2.927157 1_555
Ho15 In34 3.112522 1_555
Ho15 In35 3.112522 1_555
Ho15 In4 3.149673 1_556
Ho15 In5 3.149673 1_556
Ho15 In26 3.340140 1_555
Ho15 In27 3.340140 1_555
Ho15 In10 3.439499 1_556
Ho16 Rh10 2.927157 1_555
Ho16 Rh8 2.927157 1_555
Ho16 In36 3.112522 1_555
Ho16 In38 3.112522 1_555
Ho16 In7 3.149673 1_555
Ho16 In5 3.149673 1_555
Ho16 In26 3.340140 1_555
Ho16 In24 3.340140 1_555
Ho16 In13 3.439499 1_554
Ho17 Rh11 2.927157 1_555
Ho17 Rh9 2.927157 1_555
Ho17 In39 3.112522 1_555
Ho17 In37 3.112522 1_555
Ho17 In6 3.149673 1_555
Ho17 In4 3.149673 1_555
Ho17 In25 3.340140 1_555
Ho17 In27 3.340140 1_555
Ho17 In12 3.439499 1_554
Ho18 Rh9 2.904804 1_555
Ho18 Rh8 2.904804 1_455
Ho18 In36 3.105424 1_455
Ho18 In37 3.105424 1_555
Ho18 In2 3.142129 1_555
Ho18 In3 3.142129 1_455
Ho18 In15 3.404864 1_554
Ho19 Rh11 2.904804 1_555
Ho19 Rh10 2.904804 1_455
Ho19 In38 3.105424 1_455
Ho19 In39 3.105424 1_555
Ho19 In1 3.142129 1_455
Ho19 In0 3.142129 1_555
Ho19 In14 3.404864 1_554
In0 Rh15 2.823205 1_554
In0 Rh11 2.823205 1_555
In0 Rh16 2.880884 1_555
In0 In8 3.313965 1_555
In0 In14 3.313965 1_554
In1 Rh14 2.823205 1_554
In1 Rh10 2.823205 1_555
In1 Rh16 2.880884 1_655
In1 In9 3.313965 1_555
In1 In14 3.313965 1_654
In2 Rh9 2.823205 1_555
In2 Rh13 2.823205 1_554
In2 Rh16 2.880884 1_565
In2 In8 3.313965 1_565
In3 Rh12 2.823205 1_554
In3 Rh8 2.823205 1_555
In3 Rh16 2.880884 1_665
In3 In9 3.313965 1_565
In4 Rh15 2.821491 1_554
In4 Rh11 2.821491 1_555
In4 Rh17 2.877703 1_555
In5 Rh10 2.821491 1_555
In5 Rh14 2.821491 1_554
In5 Rh17 2.877703 1_555
In6 Rh13 2.821491 1_554
In6 Rh9 2.821491 1_555
In6 Rh17 2.877703 1_555
In7 Rh12 2.821491 1_554
In7 Rh8 2.821491 1_555
In7 Rh17 2.877703 1_555
In8 Rh15 2.848872 1_554
In8 Rh13 2.848872 1_544
In8 Rh0 2.983566 1_555
In9 Rh14 2.848872 1_554
In9 Rh12 2.848872 1_544
In9 Rh1 2.983566 1_555
In10 Rh15 2.844860 1_554
In10 Rh14 2.844860 1_554
In10 Rh2 2.974194 1_555
In10 In18 3.219863 1_555
In10 In8 3.245183 1_555
In10 In9 3.245183 1_555
In10 In4 3.313140 1_555
In10 In5 3.313140 1_555
In11 Rh13 2.844860 1_554
In11 Rh12 2.844860 1_554
In11 Rh3 2.974194 1_555
In11 In19 3.219863 1_555
In11 In8 3.245183 1_565
In11 In9 3.245183 1_565
In11 In6 3.313140 1_555
In11 In7 3.313140 1_555
In12 Rh11 2.844860 1_556
In12 Rh9 2.844860 1_556
In12 Rh4 2.974194 1_555
In12 In20 3.219863 1_555
In12 In14 3.245183 1_555
In12 In15 3.245183 1_555
In12 In6 3.313140 1_556
In12 In4 3.313140 1_556
In13 Rh10 2.844860 1_556
In13 Rh8 2.844860 1_556
In13 Rh5 2.974194 1_555
In13 In21 3.219863 1_555
In13 In14 3.245183 1_655
In13 In15 3.245183 1_655
In13 In5 3.313140 1_556
In13 In7 3.313140 1_556
In14 Rh11 2.848872 1_556
In14 Rh10 2.848872 1_456
In14 Rh6 2.983566 1_555
In14 In22 3.231118 1_555
In15 Rh9 2.848872 1_556
In15 Rh8 2.848872 1_456
In15 Rh7 2.983566 1_555
In15 In23 3.231118 1_555
In15 In3 3.313965 1_456
In15 In2 3.313965 1_556
In16 Rh16 2.721674 1_555
In16 Rh0 2.725870 1_555
In16 In8 3.231118 1_555
In17 Rh16 2.721674 1_655
In17 Rh1 2.725870 1_555
In17 In9 3.231118 1_555
In18 Rh2 2.728553 1_555
In18 Rh17 2.736188 1_555
In18 Rh18 2.892902 1_555
In19 Rh3 2.728553 1_555
In19 Rh17 2.736188 1_555
In19 Rh18 2.892902 1_555
In20 Rh4 2.728553 1_555
In20 Rh17 2.736188 1_556
In20 Rh18 2.892902 1_555
In21 Rh5 2.728553 1_555
In21 Rh17 2.736188 1_556
In21 Rh18 2.892902 1_555
In22 Rh16 2.721674 1_556
In22 Rh6 2.725870 1_555
In23 Rh16 2.721674 1_566
In23 Rh7 2.725870 1_555
In24 Rh18 2.687025 1_555
In24 Rh3 2.819717 1_555
In24 Rh5 2.819717 1_555
In25 Rh18 2.687025 1_555
In25 Rh3 2.819717 1_555
In25 Rh4 2.819717 1_555
In26 Rh18 2.687025 1_555
In26 Rh2 2.819717 1_555
In26 Rh5 2.819717 1_555
In27 Rh18 2.687025 1_555
In27 Rh4 2.819717 1_555
In27 Rh2 2.819717 1_555
In28 Rh1 2.803190 1_565
In28 Rh7 2.803190 1_655
In29 Rh7 2.803190 1_555
In29 Rh0 2.803190 1_565
In30 Rh1 2.803190 1_555
In30 Rh6 2.803190 1_655
In31 Rh6 2.803190 1_555
In31 Rh0 2.803190 1_555
In32 Rh3 2.785148 1_555
In32 Rh1 2.792840 1_565
In32 Rh12 2.857927 1_555
In33 Rh3 2.785148 1_555
In33 Rh0 2.792840 1_565
In33 Rh13 2.857927 1_555
In34 Rh2 2.785148 1_555
In34 Rh1 2.792840 1_555
In34 Rh14 2.857927 1_555
In35 Rh2 2.785148 1_555
In35 Rh0 2.792840 1_555
In35 Rh15 2.857927 1_555
In36 Rh5 2.785148 1_555
In36 Rh7 2.792840 1_655
In36 Rh8 2.857927 1_555
In37 Rh4 2.785148 1_555
In37 Rh7 2.792840 1_555
In37 Rh9 2.857927 1_555
In38 Rh5 2.785148 1_555
In38 Rh6 2.792840 1_655
In38 Rh10 2.857927 1_555
In39 Rh4 2.785148 1_555
In39 Rh6 2.792840 1_555
In39 Rh11 2.857927 1_555
