# generated using pymatgen
data_MgH4C4S4(OF)12
_symmetry_space_group_name_H-M   'P 1'
_cell_length_a   5.38456547
_cell_length_b   9.04514888
_cell_length_c   11.80356660
_cell_angle_alpha   86.88450133
_cell_angle_beta   89.35522478
_cell_angle_gamma   103.82803969
_symmetry_Int_Tables_number   1
_chemical_formula_structural   MgH4C4S4(OF)12
_chemical_formula_sum   'Mg1 H4 C4 S4 O12 F12'
_cell_volume   557.22231848
_cell_formula_units_Z   1
loop_
 _symmetry_equiv_pos_site_id
 _symmetry_equiv_pos_as_xyz
  1  'x, y, z'
loop_
 _atom_site_type_symbol
 _atom_site_label
 _atom_site_symmetry_multiplicity
 _atom_site_fract_x
 _atom_site_fract_y
 _atom_site_fract_z
 _atom_site_occupancy
  Mg  Mg0  1  0.91372465  0.47823738  0.84181216  1
  H  H0  1  0.51116210  0.51423160  0.74173697  1
  H  H1  1  0.95469053  0.94228007  0.77127225  1
  H  H2  1  0.50223498  0.48931080  0.24976600  1
  H  H3  1  0.98969158  0.97535006  0.25737575  1
  C  C0  1  0.51062772  0.87239071  0.95600513  1
  C  C1  1  0.87929776  0.23248901  0.55496697  1
  C  C2  1  0.56820229  0.25986145  0.05863556  1
  C  C3  1  0.08085158  0.75723237  0.44577301  1
  S  S0  1  0.59998482  0.75987759  0.81373477  1
  S  S1  1  0.04699196  0.24833226  0.69374346  1
  S  S2  1  0.43921470  0.25261930  0.20924560  1
  S  S3  1  0.93124166  0.73385238  0.30233473  1
  O  O0  1  0.67508053  0.58039921  0.76541016  1
  O  O1  1  0.10963244  0.10195111  0.71590825  1
  O  O2  1  0.36590915  0.40805237  0.21380415  1
  O  O3  1  0.84597935  0.88723389  0.28476983  1
  O  O4  1  0.89486572  0.83690501  0.81153985  1
  O  O5  1  0.26182292  0.38026412  0.67521490  1
  O  O6  1  0.20516158  0.13568096  0.20836065  1
  O  O7  1  0.69777096  0.61563171  0.31852075  1
  O  O8  1  0.46693294  0.81050975  0.71936846  1
  O  O9  1  0.85152936  0.27629133  0.77524127  1
  O  O10  1  0.64377028  0.23983380  0.28231363  1
  O  O11  1  0.12675679  0.72109545  0.22290878  1
  F  F0  1  0.26394937  0.83707677  0.98393022  1
  F  F1  1  0.79268023  0.35871442  0.53140228  1
  F  F2  1  0.72497202  0.16497084  0.05479498  1
  F  F3  1  0.18305824  0.63805660  0.47117964  1
  F  F4  1  0.21676563  0.53585207  0.91005226  1
  F  F5  1  0.68163401  0.10907423  0.55933183  1
  F  F6  1  0.71017525  0.40465054  0.02450709  1
  F  F7  1  0.26685694  0.88730612  0.44008664  1
  F  F8  1  0.63007172  0.82819600  0.04642279  1
  F  F9  1  0.04797804  0.21953104  0.47248190  1
  F  F10  1  0.37935823  0.22049140  0.98539910  1
  F  F11  1  0.90437195  0.76473727  0.52509226  1
loop_
_geom_bond_atom_site_label_1
_geom_bond_atom_site_label_2
_geom_bond_distance
_geom_bond_site_symmetry_2
Mg0 O0 1.954865 1_555
Mg0 O9 1.983860 1_555
H0 O0 0.993241 1_555
H1 O4 1.019159 1_555
H1 O1 1.586857 1_665
H2 O2 1.020910 1_555
H2 O7 1.617913 1_555
H3 O3 1.005059 1_555
H3 O6 1.695094 1_665
C0 F0 1.323190 1_555
C0 F8 1.343295 1_556
C1 F5 1.343938 1_555
C1 F1 1.349585 1_555
C1 F9 1.352780 1_655
C2 F10 1.337240 1_554
C2 F2 1.342014 1_555
C2 F6 1.385273 1_555
C3 F11 1.342348 1_455
C3 F3 1.344234 1_555
C3 F7 1.348512 1_555
O0 S0 1.879780 1_555
O1 S1 1.453651 1_555
O2 S2 1.551874 1_555
O3 S3 1.566482 1_555
O4 S0 1.573379 1_555
O5 S1 1.454678 1_555
O6 S2 1.439261 1_555
O7 S3 1.445734 1_555
O8 S0 1.443275 1_555
O9 S1 1.492628 1_655
O10 S2 1.428923 1_555
O11 S3 1.431141 1_455
F4 Mg0 1.803243 1_455
F6 Mg0 2.395130 1_554
