# generated using pymatgen
data_Al2CrFeCo4
_symmetry_space_group_name_H-M   'P 1'
_cell_length_a   6.97301510
_cell_length_b   6.97301510
_cell_length_c   6.97301552
_cell_angle_alpha   33.60035977
_cell_angle_beta   33.60035977
_cell_angle_gamma   33.60035903
_symmetry_Int_Tables_number   1
_chemical_formula_structural   Al2CrFeCo4
_chemical_formula_sum   'Al2 Cr1 Fe1 Co4'
_cell_volume   92.49298329
_cell_formula_units_Z   1
loop_
 _symmetry_equiv_pos_site_id
 _symmetry_equiv_pos_as_xyz
  1  'x, y, z'
loop_
 _atom_site_type_symbol
 _atom_site_label
 _atom_site_symmetry_multiplicity
 _atom_site_fract_x
 _atom_site_fract_y
 _atom_site_fract_z
 _atom_site_occupancy
  Al  Al0  1  0.25044300  0.25044300  0.25044300  1
  Al  Al1  1  0.74955700  0.74955700  0.74955700  1
  Cr  Cr0  1  0.00000000  0.00000000  0.00000000  1
  Fe  Fe0  1  0.50000000  0.50000000  0.50000000  1
  Co  Co0  1  0.62485900  0.62485900  0.62485900  1
  Co  Co1  1  0.12538500  0.12538500  0.12538500  1
  Co  Co2  1  0.87461500  0.87461500  0.87461500  1
  Co  Co3  1  0.37514100  0.37514100  0.37514100  1
loop_
_geom_bond_atom_site_label_1
_geom_bond_atom_site_label_2
_geom_bond_distance
_geom_bond_site_symmetry_2
Al0 Co3 2.458994 1_555
Al0 Co0 2.464211 1_554
Al0 Co0 2.464211 1_545
Al0 Co0 2.464211 1_455
Al0 Co1 2.466093 1_555
Al0 Co2 2.473505 1_445
Al0 Co2 2.473505 1_454
Al0 Co2 2.473505 1_544
Al0 Fe0 2.853987 1_545
Al0 Fe0 2.853987 1_455
Al0 Fe0 2.853987 1_554
Al1 Co0 2.458994 1_555
Al1 Co3 2.464211 1_556
Al1 Co3 2.464211 1_565
Al1 Co3 2.464211 1_655
Al1 Co2 2.466093 1_555
Al1 Co1 2.473505 1_665
Al1 Co1 2.473505 1_566
Al1 Co1 2.473505 1_656
Al1 Fe0 2.853987 1_565
Al1 Fe0 2.853987 1_655
Al1 Fe0 2.853987 1_556
Co0 Fe0 2.462168 1_555
Co0 Cr0 2.468948 1_665
Co0 Cr0 2.468948 1_566
Co0 Cr0 2.468948 1_656
Co1 Fe0 2.465504 1_554
Co1 Fe0 2.465504 1_455
Co1 Fe0 2.465504 1_545
Co1 Cr0 2.472541 1_555
Co2 Fe0 2.465504 1_556
Co2 Fe0 2.465504 1_565
Co2 Fe0 2.465504 1_655
Co2 Cr0 2.472541 1_666
Co3 Fe0 2.462168 1_555
Co3 Cr0 2.468948 1_556
Co3 Cr0 2.468948 1_565
Co3 Cr0 2.468948 1_655
