# generated using pymatgen
data_ErCoSn
_symmetry_space_group_name_H-M   'P 1'
_cell_length_a   4.54469294
_cell_length_b   7.25427696
_cell_length_c   7.48794235
_cell_angle_alpha   89.99977659
_cell_angle_beta   90.00000000
_cell_angle_gamma   90.00000000
_symmetry_Int_Tables_number   1
_chemical_formula_structural   ErCoSn
_chemical_formula_sum   'Er4 Co4 Sn4'
_cell_volume   246.86593747
_cell_formula_units_Z   4
loop_
 _symmetry_equiv_pos_site_id
 _symmetry_equiv_pos_as_xyz
  1  'x, y, z'
loop_
 _atom_site_type_symbol
 _atom_site_label
 _atom_site_symmetry_multiplicity
 _atom_site_fract_x
 _atom_site_fract_y
 _atom_site_fract_z
 _atom_site_occupancy
  Er  Er0  1  0.25000000  0.48148810  0.28379596  1
  Er  Er1  1  0.25000000  0.98149067  0.21622083  1
  Er  Er2  1  0.75000000  0.01850933  0.78377917  1
  Er  Er3  1  0.75000000  0.51851190  0.71620404  1
  Co  Co0  1  0.75000000  0.84297290  0.43371696  1
  Co  Co1  1  0.25000000  0.15702710  0.56628404  1
  Co  Co2  1  0.75000000  0.34297084  0.06629139  1
  Co  Co3  1  0.25000000  0.65702916  0.93370861  1
  Sn  Sn0  1  0.75000000  0.71359669  0.09984061  1
  Sn  Sn1  1  0.25000000  0.78640788  0.59982520  1
  Sn  Sn2  1  0.25000000  0.28640331  0.90015939  1
  Sn  Sn3  1  0.75000000  0.21359212  0.40017480  1
loop_
_geom_bond_atom_site_label_1
_geom_bond_atom_site_label_2
_geom_bond_distance
_geom_bond_site_symmetry_2
Er0 Sn3 3.114437 1_455
Er0 Sn3 3.114437 1_555
Er0 Sn0 3.145793 1_455
Er0 Sn0 3.145793 1_555
Er0 Sn2 3.202332 1_554
Er0 Sn1 3.239252 1_555
Er1 Sn0 3.114436 1_455
Er1 Sn0 3.114436 1_555
Er1 Sn3 3.145767 1_465
Er1 Sn3 3.145767 1_565
Er1 Sn1 3.202099 1_555
Er1 Sn2 3.239380 1_564
Er2 Sn2 3.114436 1_555
Er2 Sn2 3.114436 1_655
Er2 Sn1 3.145767 1_645
Er2 Sn1 3.145767 1_545
Er2 Sn3 3.202099 1_555
Er2 Sn0 3.239380 1_546
Er3 Sn1 3.114437 1_555
Er3 Sn1 3.114437 1_655
Er3 Sn2 3.145793 1_555
Er3 Sn2 3.145793 1_655
Er3 Sn0 3.202332 1_556
Er3 Sn3 3.239252 1_555
Co0 Sn1 2.622783 1_655
Co0 Sn1 2.622783 1_555
Co0 Sn0 2.670411 1_555
Co0 Sn3 2.700280 1_565
Co0 Er2 2.914185 1_565
Co0 Er1 2.970790 1_655
Co0 Er1 2.970790 1_555
Co0 Er3 3.164534 1_555
Co1 Sn3 2.622787 1_555
Co1 Sn3 2.622787 1_455
Co1 Sn2 2.670404 1_555
Co1 Sn1 2.700279 1_545
Co1 Er1 2.914192 1_545
Co1 Er2 2.970786 1_555
Co1 Er2 2.970786 1_455
Co1 Er0 3.164539 1_555
Co2 Sn2 2.622872 1_654
Co2 Sn2 2.622872 1_554
Co2 Sn3 2.670460 1_555
Co2 Sn0 2.700334 1_555
Co2 Er3 2.914360 1_554
Co2 Er0 2.970828 1_555
Co2 Er0 2.970828 1_655
Co2 Er2 3.164675 1_554
Co3 Sn0 2.622872 1_556
Co3 Sn0 2.622872 1_456
Co3 Sn1 2.670460 1_555
Co3 Sn2 2.700334 1_555
Co3 Er0 2.914360 1_556
Co3 Er3 2.970828 1_555
Co3 Er3 2.970828 1_455
Co3 Er1 3.164675 1_556
