# generated using pymatgen
data_Er4Ge6Os7
_symmetry_space_group_name_H-M   'P 1'
_cell_length_a   7.18240176
_cell_length_b   7.18240176
_cell_length_c   7.18240176
_cell_angle_alpha   109.47122063
_cell_angle_beta   109.47122063
_cell_angle_gamma   109.47122063
_symmetry_Int_Tables_number   1
_chemical_formula_structural   Er4Ge6Os7
_chemical_formula_sum   'Er4 Ge6 Os7'
_cell_volume   285.22473994
_cell_formula_units_Z   1
loop_
 _symmetry_equiv_pos_site_id
 _symmetry_equiv_pos_as_xyz
  1  'x, y, z'
loop_
 _atom_site_type_symbol
 _atom_site_label
 _atom_site_symmetry_multiplicity
 _atom_site_fract_x
 _atom_site_fract_y
 _atom_site_fract_z
 _atom_site_occupancy
  Er  Er0  1  -0.00000000  -0.00000000  0.50000000  1
  Er  Er1  1  -0.00000000  0.50000000  -0.00000000  1
  Er  Er2  1  0.50000000  -0.00000000  0.00000000  1
  Er  Er3  1  0.50000000  0.50000000  0.50000000  1
  Ge  Ge0  1  0.68864070  0.68864070  -0.00000000  1
  Ge  Ge1  1  0.31135930  0.00000000  0.31135930  1
  Ge  Ge2  1  0.00000000  0.31135930  0.31135930  1
  Ge  Ge3  1  0.31135930  0.31135930  0.00000000  1
  Ge  Ge4  1  0.68864070  -0.00000000  0.68864070  1
  Ge  Ge5  1  -0.00000000  0.68864070  0.68864070  1
  Os  Os0  1  0.75000000  0.25000000  0.50000000  1
  Os  Os1  1  0.75000000  0.50000000  0.25000000  1
  Os  Os2  1  0.50000000  0.25000000  0.75000000  1
  Os  Os3  1  0.25000000  0.50000000  0.75000000  1
  Os  Os4  1  0.25000000  0.75000000  0.50000000  1
  Os  Os5  1  0.50000000  0.75000000  0.25000000  1
  Os  Os6  1  -0.00000000  -0.00000000  0.00000000  1
loop_
_geom_bond_atom_site_label_1
_geom_bond_atom_site_label_2
_geom_bond_distance
_geom_bond_site_symmetry_2
Er0 Os5 2.932203 1_445
Er0 Os2 2.932203 1_555
Er0 Os0 2.932203 1_455
Er0 Os1 2.932203 1_445
Er0 Os3 2.932203 1_555
Er0 Os4 2.932203 1_545
Er0 Ge3 2.976034 1_556
Er0 Ge1 2.976034 1_555
Er0 Ge4 2.976034 1_455
Er0 Ge2 2.976034 1_555
Er0 Ge5 2.976034 1_545
Er0 Ge0 2.976034 1_445
Er1 Os4 2.932203 1_555
Er1 Os2 2.932203 1_454
Er1 Os5 2.932203 1_555
Er1 Os1 2.932203 1_455
Er1 Os0 2.932203 1_454
Er1 Os3 2.932203 1_554
Er1 Ge1 2.976034 1_565
Er1 Ge2 2.976034 1_555
Er1 Ge4 2.976034 1_454
Er1 Ge0 2.976034 1_455
Er1 Ge5 2.976034 1_554
Er1 Ge3 2.976034 1_555
Er2 Os1 2.932203 1_555
Er2 Os4 2.932203 1_544
Er2 Os5 2.932203 1_545
Er2 Os0 2.932203 1_555
Er2 Os3 2.932203 1_544
Er2 Os2 2.932203 1_554
Er2 Ge4 2.976034 1_554
Er2 Ge0 2.976034 1_545
Er2 Ge2 2.976034 1_655
Er2 Ge3 2.976034 1_555
Er2 Ge5 2.976034 1_544
Er2 Ge1 2.976034 1_555
Er3 Os4 2.932203 1_555
Er3 Os1 2.932203 1_555
Er3 Os2 2.932203 1_555
Er3 Os5 2.932203 1_555
Er3 Os0 2.932203 1_555
Er3 Os3 2.932203 1_555
Er3 Ge4 2.976034 1_565
Er3 Ge1 2.976034 1_555
Er3 Ge2 2.976034 1_555
Er3 Ge3 2.976034 1_555
Er3 Ge0 2.976034 1_556
Er3 Ge5 2.976034 1_655
Ge0 Os6 2.582266 1_665
Ge0 Os1 2.597413 1_555
Ge0 Os5 2.597413 1_555
Ge0 Os2 2.597413 1_554
Ge0 Os3 2.597413 1_554
Ge1 Os6 2.582266 1_555
Ge1 Os0 2.597413 1_555
Ge1 Os2 2.597413 1_555
Ge1 Os5 2.597413 1_545
Ge1 Os4 2.597413 1_545
Ge2 Os6 2.582266 1_555
Ge2 Os0 2.597413 1_455
Ge2 Os1 2.597413 1_455
Ge2 Os3 2.597413 1_555
Ge2 Os4 2.597413 1_555
Ge3 Os6 2.582266 1_555
Ge3 Os3 2.597413 1_554
Ge3 Os2 2.597413 1_554
Ge3 Os5 2.597413 1_555
Ge3 Os1 2.597413 1_555
Ge4 Os6 2.582266 1_656
Ge4 Os4 2.597413 1_545
Ge4 Os2 2.597413 1_555
Ge4 Os5 2.597413 1_545
Ge4 Os0 2.597413 1_555
Ge5 Os6 2.582266 1_566
Ge5 Os0 2.597413 1_455
Ge5 Os1 2.597413 1_455
Ge5 Os3 2.597413 1_555
Ge5 Os4 2.597413 1_555
