# generated using pymatgen
data_MgAl3SiBO9
_symmetry_space_group_name_H-M   'P 1'
_cell_length_a   5.81667000
_cell_length_b   10.43481800
_cell_length_c   11.10122000
_cell_angle_alpha   90.00000000
_cell_angle_beta   90.00000000
_cell_angle_gamma   90.00000000
_symmetry_Int_Tables_number   1
_chemical_formula_structural   MgAl3SiBO9
_chemical_formula_sum   'Mg4 Al12 Si4 B4 O36'
_cell_volume   673.79845925
_cell_formula_units_Z   4
loop_
 _symmetry_equiv_pos_site_id
 _symmetry_equiv_pos_as_xyz
  1  'x, y, z'
loop_
 _atom_site_type_symbol
 _atom_site_label
 _atom_site_symmetry_multiplicity
 _atom_site_fract_x
 _atom_site_fract_y
 _atom_site_fract_z
 _atom_site_occupancy
  Mg  Mg0  1  0.25000000  0.40725900  0.28120000  1
  Mg  Mg1  1  0.75000000  0.59274100  0.71880000  1
  Mg  Mg2  1  0.75000000  0.90725900  0.21880000  1
  Mg  Mg3  1  0.25000000  0.09274100  0.78120000  1
  Al  Al0  1  0.00000000  0.00000000  0.00000000  1
  Al  Al1  1  0.00000000  0.50000000  0.50000000  1
  Al  Al2  1  0.50000000  0.00000000  0.00000000  1
  Al  Al3  1  0.50000000  0.50000000  0.50000000  1
  Al  Al4  1  0.00000000  0.50000000  0.00000000  1
  Al  Al5  1  0.00000000  0.00000000  0.50000000  1
  Al  Al6  1  0.50000000  0.50000000  0.00000000  1
  Al  Al7  1  0.50000000  0.00000000  0.50000000  1
  Al  Al8  1  0.25000000  0.27364800  0.05214000  1
  Al  Al9  1  0.75000000  0.72635200  0.94786000  1
  Al  Al10  1  0.75000000  0.77364800  0.44786000  1
  Al  Al11  1  0.25000000  0.22635200  0.55214000  1
  Si  Si0  1  0.25000000  0.06610500  0.23625300  1
  Si  Si1  1  0.75000000  0.93389500  0.76374700  1
  Si  Si2  1  0.75000000  0.56610500  0.26374700  1
  Si  Si3  1  0.25000000  0.43389500  0.73625300  1
  B  B0  1  0.25000000  0.74883000  0.00048600  1
  B  B1  1  0.75000000  0.25117000  0.99951400  1
  B  B2  1  0.75000000  0.24883000  0.49951400  1
  B  B3  1  0.25000000  0.75117000  0.50048600  1
  O  O0  1  0.25000000  0.22501800  0.21160900  1
  O  O1  1  0.75000000  0.77498200  0.78839100  1
  O  O2  1  0.75000000  0.72501800  0.28839100  1
  O  O3  1  0.25000000  0.27498200  0.71160900  1
  O  O4  1  0.04537800  0.68062200  0.00149600  1
  O  O5  1  0.95462200  0.31937800  0.99850400  1
  O  O6  1  0.95462200  0.18062200  0.49850400  1
  O  O7  1  0.54537800  0.31937800  0.99850400  1
  O  O8  1  0.04537800  0.81937800  0.50149600  1
  O  O9  1  0.45462200  0.68062200  0.00149600  1
  O  O10  1  0.45462200  0.81937800  0.50149600  1
  O  O11  1  0.54537800  0.18062200  0.49850400  1
  O  O12  1  0.25000000  0.45311600  0.09966600  1
  O  O13  1  0.75000000  0.54688400  0.90033400  1
  O  O14  1  0.75000000  0.95311600  0.40033400  1
  O  O15  1  0.25000000  0.04688400  0.59966600  1
  O  O16  1  0.25000000  0.38142600  0.47769900  1
  O  O17  1  0.75000000  0.61857400  0.52230100  1
  O  O18  1  0.75000000  0.88142600  0.02230100  1
  O  O19  1  0.25000000  0.11857400  0.97769900  1
  O  O20  1  0.25000000  0.62147200  0.49637300  1
  O  O21  1  0.75000000  0.37852800  0.50362700  1
  O  O22  1  0.75000000  0.12147200  0.00362700  1
  O  O23  1  0.25000000  0.87852800  0.99637300  1
  O  O24  1  0.02209400  0.00715400  0.17038500  1
  O  O25  1  0.97790600  0.99284600  0.82961500  1
  O  O26  1  0.97790600  0.50715400  0.32961500  1
  O  O27  1  0.52209400  0.99284600  0.82961500  1
  O  O28  1  0.02209400  0.49284600  0.67038500  1
  O  O29  1  0.47790600  0.00715400  0.17038500  1
  O  O30  1  0.47790600  0.49284600  0.67038500  1
  O  O31  1  0.52209400  0.50715400  0.32961500  1
  O  O32  1  0.25000000  0.02616800  0.37957300  1
  O  O33  1  0.75000000  0.97383200  0.62042700  1
  O  O34  1  0.75000000  0.52616800  0.12042700  1
  O  O35  1  0.25000000  0.47383200  0.87957300  1
loop_
_geom_bond_atom_site_label_1
_geom_bond_atom_site_label_2
_geom_bond_distance
_geom_bond_site_symmetry_2
Mg0 O31 1.969852 1_555
Mg0 O26 1.969852 1_455
Mg0 O0 2.052585 1_555
Mg0 O12 2.071280 1_555
Mg0 O16 2.197971 1_555
Mg1 O30 1.969852 1_555
Mg1 O28 1.969852 1_655
Mg1 O1 2.052585 1_555
Mg1 O13 2.071280 1_555
Mg1 O17 2.197971 1_555
Mg2 O29 1.969852 1_565
Mg2 O24 1.969852 1_665
Mg2 O2 2.052585 1_555
Mg2 O14 2.071280 1_555
Mg2 O18 2.197971 1_555
Mg3 O27 1.969852 1_545
Mg3 O25 1.969852 1_445
Mg3 O3 2.052585 1_555
Mg3 O15 2.071280 1_555
Mg3 O19 2.197971 1_555
Al0 O24 1.897311 1_555
Al0 O25 1.897311 1_444
Al0 O19 1.925305 1_554
Al0 O18 1.925305 1_445
Al0 O23 1.929476 1_544
Al0 O22 1.929476 1_455
Al1 O26 1.897311 1_455
Al1 O28 1.897311 1_555
Al1 O17 1.925305 1_455
Al1 O16 1.925305 1_555
Al1 O21 1.929476 1_455
Al1 O20 1.929476 1_555
Al2 O29 1.897311 1_555
Al2 O27 1.897311 1_544
Al2 O19 1.925305 1_554
Al2 O18 1.925305 1_545
Al2 O23 1.929476 1_544
Al2 O22 1.929476 1_555
Al3 O31 1.897311 1_555
Al3 O30 1.897311 1_555
Al3 O17 1.925305 1_555
Al3 O16 1.925305 1_555
Al3 O21 1.929476 1_555
Al3 O20 1.929476 1_555
Al4 O12 1.891586 1_555
Al4 O13 1.891586 1_454
Al4 O4 1.903223 1_555
Al4 O5 1.903223 1_454
Al4 O34 1.994099 1_455
Al4 O35 1.994099 1_554
Al5 O15 1.891586 1_555
Al5 O14 1.891586 1_445
Al5 O6 1.903223 1_455
Al5 O8 1.903223 1_545
Al5 O32 1.994099 1_555
Al5 O33 1.994099 1_445
Al6 O12 1.891586 1_555
Al6 O13 1.891586 1_554
Al6 O7 1.903223 1_554
Al6 O9 1.903223 1_555
Al6 O34 1.994099 1_555
Al6 O35 1.994099 1_554
Al7 O15 1.891586 1_555
Al7 O14 1.891586 1_545
Al7 O11 1.903223 1_555
Al7 O10 1.903223 1_545
Al7 O32 1.994099 1_555
Al7 O33 1.994099 1_545
Al8 O19 1.816971 1_554
Al8 O0 1.841593 1_555
Al8 O7 1.879936 1_554
Al8 O5 1.879936 1_454
Al8 O12 1.945616 1_555
Al9 O18 1.816971 1_556
Al9 O1 1.841593 1_555
Al9 O4 1.879936 1_656
Al9 O9 1.879936 1_556
Al9 O13 1.945616 1_555
Al10 O17 1.816971 1_555
Al10 O2 1.841593 1_555
Al10 O8 1.879936 1_655
Al10 O10 1.879936 1_555
Al10 O14 1.945616 1_555
Al11 O16 1.816971 1_555
Al11 O3 1.841593 1_555
Al11 O11 1.879936 1_555
Al11 O6 1.879936 1_455
Al11 O15 1.945616 1_555
B0 O23 1.354145 1_554
B0 O9 1.386837 1_555
B0 O4 1.386837 1_555
B1 O22 1.354145 1_556
B1 O7 1.386837 1_555
B1 O5 1.386837 1_555
B2 O21 1.354145 1_555
B2 O11 1.386837 1_555
B2 O6 1.386837 1_555
B3 O20 1.354145 1_555
B3 O10 1.386837 1_555
B3 O8 1.386837 1_555
O0 Si0 1.680645 1_555
O1 Si1 1.680645 1_555
O2 Si2 1.680645 1_555
O3 Si3 1.680645 1_555
O24 Si0 1.634147 1_555
O25 Si1 1.634147 1_555
O26 Si2 1.634147 1_555
O27 Si1 1.634147 1_555
O28 Si3 1.634147 1_555
O29 Si0 1.634147 1_555
O30 Si3 1.634147 1_555
O31 Si2 1.634147 1_555
O32 Si0 1.644699 1_555
O33 Si1 1.644699 1_555
O34 Si2 1.644699 1_555
O35 Si3 1.644699 1_555
