# generated using pymatgen
data_YbIr2
_symmetry_space_group_name_H-M   'P 1'
_cell_length_a   5.28807112
_cell_length_b   5.28807112
_cell_length_c   5.28807112
_cell_angle_alpha   60.00000000
_cell_angle_beta   60.00000000
_cell_angle_gamma   60.00000000
_symmetry_Int_Tables_number   1
_chemical_formula_structural   YbIr2
_chemical_formula_sum   'Yb2 Ir4'
_cell_volume   104.56271822
_cell_formula_units_Z   2
loop_
 _symmetry_equiv_pos_site_id
 _symmetry_equiv_pos_as_xyz
  1  'x, y, z'
loop_
 _atom_site_type_symbol
 _atom_site_label
 _atom_site_symmetry_multiplicity
 _atom_site_fract_x
 _atom_site_fract_y
 _atom_site_fract_z
 _atom_site_occupancy
  Yb  Yb0  1  0.50000000  0.50000000  0.50000000  1
  Yb  Yb1  1  0.75000000  0.75000000  0.75000000  1
  Ir  Ir0  1  0.62500000  0.12500000  0.12500000  1
  Ir  Ir1  1  0.12500000  0.12500000  0.12500000  1
  Ir  Ir2  1  0.12500000  0.12500000  0.62500000  1
  Ir  Ir3  1  0.12500000  0.62500000  0.12500000  1
loop_
_geom_bond_atom_site_label_1
_geom_bond_atom_site_label_2
_geom_bond_distance
_geom_bond_site_symmetry_2
Yb0 Yb1 3.238269 1_545
Yb0 Yb1 3.238269 1_555
Yb0 Yb1 3.238269 1_455
Yb0 Yb1 3.238269 1_554
Ir0 Ir3 2.644036 1_645
Ir0 Ir1 2.644036 1_555
Ir0 Ir2 2.644036 1_555
Ir0 Ir1 2.644036 1_655
Ir0 Ir2 2.644036 1_654
Ir0 Ir3 2.644036 1_555
Ir0 Yb1 3.100407 1_544
Ir0 Yb0 3.100407 1_554
Ir0 Yb1 3.100407 1_554
Ir0 Yb1 3.100407 1_545
Ir0 Yb0 3.100407 1_545
Ir0 Yb0 3.100407 1_555
Ir1 Ir2 2.644036 1_555
Ir1 Ir3 2.644036 1_555
Ir1 Ir3 2.644036 1_545
Ir1 Ir2 2.644036 1_554
Ir1 Yb1 3.100407 1_544
Ir1 Yb0 3.100407 1_554
Ir1 Yb1 3.100407 1_454
Ir1 Yb0 3.100407 1_455
Ir1 Yb0 3.100407 1_545
Ir1 Yb1 3.100407 1_445
Ir2 Ir3 2.644036 1_546
Ir2 Ir3 2.644036 1_555
Ir2 Yb1 3.100407 1_445
Ir2 Yb0 3.100407 1_555
Ir2 Yb0 3.100407 1_455
Ir2 Yb0 3.100407 1_545
Ir2 Yb1 3.100407 1_455
Ir2 Yb1 3.100407 1_545
Ir3 Yb1 3.100407 1_455
Ir3 Yb0 3.100407 1_554
Ir3 Yb1 3.100407 1_454
Ir3 Yb0 3.100407 1_555
Ir3 Yb0 3.100407 1_455
Ir3 Yb1 3.100407 1_554
