# generated using pymatgen
data_RbEr(WO4)2
_symmetry_space_group_name_H-M   'P 1'
_cell_length_a   8.04374401
_cell_length_b   9.05048003
_cell_length_c   10.40561300
_cell_angle_alpha   90.00000000
_cell_angle_beta   90.00000000
_cell_angle_gamma   99.26240247
_symmetry_Int_Tables_number   1
_chemical_formula_structural   RbEr(WO4)2
_chemical_formula_sum   'Rb4 Er4 W8 O32'
_cell_volume   747.64900263
_cell_formula_units_Z   4
loop_
 _symmetry_equiv_pos_site_id
 _symmetry_equiv_pos_as_xyz
  1  'x, y, z'
loop_
 _atom_site_type_symbol
 _atom_site_label
 _atom_site_symmetry_multiplicity
 _atom_site_fract_x
 _atom_site_fract_y
 _atom_site_fract_z
 _atom_site_occupancy
  Rb  Rb0  1  0.07309100  0.51195400  0.21323400  1
  Rb  Rb1  1  0.92690900  0.48804600  0.78676600  1
  Rb  Rb2  1  0.42690900  0.48804600  0.71323400  1
  Rb  Rb3  1  0.57309100  0.51195400  0.28676600  1
  Er  Er0  1  0.02130000  0.06004500  0.77677900  1
  Er  Er1  1  0.97870000  0.93995500  0.22322100  1
  Er  Er2  1  0.47870000  0.93995500  0.27677900  1
  Er  Er3  1  0.52130000  0.06004500  0.72322100  1
  W  W0  1  0.28716200  0.22020800  0.00937400  1
  W  W1  1  0.71283800  0.77979200  0.99062600  1
  W  W2  1  0.21283800  0.77979200  0.50937400  1
  W  W3  1  0.78716200  0.22020800  0.49062600  1
  W  W4  1  0.17819000  0.16216100  0.48947700  1
  W  W5  1  0.82181000  0.83783900  0.51052300  1
  W  W6  1  0.32181000  0.83783900  0.98947700  1
  W  W7  1  0.67819000  0.16216100  0.01052300  1
  O  O0  1  0.25551000  0.00875300  0.39003400  1
  O  O1  1  0.74449000  0.99124700  0.60996600  1
  O  O2  1  0.24449000  0.99124700  0.89003400  1
  O  O3  1  0.75551000  0.00875300  0.10996600  1
  O  O4  1  0.35012200  0.39483400  0.08659300  1
  O  O5  1  0.64987800  0.60516600  0.91340700  1
  O  O6  1  0.14987800  0.60516600  0.58659300  1
  O  O7  1  0.85012200  0.39483400  0.41340700  1
  O  O8  1  0.11341500  0.13367100  0.11401100  1
  O  O9  1  0.88658500  0.86632900  0.88598900  1
  O  O10  1  0.38658500  0.86632900  0.61401100  1
  O  O11  1  0.61341500  0.13367100  0.38598900  1
  O  O12  1  0.33441900  0.73155500  0.36925100  1
  O  O13  1  0.66558100  0.26844500  0.63074900  1
  O  O14  1  0.16558100  0.26844500  0.86925100  1
  O  O15  1  0.83441900  0.73155500  0.13074900  1
  O  O16  1  0.26792800  0.32969000  0.41272400  1
  O  O17  1  0.73207200  0.67031000  0.58727600  1
  O  O18  1  0.23207200  0.67031000  0.91272400  1
  O  O19  1  0.76792800  0.32969000  0.08727600  1
  O  O20  1  0.00337400  0.22593900  0.60340900  1
  O  O21  1  0.99662600  0.77406100  0.39659100  1
  O  O22  1  0.49662600  0.77406100  0.10340900  1
  O  O23  1  0.50337400  0.22593900  0.89659100  1
  O  O24  1  0.30439600  0.15356400  0.63715600  1
  O  O25  1  0.69560400  0.84643600  0.36284400  1
  O  O26  1  0.19560400  0.84643600  0.13715600  1
  O  O27  1  0.80439600  0.15356400  0.86284400  1
  O  O28  1  0.45148100  0.09048600  0.10171500  1
  O  O29  1  0.54851900  0.90951400  0.89828500  1
  O  O30  1  0.04851900  0.90951400  0.60171500  1
  O  O31  1  0.95148100  0.09048600  0.39828500  1
loop_
_geom_bond_atom_site_label_1
_geom_bond_atom_site_label_2
_geom_bond_distance
_geom_bond_site_symmetry_2
Er0 O9 2.219872 1_445
Er0 O27 2.244511 1_455
Er0 O14 2.263974 1_555
Er0 O30 2.306173 1_545
Er0 O2 2.315042 1_545
Er0 O20 2.366271 1_555
Er0 O24 2.718854 1_555
Er0 O1 2.812840 1_445
Er1 O8 2.219872 1_665
Er1 O26 2.244511 1_655
Er1 O15 2.263974 1_555
Er1 O31 2.306173 1_565
Er1 O3 2.315042 1_565
Er1 O21 2.366271 1_555
Er1 O25 2.718854 1_555
Er1 O0 2.812840 1_665
Er2 O11 2.219872 1_565
Er2 O25 2.244511 1_555
Er2 O12 2.263974 1_555
Er2 O28 2.306173 1_565
Er2 O0 2.315042 1_565
Er2 O22 2.366271 1_555
Er2 O26 2.718854 1_555
Er2 O3 2.812840 1_565
Er3 O10 2.219872 1_545
Er3 O24 2.244511 1_555
Er3 O13 2.263974 1_555
Er3 O29 2.306173 1_545
Er3 O1 2.315042 1_545
Er3 O23 2.366271 1_555
Er3 O27 2.718854 1_555
Er3 O2 2.812840 1_545
O0 W4 1.913956 1_555
O0 W2 2.392691 1_545
O1 W5 1.913956 1_555
O1 W3 2.392691 1_565
O2 W6 1.913956 1_555
O2 W0 2.392691 1_566
O3 W7 1.913956 1_555
O3 W1 2.392691 1_544
O4 W0 1.772644 1_555
O4 Rb3 2.840216 1_555
O4 Rb0 2.930207 1_555
O5 W1 1.772644 1_555
O5 Rb2 2.840216 1_555
O5 Rb1 2.930207 1_555
O6 W2 1.772644 1_555
O6 Rb1 2.840216 1_455
O6 Rb2 2.930207 1_555
O7 W3 1.772644 1_555
O7 Rb0 2.840216 1_655
O7 Rb3 2.930207 1_555
O8 W0 1.843848 1_555
O9 W1 1.843848 1_555
O10 W2 1.843848 1_555
O11 W3 1.843848 1_555
O12 W2 1.846728 1_555
O12 Rb3 3.098519 1_555
O12 Rb0 3.107970 1_555
O13 W3 1.846728 1_555
O13 Rb2 3.098519 1_555
O13 Rb1 3.107970 1_555
O14 W0 1.846728 1_556
O14 Rb1 3.098519 1_455
O14 Rb2 3.107970 1_555
O15 W1 1.846728 1_554
O15 Rb0 3.098519 1_655
O15 Rb3 3.107970 1_555
O16 W4 1.762242 1_555
O16 Rb3 3.026684 1_555
O16 Rb0 3.212244 1_555
O17 W5 1.762242 1_555
O17 Rb2 3.026684 1_555
O17 Rb1 3.212244 1_555
O18 W6 1.762242 1_555
O18 Rb1 3.026684 1_455
O18 Rb2 3.212244 1_555
O19 W7 1.762242 1_555
O19 Rb0 3.026684 1_655
O19 Rb3 3.212244 1_555
O20 W4 1.994314 1_555
O20 W3 2.091791 1_455
O20 Rb1 3.180494 1_455
O21 W5 1.994314 1_555
O21 W2 2.091791 1_655
O21 Rb0 3.180494 1_655
O22 W6 1.994314 1_554
O22 W1 2.091791 1_554
O22 Rb3 3.180494 1_555
O23 W7 1.994314 1_556
O23 W0 2.091791 1_556
O23 Rb2 3.180494 1_555
O24 W4 1.850261 1_555
O24 Rb2 3.130746 1_555
O25 W5 1.850261 1_555
O25 Rb3 3.130746 1_555
O26 W6 1.850261 1_554
O26 Rb0 3.130746 1_555
O27 W7 1.850261 1_556
O27 Rb1 3.130746 1_555
O28 W7 2.065406 1_555
O28 W0 2.132646 1_555
O29 W6 2.065406 1_555
O29 W1 2.132646 1_555
O30 W5 2.065406 1_455
O30 W2 2.132646 1_555
O31 W4 2.065406 1_655
O31 W3 2.132646 1_555
