# generated using pymatgen
data_K2Cu(ClF)2
_symmetry_space_group_name_H-M   'P 1'
_cell_length_a   8.11328527
_cell_length_b   8.11328527
_cell_length_c   6.33734200
_cell_angle_alpha   90.00000000
_cell_angle_beta   90.00000000
_cell_angle_gamma   134.01552903
_symmetry_Int_Tables_number   1
_chemical_formula_structural   K2Cu(ClF)2
_chemical_formula_sum   'K4 Cu2 Cl4 F4'
_cell_volume   299.99984290
_cell_formula_units_Z   2
loop_
 _symmetry_equiv_pos_site_id
 _symmetry_equiv_pos_as_xyz
  1  'x, y, z'
loop_
 _atom_site_type_symbol
 _atom_site_label
 _atom_site_symmetry_multiplicity
 _atom_site_fract_x
 _atom_site_fract_y
 _atom_site_fract_z
 _atom_site_occupancy
  K  K0  1  0.12340400  0.87659600  0.50000000  1
  K  K1  1  0.62340400  0.37659600  0.00000000  1
  K  K2  1  0.87659600  0.12340400  0.50000000  1
  K  K3  1  0.37659600  0.62340400  0.00000000  1
  Cu  Cu0  1  0.00000000  0.00000000  0.00000000  1
  Cu  Cu1  1  0.50000000  0.50000000  0.50000000  1
  Cl  Cl0  1  0.15615700  0.84384300  0.00000000  1
  Cl  Cl1  1  0.84384300  0.15615700  0.00000000  1
  Cl  Cl2  1  0.65615700  0.34384300  0.50000000  1
  Cl  Cl3  1  0.34384300  0.65615700  0.50000000  1
  F  F0  1  0.21416500  0.21416500  0.21419700  1
  F  F1  1  0.78583500  0.78583500  0.78580300  1
  F  F2  1  0.71416500  0.71416500  0.28580300  1
  F  F3  1  0.28583500  0.28583500  0.71419700  1
loop_
_geom_bond_atom_site_label_1
_geom_bond_atom_site_label_2
_geom_bond_distance
_geom_bond_site_symmetry_2
Cu0 F0 1.919696 1_555
Cu0 F1 1.919696 1_444
Cu0 F2 2.561785 1_445
Cu0 F3 2.561785 1_554
Cu1 F3 1.919696 1_555
Cu1 F2 1.919696 1_555
Cu1 F1 2.561785 1_555
Cu1 F0 2.561785 1_555
Cl0 Cu0 2.332595 1_565
Cl0 K0 3.206219 1_554
Cl0 K0 3.206219 1_555
Cl0 K1 3.206644 1_565
Cl0 K1 3.206644 1_455
Cl0 K3 3.292807 1_555
Cl1 Cu0 2.332595 1_655
Cl1 K2 3.206219 1_554
Cl1 K2 3.206219 1_555
Cl1 K3 3.206644 1_655
Cl1 K3 3.206644 1_545
Cl1 K1 3.292807 1_555
Cl2 Cu1 2.332595 1_555
Cl2 K1 3.206219 1_555
Cl2 K1 3.206219 1_556
Cl2 K0 3.206644 1_545
Cl2 K0 3.206644 1_655
Cl2 K2 3.292807 1_555
Cl3 Cu1 2.332595 1_555
Cl3 K3 3.206219 1_556
Cl3 K3 3.206219 1_555
Cl3 K2 3.206644 1_455
Cl3 K2 3.206644 1_565
Cl3 K0 3.292807 1_555
F0 K0 2.919089 1_545
F0 K2 2.919089 1_455
F0 K3 2.919376 1_555
F0 K1 2.919376 1_555
F1 K2 2.919089 1_565
F1 K0 2.919089 1_655
F1 K1 2.919376 1_556
F1 K3 2.919376 1_556
F2 K3 2.919089 1_555
F2 K1 2.919089 1_555
F2 K2 2.919376 1_565
F2 K0 2.919376 1_655
F3 K3 2.919089 1_556
F3 K1 2.919089 1_556
F3 K2 2.919376 1_455
F3 K0 2.919376 1_545
