# generated using pymatgen
data_Na3Yb(PO4)2
_symmetry_space_group_name_H-M   'P 1'
_cell_length_a   9.14029012
_cell_length_b   9.14029012
_cell_length_c   9.14028980
_cell_angle_alpha   63.00178678
_cell_angle_beta   63.00178678
_cell_angle_gamma   63.00178693
_symmetry_Int_Tables_number   1
_chemical_formula_structural   Na3Yb(PO4)2
_chemical_formula_sum   'Na9 Yb3 P6 O24'
_cell_volume   575.94753802
_cell_formula_units_Z   3
loop_
 _symmetry_equiv_pos_site_id
 _symmetry_equiv_pos_as_xyz
  1  'x, y, z'
loop_
 _atom_site_type_symbol
 _atom_site_label
 _atom_site_symmetry_multiplicity
 _atom_site_fract_x
 _atom_site_fract_y
 _atom_site_fract_z
 _atom_site_occupancy
  Na  Na0  1  0.50259800  0.50259800  0.50259800  1
  Na  Na1  1  0.99937600  0.99937600  0.99937600  1
  Na  Na2  1  0.39286400  0.74911600  0.10611300  1
  Na  Na3  1  0.74911600  0.10611300  0.39286400  1
  Na  Na4  1  0.10611300  0.39286400  0.74911600  1
  Na  Na5  1  0.26247300  0.88182600  0.61159900  1
  Na  Na6  1  0.88182600  0.61159900  0.26247300  1
  Na  Na7  1  0.61159900  0.26247300  0.88182600  1
  Na  Na8  1  0.65074600  0.65074600  0.65074600  1
  Yb  Yb0  1  0.14968800  0.14968800  0.14968800  1
  Yb  Yb1  1  0.35033200  0.35033200  0.35033200  1
  Yb  Yb2  1  0.84960900  0.84960900  0.84960900  1
  P  P0  1  0.06600800  0.74817700  0.43768300  1
  P  P1  1  0.74817700  0.43768300  0.06600800  1
  P  P2  1  0.43768300  0.06600800  0.74817700  1
  P  P3  1  0.24774700  0.56116300  0.94016400  1
  P  P4  1  0.56116300  0.94016400  0.24774700  1
  P  P5  1  0.94016400  0.24774700  0.56116300  1
  O  O0  1  0.02371100  0.80712100  0.59033200  1
  O  O1  1  0.80712100  0.59033200  0.02371100  1
  O  O2  1  0.59033200  0.02371100  0.80712100  1
  O  O3  1  0.31384000  0.52248800  0.08740300  1
  O  O4  1  0.52248800  0.08740300  0.31384000  1
  O  O5  1  0.08740300  0.31384000  0.52248800  1
  O  O6  1  0.98077400  0.18674000  0.40971900  1
  O  O7  1  0.18674000  0.40971900  0.98077400  1
  O  O8  1  0.40971900  0.98077400  0.18674000  1
  O  O9  1  0.68173800  0.46996900  0.92161600  1
  O  O10  1  0.46996900  0.92161600  0.68173800  1
  O  O11  1  0.92161600  0.68173800  0.46996900  1
  O  O12  1  0.76461300  0.39346000  0.57227200  1
  O  O13  1  0.39346000  0.57227200  0.76461300  1
  O  O14  1  0.57227200  0.76461300  0.39346000  1
  O  O15  1  0.89968900  0.26421500  0.07498300  1
  O  O16  1  0.26421500  0.07498300  0.89968900  1
  O  O17  1  0.07498300  0.89968900  0.26421500  1
  O  O18  1  0.24213400  0.60209800  0.42128200  1
  O  O19  1  0.60209800  0.42128200  0.24213400  1
  O  O20  1  0.42128200  0.24213400  0.60209800  1
  O  O21  1  0.09812000  0.73524100  0.92916400  1
  O  O22  1  0.73524100  0.92916400  0.09812000  1
  O  O23  1  0.92916400  0.09812000  0.73524100  1
loop_
_geom_bond_atom_site_label_1
_geom_bond_atom_site_label_2
_geom_bond_distance
_geom_bond_site_symmetry_2
Na0 O13 2.403138 1_555
Na0 O12 2.403138 1_555
Na0 O14 2.403138 1_555
Na0 O19 2.464624 1_555
Na0 O18 2.464624 1_555
Na0 O20 2.464624 1_555
Na1 O23 2.440823 1_565
Na1 O21 2.440823 1_655
Na1 O22 2.440823 1_556
Na1 O17 2.472282 1_656
Na1 O15 2.472282 1_566
Na1 O16 2.472282 1_665
Na2 O18 2.562289 1_555
Na2 O3 2.575671 1_555
Na2 O17 2.605278 1_555
Na2 O8 2.620368 1_555
Na2 O16 2.747051 1_564
Na2 O19 2.784876 1_555
Na3 O19 2.562289 1_555
Na3 O4 2.575671 1_555
Na3 O15 2.605278 1_555
Na3 O6 2.620368 1_555
Na3 O17 2.747051 1_645
Na3 O20 2.784876 1_555
Na4 O20 2.562289 1_555
Na4 O5 2.575671 1_555
Na4 O16 2.605278 1_555
Na4 O7 2.620368 1_555
Na4 O15 2.747051 1_456
Na4 O18 2.784876 1_555
Na5 O10 2.466199 1_555
Na5 O13 2.499379 1_555
Na5 O21 2.610489 1_555
Na5 O0 2.669333 1_555
Na5 O14 2.683380 1_555
Na5 O23 2.810913 1_465
Na6 O11 2.466199 1_555
Na6 O14 2.499379 1_555
Na6 O22 2.610489 1_555
Na6 O1 2.669333 1_555
Na6 O12 2.683380 1_555
Na6 O21 2.810913 1_654
Na7 O9 2.466199 1_555
Na7 O12 2.499379 1_555
Na7 O23 2.610489 1_555
Na7 O2 2.669333 1_555
Na7 O13 2.683380 1_555
Na7 O22 2.810913 1_546
Na8 O9 2.331903 1_555
Na8 O11 2.331903 1_555
Na8 O10 2.331903 1_555
Na8 O14 2.399903 1_555
Na8 O12 2.399903 1_555
Na8 O13 2.399903 1_555
O0 P0 1.545999 1_555
O0 Yb2 2.269346 1_455
O1 P1 1.545999 1_555
O1 Yb2 2.269346 1_554
O2 P2 1.545999 1_555
O2 Yb2 2.269346 1_545
O3 P3 1.553523 1_554
O3 Yb1 2.276124 1_555
O4 P4 1.553523 1_545
O4 Yb1 2.276124 1_555
O5 P5 1.553523 1_455
O5 Yb1 2.276124 1_555
O6 P5 1.552814 1_555
O6 Yb0 2.252065 1_655
O7 P3 1.552814 1_555
O7 Yb0 2.252065 1_556
O8 P4 1.552814 1_555
O8 Yb0 2.252065 1_565
O9 P1 1.552111 1_556
O10 P2 1.552111 1_565
O11 P0 1.552112 1_655
O12 P5 1.547063 1_555
O13 P3 1.547063 1_555
O14 P4 1.547063 1_555
O15 P1 1.558845 1_555
O15 Yb0 2.319365 1_655
O16 P2 1.558845 1_555
O16 Yb0 2.319365 1_556
O17 P0 1.558845 1_555
O17 Yb0 2.319365 1_565
O18 P0 1.551741 1_555
O18 Yb1 2.323912 1_555
O19 P1 1.551741 1_555
O19 Yb1 2.323912 1_555
O20 P2 1.551741 1_555
O20 Yb1 2.323912 1_555
O21 P3 1.554378 1_555
O21 Yb2 2.331242 1_455
O22 P4 1.554378 1_555
O22 Yb2 2.331242 1_554
O23 P5 1.554378 1_555
O23 Yb2 2.331242 1_545
