# generated using pymatgen
data_DyIr2
_symmetry_space_group_name_H-M   'P 1'
_cell_length_a   5.32840705
_cell_length_b   5.32840745
_cell_length_c   5.32840728
_cell_angle_alpha   60.00000103
_cell_angle_beta   59.99999857
_cell_angle_gamma   60.00000516
_symmetry_Int_Tables_number   1
_chemical_formula_structural   DyIr2
_chemical_formula_sum   'Dy2 Ir4'
_cell_volume   106.97375764
_cell_formula_units_Z   2
loop_
 _symmetry_equiv_pos_site_id
 _symmetry_equiv_pos_as_xyz
  1  'x, y, z'
loop_
 _atom_site_type_symbol
 _atom_site_label
 _atom_site_symmetry_multiplicity
 _atom_site_fract_x
 _atom_site_fract_y
 _atom_site_fract_z
 _atom_site_occupancy
  Dy  Dy0  1  0.87500000  0.87500000  0.87500000  1
  Dy  Dy1  1  0.12500000  0.12500000  0.12500000  1
  Ir  Ir0  1  0.50000000  0.50000000  0.50000000  1
  Ir  Ir1  1  0.50000000  0.50000000  0.00000000  1
  Ir  Ir2  1  -0.00000000  0.50000000  0.50000000  1
  Ir  Ir3  1  0.50000000  -0.00000000  0.50000000  1
loop_
_geom_bond_atom_site_label_1
_geom_bond_atom_site_label_2
_geom_bond_distance
_geom_bond_site_symmetry_2
Dy0 Ir3 3.124055 1_665
Dy0 Ir0 3.124056 1_556
Dy0 Ir1 3.124056 1_556
Dy0 Ir3 3.124056 1_565
Dy0 Ir3 3.124056 1_566
Dy0 Ir2 3.124056 1_665
Dy0 Ir0 3.124056 1_655
Dy0 Ir1 3.124056 1_656
Dy0 Ir2 3.124056 1_656
Dy0 Ir2 3.124056 1_655
Dy0 Ir1 3.124056 1_566
Dy0 Ir0 3.124056 1_565
Dy1 Ir3 3.124055 1_455
Dy1 Ir0 3.124056 1_554
Dy1 Ir1 3.124056 1_555
Dy1 Ir3 3.124056 1_554
Dy1 Ir3 3.124056 1_555
Dy1 Ir2 3.124056 1_545
Dy1 Ir0 3.124056 1_455
Dy1 Ir1 3.124056 1_455
Dy1 Ir2 3.124056 1_555
Dy1 Ir2 3.124056 1_554
Dy1 Ir0 3.124056 1_545
Dy1 Ir1 3.124056 1_545
Ir0 Ir2 2.664204 1_555
Ir0 Ir2 2.664204 1_655
Ir0 Ir1 2.664204 1_555
Ir0 Ir1 2.664204 1_556
Ir0 Ir3 2.664204 1_565
Ir0 Ir3 2.664204 1_555
Ir1 Ir2 2.664204 1_654
Ir1 Ir2 2.664204 1_555
Ir1 Ir3 2.664204 1_555
Ir1 Ir3 2.664204 1_564
Ir2 Ir3 2.664204 1_465
Ir2 Ir3 2.664204 1_555
