# generated using pymatgen
data_CsMg6CO8
_symmetry_space_group_name_H-M   'P 1'
_cell_length_a   4.57462500
_cell_length_b   4.57462500
_cell_length_c   8.83926100
_cell_angle_alpha   90.00000000
_cell_angle_beta   90.00000000
_cell_angle_gamma   90.00000000
_symmetry_Int_Tables_number   1
_chemical_formula_structural   CsMg6CO8
_chemical_formula_sum   'Cs1 Mg6 C1 O8'
_cell_volume   184.98092880
_cell_formula_units_Z   1
loop_
 _symmetry_equiv_pos_site_id
 _symmetry_equiv_pos_as_xyz
  1  'x, y, z'
loop_
 _atom_site_type_symbol
 _atom_site_label
 _atom_site_symmetry_multiplicity
 _atom_site_fract_x
 _atom_site_fract_y
 _atom_site_fract_z
 _atom_site_occupancy
  Cs  Cs0  1  0.00000000  0.00000000  0.00000000  1
  Mg  Mg0  1  0.50000000  0.50000000  0.00000000  1
  Mg  Mg1  1  0.50000000  0.50000000  0.50000000  1
  Mg  Mg2  1  0.00000000  0.50000000  0.27215400  1
  Mg  Mg3  1  0.00000000  0.50000000  0.72784600  1
  Mg  Mg4  1  0.50000000  0.00000000  0.27215400  1
  Mg  Mg5  1  0.50000000  0.00000000  0.72784600  1
  C  C0  1  0.00000000  0.00000000  0.50000000  1
  O  O0  1  0.00000000  0.00000000  0.29292600  1
  O  O1  1  0.00000000  0.00000000  0.70707400  1
  O  O2  1  0.50000000  0.50000000  0.25252400  1
  O  O3  1  0.50000000  0.50000000  0.74747600  1
  O  O4  1  0.00000000  0.50000000  0.00000000  1
  O  O5  1  0.00000000  0.50000000  0.50000000  1
  O  O6  1  0.50000000  0.00000000  0.00000000  1
  O  O7  1  0.50000000  0.00000000  0.50000000  1
loop_
_geom_bond_atom_site_label_1
_geom_bond_atom_site_label_2
_geom_bond_distance
_geom_bond_site_symmetry_2
Cs0 O6 2.287313 1_455
Cs0 O4 2.287313 1_545
Cs0 O6 2.287313 1_555
Cs0 O4 2.287313 1_555
Cs0 O0 2.589249 1_555
Cs0 O1 2.589249 1_554
Mg0 O2 2.232126 1_555
Mg0 O3 2.232126 1_554
Mg0 O6 2.287313 1_555
Mg0 O6 2.287313 1_565
Mg0 O4 2.287313 1_555
Mg0 O4 2.287313 1_655
Mg1 O3 2.187505 1_555
Mg1 O2 2.187505 1_555
Mg1 O5 2.287313 1_655
Mg1 O7 2.287313 1_555
Mg1 O7 2.287313 1_565
Mg1 O5 2.287313 1_555
Mg2 O5 2.013990 1_555
Mg2 O2 2.293884 1_455
Mg2 O2 2.293884 1_555
Mg2 O0 2.294670 1_565
Mg2 O0 2.294670 1_555
Mg2 O4 2.405640 1_555
Mg3 O5 2.013990 1_555
Mg3 O3 2.293884 1_455
Mg3 O3 2.293884 1_555
Mg3 O1 2.294670 1_555
Mg3 O1 2.294670 1_565
Mg3 O4 2.405640 1_556
Mg4 O7 2.013990 1_555
Mg4 O2 2.293884 1_555
Mg4 O2 2.293884 1_545
Mg4 O0 2.294670 1_555
Mg4 O0 2.294670 1_655
Mg4 O6 2.405640 1_555
Mg5 O7 2.013990 1_555
Mg5 O3 2.293884 1_545
Mg5 O3 2.293884 1_555
Mg5 O1 2.294670 1_555
Mg5 O1 2.294670 1_655
Mg5 O6 2.405640 1_556
C0 O1 1.830381 1_555
C0 O0 1.830381 1_555
