# generated using pymatgen
data_EuAlGe2O7
_symmetry_space_group_name_H-M   'P 1'
_cell_length_a   6.52344024
_cell_length_b   7.21105644
_cell_length_c   12.68221525
_cell_angle_alpha   62.33824692
_cell_angle_beta   90.00000000
_cell_angle_gamma   90.00000000
_symmetry_Int_Tables_number   1
_chemical_formula_structural   EuAlGe2O7
_chemical_formula_sum   'Eu4 Al4 Ge8 O28'
_cell_volume   528.39557867
_cell_formula_units_Z   4
loop_
 _symmetry_equiv_pos_site_id
 _symmetry_equiv_pos_as_xyz
  1  'x, y, z'
loop_
 _atom_site_type_symbol
 _atom_site_label
 _atom_site_symmetry_multiplicity
 _atom_site_fract_x
 _atom_site_fract_y
 _atom_site_fract_z
 _atom_site_occupancy
  Eu  Eu0  1  0.35295987  0.73935174  0.52669728  1
  Eu  Eu1  1  0.64704013  0.26064826  0.47330272  1
  Eu  Eu2  1  0.85295987  0.26064826  0.97330272  1
  Eu  Eu3  1  0.14704013  0.73935174  0.02669728  1
  Al  Al0  1  0.39820052  0.71111538  0.27109767  1
  Al  Al1  1  0.60179948  0.28888462  0.72890233  1
  Al  Al2  1  0.89820052  0.28888462  0.22890233  1
  Al  Al3  1  0.10179948  0.71111538  0.77109767  1
  Ge  Ge0  1  0.65751697  0.71028092  0.04902923  1
  Ge  Ge1  1  0.34248303  0.28971908  0.95097077  1
  Ge  Ge2  1  0.15751697  0.28971908  0.45097077  1
  Ge  Ge3  1  0.84248303  0.71028092  0.54902923  1
  Ge  Ge4  1  0.90933369  0.80286551  0.27870437  1
  Ge  Ge5  1  0.09066631  0.19713449  0.72129563  1
  Ge  Ge6  1  0.40933369  0.19713449  0.22129563  1
  Ge  Ge7  1  0.59066631  0.80286551  0.77870437  1
  O  O0  1  0.37866252  0.92537897  0.30470990  1
  O  O1  1  0.62133748  0.07462103  0.69529010  1
  O  O2  1  0.87866252  0.07462103  0.19529010  1
  O  O3  1  0.12133748  0.92537897  0.80470990  1
  O  O4  1  0.82787031  0.90700623  0.02621664  1
  O  O5  1  0.17212969  0.09299377  0.97378336  1
  O  O6  1  0.32787031  0.09299377  0.47378336  1
  O  O7  1  0.67212969  0.90700623  0.52621664  1
  O  O8  1  0.61672936  0.27783234  0.27736334  1
  O  O9  1  0.38327064  0.72216766  0.72263666  1
  O  O10  1  0.11672936  0.72216766  0.22263666  1
  O  O11  1  0.88327064  0.27783234  0.77736334  1
  O  O12  1  -0.00286742  0.75098724  0.42504653  1
  O  O13  1  0.00286742  0.24901276  0.57495347  1
  O  O14  1  0.49713258  0.24901276  0.07495347  1
  O  O15  1  0.50286742  0.75098724  0.92504653  1
  O  O16  1  0.44706136  0.70720177  0.13393499  1
  O  O17  1  0.55293864  0.29279823  0.86606501  1
  O  O18  1  0.94706136  0.29279823  0.36606501  1
  O  O19  1  0.05293864  0.70720177  0.63393499  1
  O  O20  1  0.83870704  0.50647341  0.08391384  1
  O  O21  1  0.16129296  0.49352659  0.91608616  1
  O  O22  1  0.33870704  0.49352659  0.41608616  1
  O  O23  1  0.66129296  0.50647341  0.58391384  1
  O  O24  1  0.68133221  0.65901573  0.31153916  1
  O  O25  1  0.31866779  0.34098427  0.68846084  1
  O  O26  1  0.18133221  0.34098427  0.18846084  1
  O  O27  1  0.81866779  0.65901573  0.81153916  1
loop_
_geom_bond_atom_site_label_1
_geom_bond_atom_site_label_2
_geom_bond_distance
_geom_bond_site_symmetry_2
Eu0 O6 2.321926 1_565
Eu0 O19 2.332625 1_555
Eu0 O7 2.406215 1_555
Eu0 O9 2.437929 1_555
Eu0 O0 2.499383 1_555
Eu0 O23 2.502171 1_555
Eu0 O12 2.637534 1_555
Eu0 O25 2.653103 1_555
Eu0 O22 2.725377 1_555
Eu1 O7 2.321926 1_545
Eu1 O18 2.332625 1_555
Eu1 O6 2.406215 1_555
Eu1 O8 2.437929 1_555
Eu1 O1 2.499383 1_555
Eu1 O22 2.502171 1_555
Eu1 O13 2.637534 1_655
Eu1 O24 2.653103 1_555
Eu1 O23 2.725377 1_555
Eu2 O4 2.321926 1_546
Eu2 O17 2.332625 1_555
Eu2 O5 2.406215 1_655
Eu2 O11 2.437929 1_555
Eu2 O2 2.499383 1_556
Eu2 O21 2.502171 1_655
Eu2 O14 2.637534 1_556
Eu2 O27 2.653103 1_555
Eu2 O20 2.725377 1_556
Eu3 O5 2.321926 1_564
Eu3 O16 2.332625 1_555
Eu3 O4 2.406215 1_455
Eu3 O10 2.437929 1_555
Eu3 O3 2.499383 1_554
Eu3 O20 2.502171 1_455
Eu3 O15 2.637534 1_554
Eu3 O26 2.653103 1_555
Eu3 O21 2.725377 1_554
Al0 O16 1.781552 1_555
Al0 O0 1.787939 1_555
Al0 O22 1.820654 1_555
Al0 O24 1.907005 1_555
Al0 O10 1.926157 1_555
Al1 O17 1.781552 1_555
Al1 O1 1.787939 1_555
Al1 O23 1.820654 1_555
Al1 O25 1.907005 1_555
Al1 O11 1.926157 1_555
Al2 O18 1.781552 1_555
Al2 O2 1.787939 1_555
Al2 O20 1.820654 1_555
Al2 O26 1.907005 1_655
Al2 O8 1.926157 1_555
Al3 O19 1.781552 1_555
Al3 O3 1.787939 1_555
Al3 O21 1.820654 1_555
Al3 O27 1.907005 1_455
Al3 O9 1.926157 1_555
Ge0 O4 1.717559 1_555
Ge0 O16 1.738567 1_555
Ge0 O15 1.774190 1_554
Ge0 O20 1.774548 1_555
Ge1 O5 1.717559 1_555
Ge1 O17 1.738567 1_555
Ge1 O14 1.774190 1_556
Ge1 O21 1.774548 1_555
Ge2 O6 1.717559 1_555
Ge2 O18 1.738567 1_455
Ge2 O13 1.774190 1_555
Ge2 O22 1.774548 1_555
Ge3 O7 1.717559 1_555
Ge3 O19 1.738567 1_655
Ge3 O12 1.774190 1_655
Ge3 O23 1.774548 1_555
Ge4 O10 1.748960 1_655
Ge4 O24 1.749447 1_555
Ge4 O2 1.753425 1_565
Ge4 O12 1.807721 1_655
Ge5 O11 1.748960 1_455
Ge5 O25 1.749447 1_555
Ge5 O3 1.753425 1_545
Ge5 O13 1.807721 1_555
Ge6 O8 1.748960 1_555
Ge6 O26 1.749447 1_555
Ge6 O0 1.753425 1_545
Ge6 O14 1.807721 1_555
Ge7 O9 1.748960 1_555
Ge7 O27 1.749447 1_555
Ge7 O1 1.753425 1_565
Ge7 O15 1.807721 1_555
