# generated using pymatgen
data_KBa3
_symmetry_space_group_name_H-M   'P 1'
_cell_length_a   9.08014591
_cell_length_b   9.08014591
_cell_length_c   7.45221200
_cell_angle_alpha   90.00000000
_cell_angle_beta   90.00000000
_cell_angle_gamma   119.99999933
_symmetry_Int_Tables_number   1
_chemical_formula_structural   KBa3
_chemical_formula_sum   'K2 Ba6'
_cell_volume   532.11008515
_cell_formula_units_Z   2
loop_
 _symmetry_equiv_pos_site_id
 _symmetry_equiv_pos_as_xyz
  1  'x, y, z'
loop_
 _atom_site_type_symbol
 _atom_site_label
 _atom_site_symmetry_multiplicity
 _atom_site_fract_x
 _atom_site_fract_y
 _atom_site_fract_z
 _atom_site_occupancy
  K  K0  1  0.66666700  0.33333300  0.25000000  1
  K  K1  1  0.33333300  0.66666700  0.75000000  1
  Ba  Ba0  1  0.83731000  0.67462000  0.75000000  1
  Ba  Ba1  1  0.16269000  0.83731000  0.25000000  1
  Ba  Ba2  1  0.67462000  0.83731000  0.25000000  1
  Ba  Ba3  1  0.16269000  0.32538000  0.25000000  1
  Ba  Ba4  1  0.32538000  0.16269000  0.75000000  1
  Ba  Ba5  1  0.83731000  0.16269000  0.75000000  1
loop_
_geom_bond_atom_site_label_1
_geom_bond_atom_site_label_2
_geom_bond_distance
_geom_bond_site_symmetry_2
Ba0 Ba5 4.431747 1_565
Ba0 Ba4 4.431747 1_665
Ba0 Ba2 4.520029 1_556
Ba0 Ba2 4.520029 1_555
Ba0 Ba1 4.520029 1_655
Ba0 Ba1 4.520029 1_656
Ba0 K1 4.540499 1_655
Ba0 K1 4.540508 1_555
Ba0 K0 4.591995 1_555
Ba0 K0 4.591995 1_556
Ba0 Ba5 4.648399 1_555
Ba0 Ba4 4.648399 1_555
Ba1 Ba2 4.431747 1_455
Ba1 Ba3 4.431747 1_565
Ba1 Ba4 4.520029 1_565
Ba1 Ba4 4.520029 1_564
Ba1 K0 4.540504 1_455
Ba1 K0 4.540504 1_565
Ba1 K1 4.591990 1_555
Ba1 K1 4.591990 1_554
Ba1 Ba2 4.648399 1_555
Ba1 Ba3 4.648399 1_555
Ba2 Ba3 4.431747 1_665
Ba2 Ba5 4.520029 1_565
Ba2 Ba5 4.520029 1_564
Ba2 K0 4.540499 1_565
Ba2 K0 4.540508 1_555
Ba2 K1 4.591995 1_555
Ba2 K1 4.591995 1_554
Ba2 Ba3 4.648399 1_555
Ba3 Ba4 4.520029 1_555
Ba3 Ba4 4.520029 1_554
Ba3 Ba5 4.520029 1_455
Ba3 Ba5 4.520029 1_454
Ba3 K0 4.540499 1_455
Ba3 K0 4.540508 1_555
Ba3 K1 4.591995 1_555
Ba3 K1 4.591995 1_554
Ba4 Ba5 4.431747 1_455
Ba4 K1 4.540499 1_545
Ba4 K1 4.540508 1_555
Ba4 K0 4.591995 1_555
Ba4 K0 4.591995 1_556
Ba4 Ba5 4.648399 1_555
Ba5 K1 4.540504 1_545
Ba5 K1 4.540504 1_655
Ba5 K0 4.591990 1_555
Ba5 K0 4.591990 1_556
