# generated using pymatgen
data_Tl3(V3S4)8
_symmetry_space_group_name_H-M   'P 1'
_cell_length_a   9.12374800
_cell_length_b   9.26901417
_cell_length_c   13.87216091
_cell_angle_alpha   108.94787891
_cell_angle_beta   103.51187816
_cell_angle_gamma   88.38100355
_symmetry_Int_Tables_number   1
_chemical_formula_structural   Tl3(V3S4)8
_chemical_formula_sum   'Tl3 V24 S32'
_cell_volume   1077.41709173
_cell_formula_units_Z   1
loop_
 _symmetry_equiv_pos_site_id
 _symmetry_equiv_pos_as_xyz
  1  'x, y, z'
loop_
 _atom_site_type_symbol
 _atom_site_label
 _atom_site_symmetry_multiplicity
 _atom_site_fract_x
 _atom_site_fract_y
 _atom_site_fract_z
 _atom_site_occupancy
  Tl  Tl0  1  0.00399300  0.00204600  0.02729000  1
  Tl  Tl1  1  0.67070500  0.59352000  0.35263200  1
  Tl  Tl2  1  0.37480300  0.43644900  0.69407100  1
  V  V0  1  0.26574300  0.96269600  0.93249200  1
  V  V1  1  0.01971900  0.60448000  0.99082600  1
  V  V2  1  0.43480700  0.30639900  0.98626300  1
  V  V3  1  0.36254700  0.26604800  0.26895500  1
  V  V4  1  0.79257600  0.04799900  0.30886900  1
  V  V5  1  0.42699500  0.79743500  0.22057400  1
  V  V6  1  0.08156700  0.63214800  0.21513100  1
  V  V7  1  0.91356700  0.36572200  0.16136600  1
  V  V8  1  0.11605200  0.13156200  0.36377600  1
  V  V9  1  0.04037900  0.01633600  0.48864900  1
  V  V10  1  0.45533300  0.88652300  0.52331900  1
  V  V11  1  0.21051000  0.62691100  0.44415000  1
  V  V12  1  0.82060300  0.43857000  0.55766800  1
  V  V13  1  0.47556200  0.19316300  0.45997300  1
  V  V14  1  0.79416700  0.91426500  0.55848900  1
  V  V15  1  0.84148900  0.94191900  0.75087900  1
  V  V16  1  0.13079200  0.63341100  0.84048000  1
  V  V17  1  0.95707700  0.37208600  0.78015500  1
  V  V18  1  0.63172600  0.14864900  0.86181700  1
  V  V19  1  0.21461400  0.94784500  0.66330500  1
  V  V20  1  0.64236300  0.65551900  0.71509300  1
  V  V21  1  0.58066900  0.62782500  0.03165700  1
  V  V22  1  0.02258800  0.36708900  0.00989800  1
  V  V23  1  0.53951800  0.98477600  0.98849000  1
  S  S0  1  0.84626100  0.55768200  0.08085800  1
  S  S1  1  0.37578200  0.14766500  0.08690700  1
  S  S2  1  0.61520600  0.89280500  0.14589700  1
  S  S3  1  0.17143800  0.38575200  0.17069200  1
  S  S4  1  0.68086800  0.22350100  0.04959800  1
  S  S5  1  0.18592800  0.76367200  0.11770600  1
  S  S6  1  0.47355500  0.54040200  0.13084200  1
  S  S7  1  0.93440900  0.15519000  0.22189800  1
  S  S8  1  0.61697800  0.27601300  0.35447000  1
  S  S9  1  0.99725500  0.88344500  0.31046800  1
  S  S10  1  0.33215000  0.71917900  0.35152100  1
  S  S11  1  0.93478200  0.23010000  0.46066300  1
  S  S12  1  0.32217000  0.04092900  0.29180200  1
  S  S13  1  0.97868500  0.53133300  0.32593000  1
  S  S14  1  0.27564300  0.37011800  0.42652900  1
  S  S15  1  0.62170800  0.96059400  0.41777500  1
  S  S16  1  0.29505200  0.08673700  0.54774000  1
  S  S17  1  0.76838500  0.69907500  0.60396900  1
  S  S18  1  0.05779900  0.46540500  0.67051100  1
  S  S19  1  0.62543000  0.04368600  0.66783500  1
  S  S20  1  0.03160100  0.78795500  0.52429800  1
  S  S21  1  0.66637500  0.35823800  0.63381200  1
  S  S22  1  0.99029000  0.10389800  0.66265600  1
  S  S23  1  0.38904200  0.73541100  0.61678500  1
  S  S24  1  0.08771100  0.84265600  0.77547600  1
  S  S25  1  0.55880400  0.40498400  0.88729000  1
  S  S26  1  0.88375900  0.20083500  0.86068000  1
  S  S27  1  0.38519000  0.73227600  0.91935400  1
  S  S28  1  0.86195800  0.60606000  0.83759600  1
  S  S29  1  0.37345600  0.07803800  0.83700800  1
  S  S30  1  0.69749000  0.89009100  0.86049100  1
  S  S31  1  0.18597100  0.42648300  0.91307800  1
loop_
_geom_bond_atom_site_label_1
_geom_bond_atom_site_label_2
_geom_bond_distance
_geom_bond_site_symmetry_2
Tl0 V0 2.944904 1_544
S0 V1 2.359413 1_654
S0 V7 2.387149 1_555
S0 V6 2.436210 1_655
S0 V22 2.475500 1_655
S0 V21 2.487311 1_555
S1 V0 2.289797 1_544
S1 V23 2.421189 1_544
S1 V3 2.435506 1_555
S1 V2 2.476715 1_554
S2 V21 2.434303 1_555
S2 V4 2.471667 1_565
S2 V5 2.512980 1_555
S2 V23 2.538220 1_554
S3 V22 2.279653 1_555
S3 V7 2.335270 1_455
S3 V6 2.341878 1_555
S3 V3 2.427271 1_555
S4 V23 2.389616 1_544
S4 V18 2.401281 1_554
S4 V2 2.412797 1_554
S4 V7 2.437581 1_555
S5 V1 2.183437 1_554
S5 V5 2.292164 1_555
S5 V6 2.440545 1_555
S5 Tl0 3.135279 1_565
S6 V21 2.214043 1_555
S6 V5 2.381167 1_555
S6 V2 2.395602 1_554
S6 Tl1 3.069888 1_555
S7 V8 2.324509 1_655
S7 V7 2.349020 1_555
S7 V4 2.387040 1_555
S7 Tl0 2.822655 1_655
S8 V3 2.336376 1_555
S8 V13 2.462669 1_555
S8 V4 2.616808 1_555
S8 V12 2.936023 1_555
S8 Tl1 3.006350 1_555
S9 V9 2.318908 1_665
S9 V4 2.378211 1_565
S9 V8 2.381715 1_665
S9 V6 2.477891 1_655
S10 V11 2.246762 1_555
S10 V10 2.407280 1_555
S10 V5 2.490058 1_555
S10 V6 2.559130 1_555
S11 V9 2.285105 1_655
S11 V12 2.341486 1_555
S11 V4 2.346337 1_555
S11 V8 2.352031 1_655
S12 V3 2.262225 1_555
S12 V8 2.341489 1_555
S12 V13 2.416661 1_555
S12 V5 2.419962 1_545
S13 V7 2.250066 1_555
S13 V11 2.342967 1_655
S13 V6 2.402757 1_655
S13 Tl1 2.936218 1_555
S14 V11 2.385045 1_555
S14 V3 2.394712 1_555
S14 V8 2.471199 1_555
S14 V13 2.482376 1_555
S15 V14 2.354034 1_555
S15 V13 2.480006 1_565
S15 V10 2.582535 1_555
S15 V4 2.708487 1_565
S15 V5 2.849698 1_555
S16 V9 2.311926 1_555
S16 V10 2.316698 1_545
S16 V19 2.590272 1_545
S16 V13 2.641327 1_555
S16 V8 2.838145 1_555
S16 Tl2 3.213596 1_555
S17 V20 2.262736 1_555
S17 V14 2.311902 1_555
S17 V12 2.353879 1_555
S17 V15 2.476973 1_555
S18 V16 2.316956 1_555
S18 V12 2.321680 1_455
S18 V17 2.336359 1_455
S18 Tl2 2.848759 1_555
S19 V10 2.308013 1_545
S19 V15 2.375336 1_545
S19 V14 2.432122 1_545
S19 V18 2.534124 1_555
S20 V9 2.332386 1_565
S20 V19 2.341420 1_555
S20 V11 2.400297 1_555
S20 V14 2.502932 1_455
S21 V12 2.216917 1_555
S21 V20 2.641166 1_555
S21 V13 2.641946 1_555
S21 V17 2.916560 1_555
S21 Tl2 2.972836 1_555
S22 V14 2.387359 1_545
S22 V9 2.432385 1_655
S22 V19 2.472603 1_645
S22 V17 2.546551 1_555
S22 V15 2.771275 1_545
S23 V10 2.366952 1_555
S23 V11 2.470922 1_555
S23 V19 2.510764 1_555
S23 V20 2.614618 1_555
S24 V0 2.344292 1_555
S24 V16 2.378311 1_555
S24 V15 2.395509 1_455
S24 V19 2.569717 1_555
S25 V21 2.338189 1_556
S25 V2 2.366206 1_555
S25 V18 2.384966 1_555
S25 Tl2 2.909470 1_555
S26 V22 2.253318 1_656
S26 V18 2.367829 1_555
S26 V15 2.373222 1_545
S26 V17 2.403243 1_555
S27 V0 2.343266 1_555
S27 V16 2.388842 1_555
S27 V21 2.475636 1_556
S27 V23 2.545090 1_555
S28 V1 2.275878 1_655
S28 V17 2.277263 1_555
S28 V20 2.444422 1_555
S28 V16 2.462654 1_655
S29 V0 2.334643 1_545
S29 V18 2.379347 1_555
S29 V2 2.399970 1_555
S29 V19 2.437512 1_545
S29 V23 2.660174 1_545
S30 V15 2.390090 1_555
S30 V20 2.405896 1_555
S30 V18 2.449329 1_565
S30 V23 2.472412 1_555
S30 Tl0 3.135593 1_666
S31 V1 2.377719 1_555
S31 V17 2.381566 1_455
S31 V22 2.406495 1_556
S31 V16 2.430929 1_555
S31 V2 2.633996 1_555
