# generated using pymatgen
data_Sr4LiSm2Ta2O12
_symmetry_space_group_name_H-M   'P 1'
_cell_length_a   5.93725425
_cell_length_b   6.09219036
_cell_length_c   8.47072736
_cell_angle_alpha   89.91069391
_cell_angle_beta   90.50412586
_cell_angle_gamma   89.21447621
_symmetry_Int_Tables_number   1
_chemical_formula_structural   Sr4LiSm2Ta2O12
_chemical_formula_sum   'Sr4 Li1 Sm2 Ta2 O12'
_cell_volume   306.35260331
_cell_formula_units_Z   1
loop_
 _symmetry_equiv_pos_site_id
 _symmetry_equiv_pos_as_xyz
  1  'x, y, z'
loop_
 _atom_site_type_symbol
 _atom_site_label
 _atom_site_symmetry_multiplicity
 _atom_site_fract_x
 _atom_site_fract_y
 _atom_site_fract_z
 _atom_site_occupancy
  Sr  Sr0  1  0.01675000  0.45102100  0.24718000  1
  Sr  Sr1  1  0.99763000  0.59114600  0.75151000  1
  Sr  Sr2  1  0.48927800  0.94213600  0.24742800  1
  Sr  Sr3  1  0.46678200  0.00884900  0.74343600  1
  Li  Li0  1  0.86394800  0.20032100  0.74961300  1
  Sm  Sm0  1  0.99738700  0.99137400  0.48394600  1
  Sm  Sm1  1  0.50269400  0.48864100  0.99954600  1
  Ta  Ta0  1  0.99775600  0.99609300  0.00861600  1
  Ta  Ta1  1  0.50135500  0.49100400  0.50106400  1
  O  O0  1  0.90216600  0.03247400  0.22982300  1
  O  O1  1  0.06643200  0.97970100  0.76277000  1
  O  O2  1  0.58942800  0.51659700  0.27062300  1
  O  O3  1  0.41094800  0.47350200  0.73206400  1
  O  O4  1  0.18683300  0.72357000  0.04391100  1
  O  O5  1  0.82618200  0.28559100  0.94894800  1
  O  O6  1  0.31592900  0.21858700  0.45269500  1
  O  O7  1  0.68728200  0.76870000  0.54574100  1
  O  O8  1  0.27625800  0.18085700  0.04420300  1
  O  O9  1  0.71834400  0.81399500  0.95804700  1
  O  O10  1  0.22785800  0.68828700  0.45642200  1
  O  O11  1  0.78167800  0.30338700  0.55678800  1
loop_
_geom_bond_atom_site_label_1
_geom_bond_atom_site_label_2
_geom_bond_distance
_geom_bond_site_symmetry_2
Li0 O5 1.782531 1_555
Li0 O1 1.793619 1_645
Li0 O11 1.809721 1_555
O0 Ta0 1.974552 1_545
O0 Sm0 2.233619 1_545
O0 Sr2 2.525424 1_545
O0 Sr0 2.652026 1_655
O1 Ta0 2.127789 1_456
O1 Sr3 2.393057 1_565
O1 Sm0 2.394378 1_455
O1 Sr1 2.409544 1_455
O2 Ta1 2.031578 1_555
O2 Sm1 2.355766 1_554
O2 Sr0 2.572417 1_655
O2 Sr2 2.658408 1_555
O3 Ta1 2.036594 1_555
O3 Sm1 2.327925 1_555
O3 Sr1 2.553831 1_455
O3 Sr3 2.846964 1_555
O4 Ta0 2.011846 1_455
O4 Sm1 2.376355 1_554
O4 Sr0 2.609430 1_555
O4 Sr2 2.826257 1_555
O4 Sr1 2.833664 1_454
O5 Ta0 2.083896 1_546
O5 Sm1 2.313813 1_555
O5 Sr1 2.714892 1_555
O5 Sr0 2.943927 1_656
O6 Ta1 2.044139 1_555
O6 Sm0 2.375392 1_445
O6 Sr2 2.629101 1_545
O6 Sr0 2.839001 1_555
O6 Sr3 2.901757 1_555
O7 Ta1 2.066342 1_555
O7 Sm0 2.363775 1_555
O7 Sr3 2.579231 1_565
O7 Sr1 2.736118 1_555
O7 Sr2 2.964652 1_555
O8 Ta0 2.033566 1_445
O8 Sm1 2.354210 1_554
O8 Sr2 2.565458 1_545
O8 Sr0 2.832848 1_555
O8 Sr3 2.982463 1_554
O9 Ta0 2.050786 1_556
O9 Sm1 2.401467 1_555
O9 Sr3 2.615657 1_565
O9 Sr1 2.765922 1_555
O9 Sr2 2.916046 1_556
O10 Ta1 2.039261 1_555
O10 Sm0 2.296494 1_455
O10 Sr0 2.611606 1_555
O10 Sr2 2.835564 1_555
O10 Sr1 2.923089 1_455
O11 Ta1 2.057095 1_555
O11 Sm0 2.363255 1_545
O11 Sr1 2.733370 1_555
O11 Sr0 3.118719 1_655
