# generated using pymatgen
data_FeHO2
_symmetry_space_group_name_H-M   'P 1'
_cell_length_a   6.09504900
_cell_length_b   10.40736318
_cell_length_c   10.58116528
_cell_angle_alpha   88.20589286
_cell_angle_beta   89.79086048
_cell_angle_gamma   89.74487200
_symmetry_Int_Tables_number   1
_chemical_formula_structural   FeHO2
_chemical_formula_sum   'Fe16 H16 O32'
_cell_volume   670.85934747
_cell_formula_units_Z   16
loop_
 _symmetry_equiv_pos_site_id
 _symmetry_equiv_pos_as_xyz
  1  'x, y, z'
loop_
 _atom_site_type_symbol
 _atom_site_label
 _atom_site_symmetry_multiplicity
 _atom_site_fract_x
 _atom_site_fract_y
 _atom_site_fract_z
 _atom_site_occupancy
  Fe  Fe0  1  0.98783800  0.35107000  0.86670700  1
  Fe  Fe1  1  0.99530100  0.14338700  0.36882200  1
  Fe  Fe2  1  0.24751100  0.84533600  0.38259800  1
  Fe  Fe3  1  0.23265800  0.65525400  0.90690200  1
  Fe  Fe4  1  0.00418900  0.65946800  0.19395200  1
  Fe  Fe5  1  0.00004100  0.85739700  0.68837800  1
  Fe  Fe6  1  0.24241700  0.16050200  0.65776900  1
  Fe  Fe7  1  0.23903100  0.35337900  0.16001900  1
  Fe  Fe8  1  0.49303500  0.35865200  0.87285400  1
  Fe  Fe9  1  0.49362600  0.14878500  0.35897800  1
  Fe  Fe10  1  0.74622800  0.85183600  0.39233000  1
  Fe  Fe11  1  0.76030800  0.65462600  0.89076200  1
  Fe  Fe12  1  0.49016500  0.65626000  0.18845000  1
  Fe  Fe13  1  0.49513800  0.86768700  0.67194000  1
  Fe  Fe14  1  0.74292800  0.15884500  0.65767900  1
  Fe  Fe15  1  0.74163400  0.35495400  0.17214700  1
  H  H0  1  0.99108700  0.37082500  0.60670500  1
  H  H1  1  0.97499500  0.41114300  0.35285600  1
  H  H2  1  0.26408000  0.90676500  0.88078900  1
  H  H3  1  0.98524200  0.64225300  0.45970800  1
  H  H4  1  0.99701300  0.58283400  0.70818900  1
  H  H5  1  0.21869800  0.15275400  0.92231100  1
  H  H6  1  0.25491200  0.07252400  0.17872700  1
  H  H7  1  0.49165800  0.36470000  0.60055600  1
  H  H8  1  0.48359000  0.40613900  0.36209700  1
  H  H9  1  0.73464200  0.86008400  0.13752300  1
  H  H10  1  0.74847000  0.91331400  0.87575000  1
  H  H11  1  0.49892900  0.64979300  0.46728400  1
  H  H12  1  0.62461500  0.57495600  0.70443300  1
  H  H13  1  0.37104200  0.58161300  0.70716100  1
  H  H14  1  0.74905600  0.15704900  0.92613200  1
  H  H15  1  0.72656400  0.09380600  0.16100900  1
  O  O0  1  0.99177500  0.30473000  0.67358900  1
  O  O1  1  0.99516200  0.04244100  0.68961500  1
  O  O2  1  0.98602900  0.33728300  0.29913500  1
  O  O3  1  0.98394300  0.34038100  0.04917000  1
  O  O4  1  0.24992400  0.78942600  0.20112800  1
  O  O5  1  0.24577100  0.53440000  0.19984700  1
  O  O6  1  0.25622900  0.84050800  0.81800600  1
  O  O7  1  0.23991400  0.84151300  0.57119600  1
  O  O8  1  0.99106400  0.70060600  0.38645100  1
  O  O9  1  0.99327800  0.96049700  0.35926600  1
  O  O10  1  0.00916200  0.66548600  0.74838800  1
  O  O11  1  0.99350900  0.69174000  0.01055000  1
  O  O12  1  0.23376200  0.22183000  0.85885300  1
  O  O13  1  0.23685100  0.47465600  0.85377400  1
  O  O14  1  0.25091200  0.15096500  0.22682000  1
  O  O15  1  0.24840700  0.17351300  0.47587300  1
  O  O16  1  0.48986600  0.30508500  0.67321600  1
  O  O17  1  0.49263000  0.04958000  0.69859500  1
  O  O18  1  0.49512100  0.33657700  0.30307500  1
  O  O19  1  0.50268000  0.33908400  0.05514200  1
  O  O20  1  0.73931300  0.79317000  0.20363400  1
  O  O21  1  0.74744000  0.53556500  0.19996300  1
  O  O22  1  0.74676900  0.84501700  0.81510300  1
  O  O23  1  0.75932000  0.83912700  0.57572500  1
  O  O24  1  0.50238900  0.70262300  0.38935900  1
  O  O25  1  0.49436300  0.96622400  0.36854800  1
  O  O26  1  0.49980400  0.62912100  0.67267500  1
  O  O27  1  0.50188400  0.67090200  0.99613000  1
  O  O28  1  0.74777500  0.22031500  0.85644800  1
  O  O29  1  0.74311000  0.47338900  0.83772200  1
  O  O30  1  0.73682300  0.15847900  0.22514000  1
  O  O31  1  0.73705700  0.17062000  0.47582200  1
loop_
_geom_bond_atom_site_label_1
_geom_bond_atom_site_label_2
_geom_bond_distance
_geom_bond_site_symmetry_2
Fe0 O3 1.930459 1_556
Fe0 O29 1.975241 1_555
Fe0 O13 1.995357 1_655
Fe0 O28 2.008154 1_555
Fe0 O12 2.012698 1_655
Fe0 O0 2.114226 1_555
Fe1 O9 1.909342 1_545
Fe1 O15 1.949506 1_655
Fe1 O31 1.960303 1_555
Fe1 O2 2.127236 1_555
Fe1 O14 2.160485 1_655
Fe1 O30 2.195081 1_555
Fe2 O9 1.966285 1_455
Fe2 O25 1.967801 1_555
Fe2 O7 1.995110 1_555
Fe2 O4 2.023735 1_555
Fe2 O24 2.144315 1_555
Fe2 O8 2.174920 1_455
Fe3 O11 1.865777 1_456
Fe3 O27 1.906288 1_555
Fe3 O13 1.978637 1_555
Fe3 O6 2.123804 1_555
Fe3 O10 2.164346 1_555
Fe4 O11 1.960335 1_455
Fe4 O5 1.960807 1_555
Fe4 O4 2.025755 1_555
Fe4 O21 2.031718 1_455
Fe4 O8 2.095621 1_455
Fe4 O20 2.130922 1_455
Fe5 O23 1.907657 1_455
Fe5 O7 1.923470 1_555
Fe5 O1 1.926371 1_465
Fe5 O22 2.042909 1_455
Fe5 O10 2.077330 1_555
Fe5 O6 2.085314 1_555
Fe6 O15 1.925420 1_555
Fe6 O17 1.950123 1_555
Fe6 O1 1.970092 1_455
Fe6 O16 2.145470 1_555
Fe6 O0 2.146709 1_455
Fe6 O12 2.240803 1_555
Fe7 O5 1.943988 1_555
Fe7 O19 1.957321 1_555
Fe7 O3 1.958689 1_455
Fe7 O2 2.131457 1_455
Fe7 O18 2.180930 1_555
Fe7 O14 2.201904 1_555
Fe8 O19 1.934270 1_556
Fe8 O29 1.967640 1_555
Fe8 O13 1.976540 1_555
Fe8 O28 2.123074 1_555
Fe8 O12 2.140525 1_555
Fe8 O16 2.201715 1_555
Fe9 O25 1.899493 1_545
Fe9 O31 1.953360 1_555
Fe9 O15 1.957810 1_555
Fe9 O18 2.024219 1_555
Fe9 O14 2.038946 1_555
Fe9 O30 2.046939 1_555
Fe10 O9 1.911858 1_555
Fe10 O23 1.942806 1_555
Fe10 O25 1.950633 1_555
Fe10 O20 2.106713 1_555
Fe10 O24 2.155297 1_555
Fe10 O8 2.166219 1_555
Fe11 O27 1.936317 1_555
Fe11 O11 1.955694 1_556
Fe11 O29 1.988010 1_555
Fe11 O22 2.115094 1_555
Fe11 O10 2.134728 1_655
Fe12 O5 1.961582 1_555
Fe12 O21 2.006462 1_555
Fe12 O4 2.018660 1_555
Fe12 O27 2.036920 1_554
Fe12 O20 2.097024 1_555
Fe12 O24 2.196206 1_555
Fe13 O7 1.914288 1_555
Fe13 O17 1.922621 1_565
Fe13 O23 1.928802 1_555
Fe13 O6 2.132839 1_555
Fe13 O22 2.166560 1_555
Fe13 O26 2.482648 1_555
Fe14 O31 1.924778 1_555
Fe14 O17 1.946217 1_555
Fe14 O1 1.976595 1_555
Fe14 O0 2.161566 1_555
Fe14 O16 2.171500 1_555
Fe14 O28 2.217768 1_555
Fe15 O21 1.912172 1_555
Fe15 O19 1.925970 1_555
Fe15 O3 1.973259 1_555
Fe15 O2 2.013680 1_555
Fe15 O18 2.045516 1_555
Fe15 O30 2.103580 1_555
H0 O0 0.971369 1_555
H1 O2 0.972182 1_555
H2 O6 0.973812 1_555
H3 O8 0.970277 1_555
H4 O10 0.974700 1_655
H5 O12 0.972634 1_555
H6 O14 0.975576 1_555
H7 O16 0.972772 1_555
H8 O18 0.972943 1_555
H9 O20 0.971901 1_555
H10 O22 0.972526 1_555
H11 O24 0.976831 1_555
H12 O26 0.997792 1_555
H13 O26 0.991773 1_555
H14 O28 0.973066 1_555
H15 O30 0.972983 1_555
