# generated using pymatgen
data_Zn(MoO2)2
_symmetry_space_group_name_H-M   'P 1'
_cell_length_a   6.19932671
_cell_length_b   6.43705439
_cell_length_c   6.19922521
_cell_angle_alpha   90.00692819
_cell_angle_beta   117.44306911
_cell_angle_gamma   121.27046582
_symmetry_Int_Tables_number   1
_chemical_formula_structural   Zn(MoO2)2
_chemical_formula_sum   'Zn2 Mo4 O8'
_cell_volume   178.06410734
_cell_formula_units_Z   2
loop_
 _symmetry_equiv_pos_site_id
 _symmetry_equiv_pos_as_xyz
  1  'x, y, z'
loop_
 _atom_site_type_symbol
 _atom_site_label
 _atom_site_symmetry_multiplicity
 _atom_site_fract_x
 _atom_site_fract_y
 _atom_site_fract_z
 _atom_site_occupancy
  Zn  Zn0  1  0.24529100  0.12262800  0.87739300  1
  Zn  Zn1  1  0.75624400  0.87812700  0.12188400  1
  Mo  Mo0  1  0.50016100  0.00001500  0.49982900  1
  Mo  Mo1  1  0.50015600  0.50015000  0.49982900  1
  Mo  Mo2  1  0.00031000  0.50016000  0.99998600  1
  Mo  Mo3  1  0.99954900  0.49978300  0.50026700  1
  O  O0  1  0.01218500  0.74462000  0.25543300  1
  O  O1  1  0.48918500  0.74461600  0.73243700  1
  O  O2  1  0.48410500  0.74204900  0.25784300  1
  O  O3  1  0.98756000  0.73300100  0.74542400  1
  O  O4  1  0.51626200  0.25814300  0.74187900  1
  O  O5  1  0.50925100  0.25459100  0.26703000  1
  O  O6  1  0.01219100  0.26757400  0.25539200  1
  O  O7  1  0.98755000  0.25454300  0.74537600  1
loop_
_geom_bond_atom_site_label_1
_geom_bond_atom_site_label_2
_geom_bond_distance
_geom_bond_site_symmetry_2
Mo0 O2 2.169760 1_545
Mo0 O4 2.170612 1_555
Mo0 O5 2.179677 1_555
Mo0 O7 2.179813 1_555
Mo0 O0 2.182042 1_545
Mo0 O1 2.182117 1_545
Mo1 O2 2.169959 1_555
Mo1 O4 2.170775 1_555
Mo1 O5 2.179780 1_555
Mo1 O3 2.179892 1_555
Mo1 O6 2.182002 1_555
Mo1 O1 2.182032 1_555
Mo2 O2 2.169592 1_556
Mo2 O4 2.170798 1_455
Mo2 O3 2.179823 1_455
Mo2 O7 2.179851 1_455
Mo2 O0 2.181978 1_556
Mo2 O6 2.182064 1_556
Mo3 O1 2.185237 1_655
Mo3 O6 2.185304 1_655
Mo3 O0 2.185329 1_655
Mo3 O3 2.188236 1_555
Mo3 O5 2.188282 1_555
Mo3 O7 2.188441 1_555
O0 Zn1 2.036283 1_455
O1 Zn1 2.036278 1_556
O2 Zn1 2.024980 1_555
O3 Zn0 2.036407 1_665
O4 Zn0 2.016976 1_555
O5 Zn0 2.036393 1_554
O6 Zn1 2.036348 1_445
O7 Zn0 2.036483 1_655
