# generated using pymatgen
data_U2(PdRh)3
_symmetry_space_group_name_H-M   'P 1'
_cell_length_a   3.93052618
_cell_length_b   4.04924336
_cell_length_c   8.37627438
_cell_angle_alpha   90.00000000
_cell_angle_beta   90.00000000
_cell_angle_gamma   90.00000000
_symmetry_Int_Tables_number   1
_chemical_formula_structural   U2(PdRh)3
_chemical_formula_sum   'U2 Pd3 Rh3'
_cell_volume   133.31391027
_cell_formula_units_Z   1
loop_
 _symmetry_equiv_pos_site_id
 _symmetry_equiv_pos_as_xyz
  1  'x, y, z'
loop_
 _atom_site_type_symbol
 _atom_site_label
 _atom_site_symmetry_multiplicity
 _atom_site_fract_x
 _atom_site_fract_y
 _atom_site_fract_z
 _atom_site_occupancy
  U  U0  1  -0.00000000  0.00000000  0.75684162  1
  U  U1  1  -0.00000000  0.00000000  0.24315838  1
  Pd  Pd0  1  0.50000000  0.00000000  0.50000000  1
  Pd  Pd1  1  0.00000000  0.50000000  0.00000000  1
  Pd  Pd2  1  -0.00000000  0.50000000  0.50000000  1
  Rh  Rh0  1  0.50000000  0.50000000  0.74932947  1
  Rh  Rh1  1  0.50000000  0.50000000  0.25067053  1
  Rh  Rh2  1  0.50000000  0.00000000  -0.00000000  1
loop_
_geom_bond_atom_site_label_1
_geom_bond_atom_site_label_2
_geom_bond_distance
_geom_bond_site_symmetry_2
Pd0 Pd2 2.821587 1_655
Pd0 Pd2 2.821587 1_555
Pd0 Pd2 2.821587 1_545
Pd0 Pd2 2.821587 1_645
Pd0 Rh1 2.908733 1_555
Pd0 Rh1 2.908733 1_545
Pd0 Rh0 2.908733 1_555
Pd0 Rh0 2.908733 1_545
Pd0 U1 2.913877 1_655
Pd0 U0 2.913877 1_655
Pd0 U0 2.913877 1_555
Pd0 U1 2.913877 1_555
Pd1 Rh2 2.821587 1_555
Pd1 Rh2 2.821587 1_455
Pd1 Rh2 2.821587 1_565
Pd1 Rh2 2.821587 1_465
Pd1 U0 2.871844 1_564
Pd1 U0 2.871844 1_554
Pd1 U1 2.871844 1_565
Pd1 U1 2.871844 1_555
Pd1 Rh1 2.875924 1_555
Pd1 Rh0 2.875924 1_554
Pd1 Rh1 2.875924 1_455
Pd1 Rh0 2.875924 1_454
Pd2 Rh1 2.867733 1_555
Pd2 Rh1 2.867733 1_455
Pd2 Rh0 2.867733 1_555
Pd2 Rh0 2.867733 1_455
Pd2 U0 2.954236 1_565
Pd2 U1 2.954236 1_565
Pd2 U0 2.954236 1_555
Pd2 U1 2.954236 1_555
Rh0 U0 2.822288 1_665
Rh0 U0 2.822288 1_555
Rh0 U0 2.822288 1_655
Rh0 U0 2.822288 1_565
Rh0 Rh2 2.916808 1_556
Rh0 Rh2 2.916808 1_566
Rh1 U1 2.822288 1_565
Rh1 U1 2.822288 1_655
Rh1 U1 2.822288 1_665
Rh1 U1 2.822288 1_555
Rh1 Rh2 2.916808 1_555
Rh1 Rh2 2.916808 1_565
Rh2 U1 2.830310 1_555
Rh2 U0 2.830310 1_654
Rh2 U0 2.830310 1_554
Rh2 U1 2.830310 1_655
