# generated using pymatgen
data_Sr6Mg(Te4O11)2
_symmetry_space_group_name_H-M   'P 1'
_cell_length_a   7.61290865
_cell_length_b   9.92454361
_cell_length_c   9.33475051
_cell_angle_alpha   93.74620687
_cell_angle_beta   107.96234872
_cell_angle_gamma   98.61829102
_symmetry_Int_Tables_number   1
_chemical_formula_structural   Sr6Mg(Te4O11)2
_chemical_formula_sum   'Sr6 Mg1 Te8 O22'
_cell_volume   658.65019160
_cell_formula_units_Z   1
loop_
 _symmetry_equiv_pos_site_id
 _symmetry_equiv_pos_as_xyz
  1  'x, y, z'
loop_
 _atom_site_type_symbol
 _atom_site_label
 _atom_site_symmetry_multiplicity
 _atom_site_fract_x
 _atom_site_fract_y
 _atom_site_fract_z
 _atom_site_occupancy
  Sr  Sr0  1  0.28724334  0.03614970  0.11278702  1
  Sr  Sr1  1  0.70102793  0.93206125  0.87774055  1
  Sr  Sr2  1  0.84303605  0.05176395  0.30979850  1
  Sr  Sr3  1  0.17065938  0.94880904  0.70065144  1
  Sr  Sr4  1  0.34935237  0.55047522  0.61862503  1
  Sr  Sr5  1  0.70495024  0.40854720  0.33984135  1
  Mg  Mg0  1  0.79212869  0.71688172  0.48047286  1
  Te  Te0  1  0.07831535  0.34019243  0.20006575  1
  Te  Te1  1  0.98193810  0.63808736  0.79565367  1
  Te  Te2  1  0.97291423  0.23721828  0.74663111  1
  Te  Te3  1  0.98613295  0.74444237  0.23028724  1
  Te  Te4  1  0.45664721  0.70713931  0.06694789  1
  Te  Te5  1  0.50098123  0.29481290  0.92901261  1
  Te  Te6  1  0.48704652  0.86605784  0.47245123  1
  Te  Te7  1  0.46696169  0.18752749  0.52268027  1
  O  O0  1  0.92221062  0.56746818  0.57865318  1
  O  O1  1  0.08456107  0.45286131  0.37191841  1
  O  O2  1  0.51490794  0.67317173  0.45155239  1
  O  O3  1  0.53685089  0.38149287  0.54042595  1
  O  O4  1  0.82060706  0.25851982  0.15534044  1
  O  O5  1  0.21227911  0.78694884  0.92572473  1
  O  O6  1  0.68565554  0.15276874  0.69358111  1
  O  O7  1  0.27831598  0.83536983  0.27995819  1
  O  O8  1  0.41171019  0.82857091  0.64860460  1
  O  O9  1  0.57299488  0.15640190  0.36501481  1
  O  O10  1  0.99119484  0.12919625  0.58135157  1
  O  O11  1  0.99341396  0.84026842  0.42064770  1
  O  O12  1  0.43060001  0.32224702  0.10309114  1
  O  O13  1  0.54259130  0.67338137  0.90200823  1
  O  O14  1  0.56046289  0.89637322  0.12105419  1
  O  O15  1  0.44384737  0.09987734  0.90019466  1
  O  O16  1  0.93924635  0.89394726  0.11738120  1
  O  O17  1  0.02397481  0.10936098  0.88909757  1
  O  O18  1  0.16978310  0.18672068  0.28989329  1
  O  O19  1  0.88116151  0.79897195  0.71184346  1
  O  O20  1  0.72112531  0.65640989  0.23275806  1
  O  O21  1  0.27483697  0.33236244  0.78153760  1
loop_
_geom_bond_atom_site_label_1
_geom_bond_atom_site_label_2
_geom_bond_distance
_geom_bond_site_symmetry_2
Mg0 O2 2.018413 1_555
Mg0 O0 2.019265 1_555
Mg0 O11 2.052889 1_555
Mg0 O19 2.118843 1_555
Mg0 O20 2.224827 1_555
O0 Te1 1.987983 1_555
O0 Sr5 2.584062 1_555
O0 Sr4 3.188421 1_655
O1 Te0 1.878479 1_555
O1 Sr4 2.562325 1_555
O1 Sr5 2.775427 1_455
O2 Te6 1.961129 1_555
O2 Sr4 2.550329 1_555
O3 Te7 1.900850 1_555
O3 Sr4 2.565749 1_555
O3 Sr5 2.579987 1_555
O4 Te0 1.911643 1_655
O4 Sr2 2.580372 1_555
O4 Sr5 2.636583 1_555
O5 Te1 2.099482 1_455
O5 Te4 2.211692 1_556
O5 Sr3 2.697790 1_555
O5 Sr0 2.808840 1_566
O6 Te7 2.010412 1_555
O6 Te2 2.111539 1_555
O6 Sr1 2.865603 1_545
O7 Te6 1.966955 1_555
O7 Te3 2.164424 1_455
O7 Sr0 2.615644 1_565
O8 Te6 1.941365 1_555
O8 Sr3 2.481544 1_555
O8 Sr1 2.571062 1_555
O8 Sr4 2.710273 1_555
O9 Te7 1.913431 1_555
O9 Sr2 2.606506 1_555
O9 Sr5 2.606826 1_555
O9 Sr0 2.719533 1_555
O10 Te2 1.873519 1_555
O10 Sr2 2.451648 1_555
O10 Sr3 2.523289 1_645
O11 Te3 1.941072 1_555
O11 Sr3 2.614198 1_655
O11 Sr2 2.657149 1_565
O12 Te5 1.877419 1_554
O12 Sr5 2.519825 1_555
O12 Sr0 2.902957 1_555
O13 Te4 1.878975 1_556
O13 Sr4 2.700006 1_555
O13 Sr1 2.722784 1_555
O14 Te4 1.895214 1_555
O14 Sr2 2.534399 1_565
O14 Sr0 2.652632 1_565
O14 Sr1 2.814229 1_554
O15 Te5 1.900536 1_555
O15 Sr3 2.520716 1_545
O15 Sr0 2.675241 1_556
O15 Sr1 2.799276 1_545
O16 Te3 1.889664 1_555
O16 Sr1 2.500013 1_554
O16 Sr2 2.646409 1_565
O16 Sr0 2.823057 1_665
O17 Te2 1.891924 1_455
O17 Sr0 2.637888 1_556
O17 Sr1 2.769540 1_445
O17 Sr3 2.873843 1_545
O18 Te0 1.905930 1_555
O18 Sr0 2.599111 1_555
O18 Te7 2.607780 1_555
O18 Sr2 2.708355 1_455
O19 Te1 1.977448 1_555
O19 Sr3 2.501925 1_655
O19 Sr1 2.758409 1_555
O20 Te3 2.082581 1_555
O20 Te4 2.277414 1_555
O20 Sr5 2.715149 1_555
O21 Te5 1.948203 1_555
O21 Te2 2.264582 1_455
O21 Sr4 2.813274 1_555
