# generated using pymatgen
data_Sm2MgSe4
_symmetry_space_group_name_H-M   'P 1'
_cell_length_a   6.92259700
_cell_length_b   8.44646600
_cell_length_c   14.46574500
_cell_angle_alpha   90.00000000
_cell_angle_beta   90.00000000
_cell_angle_gamma   90.00000000
_symmetry_Int_Tables_number   1
_chemical_formula_structural   Sm2MgSe4
_chemical_formula_sum   'Sm8 Mg4 Se16'
_cell_volume   845.83352223
_cell_formula_units_Z   4
loop_
 _symmetry_equiv_pos_site_id
 _symmetry_equiv_pos_as_xyz
  1  'x, y, z'
loop_
 _atom_site_type_symbol
 _atom_site_label
 _atom_site_symmetry_multiplicity
 _atom_site_fract_x
 _atom_site_fract_y
 _atom_site_fract_z
 _atom_site_occupancy
  Sm  Sm0  1  0.50000000  0.00000000  0.00000000  1
  Sm  Sm1  1  0.00000000  0.00000000  0.50000000  1
  Sm  Sm2  1  0.00000000  0.50000000  0.50000000  1
  Sm  Sm3  1  0.50000000  0.50000000  0.00000000  1
  Sm  Sm4  1  0.00189500  0.75000000  0.23395300  1
  Sm  Sm5  1  0.99810500  0.25000000  0.76604700  1
  Sm  Sm6  1  0.50189500  0.25000000  0.26604700  1
  Sm  Sm7  1  0.49810500  0.75000000  0.73395300  1
  Mg  Mg0  1  0.91729300  0.25000000  0.09244200  1
  Mg  Mg1  1  0.08270700  0.75000000  0.90755800  1
  Mg  Mg2  1  0.41729300  0.75000000  0.40755800  1
  Mg  Mg3  1  0.58270700  0.25000000  0.59244200  1
  Se  Se0  1  0.74378900  0.01007900  0.16892900  1
  Se  Se1  1  0.25621100  0.98992100  0.83107100  1
  Se  Se2  1  0.24378900  0.98992100  0.33107100  1
  Se  Se3  1  0.75621100  0.01007900  0.66892900  1
  Se  Se4  1  0.75621100  0.48992100  0.66892900  1
  Se  Se5  1  0.24378900  0.51007900  0.33107100  1
  Se  Se6  1  0.25621100  0.51007900  0.83107100  1
  Se  Se7  1  0.74378900  0.48992100  0.16892900  1
  Se  Se8  1  0.24698200  0.75000000  0.07069300  1
  Se  Se9  1  0.75301800  0.25000000  0.92930700  1
  Se  Se10  1  0.74698200  0.25000000  0.42930700  1
  Se  Se11  1  0.25301800  0.75000000  0.57069300  1
  Se  Se12  1  0.28451900  0.25000000  0.09179700  1
  Se  Se13  1  0.71548100  0.75000000  0.90820300  1
  Se  Se14  1  0.78451900  0.75000000  0.40820300  1
  Se  Se15  1  0.21548100  0.25000000  0.59179700  1
loop_
_geom_bond_atom_site_label_1
_geom_bond_atom_site_label_2
_geom_bond_distance
_geom_bond_site_symmetry_2
Mg0 Se12 2.542175 1_655
Mg0 Se7 2.602593 1_555
Mg0 Se0 2.602593 1_555
Mg0 Se9 2.619586 1_554
Mg1 Se13 2.542175 1_455
Mg1 Se1 2.602593 1_555
Mg1 Se6 2.602593 1_555
Mg1 Se8 2.619586 1_556
Mg2 Se14 2.542175 1_555
Mg2 Se2 2.602593 1_555
Mg2 Se5 2.602593 1_555
Mg2 Se11 2.619586 1_555
Mg3 Se15 2.542175 1_555
Mg3 Se3 2.602593 1_555
Mg3 Se4 2.602593 1_555
Mg3 Se10 2.619586 1_555
Se0 Sm0 2.971029 1_555
Se0 Sm6 2.980672 1_555
Se0 Sm4 2.983789 1_645
Se1 Sm0 2.971029 1_566
Se1 Sm7 2.980672 1_555
Se1 Sm5 2.983789 1_465
Se2 Sm1 2.971029 1_565
Se2 Sm4 2.980672 1_555
Se2 Sm6 2.983789 1_565
Se3 Sm1 2.971029 1_655
Se3 Sm5 2.980672 1_555
Se3 Sm7 2.983789 1_545
Se4 Sm2 2.971029 1_655
Se4 Sm5 2.980672 1_555
Se4 Sm7 2.983789 1_555
Se5 Sm2 2.971029 1_555
Se5 Sm4 2.980672 1_555
Se5 Sm6 2.983789 1_555
Se6 Sm3 2.971029 1_556
Se6 Sm7 2.980672 1_555
Se6 Sm5 2.983789 1_455
Se7 Sm3 2.971029 1_555
Se7 Sm6 2.980672 1_555
Se7 Sm4 2.983789 1_655
Se8 Sm4 2.907938 1_555
Se8 Sm3 2.927898 1_555
Se8 Sm0 2.927898 1_565
Se9 Sm5 2.907938 1_555
Se9 Sm3 2.927898 1_556
Se9 Sm0 2.927898 1_556
Se10 Sm6 2.907938 1_555
Se10 Sm1 2.927898 1_655
Se10 Sm2 2.927898 1_655
Se11 Sm7 2.907938 1_555
Se11 Sm1 2.927898 1_565
Se11 Sm2 2.927898 1_555
Se12 Sm0 2.906442 1_555
Se12 Sm3 2.906442 1_555
Se12 Sm6 2.935668 1_555
Se13 Sm3 2.906442 1_556
Se13 Sm0 2.906442 1_566
Se13 Sm7 2.935668 1_555
Se14 Sm2 2.906442 1_655
Se14 Sm1 2.906442 1_665
Se14 Sm4 2.935668 1_655
Se15 Sm2 2.906442 1_555
Se15 Sm1 2.906442 1_555
Se15 Sm5 2.935668 1_455
