# generated using pymatgen
data_Yb4CrSe7
_symmetry_space_group_name_H-M   'P 1'
_cell_length_a   7.41027879
_cell_length_b   7.41027879
_cell_length_c   11.52214876
_cell_angle_alpha   72.65569917
_cell_angle_beta   72.65569917
_cell_angle_gamma   30.89719847
_symmetry_Int_Tables_number   1
_chemical_formula_structural   Yb4CrSe7
_chemical_formula_sum   'Yb4 Cr1 Se7'
_cell_volume   308.96449558
_cell_formula_units_Z   1
loop_
 _symmetry_equiv_pos_site_id
 _symmetry_equiv_pos_as_xyz
  1  'x, y, z'
loop_
 _atom_site_type_symbol
 _atom_site_label
 _atom_site_symmetry_multiplicity
 _atom_site_fract_x
 _atom_site_fract_y
 _atom_site_fract_z
 _atom_site_occupancy
  Yb  Yb0  1  0.69162500  0.69162500  0.17205200  1
  Yb  Yb1  1  0.29866800  0.29866800  0.76716000  1
  Yb  Yb2  1  0.01618700  0.01618700  0.00241500  1
  Yb  Yb3  1  0.09716800  0.09716800  0.56049700  1
  Cr  Cr0  1  0.89093100  0.89093100  0.42875200  1
  Se  Se0  1  0.73305600  0.73305600  0.60480800  1
  Se  Se1  1  0.30655800  0.30655800  0.34499300  1
  Se  Se2  1  0.35150500  0.35150500  0.12137000  1
  Se  Se3  1  0.66864900  0.66864900  0.93720000  1
  Se  Se4  1  0.03808100  0.03808100  0.24866900  1
  Se  Se5  1  0.94840000  0.94840000  0.79373100  1
  Se  Se6  1  0.45917200  0.45917200  0.51835400  1
loop_
_geom_bond_atom_site_label_1
_geom_bond_atom_site_label_2
_geom_bond_distance
_geom_bond_site_symmetry_2
Cr0 Se4 2.454793 1_665
Cr0 Se0 2.524136 1_555
Cr0 Se6 2.556365 1_565
Cr0 Se6 2.556365 1_655
Cr0 Se1 2.645731 1_565
Cr0 Se1 2.645731 1_655
Se0 Yb3 2.922015 1_655
Se0 Yb3 2.922015 1_565
Se0 Yb1 3.059189 1_655
Se0 Yb1 3.059189 1_565
Se1 Se2 2.455170 1_555
Se1 Yb3 3.243197 1_555
Se1 Yb0 3.547715 1_455
Se1 Yb0 3.547715 1_545
Se2 Yb0 2.937432 1_545
Se2 Yb0 2.937432 1_455
Se2 Yb2 3.051985 1_655
Se2 Yb2 3.051985 1_565
Se3 Yb0 2.824809 1_556
Se3 Yb2 2.862166 1_566
Se3 Yb2 2.862166 1_656
Se3 Yb1 2.988912 1_655
Se3 Yb1 2.988912 1_565
Se4 Yb0 2.879032 1_545
Se4 Yb0 2.879032 1_455
Se4 Yb2 2.949143 1_555
Se5 Yb2 2.856488 1_666
Se5 Yb3 2.864521 1_665
Se5 Yb1 2.995019 1_565
Se5 Yb1 2.995019 1_655
Se6 Yb3 2.934307 1_655
Se6 Yb3 2.934307 1_565
Se6 Yb1 3.067496 1_555
