# generated using pymatgen
data_Na2IO6
_symmetry_space_group_name_H-M   'P 1'
_cell_length_a   5.14513300
_cell_length_b   5.19522100
_cell_length_c   10.38346000
_cell_angle_alpha   90.00000000
_cell_angle_beta   90.00000000
_cell_angle_gamma   90.00000000
_symmetry_Int_Tables_number   1
_chemical_formula_structural   Na2IO6
_chemical_formula_sum   'Na4 I2 O12'
_cell_volume   277.55095539
_cell_formula_units_Z   2
loop_
 _symmetry_equiv_pos_site_id
 _symmetry_equiv_pos_as_xyz
  1  'x, y, z'
loop_
 _atom_site_type_symbol
 _atom_site_label
 _atom_site_symmetry_multiplicity
 _atom_site_fract_x
 _atom_site_fract_y
 _atom_site_fract_z
 _atom_site_occupancy
  Na  Na0  1  0.00000000  0.00000000  0.33995200  1
  Na  Na1  1  0.50000000  0.50000000  0.16004800  1
  Na  Na2  1  0.00000000  0.00000000  0.66004800  1
  Na  Na3  1  0.50000000  0.50000000  0.83995200  1
  I  I0  1  0.50000000  0.50000000  0.50000000  1
  I  I1  1  0.00000000  0.00000000  0.00000000  1
  O  O0  1  0.64911800  0.70019500  0.63016200  1
  O  O1  1  0.35088200  0.29980500  0.63016200  1
  O  O2  1  0.85088200  0.20019500  0.86983800  1
  O  O3  1  0.14911800  0.79980500  0.86983800  1
  O  O4  1  0.35088200  0.29980500  0.36983800  1
  O  O5  1  0.64911800  0.70019500  0.36983800  1
  O  O6  1  0.14911800  0.79980500  0.13016200  1
  O  O7  1  0.85088200  0.20019500  0.13016200  1
  O  O8  1  0.70863800  0.78518700  0.00000000  1
  O  O9  1  0.29136200  0.21481300  0.00000000  1
  O  O10  1  0.79136200  0.28518700  0.50000000  1
  O  O11  1  0.20863800  0.71481300  0.50000000  1
loop_
_geom_bond_atom_site_label_1
_geom_bond_atom_site_label_2
_geom_bond_distance
_geom_bond_site_symmetry_2
Na0 O4 2.404476 1_555
Na0 O5 2.404476 1_445
Na0 O11 2.471691 1_545
Na0 O10 2.471691 1_455
Na0 O7 2.532895 1_455
Na0 O6 2.532895 1_545
Na1 O7 2.404476 1_555
Na1 O6 2.404476 1_555
Na1 O9 2.471691 1_555
Na1 O8 2.471691 1_555
Na1 O4 2.532895 1_555
Na1 O5 2.532895 1_555
Na2 O1 2.404476 1_555
Na2 O0 2.404476 1_445
Na2 O11 2.471691 1_545
Na2 O10 2.471691 1_455
Na2 O2 2.532895 1_455
Na2 O3 2.532895 1_545
Na3 O2 2.404476 1_555
Na3 O3 2.404476 1_555
Na3 O8 2.471691 1_556
Na3 O9 2.471691 1_556
Na3 O0 2.532895 1_555
Na3 O1 2.532895 1_555
I0 O11 1.868889 1_555
I0 O10 1.868889 1_555
I0 O4 1.870027 1_555
I0 O0 1.870027 1_555
I0 O5 1.870027 1_555
I0 O1 1.870027 1_555
I1 O8 1.868889 1_445
I1 O9 1.868889 1_555
I1 O6 1.870027 1_545
I1 O3 1.870027 1_544
I1 O2 1.870027 1_454
I1 O7 1.870027 1_455
