# generated using pymatgen
data_Sc(Fe2Si)2
_symmetry_space_group_name_H-M   'P 1'
_cell_length_a   6.88188300
_cell_length_b   6.88188300
_cell_length_c   3.76711500
_cell_angle_alpha   90.00000000
_cell_angle_beta   90.00000000
_cell_angle_gamma   90.00000000
_symmetry_Int_Tables_number   1
_chemical_formula_structural   Sc(Fe2Si)2
_chemical_formula_sum   'Sc2 Fe8 Si4'
_cell_volume   178.41174786
_cell_formula_units_Z   2
loop_
 _symmetry_equiv_pos_site_id
 _symmetry_equiv_pos_as_xyz
  1  'x, y, z'
loop_
 _atom_site_type_symbol
 _atom_site_label
 _atom_site_symmetry_multiplicity
 _atom_site_fract_x
 _atom_site_fract_y
 _atom_site_fract_z
 _atom_site_occupancy
  Sc  Sc0  1  0.50000000  0.50000000  0.00000000  1
  Sc  Sc1  1  0.00000000  0.00000000  0.50000000  1
  Fe  Fe0  1  0.59038800  0.14790200  0.50000000  1
  Fe  Fe1  1  0.40961200  0.85209800  0.50000000  1
  Fe  Fe2  1  0.09038800  0.35209800  0.00000000  1
  Fe  Fe3  1  0.90961200  0.64790200  0.00000000  1
  Fe  Fe4  1  0.14790200  0.59038800  0.50000000  1
  Fe  Fe5  1  0.85209800  0.40961200  0.50000000  1
  Fe  Fe6  1  0.35209800  0.09038800  0.00000000  1
  Fe  Fe7  1  0.64790200  0.90961200  0.00000000  1
  Si  Si0  1  0.71733800  0.71733800  0.50000000  1
  Si  Si1  1  0.28266200  0.28266200  0.50000000  1
  Si  Si2  1  0.21733800  0.78266200  0.00000000  1
  Si  Si3  1  0.78266200  0.21733800  0.00000000  1
loop_
_geom_bond_atom_site_label_1
_geom_bond_atom_site_label_2
_geom_bond_distance
_geom_bond_site_symmetry_2
Sc0 Si3 2.750994 1_555
Sc0 Si2 2.750994 1_555
Sc0 Si0 2.832312 1_555
Sc0 Si0 2.832312 1_554
Sc0 Si1 2.832312 1_554
Sc0 Si1 2.832312 1_555
Sc1 Si1 2.750994 1_555
Sc1 Si0 2.750994 1_445
Sc1 Si2 2.832312 1_546
Sc1 Si2 2.832312 1_545
Sc1 Si3 2.832312 1_455
Sc1 Si3 2.832312 1_456
Fe0 Si1 2.311898 1_555
Fe0 Si3 2.350959 1_556
Fe0 Si3 2.350959 1_555
Fe0 Sc1 2.997034 1_655
Fe0 Sc0 3.131473 1_555
Fe0 Sc0 3.131473 1_556
Fe1 Si0 2.311898 1_555
Fe1 Si2 2.350959 1_556
Fe1 Si2 2.350959 1_555
Fe1 Sc1 2.997034 1_565
Fe1 Sc0 3.131473 1_555
Fe1 Sc0 3.131473 1_556
Fe2 Si3 2.311898 1_455
Fe2 Si1 2.350959 1_555
Fe2 Si1 2.350959 1_554
Fe2 Sc0 2.997034 1_555
Fe2 Sc1 3.131473 1_554
Fe2 Sc1 3.131473 1_555
Fe3 Si2 2.311898 1_655
Fe3 Si0 2.350959 1_555
Fe3 Si0 2.350959 1_554
Fe3 Sc0 2.997034 1_555
Fe3 Sc1 3.131473 1_664
Fe3 Sc1 3.131473 1_665
Fe4 Si1 2.311898 1_555
Fe4 Si2 2.350959 1_556
Fe4 Si2 2.350959 1_555
Fe4 Sc1 2.997034 1_565
Fe4 Sc0 3.131473 1_555
Fe4 Sc0 3.131473 1_556
Fe5 Si0 2.311898 1_555
Fe5 Si3 2.350959 1_556
Fe5 Si3 2.350959 1_555
Fe5 Sc1 2.997034 1_655
Fe5 Sc0 3.131473 1_555
Fe5 Sc0 3.131473 1_556
Fe6 Si2 2.311898 1_545
Fe6 Si1 2.350959 1_555
Fe6 Si1 2.350959 1_554
Fe6 Sc0 2.997034 1_555
Fe6 Sc1 3.131473 1_554
Fe6 Sc1 3.131473 1_555
Fe7 Si3 2.311898 1_565
Fe7 Si0 2.350959 1_555
Fe7 Si0 2.350959 1_554
Fe7 Sc0 2.997034 1_555
Fe7 Sc1 3.131473 1_664
Fe7 Sc1 3.131473 1_665
