# generated using pymatgen
data_Yb(BC)2
_symmetry_space_group_name_H-M   'P 1'
_cell_length_a   3.76423348
_cell_length_b   3.76423348
_cell_length_c   6.97681759
_cell_angle_alpha   90.00000000
_cell_angle_beta   90.00000000
_cell_angle_gamma   90.00000000
_symmetry_Int_Tables_number   1
_chemical_formula_structural   Yb(BC)2
_chemical_formula_sum   'Yb2 B4 C4'
_cell_volume   98.85769392
_cell_formula_units_Z   2
loop_
 _symmetry_equiv_pos_site_id
 _symmetry_equiv_pos_as_xyz
  1  'x, y, z'
loop_
 _atom_site_type_symbol
 _atom_site_label
 _atom_site_symmetry_multiplicity
 _atom_site_fract_x
 _atom_site_fract_y
 _atom_site_fract_z
 _atom_site_occupancy
  Yb  Yb0  1  0.00000000  0.00000000  0.75000000  1
  Yb  Yb1  1  0.00000000  0.00000000  0.25000000  1
  B  B0  1  0.21490907  0.50000000  0.00000000  1
  B  B1  1  0.78509093  0.50000000  0.00000000  1
  B  B2  1  0.50000000  0.21490907  0.50000000  1
  B  B3  1  0.50000000  0.78509093  0.50000000  1
  C  C0  1  0.50000000  0.18794365  0.00000000  1
  C  C1  1  0.50000000  0.81205635  0.00000000  1
  C  C2  1  0.81205635  0.50000000  0.50000000  1
  C  C3  1  0.18794365  0.50000000  0.50000000  1
loop_
_geom_bond_atom_site_label_1
_geom_bond_atom_site_label_2
_geom_bond_distance
_geom_bond_site_symmetry_2
B0 C1 1.591056 1_555
B0 C0 1.591056 1_555
B0 Yb0 2.690547 1_564
B0 Yb0 2.690547 1_554
B0 Yb1 2.690547 1_555
B0 Yb1 2.690547 1_565
B1 C1 1.591056 1_555
B1 C0 1.591056 1_555
B1 Yb0 2.690547 1_664
B1 Yb1 2.690547 1_655
B1 Yb1 2.690547 1_665
B1 Yb0 2.690547 1_654
B2 C2 1.591056 1_555
B2 C3 1.591056 1_555
B2 Yb0 2.690547 1_555
B2 Yb1 2.690547 1_555
B2 Yb0 2.690547 1_655
B2 Yb1 2.690547 1_655
B3 C2 1.591056 1_555
B3 C3 1.591056 1_555
B3 Yb1 2.690547 1_565
B3 Yb0 2.690547 1_665
B3 Yb1 2.690547 1_665
B3 Yb0 2.690547 1_565
C0 C1 1.414928 1_545
C0 Yb0 2.661788 1_654
C0 Yb0 2.661788 1_554
C0 Yb1 2.661788 1_655
C0 Yb1 2.661788 1_555
C1 Yb1 2.661788 1_665
C1 Yb0 2.661788 1_564
C1 Yb0 2.661788 1_664
C1 Yb1 2.661788 1_565
C2 C3 1.414928 1_655
C2 Yb1 2.661788 1_665
C2 Yb0 2.661788 1_655
C2 Yb1 2.661788 1_655
C2 Yb0 2.661788 1_665
C3 Yb1 2.661788 1_565
C3 Yb0 2.661788 1_565
C3 Yb0 2.661788 1_555
C3 Yb1 2.661788 1_555
