# generated using pymatgen
data_RbLiMg30O31
_symmetry_space_group_name_H-M   'P 1'
_cell_length_a   8.64460100
_cell_length_b   8.64460100
_cell_length_c   8.60871500
_cell_angle_alpha   90.00000000
_cell_angle_beta   90.00000000
_cell_angle_gamma   90.00000000
_symmetry_Int_Tables_number   1
_chemical_formula_structural   RbLiMg30O31
_chemical_formula_sum   'Rb1 Li1 Mg30 O31'
_cell_volume   643.32175180
_cell_formula_units_Z   1
loop_
 _symmetry_equiv_pos_site_id
 _symmetry_equiv_pos_as_xyz
  1  'x, y, z'
loop_
 _atom_site_type_symbol
 _atom_site_label
 _atom_site_symmetry_multiplicity
 _atom_site_fract_x
 _atom_site_fract_y
 _atom_site_fract_z
 _atom_site_occupancy
  Rb  Rb0  1  0.50000000  0.50000000  0.99758400  1
  Li  Li0  1  0.00000000  0.00000000  0.97665400  1
  Mg  Mg0  1  0.50000000  0.00000000  0.99513200  1
  Mg  Mg1  1  0.00000000  0.50000000  0.99513200  1
  Mg  Mg2  1  0.00000000  0.00000000  0.52120500  1
  Mg  Mg3  1  0.50000000  0.00000000  0.50255800  1
  Mg  Mg4  1  0.00000000  0.50000000  0.50255800  1
  Mg  Mg5  1  0.50000000  0.50000000  0.49985500  1
  Mg  Mg6  1  0.24351800  0.24351800  0.00097200  1
  Mg  Mg7  1  0.75648200  0.24351800  0.00097200  1
  Mg  Mg8  1  0.24351800  0.75648200  0.00097200  1
  Mg  Mg9  1  0.75648200  0.75648200  0.00097200  1
  Mg  Mg10  1  0.24909400  0.24909400  0.49963600  1
  Mg  Mg11  1  0.75090600  0.24909400  0.49963600  1
  Mg  Mg12  1  0.24909400  0.75090600  0.49963600  1
  Mg  Mg13  1  0.75090600  0.75090600  0.49963600  1
  Mg  Mg14  1  0.27158600  0.00000000  0.24587100  1
  Mg  Mg15  1  0.72841400  0.00000000  0.24587100  1
  Mg  Mg16  1  0.25006600  0.50000000  0.25131700  1
  Mg  Mg17  1  0.74993400  0.50000000  0.25131700  1
  Mg  Mg18  1  0.24826000  0.00000000  0.75676100  1
  Mg  Mg19  1  0.75174000  0.00000000  0.75676100  1
  Mg  Mg20  1  0.24804600  0.50000000  0.74802800  1
  Mg  Mg21  1  0.75195400  0.50000000  0.74802800  1
  Mg  Mg22  1  0.00000000  0.27158600  0.24587100  1
  Mg  Mg23  1  0.50000000  0.25006600  0.25131700  1
  Mg  Mg24  1  0.00000000  0.72841400  0.24587100  1
  Mg  Mg25  1  0.50000000  0.74993400  0.25131700  1
  Mg  Mg26  1  0.00000000  0.24826000  0.75676100  1
  Mg  Mg27  1  0.50000000  0.24804600  0.74802800  1
  Mg  Mg28  1  0.00000000  0.75174000  0.75676100  1
  Mg  Mg29  1  0.50000000  0.75195400  0.74802800  1
  O  O0  1  0.50000000  0.00000000  0.25844300  1
  O  O1  1  0.00000000  0.50000000  0.25844300  1
  O  O2  1  0.50000000  0.50000000  0.27822300  1
  O  O3  1  0.00000000  0.00000000  0.74912100  1
  O  O4  1  0.50000000  0.00000000  0.74354300  1
  O  O5  1  0.00000000  0.50000000  0.74354300  1
  O  O6  1  0.50000000  0.50000000  0.72004800  1
  O  O7  1  0.24508800  0.24508800  0.25046100  1
  O  O8  1  0.75491200  0.24508800  0.25046100  1
  O  O9  1  0.24508800  0.75491200  0.25046100  1
  O  O10  1  0.75491200  0.75491200  0.25046100  1
  O  O11  1  0.24855100  0.24855100  0.74979200  1
  O  O12  1  0.75144900  0.24855100  0.74979200  1
  O  O13  1  0.24855100  0.75144900  0.74979200  1
  O  O14  1  0.75144900  0.75144900  0.74979200  1
  O  O15  1  0.24655000  0.00000000  0.00580100  1
  O  O16  1  0.75345000  0.00000000  0.00580100  1
  O  O17  1  0.22090400  0.50000000  0.00271600  1
  O  O18  1  0.77909600  0.50000000  0.00271600  1
  O  O19  1  0.24168600  0.00000000  0.49210100  1
  O  O20  1  0.75831400  0.00000000  0.49210100  1
  O  O21  1  0.24306900  0.50000000  0.49853300  1
  O  O22  1  0.75693100  0.50000000  0.49853300  1
  O  O23  1  0.00000000  0.24655000  0.00580100  1
  O  O24  1  0.50000000  0.22090400  0.00271600  1
  O  O25  1  0.00000000  0.75345000  0.00580100  1
  O  O26  1  0.50000000  0.77909600  0.00271600  1
  O  O27  1  0.00000000  0.24168600  0.49210100  1
  O  O28  1  0.50000000  0.24306900  0.49853300  1
  O  O29  1  0.00000000  0.75831400  0.49210100  1
  O  O30  1  0.50000000  0.75693100  0.49853300  1
loop_
_geom_bond_atom_site_label_1
_geom_bond_atom_site_label_2
_geom_bond_distance
_geom_bond_site_symmetry_2
Li0 O3 1.958767 1_555
Li0 O16 2.146046 1_456
Li0 O25 2.146046 1_546
Li0 O15 2.146046 1_556
Li0 O23 2.146046 1_556
Mg0 O26 1.910743 1_546
Mg0 O24 1.910743 1_556
Mg0 O4 2.165858 1_555
Mg0 O15 2.192898 1_556
Mg0 O16 2.192898 1_556
Mg0 O0 2.266769 1_556
Mg1 O18 1.910743 1_456
Mg1 O17 1.910743 1_556
Mg1 O5 2.165858 1_555
Mg1 O23 2.192898 1_556
Mg1 O25 2.192898 1_556
Mg1 O1 2.266769 1_556
Mg2 O3 1.962064 1_555
Mg2 O19 2.104248 1_555
Mg2 O27 2.104248 1_555
Mg2 O29 2.104248 1_545
Mg2 O20 2.104248 1_455
Mg3 O4 2.074571 1_555
Mg3 O0 2.101516 1_555
Mg3 O28 2.101520 1_555
Mg3 O30 2.101520 1_545
Mg3 O20 2.234835 1_555
Mg3 O19 2.234835 1_555
Mg4 O5 2.074571 1_555
Mg4 O1 2.101516 1_555
Mg4 O21 2.101520 1_555
Mg4 O22 2.101520 1_455
Mg4 O29 2.234835 1_555
Mg4 O27 2.234835 1_555
Mg5 O6 1.895579 1_555
Mg5 O2 1.907967 1_555
Mg5 O30 2.221095 1_555
Mg5 O22 2.221095 1_555
Mg5 O28 2.221095 1_555
Mg5 O21 2.221095 1_555
Mg6 O15 2.105690 1_555
Mg6 O23 2.105690 1_555
Mg6 O7 2.147865 1_555
Mg6 O11 2.163212 1_554
Mg6 O17 2.225837 1_555
Mg6 O24 2.225837 1_555
Mg7 O16 2.105690 1_555
Mg7 O23 2.105690 1_655
Mg7 O8 2.147865 1_555
Mg7 O12 2.163212 1_554
Mg7 O24 2.225837 1_555
Mg7 O18 2.225837 1_555
Mg8 O25 2.105690 1_555
Mg8 O15 2.105690 1_565
Mg8 O9 2.147865 1_555
Mg8 O13 2.163212 1_554
Mg8 O17 2.225837 1_555
Mg8 O26 2.225837 1_555
Mg9 O16 2.105690 1_565
Mg9 O25 2.105690 1_655
Mg9 O10 2.147865 1_555
Mg9 O14 2.163212 1_554
Mg9 O18 2.225837 1_555
Mg9 O26 2.225837 1_555
Mg10 O7 2.145636 1_555
Mg10 O11 2.153532 1_555
Mg10 O19 2.155247 1_555
Mg10 O27 2.155247 1_555
Mg10 O28 2.169628 1_555
Mg10 O21 2.169628 1_555
Mg11 O8 2.145636 1_555
Mg11 O12 2.153532 1_555
Mg11 O20 2.155247 1_555
Mg11 O27 2.155247 1_655
Mg11 O28 2.169628 1_555
Mg11 O22 2.169628 1_555
Mg12 O9 2.145636 1_555
Mg12 O13 2.153532 1_555
Mg12 O29 2.155247 1_555
Mg12 O19 2.155247 1_565
Mg12 O21 2.169628 1_555
Mg12 O30 2.169628 1_555
Mg13 O10 2.145636 1_555
Mg13 O14 2.153532 1_555
Mg13 O29 2.155247 1_655
Mg13 O20 2.155247 1_565
Mg13 O22 2.169628 1_555
Mg13 O30 2.169628 1_555
Mg14 O0 1.977512 1_555
Mg14 O15 2.077995 1_555
Mg14 O7 2.131401 1_555
Mg14 O9 2.131401 1_545
Mg14 O19 2.135425 1_555
Mg15 O0 1.977512 1_555
Mg15 O16 2.077995 1_555
Mg15 O8 2.131401 1_555
Mg15 O10 2.131401 1_545
Mg15 O20 2.135425 1_555
Mg16 O21 2.129071 1_555
Mg16 O17 2.154932 1_555
Mg16 O1 2.162591 1_555
Mg16 O2 2.172960 1_555
Mg16 O9 2.204045 1_555
Mg16 O7 2.204045 1_555
Mg17 O22 2.129071 1_555
Mg17 O18 2.154932 1_555
Mg17 O1 2.162591 1_655
Mg17 O2 2.172960 1_555
Mg17 O10 2.204045 1_555
Mg17 O8 2.204045 1_555
Mg18 O15 2.143965 1_556
Mg18 O3 2.147116 1_555
Mg18 O11 2.149463 1_555
Mg18 O13 2.149463 1_545
Mg18 O4 2.179165 1_555
Mg18 O19 2.279091 1_555
Mg19 O16 2.143965 1_556
Mg19 O3 2.147116 1_655
Mg19 O12 2.149463 1_555
Mg19 O14 2.149463 1_545
Mg19 O4 2.179165 1_555
Mg19 O20 2.279091 1_555
Mg20 O5 2.144606 1_555
Mg20 O21 2.148262 1_555
Mg20 O13 2.173734 1_555
Mg20 O11 2.173734 1_555
Mg20 O6 2.191320 1_555
Mg20 O17 2.205055 1_556
Mg21 O5 2.144606 1_655
Mg21 O22 2.148262 1_555
Mg21 O14 2.173734 1_555
Mg21 O12 2.173734 1_555
Mg21 O6 2.191320 1_555
Mg21 O18 2.205055 1_556
Mg22 O1 1.977512 1_555
Mg22 O23 2.077995 1_555
Mg22 O7 2.131401 1_555
Mg22 O8 2.131401 1_455
Mg22 O27 2.135425 1_555
Mg23 O28 2.129071 1_555
Mg23 O24 2.154932 1_555
Mg23 O0 2.162591 1_555
Mg23 O2 2.172960 1_555
Mg23 O8 2.204045 1_555
Mg23 O7 2.204045 1_555
Mg24 O1 1.977512 1_555
Mg24 O25 2.077995 1_555
Mg24 O9 2.131401 1_555
Mg24 O10 2.131401 1_455
Mg24 O29 2.135425 1_555
Mg25 O30 2.129071 1_555
Mg25 O26 2.154932 1_555
Mg25 O0 2.162591 1_565
Mg25 O2 2.172960 1_555
Mg25 O10 2.204045 1_555
Mg25 O9 2.204045 1_555
Mg26 O23 2.143965 1_556
Mg26 O3 2.147116 1_555
Mg26 O11 2.149463 1_555
Mg26 O12 2.149463 1_455
Mg26 O5 2.179165 1_555
Mg26 O27 2.279091 1_555
Mg27 O4 2.144606 1_555
Mg27 O28 2.148262 1_555
Mg27 O12 2.173734 1_555
Mg27 O11 2.173734 1_555
Mg27 O6 2.191320 1_555
Mg27 O24 2.205055 1_556
Mg28 O25 2.143965 1_556
Mg28 O3 2.147116 1_565
Mg28 O13 2.149463 1_555
Mg28 O14 2.149463 1_455
Mg28 O5 2.179165 1_555
Mg28 O29 2.279091 1_555
Mg29 O4 2.144606 1_565
Mg29 O30 2.148262 1_555
Mg29 O14 2.173734 1_555
Mg29 O13 2.173734 1_555
Mg29 O6 2.191320 1_555
Mg29 O26 2.205055 1_556
O2 Rb0 2.415941 1_554
O6 Rb0 2.389228 1_555
O17 Rb0 2.413078 1_554
O18 Rb0 2.413078 1_554
O24 Rb0 2.413078 1_554
O26 Rb0 2.413078 1_554
