# generated using pymatgen
data_Y4C4I3Br
_symmetry_space_group_name_H-M   'P 1'
_cell_length_a   4.11983949
_cell_length_b   4.11983949
_cell_length_c   20.94590078
_cell_angle_alpha   86.45044572
_cell_angle_beta   86.45044572
_cell_angle_gamma   56.71162767
_symmetry_Int_Tables_number   1
_chemical_formula_structural   Y4C4I3Br
_chemical_formula_sum   'Y4 C4 I3 Br1'
_cell_volume   296.44645144
_cell_formula_units_Z   1
loop_
 _symmetry_equiv_pos_site_id
 _symmetry_equiv_pos_as_xyz
  1  'x, y, z'
loop_
 _atom_site_type_symbol
 _atom_site_label
 _atom_site_symmetry_multiplicity
 _atom_site_fract_x
 _atom_site_fract_y
 _atom_site_fract_z
 _atom_site_occupancy
  Y  Y0  1  0.85528100  0.85528100  0.06668600  1
  Y  Y1  1  0.85575000  0.85575000  0.56484200  1
  Y  Y2  1  0.14681800  0.14681800  0.43101900  1
  Y  Y3  1  0.14450900  0.14450900  0.93376000  1
  C  C0  1  0.57708600  0.57708600  0.01546400  1
  C  C1  1  0.57769200  0.57769200  0.51348500  1
  C  C2  1  0.42461600  0.42461600  0.48216200  1
  C  C3  1  0.42292000  0.42292000  0.98474800  1
  I  I0  1  0.82627300  0.82627300  0.83319700  1
  I  I1  1  0.17355100  0.17355100  0.16757900  1
  I  I2  1  0.17402000  0.17402000  0.66578300  1
  Br  Br0  1  0.82148300  0.82148300  0.34127400  1
loop_
_geom_bond_atom_site_label_1
_geom_bond_atom_site_label_2
_geom_bond_distance
_geom_bond_site_symmetry_2
C0 C3 1.328438 1_554
C0 Y0 2.350474 1_555
C0 Y3 2.622733 1_564
C0 Y3 2.622733 1_654
C0 Y0 2.706226 1_545
C0 Y0 2.706226 1_455
C1 C2 1.328507 1_555
C1 Y1 2.351053 1_555
C1 Y2 2.634718 1_565
C1 Y2 2.634718 1_655
C1 Y1 2.707793 1_455
C1 Y1 2.707793 1_545
C2 Y2 2.347056 1_555
C2 Y1 2.637329 1_455
C2 Y1 2.637329 1_545
C2 Y2 2.707272 1_655
C2 Y2 2.707272 1_565
C3 Y3 2.349340 1_555
C3 Y0 2.626090 1_456
C3 Y0 2.626090 1_546
C3 Y3 2.703604 1_565
C3 Y3 2.703604 1_655
I0 Y3 3.100317 1_565
I0 Y3 3.100317 1_655
I0 Y3 3.231952 1_665
I1 Y0 3.104718 1_455
I1 Y0 3.104718 1_545
I1 Y0 3.236995 1_445
I2 Y1 3.105373 1_545
I2 Y1 3.105373 1_455
I2 Y1 3.237702 1_445
Br0 Y2 2.937912 1_565
Br0 Y2 2.937912 1_655
Br0 Y2 3.118097 1_665
