# generated using pymatgen
data_LaCeSi2(BO5)2
_symmetry_space_group_name_H-M   'P 1'
_cell_length_a   6.85529076
_cell_length_b   6.85797668
_cell_length_c   11.90464287
_cell_angle_alpha   89.81637976
_cell_angle_beta   89.95279237
_cell_angle_gamma   90.08494253
_symmetry_Int_Tables_number   1
_chemical_formula_structural   LaCeSi2(BO5)2
_chemical_formula_sum   'La3 Ce3 Si6 B6 O30'
_cell_volume   559.67434340
_cell_formula_units_Z   3
loop_
 _symmetry_equiv_pos_site_id
 _symmetry_equiv_pos_as_xyz
  1  'x, y, z'
loop_
 _atom_site_type_symbol
 _atom_site_label
 _atom_site_symmetry_multiplicity
 _atom_site_fract_x
 _atom_site_fract_y
 _atom_site_fract_z
 _atom_site_occupancy
  La  La0  1  0.00002501  0.40237816  0.00005775  1
  La  La1  1  0.33351313  0.79930864  0.20106923  1
  La  La2  1  0.33307024  0.29921679  0.70063058  1
  Ce  Ce0  1  0.66682872  0.29865577  0.29894291  1
  Ce  Ce1  1  0.66653087  0.79849970  0.79834458  1
  Ce  Ce2  1  0.00006954  0.90324237  0.50009235  1
  Si  Si0  1  0.16675358  0.29097011  0.29141632  1
  Si  Si1  1  0.16643755  0.79180416  0.79072456  1
  Si  Si2  1  0.50006842  0.91809955  0.49981175  1
  Si  Si3  1  0.50028653  0.41812839  0.99969485  1
  Si  Si4  1  0.83337372  0.79087446  0.20969825  1
  Si  Si5  1  0.83298261  0.29005079  0.70889985  1
  B  B0  1  0.66668530  0.05388343  0.05406477  1
  B  B1  1  0.66695644  0.55406849  0.55393370  1
  B  B2  1  0.99961161  0.89213071  -0.00003864  1
  B  B3  1  0.99962476  0.39165067  0.49993293  1
  B  B4  1  0.33336178  0.55395498  0.44601147  1
  B  B5  1  0.33360182  0.05390733  0.94590558  1
  O  O0  1  0.99536232  0.83745991  0.30496896  1
  O  O1  1  0.99627789  0.33667623  0.80351097  1
  O  O2  1  0.33056187  0.12712810  0.26673823  1
  O  O3  1  0.33007024  0.62717761  0.76675168  1
  O  O4  1  0.66299422  0.03791142  0.42921246  1
  O  O5  1  0.66205227  0.53842503  0.92890560  1
  O  O6  1  0.67122608  0.62404395  0.23377309  1
  O  O7  1  0.67081420  0.12398188  0.73354123  1
  O  O8  1  0.00304415  0.33655379  0.19695294  1
  O  O9  1  0.00387814  0.83722859  0.69558204  1
  O  O10  1  0.33708149  0.53682452  0.07023558  1
  O  O11  1  0.33627959  0.03608388  0.56974918  1
  O  O12  1  0.16677163  0.01871265  0.01891520  1
  O  O13  1  0.16667509  0.51857994  0.51900902  1
  O  O14  1  0.50002232  0.96185880  0.00021818  1
  O  O15  1  0.49989576  0.46212467  0.50020475  1
  O  O16  1  0.83327005  0.51891862  0.48085275  1
  O  O17  1  0.83313102  0.01917055  0.98111201  1
  O  O18  1  0.35956755  0.76857828  0.42380056  1
  O  O19  1  0.35985657  0.26866996  0.92386950  1
  O  O20  1  0.69267424  0.97963060  0.17264124  1
  O  O21  1  0.69281976  0.47943076  0.67236231  1
  O  O22  1  0.02606530  0.25115246  0.40401324  1
  O  O23  1  0.02543335  0.75236105  0.90346493  1
  O  O24  1  0.30742704  0.47991913  0.32795062  1
  O  O25  1  0.30733402  0.98028046  0.82776475  1
  O  O26  1  0.64087426  0.26883596  0.07593007  1
  O  O27  1  0.64125814  0.76891077  0.57584466  1
  O  O28  1  0.97354434  0.75190388  0.09681064  1
  O  O29  1  0.97315545  0.25064208  0.59612079  1
loop_
_geom_bond_atom_site_label_1
_geom_bond_atom_site_label_2
_geom_bond_distance
_geom_bond_site_symmetry_2
La0 O1 2.384378 1_454
La0 O8 2.385732 1_555
La0 O10 2.624666 1_555
La0 O5 2.638293 1_454
La0 O23 2.663493 1_554
La0 O28 2.669093 1_455
La0 O26 2.775027 1_455
La0 O19 2.785081 1_554
La0 O17 2.874316 1_454
La0 O12 2.878484 1_555
La1 O2 2.382697 1_565
La1 O10 2.384308 1_555
La1 O6 2.638713 1_555
La1 O0 2.640301 1_455
La1 O24 2.662407 1_555
La1 O18 2.665385 1_555
La1 O20 2.773614 1_555
La1 O28 2.782252 1_455
La1 O14 2.870099 1_555
La1 O12 2.874228 1_565
La2 O3 2.385403 1_555
La2 O11 2.388025 1_555
La2 O1 2.625973 1_455
La2 O7 2.639169 1_555
La2 O25 2.661403 1_545
La2 O19 2.671644 1_555
La2 O21 2.776637 1_555
La2 O29 2.784212 1_455
La2 O15 2.867699 1_555
La2 O13 2.868362 1_555
Ce0 O6 2.360315 1_555
Ce0 O4 2.363327 1_555
Ce0 O2 2.615536 1_555
Ce0 O8 2.616422 1_655
Ce0 O20 2.664712 1_545
Ce0 O26 2.669468 1_555
Ce0 O22 2.782137 1_655
Ce0 O24 2.783039 1_555
Ce0 O16 2.879809 1_555
Ce0 O15 2.885041 1_555
Ce1 O7 2.359499 1_565
Ce1 O5 2.362182 1_555
Ce1 O3 2.615001 1_555
Ce1 O9 2.628069 1_655
Ce1 O27 2.662956 1_555
Ce1 O21 2.663012 1_555
Ce1 O23 2.779297 1_655
Ce1 O25 2.784005 1_555
Ce1 O17 2.889415 1_565
Ce1 O14 2.889654 1_556
Ce2 O0 2.367933 1_455
Ce2 O9 2.369608 1_555
Ce2 O11 2.613724 1_565
Ce2 O4 2.628510 1_465
Ce2 O22 2.648343 1_565
Ce2 O29 2.652440 1_465
Ce2 O27 2.774282 1_455
Ce2 O18 2.785639 1_555
Ce2 O16 2.881345 1_455
Ce2 O13 2.884406 1_555
B0 O17 1.453747 1_554
B0 O14 1.454725 1_545
B0 O26 1.508412 1_555
B0 O20 1.509891 1_545
B1 O16 1.454452 1_555
B1 O15 1.456007 1_555
B1 O27 1.507677 1_555
B1 O21 1.509031 1_555
B2 O17 1.453969 1_564
B2 O12 1.454783 1_665
B2 O23 1.508971 1_654
B2 O28 1.509337 1_555
B3 O16 1.454654 1_555
B3 O13 1.455843 1_655
B3 O29 1.507094 1_555
B3 O22 1.507445 1_655
B4 O13 1.454632 1_555
B4 O15 1.454961 1_555
B4 O18 1.505080 1_555
B4 O24 1.506478 1_555
B5 O12 1.455288 1_556
B5 O14 1.455628 1_546
B5 O19 1.505696 1_555
B5 O25 1.506689 1_545
O0 Si4 1.620156 1_555
O1 Si5 1.620890 1_555
O2 Si0 1.617152 1_555
O3 Si1 1.618553 1_555
O4 Si2 1.618730 1_545
O5 Si3 1.616123 1_555
O6 Si4 1.618746 1_555
O7 Si5 1.616356 1_555
O8 Si0 1.619480 1_555
O9 Si1 1.619454 1_555
O10 Si3 1.620219 1_554
O11 Si2 1.616813 1_545
O18 Si2 1.674052 1_555
O19 Si3 1.672308 1_555
O20 Si4 1.673732 1_555
O21 Si5 1.673319 1_555
O22 Si0 1.672194 1_555
O23 Si1 1.674400 1_555
O24 Si0 1.672981 1_555
O25 Si1 1.672948 1_555
O26 Si3 1.673073 1_554
O27 Si2 1.673725 1_555
O28 Si4 1.673841 1_555
O29 Si5 1.673305 1_555
