# generated using pymatgen
data_YCoSi2
_symmetry_space_group_name_H-M   'P 1'
_cell_length_a   8.33827146
_cell_length_b   8.33827146
_cell_length_c   3.95416927
_cell_angle_alpha   90.00000000
_cell_angle_beta   90.00000000
_cell_angle_gamma   152.07835913
_symmetry_Int_Tables_number   1
_chemical_formula_structural   YCoSi2
_chemical_formula_sum   'Y2 Co2 Si4'
_cell_volume   128.73531496
_cell_formula_units_Z   2
loop_
 _symmetry_equiv_pos_site_id
 _symmetry_equiv_pos_as_xyz
  1  'x, y, z'
loop_
 _atom_site_type_symbol
 _atom_site_label
 _atom_site_symmetry_multiplicity
 _atom_site_fract_x
 _atom_site_fract_y
 _atom_site_fract_z
 _atom_site_occupancy
  Y  Y0  1  0.89183760  0.10816240  0.75000000  1
  Y  Y1  1  0.10816240  0.89183760  0.25000000  1
  Co  Co0  1  0.67950068  0.32049932  0.75000000  1
  Co  Co1  1  0.32049932  0.67950068  0.25000000  1
  Si  Si0  1  0.54329233  0.45670767  0.75000000  1
  Si  Si1  1  0.45670767  0.54329233  0.25000000  1
  Si  Si2  1  0.25018310  0.74981690  0.75000000  1
  Si  Si3  1  0.74981690  0.25018310  0.25000000  1
loop_
_geom_bond_atom_site_label_1
_geom_bond_atom_site_label_2
_geom_bond_distance
_geom_bond_site_symmetry_2
Co0 Si0 2.204387 1_555
Co0 Si3 2.281204 1_555
Co0 Si3 2.281204 1_556
Co0 Si2 2.314173 1_545
Co0 Si2 2.314173 1_655
Co0 Y1 3.047730 1_656
Co0 Y1 3.047730 1_545
Co0 Y1 3.047730 1_546
Co0 Y1 3.047730 1_655
Co1 Si1 2.204387 1_555
Co1 Si2 2.281204 1_554
Co1 Si2 2.281204 1_555
Co1 Si3 2.314173 1_455
Co1 Si3 2.314173 1_565
Co1 Y0 3.047730 1_564
Co1 Y0 3.047730 1_454
Co1 Y0 3.047730 1_455
Co1 Y0 3.047730 1_565
Si0 Si1 2.423314 1_556
Si0 Si1 2.423314 1_555
Si0 Y1 3.009635 1_545
Si0 Y1 3.009635 1_546
Si0 Y1 3.009635 1_656
Si0 Y1 3.009635 1_655
Si0 Y0 3.170946 1_455
Si0 Y0 3.170946 1_565
Si1 Y0 3.009635 1_455
Si1 Y0 3.009635 1_454
Si1 Y0 3.009635 1_565
Si1 Y0 3.009635 1_564
Si1 Y1 3.170946 1_545
Si1 Y1 3.170946 1_655
Si2 Y1 3.031790 1_555
Si2 Y1 3.031790 1_556
Si2 Y0 3.050004 1_565
Si2 Y0 3.050004 1_455
Si3 Y0 3.031790 1_555
Si3 Y0 3.031790 1_554
Si3 Y1 3.050004 1_655
Si3 Y1 3.050004 1_545
