# generated using pymatgen
data_Li9Mn2Co5O16
_symmetry_space_group_name_H-M   'P 1'
_cell_length_a   3.02385700
_cell_length_b   9.91646288
_cell_length_c   10.25815986
_cell_angle_alpha   73.34760585
_cell_angle_beta   82.67105033
_cell_angle_gamma   87.13360611
_symmetry_Int_Tables_number   1
_chemical_formula_structural   Li9Mn2Co5O16
_chemical_formula_sum   'Li9 Mn2 Co5 O16'
_cell_volume   292.26338050
_cell_formula_units_Z   1
loop_
 _symmetry_equiv_pos_site_id
 _symmetry_equiv_pos_as_xyz
  1  'x, y, z'
loop_
 _atom_site_type_symbol
 _atom_site_label
 _atom_site_symmetry_multiplicity
 _atom_site_fract_x
 _atom_site_fract_y
 _atom_site_fract_z
 _atom_site_occupancy
  Li  Li0  1  0.93260800  0.68760400  0.12662900  1
  Li  Li1  1  0.43534700  0.18816200  0.12515000  1
  Li  Li2  1  0.31171900  0.56986600  0.37904100  1
  Li  Li3  1  0.80937000  0.06061700  0.37257800  1
  Li  Li4  1  0.69419600  0.44008000  0.62600800  1
  Li  Li5  1  0.18640800  0.93016700  0.62505700  1
  Li  Li6  1  0.06642800  0.31445900  0.87493100  1
  Li  Li7  1  0.56361100  0.80910300  0.87239800  1
  Li  Li8  1  0.74983800  0.74910000  0.50145000  1
  Mn  Mn0  1  0.00706800  0.99835100  0.00335200  1
  Mn  Mn1  1  0.86484400  0.37969300  0.24670700  1
  Co  Co0  1  0.50097600  0.50087100  0.99595000  1
  Co  Co1  1  0.36093400  0.86784100  0.26185400  1
  Co  Co2  1  0.24254300  0.25020400  0.50057700  1
  Co  Co3  1  0.13439100  0.62916400  0.74112300  1
  Co  Co4  1  0.63233900  0.12343500  0.74897900  1
  O  O0  1  0.43710100  0.84874000  0.07637100  1
  O  O1  1  0.93060500  0.35296200  0.06313900  1
  O  O2  1  0.81500500  0.73039700  0.30873400  1
  O  O3  1  0.29619000  0.22659500  0.31784900  1
  O  O4  1  0.20868800  0.59271900  0.58381000  1
  O  O5  1  0.72597200  0.10060000  0.56762600  1
  O  O6  1  0.57350100  0.48038600  0.81688100  1
  O  O7  1  0.11795500  0.97612100  0.81859100  1
  O  O8  1  0.43540500  0.52892500  0.17544600  1
  O  O9  1  0.93141800  0.02120400  0.18580700  1
  O  O10  1  0.75662900  0.40033200  0.43313900  1
  O  O11  1  0.29355400  0.90518300  0.41855100  1
  O  O12  1  0.14843000  0.27101500  0.68212500  1
  O  O13  1  0.68998000  0.76852300  0.69272100  1
  O  O14  1  0.57514900  0.15075400  0.93184600  1
  O  O15  1  0.07179700  0.64682200  0.92558200  1
loop_
_geom_bond_atom_site_label_1
_geom_bond_atom_site_label_2
_geom_bond_distance
_geom_bond_site_symmetry_2
Li0 O2 2.016420 1_555
Li0 O8 2.131131 1_655
Li0 O0 2.132977 1_555
Li0 O8 2.140120 1_555
Li0 O0 2.171927 1_655
Li0 O15 2.198547 1_654
Li1 O3 2.105548 1_555
Li1 O14 2.107229 1_554
Li1 O1 2.173490 1_555
Li1 O9 2.185806 1_555
Li1 O1 2.192554 1_455
Li1 O9 2.206870 1_455
Li2 O10 2.091372 1_555
Li2 O4 2.158598 1_555
Li2 O2 2.162089 1_555
Li2 O2 2.165527 1_455
Li2 O8 2.222178 1_555
Li2 O10 2.337006 1_455
Li3 O9 2.047944 1_555
Li3 O11 2.067760 1_645
Li3 O5 2.130744 1_555
Li3 O11 2.160367 1_545
Li3 O3 2.166357 1_655
Li3 O3 2.206690 1_555
Li4 O4 2.048947 1_555
Li4 O6 2.092454 1_555
Li4 O12 2.108796 1_655
Li4 O10 2.109407 1_555
Li4 O4 2.141733 1_655
Li4 O12 2.312333 1_555
Li5 O5 2.131957 1_465
Li5 O7 2.143868 1_555
Li5 O13 2.154467 1_455
Li5 O13 2.181231 1_555
Li5 O11 2.184379 1_555
Li5 O5 2.307680 1_565
Li6 O1 2.060689 1_456
Li6 O12 2.124018 1_555
Li6 O14 2.158657 1_455
Li6 O6 2.168706 1_455
Li6 O14 2.186036 1_555
Li6 O6 2.207000 1_555
Li7 O13 1.983732 1_555
Li7 O7 2.075183 1_555
Li7 O15 2.151326 1_555
Li7 O15 2.170741 1_655
Li7 O0 2.220592 1_556
Li7 O7 2.318461 1_655
Li8 O13 2.010510 1_555
Li8 O2 2.022005 1_555
Li8 O11 2.086599 1_555
Li8 O4 2.092066 1_655
Li8 O4 2.224064 1_555
Li8 O11 2.228314 1_655
Mn0 O9 1.932730 1_465
Mn0 O7 1.955286 1_554
Mn0 O0 1.967674 1_555
Mn0 O14 1.984824 1_464
Mn0 O0 2.240998 1_455
Mn0 O14 2.252935 1_564
Mn1 O8 1.959742 1_555
Mn1 O1 1.959856 1_555
Mn1 O10 1.965807 1_555
Mn1 O3 1.987100 1_655
Mn1 O8 2.239322 1_655
Mn1 O3 2.258362 1_555
Co0 O6 1.889513 1_555
Co0 O8 1.924060 1_556
Co0 O15 1.937109 1_555
Co0 O1 1.942316 1_556
Co0 O15 2.219987 1_655
Co0 O1 2.229652 1_456
Co1 O11 1.735651 1_555
Co1 O2 1.892040 1_555
Co1 O0 1.949265 1_555
Co1 O9 1.997325 1_465
Co1 O2 2.112091 1_455
Co1 O9 2.266359 1_565
Co2 O12 1.916012 1_555
Co2 O3 1.940319 1_555
Co2 O5 2.065356 1_555
Co2 O10 2.074646 1_455
Co2 O10 2.116196 1_555
Co2 O5 2.118202 1_455
Co3 O4 1.737495 1_555
Co3 O13 1.885057 1_455
Co3 O15 1.934465 1_555
Co3 O6 1.988440 1_555
Co3 O13 2.145905 1_555
Co3 O6 2.216767 1_455
Co4 O5 1.921712 1_555
Co4 O14 1.956023 1_555
Co4 O12 2.054231 1_555
Co4 O7 2.062856 1_645
Co4 O7 2.099836 1_545
Co4 O12 2.104196 1_655
