# generated using pymatgen
data_Ti2S3
_symmetry_space_group_name_H-M   'P 1'
_cell_length_a   5.97890785
_cell_length_b   5.97893772
_cell_length_c   11.79272735
_cell_angle_alpha   75.46504470
_cell_angle_beta   75.46527863
_cell_angle_gamma   59.83529449
_symmetry_Int_Tables_number   1
_chemical_formula_structural   Ti2S3
_chemical_formula_sum   'Ti8 S12'
_cell_volume   348.86142215
_cell_formula_units_Z   4
loop_
 _symmetry_equiv_pos_site_id
 _symmetry_equiv_pos_as_xyz
  1  'x, y, z'
loop_
 _atom_site_type_symbol
 _atom_site_label
 _atom_site_symmetry_multiplicity
 _atom_site_fract_x
 _atom_site_fract_y
 _atom_site_fract_z
 _atom_site_occupancy
  Ti  Ti0  1  0.54019903  0.70827718  0.37906344  1
  Ti  Ti1  1  0.87214585  0.03749605  0.38252906  1
  Ti  Ti2  1  0.12787171  0.96247220  0.61747989  1
  Ti  Ti3  1  0.45980493  0.29174300  0.62094607  1
  Ti  Ti4  1  0.70828929  0.54019692  0.87902514  1
  Ti  Ti5  1  0.03750838  0.87214673  0.88250231  1
  Ti  Ti6  1  0.29172034  0.45980087  0.12094906  1
  Ti  Ti7  1  0.96249296  0.12785028  0.11748631  1
  S  S0  1  0.75631684  0.91484209  0.74766395  1
  S  S1  1  0.41339721  0.58660113  0.74998959  1
  S  S2  1  0.08515845  0.24366931  0.75233160  1
  S  S3  1  0.58662405  0.41341559  0.25005747  1
  S  S4  1  0.24367736  0.08507710  0.25239011  1
  S  S5  1  0.91477468  0.75633255  0.24772541  1
  S  S6  1  0.50001209  -0.00002445  0.49997581  1
  S  S7  1  0.16457949  0.65947474  0.49907229  1
  S  S8  1  0.83539644  0.34060193  0.50088409  1
  S  S9  1  0.34060056  0.83541716  0.00088903  1
  S  S10  1  0.99997182  0.50003901  -0.00002298  1
  S  S11  1  0.65945853  0.16457159  0.99906236  1
loop_
_geom_bond_atom_site_label_1
_geom_bond_atom_site_label_2
_geom_bond_distance
_geom_bond_site_symmetry_2
S0 Ti2 2.465266 1_655
S0 Ti3 2.465496 1_565
S0 Ti5 2.475257 1_655
S0 Ti4 2.486186 1_555
S1 Ti2 2.475343 1_555
S1 Ti5 2.475462 1_555
S1 Ti3 2.478672 1_555
S1 Ti4 2.478760 1_555
S2 Ti5 2.465105 1_545
S2 Ti4 2.465308 1_455
S2 Ti2 2.475377 1_545
S2 Ti3 2.486408 1_555
S3 Ti1 2.475192 1_555
S3 Ti7 2.475857 1_555
S3 Ti0 2.478309 1_555
S3 Ti6 2.479519 1_555
S4 Ti1 2.464837 1_455
S4 Ti0 2.464986 1_545
S4 Ti7 2.475645 1_455
S4 Ti6 2.486948 1_555
S5 Ti7 2.465547 1_565
S5 Ti6 2.466045 1_655
S5 Ti1 2.474974 1_565
S5 Ti0 2.485817 1_555
S6 Ti1 2.391217 1_555
S6 Ti2 2.391425 1_545
S6 Ti0 2.405768 1_545
S6 Ti3 2.406570 1_555
S7 Ti1 2.393699 1_465
S7 Ti3 2.408811 1_555
S7 Ti0 2.446955 1_555
S7 Ti2 2.448712 1_555
S8 Ti2 2.394402 1_645
S8 Ti0 2.408261 1_555
S8 Ti3 2.447162 1_555
S8 Ti1 2.448695 1_555
S9 Ti7 2.394261 1_465
S9 Ti4 2.408640 1_554
S9 Ti6 2.447337 1_555
S9 Ti5 2.448938 1_554
S10 Ti5 2.391237 1_654
S10 Ti7 2.391628 1_555
S10 Ti4 2.406098 1_554
S10 Ti6 2.406403 1_655
S11 Ti5 2.393863 1_645
S11 Ti6 2.408928 1_556
S11 Ti4 2.447168 1_555
S11 Ti7 2.448992 1_556
