# generated using pymatgen
data_Y2Te3
_symmetry_space_group_name_H-M   'P 1'
_cell_length_a   7.56870476
_cell_length_b   7.56870476
_cell_length_c   13.81253626
_cell_angle_alpha   100.56845760
_cell_angle_beta   100.56845760
_cell_angle_gamma   109.30335970
_symmetry_Int_Tables_number   1
_chemical_formula_structural   Y2Te3
_chemical_formula_sum   'Y8 Te12'
_cell_volume   708.25284188
_cell_formula_units_Z   4
loop_
 _symmetry_equiv_pos_site_id
 _symmetry_equiv_pos_as_xyz
  1  'x, y, z'
loop_
 _atom_site_type_symbol
 _atom_site_label
 _atom_site_symmetry_multiplicity
 _atom_site_fract_x
 _atom_site_fract_y
 _atom_site_fract_z
 _atom_site_occupancy
  Y  Y0  1  0.70811178  0.95811178  0.91622257  1
  Y  Y1  1  0.54188822  0.79188822  0.58377743  1
  Y  Y2  1  0.29188822  0.04188822  0.08377743  1
  Y  Y3  1  0.45811178  0.20811178  0.41622257  1
  Y  Y4  1  0.37409544  0.62409544  0.24819088  1
  Y  Y5  1  0.87590456  0.12590456  0.25180912  1
  Y  Y6  1  0.62590456  0.37590456  0.75180912  1
  Y  Y7  1  0.12409544  0.87409544  0.74819088  1
  Te  Te0  1  0.87440804  0.12440804  0.75000000  1
  Te  Te1  1  0.37559196  0.62559196  0.75000000  1
  Te  Te2  1  0.12559196  0.87559196  0.25000000  1
  Te  Te3  1  0.62440804  0.37440804  0.25000000  1
  Te  Te4  1  0.54437286  0.79596415  0.08491310  1
  Te  Te5  1  0.70403585  0.95562714  0.41508690  1
  Te  Te6  1  0.21105105  0.45946076  0.41508690  1
  Te  Te7  1  0.04053924  0.28894895  0.08491310  1
  Te  Te8  1  0.45562714  0.20403585  0.91508690  1
  Te  Te9  1  0.29596415  0.04437286  0.58491310  1
  Te  Te10  1  0.78894895  0.54053924  0.58491310  1
  Te  Te11  1  0.95946076  0.71105105  0.91508690  1
loop_
_geom_bond_atom_site_label_1
_geom_bond_atom_site_label_2
_geom_bond_distance
_geom_bond_site_symmetry_2
Te0 Y0 3.084234 1_545
Te0 Y1 3.084240 1_545
Te0 Y7 3.086802 1_645
Te0 Y6 3.086802 1_555
Te1 Y1 3.084234 1_555
Te1 Y0 3.084240 1_555
Te1 Y7 3.086802 1_555
Te1 Y6 3.086802 1_555
Te2 Y2 3.084234 1_565
Te2 Y3 3.084240 1_565
Te2 Y5 3.086802 1_465
Te2 Y4 3.086802 1_555
Te3 Y3 3.084234 1_555
Te3 Y2 3.084240 1_555
Te3 Y5 3.086802 1_555
Te3 Y4 3.086802 1_555
Te4 Y2 3.077011 1_565
Te4 Y5 3.077394 1_565
Te4 Y4 3.077878 1_555
Te4 Y0 3.094142 1_554
Te5 Y3 3.077011 1_565
Te5 Y4 3.077394 1_555
Te5 Y5 3.077878 1_565
Te5 Y1 3.094142 1_555
Te6 Y3 3.077017 1_555
Te6 Y4 3.077390 1_555
Te6 Y5 3.077881 1_455
Te6 Y1 3.094133 1_555
Te7 Y2 3.077017 1_555
Te7 Y5 3.077390 1_455
Te7 Y4 3.077881 1_555
Te7 Y0 3.094133 1_444
Te8 Y0 3.077011 1_545
Te8 Y7 3.077394 1_545
Te8 Y6 3.077878 1_555
Te8 Y2 3.094142 1_556
Te9 Y1 3.077011 1_545
Te9 Y6 3.077394 1_555
Te9 Y7 3.077878 1_545
Te9 Y3 3.094142 1_555
Te10 Y1 3.077017 1_555
Te10 Y6 3.077390 1_555
Te10 Y7 3.077881 1_655
Te10 Y3 3.094133 1_555
Te11 Y0 3.077017 1_555
Te11 Y7 3.077390 1_655
Te11 Y6 3.077881 1_555
Te11 Y2 3.094133 1_666
