# generated using pymatgen
data_Mg5Al7O16
_symmetry_space_group_name_H-M   'P 1'
_cell_length_a   5.79904700
_cell_length_b   5.81892700
_cell_length_c   8.23641253
_cell_angle_alpha   89.11634914
_cell_angle_beta   90.00000000
_cell_angle_gamma   90.00000000
_symmetry_Int_Tables_number   1
_chemical_formula_structural   Mg5Al7O16
_chemical_formula_sum   'Mg5 Al7 O16'
_cell_volume   277.89835488
_cell_formula_units_Z   1
loop_
 _symmetry_equiv_pos_site_id
 _symmetry_equiv_pos_as_xyz
  1  'x, y, z'
loop_
 _atom_site_type_symbol
 _atom_site_label
 _atom_site_symmetry_multiplicity
 _atom_site_fract_x
 _atom_site_fract_y
 _atom_site_fract_z
 _atom_site_occupancy
  Mg  Mg0  1  0.50000000  0.00000000  0.00000000  1
  Mg  Mg1  1  0.50000000  0.24880000  0.62262500  1
  Mg  Mg2  1  0.00000000  0.74833500  0.12633700  1
  Mg  Mg3  1  0.00000000  0.25166500  0.87366300  1
  Mg  Mg4  1  0.50000000  0.75120000  0.37737500  1
  Al  Al0  1  0.00000000  0.50000000  0.50000000  1
  Al  Al1  1  0.50000000  0.50000000  0.00000000  1
  Al  Al2  1  0.00000000  0.00000000  0.50000000  1
  Al  Al3  1  0.75016900  0.25437800  0.25229700  1
  Al  Al4  1  0.24983100  0.74562200  0.74770300  1
  Al  Al5  1  0.24983100  0.25437800  0.25229700  1
  Al  Al6  1  0.75016900  0.74562200  0.74770300  1
  O  O0  1  0.00000000  0.02834500  0.26409800  1
  O  O1  1  0.50000000  0.52104400  0.76220900  1
  O  O2  1  0.00000000  0.47473700  0.26888400  1
  O  O3  1  0.50000000  0.95997600  0.75004900  1
  O  O4  1  0.22066000  0.25008200  0.48764600  1
  O  O5  1  0.73256300  0.73271700  0.97949900  1
  O  O6  1  0.77934000  0.25008200  0.48764600  1
  O  O7  1  0.26743700  0.73271700  0.97949900  1
  O  O8  1  0.50000000  0.47895600  0.23779100  1
  O  O9  1  0.00000000  0.97165500  0.73590200  1
  O  O10  1  0.50000000  0.04002400  0.24995100  1
  O  O11  1  0.00000000  0.52526300  0.73111600  1
  O  O12  1  0.26743700  0.26728300  0.02050100  1
  O  O13  1  0.77934000  0.74991800  0.51235400  1
  O  O14  1  0.73256300  0.26728300  0.02050100  1
  O  O15  1  0.22066000  0.74991800  0.51235400  1
loop_
_geom_bond_atom_site_label_1
_geom_bond_atom_site_label_2
_geom_bond_distance
_geom_bond_site_symmetry_2
Mg0 O12 2.067465 1_555
Mg0 O5 2.067465 1_544
Mg0 O14 2.067465 1_555
Mg0 O7 2.067465 1_544
Mg0 O10 2.075397 1_555
Mg0 O3 2.075397 1_544
Mg1 O4 1.964654 1_555
Mg1 O6 1.964654 1_555
Mg1 O3 1.967651 1_545
Mg1 O1 1.971676 1_555
Mg2 O2 1.963521 1_555
Mg2 O7 1.969662 1_554
Mg2 O5 1.969662 1_454
Mg2 O0 1.999819 1_565
Mg3 O11 1.963521 1_555
Mg3 O12 1.969662 1_556
Mg3 O14 1.969662 1_456
Mg3 O9 1.999819 1_545
Mg4 O15 1.964654 1_555
Mg4 O13 1.964654 1_555
Mg4 O10 1.967651 1_565
Mg4 O8 1.971676 1_555
Al0 O11 1.911494 1_555
Al0 O2 1.911494 1_555
Al0 O15 1.940926 1_555
Al0 O13 1.940926 1_455
Al0 O4 1.940926 1_555
Al0 O6 1.940926 1_455
Al1 O5 1.916783 1_554
Al1 O7 1.916783 1_554
Al1 O14 1.916783 1_555
Al1 O12 1.916783 1_555
Al1 O8 1.960483 1_555
Al1 O1 1.960483 1_554
Al2 O4 1.939289 1_555
Al2 O6 1.939289 1_455
Al2 O15 1.939289 1_545
Al2 O13 1.939289 1_445
Al2 O0 1.947438 1_555
Al2 O9 1.947438 1_545
Al3 O14 1.912214 1_555
Al3 O10 1.913518 1_555
Al3 O2 1.940930 1_655
Al3 O6 1.945575 1_555
Al3 O8 1.954954 1_555
Al3 O0 1.958164 1_655
Al4 O7 1.912214 1_555
Al4 O3 1.913518 1_555
Al4 O11 1.940930 1_555
Al4 O15 1.945575 1_555
Al4 O1 1.954954 1_555
Al4 O9 1.958164 1_555
Al5 O12 1.912214 1_555
Al5 O10 1.913518 1_555
Al5 O2 1.940930 1_555
Al5 O4 1.945575 1_555
Al5 O8 1.954954 1_555
Al5 O0 1.958164 1_555
Al6 O5 1.912214 1_555
Al6 O3 1.913518 1_555
Al6 O11 1.940930 1_655
Al6 O13 1.945575 1_555
Al6 O1 1.954954 1_555
Al6 O9 1.958164 1_655
