# generated using pymatgen
data_SN
_symmetry_space_group_name_H-M   'P 1'
_cell_length_a   3.79623100
_cell_length_b   4.43500611
_cell_length_c   4.61982007
_cell_angle_alpha   99.99675679
_cell_angle_beta   93.16644614
_cell_angle_gamma   91.08085351
_symmetry_Int_Tables_number   1
_chemical_formula_structural   SN
_chemical_formula_sum   'S2 N2'
_cell_volume   76.45084328
_cell_formula_units_Z   2
loop_
 _symmetry_equiv_pos_site_id
 _symmetry_equiv_pos_as_xyz
  1  'x, y, z'
loop_
 _atom_site_type_symbol
 _atom_site_label
 _atom_site_symmetry_multiplicity
 _atom_site_fract_x
 _atom_site_fract_y
 _atom_site_fract_z
 _atom_site_occupancy
  S  S0  1  0.36786800  0.81328200  0.31033400  1
  S  S1  1  0.63213200  0.18671800  0.68966600  1
  N  N0  1  0.46871700  0.18581600  0.35177000  1
  N  N1  1  0.53128300  0.81418400  0.64823000  1
loop_
_geom_bond_atom_site_label_1
_geom_bond_atom_site_label_2
_geom_bond_distance
_geom_bond_site_symmetry_2
N0 S1 1.646936 1_555
N0 S0 1.664687 1_545
N1 S0 1.646936 1_555
N1 S1 1.664687 1_565
