# generated using pymatgen
data_Tb10(SiSb)3
_symmetry_space_group_name_H-M   'P 1'
_cell_length_a   8.76187669
_cell_length_b   8.76187669
_cell_length_c   6.39910600
_cell_angle_alpha   90.00000000
_cell_angle_beta   90.00000000
_cell_angle_gamma   120.00000523
_symmetry_Int_Tables_number   1
_chemical_formula_structural   Tb10(SiSb)3
_chemical_formula_sum   'Tb10 Si3 Sb3'
_cell_volume   425.44574742
_cell_formula_units_Z   1
loop_
 _symmetry_equiv_pos_site_id
 _symmetry_equiv_pos_as_xyz
  1  'x, y, z'
loop_
 _atom_site_type_symbol
 _atom_site_label
 _atom_site_symmetry_multiplicity
 _atom_site_fract_x
 _atom_site_fract_y
 _atom_site_fract_z
 _atom_site_occupancy
  Tb  Tb0  1  0.75704200  0.00000000  0.00000000  1
  Tb  Tb1  1  0.00000000  0.75704200  0.00000000  1
  Tb  Tb2  1  0.24295800  0.24295800  0.00000000  1
  Tb  Tb3  1  0.24346900  0.00000000  0.50000000  1
  Tb  Tb4  1  0.00000000  0.24346900  0.50000000  1
  Tb  Tb5  1  0.75653100  0.75653100  0.50000000  1
  Tb  Tb6  1  0.33333300  0.66666700  0.25965600  1
  Tb  Tb7  1  0.66666700  0.33333300  0.25965600  1
  Tb  Tb8  1  0.66666700  0.33333300  0.74034400  1
  Tb  Tb9  1  0.33333300  0.66666700  0.74034400  1
  Si  Si0  1  0.60889000  0.00000000  0.50000000  1
  Si  Si1  1  0.00000000  0.60889000  0.50000000  1
  Si  Si2  1  0.39111000  0.39111000  0.50000000  1
  Sb  Sb0  1  0.39443600  0.00000000  0.00000000  1
  Sb  Sb1  1  0.00000000  0.39443600  0.00000000  1
  Sb  Sb2  1  0.60556400  0.60556400  0.00000000  1
loop_
_geom_bond_atom_site_label_1
_geom_bond_atom_site_label_2
_geom_bond_distance
_geom_bond_site_symmetry_2
Si0 Tb4 2.997292 1_655
Si0 Tb5 2.997292 1_545
Si0 Tb8 3.110176 1_555
Si0 Tb7 3.110176 1_555
Si0 Tb9 3.110178 1_545
Si0 Tb6 3.110178 1_545
Si0 Tb3 3.201774 1_555
Si0 Tb0 3.452850 1_555
Si0 Tb0 3.452850 1_556
Si1 Tb3 2.997292 1_565
Si1 Tb5 2.997292 1_455
Si1 Tb9 3.110176 1_555
Si1 Tb6 3.110176 1_555
Si1 Tb7 3.110178 1_455
Si1 Tb8 3.110178 1_455
Si1 Tb4 3.201774 1_555
Si1 Tb1 3.452850 1_555
Si1 Tb1 3.452850 1_556
Si2 Tb3 2.997292 1_555
Si2 Tb4 2.997292 1_555
Si2 Tb9 3.110183 1_555
Si2 Tb6 3.110183 1_555
Si2 Tb7 3.110183 1_555
Si2 Tb8 3.110183 1_555
Si2 Tb5 3.201773 1_555
Si2 Tb2 3.452850 1_555
Si2 Tb2 3.452850 1_556
Sb0 Tb1 3.019696 1_545
Sb0 Tb2 3.019696 1_555
Sb0 Tb9 3.164464 1_544
Sb0 Tb6 3.164464 1_545
Sb0 Tb7 3.164467 1_555
Sb0 Tb8 3.164467 1_554
Sb0 Tb0 3.177109 1_555
Sb0 Tb3 3.462198 1_555
Sb0 Tb3 3.462198 1_554
Sb1 Tb0 3.019696 1_455
Sb1 Tb2 3.019696 1_555
Sb1 Tb7 3.164464 1_455
Sb1 Tb8 3.164464 1_454
Sb1 Tb9 3.164467 1_554
Sb1 Tb6 3.164467 1_555
Sb1 Tb1 3.177109 1_555
Sb1 Tb4 3.462198 1_555
Sb1 Tb4 3.462198 1_554
Sb2 Tb1 3.019696 1_655
Sb2 Tb0 3.019696 1_565
Sb2 Tb9 3.164472 1_554
Sb2 Tb6 3.164472 1_555
Sb2 Tb7 3.164472 1_555
Sb2 Tb8 3.164472 1_554
Sb2 Tb2 3.177109 1_555
Sb2 Tb5 3.462198 1_554
Sb2 Tb5 3.462198 1_555
