# generated using pymatgen
data_TlRe
_symmetry_space_group_name_H-M   'P 1'
_cell_length_a   6.26841200
_cell_length_b   9.61432200
_cell_length_c   24.60953000
_cell_angle_alpha   90.00000000
_cell_angle_beta   90.00000000
_cell_angle_gamma   90.00000000
_symmetry_Int_Tables_number   1
_chemical_formula_structural   TlRe
_chemical_formula_sum   'Tl32 Re32'
_cell_volume   1483.13101240
_cell_formula_units_Z   32
loop_
 _symmetry_equiv_pos_site_id
 _symmetry_equiv_pos_as_xyz
  1  'x, y, z'
loop_
 _atom_site_type_symbol
 _atom_site_label
 _atom_site_symmetry_multiplicity
 _atom_site_fract_x
 _atom_site_fract_y
 _atom_site_fract_z
 _atom_site_occupancy
  Tl  Tl0_0  1  0.25000000  0.12500000  0.19781550  1
  Tl  Tl0_1  1  0.25000000  0.12500000  0.69781550  1
  Tl  Tl0_2  1  0.25000000  0.62500000  0.19781550  1
  Tl  Tl0_3  1  0.25000000  0.62500000  0.69781550  1
  Tl  Tl0_4  1  0.75000000  0.12500000  0.19781550  1
  Tl  Tl0_5  1  0.75000000  0.12500000  0.69781550  1
  Tl  Tl0_6  1  0.75000000  0.62500000  0.19781550  1
  Tl  Tl0_7  1  0.75000000  0.62500000  0.69781550  1
  Tl  Tl1_0  1  0.00000000  0.12500000  0.05218450  1
  Tl  Tl1_1  1  0.00000000  0.12500000  0.55218450  1
  Tl  Tl1_2  1  0.00000000  0.62500000  0.05218450  1
  Tl  Tl1_3  1  0.00000000  0.62500000  0.55218450  1
  Tl  Tl1_4  1  0.50000000  0.12500000  0.05218450  1
  Tl  Tl1_5  1  0.50000000  0.12500000  0.55218450  1
  Tl  Tl1_6  1  0.50000000  0.62500000  0.05218450  1
  Tl  Tl1_7  1  0.50000000  0.62500000  0.55218450  1
  Tl  Tl2_0  1  0.25000000  0.37500000  0.30218450  1
  Tl  Tl2_1  1  0.25000000  0.37500000  0.80218450  1
  Tl  Tl2_2  1  0.25000000  0.87500000  0.30218450  1
  Tl  Tl2_3  1  0.25000000  0.87500000  0.80218450  1
  Tl  Tl2_4  1  0.75000000  0.37500000  0.30218450  1
  Tl  Tl2_5  1  0.75000000  0.37500000  0.80218450  1
  Tl  Tl2_6  1  0.75000000  0.87500000  0.30218450  1
  Tl  Tl2_7  1  0.75000000  0.87500000  0.80218450  1
  Tl  Tl3_0  1  0.00000000  0.37500000  0.44781550  1
  Tl  Tl3_1  1  0.00000000  0.37500000  0.94781550  1
  Tl  Tl3_2  1  0.00000000  0.87500000  0.44781550  1
  Tl  Tl3_3  1  0.00000000  0.87500000  0.94781550  1
  Tl  Tl3_4  1  0.50000000  0.37500000  0.44781550  1
  Tl  Tl3_5  1  0.50000000  0.37500000  0.94781550  1
  Tl  Tl3_6  1  0.50000000  0.87500000  0.44781550  1
  Tl  Tl3_7  1  0.50000000  0.87500000  0.94781550  1
  Re  Re0_0  1  0.25000000  0.12500000  0.41111250  1
  Re  Re0_1  1  0.25000000  0.12500000  0.91111250  1
  Re  Re0_2  1  0.25000000  0.62500000  0.41111250  1
  Re  Re0_3  1  0.25000000  0.62500000  0.91111250  1
  Re  Re0_4  1  0.75000000  0.12500000  0.41111250  1
  Re  Re0_5  1  0.75000000  0.12500000  0.91111250  1
  Re  Re0_6  1  0.75000000  0.62500000  0.41111250  1
  Re  Re0_7  1  0.75000000  0.62500000  0.91111250  1
  Re  Re1_0  1  0.00000000  0.12500000  0.33888750  1
  Re  Re1_1  1  0.00000000  0.12500000  0.83888750  1
  Re  Re1_2  1  0.00000000  0.62500000  0.33888750  1
  Re  Re1_3  1  0.00000000  0.62500000  0.83888750  1
  Re  Re1_4  1  0.50000000  0.12500000  0.33888750  1
  Re  Re1_5  1  0.50000000  0.12500000  0.83888750  1
  Re  Re1_6  1  0.50000000  0.62500000  0.33888750  1
  Re  Re1_7  1  0.50000000  0.62500000  0.83888750  1
  Re  Re2_0  1  0.25000000  0.37500000  0.08888750  1
  Re  Re2_1  1  0.25000000  0.37500000  0.58888750  1
  Re  Re2_2  1  0.25000000  0.87500000  0.08888750  1
  Re  Re2_3  1  0.25000000  0.87500000  0.58888750  1
  Re  Re2_4  1  0.75000000  0.37500000  0.08888750  1
  Re  Re2_5  1  0.75000000  0.37500000  0.58888750  1
  Re  Re2_6  1  0.75000000  0.87500000  0.08888750  1
  Re  Re2_7  1  0.75000000  0.87500000  0.58888750  1
  Re  Re3_0  1  0.00000000  0.37500000  0.16111250  1
  Re  Re3_1  1  0.00000000  0.37500000  0.66111250  1
  Re  Re3_2  1  0.00000000  0.87500000  0.16111250  1
  Re  Re3_3  1  0.00000000  0.87500000  0.66111250  1
  Re  Re3_4  1  0.50000000  0.37500000  0.16111250  1
  Re  Re3_5  1  0.50000000  0.37500000  0.66111250  1
  Re  Re3_6  1  0.50000000  0.87500000  0.16111250  1
  Re  Re3_7  1  0.50000000  0.87500000  0.66111250  1
loop_
_geom_bond_atom_site_label_1
_geom_bond_atom_site_label_2
_geom_bond_distance
_geom_bond_site_symmetry_2
Tl0_0 Tl0_4 3.134206 1_455
Tl0_0 Tl0_4 3.134206 1_555
Tl0_0 Tl2_0 3.517705 1_555
Tl0_0 Tl2_2 3.517705 1_545
Tl0_1 Tl0_5 3.134206 1_455
Tl0_1 Tl0_5 3.134206 1_555
Tl0_1 Tl2_1 3.517705 1_555
Tl0_1 Tl2_3 3.517705 1_545
Tl0_2 Tl0_6 3.134206 1_455
Tl0_2 Tl0_6 3.134206 1_555
Tl0_2 Tl2_2 3.517705 1_555
Tl0_2 Tl2_0 3.517705 1_555
Tl0_3 Tl0_7 3.134206 1_455
Tl0_3 Tl0_7 3.134206 1_555
Tl0_3 Tl2_3 3.517705 1_555
Tl0_3 Tl2_1 3.517705 1_555
Tl0_4 Tl2_4 3.517705 1_555
Tl0_4 Tl2_6 3.517705 1_545
Tl0_5 Tl2_5 3.517705 1_555
Tl0_5 Tl2_7 3.517705 1_545
Tl0_6 Tl2_6 3.517705 1_555
Tl0_6 Tl2_4 3.517705 1_555
Tl0_7 Tl2_7 3.517705 1_555
Tl0_7 Tl2_5 3.517705 1_555
Tl1_0 Tl1_4 3.134206 1_455
Tl1_0 Tl1_4 3.134206 1_555
Tl1_0 Tl3_1 3.517705 1_554
Tl1_0 Tl3_3 3.517705 1_544
Tl1_1 Tl1_5 3.134206 1_455
Tl1_1 Tl1_5 3.134206 1_555
Tl1_1 Tl3_0 3.517705 1_555
Tl1_1 Tl3_2 3.517705 1_545
Tl1_2 Tl1_6 3.134206 1_455
Tl1_2 Tl1_6 3.134206 1_555
Tl1_2 Tl3_3 3.517705 1_554
Tl1_2 Tl3_1 3.517705 1_554
Tl1_3 Tl1_7 3.134206 1_555
Tl1_3 Tl1_7 3.134206 1_455
Tl1_3 Tl3_2 3.517705 1_555
Tl1_3 Tl3_0 3.517705 1_555
Tl1_4 Tl3_5 3.517705 1_554
Tl1_4 Tl3_7 3.517705 1_544
Tl1_5 Tl3_4 3.517705 1_555
Tl1_5 Tl3_6 3.517705 1_545
Tl1_6 Tl3_7 3.517705 1_554
Tl1_6 Tl3_5 3.517705 1_554
Tl1_7 Tl3_6 3.517705 1_555
Tl1_7 Tl3_4 3.517705 1_555
Tl2_0 Tl2_4 3.134206 1_455
Tl2_0 Tl2_4 3.134206 1_555
Tl2_1 Tl2_5 3.134206 1_455
Tl2_1 Tl2_5 3.134206 1_555
Tl2_2 Tl2_6 3.134206 1_455
Tl2_2 Tl2_6 3.134206 1_555
Tl2_3 Tl2_7 3.134206 1_455
Tl2_3 Tl2_7 3.134206 1_555
Tl3_0 Tl3_4 3.134206 1_455
Tl3_0 Tl3_4 3.134206 1_555
Tl3_1 Tl3_5 3.134206 1_555
Tl3_1 Tl3_5 3.134206 1_455
Tl3_2 Tl3_6 3.134206 1_555
Tl3_2 Tl3_6 3.134206 1_455
Tl3_3 Tl3_7 3.134206 1_455
Tl3_3 Tl3_7 3.134206 1_555
Re0_0 Re1_0 2.369609 1_555
Re0_0 Re1_4 2.369609 1_555
Re0_0 Tl3_4 3.008132 1_555
Re0_0 Tl3_0 3.008132 1_555
Re0_0 Tl3_2 3.008132 1_545
Re0_0 Tl3_6 3.008132 1_545
Re0_1 Re1_1 2.369609 1_555
Re0_1 Re1_5 2.369609 1_555
Re0_1 Tl3_1 3.008132 1_555
Re0_1 Tl3_5 3.008132 1_555
Re0_1 Tl3_3 3.008132 1_545
Re0_1 Tl3_7 3.008132 1_545
Re0_2 Re1_2 2.369609 1_555
Re0_2 Re1_6 2.369609 1_555
Re0_2 Tl3_6 3.008132 1_555
Re0_2 Tl3_2 3.008132 1_555
Re0_2 Tl3_0 3.008132 1_555
Re0_2 Tl3_4 3.008132 1_555
Re0_3 Re1_7 2.369609 1_555
Re0_3 Re1_3 2.369609 1_555
Re0_3 Tl3_3 3.008132 1_555
Re0_3 Tl3_7 3.008132 1_555
Re0_3 Tl3_5 3.008132 1_555
Re0_3 Tl3_1 3.008132 1_555
Re0_4 Re1_0 2.369609 1_655
Re0_4 Re1_4 2.369609 1_555
Re0_4 Tl3_0 3.008132 1_655
Re0_4 Tl3_4 3.008132 1_555
Re0_4 Tl3_2 3.008132 1_645
Re0_4 Tl3_6 3.008132 1_545
Re0_5 Re1_1 2.369609 1_655
Re0_5 Re1_5 2.369609 1_555
Re0_5 Tl3_1 3.008132 1_655
Re0_5 Tl3_5 3.008132 1_555
Re0_5 Tl3_3 3.008132 1_645
Re0_5 Tl3_7 3.008132 1_545
Re0_6 Re1_2 2.369609 1_655
Re0_6 Re1_6 2.369609 1_555
Re0_6 Tl3_2 3.008132 1_655
Re0_6 Tl3_6 3.008132 1_555
Re0_6 Tl3_0 3.008132 1_655
Re0_6 Tl3_4 3.008132 1_555
Re0_7 Re1_3 2.369609 1_655
Re0_7 Re1_7 2.369609 1_555
Re0_7 Tl3_3 3.008132 1_655
Re0_7 Tl3_7 3.008132 1_555
Re0_7 Tl3_1 3.008132 1_655
Re0_7 Tl3_5 3.008132 1_555
Re1_0 Tl2_4 3.008132 1_455
Re1_0 Tl2_0 3.008132 1_555
Re1_0 Tl2_6 3.008132 1_445
Re1_0 Tl2_2 3.008132 1_545
Re1_1 Tl2_5 3.008132 1_455
Re1_1 Tl2_1 3.008132 1_555
Re1_1 Tl2_7 3.008132 1_445
Re1_1 Tl2_3 3.008132 1_545
Re1_2 Tl2_6 3.008132 1_455
Re1_2 Tl2_2 3.008132 1_555
Re1_2 Tl2_0 3.008132 1_555
Re1_2 Tl2_4 3.008132 1_455
Re1_3 Tl2_7 3.008132 1_455
Re1_3 Tl2_3 3.008132 1_555
Re1_3 Tl2_5 3.008132 1_455
Re1_3 Tl2_1 3.008132 1_555
Re1_4 Tl2_0 3.008132 1_555
Re1_4 Tl2_4 3.008132 1_555
Re1_4 Tl2_2 3.008132 1_545
Re1_4 Tl2_6 3.008132 1_545
Re1_5 Tl2_1 3.008132 1_555
Re1_5 Tl2_5 3.008132 1_555
Re1_5 Tl2_3 3.008132 1_545
Re1_5 Tl2_7 3.008132 1_545
Re1_6 Tl2_2 3.008132 1_555
Re1_6 Tl2_6 3.008132 1_555
Re1_6 Tl2_0 3.008132 1_555
Re1_6 Tl2_4 3.008132 1_555
Re1_7 Tl2_3 3.008132 1_555
Re1_7 Tl2_7 3.008132 1_555
Re1_7 Tl2_1 3.008132 1_555
Re1_7 Tl2_5 3.008132 1_555
Re2_0 Re3_0 2.369609 1_555
Re2_0 Re3_4 2.369609 1_555
Re2_0 Tl1_0 3.008132 1_555
Re2_0 Tl1_4 3.008132 1_555
Re2_0 Tl1_2 3.008132 1_555
Re2_0 Tl1_6 3.008132 1_555
Re2_1 Re3_1 2.369609 1_555
Re2_1 Re3_5 2.369609 1_555
Re2_1 Tl1_5 3.008132 1_555
Re2_1 Tl1_1 3.008132 1_555
Re2_1 Tl1_3 3.008132 1_555
Re2_1 Tl1_7 3.008132 1_555
Re2_2 Re3_6 2.369609 1_555
Re2_2 Re3_2 2.369609 1_555
Re2_2 Tl1_2 3.008132 1_555
Re2_2 Tl1_6 3.008132 1_555
Re2_2 Tl1_0 3.008132 1_565
Re2_2 Tl1_4 3.008132 1_565
Re2_3 Re3_3 2.369609 1_555
Re2_3 Re3_7 2.369609 1_555
Re2_3 Tl1_7 3.008132 1_555
Re2_3 Tl1_3 3.008132 1_555
Re2_3 Tl1_5 3.008132 1_565
Re2_3 Tl1_1 3.008132 1_565
Re2_4 Re3_0 2.369609 1_655
Re2_4 Re3_4 2.369609 1_555
Re2_4 Tl1_0 3.008132 1_655
Re2_4 Tl1_2 3.008132 1_655
Re2_4 Tl1_4 3.008132 1_555
Re2_4 Tl1_6 3.008132 1_555
Re2_5 Re3_1 2.369609 1_655
Re2_5 Re3_5 2.369609 1_555
Re2_5 Tl1_1 3.008132 1_655
Re2_5 Tl1_3 3.008132 1_655
Re2_5 Tl1_5 3.008132 1_555
Re2_5 Tl1_7 3.008132 1_555
Re2_6 Re3_2 2.369609 1_655
Re2_6 Re3_6 2.369609 1_555
Re2_6 Tl1_2 3.008132 1_655
Re2_6 Tl1_6 3.008132 1_555
Re2_6 Tl1_0 3.008132 1_665
Re2_6 Tl1_4 3.008132 1_565
Re2_7 Re3_3 2.369609 1_655
Re2_7 Re3_7 2.369609 1_555
Re2_7 Tl1_3 3.008132 1_655
Re2_7 Tl1_7 3.008132 1_555
Re2_7 Tl1_1 3.008132 1_665
Re2_7 Tl1_5 3.008132 1_565
Re3_0 Tl0_4 3.008132 1_455
Re3_0 Tl0_0 3.008132 1_555
Re3_0 Tl0_6 3.008132 1_455
Re3_0 Tl0_2 3.008132 1_555
Re3_1 Tl0_5 3.008132 1_455
Re3_1 Tl0_1 3.008132 1_555
Re3_1 Tl0_7 3.008132 1_455
Re3_1 Tl0_3 3.008132 1_555
Re3_2 Tl0_6 3.008132 1_455
Re3_2 Tl0_2 3.008132 1_555
Re3_2 Tl0_0 3.008132 1_565
Re3_2 Tl0_4 3.008132 1_465
Re3_3 Tl0_7 3.008132 1_455
Re3_3 Tl0_3 3.008132 1_555
Re3_3 Tl0_1 3.008132 1_565
Re3_3 Tl0_5 3.008132 1_465
Re3_4 Tl0_0 3.008132 1_555
Re3_4 Tl0_4 3.008132 1_555
Re3_4 Tl0_6 3.008132 1_555
Re3_4 Tl0_2 3.008132 1_555
Re3_5 Tl0_1 3.008132 1_555
Re3_5 Tl0_5 3.008132 1_555
Re3_5 Tl0_7 3.008132 1_555
Re3_5 Tl0_3 3.008132 1_555
Re3_6 Tl0_2 3.008132 1_555
Re3_6 Tl0_6 3.008132 1_555
Re3_6 Tl0_0 3.008132 1_565
Re3_6 Tl0_4 3.008132 1_565
Re3_7 Tl0_3 3.008132 1_555
Re3_7 Tl0_7 3.008132 1_555
Re3_7 Tl0_1 3.008132 1_565
Re3_7 Tl0_5 3.008132 1_565
