# generated using pymatgen
data_Sr2SmBeO5
_symmetry_space_group_name_H-M   'P 1'
_cell_length_a   6.58135500
_cell_length_b   7.40979100
_cell_length_c   9.67549600
_cell_angle_alpha   90.00000000
_cell_angle_beta   90.00000000
_cell_angle_gamma   90.00000000
_symmetry_Int_Tables_number   1
_chemical_formula_structural   Sr2SmBeO5
_chemical_formula_sum   'Sr8 Sm4 Be4 O20'
_cell_volume   471.83973749
_cell_formula_units_Z   4
loop_
 _symmetry_equiv_pos_site_id
 _symmetry_equiv_pos_as_xyz
  1  'x, y, z'
loop_
 _atom_site_type_symbol
 _atom_site_label
 _atom_site_symmetry_multiplicity
 _atom_site_fract_x
 _atom_site_fract_y
 _atom_site_fract_z
 _atom_site_occupancy
  Sr  Sr0  1  0.58731400  0.52475900  0.82688800  1
  Sr  Sr1  1  0.41268600  0.47524100  0.17311200  1
  Sr  Sr2  1  0.08731400  0.47524100  0.67311200  1
  Sr  Sr3  1  0.41268600  0.02475900  0.17311200  1
  Sr  Sr4  1  0.91268600  0.52475900  0.32688800  1
  Sr  Sr5  1  0.58731400  0.97524100  0.82688800  1
  Sr  Sr6  1  0.91268600  0.97524100  0.32688800  1
  Sr  Sr7  1  0.08731400  0.02475900  0.67311200  1
  Sm  Sm0  1  0.09175200  0.75000000  0.97159600  1
  Sm  Sm1  1  0.90824800  0.25000000  0.02840400  1
  Sm  Sm2  1  0.59175200  0.25000000  0.52840400  1
  Sm  Sm3  1  0.40824800  0.75000000  0.47159600  1
  Be  Be0  1  0.81152300  0.75000000  0.60256600  1
  Be  Be1  1  0.18847700  0.25000000  0.39743400  1
  Be  Be2  1  0.31152300  0.25000000  0.89743400  1
  Be  Be3  1  0.68847700  0.75000000  0.10256600  1
  O  O0  1  0.32747600  0.75000000  0.71524500  1
  O  O1  1  0.67252400  0.25000000  0.28475500  1
  O  O2  1  0.82747600  0.25000000  0.78475500  1
  O  O3  1  0.17252400  0.75000000  0.21524500  1
  O  O4  1  0.68715000  0.56365700  0.56402000  1
  O  O5  1  0.31285000  0.43634300  0.43598000  1
  O  O6  1  0.18715000  0.43634300  0.93598000  1
  O  O7  1  0.31285000  0.06365700  0.43598000  1
  O  O8  1  0.81285000  0.56365700  0.06402000  1
  O  O9  1  0.68715000  0.93634300  0.56402000  1
  O  O10  1  0.81285000  0.93634300  0.06402000  1
  O  O11  1  0.18715000  0.06365700  0.93598000  1
  O  O12  1  0.03194400  0.75000000  0.51307700  1
  O  O13  1  0.96805600  0.25000000  0.48692300  1
  O  O14  1  0.53194400  0.25000000  0.98692300  1
  O  O15  1  0.46805600  0.75000000  0.01307700  1
  O  O16  1  0.87501900  0.75000000  0.77057800  1
  O  O17  1  0.12498100  0.25000000  0.22942200  1
  O  O18  1  0.37501900  0.25000000  0.72942200  1
  O  O19  1  0.62498100  0.75000000  0.27057800  1
loop_
_geom_bond_atom_site_label_1
_geom_bond_atom_site_label_2
_geom_bond_distance
_geom_bond_site_symmetry_2
Be0 O4 1.647911 1_555
Be0 O9 1.647911 1_555
Be0 O16 1.678453 1_555
Be0 O12 1.689419 1_655
Be1 O7 1.647911 1_555
Be1 O5 1.647911 1_555
Be1 O17 1.678453 1_555
Be1 O13 1.689419 1_455
Be2 O6 1.647911 1_555
Be2 O11 1.647911 1_555
Be2 O18 1.678453 1_555
Be2 O14 1.689419 1_555
Be3 O8 1.647911 1_555
Be3 O10 1.647911 1_555
Be3 O19 1.678453 1_555
Be3 O15 1.689419 1_555
O0 Sm3 2.416617 1_555
O0 Sr7 2.609477 1_565
O0 Sr2 2.609477 1_555
O0 Sr5 2.622356 1_555
O0 Sr0 2.622356 1_555
O0 Sm0 2.925541 1_555
O1 Sm2 2.416617 1_555
O1 Sr4 2.609477 1_555
O1 Sr6 2.609477 1_545
O1 Sr3 2.622356 1_555
O1 Sr1 2.622356 1_555
O1 Sm1 2.925541 1_555
O2 Sm1 2.416617 1_556
O2 Sr5 2.609477 1_545
O2 Sr0 2.609477 1_555
O2 Sr2 2.622356 1_655
O2 Sr7 2.622356 1_655
O2 Sm2 2.925541 1_555
O3 Sm0 2.416617 1_554
O3 Sr1 2.609477 1_555
O3 Sr3 2.609477 1_565
O3 Sr4 2.622356 1_455
O3 Sr6 2.622356 1_455
O3 Sm3 2.925541 1_555
O4 Sm2 2.431982 1_555
O4 Sm3 2.464841 1_555
O4 Sr0 2.642645 1_555
O4 Sr4 2.747808 1_555
O4 Sr2 2.911923 1_655
O5 Sm3 2.431982 1_555
O5 Sm2 2.464841 1_555
O5 Sr1 2.642645 1_555
O5 Sr2 2.747808 1_555
O5 Sr4 2.911923 1_455
O6 Sm0 2.431982 1_555
O6 Sm1 2.464841 1_456
O6 Sr2 2.642645 1_555
O6 Sr1 2.747808 1_556
O6 Sr0 2.911923 1_555
O7 Sm3 2.431982 1_545
O7 Sm2 2.464841 1_555
O7 Sr3 2.642645 1_555
O7 Sr7 2.747808 1_555
O7 Sr6 2.911923 1_445
O8 Sm1 2.431982 1_555
O8 Sm0 2.464841 1_654
O8 Sr4 2.642645 1_555
O8 Sr0 2.747808 1_554
O8 Sr1 2.911923 1_555
O9 Sm2 2.431982 1_565
O9 Sm3 2.464841 1_555
O9 Sr5 2.642645 1_555
O9 Sr6 2.747808 1_555
O9 Sr7 2.911923 1_665
O10 Sm1 2.431982 1_565
O10 Sm0 2.464841 1_654
O10 Sr6 2.642645 1_555
O10 Sr5 2.747808 1_554
O10 Sr3 2.911923 1_565
O11 Sm0 2.431982 1_545
O11 Sm1 2.464841 1_456
O11 Sr7 2.642645 1_555
O11 Sr3 2.747808 1_556
O11 Sr5 2.911923 1_545
O12 Sm3 2.508900 1_555
O12 Sr6 2.578150 1_455
O12 Sr4 2.578150 1_455
O12 Sr7 2.583662 1_565
O12 Sr2 2.583662 1_555
O13 Sm2 2.508900 1_555
O13 Sr7 2.578150 1_655
O13 Sr2 2.578150 1_655
O13 Sr4 2.583662 1_555
O13 Sr6 2.583662 1_545
O14 Sm1 2.508900 1_556
O14 Sr3 2.578150 1_556
O14 Sr1 2.578150 1_556
O14 Sr0 2.583662 1_555
O14 Sr5 2.583662 1_545
O15 Sm0 2.508900 1_554
O15 Sr5 2.578150 1_554
O15 Sr0 2.578150 1_554
O15 Sr3 2.583662 1_565
O15 Sr1 2.583662 1_555
O16 Sm0 2.411936 1_655
O16 Sr5 2.582181 1_555
O16 Sr0 2.582181 1_555
O16 Sr2 2.643173 1_655
O16 Sr7 2.643173 1_665
O17 Sm1 2.411936 1_455
O17 Sr3 2.582181 1_555
O17 Sr1 2.582181 1_555
O17 Sr4 2.643173 1_455
O17 Sr6 2.643173 1_445
O18 Sm2 2.411936 1_555
O18 Sr2 2.582181 1_555
O18 Sr7 2.582181 1_555
O18 Sr5 2.643173 1_545
O18 Sr0 2.643173 1_555
O19 Sm3 2.411936 1_555
O19 Sr6 2.582181 1_555
O19 Sr4 2.582181 1_555
O19 Sr3 2.643173 1_565
O19 Sr1 2.643173 1_555
