# generated using pymatgen
data_RbNb2PSe10
_symmetry_space_group_name_H-M   'P 1'
_cell_length_a   8.10462800
_cell_length_b   7.67437700
_cell_length_c   13.77425913
_cell_angle_alpha   73.23378374
_cell_angle_beta   90.00000000
_cell_angle_gamma   90.00000000
_symmetry_Int_Tables_number   1
_chemical_formula_structural   RbNb2PSe10
_chemical_formula_sum   'Rb2 Nb4 P2 Se20'
_cell_volume   820.31112277
_cell_formula_units_Z   2
loop_
 _symmetry_equiv_pos_site_id
 _symmetry_equiv_pos_as_xyz
  1  'x, y, z'
loop_
 _atom_site_type_symbol
 _atom_site_label
 _atom_site_symmetry_multiplicity
 _atom_site_fract_x
 _atom_site_fract_y
 _atom_site_fract_z
 _atom_site_occupancy
  Rb  Rb0  1  0.48921900  0.81350500  0.30828300  1
  Rb  Rb1  1  0.51078100  0.81350500  0.80828300  1
  Nb  Nb0  1  0.05974800  0.26527800  0.33264400  1
  Nb  Nb1  1  0.94025200  0.26527800  0.83264400  1
  Nb  Nb2  1  0.06092200  0.25747800  0.03961100  1
  Nb  Nb3  1  0.93907800  0.25747800  0.53961100  1
  P  P0  1  0.40408100  0.40634100  0.15958200  1
  P  P1  1  0.59591900  0.40634100  0.65958200  1
  Se  Se0  1  0.13902900  0.00713500  0.49973400  1
  Se  Se1  1  0.86097100  0.00713500  0.99973400  1
  Se  Se2  1  0.16336200  0.21639600  0.69303400  1
  Se  Se3  1  0.83663800  0.21639600  0.19303400  1
  Se  Se4  1  0.39458900  0.20750800  0.06887500  1
  Se  Se5  1  0.60541100  0.20750800  0.56887500  1
  Se  Se6  1  0.14128100  0.51071400  0.14358600  1
  Se  Se7  1  0.85871900  0.51071400  0.64358600  1
  Se  Se8  1  0.06004400  0.01132200  0.22558300  1
  Se  Se9  1  0.93995600  0.01132200  0.72558300  1
  Se  Se10  1  0.11862300  0.52498900  0.42519600  1
  Se  Se11  1  0.88137700  0.52498900  0.92519600  1
  Se  Se12  1  0.40511200  0.27221400  0.32712100  1
  Se  Se13  1  0.59488800  0.27221400  0.82712100  1
  Se  Se14  1  0.59853800  0.60630800  0.11015100  1
  Se  Se15  1  0.40146200  0.60630800  0.61015100  1
  Se  Se16  1  0.14903500  0.50602400  0.86512900  1
  Se  Se17  1  0.85096500  0.50602400  0.36512900  1
  Se  Se18  1  0.13453200  0.00596800  0.95008100  1
  Se  Se19  1  0.86546800  0.00596800  0.45008100  1
loop_
_geom_bond_atom_site_label_1
_geom_bond_atom_site_label_2
_geom_bond_distance
_geom_bond_site_symmetry_2
Rb0 Se14 3.642141 1_555
Rb0 Se12 3.667634 1_565
Rb0 Se17 3.702832 1_555
Rb0 Se10 3.802637 1_555
Rb0 Se8 3.834475 1_565
Rb0 Se4 3.853957 1_565
Rb0 Se15 4.063105 1_555
Rb0 Se19 4.118185 1_565
Rb0 Se12 4.143237 1_555
Rb0 Se3 4.144456 1_565
Rb1 Se15 3.642141 1_555
Rb1 Se13 3.667634 1_565
Rb1 Se16 3.702832 1_555
Rb1 Se11 3.802637 1_555
Rb1 Se9 3.834475 1_565
Rb1 Se5 3.853957 1_565
Rb1 Se14 4.063105 1_556
Rb1 Se18 4.118185 1_565
Rb1 Se13 4.143237 1_555
Rb1 Se2 4.144456 1_565
Nb0 Se17 2.637033 1_455
Nb0 Se0 2.646525 1_555
Nb0 Se19 2.683090 1_455
Nb0 Se10 2.700249 1_555
Nb0 Se3 2.743105 1_455
Nb0 Se8 2.762479 1_555
Nb0 Se12 2.800169 1_555
Nb0 Se6 2.817107 1_555
Nb1 Se16 2.637033 1_655
Nb1 Se1 2.646525 1_555
Nb1 Se18 2.683090 1_655
Nb1 Se11 2.700249 1_555
Nb1 Se2 2.743105 1_655
Nb1 Se9 2.762479 1_555
Nb1 Se13 2.800169 1_555
Nb1 Se7 2.817107 1_555
Nb2 Se11 2.636142 1_454
Nb2 Se18 2.641138 1_554
Nb2 Se1 2.688449 1_454
Nb2 Se16 2.698075 1_554
Nb2 Se8 2.709019 1_555
Nb2 Se3 2.735903 1_455
Nb2 Se4 2.744688 1_555
Nb2 Se6 2.803216 1_555
Nb3 Se10 2.636142 1_655
Nb3 Se19 2.641138 1_555
Nb3 Se0 2.688449 1_655
Nb3 Se17 2.698075 1_555
Nb3 Se9 2.709019 1_555
Nb3 Se2 2.735903 1_655
Nb3 Se5 2.744688 1_555
Nb3 Se7 2.803216 1_555
P0 Se14 2.167858 1_555
P0 Se4 2.235025 1_555
P0 Se12 2.239361 1_555
P0 Se6 2.263798 1_555
P1 Se15 2.167858 1_555
P1 Se5 2.235025 1_555
P1 Se13 2.239361 1_555
P1 Se7 2.263798 1_555
Se0 Se19 2.320982 1_455
Se1 Se18 2.320982 1_655
Se2 Se9 2.355668 1_455
Se3 Se8 2.355668 1_655
Se10 Se17 2.341141 1_455
Se11 Se16 2.341141 1_655
