# generated using pymatgen
data_Zr6Ga16Ir7
_symmetry_space_group_name_H-M   'P 1'
_cell_length_a   8.80991693
_cell_length_b   8.80991693
_cell_length_c   8.80991693
_cell_angle_alpha   60.00000000
_cell_angle_beta   60.00000000
_cell_angle_gamma   60.00000000
_symmetry_Int_Tables_number   1
_chemical_formula_structural   Zr6Ga16Ir7
_chemical_formula_sum   'Zr6 Ga16 Ir7'
_cell_volume   483.50441243
_cell_formula_units_Z   1
loop_
 _symmetry_equiv_pos_site_id
 _symmetry_equiv_pos_as_xyz
  1  'x, y, z'
loop_
 _atom_site_type_symbol
 _atom_site_label
 _atom_site_symmetry_multiplicity
 _atom_site_fract_x
 _atom_site_fract_y
 _atom_site_fract_z
 _atom_site_occupancy
  Zr  Zr0  1  0.69546600  0.69546600  0.30453400  1
  Zr  Zr1  1  0.30453400  0.69546600  0.30453400  1
  Zr  Zr2  1  0.69546600  0.30453400  0.30453400  1
  Zr  Zr3  1  0.30453400  0.30453400  0.69546600  1
  Zr  Zr4  1  0.69546600  0.30453400  0.69546600  1
  Zr  Zr5  1  0.30453400  0.69546600  0.69546600  1
  Ga  Ga0  1  0.87812900  0.87812900  0.36561200  1
  Ga  Ga1  1  0.87812900  0.36561200  0.87812900  1
  Ga  Ga2  1  0.36561200  0.87812900  0.87812900  1
  Ga  Ga3  1  0.87812900  0.87812900  0.87812900  1
  Ga  Ga4  1  0.12187100  0.12187100  0.63438800  1
  Ga  Ga5  1  0.12187100  0.63438800  0.12187100  1
  Ga  Ga6  1  0.63438800  0.12187100  0.12187100  1
  Ga  Ga7  1  0.12187100  0.12187100  0.12187100  1
  Ga  Ga8  1  0.65573600  0.65573600  0.03279100  1
  Ga  Ga9  1  0.65573600  0.03279100  0.65573600  1
  Ga  Ga10  1  0.03279100  0.65573600  0.65573600  1
  Ga  Ga11  1  0.65573600  0.65573600  0.65573600  1
  Ga  Ga12  1  0.34426400  0.34426400  0.96720900  1
  Ga  Ga13  1  0.34426400  0.96720900  0.34426400  1
  Ga  Ga14  1  0.96720900  0.34426400  0.34426400  1
  Ga  Ga15  1  0.34426400  0.34426400  0.34426400  1
  Ir  Ir0  1  0.00000000  0.00000000  0.00000000  1
  Ir  Ir1  1  0.00000000  0.00000000  0.50000000  1
  Ir  Ir2  1  0.50000000  0.00000000  0.50000000  1
  Ir  Ir3  1  0.00000000  0.50000000  0.50000000  1
  Ir  Ir4  1  0.50000000  0.50000000  0.00000000  1
  Ir  Ir5  1  0.00000000  0.50000000  0.00000000  1
  Ir  Ir6  1  0.50000000  0.00000000  0.00000000  1
loop_
_geom_bond_atom_site_label_1
_geom_bond_atom_site_label_2
_geom_bond_distance
_geom_bond_site_symmetry_2
Zr0 Zr2 3.444078 1_555
Zr0 Zr1 3.444078 1_555
Zr0 Zr4 3.444078 1_555
Zr0 Zr5 3.444078 1_555
Zr1 Zr2 3.444078 1_555
Zr1 Zr5 3.444078 1_555
Zr1 Zr3 3.444078 1_555
Zr2 Zr3 3.444078 1_555
Zr2 Zr4 3.444078 1_555
Zr3 Zr4 3.444078 1_555
Zr3 Zr5 3.444078 1_555
Zr4 Zr5 3.444078 1_555
Ga0 Ir0 2.629945 1_665
Ga0 Ir2 2.720728 1_565
Ga0 Ir3 2.720728 1_655
Ga0 Ir1 2.720735 1_665
Ga0 Ga11 2.834340 1_555
Ga0 Ga10 2.834340 1_655
Ga0 Ga9 2.834340 1_565
Ga0 Ga5 3.036794 1_655
Ga0 Ga6 3.036794 1_565
Ga0 Ga7 3.036807 1_665
Ga0 Zr0 3.128962 1_555
Ga0 Zr1 3.128970 1_655
Ga0 Zr2 3.128970 1_565
Ga1 Ir0 2.629945 1_656
Ga1 Ir3 2.720728 1_655
Ga1 Ir4 2.720728 1_556
Ga1 Ir5 2.720735 1_656
Ga1 Ga11 2.834340 1_555
Ga1 Ga10 2.834340 1_655
Ga1 Ga8 2.834340 1_556
Ga1 Ga4 3.036794 1_655
Ga1 Ga6 3.036794 1_556
Ga1 Ga7 3.036807 1_656
Ga1 Zr4 3.128962 1_555
Ga1 Zr2 3.128970 1_556
Ga1 Zr3 3.128970 1_655
Ga2 Ir0 2.629945 1_566
Ga2 Ir4 2.720728 1_556
Ga2 Ir2 2.720728 1_565
Ga2 Ir6 2.720735 1_566
Ga2 Ga9 2.834340 1_565
Ga2 Ga8 2.834340 1_556
Ga2 Ga4 3.036794 1_565
Ga2 Ga5 3.036794 1_556
Ga2 Ga7 3.036807 1_566
Ga2 Zr5 3.128962 1_555
Ga2 Zr1 3.128970 1_556
Ga2 Zr3 3.128970 1_565
Ga3 Ir0 2.629952 1_666
Ga3 Ir6 2.720728 1_566
Ga3 Ir1 2.720728 1_665
Ga3 Ir5 2.720728 1_656
Ga3 Ga9 2.834340 1_565
Ga3 Ga8 2.834340 1_556
Ga3 Ga6 3.036807 1_566
Ga3 Ga4 3.036807 1_665
Ga3 Ga5 3.036807 1_656
Ga3 Zr4 3.128968 1_565
Ga3 Zr5 3.128968 1_655
Ga3 Zr0 3.128968 1_556
Ga4 Ir0 2.629945 1_556
Ga4 Ir3 2.720728 1_555
Ga4 Ir2 2.720728 1_555
Ga4 Ir1 2.720735 1_555
Ga4 Zr3 3.128962 1_555
Ga4 Zr4 3.128970 1_455
Ga4 Zr5 3.128970 1_545
Ga5 Ir0 2.629945 1_565
Ga5 Ir3 2.720728 1_555
Ga5 Ir4 2.720728 1_555
Ga5 Ir5 2.720735 1_555
Ga5 Zr1 3.128962 1_555
Ga5 Zr0 3.128970 1_455
Ga5 Zr5 3.128970 1_554
Ga6 Ir0 2.629945 1_655
Ga6 Ir2 2.720728 1_555
Ga6 Ir4 2.720728 1_555
Ga6 Ir6 2.720735 1_555
Ga6 Zr2 3.128962 1_555
Ga6 Zr0 3.128970 1_545
Ga6 Zr4 3.128970 1_554
Ga7 Ir0 2.629952 1_555
Ga7 Ir1 2.720728 1_555
Ga7 Ir5 2.720728 1_555
Ga7 Ir6 2.720728 1_555
Ga7 Zr3 3.128968 1_554
Ga7 Zr1 3.128968 1_545
Ga7 Zr2 3.128968 1_455
Ga8 Ir4 2.554114 1_555
Ga8 Ir6 2.554121 1_565
Ga8 Ir5 2.554121 1_655
Ga8 Zr2 2.788335 1_555
Ga8 Zr1 2.788335 1_555
Ga8 Zr0 2.788340 1_555
Ga9 Ir2 2.554114 1_555
Ga9 Ir6 2.554121 1_556
Ga9 Ir1 2.554121 1_655
Ga9 Zr2 2.788335 1_555
Ga9 Zr3 2.788335 1_555
Ga9 Zr4 2.788340 1_555
Ga10 Ir3 2.554114 1_555
Ga10 Ir1 2.554121 1_565
Ga10 Ir5 2.554121 1_556
Ga10 Zr1 2.788335 1_555
Ga10 Zr3 2.788335 1_555
Ga10 Zr5 2.788340 1_555
Ga10 Ga3 2.834340 1_455
Ga11 Ir2 2.554120 1_565
Ga11 Ir3 2.554120 1_655
Ga11 Ir4 2.554120 1_556
Ga11 Zr0 2.788332 1_555
Ga11 Zr4 2.788332 1_555
Ga11 Zr5 2.788332 1_555
Ga11 Ga2 2.834340 1_555
Ga12 Ir4 2.554114 1_556
Ga12 Ir5 2.554121 1_556
Ga12 Ir6 2.554121 1_556
Ga12 Zr4 2.788335 1_555
Ga12 Zr5 2.788335 1_555
Ga12 Zr3 2.788340 1_555
Ga12 Ga7 2.834340 1_556
Ga12 Ga6 2.834340 1_556
Ga12 Ga5 2.834340 1_556
Ga13 Ir2 2.554114 1_565
Ga13 Ir6 2.554121 1_565
Ga13 Ir1 2.554121 1_565
Ga13 Zr5 2.788335 1_555
Ga13 Zr0 2.788335 1_555
Ga13 Zr1 2.788340 1_555
Ga13 Ga7 2.834340 1_565
Ga13 Ga6 2.834340 1_565
Ga13 Ga4 2.834340 1_565
Ga14 Ir3 2.554114 1_655
Ga14 Ir5 2.554121 1_655
Ga14 Ir1 2.554121 1_655
Ga14 Zr4 2.788335 1_555
Ga14 Zr0 2.788335 1_555
Ga14 Zr2 2.788340 1_555
Ga14 Ga7 2.834340 1_655
Ga14 Ga4 2.834340 1_655
Ga14 Ga5 2.834340 1_655
Ga15 Ir4 2.554120 1_555
Ga15 Ir3 2.554120 1_555
Ga15 Ir2 2.554120 1_555
Ga15 Zr3 2.788332 1_555
Ga15 Zr1 2.788332 1_555
Ga15 Zr2 2.788332 1_555
Ga15 Ga5 2.834340 1_555
Ga15 Ga6 2.834340 1_555
Ga15 Ga4 2.834340 1_555
Ir1 Zr5 3.188021 1_545
Ir1 Zr4 3.188021 1_455
Ir1 Zr2 3.188021 1_455
Ir1 Zr1 3.188021 1_545
Ir2 Zr3 3.188021 1_555
Ir2 Zr2 3.188021 1_555
Ir2 Zr0 3.188021 1_545
Ir2 Zr5 3.188021 1_545
Ir3 Zr3 3.188021 1_555
Ir3 Zr1 3.188021 1_555
Ir3 Zr0 3.188021 1_455
Ir3 Zr4 3.188021 1_455
Ir4 Zr1 3.188021 1_555
Ir4 Zr2 3.188021 1_555
Ir4 Zr5 3.188021 1_554
Ir4 Zr4 3.188021 1_554
Ir5 Zr5 3.188021 1_554
Ir5 Zr0 3.188021 1_455
Ir5 Zr3 3.188021 1_554
Ir5 Zr2 3.188021 1_455
Ir6 Zr4 3.188021 1_554
Ir6 Zr0 3.188021 1_545
Ir6 Zr3 3.188021 1_554
Ir6 Zr1 3.188021 1_545
