# generated using pymatgen
data_BaV4ZnO8
_symmetry_space_group_name_H-M   'P 1'
_cell_length_a   5.49038398
_cell_length_b   5.49038398
_cell_length_c   7.41580000
_cell_angle_alpha   90.00000000
_cell_angle_beta   90.00000000
_cell_angle_gamma   119.99999979
_symmetry_Int_Tables_number   1
_chemical_formula_structural   BaV4ZnO8
_chemical_formula_sum   'Ba1 V4 Zn1 O8'
_cell_volume   193.59497434
_cell_formula_units_Z   1
loop_
 _symmetry_equiv_pos_site_id
 _symmetry_equiv_pos_as_xyz
  1  'x, y, z'
loop_
 _atom_site_type_symbol
 _atom_site_label
 _atom_site_symmetry_multiplicity
 _atom_site_fract_x
 _atom_site_fract_y
 _atom_site_fract_z
 _atom_site_occupancy
  Ba  Ba0  1  0.00000000  0.00000000  0.00000000  1
  V  V0  1  0.33333300  0.66666700  0.74396600  1
  V  V1  1  0.66666700  0.33333300  0.74396600  1
  V  V2  1  0.33333300  0.66666700  0.25603400  1
  V  V3  1  0.66666700  0.33333300  0.25603400  1
  Zn  Zn0  1  0.00000000  0.00000000  0.50000000  1
  O  O0  1  0.31677300  0.31677300  0.67765900  1
  O  O1  1  0.68322700  0.00000000  0.67765900  1
  O  O2  1  0.00000000  0.68322700  0.67765900  1
  O  O3  1  0.68322700  0.68322700  0.32234100  1
  O  O4  1  0.00000000  0.31677300  0.32234100  1
  O  O5  1  0.31677300  0.00000000  0.32234100  1
  O  O6  1  0.33333300  0.66666700  0.00000000  1
  O  O7  1  0.66666700  0.33333300  0.00000000  1
loop_
_geom_bond_atom_site_label_1
_geom_bond_atom_site_label_2
_geom_bond_distance
_geom_bond_site_symmetry_2
Ba0 O1 2.956167 1_454
Ba0 O2 2.956167 1_544
Ba0 O4 2.956167 1_555
Ba0 O5 2.956167 1_555
Ba0 O0 2.956167 1_554
Ba0 O3 2.956167 1_445
Ba0 O6 3.169871 1_545
Ba0 O7 3.169871 1_455
Ba0 O6 3.169876 1_445
Ba0 O7 3.169876 1_555
Ba0 O7 3.169876 1_445
Ba0 O6 3.169876 1_555
O0 V0 1.940576 1_555
O0 V1 1.940576 1_555
O0 Zn0 2.181880 1_555
O1 V1 1.940570 1_555
O1 V0 1.940573 1_545
O1 Zn0 2.181880 1_655
O2 V0 1.940570 1_555
O2 V1 1.940573 1_455
O2 Zn0 2.181880 1_565
O3 V2 1.940576 1_555
O3 V3 1.940576 1_555
O3 Zn0 2.181880 1_665
O4 V3 1.940570 1_455
O4 V2 1.940573 1_555
O4 Zn0 2.181880 1_555
O5 V2 1.940570 1_545
O5 V3 1.940573 1_555
O5 Zn0 2.181880 1_555
O6 V0 1.898697 1_554
O6 V2 1.898697 1_555
O7 V1 1.898697 1_554
O7 V3 1.898697 1_555
