# generated using pymatgen
data_SrInAu5
_symmetry_space_group_name_H-M   'P 1'
_cell_length_a   5.83503566
_cell_length_b   5.83503566
_cell_length_c   5.83503566
_cell_angle_alpha   102.81777529
_cell_angle_beta   102.81777529
_cell_angle_gamma   123.80016239
_symmetry_Int_Tables_number   1
_chemical_formula_structural   SrInAu5
_chemical_formula_sum   'Sr1 In1 Au5'
_cell_volume   145.63105809
_cell_formula_units_Z   1
loop_
 _symmetry_equiv_pos_site_id
 _symmetry_equiv_pos_as_xyz
  1  'x, y, z'
loop_
 _atom_site_type_symbol
 _atom_site_label
 _atom_site_symmetry_multiplicity
 _atom_site_fract_x
 _atom_site_fract_y
 _atom_site_fract_z
 _atom_site_occupancy
  Sr  Sr0  1  -0.00000000  -0.00000000  -0.00000000  1
  In  In0  1  0.75000000  0.25000000  0.50000000  1
  Au  Au0  1  0.30640441  0.69359559  0.00000000  1
  Au  Au1  1  0.69359559  0.30640441  0.00000000  1
  Au  Au2  1  0.69359559  0.69359559  0.38719017  1
  Au  Au3  1  0.30640441  0.30640441  0.61280983  1
  Au  Au4  1  0.25000000  0.75000000  0.50000000  1
loop_
_geom_bond_atom_site_label_1
_geom_bond_atom_site_label_2
_geom_bond_distance
_geom_bond_site_symmetry_2
Au0 Au2 2.818479 1_555
Au0 Au3 2.818479 1_554
Au0 Au4 2.974739 1_554
Au0 In0 2.974739 1_454
Au0 In0 2.974739 1_565
Au0 Au4 2.974739 1_555
Au0 Au1 2.983646 1_565
Au0 Au1 2.983646 1_455
Au0 Sr0 3.154278 1_565
Au0 Sr0 3.394912 1_665
Au0 Sr0 3.394912 1_555
Au1 Au2 2.818479 1_555
Au1 Au3 2.818479 1_554
Au1 In0 2.974739 1_554
Au1 Au4 2.974739 1_655
Au1 In0 2.974739 1_555
Au1 Au4 2.974739 1_544
Au1 Sr0 3.154278 1_655
Au1 Sr0 3.394912 1_665
Au1 Sr0 3.394912 1_555
Au2 Au4 2.974738 1_655
Au2 In0 2.974738 1_565
Au2 In0 2.974741 1_555
Au2 Au4 2.974741 1_555
Au2 Au3 2.983645 1_665
Au2 Au3 2.983655 1_555
Au2 Sr0 3.154283 1_666
Au2 Sr0 3.394906 1_665
Au2 Sr0 3.394911 1_555
Au3 In0 2.974738 1_455
Au3 Au4 2.974738 1_545
Au3 In0 2.974741 1_555
Au3 Au4 2.974741 1_555
Au3 Sr0 3.154283 1_555
Au3 Sr0 3.394906 1_556
Au3 Sr0 3.394911 1_666
Au4 In0 2.748364 1_455
Au4 In0 2.748364 1_565
