# generated using pymatgen
data_Ti2Tl3P5S18
_symmetry_space_group_name_H-M   'P 1'
_cell_length_a   12.03269497
_cell_length_b   12.03269497
_cell_length_c   20.92051466
_cell_angle_alpha   73.86011239
_cell_angle_beta   73.86011239
_cell_angle_gamma   30.94579784
_symmetry_Int_Tables_number   1
_chemical_formula_structural   Ti2Tl3P5S18
_chemical_formula_sum   'Ti4 Tl6 P10 S36'
_cell_volume   1491.39005993
_cell_formula_units_Z   2
loop_
 _symmetry_equiv_pos_site_id
 _symmetry_equiv_pos_as_xyz
  1  'x, y, z'
loop_
 _atom_site_type_symbol
 _atom_site_label
 _atom_site_symmetry_multiplicity
 _atom_site_fract_x
 _atom_site_fract_y
 _atom_site_fract_z
 _atom_site_occupancy
  Ti  Ti0  1  0.62339900  0.14116800  0.37081600  1
  Ti  Ti1  1  0.85895300  0.37638400  0.12890800  1
  Ti  Ti2  1  0.37638400  0.85895300  0.62890800  1
  Ti  Ti3  1  0.14116800  0.62339900  0.87081600  1
  Tl  Tl0  1  0.03151900  0.28591700  0.32278400  1
  Tl  Tl1  1  0.71714700  0.96795800  0.17602700  1
  Tl  Tl2  1  0.96795800  0.71714700  0.67602700  1
  Tl  Tl3  1  0.28591700  0.03151900  0.82278400  1
  Tl  Tl4  1  0.94421600  0.06482800  0.49545100  1
  Tl  Tl5  1  0.06482800  0.94421600  0.99545100  1
  P  P0  1  0.74873800  0.25167900  0.25001600  1
  P  P1  1  0.25167900  0.74873800  0.75001600  1
  P  P2  1  0.45682400  0.29780800  0.51474500  1
  P  P3  1  0.69921100  0.54504400  0.98537800  1
  P  P4  1  0.54504400  0.69921100  0.48537800  1
  P  P5  1  0.29780800  0.45682400  0.01474500  1
  P  P6  1  0.65749400  0.85702600  0.35812700  1
  P  P7  1  0.14197900  0.34321300  0.14210700  1
  P  P8  1  0.34321300  0.14197900  0.64210700  1
  P  P9  1  0.85702600  0.65749400  0.85812700  1
  S  S0  1  0.90642000  0.05322900  0.33510400  1
  S  S1  1  0.94517300  0.09541000  0.16471500  1
  S  S2  1  0.09541000  0.94517300  0.66471500  1
  S  S3  1  0.05322900  0.90642000  0.83510400  1
  S  S4  1  0.61784900  0.81002800  0.28938400  1
  S  S5  1  0.18979100  0.38187300  0.21095300  1
  S  S6  1  0.38187300  0.18979100  0.71095300  1
  S  S7  1  0.81002800  0.61784900  0.78938400  1
  S  S8  1  0.48085200  0.37593400  0.57474700  1
  S  S9  1  0.61439900  0.52652500  0.92645800  1
  S  S10  1  0.52652500  0.61439900  0.42645800  1
  S  S11  1  0.37593400  0.48085200  0.07474700  1
  S  S12  1  0.39046100  0.17297400  0.38216400  1
  S  S13  1  0.82653500  0.61034500  0.11803900  1
  S  S14  1  0.61034500  0.82653500  0.61803900  1
  S  S15  1  0.17297400  0.39046100  0.88216400  1
  S  S16  1  0.32831100  0.47778100  0.42428900  1
  S  S17  1  0.52064600  0.67263800  0.07599300  1
  S  S18  1  0.67263800  0.52064600  0.57599300  1
  S  S19  1  0.47778100  0.32831100  0.92428900  1
  S  S20  1  0.21661300  0.10642400  0.16332800  1
  S  S21  1  0.89377300  0.78316300  0.33654200  1
  S  S22  1  0.78316300  0.89377300  0.83654200  1
  S  S23  1  0.10642400  0.21661300  0.66332800  1
  S  S24  1  0.74919800  0.98671700  0.48492700  1
  S  S25  1  0.01169100  0.25586000  0.01463900  1
  S  S26  1  0.25586000  0.01169100  0.51463900  1
  S  S27  1  0.98671700  0.74919800  0.98492700  1
  S  S28  1  0.77234000  0.64816000  0.44722200  1
  S  S29  1  0.35194000  0.22799400  0.05303200  1
  S  S30  1  0.22799400  0.35194000  0.55303200  1
  S  S31  1  0.64816000  0.77234000  0.94722200  1
  S  S32  1  0.64684300  0.50556300  0.23752400  1
  S  S33  1  0.49507400  0.35297000  0.26257800  1
  S  S34  1  0.35297000  0.49507400  0.76257800  1
  S  S35  1  0.50556300  0.64684300  0.73752400  1
loop_
_geom_bond_atom_site_label_1
_geom_bond_atom_site_label_2
_geom_bond_distance
_geom_bond_site_symmetry_2
P0 S1 2.050355 1_555
P0 S32 2.052692 1_555
P0 S0 2.052728 1_555
P0 S33 2.054709 1_555
P1 S2 2.050355 1_555
P1 S35 2.052692 1_555
P1 S3 2.052728 1_555
P1 S34 2.054709 1_555
P2 S8 1.966488 1_555
P2 S16 2.065533 1_555
P2 S24 2.065688 1_545
P2 S30 2.152865 1_555
P3 S9 1.962816 1_555
P3 S17 2.064609 1_556
P3 S25 2.067235 1_656
P3 S31 2.161413 1_555
P4 S10 1.962816 1_555
P4 S18 2.064609 1_555
P4 S26 2.067235 1_565
P4 S28 2.161413 1_555
P5 S11 1.966488 1_555
P5 S19 2.065533 1_554
P5 S27 2.065688 1_454
P5 S29 2.152865 1_555
P6 S4 1.977859 1_555
P6 S12 2.059482 1_565
P6 S21 2.062023 1_555
P6 S28 2.137858 1_555
P7 S5 1.978398 1_555
P7 S13 2.056101 1_455
P7 S20 2.061791 1_555
P7 S29 2.142028 1_555
P8 S6 1.978398 1_555
P8 S14 2.056101 1_545
P8 S23 2.061791 1_555
P8 S30 2.142028 1_555
P9 S7 1.977859 1_555
P9 S15 2.059482 1_655
P9 S22 2.062023 1_555
P9 S31 2.137858 1_555
S0 Ti0 2.473692 1_555
S1 Ti1 2.464819 1_555
S2 Ti2 2.464819 1_555
S3 Ti3 2.473692 1_555
S4 Tl1 3.236761 1_555
S4 Tl0 3.267215 1_655
S5 Tl0 3.197868 1_555
S5 Tl1 3.292412 1_545
S6 Tl3 3.197868 1_555
S6 Tl2 3.292412 1_455
S7 Tl2 3.236761 1_555
S7 Tl3 3.267215 1_565
S8 Tl4 3.218811 1_555
S11 Tl5 3.218811 1_554
S12 Ti0 2.428886 1_555
S13 Ti1 2.436984 1_555
S14 Ti2 2.436984 1_555
S15 Ti3 2.428886 1_555
S16 Ti0 2.430268 1_555
S17 Ti1 2.433956 1_555
S18 Ti2 2.433956 1_555
S19 Ti3 2.430268 1_555
S20 Ti1 2.456514 1_455
S21 Ti0 2.456857 1_565
S22 Ti3 2.456857 1_655
S23 Ti2 2.456514 1_545
S24 Ti0 2.482172 1_565
S24 Tl4 3.259417 1_565
S25 Ti1 2.471572 1_455
S26 Ti2 2.471572 1_545
S27 Ti3 2.482172 1_655
S27 Tl5 3.259417 1_655
S32 Ti1 2.455177 1_555
S33 Ti0 2.447896 1_555
S34 Ti3 2.447896 1_555
S35 Ti2 2.455177 1_555
