# generated using pymatgen
data_Ba3Al2(Sb2O7)3
_symmetry_space_group_name_H-M   'P 1'
_cell_length_a   7.77970152
_cell_length_b   7.77970152
_cell_length_c   14.33733459
_cell_angle_alpha   80.83296045
_cell_angle_beta   80.83296045
_cell_angle_gamma   39.08333190
_symmetry_Int_Tables_number   1
_chemical_formula_structural   Ba3Al2(Sb2O7)3
_chemical_formula_sum   'Ba3 Al2 Sb6 O21'
_cell_volume   539.19874743
_cell_formula_units_Z   1
loop_
 _symmetry_equiv_pos_site_id
 _symmetry_equiv_pos_as_xyz
  1  'x, y, z'
loop_
 _atom_site_type_symbol
 _atom_site_label
 _atom_site_symmetry_multiplicity
 _atom_site_fract_x
 _atom_site_fract_y
 _atom_site_fract_z
 _atom_site_occupancy
  Ba  Ba0  1  0.58371000  0.08159400  0.84297600  1
  Ba  Ba1  1  0.91840600  0.41629000  0.15702400  1
  Ba  Ba2  1  0.46699000  0.53301000  0.50000000  1
  Al  Al0  1  0.68826400  0.87164700  0.33809800  1
  Al  Al1  1  0.12835300  0.31173600  0.66190200  1
  Sb  Sb0  1  0.91734900  0.28216200  0.90685100  1
  Sb  Sb1  1  0.20142600  0.63238600  0.23085900  1
  Sb  Sb2  1  0.71701900  0.87724700  0.57901200  1
  Sb  Sb3  1  0.36761400  0.79857400  0.76914100  1
  Sb  Sb4  1  0.71783800  0.08265100  0.09314900  1
  Sb  Sb5  1  0.12275300  0.28298100  0.42098800  1
  O  O0  1  0.51326500  0.46966900  0.75065000  1
  O  O1  1  0.81851000  0.82440100  0.20921500  1
  O  O2  1  0.11493000  0.04733900  0.45232000  1
  O  O3  1  0.74214700  0.88879400  0.01696100  1
  O  O4  1  0.34114600  0.16292900  0.29978600  1
  O  O5  1  0.31611300  0.96052200  0.64075900  1
  O  O6  1  0.04074200  0.96941900  0.85698200  1
  O  O7  1  0.32892800  0.39199800  0.13415700  1
  O  O8  1  0.77282900  0.58093600  0.36188400  1
  O  O9  1  0.60800200  0.67107200  0.86584300  1
  O  O10  1  0.03058100  0.95925800  0.14301800  1
  O  O11  1  0.41906400  0.22717100  0.63811600  1
  O  O12  1  0.83707100  0.65885400  0.70021400  1
  O  O13  1  0.11120600  0.25785300  0.98303900  1
  O  O14  1  0.03947800  0.68388700  0.35924100  1
  O  O15  1  0.96105200  0.47613000  0.54365400  1
  O  O16  1  0.65942700  0.34057300  0.00000000  1
  O  O17  1  0.52387000  0.03894800  0.45634600  1
  O  O18  1  0.17559900  0.18149000  0.79078500  1
  O  O19  1  0.53033100  0.48673500  0.24935000  1
  O  O20  1  0.95266100  0.88507000  0.54768000  1
loop_
_geom_bond_atom_site_label_1
_geom_bond_atom_site_label_2
_geom_bond_distance
_geom_bond_site_symmetry_2
Ba0 O3 2.628467 1_546
Ba0 O0 2.748937 1_555
Ba0 O18 2.825854 1_555
Ba0 O6 2.966231 1_645
Ba0 O9 3.015339 1_545
Ba0 O11 3.071955 1_555
Ba0 O12 3.112301 1_545
Ba0 O13 3.182051 1_555
Ba1 O13 2.628467 1_654
Ba1 O19 2.748937 1_555
Ba1 O1 2.825854 1_555
Ba1 O10 2.966231 1_645
Ba1 O7 3.015339 1_655
Ba1 O8 3.071955 1_555
Ba1 O4 3.112301 1_655
Ba1 O3 3.182051 1_555
Ba2 O2 2.586648 1_565
Ba2 O20 2.586648 1_455
Ba2 O2 3.210895 1_655
Ba2 O20 3.210895 1_545
Al0 O8 1.783246 1_555
Al0 O4 1.818012 1_565
Al0 O14 1.902091 1_655
Al0 O1 1.902093 1_555
Al0 O17 1.905769 1_565
Al1 O11 1.783246 1_555
Al1 O12 1.818012 1_455
Al1 O5 1.902091 1_545
Al1 O18 1.902093 1_555
Al1 O15 1.905769 1_455
O0 Sb3 1.876386 1_555
O1 Sb4 2.079958 1_565
O1 Sb1 2.107225 1_655
O2 Sb5 1.862342 1_555
O3 Sb4 1.876105 1_565
O4 Sb5 1.972700 1_555
O5 Sb3 1.961709 1_555
O6 Sb0 2.015458 1_465
O6 Sb3 2.021157 1_555
O7 Sb4 1.967643 1_555
O7 Sb1 1.977797 1_555
O8 Sb5 1.953155 1_655
O9 Sb0 1.967643 1_555
O9 Sb3 1.977797 1_555
O10 Sb4 2.015458 1_465
O10 Sb1 2.021157 1_555
O11 Sb2 1.953155 1_545
O12 Sb2 1.972700 1_555
O13 Sb0 1.876105 1_455
O14 Sb1 1.961709 1_555
O15 Sb5 2.033711 1_655
O15 Sb2 2.144585 1_555
O16 Sb4 1.985021 1_555
O16 Sb0 1.985021 1_554
O17 Sb2 2.033711 1_545
O17 Sb5 2.144585 1_555
O18 Sb0 2.079958 1_455
O18 Sb3 2.107225 1_545
O19 Sb1 1.876386 1_555
O20 Sb2 1.862342 1_555
