# generated using pymatgen
data_KCd6P7O24
_symmetry_space_group_name_H-M   'P 1'
_cell_length_a   27.64271500
_cell_length_b   5.59139700
_cell_length_c   6.88437662
_cell_angle_alpha   72.83594819
_cell_angle_beta   90.00000000
_cell_angle_gamma   90.00000000
_symmetry_Int_Tables_number   1
_chemical_formula_structural   KCd6P7O24
_chemical_formula_sum   'K2 Cd12 P14 O48'
_cell_volume   1016.66960791
_cell_formula_units_Z   2
loop_
 _symmetry_equiv_pos_site_id
 _symmetry_equiv_pos_as_xyz
  1  'x, y, z'
loop_
 _atom_site_type_symbol
 _atom_site_label
 _atom_site_symmetry_multiplicity
 _atom_site_fract_x
 _atom_site_fract_y
 _atom_site_fract_z
 _atom_site_occupancy
  K  K0  1  0.75000000  0.28146700  0.63325400  1
  K  K1  1  0.25000000  0.71853300  0.36674600  1
  Cd  Cd0  1  0.31755100  0.10902400  0.70577700  1
  Cd  Cd1  1  0.45679100  0.18114800  0.31229300  1
  Cd  Cd2  1  0.04320900  0.18114800  0.31229300  1
  Cd  Cd3  1  0.54320900  0.81885200  0.68770700  1
  Cd  Cd4  1  0.81755100  0.89097600  0.29422300  1
  Cd  Cd5  1  0.95679100  0.81885200  0.68770700  1
  Cd  Cd6  1  0.18244900  0.10902400  0.70577700  1
  Cd  Cd7  1  0.68244900  0.89097600  0.29422300  1
  Cd  Cd8  1  0.90147500  0.21573900  0.91969200  1
  Cd  Cd9  1  0.40147500  0.78426100  0.08030800  1
  Cd  Cd10  1  0.09852500  0.78426100  0.08030800  1
  Cd  Cd11  1  0.59852500  0.21573900  0.91969200  1
  P  P0  1  0.10846200  0.67202700  0.60780500  1
  P  P1  1  0.60846200  0.32797300  0.39219500  1
  P  P2  1  0.89153800  0.32797300  0.39219500  1
  P  P3  1  0.39153800  0.67202700  0.60780500  1
  P  P4  1  0.83034400  0.75673300  0.82327300  1
  P  P5  1  0.33034400  0.24326700  0.17672700  1
  P  P6  1  0.16965600  0.24326700  0.17672700  1
  P  P7  1  0.66965600  0.75673300  0.82327300  1
  P  P8  1  0.25000000  0.52530000  0.89683300  1
  P  P9  1  0.75000000  0.47470000  0.10316700  1
  P  P10  1  0.02510400  0.29107800  0.79025200  1
  P  P11  1  0.97489600  0.70892200  0.20974800  1
  P  P12  1  0.47489600  0.29107800  0.79025200  1
  P  P13  1  0.52510400  0.70892200  0.20974800  1
  O  O0  1  0.02092200  0.13871100  0.63804200  1
  O  O1  1  0.52092200  0.86128900  0.36195800  1
  O  O2  1  0.97907800  0.86128900  0.36195800  1
  O  O3  1  0.47907800  0.13871100  0.63804200  1
  O  O4  1  0.97673300  0.41001900  0.82430900  1
  O  O5  1  0.47673300  0.58998100  0.17569100  1
  O  O6  1  0.02326700  0.58998100  0.17569100  1
  O  O7  1  0.52326700  0.41001900  0.82430900  1
  O  O8  1  0.04864600  0.13731600  0.98937400  1
  O  O9  1  0.54864600  0.86268400  0.01062600  1
  O  O10  1  0.95135400  0.86268400  0.01062600  1
  O  O11  1  0.45135400  0.13731600  0.98937400  1
  O  O12  1  0.05789300  0.53520300  0.69308000  1
  O  O13  1  0.55789300  0.46479700  0.30692000  1
  O  O14  1  0.09541900  0.84840100  0.39662400  1
  O  O15  1  0.44210700  0.53520300  0.69308000  1
  O  O16  1  0.75000000  0.19784800  0.22089300  1
  O  O17  1  0.25000000  0.80215200  0.77910700  1
  O  O18  1  0.75000000  0.65561500  0.23086800  1
  O  O19  1  0.94210700  0.46479700  0.30692000  1
  O  O20  1  0.70433500  0.51890200  0.95555600  1
  O  O21  1  0.20433500  0.48109800  0.04444400  1
  O  O22  1  0.29566500  0.48109800  0.04444400  1
  O  O23  1  0.79566500  0.51890200  0.95555600  1
  O  O24  1  0.14710200  0.48598900  0.59785600  1
  O  O25  1  0.64710200  0.51401100  0.40214400  1
  O  O26  1  0.85289800  0.51401100  0.40214400  1
  O  O27  1  0.35289800  0.48598900  0.59785600  1
  O  O28  1  0.66740800  0.94289600  0.94972000  1
  O  O29  1  0.16740800  0.05710400  0.05028000  1
  O  O30  1  0.33259200  0.05710400  0.05028000  1
  O  O31  1  0.83259200  0.94289600  0.94972000  1
  O  O32  1  0.62211800  0.62321400  0.81004500  1
  O  O33  1  0.12211800  0.37678600  0.18995500  1
  O  O34  1  0.37788200  0.37678600  0.18995500  1
  O  O35  1  0.87788200  0.62321400  0.81004500  1
  O  O36  1  0.69610300  0.86711400  0.62334600  1
  O  O37  1  0.19610300  0.13288600  0.37665400  1
  O  O38  1  0.30389700  0.13288600  0.37665400  1
  O  O39  1  0.80389700  0.86711400  0.62334600  1
  O  O40  1  0.12068400  0.82631100  0.75481400  1
  O  O41  1  0.62068400  0.17368900  0.24518600  1
  O  O42  1  0.87931600  0.17368900  0.24518600  1
  O  O43  1  0.37931600  0.82631100  0.75481400  1
  O  O44  1  0.40458100  0.84840100  0.39662400  1
  O  O45  1  0.90458100  0.15159900  0.60337600  1
  O  O46  1  0.59541900  0.15159900  0.60337600  1
  O  O47  1  0.25000000  0.34438500  0.76913200  1
loop_
_geom_bond_atom_site_label_1
_geom_bond_atom_site_label_2
_geom_bond_distance
_geom_bond_site_symmetry_2
K0 O39 2.772224 1_545
K0 O36 2.772224 1_545
K0 O18 2.937675 1_555
K0 O16 3.010158 1_555
K0 O23 3.165095 1_555
K0 O20 3.165095 1_555
K0 O26 3.330399 1_555
K0 O25 3.330399 1_555
K0 O31 3.332938 1_545
K0 O28 3.332938 1_545
K1 O38 2.772224 1_565
K1 O37 2.772224 1_565
K1 O47 2.937675 1_555
K1 O17 3.010158 1_555
K1 O22 3.165095 1_555
K1 O21 3.165095 1_555
K1 O27 3.330399 1_555
K1 O24 3.330399 1_555
K1 O29 3.332938 1_565
K1 O30 3.332938 1_565
Cd0 O27 2.241668 1_555
Cd0 O38 2.261794 1_555
Cd0 O43 2.283168 1_545
Cd0 O30 2.340017 1_556
Cd0 O47 2.397424 1_555
Cd0 O17 2.484855 1_545
Cd1 O5 2.268260 1_555
Cd1 O3 2.269568 1_555
Cd1 O44 2.289971 1_545
Cd1 O11 2.312225 1_554
Cd1 O1 2.469258 1_545
Cd1 O34 2.473875 1_555
Cd2 O6 2.268260 1_555
Cd2 O0 2.269568 1_555
Cd2 O14 2.289971 1_545
Cd2 O8 2.312225 1_554
Cd2 O2 2.469258 1_445
Cd2 O33 2.473875 1_555
Cd3 O7 2.268260 1_555
Cd3 O1 2.269568 1_555
Cd3 O46 2.289971 1_565
Cd3 O9 2.312225 1_556
Cd3 O3 2.469258 1_565
Cd3 O32 2.473875 1_555
Cd4 O26 2.241668 1_555
Cd4 O39 2.261794 1_555
Cd4 O42 2.283168 1_565
Cd4 O31 2.340017 1_554
Cd4 O18 2.397424 1_555
Cd4 O16 2.484855 1_565
Cd5 O4 2.268260 1_555
Cd5 O2 2.269568 1_555
Cd5 O45 2.289971 1_565
Cd5 O10 2.312225 1_556
Cd5 O0 2.469258 1_665
Cd5 O35 2.473875 1_555
Cd6 O24 2.241668 1_555
Cd6 O37 2.261794 1_555
Cd6 O40 2.283168 1_545
Cd6 O29 2.340017 1_556
Cd6 O47 2.397424 1_555
Cd6 O17 2.484855 1_545
Cd7 O25 2.241668 1_555
Cd7 O36 2.261794 1_555
Cd7 O41 2.283168 1_565
Cd7 O28 2.340017 1_554
Cd7 O18 2.397424 1_555
Cd7 O16 2.484855 1_565
Cd8 O42 2.267335 1_556
Cd8 O35 2.273975 1_555
Cd8 O45 2.310636 1_555
Cd8 O10 2.336777 1_546
Cd8 O4 2.349046 1_555
Cd8 O31 2.410315 1_545
Cd9 O43 2.267335 1_554
Cd9 O34 2.273975 1_555
Cd9 O44 2.310636 1_555
Cd9 O11 2.336777 1_564
Cd9 O5 2.349046 1_555
Cd9 O30 2.410315 1_565
Cd10 O40 2.267335 1_554
Cd10 O33 2.273975 1_555
Cd10 O14 2.310636 1_555
Cd10 O8 2.336777 1_564
Cd10 O6 2.349046 1_555
Cd10 O29 2.410315 1_565
Cd11 O41 2.267335 1_556
Cd11 O32 2.273975 1_555
Cd11 O46 2.310636 1_555
Cd11 O9 2.336777 1_546
Cd11 O7 2.349046 1_555
Cd11 O28 2.410315 1_545
O0 P10 1.537566 1_555
O1 P13 1.537566 1_555
O2 P11 1.537566 1_555
O3 P12 1.537566 1_555
O4 P10 1.541798 1_655
O5 P13 1.541798 1_555
O6 P11 1.541798 1_455
O7 P12 1.541798 1_555
O8 P10 1.531739 1_555
O9 P13 1.531739 1_555
O10 P11 1.531739 1_555
O11 P12 1.531739 1_555
O12 P10 1.610376 1_555
O12 P0 1.618292 1_555
O13 P13 1.610376 1_555
O13 P1 1.618292 1_555
O14 P0 1.539477 1_555
O15 P12 1.610376 1_555
O15 P3 1.618292 1_555
O16 P9 1.520739 1_555
O17 P8 1.520739 1_555
O18 P9 1.523498 1_555
O19 P11 1.610376 1_555
O19 P2 1.618292 1_555
O20 P9 1.593406 1_556
O20 P7 1.673893 1_555
O21 P8 1.593406 1_554
O21 P6 1.673893 1_555
O22 P8 1.593406 1_554
O22 P5 1.673893 1_555
O23 P9 1.593406 1_556
O23 P4 1.673893 1_555
O24 P0 1.506537 1_555
O25 P1 1.506537 1_555
O26 P2 1.506537 1_555
O27 P3 1.506537 1_555
O28 P7 1.542709 1_555
O29 P6 1.542709 1_555
O30 P5 1.542709 1_555
O31 P4 1.542709 1_555
O32 P7 1.527276 1_555
O33 P6 1.527276 1_555
O34 P5 1.527276 1_555
O35 P4 1.527276 1_555
O36 P7 1.519343 1_555
O37 P6 1.519343 1_555
O38 P5 1.519343 1_555
O39 P4 1.519343 1_555
O40 P0 1.548518 1_555
O41 P1 1.548518 1_555
O42 P2 1.548518 1_555
O43 P3 1.548518 1_555
O44 P3 1.539477 1_555
O45 P2 1.539477 1_555
O46 P1 1.539477 1_555
O47 P8 1.523498 1_555
