# generated using pymatgen
data_Na2V16Mo2O45
_symmetry_space_group_name_H-M   'P 1'
_cell_length_a   9.69697100
_cell_length_b   9.69706751
_cell_length_c   10.92338421
_cell_angle_alpha   75.89388534
_cell_angle_beta   64.00558166
_cell_angle_gamma   69.85074188
_symmetry_Int_Tables_number   1
_chemical_formula_structural   Na2V16Mo2O45
_chemical_formula_sum   'Na2 V16 Mo2 O45'
_cell_volume   861.48514278
_cell_formula_units_Z   1
loop_
 _symmetry_equiv_pos_site_id
 _symmetry_equiv_pos_as_xyz
  1  'x, y, z'
loop_
 _atom_site_type_symbol
 _atom_site_label
 _atom_site_symmetry_multiplicity
 _atom_site_fract_x
 _atom_site_fract_y
 _atom_site_fract_z
 _atom_site_occupancy
  Na  Na0  1  0.25994900  0.12490300  0.60738600  1
  Na  Na1  1  0.07572000  0.53655600  0.39656800  1
  V  V0  1  0.32179600  0.51794800  0.58920700  1
  V  V1  1  0.65403700  0.18490700  0.58712400  1
  V  V2  1  0.98959900  0.85100100  0.58627000  1
  V  V3  1  0.68129000  0.48456000  0.41130600  1
  V  V4  1  0.01301900  0.15035800  0.41180200  1
  V  V5  1  0.34873800  0.81749500  0.40859200  1
  V  V6  1  0.06826500  0.36773300  0.89735300  1
  V  V7  1  0.40116600  0.03156600  0.89847400  1
  V  V8  1  0.73581000  0.70514000  0.89439000  1
  V  V9  1  0.93591400  0.63238000  0.09873400  1
  V  V10  1  0.26761200  0.30199400  0.10098700  1
  V  V11  1  0.59788800  0.96817900  0.10145000  1
  V  V12  1  0.95859200  0.91765300  0.87628200  1
  V  V13  1  0.62358100  0.24703300  0.87607600  1
  V  V14  1  0.29264300  0.58696200  0.88270500  1
  V  V15  1  0.37177800  0.74051900  0.11138100  1
  Mo  Mo0  1  0.04344300  0.07422800  0.11154100  1
  Mo  Mo1  1  0.70077700  0.41223500  0.11218600  1
  O  O0  1  0.40417000  0.65226700  0.73538800  1
  O  O1  1  0.74087700  0.31482100  0.73354500  1
  O  O2  1  0.07309700  0.98123200  0.72465100  1
  O  O3  1  0.58869400  0.35197000  0.27617400  1
  O  O4  1  0.92650400  0.01537000  0.27471500  1
  O  O5  1  0.26215600  0.68385100  0.26743800  1
  O  O6  1  0.78636900  0.80078600  0.04786700  1
  O  O7  1  0.10463800  0.46622500  0.04835600  1
  O  O8  1  0.44905000  0.12193400  0.05118200  1
  O  O9  1  0.21234300  0.20033300  0.96568600  1
  O  O10  1  0.55915200  0.86352700  0.95003100  1
  O  O11  1  0.87545900  0.53984000  0.95499000  1
  O  O12  1  0.25218400  0.43002200  0.53021000  1
  O  O13  1  0.57801600  0.10178900  0.53241900  1
  O  O14  1  0.92705600  0.75759600  0.52759800  1
  O  O15  1  0.75651000  0.56689600  0.46773600  1
  O  O16  1  0.08157200  0.23812800  0.47189000  1
  O  O17  1  0.40932000  0.90984100  0.46989800  1
  O  O18  1  0.33406900  0.66378200  0.00369500  1
  O  O19  1  0.65786500  0.33168000  0.00550100  1
  O  O20  1  0.99814200  0.99917900  0.00303500  1
  O  O21  1  0.47428300  0.61713500  0.42908100  1
  O  O22  1  0.80563300  0.28221800  0.42770100  1
  O  O23  1  0.13972300  0.94767300  0.42725500  1
  O  O24  1  0.52956600  0.38760600  0.57046300  1
  O  O25  1  0.86059400  0.04977500  0.57026200  1
  O  O26  1  0.19609300  0.71883900  0.56952500  1
  O  O27  1  0.41787900  0.39175500  0.92395600  1
  O  O28  1  0.74574300  0.06450800  0.92486700  1
  O  O29  1  0.08900300  0.72100200  0.92672700  1
  O  O30  1  0.58190500  0.61271100  0.07709700  1
  O  O31  1  0.91365200  0.27812000  0.07800500  1
  O  O32  1  0.25413000  0.93646100  0.07795700  1
  O  O33  1  0.05927700  0.30084700  0.77793000  1
  O  O34  1  0.37286700  0.98615200  0.77833000  1
  O  O35  1  0.71449800  0.64194800  0.78273700  1
  O  O36  1  0.95870100  0.68224600  0.21843900  1
  O  O37  1  0.27346200  0.36855700  0.22243000  1
  O  O38  1  0.61806300  0.02746900  0.21617500  1
  O  O39  1  0.22745600  0.48346300  0.77372400  1
  O  O40  1  0.55753400  0.15201300  0.77458000  1
  O  O41  1  0.88881900  0.81219800  0.77527700  1
  O  O42  1  0.77775000  0.52252700  0.22327100  1
  O  O43  1  0.10864500  0.18444200  0.22966600  1
  O  O44  1  0.44920000  0.85258200  0.22272200  1
loop_
_geom_bond_atom_site_label_1
_geom_bond_atom_site_label_2
_geom_bond_distance
_geom_bond_site_symmetry_2
Na0 O2 2.387364 1_545
Na0 O34 2.459400 1_545
Na0 O17 2.498296 1_545
Na0 O33 2.500468 1_555
Na0 O16 2.555710 1_555
Na0 O13 2.762771 1_555
Na0 O12 2.856039 1_555
Na1 O5 2.420693 1_555
Na1 O37 2.471887 1_555
Na1 O14 2.505809 1_455
Na1 O12 2.522519 1_555
Na1 O36 2.561363 1_455
Na1 O15 2.765320 1_455
Na1 O16 2.796766 1_555
Mo0 O4 1.722473 1_455
Mo0 O20 1.795692 1_445
Mo0 O32 1.948032 1_545
Mo0 O31 1.991007 1_455
Mo0 O9 2.204312 1_554
Mo0 O43 2.249395 1_555
Mo1 O3 1.718222 1_555
Mo1 O19 1.798372 1_555
Mo1 O30 1.932651 1_555
Mo1 O31 1.950243 1_555
Mo1 O42 2.269323 1_555
Mo1 O11 2.282022 1_554
O0 V14 1.615469 1_555
O1 V13 1.616717 1_555
O2 V12 1.648686 1_455
O5 V15 1.641727 1_555
O6 V9 1.926389 1_555
O6 V11 1.949202 1_555
O6 V12 2.260761 1_554
O6 V8 2.388070 1_554
O7 V9 1.844602 1_455
O7 V10 1.995118 1_555
O7 V6 2.295051 1_554
O7 V14 2.348358 1_554
O8 V11 1.849505 1_545
O8 V10 1.986895 1_555
O8 V7 2.331910 1_554
O8 V13 2.332445 1_554
O9 V6 1.976165 1_555
O9 V7 1.978078 1_555
O9 V10 2.282954 1_556
O10 V8 1.841912 1_555
O10 V7 1.976998 1_565
O10 V15 2.343460 1_556
O10 V11 2.352035 1_556
O11 V8 1.901176 1_555
O11 V6 2.001984 1_655
O11 V9 2.338903 1_556
O12 V0 1.625917 1_555
O13 V1 1.606358 1_555
O14 V2 1.612783 1_555
O15 V3 1.607695 1_555
O16 V4 1.625318 1_555
O17 V5 1.610912 1_555
O18 V15 1.749930 1_555
O18 V14 1.901154 1_554
O19 V13 1.987117 1_554
O20 V12 1.974082 1_554
O21 V5 1.924678 1_555
O21 V3 1.929251 1_555
O21 V0 2.015842 1_555
O22 V3 1.929750 1_555
O22 V4 1.933877 1_655
O22 V1 1.998677 1_555
O23 V5 1.934846 1_555
O23 V4 1.938420 1_565
O23 V2 1.986219 1_455
O24 V0 1.925826 1_555
O24 V1 1.933185 1_555
O24 V3 1.996284 1_555
O25 V2 1.917573 1_545
O25 V1 1.936229 1_555
O25 V4 2.014877 1_655
O26 V2 1.926307 1_455
O26 V0 1.927849 1_555
O26 V5 2.017782 1_555
O27 V13 1.933016 1_555
O27 V14 1.934224 1_555
O27 V10 2.050300 1_556
O28 V13 1.862580 1_555
O28 V12 1.988197 1_545
O28 V11 2.066161 1_546
O29 V14 1.877266 1_555
O29 V12 1.994117 1_455
O29 V9 2.029637 1_456
O30 V15 1.909355 1_555
O30 V8 2.110095 1_554
O31 V6 2.089339 1_654
O32 V15 1.891726 1_555
O32 V7 2.073999 1_564
O33 V6 1.637385 1_555
O34 V7 1.634696 1_565
O35 V8 1.605669 1_555
O36 V9 1.620958 1_555
O37 V10 1.639570 1_555
O38 V11 1.607140 1_545
O39 V0 1.810279 1_555
O39 V6 2.023236 1_555
O39 V14 2.122044 1_555
O40 V1 1.837920 1_555
O40 V13 2.003816 1_555
O40 V7 2.036105 1_555
O41 V2 1.861515 1_555
O41 V8 1.919025 1_555
O41 V12 2.098037 1_555
O42 V3 1.847661 1_555
O42 V9 1.981909 1_555
O43 V4 1.789089 1_555
O43 V10 2.044901 1_555
O44 V5 1.828904 1_555
O44 V11 1.950807 1_555
O44 V15 2.287000 1_555
