# generated using pymatgen
data_BaNaGaF6
_symmetry_space_group_name_H-M   'P 1'
_cell_length_a   5.50806183
_cell_length_b   9.97360450
_cell_length_c   18.85163105
_cell_angle_alpha   90.00000000
_cell_angle_beta   90.00000000
_cell_angle_gamma   90.00000000
_symmetry_Int_Tables_number   1
_chemical_formula_structural   BaNaGaF6
_chemical_formula_sum   'Ba8 Na8 Ga8 F48'
_cell_volume   1035.61869239
_cell_formula_units_Z   8
loop_
 _symmetry_equiv_pos_site_id
 _symmetry_equiv_pos_as_xyz
  1  'x, y, z'
loop_
 _atom_site_type_symbol
 _atom_site_label
 _atom_site_symmetry_multiplicity
 _atom_site_fract_x
 _atom_site_fract_y
 _atom_site_fract_z
 _atom_site_occupancy
  Ba  Ba0  1  0.76138266  0.36802525  0.10951093  1
  Ba  Ba1  1  0.23861734  0.86802525  0.89048907  1
  Ba  Ba2  1  0.73861734  0.36802525  0.60951093  1
  Ba  Ba3  1  0.26138266  0.86802525  0.39048907  1
  Ba  Ba4  1  0.26839712  0.00060811  0.13975720  1
  Ba  Ba5  1  0.73160288  0.50060811  0.86024280  1
  Ba  Ba6  1  0.23160288  0.00060811  0.63975720  1
  Ba  Ba7  1  0.76839712  0.50060811  0.36024280  1
  Na  Na0  1  0.26820011  0.63582251  0.06706684  1
  Na  Na1  1  0.73179989  0.13582251  0.93293316  1
  Na  Na2  1  0.23179989  0.63582251  0.56706684  1
  Na  Na3  1  0.76820011  0.13582251  0.43293316  1
  Na  Na4  1  0.25980276  0.23218202  0.31413715  1
  Na  Na5  1  0.74019724  0.73218202  0.68586285  1
  Na  Na6  1  0.24019724  0.23218202  0.81413715  1
  Na  Na7  1  0.75980276  0.73218202  0.18586285  1
  Ga  Ga0  1  0.27499293  0.25877714  0.49175551  1
  Ga  Ga1  1  0.72500707  0.75877714  0.50824449  1
  Ga  Ga2  1  0.22500707  0.25877714  0.99175551  1
  Ga  Ga3  1  0.77499293  0.75877714  0.00824449  1
  Ga  Ga4  1  0.24694125  0.60823594  0.24270581  1
  Ga  Ga5  1  0.75305875  0.10823594  0.75729419  1
  Ga  Ga6  1  0.25305875  0.60823594  0.74270581  1
  Ga  Ga7  1  0.74694125  0.10823594  0.25729419  1
  F  F0  1  0.02528129  0.16806831  0.05974809  1
  F  F1  1  0.97471871  0.66806831  0.94025191  1
  F  F2  1  0.47471871  0.16806831  0.55974809  1
  F  F3  1  0.52528129  0.66806831  0.44025191  1
  F  F4  1  0.35428210  0.11841658  0.42687435  1
  F  F5  1  0.64571790  0.61841658  0.57312565  1
  F  F6  1  0.14571790  0.11841658  0.92687435  1
  F  F7  1  0.85428210  0.61841658  0.07312565  1
  F  F8  1  0.49168181  0.16218346  0.03125424  1
  F  F9  1  0.50831819  0.66218346  0.96874576  1
  F  F10  1  0.00831819  0.16218346  0.53125424  1
  F  F11  1  0.99168181  0.66218346  0.46874576  1
  F  F12  1  0.45689585  0.54367069  0.17199249  1
  F  F13  1  0.54310415  0.04367069  0.82800751  1
  F  F14  1  0.04310415  0.54367069  0.67199249  1
  F  F15  1  0.95689585  0.04367069  0.32800751  1
  F  F16  1  0.53513080  0.19938095  0.19223289  1
  F  F17  1  0.46486920  0.69938095  0.80776711  1
  F  F18  1  0.96486920  0.19938095  0.69223289  1
  F  F19  1  0.03513080  0.69938095  0.30776711  1
  F  F20  1  0.30272370  0.46696496  0.30783026  1
  F  F21  1  0.69727630  0.96696496  0.69216974  1
  F  F22  1  0.19727630  0.46696496  0.80783026  1
  F  F23  1  0.80272370  0.96696496  0.19216974  1
  F  F24  1  0.07116387  0.32227860  0.41896879  1
  F  F25  1  0.92883613  0.82227860  0.58103121  1
  F  F26  1  0.42883613  0.32227860  0.91896879  1
  F  F27  1  0.57116387  0.82227860  0.08103121  1
  F  F28  1  0.00932432  0.20478609  0.21638270  1
  F  F29  1  0.99067568  0.70478609  0.78361730  1
  F  F30  1  0.49067568  0.20478609  0.71638270  1
  F  F31  1  0.50932432  0.70478609  0.28361730  1
  F  F32  1  0.56675222  0.34891836  0.46520502  1
  F  F33  1  0.43324778  0.84891836  0.53479498  1
  F  F34  1  0.93324778  0.34891836  0.96520502  1
  F  F35  1  0.06675222  0.84891836  0.03479498  1
  F  F36  1  0.17541609  0.74880314  0.17721751  1
  F  F37  1  0.82458391  0.24880314  0.82278249  1
  F  F38  1  0.32458391  0.74880314  0.67721751  1
  F  F39  1  0.67541609  0.24880314  0.32278249  1
  F  F40  1  0.28957920  0.40136804  0.05537387  1
  F  F41  1  0.71042080  0.90136804  0.94462613  1
  F  F42  1  0.21042080  0.40136804  0.55537387  1
  F  F43  1  0.78957920  0.90136804  0.44462613  1
  F  F44  1  0.45928254  0.01711283  0.28599608  1
  F  F45  1  0.54071746  0.51711283  0.71400392  1
  F  F46  1  0.04071746  0.01711283  0.78599608  1
  F  F47  1  0.95928254  0.51711283  0.21400392  1
loop_
_geom_bond_atom_site_label_1
_geom_bond_atom_site_label_2
_geom_bond_distance
_geom_bond_site_symmetry_2
Ba0 F16 2.610364 1_555
Ba0 F7 2.639858 1_555
Ba0 F0 2.640098 1_655
Ba0 F12 2.696116 1_555
Ba0 F47 2.698064 1_555
Ba0 F40 2.811675 1_555
Ba0 F34 2.886700 1_554
Ba0 F28 2.928272 1_655
Ba0 F8 2.932227 1_555
Ba0 F40 3.101034 1_655
Ba1 F17 2.610364 1_555
Ba1 F6 2.639858 1_565
Ba1 F1 2.640098 1_455
Ba1 F13 2.696116 1_565
Ba1 F46 2.698064 1_565
Ba1 F41 2.811675 1_555
Ba1 F35 2.886700 1_556
Ba1 F29 2.928272 1_455
Ba1 F9 2.932227 1_555
Ba1 F41 3.101034 1_455
Ba2 F18 2.610364 1_555
Ba2 F5 2.639858 1_555
Ba2 F2 2.640098 1_555
Ba2 F14 2.696116 1_655
Ba2 F45 2.698064 1_555
Ba2 F42 2.811675 1_655
Ba2 F32 2.886700 1_555
Ba2 F30 2.928272 1_555
Ba2 F10 2.932227 1_655
Ba2 F42 3.101034 1_555
Ba3 F19 2.610364 1_555
Ba3 F4 2.639858 1_565
Ba3 F3 2.640098 1_555
Ba3 F15 2.696116 1_465
Ba3 F44 2.698064 1_565
Ba3 F43 2.811675 1_455
Ba3 F33 2.886700 1_555
Ba3 F31 2.928272 1_555
Ba3 F11 2.932227 1_455
Ba3 F43 3.101034 1_555
Ba4 F0 2.618714 1_555
Ba4 F16 2.658451 1_555
Ba4 F36 2.658597 1_545
Ba4 F27 2.677702 1_545
Ba4 F35 2.727220 1_545
Ba4 F23 2.769091 1_445
Ba4 F28 2.875728 1_555
Ba4 F8 2.879820 1_555
Ba4 F44 2.955120 1_555
Ba4 F23 3.122614 1_545
Ba5 F1 2.618714 1_555
Ba5 F17 2.658451 1_555
Ba5 F37 2.658597 1_555
Ba5 F26 2.677702 1_555
Ba5 F34 2.727220 1_555
Ba5 F22 2.769091 1_655
Ba5 F29 2.875728 1_555
Ba5 F9 2.879820 1_555
Ba5 F45 2.955120 1_555
Ba5 F22 3.122614 1_555
Ba6 F2 2.618714 1_555
Ba6 F18 2.658451 1_455
Ba6 F38 2.658597 1_545
Ba6 F25 2.677702 1_445
Ba6 F33 2.727220 1_545
Ba6 F21 2.769091 1_545
Ba6 F30 2.875728 1_555
Ba6 F10 2.879820 1_555
Ba6 F46 2.955120 1_555
Ba6 F21 3.122614 1_445
Ba7 F3 2.618714 1_555
Ba7 F19 2.658451 1_655
Ba7 F39 2.658597 1_555
Ba7 F24 2.677702 1_655
Ba7 F32 2.727220 1_555
Ba7 F20 2.769091 1_555
Ba7 F31 2.875728 1_555
Ba7 F11 2.879820 1_555
Ba7 F47 2.955120 1_555
Ba7 F20 3.122614 1_655
F0 Ga2 1.916150 1_554
F1 Ga3 1.916150 1_556
F2 Ga0 1.916150 1_555
F3 Ga1 1.916150 1_555
F4 Ga0 1.909572 1_555
F4 Na3 2.289337 1_555
F4 Na4 2.464764 1_555
F5 Ga1 1.909572 1_555
F5 Na2 2.289337 1_555
F5 Na5 2.464764 1_555
F6 Ga2 1.909572 1_555
F6 Na1 2.289337 1_455
F6 Na6 2.464764 1_555
F7 Ga3 1.909572 1_555
F7 Na0 2.289337 1_655
F7 Na7 2.464764 1_555
F8 Ga2 1.907910 1_554
F8 Na1 2.292131 1_554
F9 Ga3 1.907910 1_556
F9 Na0 2.292131 1_556
F10 Ga0 1.907910 1_555
F10 Na3 2.292131 1_455
F11 Ga1 1.907910 1_555
F11 Na2 2.292131 1_655
F12 Ga4 1.878585 1_555
F12 Na0 2.416097 1_555
F12 Na7 2.527241 1_555
F13 Ga5 1.878585 1_555
F13 Na1 2.416097 1_555
F13 Na6 2.527241 1_555
F14 Ga6 1.878585 1_555
F14 Na2 2.416097 1_555
F14 Na5 2.527241 1_455
F15 Ga7 1.878585 1_555
F15 Na3 2.416097 1_555
F15 Na4 2.527241 1_655
F16 Ga7 1.921406 1_555
F16 Na4 2.772743 1_555
F17 Ga6 1.921406 1_555
F17 Na5 2.772743 1_555
F18 Ga5 1.921406 1_555
F18 Na6 2.772743 1_655
F19 Ga4 1.921406 1_555
F19 Na7 2.772743 1_455
F20 Ga4 1.893907 1_555
F20 Na4 2.356537 1_555
F21 Ga5 1.893907 1_565
F21 Na5 2.356537 1_555
F22 Ga6 1.893907 1_555
F22 Na6 2.356537 1_555
F23 Ga7 1.893907 1_565
F23 Na7 2.356537 1_555
F24 Ga0 1.882650 1_555
F24 Na4 2.406783 1_555
F24 Na3 2.512422 1_455
F25 Ga1 1.882650 1_555
F25 Na5 2.406783 1_555
F25 Na2 2.512422 1_655
F26 Ga2 1.882650 1_555
F26 Na6 2.406783 1_555
F26 Na1 2.512422 1_555
F27 Ga3 1.882650 1_555
F27 Na7 2.406783 1_555
F27 Na0 2.512422 1_555
F28 Ga7 1.900203 1_455
F28 Na4 2.318215 1_555
F29 Ga6 1.900203 1_655
F29 Na5 2.318215 1_555
F30 Ga5 1.900203 1_555
F30 Na6 2.318215 1_555
F31 Ga4 1.900203 1_555
F31 Na7 2.318215 1_555
F32 Ga0 1.908224 1_555
F32 Na3 2.473530 1_555
F33 Ga1 1.908224 1_555
F33 Na2 2.473530 1_555
F34 Ga2 1.908224 1_655
F34 Na1 2.473530 1_555
F35 Ga3 1.908224 1_455
F35 Na0 2.473530 1_555
F36 Ga4 1.909148 1_555
F36 Na7 2.300997 1_455
F36 Na0 2.417199 1_555
F37 Ga5 1.909148 1_555
F37 Na6 2.300997 1_655
F37 Na1 2.417199 1_555
F38 Ga6 1.909148 1_555
F38 Na5 2.300997 1_555
F38 Na2 2.417199 1_555
F39 Ga7 1.909148 1_555
F39 Na4 2.300997 1_555
F39 Na3 2.417199 1_555
F40 Ga2 1.894028 1_554
F40 Na0 2.351673 1_555
F41 Ga3 1.894028 1_556
F41 Na1 2.351673 1_565
F42 Ga0 1.894028 1_555
F42 Na2 2.351673 1_555
F43 Ga1 1.894028 1_555
F43 Na3 2.351673 1_565
F44 Ga7 1.905042 1_555
F44 Na4 2.467746 1_555
F45 Ga6 1.905042 1_555
F45 Na5 2.467746 1_555
F46 Ga5 1.905042 1_455
F46 Na6 2.467746 1_555
F47 Ga4 1.905042 1_655
F47 Na7 2.467746 1_555
