# generated using pymatgen
data_Cs3HgBr5
_symmetry_space_group_name_H-M   'P 1'
_cell_length_a   9.38626687
_cell_length_b   11.31257372
_cell_length_c   14.20887928
_cell_angle_alpha   90.00000000
_cell_angle_beta   90.00000000
_cell_angle_gamma   90.00000000
_symmetry_Int_Tables_number   1
_chemical_formula_structural   Cs3HgBr5
_chemical_formula_sum   'Cs12 Hg4 Br20'
_cell_volume   1508.73909723
_cell_formula_units_Z   4
loop_
 _symmetry_equiv_pos_site_id
 _symmetry_equiv_pos_as_xyz
  1  'x, y, z'
loop_
 _atom_site_type_symbol
 _atom_site_label
 _atom_site_symmetry_multiplicity
 _atom_site_fract_x
 _atom_site_fract_y
 _atom_site_fract_z
 _atom_site_occupancy
  Cs  Cs0  1  0.91920614  0.25000000  0.04964215  1
  Cs  Cs1  1  0.41920614  0.25000000  0.45035785  1
  Cs  Cs2  1  0.08079386  0.75000000  0.95035785  1
  Cs  Cs3  1  0.58079386  0.75000000  0.54964215  1
  Cs  Cs4  1  0.91734488  0.01931661  0.33199524  1
  Cs  Cs5  1  0.41734488  0.48068339  0.16800476  1
  Cs  Cs6  1  0.08265512  0.51931661  0.66800476  1
  Cs  Cs7  1  0.58265512  0.98068339  0.83199524  1
  Cs  Cs8  1  0.08265512  0.98068339  0.66800476  1
  Cs  Cs9  1  0.58265512  0.51931661  0.83199524  1
  Cs  Cs10  1  0.91734488  0.48068339  0.33199524  1
  Cs  Cs11  1  0.41734488  0.01931661  0.16800476  1
  Hg  Hg0  1  0.80230086  0.25000000  0.61322424  1
  Hg  Hg1  1  0.30230086  0.25000000  0.88677576  1
  Hg  Hg2  1  0.19769914  0.75000000  0.38677576  1
  Hg  Hg3  1  0.69769914  0.75000000  0.11322424  1
  Br  Br0  1  0.67116922  0.25000000  0.26169583  1
  Br  Br1  1  0.17116922  0.25000000  0.23830417  1
  Br  Br2  1  0.32883078  0.75000000  0.73830417  1
  Br  Br3  1  0.82883078  0.75000000  0.76169583  1
  Br  Br4  1  0.68675932  0.04817886  0.56496714  1
  Br  Br5  1  0.18675932  0.45182114  0.93503286  1
  Br  Br6  1  0.31324068  0.54817886  0.43503286  1
  Br  Br7  1  0.81324068  0.95182114  0.06496714  1
  Br  Br8  1  0.31324068  0.95182114  0.43503286  1
  Br  Br9  1  0.81324068  0.54817886  0.06496714  1
  Br  Br10  1  0.68675932  0.45182114  0.56496714  1
  Br  Br11  1  0.18675932  0.04817886  0.93503286  1
  Br  Br12  1  0.54173505  0.25000000  0.99103474  1
  Br  Br13  1  0.04173505  0.25000000  0.50896526  1
  Br  Br14  1  0.45826495  0.75000000  0.00896526  1
  Br  Br15  1  0.95826495  0.75000000  0.49103474  1
  Br  Br16  1  0.87655320  0.25000000  0.79164451  1
  Br  Br17  1  0.37655320  0.25000000  0.70835549  1
  Br  Br18  1  0.12344680  0.75000000  0.20835549  1
  Br  Br19  1  0.62344680  0.75000000  0.29164451  1
loop_
_geom_bond_atom_site_label_1
_geom_bond_atom_site_label_2
_geom_bond_distance
_geom_bond_site_symmetry_2
Br0 Cs1 3.574803 1_555
Br0 Cs10 3.625891 1_555
Br0 Cs4 3.625891 1_555
Br0 Cs11 3.776040 1_555
Br0 Cs5 3.776040 1_555
Br0 Cs0 3.807713 1_555
Br1 Cs0 3.574803 1_455
Br1 Cs11 3.625891 1_555
Br1 Cs5 3.625891 1_555
Br1 Cs10 3.776040 1_455
Br1 Cs4 3.776040 1_455
Br1 Cs1 3.807713 1_555
Br2 Cs3 3.574803 1_555
Br2 Cs8 3.625891 1_555
Br2 Cs6 3.625891 1_555
Br2 Cs9 3.776040 1_555
Br2 Cs7 3.776040 1_555
Br2 Cs2 3.807713 1_555
Br3 Cs2 3.574803 1_655
Br3 Cs9 3.625891 1_555
Br3 Cs7 3.625891 1_555
Br3 Cs6 3.776040 1_655
Br3 Cs8 3.776040 1_655
Br3 Cs3 3.807713 1_555
Br4 Hg0 2.618955 1_555
Br4 Cs3 3.523487 1_545
Br4 Cs1 3.764477 1_555
Br4 Cs4 3.968482 1_555
Br4 Cs7 3.991685 1_545
Br4 Cs8 4.066323 1_645
Br5 Hg1 2.618955 1_555
Br5 Cs2 3.523487 1_555
Br5 Cs0 3.764477 1_456
Br5 Cs5 3.968482 1_556
Br5 Cs6 3.991685 1_555
Br5 Cs9 4.066323 1_555
Br6 Hg2 2.618955 1_555
Br6 Cs1 3.523487 1_555
Br6 Cs3 3.764477 1_555
Br6 Cs6 3.968482 1_555
Br6 Cs5 3.991685 1_555
Br6 Cs10 4.066323 1_455
Br7 Hg3 2.618955 1_555
Br7 Cs0 3.523487 1_565
Br7 Cs2 3.764477 1_654
Br7 Cs7 3.968482 1_554
Br7 Cs4 3.991685 1_565
Br7 Cs11 4.066323 1_565
Br8 Hg2 2.618955 1_555
Br8 Cs1 3.523487 1_565
Br8 Cs3 3.764477 1_555
Br8 Cs8 3.968482 1_555
Br8 Cs11 3.991685 1_565
Br8 Cs4 4.066323 1_465
Br9 Hg3 2.618955 1_555
Br9 Cs0 3.523487 1_555
Br9 Cs2 3.764477 1_654
Br9 Cs9 3.968482 1_554
Br9 Cs10 3.991685 1_555
Br9 Cs5 4.066323 1_555
Br10 Hg0 2.618955 1_555
Br10 Cs3 3.523487 1_555
Br10 Cs1 3.764477 1_555
Br10 Cs10 3.968482 1_555
Br10 Cs9 3.991685 1_555
Br10 Cs6 4.066323 1_655
Br11 Hg1 2.618955 1_555
Br11 Cs2 3.523487 1_545
Br11 Cs0 3.764477 1_456
Br11 Cs11 3.968482 1_556
Br11 Cs8 3.991685 1_545
Br11 Cs7 4.066323 1_545
Br12 Hg1 2.691715 1_555
Br12 Cs0 3.639592 1_556
Br12 Cs5 3.807396 1_556
Br12 Cs11 3.807396 1_556
Br12 Cs7 3.812645 1_545
Br12 Cs9 3.812645 1_555
Br13 Hg0 2.691715 1_455
Br13 Cs1 3.639592 1_555
Br13 Cs10 3.807396 1_455
Br13 Cs4 3.807396 1_455
Br13 Cs8 3.812645 1_545
Br13 Cs6 3.812645 1_555
Br14 Hg3 2.691715 1_555
Br14 Cs2 3.639592 1_554
Br14 Cs9 3.807396 1_554
Br14 Cs7 3.807396 1_554
Br14 Cs11 3.812645 1_565
Br14 Cs5 3.812645 1_555
Br15 Hg2 2.691715 1_655
Br15 Cs3 3.639592 1_555
Br15 Cs6 3.807396 1_655
Br15 Cs8 3.807396 1_655
Br15 Cs4 3.812645 1_565
Br15 Cs10 3.812645 1_555
Br16 Hg0 2.629209 1_555
Br16 Cs0 3.687654 1_556
Br16 Cs6 4.013831 1_655
Br16 Cs8 4.013831 1_645
Br16 Cs9 4.149793 1_555
Br16 Cs7 4.149793 1_545
Br17 Hg1 2.629209 1_555
Br17 Cs1 3.687654 1_555
Br17 Cs9 4.013831 1_555
Br17 Cs7 4.013831 1_545
Br17 Cs6 4.149793 1_555
Br17 Cs8 4.149793 1_545
Br18 Hg2 2.629209 1_555
Br18 Cs2 3.687654 1_554
Br18 Cs10 4.013831 1_455
Br18 Cs4 4.013831 1_465
Br18 Cs11 4.149793 1_565
Br18 Cs5 4.149793 1_555
Br19 Hg3 2.629209 1_555
Br19 Cs3 3.687654 1_555
Br19 Cs11 4.013831 1_565
Br19 Cs5 4.013831 1_555
Br19 Cs10 4.149793 1_555
Br19 Cs4 4.149793 1_565
