# generated using pymatgen
data_Ti3H3Au
_symmetry_space_group_name_H-M   'P 1'
_cell_length_a   5.27412544
_cell_length_b   5.27412544
_cell_length_c   5.27412749
_cell_angle_alpha   90.00000000
_cell_angle_beta   90.00000000
_cell_angle_gamma   90.00000000
_symmetry_Int_Tables_number   1
_chemical_formula_structural   Ti3H3Au
_chemical_formula_sum   'Ti6 H6 Au2'
_cell_volume   146.70723547
_cell_formula_units_Z   2
loop_
 _symmetry_equiv_pos_site_id
 _symmetry_equiv_pos_as_xyz
  1  'x, y, z'
loop_
 _atom_site_type_symbol
 _atom_site_label
 _atom_site_symmetry_multiplicity
 _atom_site_fract_x
 _atom_site_fract_y
 _atom_site_fract_z
 _atom_site_occupancy
  Ti  Ti0  1  0.00000000  0.50000000  0.75000000  1
  Ti  Ti1  1  0.50000000  0.24999800  -0.00000000  1
  Ti  Ti2  1  0.74999800  -0.00000000  0.50000000  1
  Ti  Ti3  1  0.00000000  0.50000000  0.25000000  1
  Ti  Ti4  1  0.50000000  0.75000200  -0.00000000  1
  Ti  Ti5  1  0.25000200  -0.00000000  0.50000000  1
  H  H0  1  0.50000000  -0.00000000  0.75000000  1
  H  H1  1  0.00000000  0.24999900  0.50000000  1
  H  H2  1  0.74999900  0.50000000  -0.00000000  1
  H  H3  1  0.50000000  -0.00000000  0.25000000  1
  H  H4  1  0.00000000  0.75000100  0.50000000  1
  H  H5  1  0.25000100  0.50000000  -0.00000000  1
  Au  Au0  1  0.50000000  0.50000000  0.50000000  1
  Au  Au1  1  0.00000000  -0.00000000  -0.00000000  1
loop_
_geom_bond_atom_site_label_1
_geom_bond_atom_site_label_2
_geom_bond_distance
_geom_bond_site_symmetry_2
H0 Ti2 1.864678 1_555
H0 Ti1 1.864678 1_556
H0 Ti5 1.864678 1_555
H0 Ti4 1.864678 1_546
H1 Ti5 1.864689 1_555
H1 Ti2 1.864689 1_455
H1 Ti0 1.864689 1_555
H1 Ti3 1.864689 1_555
H2 Ti4 1.864689 1_555
H2 Ti1 1.864689 1_555
H2 Ti3 1.864689 1_655
H2 Ti0 1.864689 1_654
H3 Ti2 1.864678 1_555
H3 Ti5 1.864678 1_555
H3 Ti1 1.864678 1_555
H3 Ti4 1.864678 1_545
H4 Ti5 1.864689 1_565
H4 Ti2 1.864689 1_465
H4 Ti0 1.864689 1_555
H4 Ti3 1.864689 1_555
H5 Ti4 1.864689 1_555
H5 Ti1 1.864689 1_555
H5 Ti0 1.864689 1_554
H5 Ti3 1.864689 1_555
Au0 Ti2 2.948321 1_555
Au0 Ti2 2.948321 1_565
Au0 Ti5 2.948321 1_555
Au0 Ti5 2.948321 1_565
Au0 Ti0 2.948326 1_555
Au0 Ti3 2.948326 1_555
Au0 Ti3 2.948326 1_655
Au0 Ti0 2.948326 1_655
Au0 Ti4 2.948331 1_556
Au0 Ti4 2.948331 1_555
Au0 Ti1 2.948331 1_555
Au0 Ti1 2.948331 1_556
Au1 Ti1 2.948321 1_555
Au1 Ti1 2.948321 1_455
Au1 Ti4 2.948321 1_445
Au1 Ti4 2.948321 1_545
Au1 Ti3 2.948326 1_555
Au1 Ti0 2.948326 1_554
Au1 Ti3 2.948326 1_545
Au1 Ti0 2.948326 1_544
Au1 Ti5 2.948331 1_554
Au1 Ti5 2.948331 1_555
Au1 Ti2 2.948331 1_455
Au1 Ti2 2.948331 1_454
