# generated using pymatgen
data_Ni3(AsO4)4
_symmetry_space_group_name_H-M   'P 1'
_cell_length_a   5.03304300
_cell_length_b   9.38664200
_cell_length_c   15.43611704
_cell_angle_alpha   66.57227784
_cell_angle_beta   90.00000000
_cell_angle_gamma   90.00000000
_symmetry_Int_Tables_number   1
_chemical_formula_structural   Ni3(AsO4)4
_chemical_formula_sum   'Ni6 As8 O32'
_cell_volume   669.13623515
_cell_formula_units_Z   2
loop_
 _symmetry_equiv_pos_site_id
 _symmetry_equiv_pos_as_xyz
  1  'x, y, z'
loop_
 _atom_site_type_symbol
 _atom_site_label
 _atom_site_symmetry_multiplicity
 _atom_site_fract_x
 _atom_site_fract_y
 _atom_site_fract_z
 _atom_site_occupancy
  Ni  Ni0  1  0.50135800  0.18781100  0.62464500  1
  Ni  Ni1  1  0.49864200  0.81218900  0.37535500  1
  Ni  Ni2  1  0.00135800  0.81218900  0.87535500  1
  Ni  Ni3  1  0.99864200  0.18781100  0.12464500  1
  Ni  Ni4  1  0.00000000  0.50000000  0.50000000  1
  Ni  Ni5  1  0.50000000  0.50000000  0.00000000  1
  As  As0  1  0.01994200  0.04846800  0.34847400  1
  As  As1  1  0.49185800  0.43536800  0.40237000  1
  As  As2  1  0.99185800  0.56463200  0.09763000  1
  As  As3  1  0.00814200  0.43536800  0.90237000  1
  As  As4  1  0.98005800  0.95153200  0.65152600  1
  As  As5  1  0.50814200  0.56463200  0.59763000  1
  As  As6  1  0.48005800  0.04846800  0.84847400  1
  As  As7  1  0.51994200  0.95153200  0.15152600  1
  O  O0  1  0.44270500  0.79844000  0.25435700  1
  O  O1  1  0.90779400  0.73820800  0.01037600  1
  O  O2  1  0.42601100  0.43388300  0.29342600  1
  O  O3  1  0.37312200  0.11842200  0.14906100  1
  O  O4  1  0.57398900  0.56611700  0.70657400  1
  O  O5  1  0.05729500  0.79844000  0.75435700  1
  O  O6  1  0.92601100  0.56611700  0.20657400  1
  O  O7  1  0.67835000  0.49573600  0.89875900  1
  O  O8  1  0.57120100  0.09974000  0.94163700  1
  O  O9  1  0.55729500  0.20156000  0.74564300  1
  O  O10  1  0.12687800  0.11842200  0.64906100  1
  O  O11  1  0.32165000  0.50426400  0.10124100  1
  O  O12  1  0.30109400  0.57775200  0.42210000  1
  O  O13  1  0.42879900  0.90026000  0.05836300  1
  O  O14  1  0.64129500  0.98668300  0.64568300  1
  O  O15  1  0.14129500  0.01331700  0.85431700  1
  O  O16  1  0.80109300  0.42224800  0.07790000  1
  O  O17  1  0.07398900  0.43388300  0.79342600  1
  O  O18  1  0.07120100  0.90026000  0.55836300  1
  O  O19  1  0.17835000  0.50426400  0.60124100  1
  O  O20  1  0.85870500  0.98668300  0.14568300  1
  O  O21  1  0.35870500  0.01331700  0.35431700  1
  O  O22  1  0.09220600  0.26179200  0.98962400  1
  O  O23  1  0.40779400  0.26179200  0.48962400  1
  O  O24  1  0.69890600  0.42224800  0.57790000  1
  O  O25  1  0.94270500  0.20156000  0.24564300  1
  O  O26  1  0.62687800  0.88157800  0.85093900  1
  O  O27  1  0.92879900  0.09974000  0.44163700  1
  O  O28  1  0.59220600  0.73820800  0.51037600  1
  O  O29  1  0.82165000  0.49573600  0.39875900  1
  O  O30  1  0.19890600  0.57775200  0.92210000  1
  O  O31  1  0.87312200  0.88157800  0.35093900  1
loop_
_geom_bond_atom_site_label_1
_geom_bond_atom_site_label_2
_geom_bond_distance
_geom_bond_site_symmetry_2
Ni0 O14 1.917868 1_545
Ni0 O9 1.943204 1_555
Ni0 O23 1.974078 1_555
Ni0 O10 1.980769 1_555
Ni0 O24 2.255908 1_555
Ni1 O21 1.917868 1_565
Ni1 O0 1.943204 1_555
Ni1 O28 1.974078 1_555
Ni1 O31 1.980769 1_555
Ni1 O12 2.255908 1_555
Ni2 O15 1.917868 1_565
Ni2 O5 1.943204 1_555
Ni2 O1 1.974078 1_456
Ni2 O26 1.980769 1_455
Ni2 O30 2.255908 1_555
Ni3 O20 1.917868 1_545
Ni3 O25 1.943204 1_555
Ni3 O22 1.974078 1_654
Ni3 O3 1.980769 1_655
Ni3 O16 2.255910 1_555
Ni4 O19 1.816410 1_555
Ni4 O29 1.816410 1_455
Ni4 O12 1.891358 1_555
Ni4 O24 1.891358 1_455
Ni5 O11 1.816410 1_555
Ni5 O7 1.816410 1_554
Ni5 O16 1.891354 1_555
Ni5 O30 1.891358 1_554
As0 O25 1.709353 1_455
As0 O31 1.718760 1_445
As0 O21 1.732164 1_555
As0 O27 1.749418 1_455
As1 O23 1.703724 1_555
As1 O2 1.719503 1_555
As1 O29 1.747631 1_555
As1 O12 1.767630 1_555
As2 O1 1.703724 1_555
As2 O6 1.719503 1_555
As2 O11 1.747631 1_655
As2 O16 1.767632 1_555
As3 O22 1.703724 1_555
As3 O17 1.719503 1_555
As3 O7 1.747631 1_455
As3 O30 1.767630 1_555
As4 O5 1.709353 1_655
As4 O10 1.718760 1_665
As4 O14 1.732164 1_555
As4 O18 1.749418 1_655
As5 O28 1.703724 1_555
As5 O4 1.719503 1_555
As5 O19 1.747631 1_555
As5 O24 1.767630 1_555
As6 O9 1.709353 1_555
As6 O26 1.718760 1_545
As6 O15 1.732164 1_555
As6 O8 1.749418 1_555
As7 O0 1.709353 1_555
As7 O3 1.718760 1_565
As7 O20 1.732164 1_555
As7 O13 1.749418 1_555
