# generated using pymatgen
data_Y2Er4Fe23
_symmetry_space_group_name_H-M   'P 1'
_cell_length_a   8.48943453
_cell_length_b   8.48943453
_cell_length_c   8.48943453
_cell_angle_alpha   90.08676064
_cell_angle_beta   59.94858489
_cell_angle_gamma   120.04879273
_symmetry_Int_Tables_number   1
_chemical_formula_structural   Y2Er4Fe23
_chemical_formula_sum   'Y2 Er4 Fe23'
_cell_volume   432.30646195
_cell_formula_units_Z   1
loop_
 _symmetry_equiv_pos_site_id
 _symmetry_equiv_pos_as_xyz
  1  'x, y, z'
loop_
 _atom_site_type_symbol
 _atom_site_label
 _atom_site_symmetry_multiplicity
 _atom_site_fract_x
 _atom_site_fract_y
 _atom_site_fract_z
 _atom_site_occupancy
  Y  Y0  1  0.58473600  0.29218000  0.70744400  1
  Y  Y1  1  0.00037600  0.70782000  0.70744400  1
  Er  Er0  1  0.00041700  0.29090800  0.70867400  1
  Er  Er1  1  0.41756800  0.70855700  0.29098900  1
  Er  Er2  1  0.00045400  0.29144300  0.29098900  1
  Er  Er3  1  0.00041700  0.70909200  0.29049100  1
  Fe  Fe0  1  0.64880800  0.32410100  0.02709000  1
  Fe  Fe1  1  0.35050400  0.32474600  0.32474900  1
  Fe  Fe2  1  0.35118200  0.02646400  0.32409300  1
  Fe  Fe3  1  0.64944300  0.32472600  0.32409300  1
  Fe  Fe4  1  0.35050400  0.67525300  0.97424200  1
  Fe  Fe5  1  0.64880800  0.67589900  0.67529300  1
  Fe  Fe6  1  0.64944300  0.97353600  0.67528200  1
  Fe  Fe7  1  0.35118200  0.67527400  0.67528200  1
  Fe  Fe8  1  0.99958400  0.00000000  0.00041600  1
  Fe  Fe9  1  0.24296200  0.12233100  0.63470600  1
  Fe  Fe10  1  0.75699600  0.12156000  0.12144400  1
  Fe  Fe11  1  0.75621900  0.63505500  0.12271700  1
  Fe  Fe12  1  0.24222800  0.12106300  0.12271700  1
  Fe  Fe13  1  0.75699600  0.87844000  0.36456400  1
  Fe  Fe14  1  0.24296200  0.87766900  0.87936900  1
  Fe  Fe15  1  0.24222800  0.36494500  0.87883600  1
  Fe  Fe16  1  0.75621900  0.87893700  0.87883600  1
  Fe  Fe17  1  0.00003100  0.00060900  0.49946900  1
  Fe  Fe18  1  0.49992200  0.50050000  0.49946900  1
  Fe  Fe19  1  0.50105400  0.00000000  0.49894600  1
  Fe  Fe20  1  0.00003100  0.49950000  0.00057800  1
  Fe  Fe21  1  0.49992200  0.99939100  0.00057800  1
  Fe  Fe22  1  0.49880200  0.50000000  0.00119800  1
loop_
_geom_bond_atom_site_label_1
_geom_bond_atom_site_label_2
_geom_bond_distance
_geom_bond_site_symmetry_2
Er0 Fe9 2.887146 1_555
Er0 Fe16 2.893285 1_445
Er0 Fe15 2.893299 1_555
Er0 Fe10 2.898948 1_456
Er0 Fe1 2.997431 1_555
Er0 Fe6 3.003569 1_445
Er0 Fe7 3.003572 1_555
Er0 Fe0 3.009186 1_456
Er0 Fe17 3.035197 1_555
Er0 Fe18 3.035203 1_555
Er0 Fe21 3.043218 1_446
Er0 Fe20 3.043224 1_556
Er1 Fe11 2.894128 1_555
Er1 Fe16 2.894129 1_554
Er1 Fe13 2.900247 1_555
Er1 Fe10 2.900247 1_565
Er1 Fe4 3.000772 1_554
Er1 Fe1 3.000772 1_555
Er1 Fe2 3.007113 1_565
Er1 Fe7 3.007113 1_555
Er1 Fe22 3.028721 1_555
Er1 Fe19 3.037186 1_565
Er1 Fe21 3.037517 1_555
Er1 Fe18 3.037517 1_555
Er2 Fe15 2.894128 1_554
Er2 Fe12 2.894136 1_555
Er2 Fe13 2.900247 1_445
Er2 Fe10 2.900247 1_455
Er2 Fe1 3.000767 1_555
Er2 Fe4 3.000767 1_554
Er2 Fe6 3.007113 1_445
Er2 Fe3 3.007118 1_455
Er2 Fe22 3.028721 1_555
Er2 Fe19 3.037186 1_455
Er2 Fe20 3.037517 1_555
Er2 Fe17 3.037517 1_555
Er3 Fe14 2.887146 1_554
Er3 Fe12 2.893284 1_565
Er3 Fe11 2.893291 1_455
Er3 Fe13 2.898941 1_455
Er3 Fe4 2.997436 1_554
Er3 Fe3 3.003569 1_455
Er3 Fe2 3.003574 1_565
Er3 Fe5 3.009186 1_455
Er3 Fe21 3.035202 1_555
Er3 Fe20 3.035202 1_555
Er3 Fe17 3.043217 1_565
Er3 Fe18 3.043217 1_455
Fe0 Fe21 2.457802 1_545
Fe0 Fe20 2.457809 1_655
Fe0 Fe22 2.466926 1_555
Fe0 Fe2 2.524079 1_555
Fe0 Fe3 2.524083 1_555
Fe0 Fe1 2.530476 1_555
Fe0 Fe10 2.600827 1_555
Fe0 Fe12 2.604496 1_555
Fe0 Fe11 2.604503 1_555
Fe0 Y0 3.010229 1_554
Fe0 Y1 3.010234 1_654
Fe1 Fe22 2.452823 1_555
Fe1 Fe17 2.453081 1_555
Fe1 Fe18 2.453089 1_555
Fe1 Fe3 2.535124 1_555
Fe1 Fe2 2.535124 1_555
Fe1 Fe9 2.597476 1_555
Fe1 Fe12 2.599008 1_555
Fe1 Fe11 2.599011 1_555
Fe2 Fe21 2.450645 1_545
Fe2 Fe3 2.530204 1_555
Fe2 Fe9 2.603027 1_555
Fe2 Y1 3.004935 1_545
Fe3 Fe9 2.603031 1_555
Fe3 Y0 3.004935 1_555
Fe4 Fe5 2.530472 1_555
Fe4 Fe7 2.535124 1_555
Fe4 Fe6 2.535128 1_555
Fe5 Fe7 2.524071 1_555
Fe5 Fe6 2.524075 1_555
Fe5 Y1 3.010237 1_655
Fe5 Y0 3.010237 1_555
Fe6 Fe7 2.530204 1_555
Fe6 Y0 3.004935 1_565
Fe7 Y1 3.004940 1_555
Fe8 Fe9 2.534297 1_654
Fe9 Y1 2.912185 1_545
Fe9 Y0 2.912192 1_555
Fe10 Fe8 2.523461 1_555
Fe10 Fe2 2.600588 1_555
Fe10 Fe3 2.600595 1_555
Fe10 Fe19 2.616660 1_555
Fe10 Fe20 2.619966 1_655
Fe10 Fe21 2.619966 1_545
Fe10 Fe16 2.910612 1_544
Fe10 Fe15 2.910618 1_654
Fe10 Fe13 2.921077 1_545
Fe11 Fe8 2.529057 1_565
Fe11 Fe3 2.599024 1_555
Fe11 Fe18 2.611677 1_555
Fe11 Fe22 2.626701 1_555
Fe11 Fe20 2.629816 1_655
Fe11 Fe13 2.910618 1_555
Fe11 Y1 2.917562 1_654
Fe11 Fe14 2.919681 1_654
Fe11 Fe16 2.930226 1_554
Fe12 Fe8 2.529057 1_455
Fe12 Fe2 2.599027 1_555
Fe12 Fe17 2.611677 1_555
Fe12 Fe22 2.626708 1_555
Fe12 Fe21 2.629810 1_545
Fe12 Fe13 2.910618 1_445
Fe12 Y0 2.917562 1_554
Fe12 Fe14 2.919675 1_544
Fe12 Fe15 2.930226 1_554
Fe13 Fe8 2.523461 1_565
Fe13 Fe6 2.600588 1_555
Fe13 Fe7 2.600588 1_555
Fe13 Fe5 2.600823 1_555
Fe13 Fe19 2.616660 1_565
Fe13 Fe17 2.619966 1_665
Fe13 Fe18 2.619966 1_555
Fe14 Fe8 2.534290 1_466
Fe14 Fe4 2.597484 1_555
Fe14 Fe6 2.603034 1_555
Fe14 Fe7 2.603041 1_555
Fe14 Fe21 2.621601 1_556
Fe14 Fe20 2.621601 1_556
Fe14 Fe19 2.636964 1_565
Fe14 Y1 2.912186 1_555
Fe14 Y0 2.912186 1_565
Fe14 Fe9 2.939610 1_565
Fe15 Fe8 2.529057 1_456
Fe15 Fe4 2.599004 1_555
Fe15 Fe7 2.599024 1_555
Fe15 Fe5 2.604499 1_555
Fe15 Fe20 2.611677 1_556
Fe15 Fe22 2.626701 1_556
Fe15 Fe18 2.629816 1_555
Fe15 Y0 2.917562 1_555
Fe15 Fe9 2.919687 1_555
Fe16 Fe8 2.529057 1_566
Fe16 Fe4 2.599011 1_555
Fe16 Fe6 2.599027 1_555
Fe16 Fe5 2.604503 1_555
Fe16 Fe21 2.611670 1_556
Fe16 Fe22 2.626708 1_556
Fe16 Fe17 2.629816 1_665
Fe16 Y1 2.917569 1_655
Fe16 Fe9 2.919681 1_665
Fe17 Fe6 2.450645 1_445
Fe17 Fe5 2.457805 1_445
Fe17 Fe2 2.460097 1_555
Fe17 Fe9 2.621594 1_555
Fe17 Y1 3.053089 1_545
Fe18 Fe7 2.450637 1_555
Fe18 Fe5 2.457805 1_555
Fe18 Fe3 2.460090 1_555
Fe18 Fe9 2.621601 1_555
Fe18 Y0 3.053089 1_555
Fe19 Fe2 2.460002 1_555
Fe19 Fe6 2.460002 1_545
Fe19 Fe7 2.460009 1_545
Fe19 Fe3 2.460009 1_555
Fe19 Fe9 2.636964 1_555
Fe19 Y1 3.044941 1_545
Fe19 Y0 3.044941 1_555
Fe20 Fe3 2.450645 1_455
Fe20 Fe4 2.453081 1_554
Fe20 Fe7 2.460097 1_554
Fe20 Y1 3.053089 1_554
Fe21 Fe4 2.453089 1_554
Fe21 Fe6 2.460097 1_554
Fe21 Y0 3.053089 1_564
Fe22 Fe4 2.452823 1_554
Fe22 Fe5 2.466929 1_554
Fe22 Y1 3.052454 1_654
Fe22 Y0 3.052454 1_554
