# generated using pymatgen
data_MnAlFe2
_symmetry_space_group_name_H-M   'P 1'
_cell_length_a   4.11259244
_cell_length_b   4.11259244
_cell_length_c   4.11259244
_cell_angle_alpha   60.00000000
_cell_angle_beta   60.00000000
_cell_angle_gamma   60.00000000
_symmetry_Int_Tables_number   1
_chemical_formula_structural   MnAlFe2
_chemical_formula_sum   'Mn1 Al1 Fe2'
_cell_volume   49.18492568
_cell_formula_units_Z   1
loop_
 _symmetry_equiv_pos_site_id
 _symmetry_equiv_pos_as_xyz
  1  'x, y, z'
loop_
 _atom_site_type_symbol
 _atom_site_label
 _atom_site_symmetry_multiplicity
 _atom_site_fract_x
 _atom_site_fract_y
 _atom_site_fract_z
 _atom_site_occupancy
  Mn  Mn0  1  0.75000000  0.75000000  0.75000000  1
  Al  Al0  1  0.00000000  0.00000000  0.00000000  1
  Fe  Fe0  1  0.25000000  0.25000000  0.25000000  1
  Fe  Fe1  1  0.50000000  0.50000000  0.50000000  1
loop_
_geom_bond_atom_site_label_1
_geom_bond_atom_site_label_2
_geom_bond_distance
_geom_bond_site_symmetry_2
Al0 Mn0 2.518438 1_445
Al0 Fe0 2.518438 1_545
Al0 Fe0 2.518438 1_455
Al0 Fe0 2.518438 1_554
Al0 Fe0 2.518438 1_555
Al0 Mn0 2.518438 1_544
Al0 Mn0 2.518438 1_454
Al0 Mn0 2.518438 1_444
Fe0 Fe1 2.518438 1_455
Fe0 Fe1 2.518438 1_545
Fe0 Fe1 2.518438 1_554
Fe0 Fe1 2.518438 1_555
Fe1 Mn0 2.518438 1_545
Fe1 Mn0 2.518438 1_555
Fe1 Mn0 2.518438 1_455
Fe1 Mn0 2.518438 1_554
