# generated using pymatgen
data_Pr2Tl
_symmetry_space_group_name_H-M   'P 1'
_cell_length_a   5.61686858
_cell_length_b   5.61686854
_cell_length_c   6.97225985
_cell_angle_alpha   90.00000000
_cell_angle_beta   90.00000000
_cell_angle_gamma   120.00000026
_symmetry_Int_Tables_number   1
_chemical_formula_structural   Pr2Tl
_chemical_formula_sum   'Pr4 Tl2'
_cell_volume   190.49900736
_cell_formula_units_Z   2
loop_
 _symmetry_equiv_pos_site_id
 _symmetry_equiv_pos_as_xyz
  1  'x, y, z'
loop_
 _atom_site_type_symbol
 _atom_site_label
 _atom_site_symmetry_multiplicity
 _atom_site_fract_x
 _atom_site_fract_y
 _atom_site_fract_z
 _atom_site_occupancy
  Pr  Pr0  1  0.66666700  0.33333300  0.24997303  1
  Pr  Pr1  1  0.33333300  0.66666700  0.75002697  1
  Pr  Pr2  1  -0.00000000  0.00000000  0.00000000  1
  Pr  Pr3  1  -0.00000000  0.00000000  0.50000000  1
  Tl  Tl0  1  0.66666700  0.33333300  0.74997609  1
  Tl  Tl1  1  0.33333300  0.66666700  0.25002391  1
loop_
_geom_bond_atom_site_label_1
_geom_bond_atom_site_label_2
_geom_bond_distance
_geom_bond_site_symmetry_2
Pr0 Tl1 3.242897 1_545
Pr0 Tl1 3.242897 1_655
Pr0 Tl1 3.242907 1_555
Pr0 Tl0 3.486109 1_554
Pr0 Tl0 3.486151 1_555
Pr0 Pr2 3.681576 1_655
Pr0 Pr2 3.681580 1_665
Pr0 Pr2 3.681580 1_555
Pr0 Pr3 3.681754 1_655
Pr0 Pr3 3.681758 1_665
Pr0 Pr3 3.681759 1_555
Pr1 Tl0 3.242897 1_565
Pr1 Tl0 3.242897 1_455
Pr1 Tl0 3.242907 1_555
Pr1 Tl1 3.486109 1_556
Pr1 Tl1 3.486151 1_555
Pr1 Pr2 3.681576 1_566
Pr1 Pr2 3.681580 1_556
Pr1 Pr2 3.681580 1_666
Pr1 Pr3 3.681754 1_565
Pr1 Pr3 3.681758 1_555
Pr1 Pr3 3.681759 1_665
Pr2 Pr3 3.486130 1_554
Pr2 Pr3 3.486130 1_555
Pr2 Tl1 3.681744 1_545
Pr2 Tl0 3.681744 1_454
Pr2 Tl0 3.681748 1_444
Pr2 Tl1 3.681748 1_555
Pr2 Tl1 3.681748 1_445
Pr2 Tl0 3.681748 1_554
Pr3 Tl1 3.681586 1_545
Pr3 Tl0 3.681586 1_455
Pr3 Tl0 3.681591 1_445
Pr3 Tl1 3.681591 1_555
Pr3 Tl1 3.681591 1_445
Pr3 Tl0 3.681591 1_555
