# generated using pymatgen
data_Nb4Ga5
_symmetry_space_group_name_H-M   'P 1'
_cell_length_a   11.90758800
_cell_length_b   11.90758800
_cell_length_c   17.19039100
_cell_angle_alpha   90.00000000
_cell_angle_beta   90.00000000
_cell_angle_gamma   90.00000000
_symmetry_Int_Tables_number   1
_chemical_formula_structural   Nb4Ga5
_chemical_formula_sum   'Nb64 Ga80'
_cell_volume   2437.43674764
_cell_formula_units_Z   16
loop_
 _symmetry_equiv_pos_site_id
 _symmetry_equiv_pos_as_xyz
  1  'x, y, z'
loop_
 _atom_site_type_symbol
 _atom_site_label
 _atom_site_symmetry_multiplicity
 _atom_site_fract_x
 _atom_site_fract_y
 _atom_site_fract_z
 _atom_site_occupancy
  Nb  Nb0  1  0.25288700  0.25288700  0.39892600  1
  Nb  Nb1  1  0.74711300  0.74711300  0.39892600  1
  Nb  Nb2  1  0.24711300  0.75288700  0.89892600  1
  Nb  Nb3  1  0.75288700  0.24711300  0.89892600  1
  Nb  Nb4  1  0.74711300  0.74711300  0.60107400  1
  Nb  Nb5  1  0.25288700  0.25288700  0.60107400  1
  Nb  Nb6  1  0.75288700  0.24711300  0.10107400  1
  Nb  Nb7  1  0.24711300  0.75288700  0.10107400  1
  Nb  Nb8  1  0.35510700  0.84669600  0.50000000  1
  Nb  Nb9  1  0.64489300  0.15330400  0.50000000  1
  Nb  Nb10  1  0.14489300  0.34669600  0.00000000  1
  Nb  Nb11  1  0.85510700  0.65330400  0.00000000  1
  Nb  Nb12  1  0.84669600  0.35510700  0.50000000  1
  Nb  Nb13  1  0.15330400  0.64489300  0.50000000  1
  Nb  Nb14  1  0.34669600  0.14489300  0.00000000  1
  Nb  Nb15  1  0.65330400  0.85510700  0.00000000  1
  Nb  Nb16  1  0.48729600  0.79815000  0.35108100  1
  Nb  Nb17  1  0.51270400  0.20185000  0.35108100  1
  Nb  Nb18  1  0.01270400  0.29815000  0.85108100  1
  Nb  Nb19  1  0.98729600  0.70185000  0.85108100  1
  Nb  Nb20  1  0.51270400  0.20185000  0.64891900  1
  Nb  Nb21  1  0.48729600  0.79815000  0.64891900  1
  Nb  Nb22  1  0.98729600  0.70185000  0.14891900  1
  Nb  Nb23  1  0.01270400  0.29815000  0.14891900  1
  Nb  Nb24  1  0.79815000  0.48729600  0.35108100  1
  Nb  Nb25  1  0.20185000  0.51270400  0.35108100  1
  Nb  Nb26  1  0.29815000  0.01270400  0.85108100  1
  Nb  Nb27  1  0.70185000  0.98729600  0.85108100  1
  Nb  Nb28  1  0.20185000  0.51270400  0.64891900  1
  Nb  Nb29  1  0.79815000  0.48729600  0.64891900  1
  Nb  Nb30  1  0.70185000  0.98729600  0.14891900  1
  Nb  Nb31  1  0.29815000  0.01270400  0.14891900  1
  Nb  Nb32  1  0.50000000  0.00000000  0.25000000  1
  Nb  Nb33  1  0.00000000  0.50000000  0.75000000  1
  Nb  Nb34  1  0.50000000  0.00000000  0.75000000  1
  Nb  Nb35  1  0.00000000  0.50000000  0.25000000  1
  Nb  Nb36  1  0.29312500  0.99458200  0.35378800  1
  Nb  Nb37  1  0.70687500  0.00541800  0.35378800  1
  Nb  Nb38  1  0.20687500  0.49458200  0.85378800  1
  Nb  Nb39  1  0.79312500  0.50541800  0.85378800  1
  Nb  Nb40  1  0.70687500  0.00541800  0.64621200  1
  Nb  Nb41  1  0.29312500  0.99458200  0.64621200  1
  Nb  Nb42  1  0.79312500  0.50541800  0.14621200  1
  Nb  Nb43  1  0.20687500  0.49458200  0.14621200  1
  Nb  Nb44  1  0.99458200  0.29312500  0.35378800  1
  Nb  Nb45  1  0.00541800  0.70687500  0.35378800  1
  Nb  Nb46  1  0.49458200  0.20687500  0.85378800  1
  Nb  Nb47  1  0.50541800  0.79312500  0.85378800  1
  Nb  Nb48  1  0.00541800  0.70687500  0.64621200  1
  Nb  Nb49  1  0.99458200  0.29312500  0.64621200  1
  Nb  Nb50  1  0.50541800  0.79312500  0.14621200  1
  Nb  Nb51  1  0.49458200  0.20687500  0.14621200  1
  Nb  Nb52  1  0.89084100  0.89084100  0.24154900  1
  Nb  Nb53  1  0.10915900  0.10915900  0.24154900  1
  Nb  Nb54  1  0.60915900  0.39084100  0.74154900  1
  Nb  Nb55  1  0.39084100  0.60915900  0.74154900  1
  Nb  Nb56  1  0.10915900  0.10915900  0.75845100  1
  Nb  Nb57  1  0.89084100  0.89084100  0.75845100  1
  Nb  Nb58  1  0.39084100  0.60915900  0.25845100  1
  Nb  Nb59  1  0.60915900  0.39084100  0.25845100  1
  Nb  Nb60  1  0.11715600  0.88284400  0.50000000  1
  Nb  Nb61  1  0.88284400  0.11715600  0.50000000  1
  Nb  Nb62  1  0.38284400  0.38284400  0.00000000  1
  Nb  Nb63  1  0.61715600  0.61715600  0.00000000  1
  Ga  Ga0  1  0.43464500  0.25021400  0.50000000  1
  Ga  Ga1  1  0.56535500  0.74978600  0.50000000  1
  Ga  Ga2  1  0.06535500  0.75021400  0.00000000  1
  Ga  Ga3  1  0.93464500  0.24978600  0.00000000  1
  Ga  Ga4  1  0.25021400  0.43464500  0.50000000  1
  Ga  Ga5  1  0.74978600  0.56535500  0.50000000  1
  Ga  Ga6  1  0.75021400  0.06535500  0.00000000  1
  Ga  Ga7  1  0.24978600  0.93464500  0.00000000  1
  Ga  Ga8  1  0.23883700  0.76116300  0.37360500  1
  Ga  Ga9  1  0.76116300  0.23883700  0.37360500  1
  Ga  Ga10  1  0.26116300  0.26116300  0.87360500  1
  Ga  Ga11  1  0.73883700  0.73883700  0.87360500  1
  Ga  Ga12  1  0.76116300  0.23883700  0.62639500  1
  Ga  Ga13  1  0.23883700  0.76116300  0.62639500  1
  Ga  Ga14  1  0.73883700  0.73883700  0.12639500  1
  Ga  Ga15  1  0.26116300  0.26116300  0.12639500  1
  Ga  Ga16  1  0.16641100  0.67000800  0.23944000  1
  Ga  Ga17  1  0.83358900  0.32999200  0.23944000  1
  Ga  Ga18  1  0.33358900  0.17000800  0.73944000  1
  Ga  Ga19  1  0.66641100  0.82999200  0.73944000  1
  Ga  Ga20  1  0.83358900  0.32999200  0.76056000  1
  Ga  Ga21  1  0.16641100  0.67000800  0.76056000  1
  Ga  Ga22  1  0.66641100  0.82999200  0.26056000  1
  Ga  Ga23  1  0.33358900  0.17000800  0.26056000  1
  Ga  Ga24  1  0.67000800  0.16641100  0.23944000  1
  Ga  Ga25  1  0.32999200  0.83358900  0.23944000  1
  Ga  Ga26  1  0.17000800  0.33358900  0.73944000  1
  Ga  Ga27  1  0.82999200  0.66641100  0.73944000  1
  Ga  Ga28  1  0.32999200  0.83358900  0.76056000  1
  Ga  Ga29  1  0.67000800  0.16641100  0.76056000  1
  Ga  Ga30  1  0.82999200  0.66641100  0.26056000  1
  Ga  Ga31  1  0.17000800  0.33358900  0.26056000  1
  Ga  Ga32  1  0.09134400  0.90865600  0.31839100  1
  Ga  Ga33  1  0.90865600  0.09134400  0.31839100  1
  Ga  Ga34  1  0.40865600  0.40865600  0.81839100  1
  Ga  Ga35  1  0.59134400  0.59134400  0.81839100  1
  Ga  Ga36  1  0.90865600  0.09134400  0.68160900  1
  Ga  Ga37  1  0.09134400  0.90865600  0.68160900  1
  Ga  Ga38  1  0.59134400  0.59134400  0.18160900  1
  Ga  Ga39  1  0.40865600  0.40865600  0.18160900  1
  Ga  Ga40  1  0.28158700  0.07070500  0.50000000  1
  Ga  Ga41  1  0.71841300  0.92929500  0.50000000  1
  Ga  Ga42  1  0.21841300  0.57070500  0.00000000  1
  Ga  Ga43  1  0.78158700  0.42929500  0.00000000  1
  Ga  Ga44  1  0.07070500  0.28158700  0.50000000  1
  Ga  Ga45  1  0.92929500  0.71841300  0.50000000  1
  Ga  Ga46  1  0.57070500  0.21841300  0.00000000  1
  Ga  Ga47  1  0.42929500  0.78158700  0.00000000  1
  Ga  Ga48  1  0.50000000  0.00000000  0.42239000  1
  Ga  Ga49  1  0.00000000  0.50000000  0.92239000  1
  Ga  Ga50  1  0.50000000  0.00000000  0.57761000  1
  Ga  Ga51  1  0.00000000  0.50000000  0.07761000  1
  Ga  Ga52  1  0.00000000  0.50000000  0.42239000  1
  Ga  Ga53  1  0.50000000  0.00000000  0.92239000  1
  Ga  Ga54  1  0.00000000  0.50000000  0.57761000  1
  Ga  Ga55  1  0.50000000  0.00000000  0.07761000  1
  Ga  Ga56  1  0.38320900  0.61679100  0.42552100  1
  Ga  Ga57  1  0.61679100  0.38320900  0.42552100  1
  Ga  Ga58  1  0.11679100  0.11679100  0.92552100  1
  Ga  Ga59  1  0.88320900  0.88320900  0.92552100  1
  Ga  Ga60  1  0.61679100  0.38320900  0.57447900  1
  Ga  Ga61  1  0.38320900  0.61679100  0.57447900  1
  Ga  Ga62  1  0.88320900  0.88320900  0.07447900  1
  Ga  Ga63  1  0.11679100  0.11679100  0.07447900  1
  Ga  Ga64  1  0.09013800  0.09013800  0.41106700  1
  Ga  Ga65  1  0.90986200  0.90986200  0.41106700  1
  Ga  Ga66  1  0.40986200  0.59013800  0.91106700  1
  Ga  Ga67  1  0.59013800  0.40986200  0.91106700  1
  Ga  Ga68  1  0.90986200  0.90986200  0.58893300  1
  Ga  Ga69  1  0.09013800  0.09013800  0.58893300  1
  Ga  Ga70  1  0.59013800  0.40986200  0.08893300  1
  Ga  Ga71  1  0.40986200  0.59013800  0.08893300  1
  Ga  Ga72  1  0.09648700  0.90351300  0.15849400  1
  Ga  Ga73  1  0.90351300  0.09648700  0.15849400  1
  Ga  Ga74  1  0.40351300  0.40351300  0.65849400  1
  Ga  Ga75  1  0.59648700  0.59648700  0.65849400  1
  Ga  Ga76  1  0.90351300  0.09648700  0.84150600  1
  Ga  Ga77  1  0.09648700  0.90351300  0.84150600  1
  Ga  Ga78  1  0.59648700  0.59648700  0.34150600  1
  Ga  Ga79  1  0.40351300  0.40351300  0.34150600  1
loop_
_geom_bond_atom_site_label_1
_geom_bond_atom_site_label_2
_geom_bond_distance
_geom_bond_site_symmetry_2
Nb10 Nb62 2.865930 1_555
Nb10 Nb23 3.060274 1_555
Nb10 Nb18 3.060274 1_554
Nb10 Nb43 3.156440 1_555
Nb10 Nb38 3.156440 1_554
Nb10 Nb14 3.398337 1_555
Nb11 Nb63 2.865930 1_555
Nb11 Nb22 3.060274 1_555
Nb11 Nb19 3.060274 1_554
Nb11 Nb42 3.156440 1_555
Nb11 Nb39 3.156440 1_554
Nb11 Nb15 3.398337 1_555
Nb12 Nb61 2.865930 1_555
Nb12 Nb24 3.060274 1_555
Nb12 Nb29 3.060274 1_555
Nb12 Nb49 3.156440 1_555
Nb12 Nb44 3.156440 1_555
Nb12 Nb9 3.398337 1_555
Nb13 Nb60 2.865930 1_555
Nb13 Nb28 3.060274 1_555
Nb13 Nb25 3.060274 1_555
Nb13 Nb48 3.156440 1_555
Nb13 Nb45 3.156440 1_555
Nb13 Nb8 3.398337 1_555
Nb14 Nb62 2.865930 1_555
Nb14 Nb31 3.060274 1_555
Nb14 Nb26 3.060274 1_554
Nb14 Nb51 3.156440 1_555
Nb14 Nb46 3.156440 1_554
Nb15 Nb63 2.865930 1_555
Nb15 Nb30 3.060274 1_555
Nb15 Nb27 3.060274 1_554
Nb15 Nb50 3.156440 1_555
Nb15 Nb47 3.156440 1_554
Nb16 Nb32 2.969722 1_565
Nb16 Nb58 2.986494 1_555
Nb16 Nb8 3.060274 1_555
Nb17 Nb32 2.969722 1_555
Nb17 Nb59 2.986494 1_555
Nb17 Nb9 3.060274 1_555
Nb18 Nb33 2.969722 1_555
Nb18 Nb56 2.986494 1_555
Nb19 Nb33 2.969722 1_655
Nb19 Nb57 2.986494 1_555
Nb20 Nb34 2.969722 1_555
Nb20 Nb54 2.986494 1_555
Nb20 Nb9 3.060274 1_555
Nb21 Nb34 2.969722 1_565
Nb21 Nb55 2.986494 1_555
Nb21 Nb8 3.060274 1_555
Nb22 Nb35 2.969722 1_655
Nb22 Nb52 2.986494 1_555
Nb23 Nb35 2.969722 1_555
Nb23 Nb53 2.986494 1_555
Nb24 Nb35 2.969722 1_655
Nb24 Nb59 2.986494 1_555
Nb25 Nb35 2.969722 1_555
Nb25 Nb58 2.986494 1_555
Nb26 Nb34 2.969722 1_555
Nb26 Nb56 2.986494 1_555
Nb27 Nb34 2.969722 1_565
Nb27 Nb57 2.986494 1_555
Nb28 Nb33 2.969722 1_555
Nb28 Nb55 2.986494 1_555
Nb29 Nb33 2.969722 1_655
Nb29 Nb54 2.986494 1_555
Nb30 Nb32 2.969722 1_565
Nb30 Nb52 2.986494 1_555
Nb31 Nb32 2.969722 1_555
Nb31 Nb53 2.986494 1_555
Nb32 Nb37 3.042306 1_555
Nb32 Nb36 3.042306 1_545
Nb32 Nb50 3.042306 1_545
Nb32 Nb51 3.042306 1_555
Nb33 Nb48 3.042306 1_555
Nb33 Nb38 3.042306 1_555
Nb33 Nb39 3.042306 1_455
Nb33 Nb49 3.042306 1_455
Nb34 Nb40 3.042306 1_555
Nb34 Nb46 3.042306 1_555
Nb34 Nb47 3.042306 1_545
Nb34 Nb41 3.042306 1_545
Nb35 Nb45 3.042306 1_555
Nb35 Nb44 3.042306 1_455
Nb35 Nb42 3.042306 1_455
Nb35 Nb43 3.042306 1_555
Nb36 Nb8 3.156440 1_555
Nb37 Nb9 3.156440 1_555
Nb40 Nb9 3.156440 1_555
Nb41 Nb8 3.156440 1_555
Nb60 Nb8 2.865930 1_555
Nb61 Nb9 2.865930 1_555
Ga0 Nb9 2.756697 1_555
Ga0 Nb5 2.775629 1_555
Ga0 Nb0 2.775629 1_555
Ga0 Nb20 2.783720 1_555
Ga0 Nb17 2.783720 1_555
Ga0 Ga40 2.809036 1_555
Ga0 Ga60 2.975128 1_555
Ga0 Ga57 2.975128 1_555
Ga0 Ga4 3.105795 1_555
Ga1 Nb8 2.756697 1_555
Ga1 Nb4 2.775629 1_555
Ga1 Nb1 2.775629 1_555
Ga1 Nb16 2.783720 1_555
Ga1 Nb21 2.783720 1_555
Ga1 Ga41 2.809036 1_555
Ga1 Ga61 2.975128 1_555
Ga1 Ga56 2.975128 1_555
Ga1 Ga5 3.105795 1_555
Ga2 Nb11 2.756697 1_455
Ga2 Nb7 2.775629 1_555
Ga2 Nb2 2.775629 1_554
Ga2 Nb22 2.783720 1_455
Ga2 Nb19 2.783720 1_454
Ga2 Ga42 2.809036 1_555
Ga2 Ga62 2.975128 1_455
Ga2 Ga59 2.975128 1_454
Ga2 Ga7 3.105795 1_555
Ga3 Nb10 2.756697 1_655
Ga3 Nb3 2.775629 1_554
Ga3 Nb6 2.775629 1_555
Ga3 Nb23 2.783720 1_655
Ga3 Nb18 2.783720 1_654
Ga3 Ga43 2.809036 1_555
Ga3 Ga63 2.975128 1_655
Ga3 Ga58 2.975128 1_654
Ga3 Ga6 3.105795 1_555
Ga4 Nb13 2.756697 1_555
Ga4 Nb5 2.775629 1_555
Ga4 Nb0 2.775629 1_555
Ga4 Nb25 2.783720 1_555
Ga4 Nb28 2.783720 1_555
Ga4 Ga44 2.809036 1_555
Ga4 Ga61 2.975128 1_555
Ga4 Ga56 2.975128 1_555
Ga5 Nb12 2.756697 1_555
Ga5 Nb4 2.775629 1_555
Ga5 Nb1 2.775629 1_555
Ga5 Nb29 2.783720 1_555
Ga5 Nb24 2.783720 1_555
Ga5 Ga60 2.975128 1_555
Ga5 Ga57 2.975128 1_555
Ga6 Nb15 2.756697 1_545
Ga6 Nb6 2.775629 1_555
Ga6 Nb3 2.775629 1_554
Ga6 Nb30 2.783720 1_545
Ga6 Nb27 2.783720 1_544
Ga6 Ga62 2.975128 1_545
Ga7 Nb14 2.756697 1_565
Ga7 Nb7 2.775629 1_555
Ga7 Nb2 2.775629 1_554
Ga7 Nb31 2.783720 1_565
Ga7 Nb26 2.783720 1_564
Ga8 Nb13 2.770401 1_555
Ga8 Nb8 2.770401 1_555
Ga8 Nb45 2.873903 1_555
Ga8 Nb36 2.873903 1_555
Ga8 Nb60 2.986595 1_555
Ga8 Nb16 3.016107 1_555
Ga8 Nb25 3.016107 1_555
Ga8 Nb58 3.235861 1_555
Ga9 Nb9 2.770401 1_555
Ga9 Nb12 2.770401 1_555
Ga9 Nb37 2.873903 1_555
Ga9 Nb44 2.873903 1_555
Ga9 Nb61 2.986595 1_555
Ga9 Nb24 3.016107 1_555
Ga9 Nb17 3.016107 1_555
Ga9 Nb59 3.235861 1_555
Ga10 Ga58 2.589834 1_555
Ga10 Ga34 2.658941 1_555
Ga10 Ga26 2.690945 1_555
Ga10 Ga18 2.690945 1_555
Ga10 Nb10 2.770401 1_556
Ga10 Nb14 2.770401 1_556
Ga10 Nb38 2.873903 1_555
Ga10 Nb46 2.873903 1_555
Ga10 Nb62 2.986595 1_556
Ga10 Nb26 3.016107 1_555
Ga10 Nb18 3.016107 1_555
Ga10 Nb56 3.235861 1_555
Ga11 Ga59 2.589834 1_555
Ga11 Ga35 2.658941 1_555
Ga11 Ga27 2.690945 1_555
Ga11 Ga19 2.690945 1_555
Ga11 Nb11 2.770401 1_556
Ga11 Nb15 2.770401 1_556
Ga11 Nb47 2.873903 1_555
Ga11 Nb39 2.873903 1_555
Ga11 Nb63 2.986595 1_556
Ga11 Nb19 3.016107 1_555
Ga11 Nb27 3.016107 1_555
Ga11 Nb57 3.235861 1_555
Ga12 Ga60 2.589834 1_555
Ga12 Ga36 2.658941 1_555
Ga12 Ga29 2.690945 1_555
Ga12 Ga20 2.690945 1_555
Ga12 Nb9 2.770401 1_555
Ga12 Nb12 2.770401 1_555
Ga12 Nb40 2.873903 1_555
Ga12 Nb49 2.873903 1_555
Ga12 Nb61 2.986595 1_555
Ga12 Nb29 3.016107 1_555
Ga12 Nb20 3.016107 1_555
Ga12 Nb54 3.235861 1_555
Ga13 Ga61 2.589834 1_555
Ga13 Ga37 2.658941 1_555
Ga13 Ga28 2.690945 1_555
Ga13 Ga21 2.690945 1_555
Ga13 Nb13 2.770401 1_555
Ga13 Nb8 2.770401 1_555
Ga13 Nb48 2.873903 1_555
Ga13 Nb41 2.873903 1_555
Ga13 Nb60 2.986595 1_555
Ga13 Nb21 3.016107 1_555
Ga13 Nb28 3.016107 1_555
Ga13 Nb55 3.235861 1_555
Ga14 Ga62 2.589834 1_555
Ga14 Ga38 2.658941 1_555
Ga14 Ga30 2.690945 1_555
Ga14 Ga22 2.690945 1_555
Ga14 Nb11 2.770401 1_555
Ga14 Nb15 2.770401 1_555
Ga14 Nb42 2.873903 1_555
Ga14 Nb50 2.873903 1_555
Ga14 Nb63 2.986595 1_555
Ga14 Nb30 3.016107 1_555
Ga14 Nb22 3.016107 1_555
Ga14 Nb52 3.235861 1_555
Ga15 Ga63 2.589834 1_555
Ga15 Ga39 2.658941 1_555
Ga15 Ga31 2.690945 1_555
Ga15 Ga23 2.690945 1_555
Ga15 Nb10 2.770401 1_555
Ga15 Nb14 2.770401 1_555
Ga15 Nb51 2.873903 1_555
Ga15 Nb43 2.873903 1_555
Ga15 Nb62 2.986595 1_555
Ga15 Nb23 3.016107 1_555
Ga15 Nb31 3.016107 1_555
Ga15 Nb53 3.235861 1_555
Ga16 Nb22 2.667234 1_455
Ga16 Nb43 2.676579 1_555
Ga16 Ga8 2.690945 1_555
Ga16 Nb25 2.714732 1_555
Ga16 Nb7 2.748632 1_555
Ga16 Ga25 2.754683 1_555
Ga16 Nb45 2.780590 1_555
Ga16 Nb58 2.788122 1_555
Ga16 Nb35 2.838599 1_555
Ga17 Nb23 2.667234 1_655
Ga17 Nb42 2.676579 1_555
Ga17 Ga9 2.690945 1_555
Ga17 Nb24 2.714732 1_555
Ga17 Nb6 2.748632 1_555
Ga17 Ga24 2.754683 1_555
Ga17 Nb44 2.780590 1_555
Ga17 Nb59 2.788122 1_555
Ga17 Nb35 2.838599 1_655
Ga18 Nb20 2.667234 1_555
Ga18 Nb41 2.676579 1_545
Ga18 Nb26 2.714732 1_555
Ga18 Nb5 2.748632 1_555
Ga18 Ga26 2.754683 1_555
Ga18 Nb46 2.780590 1_555
Ga18 Nb56 2.788122 1_555
Ga18 Nb34 2.838599 1_555
Ga19 Nb21 2.667234 1_555
Ga19 Nb40 2.676579 1_565
Ga19 Nb27 2.714732 1_555
Ga19 Nb4 2.748632 1_555
Ga19 Ga27 2.754683 1_555
Ga19 Nb47 2.780590 1_555
Ga19 Nb57 2.788122 1_555
Ga19 Nb34 2.838599 1_565
Ga20 Nb18 2.667234 1_655
Ga20 Nb39 2.676579 1_555
Ga20 Nb29 2.714732 1_555
Ga20 Nb3 2.748632 1_555
Ga20 Ga29 2.754683 1_555
Ga20 Nb49 2.780590 1_555
Ga20 Nb54 2.788122 1_555
Ga20 Nb33 2.838599 1_655
Ga21 Nb19 2.667234 1_455
Ga21 Nb38 2.676579 1_555
Ga21 Nb28 2.714732 1_555
Ga21 Nb2 2.748632 1_555
Ga21 Ga28 2.754683 1_555
Ga21 Nb48 2.780590 1_555
Ga21 Nb55 2.788122 1_555
Ga21 Nb33 2.838599 1_555
Ga22 Nb16 2.667234 1_555
Ga22 Nb37 2.676579 1_565
Ga22 Nb30 2.714732 1_555
Ga22 Nb1 2.748632 1_555
Ga22 Ga30 2.754683 1_555
Ga22 Nb50 2.780590 1_555
Ga22 Nb52 2.788122 1_555
Ga22 Nb32 2.838599 1_565
Ga23 Nb17 2.667234 1_555
Ga23 Nb36 2.676579 1_545
Ga23 Nb31 2.714732 1_555
Ga23 Nb0 2.748632 1_555
Ga23 Ga31 2.754683 1_555
Ga23 Nb51 2.780590 1_555
Ga23 Nb53 2.788122 1_555
Ga23 Nb32 2.838599 1_555
Ga24 Nb30 2.667234 1_545
Ga24 Nb51 2.676579 1_555
Ga24 Ga9 2.690945 1_555
Ga24 Nb17 2.714732 1_555
Ga24 Nb6 2.748632 1_555
Ga24 Nb37 2.780590 1_555
Ga24 Nb59 2.788122 1_555
Ga24 Nb32 2.838599 1_555
Ga25 Nb31 2.667234 1_565
Ga25 Nb50 2.676579 1_555
Ga25 Ga8 2.690945 1_555
Ga25 Nb16 2.714732 1_555
Ga25 Nb7 2.748632 1_555
Ga25 Nb36 2.780590 1_555
Ga25 Nb58 2.788122 1_555
Ga25 Nb32 2.838599 1_565
Ga26 Nb28 2.667234 1_555
Ga26 Nb49 2.676579 1_455
Ga26 Nb18 2.714732 1_555
Ga26 Nb5 2.748632 1_555
Ga26 Nb38 2.780590 1_555
Ga26 Nb56 2.788122 1_555
Ga26 Nb33 2.838599 1_555
Ga27 Nb29 2.667234 1_555
Ga27 Nb48 2.676579 1_655
Ga27 Nb19 2.714732 1_555
Ga27 Nb4 2.748632 1_555
Ga27 Nb39 2.780590 1_555
Ga27 Nb57 2.788122 1_555
Ga27 Nb33 2.838599 1_655
Ga28 Nb26 2.667234 1_565
Ga28 Nb47 2.676579 1_555
Ga28 Nb21 2.714732 1_555
Ga28 Nb2 2.748632 1_555
Ga28 Nb41 2.780590 1_555
Ga28 Nb55 2.788122 1_555
Ga28 Nb34 2.838599 1_565
Ga29 Nb27 2.667234 1_545
Ga29 Nb46 2.676579 1_555
Ga29 Nb20 2.714732 1_555
Ga29 Nb3 2.748632 1_555
Ga29 Nb40 2.780590 1_555
Ga29 Nb54 2.788122 1_555
Ga29 Nb34 2.838599 1_555
Ga30 Nb24 2.667234 1_555
Ga30 Nb45 2.676579 1_655
Ga30 Nb22 2.714732 1_555
Ga30 Nb1 2.748632 1_555
Ga30 Nb42 2.780590 1_555
Ga30 Nb52 2.788122 1_555
Ga30 Nb35 2.838599 1_655
Ga31 Nb25 2.667234 1_555
Ga31 Nb44 2.676579 1_455
Ga31 Nb23 2.714732 1_555
Ga31 Nb0 2.748632 1_555
Ga31 Nb43 2.780590 1_555
Ga31 Nb53 2.788122 1_555
Ga31 Nb35 2.838599 1_555
Ga32 Ga8 2.658941 1_555
Ga32 Nb36 2.681460 1_555
Ga32 Nb45 2.681460 1_555
Ga32 Ga65 2.684822 1_455
Ga32 Ga64 2.684822 1_565
Ga32 Nb52 2.736802 1_455
Ga32 Nb53 2.736802 1_565
Ga32 Ga72 2.750056 1_555
Ga32 Nb60 3.152044 1_555
Ga33 Ga9 2.658941 1_555
Ga33 Nb44 2.681460 1_555
Ga33 Nb37 2.681460 1_555
Ga33 Ga65 2.684822 1_545
Ga33 Ga64 2.684822 1_655
Ga33 Nb52 2.736802 1_545
Ga33 Nb53 2.736802 1_655
Ga33 Ga73 2.750056 1_555
Ga33 Nb61 3.152044 1_555
Ga34 Nb38 2.681460 1_555
Ga34 Nb46 2.681460 1_555
Ga34 Ga66 2.684822 1_555
Ga34 Ga67 2.684822 1_555
Ga34 Nb54 2.736802 1_555
Ga34 Nb55 2.736802 1_555
Ga34 Ga74 2.750056 1_555
Ga34 Nb62 3.152044 1_556
Ga35 Nb47 2.681460 1_555
Ga35 Nb39 2.681460 1_555
Ga35 Ga66 2.684822 1_555
Ga35 Ga67 2.684822 1_555
Ga35 Nb54 2.736802 1_555
Ga35 Nb55 2.736802 1_555
Ga35 Ga75 2.750056 1_555
Ga35 Nb63 3.152044 1_556
Ga36 Nb49 2.681460 1_555
Ga36 Nb40 2.681460 1_555
Ga36 Ga68 2.684822 1_545
Ga36 Ga69 2.684822 1_655
Ga36 Nb57 2.736802 1_545
Ga36 Nb56 2.736802 1_655
Ga36 Ga76 2.750056 1_555
Ga36 Nb61 3.152044 1_555
Ga37 Nb41 2.681460 1_555
Ga37 Nb48 2.681460 1_555
Ga37 Ga68 2.684822 1_455
Ga37 Ga69 2.684822 1_565
Ga37 Nb57 2.736802 1_455
Ga37 Nb56 2.736802 1_565
Ga37 Ga77 2.750056 1_555
Ga37 Nb60 3.152044 1_555
Ga38 Nb50 2.681460 1_555
Ga38 Nb42 2.681460 1_555
Ga38 Ga70 2.684822 1_555
Ga38 Ga71 2.684822 1_555
Ga38 Nb58 2.736802 1_555
Ga38 Nb59 2.736802 1_555
Ga38 Ga78 2.750056 1_555
Ga38 Nb63 3.152044 1_555
Ga39 Nb43 2.681460 1_555
Ga39 Nb51 2.681460 1_555
Ga39 Ga70 2.684822 1_555
Ga39 Ga71 2.684822 1_555
Ga39 Nb58 2.736802 1_555
Ga39 Nb59 2.736802 1_555
Ga39 Ga79 2.750056 1_555
Ga39 Nb62 3.152044 1_555
Ga40 Nb36 2.675425 1_545
Ga40 Nb41 2.675425 1_545
Ga40 Ga69 2.754590 1_555
Ga40 Ga64 2.754590 1_555
Ga40 Nb0 2.800317 1_555
Ga40 Nb5 2.800317 1_555
Ga40 Nb8 2.807395 1_545
Ga40 Nb60 2.972829 1_545
Ga40 Ga48 3.041842 1_555
Ga40 Ga50 3.041842 1_555
Ga41 Nb40 2.675425 1_565
Ga41 Nb37 2.675425 1_565
Ga41 Ga68 2.754590 1_555
Ga41 Ga65 2.754590 1_555
Ga41 Nb4 2.800317 1_555
Ga41 Nb1 2.800317 1_555
Ga41 Nb9 2.807395 1_565
Ga41 Nb61 2.972829 1_565
Ga41 Ga48 3.041842 1_565
Ga41 Ga50 3.041842 1_565
Ga42 Nb43 2.675425 1_555
Ga42 Nb38 2.675425 1_554
Ga42 Ga71 2.754590 1_555
Ga42 Ga66 2.754590 1_554
Ga42 Nb7 2.800317 1_555
Ga42 Nb2 2.800317 1_554
Ga42 Nb10 2.807395 1_555
Ga42 Nb62 2.972829 1_555
Ga42 Ga49 3.041842 1_554
Ga42 Ga51 3.041842 1_555
Ga43 Nb42 2.675425 1_555
Ga43 Nb39 2.675425 1_554
Ga43 Ga70 2.754590 1_555
Ga43 Ga67 2.754590 1_554
Ga43 Nb3 2.800317 1_554
Ga43 Nb6 2.800317 1_555
Ga43 Nb11 2.807395 1_555
Ga43 Nb63 2.972829 1_555
Ga43 Ga49 3.041842 1_654
Ga43 Ga51 3.041842 1_655
Ga44 Nb49 2.675425 1_455
Ga44 Nb44 2.675425 1_455
Ga44 Ga69 2.754590 1_555
Ga44 Ga64 2.754590 1_555
Ga44 Nb0 2.800317 1_555
Ga44 Nb5 2.800317 1_555
Ga44 Nb12 2.807395 1_455
Ga44 Nb61 2.972829 1_455
Ga44 Ga52 3.041842 1_555
Ga44 Ga54 3.041842 1_555
Ga45 Nb48 2.675425 1_655
Ga45 Nb45 2.675425 1_655
Ga45 Ga68 2.754590 1_555
Ga45 Ga65 2.754590 1_555
Ga45 Nb4 2.800317 1_555
Ga45 Nb1 2.800317 1_555
Ga45 Nb13 2.807395 1_655
Ga45 Ga5 2.809036 1_555
Ga45 Nb60 2.972829 1_655
Ga45 Ga52 3.041842 1_655
Ga45 Ga54 3.041842 1_655
Ga46 Nb51 2.675425 1_555
Ga46 Nb46 2.675425 1_554
Ga46 Ga67 2.754590 1_554
Ga46 Ga70 2.754590 1_555
Ga46 Nb3 2.800317 1_554
Ga46 Nb6 2.800317 1_555
Ga46 Nb14 2.807395 1_555
Ga46 Ga6 2.809036 1_555
Ga46 Nb62 2.972829 1_555
Ga46 Ga53 3.041842 1_554
Ga46 Ga55 3.041842 1_555
Ga47 Nb50 2.675425 1_555
Ga47 Nb47 2.675425 1_554
Ga47 Ga71 2.754590 1_555
Ga47 Ga66 2.754590 1_554
Ga47 Nb2 2.800317 1_554
Ga47 Nb7 2.800317 1_555
Ga47 Nb15 2.807395 1_555
Ga47 Ga7 2.809036 1_555
Ga47 Nb63 2.972829 1_555
Ga47 Ga55 3.041842 1_565
Ga47 Ga53 3.041842 1_564
Ga48 Ga50 2.668292 1_555
Ga48 Nb17 2.702328 1_555
Ga48 Nb16 2.702328 1_545
Ga48 Nb37 2.731877 1_555
Ga48 Nb36 2.731877 1_545
Ga48 Nb9 2.844130 1_555
Ga48 Nb8 2.844130 1_545
Ga48 Nb32 2.963452 1_555
Ga49 Ga51 2.668292 1_556
Ga49 Nb18 2.702328 1_555
Ga49 Nb19 2.702328 1_455
Ga49 Nb39 2.731877 1_455
Ga49 Nb38 2.731877 1_555
Ga49 Nb10 2.844130 1_556
Ga49 Nb11 2.844130 1_456
Ga49 Nb33 2.963452 1_555
Ga50 Nb20 2.702328 1_555
Ga50 Nb21 2.702328 1_545
Ga50 Nb40 2.731877 1_555
Ga50 Nb41 2.731877 1_545
Ga50 Nb9 2.844130 1_555
Ga50 Nb8 2.844130 1_545
Ga50 Nb34 2.963452 1_555
Ga51 Nb23 2.702328 1_555
Ga51 Nb22 2.702328 1_455
Ga51 Nb43 2.731877 1_555
Ga51 Nb42 2.731877 1_455
Ga51 Nb10 2.844130 1_555
Ga51 Nb11 2.844130 1_455
Ga51 Nb35 2.963452 1_555
Ga52 Ga54 2.668292 1_555
Ga52 Nb25 2.702328 1_555
Ga52 Nb24 2.702328 1_455
Ga52 Nb45 2.731877 1_555
Ga52 Nb44 2.731877 1_455
Ga52 Nb13 2.844130 1_555
Ga52 Nb12 2.844130 1_455
Ga52 Nb35 2.963452 1_555
Ga53 Ga55 2.668292 1_556
Ga53 Nb26 2.702328 1_555
Ga53 Nb27 2.702328 1_545
Ga53 Nb47 2.731877 1_545
Ga53 Nb46 2.731877 1_555
Ga53 Nb14 2.844130 1_556
Ga53 Nb15 2.844130 1_546
Ga53 Nb34 2.963452 1_555
Ga54 Nb28 2.702328 1_555
Ga54 Nb29 2.702328 1_455
Ga54 Nb48 2.731877 1_555
Ga54 Nb49 2.731877 1_455
Ga54 Nb13 2.844130 1_555
Ga54 Nb12 2.844130 1_455
Ga54 Nb33 2.963452 1_555
Ga55 Nb31 2.702328 1_555
Ga55 Nb30 2.702328 1_545
Ga55 Nb50 2.731877 1_545
Ga55 Nb51 2.731877 1_555
Ga55 Nb14 2.844130 1_555
Ga55 Nb15 2.844130 1_545
Ga55 Nb32 2.963452 1_555
Ga56 Ga61 2.560646 1_555
Ga56 Ga8 2.589834 1_555
Ga56 Nb25 2.799524 1_555
Ga56 Nb16 2.799524 1_555
Ga56 Nb58 2.874873 1_555
Ga56 Ga78 2.931555 1_555
Ga56 Ga79 2.931555 1_555
Ga56 Nb13 3.040680 1_555
Ga56 Nb8 3.040680 1_555
Ga57 Ga60 2.560646 1_555
Ga57 Ga9 2.589834 1_555
Ga57 Nb17 2.799524 1_555
Ga57 Nb24 2.799524 1_555
Ga57 Nb59 2.874873 1_555
Ga57 Ga78 2.931555 1_555
Ga57 Ga79 2.931555 1_555
Ga57 Nb9 3.040680 1_555
Ga57 Nb12 3.040680 1_555
Ga58 Ga63 2.560646 1_556
Ga58 Nb26 2.799524 1_555
Ga58 Nb18 2.799524 1_555
Ga58 Nb56 2.874873 1_555
Ga58 Ga76 2.931555 1_455
Ga58 Ga77 2.931555 1_545
Ga58 Ga7 2.975128 1_546
Ga58 Nb14 3.040680 1_556
Ga58 Nb10 3.040680 1_556
Ga59 Ga62 2.560646 1_556
Ga59 Nb27 2.799524 1_555
Ga59 Nb19 2.799524 1_555
Ga59 Nb57 2.874873 1_555
Ga59 Ga77 2.931555 1_655
Ga59 Ga76 2.931555 1_565
Ga59 Ga6 2.975128 1_566
Ga59 Nb11 3.040680 1_556
Ga59 Nb15 3.040680 1_556
Ga60 Nb20 2.799524 1_555
Ga60 Nb29 2.799524 1_555
Ga60 Nb54 2.874873 1_555
Ga60 Ga75 2.931555 1_555
Ga60 Ga74 2.931555 1_555
Ga60 Nb9 3.040680 1_555
Ga60 Nb12 3.040680 1_555
Ga61 Nb28 2.799524 1_555
Ga61 Nb21 2.799524 1_555
Ga61 Nb55 2.874873 1_555
Ga61 Ga75 2.931555 1_555
Ga61 Ga74 2.931555 1_555
Ga61 Nb13 3.040680 1_555
Ga61 Nb8 3.040680 1_555
Ga62 Nb30 2.799524 1_555
Ga62 Nb22 2.799524 1_555
Ga62 Nb52 2.874873 1_555
Ga62 Ga73 2.931555 1_565
Ga62 Ga72 2.931555 1_655
Ga62 Nb11 3.040680 1_555
Ga62 Nb15 3.040680 1_555
Ga63 Nb23 2.799524 1_555
Ga63 Nb31 2.799524 1_555
Ga63 Nb53 2.874873 1_555
Ga63 Ga72 2.931555 1_545
Ga63 Ga73 2.931555 1_455
Ga63 Ga7 2.975128 1_545
Ga63 Nb10 3.040680 1_555
Ga63 Nb14 3.040680 1_555
Ga64 Nb0 2.748608 1_555
Ga64 Nb36 2.847195 1_545
Ga64 Nb44 2.847195 1_455
Ga64 Nb60 2.921227 1_545
Ga64 Nb61 2.921227 1_455
Ga64 Nb53 2.931632 1_555
Ga64 Ga65 3.035825 1_445
Ga64 Ga69 3.057586 1_555
Ga65 Nb1 2.748608 1_555
Ga65 Nb45 2.847195 1_655
Ga65 Nb37 2.847195 1_565
Ga65 Nb61 2.921227 1_565
Ga65 Nb60 2.921227 1_655
Ga65 Nb52 2.931632 1_555
Ga65 Ga68 3.057586 1_555
Ga66 Nb2 2.748608 1_555
Ga66 Nb38 2.847195 1_555
Ga66 Nb47 2.847195 1_555
Ga66 Nb63 2.921227 1_556
Ga66 Nb62 2.921227 1_556
Ga66 Nb55 2.931632 1_555
Ga66 Ga67 3.035825 1_555
Ga66 Ga71 3.057586 1_556
Ga67 Nb3 2.748608 1_555
Ga67 Nb46 2.847195 1_555
Ga67 Nb39 2.847195 1_555
Ga67 Nb63 2.921227 1_556
Ga67 Nb62 2.921227 1_556
Ga67 Nb54 2.931632 1_555
Ga67 Ga70 3.057586 1_556
Ga68 Nb4 2.748608 1_555
Ga68 Nb48 2.847195 1_655
Ga68 Nb40 2.847195 1_565
Ga68 Nb60 2.921227 1_655
Ga68 Nb61 2.921227 1_565
Ga68 Nb57 2.931632 1_555
Ga68 Ga69 3.035825 1_665
Ga69 Nb5 2.748608 1_555
Ga69 Nb41 2.847195 1_545
Ga69 Nb49 2.847195 1_455
Ga69 Nb61 2.921227 1_455
Ga69 Nb60 2.921227 1_545
Ga69 Nb56 2.931632 1_555
Ga70 Nb6 2.748608 1_555
Ga70 Nb51 2.847195 1_555
Ga70 Nb42 2.847195 1_555
Ga70 Nb63 2.921227 1_555
Ga70 Nb62 2.921227 1_555
Ga70 Nb59 2.931632 1_555
Ga70 Ga71 3.035825 1_555
Ga71 Nb7 2.748608 1_555
Ga71 Nb43 2.847195 1_555
Ga71 Nb50 2.847195 1_555
Ga71 Nb63 2.921227 1_555
Ga71 Nb62 2.921227 1_555
Ga71 Nb58 2.931632 1_555
Ga72 Nb7 2.721812 1_555
Ga72 Nb22 2.735682 1_455
Ga72 Nb31 2.735682 1_565
Ga72 Nb52 2.838591 1_455
Ga72 Nb53 2.838591 1_565
Ga73 Nb6 2.721812 1_555
Ga73 Nb30 2.735682 1_545
Ga73 Nb23 2.735682 1_655
Ga73 Nb52 2.838591 1_545
Ga73 Nb53 2.838591 1_655
Ga74 Nb5 2.721812 1_555
Ga74 Nb28 2.735682 1_555
Ga74 Nb20 2.735682 1_555
Ga74 Nb55 2.838591 1_555
Ga74 Nb54 2.838591 1_555
Ga75 Nb4 2.721812 1_555
Ga75 Nb29 2.735682 1_555
Ga75 Nb21 2.735682 1_555
Ga75 Nb55 2.838591 1_555
Ga75 Nb54 2.838591 1_555
Ga76 Nb3 2.721812 1_555
Ga76 Nb27 2.735682 1_545
Ga76 Nb18 2.735682 1_655
Ga76 Nb57 2.838591 1_545
Ga76 Nb56 2.838591 1_655
Ga77 Nb2 2.721812 1_555
Ga77 Nb19 2.735682 1_455
Ga77 Nb26 2.735682 1_565
Ga77 Nb57 2.838591 1_455
Ga77 Nb56 2.838591 1_565
Ga78 Nb1 2.721812 1_555
Ga78 Nb24 2.735682 1_555
Ga78 Nb16 2.735682 1_555
Ga78 Nb58 2.838591 1_555
Ga78 Nb59 2.838591 1_555
Ga79 Nb0 2.721812 1_555
Ga79 Nb17 2.735682 1_555
Ga79 Nb25 2.735682 1_555
Ga79 Nb58 2.838591 1_555
Ga79 Nb59 2.838591 1_555
