# generated using pymatgen
data_Cr5(SiN3)3
_symmetry_space_group_name_H-M   'P 1'
_cell_length_a   7.09507683
_cell_length_b   11.30231049
_cell_length_c   14.92718100
_cell_angle_alpha   90.00000000
_cell_angle_beta   90.00000000
_cell_angle_gamma   142.79619044
_symmetry_Int_Tables_number   1
_chemical_formula_structural   Cr5(SiN3)3
_chemical_formula_sum   'Cr20 Si12 N36'
_cell_volume   723.78184039
_cell_formula_units_Z   4
loop_
 _symmetry_equiv_pos_site_id
 _symmetry_equiv_pos_as_xyz
  1  'x, y, z'
loop_
 _atom_site_type_symbol
 _atom_site_label
 _atom_site_symmetry_multiplicity
 _atom_site_fract_x
 _atom_site_fract_y
 _atom_site_fract_z
 _atom_site_occupancy
  Cr  Cr0  1  0.00000000  0.57224900  0.86507800  1
  Cr  Cr1  1  0.00000000  0.42775100  0.13492200  1
  Cr  Cr2  1  0.00000000  0.92775100  0.36507800  1
  Cr  Cr3  1  0.00000000  0.07224900  0.63492200  1
  Cr  Cr4  1  0.44386800  0.06176400  0.86441200  1
  Cr  Cr5  1  0.44386800  0.38210400  0.13558800  1
  Cr  Cr6  1  0.44386800  0.88210400  0.36441200  1
  Cr  Cr7  1  0.44386800  0.56176400  0.63558800  1
  Cr  Cr8  1  0.55613200  0.93823600  0.13558800  1
  Cr  Cr9  1  0.55613200  0.61789600  0.86441200  1
  Cr  Cr10  1  0.55613200  0.11789600  0.63558800  1
  Cr  Cr11  1  0.55613200  0.43823600  0.36441200  1
  Cr  Cr12  1  0.00000000  0.45734100  0.57804800  1
  Cr  Cr13  1  0.00000000  0.54265900  0.42195200  1
  Cr  Cr14  1  0.00000000  0.04265900  0.07804800  1
  Cr  Cr15  1  0.00000000  0.95734100  0.92195200  1
  Cr  Cr16  1  0.63055700  0.31527800  0.00000000  1
  Cr  Cr17  1  0.63055700  0.81527800  0.50000000  1
  Cr  Cr18  1  0.36944300  0.68472200  0.00000000  1
  Cr  Cr19  1  0.36944300  0.18472200  0.50000000  1
  Si  Si0  1  0.00000000  0.76659400  0.02892200  1
  Si  Si1  1  0.00000000  0.23340600  0.97107800  1
  Si  Si2  1  0.00000000  0.73340600  0.52892200  1
  Si  Si3  1  0.00000000  0.26659400  0.47107800  1
  Si  Si4  1  0.00000000  0.27072000  0.74990200  1
  Si  Si5  1  0.00000000  0.72928000  0.25009800  1
  Si  Si6  1  0.00000000  0.22928000  0.24990200  1
  Si  Si7  1  0.00000000  0.77072000  0.75009800  1
  Si  Si8  1  0.50000000  0.83163000  0.75000000  1
  Si  Si9  1  0.50000000  0.66837000  0.25000000  1
  Si  Si10  1  0.50000000  0.16837000  0.25000000  1
  Si  Si11  1  0.50000000  0.33163000  0.75000000  1
  N  N0  1  0.00000000  0.40479700  0.69598000  1
  N  N1  1  0.00000000  0.59520300  0.30402000  1
  N  N2  1  0.00000000  0.09520300  0.19598000  1
  N  N3  1  0.00000000  0.90479700  0.80402000  1
  N  N4  1  0.00000000  0.26610100  0.86129400  1
  N  N5  1  0.00000000  0.73389900  0.13870600  1
  N  N6  1  0.00000000  0.23389900  0.36129400  1
  N  N7  1  0.00000000  0.76610100  0.63870600  1
  N  N8  1  0.00000000  0.62151500  0.98324200  1
  N  N9  1  0.00000000  0.37848500  0.01675800  1
  N  N10  1  0.00000000  0.87848500  0.48324200  1
  N  N11  1  0.00000000  0.12151500  0.51675800  1
  N  N12  1  0.71388200  0.54844300  0.80542900  1
  N  N13  1  0.71388200  0.16544000  0.19457100  1
  N  N14  1  0.71388200  0.66544000  0.30542900  1
  N  N15  1  0.71388200  0.04844300  0.69457100  1
  N  N16  1  0.28611800  0.45155700  0.19457100  1
  N  N17  1  0.28611800  0.83456000  0.80542900  1
  N  N18  1  0.28611800  0.33456000  0.69457100  1
  N  N19  1  0.28611800  0.95155700  0.30542900  1
  N  N20  1  0.59580200  0.28999900  0.84695500  1
  N  N21  1  0.59580200  0.30580300  0.15304500  1
  N  N22  1  0.59580200  0.80580300  0.34695500  1
  N  N23  1  0.59580200  0.78999900  0.65304500  1
  N  N24  1  0.40419800  0.71000100  0.15304500  1
  N  N25  1  0.40419800  0.69419700  0.84695500  1
  N  N26  1  0.40419800  0.19419700  0.65304500  1
  N  N27  1  0.40419800  0.21000100  0.34695500  1
  N  N28  1  0.29905100  0.01398100  0.98946400  1
  N  N29  1  0.29905100  0.28506900  0.01053600  1
  N  N30  1  0.29905100  0.78506900  0.48946400  1
  N  N31  1  0.29905100  0.51398100  0.51053600  1
  N  N32  1  0.70094900  0.98601900  0.01053600  1
  N  N33  1  0.70094900  0.71493100  0.98946400  1
  N  N34  1  0.70094900  0.21493100  0.51053600  1
  N  N35  1  0.70094900  0.48601900  0.48946400  1
loop_
_geom_bond_atom_site_label_1
_geom_bond_atom_site_label_2
_geom_bond_distance
_geom_bond_site_symmetry_2
Cr0 N8 1.849658 1_555
Cr0 N20 1.975015 1_455
Cr0 N25 1.975016 1_555
Cr0 N17 2.028814 1_555
Cr0 N12 2.028821 1_455
Cr1 N9 1.849658 1_555
Cr1 N24 1.975015 1_555
Cr1 N21 1.975016 1_455
Cr1 N13 2.028814 1_455
Cr1 N16 2.028821 1_555
Cr2 N10 1.849658 1_555
Cr2 N27 1.975015 1_565
Cr2 N22 1.975016 1_455
Cr2 N14 2.028814 1_455
Cr2 N19 2.028821 1_555
Cr3 N11 1.849658 1_555
Cr3 N23 1.975015 1_445
Cr3 N26 1.975016 1_555
Cr3 N18 2.028814 1_555
Cr3 N15 2.028821 1_455
Cr4 N20 1.858636 1_555
Cr4 N28 1.986936 1_555
Cr4 N17 2.010898 1_545
Cr4 N3 2.231116 1_545
Cr4 N4 2.527604 1_655
Cr5 N21 1.858636 1_555
Cr5 N29 1.986938 1_555
Cr5 N16 2.010888 1_555
Cr5 N2 2.231115 1_555
Cr5 N5 2.527604 1_655
Cr6 N22 1.858636 1_555
Cr6 N30 1.986938 1_555
Cr6 N19 2.010888 1_555
Cr6 N1 2.231115 1_555
Cr6 N6 2.527604 1_665
Cr7 N23 1.858636 1_555
Cr7 N31 1.986936 1_555
Cr7 N18 2.010898 1_555
Cr7 N0 2.231116 1_555
Cr7 N7 2.527604 1_655
Cr8 N24 1.858636 1_555
Cr8 N32 1.986936 1_555
Cr8 N13 2.010898 1_565
Cr8 N2 2.231116 1_665
Cr8 N5 2.527604 1_555
Cr9 N25 1.858636 1_555
Cr9 N33 1.986938 1_555
Cr9 N12 2.010888 1_555
Cr9 N3 2.231115 1_655
Cr9 N4 2.527604 1_555
Cr10 N26 1.858636 1_555
Cr10 N34 1.986938 1_555
Cr10 N15 2.010888 1_555
Cr10 N0 2.231115 1_655
Cr10 N7 2.527604 1_545
Cr11 N27 1.858636 1_555
Cr11 N35 1.986936 1_555
Cr11 N14 2.010898 1_555
Cr11 N1 2.231116 1_655
Cr11 N6 2.527604 1_555
Cr12 N0 1.857865 1_555
Cr12 N34 1.940009 1_455
Cr12 N31 1.940015 1_555
Cr13 N1 1.857865 1_555
Cr13 N30 1.940009 1_555
Cr13 N35 1.940015 1_455
Cr14 N2 1.857865 1_555
Cr14 N29 1.940009 1_555
Cr14 N32 1.940015 1_445
Cr15 N3 1.857865 1_555
Cr15 N33 1.940009 1_455
Cr15 N28 1.940015 1_565
Cr16 N28 2.096241 1_554
Cr16 N29 2.096242 1_555
Cr16 N9 2.112059 1_655
Cr16 N8 2.112066 1_654
Cr16 N20 2.291132 1_554
Cr16 N21 2.291132 1_555
Cr17 N31 2.096241 1_555
Cr17 N30 2.096242 1_555
Cr17 N10 2.112059 1_655
Cr17 N11 2.112066 1_665
Cr17 N23 2.291132 1_555
Cr17 N22 2.291132 1_555
Cr18 N32 2.096241 1_555
Cr18 N33 2.096242 1_554
Cr18 N8 2.112059 1_554
Cr18 N9 2.112066 1_555
Cr18 N24 2.291132 1_555
Cr18 N25 2.291132 1_554
Cr19 N35 2.096241 1_555
Cr19 N34 2.096242 1_555
Cr19 N11 2.112059 1_555
Cr19 N10 2.112066 1_545
Cr19 N27 2.291132 1_555
Cr19 N26 2.291132 1_555
N0 Si4 1.715880 1_555
N1 Si5 1.715880 1_555
N2 Si6 1.715880 1_555
N3 Si7 1.715880 1_555
N4 Si4 1.663588 1_555
N4 Si1 1.679912 1_555
N5 Si5 1.663588 1_555
N5 Si0 1.679912 1_555
N6 Si6 1.663588 1_555
N6 Si3 1.679912 1_555
N7 Si7 1.663588 1_555
N7 Si2 1.679912 1_555
N8 Si0 1.775855 1_556
N9 Si1 1.775855 1_554
N10 Si2 1.775855 1_555
N11 Si3 1.775855 1_555
N12 Si7 1.729299 1_655
N12 Si11 1.751742 1_555
N13 Si6 1.729305 1_655
N13 Si10 1.751734 1_555
N14 Si5 1.729305 1_655
N14 Si9 1.751734 1_555
N15 Si4 1.729299 1_655
N15 Si8 1.751742 1_545
N16 Si6 1.729299 1_555
N16 Si9 1.751742 1_555
N17 Si7 1.729305 1_555
N17 Si8 1.751734 1_555
N18 Si4 1.729305 1_555
N18 Si11 1.751734 1_555
N19 Si5 1.729299 1_555
N19 Si10 1.751742 1_565
N20 Si11 1.813139 1_555
N21 Si10 1.813139 1_555
N22 Si9 1.813139 1_555
N23 Si8 1.813139 1_555
N24 Si9 1.813139 1_555
N25 Si8 1.813139 1_555
N26 Si11 1.813139 1_555
N27 Si10 1.813139 1_555
N28 Si0 1.793386 1_546
N29 Si1 1.793394 1_554
N30 Si2 1.793394 1_555
N31 Si3 1.793386 1_555
N32 Si1 1.793386 1_664
N33 Si0 1.793394 1_656
N34 Si3 1.793394 1_655
N35 Si2 1.793386 1_655
