# generated using pymatgen
data_Tm2SbTe
_symmetry_space_group_name_H-M   'P 1'
_cell_length_a   7.47168556
_cell_length_b   7.47168556
_cell_length_c   7.47168537
_cell_angle_alpha   33.53803976
_cell_angle_beta   33.53803976
_cell_angle_gamma   33.53804315
_symmetry_Int_Tables_number   1
_chemical_formula_structural   Tm2SbTe
_chemical_formula_sum   'Tm2 Sb1 Te1'
_cell_volume   113.40561861
_cell_formula_units_Z   1
loop_
 _symmetry_equiv_pos_site_id
 _symmetry_equiv_pos_as_xyz
  1  'x, y, z'
loop_
 _atom_site_type_symbol
 _atom_site_label
 _atom_site_symmetry_multiplicity
 _atom_site_fract_x
 _atom_site_fract_y
 _atom_site_fract_z
 _atom_site_occupancy
  Tm  Tm0  1  0.25436461  0.25436461  0.25436461  1
  Tm  Tm1  1  0.74563539  0.74563539  0.74563539  1
  Sb  Sb0  1  0.00000000  0.00000000  -0.00000000  1
  Te  Te0  1  0.50000000  0.50000000  0.50000000  1
loop_
_geom_bond_atom_site_label_1
_geom_bond_atom_site_label_2
_geom_bond_distance
_geom_bond_site_symmetry_2
Sb0 Tm1 2.996906 1_445
Sb0 Tm0 2.996906 1_554
Sb0 Tm0 2.996906 1_545
Sb0 Tm1 2.996906 1_544
Sb0 Tm1 2.996906 1_454
Sb0 Tm0 2.996906 1_455
Te0 Tm1 3.103433 1_554
Te0 Tm0 3.103433 1_556
Te0 Tm1 3.103433 1_455
Te0 Tm1 3.103433 1_545
Te0 Tm0 3.103433 1_655
Te0 Tm0 3.103433 1_565
