# generated using pymatgen
data_Cs2CaF4
_symmetry_space_group_name_H-M   'P 1'
_cell_length_a   4.49853317
_cell_length_b   4.49852778
_cell_length_c   8.06947028
_cell_angle_alpha   106.17919018
_cell_angle_beta   106.17889047
_cell_angle_gamma   90.00331218
_symmetry_Int_Tables_number   1
_chemical_formula_structural   Cs2CaF4
_chemical_formula_sum   'Cs2 Ca1 F4'
_cell_volume   150.08606471
_cell_formula_units_Z   1
loop_
 _symmetry_equiv_pos_site_id
 _symmetry_equiv_pos_as_xyz
  1  'x, y, z'
loop_
 _atom_site_type_symbol
 _atom_site_label
 _atom_site_symmetry_multiplicity
 _atom_site_fract_x
 _atom_site_fract_y
 _atom_site_fract_z
 _atom_site_occupancy
  Cs  Cs0  1  0.64930548  0.64927606  0.29862746  1
  Cs  Cs1  1  0.35069452  0.35072394  0.70137254  1
  Ca  Ca0  1  0.00000000  0.00000000  -0.00000000  1
  F  F0  1  0.50000000  0.00000000  -0.00000000  1
  F  F1  1  0.00000000  0.50000000  -0.00000000  1
  F  F2  1  0.84793297  0.84793837  0.69579632  1
  F  F3  1  0.15206703  0.15206163  0.30420368  1
loop_
_geom_bond_atom_site_label_1
_geom_bond_atom_site_label_2
_geom_bond_distance
_geom_bond_site_symmetry_2
Cs0 F2 2.945603 1_555
Cs0 F1 3.156527 1_655
Cs0 F0 3.156628 1_565
Cs0 F0 3.156658 1_555
Cs0 F1 3.156764 1_555
Cs0 F3 3.181031 1_665
Cs0 F3 3.181206 1_555
Cs0 F3 3.181226 1_655
Cs0 F3 3.181378 1_565
Cs1 F3 2.945603 1_555
Cs1 F1 3.156527 1_556
Cs1 F0 3.156628 1_556
Cs1 F0 3.156658 1_566
Cs1 F1 3.156764 1_656
Cs1 F2 3.181031 1_445
Cs1 F2 3.181206 1_555
Cs1 F2 3.181226 1_455
Cs1 F2 3.181378 1_545
Ca0 F1 2.249264 1_545
Ca0 F1 2.249264 1_555
Ca0 F0 2.249267 1_455
Ca0 F0 2.249267 1_555
Ca0 F3 2.256127 1_555
Ca0 F2 2.256127 1_444
