# generated using pymatgen
data_MgTiCu(PO4)3
_symmetry_space_group_name_H-M   'P 1'
_cell_length_a   8.48374475
_cell_length_b   8.48374475
_cell_length_c   8.48374458
_cell_angle_alpha   60.92542076
_cell_angle_beta   60.92542076
_cell_angle_gamma   60.92541182
_symmetry_Int_Tables_number   1
_chemical_formula_structural   MgTiCu(PO4)3
_chemical_formula_sum   'Mg2 Ti2 Cu2 P6 O24'
_cell_volume   440.76998326
_cell_formula_units_Z   2
loop_
 _symmetry_equiv_pos_site_id
 _symmetry_equiv_pos_as_xyz
  1  'x, y, z'
loop_
 _atom_site_type_symbol
 _atom_site_label
 _atom_site_symmetry_multiplicity
 _atom_site_fract_x
 _atom_site_fract_y
 _atom_site_fract_z
 _atom_site_occupancy
  Mg  Mg0  1  0.00399100  0.00399100  0.00399100  1
  Mg  Mg1  1  0.50399100  0.50399100  0.50399100  1
  Ti  Ti0  1  0.85658600  0.85658600  0.85658600  1
  Ti  Ti1  1  0.35658600  0.35658600  0.35658600  1
  Cu  Cu0  1  0.64478300  0.64478300  0.64478300  1
  Cu  Cu1  1  0.14478300  0.14478300  0.14478300  1
  P  P0  1  0.95490200  0.54453500  0.24889800  1
  P  P1  1  0.54453500  0.24889800  0.95490200  1
  P  P2  1  0.24889800  0.95490200  0.54453500  1
  P  P3  1  0.74889800  0.04453500  0.45490200  1
  P  P4  1  0.45490200  0.74889800  0.04453500  1
  P  P5  1  0.04453500  0.45490200  0.74889800  1
  O  O0  1  0.89040700  0.48755900  0.68296200  1
  O  O1  1  0.68296200  0.89040700  0.48755900  1
  O  O2  1  0.94496600  0.74348700  0.08906500  1
  O  O3  1  0.48755900  0.68296200  0.89040700  1
  O  O4  1  0.98755900  0.39040700  0.18296200  1
  O  O5  1  0.76031500  0.55659500  0.41124600  1
  O  O6  1  0.74348700  0.08906500  0.94496600  1
  O  O7  1  0.55659500  0.41124600  0.76031500  1
  O  O8  1  0.81326200  0.99523100  0.62121400  1
  O  O9  1  0.41124600  0.76031500  0.55659500  1
  O  O10  1  0.91124600  0.05659500  0.26031500  1
  O  O11  1  0.62121400  0.81326200  0.99523100  1
  O  O12  1  0.39040700  0.18296200  0.98755900  1
  O  O13  1  0.08906500  0.94496600  0.74348700  1
  O  O14  1  0.58906500  0.24348700  0.44496600  1
  O  O15  1  0.18296200  0.98755900  0.39040700  1
  O  O16  1  0.44496600  0.58906500  0.24348700  1
  O  O17  1  0.26031500  0.91124600  0.05659500  1
  O  O18  1  0.24348700  0.44496600  0.58906500  1
  O  O19  1  0.99523100  0.62121400  0.81326200  1
  O  O20  1  0.49523100  0.31326200  0.12121400  1
  O  O21  1  0.05659500  0.26031500  0.91124600  1
  O  O22  1  0.31326200  0.12121400  0.49523100  1
  O  O23  1  0.12121400  0.49523100  0.31326200  1
loop_
_geom_bond_atom_site_label_1
_geom_bond_atom_site_label_2
_geom_bond_distance
_geom_bond_site_symmetry_2
Mg0 O17 2.118037 1_545
Mg0 O10 2.118037 1_455
Mg0 O21 2.118037 1_554
Mg0 O6 2.197738 1_454
Mg0 O13 2.197738 1_544
Mg0 O2 2.197738 1_445
Mg1 O9 2.118037 1_555
Mg1 O7 2.118037 1_555
Mg1 O5 2.118037 1_555
Mg1 O14 2.197738 1_555
Mg1 O16 2.197738 1_555
Mg1 O18 2.197738 1_555
Cu0 O0 1.939342 1_555
Cu0 O3 1.939342 1_555
Cu0 O1 1.939342 1_555
Cu0 O9 2.070377 1_555
Cu0 O5 2.070377 1_555
Cu0 O7 2.070377 1_555
Cu1 O4 1.939342 1_455
Cu1 O15 1.939342 1_545
Cu1 O12 1.939342 1_554
Cu1 O17 2.070377 1_545
Cu1 O21 2.070377 1_554
Cu1 O10 2.070377 1_455
O0 P5 1.519083 1_655
O1 P3 1.519083 1_565
O2 P0 1.563038 1_555
O2 Ti0 2.066780 1_554
O3 P4 1.519083 1_556
O4 P0 1.519083 1_555
O5 P0 1.547803 1_555
O6 P1 1.563038 1_555
O6 Ti0 2.066780 1_545
O7 P1 1.547803 1_555
O8 P3 1.554710 1_565
O8 Ti0 1.875199 1_555
O9 P2 1.547803 1_555
O10 P3 1.547803 1_555
O11 P4 1.554711 1_556
O11 Ti0 1.875199 1_555
O12 P1 1.519083 1_555
O13 P2 1.563038 1_555
O13 Ti0 2.066780 1_455
O14 P3 1.563038 1_555
O14 Ti1 2.066780 1_555
O15 P2 1.519083 1_555
O16 P4 1.563038 1_555
O16 Ti1 2.066780 1_555
O17 P4 1.547803 1_555
O18 P5 1.563038 1_555
O18 Ti1 2.066780 1_555
O19 P5 1.554710 1_655
O19 Ti0 1.875199 1_555
O20 P1 1.554710 1_554
O20 Ti1 1.875199 1_555
O21 P5 1.547803 1_555
O22 P2 1.554711 1_545
O22 Ti1 1.875199 1_555
O23 P0 1.554710 1_455
O23 Ti1 1.875199 1_555
