# generated using pymatgen
data_PrMn7O12
_symmetry_space_group_name_H-M   'P 1'
_cell_length_a   6.54894233
_cell_length_b   6.54894233
_cell_length_c   7.57611369
_cell_angle_alpha   54.92291620
_cell_angle_beta   54.92291620
_cell_angle_gamma   70.42794674
_symmetry_Int_Tables_number   1
_chemical_formula_structural   PrMn7O12
_chemical_formula_sum   'Pr1 Mn7 O12'
_cell_volume   217.61437298
_cell_formula_units_Z   1
loop_
 _symmetry_equiv_pos_site_id
 _symmetry_equiv_pos_as_xyz
  1  'x, y, z'
loop_
 _atom_site_type_symbol
 _atom_site_label
 _atom_site_symmetry_multiplicity
 _atom_site_fract_x
 _atom_site_fract_y
 _atom_site_fract_z
 _atom_site_occupancy
  Pr  Pr0  1  0.00000000  0.00000000  0.00000000  1
  Mn  Mn0  1  0.00000000  0.00000000  0.50000000  1
  Mn  Mn1  1  0.50000000  0.50000000  0.50000000  1
  Mn  Mn2  1  0.50000000  0.50000000  0.00000000  1
  Mn  Mn3  1  0.00000000  0.50000000  0.00000000  1
  Mn  Mn4  1  0.50000000  0.00000000  0.00000000  1
  Mn  Mn5  1  0.00000000  0.50000000  0.50000000  1
  Mn  Mn6  1  0.50000000  0.00000000  0.50000000  1
  O  O0  1  0.68511800  0.29974800  0.83364600  1
  O  O1  1  0.70025200  0.31488200  0.16635400  1
  O  O2  1  0.31488200  0.70025200  0.16635400  1
  O  O3  1  0.29974800  0.68511800  0.83364600  1
  O  O4  1  0.17132400  0.17132400  0.13331000  1
  O  O5  1  0.82867600  0.82867600  0.86669000  1
  O  O6  1  0.82229600  0.82229600  0.48681200  1
  O  O7  1  0.17770400  0.17770400  0.51318800  1
  O  O8  1  0.13294100  0.48258100  0.68785300  1
  O  O9  1  0.51741900  0.86705900  0.31214700  1
  O  O10  1  0.86705900  0.51741900  0.31214700  1
  O  O11  1  0.48258100  0.13294100  0.68785300  1
loop_
_geom_bond_atom_site_label_1
_geom_bond_atom_site_label_2
_geom_bond_distance
_geom_bond_site_symmetry_2
Mn0 O7 1.973173 1_555
Mn0 O6 1.973173 1_445
Mn0 O4 1.978345 1_555
Mn0 O5 1.978345 1_445
Mn1 O10 1.970278 1_555
Mn1 O9 1.970278 1_555
Mn1 O8 1.970278 1_555
Mn1 O11 1.970278 1_555
Mn2 O1 1.963765 1_555
Mn2 O2 1.963765 1_555
Mn2 O0 1.963765 1_554
Mn2 O3 1.963765 1_554
Mn3 O3 1.976464 1_554
Mn3 O1 1.976464 1_455
Mn3 O4 2.024306 1_555
Mn3 O5 2.024306 1_454
Mn3 O10 2.059291 1_455
Mn3 O8 2.059291 1_554
Mn4 O0 1.976464 1_554
Mn4 O2 1.976464 1_545
Mn4 O4 2.024306 1_555
Mn4 O5 2.024306 1_544
Mn4 O9 2.059291 1_545
Mn4 O11 2.059291 1_554
Mn5 O8 1.991851 1_555
Mn5 O10 1.991851 1_455
Mn5 O6 2.016166 1_455
Mn5 O7 2.016166 1_555
Mn5 O2 2.091050 1_555
Mn5 O0 2.091050 1_455
Mn6 O11 1.991851 1_555
Mn6 O9 1.991851 1_545
Mn6 O6 2.016166 1_545
Mn6 O7 2.016166 1_555
Mn6 O1 2.091050 1_555
Mn6 O3 2.091050 1_545
O0 Pr0 2.669414 1_656
O1 Pr0 2.669414 1_655
O2 Pr0 2.669414 1_565
O3 Pr0 2.669414 1_566
O4 Pr0 2.643112 1_555
O5 Pr0 2.643112 1_666
O6 Pr0 2.711475 1_665
O7 Pr0 2.711475 1_556
O8 Pr0 2.688037 1_556
O9 Pr0 2.688037 1_665
O10 Pr0 2.688037 1_665
O11 Pr0 2.688037 1_556
