# generated using pymatgen
data_Fe8H10O17
_symmetry_space_group_name_H-M   'P 1'
_cell_length_a   6.16817500
_cell_length_b   10.55339332
_cell_length_c   10.73562086
_cell_angle_alpha   89.87882441
_cell_angle_beta   89.84599596
_cell_angle_gamma   89.11731830
_symmetry_Int_Tables_number   1
_chemical_formula_structural   Fe8H10O17
_chemical_formula_sum   'Fe16 H20 O34'
_cell_volume   698.75018446
_cell_formula_units_Z   2
loop_
 _symmetry_equiv_pos_site_id
 _symmetry_equiv_pos_as_xyz
  1  'x, y, z'
loop_
 _atom_site_type_symbol
 _atom_site_label
 _atom_site_symmetry_multiplicity
 _atom_site_fract_x
 _atom_site_fract_y
 _atom_site_fract_z
 _atom_site_occupancy
  Fe  Fe0  1  0.00345300  0.89520600  0.65689600  1
  Fe  Fe1  1  0.00450200  0.38848300  0.85335200  1
  Fe  Fe2  1  0.25816700  0.41398200  0.14303600  1
  Fe  Fe3  1  0.28940100  0.90911600  0.30720800  1
  Fe  Fe4  1  0.00789800  0.22555700  0.32189600  1
  Fe  Fe5  1  0.00203900  0.71348300  0.11812900  1
  Fe  Fe6  1  0.25200700  0.69154700  0.83391500  1
  Fe  Fe7  1  0.25381700  0.19271800  0.65123800  1
  Fe  Fe8  1  0.48828100  0.89820000  0.66398400  1
  Fe  Fe9  1  0.50376900  0.39320500  0.84730900  1
  Fe  Fe10  1  0.75233200  0.41246500  0.13745100  1
  Fe  Fe11  1  0.74765100  0.02398300  0.17173700  1
  Fe  Fe12  1  0.51813600  0.21641200  0.32923300  1
  Fe  Fe13  1  0.50246700  0.71543300  0.13010600  1
  Fe  Fe14  1  0.74793300  0.68270100  0.83622000  1
  Fe  Fe15  1  0.75422500  0.19753200  0.63196400  1
  H  H0  1  0.98424200  0.62809700  0.63194300  1
  H  H1  1  0.99974100  0.40272700  0.60285600  1
  H  H2  1  0.26111600  0.33485700  0.46259800  1
  H  H3  1  0.95472000  0.49176500  0.32691200  1
  H  H4  1  0.01638200  0.69211300  0.38157200  1
  H  H5  1  0.85367800  0.79251900  0.31576900  1
  H  H6  1  0.94395300  0.00811300  0.39608700  1
  H  H7  1  0.27727300  0.78924600  0.49908500  1
  H  H8  1  0.28762700  0.17988900  0.90028500  1
  H  H9  1  0.51625000  0.63028100  0.63284300  1
  H  H10  1  0.51795200  0.40016600  0.58973400  1
  H  H11  1  0.51522400  0.50163600  0.32146700  1
  H  H12  1  0.74147000  0.92806300  0.86454000  1
  H  H13  1  0.69790500  0.94228600  0.47664300  1
  H  H14  1  0.72044900  0.18639000  0.90118800  1
  H  H15  1  0.39808300  0.13113300  0.09498500  1
  H  H16  1  0.41030000  0.98766600  0.04752900  1
  H  H17  1  0.00399500  0.03983100  0.94361200  1
  H  H18  1  0.10454200  0.95931000  0.05891700  1
  H  H19  1  0.57028100  0.76823200  0.39631500  1
  O  O0  1  0.99452000  0.69881500  0.68874200  1
  O  O1  1  0.99713200  0.71340100  0.93973600  1
  O  O2  1  0.00439400  0.33134000  0.65954800  1
  O  O3  1  0.00573100  0.07984400  0.64369800  1
  O  O4  1  0.26851500  0.22799100  0.20857700  1
  O  O5  1  0.25852900  0.24219800  0.45944600  1
  O  O6  1  0.25348600  0.86139400  0.13418500  1
  O  O7  1  0.25106400  0.60118200  0.15030000  1
  O  O8  1  0.00913200  0.41502400  0.28757400  1
  O  O9  1  0.00683800  0.38744200  0.03249200  1
  O  O10  1  0.00679000  0.76337500  0.32469000  1
  O  O11  1  0.01481200  0.02692800  0.31648300  1
  O  O12  1  0.24204900  0.88205900  0.77609200  1
  O  O13  1  0.24937300  0.87883900  0.51976000  1
  O  O14  1  0.25947600  0.24406000  0.83652300  1
  O  O15  1  0.24961200  0.50239500  0.81806800  1
  O  O16  1  0.50348800  0.69833000  0.69294000  1
  O  O17  1  0.50079400  0.71104500  0.94491700  1
  O  O18  1  0.50452600  0.33511900  0.65293500  1
  O  O19  1  0.50442600  0.08183600  0.64668200  1
  O  O20  1  0.76207300  0.21502900  0.20068400  1
  O  O21  1  0.76498800  0.22641700  0.45061500  1
  O  O22  1  0.74958400  0.84663200  0.14779800  1
  O  O23  1  0.75595100  0.59806500  0.15830000  1
  O  O24  1  0.51043500  0.41678900  0.28588300  1
  O  O25  1  0.50617200  0.38662700  0.02872200  1
  O  O26  1  0.52877800  0.02556700  0.31336100  1
  O  O27  1  0.74665600  0.88362100  0.78542300  1
  O  O28  1  0.73716400  0.87230500  0.53353800  1
  O  O29  1  0.75154500  0.24585600  0.83422800  1
  O  O30  1  0.75506200  0.50012400  0.81523700  1
  O  O31  1  0.49066400  0.06896700  0.04365100  1
  O  O32  1  0.00504600  0.03452500  0.03435500  1
  O  O33  1  0.45277000  0.74529000  0.33978400  1
loop_
_geom_bond_atom_site_label_1
_geom_bond_atom_site_label_2
_geom_bond_distance
_geom_bond_site_symmetry_2
Fe0 O3 1.953667 1_565
Fe0 O12 1.955946 1_555
Fe0 O0 2.101423 1_455
Fe0 O27 2.102690 1_455
Fe0 O13 2.116422 1_555
Fe0 O28 2.129645 1_455
Fe1 O9 1.923279 1_556
Fe1 O30 1.966805 1_455
Fe1 O15 1.981275 1_555
Fe1 O2 2.167469 1_555
Fe1 O14 2.180580 1_555
Fe1 O29 2.194914 1_455
Fe2 O25 1.976699 1_555
Fe2 O7 1.977105 1_555
Fe2 O9 1.978577 1_555
Fe2 O4 2.083849 1_555
Fe2 O8 2.180419 1_555
Fe2 O24 2.188227 1_555
Fe3 O26 1.936898 1_565
Fe3 O6 1.939759 1_555
Fe3 O33 2.018060 1_555
Fe3 O11 2.087858 1_565
Fe3 O13 2.316536 1_555
Fe3 O10 2.349300 1_555
Fe4 O20 2.005303 1_455
Fe4 O4 2.013812 1_555
Fe4 O8 2.032546 1_555
Fe4 O21 2.035463 1_455
Fe4 O11 2.096912 1_555
Fe4 O5 2.150137 1_555
Fe5 O1 1.915482 1_454
Fe5 O7 1.956604 1_555
Fe5 O23 2.006221 1_455
Fe5 O22 2.105375 1_455
Fe5 O6 2.224632 1_555
Fe5 O10 2.280665 1_555
Fe6 O1 1.948253 1_455
Fe6 O17 1.959058 1_555
Fe6 O15 2.004075 1_555
Fe6 O12 2.102985 1_555
Fe6 O16 2.166141 1_555
Fe6 O0 2.228538 1_455
Fe7 O19 1.924921 1_555
Fe7 O3 1.955603 1_555
Fe7 O14 2.063257 1_555
Fe7 O2 2.108444 1_555
Fe7 O5 2.123352 1_555
Fe7 O18 2.173029 1_555
Fe8 O12 1.944629 1_555
Fe8 O19 1.950518 1_565
Fe8 O27 2.065434 1_555
Fe8 O28 2.090380 1_555
Fe8 O16 2.132110 1_555
Fe8 O13 2.152566 1_555
Fe9 O25 1.948759 1_556
Fe9 O15 1.956909 1_555
Fe9 O30 1.960530 1_555
Fe9 O29 2.167988 1_555
Fe9 O18 2.176118 1_555
Fe9 O14 2.199135 1_555
Fe10 O25 1.940598 1_555
Fe10 O9 1.944938 1_655
Fe10 O23 1.972402 1_555
Fe10 O24 2.180146 1_555
Fe10 O20 2.190044 1_555
Fe10 O8 2.263279 1_655
Fe11 O22 1.889607 1_545
Fe11 O26 2.030509 1_555
Fe11 O20 2.043969 1_555
Fe11 O31 2.148178 1_555
Fe11 O32 2.168056 1_655
Fe11 O11 2.268656 1_655
Fe12 O21 2.010930 1_555
Fe12 O4 2.016861 1_555
Fe12 O26 2.021660 1_555
Fe12 O20 2.038864 1_555
Fe12 O5 2.137415 1_555
Fe12 O24 2.164135 1_555
Fe13 O17 1.988814 1_554
Fe13 O7 1.990014 1_555
Fe13 O23 2.002935 1_555
Fe13 O22 2.084285 1_555
Fe13 O6 2.158771 1_555
Fe13 O33 2.292743 1_555
Fe14 O1 1.930987 1_555
Fe14 O17 1.937228 1_555
Fe14 O30 1.940215 1_555
Fe14 O16 2.161110 1_555
Fe14 O27 2.188177 1_555
Fe14 O0 2.200672 1_555
Fe15 O21 1.971078 1_555
Fe15 O3 1.976388 1_655
Fe15 O19 1.986375 1_555
Fe15 O18 2.112300 1_555
Fe15 O2 2.129384 1_655
Fe15 O29 2.231523 1_555
H0 O0 0.967687 1_555
H1 O2 0.967631 1_655
H2 O5 0.978901 1_555
H3 O8 0.969127 1_655
H4 O10 0.968958 1_555
H5 O10 0.993536 1_655
H6 O11 0.980176 1_655
H7 O13 0.984144 1_555
H8 O14 0.975915 1_555
H9 O16 0.968573 1_555
H10 O18 0.968472 1_555
H11 O24 0.975149 1_555
H12 O27 0.971341 1_555
H13 O28 0.985157 1_555
H14 O29 0.973882 1_555
H15 O31 1.023978 1_555
H16 O31 0.998228 1_565
H17 O32 0.975705 1_556
H18 O32 1.030156 1_565
H18 O6 1.592479 1_555
H19 O33 0.980159 1_555
