# generated using pymatgen
data_Ce2Ta3(SeO4)2
_symmetry_space_group_name_H-M   'P 1'
_cell_length_a   7.66415800
_cell_length_b   10.01836600
_cell_length_c   12.00061800
_cell_angle_alpha   90.00000000
_cell_angle_beta   90.00000000
_cell_angle_gamma   90.00000000
_symmetry_Int_Tables_number   1
_chemical_formula_structural   Ce2Ta3(SeO4)2
_chemical_formula_sum   'Ce8 Ta12 Se8 O32'
_cell_volume   921.43553060
_cell_formula_units_Z   4
loop_
 _symmetry_equiv_pos_site_id
 _symmetry_equiv_pos_as_xyz
  1  'x, y, z'
loop_
 _atom_site_type_symbol
 _atom_site_label
 _atom_site_symmetry_multiplicity
 _atom_site_fract_x
 _atom_site_fract_y
 _atom_site_fract_z
 _atom_site_occupancy
  Ce  Ce0  1  0.00000000  0.22753100  0.35111900  1
  Ce  Ce1  1  0.00000000  0.77246900  0.64888100  1
  Ce  Ce2  1  0.50000000  0.27246900  0.85111900  1
  Ce  Ce3  1  0.50000000  0.72753100  0.14888100  1
  Ce  Ce4  1  0.00000000  0.71161900  0.15592400  1
  Ce  Ce5  1  0.00000000  0.28838100  0.84407600  1
  Ce  Ce6  1  0.50000000  0.78838100  0.65592400  1
  Ce  Ce7  1  0.50000000  0.21161900  0.34407600  1
  Ta  Ta0  1  0.24976000  0.36453500  0.08382200  1
  Ta  Ta1  1  0.75024000  0.63546500  0.91617800  1
  Ta  Ta2  1  0.24976000  0.63546500  0.91617800  1
  Ta  Ta3  1  0.25024000  0.13546500  0.58382200  1
  Ta  Ta4  1  0.75024000  0.36453500  0.08382200  1
  Ta  Ta5  1  0.74976000  0.86453500  0.41617800  1
  Ta  Ta6  1  0.25024000  0.86453500  0.41617800  1
  Ta  Ta7  1  0.74976000  0.13546500  0.58382200  1
  Ta  Ta8  1  0.21372300  0.00000000  0.00000000  1
  Ta  Ta9  1  0.78627700  0.00000000  0.00000000  1
  Ta  Ta10  1  0.28627700  0.50000000  0.50000000  1
  Ta  Ta11  1  0.71372300  0.50000000  0.50000000  1
  Se  Se0  1  0.00000000  0.01878900  0.16433100  1
  Se  Se1  1  0.00000000  0.98121100  0.83566900  1
  Se  Se2  1  0.50000000  0.48121100  0.66433100  1
  Se  Se3  1  0.50000000  0.51878900  0.33566900  1
  Se  Se4  1  0.00000000  0.52262600  0.36091300  1
  Se  Se5  1  0.00000000  0.47737400  0.63908700  1
  Se  Se6  1  0.50000000  0.97737400  0.86091300  1
  Se  Se7  1  0.50000000  0.02262600  0.13908700  1
  O  O0  1  0.00000000  0.36592900  0.05162700  1
  O  O1  1  0.00000000  0.63407100  0.94837300  1
  O  O2  1  0.50000000  0.13407100  0.55162700  1
  O  O3  1  0.50000000  0.86592900  0.44837300  1
  O  O4  1  0.24676000  0.28659000  0.22475800  1
  O  O5  1  0.75324000  0.71341000  0.77524200  1
  O  O6  1  0.24676000  0.71341000  0.77524200  1
  O  O7  1  0.25324000  0.21341000  0.72475800  1
  O  O8  1  0.75324000  0.28659000  0.22475800  1
  O  O9  1  0.74676000  0.78659000  0.27524200  1
  O  O10  1  0.25324000  0.78659000  0.27524200  1
  O  O11  1  0.74676000  0.21341000  0.72475800  1
  O  O12  1  0.00000000  0.14873800  0.54952400  1
  O  O13  1  0.00000000  0.85126200  0.45047600  1
  O  O14  1  0.50000000  0.35126200  0.04952400  1
  O  O15  1  0.50000000  0.64873800  0.95047600  1
  O  O16  1  0.26288000  0.30237900  0.47591500  1
  O  O17  1  0.73712000  0.69762100  0.52408500  1
  O  O18  1  0.26288000  0.69762100  0.52408500  1
  O  O19  1  0.23712000  0.19762100  0.97591500  1
  O  O20  1  0.73712000  0.30237900  0.47591500  1
  O  O21  1  0.76288000  0.80237900  0.02408500  1
  O  O22  1  0.23712000  0.80237900  0.02408500  1
  O  O23  1  0.76288000  0.19762100  0.97591500  1
  O  O24  1  0.24546100  0.05691500  0.39711400  1
  O  O25  1  0.75453900  0.94308500  0.60288600  1
  O  O26  1  0.24546100  0.94308500  0.60288600  1
  O  O27  1  0.25453900  0.44308500  0.89711400  1
  O  O28  1  0.75453900  0.05691500  0.39711400  1
  O  O29  1  0.74546100  0.55691500  0.10288600  1
  O  O30  1  0.25453900  0.55691500  0.10288600  1
  O  O31  1  0.74546100  0.44308500  0.89711400  1
loop_
_geom_bond_atom_site_label_1
_geom_bond_atom_site_label_2
_geom_bond_distance
_geom_bond_site_symmetry_2
Ce0 O8 2.495244 1_455
Ce0 O4 2.495244 1_555
Ce0 O12 2.508425 1_555
Ce0 O24 2.601050 1_555
Ce0 O28 2.601050 1_455
Ce0 O20 2.620002 1_455
Ce0 O16 2.620002 1_555
Ce0 Se4 2.958705 1_555
Ce0 Se0 3.065613 1_555
Ce1 O6 2.495244 1_555
Ce1 O5 2.495244 1_455
Ce1 O13 2.508425 1_555
Ce1 O26 2.601050 1_555
Ce1 O25 2.601050 1_455
Ce1 O18 2.620002 1_555
Ce1 O17 2.620002 1_455
Ce1 Se5 2.958705 1_555
Ce1 Se1 3.065613 1_555
Ce2 O11 2.495244 1_555
Ce2 O7 2.495244 1_555
Ce2 O14 2.508425 1_556
Ce2 O31 2.601050 1_555
Ce2 O27 2.601050 1_555
Ce2 O23 2.620002 1_555
Ce2 O19 2.620002 1_555
Ce2 Se6 2.958705 1_545
Ce2 Se2 3.065613 1_555
Ce3 O9 2.495244 1_555
Ce3 O10 2.495244 1_555
Ce3 O15 2.508425 1_554
Ce3 O29 2.601050 1_555
Ce3 O30 2.601050 1_555
Ce3 O21 2.620002 1_555
Ce3 O22 2.620002 1_555
Ce3 Se7 2.958705 1_565
Ce3 Se3 3.065613 1_555
Ce4 O10 2.526148 1_555
Ce4 O9 2.526148 1_455
Ce4 O29 2.571571 1_455
Ce4 O30 2.571571 1_555
Ce4 O22 2.575390 1_555
Ce4 O21 2.575390 1_455
Ce4 O1 2.609093 1_554
Ce4 Se0 3.078995 1_565
Ce4 Se4 3.104278 1_555
Ce5 O11 2.526148 1_455
Ce5 O7 2.526148 1_555
Ce5 O31 2.571571 1_455
Ce5 O27 2.571571 1_555
Ce5 O23 2.575390 1_455
Ce5 O19 2.575390 1_555
Ce5 O0 2.609093 1_556
Ce5 Se1 3.078995 1_545
Ce5 Se5 3.104278 1_555
Ce6 O6 2.526148 1_555
Ce6 O5 2.526148 1_555
Ce6 O25 2.571571 1_555
Ce6 O26 2.571571 1_555
Ce6 O17 2.575390 1_555
Ce6 O18 2.575390 1_555
Ce6 O3 2.609093 1_555
Ce6 Se2 3.078995 1_555
Ce6 Se6 3.104278 1_555
Ce7 O4 2.526148 1_555
Ce7 O8 2.526148 1_555
Ce7 O24 2.571571 1_555
Ce7 O28 2.571571 1_555
Ce7 O16 2.575390 1_555
Ce7 O20 2.575390 1_555
Ce7 O2 2.609093 1_555
Ce7 Se3 3.078995 1_555
Ce7 Se7 3.104278 1_555
Se0 Ta8 2.570520 1_555
Se0 Ta9 2.570520 1_455
Se1 Ta8 2.570520 1_566
Se1 Ta9 2.570520 1_466
Se2 Ta10 2.570520 1_555
Se2 Ta11 2.570520 1_555
Se3 Ta10 2.570520 1_555
Se3 Ta11 2.570520 1_555
Se4 Ta10 2.766104 1_555
Se4 Ta11 2.766104 1_455
Se5 Ta11 2.766104 1_455
Se5 Ta10 2.766104 1_555
Se6 Ta9 2.766104 1_566
Se6 Ta8 2.766104 1_566
Se7 Ta8 2.766104 1_555
Se7 Ta9 2.766104 1_555
O0 Ta4 1.952852 1_455
O0 Ta0 1.952852 1_555
O1 Ta1 1.952852 1_455
O1 Ta2 1.952852 1_555
O2 Ta3 1.952852 1_555
O2 Ta7 1.952852 1_555
O3 Ta6 1.952852 1_555
O3 Ta5 1.952852 1_555
O4 Ta0 1.863026 1_555
O5 Ta1 1.863026 1_555
O6 Ta2 1.863026 1_555
O7 Ta3 1.863026 1_555
O8 Ta4 1.863026 1_555
O9 Ta5 1.863026 1_555
O10 Ta6 1.863026 1_555
O11 Ta7 1.863026 1_555
O12 Ta7 1.966050 1_455
O12 Ta3 1.966050 1_555
O13 Ta5 1.966050 1_455
O13 Ta6 1.966050 1_555
O14 Ta4 1.966050 1_555
O14 Ta0 1.966050 1_555
O15 Ta2 1.966050 1_555
O15 Ta1 1.966050 1_555
O16 Ta10 2.008846 1_555
O16 Ta3 2.117204 1_555
O17 Ta11 2.008846 1_555
O17 Ta5 2.117204 1_555
O18 Ta10 2.008846 1_555
O18 Ta6 2.117204 1_555
O19 Ta8 2.008846 1_556
O19 Ta0 2.117204 1_556
O20 Ta11 2.008846 1_555
O20 Ta7 2.117204 1_555
O21 Ta9 2.008846 1_565
O21 Ta1 2.117204 1_554
O22 Ta8 2.008846 1_565
O22 Ta2 2.117204 1_554
O23 Ta9 2.008846 1_556
O23 Ta4 2.117204 1_556
O24 Ta6 1.941210 1_545
O24 Ta3 2.375070 1_555
O25 Ta7 1.941210 1_565
O25 Ta5 2.375070 1_555
O26 Ta3 1.941210 1_565
O26 Ta6 2.375070 1_555
O27 Ta2 1.941210 1_555
O27 Ta0 2.375070 1_556
O28 Ta5 1.941210 1_545
O28 Ta7 2.375070 1_555
O29 Ta4 1.941210 1_555
O29 Ta1 2.375070 1_554
O30 Ta0 1.941210 1_555
O30 Ta2 2.375070 1_554
O31 Ta1 1.941210 1_555
O31 Ta4 2.375070 1_556
