# generated using pymatgen
data_Mo(WS3)2
_symmetry_space_group_name_H-M   'P 1'
_cell_length_a   3.18463236
_cell_length_b   3.18463236
_cell_length_c   28.30167771
_cell_angle_alpha   90.00000000
_cell_angle_beta   90.00000000
_cell_angle_gamma   119.99999830
_symmetry_Int_Tables_number   1
_chemical_formula_structural   Mo(WS3)2
_chemical_formula_sum   'Mo1 W2 S6'
_cell_volume   248.57727753
_cell_formula_units_Z   1
loop_
 _symmetry_equiv_pos_site_id
 _symmetry_equiv_pos_as_xyz
  1  'x, y, z'
loop_
 _atom_site_type_symbol
 _atom_site_label
 _atom_site_symmetry_multiplicity
 _atom_site_fract_x
 _atom_site_fract_y
 _atom_site_fract_z
 _atom_site_occupancy
  Mo  Mo0  1  -0.00000000  0.00000000  0.11592820  1
  W  W0  1  0.00000000  0.00000000  0.57775214  1
  W  W1  1  0.33333300  0.66666700  0.34725651  1
  S  S0  1  0.00000000  0.00000000  0.40237673  1
  S  S1  1  0.33333300  0.66666700  0.06115115  1
  S  S2  1  0.33333300  0.66666700  0.52265656  1
  S  S3  1  0.33333300  0.66666700  0.17074352  1
  S  S4  1  0.33333300  0.66666700  0.63282923  1
  S  S5  1  0.00000000  0.00000000  0.29214596  1
loop_
_geom_bond_atom_site_label_1
_geom_bond_atom_site_label_2
_geom_bond_distance
_geom_bond_site_symmetry_2
Mo0 S1 2.404994 1_545
Mo0 S1 2.404996 1_555
Mo0 S1 2.404996 1_445
Mo0 S3 2.405692 1_545
Mo0 S3 2.405695 1_555
Mo0 S3 2.405695 1_445
S0 W1 2.411266 1_545
S0 W1 2.411268 1_445
S0 W1 2.411268 1_555
S2 W0 2.410815 1_565
S2 W0 2.410817 1_555
S2 W0 2.410817 1_665
S4 W0 2.410477 1_565
S4 W0 2.410479 1_665
S4 W0 2.410479 1_555
S5 W1 2.411089 1_545
S5 W1 2.411091 1_555
S5 W1 2.411091 1_445
