# generated using pymatgen
data_ReMo3
_symmetry_space_group_name_H-M   'P 1'
_cell_length_a   5.46045665
_cell_length_b   5.46045665
_cell_length_c   17.90799800
_cell_angle_alpha   90.00000000
_cell_angle_beta   90.00000000
_cell_angle_gamma   109.80054511
_symmetry_Int_Tables_number   1
_chemical_formula_structural   ReMo3
_chemical_formula_sum   'Re8 Mo24'
_cell_volume   502.38662490
_cell_formula_units_Z   8
loop_
 _symmetry_equiv_pos_site_id
 _symmetry_equiv_pos_as_xyz
  1  'x, y, z'
loop_
 _atom_site_type_symbol
 _atom_site_label
 _atom_site_symmetry_multiplicity
 _atom_site_fract_x
 _atom_site_fract_y
 _atom_site_fract_z
 _atom_site_occupancy
  Re  Re0_0  1  0.00000000  0.00000000  0.00000000  1
  Re  Re0_1  1  0.00000000  0.00000000  0.50000000  1
  Re  Re0_2  1  0.00000000  0.50000000  0.00000000  1
  Re  Re0_3  1  0.00000000  0.50000000  0.50000000  1
  Re  Re0_4  1  0.50000000  0.00000000  0.00000000  1
  Re  Re0_5  1  0.50000000  0.00000000  0.50000000  1
  Re  Re0_6  1  0.50000000  0.50000000  0.00000000  1
  Re  Re0_7  1  0.50000000  0.50000000  0.50000000  1
  Mo  Mo0_0  1  0.25000000  0.25000000  0.37517350  1
  Mo  Mo0_1  1  0.25000000  0.25000000  0.87517350  1
  Mo  Mo0_2  1  0.25000000  0.75000000  0.37517350  1
  Mo  Mo0_3  1  0.25000000  0.75000000  0.87517350  1
  Mo  Mo0_4  1  0.75000000  0.25000000  0.37517350  1
  Mo  Mo0_5  1  0.75000000  0.25000000  0.87517350  1
  Mo  Mo0_6  1  0.75000000  0.75000000  0.37517350  1
  Mo  Mo0_7  1  0.75000000  0.75000000  0.87517350  1
  Mo  Mo1_0  1  0.00000000  0.00000000  0.25000000  1
  Mo  Mo1_1  1  0.00000000  0.00000000  0.75000000  1
  Mo  Mo1_2  1  0.00000000  0.50000000  0.25000000  1
  Mo  Mo1_3  1  0.00000000  0.50000000  0.75000000  1
  Mo  Mo1_4  1  0.50000000  0.00000000  0.25000000  1
  Mo  Mo1_5  1  0.50000000  0.00000000  0.75000000  1
  Mo  Mo1_6  1  0.50000000  0.50000000  0.25000000  1
  Mo  Mo1_7  1  0.50000000  0.50000000  0.75000000  1
  Mo  Mo2_0  1  0.25000000  0.25000000  0.12482650  1
  Mo  Mo2_1  1  0.25000000  0.25000000  0.62482650  1
  Mo  Mo2_2  1  0.25000000  0.75000000  0.12482650  1
  Mo  Mo2_3  1  0.25000000  0.75000000  0.62482650  1
  Mo  Mo2_4  1  0.75000000  0.25000000  0.12482650  1
  Mo  Mo2_5  1  0.75000000  0.25000000  0.62482650  1
  Mo  Mo2_6  1  0.75000000  0.75000000  0.12482650  1
  Mo  Mo2_7  1  0.75000000  0.75000000  0.62482650  1
loop_
_geom_bond_atom_site_label_1
_geom_bond_atom_site_label_2
_geom_bond_distance
_geom_bond_site_symmetry_2
Re0_0 Re0_2 2.730228 1_555
Re0_0 Re0_4 2.730228 1_555
Re0_0 Re0_4 2.730228 1_455
Re0_0 Re0_2 2.730228 1_545
Re0_1 Re0_5 2.730228 1_455
Re0_1 Re0_3 2.730228 1_545
Re0_1 Re0_5 2.730228 1_555
Re0_1 Re0_3 2.730228 1_555
Re0_2 Re0_6 2.730228 1_555
Re0_2 Re0_6 2.730228 1_455
Re0_3 Re0_7 2.730228 1_455
Re0_3 Re0_7 2.730228 1_555
Re0_4 Re0_6 2.730228 1_545
Re0_4 Re0_6 2.730228 1_555
Re0_5 Re0_7 2.730228 1_555
Re0_5 Re0_7 2.730228 1_545
Mo0_0 Mo0_2 2.730228 1_545
Mo0_0 Mo0_2 2.730228 1_555
Mo0_0 Mo0_4 2.730228 1_555
Mo0_0 Mo0_4 2.730228 1_455
Mo0_0 Re0_7 2.731578 1_555
Mo0_0 Re0_1 2.731578 1_555
Mo0_0 Mo1_0 2.736666 1_555
Mo0_0 Mo1_6 2.736666 1_555
Mo0_1 Mo0_5 2.730228 1_455
Mo0_1 Mo0_3 2.730228 1_545
Mo0_1 Mo0_5 2.730228 1_555
Mo0_1 Mo0_3 2.730228 1_555
Mo0_1 Re0_0 2.731578 1_556
Mo0_1 Re0_6 2.731578 1_556
Mo0_1 Mo1_1 2.736666 1_555
Mo0_1 Mo1_7 2.736666 1_555
Mo0_2 Mo0_6 2.730228 1_455
Mo0_2 Mo0_6 2.730228 1_555
Mo0_2 Re0_5 2.731578 1_565
Mo0_2 Re0_3 2.731578 1_555
Mo0_2 Mo1_4 2.736666 1_565
Mo0_2 Mo1_2 2.736666 1_555
Mo0_3 Mo0_7 2.730228 1_455
Mo0_3 Mo0_7 2.730228 1_555
Mo0_3 Re0_2 2.731578 1_556
Mo0_3 Re0_4 2.731578 1_566
Mo0_3 Mo1_5 2.736666 1_565
Mo0_3 Mo1_3 2.736666 1_555
Mo0_4 Mo0_6 2.730228 1_545
Mo0_4 Mo0_6 2.730228 1_555
Mo0_4 Re0_5 2.731578 1_555
Mo0_4 Re0_3 2.731578 1_655
Mo0_4 Mo1_4 2.736666 1_555
Mo0_4 Mo1_2 2.736666 1_655
Mo0_5 Mo0_7 2.730228 1_545
Mo0_5 Mo0_7 2.730228 1_555
Mo0_5 Re0_2 2.731578 1_656
Mo0_5 Re0_4 2.731578 1_556
Mo0_5 Mo1_5 2.736666 1_555
Mo0_5 Mo1_3 2.736666 1_655
Mo0_6 Re0_7 2.731578 1_555
Mo0_6 Re0_1 2.731578 1_665
Mo0_6 Mo1_0 2.736666 1_665
Mo0_6 Mo1_6 2.736666 1_555
Mo0_7 Re0_0 2.731578 1_666
Mo0_7 Re0_6 2.731578 1_556
Mo0_7 Mo1_7 2.736666 1_555
Mo0_7 Mo1_1 2.736666 1_665
Mo1_0 Mo1_4 2.730228 1_555
Mo1_0 Mo1_2 2.730228 1_545
Mo1_0 Mo1_4 2.730228 1_455
Mo1_0 Mo1_2 2.730228 1_555
Mo1_0 Mo2_6 2.736666 1_445
Mo1_0 Mo2_0 2.736666 1_555
Mo1_1 Mo1_5 2.730228 1_555
Mo1_1 Mo1_3 2.730228 1_545
Mo1_1 Mo1_3 2.730228 1_555
Mo1_1 Mo1_5 2.730228 1_455
Mo1_1 Mo2_1 2.736666 1_555
Mo1_1 Mo2_7 2.736666 1_445
Mo1_2 Mo1_6 2.730228 1_555
Mo1_2 Mo1_6 2.730228 1_455
Mo1_2 Mo2_4 2.736666 1_455
Mo1_2 Mo2_2 2.736666 1_555
Mo1_3 Mo1_7 2.730228 1_555
Mo1_3 Mo1_7 2.730228 1_455
Mo1_3 Mo2_3 2.736666 1_555
Mo1_3 Mo2_5 2.736666 1_455
Mo1_4 Mo1_6 2.730228 1_555
Mo1_4 Mo1_6 2.730228 1_545
Mo1_4 Mo2_4 2.736666 1_555
Mo1_4 Mo2_2 2.736666 1_545
Mo1_5 Mo1_7 2.730228 1_545
Mo1_5 Mo1_7 2.730228 1_555
Mo1_5 Mo2_5 2.736666 1_555
Mo1_5 Mo2_3 2.736666 1_545
Mo1_6 Mo2_6 2.736666 1_555
Mo1_6 Mo2_0 2.736666 1_555
Mo1_7 Mo2_7 2.736666 1_555
Mo1_7 Mo2_1 2.736666 1_555
Mo2_0 Mo2_4 2.730228 1_455
Mo2_0 Mo2_2 2.730228 1_545
Mo2_0 Mo2_2 2.730228 1_555
Mo2_0 Mo2_4 2.730228 1_555
Mo2_0 Re0_6 2.731578 1_555
Mo2_0 Re0_0 2.731578 1_555
Mo2_1 Mo2_3 2.730228 1_555
Mo2_1 Mo2_3 2.730228 1_545
Mo2_1 Mo2_5 2.730228 1_455
Mo2_1 Mo2_5 2.730228 1_555
Mo2_1 Re0_1 2.731578 1_555
Mo2_1 Re0_7 2.731578 1_555
Mo2_2 Mo2_6 2.730228 1_555
Mo2_2 Mo2_6 2.730228 1_455
Mo2_2 Re0_4 2.731578 1_565
Mo2_2 Re0_2 2.731578 1_555
Mo2_3 Mo2_7 2.730228 1_455
Mo2_3 Mo2_7 2.730228 1_555
Mo2_3 Re0_5 2.731578 1_565
Mo2_3 Re0_3 2.731578 1_555
Mo2_4 Mo2_6 2.730228 1_545
Mo2_4 Mo2_6 2.730228 1_555
Mo2_4 Re0_2 2.731578 1_655
Mo2_4 Re0_4 2.731578 1_555
Mo2_5 Mo2_7 2.730228 1_545
Mo2_5 Mo2_7 2.730228 1_555
Mo2_5 Re0_5 2.731578 1_555
Mo2_5 Re0_3 2.731578 1_655
Mo2_6 Re0_6 2.731578 1_555
Mo2_6 Re0_0 2.731578 1_665
Mo2_7 Re0_1 2.731578 1_665
Mo2_7 Re0_7 2.731578 1_555
