# generated using pymatgen
data_FeCuS2
_symmetry_space_group_name_H-M   'P 1'
_cell_length_a   6.24215525
_cell_length_b   6.24215525
_cell_length_c   6.24215474
_cell_angle_alpha   31.70124760
_cell_angle_beta   31.70124760
_cell_angle_gamma   31.70125141
_symmetry_Int_Tables_number   1
_chemical_formula_structural   FeCuS2
_chemical_formula_sum   'Fe1 Cu1 S2'
_cell_volume   59.64636147
_cell_formula_units_Z   1
loop_
 _symmetry_equiv_pos_site_id
 _symmetry_equiv_pos_as_xyz
  1  'x, y, z'
loop_
 _atom_site_type_symbol
 _atom_site_label
 _atom_site_symmetry_multiplicity
 _atom_site_fract_x
 _atom_site_fract_y
 _atom_site_fract_z
 _atom_site_occupancy
  Fe  Fe0  1  0.00063400  0.00063400  0.00063400  1
  Cu  Cu0  1  0.85397900  0.85397900  0.85397900  1
  S  S0  1  0.73064400  0.73064400  0.73064400  1
  S  S1  1  0.26174300  0.26174300  0.26174300  1
loop_
_geom_bond_atom_site_label_1
_geom_bond_atom_site_label_2
_geom_bond_distance
_geom_bond_site_symmetry_2
Fe0 S0 2.267770 1_445
Fe0 S0 2.267771 1_544
Fe0 S0 2.267771 1_454
Fe0 S1 2.350106 1_554
Fe0 S1 2.350106 1_455
Fe0 S1 2.350106 1_545
Cu0 S0 2.191755 1_555
Cu0 S1 2.371747 1_665
Cu0 S1 2.371747 1_566
Cu0 S1 2.371747 1_656
