# generated using pymatgen
data_CeThB8
_symmetry_space_group_name_H-M   'P 1'
_cell_length_a   7.22079922
_cell_length_b   7.22079922
_cell_length_c   4.10057869
_cell_angle_alpha   90.00000000
_cell_angle_beta   90.00000000
_cell_angle_gamma   90.48373049
_symmetry_Int_Tables_number   1
_chemical_formula_structural   CeThB8
_chemical_formula_sum   'Ce2 Th2 B16'
_cell_volume   213.79631256
_cell_formula_units_Z   2
loop_
 _symmetry_equiv_pos_site_id
 _symmetry_equiv_pos_as_xyz
  1  'x, y, z'
loop_
 _atom_site_type_symbol
 _atom_site_label
 _atom_site_symmetry_multiplicity
 _atom_site_fract_x
 _atom_site_fract_y
 _atom_site_fract_z
 _atom_site_occupancy
  Ce  Ce0  1  0.68609772  0.31390228  0.00000000  1
  Ce  Ce1  1  0.31390228  0.68609772  -0.00000000  1
  Th  Th0  1  0.18645284  0.18645284  0.00000000  1
  Th  Th1  1  0.81354716  0.81354716  -0.00000000  1
  B  B0  1  0.00000000  0.50000000  0.79861987  1
  B  B1  1  0.50000000  -0.00000000  0.79861987  1
  B  B2  1  0.00000000  0.50000000  0.20138013  1
  B  B3  1  0.50000000  -0.00000000  0.20138013  1
  B  B4  1  0.82443951  0.53681440  0.50000000  1
  B  B5  1  0.17556049  0.46318560  0.50000000  1
  B  B6  1  0.32542160  0.95956554  0.50000000  1
  B  B7  1  0.67457840  0.04043446  0.50000000  1
  B  B8  1  0.04043446  0.67457840  0.50000000  1
  B  B9  1  0.95956554  0.32542160  0.50000000  1
  B  B10  1  0.46318560  0.17556049  0.50000000  1
  B  B11  1  0.53681440  0.82443951  0.50000000  1
  B  B12  1  0.91088244  0.08911756  0.50000000  1
  B  B13  1  0.08911756  0.91088244  0.50000000  1
  B  B14  1  0.41094139  0.41094139  0.50000000  1
  B  B15  1  0.58905861  0.58905861  0.50000000  1
loop_
_geom_bond_atom_site_label_1
_geom_bond_atom_site_label_2
_geom_bond_distance
_geom_bond_site_symmetry_2
B0 B2 1.651550 1_556
B0 B8 1.779766 1_555
B0 B9 1.779766 1_455
B0 B4 1.784046 1_455
B0 B5 1.784046 1_555
B0 Ce0 2.752053 1_456
B0 Ce1 2.752053 1_556
B0 Th0 2.769833 1_556
B0 Th1 2.769833 1_456
B1 B3 1.651550 1_556
B1 B6 1.779766 1_545
B1 B7 1.779766 1_555
B1 B11 1.784046 1_545
B1 B10 1.784046 1_555
B1 Ce0 2.752053 1_556
B1 Ce1 2.752053 1_546
B1 Th0 2.769833 1_556
B1 Th1 2.769833 1_546
B2 B8 1.779766 1_555
B2 B9 1.779766 1_455
B2 B4 1.784046 1_455
B2 B5 1.784046 1_555
B2 Ce1 2.752053 1_555
B2 Ce0 2.752053 1_455
B2 Th0 2.769833 1_555
B2 Th1 2.769833 1_455
B3 B6 1.779766 1_545
B3 B7 1.779766 1_555
B3 Ce0 2.752053 1_555
B3 Ce1 2.752053 1_545
B3 Th0 2.769833 1_555
B3 Th1 2.769833 1_545
B4 B9 1.818556 1_555
B4 B8 1.842794 1_655
B4 Ce0 2.786618 1_556
B4 Ce0 2.786618 1_555
B4 Th1 2.864517 1_556
B4 Th1 2.864517 1_555
B5 B8 1.818556 1_555
B5 B9 1.842794 1_455
B5 Ce1 2.786618 1_555
B5 Ce1 2.786618 1_556
B5 Th0 2.864517 1_555
B5 Th0 2.864517 1_556
B6 Th0 2.814683 1_566
B6 Th0 2.814683 1_565
B6 Ce1 2.847297 1_556
B6 Ce1 2.847297 1_555
B7 Th1 2.814683 1_545
B7 Th1 2.814683 1_546
B7 Ce0 2.847297 1_556
B7 Ce0 2.847297 1_555
B8 Th1 2.814683 1_455
B8 Th1 2.814683 1_456
B8 Ce1 2.847297 1_556
B8 Ce1 2.847297 1_555
B9 Th0 2.814683 1_655
B9 Th0 2.814683 1_656
B9 Ce0 2.847297 1_556
B9 Ce0 2.847297 1_555
B10 B14 1.744107 1_555
B10 B3 1.784046 1_555
B10 B7 1.818556 1_555
B10 B6 1.842794 1_545
B10 Ce0 2.786618 1_556
B10 Ce0 2.786618 1_555
B10 Th0 2.864517 1_555
B10 Th0 2.864517 1_556
B11 B15 1.744107 1_555
B11 B3 1.784046 1_565
B11 B6 1.818556 1_555
B11 B7 1.842794 1_565
B11 Ce1 2.786618 1_555
B11 Ce1 2.786618 1_556
B11 Th1 2.864517 1_556
B11 Th1 2.864517 1_555
B12 B7 1.739230 1_555
B12 B9 1.739230 1_555
B12 B13 1.827760 1_645
B12 Th1 2.938284 1_545
B12 Th1 2.938284 1_546
B12 Th0 2.938284 1_655
B12 Th0 2.938284 1_656
B12 Ce0 3.085003 1_556
B12 Ce0 3.085003 1_555
B13 B8 1.739230 1_555
B13 B6 1.739230 1_555
B13 Th1 2.938284 1_455
B13 Th1 2.938284 1_456
B13 Th0 2.938284 1_566
B13 Th0 2.938284 1_565
B13 Ce1 3.085003 1_555
B13 Ce1 3.085003 1_556
B14 B5 1.744107 1_555
B14 B15 1.811195 1_555
B14 Ce1 2.943763 1_555
B14 Ce1 2.943763 1_556
B14 Ce0 2.943763 1_556
B14 Ce0 2.943763 1_555
B14 Th0 3.068308 1_555
B14 Th0 3.068308 1_556
B15 B4 1.744107 1_555
B15 Ce0 2.943763 1_556
B15 Ce0 2.943763 1_555
B15 Ce1 2.943763 1_555
B15 Ce1 2.943763 1_556
B15 Th1 3.068308 1_555
B15 Th1 3.068308 1_556
