# generated using pymatgen
data_Ce4S3NCl3
_symmetry_space_group_name_H-M   'P 1'
_cell_length_a   9.31065186
_cell_length_b   9.31065186
_cell_length_c   6.92332400
_cell_angle_alpha   90.00000000
_cell_angle_beta   90.00000000
_cell_angle_gamma   119.99999903
_symmetry_Int_Tables_number   1
_chemical_formula_structural   Ce4S3NCl3
_chemical_formula_sum   'Ce8 S6 N2 Cl6'
_cell_volume   519.76312942
_cell_formula_units_Z   2
loop_
 _symmetry_equiv_pos_site_id
 _symmetry_equiv_pos_as_xyz
  1  'x, y, z'
loop_
 _atom_site_type_symbol
 _atom_site_label
 _atom_site_symmetry_multiplicity
 _atom_site_fract_x
 _atom_site_fract_y
 _atom_site_fract_z
 _atom_site_occupancy
  Ce  Ce0  1  0.66666700  0.33333300  0.20766700  1
  Ce  Ce1  1  0.33333300  0.66666700  0.70766700  1
  Ce  Ce2  1  0.79800100  0.20199900  0.75034700  1
  Ce  Ce3  1  0.40399900  0.20199900  0.75034700  1
  Ce  Ce4  1  0.79800100  0.59600100  0.75034700  1
  Ce  Ce5  1  0.20199900  0.79800100  0.25034700  1
  Ce  Ce6  1  0.59600100  0.79800100  0.25034700  1
  Ce  Ce7  1  0.20199900  0.40399900  0.25034700  1
  S  S0  1  0.53120600  0.46879400  0.46956900  1
  S  S1  1  0.93758800  0.46879400  0.46956900  1
  S  S2  1  0.53120600  0.06241200  0.46956900  1
  S  S3  1  0.46879400  0.53120600  0.96956900  1
  S  S4  1  0.06241200  0.53120600  0.96956900  1
  S  S5  1  0.46879400  0.93758800  0.96956900  1
  N  N0  1  0.66666700  0.33333300  0.86285400  1
  N  N1  1  0.33333300  0.66666700  0.36285400  1
  Cl  Cl0  1  0.86962300  0.13037700  0.14084200  1
  Cl  Cl1  1  0.26075400  0.13037700  0.14084200  1
  Cl  Cl2  1  0.86962300  0.73924600  0.14084200  1
  Cl  Cl3  1  0.13037700  0.86962300  0.64084200  1
  Cl  Cl4  1  0.73924600  0.86962300  0.64084200  1
  Cl  Cl5  1  0.13037700  0.26075400  0.64084200  1
loop_
_geom_bond_atom_site_label_1
_geom_bond_atom_site_label_2
_geom_bond_distance
_geom_bond_site_symmetry_2
Ce0 N0 2.387252 1_554
Ce0 S1 2.838993 1_555
Ce0 S2 2.838993 1_555
Ce0 S0 2.838999 1_555
Ce0 Cl0 3.305512 1_555
Ce0 Cl2 3.305520 1_555
Ce0 Cl1 3.305520 1_555
Ce0 S4 3.591625 1_654
Ce0 S5 3.591625 1_544
Ce0 S3 3.591632 1_554
Ce1 N1 2.387252 1_555
Ce1 S5 2.838993 1_555
Ce1 S4 2.838993 1_555
Ce1 S3 2.838999 1_555
Ce1 Cl3 3.305512 1_555
Ce1 Cl4 3.305520 1_555
Ce1 Cl5 3.305520 1_555
Ce1 S2 3.591625 1_565
Ce1 S1 3.591625 1_455
Ce1 S0 3.591632 1_555
Ce2 N0 2.256652 1_555
Ce2 S2 2.899993 1_555
Ce2 S1 2.899993 1_555
Ce2 Cl0 2.939914 1_556
Ce2 Cl5 2.959375 1_655
Ce2 Cl4 2.959375 1_545
Ce2 S5 3.195837 1_545
Ce2 S4 3.195837 1_655
Ce3 N0 2.256652 1_555
Ce3 S2 2.899987 1_555
Ce3 S0 2.899993 1_555
Ce3 Cl1 2.939917 1_556
Ce3 Cl3 2.959378 1_545
Ce3 Cl5 2.959384 1_555
Ce3 S5 3.195831 1_545
Ce3 S3 3.195839 1_555
Ce4 N0 2.256652 1_555
Ce4 S1 2.899987 1_555
Ce4 S0 2.899993 1_555
Ce4 Cl2 2.939917 1_556
Ce4 Cl3 2.959378 1_655
Ce4 Cl4 2.959384 1_555
Ce4 S4 3.195831 1_655
Ce4 S3 3.195839 1_555
Ce5 N1 2.256652 1_555
Ce5 S4 2.899993 1_554
Ce5 S5 2.899993 1_554
Ce5 Cl3 2.939914 1_555
Ce5 Cl1 2.959375 1_565
Ce5 Cl2 2.959375 1_455
Ce5 S1 3.195837 1_455
Ce5 S2 3.195837 1_565
Ce6 N1 2.256652 1_555
Ce6 S5 2.899987 1_554
Ce6 S3 2.899993 1_554
Ce6 Cl4 2.939917 1_555
Ce6 Cl0 2.959378 1_565
Ce6 Cl2 2.959384 1_555
Ce6 S2 3.195831 1_565
Ce6 S0 3.195839 1_555
Ce7 N1 2.256652 1_555
Ce7 S4 2.899987 1_554
Ce7 S3 2.899993 1_554
Ce7 Cl5 2.939917 1_555
Ce7 Cl0 2.959378 1_455
Ce7 Cl1 2.959384 1_555
Ce7 S1 3.195831 1_455
Ce7 S0 3.195839 1_555
