# generated using pymatgen
data_Al2O3
_symmetry_space_group_name_H-M   'P 1'
_cell_length_a   10.22490558
_cell_length_b   10.65380582
_cell_length_c   9.91364646
_cell_angle_alpha   90.93939558
_cell_angle_beta   91.27180654
_cell_angle_gamma   92.12404362
_symmetry_Int_Tables_number   1
_chemical_formula_structural   Al2O3
_chemical_formula_sum   'Al40 O60'
_cell_volume   1078.76665722
_cell_formula_units_Z   20
loop_
 _symmetry_equiv_pos_site_id
 _symmetry_equiv_pos_as_xyz
  1  'x, y, z'
loop_
 _atom_site_type_symbol
 _atom_site_label
 _atom_site_symmetry_multiplicity
 _atom_site_fract_x
 _atom_site_fract_y
 _atom_site_fract_z
 _atom_site_occupancy
  Al  Al0  1  0.95331000  0.35931000  0.41656900  1
  Al  Al1  1  0.82660400  0.11345300  0.73281700  1
  Al  Al2  1  0.16665400  0.80019400  0.57835600  1
  Al  Al3  1  0.13230300  0.43287200  0.86423900  1
  Al  Al4  1  0.65116000  0.88634100  0.54471100  1
  Al  Al5  1  0.08992300  0.23569200  0.64665600  1
  Al  Al6  1  0.35255700  0.15899600  0.51070600  1
  Al  Al7  1  0.41128000  0.93197700  0.73988700  1
  Al  Al8  1  0.10559400  0.35894100  0.16717600  1
  Al  Al9  1  0.82542800  0.58641500  0.86842100  1
  Al  Al10  1  0.49867400  0.62054800  0.05741600  1
  Al  Al11  1  0.58940800  0.11294800  0.02194300  1
  Al  Al12  1  0.69392000  0.16588300  0.45761800  1
  Al  Al13  1  0.61360600  0.80632600  0.86092300  1
  Al  Al14  1  0.24335000  0.64840300  0.06359400  1
  Al  Al15  1  0.84697600  0.27271900  0.98516400  1
  Al  Al16  1  0.33519600  0.18135800  0.82035600  1
  Al  Al17  1  0.08504100  0.84454200  0.13807000  1
  Al  Al18  1  0.35126300  0.94756300  0.03248200  1
  Al  Al19  1  0.33927200  0.64687700  0.75506800  1
  Al  Al20  1  0.52038200  0.36215900  0.50820700  1
  Al  Al21  1  0.10695400  0.63519900  0.36284100  1
  Al  Al22  1  0.77119000  0.67361400  0.36573400  1
  Al  Al23  1  0.00602400  0.09583300  0.23278200  1
  Al  Al24  1  0.35374200  0.91537400  0.34860700  1
  Al  Al25  1  0.03652000  0.02386900  0.51580200  1
  Al  Al26  1  0.82966300  0.00034800  0.00076300  1
  Al  Al27  1  0.59267700  0.36737300  0.95236000  1
  Al  Al28  1  0.77821000  0.36164900  0.69033400  1
  Al  Al29  1  0.60467200  0.60854200  0.63390800  1
  Al  Al30  1  0.36822600  0.48463900  0.28788500  1
  Al  Al31  1  0.90712900  0.86790200  0.75269600  1
  Al  Al32  1  0.60539900  0.92054900  0.26888100  1
  Al  Al33  1  0.98323800  0.56989200  0.65574500  1
  Al  Al34  1  0.09942000  0.08718000  0.97158300  1
  Al  Al35  1  0.66410000  0.38881900  0.24046500  1
  Al  Al36  1  0.29958200  0.18129700  0.18904800  1
  Al  Al37  1  0.91675200  0.54609100  0.18113400  1
  Al  Al38  1  0.77343500  0.77657000  0.08799200  1
  Al  Al39  1  0.25099200  0.46466300  0.56292100  1
  O  O0  1  0.16575500  0.22640100  0.06333600  1
  O  O1  1  0.43269600  0.59031500  0.62472700  1
  O  O2  1  0.90898500  0.69901400  0.74577300  1
  O  O3  1  0.66385100  0.64507100  0.80036200  1
  O  O4  1  0.97844100  0.49799500  0.81885100  1
  O  O5  1  0.87794000  0.45304800  0.56803600  1
  O  O6  1  0.03328600  0.24716100  0.30194000  1
  O  O7  1  0.18276800  0.12150500  0.55839200  1
  O  O8  1  0.67819000  0.00020900  0.12038500  1
  O  O9  1  0.70456500  0.78392500  0.25630900  1
  O  O10  1  0.47880200  0.26095700  0.88184300  1
  O  O11  1  0.39828900  0.08635000  0.67736100  1
  O  O12  1  0.94809700  0.14390200  0.59519500  1
  O  O13  1  0.09670600  0.37164600  0.54688700  1
  O  O14  1  0.78546800  0.95253600  0.66052400  1
  O  O15  1  0.28457700  0.34304600  0.24024200  1
  O  O16  1  0.28985900  0.80367600  0.70885600  1
  O  O17  1  0.42591200  0.11589000  0.09123700  1
  O  O18  1  0.73644600  0.41756200  0.86569100  1
  O  O19  1  0.26272000  0.54795400  0.40798800  1
  O  O20  1  0.31809800  0.08492700  0.34338700  1
  O  O21  1  0.04012700  0.89462200  0.62772600  1
  O  O22  1  0.13859200  0.01068400  0.13930700  1
  O  O23  1  0.90701300  0.26063600  0.80967000  1
  O  O24  1  0.72803400  0.11374700  0.90024800  1
  O  O25  1  0.50273600  0.88688500  0.43254300  1
  O  O26  1  0.69107300  0.71092100  0.51794900  1
  O  O27  1  0.09568600  0.64701500  0.55071100  1
  O  O28  1  0.21891800  0.82775600  0.41330200  1
  O  O29  1  0.48138600  0.93260500  0.90946500  1
  O  O30  1  0.70236400  0.00695300  0.41065600  1
  O  O31  1  0.37746500  0.61566700  0.18100200  1
  O  O32  1  0.56274400  0.47338800  0.08111400  1
  O  O33  1  0.77733700  0.85791900  0.90404500  1
  O  O34  1  0.93744200  0.68433100  0.33836400  1
  O  O35  1  0.76218100  0.52635700  0.26860700  1
  O  O36  1  0.91954000  0.87981300  0.10452600  1
  O  O37  1  0.52490100  0.43395500  0.34573200  1
  O  O38  1  0.18687700  0.27698400  0.79742600  1
  O  O39  1  0.60616600  0.74304400  0.02821300  1
  O  O40  1  0.17466000  0.48769800  0.02898000  1
  O  O41  1  0.93631500  0.39200100  0.08498400  1
  O  O42  1  0.52502600  0.20210600  0.45616700  1
  O  O43  1  0.76972100  0.29300800  0.36290600  1
  O  O44  1  0.71806000  0.20952500  0.63299800  1
  O  O45  1  0.11659100  0.68428400  0.18585900  1
  O  O46  1  0.42904900  0.89428500  0.19004400  1
  O  O47  1  0.98823500  0.98605400  0.35450800  1
  O  O48  1  0.03414500  0.47628100  0.30065200  1
  O  O49  1  0.96831300  0.00897300  0.86097300  1
  O  O50  1  0.21820500  0.52239900  0.73612200  1
  O  O51  1  0.22231600  0.81637200  0.02163900  1
  O  O52  1  0.67644700  0.27260800  0.08473900  1
  O  O53  1  0.55226300  0.84682500  0.69310200  1
  O  O54  1  0.25567100  0.04623700  0.89807900  1
  O  O55  1  0.85361400  0.63418900  0.04016100  1
  O  O56  1  0.37765300  0.63999700  0.92687100  1
  O  O57  1  0.63349200  0.44299900  0.61552300  1
  O  O58  1  0.35601800  0.33260800  0.55848600  1
  O  O59  1  0.92514900  0.13462900  0.07280000  1
loop_
_geom_bond_atom_site_label_1
_geom_bond_atom_site_label_2
_geom_bond_distance
_geom_bond_site_symmetry_2
Al0 O6 1.859256 1_655
Al0 O48 1.889304 1_655
Al0 O13 1.931886 1_655
Al0 O5 1.976173 1_555
Al0 O43 2.037361 1_555
Al1 O44 1.824090 1_555
Al1 O14 1.876840 1_545
Al1 O23 1.884865 1_555
Al1 O12 1.889370 1_555
Al1 O24 1.960929 1_555
Al1 O49 2.244295 1_555
Al2 O21 1.741777 1_555
Al2 O28 1.758459 1_555
Al2 O27 1.775843 1_555
Al2 O16 1.784580 1_555
Al3 O40 1.764826 1_556
Al3 O4 1.794043 1_455
Al3 O50 1.822508 1_555
Al3 O38 1.886105 1_555
Al4 O53 1.848972 1_555
Al4 O25 1.861636 1_555
Al4 O14 1.879663 1_555
Al4 O30 1.930922 1_565
Al4 O26 1.942878 1_555
Al5 O13 1.767369 1_555
Al5 O12 1.779106 1_455
Al5 O7 1.798444 1_555
Al5 O38 1.814028 1_555
Al6 O7 1.840708 1_555
Al6 O20 1.846293 1_555
Al6 O11 1.892552 1_555
Al6 O42 1.898307 1_555
Al6 O58 1.900637 1_555
Al7 O11 1.775597 1_565
Al7 O53 1.796934 1_555
Al7 O29 1.812701 1_555
Al7 O16 1.829718 1_555
Al8 O0 1.864635 1_555
Al8 O41 1.943159 1_455
Al8 O6 1.944346 1_555
Al8 O15 1.967414 1_555
Al8 O48 1.975811 1_555
Al8 O40 2.071267 1_555
Al9 O55 1.783196 1_556
Al9 O3 1.901601 1_555
Al9 O2 1.914510 1_555
Al9 O4 1.924804 1_555
Al9 O18 1.985108 1_555
Al10 O39 1.707386 1_555
Al10 O32 1.738903 1_555
Al10 O31 1.761958 1_555
Al10 O56 1.790465 1_554
Al11 O8 1.816334 1_555
Al11 O17 1.822562 1_555
Al11 O24 1.881504 1_554
Al11 O52 1.975201 1_555
Al11 O10 2.414296 1_554
Al11 O29 2.423354 1_544
Al12 O30 1.754405 1_555
Al12 O42 1.783224 1_555
Al12 O44 1.801656 1_555
Al12 O43 1.820116 1_555
Al13 O33 1.783233 1_555
Al13 O39 1.802569 1_556
Al13 O53 1.828882 1_555
Al13 O3 1.902931 1_555
Al13 O29 2.002938 1_555
Al14 O31 1.826145 1_555
Al14 O45 1.840228 1_555
Al14 O40 1.850216 1_555
Al14 O51 1.862943 1_555
Al14 O56 1.954157 1_554
Al15 O41 1.805895 1_556
Al15 O23 1.861770 1_555
Al15 O59 1.912154 1_556
Al15 O52 2.022635 1_556
Al15 O24 2.193476 1_555
Al15 O18 2.278404 1_555
Al16 O10 1.760060 1_555
Al16 O54 1.817860 1_555
Al16 O11 1.868761 1_555
Al16 O38 1.869846 1_555
Al17 O36 1.772482 1_455
Al17 O45 1.817734 1_555
Al17 O22 1.833077 1_565
Al17 O51 1.866634 1_555
Al18 O29 1.834198 1_554
Al18 O46 1.844464 1_555
Al18 O51 1.885636 1_555
Al18 O54 1.974872 1_564
Al18 O17 1.995603 1_565
Al19 O1 1.737017 1_555
Al19 O56 1.742644 1_555
Al19 O50 1.784994 1_555
Al19 O16 1.825685 1_555
Al20 O57 1.747200 1_555
Al20 O42 1.776028 1_555
Al20 O58 1.781886 1_555
Al20 O37 1.795190 1_555
Al21 O34 1.841129 1_455
Al21 O45 1.842693 1_555
Al21 O27 1.871057 1_555
Al21 O48 1.911235 1_555
Al21 O19 1.921634 1_555
Al21 O28 2.352916 1_555
Al22 O34 1.727270 1_555
Al22 O9 1.757950 1_555
Al22 O26 1.779182 1_555
Al22 O35 1.825576 1_555
Al23 O47 1.702193 1_445
Al23 O6 1.751848 1_555
Al23 O59 1.832673 1_455
Al23 O22 1.907455 1_555
Al24 O25 1.758327 1_555
Al24 O28 1.773874 1_555
Al24 O46 1.780268 1_555
Al24 O20 1.857299 1_565
Al25 O47 1.700583 1_445
Al25 O12 1.776669 1_455
Al25 O21 1.783428 1_545
Al25 O7 1.827207 1_555
Al26 O59 1.828081 1_555
Al26 O33 1.837793 1_544
Al26 O24 1.902348 1_554
Al26 O36 1.908030 1_545
Al26 O8 1.971429 1_555
Al26 O49 2.005124 1_554
Al27 O10 1.723320 1_555
Al27 O32 1.730407 1_556
Al27 O18 1.788290 1_555
Al27 O52 1.879602 1_556
Al28 O44 1.791202 1_555
Al28 O5 1.864935 1_555
Al28 O57 1.886322 1_555
Al28 O18 1.891344 1_555
Al28 O23 2.090429 1_555
Al29 O1 1.762130 1_555
Al29 O3 1.777023 1_555
Al29 O57 1.805805 1_555
Al29 O26 1.818364 1_555
Al30 O15 1.758771 1_555
Al30 O19 1.766661 1_555
Al30 O31 1.767346 1_555
Al30 O37 1.794521 1_555
Al31 O2 1.800303 1_555
Al31 O14 1.804202 1_555
Al31 O21 1.876937 1_655
Al31 O49 1.910507 1_565
Al31 O33 2.026563 1_555
Al32 O9 1.808698 1_555
Al32 O8 1.866597 1_565
Al32 O30 1.906275 1_565
Al32 O46 1.957906 1_555
Al32 O25 1.982368 1_555
Al33 O27 1.758551 1_655
Al33 O4 1.801411 1_555
Al33 O5 1.813414 1_555
Al33 O2 1.825548 1_555
Al34 O0 1.827899 1_556
Al34 O54 1.834848 1_555
Al34 O49 1.875028 1_455
Al34 O22 1.904844 1_556
Al34 O59 2.137079 1_456
Al35 O35 1.759529 1_555
Al35 O37 1.856416 1_555
Al35 O43 1.935409 1_555
Al35 O52 1.972239 1_555
Al35 O32 2.103478 1_555
Al36 O17 1.787320 1_555
Al36 O15 1.801404 1_555
Al36 O20 1.866580 1_555
Al36 O0 1.910286 1_555
Al36 O22 2.443270 1_555
Al37 O55 1.816244 1_555
Al37 O35 1.826549 1_555
Al37 O48 1.851966 1_655
Al37 O41 1.903967 1_555
Al37 O34 2.128486 1_555
Al37 O45 2.472957 1_655
Al38 O55 1.812124 1_555
Al38 O39 1.818441 1_555
Al38 O36 1.824800 1_555
Al38 O9 1.827110 1_555
Al38 O33 2.032406 1_554
Al39 O19 1.790509 1_555
Al39 O58 1.801818 1_555
Al39 O13 1.834075 1_555
Al39 O50 1.856132 1_555
Al39 O1 2.314627 1_555
