# generated using pymatgen
data_Ga
_symmetry_space_group_name_H-M   'P 1'
_cell_length_a   4.47016362
_cell_length_b   4.47016362
_cell_length_c   4.48825400
_cell_angle_alpha   90.00000000
_cell_angle_beta   90.00000000
_cell_angle_gamma   117.27112750
_symmetry_Int_Tables_number   1
_chemical_formula_structural   Ga
_chemical_formula_sum   Ga4
_cell_volume   79.71717227
_cell_formula_units_Z   4
loop_
 _symmetry_equiv_pos_site_id
 _symmetry_equiv_pos_as_xyz
  1  'x, y, z'
loop_
 _atom_site_type_symbol
 _atom_site_label
 _atom_site_symmetry_multiplicity
 _atom_site_fract_x
 _atom_site_fract_y
 _atom_site_fract_z
 _atom_site_occupancy
  Ga  Ga0  1  0.33444951  0.00968539  0.25000000  1
  Ga  Ga1  1  0.99031461  0.66555049  0.75000000  1
  Ga  Ga2  1  0.66555049  0.99031461  0.75000000  1
  Ga  Ga3  1  0.00968539  0.33444951  0.25000000  1
loop_
_geom_bond_atom_site_label_1
_geom_bond_atom_site_label_2
_geom_bond_distance
_geom_bond_site_symmetry_2
Ga0 Ga3 2.479221 1_555
Ga0 Ga3 2.683792 1_545
Ga0 Ga3 2.683792 1_655
Ga0 Ga2 2.711397 1_545
Ga0 Ga2 2.711397 1_544
Ga0 Ga1 2.756887 1_444
Ga0 Ga1 2.756887 1_445
Ga1 Ga2 2.479221 1_555
Ga1 Ga2 2.683792 1_545
Ga1 Ga2 2.683792 1_655
Ga1 Ga3 2.711397 1_656
Ga1 Ga3 2.711397 1_655
Ga2 Ga3 2.756887 1_665
Ga2 Ga3 2.756887 1_666
