# generated using pymatgen
data_Dy3Ga9Pd2
_symmetry_space_group_name_H-M   'P 1'
_cell_length_a   4.30992100
_cell_length_b   8.18792675
_cell_length_c   8.18792675
_cell_angle_alpha   70.90392839
_cell_angle_beta   74.74071826
_cell_angle_gamma   74.74071826
_symmetry_Int_Tables_number   1
_chemical_formula_structural   Dy3Ga9Pd2
_chemical_formula_sum   'Dy3 Ga9 Pd2'
_cell_volume   258.40234101
_cell_formula_units_Z   1
loop_
 _symmetry_equiv_pos_site_id
 _symmetry_equiv_pos_as_xyz
  1  'x, y, z'
loop_
 _atom_site_type_symbol
 _atom_site_label
 _atom_site_symmetry_multiplicity
 _atom_site_fract_x
 _atom_site_fract_y
 _atom_site_fract_z
 _atom_site_occupancy
  Dy  Dy0  1  0.50000000  0.50000000  0.50000000  1
  Dy  Dy1  1  0.19917800  0.80082200  0.80082200  1
  Dy  Dy2  1  0.80082200  0.19917800  0.19917800  1
  Ga  Ga0  1  0.36157200  0.35596100  0.92089500  1
  Ga  Ga1  1  0.63842800  0.64403900  0.07910500  1
  Ga  Ga2  1  0.36157200  0.92089500  0.35596100  1
  Ga  Ga3  1  0.63842800  0.07910500  0.64403900  1
  Ga  Ga4  1  0.15579200  0.47774000  0.21067500  1
  Ga  Ga5  1  0.84420800  0.52226000  0.78932500  1
  Ga  Ga6  1  0.15579200  0.21067500  0.47774000  1
  Ga  Ga7  1  0.84420800  0.78932500  0.52226000  1
  Ga  Ga8  1  0.50000000  0.00000000  0.00000000  1
  Pd  Pd0  1  0.00000000  0.81668100  0.18331900  1
  Pd  Pd1  1  0.00000000  0.18331900  0.81668100  1
loop_
_geom_bond_atom_site_label_1
_geom_bond_atom_site_label_2
_geom_bond_distance
_geom_bond_site_symmetry_2
Dy0 Ga7 3.181314 1_455
Dy0 Ga5 3.181314 1_455
Dy0 Ga4 3.181314 1_655
Dy0 Ga6 3.181314 1_655
Dy0 Ga7 3.181317 1_555
Dy0 Ga5 3.181317 1_555
Dy0 Ga6 3.181317 1_555
Dy0 Ga4 3.181317 1_555
Dy0 Ga2 3.201919 1_555
Dy0 Ga0 3.201919 1_555
Dy0 Ga3 3.201919 1_555
Dy0 Ga1 3.201919 1_555
Dy1 Pd0 3.058523 1_556
Dy1 Pd1 3.058523 1_565
Dy1 Ga1 3.082405 1_556
Dy1 Ga3 3.082405 1_565
Dy1 Ga1 3.082405 1_456
Dy1 Ga3 3.082405 1_465
Dy1 Ga7 3.099152 1_455
Dy1 Ga5 3.099152 1_455
Dy1 Ga7 3.099155 1_555
Dy1 Ga5 3.099155 1_555
Dy1 Ga2 3.376581 1_555
Dy1 Ga0 3.376581 1_555
Dy2 Pd0 3.058523 1_645
Dy2 Pd1 3.058523 1_654
Dy2 Ga0 3.082405 1_554
Dy2 Ga2 3.082405 1_545
Dy2 Ga0 3.082405 1_654
Dy2 Ga2 3.082405 1_645
Dy2 Ga4 3.099152 1_655
Dy2 Ga6 3.099152 1_655
Dy2 Ga6 3.099155 1_555
Dy2 Ga4 3.099155 1_555
Dy2 Ga3 3.376581 1_555
Dy2 Ga1 3.376581 1_555
Ga0 Ga5 2.587098 1_455
Ga0 Ga5 2.587101 1_555
Ga0 Ga8 2.706136 1_556
Ga0 Ga4 2.717601 1_556
Ga0 Pd1 2.793467 1_555
Ga0 Pd1 2.793467 1_655
Ga1 Ga4 2.587098 1_655
Ga1 Ga4 2.587101 1_555
Ga1 Ga8 2.706136 1_565
Ga1 Ga5 2.717601 1_554
Ga1 Pd0 2.793467 1_655
Ga1 Pd0 2.793467 1_555
Ga2 Ga7 2.587098 1_455
Ga2 Ga7 2.587101 1_555
Ga2 Ga8 2.706136 1_565
Ga2 Ga6 2.717601 1_565
Ga2 Pd0 2.793467 1_555
Ga2 Pd0 2.793467 1_655
Ga3 Ga6 2.587098 1_655
Ga3 Ga6 2.587101 1_555
Ga3 Ga8 2.706136 1_556
Ga3 Ga7 2.717601 1_545
Ga3 Pd1 2.793467 1_655
Ga3 Pd1 2.793467 1_555
Ga4 Ga6 2.536670 1_555
Ga4 Pd0 2.625731 1_555
Ga5 Ga7 2.536670 1_555
Ga5 Pd1 2.625731 1_655
Ga6 Pd1 2.625731 1_555
Ga7 Pd0 2.625731 1_655
Ga8 Pd0 2.770508 1_645
Ga8 Pd1 2.770508 1_654
Ga8 Pd1 2.770508 1_554
Ga8 Pd0 2.770508 1_545
