# generated using pymatgen
data_Ce2Mn3Cu9As7
_symmetry_space_group_name_H-M   'P 1'
_cell_length_a   9.83213329
_cell_length_b   9.83213329
_cell_length_c   4.00177800
_cell_angle_alpha   90.00000000
_cell_angle_beta   90.00000000
_cell_angle_gamma   119.99999524
_symmetry_Int_Tables_number   1
_chemical_formula_structural   Ce2Mn3Cu9As7
_chemical_formula_sum   'Ce2 Mn3 Cu9 As7'
_cell_volume   335.02649974
_cell_formula_units_Z   1
loop_
 _symmetry_equiv_pos_site_id
 _symmetry_equiv_pos_as_xyz
  1  'x, y, z'
loop_
 _atom_site_type_symbol
 _atom_site_label
 _atom_site_symmetry_multiplicity
 _atom_site_fract_x
 _atom_site_fract_y
 _atom_site_fract_z
 _atom_site_occupancy
  Ce  Ce0  1  0.33333300  0.66666700  0.00000000  1
  Ce  Ce1  1  0.00000000  0.00000000  0.50000000  1
  Mn  Mn0  1  0.79042800  0.23917800  0.50000000  1
  Mn  Mn1  1  0.76082200  0.55124900  0.50000000  1
  Mn  Mn2  1  0.44875100  0.20957200  0.50000000  1
  Cu  Cu0  1  0.04010200  0.28559700  0.00000000  1
  Cu  Cu1  1  0.71440300  0.75450500  0.00000000  1
  Cu  Cu2  1  0.24549500  0.95989800  0.00000000  1
  Cu  Cu3  1  0.54628900  0.05171200  0.00000000  1
  Cu  Cu4  1  0.94828800  0.49457600  0.00000000  1
  Cu  Cu5  1  0.50542400  0.45371100  0.00000000  1
  Cu  Cu6  1  0.62282500  0.91175600  0.50000000  1
  Cu  Cu7  1  0.08824400  0.71106800  0.50000000  1
  Cu  Cu8  1  0.28893200  0.37717500  0.50000000  1
  As  As0  1  0.78950600  0.03829200  0.00000000  1
  As  As1  1  0.96170800  0.75121300  0.00000000  1
  As  As2  1  0.24878700  0.21049400  0.00000000  1
  As  As3  1  0.37031700  0.91700000  0.50000000  1
  As  As4  1  0.08300000  0.45331700  0.50000000  1
  As  As5  1  0.54668300  0.62968300  0.50000000  1
  As  As6  1  0.66666700  0.33333300  0.00000000  1
loop_
_geom_bond_atom_site_label_1
_geom_bond_atom_site_label_2
_geom_bond_distance
_geom_bond_site_symmetry_2
Ce0 Cu4 3.284760 1_455
Ce0 Cu3 3.284761 1_565
Ce0 Cu5 3.284777 1_555
Ce0 Cu7 3.324607 1_555
Ce0 Cu7 3.324607 1_554
Ce0 Cu6 3.324617 1_555
Ce0 Cu6 3.324617 1_554
Ce0 Cu8 3.324623 1_555
Ce0 Cu8 3.324623 1_554
Ce0 Cu2 3.398233 1_555
Ce0 Cu0 3.398240 1_555
Ce0 Cu1 3.398242 1_555
Cu0 Mn0 3.019546 1_455
Cu0 Mn0 3.019546 1_454
Cu1 Mn1 3.019553 1_555
Cu1 Mn1 3.019553 1_554
Cu2 Mn2 3.019549 1_564
Cu2 Mn2 3.019549 1_565
Cu3 Mn0 2.956088 1_554
Cu3 Mn0 2.956088 1_555
Cu3 Mn2 2.969973 1_554
Cu3 Mn2 2.969973 1_555
Cu4 Mn1 2.956088 1_555
Cu4 Mn1 2.956088 1_554
Cu4 Mn0 2.969973 1_555
Cu4 Mn0 2.969973 1_554
Cu5 Mn2 2.956088 1_554
Cu5 Mn2 2.956088 1_555
Cu5 Mn1 2.969973 1_555
Cu5 Mn1 2.969973 1_554
Cu6 Mn0 2.788221 1_565
Cu7 Mn1 2.788221 1_455
Cu8 Mn2 2.788221 1_555
As0 Cu0 2.447875 1_655
As0 Cu3 2.459971 1_555
As0 Cu6 2.489629 1_544
As0 Cu6 2.489629 1_545
As0 Cu1 2.504055 1_545
As0 Mn0 2.808363 1_554
As0 Mn0 2.808363 1_555
As0 Ce1 3.034429 1_654
As0 Ce1 3.034429 1_655
As1 Cu1 2.447880 1_555
As1 Cu4 2.459971 1_555
As1 Cu7 2.489629 1_655
As1 Cu7 2.489629 1_654
As1 Cu2 2.504057 1_655
As1 Mn1 2.808363 1_555
As1 Mn1 2.808363 1_554
As1 Ce1 3.034436 1_665
As1 Ce1 3.034436 1_664
As2 Cu2 2.447870 1_545
As2 Cu5 2.459971 1_555
As2 Cu8 2.489629 1_555
As2 Cu8 2.489629 1_554
As2 Cu0 2.504064 1_555
As2 Mn2 2.808363 1_554
As2 Mn2 2.808363 1_555
As2 Ce1 3.034433 1_555
As2 Ce1 3.034433 1_554
As3 Cu7 2.485125 1_555
As3 Cu2 2.491038 1_555
As3 Cu2 2.491038 1_556
As3 Cu6 2.508870 1_555
As3 Cu3 2.541606 1_565
As3 Cu3 2.541606 1_566
As3 Mn2 2.578995 1_565
As3 Ce0 3.049395 1_556
As3 Ce0 3.049395 1_555
As4 Cu8 2.485132 1_555
As4 Cu0 2.491038 1_556
As4 Cu0 2.491038 1_555
As4 Cu7 2.508860 1_555
As4 Cu4 2.541602 1_456
As4 Cu4 2.541602 1_455
As4 Mn0 2.578997 1_455
As4 Ce0 3.049398 1_556
As4 Ce0 3.049398 1_555
As5 Cu6 2.485123 1_555
As5 Cu1 2.491038 1_555
As5 Cu1 2.491038 1_556
As5 Cu8 2.508865 1_555
As5 Cu5 2.541608 1_555
As5 Cu5 2.541608 1_556
As5 Mn1 2.579004 1_555
As5 Ce0 3.049402 1_555
As5 Ce0 3.049402 1_556
As6 Cu5 2.406369 1_555
As6 Cu3 2.406369 1_555
As6 Cu4 2.406369 1_555
As6 Mn0 2.732714 1_555
As6 Mn0 2.732714 1_554
As6 Mn1 2.732714 1_555
As6 Mn1 2.732714 1_554
As6 Mn2 2.732714 1_554
As6 Mn2 2.732714 1_555
