# generated using pymatgen
data_MgTi2O4
_symmetry_space_group_name_H-M   'P 1'
_cell_length_a   5.96475054
_cell_length_b   5.96475054
_cell_length_c   5.96475054
_cell_angle_alpha   120.41336497
_cell_angle_beta   118.65694655
_cell_angle_gamma   90.81367351
_symmetry_Int_Tables_number   1
_chemical_formula_structural   MgTi2O4
_chemical_formula_sum   'Mg2 Ti4 O8'
_cell_volume   151.05316171
_cell_formula_units_Z   2
loop_
 _symmetry_equiv_pos_site_id
 _symmetry_equiv_pos_as_xyz
  1  'x, y, z'
loop_
 _atom_site_type_symbol
 _atom_site_label
 _atom_site_symmetry_multiplicity
 _atom_site_fract_x
 _atom_site_fract_y
 _atom_site_fract_z
 _atom_site_occupancy
  Mg  Mg0  1  0.50000000  0.50000000  0.50000000  1
  Mg  Mg1  1  0.50000000  0.00000000  0.00000000  1
  Ti  Ti0  1  0.00000000  0.00000000  0.00000000  1
  Ti  Ti1  1  0.00000000  0.50000000  0.00000000  1
  Ti  Ti2  1  0.50000000  0.00000000  0.50000000  1
  Ti  Ti3  1  0.00000000  0.00000000  0.50000000  1
  O  O0  1  0.75318200  0.77885400  0.52567200  1
  O  O1  1  0.24575600  0.24320700  0.00254900  1
  O  O2  1  0.75318200  0.22751100  0.97432800  1
  O  O3  1  0.25934200  0.75679300  0.50254900  1
  O  O4  1  0.24681800  0.77248900  0.02567200  1
  O  O5  1  0.75424400  0.75679300  0.99745100  1
  O  O6  1  0.74065800  0.24320700  0.49745100  1
  O  O7  1  0.24681800  0.22114600  0.47432800  1
loop_
_geom_bond_atom_site_label_1
_geom_bond_atom_site_label_2
_geom_bond_distance
_geom_bond_site_symmetry_2
Mg0 O6 2.113461 1_555
Mg0 O1 2.113461 1_555
Mg0 O5 2.113461 1_555
Mg0 O3 2.113461 1_555
Mg0 O7 2.125934 1_555
Mg0 O0 2.125934 1_555
Mg1 O6 2.113461 1_555
Mg1 O5 2.113461 1_544
Mg1 O3 2.113461 1_544
Mg1 O1 2.113461 1_555
Mg1 O2 2.125938 1_554
Mg1 O4 2.125938 1_545
O0 Ti0 2.020721 1_666
O0 Ti2 2.020721 1_565
O0 Ti3 2.072773 1_665
O1 Ti0 2.036996 1_555
O1 Ti1 2.135676 1_555
O1 Ti3 2.135676 1_554
O2 Ti2 2.020721 1_555
O2 Ti0 2.020726 1_656
O2 Ti1 2.072769 1_656
O3 Ti2 2.036996 1_565
O3 Ti3 2.135676 1_565
O3 Ti1 2.135676 1_555
O4 Ti2 2.020721 1_565
O4 Ti0 2.020726 1_565
O4 Ti1 2.072769 1_555
O5 Ti0 2.036996 1_666
O5 Ti1 2.135676 1_656
O5 Ti3 2.135676 1_666
O6 Ti2 2.036996 1_555
O6 Ti1 2.135676 1_656
O6 Ti3 2.135676 1_655
O7 Ti2 2.020721 1_555
O7 Ti0 2.020721 1_555
O7 Ti3 2.072773 1_555
