# generated using pymatgen
data_YMg30BiO32
_symmetry_space_group_name_H-M   'P 1'
_cell_length_a   8.72861000
_cell_length_b   8.72861000
_cell_length_c   8.67365000
_cell_angle_alpha   90.00000000
_cell_angle_beta   90.00000000
_cell_angle_gamma   90.00000000
_symmetry_Int_Tables_number   1
_chemical_formula_structural   YMg30BiO32
_chemical_formula_sum   'Y1 Mg30 Bi1 O32'
_cell_volume   660.83353256
_cell_formula_units_Z   1
loop_
 _symmetry_equiv_pos_site_id
 _symmetry_equiv_pos_as_xyz
  1  'x, y, z'
loop_
 _atom_site_type_symbol
 _atom_site_label
 _atom_site_symmetry_multiplicity
 _atom_site_fract_x
 _atom_site_fract_y
 _atom_site_fract_z
 _atom_site_occupancy
  Y  Y0  1  0.00000000  0.00000000  0.00000000  1
  Mg  Mg0  1  0.50000000  0.00000000  0.00000000  1
  Mg  Mg1  1  0.00000000  0.50000000  0.00000000  1
  Mg  Mg2  1  0.00000000  0.00000000  0.50000000  1
  Mg  Mg3  1  0.50000000  0.00000000  0.50000000  1
  Mg  Mg4  1  0.00000000  0.50000000  0.50000000  1
  Mg  Mg5  1  0.50000000  0.50000000  0.50000000  1
  Mg  Mg6  1  0.25222300  0.25222300  0.00000000  1
  Mg  Mg7  1  0.74777700  0.25222300  0.00000000  1
  Mg  Mg8  1  0.25222300  0.74777700  0.00000000  1
  Mg  Mg9  1  0.74777700  0.74777700  0.00000000  1
  Mg  Mg10  1  0.25043300  0.25043300  0.50000000  1
  Mg  Mg11  1  0.74956700  0.25043300  0.50000000  1
  Mg  Mg12  1  0.25043300  0.74956700  0.50000000  1
  Mg  Mg13  1  0.74956700  0.74956700  0.50000000  1
  Mg  Mg14  1  0.25626500  0.00000000  0.25633200  1
  Mg  Mg15  1  0.74373500  0.00000000  0.25633200  1
  Mg  Mg16  1  0.24537000  0.50000000  0.25510800  1
  Mg  Mg17  1  0.75463000  0.50000000  0.25510800  1
  Mg  Mg18  1  0.25626500  0.00000000  0.74366800  1
  Mg  Mg19  1  0.74373500  0.00000000  0.74366800  1
  Mg  Mg20  1  0.24537000  0.50000000  0.74489200  1
  Mg  Mg21  1  0.75463000  0.50000000  0.74489200  1
  Mg  Mg22  1  0.00000000  0.25626500  0.25633200  1
  Mg  Mg23  1  0.50000000  0.24537000  0.25510800  1
  Mg  Mg24  1  0.00000000  0.74373500  0.25633200  1
  Mg  Mg25  1  0.50000000  0.75463000  0.25510800  1
  Mg  Mg26  1  0.00000000  0.25626500  0.74366800  1
  Mg  Mg27  1  0.50000000  0.24537000  0.74489200  1
  Mg  Mg28  1  0.00000000  0.74373500  0.74366800  1
  Mg  Mg29  1  0.50000000  0.75463000  0.74489200  1
  Bi  Bi0  1  0.50000000  0.50000000  0.00000000  1
  O  O0  1  0.00000000  0.00000000  0.25907500  1
  O  O1  1  0.50000000  0.00000000  0.25606500  1
  O  O2  1  0.00000000  0.50000000  0.25606500  1
  O  O3  1  0.50000000  0.50000000  0.27313200  1
  O  O4  1  0.00000000  0.00000000  0.74092500  1
  O  O5  1  0.50000000  0.00000000  0.74393500  1
  O  O6  1  0.00000000  0.50000000  0.74393500  1
  O  O7  1  0.50000000  0.50000000  0.72686800  1
  O  O8  1  0.24951700  0.24951700  0.24991800  1
  O  O9  1  0.75048300  0.24951700  0.24991800  1
  O  O10  1  0.24951700  0.75048300  0.24991800  1
  O  O11  1  0.75048300  0.75048300  0.24991800  1
  O  O12  1  0.24951700  0.24951700  0.75008200  1
  O  O13  1  0.75048300  0.24951700  0.75008200  1
  O  O14  1  0.24951700  0.75048300  0.75008200  1
  O  O15  1  0.75048300  0.75048300  0.75008200  1
  O  O16  1  0.25473800  0.00000000  0.00000000  1
  O  O17  1  0.74526200  0.00000000  0.00000000  1
  O  O18  1  0.22253200  0.50000000  0.00000000  1
  O  O19  1  0.77746800  0.50000000  0.00000000  1
  O  O20  1  0.25035000  0.00000000  0.50000000  1
  O  O21  1  0.74965000  0.00000000  0.50000000  1
  O  O22  1  0.24670000  0.50000000  0.50000000  1
  O  O23  1  0.75330000  0.50000000  0.50000000  1
  O  O24  1  0.00000000  0.25473800  0.00000000  1
  O  O25  1  0.50000000  0.22253200  0.00000000  1
  O  O26  1  0.00000000  0.74526200  0.00000000  1
  O  O27  1  0.50000000  0.77746800  0.00000000  1
  O  O28  1  0.00000000  0.25035000  0.50000000  1
  O  O29  1  0.50000000  0.24670000  0.50000000  1
  O  O30  1  0.00000000  0.74965000  0.50000000  1
  O  O31  1  0.50000000  0.75330000  0.50000000  1
loop_
_geom_bond_atom_site_label_1
_geom_bond_atom_site_label_2
_geom_bond_distance
_geom_bond_site_symmetry_2
Mg0 O27 1.942395 1_545
Mg0 O25 1.942395 1_555
Mg0 O17 2.140796 1_555
Mg0 O16 2.140796 1_555
Mg0 O1 2.221018 1_555
Mg0 O5 2.221018 1_554
Mg1 O19 1.942395 1_455
Mg1 O18 1.942395 1_555
Mg1 O24 2.140796 1_555
Mg1 O26 2.140796 1_555
Mg1 O2 2.221018 1_555
Mg1 O6 2.221018 1_554
Mg2 O4 2.089699 1_555
Mg2 O0 2.089699 1_555
Mg2 O30 2.185208 1_545
Mg2 O21 2.185208 1_455
Mg2 O20 2.185208 1_555
Mg2 O28 2.185208 1_555
Mg3 O1 2.115807 1_555
Mg3 O5 2.115807 1_555
Mg3 O29 2.153348 1_555
Mg3 O31 2.153348 1_545
Mg3 O20 2.179097 1_555
Mg3 O21 2.179097 1_555
Mg4 O6 2.115807 1_555
Mg4 O2 2.115807 1_555
Mg4 O22 2.153348 1_555
Mg4 O23 2.153348 1_455
Mg4 O28 2.179097 1_555
Mg4 O30 2.179097 1_555
Mg5 O7 1.967774 1_555
Mg5 O3 1.967774 1_555
Mg5 O22 2.210957 1_555
Mg5 O23 2.210957 1_555
Mg5 O29 2.210957 1_555
Mg5 O31 2.210957 1_555
Mg6 O8 2.167959 1_555
Mg6 O12 2.167959 1_554
Mg6 O25 2.178221 1_555
Mg6 O18 2.178221 1_555
Mg6 O24 2.201666 1_555
Mg6 O16 2.201666 1_555
Mg7 O9 2.167959 1_555
Mg7 O13 2.167959 1_554
Mg7 O25 2.178221 1_555
Mg7 O19 2.178221 1_555
Mg7 O17 2.201666 1_555
Mg7 O24 2.201666 1_655
Mg8 O14 2.167959 1_554
Mg8 O10 2.167959 1_555
Mg8 O27 2.178221 1_555
Mg8 O18 2.178221 1_555
Mg8 O16 2.201666 1_565
Mg8 O26 2.201666 1_555
Mg9 O15 2.167959 1_554
Mg9 O11 2.167959 1_555
Mg9 O27 2.178221 1_555
Mg9 O19 2.178221 1_555
Mg9 O17 2.201666 1_565
Mg9 O26 2.201666 1_655
Mg10 O12 2.169153 1_555
Mg10 O8 2.169153 1_555
Mg10 O29 2.178617 1_555
Mg10 O22 2.178617 1_555
Mg10 O28 2.185932 1_555
Mg10 O20 2.185932 1_555
Mg11 O9 2.169153 1_555
Mg11 O13 2.169153 1_555
Mg11 O29 2.178617 1_555
Mg11 O23 2.178617 1_555
Mg11 O28 2.185932 1_655
Mg11 O21 2.185932 1_555
Mg12 O10 2.169153 1_555
Mg12 O14 2.169153 1_555
Mg12 O31 2.178617 1_555
Mg12 O22 2.178617 1_555
Mg12 O20 2.185932 1_565
Mg12 O30 2.185932 1_555
Mg13 O15 2.169153 1_555
Mg13 O11 2.169153 1_555
Mg13 O31 2.178617 1_555
Mg13 O23 2.178617 1_555
Mg13 O30 2.185932 1_655
Mg13 O21 2.185932 1_565
Mg14 O20 2.114121 1_555
Mg14 O1 2.127469 1_555
Mg14 O8 2.179443 1_555
Mg14 O10 2.179443 1_545
Mg14 O16 2.223374 1_555
Mg14 O0 2.236964 1_555
Mg15 O21 2.114121 1_555
Mg15 O1 2.127469 1_555
Mg15 O9 2.179443 1_555
Mg15 O11 2.179443 1_545
Mg15 O17 2.223374 1_555
Mg15 O0 2.236964 1_655
Mg16 O22 2.124139 1_555
Mg16 O2 2.141755 1_555
Mg16 O10 2.187131 1_555
Mg16 O8 2.187131 1_555
Mg16 O18 2.221679 1_555
Mg16 O3 2.228057 1_555
Mg17 O23 2.124139 1_555
Mg17 O2 2.141755 1_655
Mg17 O11 2.187131 1_555
Mg17 O9 2.187131 1_555
Mg17 O19 2.221679 1_555
Mg17 O3 2.228057 1_555
Mg18 O20 2.114121 1_555
Mg18 O5 2.127469 1_555
Mg18 O14 2.179443 1_545
Mg18 O12 2.179443 1_555
Mg18 O16 2.223374 1_556
Mg18 O4 2.236964 1_555
Mg19 O21 2.114121 1_555
Mg19 O5 2.127469 1_555
Mg19 O15 2.179443 1_545
Mg19 O13 2.179443 1_555
Mg19 O17 2.223374 1_556
Mg19 O4 2.236964 1_655
Mg20 O22 2.124139 1_555
Mg20 O6 2.141755 1_555
Mg20 O12 2.187131 1_555
Mg20 O14 2.187131 1_555
Mg20 O18 2.221679 1_556
Mg20 O7 2.228057 1_555
Mg21 O23 2.124139 1_555
Mg21 O6 2.141755 1_655
Mg21 O13 2.187131 1_555
Mg21 O15 2.187131 1_555
Mg21 O19 2.221679 1_556
Mg21 O7 2.228057 1_555
Mg22 O28 2.114121 1_555
Mg22 O2 2.127469 1_555
Mg22 O9 2.179443 1_455
Mg22 O8 2.179443 1_555
Mg22 O24 2.223374 1_555
Mg22 O0 2.236964 1_555
Mg23 O29 2.124139 1_555
Mg23 O1 2.141755 1_555
Mg23 O9 2.187131 1_555
Mg23 O8 2.187131 1_555
Mg23 O25 2.221679 1_555
Mg23 O3 2.228057 1_555
Mg24 O30 2.114121 1_555
Mg24 O2 2.127469 1_555
Mg24 O10 2.179443 1_555
Mg24 O11 2.179443 1_455
Mg24 O26 2.223374 1_555
Mg24 O0 2.236964 1_565
Mg25 O31 2.124139 1_555
Mg25 O1 2.141755 1_565
Mg25 O10 2.187131 1_555
Mg25 O11 2.187131 1_555
Mg25 O27 2.221679 1_555
Mg25 O3 2.228057 1_555
Mg26 O28 2.114121 1_555
Mg26 O6 2.127469 1_555
Mg26 O13 2.179443 1_455
Mg26 O12 2.179443 1_555
Mg26 O24 2.223374 1_556
Mg26 O4 2.236964 1_555
Mg27 O29 2.124139 1_555
Mg27 O5 2.141755 1_555
Mg27 O13 2.187131 1_555
Mg27 O12 2.187131 1_555
Mg27 O25 2.221679 1_556
Mg27 O7 2.228057 1_555
Mg28 O30 2.114121 1_555
Mg28 O6 2.127469 1_555
Mg28 O15 2.179443 1_455
Mg28 O14 2.179443 1_555
Mg28 O26 2.223374 1_556
Mg28 O4 2.236964 1_565
Mg29 O31 2.124139 1_555
Mg29 O5 2.141755 1_565
Mg29 O14 2.187131 1_555
Mg29 O15 2.187131 1_555
Mg29 O27 2.221679 1_556
Mg29 O7 2.228057 1_555
Bi0 O3 2.369051 1_555
Bi0 O7 2.369051 1_554
Bi0 O25 2.421910 1_555
Bi0 O18 2.421910 1_555
Bi0 O19 2.421910 1_555
Bi0 O27 2.421910 1_555
O0 Y0 2.247126 1_555
O4 Y0 2.247126 1_556
O16 Y0 2.223509 1_555
O17 Y0 2.223509 1_655
O24 Y0 2.223509 1_555
O26 Y0 2.223509 1_565
