# generated using pymatgen
data_Rb2TaF7
_symmetry_space_group_name_H-M   'P 1'
_cell_length_a   5.88896519
_cell_length_b   5.82373582
_cell_length_c   10.46523658
_cell_angle_alpha   90.00000000
_cell_angle_beta   90.00000000
_cell_angle_gamma   90.00000000
_symmetry_Int_Tables_number   1
_chemical_formula_structural   Rb2TaF7
_chemical_formula_sum   'Rb4 Ta2 F14'
_cell_volume   358.91342544
_cell_formula_units_Z   2
loop_
 _symmetry_equiv_pos_site_id
 _symmetry_equiv_pos_as_xyz
  1  'x, y, z'
loop_
 _atom_site_type_symbol
 _atom_site_label
 _atom_site_symmetry_multiplicity
 _atom_site_fract_x
 _atom_site_fract_y
 _atom_site_fract_z
 _atom_site_occupancy
  Rb  Rb0  1  -0.00000000  0.50000000  0.36238653  1
  Rb  Rb1  1  0.50000000  0.00000000  0.63761347  1
  Rb  Rb2  1  0.50000000  0.50000000  -0.00560153  1
  Rb  Rb3  1  -0.00000000  0.00000000  0.00560153  1
  Ta  Ta0  1  -0.00000000  0.50000000  0.75613967  1
  Ta  Ta1  1  0.50000000  0.00000000  0.24386033  1
  F  F0  1  0.21601025  0.25596265  0.79816791  1
  F  F1  1  0.28398975  0.24403735  0.20183209  1
  F  F2  1  0.71601025  0.75596265  0.20183209  1
  F  F3  1  0.78398975  0.74403735  0.79816791  1
  F  F4  1  0.21601025  0.74403735  0.79816791  1
  F  F5  1  0.71601025  0.24403735  0.20183209  1
  F  F6  1  0.28398975  0.75596265  0.20183209  1
  F  F7  1  0.78398975  0.25596265  0.79816791  1
  F  F8  1  -0.00000000  0.50000000  0.94921490  1
  F  F9  1  0.50000000  0.00000000  0.05078510  1
  F  F10  1  0.20310189  0.50000000  0.60753003  1
  F  F11  1  0.79689811  0.50000000  0.60753003  1
  F  F12  1  0.29689811  0.00000000  0.39246997  1
  F  F13  1  0.70310189  0.00000000  0.39246997  1
loop_
_geom_bond_atom_site_label_1
_geom_bond_atom_site_label_2
_geom_bond_distance
_geom_bond_site_symmetry_2
F0 Ta0 1.957414 1_555
F0 Rb1 2.800395 1_555
F0 Rb3 2.924517 1_556
F0 Rb2 3.005669 1_556
F1 Ta1 1.957414 1_555
F1 Rb0 2.800395 1_555
F1 Rb2 2.924517 1_555
F1 Rb3 3.005669 1_555
F2 Ta1 1.957414 1_565
F2 Rb0 2.800395 1_655
F2 Rb2 2.924517 1_555
F2 Rb3 3.005669 1_665
F3 Ta0 1.957414 1_655
F3 Rb1 2.800395 1_565
F3 Rb3 2.924517 1_666
F3 Rb2 3.005669 1_556
F4 Ta0 1.957414 1_555
F4 Rb1 2.800395 1_565
F4 Rb3 2.924517 1_566
F4 Rb2 3.005669 1_556
F5 Ta1 1.957414 1_555
F5 Rb0 2.800395 1_655
F5 Rb2 2.924517 1_555
F5 Rb3 3.005669 1_655
F6 Ta1 1.957414 1_565
F6 Rb0 2.800395 1_555
F6 Rb2 2.924517 1_555
F6 Rb3 3.005669 1_565
F7 Ta0 1.957414 1_655
F7 Rb1 2.800395 1_555
F7 Rb3 2.924517 1_656
F7 Rb2 3.005669 1_556
F8 Ta0 2.020578 1_555
F8 Rb3 2.971059 1_556
F8 Rb3 2.971059 1_566
F8 Rb2 2.982209 1_456
F8 Rb2 2.982209 1_556
F9 Ta1 2.020578 1_555
F9 Rb2 2.971059 1_555
F9 Rb2 2.971059 1_545
F9 Rb3 2.982209 1_555
F9 Rb3 2.982209 1_655
F10 Ta0 1.961967 1_555
F10 Rb0 2.830596 1_555
F11 Ta0 1.961967 1_655
F11 Rb0 2.830596 1_655
F12 Ta1 1.961967 1_555
F12 Rb1 2.830596 1_555
F13 Ta1 1.961967 1_555
F13 Rb1 2.830596 1_555
