# generated using pymatgen
data_Pr(Ga5Mo)8
_symmetry_space_group_name_H-M   'P 1'
_cell_length_a   9.64005233
_cell_length_b   9.64005233
_cell_length_c   9.64005211
_cell_angle_alpha   94.27405196
_cell_angle_beta   94.27405196
_cell_angle_gamma   94.27405107
_symmetry_Int_Tables_number   1
_chemical_formula_structural   Pr(Ga5Mo)8
_chemical_formula_sum   'Pr1 Ga40 Mo8'
_cell_volume   887.98675067
_cell_formula_units_Z   1
loop_
 _symmetry_equiv_pos_site_id
 _symmetry_equiv_pos_as_xyz
  1  'x, y, z'
loop_
 _atom_site_type_symbol
 _atom_site_label
 _atom_site_symmetry_multiplicity
 _atom_site_fract_x
 _atom_site_fract_y
 _atom_site_fract_z
 _atom_site_occupancy
  Pr  Pr0  1  0.00000000  0.00000000  0.00000000  1
  Ga  Ga0  1  0.50000000  0.50000000  0.50000000  1
  Ga  Ga1  1  0.00000000  0.50000000  0.50000000  1
  Ga  Ga2  1  0.50000000  0.00000000  0.50000000  1
  Ga  Ga3  1  0.50000000  0.50000000  0.00000000  1
  Ga  Ga4  1  0.26931800  0.63932100  0.61140900  1
  Ga  Ga5  1  0.61140900  0.26931800  0.63932100  1
  Ga  Ga6  1  0.63932100  0.61140900  0.26931800  1
  Ga  Ga7  1  0.73068200  0.36067900  0.38859100  1
  Ga  Ga8  1  0.38859100  0.73068200  0.36067900  1
  Ga  Ga9  1  0.36067900  0.38859100  0.73068200  1
  Ga  Ga10  1  0.67376600  0.77604100  0.53089500  1
  Ga  Ga11  1  0.53089500  0.67376600  0.77604100  1
  Ga  Ga12  1  0.77604100  0.53089500  0.67376600  1
  Ga  Ga13  1  0.32623400  0.22395900  0.46910500  1
  Ga  Ga14  1  0.46910500  0.32623400  0.22395900  1
  Ga  Ga15  1  0.22395900  0.46910500  0.32623400  1
  Ga  Ga16  1  0.77917900  0.07225800  0.44263800  1
  Ga  Ga17  1  0.44263800  0.77917900  0.07225800  1
  Ga  Ga18  1  0.07225800  0.44263800  0.77917900  1
  Ga  Ga19  1  0.22082100  0.92774200  0.55736200  1
  Ga  Ga20  1  0.55736200  0.22082100  0.92774200  1
  Ga  Ga21  1  0.92774200  0.55736200  0.22082100  1
  Ga  Ga22  1  0.96507700  0.78590300  0.59539700  1
  Ga  Ga23  1  0.59539700  0.96507700  0.78590300  1
  Ga  Ga24  1  0.78590300  0.59539700  0.96507700  1
  Ga  Ga25  1  0.03492300  0.21409700  0.40460300  1
  Ga  Ga26  1  0.40460300  0.03492300  0.21409700  1
  Ga  Ga27  1  0.21409700  0.40460300  0.03492300  1
  Ga  Ga28  1  0.03986300  0.70972300  0.85824100  1
  Ga  Ga29  1  0.85824100  0.03986300  0.70972300  1
  Ga  Ga30  1  0.70972300  0.85824100  0.03986300  1
  Ga  Ga31  1  0.96013700  0.29027700  0.14175900  1
  Ga  Ga32  1  0.14175900  0.96013700  0.29027700  1
  Ga  Ga33  1  0.29027700  0.14175900  0.96013700  1
  Ga  Ga34  1  0.12075200  0.17057200  0.69108300  1
  Ga  Ga35  1  0.69108300  0.12075200  0.17057200  1
  Ga  Ga36  1  0.17057200  0.69108300  0.12075200  1
  Ga  Ga37  1  0.87924800  0.82942800  0.30891700  1
  Ga  Ga38  1  0.30891700  0.87924800  0.82942800  1
  Ga  Ga39  1  0.82942800  0.30891700  0.87924800  1
  Mo  Mo0  1  0.78818100  0.78818100  0.78818100  1
  Mo  Mo1  1  0.21181900  0.21181900  0.21181900  1
  Mo  Mo2  1  0.29009200  0.61047800  0.88614400  1
  Mo  Mo3  1  0.88614400  0.29009200  0.61047800  1
  Mo  Mo4  1  0.61047800  0.88614400  0.29009200  1
  Mo  Mo5  1  0.70990800  0.38952200  0.11385600  1
  Mo  Mo6  1  0.11385600  0.70990800  0.38952200  1
  Mo  Mo7  1  0.38952200  0.11385600  0.70990800  1
loop_
_geom_bond_atom_site_label_1
_geom_bond_atom_site_label_2
_geom_bond_distance
_geom_bond_site_symmetry_2
Ga0 Ga6 2.913530 1_555
Ga0 Ga9 2.913530 1_555
Ga0 Ga5 2.913530 1_555
Ga0 Ga8 2.913530 1_555
Ga0 Ga4 2.913530 1_555
Ga0 Ga7 2.913530 1_555
Ga0 Ga14 3.019765 1_555
Ga0 Ga11 3.019765 1_555
Ga0 Ga15 3.019765 1_555
Ga0 Ga12 3.019765 1_555
Ga0 Ga10 3.019765 1_555
Ga0 Ga13 3.019765 1_555
Ga1 Mo3 2.568656 1_455
Ga1 Mo6 2.568656 1_555
Ga2 Mo4 2.568656 1_545
Ga2 Mo7 2.568656 1_555
Ga3 Mo2 2.568656 1_554
Ga3 Mo5 2.568656 1_555
Ga4 Mo2 2.677828 1_555
Ga4 Mo6 2.678710 1_555
Ga5 Mo3 2.677828 1_555
Ga5 Mo7 2.678710 1_555
Ga6 Mo4 2.677828 1_555
Ga6 Mo5 2.678710 1_555
Ga7 Mo5 2.677828 1_555
Ga7 Mo3 2.678710 1_555
Ga8 Mo6 2.677828 1_555
Ga8 Mo4 2.678710 1_555
Ga9 Mo7 2.677828 1_555
Ga9 Mo2 2.678710 1_555
Ga10 Mo0 2.628994 1_555
Ga10 Mo4 2.672105 1_555
Ga11 Mo0 2.628994 1_555
Ga11 Mo2 2.672105 1_555
Ga12 Mo0 2.628994 1_555
Ga12 Mo3 2.672105 1_555
Ga13 Mo1 2.628994 1_555
Ga13 Mo7 2.672105 1_555
Ga14 Mo1 2.628994 1_555
Ga14 Mo5 2.672105 1_555
Ga15 Mo1 2.628994 1_555
Ga15 Mo6 2.672105 1_555
Ga16 Mo4 2.615656 1_545
Ga16 Mo3 2.648205 1_555
Ga16 Ga29 2.677759 1_555
Ga17 Mo2 2.615656 1_554
Ga17 Mo4 2.648205 1_555
Ga17 Ga30 2.677759 1_555
Ga18 Mo3 2.615656 1_455
Ga18 Mo2 2.648205 1_555
Ga18 Ga28 2.677759 1_555
Ga19 Mo7 2.615656 1_565
Ga19 Mo6 2.648205 1_555
Ga19 Ga32 2.677759 1_555
Ga20 Mo5 2.615656 1_556
Ga20 Mo7 2.648205 1_555
Ga20 Ga33 2.677759 1_555
Ga21 Mo6 2.615656 1_655
Ga21 Mo5 2.648205 1_555
Ga21 Ga31 2.677759 1_555
Ga22 Mo0 2.614229 1_555
Ga22 Mo6 2.626162 1_655
Ga22 Ga28 2.750155 1_655
Ga22 Ga29 2.900312 1_565
Ga23 Mo0 2.614229 1_555
Ga23 Mo7 2.626162 1_565
Ga23 Ga29 2.750155 1_565
Ga23 Ga30 2.900312 1_556
Ga24 Mo0 2.614229 1_555
Ga24 Mo5 2.626162 1_556
Ga24 Ga30 2.750155 1_556
Ga24 Ga28 2.900312 1_655
Ga25 Mo1 2.614229 1_555
Ga25 Mo3 2.626162 1_455
Ga25 Ga31 2.750155 1_455
Ga25 Ga32 2.900312 1_545
Ga26 Mo1 2.614229 1_555
Ga26 Mo4 2.626162 1_545
Ga26 Ga32 2.750155 1_545
Ga26 Ga33 2.900312 1_554
Ga27 Mo1 2.614229 1_555
Ga27 Mo2 2.626162 1_554
Ga27 Ga33 2.750155 1_554
Ga27 Ga31 2.900312 1_455
Ga28 Mo0 2.649564 1_455
Ga28 Mo2 2.663104 1_555
Ga28 Ga36 2.765912 1_556
Ga28 Ga38 3.003058 1_555
Ga28 Pr0 3.084500 1_566
Ga29 Mo0 2.649564 1_545
Ga29 Mo3 2.663104 1_555
Ga29 Ga34 2.765912 1_655
Ga29 Ga39 3.003058 1_555
Ga29 Pr0 3.084500 1_656
Ga30 Mo0 2.649564 1_554
Ga30 Mo4 2.663104 1_555
Ga30 Ga35 2.765912 1_565
Ga30 Ga37 3.003058 1_555
Ga30 Pr0 3.084500 1_665
Ga31 Mo1 2.649564 1_655
Ga31 Mo5 2.663104 1_555
Ga31 Ga39 2.765912 1_554
Ga31 Ga35 3.003058 1_555
Ga31 Pr0 3.084500 1_655
Ga32 Mo1 2.649564 1_565
Ga32 Mo6 2.663104 1_555
Ga32 Ga37 2.765912 1_455
Ga32 Ga36 3.003058 1_555
Ga32 Pr0 3.084500 1_565
Ga33 Mo1 2.649564 1_556
Ga33 Mo7 2.663104 1_555
Ga33 Ga38 2.765912 1_545
Ga33 Ga34 3.003058 1_555
Ga33 Pr0 3.084500 1_556
Ga34 Mo7 2.683426 1_555
Ga34 Mo3 2.702998 1_455
Ga34 Pr0 3.726720 1_556
Ga35 Mo5 2.683426 1_555
Ga35 Mo4 2.702998 1_545
Ga35 Pr0 3.726720 1_655
Ga36 Mo6 2.683426 1_555
Ga36 Mo2 2.702998 1_554
Ga36 Pr0 3.726720 1_565
Ga37 Mo4 2.683426 1_555
Ga37 Mo6 2.702998 1_655
Ga37 Pr0 3.726720 1_665
Ga38 Mo2 2.683426 1_555
Ga38 Mo7 2.702998 1_565
Ga38 Pr0 3.726720 1_566
Ga39 Mo3 2.683426 1_555
Ga39 Mo5 2.702998 1_556
Ga39 Pr0 3.726720 1_656
Mo0 Pr0 3.262540 1_666
Mo1 Pr0 3.262540 1_555
