# generated using pymatgen
data_Y2Mn3O9
_symmetry_space_group_name_H-M   'P 1'
_cell_length_a   6.97866565
_cell_length_b   6.97866565
_cell_length_c   12.47741700
_cell_angle_alpha   90.00000000
_cell_angle_beta   90.00000000
_cell_angle_gamma   146.79822821
_symmetry_Int_Tables_number   1
_chemical_formula_structural   Y2Mn3O9
_chemical_formula_sum   'Y4 Mn6 O18'
_cell_volume   332.75475194
_cell_formula_units_Z   2
loop_
 _symmetry_equiv_pos_site_id
 _symmetry_equiv_pos_as_xyz
  1  'x, y, z'
loop_
 _atom_site_type_symbol
 _atom_site_label
 _atom_site_symmetry_multiplicity
 _atom_site_fract_x
 _atom_site_fract_y
 _atom_site_fract_z
 _atom_site_occupancy
  Y  Y0  1  0.02708200  0.97291800  0.51769800  1
  Y  Y1  1  0.29957100  0.70042900  0.48017700  1
  Y  Y2  1  0.97291800  0.02708200  0.01769800  1
  Y  Y3  1  0.70042900  0.29957100  0.98017700  1
  Mn  Mn0  1  0.13971700  0.86028300  0.23819500  1
  Mn  Mn1  1  0.80368500  0.19631500  0.24806600  1
  Mn  Mn2  1  0.46917300  0.53082700  0.26618800  1
  Mn  Mn3  1  0.53082700  0.46917300  0.76618800  1
  Mn  Mn4  1  0.19631500  0.80368500  0.74806600  1
  Mn  Mn5  1  0.86028300  0.13971700  0.73819500  1
  O  O0  1  0.52911500  0.47088500  0.61593700  1
  O  O1  1  0.17724600  0.82275400  0.59955500  1
  O  O2  1  0.86640600  0.13359400  0.58661800  1
  O  O3  1  0.13359400  0.86640600  0.08661800  1
  O  O4  1  0.82275400  0.17724600  0.09955500  1
  O  O5  1  0.47088500  0.52911500  0.11593700  1
  O  O6  1  0.15062200  0.84937800  0.38870900  1
  O  O7  1  0.79726300  0.20273700  0.39439800  1
  O  O8  1  0.46700100  0.53299900  0.41682900  1
  O  O9  1  0.53299900  0.46700100  0.91682900  1
  O  O10  1  0.20273700  0.79726300  0.89439800  1
  O  O11  1  0.84937800  0.15062200  0.88870900  1
  O  O12  1  0.02326100  0.97673900  0.75765600  1
  O  O13  1  0.69239500  0.30760500  0.75635500  1
  O  O14  1  0.34688100  0.65311900  0.73361700  1
  O  O15  1  0.97673900  0.02326100  0.25765600  1
  O  O16  1  0.65311900  0.34688100  0.23361700  1
  O  O17  1  0.30760500  0.69239500  0.25635500  1
loop_
_geom_bond_atom_site_label_1
_geom_bond_atom_site_label_2
_geom_bond_distance
_geom_bond_site_symmetry_2
Mn0 O6 1.883682 1_555
Mn0 O3 1.893062 1_555
Mn0 O16 2.002684 1_455
Mn0 O16 2.002684 1_565
Mn0 O15 2.193405 1_465
Mn0 O17 2.257000 1_555
Mn1 O7 1.827865 1_555
Mn1 O4 1.870505 1_555
Mn1 O17 1.997196 1_655
Mn1 O17 1.997196 1_545
Mn1 O16 2.021959 1_555
Mn1 O15 2.317786 1_555
Mn2 O5 1.874884 1_555
Mn2 O8 1.879835 1_555
Mn2 O15 1.999230 1_455
Mn2 O15 1.999230 1_565
Mn2 O17 2.164543 1_555
Mn2 O16 2.493720 1_555
Mn3 O0 1.874884 1_555
Mn3 O9 1.879835 1_555
Mn3 O12 1.999230 1_545
Mn3 O12 1.999230 1_655
Mn3 O13 2.164543 1_555
Mn3 O14 2.493720 1_555
Mn4 O10 1.827865 1_555
Mn4 O1 1.870505 1_555
Mn4 O13 1.997196 1_565
Mn4 O13 1.997196 1_455
Mn4 O14 2.021959 1_555
Mn4 O12 2.317786 1_555
Mn5 O11 1.883682 1_555
Mn5 O2 1.893062 1_555
Mn5 O14 2.002684 1_545
Mn5 O14 2.002684 1_655
Mn5 O12 2.193405 1_645
Mn5 O13 2.257000 1_555
O0 Y0 2.340640 1_655
O0 Y0 2.340640 1_545
O1 Y1 2.212631 1_555
O1 Y0 2.253302 1_555
O2 Y0 2.314794 1_645
O2 Y1 2.557025 1_655
O2 Y1 2.557025 1_545
O3 Y2 2.314794 1_465
O3 Y3 2.557025 1_454
O3 Y3 2.557025 1_564
O4 Y3 2.212631 1_554
O4 Y2 2.253302 1_555
O5 Y2 2.340640 1_455
O5 Y2 2.340640 1_565
O6 Y1 2.296018 1_555
O6 Y0 2.306688 1_555
O7 Y1 2.263149 1_545
O7 Y1 2.263149 1_655
O8 Y1 2.374867 1_555
O8 Y0 2.491020 1_545
O8 Y0 2.491020 1_655
O9 Y3 2.374867 1_555
O9 Y2 2.491020 1_566
O9 Y2 2.491020 1_456
O10 Y3 2.263149 1_455
O10 Y3 2.263149 1_565
O11 Y3 2.296018 1_555
O11 Y2 2.306688 1_556
