# generated using pymatgen
data_K4Ag2Sn3S9O2
_symmetry_space_group_name_H-M   'P 1'
_cell_length_a   27.42277300
_cell_length_b   7.86295400
_cell_length_c   10.53058408
_cell_angle_alpha   77.20294086
_cell_angle_beta   90.00000000
_cell_angle_gamma   90.00000000
_symmetry_Int_Tables_number   1
_chemical_formula_structural   K4Ag2Sn3S9O2
_chemical_formula_sum   'K16 Ag8 Sn12 S36 O8'
_cell_volume   2214.24547072
_cell_formula_units_Z   4
loop_
 _symmetry_equiv_pos_site_id
 _symmetry_equiv_pos_as_xyz
  1  'x, y, z'
loop_
 _atom_site_type_symbol
 _atom_site_label
 _atom_site_symmetry_multiplicity
 _atom_site_fract_x
 _atom_site_fract_y
 _atom_site_fract_z
 _atom_site_occupancy
  K  K0  1  0.25000000  0.67306000  0.77160900  1
  K  K1  1  0.75000000  0.32694000  0.22839100  1
  K  K2  1  0.25000000  0.09256000  0.38604000  1
  K  K3  1  0.75000000  0.90744000  0.61396000  1
  K  K4  1  0.25000000  0.19153600  0.98012200  1
  K  K5  1  0.75000000  0.80846400  0.01987800  1
  K  K6  1  0.25000000  0.56289500  0.40105400  1
  K  K7  1  0.75000000  0.43710500  0.59894600  1
  K  K8  1  0.56043100  0.23644900  0.61873900  1
  K  K9  1  0.06043100  0.76355100  0.38126100  1
  K  K10  1  0.43956900  0.76355100  0.38126100  1
  K  K11  1  0.93956900  0.23644900  0.61873900  1
  K  K12  1  0.56722500  0.82555600  0.07911300  1
  K  K13  1  0.06722500  0.17444400  0.92088700  1
  K  K14  1  0.43277500  0.17444400  0.92088700  1
  K  K15  1  0.93277500  0.82555600  0.07911300  1
  Ag  Ag0  1  0.37582600  0.35529700  0.31299400  1
  Ag  Ag1  1  0.87582600  0.64470300  0.68700600  1
  Ag  Ag2  1  0.62417400  0.64470300  0.68700600  1
  Ag  Ag3  1  0.12417400  0.35529700  0.31299400  1
  Ag  Ag4  1  0.37262800  0.51628300  0.66646600  1
  Ag  Ag5  1  0.87262800  0.48371700  0.33353400  1
  Ag  Ag6  1  0.62737200  0.48371700  0.33353400  1
  Ag  Ag7  1  0.12737200  0.51628300  0.66646600  1
  Sn  Sn0  1  0.36915200  0.67363500  0.99450600  1
  Sn  Sn1  1  0.86915200  0.32636500  0.00549400  1
  Sn  Sn2  1  0.63084800  0.32636500  0.00549400  1
  Sn  Sn3  1  0.13084800  0.67363500  0.99450600  1
  Sn  Sn4  1  0.36279200  0.00186500  0.64021800  1
  Sn  Sn5  1  0.86279200  0.99813500  0.35978200  1
  Sn  Sn6  1  0.63720800  0.99813500  0.35978200  1
  Sn  Sn7  1  0.13720800  0.00186500  0.64021800  1
  Sn  Sn8  1  0.48658500  0.73872100  0.76326100  1
  Sn  Sn9  1  0.98658500  0.26127900  0.23673900  1
  Sn  Sn10  1  0.51341500  0.26127900  0.23673900  1
  Sn  Sn11  1  0.01341500  0.73872100  0.76326100  1
  S  S0  1  0.33419100  0.95206200  0.86743600  1
  S  S1  1  0.83419100  0.04793800  0.13256400  1
  S  S2  1  0.66580900  0.04793800  0.13256400  1
  S  S3  1  0.16580900  0.95206200  0.86743600  1
  S  S4  1  0.45177900  0.01610300  0.63411600  1
  S  S5  1  0.95177900  0.98389700  0.36588400  1
  S  S6  1  0.54822100  0.98389700  0.36588400  1
  S  S7  1  0.04822100  0.01610300  0.63411600  1
  S  S8  1  0.46537300  0.49880600  0.67162400  1
  S  S9  1  0.96537300  0.50119400  0.32837600  1
  S  S10  1  0.53462700  0.50119400  0.32837600  1
  S  S11  1  0.03462700  0.49880600  0.67162400  1
  S  S12  1  0.34670500  0.65839600  0.21529900  1
  S  S13  1  0.84670500  0.34160400  0.78470100  1
  S  S14  1  0.65329500  0.34160400  0.78470100  1
  S  S15  1  0.15329500  0.65839600  0.21529900  1
  S  S16  1  0.33147000  0.78865800  0.53422100  1
  S  S17  1  0.83147000  0.21134200  0.46577900  1
  S  S18  1  0.66853000  0.21134200  0.46577900  1
  S  S19  1  0.16853000  0.78865800  0.53422100  1
  S  S20  1  0.33599200  0.29405500  0.53940100  1
  S  S21  1  0.83599200  0.70594500  0.46059900  1
  S  S22  1  0.66400800  0.70594500  0.46059900  1
  S  S23  1  0.16400800  0.29405500  0.53940100  1
  S  S24  1  0.34421300  0.44105800  0.89962600  1
  S  S25  1  0.84421300  0.55894200  0.10037400  1
  S  S26  1  0.65578700  0.55894200  0.10037400  1
  S  S27  1  0.15578700  0.44105800  0.89962600  1
  S  S28  1  0.45790700  0.72088900  0.98845400  1
  S  S29  1  0.95790700  0.27911100  0.01154600  1
  S  S30  1  0.54209300  0.27911100  0.01154600  1
  S  S31  1  0.04209300  0.72088900  0.98845400  1
  S  S32  1  0.56872400  0.83424600  0.77432000  1
  S  S33  1  0.06872400  0.16575400  0.22568000  1
  S  S34  1  0.43127600  0.16575400  0.22568000  1
  S  S35  1  0.93127600  0.83424600  0.77432000  1
  O  O0  1  0.25000000  0.35853000  0.68762900  1
  O  O1  1  0.75000000  0.64147000  0.31237100  1
  O  O2  1  0.25000000  0.39656900  0.19339300  1
  O  O3  1  0.75000000  0.60343100  0.80660700  1
  O  O4  1  0.30924500  0.06919600  0.18686700  1
  O  O5  1  0.80924500  0.93080400  0.81313300  1
  O  O6  1  0.69075500  0.93080400  0.81313300  1
  O  O7  1  0.19075500  0.06919600  0.18686700  1
loop_
_geom_bond_atom_site_label_1
_geom_bond_atom_site_label_2
_geom_bond_distance
_geom_bond_site_symmetry_2
K0 O0 2.804885 1_555
K0 S24 3.275760 1_555
K0 S27 3.275760 1_555
K0 S19 3.325676 1_555
K0 S16 3.325676 1_555
K0 S0 3.484538 1_555
K0 S3 3.484538 1_555
K1 O1 2.804885 1_555
K1 S25 3.275760 1_555
K1 S26 3.275760 1_555
K1 S18 3.325676 1_555
K1 S17 3.325676 1_555
K1 S2 3.484538 1_555
K1 S1 3.484538 1_555
K2 O4 2.691299 1_555
K2 O7 2.691299 1_555
K2 O2 2.771526 1_555
K2 S19 3.388880 1_545
K2 S16 3.388880 1_545
K2 S20 3.436950 1_555
K2 S23 3.436950 1_555
K3 O5 2.691299 1_555
K3 O6 2.691299 1_555
K3 O3 2.771526 1_555
K3 S18 3.388880 1_565
K3 S17 3.388880 1_565
K3 S21 3.436950 1_555
K3 S22 3.436950 1_555
K4 O4 2.716076 1_556
K4 O7 2.716076 1_556
K4 O2 3.040882 1_556
K4 O0 3.069143 1_555
K4 S24 3.241304 1_555
K4 S27 3.241304 1_555
K4 S0 3.357663 1_545
K4 S3 3.357663 1_545
K5 O6 2.716076 1_554
K5 O5 2.716076 1_554
K5 O3 3.040882 1_554
K5 O1 3.069143 1_555
K5 S25 3.241304 1_555
K5 S26 3.241304 1_555
K5 S2 3.357663 1_565
K5 S1 3.357663 1_565
K6 O2 2.785564 1_555
K6 O0 3.088860 1_555
K6 S12 3.282104 1_555
K6 S15 3.282104 1_555
K6 S20 3.284433 1_555
K6 S23 3.284433 1_555
K6 S19 3.348411 1_555
K6 S16 3.348411 1_555
K7 O3 2.785564 1_555
K7 O1 3.088860 1_555
K7 S13 3.282104 1_555
K7 S14 3.282104 1_555
K7 S21 3.284433 1_555
K7 S22 3.284433 1_555
K7 S18 3.348411 1_555
K7 S17 3.348411 1_555
K8 S32 3.231418 1_545
K8 S14 3.295948 1_555
K8 S10 3.371031 1_555
K8 S18 3.400279 1_555
K8 S4 3.432403 1_555
K8 S8 3.445259 1_555
K8 S6 3.672596 1_545
K9 S33 3.231418 1_565
K9 S15 3.295948 1_555
K9 S11 3.371031 1_555
K9 S19 3.400279 1_555
K9 S5 3.432403 1_455
K9 S9 3.445259 1_455
K9 S7 3.672596 1_565
K10 S34 3.231418 1_565
K10 S12 3.295948 1_555
K10 S8 3.371031 1_555
K10 S16 3.400279 1_555
K10 S6 3.432403 1_555
K10 S10 3.445259 1_555
K10 S4 3.672596 1_565
K11 S35 3.231418 1_545
K11 S13 3.295948 1_555
K11 S9 3.371031 1_555
K11 S17 3.400279 1_555
K11 S7 3.432403 1_655
K11 S11 3.445259 1_655
K11 S5 3.672596 1_545
K12 S26 3.183576 1_555
K12 S32 3.195473 1_554
K12 S28 3.305093 1_554
K12 S2 3.334514 1_565
K12 S10 3.350850 1_555
K12 S30 3.546197 1_565
K12 S6 3.550614 1_555
K13 S27 3.183576 1_555
K13 S33 3.195473 1_556
K13 S29 3.305093 1_456
K13 S3 3.334514 1_545
K13 S11 3.350850 1_555
K13 S31 3.546197 1_545
K13 S7 3.550614 1_555
K14 S24 3.183576 1_555
K14 S34 3.195473 1_556
K14 S30 3.305093 1_556
K14 S0 3.334514 1_545
K14 S8 3.350850 1_555
K14 S28 3.546197 1_545
K14 S4 3.550614 1_555
K15 S25 3.183576 1_555
K15 S35 3.195473 1_554
K15 S31 3.305093 1_654
K15 S1 3.334514 1_565
K15 S9 3.350850 1_555
K15 S29 3.546197 1_565
K15 S5 3.550614 1_555
Ag0 S34 2.446605 1_555
Ag0 S12 2.507959 1_555
Ag0 S20 2.569227 1_555
Ag0 K10 3.859958 1_555
Ag1 S35 2.446605 1_555
Ag1 S13 2.507959 1_555
Ag1 S21 2.569227 1_555
Ag1 K11 3.859958 1_555
Ag2 S32 2.446605 1_555
Ag2 S14 2.507959 1_555
Ag2 S22 2.569227 1_555
Ag2 K8 3.859958 1_555
Ag3 S33 2.446605 1_555
Ag3 S15 2.507959 1_555
Ag3 S23 2.569227 1_555
Ag3 K9 3.859958 1_555
Ag4 S24 2.518379 1_555
Ag4 S16 2.545345 1_555
Ag4 S8 2.546965 1_555
Ag4 S20 2.624660 1_555
Ag4 K10 3.685568 1_555
Ag5 S25 2.518379 1_555
Ag5 S17 2.545345 1_555
Ag5 S9 2.546965 1_555
Ag5 S21 2.624660 1_555
Ag5 K11 3.685568 1_555
Ag6 S26 2.518379 1_555
Ag6 S18 2.545345 1_555
Ag6 S10 2.546965 1_555
Ag6 S22 2.624660 1_555
Ag6 K8 3.685568 1_555
Ag7 S27 2.518379 1_555
Ag7 S19 2.545345 1_555
Ag7 S11 2.546965 1_555
Ag7 S23 2.624660 1_555
Ag7 K9 3.685568 1_555
S0 Sn4 2.465485 1_565
S0 Sn0 2.490948 1_555
S1 Sn5 2.465485 1_545
S1 Sn1 2.490948 1_555
S2 Sn6 2.465485 1_545
S2 Sn2 2.490948 1_555
S3 Sn7 2.465485 1_565
S3 Sn3 2.490948 1_555
S4 Sn4 2.443030 1_555
S4 Sn8 2.490682 1_545
S5 Sn5 2.443030 1_555
S5 Sn9 2.490682 1_565
S6 Sn6 2.443030 1_555
S6 Sn10 2.490682 1_565
S7 Sn7 2.443030 1_555
S7 Sn11 2.490682 1_545
S8 Sn8 2.373744 1_555
S9 Sn9 2.373744 1_555
S10 Sn10 2.373744 1_555
S11 Sn11 2.373744 1_555
S12 Sn0 2.382403 1_554
S13 Sn1 2.382403 1_556
S14 Sn2 2.382403 1_556
S15 Sn3 2.382403 1_554
S16 Sn4 2.371307 1_565
S17 Sn5 2.371307 1_545
S18 Sn6 2.371307 1_545
S19 Sn7 2.371307 1_565
S20 Sn4 2.421800 1_555
S21 Sn5 2.421800 1_555
S22 Sn6 2.421800 1_555
S23 Sn7 2.421800 1_555
S24 Sn0 2.370597 1_555
S25 Sn1 2.370597 1_555
S26 Sn2 2.370597 1_555
S27 Sn3 2.370597 1_555
S28 Sn0 2.460800 1_555
S28 Sn8 2.472739 1_555
S29 Sn1 2.460800 1_555
S29 Sn9 2.472739 1_555
S30 Sn2 2.460800 1_555
S30 Sn10 2.472739 1_555
S31 Sn3 2.460800 1_555
S31 Sn11 2.472739 1_555
S32 Sn8 2.385401 1_555
S33 Sn9 2.385401 1_455
S34 Sn10 2.385401 1_555
S35 Sn11 2.385401 1_655
