# generated using pymatgen
data_BaMg14Ga
_symmetry_space_group_name_H-M   'P 1'
_cell_length_a   6.56893475
_cell_length_b   6.56893419
_cell_length_c   10.59877971
_cell_angle_alpha   90.00000000
_cell_angle_beta   90.00000000
_cell_angle_gamma   120.00000287
_symmetry_Int_Tables_number   1
_chemical_formula_structural   BaMg14Ga
_chemical_formula_sum   'Ba1 Mg14 Ga1'
_cell_volume   396.07400857
_cell_formula_units_Z   1
loop_
 _symmetry_equiv_pos_site_id
 _symmetry_equiv_pos_as_xyz
  1  'x, y, z'
loop_
 _atom_site_type_symbol
 _atom_site_label
 _atom_site_symmetry_multiplicity
 _atom_site_fract_x
 _atom_site_fract_y
 _atom_site_fract_z
 _atom_site_occupancy
  Ba  Ba0  1  0.16666700  0.33333300  0.12500000  1
  Mg  Mg0  1  0.17860547  0.83930223  0.12500000  1
  Mg  Mg1  1  0.16190018  0.83094959  0.62500000  1
  Mg  Mg2  1  0.66069777  0.32139453  0.12500000  1
  Mg  Mg3  1  0.66905041  0.33809982  0.62500000  1
  Mg  Mg4  1  0.66069777  0.83930223  0.12500000  1
  Mg  Mg5  1  0.66905041  0.83094959  0.62500000  1
  Mg  Mg6  1  0.33683254  0.16316746  0.39063153  1
  Mg  Mg7  1  0.33683254  0.16316746  0.85936847  1
  Mg  Mg8  1  0.33683254  0.67366608  0.39063153  1
  Mg  Mg9  1  0.33683254  0.67366608  0.85936847  1
  Mg  Mg10  1  0.82633392  0.16316746  0.39063153  1
  Mg  Mg11  1  0.82633392  0.16316746  0.85936847  1
  Mg  Mg12  1  0.83333300  0.66666700  0.36939448  1
  Mg  Mg13  1  0.83333300  0.66666700  0.88060552  1
  Ga  Ga0  1  0.16666700  0.33333300  0.62500000  1
loop_
_geom_bond_atom_site_label_1
_geom_bond_atom_site_label_2
_geom_bond_distance
_geom_bond_site_symmetry_2
Ba0 Mg0 3.285169 1_555
Ba0 Mg4 3.285169 1_555
Ba0 Mg4 3.285169 1_445
Ba0 Mg0 3.285169 1_545
Ba0 Mg2 3.285169 1_455
Ba0 Mg2 3.285170 1_555
Ba0 Mg7 3.416838 1_554
Ba0 Mg6 3.416838 1_555
Ba0 Mg8 3.416844 1_555
Ba0 Mg9 3.416844 1_554
Ba0 Mg10 3.416844 1_455
Ba0 Mg11 3.416844 1_454
Mg0 Mg2 3.166833 1_565
Mg0 Mg4 3.166833 1_555
Mg0 Mg13 3.250797 1_454
Mg0 Mg12 3.250797 1_455
Mg0 Mg8 3.364727 1_555
Mg0 Mg9 3.364727 1_554
Mg0 Mg7 3.364734 1_564
Mg0 Mg6 3.364734 1_565
Mg0 Mg2 3.402102 1_455
Mg0 Mg4 3.402102 1_455
Mg1 Mg8 3.121787 1_555
Mg1 Mg9 3.121787 1_555
Mg1 Mg6 3.121794 1_565
Mg1 Mg7 3.121794 1_565
Mg1 Mg3 3.237498 1_455
Mg1 Mg5 3.237498 1_455
Mg1 Mg12 3.291363 1_455
Mg1 Mg13 3.291363 1_455
Mg1 Mg3 3.331436 1_565
Mg1 Mg5 3.331437 1_555
Mg2 Mg4 3.166833 1_545
Mg2 Mg6 3.364734 1_555
Mg2 Mg7 3.364734 1_554
Mg2 Mg4 3.402102 1_555
Mg3 Mg6 3.121794 1_555
Mg3 Mg7 3.121794 1_555
Mg3 Mg5 3.237498 1_555
Mg3 Mg5 3.331436 1_545
Mg4 Mg9 3.364734 1_554
Mg4 Mg8 3.364734 1_555
Mg5 Mg8 3.121794 1_555
Mg5 Mg9 3.121794 1_555
Mg6 Mg8 3.215502 1_545
Mg6 Mg8 3.353432 1_555
Mg7 Mg9 3.215502 1_545
Mg7 Mg9 3.353432 1_555
Mg10 Mg3 3.121787 1_555
Mg10 Mg5 3.121794 1_545
Mg10 Mg8 3.215502 1_545
Mg10 Mg6 3.215503 1_555
Mg10 Mg12 3.292412 1_555
Mg10 Mg12 3.292412 1_545
Mg10 Mg8 3.353432 1_655
Mg10 Mg6 3.353432 1_655
Mg10 Mg2 3.364727 1_555
Mg10 Mg4 3.364733 1_545
Mg11 Mg3 3.121787 1_555
Mg11 Mg5 3.121794 1_545
Mg11 Mg9 3.215502 1_545
Mg11 Mg7 3.215503 1_555
Mg11 Mg13 3.292412 1_555
Mg11 Mg13 3.292412 1_545
Mg11 Mg9 3.353432 1_655
Mg11 Mg7 3.353432 1_655
Mg11 Mg2 3.364727 1_556
Mg11 Mg4 3.364733 1_546
Mg12 Mg4 3.250790 1_555
Mg12 Mg2 3.250797 1_555
Mg12 Mg5 3.291357 1_555
Mg12 Mg3 3.291363 1_555
Mg12 Mg6 3.292412 1_555
Mg12 Mg6 3.292412 1_665
Mg12 Mg8 3.292412 1_655
Mg12 Mg8 3.292412 1_555
Mg13 Mg4 3.250790 1_556
Mg13 Mg2 3.250797 1_556
Mg13 Mg5 3.291357 1_555
Mg13 Mg3 3.291363 1_555
Mg13 Mg7 3.292412 1_555
Mg13 Mg7 3.292412 1_665
Mg13 Mg9 3.292412 1_655
Mg13 Mg9 3.292412 1_555
Ga0 Mg6 3.149417 1_555
Ga0 Mg7 3.149417 1_555
Ga0 Mg8 3.149424 1_555
Ga0 Mg9 3.149424 1_555
Ga0 Mg11 3.149424 1_455
Ga0 Mg10 3.149424 1_455
Ga0 Mg5 3.284579 1_445
Ga0 Mg1 3.284579 1_545
Ga0 Mg5 3.284579 1_555
Ga0 Mg1 3.284579 1_555
Ga0 Mg3 3.284579 1_555
Ga0 Mg3 3.284579 1_455
