# generated using pymatgen
data_LuZn4FeO7
_symmetry_space_group_name_H-M   'P 1'
_cell_length_a   3.36165111
_cell_length_b   3.36165111
_cell_length_c   33.20366600
_cell_angle_alpha   90.00000000
_cell_angle_beta   90.00000000
_cell_angle_gamma   119.99998243
_symmetry_Int_Tables_number   1
_chemical_formula_structural   LuZn4FeO7
_chemical_formula_sum   'Lu2 Zn8 Fe2 O14'
_cell_volume   324.95409977
_cell_formula_units_Z   2
loop_
 _symmetry_equiv_pos_site_id
 _symmetry_equiv_pos_as_xyz
  1  'x, y, z'
loop_
 _atom_site_type_symbol
 _atom_site_label
 _atom_site_symmetry_multiplicity
 _atom_site_fract_x
 _atom_site_fract_y
 _atom_site_fract_z
 _atom_site_occupancy
  Lu  Lu0  1  0.00000000  0.00000000  0.50000000  1
  Lu  Lu1  1  0.00000000  0.00000000  0.00000000  1
  Zn  Zn0  1  0.33333300  0.66666700  0.40810400  1
  Zn  Zn1  1  0.66666700  0.33333300  0.59189600  1
  Zn  Zn2  1  0.66666700  0.33333300  0.90810400  1
  Zn  Zn3  1  0.33333300  0.66666700  0.09189600  1
  Zn  Zn4  1  0.00000000  0.00000000  0.32977600  1
  Zn  Zn5  1  0.00000000  0.00000000  0.67022400  1
  Zn  Zn6  1  0.00000000  0.00000000  0.82977600  1
  Zn  Zn7  1  0.00000000  0.00000000  0.17022400  1
  Fe  Fe0  1  0.33333300  0.66666700  0.25000000  1
  Fe  Fe1  1  0.66666700  0.33333300  0.75000000  1
  O  O0  1  0.00000000  0.00000000  0.39007900  1
  O  O1  1  0.00000000  0.00000000  0.60992100  1
  O  O2  1  0.00000000  0.00000000  0.89007900  1
  O  O3  1  0.00000000  0.00000000  0.10992100  1
  O  O4  1  0.33333300  0.66666700  0.31136800  1
  O  O5  1  0.66666700  0.33333300  0.68863200  1
  O  O6  1  0.66666700  0.33333300  0.81136800  1
  O  O7  1  0.33333300  0.66666700  0.18863200  1
  O  O8  1  0.33333300  0.66666700  0.46764600  1
  O  O9  1  0.66666700  0.33333300  0.53235400  1
  O  O10  1  0.66666700  0.33333300  0.96764600  1
  O  O11  1  0.33333300  0.66666700  0.03235400  1
  O  O12  1  0.00000000  0.00000000  0.25000000  1
  O  O13  1  0.00000000  0.00000000  0.75000000  1
loop_
_geom_bond_atom_site_label_1
_geom_bond_atom_site_label_2
_geom_bond_distance
_geom_bond_site_symmetry_2
Lu0 O9 2.218321 1_455
Lu0 O8 2.218321 1_545
Lu0 O8 2.218324 1_555
Lu0 O8 2.218324 1_445
Lu0 O9 2.218324 1_555
Lu0 O9 2.218324 1_445
Lu1 O10 2.218321 1_454
Lu1 O11 2.218321 1_545
Lu1 O11 2.218324 1_445
Lu1 O11 2.218324 1_555
Lu1 O10 2.218324 1_554
Lu1 O10 2.218324 1_444
Fe0 O12 1.940848 1_565
Fe0 O12 1.940851 1_555
Fe0 O12 1.940851 1_665
Fe0 O4 2.037643 1_555
Fe0 O7 2.037643 1_555
Fe1 O13 1.940848 1_655
Fe1 O13 1.940851 1_555
Fe1 O13 1.940851 1_665
Fe1 O6 2.037643 1_555
Fe1 O5 2.037643 1_555
O0 Zn4 2.002281 1_555
O0 Zn0 2.031031 1_545
O0 Zn0 2.031035 1_445
O0 Zn0 2.031035 1_555
O1 Zn5 2.002281 1_555
O1 Zn1 2.031031 1_455
O1 Zn1 2.031035 1_445
O1 Zn1 2.031035 1_555
O2 Zn6 2.002281 1_555
O2 Zn2 2.031031 1_455
O2 Zn2 2.031035 1_445
O2 Zn2 2.031035 1_555
O3 Zn7 2.002281 1_555
O3 Zn3 2.031031 1_545
O3 Zn3 2.031035 1_555
O3 Zn3 2.031035 1_445
O4 Zn4 2.034815 1_565
O4 Zn4 2.034818 1_555
O4 Zn4 2.034818 1_665
O5 Zn5 2.034815 1_655
O5 Zn5 2.034818 1_665
O5 Zn5 2.034818 1_555
O6 Zn6 2.034815 1_655
O6 Zn6 2.034818 1_665
O6 Zn6 2.034818 1_555
O7 Zn7 2.034815 1_565
O7 Zn7 2.034818 1_555
O7 Zn7 2.034818 1_665
O8 Zn0 1.977013 1_555
O9 Zn1 1.977013 1_555
O10 Zn2 1.977013 1_555
O11 Zn3 1.977013 1_555
