# generated using pymatgen
data_KTbEuNbO6
_symmetry_space_group_name_H-M   'P 1'
_cell_length_a   6.00353032
_cell_length_b   6.00353032
_cell_length_c   8.42732245
_cell_angle_alpha   90.00000000
_cell_angle_beta   90.00000000
_cell_angle_gamma   90.00000000
_symmetry_Int_Tables_number   1
_chemical_formula_structural   KTbEuNbO6
_chemical_formula_sum   'K2 Tb2 Eu2 Nb2 O12'
_cell_volume   303.74072697
_cell_formula_units_Z   2
loop_
 _symmetry_equiv_pos_site_id
 _symmetry_equiv_pos_as_xyz
  1  'x, y, z'
loop_
 _atom_site_type_symbol
 _atom_site_label
 _atom_site_symmetry_multiplicity
 _atom_site_fract_x
 _atom_site_fract_y
 _atom_site_fract_z
 _atom_site_occupancy
  K  K0  1  -0.00000000  0.00000000  0.25000000  1
  K  K1  1  0.00000000  0.00000000  0.75000000  1
  Tb  Tb0  1  0.50000000  -0.00000000  0.00000000  1
  Tb  Tb1  1  0.00000000  0.50000000  0.50000000  1
  Eu  Eu0  1  0.50000000  0.50000000  0.75000000  1
  Eu  Eu1  1  0.50000000  0.50000000  0.25000000  1
  Nb  Nb0  1  0.50000000  -0.00000000  0.50000000  1
  Nb  Nb1  1  -0.00000000  0.50000000  -0.00000000  1
  O  O0  1  0.25185320  0.72244630  -0.00000000  1
  O  O1  1  0.74814680  0.27755370  0.00000000  1
  O  O2  1  0.27755370  0.74814680  0.50000000  1
  O  O3  1  0.72244630  0.25185320  0.50000000  1
  O  O4  1  0.74814680  0.72244630  0.00000000  1
  O  O5  1  0.72244630  0.74814680  0.50000000  1
  O  O6  1  0.25185320  0.27755370  0.00000000  1
  O  O7  1  0.27755370  0.25185320  0.50000000  1
  O  O8  1  0.50000000  -0.00000000  0.73635681  1
  O  O9  1  0.00000000  0.50000000  0.76364319  1
  O  O10  1  0.50000000  0.00000000  0.26364319  1
  O  O11  1  -0.00000000  0.50000000  0.23635681  1
loop_
_geom_bond_atom_site_label_1
_geom_bond_atom_site_label_2
_geom_bond_distance
_geom_bond_site_symmetry_2
K0 O10 3.003966 1_555
K0 O10 3.003966 1_455
K0 O11 3.003966 1_555
K0 O11 3.003966 1_545
K0 O0 3.082445 1_545
K0 O3 3.082445 1_455
K0 O4 3.082445 1_445
K0 O5 3.082445 1_445
K0 O6 3.082445 1_555
K0 O1 3.082445 1_455
K0 O2 3.082445 1_545
K0 O7 3.082445 1_555
K1 O9 3.003966 1_555
K1 O8 3.003966 1_455
K1 O9 3.003966 1_545
K1 O8 3.003966 1_555
K1 O3 3.082445 1_455
K1 O4 3.082445 1_446
K1 O6 3.082445 1_556
K1 O5 3.082445 1_445
K1 O1 3.082445 1_456
K1 O2 3.082445 1_545
K1 O7 3.082445 1_555
K1 O0 3.082445 1_546
Eu0 O6 2.905438 1_556
Eu0 O0 2.905438 1_556
Eu0 O7 2.905438 1_555
Eu0 O4 2.905438 1_556
Eu0 O1 2.905438 1_556
Eu0 O5 2.905438 1_555
Eu0 O2 2.905438 1_555
Eu0 O3 2.905438 1_555
Eu0 O8 3.003966 1_565
Eu0 O9 3.003966 1_655
Eu0 O9 3.003966 1_555
Eu0 O8 3.003966 1_555
Eu1 O0 2.905438 1_555
Eu1 O6 2.905438 1_555
Eu1 O7 2.905438 1_555
Eu1 O4 2.905438 1_555
Eu1 O1 2.905438 1_555
Eu1 O5 2.905438 1_555
Eu1 O2 2.905438 1_555
Eu1 O3 2.905438 1_555
Eu1 O11 3.003966 1_655
Eu1 O11 3.003966 1_555
Eu1 O10 3.003966 1_555
Eu1 O10 3.003966 1_565
Nb0 O10 1.991855 1_555
Nb0 O8 1.991855 1_555
Nb0 O3 2.017333 1_555
Nb0 O2 2.017333 1_545
Nb0 O5 2.017333 1_545
Nb0 O7 2.017333 1_555
Nb1 O9 1.991855 1_554
Nb1 O11 1.991855 1_555
Nb1 O6 2.017333 1_555
Nb1 O0 2.017333 1_555
Nb1 O4 2.017333 1_455
Nb1 O1 2.017333 1_455
O0 Tb0 2.235159 1_565
O1 Tb0 2.235159 1_555
O2 Tb1 2.235159 1_555
O3 Tb1 2.235159 1_655
O4 Tb0 2.235159 1_565
O5 Tb1 2.235159 1_655
O6 Tb0 2.235159 1_555
O7 Tb1 2.235159 1_555
O8 Tb0 2.221806 1_556
O9 Tb1 2.221806 1_555
O10 Tb0 2.221806 1_555
O11 Tb1 2.221806 1_555
