# generated using pymatgen
data_RbMg14C
_symmetry_space_group_name_H-M   'P 1'
_cell_length_a   6.46818581
_cell_length_b   6.46818527
_cell_length_c   10.39923898
_cell_angle_alpha   90.00000000
_cell_angle_beta   90.00000000
_cell_angle_gamma   120.00000270
_symmetry_Int_Tables_number   1
_chemical_formula_structural   RbMg14C
_chemical_formula_sum   'Rb1 Mg14 C1'
_cell_volume   376.78804697
_cell_formula_units_Z   1
loop_
 _symmetry_equiv_pos_site_id
 _symmetry_equiv_pos_as_xyz
  1  'x, y, z'
loop_
 _atom_site_type_symbol
 _atom_site_label
 _atom_site_symmetry_multiplicity
 _atom_site_fract_x
 _atom_site_fract_y
 _atom_site_fract_z
 _atom_site_occupancy
  Rb  Rb0  1  0.16666700  0.33333300  0.12500000  1
  Mg  Mg0  1  0.17849371  0.83924635  0.12500000  1
  Mg  Mg1  1  0.14923812  0.82461856  0.62500000  1
  Mg  Mg2  1  0.66075365  0.32150629  0.12500000  1
  Mg  Mg3  1  0.67538144  0.35076188  0.62500000  1
  Mg  Mg4  1  0.66075365  0.83924635  0.12500000  1
  Mg  Mg5  1  0.67538144  0.82461856  0.62500000  1
  Mg  Mg6  1  0.32684460  0.17315540  0.41129609  1
  Mg  Mg7  1  0.32684460  0.17315540  0.83870391  1
  Mg  Mg8  1  0.32684460  0.65369020  0.41129609  1
  Mg  Mg9  1  0.32684460  0.65369020  0.83870391  1
  Mg  Mg10  1  0.84630980  0.17315540  0.41129609  1
  Mg  Mg11  1  0.84630980  0.17315540  0.83870391  1
  Mg  Mg12  1  0.83333300  0.66666700  0.36564635  1
  Mg  Mg13  1  0.83333300  0.66666700  0.88435365  1
  C  C0  1  0.16666700  0.33333300  0.62500000  1
loop_
_geom_bond_atom_site_label_1
_geom_bond_atom_site_label_2
_geom_bond_distance
_geom_bond_site_symmetry_2
Mg0 Mg13 3.162429 1_454
Mg0 Mg12 3.162429 1_455
Mg0 Rb0 3.234771 1_555
Mg0 Rb0 3.234771 1_565
Mg1 Mg9 2.958216 1_555
Mg1 Mg8 2.958216 1_555
Mg1 Mg7 2.958223 1_565
Mg1 Mg6 2.958223 1_565
Mg1 Mg3 3.064993 1_455
Mg1 Mg5 3.064993 1_455
Mg1 Mg13 3.225779 1_455
Mg1 Mg12 3.225779 1_455
Mg1 Mg3 3.403192 1_565
Mg1 Mg5 3.403193 1_555
Mg2 Rb0 3.234771 1_655
Mg2 Rb0 3.234771 1_555
Mg3 Mg6 2.958223 1_555
Mg3 Mg7 2.958223 1_555
Mg3 Mg5 3.064993 1_555
Mg3 Mg5 3.403192 1_545
Mg4 Rb0 3.234771 1_555
Mg4 Rb0 3.234771 1_665
Mg5 Mg9 2.958223 1_555
Mg5 Mg8 2.958223 1_555
Mg6 Rb0 3.476253 1_555
Mg7 Rb0 3.476253 1_556
Mg8 Rb0 3.476259 1_555
Mg9 Rb0 3.476259 1_556
Mg10 Mg3 2.958216 1_555
Mg10 Mg5 2.958223 1_545
Mg10 Mg12 3.269557 1_545
Mg10 Mg12 3.269557 1_555
Mg10 Rb0 3.476259 1_655
Mg11 Mg3 2.958216 1_555
Mg11 Mg5 2.958223 1_545
Mg11 Mg13 3.269557 1_545
Mg11 Mg13 3.269557 1_555
Mg11 Rb0 3.476259 1_656
Mg12 Mg4 3.162422 1_555
Mg12 Mg2 3.162429 1_555
Mg12 Mg5 3.225773 1_555
Mg12 Mg3 3.225779 1_555
Mg12 Mg6 3.269557 1_665
Mg12 Mg6 3.269557 1_555
Mg12 Mg8 3.269557 1_655
Mg12 Mg8 3.269557 1_555
Mg13 Mg4 3.162422 1_556
Mg13 Mg2 3.162429 1_556
Mg13 Mg5 3.225773 1_555
Mg13 Mg3 3.225779 1_555
Mg13 Mg7 3.269557 1_665
Mg13 Mg7 3.269557 1_555
Mg13 Mg9 3.269557 1_655
Mg13 Mg9 3.269557 1_555
C0 Mg6 2.856418 1_555
C0 Mg7 2.856418 1_555
C0 Mg8 2.856425 1_555
C0 Mg9 2.856425 1_555
C0 Mg11 2.856426 1_455
C0 Mg10 2.856426 1_455
