# generated using pymatgen
data_Li9Mn2Co5O16
_symmetry_space_group_name_H-M   'P 1'
_cell_length_a   9.85944839
_cell_length_b   9.85944839
_cell_length_c   10.21547767
_cell_angle_alpha   84.69058443
_cell_angle_beta   84.69058443
_cell_angle_gamma   16.89809388
_symmetry_Int_Tables_number   1
_chemical_formula_structural   Li9Mn2Co5O16
_chemical_formula_sum   'Li9 Mn2 Co5 O16'
_cell_volume   287.37959959
_cell_formula_units_Z   1
loop_
 _symmetry_equiv_pos_site_id
 _symmetry_equiv_pos_as_xyz
  1  'x, y, z'
loop_
 _atom_site_type_symbol
 _atom_site_label
 _atom_site_symmetry_multiplicity
 _atom_site_fract_x
 _atom_site_fract_y
 _atom_site_fract_z
 _atom_site_occupancy
  Li  Li0  1  0.36653500  0.36653500  0.93075200  1
  Li  Li1  1  0.13333400  0.13333400  0.81764900  1
  Li  Li2  1  0.87186100  0.87186100  0.68861200  1
  Li  Li3  1  0.62779600  0.62779600  0.56211600  1
  Li  Li4  1  0.37461200  0.37461200  0.43990300  1
  Li  Li5  1  0.12739400  0.12739400  0.31888200  1
  Li  Li6  1  0.86712400  0.86712400  0.18907500  1
  Li  Li7  1  0.62985900  0.62985900  0.06128400  1
  Li  Li8  1  0.75182900  0.75182900  0.87376700  1
  Mn  Mn0  1  0.99725700  0.99725700  0.99875600  1
  Mn  Mn1  1  0.25240700  0.25240700  0.63225700  1
  Co  Co0  1  0.50150000  0.50150000  0.74301400  1
  Co  Co1  1  0.00270300  0.00270300  0.50245700  1
  Co  Co2  1  0.75065700  0.75065700  0.37002000  1
  Co  Co3  1  0.49900400  0.49900400  0.25330900  1
  Co  Co4  1  0.24500600  0.24500600  0.10647400  1
  O  O0  1  0.44204500  0.44204500  0.07938600  1
  O  O1  1  0.18736100  0.18736100  0.97775800  1
  O  O2  1  0.94524700  0.94524700  0.84745000  1
  O  O3  1  0.69521700  0.69521700  0.70797800  1
  O  O4  1  0.44302400  0.44302400  0.58694900  1
  O  O5  1  0.19623200  0.19623200  0.47196000  1
  O  O6  1  0.94476800  0.94476800  0.33691100  1
  O  O7  1  0.69255700  0.69255700  0.21777300  1
  O  O8  1  0.30886800  0.30886800  0.76675800  1
  O  O9  1  0.06090200  0.06090200  0.66094700  1
  O  O10  1  0.80604300  0.80604300  0.53905500  1
  O  O11  1  0.55983100  0.55983100  0.40985900  1
  O  O12  1  0.30862400  0.30862400  0.28964900  1
  O  O13  1  0.04892500  0.04892500  0.15727200  1
  O  O14  1  0.80675600  0.80675600  0.04011300  1
  O  O15  1  0.55472300  0.55472300  0.92185300  1
loop_
_geom_bond_atom_site_label_1
_geom_bond_atom_site_label_2
_geom_bond_distance
_geom_bond_site_symmetry_2
Li0 O8 2.103392 1_555
Li0 O14 2.112453 1_456
Li0 O14 2.112453 1_546
Li0 O0 2.212018 1_556
Li0 O2 2.221562 1_455
Li0 O2 2.221562 1_545
Li1 O1 2.026847 1_555
Li1 O3 2.134861 1_545
Li1 O3 2.134861 1_455
Li1 O9 2.231948 1_555
Li1 O15 2.297248 1_545
Li1 O15 2.297248 1_455
Li2 O8 2.015435 1_655
Li2 O8 2.015435 1_565
Li2 O10 2.085473 1_555
Li2 O4 2.198646 1_655
Li2 O4 2.198646 1_565
Li2 O2 2.261917 1_555
Li3 O3 2.077545 1_555
Li3 O5 2.120983 1_655
Li3 O5 2.120983 1_565
Li3 O11 2.135960 1_555
Li3 O9 2.138648 1_565
Li3 O9 2.138648 1_655
Li4 O12 2.093369 1_555
Li4 O4 2.100477 1_555
Li4 O10 2.158652 1_545
Li4 O10 2.158652 1_455
Li4 O6 2.192859 1_455
Li4 O6 2.192859 1_545
Li5 O11 2.114187 1_545
Li5 O11 2.114187 1_455
Li5 O7 2.129607 1_545
Li5 O7 2.129607 1_455
Li5 O5 2.154294 1_555
Li5 O13 2.353896 1_555
Li6 O14 2.009304 1_555
Li6 O12 2.058343 1_655
Li6 O12 2.058343 1_565
Li6 O6 2.236558 1_555
Li6 O0 2.276678 1_655
Li6 O0 2.276678 1_565
Li7 O1 1.976232 1_654
Li7 O1 1.976232 1_564
Li7 O7 2.101631 1_555
Li7 O15 2.137074 1_554
Li7 O13 2.294008 1_655
Li7 O13 2.294008 1_565
Li8 O8 2.074548 1_565
Li8 O8 2.074548 1_655
Li8 O14 2.091897 1_556
Li8 O3 2.106538 1_555
Li8 O1 2.135024 1_565
Li8 O1 2.135024 1_655
Mn0 O2 1.926539 1_555
Mn0 O0 1.941849 1_656
Mn0 O0 1.941849 1_566
Mn0 O15 1.951241 1_565
Mn0 O15 1.951241 1_655
Mn0 O13 1.985732 1_666
Mn1 O8 1.839496 1_555
Mn1 O3 1.944167 1_545
Mn1 O3 1.944167 1_455
Mn1 O10 1.978175 1_545
Mn1 O10 1.978175 1_455
Mn1 O5 2.053695 1_555
Co0 O9 1.990502 1_655
Co0 O9 1.990502 1_565
Co0 O4 2.045198 1_555
Co0 O2 2.054660 1_545
Co0 O2 2.054660 1_455
Co0 O15 2.184072 1_555
Co1 O4 2.002637 1_455
Co1 O4 2.002637 1_545
Co1 O11 2.009420 1_545
Co1 O11 2.009420 1_455
Co1 O9 2.062473 1_555
Co1 O6 2.120002 1_445
Co2 O12 1.969094 1_565
Co2 O12 1.969094 1_655
Co2 O7 2.008199 1_555
Co2 O5 2.025607 1_655
Co2 O5 2.025607 1_565
Co2 O10 2.120804 1_555
Co3 O6 1.943708 1_545
Co3 O6 1.943708 1_455
Co3 O13 1.957149 1_655
Co3 O13 1.957149 1_565
Co3 O11 2.078495 1_555
Co3 O0 2.181805 1_555
Co4 O1 1.808243 1_554
Co4 O14 1.963675 1_545
Co4 O14 1.963675 1_455
Co4 O7 2.054316 1_455
Co4 O7 2.054316 1_545
Co4 O12 2.340007 1_555
