# generated using pymatgen
data_NdDyFe14B
_symmetry_space_group_name_H-M   'P 1'
_cell_length_a   8.74846800
_cell_length_b   8.74846800
_cell_length_c   12.05316700
_cell_angle_alpha   90.00000000
_cell_angle_beta   90.00000000
_cell_angle_gamma   90.00000000
_symmetry_Int_Tables_number   1
_chemical_formula_structural   NdDyFe14B
_chemical_formula_sum   'Nd4 Dy4 Fe56 B4'
_cell_volume   922.49748132
_cell_formula_units_Z   4
loop_
 _symmetry_equiv_pos_site_id
 _symmetry_equiv_pos_as_xyz
  1  'x, y, z'
loop_
 _atom_site_type_symbol
 _atom_site_label
 _atom_site_symmetry_multiplicity
 _atom_site_fract_x
 _atom_site_fract_y
 _atom_site_fract_z
 _atom_site_occupancy
  Nd  Nd0  1  0.64013600  0.64013600  0.50000000  1
  Nd  Nd1  1  0.35986400  0.35986400  0.50000000  1
  Nd  Nd2  1  0.85986400  0.14013600  0.00000000  1
  Nd  Nd3  1  0.14013600  0.85986400  0.00000000  1
  Dy  Dy0  1  0.22932800  0.77067200  0.50000000  1
  Dy  Dy1  1  0.77067200  0.22932800  0.50000000  1
  Dy  Dy2  1  0.27067200  0.27067200  0.00000000  1
  Dy  Dy3  1  0.72932800  0.72932800  0.00000000  1
  Fe  Fe0  1  0.18197600  0.81802400  0.25554600  1
  Fe  Fe1  1  0.81802400  0.18197600  0.25554600  1
  Fe  Fe2  1  0.31802400  0.31802400  0.75554600  1
  Fe  Fe3  1  0.68197600  0.68197600  0.75554600  1
  Fe  Fe4  1  0.81802400  0.18197600  0.74445400  1
  Fe  Fe5  1  0.18197600  0.81802400  0.74445400  1
  Fe  Fe6  1  0.68197600  0.68197600  0.24445400  1
  Fe  Fe7  1  0.31802400  0.31802400  0.24445400  1
  Fe  Fe8  1  0.50000000  0.50000000  0.11389100  1
  Fe  Fe9  1  0.00000000  0.00000000  0.61389100  1
  Fe  Fe10  1  0.50000000  0.50000000  0.88610900  1
  Fe  Fe11  1  0.00000000  0.00000000  0.38610900  1
  Fe  Fe12  1  0.40180800  0.59819200  0.29552400  1
  Fe  Fe13  1  0.59819200  0.40180800  0.29552400  1
  Fe  Fe14  1  0.09819200  0.09819200  0.79552400  1
  Fe  Fe15  1  0.90180800  0.90180800  0.79552400  1
  Fe  Fe16  1  0.59819200  0.40180800  0.70447600  1
  Fe  Fe17  1  0.40180800  0.59819200  0.70447600  1
  Fe  Fe18  1  0.90180800  0.90180800  0.20447600  1
  Fe  Fe19  1  0.09819200  0.09819200  0.20447600  1
  Fe  Fe20  1  0.93319700  0.72419200  0.37341800  1
  Fe  Fe21  1  0.06680300  0.27580800  0.37341800  1
  Fe  Fe22  1  0.56680300  0.22419200  0.87341800  1
  Fe  Fe23  1  0.43319700  0.77580800  0.87341800  1
  Fe  Fe24  1  0.06680300  0.27580800  0.62658200  1
  Fe  Fe25  1  0.93319700  0.72419200  0.62658200  1
  Fe  Fe26  1  0.43319700  0.77580800  0.12658200  1
  Fe  Fe27  1  0.56680300  0.22419200  0.12658200  1
  Fe  Fe28  1  0.72419200  0.93319700  0.37341800  1
  Fe  Fe29  1  0.27580800  0.06680300  0.37341800  1
  Fe  Fe30  1  0.22419200  0.56680300  0.87341800  1
  Fe  Fe31  1  0.77580800  0.43319700  0.87341800  1
  Fe  Fe32  1  0.27580800  0.06680300  0.62658200  1
  Fe  Fe33  1  0.72419200  0.93319700  0.62658200  1
  Fe  Fe34  1  0.77580800  0.43319700  0.12658200  1
  Fe  Fe35  1  0.22419200  0.56680300  0.12658200  1
  Fe  Fe36  1  0.14025700  0.53873900  0.32474800  1
  Fe  Fe37  1  0.85974300  0.46126100  0.32474800  1
  Fe  Fe38  1  0.35974300  0.03873900  0.82474800  1
  Fe  Fe39  1  0.64025700  0.96126100  0.82474800  1
  Fe  Fe40  1  0.85974300  0.46126100  0.67525200  1
  Fe  Fe41  1  0.14025700  0.53873900  0.67525200  1
  Fe  Fe42  1  0.64025700  0.96126100  0.17525200  1
  Fe  Fe43  1  0.35974300  0.03873900  0.17525200  1
  Fe  Fe44  1  0.53873900  0.14025700  0.32474800  1
  Fe  Fe45  1  0.46126100  0.85974300  0.32474800  1
  Fe  Fe46  1  0.03873900  0.35974300  0.82474800  1
  Fe  Fe47  1  0.96126100  0.64025700  0.82474800  1
  Fe  Fe48  1  0.46126100  0.85974300  0.67525200  1
  Fe  Fe49  1  0.53873900  0.14025700  0.67525200  1
  Fe  Fe50  1  0.96126100  0.64025700  0.17525200  1
  Fe  Fe51  1  0.03873900  0.35974300  0.17525200  1
  Fe  Fe52  1  0.00000000  0.50000000  0.50000000  1
  Fe  Fe53  1  0.50000000  0.00000000  0.00000000  1
  Fe  Fe54  1  0.50000000  0.00000000  0.50000000  1
  Fe  Fe55  1  0.00000000  0.50000000  0.00000000  1
  B  B0  1  0.87455700  0.87455700  0.50000000  1
  B  B1  1  0.12544300  0.12544300  0.50000000  1
  B  B2  1  0.62544300  0.37455700  0.00000000  1
  B  B3  1  0.37455700  0.62544300  0.00000000  1
loop_
_geom_bond_atom_site_label_1
_geom_bond_atom_site_label_2
_geom_bond_distance
_geom_bond_site_symmetry_2
Nd0 Nd1 3.467582 1_555
Nd2 Nd3 3.467582 1_645
Dy0 Fe5 3.004123 1_555
Dy0 Fe0 3.004123 1_555
Dy0 Fe45 3.030886 1_555
Dy0 Fe48 3.030886 1_555
Dy0 Fe41 3.030886 1_555
Dy0 Fe36 3.030886 1_555
Dy0 Fe29 3.033948 1_565
Dy0 Fe25 3.033948 1_455
Dy0 Fe20 3.033948 1_455
Dy0 Fe32 3.033948 1_565
Dy0 Fe52 3.103607 1_555
Dy0 Fe54 3.103607 1_565
Dy0 Fe11 3.151930 1_565
Dy0 Fe9 3.151930 1_565
Dy0 Fe17 3.260053 1_555
Dy0 Fe12 3.260053 1_555
Dy0 Nd1 3.771015 1_555
Dy0 Nd0 3.771015 1_555
Dy1 Fe4 3.004123 1_555
Dy1 Fe1 3.004123 1_555
Dy1 Fe40 3.030886 1_555
Dy1 Fe37 3.030886 1_555
Dy1 Fe49 3.030886 1_555
Dy1 Fe44 3.030886 1_555
Dy1 Fe24 3.033948 1_655
Dy1 Fe21 3.033948 1_655
Dy1 Fe33 3.033948 1_545
Dy1 Fe28 3.033948 1_545
Dy1 Fe52 3.103607 1_655
Dy1 Fe54 3.103607 1_555
Dy1 Fe11 3.151930 1_655
Dy1 Fe9 3.151930 1_655
Dy1 Fe16 3.260053 1_555
Dy1 Fe13 3.260053 1_555
Dy1 Nd1 3.771015 1_555
Dy1 Nd0 3.771015 1_555
Dy2 Fe2 3.004123 1_554
Dy2 Fe7 3.004123 1_555
Dy2 Fe43 3.030886 1_555
Dy2 Fe38 3.030886 1_554
Dy2 Fe46 3.030886 1_554
Dy2 Fe51 3.030886 1_555
Dy2 Fe30 3.033948 1_554
Dy2 Fe22 3.033948 1_554
Dy2 Fe27 3.033948 1_555
Dy2 Fe35 3.033948 1_555
Dy2 Fe53 3.103607 1_555
Dy2 Fe55 3.103607 1_555
Dy2 Fe8 3.151930 1_555
Dy2 Fe10 3.151930 1_554
Dy2 Fe19 3.260053 1_555
Dy2 Fe14 3.260053 1_554
Dy2 Nd2 3.771015 1_455
Dy2 Nd3 3.771015 1_545
Dy3 Fe3 3.004123 1_554
Dy3 Fe6 3.004123 1_555
Dy3 Fe42 3.030886 1_555
Dy3 Fe47 3.030886 1_554
Dy3 Fe50 3.030886 1_555
Dy3 Fe39 3.030886 1_554
Dy3 Fe23 3.033948 1_554
Dy3 Fe26 3.033948 1_555
Dy3 Fe34 3.033948 1_555
Dy3 Fe31 3.033948 1_554
Dy3 Fe55 3.103607 1_655
Dy3 Fe53 3.103607 1_565
Dy3 Fe8 3.151930 1_555
Dy3 Fe10 3.151930 1_554
Dy3 Fe15 3.260053 1_554
Dy3 Fe18 3.260053 1_555
Dy3 Nd2 3.771015 1_565
Dy3 Nd3 3.771015 1_655
Fe0 Fe36 2.607437 1_555
Fe0 Fe45 2.607437 1_555
Fe0 Fe18 2.631306 1_455
Fe0 Fe19 2.631306 1_565
Fe0 Fe50 2.661520 1_455
Fe0 Fe43 2.661520 1_565
Fe0 Fe26 2.717160 1_555
Fe0 Fe35 2.717160 1_555
Fe0 Fe20 2.725656 1_455
Fe0 Fe29 2.725656 1_565
Fe0 Fe11 2.746912 1_565
Fe0 Fe12 2.762161 1_555
Fe0 Nd3 3.123335 1_555
Fe1 Fe37 2.607437 1_555
Fe1 Fe44 2.607437 1_555
Fe1 Fe18 2.631306 1_545
Fe1 Fe19 2.631306 1_655
Fe1 Fe42 2.661520 1_545
Fe1 Fe51 2.661520 1_655
Fe1 Fe34 2.717160 1_555
Fe1 Fe27 2.717160 1_555
Fe1 Fe28 2.725656 1_545
Fe1 Fe21 2.725656 1_655
Fe1 Fe11 2.746912 1_655
Fe1 Fe13 2.762161 1_555
Fe1 Nd2 3.123335 1_555
Fe2 Fe46 2.607437 1_555
Fe2 Fe38 2.607437 1_555
Fe2 Fe49 2.661520 1_555
Fe2 Fe41 2.661520 1_555
Fe2 Fe32 2.717160 1_555
Fe2 Fe24 2.717160 1_555
Fe2 Fe30 2.725656 1_555
Fe2 Fe22 2.725656 1_555
Fe2 Nd1 3.123335 1_555
Fe3 Fe39 2.607437 1_555
Fe3 Fe47 2.607437 1_555
Fe3 Fe48 2.661520 1_555
Fe3 Fe40 2.661520 1_555
Fe3 Fe33 2.717160 1_555
Fe3 Fe31 2.725656 1_555
Fe3 Nd0 3.123335 1_555
Fe4 Fe40 2.607437 1_555
Fe4 Fe49 2.607437 1_555
Fe4 Fe46 2.661520 1_655
Fe4 Fe9 2.746912 1_655
Fe4 Nd2 3.123335 1_556
Fe5 Fe9 2.746912 1_565
Fe5 Nd3 3.123335 1_556
Fe6 Fe8 2.746912 1_555
Fe6 Nd0 3.123335 1_555
Fe7 Fe8 2.746912 1_555
Fe7 Nd1 3.123335 1_555
Fe10 Fe17 2.503736 1_555
Fe10 Fe16 2.503736 1_555
Fe10 Fe2 2.746912 1_555
Fe10 Fe3 2.746912 1_555
Fe11 Fe18 2.503736 1_445
Fe11 Fe19 2.503736 1_555
Fe12 Fe36 2.372831 1_555
Fe12 Fe45 2.372831 1_555
Fe12 Fe13 2.429703 1_555
Fe12 Fe8 2.503736 1_555
Fe12 Fe35 2.576116 1_555
Fe12 Fe26 2.576116 1_555
Fe12 Fe7 2.631306 1_555
Fe12 Fe6 2.631306 1_555
Fe12 Nd1 3.249010 1_555
Fe12 Nd0 3.249010 1_555
Fe13 Fe44 2.372831 1_555
Fe13 Fe37 2.372831 1_555
Fe13 Fe8 2.503736 1_555
Fe13 Fe27 2.576116 1_555
Fe13 Fe34 2.576116 1_555
Fe13 Fe7 2.631306 1_555
Fe13 Fe6 2.631306 1_555
Fe13 Nd1 3.249010 1_555
Fe13 Nd0 3.249010 1_555
Fe14 Fe46 2.372831 1_555
Fe14 Fe38 2.372831 1_555
Fe14 Fe15 2.429703 1_445
Fe14 Fe9 2.503736 1_555
Fe14 Fe32 2.576116 1_555
Fe14 Fe24 2.576116 1_555
Fe14 Fe4 2.631306 1_455
Fe14 Fe5 2.631306 1_545
Fe14 Fe2 2.762161 1_555
Fe14 Nd2 3.249010 1_456
Fe14 Nd3 3.249010 1_546
Fe15 Fe47 2.372831 1_555
Fe15 Fe39 2.372831 1_555
Fe15 Fe9 2.503736 1_665
Fe15 Fe25 2.576116 1_555
Fe15 Fe33 2.576116 1_555
Fe15 Fe4 2.631306 1_565
Fe15 Fe5 2.631306 1_655
Fe15 Fe3 2.762161 1_555
Fe15 Nd3 3.249010 1_656
Fe15 Nd2 3.249010 1_566
Fe16 Fe49 2.372831 1_555
Fe16 Fe40 2.372831 1_555
Fe16 Fe17 2.429703 1_555
Fe16 Fe22 2.576116 1_555
Fe16 Fe31 2.576116 1_555
Fe16 Fe2 2.631306 1_555
Fe16 Fe3 2.631306 1_555
Fe16 Fe4 2.762161 1_555
Fe16 Nd1 3.249010 1_555
Fe16 Nd0 3.249010 1_555
Fe17 Fe41 2.372831 1_555
Fe17 Fe48 2.372831 1_555
Fe17 Fe30 2.576116 1_555
Fe17 Fe23 2.576116 1_555
Fe17 Fe2 2.631306 1_555
Fe17 Fe3 2.631306 1_555
Fe17 Fe5 2.762161 1_555
Fe17 Nd1 3.249010 1_555
Fe17 Nd0 3.249010 1_555
Fe18 Fe50 2.372831 1_555
Fe18 Fe42 2.372831 1_555
Fe18 Fe19 2.429703 1_665
Fe18 Fe20 2.576116 1_555
Fe18 Fe28 2.576116 1_555
Fe18 Fe6 2.762161 1_555
Fe18 Nd3 3.249010 1_655
Fe18 Nd2 3.249010 1_565
Fe19 Fe43 2.372831 1_555
Fe19 Fe51 2.372831 1_555
Fe19 Fe29 2.576116 1_555
Fe19 Fe21 2.576116 1_555
Fe19 Fe7 2.762161 1_555
Fe19 Nd3 3.249010 1_545
Fe19 Nd2 3.249010 1_455
Fe20 Fe37 2.459309 1_555
Fe20 Fe36 2.501557 1_655
Fe20 Fe50 2.510885 1_555
Fe20 Fe52 2.552684 1_655
Fe20 Fe6 2.717160 1_555
Fe20 Nd0 3.072753 1_555
Fe21 Fe36 2.459309 1_555
Fe21 Fe37 2.501557 1_455
Fe21 Fe51 2.510885 1_555
Fe21 Fe52 2.552684 1_555
Fe21 Fe7 2.717160 1_555
Fe21 Nd1 3.072753 1_555
Fe22 Fe39 2.459309 1_545
Fe22 Fe38 2.501557 1_555
Fe22 Fe49 2.510885 1_555
Fe22 Fe53 2.552684 1_556
Fe22 Fe4 2.717160 1_555
Fe22 Nd2 3.072753 1_556
Fe23 Fe38 2.459309 1_565
Fe23 Fe39 2.501557 1_555
Fe23 Fe48 2.510885 1_555
Fe23 Fe53 2.552684 1_566
Fe23 Fe5 2.717160 1_555
Fe23 Fe3 2.725656 1_555
Fe23 Nd3 3.072753 1_556
Fe24 Fe41 2.459309 1_555
Fe24 Fe40 2.501557 1_455
Fe24 Fe46 2.510885 1_555
Fe24 Fe52 2.552684 1_555
Fe24 Fe4 2.725656 1_455
Fe24 Nd1 3.072753 1_555
Fe25 Fe40 2.459309 1_555
Fe25 Fe41 2.501557 1_655
Fe25 Fe47 2.510885 1_555
Fe25 Fe52 2.552684 1_655
Fe25 Fe3 2.717160 1_555
Fe25 Fe5 2.725656 1_655
Fe25 Nd0 3.072753 1_555
Fe26 Fe43 2.459309 1_565
Fe26 Fe42 2.501557 1_555
Fe26 Fe45 2.510885 1_555
Fe26 Fe53 2.552684 1_565
Fe26 Fe6 2.725656 1_555
Fe26 Nd3 3.072753 1_555
Fe27 Fe42 2.459309 1_545
Fe27 Fe43 2.501557 1_555
Fe27 Fe44 2.510885 1_555
Fe27 Fe53 2.552684 1_555
Fe27 Fe7 2.725656 1_555
Fe27 Nd2 3.072753 1_555
Fe28 Fe45 2.459309 1_555
Fe28 Fe44 2.501557 1_565
Fe28 Fe42 2.510885 1_555
Fe28 Fe54 2.552684 1_565
Fe28 Fe6 2.717160 1_555
Fe28 Nd0 3.072753 1_555
Fe29 Fe44 2.459309 1_555
Fe29 Fe45 2.501557 1_545
Fe29 Fe43 2.510885 1_555
Fe29 Fe54 2.552684 1_555
Fe29 Fe7 2.717160 1_555
Fe29 Nd1 3.072753 1_555
Fe30 Fe47 2.459309 1_455
Fe30 Fe46 2.501557 1_555
Fe30 Fe41 2.510885 1_555
Fe30 Fe55 2.552684 1_556
Fe30 Fe5 2.717160 1_555
Fe30 Nd3 3.072753 1_556
Fe31 Fe46 2.459309 1_655
Fe31 Fe47 2.501557 1_555
Fe31 Fe40 2.510885 1_555
Fe31 Fe55 2.552684 1_656
Fe31 Fe4 2.717160 1_555
Fe31 Nd2 3.072753 1_556
Fe32 Fe49 2.459309 1_555
Fe32 Fe48 2.501557 1_545
Fe32 Fe38 2.510885 1_555
Fe32 Fe54 2.552684 1_555
Fe32 Fe5 2.725656 1_545
Fe32 Nd1 3.072753 1_555
Fe33 Fe48 2.459309 1_555
Fe33 Fe49 2.501557 1_565
Fe33 Fe39 2.510885 1_555
Fe33 Fe54 2.552684 1_565
Fe33 Fe4 2.725656 1_565
Fe33 Nd0 3.072753 1_555
Fe34 Fe51 2.459309 1_655
Fe34 Fe50 2.501557 1_555
Fe34 Fe37 2.510885 1_555
Fe34 Fe55 2.552684 1_655
Fe34 Fe6 2.725656 1_555
Fe34 Nd2 3.072753 1_555
Fe35 Fe50 2.459309 1_455
Fe35 Fe51 2.501557 1_555
Fe35 Fe36 2.510885 1_555
Fe35 Fe55 2.552684 1_555
Fe35 Fe7 2.725656 1_555
Fe35 Nd3 3.072753 1_555
Fe36 Fe52 2.466264 1_555
Fe36 Fe37 2.545954 1_455
Fe36 Fe51 2.547113 1_555
Fe36 Fe50 2.547113 1_455
Fe36 Fe7 2.661520 1_555
Fe36 Nd1 3.256063 1_555
Fe37 Fe52 2.466264 1_655
Fe37 Fe50 2.547113 1_555
Fe37 Fe51 2.547113 1_655
Fe37 Fe6 2.661520 1_555
Fe37 Nd0 3.256063 1_555
Fe38 Fe53 2.466264 1_556
Fe38 Fe39 2.545954 1_545
Fe38 Fe48 2.547113 1_545
Fe38 Fe49 2.547113 1_555
Fe38 Fe5 2.661520 1_545
Fe38 Nd3 3.256063 1_546
Fe39 Fe53 2.466264 1_566
Fe39 Fe48 2.547113 1_555
Fe39 Fe49 2.547113 1_565
Fe39 Fe4 2.661520 1_565
Fe39 Nd2 3.256063 1_566
Fe40 Fe52 2.466264 1_655
Fe40 Fe41 2.545954 1_655
Fe40 Fe46 2.547113 1_655
Fe40 Fe47 2.547113 1_555
Fe40 Nd0 3.256063 1_555
Fe41 Fe52 2.466264 1_555
Fe41 Fe47 2.547113 1_455
Fe41 Fe46 2.547113 1_555
Fe41 Fe5 2.607437 1_555
Fe41 Nd1 3.256063 1_555
Fe42 Fe53 2.466264 1_565
Fe42 Fe43 2.545954 1_565
Fe42 Fe45 2.547113 1_555
Fe42 Fe44 2.547113 1_565
Fe42 Fe6 2.607437 1_555
Fe42 Nd2 3.256063 1_565
Fe43 Fe53 2.466264 1_555
Fe43 Fe45 2.547113 1_545
Fe43 Fe44 2.547113 1_555
Fe43 Fe7 2.607437 1_555
Fe43 Nd3 3.256063 1_545
Fe44 Fe54 2.466264 1_555
Fe44 Fe45 2.545954 1_545
Fe44 Fe7 2.661520 1_555
Fe44 Nd1 3.256063 1_555
Fe45 Fe54 2.466264 1_565
Fe45 Fe6 2.661520 1_555
Fe45 Nd0 3.256063 1_555
Fe46 Fe55 2.466264 1_556
Fe46 Fe47 2.545954 1_455
Fe46 Nd2 3.256063 1_456
Fe47 Fe55 2.466264 1_656
Fe47 Fe5 2.661520 1_655
Fe47 Nd3 3.256063 1_656
Fe48 Fe54 2.466264 1_565
Fe48 Fe49 2.545954 1_565
Fe48 Fe5 2.607437 1_555
Fe48 Nd0 3.256063 1_555
Fe49 Fe54 2.466264 1_555
Fe49 Nd1 3.256063 1_555
Fe50 Fe55 2.466264 1_655
Fe50 Fe51 2.545954 1_655
Fe50 Fe6 2.607437 1_555
Fe50 Nd3 3.256063 1_655
Fe51 Fe55 2.466264 1_555
Fe51 Fe7 2.607437 1_555
Fe51 Nd2 3.256063 1_455
Fe52 Nd0 3.378542 1_455
Fe52 Nd1 3.378542 1_555
Fe53 Nd2 3.378542 1_555
Fe53 Nd3 3.378542 1_545
Fe54 Nd0 3.378542 1_545
Fe54 Nd1 3.378542 1_555
Fe55 Nd3 3.378542 1_555
Fe55 Nd2 3.378542 1_455
B0 Fe9 2.071994 1_665
B0 Fe11 2.071994 1_665
B0 Fe33 2.078804 1_555
B0 Fe25 2.078804 1_555
B0 Fe28 2.078804 1_555
B0 Fe20 2.078804 1_555
B0 Nd0 2.900304 1_555
B0 Dy0 3.234030 1_655
B0 Dy1 3.234030 1_565
B1 Fe9 2.071994 1_555
B1 Fe11 2.071994 1_555
B1 Fe32 2.078804 1_555
B1 Fe24 2.078804 1_555
B1 Fe29 2.078804 1_555
B1 Fe21 2.078804 1_555
B1 Nd1 2.900304 1_555
B1 Dy1 3.234030 1_455
B1 Dy0 3.234030 1_545
B2 Fe10 2.071994 1_554
B2 Fe8 2.071994 1_555
B2 Fe22 2.078804 1_554
B2 Fe27 2.078804 1_555
B2 Fe34 2.078804 1_555
B2 Fe31 2.078804 1_554
B2 Nd2 2.900304 1_555
B2 Dy2 3.234030 1_555
B2 Dy3 3.234030 1_555
B3 Fe10 2.071994 1_554
B3 Fe8 2.071994 1_555
B3 Fe30 2.078804 1_554
B3 Fe35 2.078804 1_555
B3 Fe26 2.078804 1_555
B3 Fe23 2.078804 1_554
B3 Nd3 2.900304 1_555
B3 Dy2 3.234030 1_555
B3 Dy3 3.234030 1_555
