# generated using pymatgen
data_ZrScFe4
_symmetry_space_group_name_H-M   'P 1'
_cell_length_a   4.99568120
_cell_length_b   4.99563338
_cell_length_c   4.99563567
_cell_angle_alpha   59.99997481
_cell_angle_beta   60.00028136
_cell_angle_gamma   60.00025607
_symmetry_Int_Tables_number   1
_chemical_formula_structural   ZrScFe4
_chemical_formula_sum   'Zr1 Sc1 Fe4'
_cell_volume   88.15820049
_cell_formula_units_Z   1
loop_
 _symmetry_equiv_pos_site_id
 _symmetry_equiv_pos_as_xyz
  1  'x, y, z'
loop_
 _atom_site_type_symbol
 _atom_site_label
 _atom_site_symmetry_multiplicity
 _atom_site_fract_x
 _atom_site_fract_y
 _atom_site_fract_z
 _atom_site_occupancy
  Zr  Zr0  1  0.99999448  0.00000317  0.00000217  1
  Sc  Sc0  1  0.25000836  0.24999655  0.24999755  1
  Fe  Fe0  1  0.62472495  0.62472646  0.12582313  1
  Fe  Fe1  1  0.62472495  0.12582313  0.62472646  1
  Fe  Fe2  1  0.12582331  0.62472623  0.62472623  1
  Fe  Fe3  1  0.62472495  0.62472646  0.62472646  1
loop_
_geom_bond_atom_site_label_1
_geom_bond_atom_site_label_2
_geom_bond_distance
_geom_bond_site_symmetry_2
Sc0 Zr0 3.059173 1_555
Sc0 Zr0 3.059205 1_455
Sc0 Zr0 3.059212 1_456
Sc0 Zr0 3.059218 1_465
Fe0 Fe1 2.492338 1_555
Fe0 Fe3 2.492339 1_555
Fe0 Fe2 2.492356 1_555
Fe0 Fe1 2.503295 1_564
Fe0 Fe3 2.503296 1_554
Fe0 Fe2 2.503323 1_654
Fe0 Sc0 2.928353 1_565
Fe0 Sc0 2.928364 1_555
Fe0 Sc0 2.928431 1_655
Fe0 Zr0 2.929531 1_555
Fe0 Zr0 2.929542 1_565
Fe0 Zr0 2.929582 1_465
Fe1 Fe3 2.492338 1_555
Fe1 Fe2 2.492355 1_555
Fe1 Fe3 2.503295 1_545
Fe1 Fe2 2.503322 1_645
Fe1 Sc0 2.928357 1_556
Fe1 Sc0 2.928362 1_555
Fe1 Sc0 2.928430 1_655
Fe1 Zr0 2.929535 1_555
Fe1 Zr0 2.929540 1_556
Fe1 Zr0 2.929581 1_456
Fe2 Fe3 2.492355 1_555
Fe2 Fe3 2.503327 1_455
Fe2 Sc0 2.928368 1_565
Fe2 Sc0 2.928373 1_556
Fe2 Sc0 2.928382 1_555
Fe2 Zr0 2.929538 1_456
Fe2 Zr0 2.929543 1_465
Fe2 Zr0 2.929543 1_466
Fe3 Sc0 2.928356 1_565
Fe3 Sc0 2.928361 1_556
Fe3 Sc0 2.928432 1_655
Fe3 Zr0 2.929533 1_556
Fe3 Zr0 2.929539 1_565
Fe3 Zr0 2.929584 1_466
