# generated using pymatgen
data_CeYMg14
_symmetry_space_group_name_H-M   'P 1'
_cell_length_a   6.52072833
_cell_length_b   6.44086338
_cell_length_c   10.39372730
_cell_angle_alpha   90.00000000
_cell_angle_beta   90.00000000
_cell_angle_gamma   119.59566988
_symmetry_Int_Tables_number   1
_chemical_formula_structural   CeYMg14
_chemical_formula_sum   'Ce1 Y1 Mg14'
_cell_volume   379.57465774
_cell_formula_units_Z   1
loop_
 _symmetry_equiv_pos_site_id
 _symmetry_equiv_pos_as_xyz
  1  'x, y, z'
loop_
 _atom_site_type_symbol
 _atom_site_label
 _atom_site_symmetry_multiplicity
 _atom_site_fract_x
 _atom_site_fract_y
 _atom_site_fract_z
 _atom_site_occupancy
  Ce  Ce0  1  0.17221059  0.83610479  0.12500000  1
  Y  Y0  1  0.18122702  0.34061301  0.12500000  1
  Mg  Mg0  1  0.16140031  0.33069965  0.62500000  1
  Mg  Mg1  1  0.16141256  0.83070578  0.62500000  1
  Mg  Mg2  1  0.67031069  0.33564028  0.12500000  1
  Mg  Mg3  1  0.66583285  0.33278452  0.62500000  1
  Mg  Mg4  1  0.67031069  0.83466941  0.12500000  1
  Mg  Mg5  1  0.66583285  0.83304733  0.62500000  1
  Mg  Mg6  1  0.33449079  0.16704306  0.38760132  1
  Mg  Mg7  1  0.33449079  0.16704306  0.86239868  1
  Mg  Mg8  1  0.33449079  0.66744872  0.38760132  1
  Mg  Mg9  1  0.33449079  0.66744872  0.86239868  1
  Mg  Mg10  1  0.82937810  0.16468955  0.37695287  1
  Mg  Mg11  1  0.82937810  0.16468955  0.87304713  1
  Mg  Mg12  1  0.82737154  0.66368627  0.38075522  1
  Mg  Mg13  1  0.82737154  0.66368627  0.86924478  1
loop_
_geom_bond_atom_site_label_1
_geom_bond_atom_site_label_2
_geom_bond_distance
_geom_bond_site_symmetry_2
Ce0 Y0 3.220837 1_555
Ce0 Y0 3.220837 1_565
Ce0 Mg2 3.252551 1_565
Ce0 Mg4 3.252551 1_555
Ce0 Mg2 3.268197 1_455
Ce0 Mg4 3.268197 1_455
Ce0 Mg9 3.299221 1_554
Ce0 Mg8 3.299221 1_555
Ce0 Mg6 3.299227 1_565
Ce0 Mg7 3.299227 1_564
Ce0 Mg13 3.299882 1_454
Ce0 Mg12 3.299882 1_455
Mg0 Mg6 3.106206 1_555
Mg0 Mg7 3.106206 1_555
Mg0 Mg9 3.106212 1_555
Mg0 Mg8 3.106212 1_555
Mg0 Mg10 3.192305 1_455
Mg0 Mg11 3.192305 1_455
Mg0 Mg1 3.220432 1_545
Mg0 Mg1 3.220432 1_555
Mg0 Mg5 3.238113 1_445
Mg0 Mg3 3.238114 1_455
Mg0 Mg5 3.282656 1_555
Mg0 Mg3 3.282656 1_555
Mg1 Mg9 3.104829 1_555
Mg1 Mg8 3.104829 1_555
Mg1 Mg7 3.104836 1_565
Mg1 Mg6 3.104836 1_565
Mg1 Mg12 3.167305 1_455
Mg1 Mg13 3.167305 1_455
Mg1 Mg3 3.239015 1_455
Mg1 Mg5 3.239016 1_455
Mg1 Mg3 3.281765 1_565
Mg1 Mg5 3.281765 1_555
Mg2 Y0 3.205121 1_555
Mg2 Mg4 3.214178 1_555
Mg2 Mg4 3.226685 1_545
Mg2 Y0 3.315845 1_655
Mg2 Mg6 3.327950 1_555
Mg2 Mg7 3.327950 1_554
Mg3 Mg7 3.101270 1_555
Mg3 Mg6 3.101270 1_555
Mg3 Mg5 3.218739 1_545
Mg3 Mg5 3.222124 1_555
Mg4 Y0 3.205121 1_555
Mg4 Y0 3.315845 1_665
Mg4 Mg8 3.327950 1_555
Mg4 Mg9 3.327950 1_554
Mg5 Mg9 3.101270 1_555
Mg5 Mg8 3.101270 1_555
Mg6 Mg8 3.217819 1_545
Mg6 Mg8 3.223044 1_555
Mg6 Y0 3.286611 1_555
Mg7 Mg9 3.217819 1_545
Mg7 Mg9 3.223044 1_555
Mg7 Y0 3.286611 1_556
Mg8 Y0 3.286617 1_555
Mg9 Y0 3.286617 1_556
Mg10 Mg3 3.177532 1_555
Mg10 Mg5 3.177538 1_545
Mg10 Mg2 3.205314 1_555
Mg10 Mg4 3.205320 1_545
Mg10 Mg12 3.220694 1_545
Mg10 Mg12 3.220694 1_555
Mg10 Mg8 3.236432 1_545
Mg10 Mg6 3.236432 1_555
Mg10 Mg8 3.288105 1_655
Mg10 Mg6 3.288106 1_655
Mg10 Y0 3.292063 1_655
Mg11 Mg3 3.177532 1_555
Mg11 Mg5 3.177538 1_545
Mg11 Mg2 3.205314 1_556
Mg11 Mg4 3.205320 1_546
Mg11 Mg13 3.220694 1_545
Mg11 Mg13 3.220694 1_555
Mg11 Mg9 3.236432 1_545
Mg11 Mg7 3.236432 1_555
Mg11 Mg9 3.288105 1_655
Mg11 Mg7 3.288106 1_655
Mg11 Y0 3.292063 1_656
Mg12 Mg5 3.143083 1_555
Mg12 Mg3 3.143090 1_555
Mg12 Mg6 3.226763 1_555
Mg12 Mg8 3.226763 1_555
Mg12 Mg4 3.231417 1_555
Mg12 Mg2 3.231423 1_555
Mg12 Mg6 3.295654 1_665
Mg12 Mg8 3.295654 1_655
Mg13 Mg5 3.143083 1_555
Mg13 Mg3 3.143090 1_555
Mg13 Mg7 3.226763 1_555
Mg13 Mg9 3.226763 1_555
Mg13 Mg4 3.231417 1_556
Mg13 Mg2 3.231423 1_556
Mg13 Mg7 3.295654 1_665
Mg13 Mg9 3.295654 1_655
