# generated using pymatgen
data_LiNdSn
_symmetry_space_group_name_H-M   'P 1'
_cell_length_a   9.55338380
_cell_length_b   9.55338380
_cell_length_c   7.68040900
_cell_angle_alpha   90.00000000
_cell_angle_beta   90.00000000
_cell_angle_gamma   119.99999858
_symmetry_Int_Tables_number   1
_chemical_formula_structural   LiNdSn
_chemical_formula_sum   'Li8 Nd8 Sn8'
_cell_volume   607.05695122
_cell_formula_units_Z   8
loop_
 _symmetry_equiv_pos_site_id
 _symmetry_equiv_pos_as_xyz
  1  'x, y, z'
loop_
 _atom_site_type_symbol
 _atom_site_label
 _atom_site_symmetry_multiplicity
 _atom_site_fract_x
 _atom_site_fract_y
 _atom_site_fract_z
 _atom_site_occupancy
  Li  Li0  1  0.16653900  0.33307800  0.28833400  1
  Li  Li1  1  0.16653900  0.83346100  0.28833400  1
  Li  Li2  1  0.66692200  0.83346100  0.28833400  1
  Li  Li3  1  0.83346100  0.66692200  0.78833400  1
  Li  Li4  1  0.83346100  0.16653900  0.78833400  1
  Li  Li5  1  0.33307800  0.16653900  0.78833400  1
  Li  Li6  1  0.33333300  0.66666700  0.66083200  1
  Li  Li7  1  0.66666700  0.33333300  0.16083200  1
  Nd  Nd0  1  0.51298700  0.02597500  0.49555400  1
  Nd  Nd1  1  0.51298700  0.48701300  0.49555400  1
  Nd  Nd2  1  0.97402500  0.48701300  0.49555400  1
  Nd  Nd3  1  0.48701300  0.97402500  0.99555400  1
  Nd  Nd4  1  0.48701300  0.51298700  0.99555400  1
  Nd  Nd5  1  0.02597500  0.51298700  0.99555400  1
  Nd  Nd6  1  0.00000000  0.00000000  0.50290600  1
  Nd  Nd7  1  0.00000000  0.00000000  0.00290600  1
  Sn  Sn0  1  0.16730900  0.33461900  0.72869300  1
  Sn  Sn1  1  0.16730900  0.83269100  0.72869300  1
  Sn  Sn2  1  0.66538100  0.83269100  0.72869300  1
  Sn  Sn3  1  0.83269100  0.66538100  0.22869300  1
  Sn  Sn4  1  0.83269100  0.16730900  0.22869300  1
  Sn  Sn5  1  0.33461900  0.16730900  0.22869300  1
  Sn  Sn6  1  0.33333300  0.66666700  0.26950600  1
  Sn  Sn7  1  0.66666700  0.33333300  0.76950600  1
loop_
_geom_bond_atom_site_label_1
_geom_bond_atom_site_label_2
_geom_bond_distance
_geom_bond_site_symmetry_2
Li0 Sn6 2.763725 1_555
Li0 Sn4 2.799830 1_455
Li0 Sn5 2.799838 1_555
Li0 Nd6 3.210896 1_555
Li0 Nd1 3.283714 1_555
Li0 Nd2 3.283721 1_455
Li0 Sn0 3.382161 1_555
Li0 Nd5 3.481651 1_554
Li0 Nd4 3.481657 1_554
Li0 Nd7 3.521322 1_555
Li1 Sn6 2.763717 1_555
Li1 Sn5 2.799830 1_565
Li1 Sn3 2.799830 1_455
Li1 Nd6 3.210896 1_565
Li1 Nd0 3.283714 1_565
Li1 Nd2 3.283714 1_455
Li1 Sn1 3.382161 1_555
Li1 Nd3 3.481657 1_554
Li1 Nd5 3.481657 1_554
Li1 Nd7 3.521322 1_565
Li2 Sn6 2.763725 1_555
Li2 Sn4 2.799830 1_565
Li2 Sn3 2.799838 1_555
Li2 Nd6 3.210896 1_665
Li2 Nd1 3.283714 1_555
Li2 Nd0 3.283721 1_565
Li2 Sn2 3.382161 1_555
Li2 Nd3 3.481651 1_554
Li2 Nd4 3.481657 1_554
Li2 Nd7 3.521322 1_665
Li3 Sn7 2.763725 1_555
Li3 Sn1 2.799830 1_655
Li3 Sn2 2.799838 1_555
Li3 Nd7 3.210896 1_666
Li3 Nd4 3.283714 1_555
Li3 Nd5 3.283721 1_655
Li3 Sn3 3.382161 1_556
Li3 Nd2 3.481651 1_555
Li3 Nd1 3.481657 1_555
Li3 Nd6 3.521322 1_665
Li4 Sn7 2.763717 1_555
Li4 Sn0 2.799830 1_655
Li4 Sn2 2.799830 1_545
Li4 Nd7 3.210896 1_656
Li4 Nd5 3.283714 1_655
Li4 Nd3 3.283714 1_545
Li4 Sn4 3.382161 1_556
Li4 Nd2 3.481657 1_555
Li4 Nd0 3.481657 1_555
Li4 Nd6 3.521322 1_655
Li5 Sn7 2.763725 1_555
Li5 Sn1 2.799830 1_545
Li5 Sn0 2.799838 1_555
Li5 Nd7 3.210896 1_556
Li5 Nd4 3.283714 1_555
Li5 Nd3 3.283721 1_545
Li5 Sn5 3.382161 1_556
Li5 Nd0 3.481651 1_555
Li5 Nd1 3.481657 1_555
Li5 Nd6 3.521322 1_555
Li6 Sn1 2.796194 1_555
Li6 Sn2 2.796195 1_555
Li6 Sn0 2.796195 1_555
Li6 Sn6 3.005544 1_555
Li6 Nd1 3.232410 1_555
Li6 Nd2 3.232410 1_455
Li6 Nd0 3.232410 1_565
Li6 Nd5 3.616000 1_555
Li6 Nd3 3.616000 1_555
Li6 Nd4 3.616011 1_555
Li7 Sn4 2.796194 1_555
Li7 Sn5 2.796195 1_555
Li7 Sn3 2.796195 1_555
Li7 Sn7 3.005544 1_554
Li7 Nd4 3.232410 1_554
Li7 Nd3 3.232410 1_544
Li7 Nd5 3.232410 1_654
Li7 Nd2 3.616000 1_555
Li7 Nd0 3.616000 1_555
Li7 Nd1 3.616011 1_555
Nd0 Sn7 3.300533 1_555
Nd0 Sn5 3.350885 1_555
Nd0 Sn4 3.350898 1_555
Nd0 Sn2 3.379906 1_545
Nd0 Sn1 3.379906 1_545
Nd0 Sn6 3.442569 1_545
Nd1 Sn7 3.300545 1_555
Nd1 Sn5 3.350897 1_555
Nd1 Sn3 3.350897 1_555
Nd1 Sn0 3.379906 1_555
Nd1 Sn2 3.379906 1_555
Nd1 Sn6 3.442569 1_555
Nd2 Sn7 3.300533 1_555
Nd2 Sn3 3.350885 1_555
Nd2 Sn4 3.350898 1_555
Nd2 Sn0 3.379906 1_655
Nd2 Sn1 3.379906 1_655
Nd2 Sn6 3.442569 1_655
Nd3 Sn6 3.300533 1_556
Nd3 Sn2 3.350885 1_555
Nd3 Sn1 3.350898 1_555
Nd3 Sn5 3.379906 1_566
Nd3 Sn4 3.379906 1_566
Nd3 Sn7 3.442569 1_565
Nd4 Sn6 3.300545 1_556
Nd4 Sn2 3.350897 1_555
Nd4 Sn0 3.350897 1_555
Nd4 Sn5 3.379906 1_556
Nd4 Sn3 3.379906 1_556
Nd4 Sn7 3.442569 1_555
Nd5 Sn6 3.300533 1_556
Nd5 Sn0 3.350885 1_555
Nd5 Sn1 3.350898 1_555
Nd5 Sn3 3.379906 1_456
Nd5 Sn4 3.379906 1_456
Nd5 Sn7 3.442569 1_455
Nd6 Sn1 3.266736 1_545
Nd6 Sn0 3.266743 1_555
Nd6 Sn2 3.266743 1_445
Nd6 Sn4 3.478484 1_455
Nd6 Sn3 3.478491 1_445
Nd6 Sn5 3.478491 1_555
Nd7 Sn4 3.266736 1_455
Nd7 Sn3 3.266743 1_445
Nd7 Sn5 3.266743 1_555
Nd7 Sn1 3.478484 1_544
Nd7 Sn0 3.478491 1_554
Nd7 Sn2 3.478491 1_444
