# generated using pymatgen
data_K2Fe2P2O7F2
_symmetry_space_group_name_H-M   'P 1'
_cell_length_a   7.08159600
_cell_length_b   10.32039700
_cell_length_c   10.61000100
_cell_angle_alpha   90.00000000
_cell_angle_beta   90.00000000
_cell_angle_gamma   90.00000000
_symmetry_Int_Tables_number   1
_chemical_formula_structural   K2Fe2P2O7F2
_chemical_formula_sum   'K8 Fe8 P8 O28 F8'
_cell_volume   775.43067231
_cell_formula_units_Z   4
loop_
 _symmetry_equiv_pos_site_id
 _symmetry_equiv_pos_as_xyz
  1  'x, y, z'
loop_
 _atom_site_type_symbol
 _atom_site_label
 _atom_site_symmetry_multiplicity
 _atom_site_fract_x
 _atom_site_fract_y
 _atom_site_fract_z
 _atom_site_occupancy
  K  K0  1  0.56950300  0.16384200  0.05360600  1
  K  K1  1  0.93049700  0.33615800  0.55360600  1
  K  K2  1  0.93049700  0.66384200  0.05360600  1
  K  K3  1  0.56950300  0.83615800  0.55360600  1
  K  K4  1  0.06950300  0.33615800  0.94639400  1
  K  K5  1  0.43049700  0.83615800  0.94639400  1
  K  K6  1  0.06950300  0.66384200  0.44639400  1
  K  K7  1  0.43049700  0.16384200  0.44639400  1
  Fe  Fe0  1  0.00000000  0.16106900  0.25000000  1
  Fe  Fe1  1  0.50000000  0.33893100  0.75000000  1
  Fe  Fe2  1  0.50000000  0.66106900  0.25000000  1
  Fe  Fe3  1  0.00000000  0.00000000  0.50000000  1
  Fe  Fe4  1  0.00000000  0.00000000  0.00000000  1
  Fe  Fe5  1  0.00000000  0.83893100  0.75000000  1
  Fe  Fe6  1  0.50000000  0.50000000  0.00000000  1
  Fe  Fe7  1  0.50000000  0.50000000  0.50000000  1
  P  P0  1  0.79026900  0.42868800  0.25438600  1
  P  P1  1  0.29026900  0.92868800  0.24561400  1
  P  P2  1  0.29026900  0.07131200  0.74561400  1
  P  P3  1  0.70973100  0.07131200  0.75438600  1
  P  P4  1  0.79026900  0.57131200  0.75438600  1
  P  P5  1  0.20973100  0.57131200  0.74561400  1
  P  P6  1  0.70973100  0.92868800  0.25438600  1
  P  P7  1  0.20973100  0.42868800  0.24561400  1
  O  O0  1  0.15630800  0.00763000  0.33923200  1
  O  O1  1  0.34369200  0.50763000  0.33923200  1
  O  O2  1  0.84369200  0.99237000  0.66076800  1
  O  O3  1  0.36398700  0.18463800  0.83891500  1
  O  O4  1  0.65630800  0.49237000  0.66076800  1
  O  O5  1  0.76584400  0.99577300  0.88434400  1
  O  O6  1  0.00000000  0.49287700  0.75000000  1
  O  O7  1  0.00000000  0.50712300  0.25000000  1
  O  O8  1  0.63601300  0.18463800  0.66108500  1
  O  O9  1  0.76584400  0.00422700  0.38434400  1
  O  O10  1  0.73415600  0.50422700  0.38434400  1
  O  O11  1  0.23415600  0.99577300  0.61565600  1
  O  O12  1  0.23415600  0.00422700  0.11565600  1
  O  O13  1  0.86398700  0.31536200  0.16108500  1
  O  O14  1  0.15630800  0.99237000  0.83923200  1
  O  O15  1  0.36398700  0.81536200  0.33891500  1
  O  O16  1  0.73415600  0.49577300  0.88434400  1
  O  O17  1  0.63601300  0.81536200  0.16108500  1
  O  O18  1  0.84369200  0.00763000  0.16076800  1
  O  O19  1  0.65630800  0.50763000  0.16076800  1
  O  O20  1  0.34369200  0.49237000  0.83923200  1
  O  O21  1  0.50000000  0.99287700  0.75000000  1
  O  O22  1  0.26584400  0.49577300  0.61565600  1
  O  O23  1  0.86398700  0.68463800  0.66108500  1
  O  O24  1  0.13601300  0.68463800  0.83891500  1
  O  O25  1  0.26584400  0.50422700  0.11565600  1
  O  O26  1  0.13601300  0.31536200  0.33891500  1
  O  O27  1  0.50000000  0.00712300  0.25000000  1
  F  F0  1  0.32317500  0.29198800  0.16671600  1
  F  F1  1  0.67682500  0.70801200  0.83328400  1
  F  F2  1  0.17682500  0.20801200  0.66671600  1
  F  F3  1  0.32317500  0.70801200  0.66671600  1
  F  F4  1  0.82317500  0.79198800  0.33328400  1
  F  F5  1  0.17682500  0.79198800  0.16671600  1
  F  F6  1  0.67682500  0.29198800  0.33328400  1
  F  F7  1  0.82317500  0.20801200  0.83328400  1
loop_
_geom_bond_atom_site_label_1
_geom_bond_atom_site_label_2
_geom_bond_distance
_geom_bond_site_symmetry_2
K0 O27 2.683322 1_555
K0 O3 2.711623 1_554
K0 O18 2.768035 1_555
K0 O13 2.845113 1_555
K0 O5 2.857798 1_544
K0 O12 2.964225 1_555
K1 O6 2.683322 1_655
K1 O26 2.711623 1_655
K1 O4 2.768035 1_555
K1 O8 2.845113 1_555
K1 O10 2.857798 1_555
K1 O22 2.964225 1_655
K2 O7 2.683322 1_655
K2 O24 2.711623 1_654
K2 O19 2.768035 1_555
K2 O17 2.845113 1_555
K2 O16 2.857798 1_554
K2 O25 2.964225 1_655
K3 O21 2.683322 1_555
K3 O15 2.711623 1_555
K3 O2 2.768035 1_555
K3 O23 2.845113 1_555
K3 O9 2.857798 1_565
K3 O11 2.964225 1_555
K4 O6 2.683322 1_555
K4 O13 2.711623 1_456
K4 O20 2.768035 1_555
K4 O3 2.845113 1_555
K4 O25 2.857798 1_556
K4 O16 2.964225 1_455
K5 O21 2.683322 1_555
K5 O17 2.711623 1_556
K5 O14 2.768035 1_555
K5 O24 2.845113 1_555
K5 O12 2.857798 1_566
K5 O5 2.964225 1_555
K6 O7 2.683322 1_555
K6 O23 2.711623 1_455
K6 O1 2.768035 1_555
K6 O15 2.845113 1_555
K6 O22 2.857798 1_555
K6 O10 2.964225 1_455
K7 O27 2.683322 1_555
K7 O8 2.711623 1_555
K7 O0 2.768035 1_555
K7 O26 2.845113 1_555
K7 O11 2.857798 1_545
K7 O9 2.964225 1_555
Fe0 O26 2.086466 1_555
Fe0 O13 2.086466 1_455
Fe0 O0 2.151563 1_555
Fe0 O18 2.151563 1_455
Fe1 O3 2.086466 1_555
Fe1 O8 2.086466 1_555
Fe1 O20 2.151563 1_555
Fe1 O4 2.151563 1_555
Fe2 O15 2.086466 1_555
Fe2 O17 2.086466 1_555
Fe2 O1 2.151563 1_555
Fe2 O19 2.151563 1_555
Fe3 O0 2.034952 1_555
Fe3 O2 2.034952 1_445
Fe3 O11 2.063328 1_545
Fe3 O9 2.063328 1_455
Fe4 O14 2.034952 1_544
Fe4 O18 2.034952 1_455
Fe4 O12 2.063328 1_555
Fe4 O5 2.063328 1_444
Fe5 O24 2.086466 1_555
Fe5 O23 2.086466 1_455
Fe5 O14 2.151563 1_555
Fe5 O2 2.151563 1_455
Fe6 O20 2.034952 1_554
Fe6 O19 2.034952 1_555
Fe6 O16 2.063328 1_554
Fe6 O25 2.063328 1_555
Fe7 O1 2.034952 1_555
Fe7 O4 2.034952 1_555
Fe7 O10 2.063328 1_555
Fe7 O22 2.063328 1_555
O0 P1 1.596974 1_545
O1 P7 1.596974 1_555
O2 P3 1.596974 1_565
O3 P2 1.618755 1_555
O4 P4 1.596974 1_555
O5 P3 1.633067 1_565
O6 P5 1.692139 1_555
O6 P4 1.692139 1_455
O7 P7 1.692139 1_555
O7 P0 1.692139 1_455
O8 P3 1.618755 1_555
O9 P6 1.633067 1_545
O10 P0 1.633067 1_555
O11 P2 1.633067 1_565
O12 P1 1.633067 1_545
O13 P0 1.618755 1_555
O14 P2 1.596974 1_565
O15 P1 1.618755 1_555
O16 P4 1.633067 1_555
O17 P6 1.618755 1_555
O18 P6 1.596974 1_545
O19 P0 1.596974 1_555
O20 P5 1.596974 1_555
O21 P3 1.692139 1_565
O21 P2 1.692139 1_565
O22 P5 1.633067 1_555
O23 P4 1.618755 1_555
O24 P5 1.618755 1_555
O25 P7 1.633067 1_555
O26 P7 1.618755 1_555
O27 P6 1.692139 1_545
O27 P1 1.692139 1_545
F0 P7 1.826608 1_555
F0 K0 2.496438 1_555
F0 K4 2.983172 1_554
F1 P4 1.826608 1_555
F1 K5 2.496438 1_555
F1 K2 2.983172 1_556
F2 P2 1.826608 1_555
F2 K1 2.496438 1_455
F2 K7 2.983172 1_555
F3 P5 1.826608 1_555
F3 K3 2.496438 1_555
F3 K6 2.983172 1_555
F4 P6 1.826608 1_555
F4 K6 2.496438 1_655
F4 K3 2.983172 1_555
F5 P1 1.826608 1_555
F5 K2 2.496438 1_455
F5 K5 2.983172 1_554
F6 P0 1.826608 1_555
F6 K7 2.496438 1_555
F6 K1 2.983172 1_555
F7 P3 1.826608 1_555
F7 K4 2.496438 1_655
F7 K0 2.983172 1_556
