# generated using pymatgen
data_Er2Fe17C
_symmetry_space_group_name_H-M   'P 1'
_cell_length_a   6.43668752
_cell_length_b   6.43668752
_cell_length_c   6.39556117
_cell_angle_alpha   83.16880185
_cell_angle_beta   83.16880185
_cell_angle_gamma   83.52545893
_symmetry_Int_Tables_number   1
_chemical_formula_structural   Er2Fe17C
_chemical_formula_sum   'Er2 Fe17 C1'
_cell_volume   259.91517067
_cell_formula_units_Z   1
loop_
 _symmetry_equiv_pos_site_id
 _symmetry_equiv_pos_as_xyz
  1  'x, y, z'
loop_
 _atom_site_type_symbol
 _atom_site_label
 _atom_site_symmetry_multiplicity
 _atom_site_fract_x
 _atom_site_fract_y
 _atom_site_fract_z
 _atom_site_occupancy
  Er  Er0  1  0.66015400  0.66015400  0.65080700  1
  Er  Er1  1  0.33984600  0.33984600  0.34919300  1
  Fe  Fe0  1  0.90339000  0.90339000  0.90328700  1
  Fe  Fe1  1  0.09661000  0.09661000  0.09671300  1
  Fe  Fe2  1  0.34342700  0.34342700  0.84769300  1
  Fe  Fe3  1  0.34291200  0.84990700  0.34451500  1
  Fe  Fe4  1  0.84990700  0.34291200  0.34451500  1
  Fe  Fe5  1  0.65657300  0.65657300  0.15230700  1
  Fe  Fe6  1  0.65708800  0.15009300  0.65548500  1
  Fe  Fe7  1  0.15009300  0.65708800  0.65548500  1
  Fe  Fe8  1  0.28538300  0.71461700  0.00000000  1
  Fe  Fe9  1  0.70862000  0.00046800  0.29210600  1
  Fe  Fe10  1  0.99953200  0.29138000  0.70789400  1
  Fe  Fe11  1  0.29138000  0.99953200  0.70789400  1
  Fe  Fe12  1  0.00046800  0.70862000  0.29210600  1
  Fe  Fe13  1  0.71461700  0.28538300  0.00000000  1
  Fe  Fe14  1  0.00000000  0.00000000  0.50000000  1
  Fe  Fe15  1  0.00000000  0.50000000  0.00000000  1
  Fe  Fe16  1  0.50000000  0.00000000  0.00000000  1
  C  C0  1  0.50000000  0.50000000  0.00000000  1
loop_
_geom_bond_atom_site_label_1
_geom_bond_atom_site_label_2
_geom_bond_distance
_geom_bond_site_symmetry_2
Er0 Fe9 2.991133 1_565
Er0 Fe12 2.991133 1_655
Er0 Fe0 3.043923 1_555
Er0 Fe3 3.052663 1_555
Er0 Fe4 3.052663 1_555
Er0 Fe10 3.058391 1_555
Er0 Fe11 3.058391 1_555
Er0 Fe6 3.155099 1_565
Er0 Fe7 3.155099 1_655
Er0 Fe14 3.252038 1_665
Er0 Fe7 3.281944 1_555
Er0 Fe6 3.281944 1_555
Er0 Fe15 3.307756 1_656
Er0 Fe16 3.307756 1_566
Er1 Fe10 2.991133 1_455
Er1 Fe11 2.991133 1_545
Er1 Fe1 3.043923 1_555
Er1 Fe6 3.052663 1_555
Er1 Fe7 3.052663 1_555
Er1 Fe12 3.058391 1_555
Er1 Fe9 3.058391 1_555
Er1 Fe3 3.155099 1_545
Er1 Fe4 3.155099 1_455
Er1 Fe14 3.252038 1_555
Er1 Fe4 3.281944 1_555
Er1 Fe3 3.281944 1_555
Er1 Fe16 3.307756 1_555
Er1 Fe15 3.307756 1_555
Fe0 Fe1 2.388459 1_666
Fe0 Fe14 2.598078 1_665
Fe0 Fe16 2.618468 1_566
Fe0 Fe15 2.618468 1_656
Fe0 Fe5 2.636225 1_556
Fe0 Fe7 2.641581 1_655
Fe0 Fe6 2.641581 1_565
Fe0 Fe8 2.722823 1_656
Fe0 Fe13 2.722823 1_566
Fe0 Fe12 2.756311 1_656
Fe0 Fe9 2.756311 1_566
Fe0 Fe10 2.757462 1_565
Fe0 Fe11 2.757462 1_655
Fe1 Fe14 2.598078 1_555
Fe1 Fe16 2.618468 1_555
Fe1 Fe15 2.618468 1_555
Fe1 Fe2 2.636225 1_554
Fe1 Fe3 2.641581 1_545
Fe1 Fe4 2.641581 1_455
Fe1 Fe13 2.722823 1_455
Fe1 Fe8 2.722823 1_545
Fe1 Fe11 2.756311 1_544
Fe1 Fe10 2.756311 1_454
Fe1 Fe9 2.757462 1_455
Fe1 Fe12 2.757462 1_545
Fe2 Fe6 2.518480 1_555
Fe2 Fe7 2.518480 1_555
Fe3 Fe7 2.491820 1_555
Fe3 Fe5 2.518480 1_555
Fe3 Fe8 2.544314 1_555
Fe3 Fe9 2.615742 1_565
Fe4 Fe6 2.491820 1_555
Fe4 Fe5 2.518480 1_555
Fe4 Fe9 2.549168 1_555
Fe5 Fe9 2.553570 1_565
Fe6 Fe9 2.591452 1_555
Fe7 Fe8 2.544314 1_556
Fe10 Fe14 2.424133 1_655
Fe10 Fe15 2.427408 1_656
Fe10 Fe13 2.457356 1_556
Fe10 Fe11 2.502386 1_645
Fe10 Fe6 2.549168 1_555
Fe10 Fe2 2.553570 1_655
Fe10 Fe4 2.591452 1_555
Fe10 Fe7 2.615742 1_655
Fe11 Fe14 2.424133 1_565
Fe11 Fe16 2.427408 1_566
Fe11 Fe8 2.457356 1_556
Fe11 Fe7 2.549168 1_555
Fe11 Fe2 2.553570 1_565
Fe11 Fe3 2.591452 1_555
Fe11 Fe6 2.615742 1_565
Fe12 Fe14 2.424133 1_565
Fe12 Fe15 2.427408 1_555
Fe12 Fe8 2.457356 1_555
Fe12 Fe9 2.502386 1_465
Fe12 Fe3 2.549168 1_555
Fe12 Fe5 2.553570 1_455
Fe12 Fe7 2.591452 1_555
Fe12 Fe4 2.615742 1_455
Fe13 Fe15 2.419688 1_655
Fe13 Fe16 2.419688 1_555
Fe13 Fe9 2.457356 1_555
Fe13 Fe6 2.544314 1_554
Fe13 Fe4 2.544314 1_555
Fe14 Fe9 2.424133 1_455
Fe14 Fe3 2.453470 1_545
Fe14 Fe7 2.453470 1_545
Fe14 Fe6 2.453470 1_455
Fe14 Fe4 2.453470 1_455
Fe15 Fe8 2.419688 1_555
Fe15 Fe7 2.448362 1_554
Fe15 Fe4 2.448362 1_455
Fe15 Fe5 2.463709 1_455
Fe15 Fe2 2.463709 1_554
Fe16 Fe8 2.419688 1_545
Fe16 Fe9 2.427408 1_555
Fe16 Fe6 2.448362 1_554
Fe16 Fe3 2.448362 1_545
Fe16 Fe2 2.463709 1_554
Fe16 Fe5 2.463709 1_545
C0 Fe8 1.840186 1_555
C0 Fe13 1.840186 1_555
C0 Fe5 1.917381 1_555
C0 Fe2 1.917381 1_554
C0 Er1 2.501446 1_555
C0 Er0 2.501446 1_554
