# generated using pymatgen
data_CeTmO3
_symmetry_space_group_name_H-M   'P 1'
_cell_length_a   5.80956500
_cell_length_b   6.02656600
_cell_length_c   8.39538900
_cell_angle_alpha   90.00000000
_cell_angle_beta   90.00000000
_cell_angle_gamma   90.00000000
_symmetry_Int_Tables_number   1
_chemical_formula_structural   CeTmO3
_chemical_formula_sum   'Ce4 Tm4 O12'
_cell_volume   293.93706692
_cell_formula_units_Z   4
loop_
 _symmetry_equiv_pos_site_id
 _symmetry_equiv_pos_as_xyz
  1  'x, y, z'
loop_
 _atom_site_type_symbol
 _atom_site_label
 _atom_site_symmetry_multiplicity
 _atom_site_fract_x
 _atom_site_fract_y
 _atom_site_fract_z
 _atom_site_occupancy
  Ce  Ce0  1  0.01387000  0.44525400  0.25000000  1
  Ce  Ce1  1  0.98613000  0.55474600  0.75000000  1
  Ce  Ce2  1  0.51387000  0.05474600  0.75000000  1
  Ce  Ce3  1  0.48613000  0.94525400  0.25000000  1
  Tm  Tm0  1  0.00000000  0.00000000  0.00000000  1
  Tm  Tm1  1  0.50000000  0.50000000  0.00000000  1
  Tm  Tm2  1  0.00000000  0.00000000  0.50000000  1
  Tm  Tm3  1  0.50000000  0.50000000  0.50000000  1
  O  O0  1  0.31483400  0.18787300  0.06714500  1
  O  O1  1  0.68516600  0.81212700  0.93285500  1
  O  O2  1  0.81483400  0.31212700  0.93285500  1
  O  O3  1  0.68516600  0.81212700  0.56714500  1
  O  O4  1  0.18516600  0.68787300  0.06714500  1
  O  O5  1  0.31483400  0.18787300  0.43285500  1
  O  O6  1  0.18516600  0.68787300  0.43285500  1
  O  O7  1  0.81483400  0.31212700  0.56714500  1
  O  O8  1  0.62996100  0.55871200  0.25000000  1
  O  O9  1  0.37003900  0.44128800  0.75000000  1
  O  O10  1  0.12996100  0.94128800  0.75000000  1
  O  O11  1  0.87003900  0.05871200  0.25000000  1
loop_
_geom_bond_atom_site_label_1
_geom_bond_atom_site_label_2
_geom_bond_distance
_geom_bond_site_symmetry_2
Ce0 O8 2.332802 1_455
Ce0 O6 2.341985 1_555
Ce0 O4 2.341985 1_555
Ce0 O11 2.474851 1_455
Ce0 O5 2.796387 1_555
Ce0 O0 2.796387 1_555
Ce0 O2 3.011635 1_454
Ce0 O7 3.011635 1_455
Ce1 O9 2.332802 1_655
Ce1 O7 2.341985 1_555
Ce1 O2 2.341985 1_555
Ce1 O10 2.474851 1_655
Ce1 O3 2.796387 1_555
Ce1 O1 2.796387 1_555
Ce1 O4 3.011635 1_656
Ce1 O6 3.011635 1_655
Ce2 O10 2.332802 1_545
Ce2 O1 2.341985 1_545
Ce2 O3 2.341985 1_545
Ce2 O9 2.474851 1_555
Ce2 O2 2.796387 1_555
Ce2 O7 2.796387 1_555
Ce2 O5 3.011635 1_555
Ce2 O0 3.011635 1_556
Ce3 O11 2.332802 1_565
Ce3 O0 2.341985 1_565
Ce3 O5 2.341985 1_565
Ce3 O8 2.474851 1_555
Ce3 O4 2.796387 1_555
Ce3 O6 2.796387 1_555
Ce3 O1 3.011635 1_554
Ce3 O3 3.011635 1_555
O0 Tm0 2.223764 1_555
O0 Tm1 2.239048 1_555
O1 Tm0 2.223764 1_666
O1 Tm1 2.239048 1_556
O2 Tm1 2.223764 1_556
O2 Tm0 2.239048 1_656
O3 Tm2 2.223764 1_665
O3 Tm3 2.239048 1_555
O4 Tm1 2.223764 1_555
O4 Tm0 2.239048 1_565
O5 Tm2 2.223764 1_555
O5 Tm3 2.239048 1_555
O6 Tm3 2.223764 1_555
O6 Tm2 2.239048 1_565
O7 Tm3 2.223764 1_555
O7 Tm2 2.239048 1_655
O8 Tm1 2.258408 1_555
O8 Tm3 2.258408 1_555
O9 Tm3 2.258408 1_555
O9 Tm1 2.258408 1_556
O10 Tm0 2.258408 1_566
O10 Tm2 2.258408 1_565
O11 Tm2 2.258408 1_655
O11 Tm0 2.258408 1_655
