# generated using pymatgen
data_Zn3(NO5)2
_symmetry_space_group_name_H-M   'P 1'
_cell_length_a   9.58345300
_cell_length_b   7.55526300
_cell_length_c   11.36000580
_cell_angle_alpha   81.09726818
_cell_angle_beta   90.00000000
_cell_angle_gamma   90.00000000
_symmetry_Int_Tables_number   1
_chemical_formula_structural   Zn3(NO5)2
_chemical_formula_sum   'Zn12 N8 O40'
_cell_volume   812.61758595
_cell_formula_units_Z   4
loop_
 _symmetry_equiv_pos_site_id
 _symmetry_equiv_pos_as_xyz
  1  'x, y, z'
loop_
 _atom_site_type_symbol
 _atom_site_label
 _atom_site_symmetry_multiplicity
 _atom_site_fract_x
 _atom_site_fract_y
 _atom_site_fract_z
 _atom_site_occupancy
  Zn  Zn0  1  0.56450200  0.96238600  0.62059600  1
  Zn  Zn1  1  0.06450200  0.03761400  0.87940400  1
  Zn  Zn2  1  0.43549800  0.03761400  0.37940400  1
  Zn  Zn3  1  0.93549800  0.96238600  0.12059600  1
  Zn  Zn4  1  0.75663700  0.95543300  0.85862300  1
  Zn  Zn5  1  0.25663700  0.04456700  0.64137700  1
  Zn  Zn6  1  0.24336300  0.04456700  0.14137700  1
  Zn  Zn7  1  0.74336300  0.95543300  0.35862300  1
  Zn  Zn8  1  0.90946600  0.99807000  0.61323000  1
  Zn  Zn9  1  0.40946600  0.00193000  0.88677000  1
  Zn  Zn10  1  0.09053400  0.00193000  0.38677000  1
  Zn  Zn11  1  0.59053400  0.99807000  0.11323000  1
  N  N0  1  0.57086300  0.37331900  0.76033600  1
  N  N1  1  0.07086300  0.62668100  0.73966400  1
  N  N2  1  0.42913700  0.62668100  0.23966400  1
  N  N3  1  0.92913700  0.37331900  0.26033600  1
  N  N4  1  0.74336500  0.36561500  0.50115300  1
  N  N5  1  0.24336500  0.63438500  0.99884700  1
  N  N6  1  0.25663500  0.63438500  0.49884700  1
  N  N7  1  0.75663500  0.36561500  0.00115300  1
  O  O0  1  0.57423400  0.19978500  0.77837400  1
  O  O1  1  0.07423400  0.80021500  0.72162600  1
  O  O2  1  0.42576600  0.80021500  0.22162600  1
  O  O3  1  0.92576600  0.19978500  0.27837400  1
  O  O4  1  0.45795700  0.45066300  0.76535300  1
  O  O5  1  0.95795700  0.54933700  0.73464700  1
  O  O6  1  0.54204300  0.54933700  0.23464700  1
  O  O7  1  0.04204300  0.45066300  0.26535300  1
  O  O8  1  0.68293300  0.45559500  0.73865500  1
  O  O9  1  0.18293300  0.54440500  0.76134500  1
  O  O10  1  0.31706700  0.54440500  0.26134500  1
  O  O11  1  0.81706700  0.45559500  0.23865500  1
  O  O12  1  0.74623800  0.19118400  0.51818500  1
  O  O13  1  0.24623800  0.80881600  0.98181500  1
  O  O14  1  0.25376200  0.80881600  0.48181500  1
  O  O15  1  0.75376200  0.19118400  0.01818500  1
  O  O16  1  0.62776700  0.43870600  0.48426900  1
  O  O17  1  0.12776700  0.56129400  0.01573100  1
  O  O18  1  0.37223300  0.56129400  0.51573100  1
  O  O19  1  0.87223300  0.43870600  0.98426900  1
  O  O20  1  0.85406900  0.45030400  0.50174200  1
  O  O21  1  0.35406900  0.54969600  0.99825800  1
  O  O22  1  0.14593100  0.54969600  0.49825800  1
  O  O23  1  0.64593100  0.45030400  0.00174200  1
  O  O24  1  0.91546600  0.88418000  0.96362900  1
  O  O25  1  0.41546600  0.11582000  0.53637100  1
  O  O26  1  0.08453400  0.11582000  0.03637100  1
  O  O27  1  0.58453400  0.88418000  0.46362900  1
  O  O28  1  0.91137200  0.10297000  0.76381600  1
  O  O29  1  0.41137200  0.89703000  0.73618400  1
  O  O30  1  0.08862800  0.89703000  0.23618400  1
  O  O31  1  0.58862800  0.10297000  0.26381600  1
  O  O32  1  0.73588500  0.88864300  0.69988700  1
  O  O33  1  0.23588500  0.11135700  0.80011300  1
  O  O34  1  0.26411500  0.11135700  0.30011300  1
  O  O35  1  0.76411500  0.88864300  0.19988700  1
  O  O36  1  0.59232200  0.90614600  0.95850200  1
  O  O37  1  0.09232200  0.09385400  0.54149800  1
  O  O38  1  0.40767800  0.09385400  0.04149800  1
  O  O39  1  0.90767800  0.90614600  0.45850200  1
loop_
_geom_bond_atom_site_label_1
_geom_bond_atom_site_label_2
_geom_bond_distance
_geom_bond_site_symmetry_2
N0 O4 1.235238 1_555
N0 O8 1.246273 1_555
N0 O0 1.295704 1_555
N1 O5 1.235238 1_455
N1 O9 1.246273 1_555
N1 O1 1.295704 1_555
N2 O6 1.235238 1_555
N2 O10 1.246273 1_555
N2 O2 1.295704 1_555
N3 O7 1.235238 1_655
N3 O11 1.246273 1_555
N3 O3 1.295704 1_555
N4 O16 1.239450 1_555
N4 O20 1.239492 1_555
N4 O12 1.302328 1_555
N5 O17 1.239450 1_556
N5 O21 1.239492 1_555
N5 O13 1.302328 1_555
N6 O18 1.239450 1_555
N6 O22 1.239492 1_555
N6 O14 1.302328 1_555
N7 O19 1.239450 1_554
N7 O23 1.239492 1_555
N7 O15 1.302328 1_555
O0 Zn9 2.382124 1_555
O1 Zn8 2.382124 1_455
O2 Zn11 2.382124 1_555
O3 Zn10 2.382124 1_655
O12 Zn8 2.292149 1_545
O13 Zn9 2.292149 1_565
O14 Zn10 2.292149 1_565
O15 Zn11 2.292149 1_545
O24 Zn4 1.957259 1_555
O24 Zn3 1.972738 1_556
O24 Zn1 1.988961 1_665
O25 Zn5 1.957259 1_555
O25 Zn2 1.972738 1_555
O25 Zn0 1.988961 1_545
O26 Zn6 1.957259 1_555
O26 Zn1 1.972738 1_554
O26 Zn3 1.988961 1_445
O27 Zn7 1.957259 1_555
O27 Zn0 1.972738 1_555
O27 Zn2 1.988961 1_565
O28 Zn1 1.980130 1_655
O28 Zn8 1.993602 1_545
O28 Zn4 2.056662 1_545
O29 Zn0 1.980130 1_555
O29 Zn9 1.993602 1_565
O29 Zn5 2.056662 1_565
O30 Zn3 1.980130 1_455
O30 Zn10 1.993602 1_565
O30 Zn6 2.056662 1_565
O31 Zn2 1.980130 1_555
O31 Zn11 1.993602 1_545
O31 Zn7 2.056662 1_545
O32 Zn0 1.914168 1_555
O32 Zn4 1.956403 1_555
O32 Zn8 2.041556 1_555
O33 Zn1 1.914168 1_555
O33 Zn5 1.956403 1_555
O33 Zn9 2.041556 1_555
O34 Zn2 1.914168 1_555
O34 Zn6 1.956403 1_555
O34 Zn10 2.041556 1_555
O35 Zn3 1.914168 1_555
O35 Zn7 1.956403 1_555
O35 Zn11 2.041556 1_555
O36 Zn4 1.942927 1_555
O36 Zn11 1.987467 1_556
O36 Zn9 2.018931 1_565
O37 Zn5 1.942927 1_555
O37 Zn10 1.987467 1_555
O37 Zn8 2.018931 1_445
O38 Zn6 1.942927 1_555
O38 Zn9 1.987467 1_554
O38 Zn11 2.018931 1_545
O39 Zn7 1.942927 1_555
O39 Zn8 1.987467 1_555
O39 Zn10 2.018931 1_665
