# generated using pymatgen
data_Ni2(CN2)3
_symmetry_space_group_name_H-M   'P 1'
_cell_length_a   9.70202865
_cell_length_b   5.35554268
_cell_length_c   27.58567372
_cell_angle_alpha   89.99998760
_cell_angle_beta   161.41740981
_cell_angle_gamma   73.97833064
_symmetry_Int_Tables_number   1
_chemical_formula_structural   Ni2(CN2)3
_chemical_formula_sum   'Ni4 C6 N12'
_cell_volume   228.32367195
_cell_formula_units_Z   2
loop_
 _symmetry_equiv_pos_site_id
 _symmetry_equiv_pos_as_xyz
  1  'x, y, z'
loop_
 _atom_site_type_symbol
 _atom_site_label
 _atom_site_symmetry_multiplicity
 _atom_site_fract_x
 _atom_site_fract_y
 _atom_site_fract_z
 _atom_site_occupancy
  Ni  Ni0  1  0.00072700  0.99959100  0.16577400  1
  Ni  Ni1  1  0.00072700  0.99968100  0.66577400  1
  Ni  Ni2  1  0.99929700  0.00038900  0.83427300  1
  Ni  Ni3  1  0.99929700  0.00031400  0.33427300  1
  C  C0  1  0.95881400  0.68038500  0.06960200  1
  C  C1  1  0.99964200  0.68058500  0.74989600  1
  C  C2  1  0.04153500  0.63920800  0.43053400  1
  C  C3  1  0.95881400  0.36080100  0.56960200  1
  C  C4  1  0.04153500  0.31925700  0.93053400  1
  C  C5  1  0.99964200  0.31977300  0.24989600  1
  N  N0  1  0.89058900  0.73951300  0.09103000  1
  N  N1  1  0.10854000  0.63068500  0.83036700  1
  N  N2  1  0.00049800  0.63006200  0.46102000  1
  N  N3  1  0.89058900  0.36989800  0.59103000  1
  N  N4  1  0.00049800  0.36944100  0.96102000  1
  N  N5  1  0.10854000  0.26077500  0.33036700  1
  N  N6  1  0.10848200  0.26075100  0.90867000  1
  N  N7  1  0.89130700  0.36972000  0.16958900  1
  N  N8  1  0.00056800  0.36928000  0.53934600  1
  N  N9  1  0.10848200  0.63076500  0.40867000  1
  N  N10  1  0.00056800  0.63015200  0.03934600  1
  N  N11  1  0.89130700  0.73897300  0.66958900  1
loop_
_geom_bond_atom_site_label_1
_geom_bond_atom_site_label_2
_geom_bond_distance
_geom_bond_site_symmetry_2
C0 N0 1.230387 1_555
C0 N10 1.230404 1_655
C1 N1 1.230207 1_655
C1 N11 1.230702 1_555
C2 N2 1.230312 1_555
C2 N9 1.230500 1_555
C3 N3 1.230387 1_555
C3 N8 1.230404 1_655
C4 N4 1.230313 1_555
C4 N6 1.230501 1_555
C5 N5 1.230207 1_655
C5 N7 1.230702 1_555
N0 Ni0 1.994495 1_655
N0 Ni2 2.029029 1_464
N1 Ni0 1.995127 1_646
N1 Ni2 2.028133 1_465
N2 Ni0 1.994081 1_455
N2 Ni2 2.025945 1_555
N3 Ni1 1.994499 1_645
N3 Ni3 2.029030 1_465
N4 Ni1 1.994078 1_455
N4 Ni3 2.025942 1_556
N5 Ni1 1.995124 1_645
N5 Ni3 2.028132 1_455
N6 Ni2 1.993072 1_455
N6 Ni0 2.030089 1_646
N7 Ni2 1.993580 1_464
N7 Ni0 2.029172 1_645
N8 Ni2 1.992641 1_555
N8 Ni0 2.026959 1_455
N9 Ni3 1.993081 1_465
N9 Ni1 2.030087 1_645
N10 Ni3 1.992642 1_555
N10 Ni1 2.026960 1_454
N11 Ni3 1.993580 1_465
N11 Ni1 2.029167 1_655
