# generated using pymatgen
data_KNbW2O9
_symmetry_space_group_name_H-M   'P 1'
_cell_length_a   3.95309400
_cell_length_b   13.03267686
_cell_length_c   13.04844270
_cell_angle_alpha   119.79559849
_cell_angle_beta   90.04609678
_cell_angle_gamma   89.97913508
_symmetry_Int_Tables_number   1
_chemical_formula_structural   KNbW2O9
_chemical_formula_sum   'K3 Nb3 W6 O27'
_cell_volume   583.37897420
_cell_formula_units_Z   3
loop_
 _symmetry_equiv_pos_site_id
 _symmetry_equiv_pos_as_xyz
  1  'x, y, z'
loop_
 _atom_site_type_symbol
 _atom_site_label
 _atom_site_symmetry_multiplicity
 _atom_site_fract_x
 _atom_site_fract_y
 _atom_site_fract_z
 _atom_site_occupancy
  K  K0  1  0.01914300  0.83966500  0.16891500  1
  K  K1  1  0.01828600  0.16568500  0.83377300  1
  K  K2  1  0.13393400  0.49836700  0.49962600  1
  Nb  Nb0  1  0.58910000  0.66530000  0.33222200  1
  Nb  Nb1  1  0.58897600  0.33339200  0.66092000  1
  Nb  Nb2  1  0.59026800  0.16570600  0.33406400  1
  W  W0  1  0.50006600  0.00058200  0.49963200  1
  W  W1  1  0.50076000  0.49906400  0.99813800  1
  W  W2  1  0.49797100  0.00133400  0.99999200  1
  W  W3  1  0.58466900  0.83446500  0.66615600  1
  W  W4  1  0.58396200  0.33250300  0.16484400  1
  W  W5  1  0.58363400  0.66842700  0.83579300  1
  O  O0  1  0.05192800  0.15408600  0.33025200  1
  O  O1  1  0.05090700  0.83753500  0.67113000  1
  O  O2  1  0.04961900  0.32834800  0.15634800  1
  O  O3  1  0.04923600  0.67271800  0.84098800  1
  O  O4  1  0.54150100  0.03383800  0.37487800  1
  O  O5  1  0.54468500  0.95732100  0.62595200  1
  O  O6  1  0.54184600  0.37661200  0.04080500  1
  O  O7  1  0.54272000  0.62669200  0.95953600  1
  O  O8  1  0.03304400  0.99983300  0.99598800  1
  O  O9  1  0.54439900  0.83486600  0.38382600  1
  O  O10  1  0.54491300  0.16363400  0.61983900  1
  O  O11  1  0.54325500  0.38306900  0.83775300  1
  O  O12  1  0.54704000  0.62064800  0.16432900  1
  O  O13  1  0.54601200  0.71000100  0.50941700  1
  O  O14  1  0.54409600  0.29804200  0.49652000  1
  O  O15  1  0.54359100  0.51043100  0.71416800  1
  O  O16  1  0.54386000  0.49045000  0.28705700  1
  O  O17  1  0.54628500  0.28300300  0.27825200  1
  O  O18  1  0.54550100  0.71734800  0.71855000  1
  O  O19  1  0.05162400  0.65983400  0.33909900  1
  O  O20  1  0.05152100  0.33875200  0.66801200  1
  O  O21  1  0.54171800  0.03922800  0.15887200  1
  O  O22  1  0.54341300  0.95726800  0.83353000  1
  O  O23  1  0.54076100  0.16459300  0.03763700  1
  O  O24  1  0.54042600  0.83557100  0.95787400  1
  O  O25  1  0.03544400  0.99916500  0.50396700  1
  O  O26  1  0.03588400  0.50262400  0.00134600  1
loop_
_geom_bond_atom_site_label_1
_geom_bond_atom_site_label_2
_geom_bond_distance
_geom_bond_site_symmetry_2
K0 O4 3.230711 1_465
K0 O21 3.267754 1_465
K0 O24 3.318572 1_454
K0 O4 3.335635 1_565
K0 O7 3.342824 1_454
K0 O21 3.375217 1_565
K0 O12 3.386437 1_455
K0 O9 3.401858 1_455
K0 O24 3.419862 1_554
K0 O7 3.452641 1_554
K1 O23 3.268871 1_456
K1 O22 3.301063 1_445
K1 O5 3.303034 1_445
K1 O6 3.320537 1_456
K1 O10 3.348494 1_455
K1 O23 3.372089 1_556
K1 O11 3.377200 1_455
K1 O22 3.416801 1_545
K1 O5 3.427030 1_545
K1 O6 3.428271 1_556
K1 O10 3.473081 1_555
K1 O11 3.491946 1_555
K2 O14 3.055913 1_555
K2 O13 3.151203 1_555
K2 O15 3.168524 1_555
K2 O16 3.170593 1_555
K2 O17 3.290256 1_555
K2 O18 3.293307 1_555
Nb0 O19 1.833622 1_655
Nb0 O9 1.972144 1_555
Nb0 O12 1.974372 1_555
Nb0 O16 2.058529 1_555
Nb0 O13 2.091940 1_555
Nb0 O19 2.129370 1_555
Nb1 O20 1.830353 1_655
Nb1 O14 1.965382 1_555
Nb1 O10 2.008463 1_555
Nb1 O15 2.060397 1_555
Nb1 O11 2.071681 1_555
Nb1 O20 2.126310 1_555
Nb2 O0 1.829874 1_655
Nb2 O14 1.966832 1_555
Nb2 O17 2.000875 1_555
Nb2 O4 2.045567 1_555
Nb2 O21 2.057751 1_555
Nb2 O0 2.132330 1_555
O1 W3 1.843922 1_455
O1 W3 2.110815 1_555
O2 W4 1.843368 1_455
O2 W4 2.114429 1_555
O3 W5 1.841608 1_455
O3 W5 2.113496 1_555
O4 W0 1.888440 1_555
O5 W3 1.923094 1_555
O5 W0 1.997207 1_565
O6 W1 1.940571 1_554
O6 W4 1.975331 1_555
O7 W5 1.949976 1_555
O7 W1 1.969993 1_555
O8 W2 1.838436 1_565
O8 W2 2.115724 1_465
O9 W0 1.932695 1_565
O10 W0 1.922148 1_555
O11 W1 1.884008 1_555
O12 W1 1.957422 1_554
O13 W3 1.881510 1_555
O15 W5 1.880377 1_555
O16 W4 1.882372 1_555
O17 W4 1.891382 1_555
O18 W5 1.933529 1_555
O18 W3 1.964305 1_555
O21 W2 1.885120 1_554
O22 W2 1.959803 1_565
O22 W3 1.970897 1_555
O23 W2 1.938675 1_554
O23 W4 1.990730 1_555
O24 W2 1.953769 1_565
O24 W5 1.965572 1_555
O25 W0 1.837993 1_565
O25 W0 2.117429 1_465
O26 W1 1.838253 1_554
O26 W1 2.115845 1_454
