# generated using pymatgen
data_NbAlCu
_symmetry_space_group_name_H-M   'P 1'
_cell_length_a   4.97458281
_cell_length_b   5.06642094
_cell_length_c   8.07892889
_cell_angle_alpha   89.99961224
_cell_angle_beta   90.00027595
_cell_angle_gamma   120.60673679
_symmetry_Int_Tables_number   1
_chemical_formula_structural   NbAlCu
_chemical_formula_sum   'Nb4 Al4 Cu4'
_cell_volume   175.24858723
_cell_formula_units_Z   4
loop_
 _symmetry_equiv_pos_site_id
 _symmetry_equiv_pos_as_xyz
  1  'x, y, z'
loop_
 _atom_site_type_symbol
 _atom_site_label
 _atom_site_symmetry_multiplicity
 _atom_site_fract_x
 _atom_site_fract_y
 _atom_site_fract_z
 _atom_site_occupancy
  Nb  Nb0  1  0.67202009  0.33599076  0.56211163  1
  Nb  Nb1  1  0.32429905  0.66216045  0.43272122  1
  Nb  Nb2  1  0.32428687  0.66214935  0.06727460  1
  Nb  Nb3  1  0.67201686  0.33598375  0.93789625  1
  Al  Al0  1  0.98821710  0.99394911  0.48690742  1
  Al  Al1  1  0.98819139  0.99393562  0.01310493  1
  Al  Al2  1  0.18742113  0.35163976  0.75000170  1
  Al  Al3  1  0.18728484  0.83580008  0.75000536  1
  Cu  Cu0  1  0.67699504  0.83902151  0.74999281  1
  Cu  Cu1  1  0.82018609  0.64988405  0.25000077  1
  Cu  Cu2  1  0.82001865  0.16971645  0.24999958  1
  Cu  Cu3  1  0.33906288  0.16976712  0.24998373  1
loop_
_geom_bond_atom_site_label_1
_geom_bond_atom_site_label_2
_geom_bond_distance
_geom_bond_site_symmetry_2
Nb0 Nb1 2.981982 1_655
Nb0 Nb3 3.035937 1_555
Nb0 Nb1 3.118703 1_555
Nb0 Nb1 3.118714 1_545
Nb1 Nb2 2.952417 1_555
Nb2 Nb3 2.981909 1_454
Nb2 Nb3 3.118688 1_564
Nb2 Nb3 3.118704 1_554
Al0 Cu2 2.432087 1_565
Al0 Cu1 2.432463 1_555
Al0 Cu3 2.433153 1_665
Al0 Cu0 2.508611 1_555
Al0 Al3 2.636008 1_655
Al0 Al2 2.637293 1_665
Al0 Nb1 2.876099 1_555
Al0 Nb0 2.935333 1_555
Al0 Nb0 2.936326 1_565
Al0 Nb1 2.945210 1_655
Al0 Nb1 2.946942 1_665
Al0 Nb0 2.990103 1_665
Al1 Cu2 2.431988 1_565
Al1 Cu1 2.432348 1_555
Al1 Cu3 2.432932 1_665
Al1 Cu0 2.508732 1_554
Al1 Al3 2.636069 1_654
Al1 Al2 2.637376 1_664
Al1 Nb2 2.876022 1_555
Al1 Nb3 2.935323 1_554
Al1 Nb3 2.936261 1_564
Al1 Nb2 2.945231 1_655
Al1 Nb2 2.946936 1_665
Al1 Nb3 2.990207 1_664
Al2 Cu0 2.430007 1_555
Al2 Al3 2.453305 1_555
Al2 Cu0 2.545059 1_445
Al2 Al3 2.613116 1_545
Al2 Nb0 2.883832 1_555
Al2 Nb3 2.883841 1_555
Al2 Nb2 2.901363 1_556
Al2 Nb1 2.901426 1_555
Al2 Nb0 2.945681 1_455
Al2 Nb3 2.945711 1_455
Al3 Cu0 2.427835 1_555
Al3 Cu0 2.546827 1_455
Al3 Nb3 2.884134 1_565
Al3 Nb0 2.884163 1_565
Al3 Nb2 2.901550 1_556
Al3 Nb1 2.901673 1_555
Al3 Nb0 2.945721 1_455
Al3 Nb3 2.945726 1_455
Cu0 Nb0 2.950858 1_565
Cu0 Nb3 2.950945 1_565
Cu0 Nb0 2.955602 1_555
Cu0 Nb3 2.955700 1_555
Cu0 Nb1 2.974963 1_555
Cu0 Nb2 2.975065 1_556
Cu1 Cu3 2.391010 1_555
Cu1 Cu2 2.432307 1_555
Cu1 Cu3 2.584027 1_665
Cu1 Cu2 2.634114 1_565
Cu1 Nb3 2.869965 1_554
Cu1 Nb0 2.869983 1_555
Cu1 Nb1 2.883218 1_655
Cu1 Nb2 2.883226 1_655
Cu1 Nb1 2.902502 1_555
Cu1 Nb2 2.902540 1_555
Cu2 Cu3 2.392685 1_555
Cu2 Cu3 2.581898 1_655
Cu2 Nb3 2.870701 1_554
Cu2 Nb0 2.870787 1_555
Cu2 Nb2 2.885033 1_655
Cu2 Nb1 2.885074 1_655
Cu2 Nb1 2.900967 1_545
Cu2 Nb2 2.901036 1_545
Cu3 Nb3 2.896435 1_554
Cu3 Nb0 2.896722 1_555
Cu3 Nb2 2.931558 1_555
Cu3 Nb1 2.931711 1_555
Cu3 Nb2 2.933597 1_545
Cu3 Nb1 2.933672 1_545
