# generated using pymatgen
data_Li9Mn2Co5O16
_symmetry_space_group_name_H-M   'P 1'
_cell_length_a   5.91326124
_cell_length_b   10.17394198
_cell_length_c   5.93526576
_cell_angle_alpha   88.98563126
_cell_angle_beta   120.16363592
_cell_angle_gamma   107.63320216
_symmetry_Int_Tables_number   1
_chemical_formula_structural   Li9Mn2Co5O16
_chemical_formula_sum   'Li9 Mn2 Co5 O16'
_cell_volume   290.27090282
_cell_formula_units_Z   1
loop_
 _symmetry_equiv_pos_site_id
 _symmetry_equiv_pos_as_xyz
  1  'x, y, z'
loop_
 _atom_site_type_symbol
 _atom_site_label
 _atom_site_symmetry_multiplicity
 _atom_site_fract_x
 _atom_site_fract_y
 _atom_site_fract_z
 _atom_site_occupancy
  Li  Li0  1  0.00000000  0.00000000  0.50000000  1
  Li  Li1  1  0.00199100  0.25636100  0.25556300  1
  Li  Li2  1  0.00000000  0.50000000  0.00000000  1
  Li  Li3  1  0.50000000  0.00000000  0.00000000  1
  Li  Li4  1  0.50587900  0.25488100  0.76188500  1
  Li  Li5  1  0.50000000  0.50000000  0.50000000  1
  Li  Li6  1  0.49412100  0.74511900  0.23811500  1
  Li  Li7  1  0.99800900  0.74363900  0.74443700  1
  Li  Li8  1  0.00000000  0.50000000  0.50000000  1
  Mn  Mn0  1  0.00000000  0.00000000  0.00000000  1
  Mn  Mn1  1  0.50000000  0.50000000  0.00000000  1
  Co  Co0  1  0.99914200  0.25682900  0.75014800  1
  Co  Co1  1  0.00085800  0.74317100  0.24985200  1
  Co  Co2  1  0.50000000  0.00000000  0.50000000  1
  Co  Co3  1  0.51311100  0.25495300  0.25713800  1
  Co  Co4  1  0.48688900  0.74504700  0.74286200  1
  O  O0  1  0.77437400  0.87566700  0.11655300  1
  O  O1  1  0.76438900  0.11471400  0.87719600  1
  O  O2  1  0.75300100  0.35960800  0.62702600  1
  O  O3  1  0.26053800  0.87706400  0.61148900  1
  O  O4  1  0.24375700  0.12076200  0.34397700  1
  O  O5  1  0.26646600  0.38179300  0.11833400  1
  O  O6  1  0.28028600  0.62505800  0.87425100  1
  O  O7  1  0.73578900  0.61969900  0.34047000  1
  O  O8  1  0.22562600  0.12433300  0.88344700  1
  O  O9  1  0.26421100  0.38030100  0.65953000  1
  O  O10  1  0.24699900  0.64039200  0.37297400  1
  O  O11  1  0.73946200  0.12293600  0.38851100  1
  O  O12  1  0.71971400  0.37494200  0.12574900  1
  O  O13  1  0.73353400  0.61820700  0.88166600  1
  O  O14  1  0.75624300  0.87923800  0.65602300  1
  O  O15  1  0.23561100  0.88528600  0.12280400  1
loop_
_geom_bond_atom_site_label_1
_geom_bond_atom_site_label_2
_geom_bond_distance
_geom_bond_site_symmetry_2
Li0 O11 2.118817 1_455
Li0 O3 2.118817 1_545
Li0 O8 2.141899 1_555
Li0 O0 2.141899 1_445
Li0 O4 2.161686 1_555
Li0 O14 2.161686 1_445
Li1 O4 2.153550 1_555
Li1 O12 2.174849 1_455
Li1 O5 2.184467 1_555
Li1 O11 2.188993 1_455
Li1 O1 2.193424 1_454
Li1 O9 2.220227 1_555
Li2 O13 2.104375 1_454
Li2 O5 2.104375 1_555
Li2 O10 2.161640 1_555
Li2 O2 2.161640 1_454
Li2 O6 2.203356 1_554
Li2 O12 2.203356 1_455
Li3 O1 2.084989 1_554
Li3 O15 2.084989 1_545
Li3 O11 2.152785 1_555
Li3 O3 2.152785 1_544
Li3 O8 2.189860 1_554
Li3 O0 2.189860 1_545
Li4 O2 2.028121 1_555
Li4 O12 2.041641 1_556
Li4 O9 2.060172 1_555
Li4 O8 2.205706 1_555
Li4 O1 2.252447 1_555
Li4 O4 2.321988 1_555
Li5 O13 2.105102 1_555
Li5 O5 2.105102 1_555
Li5 O7 2.140277 1_555
Li5 O9 2.140277 1_555
Li5 O2 2.229295 1_555
Li5 O10 2.229295 1_555
Li6 O10 2.028121 1_555
Li6 O6 2.041641 1_554
Li6 O7 2.060172 1_555
Li6 O0 2.205706 1_555
Li6 O15 2.252447 1_555
Li6 O14 2.321988 1_555
Li7 O14 2.153550 1_555
Li7 O6 2.174849 1_655
Li7 O13 2.184467 1_555
Li7 O3 2.188993 1_655
Li7 O15 2.193424 1_656
Li7 O7 2.220227 1_555
Li8 O12 2.103004 1_455
Li8 O6 2.103004 1_555
Li8 O9 2.108502 1_555
Li8 O7 2.108502 1_455
Li8 O2 2.132232 1_455
Li8 O10 2.132232 1_555
Mn0 O0 1.932039 1_445
Mn0 O8 1.932039 1_554
Mn0 O1 1.941378 1_454
Mn0 O15 1.941378 1_545
Mn0 O4 1.952911 1_555
Mn0 O14 1.952911 1_444
Mn1 O9 1.933287 1_554
Mn1 O7 1.933287 1_555
Mn1 O5 1.945570 1_555
Mn1 O13 1.945570 1_554
Mn1 O12 1.963990 1_555
Mn1 O6 1.963990 1_554
Co0 O2 1.889985 1_555
Co0 O9 1.988589 1_655
Co0 O8 2.056175 1_655
Co0 O5 2.073633 1_656
Co0 O11 2.084388 1_555
Co0 O1 2.093674 1_555
Co1 O10 1.889985 1_555
Co1 O7 1.988589 1_455
Co1 O0 2.056175 1_455
Co1 O13 2.073633 1_454
Co1 O3 2.084388 1_555
Co1 O15 2.093674 1_555
Co2 O11 1.961281 1_555
Co2 O3 1.961281 1_545
Co2 O1 2.070763 1_555
Co2 O15 2.070763 1_545
Co2 O4 2.083383 1_555
Co2 O14 2.083383 1_545
Co3 O12 1.900288 1_555
Co3 O2 2.000933 1_555
Co3 O4 2.036934 1_555
Co3 O11 2.051040 1_555
Co3 O5 2.089568 1_555
Co3 O8 2.126462 1_554
Co4 O6 1.900288 1_555
Co4 O10 2.000933 1_555
Co4 O14 2.036934 1_555
Co4 O3 2.051040 1_555
Co4 O13 2.089568 1_555
Co4 O0 2.126462 1_556
