# generated using pymatgen
data_PrMgV2O6
_symmetry_space_group_name_H-M   'P 1'
_cell_length_a   5.49287600
_cell_length_b   5.34546700
_cell_length_c   9.36336413
_cell_angle_alpha   55.42710532
_cell_angle_beta   90.00000000
_cell_angle_gamma   90.00000000
_symmetry_Int_Tables_number   1
_chemical_formula_structural   PrMgV2O6
_chemical_formula_sum   'Pr2 Mg2 V4 O12'
_cell_volume   226.37622488
_cell_formula_units_Z   2
loop_
 _symmetry_equiv_pos_site_id
 _symmetry_equiv_pos_as_xyz
  1  'x, y, z'
loop_
 _atom_site_type_symbol
 _atom_site_label
 _atom_site_symmetry_multiplicity
 _atom_site_fract_x
 _atom_site_fract_y
 _atom_site_fract_z
 _atom_site_occupancy
  Pr  Pr0  1  0.29833900  0.75914300  0.24982900  1
  Pr  Pr1  1  0.70166100  0.75914300  0.74982900  1
  Mg  Mg0  1  0.80135200  0.23163300  0.24800400  1
  Mg  Mg1  1  0.19864800  0.23163300  0.74800400  1
  V  V0  1  0.75847600  0.99547000  0.00121300  1
  V  V1  1  0.75266400  0.49840100  0.49981400  1
  V  V2  1  0.24152400  0.99547000  0.50121300  1
  V  V3  1  0.24733600  0.49840100  0.99981400  1
  O  O0  1  0.80369400  0.33436300  0.75049300  1
  O  O1  1  0.01860600  0.15051600  0.05525800  1
  O  O2  1  0.02912900  0.77534800  0.44303000  1
  O  O3  1  0.54243800  0.88381600  0.44268600  1
  O  O4  1  0.55544800  0.25128800  0.06102900  1
  O  O5  1  0.27546200  0.62007300  0.74865300  1
  O  O6  1  0.19630600  0.33436300  0.25049300  1
  O  O7  1  0.97087100  0.77534800  0.94303000  1
  O  O8  1  0.98139400  0.15051600  0.55525800  1
  O  O9  1  0.45756200  0.88381600  0.94268600  1
  O  O10  1  0.44455200  0.25128800  0.56102900  1
  O  O11  1  0.72453800  0.62007300  0.24865300  1
loop_
_geom_bond_atom_site_label_1
_geom_bond_atom_site_label_2
_geom_bond_distance
_geom_bond_site_symmetry_2
Mg0 O11 2.122214 1_555
Mg0 O4 2.166041 1_555
Mg0 O3 2.226179 1_545
Mg0 O6 2.241219 1_655
Mg0 O1 2.399448 1_655
Mg0 O2 2.407110 1_645
Mg1 O5 2.122214 1_555
Mg1 O10 2.166041 1_555
Mg1 O9 2.226179 1_545
Mg1 O0 2.241219 1_455
Mg1 O8 2.399448 1_455
Mg1 O7 2.407110 1_445
O0 V1 2.005235 1_555
O0 V0 2.006999 1_546
O0 Pr1 2.335373 1_555
O1 V0 1.860272 1_445
O1 V3 2.051953 1_554
O1 Pr0 2.393993 1_545
O2 V2 1.941627 1_555
O2 V1 1.971576 1_455
O2 Pr0 2.375822 1_555
O3 V2 1.939010 1_555
O3 V1 2.147877 1_555
O3 Pr0 2.620796 1_555
O3 Pr1 2.702710 1_555
O4 V3 2.019509 1_554
O4 V0 2.072814 1_545
O4 Pr0 2.600461 1_545
O4 Pr1 2.743697 1_554
O5 V2 2.037881 1_555
O5 V3 2.059501 1_555
O5 Pr1 2.458170 1_555
O6 V3 2.005235 1_554
O6 V2 2.006999 1_545
O6 Pr0 2.335373 1_555
O7 V0 1.941627 1_556
O7 V3 1.971576 1_655
O7 Pr1 2.375822 1_555
O8 V2 1.860272 1_645
O8 V1 2.051953 1_555
O8 Pr1 2.393993 1_545
O9 V0 1.939010 1_556
O9 V3 2.147877 1_555
O9 Pr1 2.620796 1_555
O9 Pr0 2.702710 1_556
O10 V1 2.019509 1_555
O10 V2 2.072814 1_545
O10 Pr1 2.600461 1_545
O10 Pr0 2.743697 1_555
O11 V0 2.037881 1_555
O11 V1 2.059501 1_555
O11 Pr0 2.458170 1_555
