# generated using pymatgen
data_KSmEuSbO6
_symmetry_space_group_name_H-M   'P 1'
_cell_length_a   6.02535981
_cell_length_b   6.02535981
_cell_length_c   6.02535981
_cell_angle_alpha   60.00000000
_cell_angle_beta   60.00000000
_cell_angle_gamma   60.00000000
_symmetry_Int_Tables_number   1
_chemical_formula_structural   KSmEuSbO6
_chemical_formula_sum   'K1 Sm1 Eu1 Sb1 O6'
_cell_volume   154.67992788
_cell_formula_units_Z   1
loop_
 _symmetry_equiv_pos_site_id
 _symmetry_equiv_pos_as_xyz
  1  'x, y, z'
loop_
 _atom_site_type_symbol
 _atom_site_label
 _atom_site_symmetry_multiplicity
 _atom_site_fract_x
 _atom_site_fract_y
 _atom_site_fract_z
 _atom_site_occupancy
  K  K0  1  0.75000000  0.75000000  0.75000000  1
  Sm  Sm0  1  0.50000000  0.50000000  0.50000000  1
  Eu  Eu0  1  0.25000000  0.25000000  0.25000000  1
  Sb  Sb0  1  0.00000000  0.00000000  -0.00000000  1
  O  O0  1  0.76598312  0.23401688  0.23401688  1
  O  O1  1  0.23401688  0.76598312  0.76598312  1
  O  O2  1  0.76598312  0.23401688  0.76598312  1
  O  O3  1  0.23401688  0.76598312  0.23401688  1
  O  O4  1  0.76598312  0.76598312  0.23401688  1
  O  O5  1  0.23401688  0.23401688  0.76598312  1
loop_
_geom_bond_atom_site_label_1
_geom_bond_atom_site_label_2
_geom_bond_distance
_geom_bond_site_symmetry_2
K0 O1 3.015757 1_655
K0 O3 3.015757 1_556
K0 O0 3.015757 1_556
K0 O2 3.015757 1_555
K0 O2 3.015757 1_565
K0 O1 3.015757 1_555
K0 O3 3.015757 1_655
K0 O0 3.015757 1_565
K0 O5 3.015757 1_655
K0 O5 3.015757 1_565
K0 O4 3.015757 1_555
K0 O4 3.015757 1_556
Eu0 O3 3.015757 1_555
Eu0 O1 3.015757 1_545
Eu0 O0 3.015757 1_555
Eu0 O0 3.015757 1_455
Eu0 O1 3.015757 1_554
Eu0 O3 3.015757 1_545
Eu0 O2 3.015757 1_455
Eu0 O2 3.015757 1_554
Eu0 O4 3.015757 1_545
Eu0 O5 3.015757 1_554
Eu0 O5 3.015757 1_555
Eu0 O4 3.015757 1_455
O0 Sb0 1.994092 1_655
O0 Sm0 2.266481 1_555
O1 Sb0 1.994092 1_566
O1 Sm0 2.266481 1_555
O2 Sb0 1.994092 1_656
O2 Sm0 2.266481 1_555
O3 Sb0 1.994092 1_565
O3 Sm0 2.266481 1_555
O4 Sb0 1.994092 1_665
O4 Sm0 2.266481 1_555
O5 Sb0 1.994092 1_556
O5 Sm0 2.266481 1_555
