# generated using pymatgen
data_Er(Fe5Si)2
_symmetry_space_group_name_H-M   'P 1'
_cell_length_a   4.74766200
_cell_length_b   6.33370632
_cell_length_c   6.33370632
_cell_angle_alpha   98.38614216
_cell_angle_beta   112.01154109
_cell_angle_gamma   67.98845891
_symmetry_Int_Tables_number   1
_chemical_formula_structural   Er(Fe5Si)2
_chemical_formula_sum   'Er1 Fe10 Si2'
_cell_volume   163.69980483
_cell_formula_units_Z   1
loop_
 _symmetry_equiv_pos_site_id
 _symmetry_equiv_pos_as_xyz
  1  'x, y, z'
loop_
 _atom_site_type_symbol
 _atom_site_label
 _atom_site_symmetry_multiplicity
 _atom_site_fract_x
 _atom_site_fract_y
 _atom_site_fract_z
 _atom_site_occupancy
  Er  Er0  1  0.00000000  0.00000000  0.00000000  1
  Fe  Fe0  1  0.63898200  0.36101800  0.63898200  1
  Fe  Fe1  1  0.36101800  0.63898200  0.36101800  1
  Fe  Fe2  1  0.00000000  0.35447400  0.35447400  1
  Fe  Fe3  1  0.00000000  0.64552600  0.64552600  1
  Fe  Fe4  1  0.50000000  0.79110600  0.79110600  1
  Fe  Fe5  1  0.50000000  0.20889400  0.20889400  1
  Fe  Fe6  1  0.50000000  0.00000000  0.50000000  1
  Fe  Fe7  1  0.00000000  0.00000000  0.50000000  1
  Fe  Fe8  1  0.50000000  0.50000000  0.00000000  1
  Fe  Fe9  1  0.00000000  0.50000000  0.00000000  1
  Si  Si0  1  0.73344100  0.76655900  0.23344100  1
  Si  Si1  1  0.26655900  0.23344100  0.76655900  1
loop_
_geom_bond_atom_site_label_1
_geom_bond_atom_site_label_2
_geom_bond_distance
_geom_bond_site_symmetry_2
Er0 Fe2 2.934445 1_555
Er0 Fe3 2.934445 1_544
Er0 Fe5 2.936922 1_555
Er0 Fe5 2.936922 1_455
Er0 Fe4 2.936922 1_444
Er0 Fe4 2.936922 1_544
Er0 Fe1 3.007362 1_545
Er0 Fe0 3.007362 1_454
Er0 Si1 3.068649 1_554
Er0 Si0 3.068649 1_445
Er0 Si0 3.068649 1_545
Er0 Si1 3.068649 1_454
Er0 Fe7 3.166853 1_555
Er0 Fe9 3.166853 1_545
Er0 Fe9 3.166853 1_555
Er0 Fe8 3.166853 1_545
Er0 Fe6 3.166853 1_555
Er0 Fe6 3.166853 1_454
Er0 Fe8 3.166853 1_455
Er0 Fe7 3.166853 1_554
Fe0 Fe1 2.315503 1_555
Fe0 Fe6 2.558746 1_555
Fe0 Fe7 2.558746 1_655
Fe0 Fe8 2.558746 1_556
Fe0 Fe9 2.558746 1_656
Fe0 Si1 2.600865 1_655
Fe0 Si1 2.600865 1_555
Fe0 Fe5 2.673544 1_555
Fe0 Fe4 2.673544 1_555
Fe0 Fe2 2.902893 1_555
Fe0 Fe3 2.902893 1_555
Fe0 Fe2 2.902893 1_655
Fe0 Fe3 2.902893 1_655
Fe1 Fe9 2.558746 1_555
Fe1 Fe8 2.558746 1_555
Fe1 Fe7 2.558746 1_565
Fe1 Fe6 2.558746 1_565
Fe1 Si0 2.600865 1_455
Fe1 Si0 2.600865 1_555
Fe1 Fe5 2.673544 1_555
Fe1 Fe4 2.673544 1_555
Fe1 Fe2 2.902893 1_555
Fe1 Fe3 2.902893 1_555
Fe1 Fe2 2.902893 1_655
Fe1 Fe3 2.902893 1_655
Fe2 Fe3 2.409418 1_555
Fe2 Si1 2.526248 1_555
Fe2 Si0 2.526248 1_455
Fe2 Fe8 2.548295 1_455
Fe2 Fe9 2.548295 1_555
Fe2 Fe7 2.548295 1_555
Fe2 Fe6 2.548295 1_555
Fe2 Fe5 2.662231 1_455
Fe2 Fe5 2.662231 1_555
Fe3 Si1 2.526248 1_555
Fe3 Si0 2.526248 1_455
Fe3 Fe9 2.548295 1_556
Fe3 Fe6 2.548295 1_465
Fe3 Fe7 2.548295 1_565
Fe3 Fe8 2.548295 1_556
Fe3 Fe4 2.662231 1_455
Fe3 Fe4 2.662231 1_555
Fe4 Fe9 2.421075 1_656
Fe4 Fe6 2.421075 1_565
Fe4 Fe7 2.421075 1_565
Fe4 Fe8 2.421075 1_556
Fe4 Si1 2.602301 1_565
Fe4 Si0 2.602301 1_556
Fe5 Fe7 2.421075 1_655
Fe5 Fe6 2.421075 1_555
Fe5 Fe8 2.421075 1_555
Fe5 Fe9 2.421075 1_555
Fe5 Si0 2.602301 1_545
Fe5 Si1 2.602301 1_554
Fe6 Fe7 2.373831 1_655
Fe6 Fe7 2.373831 1_555
Fe6 Si1 2.389758 1_555
Fe6 Si0 2.389758 1_545
Fe7 Si1 2.389758 1_555
Fe7 Si0 2.389758 1_445
Fe8 Fe9 2.373831 1_555
Fe8 Fe9 2.373831 1_655
Fe8 Si0 2.389758 1_555
Fe8 Si1 2.389758 1_554
Fe9 Si0 2.389758 1_455
Fe9 Si1 2.389758 1_554
