# generated using pymatgen
data_Zn2Ag2(MoO4)3
_symmetry_space_group_name_H-M   'P 1'
_cell_length_a   7.10981100
_cell_length_b   8.88506927
_cell_length_c   10.46521627
_cell_angle_alpha   106.91992412
_cell_angle_beta   105.22539853
_cell_angle_gamma   103.91422462
_symmetry_Int_Tables_number   1
_chemical_formula_structural   Zn2Ag2(MoO4)3
_chemical_formula_sum   'Zn4 Ag4 Mo6 O24'
_cell_volume   573.19580744
_cell_formula_units_Z   2
loop_
 _symmetry_equiv_pos_site_id
 _symmetry_equiv_pos_as_xyz
  1  'x, y, z'
loop_
 _atom_site_type_symbol
 _atom_site_label
 _atom_site_symmetry_multiplicity
 _atom_site_fract_x
 _atom_site_fract_y
 _atom_site_fract_z
 _atom_site_occupancy
  Zn  Zn0  1  0.87251800  0.45925900  0.10418300  1
  Zn  Zn1  1  0.12683000  0.54070200  0.89453900  1
  Zn  Zn2  1  0.46364100  0.29945400  0.48032900  1
  Zn  Zn3  1  0.53717500  0.70159100  0.52124200  1
  Ag  Ag0  1  0.81800400  0.82946600  0.33021200  1
  Ag  Ag1  1  0.18227700  0.16997900  0.67109200  1
  Ag  Ag2  1  0.49720800  0.99993700  0.99885800  1
  Ag  Ag3  1  0.99279700  0.02558600  0.05685400  1
  Mo  Mo0  1  0.28675900  0.83555800  0.23849300  1
  Mo  Mo1  1  0.71338400  0.16400500  0.76155800  1
  Mo  Mo2  1  0.90764300  0.24877000  0.36629100  1
  Mo  Mo3  1  0.09296200  0.75226800  0.63446900  1
  Mo  Mo4  1  0.61972000  0.59219200  0.83415700  1
  Mo  Mo5  1  0.38075600  0.40850300  0.16624500  1
  O  O0  1  0.33378000  0.05368300  0.32328800  1
  O  O1  1  0.66454900  0.94683100  0.67539200  1
  O  O2  1  0.03281100  0.72337700  0.22888000  1
  O  O3  1  0.96654300  0.27640500  0.77053300  1
  O  O4  1  0.17517900  0.47793300  0.08179100  1
  O  O5  1  0.82470400  0.52234400  0.91854900  1
  O  O6  1  0.74973700  0.31149000  0.46427200  1
  O  O7  1  0.24996900  0.68818200  0.53582800  1
  O  O8  1  0.61707300  0.50329100  0.14612300  1
  O  O9  1  0.38340100  0.49625500  0.85369400  1
  O  O10  1  0.28299300  0.79396200  0.05702500  1
  O  O11  1  0.71863200  0.20590500  0.94420100  1
  O  O12  1  0.94088100  0.36406400  0.25455700  1
  O  O13  1  0.05968200  0.63541500  0.74517100  1
  O  O14  1  0.30255300  0.18695700  0.07499700  1
  O  O15  1  0.69455400  0.81245100  0.92728900  1
  O  O16  1  0.84152100  0.73222000  0.51490400  1
  O  O17  1  0.15792400  0.26797400  0.48498200  1
  O  O18  1  0.77327500  0.03304600  0.24460700  1
  O  O19  1  0.22996400  0.96672400  0.75367700  1
  O  O20  1  0.47717900  0.77183500  0.34292800  1
  O  O21  1  0.52320900  0.22804000  0.65680700  1
  O  O22  1  0.42322800  0.44399600  0.35279000  1
  O  O23  1  0.57648700  0.55575200  0.64709300  1
loop_
_geom_bond_atom_site_label_1
_geom_bond_atom_site_label_2
_geom_bond_distance
_geom_bond_site_symmetry_2
Ag0 O18 2.290373 1_565
Ag0 O2 2.303630 1_655
Ag0 O16 2.319961 1_555
Ag0 O20 2.400853 1_555
Ag0 O8 2.732165 1_555
Ag1 O19 2.274288 1_545
Ag1 O3 2.300637 1_455
Ag1 O17 2.337524 1_555
Ag1 O21 2.407881 1_555
Ag1 O9 2.728947 1_555
Ag2 O10 2.415434 1_556
Ag2 O11 2.418941 1_565
Ag2 O14 2.495192 1_566
Ag2 O15 2.500891 1_555
Ag2 O19 2.647625 1_555
Ag2 O18 2.680278 1_566
Ag3 O15 2.232723 1_544
Ag3 O14 2.246162 1_655
Ag3 O18 2.808164 1_555
Mo0 O0 1.785165 1_565
Mo0 O2 1.801176 1_555
Mo0 O20 1.816493 1_555
Mo0 O10 1.817660 1_555
Mo1 O1 1.776965 1_545
Mo1 O3 1.799437 1_555
Mo1 O21 1.818834 1_555
Mo1 O11 1.826226 1_555
Mo2 O6 1.787547 1_555
Mo2 O12 1.788430 1_555
Mo2 O18 1.807701 1_555
Mo2 O17 1.818824 1_655
Mo3 O13 1.789434 1_555
Mo3 O7 1.790189 1_555
Mo3 O19 1.794816 1_555
Mo3 O16 1.826335 1_455
Mo4 O15 1.783130 1_555
Mo4 O9 1.784515 1_555
Mo4 O23 1.816289 1_555
Mo4 O5 1.834977 1_555
Mo5 O8 1.784693 1_555
Mo5 O14 1.787863 1_555
Mo5 O22 1.813303 1_555
Mo5 O4 1.835897 1_555
O0 Zn2 2.113378 1_555
O1 Zn3 2.099543 1_555
O2 Zn0 2.158450 1_455
O3 Zn1 2.158625 1_655
O4 Zn1 2.154970 1_554
O4 Zn0 2.197437 1_455
O5 Zn0 2.140657 1_556
O5 Zn1 2.200622 1_655
O6 Zn2 2.064597 1_555
O7 Zn3 2.065061 1_555
O8 Zn0 2.074757 1_555
O9 Zn1 2.079430 1_555
O10 Zn1 2.183430 1_554
O11 Zn0 2.174193 1_556
O12 Zn0 1.999725 1_555
O13 Zn1 1.986588 1_555
O16 Zn3 2.136201 1_555
O17 Zn2 2.139212 1_555
O20 Zn3 2.107525 1_555
O21 Zn2 2.096062 1_555
O22 Zn2 2.118294 1_555
O22 Zn3 2.238759 1_555
O23 Zn3 2.113302 1_555
O23 Zn2 2.224371 1_555
