# generated using pymatgen
data_Tb(CuS)3
_symmetry_space_group_name_H-M   'P 1'
_cell_length_a   7.43859833
_cell_length_b   7.43859833
_cell_length_c   7.43859735
_cell_angle_alpha   53.17841786
_cell_angle_beta   53.17841787
_cell_angle_gamma   53.17842295
_symmetry_Int_Tables_number   1
_chemical_formula_structural   Tb(CuS)3
_chemical_formula_sum   'Tb2 Cu6 S6'
_cell_volume   244.53635201
_cell_formula_units_Z   2
loop_
 _symmetry_equiv_pos_site_id
 _symmetry_equiv_pos_as_xyz
  1  'x, y, z'
loop_
 _atom_site_type_symbol
 _atom_site_label
 _atom_site_symmetry_multiplicity
 _atom_site_fract_x
 _atom_site_fract_y
 _atom_site_fract_z
 _atom_site_occupancy
  Tb  Tb0  1  0.83345548  0.83345548  0.83345548  1
  Tb  Tb1  1  0.16654452  0.16654452  0.16654452  1
  Cu  Cu0  1  0.62377787  0.28231131  0.96350041  1
  Cu  Cu1  1  0.96350041  0.62377787  0.28231131  1
  Cu  Cu2  1  0.28231131  0.96350041  0.62377787  1
  Cu  Cu3  1  0.71768869  0.03649959  0.37622213  1
  Cu  Cu4  1  0.03649959  0.37622213  0.71768869  1
  Cu  Cu5  1  0.37622213  0.71768869  0.03649959  1
  S  S0  1  0.41643285  0.08323931  0.74652647  1
  S  S1  1  0.08323931  0.74652647  0.41643285  1
  S  S2  1  0.74652647  0.41643285  0.08323931  1
  S  S3  1  0.25347353  0.58356715  0.91676069  1
  S  S4  1  0.91676069  0.25347353  0.58356715  1
  S  S5  1  0.58356715  0.91676069  0.25347353  1
loop_
_geom_bond_atom_site_label_1
_geom_bond_atom_site_label_2
_geom_bond_distance
_geom_bond_site_symmetry_2
Cu0 S5 2.303739 1_546
Cu0 S3 2.354835 1_555
Cu0 S4 2.359325 1_555
Cu0 S2 2.398809 1_556
Cu1 S3 2.303739 1_654
Cu1 S4 2.354834 1_555
Cu1 S5 2.359325 1_555
Cu1 S1 2.398809 1_655
Cu2 S4 2.303739 1_465
Cu2 S5 2.354834 1_555
Cu2 S3 2.359325 1_555
Cu2 S0 2.398809 1_565
Cu3 S1 2.303739 1_645
Cu3 S0 2.354834 1_555
Cu3 S2 2.359325 1_555
Cu3 S5 2.398809 1_545
Cu4 S2 2.303739 1_456
Cu4 S1 2.354834 1_555
Cu4 S0 2.359325 1_555
Cu4 S4 2.398809 1_455
Cu5 S0 2.303739 1_564
Cu5 S2 2.354835 1_555
Cu5 S1 2.359325 1_555
Cu5 S3 2.398809 1_554
S0 Tb0 2.747496 1_545
S0 Tb1 2.753082 1_556
S1 Tb0 2.747495 1_455
S1 Tb1 2.753083 1_565
S2 Tb0 2.747496 1_554
S2 Tb1 2.753083 1_655
S3 Tb1 2.747496 1_556
S3 Tb0 2.753083 1_455
S4 Tb1 2.747495 1_655
S4 Tb0 2.753083 1_545
S5 Tb1 2.747496 1_565
S5 Tb0 2.753082 1_554
