# generated using pymatgen
data_Sc3V
_symmetry_space_group_name_H-M   'P 1'
_cell_length_a   6.33422186
_cell_length_b   6.33422186
_cell_length_c   4.92337600
_cell_angle_alpha   90.00000000
_cell_angle_beta   90.00000000
_cell_angle_gamma   119.99999851
_symmetry_Int_Tables_number   1
_chemical_formula_structural   Sc3V
_chemical_formula_sum   'Sc6 V2'
_cell_volume   171.07249270
_cell_formula_units_Z   2
loop_
 _symmetry_equiv_pos_site_id
 _symmetry_equiv_pos_as_xyz
  1  'x, y, z'
loop_
 _atom_site_type_symbol
 _atom_site_label
 _atom_site_symmetry_multiplicity
 _atom_site_fract_x
 _atom_site_fract_y
 _atom_site_fract_z
 _atom_site_occupancy
  Sc  Sc0  1  0.17125000  0.34250100  0.25000000  1
  Sc  Sc1  1  0.65749900  0.82875000  0.25000000  1
  Sc  Sc2  1  0.17125000  0.82875000  0.25000000  1
  Sc  Sc3  1  0.82875000  0.65749900  0.75000000  1
  Sc  Sc4  1  0.34250100  0.17125000  0.75000000  1
  Sc  Sc5  1  0.82875000  0.17125000  0.75000000  1
  V  V0  1  0.33333300  0.66666700  0.75000000  1
  V  V1  1  0.66666700  0.33333300  0.25000000  1
loop_
_geom_bond_atom_site_label_1
_geom_bond_atom_site_label_2
_geom_bond_distance
_geom_bond_site_symmetry_2
Sc0 V0 3.036784 1_555
Sc0 V0 3.036784 1_554
Sc0 Sc2 3.080009 1_555
Sc0 Sc1 3.080009 1_555
Sc0 Sc5 3.096750 1_454
Sc0 Sc5 3.096750 1_455
Sc0 Sc4 3.096757 1_555
Sc0 Sc4 3.096757 1_554
Sc0 V1 3.167504 1_455
Sc0 V1 3.167517 1_555
Sc0 Sc2 3.254213 1_545
Sc0 Sc1 3.254213 1_445
Sc1 V0 3.036784 1_554
Sc1 V0 3.036784 1_555
Sc1 Sc2 3.080009 1_555
Sc1 Sc5 3.096750 1_565
Sc1 Sc5 3.096750 1_564
Sc1 Sc3 3.096757 1_555
Sc1 Sc3 3.096757 1_554
Sc1 V1 3.167504 1_565
Sc1 V1 3.167517 1_555
Sc1 Sc2 3.254213 1_655
Sc2 V0 3.036784 1_555
Sc2 V0 3.036784 1_554
Sc2 Sc3 3.096750 1_455
Sc2 Sc3 3.096750 1_454
Sc2 Sc4 3.096750 1_565
Sc2 Sc4 3.096750 1_564
Sc2 V1 3.167510 1_455
Sc2 V1 3.167510 1_565
Sc3 V1 3.036784 1_555
Sc3 V1 3.036784 1_556
Sc3 Sc5 3.080009 1_555
Sc3 Sc4 3.080009 1_555
Sc3 V0 3.167504 1_655
Sc3 V0 3.167517 1_555
Sc3 Sc5 3.254213 1_565
Sc3 Sc4 3.254213 1_665
Sc4 V1 3.036784 1_556
Sc4 V1 3.036784 1_555
Sc4 Sc5 3.080009 1_555
Sc4 V0 3.167504 1_545
Sc4 V0 3.167517 1_555
Sc4 Sc5 3.254213 1_455
Sc5 V1 3.036784 1_556
Sc5 V1 3.036784 1_555
Sc5 V0 3.167510 1_545
Sc5 V0 3.167510 1_655
