# generated using pymatgen
data_VNi
_symmetry_space_group_name_H-M   'P 1'
_cell_length_a   8.99395010
_cell_length_b   8.99395010
_cell_length_c   8.99394974
_cell_angle_alpha   32.96762883
_cell_angle_beta   32.96762883
_cell_angle_gamma   32.96763354
_symmetry_Int_Tables_number   1
_chemical_formula_structural   VNi
_chemical_formula_sum   'V8 Ni8'
_cell_volume   191.70701542
_cell_formula_units_Z   8
loop_
 _symmetry_equiv_pos_site_id
 _symmetry_equiv_pos_as_xyz
  1  'x, y, z'
loop_
 _atom_site_type_symbol
 _atom_site_label
 _atom_site_symmetry_multiplicity
 _atom_site_fract_x
 _atom_site_fract_y
 _atom_site_fract_z
 _atom_site_occupancy
  V  V0_0  1  0.25000000  0.25000000  0.25000000  1
  V  V0_1  1  0.25000000  0.25000000  0.75000000  1
  V  V0_2  1  0.25000000  0.75000000  0.25000000  1
  V  V0_3  1  0.25000000  0.75000000  0.75000000  1
  V  V0_4  1  0.75000000  0.25000000  0.25000000  1
  V  V0_5  1  0.75000000  0.25000000  0.75000000  1
  V  V0_6  1  0.75000000  0.75000000  0.25000000  1
  V  V0_7  1  0.75000000  0.75000000  0.75000000  1
  Ni  Ni0_0  1  0.00000000  0.00000000  0.00000000  1
  Ni  Ni0_1  1  0.00000000  0.00000000  0.50000000  1
  Ni  Ni0_2  1  0.00000000  0.50000000  0.00000000  1
  Ni  Ni0_3  1  0.00000000  0.50000000  0.50000000  1
  Ni  Ni0_4  1  0.50000000  0.00000000  0.00000000  1
  Ni  Ni0_5  1  0.50000000  0.00000000  0.50000000  1
  Ni  Ni0_6  1  0.50000000  0.50000000  0.00000000  1
  Ni  Ni0_7  1  0.50000000  0.50000000  0.50000000  1
loop_
_geom_bond_atom_site_label_1
_geom_bond_atom_site_label_2
_geom_bond_distance
_geom_bond_site_symmetry_2
V0_0 V0_3 2.551984 1_554
V0_0 V0_5 2.551984 1_554
V0_0 V0_5 2.551984 1_455
V0_0 V0_3 2.551984 1_545
V0_0 V0_6 2.551984 1_545
V0_0 V0_6 2.551984 1_455
V0_1 V0_2 2.551984 1_546
V0_1 V0_4 2.551984 1_456
V0_1 V0_2 2.551984 1_555
V0_1 V0_4 2.551984 1_555
V0_1 V0_7 2.551984 1_455
V0_1 V0_7 2.551984 1_545
V0_2 V0_7 2.551984 1_554
V0_2 V0_7 2.551984 1_455
V0_2 V0_4 2.551984 1_465
V0_2 V0_4 2.551984 1_555
V0_3 V0_6 2.551984 1_456
V0_3 V0_6 2.551984 1_555
V0_3 V0_5 2.551984 1_555
V0_3 V0_5 2.551984 1_465
V0_4 V0_7 2.551984 1_554
V0_4 V0_7 2.551984 1_545
V0_5 V0_6 2.551984 1_546
V0_5 V0_6 2.551984 1_555
Ni0_0 Ni0_3 2.551984 1_545
Ni0_0 Ni0_5 2.551984 1_554
Ni0_0 Ni0_5 2.551984 1_455
Ni0_0 Ni0_3 2.551984 1_554
Ni0_0 Ni0_6 2.551984 1_545
Ni0_0 Ni0_6 2.551984 1_455
Ni0_0 V0_6 2.585315 1_445
Ni0_0 V0_1 2.585315 1_554
Ni0_0 V0_3 2.585315 1_544
Ni0_0 V0_5 2.585315 1_454
Ni0_0 V0_2 2.585315 1_545
Ni0_0 V0_4 2.585315 1_455
Ni0_1 Ni0_2 2.551984 1_546
Ni0_1 Ni0_4 2.551984 1_555
Ni0_1 Ni0_4 2.551984 1_456
Ni0_1 Ni0_2 2.551984 1_555
Ni0_1 Ni0_7 2.551984 1_545
Ni0_1 Ni0_7 2.551984 1_455
Ni0_1 V0_7 2.585315 1_445
Ni0_1 V0_0 2.585315 1_555
Ni0_1 V0_2 2.585315 1_545
Ni0_1 V0_4 2.585315 1_455
Ni0_1 V0_5 2.585315 1_455
Ni0_1 V0_3 2.585315 1_545
Ni0_2 Ni0_7 2.551984 1_455
Ni0_2 Ni0_7 2.551984 1_554
Ni0_2 Ni0_4 2.551984 1_555
Ni0_2 Ni0_4 2.551984 1_465
Ni0_2 V0_4 2.585315 1_455
Ni0_2 V0_3 2.585315 1_554
Ni0_2 V0_7 2.585315 1_454
Ni0_2 V0_1 2.585315 1_554
Ni0_2 V0_0 2.585315 1_555
Ni0_2 V0_6 2.585315 1_455
Ni0_3 Ni0_6 2.551984 1_555
Ni0_3 Ni0_6 2.551984 1_456
Ni0_3 Ni0_5 2.551984 1_555
Ni0_3 Ni0_5 2.551984 1_465
Ni0_3 V0_5 2.585315 1_455
Ni0_3 V0_2 2.585315 1_555
Ni0_3 V0_0 2.585315 1_555
Ni0_3 V0_6 2.585315 1_455
Ni0_3 V0_7 2.585315 1_455
Ni0_3 V0_1 2.585315 1_555
Ni0_4 Ni0_7 2.551984 1_545
Ni0_4 Ni0_7 2.551984 1_554
Ni0_4 V0_2 2.585315 1_545
Ni0_4 V0_5 2.585315 1_554
Ni0_4 V0_7 2.585315 1_544
Ni0_4 V0_1 2.585315 1_554
Ni0_4 V0_0 2.585315 1_555
Ni0_4 V0_6 2.585315 1_545
Ni0_5 Ni0_6 2.551984 1_546
Ni0_5 Ni0_6 2.551984 1_555
Ni0_5 V0_3 2.585315 1_545
Ni0_5 V0_4 2.585315 1_555
Ni0_5 V0_0 2.585315 1_555
Ni0_5 V0_6 2.585315 1_545
Ni0_5 V0_1 2.585315 1_555
Ni0_5 V0_7 2.585315 1_545
Ni0_6 V0_0 2.585315 1_555
Ni0_6 V0_7 2.585315 1_554
Ni0_6 V0_5 2.585315 1_554
Ni0_6 V0_3 2.585315 1_554
Ni0_6 V0_2 2.585315 1_555
Ni0_6 V0_4 2.585315 1_555
Ni0_7 V0_6 2.585315 1_555
Ni0_7 V0_1 2.585315 1_555
Ni0_7 V0_4 2.585315 1_555
Ni0_7 V0_2 2.585315 1_555
Ni0_7 V0_3 2.585315 1_555
Ni0_7 V0_5 2.585315 1_555
