# generated using pymatgen
data_Rb2SmBr5
_symmetry_space_group_name_H-M   'P 1'
_cell_length_a   8.65156605
_cell_length_b   9.29780484
_cell_length_c   13.75373483
_cell_angle_alpha   90.00000000
_cell_angle_beta   90.00000000
_cell_angle_gamma   90.00000000
_symmetry_Int_Tables_number   1
_chemical_formula_structural   Rb2SmBr5
_chemical_formula_sum   'Rb8 Sm4 Br20'
_cell_volume   1106.35830640
_cell_formula_units_Z   4
loop_
 _symmetry_equiv_pos_site_id
 _symmetry_equiv_pos_as_xyz
  1  'x, y, z'
loop_
 _atom_site_type_symbol
 _atom_site_label
 _atom_site_symmetry_multiplicity
 _atom_site_fract_x
 _atom_site_fract_y
 _atom_site_fract_z
 _atom_site_occupancy
  Rb  Rb0  1  0.93425816  0.00676330  0.82912354  1
  Rb  Rb1  1  0.06574184  0.99323670  0.17087646  1
  Rb  Rb2  1  0.43425816  0.99323670  0.67087646  1
  Rb  Rb3  1  0.06574184  0.50676330  0.17087646  1
  Rb  Rb4  1  0.56574184  0.00676330  0.32912354  1
  Rb  Rb5  1  0.93425816  0.49323670  0.82912354  1
  Rb  Rb6  1  0.56574184  0.49323670  0.32912354  1
  Rb  Rb7  1  0.43425816  0.50676330  0.67087646  1
  Sm  Sm0  1  0.92541219  0.75000000  0.50500295  1
  Sm  Sm1  1  0.07458781  0.25000000  0.49499705  1
  Sm  Sm2  1  0.42541219  0.25000000  0.99499705  1
  Sm  Sm3  1  0.57458781  0.75000000  0.00500295  1
  Br  Br0  1  0.11166391  0.75000000  0.67979160  1
  Br  Br1  1  0.88833609  0.25000000  0.32020840  1
  Br  Br2  1  0.61166391  0.25000000  0.82020840  1
  Br  Br3  1  0.38833609  0.75000000  0.17979160  1
  Br  Br4  1  0.83277306  0.04476262  0.56858040  1
  Br  Br5  1  0.16722694  0.95523738  0.43141960  1
  Br  Br6  1  0.33277306  0.95523738  0.93141960  1
  Br  Br7  1  0.16722694  0.54476262  0.43141960  1
  Br  Br8  1  0.66722694  0.04476262  0.06858040  1
  Br  Br9  1  0.83277306  0.45523738  0.56858040  1
  Br  Br10  1  0.66722694  0.45523738  0.06858040  1
  Br  Br11  1  0.33277306  0.54476262  0.93141960  1
  Br  Br12  1  0.58685525  0.75000000  0.51046564  1
  Br  Br13  1  0.41314475  0.25000000  0.48953436  1
  Br  Br14  1  0.08685525  0.25000000  0.98953436  1
  Br  Br15  1  0.91314475  0.75000000  0.01046564  1
  Br  Br16  1  0.65065186  0.75000000  0.80044684  1
  Br  Br17  1  0.34934814  0.25000000  0.19955316  1
  Br  Br18  1  0.15065186  0.25000000  0.69955316  1
  Br  Br19  1  0.84934814  0.75000000  0.30044684  1
loop_
_geom_bond_atom_site_label_1
_geom_bond_atom_site_label_2
_geom_bond_distance
_geom_bond_site_symmetry_2
Br0 Sm0 2.894082 1_455
Br0 Rb0 3.503353 1_465
Br0 Rb5 3.503353 1_455
Br0 Rb7 3.594315 1_555
Br0 Rb2 3.594315 1_555
Br1 Sm1 2.894082 1_655
Br1 Rb1 3.503353 1_645
Br1 Rb3 3.503353 1_655
Br1 Rb6 3.594315 1_555
Br1 Rb4 3.594315 1_555
Br2 Sm2 2.894082 1_555
Br2 Rb2 3.503353 1_545
Br2 Rb7 3.503353 1_555
Br2 Rb0 3.594315 1_555
Br2 Rb5 3.594315 1_555
Br3 Sm3 2.894082 1_555
Br3 Rb4 3.503353 1_565
Br3 Rb6 3.503353 1_555
Br3 Rb1 3.594315 1_555
Br3 Rb3 3.594315 1_555
Br4 Sm0 2.986322 1_545
Br4 Sm1 3.007069 1_655
Br4 Rb0 3.706315 1_555
Br4 Rb2 3.754491 1_545
Br4 Rb4 4.038401 1_555
Br5 Sm1 2.986322 1_565
Br5 Sm0 3.007069 1_455
Br5 Rb1 3.706315 1_555
Br5 Rb4 3.754491 1_565
Br5 Rb2 4.038401 1_555
Br6 Sm2 2.986322 1_565
Br6 Sm3 3.007069 1_556
Br6 Rb2 3.706315 1_555
Br6 Rb0 3.754491 1_465
Br6 Rb1 4.038401 1_556
Br7 Sm1 2.986322 1_555
Br7 Sm0 3.007069 1_455
Br7 Rb3 3.706315 1_555
Br7 Rb6 3.754491 1_555
Br7 Rb7 4.038401 1_555
Br8 Sm3 2.986322 1_545
Br8 Sm2 3.007069 1_554
Br8 Rb4 3.706315 1_555
Br8 Rb1 3.754491 1_645
Br8 Rb0 4.038401 1_554
Br9 Sm0 2.986322 1_555
Br9 Sm1 3.007069 1_655
Br9 Rb5 3.706315 1_555
Br9 Rb7 3.754491 1_555
Br9 Rb6 4.038401 1_555
Br10 Sm3 2.986322 1_555
Br10 Sm2 3.007069 1_554
Br10 Rb6 3.706315 1_555
Br10 Rb3 3.754491 1_655
Br10 Rb5 4.038401 1_554
Br11 Sm2 2.986322 1_555
Br11 Sm3 3.007069 1_556
Br11 Rb7 3.706315 1_555
Br11 Rb5 3.754491 1_455
Br11 Rb3 4.038401 1_556
Br12 Sm0 2.930011 1_555
Br12 Rb2 3.424201 1_555
Br12 Rb7 3.424201 1_555
Br12 Rb6 3.457373 1_555
Br12 Rb4 3.457373 1_565
Br13 Sm1 2.930011 1_555
Br13 Rb4 3.424201 1_555
Br13 Rb6 3.424201 1_555
Br13 Rb7 3.457373 1_555
Br13 Rb2 3.457373 1_545
Br14 Sm2 2.930011 1_555
Br14 Rb5 3.424201 1_455
Br14 Rb0 3.424201 1_455
Br14 Rb3 3.457373 1_556
Br14 Rb1 3.457373 1_546
Br15 Sm3 2.930011 1_555
Br15 Rb3 3.424201 1_655
Br15 Rb1 3.424201 1_655
Br15 Rb0 3.457373 1_564
Br15 Rb5 3.457373 1_554
Br16 Sm3 2.889349 1_556
Br16 Rb7 3.434444 1_555
Br16 Rb2 3.434444 1_555
Br16 Rb0 3.446052 1_565
Br16 Rb5 3.446052 1_555
Br17 Sm2 2.889349 1_554
Br17 Rb4 3.434444 1_555
Br17 Rb6 3.434444 1_555
Br17 Rb3 3.446052 1_555
Br17 Rb1 3.446052 1_545
Br18 Sm1 2.889349 1_555
Br18 Rb5 3.434444 1_455
Br18 Rb0 3.434444 1_455
Br18 Rb2 3.446052 1_545
Br18 Rb7 3.446052 1_555
Br19 Sm0 2.889349 1_555
Br19 Rb1 3.434444 1_655
Br19 Rb3 3.434444 1_655
Br19 Rb6 3.446052 1_555
Br19 Rb4 3.446052 1_565
