# generated using pymatgen
data_Mg7Fe
_symmetry_space_group_name_H-M   'P 1'
_cell_length_a   6.13017897
_cell_length_b   6.13017897
_cell_length_c   4.90889300
_cell_angle_alpha   90.00000000
_cell_angle_beta   90.00000000
_cell_angle_gamma   120.00001049
_symmetry_Int_Tables_number   1
_chemical_formula_structural   Mg7Fe
_chemical_formula_sum   'Mg7 Fe1'
_cell_volume   159.75720715
_cell_formula_units_Z   1
loop_
 _symmetry_equiv_pos_site_id
 _symmetry_equiv_pos_as_xyz
  1  'x, y, z'
loop_
 _atom_site_type_symbol
 _atom_site_label
 _atom_site_symmetry_multiplicity
 _atom_site_fract_x
 _atom_site_fract_y
 _atom_site_fract_z
 _atom_site_occupancy
  Mg  Mg0  1  0.50035200  0.00070300  0.00000000  1
  Mg  Mg1  1  0.50035200  0.49964800  0.00000000  1
  Mg  Mg2  1  0.99929700  0.49964800  0.00000000  1
  Mg  Mg3  1  0.31374900  0.15687500  0.50000000  1
  Mg  Mg4  1  0.84312500  0.15687500  0.50000000  1
  Mg  Mg5  1  0.84312500  0.68625100  0.50000000  1
  Mg  Mg6  1  0.33333300  0.66666700  0.50000000  1
  Fe  Fe0  1  0.00000000  0.00000000  0.00000000  1
loop_
_geom_bond_atom_site_label_1
_geom_bond_atom_site_label_2
_geom_bond_distance
_geom_bond_site_symmetry_2
Mg0 Mg6 3.028055 1_545
Mg0 Mg6 3.028055 1_544
Mg0 Mg4 3.056873 1_555
Mg0 Mg4 3.056873 1_554
Mg0 Mg3 3.056880 1_555
Mg0 Mg3 3.056880 1_554
Mg0 Mg2 3.058622 1_555
Mg0 Mg1 3.058622 1_555
Mg0 Mg2 3.071556 1_445
Mg0 Mg1 3.071557 1_545
Mg1 Mg6 3.028061 1_555
Mg1 Mg6 3.028061 1_554
Mg1 Mg3 3.056874 1_555
Mg1 Mg3 3.056874 1_554
Mg1 Mg5 3.056874 1_555
Mg1 Mg5 3.056874 1_554
Mg1 Mg2 3.058622 1_555
Mg1 Mg2 3.071557 1_455
Mg2 Mg6 3.028055 1_654
Mg2 Mg6 3.028055 1_655
Mg2 Mg4 3.056873 1_555
Mg2 Mg4 3.056873 1_554
Mg2 Mg5 3.056880 1_555
Mg2 Mg5 3.056880 1_554
Mg3 Mg5 2.885009 1_445
Mg3 Mg4 2.885009 1_455
Mg3 Mg6 3.066852 1_555
Mg3 Mg6 3.066852 1_545
Mg3 Mg5 3.245169 1_555
Mg3 Mg4 3.245170 1_555
Mg4 Mg5 2.885009 1_545
Mg4 Mg6 3.066852 1_545
Mg4 Mg6 3.066852 1_655
Mg4 Mg5 3.245170 1_555
Mg5 Mg6 3.066852 1_555
Mg5 Mg6 3.066852 1_655
Fe0 Mg3 2.966265 1_555
Fe0 Mg3 2.966265 1_554
Fe0 Mg5 2.966265 1_444
Fe0 Mg5 2.966265 1_445
Fe0 Mg4 2.966268 1_455
Fe0 Mg4 2.966268 1_454
Fe0 Mg0 3.065089 1_455
Fe0 Mg2 3.065089 1_455
Fe0 Mg1 3.065091 1_555
Fe0 Mg1 3.065091 1_445
Fe0 Mg2 3.065095 1_445
Fe0 Mg0 3.065095 1_555
