# generated using pymatgen
data_SrMg30CdO32
_symmetry_space_group_name_H-M   'P 1'
_cell_length_a   8.63733100
_cell_length_b   8.63733100
_cell_length_c   8.66295500
_cell_angle_alpha   90.00000000
_cell_angle_beta   90.00000000
_cell_angle_gamma   90.00000000
_symmetry_Int_Tables_number   1
_chemical_formula_structural   SrMg30CdO32
_chemical_formula_sum   'Sr1 Mg30 Cd1 O32'
_cell_volume   646.28664902
_cell_formula_units_Z   1
loop_
 _symmetry_equiv_pos_site_id
 _symmetry_equiv_pos_as_xyz
  1  'x, y, z'
loop_
 _atom_site_type_symbol
 _atom_site_label
 _atom_site_symmetry_multiplicity
 _atom_site_fract_x
 _atom_site_fract_y
 _atom_site_fract_z
 _atom_site_occupancy
  Sr  Sr0  1  0.00000000  0.00000000  0.00000000  1
  Mg  Mg0  1  0.00000000  0.50000000  0.00000000  1
  Mg  Mg1  1  0.00000000  0.50000000  0.50000000  1
  Mg  Mg2  1  0.50000000  0.00000000  0.00000000  1
  Mg  Mg3  1  0.50000000  0.00000000  0.50000000  1
  Mg  Mg4  1  0.50000000  0.50000000  0.00000000  1
  Mg  Mg5  1  0.50000000  0.50000000  0.50000000  1
  Mg  Mg6  1  0.00000000  0.25773000  0.25297700  1
  Mg  Mg7  1  0.00000000  0.25773000  0.74702300  1
  Mg  Mg8  1  0.00000000  0.74227000  0.25297700  1
  Mg  Mg9  1  0.00000000  0.74227000  0.74702300  1
  Mg  Mg10  1  0.50000000  0.25068100  0.25043500  1
  Mg  Mg11  1  0.50000000  0.25068100  0.74956500  1
  Mg  Mg12  1  0.50000000  0.74931900  0.25043500  1
  Mg  Mg13  1  0.50000000  0.74931900  0.74956500  1
  Mg  Mg14  1  0.25773000  0.00000000  0.25297700  1
  Mg  Mg15  1  0.25773000  0.00000000  0.74702300  1
  Mg  Mg16  1  0.25068100  0.50000000  0.25043500  1
  Mg  Mg17  1  0.25068100  0.50000000  0.74956500  1
  Mg  Mg18  1  0.74227000  0.00000000  0.25297700  1
  Mg  Mg19  1  0.74227000  0.00000000  0.74702300  1
  Mg  Mg20  1  0.74931900  0.50000000  0.25043500  1
  Mg  Mg21  1  0.74931900  0.50000000  0.74956500  1
  Mg  Mg22  1  0.25503800  0.25503800  0.00000000  1
  Mg  Mg23  1  0.25239900  0.25239900  0.50000000  1
  Mg  Mg24  1  0.25503800  0.74496200  0.00000000  1
  Mg  Mg25  1  0.25239900  0.74760200  0.50000000  1
  Mg  Mg26  1  0.74496200  0.25503800  0.00000000  1
  Mg  Mg27  1  0.74760200  0.25239900  0.50000000  1
  Mg  Mg28  1  0.74496200  0.74496200  0.00000000  1
  Mg  Mg29  1  0.74760200  0.74760200  0.50000000  1
  Cd  Cd0  1  0.00000000  0.00000000  0.50000000  1
  O  O0  1  0.27080700  0.00000000  0.00000000  1
  O  O1  1  0.26762900  0.00000000  0.50000000  1
  O  O2  1  0.25400900  0.50000000  0.00000000  1
  O  O3  1  0.25292800  0.50000000  0.50000000  1
  O  O4  1  0.72919300  0.00000000  0.00000000  1
  O  O5  1  0.73237100  0.00000000  0.50000000  1
  O  O6  1  0.74599100  0.50000000  0.00000000  1
  O  O7  1  0.74707200  0.50000000  0.50000000  1
  O  O8  1  0.24934300  0.24934300  0.24995300  1
  O  O9  1  0.24934300  0.24934300  0.75004700  1
  O  O10  1  0.24934300  0.75065700  0.24995300  1
  O  O11  1  0.24934300  0.75065700  0.75004700  1
  O  O12  1  0.75065700  0.24934300  0.24995300  1
  O  O13  1  0.75065700  0.24934300  0.75004700  1
  O  O14  1  0.75065700  0.75065700  0.24995300  1
  O  O15  1  0.75065700  0.75065700  0.75004700  1
  O  O16  1  0.00000000  0.00000000  0.25796000  1
  O  O17  1  0.00000000  0.00000000  0.74204000  1
  O  O18  1  0.00000000  0.50000000  0.25127300  1
  O  O19  1  0.00000000  0.50000000  0.74872700  1
  O  O20  1  0.50000000  0.00000000  0.25127300  1
  O  O21  1  0.50000000  0.00000000  0.74872700  1
  O  O22  1  0.50000000  0.50000000  0.25016100  1
  O  O23  1  0.50000000  0.50000000  0.74983900  1
  O  O24  1  0.00000000  0.27080700  0.00000000  1
  O  O25  1  0.00000000  0.26762900  0.50000000  1
  O  O26  1  0.00000000  0.72919300  0.00000000  1
  O  O27  1  0.00000000  0.73237100  0.50000000  1
  O  O28  1  0.50000000  0.25400900  0.00000000  1
  O  O29  1  0.50000000  0.25292800  0.50000000  1
  O  O30  1  0.50000000  0.74599100  0.00000000  1
  O  O31  1  0.50000000  0.74707200  0.50000000  1
loop_
_geom_bond_atom_site_label_1
_geom_bond_atom_site_label_2
_geom_bond_distance
_geom_bond_site_symmetry_2
Mg0 O26 1.979616 1_555
Mg0 O24 1.979616 1_555
Mg0 O18 2.176767 1_555
Mg0 O19 2.176767 1_554
Mg0 O2 2.193960 1_555
Mg0 O6 2.193960 1_455
Mg1 O25 2.007065 1_555
Mg1 O27 2.007065 1_555
Mg1 O19 2.154711 1_555
Mg1 O18 2.154711 1_555
Mg1 O3 2.184623 1_555
Mg1 O7 2.184623 1_455
Mg2 O4 1.979616 1_555
Mg2 O0 1.979616 1_555
Mg2 O20 2.176767 1_555
Mg2 O21 2.176767 1_554
Mg2 O28 2.193960 1_555
Mg2 O30 2.193960 1_545
Mg3 O1 2.007065 1_555
Mg3 O5 2.007065 1_555
Mg3 O21 2.154711 1_555
Mg3 O20 2.154711 1_555
Mg3 O29 2.184623 1_555
Mg3 O31 2.184623 1_545
Mg4 O6 2.124706 1_555
Mg4 O30 2.124706 1_555
Mg4 O2 2.124706 1_555
Mg4 O28 2.124706 1_555
Mg4 O22 2.167133 1_555
Mg4 O23 2.167133 1_554
Mg5 O7 2.134043 1_555
Mg5 O31 2.134043 1_555
Mg5 O29 2.134043 1_555
Mg5 O3 2.134043 1_555
Mg5 O23 2.164344 1_555
Mg5 O22 2.164344 1_555
Mg6 O18 2.092618 1_555
Mg6 O25 2.141657 1_555
Mg6 O8 2.155035 1_555
Mg6 O12 2.155035 1_455
Mg6 O24 2.194437 1_555
Mg6 O16 2.226518 1_555
Mg7 O19 2.092618 1_555
Mg7 O25 2.141657 1_555
Mg7 O9 2.155035 1_555
Mg7 O13 2.155035 1_455
Mg7 O24 2.194437 1_556
Mg7 O17 2.226518 1_555
Mg8 O18 2.092618 1_555
Mg8 O27 2.141657 1_555
Mg8 O10 2.155035 1_555
Mg8 O14 2.155035 1_455
Mg8 O26 2.194437 1_555
Mg8 O16 2.226518 1_565
Mg9 O19 2.092618 1_555
Mg9 O27 2.141657 1_555
Mg9 O11 2.155035 1_555
Mg9 O15 2.155035 1_455
Mg9 O26 2.194437 1_556
Mg9 O17 2.226518 1_565
Mg10 O22 2.153452 1_555
Mg10 O29 2.162057 1_555
Mg10 O12 2.165042 1_555
Mg10 O8 2.165042 1_555
Mg10 O20 2.165227 1_555
Mg10 O28 2.169698 1_555
Mg11 O23 2.153452 1_555
Mg11 O29 2.162057 1_555
Mg11 O13 2.165042 1_555
Mg11 O9 2.165042 1_555
Mg11 O21 2.165227 1_555
Mg11 O28 2.169698 1_556
Mg12 O22 2.153452 1_555
Mg12 O31 2.162057 1_555
Mg12 O14 2.165042 1_555
Mg12 O10 2.165042 1_555
Mg12 O20 2.165227 1_565
Mg12 O30 2.169698 1_555
Mg13 O23 2.153452 1_555
Mg13 O31 2.162057 1_555
Mg13 O15 2.165042 1_555
Mg13 O11 2.165042 1_555
Mg13 O21 2.165227 1_565
Mg13 O30 2.169698 1_556
Mg14 O20 2.092618 1_555
Mg14 O1 2.141657 1_555
Mg14 O8 2.155035 1_555
Mg14 O10 2.155035 1_545
Mg14 O0 2.194437 1_555
Mg14 O16 2.226518 1_555
Mg15 O21 2.092618 1_555
Mg15 O1 2.141657 1_555
Mg15 O9 2.155035 1_555
Mg15 O11 2.155035 1_545
Mg15 O0 2.194437 1_556
Mg15 O17 2.226518 1_555
Mg16 O22 2.153452 1_555
Mg16 O3 2.162057 1_555
Mg16 O10 2.165042 1_555
Mg16 O8 2.165042 1_555
Mg16 O18 2.165227 1_555
Mg16 O2 2.169698 1_555
Mg17 O23 2.153452 1_555
Mg17 O3 2.162057 1_555
Mg17 O11 2.165042 1_555
Mg17 O9 2.165042 1_555
Mg17 O19 2.165227 1_555
Mg17 O2 2.169698 1_556
Mg18 O20 2.092618 1_555
Mg18 O5 2.141657 1_555
Mg18 O12 2.155035 1_555
Mg18 O14 2.155035 1_545
Mg18 O4 2.194437 1_555
Mg18 O16 2.226518 1_655
Mg19 O21 2.092618 1_555
Mg19 O5 2.141657 1_555
Mg19 O13 2.155035 1_555
Mg19 O15 2.155035 1_545
Mg19 O4 2.194437 1_556
Mg19 O17 2.226518 1_655
Mg20 O22 2.153452 1_555
Mg20 O7 2.162057 1_555
Mg20 O14 2.165042 1_555
Mg20 O12 2.165042 1_555
Mg20 O18 2.165227 1_655
Mg20 O6 2.169698 1_555
Mg21 O23 2.153452 1_555
Mg21 O7 2.162057 1_555
Mg21 O15 2.165042 1_555
Mg21 O13 2.165042 1_555
Mg21 O19 2.165227 1_655
Mg21 O6 2.169698 1_556
Mg22 O2 2.115837 1_555
Mg22 O28 2.115837 1_555
Mg22 O8 2.166449 1_555
Mg22 O9 2.166449 1_554
Mg22 O0 2.207054 1_555
Mg22 O24 2.207054 1_555
Mg23 O29 2.138617 1_555
Mg23 O3 2.138617 1_555
Mg23 O9 2.166468 1_555
Mg23 O8 2.166468 1_555
Mg23 O25 2.184019 1_555
Mg23 O1 2.184019 1_555
Mg24 O30 2.115837 1_555
Mg24 O2 2.115837 1_555
Mg24 O10 2.166449 1_555
Mg24 O11 2.166449 1_554
Mg24 O0 2.207054 1_565
Mg24 O26 2.207054 1_555
Mg25 O31 2.138617 1_555
Mg25 O3 2.138625 1_555
Mg25 O11 2.166467 1_555
Mg25 O10 2.166467 1_555
Mg25 O1 2.184010 1_565
Mg25 O27 2.184019 1_555
Mg26 O28 2.115837 1_555
Mg26 O6 2.115837 1_555
Mg26 O12 2.166449 1_555
Mg26 O13 2.166449 1_554
Mg26 O24 2.207054 1_655
Mg26 O4 2.207054 1_555
Mg27 O7 2.138617 1_555
Mg27 O29 2.138625 1_555
Mg27 O13 2.166467 1_555
Mg27 O12 2.166467 1_555
Mg27 O25 2.184010 1_655
Mg27 O5 2.184019 1_555
Mg28 O30 2.115837 1_555
Mg28 O6 2.115837 1_555
Mg28 O14 2.166449 1_555
Mg28 O15 2.166449 1_554
Mg28 O26 2.207054 1_655
Mg28 O4 2.207054 1_565
Mg29 O7 2.138625 1_555
Mg29 O31 2.138625 1_555
Mg29 O15 2.166467 1_555
Mg29 O14 2.166467 1_555
Mg29 O27 2.184011 1_655
Mg29 O5 2.184011 1_565
Cd0 O16 2.096782 1_555
Cd0 O17 2.096782 1_555
Cd0 O5 2.311600 1_455
Cd0 O25 2.311600 1_555
Cd0 O27 2.311600 1_545
Cd0 O1 2.311600 1_555
O0 Sr0 2.339050 1_555
O4 Sr0 2.339050 1_655
O16 Sr0 2.234696 1_555
O17 Sr0 2.234696 1_556
O24 Sr0 2.339050 1_555
O26 Sr0 2.339050 1_565
