# generated using pymatgen
data_Ti3Cr9Si4
_symmetry_space_group_name_H-M   'P 1'
_cell_length_a   4.63771000
_cell_length_b   4.62146302
_cell_length_c   9.20516603
_cell_angle_alpha   89.99003696
_cell_angle_beta   90.00000000
_cell_angle_gamma   90.00000000
_symmetry_Int_Tables_number   1
_chemical_formula_structural   Ti3Cr9Si4
_chemical_formula_sum   'Ti3 Cr9 Si4'
_cell_volume   197.29436898
_cell_formula_units_Z   1
loop_
 _symmetry_equiv_pos_site_id
 _symmetry_equiv_pos_as_xyz
  1  'x, y, z'
loop_
 _atom_site_type_symbol
 _atom_site_label
 _atom_site_symmetry_multiplicity
 _atom_site_fract_x
 _atom_site_fract_y
 _atom_site_fract_z
 _atom_site_occupancy
  Ti  Ti0  1  0.00000000  0.49950800  0.37655100  1
  Ti  Ti1  1  0.00000000  0.50325900  0.87217300  1
  Ti  Ti2  1  0.50000000  0.24806600  0.00108400  1
  Cr  Cr0  1  0.50000000  0.24395400  0.50048200  1
  Cr  Cr1  1  0.74659100  0.99893900  0.25229700  1
  Cr  Cr2  1  0.74714200  0.99953600  0.74673800  1
  Cr  Cr3  1  0.00000000  0.50187100  0.12688100  1
  Cr  Cr4  1  0.00000000  0.49877900  0.62313800  1
  Cr  Cr5  1  0.50000000  0.75198800  0.00061000  1
  Cr  Cr6  1  0.50000000  0.75523500  0.50014700  1
  Cr  Cr7  1  0.25340900  0.99893900  0.25229700  1
  Cr  Cr8  1  0.25285800  0.99953600  0.74673800  1
  Si  Si0  1  0.50000000  0.50236300  0.25152700  1
  Si  Si1  1  0.50000000  0.50123800  0.74464200  1
  Si  Si2  1  0.00000000  0.99645100  0.00237000  1
  Si  Si3  1  0.00000000  0.00033700  0.50232500  1
loop_
_geom_bond_atom_site_label_1
_geom_bond_atom_site_label_2
_geom_bond_distance
_geom_bond_site_symmetry_2
Cr0 Cr6 2.258599 1_545
Cr0 Cr6 2.362868 1_555
Cr0 Si1 2.542857 1_555
Cr0 Si3 2.577779 1_555
Cr0 Si3 2.577779 1_655
Cr0 Si0 2.583987 1_555
Cr0 Cr2 2.779794 1_545
Cr0 Cr8 2.779794 1_545
Cr0 Cr1 2.794683 1_545
Cr0 Cr7 2.794683 1_545
Cr0 Cr4 2.835355 1_655
Cr0 Cr4 2.835355 1_555
Cr0 Ti0 2.841284 1_555
Cr0 Ti0 2.841284 1_655
Cr1 Cr7 2.287235 1_555
Cr1 Cr7 2.350475 1_655
Cr1 Si0 2.564082 1_555
Cr1 Si2 2.583442 1_655
Cr1 Si3 2.584252 1_665
Cr1 Si0 2.592444 1_565
Cr1 Cr6 2.789389 1_555
Cr1 Cr5 2.824703 1_555
Cr1 Ti2 2.824882 1_565
Cr1 Cr3 2.827006 1_655
Cr1 Ti0 2.831224 1_655
Cr1 Ti0 2.835837 1_665
Cr1 Cr3 2.848745 1_665
Cr2 Cr8 2.292346 1_555
Cr2 Cr8 2.345364 1_655
Cr2 Si3 2.537139 1_665
Cr2 Si1 2.572410 1_555
Cr2 Si1 2.586496 1_565
Cr2 Si2 2.629186 1_656
Cr2 Cr6 2.782410 1_555
Cr2 Ti1 2.822718 1_655
Cr2 Cr4 2.827028 1_665
Cr2 Cr4 2.833064 1_655
Cr2 Cr5 2.843036 1_556
Cr2 Ti2 2.848778 1_566
Cr2 Ti1 2.851075 1_665
Cr3 Ti0 2.298278 1_555
Cr3 Ti1 2.344637 1_554
Cr3 Si2 2.556772 1_555
Cr3 Si0 2.587198 1_555
Cr3 Si0 2.587198 1_455
Cr3 Si2 2.602008 1_545
Cr3 Cr7 2.827006 1_555
Cr3 Cr7 2.848745 1_545
Cr4 Ti0 2.269876 1_555
Cr4 Ti1 2.292506 1_555
Cr4 Si3 2.558109 1_555
Cr4 Si3 2.570736 1_565
Cr4 Si1 2.574526 1_555
Cr4 Si1 2.574526 1_455
Cr4 Cr8 2.827028 1_545
Cr4 Cr8 2.833064 1_555
Cr4 Cr6 2.839559 1_455
Cr4 Cr6 2.839559 1_555
Cr5 Ti2 2.292611 1_565
Cr5 Ti2 2.328860 1_555
Cr5 Si2 2.579487 1_555
Cr5 Si2 2.579487 1_655
Cr5 Si0 2.581629 1_555
Cr5 Si1 2.625957 1_554
Cr5 Cr7 2.824703 1_555
Cr5 Cr8 2.843036 1_554
Cr6 Si1 2.538159 1_555
Cr6 Si0 2.569880 1_555
Cr6 Si3 2.580809 1_565
Cr6 Si3 2.580809 1_665
Cr6 Cr8 2.782410 1_555
Cr6 Cr7 2.789389 1_555
Cr6 Ti0 2.840545 1_655
Cr6 Ti0 2.840545 1_555
Cr7 Si0 2.564082 1_555
Cr7 Si2 2.583442 1_555
Cr7 Si3 2.584252 1_565
Cr7 Si0 2.592444 1_565
Cr7 Ti2 2.824882 1_565
Cr7 Ti0 2.831224 1_555
Cr7 Ti0 2.835837 1_565
Cr8 Si3 2.537139 1_565
Cr8 Si1 2.572410 1_555
Cr8 Si1 2.586496 1_565
Cr8 Si2 2.629186 1_556
Cr8 Ti1 2.822718 1_555
Cr8 Ti2 2.848778 1_566
Cr8 Ti1 2.851075 1_565
Si0 Ti2 2.587822 1_555
Si0 Ti0 2.588774 1_555
Si0 Ti0 2.588774 1_655
Si1 Ti1 2.599101 1_555
Si1 Ti1 2.599101 1_655
Si1 Ti2 2.634462 1_556
Si2 Ti1 2.575341 1_554
Si2 Ti2 2.594108 1_465
Si2 Ti2 2.594108 1_565
Si2 Ti1 2.630830 1_564
Si3 Ti0 2.580948 1_555
Si3 Ti0 2.588159 1_545
