# generated using pymatgen
data_Mg6TiFeO8
_symmetry_space_group_name_H-M   'P 1'
_cell_length_a   8.69860418
_cell_length_b   4.27501581
_cell_length_c   4.27501581
_cell_angle_alpha   90.00000000
_cell_angle_beta   90.00000000
_cell_angle_gamma   90.00000000
_symmetry_Int_Tables_number   1
_chemical_formula_structural   Mg6TiFeO8
_chemical_formula_sum   'Mg6 Ti1 Fe1 O8'
_cell_volume   158.97360386
_cell_formula_units_Z   1
loop_
 _symmetry_equiv_pos_site_id
 _symmetry_equiv_pos_as_xyz
  1  'x, y, z'
loop_
 _atom_site_type_symbol
 _atom_site_label
 _atom_site_symmetry_multiplicity
 _atom_site_fract_x
 _atom_site_fract_y
 _atom_site_fract_z
 _atom_site_occupancy
  Mg  Mg0  1  0.00000000  0.50000000  0.50000000  1
  Mg  Mg1  1  0.50000000  0.50000000  0.50000000  1
  Mg  Mg2  1  0.24154770  -0.00000000  0.50000000  1
  Mg  Mg3  1  0.75845230  0.00000000  0.50000000  1
  Mg  Mg4  1  0.24154770  0.50000000  -0.00000000  1
  Mg  Mg5  1  0.75845230  0.50000000  0.00000000  1
  Ti  Ti0  1  0.50000000  0.00000000  0.00000000  1
  Fe  Fe0  1  0.00000000  0.00000000  0.00000000  1
  O  O0  1  0.26416590  -0.00000000  -0.00000000  1
  O  O1  1  0.73583410  0.00000000  0.00000000  1
  O  O2  1  0.25020654  0.50000000  0.50000000  1
  O  O3  1  0.74979346  0.50000000  0.50000000  1
  O  O4  1  0.00000000  0.00000000  0.50000000  1
  O  O5  1  0.50000000  0.00000000  0.50000000  1
  O  O6  1  0.00000000  0.50000000  0.00000000  1
  O  O7  1  0.50000000  0.50000000  0.00000000  1
loop_
_geom_bond_atom_site_label_1
_geom_bond_atom_site_label_2
_geom_bond_distance
_geom_bond_site_symmetry_2
Mg0 O4 2.137508 1_565
Mg0 O6 2.137508 1_556
Mg0 O6 2.137508 1_555
Mg0 O4 2.137508 1_555
Mg0 O3 2.176448 1_455
Mg0 O2 2.176448 1_555
Mg1 O7 2.137508 1_555
Mg1 O7 2.137508 1_556
Mg1 O5 2.137508 1_555
Mg1 O5 2.137508 1_565
Mg1 O2 2.172854 1_555
Mg1 O3 2.172854 1_555
Mg2 O4 2.101128 1_555
Mg2 O2 2.138835 1_555
Mg2 O2 2.138835 1_545
Mg2 O0 2.146544 1_555
Mg2 O0 2.146544 1_556
Mg2 O5 2.248174 1_555
Mg3 O4 2.101128 1_655
Mg3 O3 2.138835 1_545
Mg3 O3 2.138835 1_555
Mg3 O1 2.146544 1_555
Mg3 O1 2.146544 1_556
Mg3 O5 2.248174 1_555
Mg4 O6 2.101128 1_555
Mg4 O2 2.138835 1_555
Mg4 O2 2.138835 1_554
Mg4 O0 2.146544 1_555
Mg4 O0 2.146544 1_565
Mg4 O7 2.248174 1_555
Mg5 O6 2.101128 1_655
Mg5 O3 2.138835 1_554
Mg5 O3 2.138835 1_555
Mg5 O1 2.146544 1_555
Mg5 O1 2.146544 1_565
Mg5 O7 2.248174 1_555
Fe0 O6 2.137508 1_545
Fe0 O6 2.137508 1_555
Fe0 O4 2.137508 1_555
Fe0 O4 2.137508 1_554
Fe0 O0 2.297875 1_555
Fe0 O1 2.297875 1_455
O0 Ti0 2.051427 1_555
O1 Ti0 2.051427 1_555
O5 Ti0 2.137508 1_556
O5 Ti0 2.137508 1_555
O7 Ti0 2.137508 1_565
O7 Ti0 2.137508 1_555
