# generated using pymatgen
data_ZnP3H16C3NO12
_symmetry_space_group_name_H-M   'P 1'
_cell_length_a   16.36415900
_cell_length_b   9.29858900
_cell_length_c   9.84119727
_cell_angle_alpha   64.65613140
_cell_angle_beta   90.00000000
_cell_angle_gamma   90.00000000
_symmetry_Int_Tables_number   1
_chemical_formula_structural   ZnP3H16C3NO12
_chemical_formula_sum   'Zn4 P12 H64 C12 N4 O48'
_cell_volume   1353.34782866
_cell_formula_units_Z   4
loop_
 _symmetry_equiv_pos_site_id
 _symmetry_equiv_pos_as_xyz
  1  'x, y, z'
loop_
 _atom_site_type_symbol
 _atom_site_label
 _atom_site_symmetry_multiplicity
 _atom_site_fract_x
 _atom_site_fract_y
 _atom_site_fract_z
 _atom_site_occupancy
  Zn  Zn0  1  0.20933400  0.54284300  0.82973400  1
  Zn  Zn1  1  0.70933400  0.45715700  0.67026600  1
  Zn  Zn2  1  0.79066600  0.45715700  0.17026600  1
  Zn  Zn3  1  0.29066600  0.54284300  0.32973400  1
  P  P0  1  0.28431500  0.17701800  0.01029100  1
  P  P1  1  0.78431500  0.82298200  0.48970900  1
  P  P2  1  0.71568500  0.82298200  0.98970900  1
  P  P3  1  0.21568500  0.17701800  0.51029100  1
  P  P4  1  0.38034800  0.54059000  0.61853700  1
  P  P5  1  0.88034800  0.45941000  0.88146300  1
  P  P6  1  0.61965200  0.45941000  0.38146300  1
  P  P7  1  0.11965200  0.54059000  0.11853700  1
  P  P8  1  0.46340900  0.94391900  0.77989100  1
  P  P9  1  0.96340900  0.05608100  0.72010900  1
  P  P10  1  0.53659100  0.05608100  0.22010900  1
  P  P11  1  0.03659100  0.94391900  0.27989100  1
  H  H0  1  0.32478400  0.05262200  0.85272800  1
  H  H1  1  0.82478400  0.94737800  0.64727200  1
  H  H2  1  0.67521600  0.94737800  0.14727200  1
  H  H3  1  0.17521600  0.05262200  0.35272800  1
  H  H4  1  0.52460000  0.20351900  0.70117400  1
  H  H5  1  0.02460000  0.79648100  0.79882600  1
  H  H6  1  0.47540000  0.79648100  0.29882600  1
  H  H7  1  0.97540000  0.20351900  0.20117400  1
  H  H8  1  0.50312600  0.40939800  0.74886000  1
  H  H9  1  0.00312600  0.59060200  0.75114000  1
  H  H10  1  0.49687400  0.59060200  0.25114000  1
  H  H11  1  0.99687400  0.40939800  0.24886000  1
  H  H12  1  0.42613800  0.41208200  0.87589600  1
  H  H13  1  0.92613800  0.58791800  0.62410400  1
  H  H14  1  0.57386200  0.58791800  0.12410400  1
  H  H15  1  0.07386200  0.41208200  0.37589600  1
  H  H16  1  0.29901700  0.25444000  0.73902800  1
  H  H17  1  0.79901700  0.74556000  0.76097200  1
  H  H18  1  0.70098300  0.74556000  0.26097200  1
  H  H19  1  0.20098300  0.25444000  0.23902800  1
  H  H20  1  0.43179400  0.22229700  0.60325200  1
  H  H21  1  0.93179400  0.77770300  0.89674800  1
  H  H22  1  0.56820600  0.77770300  0.39674800  1
  H  H23  1  0.06820600  0.22229700  0.10325200  1
  H  H24  1  0.45202200  0.15739500  0.92405700  1
  H  H25  1  0.95202200  0.84260500  0.57594300  1
  H  H26  1  0.54797800  0.84260500  0.07594300  1
  H  H27  1  0.04797800  0.15739500  0.42405700  1
  H  H28  1  0.59664400  0.92410300  0.76487800  1
  H  H29  1  0.09664400  0.07589700  0.73512200  1
  H  H30  1  0.40335600  0.07589700  0.23512200  1
  H  H31  1  0.90335600  0.92410300  0.26487800  1
  H  H32  1  0.31825500  0.77024200  0.83139900  1
  H  H33  1  0.81825500  0.22975800  0.66860100  1
  H  H34  1  0.68174500  0.22975800  0.16860100  1
  H  H35  1  0.18174500  0.77024200  0.33139900  1
  H  H36  1  0.11052200  0.78099500  0.58376100  1
  H  H37  1  0.61052200  0.21900500  0.91623900  1
  H  H38  1  0.88947800  0.21900500  0.41623900  1
  H  H39  1  0.38947800  0.78099500  0.08376100  1
  H  H40  1  0.16725800  0.40074700  0.64667300  1
  H  H41  1  0.66725800  0.59925300  0.85332700  1
  H  H42  1  0.83274200  0.59925300  0.35332700  1
  H  H43  1  0.33274200  0.40074700  0.14667300  1
  H  H44  1  0.16792300  0.02765200  0.07883000  1
  H  H45  1  0.66792300  0.97234800  0.42117000  1
  H  H46  1  0.83207700  0.97234800  0.92117000  1
  H  H47  1  0.33207700  0.02765200  0.57883000  1
  H  H48  1  0.41690700  0.76535300  0.63035300  1
  H  H49  1  0.91690700  0.23464700  0.86964700  1
  H  H50  1  0.58309300  0.23464700  0.36964700  1
  H  H51  1  0.08309300  0.76535300  0.13035300  1
  H  H52  1  0.11684700  0.31719600  0.79619900  1
  H  H53  1  0.61684700  0.68280400  0.70380100  1
  H  H54  1  0.88315300  0.68280400  0.20380100  1
  H  H55  1  0.38315300  0.31719600  0.29619900  1
  H  H56  1  0.16636400  0.85709300  0.66724600  1
  H  H57  1  0.66636400  0.14290700  0.83275400  1
  H  H58  1  0.83363600  0.14290700  0.33275400  1
  H  H59  1  0.33363600  0.85709300  0.16724600  1
  H  H60  1  0.26833300  0.69024500  0.99052200  1
  H  H61  1  0.76833300  0.30975500  0.50947800  1
  H  H62  1  0.73166700  0.30975500  0.00947800  1
  H  H63  1  0.23166700  0.69024500  0.49052200  1
  C  C0  1  0.46110100  0.16205100  0.71345300  1
  C  C1  1  0.96110100  0.83794900  0.78654700  1
  C  C2  1  0.53889900  0.83794900  0.28654700  1
  C  C3  1  0.03889900  0.16205100  0.21345300  1
  C  C4  1  0.43790800  0.39049800  0.77644800  1
  C  C5  1  0.93790800  0.60950200  0.72355200  1
  C  C6  1  0.56209200  0.60950200  0.22355200  1
  C  C7  1  0.06209200  0.39049800  0.27644800  1
  C  C8  1  0.33135900  0.17463600  0.84133700  1
  C  C9  1  0.83135900  0.82536400  0.65866300  1
  C  C10  1  0.66864100  0.82536400  0.15866300  1
  C  C11  1  0.16864100  0.17463600  0.34133700  1
  N  N0  1  0.42063200  0.21639500  0.82090700  1
  N  N1  1  0.92063200  0.78360500  0.67909300  1
  N  N2  1  0.57936800  0.78360500  0.17909300  1
  N  N3  1  0.07936800  0.21639500  0.32090700  1
  O  O0  1  0.15487300  0.75616100  0.65931400  1
  O  O1  1  0.65487300  0.24383900  0.84068600  1
  O  O2  1  0.84512700  0.24383900  0.34068600  1
  O  O3  1  0.34512700  0.75616100  0.15931400  1
  O  O4  1  0.39208800  0.89366900  0.70790400  1
  O  O5  1  0.89208800  0.10633100  0.79209600  1
  O  O6  1  0.60791200  0.10633100  0.29209600  1
  O  O7  1  0.10791200  0.89366900  0.20790400  1
  O  O8  1  0.29583400  0.56279800  0.66936400  1
  O  O9  1  0.79583400  0.43720200  0.83063600  1
  O  O10  1  0.70416600  0.43720200  0.33063600  1
  O  O11  1  0.20416600  0.56279800  0.16936400  1
  O  O12  1  0.11653000  0.49913400  0.98531700  1
  O  O13  1  0.61653000  0.50086600  0.51468300  1
  O  O14  1  0.88347000  0.50086600  0.01468300  1
  O  O15  1  0.38347000  0.49913400  0.48531700  1
  O  O16  1  0.28220300  0.34591000  0.99765100  1
  O  O17  1  0.78220300  0.65409000  0.50234900  1
  O  O18  1  0.71779700  0.65409000  0.00234900  1
  O  O19  1  0.21779700  0.34591000  0.49765100  1
  O  O20  1  0.46493700  0.86895800  0.95054800  1
  O  O21  1  0.96493700  0.13104200  0.54945200  1
  O  O22  1  0.53506300  0.13104200  0.04945200  1
  O  O23  1  0.03506300  0.86895800  0.45054800  1
  O  O24  1  0.32840600  0.05542300  0.14734700  1
  O  O25  1  0.82840600  0.94457700  0.35265300  1
  O  O26  1  0.67159400  0.94457700  0.85265300  1
  O  O27  1  0.17159400  0.05542300  0.64734700  1
  O  O28  1  0.54496900  0.91267300  0.71090200  1
  O  O29  1  0.04496900  0.08732700  0.78909800  1
  O  O30  1  0.45503100  0.08732700  0.28909800  1
  O  O31  1  0.95503100  0.91267300  0.21090200  1
  O  O32  1  0.19478300  0.12053800  0.99359100  1
  O  O33  1  0.69478300  0.87946200  0.50640900  1
  O  O34  1  0.80521700  0.87946200  0.00640900  1
  O  O35  1  0.30521700  0.12053800  0.49359100  1
  O  O36  1  0.43536400  0.69321300  0.58420800  1
  O  O37  1  0.93536400  0.30678700  0.91579200  1
  O  O38  1  0.56463600  0.30678700  0.41579200  1
  O  O39  1  0.06463600  0.69321300  0.08420800  1
  O  O40  1  0.13859900  0.42009800  0.72594000  1
  O  O41  1  0.63859900  0.57990200  0.77406000  1
  O  O42  1  0.86140100  0.57990200  0.27406000  1
  O  O43  1  0.36140100  0.42009800  0.22594000  1
  O  O44  1  0.26979400  0.70767000  0.88478600  1
  O  O45  1  0.76979400  0.29233000  0.61521400  1
  O  O46  1  0.73020600  0.29233000  0.11521400  1
  O  O47  1  0.23020600  0.70767000  0.38478600  1
loop_
_geom_bond_atom_site_label_1
_geom_bond_atom_site_label_2
_geom_bond_distance
_geom_bond_site_symmetry_2
H24 N0 1.057608 1_555
H25 N1 1.057608 1_555
H26 N2 1.057608 1_555
H27 N3 1.057608 1_555
H28 O28 1.028037 1_555
H28 O26 1.558040 1_555
H29 O29 1.028037 1_555
H29 O27 1.558040 1_555
H30 O30 1.028037 1_555
H30 O24 1.558040 1_555
H31 O31 1.028037 1_555
H31 O25 1.558040 1_555
H32 O44 0.990833 1_555
H32 O4 1.749262 1_555
H33 O45 0.990833 1_555
H33 O5 1.749262 1_555
H34 O46 0.990833 1_555
H34 O6 1.749262 1_555
H35 O47 0.990833 1_555
H35 O7 1.749262 1_555
H36 O0 0.992931 1_555
H37 O1 0.992931 1_555
H38 O2 0.992931 1_555
H39 O3 0.992931 1_555
H40 O40 0.990462 1_555
H41 O41 0.990462 1_555
H42 O42 0.990462 1_555
H43 O43 0.990462 1_555
H44 O32 1.011236 1_554
H44 O7 1.665905 1_545
H45 O33 1.011236 1_555
H45 O6 1.665905 1_565
H46 O34 1.011236 1_556
H46 O5 1.665905 1_565
H47 O35 1.011236 1_555
H47 O4 1.665905 1_545
H48 O36 1.004098 1_555
H48 O4 1.717736 1_555
H49 O37 1.004098 1_555
H49 O5 1.717736 1_555
H50 O38 1.004098 1_555
H50 O6 1.717736 1_555
H51 O39 1.004098 1_555
H51 O7 1.717736 1_555
H52 O40 0.976699 1_555
H53 O41 0.976699 1_555
H54 O42 0.976699 1_555
H55 O43 0.976699 1_555
H56 O0 0.992472 1_555
H57 O1 0.992472 1_555
H58 O2 0.992472 1_555
H59 O3 0.992472 1_555
H60 O44 0.982481 1_555
H61 O45 0.982481 1_555
H62 O46 0.982481 1_555
H63 O47 0.982481 1_555
C0 H20 1.095386 1_555
C0 H4 1.096877 1_555
C0 N0 1.506533 1_555
C0 P8 1.845985 1_545
C1 H21 1.095386 1_555
C1 H5 1.096877 1_655
C1 N1 1.506533 1_555
C1 P9 1.845985 1_565
C2 H22 1.095386 1_555
C2 H6 1.096877 1_555
C2 N2 1.506533 1_555
C2 P10 1.845985 1_565
C3 H23 1.095386 1_555
C3 H7 1.096877 1_455
C3 N3 1.506533 1_555
C3 P11 1.845985 1_545
C4 H8 1.096698 1_555
C4 H12 1.096980 1_555
C4 N0 1.511899 1_555
C4 P4 1.842086 1_555
C5 H9 1.096698 1_655
C5 H13 1.096980 1_555
C5 N1 1.511899 1_555
C5 P5 1.842086 1_555
C6 H10 1.096698 1_555
C6 H14 1.096980 1_555
C6 N2 1.511899 1_555
C6 P6 1.842086 1_555
C7 H11 1.096698 1_455
C7 H15 1.096980 1_555
C7 N3 1.511899 1_555
C7 P7 1.842086 1_555
C8 H0 1.096577 1_555
C8 H16 1.097665 1_555
C8 N0 1.502840 1_555
C8 P0 1.840997 1_556
C9 H1 1.096577 1_555
C9 H17 1.097665 1_555
C9 N1 1.502840 1_555
C9 P1 1.840997 1_555
C10 H2 1.096577 1_555
C10 H18 1.097665 1_555
C10 N2 1.502840 1_555
C10 P2 1.840997 1_554
C11 H3 1.096577 1_555
C11 H19 1.097665 1_555
C11 N3 1.502840 1_555
C11 P3 1.840997 1_555
O0 Zn0 2.166461 1_555
O1 Zn1 2.166461 1_555
O2 Zn2 2.166461 1_555
O3 Zn3 2.166461 1_555
O4 P8 1.538096 1_555
O5 P9 1.538096 1_555
O6 P10 1.538096 1_555
O7 P11 1.538096 1_555
O8 P4 1.514583 1_555
O8 Zn0 2.068377 1_555
O9 P5 1.514583 1_555
O9 Zn1 2.068377 1_555
O10 P6 1.514583 1_555
O10 Zn2 2.068377 1_555
O11 P7 1.514583 1_555
O11 Zn3 2.068377 1_555
O12 P7 1.517466 1_556
O12 Zn0 2.069566 1_555
O13 P6 1.517466 1_555
O13 Zn1 2.069566 1_555
O14 P5 1.517466 1_554
O14 Zn2 2.069566 1_555
O15 P4 1.517466 1_555
O15 Zn3 2.069566 1_555
O16 P0 1.521763 1_556
O16 Zn0 2.217061 1_555
O17 P1 1.521763 1_555
O17 Zn1 2.217061 1_555
O18 P2 1.521763 1_554
O18 Zn2 2.217061 1_555
O19 P3 1.521763 1_555
O19 Zn3 2.217061 1_555
O20 P8 1.518192 1_555
O21 P9 1.518192 1_555
O22 P10 1.518192 1_555
O23 P11 1.518192 1_555
O24 P0 1.520738 1_555
O25 P1 1.520738 1_555
O26 P2 1.520738 1_555
O27 P3 1.520738 1_555
O28 P8 1.579735 1_555
O29 P9 1.579735 1_455
O30 P10 1.579735 1_555
O31 P11 1.579735 1_655
O32 P0 1.588485 1_556
O33 P1 1.588485 1_555
O34 P2 1.588485 1_554
O35 P3 1.588485 1_555
O36 P4 1.590052 1_555
O37 P5 1.590052 1_555
O38 P6 1.590052 1_555
O39 P7 1.590052 1_555
O40 Zn0 2.164254 1_555
O41 Zn1 2.164254 1_555
O42 Zn2 2.164254 1_555
O43 Zn3 2.164254 1_555
O44 Zn0 2.081419 1_555
O45 Zn1 2.081419 1_555
O46 Zn2 2.081419 1_555
O47 Zn3 2.081419 1_555
