# generated using pymatgen
data_Ce(LuS2)3
_symmetry_space_group_name_H-M   'P 1'
_cell_length_a   3.90731125
_cell_length_b   10.91437113
_cell_length_c   11.15488504
_cell_angle_alpha   71.17247344
_cell_angle_beta   90.00000000
_cell_angle_gamma   90.00000000
_symmetry_Int_Tables_number   1
_chemical_formula_structural   Ce(LuS2)3
_chemical_formula_sum   'Ce2 Lu6 S12'
_cell_volume   450.25634139
_cell_formula_units_Z   2
loop_
 _symmetry_equiv_pos_site_id
 _symmetry_equiv_pos_as_xyz
  1  'x, y, z'
loop_
 _atom_site_type_symbol
 _atom_site_label
 _atom_site_symmetry_multiplicity
 _atom_site_fract_x
 _atom_site_fract_y
 _atom_site_fract_z
 _atom_site_occupancy
  Ce  Ce0  1  0.75000000  0.55074732  0.80389623  1
  Ce  Ce1  1  0.25000000  0.44906040  0.19634372  1
  Lu  Lu0  1  0.75000000  0.17858145  0.00001299  1
  Lu  Lu1  1  0.25000000  0.82130716  -0.00002131  1
  Lu  Lu2  1  0.75000000  0.94429208  0.66594561  1
  Lu  Lu3  1  0.25000000  0.05582352  0.33396851  1
  Lu  Lu4  1  0.75000000  0.66127075  0.41183888  1
  Lu  Lu5  1  0.25000000  0.33886056  0.58809241  1
  S  S0  1  0.75000000  0.97813899  0.88786909  1
  S  S1  1  0.25000000  0.02181976  0.11213203  1
  S  S2  1  0.75000000  0.30122012  0.74956313  1
  S  S3  1  0.25000000  0.69873177  0.25040689  1
  S  S4  1  0.75000000  0.89246482  0.44279520  1
  S  S5  1  0.25000000  0.10768285  0.55709750  1
  S  S6  1  0.75000000  0.41815166  0.40961389  1
  S  S7  1  0.25000000  0.58193213  0.59035315  1
  S  S8  1  0.75000000  0.22941202  0.23113332  1
  S  S9  1  0.25000000  0.77064241  0.76883547  1
  S  S10  1  0.75000000  0.62230745  0.03498672  1
  S  S11  1  0.25000000  0.37755376  0.96513457  1
loop_
_geom_bond_atom_site_label_1
_geom_bond_atom_site_label_2
_geom_bond_distance
_geom_bond_site_symmetry_2
Ce0 S11 2.903536 1_555
Ce0 S11 2.903536 1_655
Ce0 S10 2.924807 1_556
Ce0 S2 2.974860 1_555
Ce0 S7 3.013880 1_655
Ce0 S7 3.013880 1_555
Ce0 S9 3.020591 1_555
Ce0 S9 3.020591 1_655
Ce1 S10 2.904341 1_555
Ce1 S10 2.904341 1_455
Ce1 S11 2.925766 1_554
Ce1 S3 2.974902 1_555
Ce1 S6 3.012015 1_455
Ce1 S6 3.012015 1_555
Ce1 S8 3.018949 1_455
Ce1 S8 3.018949 1_555
Lu0 S1 2.631954 1_655
Lu0 S1 2.631954 1_555
Lu0 S2 2.680113 1_554
Lu0 S8 2.806718 1_555
Lu0 S0 2.849090 1_544
Lu0 S11 2.852875 1_554
Lu0 S11 2.852875 1_654
Lu1 S0 2.632306 1_454
Lu1 S0 2.632306 1_554
Lu1 S3 2.679788 1_555
Lu1 S9 2.806075 1_554
Lu1 S1 2.849859 1_565
Lu1 S10 2.852932 1_555
Lu1 S10 2.852932 1_455
Lu2 S0 2.618202 1_555
Lu2 S5 2.659634 1_565
Lu2 S5 2.659634 1_665
Lu2 S9 2.705941 1_555
Lu2 S9 2.705941 1_655
Lu2 S4 2.724884 1_555
Lu3 S1 2.618005 1_555
Lu3 S4 2.659394 1_445
Lu3 S4 2.659394 1_545
Lu3 S8 2.705444 1_455
Lu3 S8 2.705444 1_555
Lu3 S5 2.724825 1_555
Lu4 S3 2.598354 1_555
Lu4 S3 2.598354 1_655
Lu4 S4 2.654972 1_555
Lu4 S6 2.661605 1_555
Lu4 S7 2.723775 1_655
Lu4 S7 2.723775 1_555
Lu5 S2 2.598503 1_455
Lu5 S2 2.598503 1_555
Lu5 S5 2.654983 1_555
Lu5 S7 2.661219 1_555
Lu5 S6 2.723482 1_455
Lu5 S6 2.723482 1_555
