# generated using pymatgen
data_Zr6CoSn2
_symmetry_space_group_name_H-M   'P 1'
_cell_length_a   7.97975890
_cell_length_b   7.97975890
_cell_length_c   3.49569417
_cell_angle_alpha   90.00000000
_cell_angle_beta   90.00000000
_cell_angle_gamma   119.99999406
_symmetry_Int_Tables_number   1
_chemical_formula_structural   Zr6CoSn2
_chemical_formula_sum   'Zr6 Co1 Sn2'
_cell_volume   192.77185563
_cell_formula_units_Z   1
loop_
 _symmetry_equiv_pos_site_id
 _symmetry_equiv_pos_as_xyz
  1  'x, y, z'
loop_
 _atom_site_type_symbol
 _atom_site_label
 _atom_site_symmetry_multiplicity
 _atom_site_fract_x
 _atom_site_fract_y
 _atom_site_fract_z
 _atom_site_occupancy
  Zr  Zr0  1  0.23963736  0.00000000  0.50000000  1
  Zr  Zr1  1  0.00000000  0.23963736  0.50000000  1
  Zr  Zr2  1  0.76036264  0.76036264  0.50000000  1
  Zr  Zr3  1  0.60299866  0.00000000  -0.00000000  1
  Zr  Zr4  1  0.00000000  0.60299866  -0.00000000  1
  Zr  Zr5  1  0.39700134  0.39700134  0.00000000  1
  Co  Co0  1  0.00000000  -0.00000000  0.00000000  1
  Sn  Sn0  1  0.33333300  0.66666700  0.50000000  1
  Sn  Sn1  1  0.66666700  0.33333300  0.50000000  1
loop_
_geom_bond_atom_site_label_1
_geom_bond_atom_site_label_2
_geom_bond_distance
_geom_bond_site_symmetry_2
Co0 Zr0 2.590688 1_555
Co0 Zr0 2.590688 1_554
Co0 Zr1 2.590688 1_555
Co0 Zr1 2.590688 1_554
Co0 Zr2 2.590688 1_445
Co0 Zr2 2.590688 1_444
Co0 Zr3 3.167975 1_455
Co0 Zr4 3.167975 1_545
Co0 Zr5 3.167975 1_555
Sn0 Zr4 3.006137 1_555
Sn0 Zr4 3.006137 1_556
Sn0 Zr3 3.006139 1_566
Sn0 Zr3 3.006139 1_565
Sn0 Zr5 3.006143 1_555
Sn0 Zr5 3.006143 1_556
Sn0 Zr0 3.102080 1_565
Sn0 Zr1 3.102086 1_555
Sn0 Zr2 3.102088 1_555
Sn1 Zr3 3.006137 1_555
Sn1 Zr3 3.006137 1_556
Sn1 Zr4 3.006139 1_656
Sn1 Zr4 3.006139 1_655
Sn1 Zr5 3.006143 1_556
Sn1 Zr5 3.006143 1_555
Sn1 Zr1 3.102080 1_655
Sn1 Zr0 3.102086 1_555
Sn1 Zr2 3.102088 1_555
