# generated using pymatgen
data_K6Mo7O34
_symmetry_space_group_name_H-M   'P 1'
_cell_length_a   10.71218061
_cell_length_b   10.71218061
_cell_length_c   19.14652200
_cell_angle_alpha   90.00000000
_cell_angle_beta   90.00000000
_cell_angle_gamma   131.20948229
_symmetry_Int_Tables_number   1
_chemical_formula_structural   K6Mo7O34
_chemical_formula_sum   'K12 Mo14 O68'
_cell_volume   1652.87544575
_cell_formula_units_Z   2
loop_
 _symmetry_equiv_pos_site_id
 _symmetry_equiv_pos_as_xyz
  1  'x, y, z'
loop_
 _atom_site_type_symbol
 _atom_site_label
 _atom_site_symmetry_multiplicity
 _atom_site_fract_x
 _atom_site_fract_y
 _atom_site_fract_z
 _atom_site_occupancy
  K  K0  1  0.61384000  0.61384000  0.50000000  1
  K  K1  1  0.61384000  0.61384000  0.00000000  1
  K  K2  1  0.23196500  0.50402000  0.25000000  1
  K  K3  1  0.50402000  0.23196500  0.75000000  1
  K  K4  1  0.96437100  0.14344800  0.38852300  1
  K  K5  1  0.14344800  0.96437100  0.61147700  1
  K  K6  1  0.96437100  0.14344800  0.11147700  1
  K  K7  1  0.14344800  0.96437100  0.88852300  1
  K  K8  1  0.74271900  0.33327800  0.46052200  1
  K  K9  1  0.33327800  0.74271900  0.53947800  1
  K  K10  1  0.74271900  0.33327800  0.03947800  1
  K  K11  1  0.33327800  0.74271900  0.96052200  1
  Mo  Mo0  1  0.19107800  0.91210300  0.41973200  1
  Mo  Mo1  1  0.91210300  0.19107800  0.58026800  1
  Mo  Mo2  1  0.19107800  0.91210300  0.08026800  1
  Mo  Mo3  1  0.91210300  0.19107800  0.91973200  1
  Mo  Mo4  1  0.14457100  0.87722400  0.25000000  1
  Mo  Mo5  1  0.87722400  0.14457100  0.75000000  1
  Mo  Mo6  1  0.37330100  0.26050000  0.33779900  1
  Mo  Mo7  1  0.26050000  0.37330100  0.66220100  1
  Mo  Mo8  1  0.37330100  0.26050000  0.16220100  1
  Mo  Mo9  1  0.26050000  0.37330100  0.83779900  1
  Mo  Mo10  1  0.45665700  0.90761300  0.33717600  1
  Mo  Mo11  1  0.90761300  0.45665700  0.66282400  1
  Mo  Mo12  1  0.45665700  0.90761300  0.16282400  1
  Mo  Mo13  1  0.90761300  0.45665700  0.83717600  1
  O  O0  1  0.96901100  0.80672500  0.47216500  1
  O  O1  1  0.80672500  0.96901100  0.52783500  1
  O  O2  1  0.96901100  0.80672500  0.02783500  1
  O  O3  1  0.80672500  0.96901100  0.97216500  1
  O  O4  1  0.99064800  0.69278500  0.46509800  1
  O  O5  1  0.69278500  0.99064800  0.53490200  1
  O  O6  1  0.99064800  0.69278500  0.03490200  1
  O  O7  1  0.69278500  0.99064800  0.96509800  1
  O  O8  1  0.01699700  0.77798100  0.32565800  1
  O  O9  1  0.77798100  0.01699700  0.67434200  1
  O  O10  1  0.01699700  0.77798100  0.17434200  1
  O  O11  1  0.77798100  0.01699700  0.82565800  1
  O  O12  1  0.31774800  0.00412000  0.49316400  1
  O  O13  1  0.00412000  0.31774800  0.50683600  1
  O  O14  1  0.31774800  0.00412000  0.00683600  1
  O  O15  1  0.00412000  0.31774800  0.99316400  1
  O  O16  1  0.34949500  0.03612200  0.33764900  1
  O  O17  1  0.03612200  0.34949500  0.66235100  1
  O  O18  1  0.34949500  0.03612200  0.16235100  1
  O  O19  1  0.03612200  0.34949500  0.83764900  1
  O  O20  1  0.18560100  0.08725700  0.39824400  1
  O  O21  1  0.08725700  0.18560100  0.60175600  1
  O  O22  1  0.18560100  0.08725700  0.10175600  1
  O  O23  1  0.08725700  0.18560100  0.89824400  1
  O  O24  1  0.25933700  0.78433200  0.39789500  1
  O  O25  1  0.78433200  0.25933700  0.60210500  1
  O  O26  1  0.25933700  0.78433200  0.10210500  1
  O  O27  1  0.78433200  0.25933700  0.89789500  1
  O  O28  1  0.19069700  0.08105200  0.25000000  1
  O  O29  1  0.08105200  0.19069700  0.75000000  1
  O  O30  1  0.25723500  0.79477300  0.25000000  1
  O  O31  1  0.79477300  0.25723500  0.75000000  1
  O  O32  1  0.53575100  0.36479100  0.39827000  1
  O  O33  1  0.36479100  0.53575100  0.60173000  1
  O  O34  1  0.53575100  0.36479100  0.10173000  1
  O  O35  1  0.36479100  0.53575100  0.89827000  1
  O  O36  1  0.49445500  0.33181100  0.25000000  1
  O  O37  1  0.33181100  0.49445500  0.75000000  1
  O  O38  1  0.30322000  0.37085900  0.33752700  1
  O  O39  1  0.37085900  0.30322000  0.66247300  1
  O  O40  1  0.30322000  0.37085900  0.16247300  1
  O  O41  1  0.37085900  0.30322000  0.83752700  1
  O  O42  1  0.61649900  0.05158900  0.39564500  1
  O  O43  1  0.05158900  0.61649900  0.60435500  1
  O  O44  1  0.61649900  0.05158900  0.10435500  1
  O  O45  1  0.05158900  0.61649900  0.89564500  1
  O  O46  1  0.56871800  0.02337400  0.25000000  1
  O  O47  1  0.02337400  0.56871800  0.75000000  1
  O  O48  1  0.46188700  0.74828100  0.33354300  1
  O  O49  1  0.74828100  0.46188700  0.66645700  1
  O  O50  1  0.46188700  0.74828100  0.16645700  1
  O  O51  1  0.74828100  0.46188700  0.83354300  1
  O  O52  1  0.93166400  0.11646200  0.25000000  1
  O  O53  1  0.11646200  0.93166400  0.75000000  1
  O  O54  1  0.86368200  0.38186400  0.25000000  1
  O  O55  1  0.38186400  0.86368200  0.75000000  1
  O  O56  1  0.80037600  0.80530300  0.38006800  1
  O  O57  1  0.80530300  0.80037600  0.61993200  1
  O  O58  1  0.80037600  0.80530300  0.11993200  1
  O  O59  1  0.80530300  0.80037600  0.88006800  1
  O  O60  1  0.34072000  0.53519400  0.42617600  1
  O  O61  1  0.53519400  0.34072000  0.57382400  1
  O  O62  1  0.34072000  0.53519400  0.07382400  1
  O  O63  1  0.53519400  0.34072000  0.92617600  1
  O  O64  1  0.92972900  0.38435000  0.30786500  1
  O  O65  1  0.38435000  0.92972900  0.69213500  1
  O  O66  1  0.92972900  0.38435000  0.19213500  1
  O  O67  1  0.38435000  0.92972900  0.80786500  1
loop_
_geom_bond_atom_site_label_1
_geom_bond_atom_site_label_2
_geom_bond_distance
_geom_bond_site_symmetry_2
K0 O61 2.831912 1_555
K0 O60 2.831912 1_555
K0 O56 2.841171 1_555
K0 O57 2.841171 1_555
K0 O1 2.944570 1_555
K0 O0 2.944570 1_555
K0 O33 2.944575 1_555
K0 O32 2.944575 1_555
K1 O62 2.831912 1_555
K1 O63 2.831912 1_554
K1 O58 2.841171 1_555
K1 O59 2.841171 1_554
K1 O2 2.944570 1_555
K1 O3 2.944570 1_554
K1 O34 2.944575 1_555
K1 O35 2.944575 1_554
K2 O40 2.619242 1_555
K2 O38 2.619242 1_555
K2 O48 2.641919 1_555
K2 O50 2.641919 1_555
K2 O66 2.807892 1_455
K2 O64 2.807892 1_455
K2 O30 2.943313 1_555
K2 O52 3.160202 1_455
K3 O39 2.619242 1_555
K3 O41 2.619242 1_555
K3 O49 2.641919 1_555
K3 O51 2.641919 1_555
K3 O67 2.807892 1_545
K3 O65 2.807892 1_545
K3 O31 2.943313 1_555
K3 O53 3.160202 1_545
K4 O52 2.665935 1_555
K4 O13 2.784143 1_655
K4 O56 2.801536 1_545
K4 O20 2.809404 1_655
K4 O38 2.900384 1_655
K4 O1 3.049644 1_545
K4 O42 3.168887 1_555
K4 O64 3.231696 1_555
K5 O53 2.665935 1_555
K5 O12 2.784143 1_565
K5 O57 2.801536 1_455
K5 O21 2.809404 1_565
K5 O39 2.900384 1_565
K5 O0 3.049644 1_455
K5 O43 3.168887 1_555
K5 O65 3.231696 1_555
K6 O52 2.665935 1_555
K6 O15 2.784143 1_654
K6 O58 2.801536 1_545
K6 O22 2.809404 1_655
K6 O40 2.900384 1_655
K6 O3 3.049644 1_544
K6 O44 3.168887 1_555
K6 O66 3.231696 1_555
K7 O53 2.665935 1_555
K7 O14 2.784143 1_566
K7 O59 2.801536 1_455
K7 O23 2.809404 1_565
K7 O41 2.900384 1_565
K7 O2 3.049644 1_456
K7 O45 3.168887 1_555
K7 O67 3.231696 1_555
K8 O42 2.664699 1_555
K8 O32 2.726937 1_555
K8 O4 2.900962 1_555
K8 O25 2.939364 1_555
K8 O13 3.044468 1_655
K8 O61 3.144492 1_555
K8 O64 3.378079 1_555
K9 O43 2.664699 1_555
K9 O33 2.726937 1_555
K9 O5 2.900962 1_555
K9 O24 2.939364 1_555
K9 O12 3.044468 1_565
K9 O60 3.144492 1_555
K9 O65 3.378079 1_555
K10 O44 2.664699 1_555
K10 O34 2.726937 1_555
K10 O6 2.900962 1_555
K10 O27 2.939364 1_554
K10 O15 3.044468 1_654
K10 O63 3.144492 1_554
K10 O66 3.378079 1_555
K11 O45 2.664699 1_555
K11 O35 2.726937 1_555
K11 O7 2.900962 1_555
K11 O26 2.939364 1_556
K11 O14 3.044468 1_566
K11 O62 3.144492 1_556
K11 O67 3.378079 1_555
Mo0 O12 1.739891 1_565
Mo0 O20 1.959129 1_565
Mo0 O24 1.975223 1_555
Mo0 O16 2.035708 1_565
Mo0 O4 2.058502 1_455
Mo0 O0 2.098256 1_455
Mo0 O8 2.292538 1_555
Mo1 O13 1.739891 1_655
Mo1 O21 1.959129 1_655
Mo1 O25 1.975223 1_555
Mo1 O17 2.035708 1_655
Mo1 O5 2.058502 1_545
Mo1 O1 2.098256 1_545
Mo1 O9 2.292538 1_555
Mo2 O14 1.739891 1_565
Mo2 O22 1.959129 1_565
Mo2 O26 1.975223 1_555
Mo2 O18 2.035708 1_565
Mo2 O6 2.058502 1_455
Mo2 O2 2.098256 1_455
Mo2 O10 2.292538 1_555
Mo3 O15 1.739891 1_655
Mo3 O23 1.959129 1_655
Mo3 O27 1.975223 1_555
Mo3 O19 2.035708 1_655
Mo3 O7 2.058502 1_545
Mo3 O3 2.098256 1_545
Mo3 O11 2.292538 1_555
Mo4 O10 1.783785 1_555
Mo4 O8 1.783785 1_555
Mo4 O28 1.894737 1_565
Mo4 O30 1.908186 1_555
Mo4 O16 2.368343 1_565
Mo4 O18 2.368343 1_565
Mo5 O11 1.783785 1_555
Mo5 O9 1.783785 1_555
Mo5 O29 1.894737 1_655
Mo5 O31 1.908186 1_555
Mo5 O19 2.368343 1_655
Mo5 O17 2.368343 1_655
Mo6 O32 1.747934 1_555
Mo6 O38 1.769337 1_555
Mo6 O36 1.946149 1_555
Mo6 O20 1.977266 1_555
Mo6 O16 2.243789 1_555
Mo6 O28 2.322257 1_555
Mo7 O33 1.747934 1_555
Mo7 O39 1.769337 1_555
Mo7 O37 1.946149 1_555
Mo7 O21 1.977266 1_555
Mo7 O17 2.243789 1_555
Mo7 O29 2.322257 1_555
Mo8 O34 1.747934 1_555
Mo8 O40 1.769337 1_555
Mo8 O36 1.946149 1_555
Mo8 O22 1.977266 1_555
Mo8 O18 2.243789 1_555
Mo8 O28 2.322257 1_555
Mo9 O35 1.747934 1_555
Mo9 O41 1.769337 1_555
Mo9 O37 1.946149 1_555
Mo9 O23 1.977266 1_555
Mo9 O19 2.243789 1_555
Mo9 O29 2.322257 1_555
Mo10 O48 1.745599 1_555
Mo10 O42 1.756169 1_565
Mo10 O46 1.950202 1_565
Mo10 O24 1.971131 1_555
Mo10 O16 2.301110 1_565
Mo10 O30 2.325555 1_555
Mo11 O49 1.745599 1_555
Mo11 O43 1.756169 1_655
Mo11 O47 1.950202 1_655
Mo11 O25 1.971131 1_555
Mo11 O17 2.301110 1_655
Mo11 O31 2.325555 1_555
Mo12 O50 1.745599 1_555
Mo12 O44 1.756169 1_565
Mo12 O46 1.950202 1_565
Mo12 O26 1.971131 1_555
Mo12 O18 2.301110 1_565
Mo12 O30 2.325555 1_555
Mo13 O51 1.745599 1_555
Mo13 O45 1.756169 1_655
Mo13 O47 1.950202 1_655
Mo13 O27 1.971131 1_555
Mo13 O19 2.301110 1_655
Mo13 O31 2.325555 1_555
O0 O4 1.390869 1_555
O1 O5 1.390869 1_555
O2 O6 1.390869 1_555
O3 O7 1.390869 1_555
O54 O66 1.305344 1_555
O54 O64 1.305344 1_555
O55 O67 1.305344 1_555
O55 O65 1.305344 1_555
