# generated using pymatgen
data_LaGa3Fe10C
_symmetry_space_group_name_H-M   'P 1'
_cell_length_a   8.37720831
_cell_length_b   8.29669106
_cell_length_c   8.24844432
_cell_angle_alpha   60.83780787
_cell_angle_beta   59.86565679
_cell_angle_gamma   59.29653534
_symmetry_Int_Tables_number   1
_chemical_formula_structural   LaGa3Fe10C
_chemical_formula_sum   'La2 Ga6 Fe20 C2'
_cell_volume   405.22840946
_cell_formula_units_Z   2
loop_
 _symmetry_equiv_pos_site_id
 _symmetry_equiv_pos_as_xyz
  1  'x, y, z'
loop_
 _atom_site_type_symbol
 _atom_site_label
 _atom_site_symmetry_multiplicity
 _atom_site_fract_x
 _atom_site_fract_y
 _atom_site_fract_z
 _atom_site_occupancy
  La  La0  1  0.24857700  0.25142300  0.25142300  1
  La  La1  1  0.74857700  0.75142300  0.75142300  1
  Ga  Ga0  1  0.80436300  0.55764700  0.19563700  1
  Ga  Ga1  1  0.44235300  0.19563700  0.55764700  1
  Ga  Ga2  1  0.06336000  0.93664000  0.30385000  1
  Ga  Ga3  1  0.69615000  0.30385000  0.93664000  1
  Ga  Ga4  1  0.19599500  0.43855400  0.80400500  1
  Ga  Ga5  1  0.56144600  0.80400500  0.43855400  1
  Fe  Fe0  1  0.93750900  0.71045900  0.28652700  1
  Fe  Fe1  1  0.06550500  0.28652700  0.71045900  1
  Fe  Fe2  1  0.56831200  0.20851900  0.78535200  1
  Fe  Fe3  1  0.43781700  0.78535200  0.20851900  1
  Fe  Fe4  1  0.79148100  0.43168800  0.56218300  1
  Fe  Fe5  1  0.21464800  0.56218300  0.43168800  1
  Fe  Fe6  1  0.28954100  0.06249100  0.93449500  1
  Fe  Fe7  1  0.71347300  0.93449500  0.06249100  1
  Fe  Fe8  1  0.00146400  0.99853600  0.99853600  1
  Fe  Fe9  1  0.49875000  0.50125000  0.50125000  1
  Fe  Fe10  1  0.21160200  0.78839800  0.57191300  1
  Fe  Fe11  1  0.42808700  0.57191300  0.78839800  1
  Fe  Fe12  1  0.93675800  0.28141100  0.06324200  1
  Fe  Fe13  1  0.71858900  0.06324200  0.28141100  1
  Fe  Fe14  1  0.78668500  0.21331500  0.43839800  1
  Fe  Fe15  1  0.56160200  0.43839800  0.21331500  1
  Fe  Fe16  1  0.06324100  0.71414900  0.93675900  1
  Fe  Fe17  1  0.28585100  0.93675900  0.71414900  1
  Fe  Fe18  1  0.93583900  0.06416100  0.70574500  1
  Fe  Fe19  1  0.29425500  0.70574500  0.06416100  1
  C  C0  1  0.49908600  0.00091400  0.00091400  1
  C  C1  1  0.99908600  0.50091400  0.50091400  1
loop_
_geom_bond_atom_site_label_1
_geom_bond_atom_site_label_2
_geom_bond_distance
_geom_bond_site_symmetry_2
Ga0 Ga5 2.825490 1_555
Ga0 La1 3.382257 1_554
Ga0 La0 3.382257 1_655
Ga1 Ga4 2.825490 1_555
Ga1 La1 3.382257 1_545
Ga1 La0 3.382257 1_555
Ga2 La0 3.432052 1_565
Ga2 La1 3.432052 1_455
Ga3 La1 3.432052 1_555
Ga3 La0 3.432052 1_556
Ga4 La0 3.402076 1_556
Ga4 La1 3.402076 1_455
Ga5 La1 3.402076 1_555
Ga5 La0 3.402076 1_565
Fe0 Fe8 2.477710 1_654
Fe0 Fe16 2.515862 1_654
Fe0 Fe13 2.531366 1_565
Fe0 Ga5 2.566064 1_555
Fe0 Ga0 2.573631 1_555
Fe0 Fe19 2.596898 1_655
Fe0 Ga2 2.662008 1_655
Fe1 Fe8 2.477710 1_545
Fe1 Fe17 2.515862 1_545
Fe1 Fe12 2.531366 1_456
Fe1 Ga4 2.566064 1_555
Fe1 Ga1 2.573631 1_555
Fe1 Fe18 2.596898 1_455
Fe1 Ga3 2.662008 1_455
Fe2 Fe9 2.471611 1_555
Fe2 Ga3 2.549192 1_555
Fe2 Ga1 2.636896 1_555
Fe2 Ga4 2.668282 1_555
Fe3 Fe9 2.471611 1_555
Fe3 Ga2 2.549192 1_555
Fe3 Ga0 2.636896 1_555
Fe3 Ga5 2.668282 1_555
Fe4 Fe9 2.471611 1_555
Fe4 Ga3 2.549192 1_555
Fe4 Ga0 2.636896 1_555
Fe4 Ga5 2.668282 1_555
Fe5 Fe9 2.471611 1_555
Fe5 Ga2 2.549192 1_555
Fe5 Ga1 2.636896 1_555
Fe5 Ga4 2.668282 1_555
Fe6 Fe8 2.477710 1_545
Fe6 Ga4 2.566064 1_555
Fe6 Ga1 2.573631 1_555
Fe6 Ga2 2.662008 1_546
Fe7 Fe8 2.477710 1_654
Fe7 Ga5 2.566064 1_555
Fe7 Ga0 2.573631 1_555
Fe7 Ga3 2.662008 1_564
Fe8 Ga2 2.579450 1_556
Fe8 Ga3 2.579450 1_465
Fe9 Ga5 2.580952 1_555
Fe9 Ga4 2.580952 1_555
Fe9 Ga0 2.592659 1_555
Fe9 Ga1 2.592659 1_555
Fe10 Fe9 2.427993 1_555
Fe10 Fe16 2.490065 1_555
Fe10 Fe17 2.490065 1_555
Fe10 Fe18 2.508663 1_465
Fe10 Ga2 2.547711 1_555
Fe10 Fe11 2.550105 1_555
Fe10 Ga4 2.612988 1_555
Fe10 Ga5 2.612988 1_555
Fe10 Fe5 2.626413 1_555
Fe10 Fe3 2.626413 1_555
Fe10 La1 3.512528 1_455
Fe10 La0 3.512528 1_565
Fe11 Fe9 2.427993 1_555
Fe11 Fe17 2.490065 1_555
Fe11 Fe16 2.490065 1_555
Fe11 Fe19 2.508663 1_556
Fe11 Ga3 2.547711 1_555
Fe11 Ga4 2.612988 1_555
Fe11 Ga5 2.612988 1_555
Fe11 Fe4 2.626413 1_555
Fe11 Fe2 2.626413 1_555
Fe11 La1 3.512528 1_555
Fe11 La0 3.512528 1_556
Fe12 Fe8 2.391213 1_644
Fe12 Ga0 2.510485 1_555
Fe12 Fe6 2.531366 1_654
Fe12 Ga4 2.549551 1_654
Fe12 Fe14 2.567249 1_555
Fe12 Fe15 2.567249 1_555
Fe12 Ga3 2.593960 1_554
Fe12 Ga2 2.593960 1_645
Fe12 Fe13 2.599342 1_555
Fe12 La1 3.510797 1_554
Fe12 La0 3.510797 1_655
Fe13 Fe8 2.391213 1_644
Fe13 Ga1 2.510485 1_555
Fe13 Fe7 2.531366 1_545
Fe13 Ga5 2.549551 1_545
Fe13 Fe15 2.567249 1_555
Fe13 Fe14 2.567249 1_555
Fe13 Ga3 2.593960 1_554
Fe13 Ga2 2.593960 1_645
Fe13 La0 3.510797 1_555
Fe13 La1 3.510797 1_545
Fe14 Fe9 2.420925 1_555
Fe14 Fe2 2.499000 1_555
Fe14 Fe4 2.499000 1_555
Fe14 Ga2 2.517912 1_645
Fe14 Fe18 2.546286 1_555
Fe14 Ga1 2.598505 1_555
Fe14 Ga0 2.598505 1_555
Fe14 Fe15 2.651385 1_555
Fe14 La1 3.497546 1_545
Fe14 La0 3.497546 1_655
Fe15 Fe9 2.420925 1_555
Fe15 Fe3 2.499000 1_555
Fe15 Fe5 2.499000 1_555
Fe15 Ga3 2.517912 1_554
Fe15 Fe19 2.546286 1_555
Fe15 Ga1 2.598505 1_555
Fe15 Ga0 2.598505 1_555
Fe15 La0 3.497546 1_555
Fe15 La1 3.497546 1_554
Fe16 Fe8 2.398872 1_555
Fe16 Ga4 2.506926 1_555
Fe16 Fe7 2.515862 1_456
Fe16 Ga0 2.544133 1_456
Fe16 Fe18 2.585949 1_465
Fe16 Fe19 2.585949 1_556
Fe16 Fe17 2.652253 1_555
Fe16 La1 3.483403 1_455
Fe16 La0 3.483403 1_556
Fe17 Fe8 2.398872 1_555
Fe17 Ga5 2.506926 1_555
Fe17 Fe6 2.515862 1_565
Fe17 Ga1 2.544133 1_565
Fe17 Fe18 2.585949 1_465
Fe17 Fe19 2.585949 1_556
Fe17 La0 3.483403 1_565
Fe17 La1 3.483403 1_555
Fe18 Fe8 2.485391 1_645
Fe18 Fe4 2.513138 1_555
Fe18 Fe2 2.513138 1_555
Fe18 Fe7 2.596898 1_546
Fe18 Ga3 2.717975 1_555
Fe18 La0 3.456259 1_655
Fe18 La1 3.456259 1_545
Fe19 Fe8 2.485391 1_554
Fe19 Fe3 2.513138 1_555
Fe19 Fe5 2.513138 1_555
Fe19 Fe6 2.596898 1_564
Fe19 Ga2 2.717975 1_555
Fe19 La1 3.456259 1_554
Fe19 La0 3.456259 1_555
C0 Fe7 1.849218 1_545
C0 Fe6 1.849218 1_554
C0 Fe2 1.861343 1_554
C0 Fe3 1.861343 1_545
C0 La1 2.881471 1_544
C0 La0 2.893228 1_555
C1 Fe0 1.849218 1_555
C1 Fe1 1.849218 1_655
C1 Fe4 1.861343 1_555
C1 Fe5 1.861343 1_655
C1 La0 2.881471 1_655
C1 La1 2.893228 1_555
