# generated using pymatgen
data_Eu2Ni3Sb4
_symmetry_space_group_name_H-M   'P 1'
_cell_length_a   4.35765624
_cell_length_b   4.35765624
_cell_length_c   10.59829196
_cell_angle_alpha   90.00000000
_cell_angle_beta   90.00000000
_cell_angle_gamma   90.00000000
_symmetry_Int_Tables_number   1
_chemical_formula_structural   Eu2Ni3Sb4
_chemical_formula_sum   'Eu2 Ni3 Sb4'
_cell_volume   201.25274555
_cell_formula_units_Z   1
loop_
 _symmetry_equiv_pos_site_id
 _symmetry_equiv_pos_as_xyz
  1  'x, y, z'
loop_
 _atom_site_type_symbol
 _atom_site_label
 _atom_site_symmetry_multiplicity
 _atom_site_fract_x
 _atom_site_fract_y
 _atom_site_fract_z
 _atom_site_occupancy
  Eu  Eu0  1  0.50000000  -0.00000000  0.75595477  1
  Eu  Eu1  1  0.00000000  0.50000000  0.24404523  1
  Ni  Ni0  1  0.00000000  0.00000000  0.50000000  1
  Ni  Ni1  1  -0.00000000  -0.00000000  0.00000000  1
  Ni  Ni2  1  0.50000000  0.50000000  0.50000000  1
  Sb  Sb0  1  0.00000000  0.50000000  0.89482778  1
  Sb  Sb1  1  0.50000000  -0.00000000  0.38404955  1
  Sb  Sb2  1  0.50000000  0.00000000  0.10517222  1
  Sb  Sb3  1  -0.00000000  0.50000000  0.61595045  1
loop_
_geom_bond_atom_site_label_1
_geom_bond_atom_site_label_2
_geom_bond_distance
_geom_bond_site_symmetry_2
Eu0 Ni1 3.381875 1_656
Eu0 Ni1 3.381875 1_556
Eu0 Sb0 3.414796 1_655
Eu0 Sb0 3.414796 1_555
Eu0 Sb0 3.414796 1_545
Eu0 Sb0 3.414796 1_645
Eu0 Sb3 3.419980 1_655
Eu0 Sb3 3.419980 1_545
Eu0 Sb3 3.419980 1_645
Eu0 Sb3 3.419980 1_555
Eu0 Ni0 3.479360 1_555
Eu0 Ni0 3.479360 1_655
Eu0 Ni2 3.479360 1_555
Eu0 Ni2 3.479360 1_545
Eu0 Sb2 3.701108 1_556
Eu1 Ni1 3.381875 1_555
Eu1 Ni1 3.381875 1_565
Eu1 Sb2 3.414796 1_555
Eu1 Sb2 3.414796 1_455
Eu1 Sb2 3.414796 1_565
Eu1 Sb2 3.414796 1_465
Eu1 Sb1 3.419980 1_565
Eu1 Sb1 3.419980 1_455
Eu1 Sb1 3.419980 1_465
Eu1 Sb1 3.419980 1_555
Eu1 Ni0 3.479360 1_555
Eu1 Ni0 3.479360 1_565
Eu1 Ni2 3.479360 1_455
Eu1 Ni2 3.479360 1_555
Eu1 Sb0 3.701108 1_554
Ni0 Sb1 2.501486 1_455
Ni0 Sb1 2.501486 1_555
Ni0 Sb3 2.501486 1_555
Ni0 Sb3 2.501486 1_545
Ni1 Sb2 2.447392 1_555
Ni1 Sb2 2.447392 1_455
Ni1 Sb0 2.447392 1_544
Ni1 Sb0 2.447392 1_554
Ni2 Sb1 2.501486 1_555
Ni2 Sb1 2.501486 1_565
Ni2 Sb3 2.501486 1_555
Ni2 Sb3 2.501486 1_655
Sb0 Sb3 2.955623 1_555
Sb1 Sb2 2.955623 1_555
