# generated using pymatgen
data_Ce3Se2NO
_symmetry_space_group_name_H-M   'P 1'
_cell_length_a   12.42224800
_cell_length_b   12.42224800
_cell_length_c   9.36708296
_cell_angle_alpha   84.60817536
_cell_angle_beta   84.60817536
_cell_angle_gamma   18.58563533
_symmetry_Int_Tables_number   1
_chemical_formula_structural   Ce3Se2NO
_chemical_formula_sum   'Ce9 Se6 N3 O3'
_cell_volume   458.60492987
_cell_formula_units_Z   3
loop_
 _symmetry_equiv_pos_site_id
 _symmetry_equiv_pos_as_xyz
  1  'x, y, z'
loop_
 _atom_site_type_symbol
 _atom_site_label
 _atom_site_symmetry_multiplicity
 _atom_site_fract_x
 _atom_site_fract_y
 _atom_site_fract_z
 _atom_site_occupancy
  Ce  Ce0  1  0.46245100  0.46245100  0.67915400  1
  Ce  Ce1  1  0.53847300  0.53847300  0.32099100  1
  Ce  Ce2  1  0.09016800  0.09016800  0.64756000  1
  Ce  Ce3  1  0.90726700  0.90726700  0.35295400  1
  Ce  Ce4  1  0.18764500  0.18764500  0.00897400  1
  Ce  Ce5  1  0.81256500  0.81256500  0.99177200  1
  Ce  Ce6  1  0.00046200  0.00046200  0.99522400  1
  Ce  Ce7  1  0.28037900  0.28037900  0.66298600  1
  Ce  Ce8  1  0.71944100  0.71944100  0.33732700  1
  Se  Se0  1  0.13196200  0.13196200  0.32515100  1
  Se  Se1  1  0.86752200  0.86752200  0.67325400  1
  Se  Se2  1  0.41166600  0.41166600  0.03643800  1
  Se  Se3  1  0.58941700  0.58941700  0.96955000  1
  Se  Se4  1  0.30976500  0.30976500  0.32927800  1
  Se  Se5  1  0.68987400  0.68987400  0.67237300  1
  N  N0  1  0.27634800  0.27634800  0.90135800  1
  N  N1  1  0.72383100  0.72383100  0.09939100  1
  N  N2  1  0.00226800  0.00226800  0.75641000  1
  O  O0  1  0.44755000  0.44755000  0.43023600  1
  O  O1  1  0.55253900  0.55253900  0.56292300  1
  O  O2  1  0.99840600  0.99840600  0.24669700  1
loop_
_geom_bond_atom_site_label_1
_geom_bond_atom_site_label_2
_geom_bond_distance
_geom_bond_site_symmetry_2
Ce0 O1 2.367759 1_555
Ce0 N2 2.373838 1_565
Ce0 N2 2.373838 1_655
Ce0 O0 2.394207 1_555
Ce0 Se1 3.077121 1_455
Ce0 Se1 3.077121 1_545
Ce0 Se2 3.457938 1_556
Ce1 O1 2.324526 1_555
Ce1 O0 2.362725 1_555
Ce1 O2 2.367146 1_545
Ce1 O2 2.367146 1_455
Ce1 Se0 3.049024 1_565
Ce1 Se0 3.049024 1_655
Ce1 Se3 3.407968 1_554
Ce2 N2 2.294755 1_555
Ce2 O1 2.375467 1_455
Ce2 O1 2.375467 1_545
Ce2 Se0 3.095371 1_555
Ce2 Se5 3.187834 1_545
Ce2 Se5 3.187834 1_455
Ce2 Se3 3.620840 1_455
Ce2 Se3 3.620840 1_545
Ce3 O2 2.358069 1_555
Ce3 O0 2.378975 1_565
Ce3 O0 2.378975 1_655
Ce3 Se1 3.065047 1_555
Ce3 Se4 3.144665 1_565
Ce3 Se4 3.144665 1_655
Ce3 Se2 3.572784 1_655
Ce3 Se2 3.572784 1_565
Ce4 N0 2.308393 1_554
Ce4 N1 2.381469 1_545
Ce4 N1 2.381469 1_455
Ce4 Se0 3.140915 1_555
Ce4 Se3 3.182756 1_544
Ce4 Se3 3.182756 1_454
Ce5 N1 2.309087 1_556
Ce5 N0 2.381767 1_565
Ce5 N0 2.381767 1_655
Ce5 Se1 3.154654 1_555
Ce5 Se2 3.208800 1_566
Ce5 Se2 3.208800 1_656
Ce6 N2 2.233209 1_555
Ce6 O2 2.351304 1_446
Ce6 Se3 2.956128 1_455
Ce6 Se3 2.956128 1_545
Ce6 Se2 2.958502 1_456
Ce6 Se2 2.958502 1_546
Ce7 N0 2.225615 1_555
Ce7 Se1 2.938930 1_455
Ce7 Se1 2.938930 1_545
Ce7 Se5 2.986392 1_545
Ce7 Se5 2.986392 1_455
Ce7 Se4 3.140270 1_555
Ce8 N1 2.221104 1_555
Ce8 Se0 2.946827 1_565
Ce8 Se0 2.946827 1_655
Ce8 Se4 2.983651 1_565
Ce8 Se4 2.983651 1_655
Ce8 Se5 3.153070 1_555
