# generated using pymatgen
data_Zn35Cu17
_symmetry_space_group_name_H-M   'P 1'
_cell_length_a   7.68558200
_cell_length_b   7.68794532
_cell_length_c   12.62371374
_cell_angle_alpha   89.93724365
_cell_angle_beta   89.92580970
_cell_angle_gamma   70.68331851
_symmetry_Int_Tables_number   1
_chemical_formula_structural   Zn35Cu17
_chemical_formula_sum   'Zn35 Cu17'
_cell_volume   703.89814631
_cell_formula_units_Z   1
loop_
 _symmetry_equiv_pos_site_id
 _symmetry_equiv_pos_as_xyz
  1  'x, y, z'
loop_
 _atom_site_type_symbol
 _atom_site_label
 _atom_site_symmetry_multiplicity
 _atom_site_fract_x
 _atom_site_fract_y
 _atom_site_fract_z
 _atom_site_occupancy
  Zn  Zn0  1  0.21598700  0.00011900  0.99943400  1
  Zn  Zn1  1  0.71694700  0.49942700  0.50036300  1
  Zn  Zn2  1  0.49995700  0.28396600  0.50050300  1
  Zn  Zn3  1  0.00257800  0.78241600  0.99754000  1
  Zn  Zn4  1  0.89464400  0.10528400  0.88983900  1
  Zn  Zn5  1  0.39540800  0.60495300  0.39084300  1
  Zn  Zn6  1  0.39485500  0.60524000  0.60982800  1
  Zn  Zn7  1  0.89578400  0.10837800  0.10891400  1
  Zn  Zn8  1  0.34473400  0.27332900  0.99927300  1
  Zn  Zn9  1  0.84463400  0.77360300  0.50036300  1
  Zn  Zn10  1  0.48634100  0.86240600  0.86149900  1
  Zn  Zn11  1  0.98654400  0.36243300  0.36239100  1
  Zn  Zn12  1  0.98659200  0.36213900  0.63802600  1
  Zn  Zn13  1  0.48143600  0.86322100  0.13706100  1
  Zn  Zn14  1  0.22629600  0.15551300  0.50027700  1
  Zn  Zn15  1  0.72542600  0.65401900  0.99769500  1
  Zn  Zn16  1  0.63770800  0.01349300  0.63805800  1
  Zn  Zn17  1  0.14120300  0.51063500  0.13767600  1
  Zn  Zn18  1  0.13814900  0.51294500  0.86128700  1
  Zn  Zn19  1  0.63609100  0.01566900  0.36406700  1
  Zn  Zn20  1  0.96261500  0.03754800  0.68936600  1
  Zn  Zn21  1  0.46244900  0.53798400  0.18966700  1
  Zn  Zn22  1  0.82787300  0.45040800  0.82372300  1
  Zn  Zn23  1  0.32755700  0.95105000  0.32438700  1
  Zn  Zn24  1  0.54876300  0.17248600  0.82369300  1
  Zn  Zn25  1  0.05336400  0.67019200  0.32665600  1
  Zn  Zn26  1  0.46242100  0.53747200  0.81030400  1
  Zn  Zn27  1  0.96418400  0.03966300  0.31191800  1
  Zn  Zn28  1  0.04897900  0.67250700  0.67569800  1
  Zn  Zn29  1  0.54642400  0.17572000  0.17571900  1
  Zn  Zn30  1  0.32764800  0.95131100  0.67574600  1
  Zn  Zn31  1  0.82778200  0.44761100  0.17578500  1
  Zn  Zn32  1  0.82014200  0.81991400  0.17969600  1
  Zn  Zn33  1  0.64033600  0.35930800  0.99973100  1
  Zn  Zn34  1  0.14051900  0.85950200  0.50033500  1
  Cu  Cu0  1  0.67879400  0.67871300  0.67828000  1
  Cu  Cu1  1  0.17890400  0.17837100  0.17844000  1
  Cu  Cu2  1  0.17864600  0.17890000  0.82174600  1
  Cu  Cu3  1  0.67873600  0.67839700  0.32197300  1
  Cu  Cu4  1  0.35685200  0.64339400  0.00011200  1
  Cu  Cu5  1  0.85644500  0.14342700  0.50001900  1
  Cu  Cu6  1  0.82097700  0.82141300  0.82190000  1
  Cu  Cu7  1  0.32112900  0.32125600  0.32175100  1
  Cu  Cu8  1  0.32117900  0.32124300  0.67836400  1
  Cu  Cu9  1  0.65536800  0.00134200  0.00019100  1
  Cu  Cu10  1  0.15562100  0.50110600  0.50040100  1
  Cu  Cu11  1  0.99862900  0.34525900  0.99987300  1
  Cu  Cu12  1  0.49843600  0.84458500  0.49988900  1
  Cu  Cu13  1  0.67225600  0.32771500  0.67201000  1
  Cu  Cu14  1  0.17083000  0.82767000  0.17209900  1
  Cu  Cu15  1  0.17269600  0.82750000  0.82769200  1
  Cu  Cu16  1  0.67213600  0.32784400  0.32789900  1
loop_
_geom_bond_atom_site_label_1
_geom_bond_atom_site_label_2
_geom_bond_distance
_geom_bond_site_symmetry_2
Zn0 Zn8 2.601128 1_555
Zn0 Zn13 2.621622 1_546
Zn0 Zn10 2.647551 1_545
Zn0 Zn7 2.701419 1_456
Zn0 Zn3 2.703384 1_545
Zn0 Zn4 2.711563 1_455
Zn1 Zn9 2.602802 1_555
Zn1 Zn11 2.643292 1_555
Zn1 Zn12 2.643292 1_555
Zn1 Zn2 2.711570 1_555
Zn1 Zn5 2.712295 1_555
Zn1 Zn6 2.713034 1_555
Zn2 Zn5 2.708365 1_555
Zn2 Zn6 2.709679 1_555
Zn3 Zn32 2.657515 1_456
Zn3 Zn4 2.707614 1_465
Zn3 Zn7 2.752139 1_466
Zn4 Zn7 2.765719 1_556
Zn5 Zn6 2.764404 1_555
Zn10 Zn24 2.625708 1_565
Zn10 Zn30 2.627854 1_555
Zn10 Zn15 2.636974 1_555
Zn10 Zn26 2.645659 1_555
Zn11 Zn25 2.620359 1_655
Zn11 Zn27 2.622766 1_555
Zn11 Zn31 2.634813 1_555
Zn11 Zn14 2.649285 1_655
Zn12 Zn22 2.625294 1_555
Zn12 Zn28 2.628588 1_655
Zn12 Zn20 2.642268 1_555
Zn12 Zn14 2.646281 1_655
Zn13 Zn32 2.570364 1_555
Zn13 Zn23 2.629559 1_555
Zn13 Zn21 2.636632 1_555
Zn13 Zn29 2.656422 1_565
Zn13 Zn15 2.683410 1_554
Zn14 Zn34 2.570219 1_545
Zn14 Zn2 2.602503 1_555
Zn14 Zn30 2.676881 1_545
Zn14 Zn23 2.683374 1_545
Zn15 Zn33 2.557718 1_555
Zn15 Zn3 2.627287 1_655
Zn15 Zn22 2.661033 1_555
Zn15 Zn31 2.713311 1_556
Zn15 Zn32 2.839039 1_556
Zn16 Zn30 2.623693 1_545
Zn16 Zn24 2.627214 1_555
Zn16 Zn20 2.645597 1_555
Zn16 Zn2 2.645822 1_555
Zn16 Zn9 2.647898 1_545
Zn17 Zn21 2.630337 1_555
Zn17 Zn8 2.634342 1_554
Zn17 Zn31 2.652785 1_455
Zn17 Zn25 2.665720 1_555
Zn17 Zn3 2.674767 1_554
Zn17 Zn32 2.853331 1_455
Zn18 Zn22 2.627642 1_455
Zn18 Zn28 2.627731 1_555
Zn18 Zn3 2.628890 1_555
Zn18 Zn26 2.639585 1_555
Zn18 Zn8 2.648345 1_555
Zn19 Zn2 2.625072 1_555
Zn19 Zn23 2.627464 1_545
Zn19 Zn9 2.649398 1_545
Zn19 Zn29 2.660643 1_555
Zn19 Zn27 2.670012 1_555
Zn19 Zn32 2.876384 1_545
Zn20 Zn4 2.601553 1_555
Zn20 Zn30 2.666150 1_645
Zn20 Zn28 2.667340 1_645
Zn20 Zn34 2.863206 1_645
Zn21 Zn5 2.608455 1_555
Zn21 Zn29 2.648725 1_555
Zn21 Zn31 2.665621 1_555
Zn21 Zn33 2.874246 1_554
Zn22 Zn4 2.663715 1_555
Zn22 Zn26 2.668857 1_555
Zn22 Zn33 2.856715 1_555
Zn23 Zn27 2.651500 1_465
Zn23 Zn5 2.670905 1_555
Zn23 Zn34 2.855304 1_555
Zn24 Zn26 2.666437 1_555
Zn24 Zn4 2.669625 1_555
Zn24 Zn8 2.676409 1_555
Zn24 Zn33 2.859444 1_555
Zn25 Zn32 2.572635 1_455
Zn25 Zn5 2.636490 1_555
Zn25 Zn9 2.676749 1_455
Zn25 Zn27 2.698860 1_465
Zn25 Zn34 2.833652 1_555
Zn26 Zn6 2.601408 1_555
Zn26 Zn33 2.868142 1_555
Zn27 Zn7 2.634288 1_555
Zn27 Zn32 2.848505 1_545
Zn27 Zn34 2.858625 1_645
Zn28 Zn6 2.666637 1_555
Zn28 Zn9 2.677183 1_455
Zn28 Zn34 2.849634 1_555
Zn29 Zn8 2.676377 1_554
Zn29 Zn7 2.695196 1_555
Zn29 Zn32 2.846658 1_545
Zn29 Zn33 2.848084 1_554
Zn30 Zn6 2.670666 1_555
Zn30 Zn34 2.855369 1_555
Zn31 Zn7 2.624761 1_555
Zn31 Zn32 2.843844 1_555
Zn31 Zn33 2.852054 1_554
Zn32 Zn7 2.627129 1_565
Zn33 Zn8 2.567471 1_555
Zn33 Zn7 2.640302 1_556
Zn33 Zn4 2.651814 1_555
Zn34 Zn9 2.569228 1_455
Zn34 Zn6 2.650600 1_555
Zn34 Zn5 2.653373 1_555
Cu0 Zn22 2.536222 1_555
Cu0 Zn16 2.538049 1_565
Cu0 Cu6 2.547023 1_555
Cu0 Zn6 2.578637 1_555
Cu0 Zn1 2.601517 1_555
Cu0 Cu13 2.716730 1_555
Cu0 Cu12 2.729701 1_555
Cu0 Zn9 2.793791 1_555
Cu0 Zn26 2.811697 1_555
Cu0 Zn30 2.816854 1_555
Cu0 Zn12 2.822823 1_555
Cu0 Zn28 2.829809 1_655
Cu0 Zn10 2.854477 1_555
Cu1 Zn17 2.526202 1_555
Cu1 Zn23 2.536013 1_545
Cu1 Cu7 2.545246 1_555
Cu1 Zn7 2.564216 1_455
Cu1 Zn0 2.610031 1_554
Cu1 Cu14 2.718596 1_545
Cu1 Cu11 2.733648 1_454
Cu1 Zn13 2.796781 1_545
Cu1 Zn27 2.802280 1_455
Cu1 Zn31 2.805812 1_455
Cu1 Zn8 2.806651 1_554
Cu1 Zn29 2.818094 1_555
Cu1 Zn11 2.862635 1_455
Cu2 Zn18 2.532759 1_555
Cu2 Zn30 2.538840 1_545
Cu2 Cu8 2.541125 1_555
Cu2 Zn4 2.575811 1_455
Cu2 Zn0 2.595548 1_555
Cu2 Zn8 2.793346 1_555
Cu2 Zn22 2.811144 1_455
Cu2 Zn20 2.816933 1_455
Cu2 Zn10 2.821035 1_545
Cu2 Zn24 2.828774 1_555
Cu2 Zn12 2.857991 1_455
Cu3 Zn32 2.522609 1_555
Cu3 Zn31 2.554003 1_555
Cu3 Zn19 2.559961 1_565
Cu3 Zn5 2.573671 1_555
Cu3 Zn1 2.603504 1_555
Cu3 Zn9 2.803770 1_555
Cu3 Zn21 2.813599 1_555
Cu3 Zn23 2.817172 1_555
Cu3 Zn11 2.820643 1_555
Cu3 Zn25 2.859675 1_655
Cu3 Zn13 2.888539 1_555
Cu4 Zn33 2.523660 1_554
Cu4 Zn21 2.570401 1_555
Cu4 Zn26 2.573861 1_554
Cu4 Zn3 2.575249 1_554
Cu4 Zn0 2.594042 1_564
Cu4 Zn13 2.800533 1_555
Cu4 Zn17 2.812848 1_555
Cu4 Zn10 2.825757 1_554
Cu4 Zn18 2.833546 1_554
Cu4 Zn15 2.860887 1_554
Cu4 Zn8 2.877221 1_554
Cu5 Zn34 2.525563 1_645
Cu5 Zn27 2.553915 1_555
Cu5 Zn20 2.569655 1_555
Cu5 Zn1 2.588219 1_555
Cu5 Zn2 2.591439 1_555
Cu5 Zn19 2.808899 1_555
Cu5 Zn11 2.820636 1_555
Cu5 Zn16 2.821374 1_555
Cu5 Zn12 2.826043 1_555
Cu5 Zn9 2.874489 1_545
Cu5 Zn14 2.874600 1_655
Cu6 Zn10 2.534664 1_555
Cu6 Zn28 2.540978 1_655
Cu6 Zn4 2.577153 1_565
Cu6 Zn3 2.585289 1_655
Cu6 Cu9 2.726485 1_566
Cu6 Zn15 2.781185 1_555
Cu6 Zn24 2.815409 1_565
Cu6 Zn20 2.816210 1_565
Cu6 Zn18 2.826548 1_655
Cu6 Zn22 2.835244 1_555
Cu6 Zn16 2.859276 1_565
Cu7 Zn29 2.522490 1_555
Cu7 Zn11 2.536594 1_455
Cu7 Zn5 2.583174 1_555
Cu7 Zn2 2.609397 1_555
Cu7 Zn25 2.789799 1_555
Cu7 Zn14 2.799593 1_555
Cu7 Zn19 2.811155 1_555
Cu7 Zn21 2.814701 1_555
Cu7 Zn23 2.830325 1_545
Cu7 Zn17 2.846147 1_555
Cu8 Zn24 2.532461 1_555
Cu8 Zn12 2.537499 1_455
Cu8 Zn6 2.578508 1_555
Cu8 Zn2 2.596955 1_555
Cu8 Zn14 2.799004 1_555
Cu8 Zn26 2.814342 1_555
Cu8 Zn28 2.816516 1_555
Cu8 Zn16 2.822470 1_555
Cu8 Zn30 2.828189 1_545
Cu8 Zn18 2.847909 1_555
Cu9 Zn15 2.543589 1_544
Cu9 Zn24 2.579116 1_554
Cu9 Zn29 2.582097 1_555
Cu9 Zn8 2.601835 1_554
Cu9 Zn10 2.611858 1_544
Cu9 Zn13 2.613220 1_545
Cu9 Zn4 2.631372 1_554
Cu9 Zn3 2.642609 1_644
Cu9 Zn7 2.643852 1_555
Cu9 Zn33 2.715996 1_554
Cu9 Zn32 2.741530 1_545
Cu10 Zn14 2.529703 1_555
Cu10 Zn25 2.537791 1_555
Cu10 Zn28 2.567537 1_555
Cu10 Zn12 2.599170 1_455
Cu10 Zn11 2.605166 1_455
Cu10 Zn9 2.605535 1_455
Cu10 Zn2 2.620607 1_555
Cu10 Zn5 2.628845 1_555
Cu10 Zn6 2.629181 1_555
Cu10 Zn34 2.719141 1_555
Cu10 Cu8 2.722991 1_555
Cu10 Cu7 2.729782 1_555
Cu11 Zn8 2.531472 1_655
Cu11 Zn31 2.566586 1_556
Cu11 Zn22 2.573368 1_555
Cu11 Zn15 2.597455 1_555
Cu11 Zn17 2.602841 1_656
Cu11 Zn18 2.603292 1_655
Cu11 Zn7 2.603852 1_556
Cu11 Zn0 2.626557 1_655
Cu11 Zn4 2.637380 1_555
Cu11 Zn33 2.719876 1_555
Cu11 Cu2 2.726501 1_655
Cu12 Zn9 2.533134 1_555
Cu12 Zn23 2.568170 1_555
Cu12 Zn30 2.570670 1_555
Cu12 Zn19 2.588433 1_565
Cu12 Zn14 2.604029 1_565
Cu12 Zn16 2.608369 1_565
Cu12 Zn5 2.624764 1_555
Cu12 Zn6 2.627995 1_555
Cu12 Zn1 2.629353 1_555
Cu12 Zn34 2.715022 1_555
Cu12 Cu3 2.724673 1_555
Cu13 Zn12 2.551566 1_555
Cu13 Zn16 2.552808 1_555
Cu13 Zn26 2.554878 1_555
Cu13 Zn6 2.589413 1_555
Cu13 Zn20 2.590579 1_555
Cu13 Zn24 2.594438 1_555
Cu13 Zn22 2.596985 1_555
Cu13 Zn1 2.616788 1_555
Cu13 Zn2 2.618744 1_555
Cu13 Cu8 2.716176 1_555
Cu13 Cu5 2.719761 1_555
Cu14 Zn13 2.529358 1_555
Cu14 Zn17 2.559509 1_555
Cu14 Zn27 2.565253 1_465
Cu14 Zn21 2.594284 1_555
Cu14 Zn7 2.597022 1_465
Cu14 Zn25 2.607850 1_555
Cu14 Zn23 2.610037 1_555
Cu14 Zn0 2.631583 1_564
Cu14 Zn3 2.637358 1_554
Cu14 Zn32 2.717116 1_455
Cu14 Cu4 2.724611 1_555
Cu15 Zn10 2.548676 1_555
Cu15 Zn18 2.553565 1_555
Cu15 Zn20 2.557337 1_465
Cu15 Zn26 2.587115 1_555
Cu15 Zn3 2.591855 1_555
Cu15 Zn4 2.592877 1_465
Cu15 Zn30 2.596820 1_555
Cu15 Zn28 2.600917 1_555
Cu15 Zn0 2.621538 1_565
Cu15 Cu2 2.717967 1_565
Cu15 Cu6 2.720082 1_455
Cu15 Cu4 2.723961 1_556
Cu16 Zn19 2.546028 1_555
Cu16 Zn11 2.554881 1_555
Cu16 Zn21 2.555545 1_555
Cu16 Zn31 2.585532 1_555
Cu16 Zn5 2.587481 1_555
Cu16 Zn27 2.587883 1_555
Cu16 Zn29 2.597900 1_555
Cu16 Zn2 2.626551 1_555
Cu16 Zn1 2.628194 1_555
Cu16 Cu3 2.713182 1_555
Cu16 Cu7 2.716078 1_555
Cu16 Cu5 2.722177 1_555
