# generated using pymatgen
data_IrAuN5Cl6
_symmetry_space_group_name_H-M   'P 1'
_cell_length_a   8.57825200
_cell_length_b   8.82230124
_cell_length_c   10.72899789
_cell_angle_alpha   105.93531845
_cell_angle_beta   90.00000000
_cell_angle_gamma   119.08906547
_symmetry_Int_Tables_number   1
_chemical_formula_structural   IrAuN5Cl6
_chemical_formula_sum   'Ir2 Au2 N10 Cl12'
_cell_volume   673.62238224
_cell_formula_units_Z   2
loop_
 _symmetry_equiv_pos_site_id
 _symmetry_equiv_pos_as_xyz
  1  'x, y, z'
loop_
 _atom_site_type_symbol
 _atom_site_label
 _atom_site_symmetry_multiplicity
 _atom_site_fract_x
 _atom_site_fract_y
 _atom_site_fract_z
 _atom_site_occupancy
  Ir  Ir0  1  0.24973400  0.49946800  0.72630500  1
  Ir  Ir1  1  0.75026600  0.50053200  0.27369500  1
  Au  Au0  1  0.00000000  0.00000000  0.00000000  1
  Au  Au1  1  0.50000000  0.00000000  0.50000000  1
  N  N0  1  0.13110800  0.61535400  0.72847700  1
  N  N1  1  0.48424600  0.61535400  0.72847700  1
  N  N2  1  0.86889200  0.38464600  0.27152300  1
  N  N3  1  0.51575400  0.38464600  0.27152300  1
  N  N4  1  0.31601000  0.63201900  0.94652500  1
  N  N5  1  0.68399000  0.36798100  0.05347500  1
  N  N6  1  0.00037200  0.32413900  0.77620300  1
  N  N7  1  0.32376700  0.32413900  0.77620300  1
  N  N8  1  0.99962800  0.67586100  0.22379700  1
  N  N9  1  0.67623300  0.67586100  0.22379700  1
  Cl  Cl0  1  0.52149000  0.04298000  0.29677100  1
  Cl  Cl1  1  0.47851000  0.95702000  0.70322900  1
  Cl  Cl2  1  0.98172200  0.96344500  0.20667100  1
  Cl  Cl3  1  0.01827800  0.03655500  0.79332900  1
  Cl  Cl4  1  0.14381600  0.28763300  0.52214400  1
  Cl  Cl5  1  0.85618400  0.71236700  0.47785600  1
  Cl  Cl6  1  0.34343600  0.68687200  0.39922700  1
  Cl  Cl7  1  0.65656400  0.31312800  0.60077300  1
  Cl  Cl8  1  0.26947600  0.00000000  0.00000000  1
  Cl  Cl9  1  0.73052400  0.00000000  0.00000000  1
  Cl  Cl10  1  0.25269200  0.50538500  0.03977900  1
  Cl  Cl11  1  0.74730800  0.49461500  0.96022100  1
loop_
_geom_bond_atom_site_label_1
_geom_bond_atom_site_label_2
_geom_bond_distance
_geom_bond_site_symmetry_2
Ir0 N0 1.754947 1_555
Ir0 N1 1.754947 1_555
Ir0 N7 2.119528 1_555
Ir0 N6 2.119528 1_555
Ir0 N4 2.260453 1_555
Ir1 N3 1.754947 1_555
Ir1 N2 1.754947 1_555
Ir1 N8 2.119528 1_555
Ir1 N9 2.119528 1_555
Ir1 N5 2.260453 1_555
Au0 Cl8 2.311633 1_555
Au0 Cl9 2.311633 1_455
Au0 Cl2 2.321385 1_445
Au0 Cl3 2.321385 1_554
Au1 Cl1 2.306105 1_545
Au1 Cl0 2.306105 1_555
Au1 Cl6 2.314433 1_545
Au1 Cl7 2.314433 1_555
Cl4 Ir0 2.284152 1_555
Cl5 Ir1 2.284152 1_555
Cl10 N4 1.602485 1_554
Cl11 N5 1.602485 1_556
