# generated using pymatgen
data_CsPSO2
_symmetry_space_group_name_H-M   'P 1'
_cell_length_a   8.01388422
_cell_length_b   8.18938798
_cell_length_c   8.84241176
_cell_angle_alpha   83.41541817
_cell_angle_beta   65.41646863
_cell_angle_gamma   74.47128871
_symmetry_Int_Tables_number   1
_chemical_formula_structural   CsPSO2
_chemical_formula_sum   'Cs4 P4 S4 O8'
_cell_volume   508.44746581
_cell_formula_units_Z   4
loop_
 _symmetry_equiv_pos_site_id
 _symmetry_equiv_pos_as_xyz
  1  'x, y, z'
loop_
 _atom_site_type_symbol
 _atom_site_label
 _atom_site_symmetry_multiplicity
 _atom_site_fract_x
 _atom_site_fract_y
 _atom_site_fract_z
 _atom_site_occupancy
  Cs  Cs0  1  0.33844800  0.64629700  0.83988400  1
  Cs  Cs1  1  0.66155200  0.35370300  0.16011600  1
  Cs  Cs2  1  0.85906400  0.83462300  0.36229600  1
  Cs  Cs3  1  0.14093600  0.16537700  0.63770400  1
  P  P0  1  0.78046600  0.80415900  0.91771500  1
  P  P1  1  0.21953400  0.19584100  0.08228500  1
  P  P2  1  0.57277300  0.09141300  0.76865100  1
  P  P3  1  0.42722700  0.90858700  0.23134900  1
  S  S0  1  0.84830300  0.61625300  0.76563600  1
  S  S1  1  0.15169700  0.38374700  0.23436400  1
  S  S2  1  0.67708900  0.25602800  0.59759800  1
  S  S3  1  0.32291100  0.74397200  0.40240200  1
  O  O0  1  0.91125800  0.81350000  0.99600800  1
  O  O1  1  0.08874200  0.18650000  0.00399200  1
  O  O2  1  0.51754500  0.02918200  0.26729200  1
  O  O3  1  0.48245500  0.97081800  0.73270800  1
  O  O4  1  0.25695800  0.01057000  0.17342200  1
  O  O5  1  0.74304200  0.98943000  0.82657800  1
  O  O6  1  0.43127200  0.19929400  0.94044100  1
  O  O7  1  0.56872800  0.80070600  0.05955900  1
loop_
_geom_bond_atom_site_label_1
_geom_bond_atom_site_label_2
_geom_bond_distance
_geom_bond_site_symmetry_2
Cs0 O3 3.073690 1_555
Cs0 O0 3.080910 1_455
Cs0 O6 3.618058 1_555
Cs0 O7 3.684181 1_556
Cs0 S2 3.775995 1_555
Cs0 S0 3.801722 1_555
Cs0 S1 3.832683 1_556
Cs0 S3 3.906099 1_555
Cs1 O2 3.073690 1_555
Cs1 O1 3.080910 1_655
Cs1 O7 3.618058 1_555
Cs1 O6 3.684181 1_554
Cs1 S3 3.775995 1_555
Cs1 S1 3.801722 1_555
Cs1 S0 3.832683 1_554
Cs1 S2 3.906099 1_555
Cs2 O0 3.107685 1_554
Cs2 O2 3.163236 1_565
Cs2 O3 3.448362 1_555
Cs2 O4 3.536999 1_665
Cs2 S3 3.748793 1_655
Cs2 S0 3.780127 1_555
Cs2 S1 3.811466 1_655
Cs2 S2 3.846152 1_565
Cs3 O1 3.107685 1_556
Cs3 O3 3.163236 1_545
Cs3 O2 3.448362 1_555
Cs3 O5 3.536999 1_445
Cs3 S2 3.748793 1_455
Cs3 S1 3.780127 1_555
Cs3 S0 3.811466 1_455
Cs3 S3 3.846152 1_545
P0 S0 1.972379 1_555
P1 S1 1.972379 1_555
P2 S2 1.971721 1_555
P3 S3 1.971721 1_555
O0 P0 1.497527 1_555
O1 P1 1.497527 1_555
O2 P3 1.498793 1_545
O3 P2 1.498793 1_565
O4 P3 1.641650 1_545
O4 P1 1.648779 1_555
O5 P2 1.641650 1_565
O5 P0 1.648779 1_555
O6 P1 1.643159 1_556
O6 P2 1.646825 1_555
O7 P0 1.643159 1_554
O7 P3 1.646825 1_555
