# generated using pymatgen
data_Mg5Zn
_symmetry_space_group_name_H-M   'P 1'
_cell_length_a   5.89836137
_cell_length_b   5.89836137
_cell_length_c   5.89836110
_cell_angle_alpha   53.82432170
_cell_angle_beta   53.82432170
_cell_angle_gamma   53.82432497
_symmetry_Int_Tables_number   1
_chemical_formula_structural   Mg5Zn
_chemical_formula_sum   'Mg5 Zn1'
_cell_volume   124.15947999
_cell_formula_units_Z   1
loop_
 _symmetry_equiv_pos_site_id
 _symmetry_equiv_pos_as_xyz
  1  'x, y, z'
loop_
 _atom_site_type_symbol
 _atom_site_label
 _atom_site_symmetry_multiplicity
 _atom_site_fract_x
 _atom_site_fract_y
 _atom_site_fract_z
 _atom_site_occupancy
  Mg  Mg0  1  0.33979269  0.00000000  0.66020731  1
  Mg  Mg1  1  0.83329796  0.83329796  0.83329796  1
  Mg  Mg2  1  -0.00000000  0.66020731  0.33979269  1
  Mg  Mg3  1  0.66020731  0.33979269  0.00000000  1
  Mg  Mg4  1  0.16670204  0.16670204  0.16670204  1
  Zn  Zn0  1  0.50000000  0.50000000  0.50000000  1
loop_
_geom_bond_atom_site_label_1
_geom_bond_atom_site_label_2
_geom_bond_distance
_geom_bond_site_symmetry_2
Mg0 Mg3 3.053319 1_555
Mg0 Mg3 3.053320 1_546
Mg0 Mg2 3.053320 1_555
Mg0 Mg2 3.053320 1_645
Mg0 Mg4 3.070298 1_555
Mg0 Mg1 3.070299 1_545
Mg0 Zn0 3.070735 1_555
Mg0 Zn0 3.070735 1_545
Mg0 Mg4 3.101009 1_556
Mg0 Mg1 3.101009 1_445
Mg0 Mg2 3.142488 1_546
Mg0 Mg3 3.142488 1_456
Mg1 Mg2 3.070298 1_655
Mg1 Mg3 3.070299 1_556
Mg1 Zn0 3.082750 1_556
Mg1 Mg4 3.082750 1_665
Mg1 Zn0 3.082750 1_655
Mg1 Zn0 3.082750 1_565
Mg1 Mg4 3.082750 1_656
Mg1 Mg4 3.082750 1_566
Mg1 Mg2 3.101009 1_656
Mg1 Mg3 3.101009 1_566
Mg2 Mg3 3.053319 1_456
Mg2 Mg3 3.053320 1_555
Mg2 Mg4 3.070299 1_555
Mg2 Zn0 3.070735 1_455
Mg2 Zn0 3.070735 1_555
Mg2 Mg4 3.101009 1_565
Mg2 Mg3 3.142488 1_465
Mg3 Mg4 3.070299 1_555
Mg3 Zn0 3.070735 1_555
Mg3 Zn0 3.070735 1_554
Mg3 Mg4 3.101009 1_655
Mg4 Zn0 3.082750 1_554
Mg4 Zn0 3.082750 1_455
Mg4 Zn0 3.082750 1_545
