# generated using pymatgen
data_ErTlTe2
_symmetry_space_group_name_H-M   'P 1'
_cell_length_a   4.41352571
_cell_length_b   4.41352536
_cell_length_c   8.55028799
_cell_angle_alpha   75.04310598
_cell_angle_beta   75.04310471
_cell_angle_gamma   59.99999472
_symmetry_Int_Tables_number   1
_chemical_formula_structural   ErTlTe2
_chemical_formula_sum   'Er1 Tl1 Te2'
_cell_volume   137.68473796
_cell_formula_units_Z   1
loop_
 _symmetry_equiv_pos_site_id
 _symmetry_equiv_pos_as_xyz
  1  'x, y, z'
loop_
 _atom_site_type_symbol
 _atom_site_label
 _atom_site_symmetry_multiplicity
 _atom_site_fract_x
 _atom_site_fract_y
 _atom_site_fract_z
 _atom_site_occupancy
  Er  Er0  1  0.00000000  0.00000000  -0.00000000  1
  Tl  Tl0  1  0.50000000  0.50000000  0.50000000  1
  Te  Te0  1  0.73686384  0.73686384  0.78940748  1
  Te  Te1  1  0.26313616  0.26313616  0.21059252  1
loop_
_geom_bond_atom_site_label_1
_geom_bond_atom_site_label_2
_geom_bond_distance
_geom_bond_site_symmetry_2
Er0 Te0 3.073655 1_454
Er0 Te1 3.073655 1_545
Er0 Te0 3.073655 1_544
Er0 Te1 3.073655 1_455
Er0 Te0 3.073659 1_444
Er0 Te1 3.073659 1_555
Te0 Tl0 3.474544 1_555
Te0 Tl0 3.474546 1_565
Te0 Tl0 3.474546 1_655
Te1 Tl0 3.474544 1_555
Te1 Tl0 3.474546 1_545
Te1 Tl0 3.474546 1_455
