# generated using pymatgen
data_Sr2La2MnZnO8
_symmetry_space_group_name_H-M   'P 1'
_cell_length_a   7.75485200
_cell_length_b   13.25241294
_cell_length_c   8.72115358
_cell_angle_alpha   105.30856996
_cell_angle_beta   63.60249237
_cell_angle_gamma   89.99922519
_symmetry_Int_Tables_number   1
_chemical_formula_structural   Sr2La2MnZnO8
_chemical_formula_sum   'Sr8 La8 Mn4 Zn4 O32'
_cell_volume   767.15573851
_cell_formula_units_Z   4
loop_
 _symmetry_equiv_pos_site_id
 _symmetry_equiv_pos_as_xyz
  1  'x, y, z'
loop_
 _atom_site_type_symbol
 _atom_site_label
 _atom_site_symmetry_multiplicity
 _atom_site_fract_x
 _atom_site_fract_y
 _atom_site_fract_z
 _atom_site_occupancy
  Sr  Sr0  1  0.59075300  0.63707600  0.81852900  1
  Sr  Sr1  1  0.09071900  0.63707600  0.81854000  1
  Sr  Sr2  1  0.34021500  0.63734500  0.31871000  1
  Sr  Sr3  1  0.84110400  0.63734000  0.31869100  1
  Sr  Sr4  1  0.65925600  0.36291100  0.68144900  1
  Sr  Sr5  1  0.15930700  0.36291400  0.68145100  1
  Sr  Sr6  1  0.40887100  0.36266700  0.18138400  1
  Sr  Sr7  1  0.90976000  0.36266400  0.18136700  1
  La  La0  1  0.58840100  0.14446900  0.32315600  1
  La  La1  1  0.08943800  0.14430500  0.32112100  1
  La  La2  1  0.33870800  0.14415600  0.82259800  1
  La  La3  1  0.83902800  0.14456900  0.82190000  1
  La  La4  1  0.41092700  0.85551700  0.67818400  1
  La  La5  1  0.91138000  0.85573500  0.67725700  1
  La  La6  1  0.16106200  0.85566000  0.17790900  1
  La  La7  1  0.66121200  0.85555800  0.17761900  1
  Mn  Mn0  1  0.00016500  0.49999700  0.49967800  1
  Mn  Mn1  1  0.24985500  0.49996100  0.00031000  1
  Mn  Mn2  1  0.50031500  0.50002400  0.49939400  1
  Mn  Mn3  1  0.74963900  0.50001300  0.00070200  1
  Zn  Zn0  1  0.75006400  0.00007900  0.49999700  1
  Zn  Zn1  1  0.24995200  0.00007900  0.50000300  1
  Zn  Zn2  1  0.50009000  0.99995000  0.99994100  1
  Zn  Zn3  1  0.99987100  0.99997100  0.99994100  1
  O  O0  1  0.54026900  0.33680800  0.41950900  1
  O  O1  1  0.04161200  0.33791400  0.41684300  1
  O  O2  1  0.28954600  0.33792900  0.92096700  1
  O  O3  1  0.79128900  0.33691100  0.91742500  1
  O  O4  1  0.45867900  0.66299700  0.58264300  1
  O  O5  1  0.96042100  0.66217400  0.57912200  1
  O  O6  1  0.20847900  0.66210400  0.08301800  1
  O  O7  1  0.70969000  0.66315100  0.08057600  1
  O  O8  1  0.54327900  0.82511600  0.91266400  1
  O  O9  1  0.04392600  0.82512000  0.91267800  1
  O  O10  1  0.29275300  0.82538800  0.41282800  1
  O  O11  1  0.79431000  0.82538400  0.41283600  1
  O  O12  1  0.70611600  0.17488800  0.58739700  1
  O  O13  1  0.20664200  0.17489200  0.58738600  1
  O  O14  1  0.45528400  0.17460200  0.08721300  1
  O  O15  1  0.95761300  0.17460200  0.08720700  1
  O  O16  1  0.75338100  0.49998900  0.49924800  1
  O  O17  1  0.24734800  0.50000400  0.49932200  1
  O  O18  1  0.49667000  0.50000500  0.00076400  1
  O  O19  1  0.00259500  0.49998700  0.00070800  1
  O  O20  1  0.36919300  0.49998300  0.76169900  1
  O  O21  1  0.88099700  0.49999100  0.73794100  1
  O  O22  1  0.12505300  0.50002700  0.24991000  1
  O  O23  1  0.62475900  0.49999400  0.25048500  1
  O  O24  1  0.50000600  0.00008600  0.50000300  1
  O  O25  1  0.99986700  0.00022900  0.50028300  1
  O  O26  1  0.24999700  0.99987500  0.99989200  1
  O  O27  1  0.75005600  0.99980500  0.99977500  1
  O  O28  1  0.87552000  0.00000600  0.24996900  1
  O  O29  1  0.37450700  0.99999900  0.24998000  1
  O  O30  1  0.62479200  0.00000100  0.74994100  1
  O  O31  1  0.12525800  0.00000300  0.74993500  1
loop_
_geom_bond_atom_site_label_1
_geom_bond_atom_site_label_2
_geom_bond_distance
_geom_bond_site_symmetry_2
La0 O0 2.435712 1_555
La0 O29 2.668405 1_545
La0 O28 2.668556 1_555
La0 O24 2.669837 1_555
La0 O27 2.683659 1_544
La0 O13 2.771362 1_555
La0 O12 2.772459 1_555
La0 O14 2.789605 1_555
La0 O15 2.790464 1_555
La1 O1 2.451809 1_555
La1 O28 2.661347 1_455
La1 O29 2.661400 1_545
La1 O26 2.670033 1_544
La1 O25 2.679517 1_455
La1 O15 2.766719 1_455
La1 O14 2.767300 1_555
La1 O12 2.785360 1_455
La1 O13 2.786115 1_555
La2 O2 2.453898 1_555
La2 O30 2.661529 1_555
La2 O31 2.661692 1_555
La2 O26 2.671208 1_545
La2 O24 2.675734 1_555
La2 O15 2.768802 1_456
La2 O14 2.769333 1_556
La2 O13 2.780644 1_555
La2 O12 2.781316 1_555
La3 O3 2.435755 1_555
La3 O30 2.667744 1_555
La3 O31 2.667873 1_655
La3 O25 2.671719 1_555
La3 O27 2.680079 1_545
La3 O12 2.777528 1_555
La3 O13 2.778673 1_655
La3 O14 2.785512 1_556
La3 O15 2.786292 1_556
La4 O4 2.438010 1_555
La4 O30 2.664354 1_565
La4 O31 2.664619 1_565
La4 O26 2.672342 1_555
La4 O24 2.679580 1_565
La4 O8 2.774677 1_555
La4 O9 2.775631 1_555
La4 O11 2.783552 1_555
La4 O10 2.784369 1_555
La5 O5 2.451209 1_555
La5 O31 2.665149 1_665
La5 O30 2.665261 1_565
La5 O25 2.671839 1_565
La5 O27 2.675294 1_555
La5 O10 2.769901 1_655
La5 O11 2.770508 1_555
La5 O9 2.784404 1_655
La5 O8 2.785126 1_555
La6 O6 2.451168 1_555
La6 O29 2.661608 1_555
La6 O28 2.661812 1_465
La6 O26 2.674572 1_554
La6 O25 2.677364 1_465
La6 O10 2.774123 1_555
La6 O11 2.774949 1_455
La6 O8 2.776546 1_554
La6 O9 2.777317 1_554
La7 O7 2.436581 1_555
La7 O28 2.668210 1_565
La7 O29 2.668350 1_555
La7 O27 2.673953 1_554
La7 O24 2.677183 1_565
La7 O9 2.778494 1_654
La7 O8 2.779466 1_554
La7 O11 2.783735 1_555
La7 O10 2.784494 1_555
Mn0 O21 1.861288 1_455
Mn0 O16 1.915444 1_455
Mn0 O17 1.915489 1_555
Mn0 O22 1.951257 1_555
Mn0 O1 2.052608 1_555
Mn0 O5 2.053791 1_455
Mn1 O20 1.864069 1_554
Mn1 O18 1.915777 1_555
Mn1 O19 1.915924 1_555
Mn1 O22 1.949570 1_555
Mn1 O2 2.051956 1_554
Mn1 O6 2.053359 1_555
Mn2 O23 1.944312 1_555
Mn2 O16 1.961924 1_555
Mn2 O17 1.962001 1_555
Mn2 O20 2.049237 1_555
Mn2 O4 2.063876 1_555
Mn2 O0 2.066952 1_555
Mn3 O23 1.951331 1_555
Mn3 O18 1.961497 1_555
Mn3 O19 1.961660 1_655
Mn3 O21 2.052553 1_554
Mn3 O3 2.065508 1_554
Mn3 O7 2.065963 1_555
O0 Sr4 2.765270 1_555
O0 Sr5 2.765468 1_555
O0 Sr7 2.779439 1_555
O0 Sr6 2.779560 1_555
O1 Sr6 2.755191 1_555
O1 Sr7 2.755584 1_455
O1 Sr5 2.781613 1_555
O1 Sr4 2.781904 1_455
O2 Sr6 2.756334 1_556
O2 Sr7 2.756537 1_456
O2 Sr4 2.780804 1_555
O2 Sr5 2.781036 1_555
O3 Sr4 2.765949 1_555
O3 Sr5 2.766023 1_655
O3 Sr7 2.779356 1_556
O3 Sr6 2.779433 1_556
O4 Sr0 2.765097 1_555
O4 Sr1 2.765146 1_555
O4 Sr2 2.779373 1_555
O4 Sr3 2.779577 1_555
O5 Sr3 2.756281 1_555
O5 Sr2 2.756491 1_655
O5 Sr0 2.780751 1_555
O5 Sr1 2.781024 1_655
O6 Sr3 2.756461 1_455
O6 Sr2 2.756764 1_555
O6 Sr1 2.780857 1_554
O6 Sr0 2.781089 1_554
O7 Sr0 2.765911 1_554
O7 Sr1 2.766131 1_654
O7 Sr2 2.779118 1_555
O7 Sr3 2.779361 1_555
O8 Zn2 2.214037 1_555
O8 Sr0 2.381272 1_555
O9 Zn3 2.214252 1_455
O9 Sr1 2.381322 1_555
O10 Zn1 2.212232 1_565
O10 Sr2 2.381310 1_555
O11 Zn0 2.212280 1_565
O11 Sr3 2.381322 1_555
O12 Zn0 2.213718 1_555
O12 Sr4 2.381055 1_555
O13 Zn1 2.213770 1_555
O13 Sr5 2.381043 1_555
O14 Zn2 2.211748 1_544
O14 Sr6 2.381593 1_555
O15 Zn3 2.211489 1_544
O15 Sr7 2.381556 1_555
O16 Sr7 2.610491 1_555
O16 Sr3 2.610862 1_555
O16 Sr0 2.617380 1_555
O16 Sr4 2.617392 1_555
O17 Sr6 2.610889 1_555
O17 Sr2 2.611069 1_555
O17 Sr1 2.616929 1_555
O17 Sr5 2.617106 1_555
O18 Sr2 2.610950 1_555
O18 Sr6 2.611079 1_555
O18 Sr0 2.617507 1_554
O18 Sr4 2.617613 1_554
O19 Sr7 2.611136 1_455
O19 Sr3 2.611236 1_455
O19 Sr5 2.617158 1_554
O19 Sr1 2.617318 1_554
O20 Sr4 2.603484 1_555
O20 Sr5 2.603907 1_555
O20 Sr0 2.603912 1_555
O20 Sr1 2.604329 1_555
O21 Sr0 2.603756 1_555
O21 Sr4 2.603964 1_555
O21 Sr1 2.604204 1_655
O21 Sr5 2.604356 1_655
O22 Sr3 2.601724 1_455
O22 Sr2 2.601820 1_555
O22 Sr6 2.602102 1_555
O22 Sr7 2.602215 1_455
O23 Sr6 2.606958 1_555
O23 Sr7 2.606970 1_555
O23 Sr2 2.607087 1_555
O23 Sr3 2.607174 1_555
O24 Zn1 1.939132 1_555
O24 Zn0 1.939140 1_555
O25 Zn1 1.938288 1_655
O25 Zn0 1.938296 1_555
O26 Zn3 1.939500 1_455
O26 Zn2 1.939624 1_555
O27 Zn2 1.937807 1_555
O27 Zn3 1.937923 1_555
O28 Zn0 1.952889 1_555
O28 Zn3 1.953041 1_544
O29 Zn1 1.952823 1_565
O29 Zn2 1.953070 1_554
O30 Zn0 1.952821 1_555
O30 Zn2 1.953153 1_545
O31 Zn1 1.952719 1_555
O31 Zn3 1.953126 1_445
