# generated using pymatgen
data_Hf9Mo4P
_symmetry_space_group_name_H-M   'P 1'
_cell_length_a   8.64023251
_cell_length_b   8.64023251
_cell_length_c   8.63126900
_cell_angle_alpha   90.00000000
_cell_angle_beta   90.00000000
_cell_angle_gamma   120.00000394
_symmetry_Int_Tables_number   1
_chemical_formula_structural   Hf9Mo4P
_chemical_formula_sum   'Hf18 Mo8 P2'
_cell_volume   558.02817346
_cell_formula_units_Z   2
loop_
 _symmetry_equiv_pos_site_id
 _symmetry_equiv_pos_as_xyz
  1  'x, y, z'
loop_
 _atom_site_type_symbol
 _atom_site_label
 _atom_site_symmetry_multiplicity
 _atom_site_fract_x
 _atom_site_fract_y
 _atom_site_fract_z
 _atom_site_occupancy
  Hf  Hf0  1  0.19791700  0.80208300  0.45328400  1
  Hf  Hf1  1  0.19791700  0.39583300  0.45328400  1
  Hf  Hf2  1  0.60416700  0.80208300  0.45328400  1
  Hf  Hf3  1  0.80208300  0.19791700  0.54671600  1
  Hf  Hf4  1  0.80208300  0.60416700  0.54671600  1
  Hf  Hf5  1  0.39583300  0.19791700  0.54671600  1
  Hf  Hf6  1  0.80208300  0.19791700  0.95328400  1
  Hf  Hf7  1  0.80208300  0.60416700  0.95328400  1
  Hf  Hf8  1  0.39583300  0.19791700  0.95328400  1
  Hf  Hf9  1  0.19791700  0.80208300  0.04671600  1
  Hf  Hf10  1  0.19791700  0.39583300  0.04671600  1
  Hf  Hf11  1  0.60416700  0.80208300  0.04671600  1
  Hf  Hf12  1  0.53908000  0.46092000  0.25000000  1
  Hf  Hf13  1  0.53908000  0.07816000  0.25000000  1
  Hf  Hf14  1  0.92184000  0.46092000  0.25000000  1
  Hf  Hf15  1  0.46092000  0.53908000  0.75000000  1
  Hf  Hf16  1  0.46092000  0.92184000  0.75000000  1
  Hf  Hf17  1  0.07816000  0.53908000  0.75000000  1
  Mo  Mo0  1  0.88939200  0.11060800  0.25000000  1
  Mo  Mo1  1  0.88939200  0.77878300  0.25000000  1
  Mo  Mo2  1  0.22121700  0.11060800  0.25000000  1
  Mo  Mo3  1  0.11060800  0.88939200  0.75000000  1
  Mo  Mo4  1  0.11060800  0.22121700  0.75000000  1
  Mo  Mo5  1  0.77878300  0.88939200  0.75000000  1
  Mo  Mo6  1  0.00000000  0.00000000  0.50000000  1
  Mo  Mo7  1  0.00000000  0.00000000  0.00000000  1
  P  P0  1  0.33333300  0.66666700  0.25000000  1
  P  P1  1  0.66666700  0.33333300  0.75000000  1
loop_
_geom_bond_atom_site_label_1
_geom_bond_atom_site_label_2
_geom_bond_distance
_geom_bond_site_symmetry_2
Hf0 P0 2.680578 1_555
Hf0 Mo3 2.875087 1_555
Hf0 Mo6 2.989212 1_565
Hf0 Mo1 3.112650 1_455
Hf0 Mo2 3.112650 1_565
Hf1 P0 2.680589 1_555
Hf1 Mo4 2.875080 1_555
Hf1 Mo6 2.989204 1_555
Hf1 Mo0 3.112650 1_455
Hf1 Mo2 3.112650 1_555
Hf2 P0 2.680589 1_555
Hf2 Mo5 2.875080 1_555
Hf2 Mo6 2.989204 1_665
Hf2 Mo0 3.112650 1_565
Hf2 Mo1 3.112650 1_555
Hf3 P1 2.680578 1_555
Hf3 Mo0 2.875087 1_555
Hf3 Mo6 2.989212 1_655
Hf3 Mo4 3.112650 1_655
Hf3 Mo5 3.112650 1_545
Hf4 P1 2.680589 1_555
Hf4 Mo1 2.875080 1_555
Hf4 Mo6 2.989204 1_665
Hf4 Mo3 3.112650 1_655
Hf4 Mo5 3.112650 1_555
Hf5 P1 2.680589 1_555
Hf5 Mo2 2.875080 1_555
Hf5 Mo6 2.989204 1_555
Hf5 Mo3 3.112650 1_545
Hf5 Mo4 3.112650 1_555
Hf6 P1 2.680578 1_555
Hf6 Mo0 2.875087 1_556
Hf6 Mo7 2.989212 1_656
Hf6 Mo4 3.112650 1_655
Hf6 Mo5 3.112650 1_545
Hf7 P1 2.680589 1_555
Hf7 Mo1 2.875080 1_556
Hf7 Mo7 2.989204 1_666
Hf7 Mo3 3.112650 1_655
Hf7 Mo5 3.112650 1_555
Hf8 P1 2.680589 1_555
Hf8 Mo2 2.875080 1_556
Hf8 Mo7 2.989204 1_556
Hf8 Mo3 3.112650 1_545
Hf8 Mo4 3.112650 1_555
Hf9 P0 2.680578 1_555
Hf9 Mo3 2.875087 1_554
Hf9 Mo7 2.989212 1_565
Hf9 Mo1 3.112650 1_455
Hf9 Mo2 3.112650 1_565
Hf10 P0 2.680589 1_555
Hf10 Mo4 2.875080 1_554
Hf10 Mo7 2.989204 1_555
Hf10 Mo0 3.112650 1_455
Hf10 Mo2 3.112650 1_555
Hf11 P0 2.680589 1_555
Hf11 Mo5 2.875080 1_554
Hf11 Mo7 2.989204 1_665
Hf11 Mo0 3.112650 1_565
Hf11 Mo1 3.112650 1_555
Hf12 Mo2 2.896787 1_555
Hf12 Mo1 2.896787 1_555
Hf12 P0 3.079070 1_555
Hf13 Mo2 2.896782 1_555
Hf13 Mo0 2.896791 1_555
Hf13 P0 3.079062 1_545
Hf14 Mo1 2.896782 1_555
Hf14 Mo0 2.896791 1_555
Hf14 P0 3.079062 1_655
Hf15 Mo5 2.896787 1_555
Hf15 Mo4 2.896787 1_555
Hf15 P1 3.079070 1_555
Hf16 Mo5 2.896782 1_555
Hf16 Mo3 2.896791 1_555
Hf16 P1 3.079062 1_565
Hf17 Mo4 2.896782 1_555
Hf17 Mo3 2.896791 1_555
Hf17 P1 3.079062 1_455
Mo0 Mo7 2.719585 1_655
Mo0 Mo6 2.719585 1_655
Mo0 Mo1 2.867045 1_545
Mo0 Mo2 2.867045 1_655
Mo1 Mo6 2.719589 1_665
Mo1 Mo7 2.719589 1_665
Mo1 Mo2 2.867045 1_665
Mo2 Mo6 2.719589 1_555
Mo2 Mo7 2.719589 1_555
Mo3 Mo6 2.719585 1_565
Mo3 Mo7 2.719585 1_566
Mo3 Mo5 2.867045 1_455
Mo3 Mo4 2.867045 1_565
Mo4 Mo7 2.719589 1_556
Mo4 Mo6 2.719589 1_555
Mo4 Mo5 2.867045 1_445
Mo5 Mo7 2.719589 1_666
Mo5 Mo6 2.719589 1_665
