# generated using pymatgen
data_Li7Co5O12
_symmetry_space_group_name_H-M   'P 1'
_cell_length_a   2.88614300
_cell_length_b   5.90826600
_cell_length_c   12.59491180
_cell_angle_alpha   76.73811822
_cell_angle_beta   90.00000000
_cell_angle_gamma   90.00000000
_symmetry_Int_Tables_number   1
_chemical_formula_structural   Li7Co5O12
_chemical_formula_sum   'Li7 Co5 O12'
_cell_volume   209.04216115
_cell_formula_units_Z   1
loop_
 _symmetry_equiv_pos_site_id
 _symmetry_equiv_pos_as_xyz
  1  'x, y, z'
loop_
 _atom_site_type_symbol
 _atom_site_label
 _atom_site_symmetry_multiplicity
 _atom_site_fract_x
 _atom_site_fract_y
 _atom_site_fract_z
 _atom_site_occupancy
  Li  Li0  1  0.00000000  0.32104700  0.34212200  1
  Li  Li1  1  0.50000000  0.16436300  0.16771800  1
  Li  Li2  1  0.00000000  0.00000000  0.00000000  1
  Li  Li3  1  0.50000000  0.83563700  0.83228200  1
  Li  Li4  1  0.00000000  0.67895300  0.65787800  1
  Li  Li5  1  0.50000000  0.50000000  0.50000000  1
  Li  Li6  1  0.50000000  0.00000000  0.50000000  1
  Co  Co0  1  0.00000000  0.16454300  0.65979200  1
  Co  Co1  1  0.00000000  0.83545700  0.34020800  1
  Co  Co2  1  0.50000000  0.67074000  0.16750000  1
  Co  Co3  1  0.00000000  0.50000000  0.00000000  1
  Co  Co4  1  0.50000000  0.32926000  0.83250000  1
  O  O0  1  0.00000000  0.90062800  0.17716100  1
  O  O1  1  0.50000000  0.73857800  0.00508300  1
  O  O2  1  0.00000000  0.56824200  0.83682300  1
  O  O3  1  0.50000000  0.38383600  0.66968800  1
  O  O4  1  0.00000000  0.24349800  0.51441500  1
  O  O5  1  0.50000000  0.05119400  0.33316700  1
  O  O6  1  0.00000000  0.75650200  0.48558500  1
  O  O7  1  0.50000000  0.61616400  0.33031200  1
  O  O8  1  0.00000000  0.43175800  0.16317700  1
  O  O9  1  0.50000000  0.26142200  0.99491700  1
  O  O10  1  0.00000000  0.09937200  0.82283900  1
  O  O11  1  0.50000000  0.94880600  0.66683300  1
loop_
_geom_bond_atom_site_label_1
_geom_bond_atom_site_label_2
_geom_bond_distance
_geom_bond_site_symmetry_2
Li0 O4 2.112516 1_555
Li0 O5 2.172481 1_555
Li0 O5 2.172481 1_455
Li0 O8 2.197971 1_555
Li0 O7 2.241836 1_555
Li0 O7 2.241836 1_455
Li1 O5 2.037180 1_555
Li1 O0 2.107039 1_645
Li1 O0 2.107039 1_545
Li1 O9 2.119670 1_554
Li1 O8 2.130767 1_555
Li1 O8 2.130767 1_655
Li2 O9 2.104002 1_554
Li2 O9 2.104002 1_454
Li2 O1 2.104002 1_545
Li2 O1 2.104002 1_445
Li2 O0 2.173125 1_545
Li2 O10 2.173125 1_554
Li3 O11 2.037180 1_555
Li3 O10 2.107039 1_565
Li3 O10 2.107039 1_665
Li3 O1 2.119670 1_556
Li3 O2 2.130767 1_555
Li3 O2 2.130767 1_655
Li4 O6 2.112516 1_555
Li4 O11 2.172481 1_455
Li4 O11 2.172481 1_555
Li4 O2 2.197971 1_555
Li4 O3 2.241836 1_455
Li4 O3 2.241836 1_555
Li5 O6 2.070233 1_655
Li5 O6 2.070233 1_555
Li5 O4 2.070233 1_555
Li5 O4 2.070233 1_655
Li5 O7 2.089428 1_555
Li5 O3 2.089428 1_555
Li6 O11 2.053078 1_545
Li6 O5 2.053078 1_555
Li6 O6 2.074843 1_645
Li6 O4 2.074843 1_555
Li6 O6 2.074843 1_545
Li6 O4 2.074843 1_655
Co0 O4 1.782786 1_555
Co0 O11 1.913934 1_545
Co0 O11 1.913934 1_445
Co0 O3 1.962337 1_555
Co0 O3 1.962337 1_455
Co0 O10 2.000649 1_555
Co1 O6 1.782786 1_555
Co1 O5 1.913934 1_465
Co1 O5 1.913934 1_565
Co1 O7 1.962337 1_555
Co1 O7 1.962337 1_455
Co1 O0 2.000649 1_555
Co2 O1 1.992251 1_555
Co2 O7 2.001394 1_555
Co2 O0 2.004471 1_555
Co2 O0 2.004471 1_655
Co2 O8 2.028386 1_555
Co2 O8 2.028386 1_655
Co3 O8 2.001556 1_555
Co3 O2 2.001556 1_554
Co3 O1 2.028517 1_455
Co3 O1 2.028517 1_555
Co3 O9 2.028517 1_554
Co3 O9 2.028517 1_454
Co4 O9 1.992251 1_555
Co4 O3 2.001394 1_555
Co4 O10 2.004471 1_655
Co4 O10 2.004471 1_555
Co4 O2 2.028386 1_555
Co4 O2 2.028386 1_655
