# generated using pymatgen
data_PmMgSe3
_symmetry_space_group_name_H-M   'P 1'
_cell_length_a   8.55283098
_cell_length_b   12.05955500
_cell_length_c   8.03890952
_cell_angle_alpha   90.00000000
_cell_angle_beta   138.03847292
_cell_angle_gamma   90.00000000
_symmetry_Int_Tables_number   1
_chemical_formula_structural   PmMgSe3
_chemical_formula_sum   'Pm4 Mg4 Se12'
_cell_volume   554.40241397
_cell_formula_units_Z   4
loop_
 _symmetry_equiv_pos_site_id
 _symmetry_equiv_pos_as_xyz
  1  'x, y, z'
loop_
 _atom_site_type_symbol
 _atom_site_label
 _atom_site_symmetry_multiplicity
 _atom_site_fract_x
 _atom_site_fract_y
 _atom_site_fract_z
 _atom_site_occupancy
  Pm  Pm0  1  0.92866100  0.00000000  0.15594000  1
  Pm  Pm1  1  0.07133900  0.00000000  0.84406000  1
  Pm  Pm2  1  0.42866100  0.50000000  0.15594000  1
  Pm  Pm3  1  0.57133900  0.50000000  0.84406000  1
  Mg  Mg0  1  0.00000000  0.32648700  0.00000000  1
  Mg  Mg1  1  0.00000000  0.67351300  0.00000000  1
  Mg  Mg2  1  0.50000000  0.82648700  0.00000000  1
  Mg  Mg3  1  0.50000000  0.17351300  0.00000000  1
  Se  Se0  1  0.26310300  0.15621700  0.25181100  1
  Se  Se1  1  0.73689700  0.84378300  0.74818900  1
  Se  Se2  1  0.73689700  0.15621700  0.74818900  1
  Se  Se3  1  0.26310300  0.84378300  0.25181100  1
  Se  Se4  1  0.76310300  0.65621700  0.25181100  1
  Se  Se5  1  0.23689700  0.34378300  0.74818900  1
  Se  Se6  1  0.23689700  0.65621700  0.74818900  1
  Se  Se7  1  0.76310300  0.34378300  0.25181100  1
  Se  Se8  1  0.31430800  0.00000000  0.69614500  1
  Se  Se9  1  0.68569200  0.00000000  0.30385500  1
  Se  Se10  1  0.81430800  0.50000000  0.69614500  1
  Se  Se11  1  0.18569200  0.50000000  0.30385500  1
loop_
_geom_bond_atom_site_label_1
_geom_bond_atom_site_label_2
_geom_bond_distance
_geom_bond_site_symmetry_2
Pm0 Se8 2.904463 1_655
Pm0 Se2 2.998044 1_554
Pm0 Se1 2.998044 1_544
Pm0 Se0 3.007753 1_655
Pm0 Se3 3.007753 1_645
Pm0 Se9 3.067101 1_555
Pm0 Se8 3.519622 1_554
Pm1 Se9 2.904463 1_455
Pm1 Se0 2.998044 1_556
Pm1 Se3 2.998044 1_546
Pm1 Se2 3.007753 1_455
Pm1 Se1 3.007753 1_445
Pm1 Se8 3.067101 1_555
Pm1 Se9 3.519622 1_556
Pm2 Se10 2.904463 1_555
Pm2 Se6 2.998044 1_554
Pm2 Se5 2.998044 1_554
Pm2 Se4 3.007753 1_555
Pm2 Se7 3.007753 1_555
Pm2 Se11 3.067101 1_555
Pm2 Se10 3.519622 1_454
Pm3 Se11 2.904463 1_555
Pm3 Se4 2.998044 1_556
Pm3 Se7 2.998044 1_556
Pm3 Se6 3.007753 1_555
Pm3 Se5 3.007753 1_555
Pm3 Se10 3.067101 1_555
Pm3 Se11 3.519622 1_656
Mg0 Se0 2.569709 1_555
Mg0 Se2 2.569709 1_454
Mg0 Se10 2.664216 1_454
Mg0 Se11 2.664216 1_555
Mg1 Se3 2.569709 1_555
Mg1 Se1 2.569709 1_454
Mg1 Se10 2.664216 1_454
Mg1 Se11 2.664216 1_555
Mg2 Se6 2.569709 1_554
Mg2 Se4 2.569709 1_555
Mg2 Se8 2.664216 1_564
Mg2 Se9 2.664216 1_565
Mg3 Se5 2.569709 1_554
Mg3 Se7 2.569709 1_555
Mg3 Se8 2.664216 1_554
Mg3 Se9 2.664216 1_555
