# generated using pymatgen
data_SrCdAs2O7
_symmetry_space_group_name_H-M   'P 1'
_cell_length_a   5.89847500
_cell_length_b   7.28390159
_cell_length_c   7.62675375
_cell_angle_alpha   101.16600955
_cell_angle_beta   90.36449261
_cell_angle_gamma   98.71689502
_symmetry_Int_Tables_number   1
_chemical_formula_structural   SrCdAs2O7
_chemical_formula_sum   'Sr2 Cd2 As4 O14'
_cell_volume   317.54358166
_cell_formula_units_Z   2
loop_
 _symmetry_equiv_pos_site_id
 _symmetry_equiv_pos_as_xyz
  1  'x, y, z'
loop_
 _atom_site_type_symbol
 _atom_site_label
 _atom_site_symmetry_multiplicity
 _atom_site_fract_x
 _atom_site_fract_y
 _atom_site_fract_z
 _atom_site_occupancy
  Sr  Sr0  1  0.69034400  0.27475000  0.93572000  1
  Sr  Sr1  1  0.30965600  0.72525000  0.06428000  1
  Cd  Cd0  1  0.31550100  0.83232500  0.60085200  1
  Cd  Cd1  1  0.68449900  0.16767500  0.39914800  1
  As  As0  1  0.81727600  0.77883300  0.82064000  1
  As  As1  1  0.18272400  0.22116700  0.17936000  1
  As  As2  1  0.79238000  0.66908500  0.38622200  1
  As  As3  1  0.20762000  0.33091500  0.61377800  1
  O  O0  1  0.93448100  0.22518200  0.64122900  1
  O  O1  1  0.06551900  0.77481800  0.35877100  1
  O  O2  1  0.76760000  0.63445500  0.97019100  1
  O  O3  1  0.23240000  0.36554500  0.02980900  1
  O  O4  1  0.78695900  0.61851400  0.60751500  1
  O  O5  1  0.21304100  0.38148600  0.39248500  1
  O  O6  1  0.60575200  0.91696600  0.82340300  1
  O  O7  1  0.39424800  0.08303400  0.17659700  1
  O  O8  1  0.58843100  0.81550200  0.37556100  1
  O  O9  1  0.41156900  0.18449800  0.62443900  1
  O  O10  1  0.28596900  0.55367200  0.73207100  1
  O  O11  1  0.71403100  0.44632800  0.26792900  1
  O  O12  1  0.09159100  0.89696000  0.83968600  1
  O  O13  1  0.90840900  0.10304000  0.16031400  1
loop_
_geom_bond_atom_site_label_1
_geom_bond_atom_site_label_2
_geom_bond_distance
_geom_bond_site_symmetry_2
Cd0 O12 2.273955 1_555
Cd0 O1 2.288463 1_555
Cd0 O6 2.330225 1_555
Cd0 O8 2.360611 1_555
Cd0 O10 2.415216 1_555
Cd0 O9 2.512582 1_565
Cd1 O13 2.273955 1_555
Cd1 O0 2.288463 1_555
Cd1 O7 2.330225 1_555
Cd1 O9 2.360611 1_555
Cd1 O11 2.415216 1_555
Cd1 O8 2.512582 1_545
As0 O2 1.693562 1_555
As0 O12 1.704730 1_655
As0 O6 1.715248 1_555
As0 O4 1.798767 1_555
As1 O3 1.693562 1_555
As1 O13 1.704730 1_455
As1 O7 1.715248 1_555
As1 O5 1.798767 1_555
As2 O11 1.691337 1_555
As2 O1 1.709757 1_655
As2 O8 1.735627 1_555
As2 O4 1.795299 1_555
As3 O10 1.691337 1_555
As3 O0 1.709757 1_455
As3 O9 1.735627 1_555
As3 O5 1.795299 1_555
O0 Sr0 2.670822 1_555
O1 Sr1 2.670822 1_555
O2 Sr0 2.551719 1_555
O2 Sr1 2.937850 1_556
O2 Sr1 3.212655 1_656
O3 Sr1 2.551719 1_555
O3 Sr0 2.937850 1_554
O3 Sr0 3.212655 1_454
O6 Sr0 2.551496 1_565
O6 Sr1 2.944573 1_556
O7 Sr1 2.551496 1_545
O7 Sr0 2.944573 1_554
O8 Sr1 2.791136 1_555
O9 Sr0 2.791136 1_555
O10 Sr1 2.591738 1_556
O11 Sr0 2.591738 1_554
O12 Sr1 2.728037 1_556
O13 Sr0 2.728037 1_554
