# generated using pymatgen
data_CsThMo2ClO8
_symmetry_space_group_name_H-M   'P 1'
_cell_length_a   10.19181900
_cell_length_b   9.81797800
_cell_length_c   10.34858454
_cell_angle_alpha   84.11077166
_cell_angle_beta   90.00000000
_cell_angle_gamma   90.00000000
_symmetry_Int_Tables_number   1
_chemical_formula_structural   CsThMo2ClO8
_chemical_formula_sum   'Cs4 Th4 Mo8 Cl4 O32'
_cell_volume   1030.04568316
_cell_formula_units_Z   4
loop_
 _symmetry_equiv_pos_site_id
 _symmetry_equiv_pos_as_xyz
  1  'x, y, z'
loop_
 _atom_site_type_symbol
 _atom_site_label
 _atom_site_symmetry_multiplicity
 _atom_site_fract_x
 _atom_site_fract_y
 _atom_site_fract_z
 _atom_site_occupancy
  Cs  Cs0  1  0.27628700  0.99430200  0.51742200  1
  Cs  Cs1  1  0.77628700  0.50569800  0.48257800  1
  Cs  Cs2  1  0.72371300  0.00569800  0.48257800  1
  Cs  Cs3  1  0.22371300  0.49430200  0.51742200  1
  Th  Th0  1  0.46553900  0.69625700  0.16851600  1
  Th  Th1  1  0.96553900  0.80374300  0.83148400  1
  Th  Th2  1  0.53446100  0.30374300  0.83148400  1
  Th  Th3  1  0.03446100  0.19625700  0.16851600  1
  Mo  Mo0  1  0.77729900  0.50449200  0.08242100  1
  Mo  Mo1  1  0.27729900  0.99550800  0.91757900  1
  Mo  Mo2  1  0.22270100  0.49550800  0.91757900  1
  Mo  Mo3  1  0.72270100  0.00449200  0.08242100  1
  Mo  Mo4  1  0.09091800  0.78956600  0.20694700  1
  Mo  Mo5  1  0.59091800  0.71043400  0.79305300  1
  Mo  Mo6  1  0.90908200  0.21043400  0.79305300  1
  Mo  Mo7  1  0.40908200  0.28956600  0.20694700  1
  Cl  Cl0  1  0.00484400  0.77212000  0.56411000  1
  Cl  Cl1  1  0.50484400  0.72788000  0.43589000  1
  Cl  Cl2  1  0.99515600  0.22788000  0.43589000  1
  Cl  Cl3  1  0.49515600  0.27212000  0.56411000  1
  O  O0  1  0.32976200  0.59513800  0.00726700  1
  O  O1  1  0.82976200  0.90486200  0.99273300  1
  O  O2  1  0.67023800  0.40486200  0.99273300  1
  O  O3  1  0.17023800  0.09513800  0.00726700  1
  O  O4  1  0.37008900  0.88380300  0.03277300  1
  O  O5  1  0.87008900  0.61619700  0.96722700  1
  O  O6  1  0.62991100  0.11619700  0.96722700  1
  O  O7  1  0.12991100  0.38380300  0.03277300  1
  O  O8  1  0.08538800  0.79814500  0.03212300  1
  O  O9  1  0.58538800  0.70185500  0.96787700  1
  O  O10  1  0.91461200  0.20185500  0.96787700  1
  O  O11  1  0.41461200  0.29814500  0.03212300  1
  O  O12  1  0.61249000  0.88996000  0.17496400  1
  O  O13  1  0.11249000  0.61004000  0.82503600  1
  O  O14  1  0.38751000  0.11004000  0.82503600  1
  O  O15  1  0.88751000  0.38996000  0.17496400  1
  O  O16  1  0.68051100  0.58786200  0.19811000  1
  O  O17  1  0.18051100  0.91213800  0.80189000  1
  O  O18  1  0.31948900  0.41213800  0.80189000  1
  O  O19  1  0.81948900  0.08786200  0.19811000  1
  O  O20  1  0.07109400  0.96253600  0.25381200  1
  O  O21  1  0.57109400  0.53746400  0.74618800  1
  O  O22  1  0.92890600  0.03746400  0.74618800  1
  O  O23  1  0.42890600  0.46253600  0.25381200  1
  O  O24  1  0.24967700  0.71937400  0.26188900  1
  O  O25  1  0.74967700  0.78062600  0.73811100  1
  O  O26  1  0.75032300  0.28062600  0.73811100  1
  O  O27  1  0.25032300  0.21937400  0.26188900  1
  O  O28  1  0.46639600  0.82029100  0.73116400  1
  O  O29  1  0.96639600  0.67970900  0.26883600  1
  O  O30  1  0.53360400  0.17970900  0.26883600  1
  O  O31  1  0.03360400  0.32029100  0.73116400  1
loop_
_geom_bond_atom_site_label_1
_geom_bond_atom_site_label_2
_geom_bond_distance
_geom_bond_site_symmetry_2
Cs0 O17 3.127691 1_555
Cs0 O27 3.278225 1_565
Cs0 O28 3.284817 1_555
Cs0 O20 3.476677 1_555
Cs0 O14 3.667742 1_565
Cs1 O16 3.127691 1_555
Cs1 O26 3.278225 1_555
Cs1 O29 3.284817 1_555
Cs1 O21 3.476677 1_555
Cs1 O15 3.667742 1_555
Cs2 O19 3.127691 1_555
Cs2 O25 3.278225 1_545
Cs2 O30 3.284817 1_555
Cs2 O22 3.476677 1_555
Cs2 O12 3.667742 1_545
Cs3 O18 3.127691 1_555
Cs3 O24 3.278225 1_555
Cs3 O31 3.284817 1_555
Cs3 O23 3.476677 1_555
Cs3 O13 3.667742 1_555
Mo0 O2 1.787502 1_554
Mo0 O15 1.795079 1_555
Mo0 O5 1.802757 1_554
Mo0 O16 1.810382 1_555
Mo1 O3 1.787502 1_566
Mo1 O14 1.795079 1_565
Mo1 O4 1.802757 1_556
Mo1 O17 1.810382 1_555
Mo2 O0 1.787502 1_556
Mo2 O13 1.795079 1_555
Mo2 O7 1.802757 1_556
Mo2 O18 1.810382 1_555
Mo3 O1 1.787502 1_544
Mo3 O12 1.795079 1_545
Mo3 O6 1.802757 1_554
Mo3 O19 1.810382 1_555
Mo4 O29 1.744244 1_455
Mo4 O8 1.803368 1_555
Mo4 O20 1.824550 1_555
Mo4 O24 1.826431 1_555
Mo5 O28 1.744244 1_555
Mo5 O9 1.803368 1_555
Mo5 O21 1.824550 1_555
Mo5 O25 1.826431 1_555
Mo6 O31 1.744244 1_655
Mo6 O10 1.803368 1_555
Mo6 O22 1.824550 1_555
Mo6 O26 1.826431 1_555
Mo7 O30 1.744244 1_555
Mo7 O11 1.803368 1_555
Mo7 O23 1.824550 1_555
Mo7 O27 1.826431 1_555
Cl0 Th1 2.844139 1_455
Cl0 Cs0 3.525490 1_555
Cl0 Cs3 3.594390 1_555
Cl0 Cs1 3.665102 1_455
Cl0 Cs2 3.712609 1_465
Cl1 Th0 2.844139 1_555
Cl1 Cs1 3.525490 1_555
Cl1 Cs2 3.594390 1_565
Cl1 Cs0 3.665102 1_555
Cl1 Cs3 3.712609 1_555
Cl2 Th3 2.844139 1_655
Cl2 Cs2 3.525490 1_555
Cl2 Cs1 3.594390 1_555
Cl2 Cs3 3.665102 1_655
Cl2 Cs0 3.712609 1_645
Cl3 Th2 2.844139 1_555
Cl3 Cs3 3.525490 1_555
Cl3 Cs0 3.594390 1_545
Cl3 Cs2 3.665102 1_555
Cl3 Cs1 3.712609 1_555
O0 Th0 2.454605 1_555
O1 Th1 2.454605 1_555
O2 Th2 2.454605 1_555
O3 Th3 2.454605 1_555
O4 Th0 2.404027 1_555
O5 Th1 2.404027 1_555
O6 Th2 2.404027 1_555
O7 Th3 2.404027 1_555
O8 Th1 2.404737 1_454
O9 Th0 2.404737 1_556
O10 Th3 2.404737 1_656
O11 Th2 2.404737 1_554
O12 Th0 2.427000 1_555
O13 Th1 2.427000 1_455
O14 Th2 2.427000 1_555
O15 Th3 2.427000 1_655
O16 Th0 2.441262 1_555
O17 Th1 2.441262 1_455
O18 Th2 2.441262 1_555
O19 Th3 2.441262 1_655
O20 Th3 2.401747 1_565
O21 Th2 2.401747 1_555
O22 Th1 2.401747 1_545
O23 Th0 2.401747 1_555
O24 Th0 2.422876 1_555
O25 Th1 2.422876 1_555
O26 Th2 2.422876 1_555
O27 Th3 2.422876 1_555
