# generated using pymatgen
data_K3Bi2(NO3)9
_symmetry_space_group_name_H-M   'P 1'
_cell_length_a   13.70575833
_cell_length_b   13.70575833
_cell_length_c   13.70575833
_cell_angle_alpha   90.00000000
_cell_angle_beta   90.00000000
_cell_angle_gamma   90.00000000
_symmetry_Int_Tables_number   1
_chemical_formula_structural   K3Bi2(NO3)9
_chemical_formula_sum   'K12 Bi8 N36 O108'
_cell_volume   2574.59670587
_cell_formula_units_Z   4
loop_
 _symmetry_equiv_pos_site_id
 _symmetry_equiv_pos_as_xyz
  1  'x, y, z'
loop_
 _atom_site_type_symbol
 _atom_site_label
 _atom_site_symmetry_multiplicity
 _atom_site_fract_x
 _atom_site_fract_y
 _atom_site_fract_z
 _atom_site_occupancy
  K  K0  1  0.18811568  0.06188432  0.62500000  1
  K  K1  1  0.81188432  0.56188432  0.87500000  1
  K  K2  1  0.56188432  0.87500000  0.81188432  1
  K  K3  1  0.43811568  0.37500000  0.68811568  1
  K  K4  1  0.37500000  0.68811568  0.43811568  1
  K  K5  1  0.62500000  0.18811568  0.06188432  1
  K  K6  1  0.68811568  0.43811568  0.37500000  1
  K  K7  1  0.31188432  0.93811568  0.12500000  1
  K  K8  1  0.06188432  0.62500000  0.18811568  1
  K  K9  1  0.93811568  0.12500000  0.31188432  1
  K  K10  1  0.87500000  0.81188432  0.56188432  1
  K  K11  1  0.12500000  0.31188432  0.93811568  1
  Bi  Bi0  1  0.54566501  0.04566501  0.45433499  1
  Bi  Bi1  1  0.45433499  0.54566501  0.04566501  1
  Bi  Bi2  1  0.04566501  0.45433499  0.54566501  1
  Bi  Bi3  1  0.95433499  0.95433499  0.95433499  1
  Bi  Bi4  1  0.20433499  0.70433499  0.79566501  1
  Bi  Bi5  1  0.70433499  0.79566501  0.20433499  1
  Bi  Bi6  1  0.79566501  0.20433499  0.70433499  1
  Bi  Bi7  1  0.29566501  0.29566501  0.29566501  1
  N  N0  1  0.37500000  0.51606457  0.26606457  1
  N  N1  1  0.62500000  0.01606457  0.23393543  1
  N  N2  1  0.01606457  0.23393543  0.62500000  1
  N  N3  1  0.98393543  0.73393543  0.87500000  1
  N  N4  1  0.73393543  0.87500000  0.98393543  1
  N  N5  1  0.26606457  0.37500000  0.51606457  1
  N  N6  1  0.87500000  0.98393543  0.73393543  1
  N  N7  1  0.12500000  0.48393543  0.76606457  1
  N  N8  1  0.51606457  0.26606457  0.37500000  1
  N  N9  1  0.48393543  0.76606457  0.12500000  1
  N  N10  1  0.23393543  0.62500000  0.01606457  1
  N  N11  1  0.76606457  0.12500000  0.48393543  1
  N  N12  1  0.39725167  0.91423600  0.36255435  1
  N  N13  1  0.60274833  0.41423600  0.13744565  1
  N  N14  1  0.41423600  0.13744565  0.60274833  1
  N  N15  1  0.58576400  0.63744565  0.89725167  1
  N  N16  1  0.63744565  0.89725167  0.58576400  1
  N  N17  1  0.36255435  0.39725167  0.91423600  1
  N  N18  1  0.89725167  0.58576400  0.63744565  1
  N  N19  1  0.10274833  0.08576400  0.86255435  1
  N  N20  1  0.91423600  0.36255435  0.39725167  1
  N  N21  1  0.08576400  0.86255435  0.10274833  1
  N  N22  1  0.13744565  0.60274833  0.41423600  1
  N  N23  1  0.86255435  0.10274833  0.08576400  1
  N  N24  1  0.33576400  0.85274833  0.88744565  1
  N  N25  1  0.83576400  0.64725167  0.11255435  1
  N  N26  1  0.66423600  0.35274833  0.61255435  1
  N  N27  1  0.16423600  0.14725167  0.38744565  1
  N  N28  1  0.64725167  0.11255435  0.83576400  1
  N  N29  1  0.35274833  0.61255435  0.66423600  1
  N  N30  1  0.85274833  0.88744565  0.33576400  1
  N  N31  1  0.14725167  0.38744565  0.16423600  1
  N  N32  1  0.11255435  0.83576400  0.64725167  1
  N  N33  1  0.61255435  0.66423600  0.35274833  1
  N  N34  1  0.88744565  0.33576400  0.85274833  1
  N  N35  1  0.38744565  0.16423600  0.14725167  1
  O  O0  1  0.33955429  0.49633894  0.34816463  1
  O  O1  1  0.66044571  0.99633894  0.15183537  1
  O  O2  1  0.99633894  0.15183537  0.66044571  1
  O  O3  1  0.00366106  0.65183537  0.83955429  1
  O  O4  1  0.65183537  0.83955429  0.00366106  1
  O  O5  1  0.34816463  0.33955429  0.49633894  1
  O  O6  1  0.83955429  0.00366106  0.65183537  1
  O  O7  1  0.16044571  0.50366106  0.84816463  1
  O  O8  1  0.49633894  0.34816463  0.33955429  1
  O  O9  1  0.50366106  0.84816463  0.16044571  1
  O  O10  1  0.15183537  0.66044571  0.99633894  1
  O  O11  1  0.84816463  0.16044571  0.50366106  1
  O  O12  1  0.75366106  0.91044571  0.90183537  1
  O  O13  1  0.25366106  0.58955429  0.09816463  1
  O  O14  1  0.24633894  0.41044571  0.59816463  1
  O  O15  1  0.74633894  0.08955429  0.40183537  1
  O  O16  1  0.58955429  0.09816463  0.25366106  1
  O  O17  1  0.41044571  0.59816463  0.24633894  1
  O  O18  1  0.91044571  0.90183537  0.75366106  1
  O  O19  1  0.08955429  0.40183537  0.74633894  1
  O  O20  1  0.09816463  0.25366106  0.58955429  1
  O  O21  1  0.59816463  0.24633894  0.41044571  1
  O  O22  1  0.90183537  0.75366106  0.91044571  1
  O  O23  1  0.40183537  0.74633894  0.08955429  1
  O  O24  1  0.37500000  0.44945927  0.19945927  1
  O  O25  1  0.62500000  0.94945927  0.30054073  1
  O  O26  1  0.94945927  0.30054073  0.62500000  1
  O  O27  1  0.05054073  0.80054073  0.87500000  1
  O  O28  1  0.80054073  0.87500000  0.05054073  1
  O  O29  1  0.19945927  0.37500000  0.44945927  1
  O  O30  1  0.87500000  0.05054073  0.80054073  1
  O  O31  1  0.12500000  0.55054073  0.69945927  1
  O  O32  1  0.44945927  0.19945927  0.37500000  1
  O  O33  1  0.55054073  0.69945927  0.12500000  1
  O  O34  1  0.30054073  0.62500000  0.94945927  1
  O  O35  1  0.69945927  0.12500000  0.55054073  1
  O  O36  1  0.44529653  0.89100158  0.44002167  1
  O  O37  1  0.55470347  0.39100158  0.05997833  1
  O  O38  1  0.39100158  0.05997833  0.55470347  1
  O  O39  1  0.60899842  0.55997833  0.94529653  1
  O  O40  1  0.55997833  0.94529653  0.60899842  1
  O  O41  1  0.44002167  0.44529653  0.89100158  1
  O  O42  1  0.94529653  0.60899842  0.55997833  1
  O  O43  1  0.05470347  0.10899842  0.94002167  1
  O  O44  1  0.89100158  0.44002167  0.44529653  1
  O  O45  1  0.10899842  0.94002167  0.05470347  1
  O  O46  1  0.05997833  0.55470347  0.39100158  1
  O  O47  1  0.94002167  0.05470347  0.10899842  1
  O  O48  1  0.35899842  0.80470347  0.80997833  1
  O  O49  1  0.85899842  0.69529653  0.19002167  1
  O  O50  1  0.64100158  0.30470347  0.69002167  1
  O  O51  1  0.14100158  0.19529653  0.30997833  1
  O  O52  1  0.69529653  0.19002167  0.85899842  1
  O  O53  1  0.30470347  0.69002167  0.64100158  1
  O  O54  1  0.80470347  0.80997833  0.35899842  1
  O  O55  1  0.19529653  0.30997833  0.14100158  1
  O  O56  1  0.19002167  0.85899842  0.69529653  1
  O  O57  1  0.69002167  0.64100158  0.30470347  1
  O  O58  1  0.80997833  0.35899842  0.80470347  1
  O  O59  1  0.30997833  0.14100158  0.19529653  1
  O  O60  1  0.33763303  0.85685354  0.32554969  1
  O  O61  1  0.66236697  0.35685354  0.17445031  1
  O  O62  1  0.35685354  0.17445031  0.66236697  1
  O  O63  1  0.64314646  0.67445031  0.83763303  1
  O  O64  1  0.67445031  0.83763303  0.64314646  1
  O  O65  1  0.32554969  0.33763303  0.85685354  1
  O  O66  1  0.83763303  0.64314646  0.67445031  1
  O  O67  1  0.16236697  0.14314646  0.82554969  1
  O  O68  1  0.85685354  0.32554969  0.33763303  1
  O  O69  1  0.14314646  0.82554969  0.16236697  1
  O  O70  1  0.17445031  0.66236697  0.35685354  1
  O  O71  1  0.82554969  0.16236697  0.14314646  1
  O  O72  1  0.39314646  0.91236697  0.92445031  1
  O  O73  1  0.89314646  0.58763303  0.07554969  1
  O  O74  1  0.60685354  0.41236697  0.57554969  1
  O  O75  1  0.10685354  0.08763303  0.42445031  1
  O  O76  1  0.58763303  0.07554969  0.89314646  1
  O  O77  1  0.41236697  0.57554969  0.60685354  1
  O  O78  1  0.91236697  0.92445031  0.39314646  1
  O  O79  1  0.08763303  0.42445031  0.10685354  1
  O  O80  1  0.07554969  0.89314646  0.58763303  1
  O  O81  1  0.57554969  0.60685354  0.41236697  1
  O  O82  1  0.92445031  0.39314646  0.91236697  1
  O  O83  1  0.42445031  0.10685354  0.08763303  1
  O  O84  1  0.41397381  0.99808505  0.32605786  1
  O  O85  1  0.58602619  0.49808505  0.17394214  1
  O  O86  1  0.49808505  0.17394214  0.58602619  1
  O  O87  1  0.50191495  0.67394214  0.91397381  1
  O  O88  1  0.67394214  0.91397381  0.50191495  1
  O  O89  1  0.32605786  0.41397381  0.99808505  1
  O  O90  1  0.91397381  0.50191495  0.67394214  1
  O  O91  1  0.08602619  0.00191495  0.82605786  1
  O  O92  1  0.99808505  0.32605786  0.41397381  1
  O  O93  1  0.00191495  0.82605786  0.08602619  1
  O  O94  1  0.17394214  0.58602619  0.49808505  1
  O  O95  1  0.82605786  0.08602619  0.00191495  1
  O  O96  1  0.25191495  0.83602619  0.92394214  1
  O  O97  1  0.75191495  0.66397381  0.07605786  1
  O  O98  1  0.74808505  0.33602619  0.57605786  1
  O  O99  1  0.24808505  0.16397381  0.42394214  1
  O  O100  1  0.66397381  0.07605786  0.75191495  1
  O  O101  1  0.33602619  0.57605786  0.74808505  1
  O  O102  1  0.83602619  0.92394214  0.25191495  1
  O  O103  1  0.16397381  0.42394214  0.24808505  1
  O  O104  1  0.07605786  0.75191495  0.66397381  1
  O  O105  1  0.57605786  0.74808505  0.33602619  1
  O  O106  1  0.92394214  0.25191495  0.83602619  1
  O  O107  1  0.42394214  0.24808505  0.16397381  1
loop_
_geom_bond_atom_site_label_1
_geom_bond_atom_site_label_2
_geom_bond_distance
_geom_bond_site_symmetry_2
K0 O62 2.826839 1_555
K0 O80 2.826839 1_545
K0 O56 2.943004 1_545
K0 O38 2.943004 1_555
K0 O2 2.943578 1_455
K0 O20 2.943578 1_555
K0 O67 2.986683 1_555
K0 O75 2.986683 1_555
K0 O91 3.197964 1_555
K0 O99 3.197964 1_555
K1 O82 2.826839 1_555
K1 O63 2.826839 1_555
K1 O39 2.943004 1_555
K1 O58 2.943004 1_555
K1 O22 2.943578 1_555
K1 O3 2.943578 1_655
K1 O73 2.986683 1_556
K1 O66 2.986683 1_555
K1 O97 3.197964 1_556
K1 O90 3.197964 1_555
K2 O64 2.826839 1_555
K2 O72 2.826839 1_555
K2 O40 2.943004 1_555
K2 O48 2.943004 1_555
K2 O12 2.943578 1_555
K2 O4 2.943578 1_556
K2 O76 2.986683 1_565
K2 O63 2.986683 1_555
K2 O100 3.197964 1_565
K2 O87 3.197964 1_555
K3 O74 2.826839 1_555
K3 O65 2.826839 1_555
K3 O41 2.943004 1_555
K3 O50 2.943004 1_555
K3 O5 2.943578 1_555
K3 O14 2.943578 1_555
K3 O62 2.986683 1_555
K3 O77 2.986683 1_555
K3 O101 3.197964 1_555
K3 O86 3.197964 1_555
K4 O60 2.826839 1_555
K4 O77 2.826839 1_555
K4 O53 2.943004 1_555
K4 O36 2.943004 1_555
K4 O17 2.943578 1_555
K4 O0 2.943578 1_555
K4 O70 2.986683 1_555
K4 O81 2.986683 1_555
K4 O94 3.197964 1_555
K4 O105 3.197964 1_555
K5 O76 2.826839 1_554
K5 O61 2.826839 1_555
K5 O52 2.943004 1_554
K5 O37 2.943004 1_555
K5 O1 2.943578 1_545
K5 O16 2.943578 1_555
K5 O83 2.986683 1_555
K5 O71 2.986683 1_555
K5 O107 3.197964 1_555
K5 O95 3.197964 1_555
K6 O81 2.826839 1_555
K6 O68 2.826839 1_555
K6 O44 2.943004 1_555
K6 O57 2.943004 1_555
K6 O8 2.943578 1_555
K6 O21 2.943578 1_555
K6 O61 2.986683 1_555
K6 O74 2.986683 1_555
K6 O98 3.197964 1_555
K6 O85 3.197964 1_555
K7 O83 2.826839 1_565
K7 O69 2.826839 1_555
K7 O59 2.943004 1_565
K7 O45 2.943004 1_555
K7 O23 2.943578 1_555
K7 O9 2.943578 1_555
K7 O72 2.986683 1_554
K7 O60 2.986683 1_555
K7 O96 3.197964 1_554
K7 O84 3.197964 1_555
K8 O70 2.826839 1_555
K8 O73 2.826839 1_455
K8 O49 2.943004 1_455
K8 O46 2.943004 1_555
K8 O10 2.943578 1_554
K8 O13 2.943578 1_555
K8 O79 2.986683 1_555
K8 O69 2.986683 1_555
K8 O103 3.197964 1_555
K8 O93 3.197964 1_555
K9 O75 2.826839 1_655
K9 O71 2.826839 1_555
K9 O51 2.943004 1_655
K9 O47 2.943004 1_555
K9 O11 2.943578 1_555
K9 O15 2.943578 1_555
K9 O68 2.986683 1_555
K9 O78 2.986683 1_545
K9 O92 3.197964 1_555
K9 O102 3.197964 1_545
K10 O78 2.826839 1_555
K10 O66 2.826839 1_555
K10 O42 2.943004 1_555
K10 O54 2.943004 1_555
K10 O18 2.943578 1_555
K10 O6 2.943578 1_565
K10 O80 2.986683 1_655
K10 O64 2.986683 1_555
K10 O104 3.197964 1_655
K10 O88 3.197964 1_555
K11 O79 2.826839 1_556
K11 O67 2.826839 1_555
K11 O55 2.943004 1_556
K11 O43 2.943004 1_555
K11 O7 2.943578 1_555
K11 O19 2.943578 1_555
K11 O65 2.986683 1_555
K11 O82 2.986683 1_455
K11 O89 3.197964 1_555
K11 O106 3.197964 1_455
Bi0 O38 2.534620 1_555
Bi0 O40 2.534620 1_545
Bi0 O36 2.534620 1_545
Bi0 O88 2.602703 1_545
Bi0 O86 2.602703 1_555
Bi0 O84 2.602703 1_545
Bi0 O32 2.713680 1_555
Bi0 O35 2.713680 1_555
Bi0 O25 2.713680 1_545
Bi1 O37 2.534620 1_555
Bi1 O39 2.534620 1_554
Bi1 O41 2.534620 1_554
Bi1 O87 2.602703 1_554
Bi1 O89 2.602703 1_554
Bi1 O85 2.602703 1_555
Bi1 O24 2.713680 1_555
Bi1 O33 2.713680 1_555
Bi1 O34 2.713680 1_554
Bi2 O46 2.534620 1_555
Bi2 O42 2.534620 1_455
Bi2 O44 2.534620 1_455
Bi2 O90 2.602703 1_455
Bi2 O94 2.602703 1_555
Bi2 O92 2.602703 1_455
Bi2 O29 2.713680 1_555
Bi2 O31 2.713680 1_555
Bi2 O26 2.713680 1_455
Bi3 O47 2.534620 1_566
Bi3 O43 2.534620 1_665
Bi3 O45 2.534620 1_656
Bi3 O95 2.602703 1_566
Bi3 O91 2.602703 1_665
Bi3 O93 2.602703 1_656
Bi3 O30 2.713680 1_565
Bi3 O27 2.713680 1_655
Bi3 O28 2.713680 1_556
Bi4 O48 2.534620 1_555
Bi4 O56 2.534620 1_555
Bi4 O53 2.534620 1_555
Bi4 O101 2.602703 1_555
Bi4 O96 2.602703 1_555
Bi4 O104 2.602703 1_555
Bi4 O34 2.713680 1_555
Bi4 O31 2.713680 1_555
Bi4 O27 2.713680 1_555
Bi5 O54 2.534620 1_555
Bi5 O57 2.534620 1_555
Bi5 O49 2.534620 1_555
Bi5 O102 2.602703 1_555
Bi5 O105 2.602703 1_555
Bi5 O97 2.602703 1_555
Bi5 O25 2.713680 1_555
Bi5 O33 2.713680 1_555
Bi5 O28 2.713680 1_555
Bi6 O58 2.534620 1_555
Bi6 O50 2.534620 1_555
Bi6 O52 2.534620 1_555
Bi6 O98 2.602703 1_555
Bi6 O106 2.602703 1_555
Bi6 O100 2.602703 1_555
Bi6 O26 2.713680 1_555
Bi6 O35 2.713680 1_555
Bi6 O30 2.713680 1_555
Bi7 O55 2.534620 1_555
Bi7 O59 2.534620 1_555
Bi7 O51 2.534620 1_555
Bi7 O107 2.602703 1_555
Bi7 O99 2.602703 1_555
Bi7 O103 2.602703 1_555
Bi7 O32 2.713680 1_555
Bi7 O29 2.713680 1_555
Bi7 O24 2.713680 1_555
N0 O0 1.255100 1_555
N0 O17 1.255100 1_555
N0 O24 1.291002 1_555
N1 O16 1.255100 1_555
N1 O1 1.255100 1_545
N1 O25 1.291002 1_545
N2 O20 1.255100 1_555
N2 O2 1.255100 1_455
N2 O26 1.291002 1_455
N3 O22 1.255100 1_555
N3 O3 1.255100 1_655
N3 O27 1.291002 1_655
N4 O4 1.255100 1_556
N4 O12 1.255100 1_555
N4 O28 1.291002 1_556
N5 O5 1.255100 1_555
N5 O14 1.255100 1_555
N5 O29 1.291002 1_555
N6 O18 1.255100 1_555
N6 O6 1.255100 1_565
N6 O30 1.291002 1_565
N7 O19 1.255100 1_555
N7 O7 1.255100 1_555
N7 O31 1.291002 1_555
N8 O8 1.255100 1_555
N8 O21 1.255100 1_555
N8 O32 1.291002 1_555
N9 O23 1.255100 1_555
N9 O9 1.255100 1_555
N9 O33 1.291002 1_555
N10 O10 1.255100 1_554
N10 O13 1.255100 1_555
N10 O34 1.291002 1_554
N11 O15 1.255100 1_555
N11 O11 1.255100 1_555
N11 O35 1.291002 1_555
N12 O60 1.242355 1_555
N12 O84 1.274141 1_555
N12 O36 1.289313 1_555
N13 O61 1.242355 1_555
N13 O85 1.274141 1_555
N13 O37 1.289313 1_555
N14 O62 1.242355 1_555
N14 O86 1.274141 1_555
N14 O38 1.289313 1_555
N15 O63 1.242355 1_555
N15 O87 1.274141 1_555
N15 O39 1.289313 1_555
N16 O64 1.242355 1_555
N16 O88 1.274141 1_555
N16 O40 1.289313 1_555
N17 O65 1.242355 1_555
N17 O89 1.274141 1_555
N17 O41 1.289313 1_555
N18 O66 1.242355 1_555
N18 O90 1.274141 1_555
N18 O42 1.289313 1_555
N19 O67 1.242355 1_555
N19 O91 1.274141 1_555
N19 O43 1.289313 1_555
N20 O68 1.242355 1_555
N20 O92 1.274141 1_555
N20 O44 1.289313 1_555
N21 O69 1.242355 1_555
N21 O93 1.274141 1_555
N21 O45 1.289313 1_555
N22 O70 1.242355 1_555
N22 O94 1.274141 1_555
N22 O46 1.289313 1_555
N23 O71 1.242355 1_555
N23 O95 1.274141 1_555
N23 O47 1.289313 1_555
N24 O72 1.242355 1_555
N24 O96 1.274141 1_555
N24 O48 1.289313 1_555
N25 O73 1.242355 1_555
N25 O97 1.274141 1_555
N25 O49 1.289313 1_555
N26 O74 1.242355 1_555
N26 O98 1.274141 1_555
N26 O50 1.289313 1_555
N27 O75 1.242355 1_555
N27 O99 1.274141 1_555
N27 O51 1.289313 1_555
N28 O76 1.242355 1_555
N28 O100 1.274141 1_555
N28 O52 1.289313 1_555
N29 O77 1.242355 1_555
N29 O101 1.274141 1_555
N29 O53 1.289313 1_555
N30 O78 1.242355 1_555
N30 O102 1.274141 1_555
N30 O54 1.289313 1_555
N31 O79 1.242355 1_555
N31 O103 1.274141 1_555
N31 O55 1.289313 1_555
N32 O80 1.242355 1_555
N32 O104 1.274141 1_555
N32 O56 1.289313 1_555
N33 O81 1.242355 1_555
N33 O105 1.274141 1_555
N33 O57 1.289313 1_555
N34 O82 1.242355 1_555
N34 O106 1.274141 1_555
N34 O58 1.289313 1_555
N35 O83 1.242355 1_555
N35 O107 1.274141 1_555
N35 O59 1.289313 1_555
