# generated using pymatgen
data_Mg3Si4
_symmetry_space_group_name_H-M   'P 1'
_cell_length_a   5.13593600
_cell_length_b   7.04136728
_cell_length_c   8.04377668
_cell_angle_alpha   110.09042247
_cell_angle_beta   92.14952598
_cell_angle_gamma   106.81289432
_symmetry_Int_Tables_number   1
_chemical_formula_structural   Mg3Si4
_chemical_formula_sum   'Mg6 Si8'
_cell_volume   258.46853167
_cell_formula_units_Z   2
loop_
 _symmetry_equiv_pos_site_id
 _symmetry_equiv_pos_as_xyz
  1  'x, y, z'
loop_
 _atom_site_type_symbol
 _atom_site_label
 _atom_site_symmetry_multiplicity
 _atom_site_fract_x
 _atom_site_fract_y
 _atom_site_fract_z
 _atom_site_occupancy
  Mg  Mg0  1  0.70388300  0.86720800  0.01723300  1
  Mg  Mg1  1  0.29611700  0.13279200  0.98276700  1
  Mg  Mg2  1  0.30393600  0.11139700  0.59509500  1
  Mg  Mg3  1  0.80428900  0.60115300  0.61931200  1
  Mg  Mg4  1  0.19571100  0.39884700  0.38068800  1
  Mg  Mg5  1  0.69606400  0.88860300  0.40490500  1
  Si  Si0  1  0.74548200  0.43000900  0.88037900  1
  Si  Si1  1  0.24074600  0.48127900  0.80524700  1
  Si  Si2  1  0.19299300  0.91927600  0.23432000  1
  Si  Si3  1  0.62867800  0.23374300  0.31477100  1
  Si  Si4  1  0.80700700  0.08072400  0.76568000  1
  Si  Si5  1  0.75925400  0.51872100  0.19475300  1
  Si  Si6  1  0.25451800  0.56999100  0.11962100  1
  Si  Si7  1  0.37132200  0.76625700  0.68522900  1
loop_
_geom_bond_atom_site_label_1
_geom_bond_atom_site_label_2
_geom_bond_distance
_geom_bond_site_symmetry_2
Mg0 Si2 2.862218 1_655
Mg0 Si7 2.864581 1_554
Mg0 Si4 2.888747 1_564
Mg0 Si1 2.953503 1_554
Mg0 Si0 2.967230 1_554
Mg0 Si6 2.986166 1_555
Mg0 Si3 2.990104 1_565
Mg1 Si4 2.862218 1_455
Mg1 Si3 2.864581 1_556
Mg1 Si2 2.888747 1_546
Mg1 Si5 2.953503 1_556
Mg1 Si6 2.967230 1_556
Mg1 Si0 2.986166 1_555
Mg1 Si7 2.990104 1_545
Mg2 Si1 2.692881 1_555
Mg2 Si2 2.703569 1_545
Mg2 Si7 2.868765 1_545
Mg2 Si0 2.927691 1_555
Mg2 Si4 2.930966 1_455
Mg2 Si4 2.977519 1_555
Mg2 Si3 3.064922 1_555
Mg3 Si0 2.743884 1_555
Mg3 Si7 2.759702 1_655
Mg3 Si3 2.763658 1_555
Mg3 Si7 2.781717 1_555
Mg3 Si4 3.166942 1_565
Mg4 Si6 2.743884 1_555
Mg4 Si3 2.759702 1_455
Mg4 Si7 2.763658 1_555
Mg4 Si3 2.781717 1_555
Mg4 Si2 3.166942 1_545
Mg5 Si5 2.692881 1_555
Mg5 Si4 2.703569 1_565
Mg5 Si3 2.868765 1_565
Mg5 Si6 2.927691 1_555
Mg5 Si2 2.930966 1_655
Mg5 Si2 2.977519 1_555
Mg5 Si7 3.064922 1_555
Si0 Si5 2.380257 1_556
Si0 Si4 2.431560 1_555
Si0 Si1 2.588372 1_655
Si0 Si1 2.790929 1_555
Si0 Si6 2.887662 1_656
Si1 Si6 2.380257 1_556
Si1 Si7 2.451381 1_555
Si2 Si6 2.431560 1_555
Si2 Si3 2.523790 1_565
Si3 Si5 2.451381 1_555
Si4 Si7 2.523790 1_545
Si5 Si6 2.588372 1_655
Si5 Si6 2.790929 1_555
