# generated using pymatgen
data_KLiYbF5
_symmetry_space_group_name_H-M   'P 1'
_cell_length_a   6.30466061
_cell_length_b   6.15148784
_cell_length_c   11.62101220
_cell_angle_alpha   90.00000000
_cell_angle_beta   90.00000000
_cell_angle_gamma   113.63786183
_symmetry_Int_Tables_number   1
_chemical_formula_structural   KLiYbF5
_chemical_formula_sum   'K4 Li4 Yb4 F20'
_cell_volume   412.88372229
_cell_formula_units_Z   4
loop_
 _symmetry_equiv_pos_site_id
 _symmetry_equiv_pos_as_xyz
  1  'x, y, z'
loop_
 _atom_site_type_symbol
 _atom_site_label
 _atom_site_symmetry_multiplicity
 _atom_site_fract_x
 _atom_site_fract_y
 _atom_site_fract_z
 _atom_site_occupancy
  K  K0  1  0.94583832  0.95622531  0.34888111  1
  K  K1  1  0.05416168  0.04377469  0.65111889  1
  K  K2  1  0.05416168  0.54377469  0.84888111  1
  K  K3  1  0.94583832  0.45622531  0.15111889  1
  Li  Li0  1  0.56146423  0.96311746  0.74798469  1
  Li  Li1  1  0.43853577  0.03688254  0.25201531  1
  Li  Li2  1  0.43853577  0.53688254  0.24798469  1
  Li  Li3  1  0.56146423  0.46311746  0.75201531  1
  Yb  Yb0  1  0.68228987  0.81879489  0.99815597  1
  Yb  Yb1  1  0.31771013  0.18120511  0.00184403  1
  Yb  Yb2  1  0.31771013  0.68120511  0.49815597  1
  Yb  Yb3  1  0.68228987  0.31879489  0.50184403  1
  F  F0  1  0.72688175  0.77744262  0.80788226  1
  F  F1  1  0.27311825  0.22255738  0.19211774  1
  F  F2  1  0.27311825  0.72255738  0.30788226  1
  F  F3  1  0.72688175  0.27744262  0.69211774  1
  F  F4  1  0.66584689  0.95073911  0.52881954  1
  F  F5  1  0.33415311  0.04926089  0.47118046  1
  F  F6  1  0.33415311  0.54926089  0.02881954  1
  F  F7  1  0.66584689  0.45073911  0.97118046  1
  F  F8  1  0.95432001  0.67194773  0.51193612  1
  F  F9  1  0.04567999  0.32805227  0.48806388  1
  F  F10  1  0.04567999  0.82805227  0.01193612  1
  F  F11  1  0.95432001  0.17194773  0.98806388  1
  F  F12  1  0.46365111  0.96511784  0.89650241  1
  F  F13  1  0.53634889  0.03488216  0.10349759  1
  F  F14  1  0.53634889  0.53488216  0.39650241  1
  F  F15  1  0.46365111  0.46511784  0.60349759  1
  F  F16  1  0.29322745  0.77965746  0.67334175  1
  F  F17  1  0.70677255  0.22034254  0.32665825  1
  F  F18  1  0.70677255  0.72034254  0.17334175  1
  F  F19  1  0.29322745  0.27965746  0.82665825  1
loop_
_geom_bond_atom_site_label_1
_geom_bond_atom_site_label_2
_geom_bond_distance
_geom_bond_site_symmetry_2
F0 Li3 1.905456 1_555
F0 Li0 1.957534 1_555
F0 Yb0 2.256187 1_555
F0 K1 2.747657 1_665
F0 K2 2.988162 1_655
F1 Li2 1.905456 1_555
F1 Li1 1.957534 1_555
F1 Yb1 2.256187 1_555
F1 K0 2.747657 1_445
F1 K3 2.988162 1_455
F2 Li1 1.905456 1_565
F2 Li2 1.957534 1_555
F2 Yb2 2.256187 1_555
F2 K3 2.747657 1_455
F2 K0 2.988162 1_455
F3 Li0 1.905456 1_545
F3 Li3 1.957534 1_555
F3 Yb3 2.256187 1_555
F3 K2 2.747657 1_655
F3 K1 2.988162 1_655
F4 Yb2 2.185240 1_555
F4 Yb3 2.246532 1_565
F4 K1 2.686549 1_665
F4 K0 2.728010 1_555
F5 Yb3 2.185240 1_555
F5 Yb2 2.246532 1_545
F5 K0 2.686549 1_445
F5 K1 2.728010 1_555
F6 Yb0 2.185240 1_554
F6 Yb1 2.246532 1_555
F6 K3 2.686549 1_455
F6 K2 2.728010 1_554
F7 Yb1 2.185240 1_556
F7 Yb0 2.246532 1_555
F7 K2 2.686549 1_655
F7 K3 2.728010 1_556
F8 Yb3 2.164902 1_555
F8 Yb2 2.274463 1_655
F8 K0 2.593533 1_555
F8 K1 2.662608 1_665
F9 Yb2 2.164902 1_555
F9 Yb3 2.274463 1_455
F9 K1 2.593533 1_555
F9 K0 2.662608 1_445
F10 Yb1 2.164902 1_565
F10 Yb0 2.274463 1_454
F10 K2 2.593533 1_554
F10 K3 2.662608 1_455
F11 Yb0 2.164902 1_545
F11 Yb1 2.274463 1_656
F11 K3 2.593533 1_556
F11 K2 2.662608 1_655
F12 Li0 1.834489 1_555
F12 Yb1 2.256749 1_566
F12 Yb0 2.258487 1_555
F12 K2 2.885019 1_555
F13 Li1 1.834489 1_555
F13 Yb0 2.256749 1_544
F13 Yb1 2.258487 1_555
F13 K3 2.885019 1_555
F14 Li2 1.834489 1_555
F14 Yb3 2.256749 1_555
F14 Yb2 2.258487 1_555
F14 K0 2.885019 1_555
F15 Li3 1.834489 1_555
F15 Yb2 2.256749 1_555
F15 Yb3 2.258487 1_555
F15 K1 2.885019 1_555
F16 Li0 1.831814 1_555
F16 Yb2 2.147138 1_555
F16 K2 2.604765 1_555
F16 K1 2.634740 1_565
F17 Li1 1.831814 1_555
F17 Yb3 2.147138 1_555
F17 K3 2.604765 1_555
F17 K0 2.634740 1_545
F18 Li2 1.831814 1_555
F18 Yb0 2.147138 1_554
F18 K0 2.604765 1_555
F18 K3 2.634740 1_555
F19 Li3 1.831814 1_555
F19 Yb1 2.147138 1_556
F19 K1 2.604765 1_555
F19 K2 2.634740 1_555
