# generated using pymatgen
data_K4Na4MoW7O24
_symmetry_space_group_name_H-M   'P 1'
_cell_length_a   8.03199600
_cell_length_b   8.03199600
_cell_length_c   8.00922400
_cell_angle_alpha   90.00000000
_cell_angle_beta   90.00000000
_cell_angle_gamma   90.00000000
_symmetry_Int_Tables_number   1
_chemical_formula_structural   K4Na4MoW7O24
_chemical_formula_sum   'K4 Na4 Mo1 W7 O24'
_cell_volume   516.69874549
_cell_formula_units_Z   1
loop_
 _symmetry_equiv_pos_site_id
 _symmetry_equiv_pos_as_xyz
  1  'x, y, z'
loop_
 _atom_site_type_symbol
 _atom_site_label
 _atom_site_symmetry_multiplicity
 _atom_site_fract_x
 _atom_site_fract_y
 _atom_site_fract_z
 _atom_site_occupancy
  K  K0  1  0.25220700  0.25220700  0.25182000  1
  K  K1  1  0.74779300  0.25220700  0.25182000  1
  K  K2  1  0.25220700  0.74779300  0.25182000  1
  K  K3  1  0.74779300  0.74779300  0.25182000  1
  Na  Na0  1  0.25241600  0.25241600  0.74814800  1
  Na  Na1  1  0.74758400  0.25241600  0.74814800  1
  Na  Na2  1  0.25241600  0.74758400  0.74814800  1
  Na  Na3  1  0.74758400  0.74758400  0.74814800  1
  Mo  Mo0  1  0.50000000  0.50000000  0.50142100  1
  W  W0  1  0.00000000  0.00000000  0.99825500  1
  W  W1  1  0.00000000  0.00000000  0.50151400  1
  W  W2  1  0.50000000  0.00000000  0.99785800  1
  W  W3  1  0.50000000  0.00000000  0.50227700  1
  W  W4  1  0.00000000  0.50000000  0.99785800  1
  W  W5  1  0.00000000  0.50000000  0.50227700  1
  W  W6  1  0.50000000  0.50000000  0.99793700  1
  O  O0  1  0.00000000  0.25513100  0.99585200  1
  O  O1  1  0.00000000  0.25654100  0.50414300  1
  O  O2  1  0.50000000  0.24599500  0.99552900  1
  O  O3  1  0.50000000  0.23888400  0.50436800  1
  O  O4  1  0.00000000  0.74486900  0.99585200  1
  O  O5  1  0.00000000  0.74345900  0.50414300  1
  O  O6  1  0.50000000  0.75400500  0.99552900  1
  O  O7  1  0.50000000  0.76111600  0.50436800  1
  O  O8  1  0.25513100  0.00000000  0.99585200  1
  O  O9  1  0.25654100  0.00000000  0.50414300  1
  O  O10  1  0.74486900  0.00000000  0.99585200  1
  O  O11  1  0.74345900  0.00000000  0.50414300  1
  O  O12  1  0.24599500  0.50000000  0.99552900  1
  O  O13  1  0.23888400  0.50000000  0.50436800  1
  O  O14  1  0.75400500  0.50000000  0.99552900  1
  O  O15  1  0.76111600  0.50000000  0.50436800  1
  O  O16  1  0.00000000  0.00000000  0.26214900  1
  O  O17  1  0.00000000  0.00000000  0.73968200  1
  O  O18  1  0.50000000  0.00000000  0.25382300  1
  O  O19  1  0.50000000  0.00000000  0.74724600  1
  O  O20  1  0.00000000  0.50000000  0.25382300  1
  O  O21  1  0.00000000  0.50000000  0.74724600  1
  O  O22  1  0.50000000  0.50000000  0.23891200  1
  O  O23  1  0.50000000  0.50000000  0.75828100  1
loop_
_geom_bond_atom_site_label_1
_geom_bond_atom_site_label_2
_geom_bond_distance
_geom_bond_site_symmetry_2
K0 O22 2.816568 1_555
K0 O3 2.839719 1_555
K0 O13 2.839719 1_555
K0 O18 2.839895 1_555
K0 O20 2.839895 1_555
K0 O12 2.859584 1_554
K0 O2 2.859584 1_554
K0 O1 2.861618 1_555
K0 O9 2.861618 1_555
K0 O16 2.866003 1_555
K0 O0 2.882195 1_554
K0 O8 2.882195 1_554
K1 O22 2.816568 1_555
K1 O15 2.839719 1_555
K1 O3 2.839719 1_555
K1 O20 2.839895 1_655
K1 O18 2.839895 1_555
K1 O14 2.859584 1_554
K1 O2 2.859584 1_554
K1 O1 2.861618 1_655
K1 O11 2.861618 1_555
K1 O16 2.866003 1_655
K1 O0 2.882195 1_654
K1 O10 2.882195 1_554
K2 O22 2.816568 1_555
K2 O7 2.839719 1_555
K2 O13 2.839719 1_555
K2 O18 2.839895 1_565
K2 O20 2.839895 1_555
K2 O6 2.859584 1_554
K2 O12 2.859584 1_554
K2 O9 2.861618 1_565
K2 O5 2.861618 1_555
K2 O16 2.866003 1_565
K2 O4 2.882195 1_554
K2 O8 2.882195 1_564
K3 O22 2.816568 1_555
K3 O15 2.839719 1_555
K3 O7 2.839719 1_555
K3 O18 2.839895 1_565
K3 O20 2.839895 1_655
K3 O14 2.859584 1_554
K3 O6 2.859584 1_554
K3 O11 2.861618 1_565
K3 O5 2.861618 1_655
K3 O16 2.866003 1_665
K3 O10 2.882195 1_564
K3 O4 2.882195 1_654
Na0 O13 2.789002 1_555
Na0 O3 2.789002 1_555
Na0 O2 2.807638 1_555
Na0 O12 2.807638 1_555
Na0 O23 2.813467 1_555
Na0 O9 2.816153 1_555
Na0 O1 2.816153 1_555
Na0 O0 2.836683 1_555
Na0 O8 2.836683 1_555
Na0 O21 2.839881 1_555
Na0 O19 2.839881 1_555
Na0 O17 2.867984 1_555
Na1 O15 2.789002 1_555
Na1 O3 2.789002 1_555
Na1 O14 2.807638 1_555
Na1 O2 2.807638 1_555
Na1 O23 2.813467 1_555
Na1 O11 2.816153 1_555
Na1 O1 2.816153 1_655
Na1 O10 2.836683 1_555
Na1 O0 2.836683 1_655
Na1 O21 2.839881 1_655
Na1 O19 2.839881 1_555
Na1 O17 2.867984 1_655
Na2 O13 2.789002 1_555
Na2 O7 2.789002 1_555
Na2 O6 2.807638 1_555
Na2 O12 2.807638 1_555
Na2 O23 2.813467 1_555
Na2 O9 2.816153 1_565
Na2 O5 2.816153 1_555
Na2 O8 2.836683 1_565
Na2 O4 2.836683 1_555
Na2 O21 2.839881 1_555
Na2 O19 2.839881 1_565
Na2 O17 2.867984 1_565
Na3 O15 2.789002 1_555
Na3 O7 2.789002 1_555
Na3 O14 2.807638 1_555
Na3 O6 2.807638 1_555
Na3 O23 2.813467 1_555
Na3 O11 2.816153 1_565
Na3 O5 2.816153 1_655
Na3 O4 2.836683 1_655
Na3 O10 2.836683 1_565
Na3 O21 2.839881 1_655
Na3 O19 2.839881 1_565
Na3 O17 2.867984 1_665
Mo0 O23 2.057249 1_555
Mo0 O15 2.097415 1_555
Mo0 O7 2.097415 1_555
Mo0 O13 2.097415 1_555
Mo0 O3 2.097415 1_555
Mo0 O22 2.102493 1_555
O0 W4 1.966852 1_555
O0 W0 2.049302 1_555
O1 W5 1.955519 1_555
O1 W1 2.060644 1_555
O2 W2 1.975919 1_555
O2 W6 2.040258 1_555
O3 W3 1.918788 1_555
O4 W4 1.966852 1_555
O4 W0 2.049302 1_565
O5 W5 1.955519 1_555
O5 W1 2.060644 1_565
O6 W2 1.975919 1_565
O6 W6 2.040258 1_555
O7 W3 1.918788 1_565
O8 W2 1.966852 1_555
O8 W0 2.049302 1_555
O9 W3 1.955519 1_555
O9 W1 2.060644 1_555
O10 W2 1.966852 1_555
O10 W0 2.049302 1_655
O11 W3 1.955519 1_555
O11 W1 2.060644 1_655
O12 W4 1.975919 1_555
O12 W6 2.040258 1_555
O13 W5 1.918788 1_555
O14 W4 1.975919 1_655
O14 W6 2.040258 1_555
O15 W5 1.918788 1_655
O16 W1 1.917128 1_555
O16 W0 2.113586 1_554
O17 W1 1.907541 1_555
O17 W0 2.070969 1_555
O18 W3 1.989924 1_555
O18 W2 2.050081 1_554
O19 W3 1.962012 1_555
O19 W2 2.007208 1_555
O20 W5 1.989924 1_555
O20 W4 2.050081 1_554
O21 W5 1.962012 1_555
O21 W4 2.007208 1_555
O22 W6 1.930023 1_554
O23 W6 1.919459 1_555
