# generated using pymatgen
data_K4ZnBi2
_symmetry_space_group_name_H-M   'P 1'
_cell_length_a   6.14371977
_cell_length_b   6.14371977
_cell_length_c   17.55191932
_cell_angle_alpha   90.00000000
_cell_angle_beta   90.00000000
_cell_angle_gamma   119.19076570
_symmetry_Int_Tables_number   1
_chemical_formula_structural   K4ZnBi2
_chemical_formula_sum   'K8 Zn2 Bi4'
_cell_volume   578.36499372
_cell_formula_units_Z   2
loop_
 _symmetry_equiv_pos_site_id
 _symmetry_equiv_pos_as_xyz
  1  'x, y, z'
loop_
 _atom_site_type_symbol
 _atom_site_label
 _atom_site_symmetry_multiplicity
 _atom_site_fract_x
 _atom_site_fract_y
 _atom_site_fract_z
 _atom_site_occupancy
  K  K0  1  0.22785412  0.89527957  0.89691243  1
  K  K1  1  0.89527957  0.22785412  0.10308757  1
  K  K2  1  0.77214588  0.10472043  0.39691243  1
  K  K3  1  0.10472043  0.77214588  0.60308757  1
  K  K4  1  0.56660551  0.56660551  0.00000000  1
  K  K5  1  0.43339449  0.43339449  0.50000000  1
  K  K6  1  0.50102686  0.49897314  0.75000000  1
  K  K7  1  0.49897314  0.50102686  0.25000000  1
  Zn  Zn0  1  0.83533690  0.16466310  0.75000000  1
  Zn  Zn1  1  0.16466310  0.83533690  0.25000000  1
  Bi  Bi0  1  0.89723661  0.23685675  0.89375253  1
  Bi  Bi1  1  0.23685675  0.89723661  0.10624747  1
  Bi  Bi2  1  0.10276339  0.76314325  0.39375253  1
  Bi  Bi3  1  0.76314325  0.10276339  0.60624747  1
loop_
_geom_bond_atom_site_label_1
_geom_bond_atom_site_label_2
_geom_bond_distance
_geom_bond_site_symmetry_2
K6 Zn0 3.542879 1_555
K6 Zn0 3.570900 1_455
K6 Zn0 3.570900 1_565
K7 Zn1 3.542879 1_555
K7 Zn1 3.570900 1_545
K7 Zn1 3.570900 1_655
Bi0 Zn0 2.557932 1_555
Bi0 K0 3.532349 1_655
Bi0 K0 3.562414 1_645
Bi0 K0 3.591842 1_545
Bi0 K1 3.674579 1_556
Bi0 K4 3.965119 1_556
Bi0 K4 4.045637 1_656
Bi0 K4 4.049851 1_546
Bi1 Zn1 2.557932 1_555
Bi1 K1 3.532349 1_565
Bi1 K1 3.562414 1_465
Bi1 K1 3.591842 1_455
Bi1 K0 3.674579 1_554
Bi1 K4 3.965119 1_555
Bi1 K4 4.045637 1_565
Bi1 K4 4.049851 1_455
Bi2 Zn1 2.557932 1_555
Bi2 K2 3.532349 1_455
Bi2 K2 3.562414 1_465
Bi2 K2 3.591842 1_565
Bi2 K3 3.674579 1_555
Bi2 K5 3.965119 1_555
Bi2 K5 4.045637 1_455
Bi2 K5 4.049851 1_565
Bi3 Zn0 2.557932 1_555
Bi3 K3 3.532349 1_545
Bi3 K3 3.562414 1_645
Bi3 K3 3.591842 1_655
Bi3 K2 3.674579 1_555
Bi3 K5 3.965119 1_555
Bi3 K5 4.045637 1_545
Bi3 K5 4.049851 1_655
