# generated using pymatgen
data_BaSr7Fe7CoO20
_symmetry_space_group_name_H-M   'P 1'
_cell_length_a   11.14696464
_cell_length_b   11.52594845
_cell_length_c   17.92394571
_cell_angle_alpha   108.97392709
_cell_angle_beta   108.09277640
_cell_angle_gamma   89.91340794
_symmetry_Int_Tables_number   1
_chemical_formula_structural   BaSr7Fe7CoO20
_chemical_formula_sum   'Ba4 Sr28 Fe28 Co4 O80'
_cell_volume   2057.34556166
_cell_formula_units_Z   4
loop_
 _symmetry_equiv_pos_site_id
 _symmetry_equiv_pos_as_xyz
  1  'x, y, z'
loop_
 _atom_site_type_symbol
 _atom_site_label
 _atom_site_symmetry_multiplicity
 _atom_site_fract_x
 _atom_site_fract_y
 _atom_site_fract_z
 _atom_site_occupancy
  Ba  Ba0  1  0.30985100  0.06137600  0.11372600  1
  Ba  Ba1  1  0.30538000  0.56266200  0.11369700  1
  Ba  Ba2  1  0.81050200  0.06133000  0.11400300  1
  Ba  Ba3  1  0.05474200  0.80460000  0.11319700  1
  Sr  Sr0  1  0.30545900  0.06495400  0.60929300  1
  Sr  Sr1  1  0.30554500  0.56367100  0.60956900  1
  Sr  Sr2  1  0.80575500  0.06529000  0.60892000  1
  Sr  Sr3  1  0.80704600  0.56371700  0.10833300  1
  Sr  Sr4  1  0.80585300  0.56376600  0.60902600  1
  Sr  Sr5  1  0.19770400  0.43880000  0.39153900  1
  Sr  Sr6  1  0.19007000  0.43521800  0.88952700  1
  Sr  Sr7  1  0.19736500  0.93502600  0.39313700  1
  Sr  Sr8  1  0.19668900  0.93692000  0.88923900  1
  Sr  Sr9  1  0.69645500  0.43704600  0.39067600  1
  Sr  Sr10  1  0.69820000  0.43377400  0.88899500  1
  Sr  Sr11  1  0.69759100  0.93482800  0.39227100  1
  Sr  Sr12  1  0.69620500  0.93804300  0.88919600  1
  Sr  Sr13  1  0.05690500  0.29550400  0.10738500  1
  Sr  Sr14  1  0.05604600  0.29469200  0.60985900  1
  Sr  Sr15  1  0.05557500  0.79595900  0.60952500  1
  Sr  Sr16  1  0.55456000  0.29313100  0.10711800  1
  Sr  Sr17  1  0.55587400  0.29423300  0.60942900  1
  Sr  Sr18  1  0.56068500  0.79314600  0.10888200  1
  Sr  Sr19  1  0.55631300  0.79585900  0.60929400  1
  Sr  Sr20  1  0.44753200  0.20705500  0.39523700  1
  Sr  Sr21  1  0.44784500  0.20237000  0.88916300  1
  Sr  Sr22  1  0.44742700  0.70359200  0.39354100  1
  Sr  Sr23  1  0.44754700  0.70385600  0.88922500  1
  Sr  Sr24  1  0.94870500  0.20763400  0.39410000  1
  Sr  Sr25  1  0.94467200  0.20689500  0.88854500  1
  Sr  Sr26  1  0.94753400  0.70313200  0.39268800  1
  Sr  Sr27  1  0.94474100  0.70649300  0.88810200  1
  Fe  Fe0  1  0.00303900  0.99878900  0.49917900  1
  Fe  Fe1  1  0.00476400  0.50071400  0.50170200  1
  Fe  Fe2  1  0.50399600  0.99890600  0.49947400  1
  Fe  Fe3  1  0.50003800  0.49530500  0.99258100  1
  Fe  Fe4  1  0.50456500  0.50023800  0.50172700  1
  Fe  Fe5  1  0.24974800  0.24548300  0.99313100  1
  Fe  Fe6  1  0.25355500  0.25045200  0.49991400  1
  Fe  Fe7  1  0.24980400  0.74719300  0.99063700  1
  Fe  Fe8  1  0.25481800  0.75109100  0.50232400  1
  Fe  Fe9  1  0.75384900  0.24924200  0.99858800  1
  Fe  Fe10  1  0.75404800  0.24998400  0.49960600  1
  Fe  Fe11  1  0.75471100  0.75057600  0.50132000  1
  Fe  Fe12  1  0.11639300  0.09816000  0.26084400  1
  Fe  Fe13  1  0.10700600  0.08929800  0.74853400  1
  Fe  Fe14  1  0.10482500  0.58981900  0.25234200  1
  Fe  Fe15  1  0.10722900  0.58911300  0.74873300  1
  Fe  Fe16  1  0.61534300  0.09441700  0.25729800  1
  Fe  Fe17  1  0.60692700  0.08970500  0.74846700  1
  Fe  Fe18  1  0.61395900  0.59054000  0.25283900  1
  Fe  Fe19  1  0.60560000  0.58832500  0.74742800  1
  Fe  Fe20  1  0.35957100  0.40926200  0.25252900  1
  Fe  Fe21  1  0.35686100  0.40865800  0.74925900  1
  Fe  Fe22  1  0.36814700  0.91215100  0.25639600  1
  Fe  Fe23  1  0.35709400  0.90840000  0.74718800  1
  Fe  Fe24  1  0.85788100  0.41052000  0.24968000  1
  Fe  Fe25  1  0.85595300  0.40920900  0.74681800  1
  Fe  Fe26  1  0.85943000  0.90750800  0.25657700  1
  Fe  Fe27  1  0.85615600  0.90913700  0.74565400  1
  Co  Co0  1  0.99799500  0.99612300  0.98733200  1
  Co  Co1  1  0.99998600  0.49907600  0.99611500  1
  Co  Co2  1  0.49898300  0.99537600  0.98998300  1
  Co  Co3  1  0.74714800  0.74297900  0.98677100  1
  O  O0  1  0.12444700  0.12264000  0.49328900  1
  O  O1  1  0.11899800  0.12014300  0.98816400  1
  O  O2  1  0.12433800  0.62216900  0.49319600  1
  O  O3  1  0.12072700  0.62303800  0.98777300  1
  O  O4  1  0.62487900  0.12234500  0.49279300  1
  O  O5  1  0.62553900  0.12425100  0.98943200  1
  O  O6  1  0.62448900  0.62156300  0.49223200  1
  O  O7  1  0.61982100  0.61433200  0.98865600  1
  O  O8  1  0.12747100  0.37106500  0.00146900  1
  O  O9  1  0.13226400  0.38008700  0.51029500  1
  O  O10  1  0.12719200  0.87495700  0.99830800  1
  O  O11  1  0.13302000  0.87771300  0.50995800  1
  O  O12  1  0.62976800  0.37784400  0.00504900  1
  O  O13  1  0.63292000  0.37880400  0.50917200  1
  O  O14  1  0.63734900  0.86150400  0.00315200  1
  O  O15  1  0.63347600  0.87738800  0.50964300  1
  O  O16  1  0.37467200  0.11938900  0.49340800  1
  O  O17  1  0.36998700  0.12320000  0.98793700  1
  O  O18  1  0.37446400  0.61973800  0.49300200  1
  O  O19  1  0.37313600  0.61650400  0.98891100  1
  O  O20  1  0.87543900  0.11993200  0.49356000  1
  O  O21  1  0.87628500  0.12085200  0.98834100  1
  O  O22  1  0.87527400  0.61898000  0.49302100  1
  O  O23  1  0.86329500  0.62506600  0.98823700  1
  O  O24  1  0.38080400  0.37790000  0.00168900  1
  O  O25  1  0.38425000  0.38309100  0.51198400  1
  O  O26  1  0.38170800  0.87058300  0.00270500  1
  O  O27  1  0.38241300  0.88028700  0.50935800  1
  O  O28  1  0.87753800  0.37981600  0.00326500  1
  O  O29  1  0.88422300  0.38289100  0.51004100  1
  O  O30  1  0.88053000  0.88217200  0.99802500  1
  O  O31  1  0.88335000  0.88084400  0.51044100  1
  O  O32  1  0.08738100  0.11301000  0.15660400  1
  O  O33  1  0.08271200  0.09568400  0.64053600  1
  O  O34  1  0.07315300  0.59324600  0.14424400  1
  O  O35  1  0.08246200  0.59609300  0.64057400  1
  O  O36  1  0.58586600  0.10712900  0.15191000  1
  O  O37  1  0.58205900  0.09505400  0.63996100  1
  O  O38  1  0.58444700  0.59659100  0.14456300  1
  O  O39  1  0.58125600  0.59539200  0.63927600  1
  O  O40  1  0.43970400  0.40282900  0.36179000  1
  O  O41  1  0.44135300  0.40271600  0.85741500  1
  O  O42  1  0.44740800  0.90208100  0.36480400  1
  O  O43  1  0.44264900  0.89883300  0.85314200  1
  O  O44  1  0.94225700  0.40469900  0.35898600  1
  O  O45  1  0.93765700  0.39939300  0.85225400  1
  O  O46  1  0.94173500  0.90404500  0.36659000  1
  O  O47  1  0.94308300  0.89671700  0.84973100  1
  O  O48  1  0.33170400  0.30691900  0.14026600  1
  O  O49  1  0.33095100  0.29507600  0.64045900  1
  O  O50  1  0.33803200  0.80817400  0.14494000  1
  O  O51  1  0.33013000  0.79420800  0.63786000  1
  O  O52  1  0.83165400  0.30525500  0.13763400  1
  O  O53  1  0.83026200  0.29547000  0.63775200  1
  O  O54  1  0.82919900  0.79573400  0.14890000  1
  O  O55  1  0.82884700  0.79385800  0.63665300  1
  O  O56  1  0.19638800  0.21335600  0.36980900  1
  O  O57  1  0.18983600  0.20282900  0.85749400  1
  O  O58  1  0.19112500  0.70415400  0.36185200  1
  O  O59  1  0.19250000  0.70227800  0.85756900  1
  O  O60  1  0.70046600  0.20902600  0.36668100  1
  O  O61  1  0.68840500  0.20309700  0.85739300  1
  O  O62  1  0.69790800  0.70447600  0.36294500  1
  O  O63  1  0.68911900  0.70412000  0.85501000  1
  O  O64  1  0.44890000  0.06411300  0.26308000  1
  O  O65  1  0.43439800  0.05929900  0.74783500  1
  O  O66  1  0.44729900  0.55937200  0.26015400  1
  O  O67  1  0.43419000  0.55839500  0.74834100  1
  O  O68  1  0.94854600  0.05540900  0.26193700  1
  O  O69  1  0.93422500  0.06049600  0.74742200  1
  O  O70  1  0.93205100  0.56354300  0.25261900  1
  O  O71  1  0.93510900  0.56012800  0.74803200  1
  O  O72  1  0.18677600  0.44078100  0.25134200  1
  O  O73  1  0.18467500  0.43888600  0.74949800  1
  O  O74  1  0.20163900  0.95212600  0.26139700  1
  O  O75  1  0.18527900  0.93894400  0.74850600  1
  O  O76  1  0.68609000  0.43671400  0.25036500  1
  O  O77  1  0.68349700  0.43907400  0.74817000  1
  O  O78  1  0.68703500  0.94031200  0.25336400  1
  O  O79  1  0.68472400  0.93945800  0.74842900  1
loop_
_geom_bond_atom_site_label_1
_geom_bond_atom_site_label_2
_geom_bond_distance
_geom_bond_site_symmetry_2
Ba0 O64 2.633982 1_555
Ba0 O48 2.711058 1_555
Ba0 O10 2.747474 1_544
Ba0 O26 2.752525 1_545
Ba0 O32 2.824262 1_555
Ba0 O17 2.832915 1_554
Ba0 O1 2.839524 1_554
Ba0 O36 2.945348 1_555
Ba0 O50 3.143014 1_545
Ba1 O66 2.623038 1_555
Ba1 O50 2.701788 1_555
Ba1 O8 2.739129 1_555
Ba1 O24 2.745040 1_555
Ba1 O34 2.806615 1_555
Ba1 O19 2.812730 1_554
Ba1 O3 2.818997 1_554
Ba1 O38 2.988282 1_555
Ba1 O48 3.134506 1_555
Ba2 O68 2.643175 1_555
Ba2 O52 2.702767 1_555
Ba2 O30 2.721467 1_544
Ba2 O14 2.762881 1_545
Ba2 O36 2.798188 1_555
Ba2 O5 2.819827 1_554
Ba2 O21 2.848449 1_554
Ba2 O32 2.951188 1_655
Ba2 O54 3.311819 1_545
Ba3 O74 2.645429 1_555
Ba3 O34 2.663690 1_555
Ba3 O30 2.745367 1_454
Ba3 O10 2.769698 1_554
Ba3 O54 2.789868 1_455
Ba3 O23 2.807749 1_454
Ba3 O3 2.817333 1_554
Ba3 O50 3.027619 1_555
Ba3 O32 3.376887 1_565
Fe0 O20 1.994823 1_465
Fe0 O31 2.004994 1_455
Fe0 O0 2.018164 1_565
Fe0 O11 2.019760 1_555
Fe0 O46 2.147855 1_455
Fe0 O33 2.284918 1_565
Fe1 O29 1.983495 1_455
Fe1 O22 1.989540 1_455
Fe1 O9 1.993490 1_555
Fe1 O2 2.007524 1_555
Fe1 O35 2.244750 1_555
Fe1 O44 2.303944 1_455
Fe2 O16 2.003287 1_565
Fe2 O27 2.012371 1_555
Fe2 O4 2.017689 1_565
Fe2 O15 2.018557 1_555
Fe2 O42 2.185076 1_555
Fe2 O37 2.270104 1_565
Fe3 O7 1.948462 1_555
Fe3 O24 1.976909 1_556
Fe3 O19 1.988153 1_555
Fe3 O12 1.991016 1_556
Fe3 O41 2.184672 1_555
Fe3 O38 2.452001 1_556
Fe4 O25 1.993900 1_555
Fe4 O18 2.004467 1_555
Fe4 O13 2.005173 1_555
Fe4 O6 2.018208 1_555
Fe4 O39 2.224278 1_555
Fe4 O40 2.262592 1_555
Fe5 O17 1.943714 1_555
Fe5 O8 1.988758 1_556
Fe5 O1 2.015271 1_555
Fe5 O24 2.049973 1_556
Fe5 O57 2.193973 1_555
Fe5 O48 2.362669 1_556
Fe6 O0 2.010468 1_555
Fe6 O9 2.016058 1_555
Fe6 O16 2.023708 1_555
Fe6 O25 2.025419 1_555
Fe6 O56 2.111050 1_555
Fe6 O49 2.272385 1_555
Fe7 O26 1.959594 1_556
Fe7 O3 2.008278 1_555
Fe7 O10 2.008592 1_555
Fe7 O19 2.037108 1_555
Fe7 O59 2.148614 1_555
Fe7 O50 2.481734 1_556
Fe8 O11 1.992865 1_555
Fe8 O27 2.007287 1_555
Fe8 O2 2.012683 1_555
Fe8 O18 2.016570 1_555
Fe8 O51 2.191551 1_555
Fe8 O58 2.267429 1_555
Fe9 O5 1.963348 1_555
Fe9 O28 2.006348 1_556
Fe9 O21 2.014718 1_555
Fe9 O12 2.026132 1_556
Fe9 O52 2.234541 1_556
Fe9 O61 2.280140 1_555
Fe10 O13 2.007287 1_555
Fe10 O4 2.008169 1_555
Fe10 O20 2.017169 1_555
Fe10 O29 2.034462 1_555
Fe10 O60 2.154457 1_555
Fe10 O53 2.231231 1_555
Fe11 O15 1.990567 1_555
Fe11 O31 2.009618 1_555
Fe11 O6 2.011698 1_555
Fe11 O22 2.024871 1_555
Fe11 O55 2.187486 1_555
Fe11 O62 2.236828 1_555
Fe12 O32 1.859371 1_555
Fe12 O56 1.899512 1_555
Fe12 O74 1.932952 1_545
Fe12 O68 1.943089 1_455
Fe13 O33 1.895489 1_555
Fe13 O57 1.897577 1_555
Fe13 O75 1.938968 1_545
Fe13 O69 1.947768 1_455
Fe14 O34 1.872199 1_555
Fe14 O58 1.914109 1_555
Fe14 O72 1.941924 1_555
Fe14 O70 1.951804 1_455
Fe15 O59 1.899402 1_555
Fe15 O35 1.899981 1_555
Fe15 O73 1.935754 1_555
Fe15 O71 1.943473 1_455
Fe16 O36 1.868677 1_555
Fe16 O60 1.911378 1_555
Fe16 O64 1.928712 1_555
Fe16 O78 1.935919 1_545
Fe17 O61 1.894133 1_555
Fe17 O37 1.898992 1_555
Fe17 O79 1.935463 1_545
Fe17 O65 1.951275 1_555
Fe18 O38 1.889691 1_555
Fe18 O62 1.914785 1_555
Fe18 O76 1.938725 1_555
Fe18 O66 1.944589 1_555
Fe19 O63 1.892489 1_555
Fe19 O39 1.901046 1_555
Fe19 O77 1.927856 1_555
Fe19 O67 1.948111 1_555
Fe20 O48 1.899019 1_555
Fe20 O40 1.909546 1_555
Fe20 O66 1.933070 1_555
Fe20 O72 1.954457 1_555
Fe21 O49 1.895104 1_555
Fe21 O41 1.897877 1_555
Fe21 O67 1.937435 1_555
Fe21 O73 1.951264 1_555
Fe22 O50 1.888833 1_555
Fe22 O42 1.910432 1_555
Fe22 O64 1.921908 1_565
Fe22 O74 1.933694 1_555
Fe23 O43 1.881284 1_555
Fe23 O51 1.902851 1_555
Fe23 O65 1.937236 1_565
Fe23 O75 1.952743 1_555
Fe24 O52 1.908592 1_555
Fe24 O44 1.915286 1_555
Fe24 O70 1.927181 1_555
Fe24 O76 1.941333 1_555
Fe25 O45 1.866390 1_555
Fe25 O53 1.899767 1_555
Fe25 O71 1.942401 1_555
Fe25 O77 1.958586 1_555
Fe26 O54 1.865117 1_555
Fe26 O46 1.912848 1_555
Fe26 O68 1.934260 1_565
Fe26 O78 1.944828 1_555
Fe27 O47 1.868127 1_555
Fe27 O55 1.902347 1_555
Fe27 O69 1.937342 1_565
Fe27 O79 1.955004 1_555
Co0 O30 1.949607 1_555
Co0 O1 1.960184 1_665
Co0 O21 1.974878 1_565
Co0 O10 2.014873 1_655
Co0 O47 2.235440 1_555
Co0 O32 2.735230 1_666
Co1 O28 1.999449 1_556
Co1 O3 2.035910 1_655
Co1 O8 2.051007 1_656
Co1 O23 2.107923 1_555
Co1 O45 2.326993 1_555
Co1 O34 2.382506 1_656
Co2 O5 2.054550 1_565
Co2 O26 2.057648 1_556
Co2 O17 2.058036 1_565
Co2 O14 2.195215 1_556
Co2 O43 2.217908 1_555
Co2 O36 2.616809 1_566
Co3 O14 1.846019 1_556
Co3 O23 1.876358 1_555
Co3 O7 2.069526 1_555
Co3 O30 2.106097 1_555
Co3 O63 2.135587 1_555
Co3 O54 2.617795 1_556
O0 Sr24 2.630902 1_455
O0 Sr7 2.633614 1_545
O0 Sr0 2.669406 1_555
O0 Sr14 2.677690 1_555
O1 Sr8 2.620497 1_545
O1 Sr25 2.638962 1_455
O1 Sr13 2.690079 1_556
O2 Sr5 2.621417 1_555
O2 Sr26 2.623506 1_455
O2 Sr1 2.679361 1_555
O2 Sr15 2.686918 1_555
O3 Sr6 2.597356 1_555
O3 Sr27 2.626810 1_455
O4 Sr20 2.622256 1_555
O4 Sr11 2.635146 1_545
O4 Sr2 2.666369 1_555
O4 Sr17 2.681062 1_555
O5 Sr21 2.607660 1_555
O5 Sr12 2.611722 1_545
O5 Sr16 2.688194 1_556
O6 Sr22 2.613795 1_555
O6 Sr9 2.619998 1_555
O6 Sr4 2.680926 1_555
O6 Sr19 2.694547 1_555
O7 Sr10 2.613754 1_555
O7 Sr23 2.644380 1_555
O7 Sr18 2.704822 1_556
O7 Sr3 2.706798 1_556
O8 Sr25 2.605524 1_454
O8 Sr6 2.625907 1_554
O8 Sr13 2.643103 1_555
O9 Sr1 2.608392 1_555
O9 Sr14 2.638514 1_555
O9 Sr24 2.673682 1_455
O9 Sr5 2.724608 1_555
O10 Sr8 2.604272 1_555
O10 Sr27 2.613607 1_455
O11 Sr15 2.621255 1_555
O11 Sr0 2.628789 1_565
O11 Sr7 2.677484 1_555
O11 Sr26 2.702776 1_455
O12 Sr3 2.661473 1_555
O12 Sr16 2.668303 1_555
O12 Sr21 2.679865 1_554
O12 Sr10 2.680202 1_554
O13 Sr4 2.617714 1_555
O13 Sr17 2.648984 1_555
O13 Sr20 2.668702 1_555
O13 Sr9 2.706676 1_555
O14 Sr23 2.619760 1_554
O14 Sr18 2.630843 1_555
O14 Sr12 2.717801 1_554
O15 Sr19 2.619403 1_555
O15 Sr2 2.632263 1_565
O15 Sr11 2.686250 1_555
O15 Sr22 2.695456 1_555
O16 Sr20 2.612109 1_555
O16 Sr7 2.640986 1_545
O16 Sr17 2.672781 1_555
O16 Sr0 2.673492 1_555
O17 Sr21 2.593753 1_555
O17 Sr8 2.625089 1_545
O17 Sr16 2.682185 1_556
O18 Sr22 2.607127 1_555
O18 Sr5 2.619032 1_555
O18 Sr19 2.685349 1_555
O18 Sr1 2.692506 1_555
O19 Sr23 2.643305 1_555
O19 Sr6 2.652933 1_555
O19 Sr18 2.741075 1_556
O20 Sr24 2.635433 1_555
O20 Sr11 2.652652 1_545
O20 Sr2 2.668577 1_555
O20 Sr14 2.670380 1_655
O21 Sr25 2.601343 1_555
O21 Sr12 2.643736 1_545
O21 Sr13 2.685070 1_656
O22 Sr26 2.619163 1_555
O22 Sr9 2.641145 1_555
O22 Sr4 2.681137 1_555
O22 Sr15 2.682657 1_655
O23 Sr10 2.615491 1_555
O23 Sr27 2.652632 1_555
O23 Sr3 2.712238 1_556
O24 Sr21 2.645310 1_554
O24 Sr16 2.683014 1_555
O24 Sr6 2.683845 1_554
O25 Sr1 2.596416 1_555
O25 Sr17 2.615599 1_555
O25 Sr20 2.672970 1_555
O25 Sr5 2.739711 1_555
O26 Sr23 2.598048 1_554
O26 Sr18 2.672003 1_555
O26 Sr8 2.715784 1_554
O27 Sr19 2.623786 1_555
O27 Sr0 2.635204 1_565
O27 Sr22 2.676372 1_555
O27 Sr7 2.678467 1_555
O28 Sr10 2.619069 1_554
O28 Sr3 2.641058 1_555
O28 Sr25 2.654568 1_554
O28 Sr13 2.698267 1_655
O29 Sr4 2.609425 1_555
O29 Sr14 2.636524 1_655
O29 Sr24 2.666323 1_555
O29 Sr9 2.725977 1_555
O30 Sr12 2.600928 1_555
O30 Sr27 2.602220 1_555
O31 Sr15 2.608341 1_655
O31 Sr2 2.624099 1_565
O31 Sr26 2.698941 1_555
O31 Sr11 2.700002 1_555
O32 Sr13 2.517222 1_555
O33 Sr14 2.523604 1_555
O33 Sr0 2.708522 1_555
O33 Sr2 2.960134 1_455
O34 Sr3 2.829081 1_455
O35 Sr15 2.536594 1_555
O35 Sr1 2.711575 1_555
O35 Sr4 2.957900 1_455
O36 Sr16 2.511057 1_555
O37 Sr17 2.524040 1_555
O37 Sr2 2.716604 1_555
O37 Sr0 2.958968 1_555
O38 Sr18 2.539041 1_555
O38 Sr3 2.749564 1_555
O39 Sr19 2.533286 1_555
O39 Sr4 2.721504 1_555
O39 Sr1 2.953472 1_555
O40 Sr20 2.511037 1_555
O40 Sr9 2.750433 1_555
O40 Sr5 2.911931 1_555
O41 Sr21 2.547501 1_555
O41 Sr10 2.740518 1_555
O41 Sr6 3.029099 1_555
O42 Sr22 2.503083 1_555
O42 Sr11 2.681738 1_555
O42 Sr7 2.986846 1_555
O43 Sr23 2.528721 1_555
O43 Sr12 2.699957 1_555
O43 Sr8 3.006947 1_555
O44 Sr24 2.541925 1_555
O44 Sr5 2.724935 1_655
O44 Sr9 2.965602 1_555
O45 Sr25 2.501668 1_555
O45 Sr6 2.681416 1_655
O45 Sr10 2.938424 1_555
O46 Sr26 2.504135 1_555
O46 Sr7 2.742992 1_655
O46 Sr11 2.900532 1_555
O47 Sr27 2.500602 1_555
O47 Sr8 2.693501 1_655
O47 Sr12 3.047367 1_555
O48 Sr16 2.720936 1_555
O48 Sr13 2.928684 1_555
O49 Sr0 2.523506 1_555
O49 Sr17 2.730944 1_555
O49 Sr14 2.940352 1_555
O50 Sr18 2.744042 1_555
O51 Sr1 2.536223 1_555
O51 Sr19 2.725350 1_555
O51 Sr15 2.943772 1_555
O52 Sr13 2.723253 1_655
O52 Sr16 2.959963 1_555
O52 Sr3 3.186074 1_555
O53 Sr2 2.530469 1_555
O53 Sr14 2.713466 1_655
O53 Sr17 2.940055 1_555
O54 Sr3 2.523319 1_555
O54 Sr18 2.850791 1_555
O55 Sr4 2.532471 1_555
O55 Sr15 2.719472 1_655
O55 Sr19 2.924355 1_555
O56 Sr5 2.498466 1_555
O56 Sr20 2.697884 1_555
O56 Sr24 2.929574 1_455
O57 Sr6 2.550115 1_555
O57 Sr21 2.753477 1_555
O57 Sr25 2.950879 1_455
O58 Sr7 2.531070 1_555
O58 Sr22 2.734862 1_555
O58 Sr26 2.935122 1_455
O59 Sr8 2.573751 1_555
O59 Sr23 2.719639 1_555
O59 Sr27 2.974940 1_455
O60 Sr9 2.524023 1_555
O60 Sr24 2.656882 1_555
O60 Sr20 3.019247 1_555
O61 Sr10 2.526850 1_555
O61 Sr25 2.732698 1_555
O61 Sr21 2.909716 1_555
O62 Sr11 2.533590 1_555
O62 Sr26 2.666650 1_555
O62 Sr22 3.008563 1_555
O63 Sr12 2.558786 1_555
O63 Sr27 2.722433 1_555
O63 Sr23 2.941802 1_555
O64 Sr20 2.410452 1_555
O65 Sr0 2.474785 1_555
O65 Sr21 2.491423 1_555
O66 Sr22 2.427497 1_555
O67 Sr1 2.475804 1_555
O67 Sr23 2.494767 1_555
O68 Sr24 2.446359 1_555
O69 Sr2 2.469312 1_555
O69 Sr25 2.510225 1_555
O70 Sr26 2.454885 1_555
O70 Sr3 2.528840 1_555
O71 Sr4 2.474573 1_555
O71 Sr27 2.497916 1_555
O72 Sr5 2.485381 1_555
O72 Sr13 2.536740 1_555
O73 Sr14 2.481063 1_555
O73 Sr6 2.506014 1_555
O74 Sr7 2.447324 1_555
O75 Sr15 2.472335 1_555
O75 Sr8 2.493725 1_555
O76 Sr9 2.480219 1_555
O76 Sr16 2.527218 1_555
O77 Sr17 2.470858 1_555
O77 Sr10 2.499032 1_555
O78 Sr11 2.477318 1_555
O78 Sr18 2.540205 1_555
O79 Sr19 2.472544 1_555
O79 Sr12 2.491761 1_555
