# generated using pymatgen
data_Ce3(GaRh)2
_symmetry_space_group_name_H-M   'P 1'
_cell_length_a   5.58098500
_cell_length_b   8.16855100
_cell_length_c   13.37045000
_cell_angle_alpha   90.00000000
_cell_angle_beta   90.00000000
_cell_angle_gamma   90.00000000
_symmetry_Int_Tables_number   1
_chemical_formula_structural   Ce3(GaRh)2
_chemical_formula_sum   'Ce12 Ga8 Rh8'
_cell_volume   609.53957011
_cell_formula_units_Z   4
loop_
 _symmetry_equiv_pos_site_id
 _symmetry_equiv_pos_as_xyz
  1  'x, y, z'
loop_
 _atom_site_type_symbol
 _atom_site_label
 _atom_site_symmetry_multiplicity
 _atom_site_fract_x
 _atom_site_fract_y
 _atom_site_fract_z
 _atom_site_occupancy
  Ce  Ce0  1  0.63744600  0.25869200  0.25000000  1
  Ce  Ce1  1  0.36255400  0.74130800  0.75000000  1
  Ce  Ce2  1  0.36255400  0.75869200  0.25000000  1
  Ce  Ce3  1  0.63744600  0.24130800  0.75000000  1
  Ce  Ce4  1  0.16348700  0.39843900  0.09658600  1
  Ce  Ce5  1  0.83651300  0.60156100  0.90341400  1
  Ce  Ce6  1  0.83651300  0.60156100  0.59658600  1
  Ce  Ce7  1  0.83651300  0.89843900  0.40341400  1
  Ce  Ce8  1  0.16348700  0.39843900  0.40341400  1
  Ce  Ce9  1  0.16348700  0.10156100  0.59658600  1
  Ce  Ce10  1  0.16348700  0.10156100  0.90341400  1
  Ce  Ce11  1  0.83651300  0.89843900  0.09658600  1
  Ga  Ga0  1  0.13227400  0.10744300  0.25000000  1
  Ga  Ga1  1  0.86772600  0.89255700  0.75000000  1
  Ga  Ga2  1  0.86772600  0.60744300  0.25000000  1
  Ga  Ga3  1  0.13227400  0.39255700  0.75000000  1
  Ga  Ga4  1  0.66606200  0.25000000  0.00000000  1
  Ga  Ga5  1  0.33393800  0.75000000  0.00000000  1
  Ga  Ga6  1  0.33393800  0.75000000  0.50000000  1
  Ga  Ga7  1  0.66606200  0.25000000  0.50000000  1
  Rh  Rh0  1  0.37844200  0.03458900  0.09349700  1
  Rh  Rh1  1  0.62155800  0.96541100  0.90650300  1
  Rh  Rh2  1  0.62155800  0.96541100  0.59349700  1
  Rh  Rh3  1  0.62155800  0.53458900  0.40650300  1
  Rh  Rh4  1  0.37844200  0.03458900  0.40650300  1
  Rh  Rh5  1  0.37844200  0.46541100  0.59349700  1
  Rh  Rh6  1  0.37844200  0.46541100  0.90650300  1
  Rh  Rh7  1  0.62155800  0.53458900  0.09349700  1
loop_
_geom_bond_atom_site_label_1
_geom_bond_atom_site_label_2
_geom_bond_distance
_geom_bond_site_symmetry_2
Ce0 Ga0 3.025394 1_655
Ce0 Rh7 3.076614 1_555
Ce0 Rh3 3.076614 1_555
Ce0 Ga0 3.078181 1_555
Ce0 Ga2 3.125271 1_555
Ce0 Rh4 3.133555 1_555
Ce0 Rh0 3.133555 1_555
Ce0 Ga7 3.347179 1_555
Ce0 Ga4 3.347179 1_555
Ce1 Ga1 3.025394 1_455
Ce1 Rh5 3.076614 1_555
Ce1 Rh6 3.076614 1_555
Ce1 Ga1 3.078181 1_555
Ce1 Ga3 3.125271 1_555
Ce1 Rh2 3.133555 1_555
Ce1 Rh1 3.133555 1_555
Ce1 Ga6 3.347179 1_555
Ce1 Ga5 3.347179 1_556
Ce2 Ga2 3.025394 1_455
Ce2 Rh0 3.076614 1_565
Ce2 Rh4 3.076614 1_565
Ce2 Ga2 3.078181 1_555
Ce2 Ga0 3.125271 1_565
Ce2 Rh3 3.133555 1_555
Ce2 Rh7 3.133555 1_555
Ce2 Ga6 3.347179 1_555
Ce2 Ga5 3.347179 1_555
Ce3 Ga3 3.025394 1_655
Ce3 Rh1 3.076614 1_545
Ce3 Rh2 3.076614 1_545
Ce3 Ga3 3.078181 1_555
Ce3 Ga1 3.125271 1_545
Ce3 Rh5 3.133555 1_555
Ce3 Rh6 3.133555 1_555
Ce3 Ga4 3.347179 1_556
Ce3 Ga7 3.347179 1_555
Ce4 Rh7 2.788227 1_555
Ce4 Rh6 2.863156 1_554
Ce4 Ga2 3.137964 1_455
Ce4 Ga0 3.144524 1_555
Ce4 Rh0 3.205375 1_555
Ce4 Rh7 3.222757 1_455
Ce4 Ga5 3.289311 1_555
Ce4 Ga4 3.293143 1_455
Ce4 Ga4 3.317409 1_555
Ce5 Rh6 2.788227 1_555
Ce5 Rh7 2.863156 1_556
Ce5 Ga3 3.137964 1_655
Ce5 Ga1 3.144524 1_555
Ce5 Rh1 3.205375 1_555
Ce5 Rh6 3.222757 1_655
Ce5 Ga4 3.289311 1_556
Ce5 Ga5 3.293143 1_656
Ce5 Ga5 3.317409 1_556
Ce6 Rh5 2.788227 1_555
Ce6 Rh3 2.863156 1_555
Ce6 Ga3 3.137964 1_655
Ce6 Ga1 3.144524 1_555
Ce6 Rh2 3.205375 1_555
Ce6 Rh5 3.222757 1_655
Ce6 Ga7 3.289311 1_555
Ce6 Ga6 3.293143 1_655
Ce6 Ga6 3.317409 1_555
Ce7 Rh4 2.788227 1_565
Ce7 Rh2 2.863156 1_555
Ce7 Ga0 3.137964 1_665
Ce7 Ga2 3.144524 1_555
Ce7 Rh3 3.205375 1_555
Ce7 Rh4 3.222757 1_665
Ce7 Ga7 3.289311 1_565
Ce7 Ga6 3.293143 1_655
Ce7 Ga6 3.317409 1_555
Ce8 Rh3 2.788227 1_555
Ce8 Rh5 2.863156 1_555
Ce8 Ga2 3.137964 1_455
Ce8 Ga0 3.144524 1_555
Ce8 Rh4 3.205375 1_555
Ce8 Rh3 3.222757 1_455
Ce8 Ga6 3.289311 1_555
Ce8 Ga7 3.293143 1_455
Ce8 Ga7 3.317409 1_555
Ce9 Rh2 2.788227 1_545
Ce9 Rh4 2.863156 1_555
Ce9 Ga1 3.137964 1_445
Ce9 Ga3 3.144524 1_555
Ce9 Rh5 3.205375 1_555
Ce9 Rh2 3.222757 1_445
Ce9 Ga6 3.289311 1_545
Ce9 Ga7 3.293143 1_455
Ce9 Ga7 3.317409 1_555
Ce10 Rh1 2.788227 1_545
Ce10 Rh0 2.863156 1_556
Ce10 Ga1 3.137964 1_445
Ce10 Ga3 3.144524 1_555
Ce10 Rh6 3.205375 1_555
Ce10 Rh1 3.222757 1_445
Ce10 Ga5 3.289311 1_546
Ce10 Ga4 3.293143 1_456
Ce10 Ga4 3.317409 1_556
Ce11 Rh0 2.788227 1_565
Ce11 Rh1 2.863156 1_554
Ce11 Ga0 3.137964 1_665
Ce11 Ga2 3.144524 1_555
Ce11 Rh7 3.205375 1_555
Ce11 Rh0 3.222757 1_665
Ce11 Ga4 3.289311 1_565
Ce11 Ga5 3.293143 1_655
Ce11 Ga5 3.317409 1_555
Ga0 Rh0 2.572989 1_555
Ga0 Rh4 2.572989 1_555
Ga1 Rh1 2.572989 1_555
Ga1 Rh2 2.572989 1_555
Ga2 Rh7 2.572989 1_555
Ga2 Rh3 2.572989 1_555
Ga3 Rh5 2.572989 1_555
Ga3 Rh6 2.572989 1_555
Ga4 Rh7 2.651145 1_555
Ga4 Rh1 2.651145 1_544
Ga4 Rh0 2.689906 1_555
Ga4 Rh6 2.689906 1_554
Ga5 Rh0 2.651145 1_565
Ga5 Rh6 2.651145 1_554
Ga5 Rh7 2.689906 1_555
Ga5 Rh1 2.689906 1_554
Ga6 Rh4 2.651145 1_565
Ga6 Rh5 2.651145 1_555
Ga6 Rh3 2.689906 1_555
Ga6 Rh2 2.689906 1_555
Ga7 Rh3 2.651145 1_555
Ga7 Rh2 2.651145 1_545
Ga7 Rh4 2.689906 1_555
Ga7 Rh5 2.689906 1_555
