# generated using pymatgen
data_ZnTe(H2N)4
_symmetry_space_group_name_H-M   'P 1'
_cell_length_a   7.21674700
_cell_length_b   7.92878500
_cell_length_c   14.32681444
_cell_angle_alpha   58.87970054
_cell_angle_beta   90.00000000
_cell_angle_gamma   90.00000000
_symmetry_Int_Tables_number   1
_chemical_formula_structural   ZnTe(H2N)4
_chemical_formula_sum   'Zn4 Te4 H32 N16'
_cell_volume   701.80127326
_cell_formula_units_Z   4
loop_
 _symmetry_equiv_pos_site_id
 _symmetry_equiv_pos_as_xyz
  1  'x, y, z'
loop_
 _atom_site_type_symbol
 _atom_site_label
 _atom_site_symmetry_multiplicity
 _atom_site_fract_x
 _atom_site_fract_y
 _atom_site_fract_z
 _atom_site_occupancy
  Zn  Zn0  1  0.55617300  0.28989800  0.26718900  1
  Zn  Zn1  1  0.44382700  0.28989800  0.76718900  1
  Zn  Zn2  1  0.78270000  0.34156400  0.50546200  1
  Zn  Zn3  1  0.21730000  0.34156400  0.00546200  1
  Te  Te0  1  0.42318200  0.23035200  0.59139700  1
  Te  Te1  1  0.57681800  0.23035200  0.09139700  1
  Te  Te2  1  0.87857900  0.30152900  0.34096600  1
  Te  Te3  1  0.12142100  0.30152900  0.84096600  1
  H  H0  1  0.52768300  0.66277900  0.16587700  1
  H  H1  1  0.47231700  0.66277900  0.66587700  1
  H  H2  1  0.42182200  0.90532200  0.32038100  1
  H  H3  1  0.57817800  0.90532200  0.82038100  1
  H  H4  1  0.05777100  0.14381300  0.64156900  1
  H  H5  1  0.94222900  0.14381300  0.14156900  1
  H  H6  1  0.07584500  0.52972800  0.58529700  1
  H  H7  1  0.92415500  0.52972800  0.08529700  1
  H  H8  1  0.36106300  0.58717000  0.11203500  1
  H  H9  1  0.63893700  0.58717000  0.61203500  1
  H  H10  1  0.92254400  0.97064600  0.55667200  1
  H  H11  1  0.07745600  0.97064600  0.05667200  1
  H  H12  1  0.32401000  0.58901500  0.22551700  1
  H  H13  1  0.67599000  0.58901500  0.72551700  1
  H  H14  1  0.68608900  0.68945200  0.42945400  1
  H  H15  1  0.31391100  0.68945200  0.92945400  1
  H  H16  1  0.49846600  0.99702100  0.15332800  1
  H  H17  1  0.50153400  0.99702100  0.65332800  1
  H  H18  1  0.01272800  0.83509100  0.67937800  1
  H  H19  1  0.98727200  0.83509100  0.17937800  1
  H  H20  1  0.91307000  0.87602500  0.41799300  1
  H  H21  1  0.08693000  0.87602500  0.91799300  1
  H  H22  1  0.86015800  0.07416200  0.71494300  1
  H  H23  1  0.13984200  0.07416200  0.21494300  1
  H  H24  1  0.25822000  0.13688200  0.39516300  1
  H  H25  1  0.74178000  0.13688200  0.89516300  1
  H  H26  1  0.43882400  0.99877700  0.45956900  1
  H  H27  1  0.56117600  0.99877700  0.95956900  1
  H  H28  1  0.25344100  0.81662400  0.41834300  1
  H  H29  1  0.74655900  0.81662400  0.91834300  1
  H  H30  1  0.17607800  0.57564700  0.35297600  1
  H  H31  1  0.82392200  0.57564700  0.85297600  1
  N  N0  1  0.92043700  0.10643500  0.64164600  1
  N  N1  1  0.07956300  0.10643500  0.14164600  1
  N  N2  1  0.91318000  0.67613900  0.02627300  1
  N  N3  1  0.08682000  0.67613900  0.52627300  1
  N  N4  1  0.30999000  0.94183200  0.35031700  1
  N  N5  1  0.69001000  0.94183200  0.85031700  1
  N  N6  1  0.77614600  0.60938700  0.49263800  1
  N  N7  1  0.22385400  0.60938700  0.99263800  1
  N  N8  1  0.37505800  0.07389700  0.38439200  1
  N  N9  1  0.62494200  0.07389700  0.88439200  1
  N  N10  1  0.42481500  0.56083800  0.18491600  1
  N  N11  1  0.57518500  0.56083800  0.68491600  1
  N  N12  1  0.90552800  0.92871600  0.63695100  1
  N  N13  1  0.09447200  0.92871600  0.13695100  1
  N  N14  1  0.93677700  0.72591000  0.46230800  1
  N  N15  1  0.06322300  0.72591000  0.96230800  1
loop_
_geom_bond_atom_site_label_1
_geom_bond_atom_site_label_2
_geom_bond_distance
_geom_bond_site_symmetry_2
Te0 Zn1 2.795935 1_555
Te0 Zn2 2.811198 1_555
Te1 Zn0 2.795935 1_555
Te1 Zn3 2.811198 1_555
Te2 Zn0 2.576844 1_555
Te2 Zn2 2.628091 1_555
Te3 Zn1 2.576844 1_555
Te3 Zn3 2.628091 1_556
H0 N10 1.025145 1_555
H1 N11 1.025145 1_555
H2 N4 1.023440 1_555
H3 N5 1.023440 1_555
H4 N0 1.034303 1_455
H5 N1 1.034303 1_655
H6 N3 1.026765 1_555
H7 N2 1.026765 1_555
H8 N10 1.058385 1_555
H9 N11 1.058385 1_555
H10 N12 1.026249 1_555
H11 N13 1.026249 1_555
H12 N10 1.025587 1_555
H13 N11 1.025587 1_555
H14 N6 1.025094 1_555
H15 N7 1.025094 1_555
H16 Te1 1.683105 1_565
H17 Te0 1.683105 1_565
H18 N12 1.025976 1_455
H19 N13 1.025976 1_655
H20 N14 1.033389 1_555
H21 N15 1.033389 1_555
H22 N0 1.039085 1_555
H23 N1 1.039085 1_555
H24 N8 1.031424 1_555
H25 N9 1.031424 1_555
H26 N8 1.031236 1_565
H27 N9 1.031236 1_565
H28 N4 1.049677 1_555
H29 N5 1.049677 1_555
N0 Zn2 2.123792 1_555
N1 Zn3 2.123792 1_555
N6 Zn2 2.035192 1_555
N7 Zn3 2.035192 1_556
N8 Zn0 2.118594 1_555
N9 Zn1 2.118594 1_555
N10 Zn0 2.070142 1_555
N11 Zn1 2.070142 1_555
