# generated using pymatgen
data_Mg149Sb
_symmetry_space_group_name_H-M   'P 1'
_cell_length_a   15.98666086
_cell_length_b   15.98666828
_cell_length_c   15.62393673
_cell_angle_alpha   90.00000000
_cell_angle_beta   90.00000000
_cell_angle_gamma   120.00001054
_symmetry_Int_Tables_number   1
_chemical_formula_structural   Mg149Sb
_chemical_formula_sum   'Mg149 Sb1'
_cell_volume   3458.09390782
_cell_formula_units_Z   1
loop_
 _symmetry_equiv_pos_site_id
 _symmetry_equiv_pos_as_xyz
  1  'x, y, z'
loop_
 _atom_site_type_symbol
 _atom_site_label
 _atom_site_symmetry_multiplicity
 _atom_site_fract_x
 _atom_site_fract_y
 _atom_site_fract_z
 _atom_site_occupancy
  Mg  Mg0  1  0.79877781  0.00126921  0.00000000  1
  Mg  Mg1  1  0.20249140  0.00126921  0.00000000  1
  Mg  Mg2  1  0.79996471  0.20003529  0.00000000  1
  Mg  Mg3  1  0.40007059  0.20003529  0.00000000  1
  Mg  Mg4  1  0.60013896  0.20027893  0.00000000  1
  Mg  Mg5  1  0.99873079  0.20122219  0.00000000  1
  Mg  Mg6  1  0.20249140  0.20122219  0.00000000  1
  Mg  Mg7  1  0.19947415  0.39894830  0.00000000  1
  Mg  Mg8  1  0.60013896  0.39986004  0.00000000  1
  Mg  Mg9  1  0.79972107  0.39986004  0.00000000  1
  Mg  Mg10  1  0.00020444  0.40080119  0.00000000  1
  Mg  Mg11  1  0.40059675  0.40080219  0.00000000  1
  Mg  Mg12  1  0.00020444  0.59940325  0.00000000  1
  Mg  Mg13  1  0.59919781  0.59940325  0.00000000  1
  Mg  Mg14  1  0.79996471  0.59993041  0.00000000  1
  Mg  Mg15  1  0.20017453  0.60008676  0.00000000  1
  Mg  Mg16  1  0.39991324  0.60008776  0.00000000  1
  Mg  Mg17  1  0.99873079  0.79750860  0.00000000  1
  Mg  Mg18  1  0.79877781  0.79750860  0.00000000  1
  Mg  Mg19  1  0.39991324  0.79982547  0.00000000  1
  Mg  Mg20  1  0.19947415  0.80052585  0.00000000  1
  Mg  Mg21  1  0.60105270  0.80052585  0.00000000  1
  Mg  Mg22  1  0.59919781  0.99979456  0.00000000  1
  Mg  Mg23  1  0.40059675  0.99979556  0.00000000  1
  Mg  Mg24  1  0.26653979  0.33276306  0.16617058  1
  Mg  Mg25  1  0.06622427  0.33276406  0.16617058  1
  Mg  Mg26  1  0.66723594  0.73346021  0.16617058  1
  Mg  Mg27  1  0.06622427  0.73346021  0.16617058  1
  Mg  Mg28  1  0.26653979  0.93377573  0.16617058  1
  Mg  Mg29  1  0.66723594  0.93377573  0.16617058  1
  Mg  Mg30  1  0.46677849  0.13335443  0.16628668  1
  Mg  Mg31  1  0.66657594  0.13335443  0.16628668  1
  Mg  Mg32  1  0.86664557  0.33342406  0.16628668  1
  Mg  Mg33  1  0.46677849  0.33342406  0.16628668  1
  Mg  Mg34  1  0.66657594  0.53322151  0.16628668  1
  Mg  Mg35  1  0.86664557  0.53322151  0.16628668  1
  Mg  Mg36  1  0.26655269  0.53310437  0.16636315  1
  Mg  Mg37  1  0.26655269  0.73344731  0.16636315  1
  Mg  Mg38  1  0.46689563  0.73344731  0.16636315  1
  Mg  Mg39  1  0.66666700  0.33333300  0.16644483  1
  Mg  Mg40  1  0.06682122  0.53341061  0.16642960  1
  Mg  Mg41  1  0.46658939  0.53341061  0.16642960  1
  Mg  Mg42  1  0.46658939  0.93317878  0.16642960  1
  Mg  Mg43  1  0.86634255  0.13365745  0.16729361  1
  Mg  Mg44  1  0.26731491  0.13365745  0.16729361  1
  Mg  Mg45  1  0.86634255  0.73268509  0.16729361  1
  Mg  Mg46  1  0.06683873  0.13367746  0.16835131  1
  Mg  Mg47  1  0.86632154  0.93316027  0.16835131  1
  Mg  Mg48  1  0.06683873  0.93316127  0.16835131  1
  Mg  Mg49  1  0.19984954  0.39969908  0.33277503  1
  Mg  Mg50  1  0.60030092  0.80015046  0.33277503  1
  Mg  Mg51  1  0.19984954  0.80015046  0.33277503  1
  Mg  Mg52  1  -0.00000000  -0.00000000  0.33311471  1
  Mg  Mg53  1  0.40002314  0.20001157  0.33305464  1
  Mg  Mg54  1  0.79998843  0.20001157  0.33305464  1
  Mg  Mg55  1  0.79998843  0.59997686  0.33305464  1
  Mg  Mg56  1  0.60012896  0.20025692  0.33296775  1
  Mg  Mg57  1  0.79974308  0.39987104  0.33296775  1
  Mg  Mg58  1  0.60012896  0.39987204  0.33296775  1
  Mg  Mg59  1  0.39985679  0.99998267  0.33314720  1
  Mg  Mg60  1  0.60012588  0.99998267  0.33314720  1
  Mg  Mg61  1  0.00001733  0.39987412  0.33314720  1
  Mg  Mg62  1  0.39985679  0.39987412  0.33314720  1
  Mg  Mg63  1  0.00001733  0.60014321  0.33314720  1
  Mg  Mg64  1  0.60012588  0.60014321  0.33314720  1
  Mg  Mg65  1  0.39988632  0.60011268  0.33300127  1
  Mg  Mg66  1  0.20022635  0.60011268  0.33300127  1
  Mg  Mg67  1  0.39988632  0.79977365  0.33300127  1
  Mg  Mg68  1  0.80015310  0.00007732  0.33398884  1
  Mg  Mg69  1  0.19992523  0.00007732  0.33398884  1
  Mg  Mg70  1  0.19992523  0.19984790  0.33398884  1
  Mg  Mg71  1  0.99992268  0.19984790  0.33398884  1
  Mg  Mg72  1  0.99992268  0.80007577  0.33398884  1
  Mg  Mg73  1  0.80015310  0.80007577  0.33398884  1
  Mg  Mg74  1  0.06648652  0.13297304  0.50000000  1
  Mg  Mg75  1  0.66649609  0.13315494  0.50000000  1
  Mg  Mg76  1  0.46665985  0.13315594  0.50000000  1
  Mg  Mg77  1  0.26664705  0.13332353  0.50000000  1
  Mg  Mg78  1  0.86667647  0.13332353  0.50000000  1
  Mg  Mg79  1  0.26660378  0.33327454  0.50000000  1
  Mg  Mg80  1  0.06667176  0.33327554  0.50000000  1
  Mg  Mg81  1  0.66666700  0.33333300  0.50000000  1
  Mg  Mg82  1  0.46665985  0.33350391  0.50000000  1
  Mg  Mg83  1  0.86684406  0.33350391  0.50000000  1
  Mg  Mg84  1  0.66649609  0.53334015  0.50000000  1
  Mg  Mg85  1  0.86684406  0.53334115  0.50000000  1
  Mg  Mg86  1  0.26658956  0.53317913  0.50000000  1
  Mg  Mg87  1  0.06668986  0.53334443  0.50000000  1
  Mg  Mg88  1  0.46665457  0.53334443  0.50000000  1
  Mg  Mg89  1  0.86667647  0.73335295  0.50000000  1
  Mg  Mg90  1  0.46682087  0.73341044  0.50000000  1
  Mg  Mg91  1  0.26658956  0.73341044  0.50000000  1
  Mg  Mg92  1  0.66672546  0.73339722  0.50000000  1
  Mg  Mg93  1  0.06667176  0.73339722  0.50000000  1
  Mg  Mg94  1  0.46665457  0.93331014  0.50000000  1
  Mg  Mg95  1  0.26660378  0.93332824  0.50000000  1
  Mg  Mg96  1  0.66672546  0.93332824  0.50000000  1
  Mg  Mg97  1  0.86702696  0.93351348  0.50000000  1
  Mg  Mg98  1  0.06648652  0.93351348  0.50000000  1
  Mg  Mg99  1  0.80015310  0.00007732  0.66601116  1
  Mg  Mg100  1  0.19992523  0.00007732  0.66601116  1
  Mg  Mg101  1  0.19992523  0.19984790  0.66601116  1
  Mg  Mg102  1  0.99992268  0.19984790  0.66601116  1
  Mg  Mg103  1  0.99992268  0.80007577  0.66601116  1
  Mg  Mg104  1  0.80015310  0.80007577  0.66601116  1
  Mg  Mg105  1  0.39988632  0.60011268  0.66699873  1
  Mg  Mg106  1  0.20022635  0.60011268  0.66699873  1
  Mg  Mg107  1  0.39988632  0.79977365  0.66699873  1
  Mg  Mg108  1  0.39985679  0.99998267  0.66685280  1
  Mg  Mg109  1  0.60012588  0.99998267  0.66685280  1
  Mg  Mg110  1  0.00001733  0.39987412  0.66685280  1
  Mg  Mg111  1  0.39985679  0.39987412  0.66685280  1
  Mg  Mg112  1  0.00001733  0.60014321  0.66685280  1
  Mg  Mg113  1  0.60012588  0.60014321  0.66685280  1
  Mg  Mg114  1  0.60012896  0.20025692  0.66703125  1
  Mg  Mg115  1  0.79974308  0.39987104  0.66703125  1
  Mg  Mg116  1  0.60012896  0.39987204  0.66703125  1
  Mg  Mg117  1  0.40002314  0.20001157  0.66694536  1
  Mg  Mg118  1  0.79998843  0.20001157  0.66694536  1
  Mg  Mg119  1  0.79998843  0.59997686  0.66694536  1
  Mg  Mg120  1  -0.00000000  -0.00000000  0.66688529  1
  Mg  Mg121  1  0.19984954  0.39969908  0.66722497  1
  Mg  Mg122  1  0.60030092  0.80015046  0.66722497  1
  Mg  Mg123  1  0.19984954  0.80015046  0.66722497  1
  Mg  Mg124  1  0.06683873  0.13367746  0.83164869  1
  Mg  Mg125  1  0.86632154  0.93316027  0.83164869  1
  Mg  Mg126  1  0.06683873  0.93316127  0.83164869  1
  Mg  Mg127  1  0.86634255  0.13365745  0.83270639  1
  Mg  Mg128  1  0.26731491  0.13365745  0.83270639  1
  Mg  Mg129  1  0.86634255  0.73268509  0.83270639  1
  Mg  Mg130  1  0.06682122  0.53341061  0.83357040  1
  Mg  Mg131  1  0.46658939  0.53341061  0.83357040  1
  Mg  Mg132  1  0.46658939  0.93317878  0.83357040  1
  Mg  Mg133  1  0.66666700  0.33333300  0.83355517  1
  Mg  Mg134  1  0.26655269  0.53310437  0.83363685  1
  Mg  Mg135  1  0.26655269  0.73344731  0.83363685  1
  Mg  Mg136  1  0.46689563  0.73344731  0.83363685  1
  Mg  Mg137  1  0.46677849  0.13335443  0.83371332  1
  Mg  Mg138  1  0.66657594  0.13335443  0.83371332  1
  Mg  Mg139  1  0.86664557  0.33342406  0.83371332  1
  Mg  Mg140  1  0.46677849  0.33342406  0.83371332  1
  Mg  Mg141  1  0.66657594  0.53322151  0.83371332  1
  Mg  Mg142  1  0.86664557  0.53322151  0.83371332  1
  Mg  Mg143  1  0.26653979  0.33276306  0.83382942  1
  Mg  Mg144  1  0.06622427  0.33276406  0.83382942  1
  Mg  Mg145  1  0.66723594  0.73346021  0.83382942  1
  Mg  Mg146  1  0.06622427  0.73346021  0.83382942  1
  Mg  Mg147  1  0.26653979  0.93377573  0.83382942  1
  Mg  Mg148  1  0.66723594  0.93377573  0.83382942  1
  Sb  Sb0  1  -0.00000000  -0.00000000  0.00000000  1
loop_
_geom_bond_atom_site_label_1
_geom_bond_atom_site_label_2
_geom_bond_distance
_geom_bond_site_symmetry_2
Mg0 Mg2 3.168163 1_555
Mg0 Mg148 3.171420 1_544
Mg0 Mg29 3.171420 1_545
Mg0 Mg22 3.178896 1_545
Mg0 Mg21 3.185365 1_545
Mg0 Mg127 3.192469 1_554
Mg0 Mg43 3.192469 1_555
Mg0 Mg5 3.196581 1_555
Mg0 Sb0 3.227064 1_655
Mg0 Mg47 3.231993 1_545
Mg0 Mg125 3.231993 1_544
Mg0 Mg18 3.257453 1_545
Mg1 Mg3 3.168162 1_555
Mg1 Mg147 3.171420 1_544
Mg1 Mg28 3.171420 1_545
Mg1 Mg23 3.178888 1_545
Mg1 Mg20 3.185374 1_545
Mg1 Mg128 3.192469 1_554
Mg1 Mg44 3.192469 1_555
Mg1 Mg6 3.196582 1_555
Mg1 Sb0 3.227064 1_555
Mg1 Mg48 3.231993 1_545
Mg1 Mg126 3.231993 1_544
Mg1 Mg17 3.257452 1_445
Mg2 Mg5 3.168161 1_555
Mg2 Mg31 3.187531 1_555
Mg2 Mg32 3.187532 1_555
Mg2 Mg43 3.195318 1_555
Mg2 Mg9 3.196481 1_555
Mg2 Mg4 3.196496 1_555
Mg2 Mg22 3.205395 1_545
Mg3 Mg6 3.168161 1_555
Mg3 Mg30 3.187532 1_555
Mg3 Mg33 3.187532 1_555
Mg3 Mg44 3.195317 1_555
Mg3 Mg4 3.196479 1_555
Mg3 Mg8 3.196480 1_555
Mg4 Mg8 3.190637 1_555
Mg4 Mg9 3.190644 1_555
Mg5 Mg7 3.185372 1_655
Mg5 Sb0 3.227065 1_655
Mg5 Mg6 3.257452 1_655
Mg6 Mg7 3.185374 1_555
Mg6 Sb0 3.227064 1_555
Mg8 Mg9 3.190652 1_555
Mg10 Mg12 3.174985 1_555
Mg10 Mg5 3.178889 1_455
Mg10 Mg130 3.183120 1_554
Mg10 Mg40 3.183120 1_555
Mg10 Mg32 3.188910 1_455
Mg10 Mg139 3.188910 1_454
Mg10 Mg15 3.191397 1_555
Mg10 Mg144 3.191465 1_554
Mg10 Mg25 3.191465 1_555
Mg10 Mg9 3.197563 1_455
Mg10 Mg7 3.200571 1_555
Mg10 Mg2 3.205379 1_455
Mg11 Mg13 3.174968 1_555
Mg11 Mg6 3.178896 1_555
Mg11 Mg131 3.183112 1_554
Mg11 Mg41 3.183112 1_555
Mg11 Mg33 3.188919 1_555
Mg11 Mg140 3.188919 1_554
Mg11 Mg16 3.191390 1_555
Mg11 Mg143 3.191465 1_554
Mg11 Mg24 3.191465 1_555
Mg11 Mg8 3.197571 1_555
Mg11 Mg7 3.200563 1_555
Mg11 Mg3 3.205396 1_555
Mg12 Mg17 3.178889 1_455
Mg12 Mg130 3.183120 1_554
Mg12 Mg40 3.183120 1_555
Mg12 Mg35 3.188910 1_455
Mg12 Mg142 3.188910 1_454
Mg12 Mg15 3.191405 1_555
Mg12 Mg146 3.191465 1_554
Mg12 Mg27 3.191465 1_555
Mg12 Mg9 3.197571 1_455
Mg12 Mg20 3.200571 1_555
Mg12 Mg14 3.205387 1_455
Mg13 Mg18 3.178896 1_555
Mg13 Mg131 3.183112 1_554
Mg13 Mg41 3.183112 1_555
Mg13 Mg34 3.188919 1_555
Mg13 Mg141 3.188919 1_554
Mg13 Mg16 3.191380 1_555
Mg13 Mg145 3.191465 1_554
Mg13 Mg26 3.191465 1_555
Mg13 Mg8 3.197581 1_555
Mg13 Mg21 3.200557 1_555
Mg13 Mg14 3.205387 1_555
Mg14 Mg18 3.168147 1_555
Mg14 Mg17 3.168154 1_555
Mg14 Mg141 3.187531 1_554
Mg14 Mg34 3.187531 1_555
Mg14 Mg35 3.187540 1_555
Mg14 Mg142 3.187540 1_554
Mg14 Mg45 3.195310 1_555
Mg14 Mg8 3.196504 1_555
Mg14 Mg9 3.196513 1_555
Mg15 Mg36 3.188283 1_555
Mg15 Mg37 3.188283 1_555
Mg15 Mg40 3.189067 1_555
Mg15 Mg16 3.193147 1_555
Mg15 Mg19 3.193155 1_555
Mg15 Mg7 3.209950 1_555
Mg15 Mg20 3.209966 1_555
Mg16 Mg38 3.188275 1_555
Mg16 Mg36 3.188282 1_555
Mg16 Mg41 3.189068 1_555
Mg16 Mg19 3.193141 1_555
Mg16 Mg21 3.209957 1_555
Mg16 Mg7 3.209965 1_555
Mg17 Mg27 3.171420 1_655
Mg17 Mg20 3.185372 1_655
Mg17 Mg45 3.192469 1_555
Mg17 Mg18 3.196580 1_555
Mg17 Sb0 3.227065 1_665
Mg17 Mg48 3.231994 1_655
Mg18 Mg26 3.171420 1_555
Mg18 Mg21 3.185356 1_555
Mg18 Mg45 3.192469 1_555
Mg18 Sb0 3.227064 1_665
Mg18 Mg47 3.231985 1_555
Mg19 Mg37 3.188282 1_555
Mg19 Mg38 3.188283 1_555
Mg19 Mg42 3.189068 1_555
Mg19 Mg22 3.191381 1_555
Mg19 Mg23 3.191406 1_555
Mg19 Mg21 3.209965 1_555
Mg19 Mg20 3.209965 1_555
Mg20 Mg27 3.184946 1_555
Mg20 Mg28 3.184947 1_555
Mg20 Mg37 3.194678 1_555
Mg20 Mg23 3.200571 1_555
Mg21 Mg26 3.184939 1_555
Mg21 Mg29 3.184947 1_555
Mg21 Mg38 3.194678 1_555
Mg21 Mg22 3.200573 1_555
Mg22 Mg23 3.174976 1_555
Mg22 Mg42 3.183112 1_555
Mg22 Mg31 3.188919 1_565
Mg22 Mg29 3.191465 1_555
Mg22 Mg4 3.197581 1_565
Mg23 Mg42 3.183120 1_555
Mg23 Mg30 3.188911 1_565
Mg23 Mg28 3.191465 1_555
Mg23 Mg4 3.197563 1_565
Mg23 Mg3 3.205380 1_565
Mg24 Mg6 3.171412 1_555
Mg24 Mg7 3.184955 1_555
Mg24 Mg46 3.187827 1_555
Mg24 Mg44 3.189297 1_555
Mg24 Mg49 3.193484 1_555
Mg24 Mg62 3.195758 1_555
Mg24 Mg33 3.195878 1_555
Mg24 Mg25 3.202384 1_555
Mg24 Mg36 3.202688 1_555
Mg24 Mg41 3.202918 1_555
Mg24 Mg70 3.203295 1_555
Mg25 Mg5 3.171420 1_455
Mg25 Mg7 3.184946 1_555
Mg25 Mg46 3.187836 1_555
Mg25 Mg43 3.189312 1_455
Mg25 Mg49 3.193475 1_555
Mg25 Mg61 3.195758 1_555
Mg25 Mg32 3.195886 1_455
Mg25 Mg36 3.202679 1_555
Mg25 Mg40 3.202911 1_555
Mg25 Mg71 3.203303 1_455
Mg26 Mg47 3.187819 1_555
Mg26 Mg45 3.189312 1_555
Mg26 Mg50 3.193476 1_555
Mg26 Mg64 3.195758 1_555
Mg26 Mg34 3.195888 1_555
Mg26 Mg29 3.202378 1_555
Mg26 Mg38 3.202671 1_555
Mg26 Mg41 3.202910 1_555
Mg26 Mg73 3.203311 1_555
Mg27 Mg48 3.187836 1_555
Mg27 Mg45 3.189312 1_455
Mg27 Mg51 3.193475 1_555
Mg27 Mg63 3.195758 1_555
Mg27 Mg35 3.195886 1_455
Mg27 Mg28 3.202377 1_555
Mg27 Mg37 3.202687 1_555
Mg27 Mg40 3.202911 1_555
Mg27 Mg72 3.203311 1_455
Mg28 Mg48 3.187835 1_555
Mg28 Mg44 3.189313 1_565
Mg28 Mg51 3.193476 1_555
Mg28 Mg59 3.195758 1_555
Mg28 Mg30 3.195886 1_565
Mg28 Mg37 3.202689 1_555
Mg28 Mg42 3.202910 1_555
Mg28 Mg69 3.203303 1_565
Mg29 Mg47 3.187827 1_555
Mg29 Mg43 3.189312 1_565
Mg29 Mg50 3.193476 1_555
Mg29 Mg60 3.195758 1_555
Mg29 Mg31 3.195888 1_565
Mg29 Mg38 3.202679 1_555
Mg29 Mg42 3.202910 1_555
Mg29 Mg68 3.203311 1_565
Mg30 Mg4 3.187307 1_555
Mg30 Mg44 3.191220 1_555
Mg30 Mg56 3.192251 1_555
Mg30 Mg53 3.193853 1_555
Mg30 Mg31 3.194094 1_555
Mg30 Mg59 3.194710 1_545
Mg30 Mg39 3.196271 1_555
Mg30 Mg33 3.198447 1_555
Mg30 Mg42 3.198632 1_545
Mg31 Mg4 3.187315 1_555
Mg31 Mg43 3.191220 1_555
Mg31 Mg56 3.192243 1_555
Mg31 Mg54 3.193853 1_555
Mg31 Mg60 3.194710 1_545
Mg31 Mg39 3.196264 1_555
Mg31 Mg32 3.198446 1_555
Mg31 Mg42 3.198631 1_545
Mg32 Mg9 3.187307 1_555
Mg32 Mg43 3.191222 1_555
Mg32 Mg57 3.192243 1_555
Mg32 Mg54 3.193854 1_555
Mg32 Mg35 3.194096 1_555
Mg32 Mg61 3.194709 1_655
Mg32 Mg39 3.196263 1_555
Mg32 Mg40 3.198631 1_655
Mg33 Mg8 3.187307 1_555
Mg33 Mg44 3.191221 1_555
Mg33 Mg58 3.192251 1_555
Mg33 Mg53 3.193854 1_555
Mg33 Mg34 3.194094 1_555
Mg33 Mg62 3.194710 1_555
Mg33 Mg39 3.196279 1_555
Mg33 Mg41 3.198632 1_555
Mg34 Mg8 3.187315 1_555
Mg34 Mg45 3.191221 1_555
Mg34 Mg58 3.192243 1_555
Mg34 Mg55 3.193853 1_555
Mg34 Mg64 3.194710 1_555
Mg34 Mg39 3.196280 1_555
Mg34 Mg35 3.198445 1_555
Mg34 Mg41 3.198631 1_555
Mg35 Mg9 3.187315 1_555
Mg35 Mg45 3.191222 1_555
Mg35 Mg57 3.192251 1_555
Mg35 Mg55 3.193853 1_555
Mg35 Mg63 3.194709 1_655
Mg35 Mg39 3.196271 1_555
Mg35 Mg40 3.198631 1_655
Mg36 Mg49 3.189259 1_555
Mg36 Mg65 3.191571 1_555
Mg36 Mg66 3.191580 1_555
Mg36 Mg7 3.194670 1_555
Mg36 Mg41 3.195474 1_555
Mg36 Mg40 3.195490 1_555
Mg36 Mg38 3.202815 1_555
Mg36 Mg37 3.202816 1_555
Mg37 Mg51 3.189267 1_555
Mg37 Mg67 3.191571 1_555
Mg37 Mg66 3.191580 1_555
Mg37 Mg42 3.195482 1_555
Mg37 Mg40 3.195482 1_555
Mg37 Mg38 3.202815 1_555
Mg38 Mg50 3.189258 1_555
Mg38 Mg65 3.191580 1_555
Mg38 Mg67 3.191588 1_555
Mg38 Mg41 3.195475 1_555
Mg38 Mg42 3.195492 1_555
Mg39 Mg9 3.186865 1_555
Mg39 Mg4 3.186865 1_555
Mg39 Mg8 3.186873 1_555
Mg39 Mg57 3.188036 1_555
Mg39 Mg56 3.188037 1_555
Mg39 Mg58 3.188045 1_555
Mg40 Mg66 3.191293 1_555
Mg40 Mg63 3.194205 1_555
Mg40 Mg61 3.194205 1_555
Mg41 Mg65 3.191293 1_555
Mg41 Mg64 3.194204 1_555
Mg41 Mg62 3.194205 1_555
Mg42 Mg67 3.191293 1_555
Mg42 Mg60 3.194204 1_555
Mg42 Mg59 3.194205 1_555
Mg43 Mg54 3.175380 1_555
Mg43 Mg5 3.192469 1_555
Mg43 Mg71 3.194284 1_555
Mg43 Mg68 3.194284 1_555
Mg43 Mg46 3.205147 1_655
Mg43 Mg47 3.205157 1_545
Mg44 Mg53 3.175380 1_555
Mg44 Mg6 3.192469 1_555
Mg44 Mg70 3.194284 1_555
Mg44 Mg69 3.194284 1_555
Mg44 Mg46 3.205147 1_555
Mg44 Mg48 3.205147 1_545
Mg45 Mg55 3.175380 1_555
Mg45 Mg72 3.194284 1_555
Mg45 Mg73 3.194284 1_555
Mg45 Mg47 3.205141 1_555
Mg45 Mg48 3.205147 1_655
Mg46 Mg52 3.170495 1_555
Mg46 Mg70 3.176846 1_555
Mg46 Mg71 3.176847 1_455
Mg46 Mg48 3.205586 1_545
Mg46 Mg47 3.205601 1_445
Mg46 Sb0 3.216176 1_555
Mg46 Mg6 3.231993 1_555
Mg46 Mg5 3.231993 1_455
Mg47 Mg52 3.170502 1_665
Mg47 Mg73 3.176831 1_555
Mg47 Mg68 3.176839 1_565
Mg47 Mg48 3.205592 1_655
Mg47 Sb0 3.216184 1_665
Mg48 Mg52 3.170495 1_565
Mg48 Mg72 3.176839 1_455
Mg48 Mg69 3.176846 1_565
Mg48 Sb0 3.216176 1_565
Mg49 Mg71 3.195615 1_455
Mg49 Mg70 3.195616 1_555
Mg49 Mg62 3.196055 1_555
Mg49 Mg61 3.196055 1_555
Mg49 Mg80 3.197807 1_555
Mg49 Mg79 3.197815 1_555
Mg49 Mg86 3.200221 1_555
Mg49 Mg65 3.200939 1_555
Mg49 Mg66 3.200940 1_555
Mg50 Mg73 3.195622 1_555
Mg50 Mg68 3.195623 1_565
Mg50 Mg60 3.196057 1_555
Mg50 Mg64 3.196057 1_555
Mg50 Mg92 3.197807 1_555
Mg50 Mg96 3.197808 1_555
Mg50 Mg90 3.200221 1_555
Mg50 Mg67 3.200954 1_555
Mg50 Mg65 3.200955 1_555
Mg51 Mg69 3.195616 1_565
Mg51 Mg72 3.195622 1_455
Mg51 Mg59 3.196055 1_555
Mg51 Mg63 3.196055 1_555
Mg51 Mg93 3.197807 1_555
Mg51 Mg95 3.197808 1_555
Mg51 Mg91 3.200221 1_555
Mg51 Mg67 3.200938 1_555
Mg51 Mg66 3.200956 1_555
Mg52 Mg97 3.191836 1_445
Mg52 Mg98 3.191836 1_545
Mg52 Mg74 3.191836 1_555
Mg52 Mg68 3.195532 1_455
Mg52 Mg73 3.195532 1_445
Mg52 Mg72 3.195534 1_445
Mg52 Mg69 3.195548 1_555
Mg52 Mg70 3.195548 1_555
Mg52 Mg71 3.195549 1_455
Mg53 Mg77 3.195823 1_555
Mg53 Mg62 3.196467 1_555
Mg53 Mg59 3.196467 1_545
Mg53 Mg76 3.196754 1_555
Mg53 Mg82 3.196755 1_555
Mg53 Mg56 3.197065 1_555
Mg53 Mg58 3.197065 1_555
Mg53 Mg70 3.197623 1_555
Mg53 Mg69 3.197624 1_555
Mg54 Mg78 3.195824 1_555
Mg54 Mg61 3.196466 1_655
Mg54 Mg60 3.196466 1_545
Mg54 Mg75 3.196754 1_555
Mg54 Mg83 3.196755 1_555
Mg54 Mg56 3.197049 1_555
Mg54 Mg57 3.197050 1_555
Mg54 Mg71 3.197623 1_555
Mg54 Mg68 3.197633 1_555
Mg55 Mg89 3.195824 1_555
Mg55 Mg63 3.196466 1_655
Mg55 Mg64 3.196466 1_555
Mg55 Mg85 3.196746 1_555
Mg55 Mg84 3.196754 1_555
Mg55 Mg58 3.197049 1_555
Mg55 Mg57 3.197066 1_555
Mg55 Mg72 3.197632 1_555
Mg55 Mg73 3.197633 1_555
Mg56 Mg57 3.191163 1_555
Mg56 Mg58 3.191181 1_555
Mg56 Mg81 3.194535 1_555
Mg56 Mg76 3.197681 1_555
Mg56 Mg75 3.197681 1_555
Mg56 Mg60 3.201695 1_545
Mg56 Mg59 3.201701 1_545
Mg57 Mg58 3.191171 1_555
Mg57 Mg81 3.194534 1_555
Mg57 Mg83 3.197673 1_555
Mg57 Mg85 3.197689 1_555
Mg57 Mg61 3.201693 1_655
Mg57 Mg63 3.201701 1_655
Mg58 Mg81 3.194542 1_555
Mg58 Mg84 3.197673 1_555
Mg58 Mg82 3.197681 1_555
Mg58 Mg64 3.201695 1_555
Mg58 Mg62 3.201701 1_555
Mg59 Mg76 3.193023 1_565
Mg59 Mg95 3.193658 1_555
Mg59 Mg94 3.195398 1_555
Mg59 Mg69 3.197022 1_565
Mg59 Mg67 3.200912 1_555
Mg59 Mg60 3.201634 1_555
Mg60 Mg75 3.193015 1_565
Mg60 Mg96 3.193667 1_555
Mg60 Mg94 3.195405 1_555
Mg60 Mg68 3.197038 1_565
Mg60 Mg67 3.200919 1_555
Mg61 Mg83 3.193023 1_455
Mg61 Mg80 3.193659 1_555
Mg61 Mg87 3.195398 1_555
Mg61 Mg71 3.197024 1_455
Mg61 Mg66 3.200911 1_555
Mg61 Mg63 3.201636 1_555
Mg62 Mg82 3.193023 1_555
Mg62 Mg79 3.193658 1_555
Mg62 Mg88 3.195398 1_555
Mg62 Mg70 3.197022 1_555
Mg62 Mg65 3.200912 1_555
Mg62 Mg64 3.201634 1_555
Mg63 Mg85 3.193023 1_455
Mg63 Mg93 3.193667 1_555
Mg63 Mg87 3.195406 1_555
Mg63 Mg72 3.197039 1_455
Mg63 Mg66 3.200919 1_555
Mg64 Mg84 3.193023 1_555
Mg64 Mg92 3.193667 1_555
Mg64 Mg88 3.195405 1_555
Mg64 Mg73 3.197038 1_555
Mg64 Mg65 3.200919 1_555
Mg65 Mg66 3.191896 1_555
Mg65 Mg67 3.191914 1_555
Mg65 Mg86 3.195873 1_555
Mg65 Mg90 3.195881 1_555
Mg65 Mg88 3.197788 1_555
Mg66 Mg67 3.191904 1_555
Mg66 Mg86 3.195873 1_555
Mg66 Mg91 3.195881 1_555
Mg66 Mg87 3.197787 1_555
Mg67 Mg91 3.195873 1_555
Mg67 Mg90 3.195881 1_555
Mg67 Mg94 3.197788 1_555
Mg68 Mg78 3.182880 1_555
Mg68 Mg96 3.184336 1_545
Mg68 Mg97 3.184418 1_545
Mg68 Mg71 3.193657 1_555
Mg68 Mg73 3.197358 1_545
Mg69 Mg77 3.182880 1_555
Mg69 Mg95 3.184336 1_545
Mg69 Mg98 3.184426 1_545
Mg69 Mg70 3.193666 1_555
Mg69 Mg72 3.197365 1_445
Mg70 Mg77 3.182880 1_555
Mg70 Mg79 3.184328 1_555
Mg70 Mg74 3.184426 1_555
Mg70 Mg71 3.197373 1_455
Mg71 Mg78 3.182880 1_555
Mg71 Mg80 3.184336 1_655
Mg71 Mg74 3.184426 1_655
Mg72 Mg89 3.182880 1_555
Mg72 Mg93 3.184336 1_655
Mg72 Mg98 3.184418 1_655
Mg72 Mg73 3.193649 1_555
Mg73 Mg89 3.182880 1_555
Mg73 Mg92 3.184336 1_555
Mg73 Mg97 3.184418 1_555
Mg74 Mg97 3.188693 1_445
Mg74 Mg98 3.188694 1_545
Mg74 Mg77 3.197101 1_555
Mg74 Mg78 3.197101 1_455
Mg74 Mg79 3.200681 1_555
Mg74 Mg80 3.200690 1_555
Mg75 Mg76 3.194722 1_555
Mg75 Mg94 3.194825 1_545
Mg75 Mg96 3.196398 1_545
Mg75 Mg81 3.198815 1_555
Mg75 Mg78 3.198869 1_555
Mg75 Mg83 3.202903 1_555
Mg76 Mg94 3.194826 1_545
Mg76 Mg95 3.196405 1_545
Mg76 Mg81 3.198806 1_555
Mg76 Mg77 3.198877 1_555
Mg76 Mg82 3.202897 1_555
Mg77 Mg79 3.196896 1_555
Mg77 Mg95 3.196913 1_545
Mg77 Mg98 3.197101 1_545
Mg77 Mg82 3.198877 1_555
Mg78 Mg99 3.182880 1_555
Mg78 Mg96 3.196903 1_545
Mg78 Mg80 3.196911 1_655
Mg78 Mg97 3.197102 1_545
Mg78 Mg83 3.198879 1_555
Mg79 Mg86 3.195922 1_555
Mg79 Mg80 3.196253 1_555
Mg79 Mg82 3.196397 1_555
Mg79 Mg88 3.198297 1_555
Mg80 Mg86 3.195905 1_555
Mg80 Mg83 3.196405 1_455
Mg80 Mg87 3.198290 1_555
Mg81 Mg83 3.198798 1_555
Mg81 Mg82 3.198813 1_555
Mg81 Mg85 3.198814 1_555
Mg81 Mg84 3.198815 1_555
Mg82 Mg84 3.194714 1_555
Mg82 Mg88 3.194826 1_555
Mg83 Mg85 3.194732 1_555
Mg83 Mg87 3.194825 1_655
Mg84 Mg88 3.194833 1_555
Mg84 Mg92 3.196414 1_555
Mg84 Mg89 3.198877 1_555
Mg84 Mg85 3.202887 1_555
Mg85 Mg87 3.194841 1_655
Mg85 Mg93 3.196405 1_655
Mg85 Mg89 3.198863 1_555
Mg86 Mg87 3.197051 1_555
Mg86 Mg88 3.197051 1_555
Mg86 Mg90 3.201030 1_555
Mg86 Mg91 3.201032 1_555
Mg87 Mg91 3.197059 1_555
Mg87 Mg93 3.198322 1_555
Mg88 Mg90 3.197060 1_555
Mg88 Mg92 3.198321 1_555
Mg89 Mg92 3.196903 1_555
Mg89 Mg93 3.196903 1_655
Mg89 Mg98 3.197101 1_655
Mg89 Mg97 3.197102 1_555
Mg90 Mg92 3.195913 1_555
Mg90 Mg96 3.195913 1_555
Mg90 Mg94 3.197060 1_555
Mg90 Mg91 3.201030 1_555
Mg91 Mg95 3.195906 1_555
Mg91 Mg93 3.195912 1_555
Mg91 Mg94 3.197051 1_555
Mg92 Mg96 3.196231 1_555
Mg92 Mg97 3.200673 1_555
Mg93 Mg95 3.196238 1_555
Mg93 Mg98 3.200674 1_555
Mg94 Mg95 3.198289 1_555
Mg94 Mg96 3.198321 1_555
Mg95 Mg98 3.200688 1_555
Mg96 Mg99 3.184336 1_565
Mg96 Mg97 3.200672 1_555
Mg97 Mg99 3.184418 1_565
Mg97 Mg98 3.188692 1_655
Mg100 Mg126 3.176846 1_545
Mg100 Mg77 3.182880 1_555
Mg100 Mg95 3.184336 1_545
Mg100 Mg98 3.184426 1_545
Mg100 Mg101 3.193666 1_555
Mg100 Mg128 3.194284 1_555
Mg100 Mg120 3.195548 1_555
Mg100 Mg123 3.195616 1_545
Mg100 Mg108 3.197022 1_545
Mg100 Mg103 3.197365 1_445
Mg100 Mg117 3.197624 1_555
Mg100 Mg147 3.203303 1_545
Mg101 Mg124 3.176846 1_555
Mg101 Mg77 3.182880 1_555
Mg101 Mg79 3.184328 1_555
Mg101 Mg74 3.184426 1_555
Mg101 Mg128 3.194284 1_555
Mg101 Mg120 3.195548 1_555
Mg101 Mg121 3.195616 1_555
Mg101 Mg111 3.197022 1_555
Mg101 Mg102 3.197373 1_455
Mg101 Mg117 3.197623 1_555
Mg101 Mg143 3.203295 1_555
Mg102 Mg124 3.176847 1_655
Mg102 Mg78 3.182880 1_555
Mg102 Mg80 3.184336 1_655
Mg102 Mg74 3.184426 1_655
Mg102 Mg99 3.193657 1_555
Mg102 Mg127 3.194284 1_555
Mg102 Mg120 3.195549 1_655
Mg102 Mg121 3.195615 1_655
Mg102 Mg110 3.197024 1_655
Mg102 Mg118 3.197623 1_555
Mg102 Mg144 3.203303 1_655
Mg103 Mg126 3.176839 1_655
Mg103 Mg89 3.182880 1_555
Mg103 Mg93 3.184336 1_655
Mg103 Mg98 3.184418 1_655
Mg103 Mg104 3.193649 1_555
Mg103 Mg129 3.194284 1_555
Mg103 Mg120 3.195534 1_665
Mg103 Mg123 3.195622 1_655
Mg103 Mg112 3.197039 1_655
Mg103 Mg119 3.197632 1_555
Mg103 Mg146 3.203311 1_655
Mg104 Mg125 3.176831 1_555
Mg104 Mg89 3.182880 1_555
Mg104 Mg92 3.184336 1_555
Mg104 Mg97 3.184418 1_555
Mg104 Mg129 3.194284 1_555
Mg104 Mg120 3.195532 1_665
Mg104 Mg122 3.195622 1_555
Mg104 Mg113 3.197038 1_555
Mg104 Mg99 3.197358 1_565
Mg104 Mg119 3.197633 1_555
Mg104 Mg145 3.203311 1_555
Mg105 Mg131 3.191293 1_555
Mg105 Mg134 3.191571 1_555
Mg105 Mg136 3.191580 1_555
Mg105 Mg106 3.191896 1_555
Mg105 Mg107 3.191914 1_555
Mg105 Mg86 3.195873 1_555
Mg105 Mg90 3.195881 1_555
Mg105 Mg88 3.197788 1_555
Mg105 Mg111 3.200912 1_555
Mg105 Mg113 3.200919 1_555
Mg105 Mg121 3.200939 1_555
Mg105 Mg122 3.200955 1_555
Mg106 Mg130 3.191293 1_555
Mg106 Mg135 3.191580 1_555
Mg106 Mg134 3.191580 1_555
Mg106 Mg107 3.191904 1_555
Mg106 Mg86 3.195873 1_555
Mg106 Mg91 3.195881 1_555
Mg106 Mg87 3.197787 1_555
Mg106 Mg110 3.200911 1_555
Mg106 Mg112 3.200919 1_555
Mg106 Mg121 3.200940 1_555
Mg106 Mg123 3.200956 1_555
Mg107 Mg132 3.191293 1_555
Mg107 Mg135 3.191571 1_555
Mg107 Mg136 3.191588 1_555
Mg107 Mg91 3.195873 1_555
Mg107 Mg90 3.195881 1_555
Mg107 Mg94 3.197788 1_555
Mg107 Mg108 3.200912 1_555
Mg107 Mg109 3.200919 1_555
Mg107 Mg123 3.200938 1_555
Mg107 Mg122 3.200954 1_555
Mg108 Mg76 3.193023 1_565
Mg108 Mg95 3.193658 1_555
Mg108 Mg132 3.194205 1_555
Mg108 Mg137 3.194710 1_565
Mg108 Mg94 3.195398 1_555
Mg108 Mg147 3.195758 1_555
Mg108 Mg123 3.196055 1_555
Mg108 Mg117 3.196467 1_565
Mg108 Mg109 3.201634 1_555
Mg108 Mg114 3.201701 1_565
Mg109 Mg75 3.193015 1_565
Mg109 Mg96 3.193667 1_555
Mg109 Mg132 3.194204 1_555
Mg109 Mg138 3.194710 1_565
Mg109 Mg94 3.195405 1_555
Mg109 Mg148 3.195758 1_555
Mg109 Mg122 3.196057 1_555
Mg109 Mg118 3.196466 1_565
Mg109 Mg99 3.197038 1_565
Mg109 Mg114 3.201695 1_565
Mg110 Mg83 3.193023 1_455
Mg110 Mg80 3.193659 1_555
Mg110 Mg130 3.194205 1_555
Mg110 Mg139 3.194709 1_455
Mg110 Mg87 3.195398 1_555
Mg110 Mg144 3.195758 1_555
Mg110 Mg121 3.196055 1_555
Mg110 Mg118 3.196466 1_455
Mg110 Mg112 3.201636 1_555
Mg110 Mg115 3.201693 1_455
Mg111 Mg82 3.193023 1_555
Mg111 Mg79 3.193658 1_555
Mg111 Mg131 3.194205 1_555
Mg111 Mg140 3.194710 1_555
Mg111 Mg88 3.195398 1_555
Mg111 Mg143 3.195758 1_555
Mg111 Mg121 3.196055 1_555
Mg111 Mg117 3.196467 1_555
Mg111 Mg113 3.201634 1_555
Mg111 Mg116 3.201701 1_555
Mg112 Mg85 3.193023 1_455
Mg112 Mg93 3.193667 1_555
Mg112 Mg130 3.194205 1_555
Mg112 Mg142 3.194709 1_455
Mg112 Mg87 3.195406 1_555
Mg112 Mg146 3.195758 1_555
Mg112 Mg123 3.196055 1_555
Mg112 Mg119 3.196466 1_455
Mg112 Mg115 3.201701 1_455
Mg113 Mg84 3.193023 1_555
Mg113 Mg92 3.193667 1_555
Mg113 Mg131 3.194204 1_555
Mg113 Mg141 3.194710 1_555
Mg113 Mg88 3.195405 1_555
Mg113 Mg145 3.195758 1_555
Mg113 Mg122 3.196057 1_555
Mg113 Mg119 3.196466 1_555
Mg113 Mg116 3.201695 1_555
Mg114 Mg133 3.188050 1_555
Mg114 Mg115 3.191163 1_555
Mg114 Mg116 3.191181 1_555
Mg114 Mg138 3.192256 1_555
Mg114 Mg137 3.192264 1_555
Mg114 Mg81 3.194522 1_555
Mg114 Mg118 3.197049 1_555
Mg114 Mg117 3.197065 1_555
Mg114 Mg76 3.197668 1_555
Mg114 Mg75 3.197669 1_555
Mg115 Mg133 3.188049 1_555
Mg115 Mg116 3.191171 1_555
Mg115 Mg139 3.192256 1_555
Mg115 Mg142 3.192264 1_555
Mg115 Mg81 3.194521 1_555
Mg115 Mg118 3.197050 1_555
Mg115 Mg119 3.197066 1_555
Mg115 Mg83 3.197660 1_555
Mg115 Mg85 3.197677 1_555
Mg116 Mg133 3.188058 1_555
Mg116 Mg141 3.192256 1_555
Mg116 Mg140 3.192264 1_555
Mg116 Mg81 3.194530 1_555
Mg116 Mg119 3.197049 1_555
Mg116 Mg117 3.197065 1_555
Mg116 Mg84 3.197661 1_555
Mg116 Mg82 3.197668 1_555
Mg117 Mg128 3.175380 1_555
Mg117 Mg137 3.193853 1_555
Mg117 Mg140 3.193854 1_555
Mg117 Mg77 3.195823 1_555
Mg117 Mg76 3.196754 1_555
Mg117 Mg82 3.196755 1_555
Mg118 Mg127 3.175380 1_555
Mg118 Mg138 3.193853 1_555
Mg118 Mg139 3.193854 1_555
Mg118 Mg78 3.195824 1_555
Mg118 Mg75 3.196754 1_555
Mg118 Mg83 3.196755 1_555
Mg118 Mg99 3.197633 1_555
Mg119 Mg129 3.175380 1_555
Mg119 Mg141 3.193853 1_555
Mg119 Mg142 3.193853 1_555
Mg119 Mg89 3.195824 1_555
Mg119 Mg85 3.196746 1_555
Mg119 Mg84 3.196754 1_555
Mg120 Mg126 3.170495 1_545
Mg120 Mg124 3.170495 1_555
Mg120 Mg125 3.170502 1_445
Mg120 Mg97 3.191836 1_445
Mg120 Mg98 3.191836 1_545
Mg120 Mg74 3.191836 1_555
Mg120 Mg99 3.195532 1_455
Mg121 Mg134 3.189259 1_555
Mg121 Mg144 3.193475 1_555
Mg121 Mg143 3.193484 1_555
Mg121 Mg80 3.197807 1_555
Mg121 Mg79 3.197815 1_555
Mg121 Mg86 3.200221 1_555
Mg122 Mg136 3.189258 1_555
Mg122 Mg145 3.193476 1_555
Mg122 Mg148 3.193476 1_555
Mg122 Mg99 3.195623 1_565
Mg122 Mg92 3.197807 1_555
Mg122 Mg96 3.197808 1_555
Mg122 Mg90 3.200221 1_555
Mg123 Mg135 3.189267 1_555
Mg123 Mg146 3.193475 1_555
Mg123 Mg147 3.193476 1_555
Mg123 Mg93 3.197807 1_555
Mg123 Mg95 3.197808 1_555
Mg123 Mg91 3.200221 1_555
Mg124 Mg143 3.187827 1_555
Mg124 Mg144 3.187836 1_555
Mg124 Mg127 3.205147 1_455
Mg124 Mg128 3.205147 1_555
Mg124 Mg126 3.205586 1_545
Mg124 Mg125 3.205601 1_445
Mg124 Sb0 3.216176 1_556
Mg124 Mg6 3.231993 1_556
Mg124 Mg5 3.231993 1_456
Mg125 Mg99 3.176839 1_565
Mg125 Mg145 3.187819 1_555
Mg125 Mg148 3.187827 1_555
Mg125 Mg129 3.205141 1_555
Mg125 Mg127 3.205157 1_565
Mg125 Mg126 3.205592 1_655
Mg125 Sb0 3.216184 1_666
Mg125 Mg18 3.231985 1_556
Mg126 Mg147 3.187835 1_555
Mg126 Mg146 3.187836 1_555
Mg126 Mg129 3.205147 1_455
Mg126 Mg128 3.205147 1_565
Mg126 Sb0 3.216176 1_566
Mg126 Mg17 3.231994 1_456
Mg127 Mg144 3.189312 1_655
Mg127 Mg148 3.189312 1_545
Mg127 Mg138 3.191220 1_555
Mg127 Mg139 3.191222 1_555
Mg127 Mg5 3.192469 1_556
Mg127 Mg99 3.194284 1_555
Mg127 Mg2 3.195318 1_556
Mg128 Mg143 3.189297 1_555
Mg128 Mg147 3.189313 1_545
Mg128 Mg137 3.191220 1_555
Mg128 Mg140 3.191221 1_555
Mg128 Mg6 3.192469 1_556
Mg128 Mg3 3.195317 1_556
Mg129 Mg146 3.189312 1_655
Mg129 Mg145 3.189312 1_555
Mg129 Mg141 3.191221 1_555
Mg129 Mg142 3.191222 1_555
Mg129 Mg17 3.192469 1_556
Mg129 Mg18 3.192469 1_556
Mg129 Mg14 3.195310 1_556
Mg130 Mg15 3.189067 1_556
Mg130 Mg135 3.195482 1_555
Mg130 Mg134 3.195490 1_555
Mg130 Mg142 3.198631 1_455
Mg130 Mg139 3.198631 1_455
Mg130 Mg146 3.202911 1_555
Mg130 Mg144 3.202911 1_555
Mg131 Mg16 3.189068 1_556
Mg131 Mg134 3.195474 1_555
Mg131 Mg136 3.195475 1_555
Mg131 Mg141 3.198631 1_555
Mg131 Mg140 3.198632 1_555
Mg131 Mg145 3.202910 1_555
Mg131 Mg143 3.202918 1_555
Mg132 Mg22 3.183112 1_556
Mg132 Mg23 3.183120 1_556
Mg132 Mg19 3.189068 1_556
Mg132 Mg135 3.195482 1_555
Mg132 Mg136 3.195492 1_555
Mg132 Mg138 3.198631 1_565
Mg132 Mg137 3.198632 1_565
Mg132 Mg148 3.202910 1_555
Mg132 Mg147 3.202910 1_555
Mg133 Mg9 3.186865 1_556
Mg133 Mg4 3.186865 1_556
Mg133 Mg8 3.186873 1_556
Mg133 Mg139 3.196263 1_555
Mg133 Mg138 3.196264 1_555
Mg133 Mg142 3.196271 1_555
Mg133 Mg137 3.196271 1_555
Mg133 Mg140 3.196279 1_555
Mg133 Mg141 3.196280 1_555
Mg134 Mg16 3.188282 1_556
Mg134 Mg15 3.188283 1_556
Mg134 Mg7 3.194670 1_556
Mg134 Mg144 3.202679 1_555
Mg134 Mg143 3.202688 1_555
Mg134 Mg136 3.202815 1_555
Mg134 Mg135 3.202816 1_555
Mg135 Mg19 3.188282 1_556
Mg135 Mg15 3.188283 1_556
Mg135 Mg20 3.194678 1_556
Mg135 Mg146 3.202687 1_555
Mg135 Mg147 3.202689 1_555
Mg135 Mg136 3.202815 1_555
Mg136 Mg16 3.188275 1_556
Mg136 Mg19 3.188283 1_556
Mg136 Mg21 3.194678 1_556
Mg136 Mg145 3.202671 1_555
Mg136 Mg148 3.202679 1_555
Mg137 Mg4 3.187307 1_556
Mg137 Mg3 3.187532 1_556
Mg137 Mg23 3.188911 1_546
Mg137 Mg138 3.194094 1_555
Mg137 Mg147 3.195886 1_545
Mg137 Mg140 3.198447 1_555
Mg138 Mg4 3.187315 1_556
Mg138 Mg2 3.187531 1_556
Mg138 Mg22 3.188919 1_546
Mg138 Mg148 3.195888 1_545
Mg138 Mg139 3.198446 1_555
Mg139 Mg9 3.187307 1_556
Mg139 Mg2 3.187532 1_556
Mg139 Mg142 3.194096 1_555
Mg139 Mg144 3.195886 1_655
Mg140 Mg8 3.187307 1_556
Mg140 Mg3 3.187532 1_556
Mg140 Mg141 3.194094 1_555
Mg140 Mg143 3.195878 1_555
Mg141 Mg8 3.187315 1_556
Mg141 Mg145 3.195888 1_555
Mg141 Mg142 3.198445 1_555
Mg142 Mg9 3.187315 1_556
Mg142 Mg146 3.195886 1_655
Mg143 Mg6 3.171412 1_556
Mg143 Mg7 3.184955 1_556
Mg143 Mg144 3.202384 1_555
Mg144 Mg5 3.171420 1_456
Mg144 Mg7 3.184946 1_556
Mg145 Mg18 3.171420 1_556
Mg145 Mg21 3.184939 1_556
Mg145 Mg148 3.202378 1_555
Mg146 Mg17 3.171420 1_456
Mg146 Mg20 3.184946 1_556
Mg146 Mg147 3.202377 1_555
Mg147 Mg20 3.184947 1_556
Mg147 Mg23 3.191465 1_556
Mg148 Mg21 3.184947 1_556
Mg148 Mg22 3.191465 1_556
Mg148 Mg99 3.203311 1_565
