# generated using pymatgen
data_MoPt3
_symmetry_space_group_name_H-M   'P 1'
_cell_length_a   18.73612803
_cell_length_b   18.73612803
_cell_length_c   18.73612717
_cell_angle_alpha   17.19093026
_cell_angle_beta   17.19093026
_cell_angle_gamma   17.19092364
_symmetry_Int_Tables_number   1
_chemical_formula_structural   MoPt3
_chemical_formula_sum   'Mo8 Pt24'
_cell_volume   501.29968517
_cell_formula_units_Z   8
loop_
 _symmetry_equiv_pos_site_id
 _symmetry_equiv_pos_as_xyz
  1  'x, y, z'
loop_
 _atom_site_type_symbol
 _atom_site_label
 _atom_site_symmetry_multiplicity
 _atom_site_fract_x
 _atom_site_fract_y
 _atom_site_fract_z
 _atom_site_occupancy
  Mo  Mo0_0  1  0.00000000  0.00000000  0.00000000  1
  Mo  Mo0_1  1  0.00000000  0.00000000  0.50000000  1
  Mo  Mo0_2  1  0.00000000  0.50000000  0.00000000  1
  Mo  Mo0_3  1  0.00000000  0.50000000  0.50000000  1
  Mo  Mo0_4  1  0.50000000  0.00000000  0.00000000  1
  Mo  Mo0_5  1  0.50000000  0.00000000  0.50000000  1
  Mo  Mo0_6  1  0.50000000  0.50000000  0.00000000  1
  Mo  Mo0_7  1  0.50000000  0.50000000  0.50000000  1
  Pt  Pt0_0  1  0.12662950  0.12662950  0.12662950  1
  Pt  Pt0_1  1  0.12662950  0.12662950  0.62662950  1
  Pt  Pt0_2  1  0.12662950  0.62662950  0.12662950  1
  Pt  Pt0_3  1  0.12662950  0.62662950  0.62662950  1
  Pt  Pt0_4  1  0.62662950  0.12662950  0.12662950  1
  Pt  Pt0_5  1  0.62662950  0.12662950  0.62662950  1
  Pt  Pt0_6  1  0.62662950  0.62662950  0.12662950  1
  Pt  Pt0_7  1  0.62662950  0.62662950  0.62662950  1
  Pt  Pt1_0  1  0.25000000  0.25000000  0.25000000  1
  Pt  Pt1_1  1  0.25000000  0.25000000  0.75000000  1
  Pt  Pt1_2  1  0.25000000  0.75000000  0.25000000  1
  Pt  Pt1_3  1  0.25000000  0.75000000  0.75000000  1
  Pt  Pt1_4  1  0.75000000  0.25000000  0.25000000  1
  Pt  Pt1_5  1  0.75000000  0.25000000  0.75000000  1
  Pt  Pt1_6  1  0.75000000  0.75000000  0.25000000  1
  Pt  Pt1_7  1  0.75000000  0.75000000  0.75000000  1
  Pt  Pt2_0  1  0.37337050  0.37337050  0.37337050  1
  Pt  Pt2_1  1  0.37337050  0.37337050  0.87337050  1
  Pt  Pt2_2  1  0.37337050  0.87337050  0.37337050  1
  Pt  Pt2_3  1  0.37337050  0.87337050  0.87337050  1
  Pt  Pt2_4  1  0.87337050  0.37337050  0.37337050  1
  Pt  Pt2_5  1  0.87337050  0.37337050  0.87337050  1
  Pt  Pt2_6  1  0.87337050  0.87337050  0.37337050  1
  Pt  Pt2_7  1  0.87337050  0.87337050  0.87337050  1
loop_
_geom_bond_atom_site_label_1
_geom_bond_atom_site_label_2
_geom_bond_distance
_geom_bond_site_symmetry_2
Mo0_0 Pt0_1 2.743605 1_554
Mo0_0 Pt2_6 2.743605 1_445
Mo0_0 Pt0_2 2.743605 1_545
Mo0_0 Pt2_3 2.743605 1_544
Mo0_0 Pt0_4 2.743605 1_455
Mo0_0 Pt2_5 2.743605 1_454
Mo0_0 Mo0_6 2.800246 1_545
Mo0_0 Mo0_6 2.800246 1_455
Mo0_0 Mo0_3 2.800247 1_554
Mo0_0 Mo0_5 2.800247 1_455
Mo0_0 Mo0_3 2.800247 1_545
Mo0_0 Mo0_5 2.800247 1_554
Mo0_1 Pt2_7 2.743605 1_445
Mo0_1 Pt0_0 2.743605 1_555
Mo0_1 Pt0_3 2.743605 1_545
Mo0_1 Pt2_2 2.743605 1_545
Mo0_1 Pt0_5 2.743605 1_455
Mo0_1 Pt2_4 2.743605 1_455
Mo0_1 Mo0_7 2.800246 1_545
Mo0_1 Mo0_7 2.800246 1_455
Mo0_1 Mo0_4 2.800247 1_456
Mo0_1 Mo0_2 2.800247 1_555
Mo0_1 Mo0_4 2.800247 1_555
Mo0_1 Mo0_2 2.800247 1_546
Mo0_2 Pt0_3 2.743605 1_554
Mo0_2 Pt2_4 2.743605 1_455
Mo0_2 Pt2_7 2.743605 1_454
Mo0_2 Pt2_1 2.743605 1_554
Mo0_2 Pt0_6 2.743605 1_455
Mo0_2 Pt0_0 2.743605 1_555
Mo0_2 Mo0_4 2.800246 1_465
Mo0_2 Mo0_4 2.800246 1_555
Mo0_2 Mo0_7 2.800247 1_554
Mo0_2 Mo0_7 2.800247 1_455
Mo0_3 Pt0_2 2.743605 1_555
Mo0_3 Pt2_5 2.743605 1_455
Mo0_3 Pt2_0 2.743605 1_555
Mo0_3 Pt0_1 2.743605 1_555
Mo0_3 Pt2_6 2.743605 1_455
Mo0_3 Pt0_7 2.743605 1_455
Mo0_3 Mo0_5 2.800246 1_465
Mo0_3 Mo0_5 2.800246 1_555
Mo0_3 Mo0_6 2.800247 1_555
Mo0_3 Mo0_6 2.800247 1_456
Mo0_4 Pt2_2 2.743605 1_545
Mo0_4 Pt0_5 2.743605 1_554
Mo0_4 Pt2_7 2.743605 1_544
Mo0_4 Pt2_1 2.743605 1_554
Mo0_4 Pt0_6 2.743605 1_545
Mo0_4 Pt0_0 2.743605 1_555
Mo0_4 Mo0_7 2.800247 1_554
Mo0_4 Mo0_7 2.800247 1_545
Mo0_5 Pt0_4 2.743605 1_555
Mo0_5 Pt2_3 2.743605 1_545
Mo0_5 Pt2_0 2.743605 1_555
Mo0_5 Pt0_1 2.743605 1_555
Mo0_5 Pt2_6 2.743605 1_545
Mo0_5 Pt0_7 2.743605 1_545
Mo0_5 Mo0_6 2.800247 1_555
Mo0_5 Mo0_6 2.800247 1_546
Mo0_6 Pt2_0 2.743605 1_555
Mo0_6 Pt0_7 2.743605 1_554
Mo0_6 Pt0_2 2.743605 1_555
Mo0_6 Pt0_4 2.743605 1_555
Mo0_6 Pt2_3 2.743605 1_554
Mo0_6 Pt2_5 2.743605 1_554
Mo0_7 Pt0_6 2.743605 1_555
Mo0_7 Pt2_1 2.743605 1_555
Mo0_7 Pt0_3 2.743605 1_555
Mo0_7 Pt0_5 2.743605 1_555
Mo0_7 Pt2_2 2.743605 1_555
Mo0_7 Pt2_4 2.743605 1_555
Pt0_0 Pt0_6 2.800246 1_545
Pt0_0 Pt0_6 2.800246 1_455
Pt0_0 Pt0_3 2.800247 1_545
Pt0_0 Pt0_5 2.800247 1_455
Pt0_0 Pt0_5 2.800247 1_554
Pt0_0 Pt0_3 2.800247 1_554
Pt0_0 Pt1_1 2.891340 1_554
Pt0_0 Pt1_4 2.891341 1_455
Pt0_0 Pt1_2 2.891341 1_545
Pt0_1 Pt0_7 2.800246 1_545
Pt0_1 Pt0_7 2.800246 1_455
Pt0_1 Pt0_2 2.800247 1_546
Pt0_1 Pt0_4 2.800247 1_555
Pt0_1 Pt0_4 2.800247 1_456
Pt0_1 Pt0_2 2.800247 1_555
Pt0_1 Pt1_0 2.891340 1_555
Pt0_1 Pt1_3 2.891341 1_545
Pt0_1 Pt1_5 2.891341 1_455
Pt0_2 Pt0_4 2.800246 1_465
Pt0_2 Pt0_4 2.800246 1_555
Pt0_2 Pt0_7 2.800247 1_455
Pt0_2 Pt0_7 2.800247 1_554
Pt0_2 Pt1_3 2.891340 1_554
Pt0_2 Pt1_6 2.891341 1_455
Pt0_2 Pt1_0 2.891341 1_555
Pt0_3 Pt0_5 2.800246 1_465
Pt0_3 Pt0_5 2.800246 1_555
Pt0_3 Pt0_6 2.800247 1_456
Pt0_3 Pt0_6 2.800247 1_555
Pt0_3 Pt1_2 2.891340 1_555
Pt0_3 Pt1_1 2.891341 1_555
Pt0_3 Pt1_7 2.891341 1_455
Pt0_4 Pt0_7 2.800247 1_545
Pt0_4 Pt0_7 2.800247 1_554
Pt0_4 Pt1_5 2.891340 1_554
Pt0_4 Pt1_6 2.891341 1_545
Pt0_4 Pt1_0 2.891341 1_555
Pt0_5 Pt0_6 2.800247 1_546
Pt0_5 Pt0_6 2.800247 1_555
Pt0_5 Pt1_4 2.891340 1_555
Pt0_5 Pt1_1 2.891341 1_555
Pt0_5 Pt1_7 2.891341 1_545
Pt0_6 Pt1_7 2.891340 1_554
Pt0_6 Pt1_4 2.891341 1_555
Pt0_6 Pt1_2 2.891341 1_555
Pt0_7 Pt1_6 2.891340 1_555
Pt0_7 Pt1_3 2.891341 1_555
Pt0_7 Pt1_5 2.891341 1_555
Pt1_0 Pt1_6 2.800246 1_455
Pt1_0 Pt1_6 2.800246 1_545
Pt1_0 Pt1_5 2.800247 1_455
Pt1_0 Pt1_3 2.800247 1_545
Pt1_0 Pt1_5 2.800247 1_554
Pt1_0 Pt1_3 2.800247 1_554
Pt1_0 Pt2_1 2.891340 1_554
Pt1_0 Pt2_4 2.891341 1_455
Pt1_0 Pt2_2 2.891341 1_545
Pt1_1 Pt1_7 2.800246 1_545
Pt1_1 Pt1_7 2.800246 1_455
Pt1_1 Pt1_4 2.800247 1_456
Pt1_1 Pt1_2 2.800247 1_546
Pt1_1 Pt1_2 2.800247 1_555
Pt1_1 Pt1_4 2.800247 1_555
Pt1_1 Pt2_0 2.891340 1_555
Pt1_1 Pt2_5 2.891341 1_455
Pt1_1 Pt2_3 2.891341 1_545
Pt1_2 Pt1_4 2.800246 1_465
Pt1_2 Pt1_4 2.800246 1_555
Pt1_2 Pt1_7 2.800247 1_554
Pt1_2 Pt1_7 2.800247 1_455
Pt1_2 Pt2_3 2.891340 1_554
Pt1_2 Pt2_6 2.891341 1_455
Pt1_2 Pt2_0 2.891341 1_555
Pt1_3 Pt1_5 2.800246 1_465
Pt1_3 Pt1_5 2.800246 1_555
Pt1_3 Pt1_6 2.800247 1_555
Pt1_3 Pt1_6 2.800247 1_456
Pt1_3 Pt2_2 2.891340 1_555
Pt1_3 Pt2_1 2.891341 1_555
Pt1_3 Pt2_7 2.891341 1_455
Pt1_4 Pt1_7 2.800247 1_545
Pt1_4 Pt1_7 2.800247 1_554
Pt1_4 Pt2_5 2.891340 1_554
Pt1_4 Pt2_6 2.891341 1_545
Pt1_4 Pt2_0 2.891341 1_555
Pt1_5 Pt1_6 2.800247 1_555
Pt1_5 Pt1_6 2.800247 1_546
Pt1_5 Pt2_4 2.891340 1_555
Pt1_5 Pt2_1 2.891341 1_555
Pt1_5 Pt2_7 2.891341 1_545
Pt1_6 Pt2_7 2.891340 1_554
Pt1_6 Pt2_4 2.891341 1_555
Pt1_6 Pt2_2 2.891341 1_555
Pt1_7 Pt2_6 2.891340 1_555
Pt1_7 Pt2_3 2.891341 1_555
Pt1_7 Pt2_5 2.891341 1_555
Pt2_0 Pt2_6 2.800246 1_455
Pt2_0 Pt2_6 2.800246 1_545
Pt2_0 Pt2_5 2.800247 1_455
Pt2_0 Pt2_3 2.800247 1_545
Pt2_0 Pt2_5 2.800247 1_554
Pt2_0 Pt2_3 2.800247 1_554
Pt2_1 Pt2_7 2.800246 1_545
Pt2_1 Pt2_7 2.800246 1_455
Pt2_1 Pt2_2 2.800247 1_546
Pt2_1 Pt2_2 2.800247 1_555
Pt2_1 Pt2_4 2.800247 1_456
Pt2_1 Pt2_4 2.800247 1_555
Pt2_2 Pt2_4 2.800246 1_465
Pt2_2 Pt2_4 2.800246 1_555
Pt2_2 Pt2_7 2.800247 1_554
Pt2_2 Pt2_7 2.800247 1_455
Pt2_3 Pt2_5 2.800246 1_465
Pt2_3 Pt2_5 2.800246 1_555
Pt2_3 Pt2_6 2.800247 1_456
Pt2_3 Pt2_6 2.800247 1_555
Pt2_4 Pt2_7 2.800247 1_554
Pt2_4 Pt2_7 2.800247 1_545
Pt2_5 Pt2_6 2.800247 1_555
Pt2_5 Pt2_6 2.800247 1_546
