# generated using pymatgen
data_Mo3N2O11
_symmetry_space_group_name_H-M   'P 1'
_cell_length_a   10.91168800
_cell_length_b   7.92810110
_cell_length_c   11.79466870
_cell_angle_alpha   107.79069473
_cell_angle_beta   90.00000000
_cell_angle_gamma   90.00000000
_symmetry_Int_Tables_number   1
_chemical_formula_structural   Mo3N2O11
_chemical_formula_sum   'Mo6 N4 O22'
_cell_volume   971.55071833
_cell_formula_units_Z   2
loop_
 _symmetry_equiv_pos_site_id
 _symmetry_equiv_pos_as_xyz
  1  'x, y, z'
loop_
 _atom_site_type_symbol
 _atom_site_label
 _atom_site_symmetry_multiplicity
 _atom_site_fract_x
 _atom_site_fract_y
 _atom_site_fract_z
 _atom_site_occupancy
  Mo  Mo0  1  0.49457400  0.99148000  0.21280100  1
  Mo  Mo1  1  0.99457400  0.00852000  0.78719900  1
  Mo  Mo2  1  0.50542600  0.00852000  0.78719900  1
  Mo  Mo3  1  0.00542600  0.99148000  0.21280100  1
  Mo  Mo4  1  0.25000000  0.30713100  0.14859200  1
  Mo  Mo5  1  0.75000000  0.69286900  0.85140800  1
  N  N0  1  0.60443600  0.83699100  0.85853700  1
  N  N1  1  0.10443600  0.16300900  0.14146300  1
  N  N2  1  0.39556400  0.16300900  0.14146300  1
  N  N3  1  0.89556400  0.83699100  0.85853700  1
  O  O0  1  0.51046600  0.16026600  0.10662600  1
  O  O1  1  0.01046600  0.83973400  0.89337400  1
  O  O2  1  0.48953400  0.83973400  0.89337400  1
  O  O3  1  0.98953400  0.16026600  0.10662600  1
  O  O4  1  0.25000000  0.42379500  0.32484900  1
  O  O5  1  0.75000000  0.57620500  0.67515100  1
  O  O6  1  0.25000000  0.43828400  0.05898700  1
  O  O7  1  0.75000000  0.56171600  0.94101300  1
  O  O8  1  0.48831900  0.76416400  0.14612800  1
  O  O9  1  0.98831900  0.23583600  0.85387200  1
  O  O10  1  0.51168100  0.23583600  0.85387200  1
  O  O11  1  0.01168100  0.76416400  0.14612800  1
  O  O12  1  0.53419800  0.07131200  0.36315000  1
  O  O13  1  0.03419800  0.92868800  0.63685000  1
  O  O14  1  0.46580200  0.92868800  0.63685000  1
  O  O15  1  0.96580200  0.07131200  0.36315000  1
  O  O16  1  0.49522400  0.75188600  0.43256700  1
  O  O17  1  0.99522400  0.24811400  0.56743300  1
  O  O18  1  0.50477600  0.24811400  0.56743300  1
  O  O19  1  0.00477600  0.75188600  0.43256700  1
  O  O20  1  0.25000000  0.56663000  0.41040300  1
  O  O21  1  0.75000000  0.43337000  0.58959700  1
loop_
_geom_bond_atom_site_label_1
_geom_bond_atom_site_label_2
_geom_bond_distance
_geom_bond_site_symmetry_2
Mo0 O8 1.733464 1_555
Mo0 O12 1.745371 1_565
Mo0 O0 2.100715 1_565
Mo0 N2 2.103260 1_565
Mo1 O9 1.733464 1_555
Mo1 O13 1.745371 1_645
Mo1 O1 2.100715 1_645
Mo1 N3 2.103260 1_545
Mo2 O10 1.733464 1_555
Mo2 O14 1.745371 1_545
Mo2 O2 2.100715 1_545
Mo2 N0 2.103260 1_545
Mo3 O11 1.733464 1_555
Mo3 O15 1.745371 1_465
Mo3 O3 2.100715 1_465
Mo3 N1 2.103260 1_565
Mo4 O6 1.694006 1_555
Mo4 N2 1.943394 1_555
Mo4 N1 1.943394 1_555
Mo4 O4 2.000570 1_555
Mo5 O7 1.694006 1_555
Mo5 N3 1.943394 1_555
Mo5 N0 1.943394 1_555
Mo5 O5 2.000570 1_555
N0 O2 1.317496 1_555
N1 O3 1.317496 1_455
N2 O0 1.317496 1_555
N3 O1 1.317496 1_655
O20 O4 1.265827 1_555
O21 O5 1.265827 1_555
