# generated using pymatgen
data_CoO2
_symmetry_space_group_name_H-M   'P 1'
_cell_length_a   2.76793734
_cell_length_b   7.04689868
_cell_length_c   4.83779574
_cell_angle_alpha   96.60434145
_cell_angle_beta   90.00738517
_cell_angle_gamma   78.64825526
_symmetry_Int_Tables_number   1
_chemical_formula_structural   CoO2
_chemical_formula_sum   'Co2 O4'
_cell_volume   91.87853330
_cell_formula_units_Z   2
loop_
 _symmetry_equiv_pos_site_id
 _symmetry_equiv_pos_as_xyz
  1  'x, y, z'
loop_
 _atom_site_type_symbol
 _atom_site_label
 _atom_site_symmetry_multiplicity
 _atom_site_fract_x
 _atom_site_fract_y
 _atom_site_fract_z
 _atom_site_occupancy
  Co  Co0  1  0.50000000  -0.00000000  0.50000000  1
  Co  Co1  1  0.00000000  -0.00000000  -0.00000000  1
  O  O0  1  0.56819454  0.86392436  0.81045609  1
  O  O1  1  0.06819119  0.86393490  0.31048832  1
  O  O2  1  0.93180781  0.13606610  0.68951268  1
  O  O3  1  0.43180546  0.13607464  0.18954391  1
loop_
_geom_bond_atom_site_label_1
_geom_bond_atom_site_label_2
_geom_bond_distance
_geom_bond_site_symmetry_2
Co0 O1 1.853950 1_545
Co0 O2 1.853954 1_555
Co0 O1 1.854155 1_645
Co0 O2 1.854161 1_455
Co0 O3 1.863023 1_555
Co0 O0 1.863027 1_545
Co1 O3 1.854050 1_555
Co1 O0 1.854054 1_444
Co1 O3 1.854250 1_455
Co1 O0 1.854252 1_544
Co1 O2 1.863119 1_454
Co1 O1 1.863119 1_545
