# generated using pymatgen
data_Rb2W2O7
_symmetry_space_group_name_H-M   'P 1'
_cell_length_a   3.93828402
_cell_length_b   6.08847495
_cell_length_c   14.20914078
_cell_angle_alpha   90.00008582
_cell_angle_beta   89.99934738
_cell_angle_gamma   90.40830517
_symmetry_Int_Tables_number   1
_chemical_formula_structural   Rb2W2O7
_chemical_formula_sum   'Rb4 W4 O14'
_cell_volume   340.70016670
_cell_formula_units_Z   2
loop_
 _symmetry_equiv_pos_site_id
 _symmetry_equiv_pos_as_xyz
  1  'x, y, z'
loop_
 _atom_site_type_symbol
 _atom_site_label
 _atom_site_symmetry_multiplicity
 _atom_site_fract_x
 _atom_site_fract_y
 _atom_site_fract_z
 _atom_site_occupancy
  Rb  Rb0  1  0.01008935  0.83050625  0.17238735  1
  Rb  Rb1  1  0.98989821  0.66949149  0.67238616  1
  Rb  Rb2  1  0.98991125  0.16949511  0.82761227  1
  Rb  Rb3  1  0.01010369  0.33051036  0.32761284  1
  W  W0  1  0.44791484  0.21614290  0.56200057  1
  W  W1  1  0.55204437  0.28384066  0.06200442  1
  W  W2  1  0.55208125  0.78385516  0.43799758  1
  W  W3  1  0.44795534  0.71616085  0.93800105  1
  O  O0  1  0.49537259  0.80478322  0.81961790  1
  O  O1  1  0.50465100  0.69522182  0.31960728  1
  O  O2  1  0.50463043  0.19522159  0.18038529  1
  O  O3  1  0.49534712  0.30477714  0.68038909  1
  O  O4  1  0.50516380  0.58729751  0.07845531  1
  O  O5  1  0.49481848  0.91270001  0.57845604  1
  O  O6  1  0.49484142  0.41269865  0.92154475  1
  O  O7  1  0.50518048  0.08729718  0.42154227  1
  O  O8  1  0.49999783  0.50000210  0.49999881  1
  O  O9  1  0.50000103  -0.00000551  0.00000044  1
  O  O10  1  0.98989842  0.22347448  0.55254868  1
  O  O11  1  0.98989735  0.72347866  0.94744977  1
  O  O12  1  0.01009639  0.77652901  0.44745013  1
  O  O13  1  0.01010538  0.27652235  0.05255099  1
loop_
_geom_bond_atom_site_label_1
_geom_bond_atom_site_label_2
_geom_bond_distance
_geom_bond_site_symmetry_2
O0 W3 1.775982 1_555
O0 Rb2 2.945393 1_565
O0 Rb1 2.978418 1_555
O0 Rb2 2.994892 1_465
O0 Rb1 2.999124 1_455
O1 W2 1.776106 1_555
O1 Rb3 2.945418 1_555
O1 Rb0 2.978414 1_555
O1 Rb3 2.994876 1_655
O1 Rb0 2.998871 1_655
O2 W1 1.775944 1_555
O2 Rb0 2.945417 1_545
O2 Rb3 2.978374 1_555
O2 Rb0 2.994904 1_645
O2 Rb3 2.999075 1_655
O3 W0 1.776084 1_555
O3 Rb1 2.945440 1_555
O3 Rb2 2.978449 1_555
O3 Rb1 2.994877 1_455
O3 Rb2 2.998893 1_455
O4 W1 1.872745 1_555
O4 W3 2.156808 1_554
O4 Rb0 2.795831 1_555
O4 Rb0 2.808285 1_655
O5 W0 1.872680 1_565
O5 W2 2.156838 1_555
O5 Rb1 2.795855 1_555
O5 Rb1 2.808238 1_455
O6 W3 1.872789 1_555
O6 W1 2.156865 1_556
O6 Rb2 2.795804 1_555
O6 Rb2 2.808285 1_455
O7 W2 1.872674 1_545
O7 W0 2.156839 1_555
O7 Rb3 2.795858 1_555
O7 Rb3 2.808256 1_655
O8 W2 1.949344 1_555
O8 W0 1.949380 1_555
O9 W3 1.949212 1_544
O9 W1 1.949309 1_555
O10 W0 1.809661 1_655
O10 W0 2.138853 1_555
O11 W3 1.809815 1_655
O11 W3 2.138689 1_555
O12 W2 1.809656 1_455
O12 W2 2.138858 1_555
O13 W1 1.809832 1_455
O13 W1 2.138681 1_555
