# generated using pymatgen
data_MgGa4(WO6)2
_symmetry_space_group_name_H-M   'P 1'
_cell_length_a   4.75919000
_cell_length_b   4.75918500
_cell_length_c   9.24332600
_cell_angle_alpha   90.00033591
_cell_angle_beta   90.00050076
_cell_angle_gamma   89.99949436
_symmetry_Int_Tables_number   1
_chemical_formula_structural   MgGa4(WO6)2
_chemical_formula_sum   'Mg1 Ga4 W2 O12'
_cell_volume   209.36009214
_cell_formula_units_Z   1
loop_
 _symmetry_equiv_pos_site_id
 _symmetry_equiv_pos_as_xyz
  1  'x, y, z'
loop_
 _atom_site_type_symbol
 _atom_site_label
 _atom_site_symmetry_multiplicity
 _atom_site_fract_x
 _atom_site_fract_y
 _atom_site_fract_z
 _atom_site_occupancy
  Mg  Mg0  1  0.50000800  0.00001000  0.25001500  1
  Ga  Ga0  1  0.00001200  0.00000800  0.34811000  1
  Ga  Ga1  1  0.00001900  0.00002000  0.66845700  1
  Ga  Ga2  1  0.50003300  0.50001800  0.15188500  1
  Ga  Ga3  1  0.50003000  0.50003000  0.83154600  1
  W  W0  1  0.00003400  0.00003300  0.99207100  1
  W  W1  1  0.50001100  0.50001400  0.50792500  1
  O  O0  1  0.19335500  0.19711100  0.16797300  1
  O  O1  1  0.19266200  0.19589800  0.83238200  1
  O  O2  1  0.20836300  0.19653900  0.49737200  1
  O  O3  1  0.30348800  0.70836400  0.00262600  1
  O  O4  1  0.30291400  0.69332500  0.33202700  1
  O  O5  1  0.30412900  0.69263900  0.66761600  1
  O  O6  1  0.69711600  0.30670700  0.33202600  1
  O  O7  1  0.69590600  0.30739600  0.66761600  1
  O  O8  1  0.69657400  0.29170000  0.00262100  1
  O  O9  1  0.79166100  0.80348700  0.49737200  1
  O  O10  1  0.80669500  0.80295000  0.16797700  1
  O  O11  1  0.80738900  0.80415300  0.83238300  1
loop_
_geom_bond_atom_site_label_1
_geom_bond_atom_site_label_2
_geom_bond_distance
_geom_bond_site_symmetry_2
Mg0 O0 1.893376 1_555
Mg0 O4 1.893387 1_545
Mg0 O10 1.893395 1_545
Mg0 O6 1.893447 1_555
Ga0 O9 1.939471 1_445
Ga0 O2 1.939474 1_555
Ga0 O4 2.056818 1_545
Ga0 O6 2.056852 1_455
Ga0 O10 2.120916 1_445
Ga0 O0 2.121114 1_555
Ga1 O11 2.001335 1_445
Ga1 O1 2.001360 1_555
Ga1 O7 2.057851 1_455
Ga1 O5 2.057857 1_545
Ga1 O2 2.087766 1_555
Ga1 O9 2.087807 1_445
Ga2 O8 1.939433 1_555
Ga2 O3 1.939474 1_555
Ga2 O0 2.056841 1_555
Ga2 O10 2.056870 1_555
Ga2 O6 2.121015 1_555
Ga2 O4 2.121094 1_555
Ga3 O5 2.001373 1_555
Ga3 O7 2.001376 1_555
Ga3 O11 2.057844 1_555
Ga3 O1 2.057905 1_555
Ga3 O8 2.087698 1_556
Ga3 O3 2.087741 1_556
O0 W0 2.090405 1_554
O1 W0 1.971841 1_555
O2 W1 2.005517 1_555
O3 W0 2.005498 1_564
O4 W1 2.090397 1_555
O5 W1 1.971870 1_555
O6 W1 2.090417 1_555
O7 W1 1.971880 1_555
O8 W0 2.005510 1_654
O9 W1 2.005518 1_555
O10 W0 2.090503 1_664
O11 W0 1.971885 1_665
