# generated using pymatgen
data_Ca7MnN6
_symmetry_space_group_name_H-M   'P 1'
_cell_length_a   11.01563572
_cell_length_b   6.26945208
_cell_length_c   12.97068226
_cell_angle_alpha   90.00000000
_cell_angle_beta   90.00000000
_cell_angle_gamma   90.00000000
_symmetry_Int_Tables_number   1
_chemical_formula_structural   Ca7MnN6
_chemical_formula_sum   'Ca28 Mn4 N24'
_cell_volume   895.78126184
_cell_formula_units_Z   4
loop_
 _symmetry_equiv_pos_site_id
 _symmetry_equiv_pos_as_xyz
  1  'x, y, z'
loop_
 _atom_site_type_symbol
 _atom_site_label
 _atom_site_symmetry_multiplicity
 _atom_site_fract_x
 _atom_site_fract_y
 _atom_site_fract_z
 _atom_site_occupancy
  Ca  Ca0  1  0.03661798  0.73177690  0.97760186  1
  Ca  Ca1  1  0.46338202  0.76822310  0.47760186  1
  Ca  Ca2  1  0.53661798  0.76822310  0.02239814  1
  Ca  Ca3  1  0.96338202  0.73177690  0.52239814  1
  Ca  Ca4  1  0.96338202  0.26822310  0.02239814  1
  Ca  Ca5  1  0.53661798  0.23177690  0.52239814  1
  Ca  Ca6  1  0.46338202  0.23177690  0.97760186  1
  Ca  Ca7  1  0.03661798  0.26822310  0.47760186  1
  Ca  Ca8  1  0.22552647  0.85874388  0.62450318  1
  Ca  Ca9  1  0.27447353  0.64125612  0.12450318  1
  Ca  Ca10  1  0.72552647  0.64125612  0.37549682  1
  Ca  Ca11  1  0.77447353  0.85874388  0.87549682  1
  Ca  Ca12  1  0.77447353  0.14125612  0.37549682  1
  Ca  Ca13  1  0.72552647  0.35874388  0.87549682  1
  Ca  Ca14  1  0.27447353  0.35874388  0.62450318  1
  Ca  Ca15  1  0.22552647  0.14125612  0.12450318  1
  Ca  Ca16  1  0.29327200  0.60985575  0.87795518  1
  Ca  Ca17  1  0.20672800  0.89014425  0.37795518  1
  Ca  Ca18  1  0.79327200  0.89014425  0.12204482  1
  Ca  Ca19  1  0.70672800  0.60985575  0.62204482  1
  Ca  Ca20  1  0.70672800  0.39014425  0.12204482  1
  Ca  Ca21  1  0.79327200  0.10985575  0.62204482  1
  Ca  Ca22  1  0.20672800  0.10985575  0.87795518  1
  Ca  Ca23  1  0.29327200  0.39014425  0.37795518  1
  Ca  Ca24  1  0.00000000  0.43705036  0.75000000  1
  Ca  Ca25  1  0.50000000  0.06294964  0.25000000  1
  Ca  Ca26  1  0.00000000  0.56294964  0.25000000  1
  Ca  Ca27  1  0.50000000  0.93705036  0.75000000  1
  Mn  Mn0  1  0.00000000  0.93099802  0.75000000  1
  Mn  Mn1  1  0.50000000  0.56900198  0.25000000  1
  Mn  Mn2  1  0.00000000  0.06900198  0.25000000  1
  Mn  Mn3  1  0.50000000  0.43099802  0.75000000  1
  N  N0  1  0.12604861  0.76230959  0.79039441  1
  N  N1  1  0.37395139  0.73769041  0.29039441  1
  N  N2  1  0.62604861  0.73769041  0.20960559  1
  N  N3  1  0.87395139  0.76230959  0.70960559  1
  N  N4  1  0.87395139  0.23769041  0.20960559  1
  N  N5  1  0.62604861  0.26230959  0.70960559  1
  N  N6  1  0.37395139  0.26230959  0.79039441  1
  N  N7  1  0.12604861  0.23769041  0.29039441  1
  N  N8  1  0.16618445  0.59054234  0.50251324  1
  N  N9  1  0.33381555  0.90945766  0.00251324  1
  N  N10  1  0.66618445  0.90945766  0.49748676  1
  N  N11  1  0.83381555  0.59054234  0.99748676  1
  N  N12  1  0.83381555  0.40945766  0.49748676  1
  N  N13  1  0.66618445  0.09054234  0.99748676  1
  N  N14  1  0.33381555  0.09054234  0.50251324  1
  N  N15  1  0.16618445  0.40945766  0.00251324  1
  N  N16  1  0.45442963  0.59779556  0.64308732  1
  N  N17  1  0.04557037  0.90220444  0.14308732  1
  N  N18  1  0.95442963  0.90220444  0.35691268  1
  N  N19  1  0.54557037  0.59779556  0.85691268  1
  N  N20  1  0.54557037  0.40220444  0.35691268  1
  N  N21  1  0.95442963  0.09779556  0.85691268  1
  N  N22  1  0.04557037  0.09779556  0.64308732  1
  N  N23  1  0.45442963  0.40220444  0.14308732  1
loop_
_geom_bond_atom_site_label_1
_geom_bond_atom_site_label_2
_geom_bond_distance
_geom_bond_site_symmetry_2
Ca0 N17 2.399725 1_556
Ca0 N11 2.416881 1_455
Ca0 N15 2.494987 1_556
Ca0 N0 2.627419 1_555
Ca0 N21 2.921648 1_465
Ca1 N16 2.399725 1_555
Ca1 N10 2.416881 1_555
Ca1 N14 2.494987 1_565
Ca1 N1 2.627419 1_555
Ca1 N20 2.921648 1_555
Ca2 N19 2.399725 1_554
Ca2 N9 2.416881 1_555
Ca2 N13 2.494987 1_564
Ca2 N2 2.627419 1_555
Ca2 N23 2.921648 1_555
Ca3 N18 2.399725 1_555
Ca3 N8 2.416881 1_655
Ca3 N12 2.494987 1_555
Ca3 N3 2.627419 1_555
Ca3 N22 2.921648 1_665
Ca4 N21 2.399725 1_554
Ca4 N15 2.416881 1_655
Ca4 N11 2.494987 1_554
Ca4 N4 2.627419 1_555
Ca4 N17 2.921648 1_645
Ca5 N20 2.399725 1_555
Ca5 N14 2.416881 1_555
Ca5 N10 2.494987 1_545
Ca5 N5 2.627419 1_555
Ca5 N16 2.921648 1_555
Ca6 N23 2.399725 1_556
Ca6 N13 2.416881 1_555
Ca6 N9 2.494987 1_546
Ca6 N6 2.627419 1_555
Ca6 N19 2.921648 1_555
Ca7 N22 2.399725 1_555
Ca7 N12 2.416881 1_455
Ca7 N8 2.494987 1_555
Ca7 N7 2.627419 1_555
Ca7 N18 2.921648 1_445
Ca8 N8 2.399651 1_555
Ca8 N14 2.457342 1_565
Ca8 N0 2.489225 1_555
Ca8 N22 2.496780 1_565
Ca8 N16 3.015401 1_555
Ca9 N9 2.399651 1_555
Ca9 N15 2.457342 1_555
Ca9 N1 2.489225 1_555
Ca9 N23 2.496780 1_555
Ca9 N17 3.015401 1_555
Ca10 N10 2.399651 1_555
Ca10 N12 2.457342 1_555
Ca10 N2 2.489225 1_555
Ca10 N20 2.496780 1_555
Ca10 N18 3.015401 1_555
Ca11 N11 2.399651 1_555
Ca11 N13 2.457342 1_565
Ca11 N3 2.489225 1_555
Ca11 N21 2.496780 1_565
Ca11 N19 3.015401 1_555
Ca12 N12 2.399651 1_555
Ca12 N10 2.457342 1_545
Ca12 N4 2.489225 1_555
Ca12 N18 2.496780 1_545
Ca12 N20 3.015401 1_555
Ca13 N13 2.399651 1_555
Ca13 N11 2.457342 1_555
Ca13 N5 2.489225 1_555
Ca13 N19 2.496780 1_555
Ca13 N21 3.015401 1_555
Ca14 N14 2.399651 1_555
Ca14 N8 2.457342 1_555
Ca14 N6 2.489225 1_555
Ca14 N16 2.496780 1_555
Ca14 N22 3.015401 1_555
Ca15 N15 2.399651 1_555
Ca15 N9 2.457342 1_545
Ca15 N7 2.489225 1_555
Ca15 N17 2.496780 1_545
Ca15 N23 3.015401 1_555
Ca16 N0 2.365725 1_555
Ca16 N15 2.479625 1_556
Ca16 N9 2.517498 1_556
Ca16 N6 2.612934 1_555
Ca16 N19 2.793620 1_555
Ca17 N1 2.365725 1_555
Ca17 N14 2.479625 1_565
Ca17 N8 2.517498 1_555
Ca17 N7 2.612934 1_565
Ca17 N18 2.793620 1_455
Ca18 N2 2.365725 1_555
Ca18 N13 2.479625 1_564
Ca18 N11 2.517498 1_554
Ca18 N4 2.612934 1_565
Ca18 N17 2.793620 1_655
Ca19 N3 2.365725 1_555
Ca19 N12 2.479625 1_555
Ca19 N10 2.517498 1_555
Ca19 N5 2.612934 1_555
Ca19 N16 2.793620 1_555
Ca20 N4 2.365725 1_555
Ca20 N11 2.479625 1_554
Ca20 N13 2.517498 1_554
Ca20 N2 2.612934 1_555
Ca20 N23 2.793620 1_555
Ca21 N5 2.365725 1_555
Ca21 N10 2.479625 1_545
Ca21 N12 2.517498 1_555
Ca21 N3 2.612934 1_545
Ca21 N22 2.793620 1_655
Ca22 N6 2.365725 1_555
Ca22 N9 2.479625 1_546
Ca22 N15 2.517498 1_556
Ca22 N0 2.612934 1_545
Ca22 N21 2.793620 1_455
Ca23 N7 2.365725 1_555
Ca23 N8 2.479625 1_555
Ca23 N14 2.517498 1_555
Ca23 N1 2.612934 1_555
Ca23 N20 2.793620 1_555
Ca24 N0 2.522060 1_555
Ca24 N3 2.522060 1_455
Ca24 N21 2.588222 1_455
Ca24 N22 2.588222 1_555
Ca25 N2 2.522060 1_545
Ca25 N1 2.522060 1_545
Ca25 N20 2.588222 1_555
Ca25 N23 2.588222 1_555
Ca26 N7 2.522060 1_555
Ca26 N4 2.522060 1_455
Ca26 N17 2.588222 1_555
Ca26 N18 2.588222 1_455
Ca27 N5 2.522060 1_565
Ca27 N6 2.522060 1_565
Ca27 N19 2.588222 1_555
Ca27 N16 2.588222 1_555
Mn0 N21 1.807916 1_465
Mn0 N22 1.807916 1_565
Mn0 N3 1.822347 1_455
Mn0 N0 1.822347 1_555
Mn1 N20 1.807916 1_555
Mn1 N23 1.807916 1_555
Mn1 N2 1.822347 1_555
Mn1 N1 1.822347 1_555
Mn2 N18 1.807916 1_445
Mn2 N17 1.807916 1_545
Mn2 N7 1.822347 1_555
Mn2 N4 1.822347 1_455
Mn3 N19 1.807916 1_555
Mn3 N16 1.807916 1_555
Mn3 N5 1.822347 1_555
Mn3 N6 1.822347 1_555
