# generated using pymatgen
data_Tm2TeO2
_symmetry_space_group_name_H-M   'P 1'
_cell_length_a   3.83268268
_cell_length_b   3.83268268
_cell_length_c   14.14806523
_cell_angle_alpha   90.00000000
_cell_angle_beta   90.00000000
_cell_angle_gamma   119.99999591
_symmetry_Int_Tables_number   1
_chemical_formula_structural   Tm2TeO2
_chemical_formula_sum   'Tm4 Te2 O4'
_cell_volume   179.98380629
_cell_formula_units_Z   2
loop_
 _symmetry_equiv_pos_site_id
 _symmetry_equiv_pos_as_xyz
  1  'x, y, z'
loop_
 _atom_site_type_symbol
 _atom_site_label
 _atom_site_symmetry_multiplicity
 _atom_site_fract_x
 _atom_site_fract_y
 _atom_site_fract_z
 _atom_site_occupancy
  Tm  Tm0  1  0.33333300  0.66666700  0.90327644  1
  Tm  Tm1  1  0.33333300  0.66666700  0.59672356  1
  Tm  Tm2  1  0.66666700  0.33333300  0.40327644  1
  Tm  Tm3  1  0.66666700  0.33333300  0.09672356  1
  Te  Te0  1  0.00000000  -0.00000000  0.25000000  1
  Te  Te1  1  0.00000000  -0.00000000  0.75000000  1
  O  O0  1  0.33333300  0.66666700  0.05968745  1
  O  O1  1  0.33333300  0.66666700  0.44031255  1
  O  O2  1  0.66666700  0.33333300  0.94031255  1
  O  O3  1  0.66666700  0.33333300  0.55968745  1
loop_
_geom_bond_atom_site_label_1
_geom_bond_atom_site_label_2
_geom_bond_distance
_geom_bond_site_symmetry_2
Te0 Tm3 3.098250 1_455
Te0 Tm2 3.098250 1_455
Te0 Tm3 3.098252 1_555
Te0 Tm2 3.098252 1_445
Te0 Tm2 3.098252 1_555
Te0 Tm3 3.098252 1_445
Te1 Tm0 3.098250 1_545
Te1 Tm1 3.098250 1_545
Te1 Tm0 3.098252 1_445
Te1 Tm1 3.098252 1_445
Te1 Tm1 3.098252 1_555
Te1 Tm0 3.098252 1_555
O0 Tm0 2.212913 1_554
O0 Tm3 2.273992 1_455
O0 Tm3 2.273992 1_565
O0 Tm3 2.273999 1_555
O1 Tm1 2.212913 1_555
O1 Tm2 2.273992 1_455
O1 Tm2 2.273992 1_565
O1 Tm2 2.273999 1_555
O2 Tm3 2.212913 1_556
O2 Tm0 2.273992 1_545
O2 Tm0 2.273992 1_655
O2 Tm0 2.273999 1_555
O3 Tm2 2.212913 1_555
O3 Tm1 2.273992 1_545
O3 Tm1 2.273992 1_655
O3 Tm1 2.273999 1_555
