# generated using pymatgen
data_Bi3Sb(WO6)2
_symmetry_space_group_name_H-M   'P 1'
_cell_length_a   5.47610600
_cell_length_b   5.51454243
_cell_length_c   8.97803657
_cell_angle_alpha   107.85748748
_cell_angle_beta   90.11010477
_cell_angle_gamma   90.20826686
_symmetry_Int_Tables_number   1
_chemical_formula_structural   Bi3Sb(WO6)2
_chemical_formula_sum   'Bi3 Sb1 W2 O12'
_cell_volume   258.05569503
_cell_formula_units_Z   1
loop_
 _symmetry_equiv_pos_site_id
 _symmetry_equiv_pos_as_xyz
  1  'x, y, z'
loop_
 _atom_site_type_symbol
 _atom_site_label
 _atom_site_symmetry_multiplicity
 _atom_site_fract_x
 _atom_site_fract_y
 _atom_site_fract_z
 _atom_site_occupancy
  Bi  Bi0  1  0.03105300  0.64546700  0.34676400  1
  Bi  Bi1  1  0.97083700  0.28906100  0.65615000  1
  Bi  Bi2  1  0.46964900  0.14204800  0.34545300  1
  Sb  Sb0  1  0.53561000  0.78167500  0.63844400  1
  W  W0  1  0.50054300  0.52763700  0.99877500  1
  W  W1  1  0.99993000  0.02724300  0.99952800  1
  O  O0  1  0.42086600  0.68265100  0.21725400  1
  O  O1  1  0.57857900  0.46768100  0.78420200  1
  O  O2  1  0.08066300  0.18280600  0.21806500  1
  O  O3  1  0.92080900  0.96630900  0.78418500  1
  O  O4  1  0.24870300  0.28422000  0.96223300  1
  O  O5  1  0.74695800  0.32166000  0.03984500  1
  O  O6  1  0.24420800  0.78149400  0.96373900  1
  O  O7  1  0.74992400  0.82274900  0.04060800  1
  O  O8  1  0.22999500  0.00458700  0.49749500  1
  O  O9  1  0.76637600  0.50493000  0.50513400  1
  O  O10  1  0.27739600  0.51098700  0.49975700  1
  O  O11  1  0.72790200  0.99239600  0.50236900  1
loop_
_geom_bond_atom_site_label_1
_geom_bond_atom_site_label_2
_geom_bond_distance
_geom_bond_site_symmetry_2
Bi0 O10 2.209381 1_555
Bi0 O8 2.296761 1_565
Bi0 O9 2.323491 1_455
Bi0 O0 2.470500 1_555
Bi0 O2 2.473174 1_555
Bi0 O11 2.600106 1_455
Bi1 O11 2.223567 1_545
Bi1 O8 2.271008 1_655
Bi1 O9 2.345784 1_555
Bi1 O3 2.411770 1_545
Bi1 O1 2.497281 1_555
Bi1 O10 2.708402 1_655
Bi2 O8 2.189641 1_555
Bi2 O11 2.319409 1_545
Bi2 O10 2.336547 1_555
Bi2 O0 2.453498 1_545
Bi2 O2 2.459222 1_555
Bi2 O9 2.628316 1_555
O0 W0 1.935532 1_554
O1 W0 1.901755 1_555
O1 Sb0 2.481438 1_555
O2 W1 1.934576 1_454
O3 W1 1.906777 1_565
O3 Sb0 2.520913 1_555
O4 W0 1.877799 1_555
O4 W1 2.062748 1_455
O5 W0 1.874332 1_554
O5 W1 2.084209 1_554
O6 W1 1.864668 1_465
O6 W0 2.076477 1_555
O7 W1 1.878253 1_564
O7 W0 2.064337 1_554
O8 Sb0 2.621858 1_545
O9 Sb0 2.063508 1_555
O10 Sb0 2.148483 1_555
O11 Sb0 2.195080 1_555
