# generated using pymatgen
data_K12Sn4Au21
_symmetry_space_group_name_H-M   'P 1'
_cell_length_a   8.55189900
_cell_length_b   12.84583600
_cell_length_c   18.66907100
_cell_angle_alpha   90.00000000
_cell_angle_beta   90.00000000
_cell_angle_gamma   90.00000000
_symmetry_Int_Tables_number   1
_chemical_formula_structural   K12Sn4Au21
_chemical_formula_sum   'K24 Sn8 Au42'
_cell_volume   2050.91491594
_cell_formula_units_Z   2
loop_
 _symmetry_equiv_pos_site_id
 _symmetry_equiv_pos_as_xyz
  1  'x, y, z'
loop_
 _atom_site_type_symbol
 _atom_site_label
 _atom_site_symmetry_multiplicity
 _atom_site_fract_x
 _atom_site_fract_y
 _atom_site_fract_z
 _atom_site_occupancy
  K  K0  1  0.60440100  0.25821900  0.33078700  1
  K  K1  1  0.60440100  0.74178100  0.33078700  1
  K  K2  1  0.60440100  0.25821900  0.66921300  1
  K  K3  1  0.60440100  0.74178100  0.66921300  1
  K  K4  1  0.39559900  0.24178100  0.16921300  1
  K  K5  1  0.39559900  0.75821900  0.16921300  1
  K  K6  1  0.39559900  0.24178100  0.83078700  1
  K  K7  1  0.39559900  0.75821900  0.83078700  1
  K  K8  1  0.82578600  0.50000000  0.32362700  1
  K  K9  1  0.82578600  0.50000000  0.67637300  1
  K  K10  1  0.17421400  0.00000000  0.17637300  1
  K  K11  1  0.17421400  0.00000000  0.82362700  1
  K  K12  1  0.12124600  0.50000000  0.83787500  1
  K  K13  1  0.12124600  0.50000000  0.16212500  1
  K  K14  1  0.87875400  0.00000000  0.66212500  1
  K  K15  1  0.87875400  0.00000000  0.33787500  1
  K  K16  1  0.32832100  0.25222000  0.50000000  1
  K  K17  1  0.32832100  0.74778000  0.50000000  1
  K  K18  1  0.67167900  0.24778000  0.00000000  1
  K  K19  1  0.67167900  0.75222000  0.00000000  1
  K  K20  1  0.88816600  0.50000000  0.00000000  1
  K  K21  1  0.11183400  0.00000000  0.50000000  1
  K  K22  1  0.04046700  0.50000000  0.50000000  1
  K  K23  1  0.95953300  0.00000000  0.00000000  1
  Sn  Sn0  1  0.56793600  0.50000000  0.86615400  1
  Sn  Sn1  1  0.56793600  0.50000000  0.13384600  1
  Sn  Sn2  1  0.43206400  0.00000000  0.63384600  1
  Sn  Sn3  1  0.43206400  0.00000000  0.36615400  1
  Sn  Sn4  1  0.75847700  0.19295300  0.50000000  1
  Sn  Sn5  1  0.75847700  0.80704700  0.50000000  1
  Sn  Sn6  1  0.24152300  0.30704700  0.00000000  1
  Sn  Sn7  1  0.24152300  0.69295300  0.00000000  1
  Au  Au0  1  0.42043500  0.50000000  0.41717600  1
  Au  Au1  1  0.42043500  0.50000000  0.58282400  1
  Au  Au2  1  0.57956500  0.00000000  0.08282400  1
  Au  Au3  1  0.57956500  0.00000000  0.91717600  1
  Au  Au4  1  0.19273800  0.38529600  0.33416900  1
  Au  Au5  1  0.19273800  0.61470400  0.33416900  1
  Au  Au6  1  0.19273800  0.38529600  0.66583100  1
  Au  Au7  1  0.19273800  0.61470400  0.66583100  1
  Au  Au8  1  0.80726200  0.11470400  0.16583100  1
  Au  Au9  1  0.80726200  0.88529600  0.16583100  1
  Au  Au10  1  0.80726200  0.11470400  0.83416900  1
  Au  Au11  1  0.80726200  0.88529600  0.83416900  1
  Au  Au12  1  0.43239100  0.50000000  0.26453800  1
  Au  Au13  1  0.43239100  0.50000000  0.73546200  1
  Au  Au14  1  0.56760900  0.00000000  0.23546200  1
  Au  Au15  1  0.56760900  0.00000000  0.76453800  1
  Au  Au16  1  0.64888900  0.39103200  0.50000000  1
  Au  Au17  1  0.64888900  0.60896800  0.50000000  1
  Au  Au18  1  0.35111100  0.10896800  0.00000000  1
  Au  Au19  1  0.35111100  0.89103200  0.00000000  1
  Au  Au20  1  0.76476500  0.34153300  0.83586800  1
  Au  Au21  1  0.76476500  0.65846700  0.83586800  1
  Au  Au22  1  0.76476500  0.34153300  0.16413200  1
  Au  Au23  1  0.76476500  0.65846700  0.16413200  1
  Au  Au24  1  0.23523500  0.15846700  0.66413200  1
  Au  Au25  1  0.23523500  0.84153300  0.66413200  1
  Au  Au26  1  0.23523500  0.15846700  0.33586800  1
  Au  Au27  1  0.23523500  0.84153300  0.33586800  1
  Au  Au28  1  0.00000000  0.25000000  0.25000000  1
  Au  Au29  1  0.00000000  0.75000000  0.25000000  1
  Au  Au30  1  0.00000000  0.25000000  0.75000000  1
  Au  Au31  1  0.00000000  0.75000000  0.75000000  1
  Au  Au32  1  0.97150000  0.25143900  0.40134700  1
  Au  Au33  1  0.97150000  0.74856100  0.40134700  1
  Au  Au34  1  0.97150000  0.25143900  0.59865300  1
  Au  Au35  1  0.97150000  0.74856100  0.59865300  1
  Au  Au36  1  0.02850000  0.24856100  0.09865300  1
  Au  Au37  1  0.02850000  0.75143900  0.09865300  1
  Au  Au38  1  0.02850000  0.24856100  0.90134700  1
  Au  Au39  1  0.02850000  0.75143900  0.90134700  1
  Au  Au40  1  0.39809400  0.50000000  0.00000000  1
  Au  Au41  1  0.60190600  0.00000000  0.50000000  1
loop_
_geom_bond_atom_site_label_1
_geom_bond_atom_site_label_2
_geom_bond_distance
_geom_bond_site_symmetry_2
K0 K4 3.511700 1_555
K0 Sn4 3.524015 1_555
K0 K8 3.639889 1_555
K0 Sn3 3.689284 1_555
K0 K16 3.944603 1_555
K0 K15 4.065107 1_555
K1 K5 3.511700 1_555
K1 Sn5 3.524015 1_555
K1 K8 3.639889 1_555
K1 Sn3 3.689284 1_565
K1 K17 3.944603 1_555
K1 K15 4.065107 1_565
K2 K6 3.511700 1_555
K2 Sn4 3.524015 1_555
K2 K9 3.639889 1_555
K2 Sn2 3.689284 1_555
K3 K7 3.511700 1_555
K3 Sn5 3.524015 1_555
K3 K9 3.639889 1_555
K3 Sn2 3.689284 1_565
K4 Sn6 3.524015 1_555
K4 Sn1 3.689284 1_555
K5 Sn7 3.524015 1_555
K5 Sn1 3.689284 1_555
K6 Sn6 3.524015 1_556
K6 Sn0 3.689284 1_555
K7 Sn7 3.524015 1_556
K7 Sn0 3.689284 1_555
K10 K4 3.639889 1_555
K10 K5 3.639889 1_545
K11 K6 3.639889 1_555
K11 K7 3.639889 1_545
K12 K20 3.624114 1_456
K12 K7 4.065107 1_555
K12 K6 4.065107 1_555
K13 K20 3.624114 1_455
K13 K5 4.065107 1_555
K13 K4 4.065107 1_555
K14 K21 3.624114 1_655
K14 K2 4.065107 1_555
K14 K3 4.065107 1_545
K15 K21 3.624114 1_655
K16 K21 3.731627 1_555
K16 Sn4 3.756608 1_555
K16 K2 3.944603 1_555
K17 K21 3.731627 1_565
K17 Sn5 3.756608 1_555
K17 K3 3.944603 1_555
K18 K20 3.731627 1_555
K18 Sn6 3.756608 1_555
K18 K4 3.944603 1_555
K18 K6 3.944603 1_554
K19 K20 3.731627 1_555
K19 Sn7 3.756608 1_555
K19 K5 3.944603 1_555
K19 K7 3.944603 1_554
K20 Sn1 3.707249 1_555
K20 Sn0 3.707249 1_554
K20 Sn7 3.908374 1_655
K20 Sn6 3.908374 1_655
K21 Sn2 3.707249 1_555
K21 Sn3 3.707249 1_555
K21 Sn4 3.908374 1_455
K21 Sn5 3.908374 1_445
Au0 Au12 2.851443 1_555
Au0 Au17 2.857846 1_555
Au0 Au16 2.857846 1_555
Au0 Au5 2.892113 1_555
Au0 Au4 2.892113 1_555
Au0 Au1 3.092494 1_555
Au0 K22 3.598582 1_555
Au0 K16 3.625265 1_555
Au0 K17 3.625265 1_555
Au0 K1 3.837025 1_555
Au0 K0 3.837025 1_555
Au0 K8 3.881615 1_555
Au1 Au13 2.851443 1_555
Au1 Au17 2.857846 1_555
Au1 Au16 2.857846 1_555
Au1 Au7 2.892113 1_555
Au1 Au6 2.892113 1_555
Au1 K22 3.598582 1_555
Au1 K16 3.625265 1_555
Au1 K17 3.625265 1_555
Au1 K3 3.837025 1_555
Au1 K2 3.837025 1_555
Au1 K9 3.881615 1_555
Au2 Au8 2.892113 1_555
Au2 Au9 2.892113 1_545
Au2 Au3 3.092494 1_554
Au2 K23 3.598582 1_555
Au2 K19 3.625265 1_545
Au2 K18 3.625265 1_555
Au2 K4 3.837025 1_555
Au2 K5 3.837025 1_545
Au2 K10 3.881615 1_555
Au3 K23 3.598582 1_556
Au3 K19 3.625265 1_546
Au3 K18 3.625265 1_556
Au3 K6 3.837025 1_555
Au3 K7 3.837025 1_545
Au3 K11 3.881615 1_555
Au4 Au5 2.946938 1_555
Au4 K8 3.472426 1_455
Au4 K13 3.586255 1_555
Au4 K22 3.667631 1_555
Au4 K16 3.721744 1_555
Au4 K0 3.881066 1_555
Au4 K4 3.986506 1_555
Au5 K8 3.472426 1_455
Au5 K13 3.586255 1_555
Au5 K22 3.667631 1_555
Au5 K17 3.721744 1_555
Au5 K1 3.881066 1_555
Au5 K5 3.986506 1_555
Au6 Au7 2.946938 1_555
Au6 K9 3.472426 1_455
Au6 K12 3.586255 1_555
Au6 K22 3.667631 1_555
Au6 K16 3.721744 1_555
Au6 K2 3.881066 1_555
Au6 K6 3.986506 1_555
Au7 K9 3.472426 1_455
Au7 K12 3.586255 1_555
Au7 K22 3.667631 1_555
Au7 K17 3.721744 1_555
Au7 K3 3.881066 1_555
Au7 K7 3.986506 1_555
Au8 Au9 2.946938 1_545
Au8 K10 3.472426 1_655
Au8 K15 3.586255 1_555
Au8 K23 3.667631 1_555
Au8 K18 3.721744 1_555
Au8 K4 3.881066 1_555
Au8 K0 3.986506 1_555
Au9 K10 3.472426 1_665
Au9 K15 3.586255 1_565
Au9 K23 3.667631 1_565
Au9 K19 3.721744 1_555
Au9 K5 3.881066 1_555
Au9 K1 3.986506 1_555
Au10 Au15 2.839256 1_555
Au10 Au38 2.847679 1_655
Au10 Au30 2.864714 1_655
Au10 Au3 2.892113 1_555
Au10 Au20 2.936557 1_555
Au10 Au11 2.946938 1_545
Au10 K11 3.472426 1_655
Au10 K14 3.586255 1_555
Au10 K23 3.667631 1_556
Au10 K18 3.721744 1_556
Au10 K6 3.881066 1_555
Au10 K2 3.986506 1_555
Au11 Au15 2.839256 1_565
Au11 Au39 2.847679 1_655
Au11 Au31 2.864714 1_655
Au11 Au3 2.892113 1_565
Au11 Au21 2.936557 1_555
Au11 K11 3.472426 1_665
Au11 K14 3.586255 1_565
Au11 K23 3.667631 1_566
Au11 K19 3.721744 1_556
Au11 K7 3.881066 1_555
Au11 K3 3.986506 1_555
Au12 Sn1 2.701254 1_555
Au12 Au5 2.839256 1_555
Au12 Au4 2.839256 1_555
Au12 K13 3.276562 1_555
Au12 K8 3.540516 1_555
Au12 K1 3.652404 1_555
Au12 K0 3.652404 1_555
Au12 K5 3.777410 1_555
Au12 K4 3.777410 1_555
Au13 Sn0 2.701254 1_555
Au13 Au7 2.839256 1_555
Au13 Au6 2.839256 1_555
Au13 K12 3.276562 1_555
Au13 K9 3.540516 1_555
Au13 K3 3.652404 1_555
Au13 K2 3.652404 1_555
Au13 K6 3.777410 1_555
Au13 K7 3.777410 1_555
Au14 Sn3 2.701254 1_555
Au14 Au8 2.839256 1_555
Au14 Au9 2.839256 1_545
Au14 Au2 2.851443 1_555
Au14 K15 3.276562 1_555
Au14 K10 3.540516 1_555
Au14 K4 3.652404 1_555
Au14 K5 3.652404 1_545
Au14 K0 3.777410 1_555
Au14 K1 3.777410 1_545
Au15 Sn2 2.701254 1_555
Au15 Au3 2.851443 1_555
Au15 K14 3.276562 1_555
Au15 K11 3.540516 1_555
Au15 K6 3.652404 1_555
Au15 K7 3.652404 1_545
Au15 K2 3.777410 1_555
Au15 K3 3.777410 1_545
Au16 Sn4 2.711595 1_555
Au16 Au17 2.799570 1_555
Au16 K16 3.270363 1_555
Au16 K2 3.610415 1_555
Au16 K0 3.610415 1_555
Au16 K22 3.629522 1_655
Au16 K8 3.884583 1_555
Au16 K9 3.884583 1_555
Au17 Sn5 2.711595 1_555
Au17 K17 3.270363 1_555
Au17 K3 3.610415 1_555
Au17 K1 3.610415 1_555
Au17 K22 3.629522 1_655
Au17 K9 3.884583 1_555
Au17 K8 3.884583 1_555
Au18 Sn6 2.711595 1_555
Au18 Au19 2.799570 1_545
Au18 Au3 2.857846 1_554
Au18 Au2 2.857846 1_555
Au18 K18 3.270363 1_555
Au18 K4 3.610415 1_555
Au18 K6 3.610415 1_554
Au18 K23 3.629522 1_455
Au18 K10 3.884583 1_555
Au18 K11 3.884583 1_554
Au19 Sn7 2.711595 1_555
Au19 Au2 2.857846 1_565
Au19 Au3 2.857846 1_564
Au19 K19 3.270363 1_555
Au19 K5 3.610415 1_555
Au19 K7 3.610415 1_554
Au19 K23 3.629522 1_465
Au19 K10 3.884583 1_565
Au19 K11 3.884583 1_564
Au20 Sn0 2.701277 1_555
Au20 Au30 2.828314 1_655
Au20 Au38 2.829786 1_655
Au20 K18 3.387242 1_556
Au20 K6 3.408529 1_555
Au20 K2 3.564596 1_555
Au20 K9 3.644503 1_555
Au20 K12 3.665943 1_655
Au20 K20 3.827113 1_556
Au21 Sn0 2.701277 1_555
Au21 Au31 2.828314 1_655
Au21 Au39 2.829786 1_655
Au21 K19 3.387242 1_556
Au21 K7 3.408529 1_555
Au21 K3 3.564596 1_555
Au21 K9 3.644503 1_555
Au21 K12 3.665943 1_655
Au21 K20 3.827113 1_556
Au22 Sn1 2.701277 1_555
Au22 Au28 2.828314 1_655
Au22 Au36 2.829786 1_655
Au22 Au8 2.936557 1_555
Au22 K18 3.387242 1_555
Au22 K4 3.408529 1_555
Au22 K0 3.564596 1_555
Au22 K8 3.644503 1_555
Au22 K13 3.665943 1_655
Au22 K20 3.827113 1_555
Au23 Sn1 2.701277 1_555
Au23 Au29 2.828314 1_655
Au23 Au37 2.829786 1_655
Au23 Au9 2.936557 1_555
Au23 K19 3.387242 1_555
Au23 K5 3.408529 1_555
Au23 K1 3.564596 1_555
Au23 K8 3.644503 1_555
Au23 K13 3.665943 1_655
Au23 K20 3.827113 1_555
Au24 Sn2 2.701277 1_555
Au24 Au30 2.828314 1_555
Au24 Au34 2.829786 1_455
Au24 Au6 2.936557 1_555
Au24 K16 3.387242 1_555
Au24 K2 3.408529 1_555
Au24 K6 3.564596 1_555
Au24 K11 3.644503 1_555
Au24 K14 3.665943 1_455
Au24 K21 3.827113 1_555
Au25 Sn2 2.701277 1_565
Au25 Au31 2.828314 1_555
Au25 Au35 2.829786 1_455
Au25 Au7 2.936557 1_555
Au25 K17 3.387242 1_555
Au25 K3 3.408529 1_555
Au25 K7 3.564596 1_555
Au25 K11 3.644503 1_565
Au25 K14 3.665943 1_465
Au25 K21 3.827113 1_565
Au26 Sn3 2.701277 1_555
Au26 Au28 2.828314 1_555
Au26 Au32 2.829786 1_455
Au26 Au4 2.936557 1_555
Au26 K16 3.387242 1_555
Au26 K0 3.408529 1_555
Au26 K4 3.564596 1_555
Au26 K10 3.644503 1_555
Au26 K15 3.665943 1_455
Au26 K21 3.827113 1_555
Au27 Sn3 2.701277 1_565
Au27 Au29 2.828314 1_555
Au27 Au33 2.829786 1_455
Au27 Au5 2.936557 1_555
Au27 K17 3.387242 1_555
Au27 K1 3.408529 1_555
Au27 K5 3.564596 1_555
Au27 K10 3.644503 1_565
Au27 K15 3.665943 1_465
Au27 K21 3.827113 1_565
Au28 Au32 2.836061 1_455
Au28 Au36 2.836061 1_555
Au28 Au4 2.864714 1_555
Au28 Au8 2.864714 1_455
Au28 K4 3.705589 1_555
Au28 K0 3.705589 1_455
Au28 K13 3.752330 1_555
Au28 K15 3.752330 1_455
Au28 K10 3.797701 1_555
Au28 K8 3.797701 1_455
Au29 Au33 2.836061 1_455
Au29 Au37 2.836061 1_555
Au29 Au9 2.864714 1_455
Au29 Au5 2.864714 1_555
Au29 K5 3.705589 1_555
Au29 K1 3.705589 1_455
Au29 K13 3.752330 1_555
Au29 K15 3.752330 1_465
Au29 K10 3.797701 1_565
Au29 K8 3.797701 1_455
Au30 Au34 2.836061 1_455
Au30 Au38 2.836061 1_555
Au30 Au6 2.864714 1_555
Au30 K6 3.705589 1_555
Au30 K2 3.705589 1_455
Au30 K12 3.752330 1_555
Au30 K14 3.752330 1_455
Au30 K11 3.797701 1_555
Au30 K9 3.797701 1_455
Au31 Au39 2.836061 1_555
Au31 Au35 2.836061 1_455
Au31 Au7 2.864714 1_555
Au31 K7 3.705589 1_555
Au31 K3 3.705589 1_455
Au31 K12 3.752330 1_555
Au31 K14 3.752330 1_465
Au31 K11 3.797701 1_565
Au31 K9 3.797701 1_455
Au32 Sn4 2.697278 1_555
Au32 Au4 2.847679 1_655
Au32 K0 3.405676 1_555
Au32 K15 3.530690 1_555
Au32 K16 3.564241 1_655
Au32 K8 3.721990 1_555
Au32 K22 3.732965 1_655
Au32 K21 3.907034 1_655
Au33 Sn5 2.697278 1_555
Au33 Au5 2.847679 1_655
Au33 K1 3.405676 1_555
Au33 K15 3.530690 1_565
Au33 K17 3.564241 1_655
Au33 K8 3.721990 1_555
Au33 K22 3.732965 1_655
Au33 K21 3.907034 1_665
Au34 Sn4 2.697278 1_555
Au34 Au6 2.847679 1_655
Au34 K2 3.405676 1_555
Au34 K14 3.530690 1_555
Au34 K16 3.564241 1_655
Au34 K9 3.721990 1_555
Au34 K22 3.732965 1_655
Au34 K21 3.907034 1_655
Au35 Sn5 2.697278 1_555
Au35 Au7 2.847679 1_655
Au35 K3 3.405676 1_555
Au35 K14 3.530690 1_565
Au35 K17 3.564241 1_655
Au35 K9 3.721990 1_555
Au35 K22 3.732965 1_655
Au35 K21 3.907034 1_665
Au36 Sn6 2.697278 1_555
Au36 Au8 2.847679 1_455
Au36 K4 3.405676 1_555
Au36 K13 3.530690 1_555
Au36 K18 3.564241 1_455
Au36 K10 3.721990 1_555
Au36 K23 3.732965 1_455
Au36 K20 3.907034 1_455
Au37 Sn7 2.697278 1_555
Au37 Au9 2.847679 1_455
Au37 K5 3.405676 1_555
Au37 K13 3.530690 1_555
Au37 K19 3.564241 1_455
Au37 K10 3.721990 1_565
Au37 K23 3.732965 1_465
Au37 K20 3.907034 1_455
Au38 Sn6 2.697278 1_556
Au38 K6 3.405676 1_555
Au38 K12 3.530690 1_555
Au38 K18 3.564241 1_456
Au38 K11 3.721990 1_555
Au38 K23 3.732965 1_456
Au38 K20 3.907034 1_456
Au39 Sn7 2.697278 1_556
Au39 K7 3.405676 1_555
Au39 K12 3.530690 1_555
Au39 K19 3.564241 1_456
Au39 K11 3.721990 1_565
Au39 K23 3.732965 1_466
Au39 K20 3.907034 1_456
Au40 Sn7 2.817186 1_555
Au40 Sn6 2.817186 1_555
Au40 Sn1 2.890256 1_555
Au40 Sn0 2.890256 1_554
Au40 K18 3.996437 1_555
Au40 K19 3.996437 1_555
Au41 Sn4 2.817186 1_555
Au41 Sn5 2.817186 1_545
Au41 Sn2 2.890256 1_555
Au41 Sn3 2.890256 1_555
Au41 K17 3.996437 1_545
Au41 K16 3.996437 1_555
