# generated using pymatgen
data_VWO4
_symmetry_space_group_name_H-M   'P 1'
_cell_length_a   4.58259909
_cell_length_b   4.96995792
_cell_length_c   11.89404471
_cell_angle_alpha   89.76776123
_cell_angle_beta   89.87973182
_cell_angle_gamma   89.68117430
_symmetry_Int_Tables_number   1
_chemical_formula_structural   VWO4
_chemical_formula_sum   'V4 W4 O16'
_cell_volume   270.88372638
_cell_formula_units_Z   4
loop_
 _symmetry_equiv_pos_site_id
 _symmetry_equiv_pos_as_xyz
  1  'x, y, z'
loop_
 _atom_site_type_symbol
 _atom_site_label
 _atom_site_symmetry_multiplicity
 _atom_site_fract_x
 _atom_site_fract_y
 _atom_site_fract_z
 _atom_site_occupancy
  V  V0  1  0.99958700  0.75107400  0.56204600  1
  V  V1  1  0.49876800  0.74876300  0.06274700  1
  V  V2  1  0.49819800  0.24957700  0.93634400  1
  V  V3  1  0.99998500  0.25099800  0.43718900  1
  W  W0  1  0.49955700  0.25065100  0.67843800  1
  W  W1  1  0.00014300  0.25186300  0.17581700  1
  W  W2  1  0.99947800  0.75013900  0.82189500  1
  W  W3  1  0.50146900  0.75056700  0.32207200  1
  O  O0  1  0.27842500  0.08311400  0.80307700  1
  O  O1  1  0.76934700  0.43482800  0.31093700  1
  O  O2  1  0.72014400  0.41716200  0.80298700  1
  O  O3  1  0.76118100  0.93259700  0.68645800  1
  O  O4  1  0.23100300  0.06856000  0.30959600  1
  O  O5  1  0.27258800  0.56526900  0.19446700  1
  O  O6  1  0.23791800  0.56956500  0.68679600  1
  O  O7  1  0.73149500  0.92769000  0.19275500  1
  O  O8  1  0.26255100  0.58309400  0.93896100  1
  O  O9  1  0.75642900  0.91566600  0.43941700  1
  O  O10  1  0.73714600  0.91532500  0.93832800  1
  O  O11  1  0.74807200  0.41047200  0.56593400  1
  O  O12  1  0.24265500  0.58871700  0.43961800  1
  O  O13  1  0.25553800  0.08554400  0.06311700  1
  O  O14  1  0.25172300  0.09227300  0.56608400  1
  O  O15  1  0.74660000  0.40649100  0.06491800  1
loop_
_geom_bond_atom_site_label_1
_geom_bond_atom_site_label_2
_geom_bond_distance
_geom_bond_site_symmetry_2
O0 W0 1.977619 1_555
O0 V2 2.058606 1_555
O0 W2 2.107627 1_445
O1 W3 1.991600 1_555
O1 V3 2.047324 1_555
O1 W1 2.126581 1_655
O2 W0 1.981600 1_555
O2 V2 2.058156 1_555
O2 W2 2.110830 1_555
O3 W0 1.980740 1_565
O3 V0 2.047011 1_555
O3 W2 2.143434 1_555
O4 W3 2.008232 1_545
O4 V3 2.059057 1_455
O4 W1 2.113195 1_555
O5 W1 2.014880 1_555
O5 W3 2.068943 1_555
O5 V1 2.086289 1_555
O6 W0 1.984759 1_555
O6 V0 2.047734 1_455
O6 W2 2.138877 1_455
O7 W1 2.042141 1_665
O7 W3 2.060190 1_555
O7 V1 2.085168 1_555
O8 V2 1.973570 1_555
O8 V1 2.010937 1_556
O8 W2 2.016902 1_455
O9 W3 2.003293 1_555
O9 V0 2.006288 1_555
O9 V3 2.011008 1_565
O10 V2 1.984636 1_565
O10 W2 2.007053 1_555
O10 V1 2.015408 1_556
O11 W0 1.927051 1_555
O11 V0 2.053524 1_555
O11 V3 2.073154 1_555
O12 W3 2.000737 1_555
O12 V0 2.001240 1_455
O12 V3 2.018911 1_455
O13 W1 1.959974 1_555
O13 V1 2.005804 1_545
O13 V2 2.041534 1_554
O14 W0 1.928758 1_555
O14 V0 2.058056 1_445
O14 V3 2.071462 1_455
O15 W1 1.915386 1_655
O15 V1 2.040207 1_555
O15 V2 2.066270 1_554
