# generated using pymatgen
data_Fe3O4
_symmetry_space_group_name_H-M   'P 1'
_cell_length_a   6.09223064
_cell_length_b   6.09147707
_cell_length_c   16.97859921
_cell_angle_alpha   90.09081534
_cell_angle_beta   89.84056848
_cell_angle_gamma   90.20343457
_symmetry_Int_Tables_number   1
_chemical_formula_structural   Fe3O4
_chemical_formula_sum   'Fe24 O32'
_cell_volume   630.08022461
_cell_formula_units_Z   8
loop_
 _symmetry_equiv_pos_site_id
 _symmetry_equiv_pos_as_xyz
  1  'x, y, z'
loop_
 _atom_site_type_symbol
 _atom_site_label
 _atom_site_symmetry_multiplicity
 _atom_site_fract_x
 _atom_site_fract_y
 _atom_site_fract_z
 _atom_site_occupancy
  Fe  Fe0  1  0.50023185  0.75263316  0.50338260  1
  Fe  Fe1  1  0.50484734  0.75261400  0.00456796  1
  Fe  Fe2  1  0.99741207  0.74894292  0.75721808  1
  Fe  Fe3  1  0.49818408  0.00031381  0.69365175  1
  Fe  Fe4  1  0.74832660  0.99910528  0.87708922  1
  Fe  Fe5  1  0.25178576  0.49350933  0.13171500  1
  Fe  Fe6  1  0.99553542  0.75709888  0.25274490  1
  Fe  Fe7  1  0.75558245  0.00473982  0.37665812  1
  Fe  Fe8  1  0.24706373  0.99973191  0.88120532  1
  Fe  Fe9  1  0.24420639  0.00430215  0.37583831  1
  Fe  Fe10  1  0.99814496  0.00105605  0.56923335  1
  Fe  Fe11  1  0.49369522  0.50011283  0.81738700  1
  Fe  Fe12  1  0.50155278  0.99669302  0.19083314  1
  Fe  Fe13  1  0.24482491  0.50245131  0.63034487  1
  Fe  Fe14  1  0.50118258  0.50308636  0.31405224  1
  Fe  Fe15  1  0.00015153  0.50065277  0.44416429  1
  Fe  Fe16  1  0.49822136  0.24948491  0.50400303  1
  Fe  Fe17  1  0.50606733  0.24582513  0.00492925  1
  Fe  Fe18  1  0.00644868  0.49836495  0.94481469  1
  Fe  Fe19  1  0.75156078  0.49742584  0.12942176  1
  Fe  Fe20  1  0.99892482  0.25312502  0.25395115  1
  Fe  Fe21  1  0.99845545  0.25101039  0.75681215  1
  Fe  Fe22  1  0.75244704  0.50114599  0.63135382  1
  Fe  Fe23  1  0.99501805  0.99745726  0.07099667  1
  O  O0  1  0.49088734  0.24185880  0.88477810  1
  O  O1  1  0.27240172  0.49657319  0.00996553  1
  O  O2  1  0.27454240  0.00047671  0.49638143  1
  O  O3  1  0.49714792  0.26422339  0.62504105  1
  O  O4  1  0.49991211  0.76624924  0.38002114  1
  O  O5  1  0.24583180  0.50254632  0.74878270  1
  O  O6  1  0.99097521  0.28575306  0.13185670  1
  O  O7  1  0.72236215  0.00024091  0.00115465  1
  O  O8  1  0.77070703  0.99534341  0.25819737  1
  O  O9  1  0.75217173  0.99741105  0.75618948  1
  O  O10  1  0.01614698  0.75732576  0.88309788  1
  O  O11  1  0.27939691  0.50208920  0.50923478  1
  O  O12  1  0.49878128  0.73677390  0.62482417  1
  O  O13  1  0.27824040  0.99736750  0.00134447  1
  O  O14  1  0.24048641  0.50401479  0.25101145  1
  O  O15  1  0.51020581  0.71718005  0.12388921  1
  O  O16  1  0.49206244  0.75362704  0.88588930  1
  O  O17  1  0.99949253  0.22537097  0.37542200  1
  O  O18  1  0.71944174  0.49960182  0.50963884  1
  O  O19  1  0.24881196  0.99932878  0.76180162  1
  O  O20  1  0.00032500  0.77504703  0.37326422  1
  O  O21  1  0.50535743  0.27598482  0.12432337  1
  O  O22  1  0.74705159  0.49992727  0.75032529  1
  O  O23  1  0.72329394  0.00149825  0.49683462  1
  O  O24  1  0.50002615  0.23767016  0.37952540  1
  O  O25  1  0.73734625  0.49697077  0.01008097  1
  O  O26  1  0.99741599  0.71695917  0.13474150  1
  O  O27  1  0.76005573  0.50529487  0.24806631  1
  O  O28  1  0.99896575  0.28026731  0.63026129  1
  O  O29  1  0.22771671  0.99490133  0.25664766  1
  O  O30  1  0.99826516  0.72286055  0.62922897  1
  O  O31  1  0.01430222  0.23838250  0.88180891  1
loop_
_geom_bond_atom_site_label_1
_geom_bond_atom_site_label_2
_geom_bond_distance
_geom_bond_site_symmetry_2
Fe0 O11 2.033299 1_555
Fe0 O23 2.035259 1_565
Fe0 O18 2.046074 1_555
Fe0 O2 2.049424 1_565
Fe0 O12 2.064315 1_555
Fe0 O4 2.096284 1_555
Fe1 O7 2.005081 1_565
Fe1 O16 2.016739 1_554
Fe1 O13 2.036418 1_555
Fe1 O15 2.038078 1_555
Fe1 O1 2.104847 1_555
Fe1 O25 2.111144 1_555
Fe2 O9 2.130635 1_555
Fe2 O5 2.139623 1_655
Fe2 O10 2.141144 1_655
Fe2 O22 2.150581 1_555
Fe2 O19 2.159122 1_655
Fe2 O30 2.178618 1_555
Fe3 O9 1.879210 1_545
Fe3 O19 1.907127 1_545
Fe3 O12 1.984147 1_545
Fe3 O3 1.986829 1_555
Fe4 O9 2.052787 1_555
Fe4 O7 2.111951 1_566
Fe4 O0 2.162917 1_565
Fe4 O16 2.162998 1_555
Fe4 O31 2.177178 1_665
Fe4 O10 2.204585 1_655
Fe5 O14 2.027381 1_555
Fe5 O6 2.027800 1_455
Fe5 O21 2.042275 1_555
Fe5 O26 2.066679 1_455
Fe5 O1 2.070708 1_555
Fe5 O15 2.082496 1_555
Fe6 O8 2.000952 1_555
Fe6 O26 2.018018 1_555
Fe6 O29 2.022183 1_655
Fe6 O20 2.049278 1_655
Fe6 O27 2.098028 1_555
Fe6 O14 2.149528 1_655
Fe7 O17 2.000124 1_555
Fe7 O8 2.013883 1_545
Fe7 O20 2.048960 1_645
Fe7 O23 2.049463 1_555
Fe7 O24 2.110599 1_555
Fe7 O4 2.126875 1_545
Fe8 O19 2.027304 1_555
Fe8 O31 2.034401 1_565
Fe8 O10 2.036085 1_555
Fe8 O13 2.049223 1_556
Fe8 O0 2.090503 1_565
Fe8 O16 2.120967 1_555
Fe9 O17 2.012577 1_455
Fe9 O29 2.027170 1_545
Fe9 O20 2.035954 1_545
Fe9 O2 2.055669 1_555
Fe9 O24 2.106711 1_555
Fe9 O4 2.133447 1_545
Fe10 O30 1.978600 1_545
Fe10 O28 1.990177 1_555
Fe10 O23 2.079979 1_555
Fe10 O2 2.086593 1_655
Fe11 O5 1.909769 1_555
Fe11 O22 1.915484 1_555
Fe11 O16 1.931833 1_555
Fe11 O0 1.946716 1_555
Fe12 O8 2.001893 1_555
Fe12 O29 2.005357 1_555
Fe12 O21 2.043480 1_565
Fe12 O15 2.046423 1_555
Fe13 O5 2.010934 1_555
Fe13 O28 2.015162 1_455
Fe13 O30 2.018376 1_455
Fe13 O11 2.066454 1_555
Fe13 O12 2.103287 1_555
Fe13 O3 2.119350 1_555
Fe14 O14 1.917722 1_555
Fe14 O27 1.932024 1_555
Fe14 O4 1.954153 1_555
Fe14 O24 1.963502 1_555
Fe15 O11 2.031051 1_555
Fe15 O18 2.037110 1_455
Fe15 O17 2.041550 1_455
Fe15 O20 2.061372 1_555
Fe16 O18 2.032854 1_555
Fe16 O2 2.039646 1_555
Fe16 O11 2.041151 1_555
Fe16 O23 2.046976 1_555
Fe16 O3 2.056867 1_555
Fe16 O24 2.114566 1_555
Fe17 O7 1.997909 1_555
Fe17 O21 2.035157 1_555
Fe17 O0 2.042451 1_554
Fe17 O13 2.050864 1_545
Fe17 O25 2.078060 1_555
Fe17 O1 2.093125 1_555
Fe18 O10 1.895813 1_555
Fe18 O31 1.910385 1_555
Fe18 O1 1.964452 1_556
Fe18 O25 1.976256 1_456
Fe19 O6 1.950780 1_555
Fe19 O15 1.994477 1_555
Fe19 O26 2.006503 1_555
Fe19 O21 2.015639 1_555
Fe19 O27 2.015717 1_555
Fe19 O25 2.028327 1_555
Fe20 O17 2.069603 1_555
Fe20 O6 2.083526 1_555
Fe20 O8 2.094835 1_545
Fe20 O29 2.106013 1_645
Fe20 O14 2.118436 1_655
Fe20 O27 2.122370 1_555
Fe21 O31 2.126259 1_655
Fe21 O5 2.149580 1_655
Fe21 O9 2.149728 1_545
Fe21 O28 2.156309 1_555
Fe21 O22 2.162175 1_555
Fe21 O19 2.168334 1_645
Fe22 O30 2.013350 1_555
Fe22 O28 2.019980 1_555
Fe22 O22 2.020170 1_555
Fe22 O18 2.076869 1_555
Fe22 O12 2.116100 1_555
Fe22 O3 2.120831 1_555
Fe23 O26 2.024151 1_555
Fe23 O6 2.036374 1_565
Fe23 O7 2.043741 1_565
Fe23 O13 2.089110 1_655
