# generated using pymatgen
data_Al3Ni9C
_symmetry_space_group_name_H-M   'P 1'
_cell_length_a   3.69517000
_cell_length_b   3.69517000
_cell_length_c   10.54326900
_cell_angle_alpha   90.00000000
_cell_angle_beta   90.00000000
_cell_angle_gamma   90.00000000
_symmetry_Int_Tables_number   1
_chemical_formula_structural   Al3Ni9C
_chemical_formula_sum   'Al3 Ni9 C1'
_cell_volume   143.96076105
_cell_formula_units_Z   1
loop_
 _symmetry_equiv_pos_site_id
 _symmetry_equiv_pos_as_xyz
  1  'x, y, z'
loop_
 _atom_site_type_symbol
 _atom_site_label
 _atom_site_symmetry_multiplicity
 _atom_site_fract_x
 _atom_site_fract_y
 _atom_site_fract_z
 _atom_site_occupancy
  Al  Al0  1  0.00000000  0.00000000  0.81399000  1
  Al  Al1  1  0.00000000  0.00000000  0.18601000  1
  Al  Al2  1  0.00000000  0.00000000  0.50000000  1
  Ni  Ni0  1  0.50000000  0.50000000  0.82367900  1
  Ni  Ni1  1  0.50000000  0.50000000  0.17632100  1
  Ni  Ni2  1  0.50000000  0.50000000  0.50000000  1
  Ni  Ni3  1  0.50000000  0.00000000  0.00000000  1
  Ni  Ni4  1  0.50000000  0.00000000  0.34018100  1
  Ni  Ni5  1  0.50000000  0.00000000  0.65981900  1
  Ni  Ni6  1  0.00000000  0.50000000  0.00000000  1
  Ni  Ni7  1  0.00000000  0.50000000  0.34018100  1
  Ni  Ni8  1  0.00000000  0.50000000  0.65981900  1
  C  C0  1  0.50000000  0.50000000  0.00000000  1
loop_
_geom_bond_atom_site_label_1
_geom_bond_atom_site_label_2
_geom_bond_distance
_geom_bond_site_symmetry_2
Al0 Ni5 2.460835 1_455
Al0 Ni8 2.460835 1_555
Al0 Ni8 2.460835 1_545
Al0 Ni5 2.460835 1_555
Al0 Ni0 2.614876 1_455
Al0 Ni0 2.614876 1_545
Al0 Ni0 2.614876 1_555
Al0 Ni0 2.614876 1_445
Al0 Ni6 2.694382 1_546
Al0 Ni3 2.694382 1_456
Al0 Ni6 2.694382 1_556
Al0 Ni3 2.694382 1_556
Al1 Ni4 2.460835 1_455
Al1 Ni7 2.460835 1_545
Al1 Ni4 2.460835 1_555
Al1 Ni7 2.460835 1_555
Al1 Ni1 2.614876 1_555
Al1 Ni1 2.614876 1_455
Al1 Ni1 2.614876 1_545
Al1 Ni1 2.614876 1_445
Al1 Ni6 2.694382 1_545
Al1 Ni6 2.694382 1_555
Al1 Ni3 2.694382 1_455
Al1 Ni3 2.694382 1_555
Al2 Ni4 2.500569 1_555
Al2 Ni4 2.500569 1_455
Al2 Ni7 2.500569 1_555
Al2 Ni7 2.500569 1_545
Al2 Ni5 2.500569 1_455
Al2 Ni8 2.500569 1_545
Al2 Ni5 2.500569 1_555
Al2 Ni8 2.500569 1_555
Al2 Ni2 2.612880 1_545
Al2 Ni2 2.612880 1_455
Al2 Ni2 2.612880 1_445
Al2 Ni2 2.612880 1_555
Ni0 Ni8 2.529475 1_655
Ni0 Ni5 2.529475 1_555
Ni0 Ni8 2.529475 1_555
Ni0 Ni5 2.529475 1_565
Ni1 Ni7 2.529475 1_655
Ni1 Ni4 2.529475 1_555
Ni1 Ni7 2.529475 1_555
Ni1 Ni4 2.529475 1_565
Ni2 Ni4 2.500569 1_555
Ni2 Ni4 2.500569 1_565
Ni2 Ni7 2.500569 1_555
Ni2 Ni7 2.500569 1_655
Ni2 Ni5 2.500569 1_565
Ni2 Ni8 2.500569 1_655
Ni2 Ni5 2.500569 1_555
Ni2 Ni8 2.500569 1_555
Ni4 Ni7 2.612880 1_545
Ni4 Ni7 2.612880 1_645
Ni4 Ni7 2.612880 1_555
Ni4 Ni7 2.612880 1_655
Ni5 Ni8 2.612880 1_555
Ni5 Ni8 2.612880 1_645
Ni5 Ni8 2.612880 1_655
Ni5 Ni8 2.612880 1_545
C0 Ni6 1.847585 1_555
C0 Ni3 1.847585 1_555
C0 Ni3 1.847585 1_565
C0 Ni6 1.847585 1_655
C0 Ni0 1.859000 1_554
C0 Ni1 1.859000 1_555
