# generated using pymatgen
data_Sr3TaN3
_symmetry_space_group_name_H-M   'P 1'
_cell_length_a   7.95608500
_cell_length_b   7.95613248
_cell_length_c   5.51879600
_cell_angle_alpha   90.00000000
_cell_angle_beta   90.00000000
_cell_angle_gamma   120.00256869
_symmetry_Int_Tables_number   1
_chemical_formula_structural   Sr3TaN3
_chemical_formula_sum   'Sr6 Ta2 N6'
_cell_volume   302.52770406
_cell_formula_units_Z   2
loop_
 _symmetry_equiv_pos_site_id
 _symmetry_equiv_pos_as_xyz
  1  'x, y, z'
loop_
 _atom_site_type_symbol
 _atom_site_label
 _atom_site_symmetry_multiplicity
 _atom_site_fract_x
 _atom_site_fract_y
 _atom_site_fract_z
 _atom_site_occupancy
  Sr  Sr0  1  0.88025200  0.64354200  0.25000000  1
  Sr  Sr1  1  0.76327600  0.11974500  0.25000000  1
  Sr  Sr2  1  0.35645000  0.23670500  0.25000000  1
  Sr  Sr3  1  0.11974800  0.35645800  0.75000000  1
  Sr  Sr4  1  0.23672400  0.88025500  0.75000000  1
  Sr  Sr5  1  0.64355000  0.76329500  0.75000000  1
  Ta  Ta0  1  0.66666600  0.33333700  0.75000000  1
  Ta  Ta1  1  0.33333400  0.66666300  0.25000000  1
  N  N0  1  0.86244200  0.60893000  0.75000000  1
  N  N1  1  0.74647100  0.13757000  0.75000000  1
  N  N2  1  0.39107500  0.25351700  0.75000000  1
  N  N3  1  0.13755800  0.39107000  0.25000000  1
  N  N4  1  0.25352900  0.86243000  0.25000000  1
  N  N5  1  0.60892500  0.74648300  0.25000000  1
loop_
_geom_bond_atom_site_label_1
_geom_bond_atom_site_label_2
_geom_bond_distance
_geom_bond_site_symmetry_2
N0 Ta0 1.954051 1_555
N0 Sr5 2.584621 1_555
N0 Sr4 2.664334 1_655
N0 Sr0 2.769687 1_555
N0 Sr0 2.769687 1_556
N1 Ta0 1.954001 1_555
N1 Sr3 2.584633 1_655
N1 Sr5 2.664424 1_545
N1 Sr1 2.769698 1_555
N1 Sr1 2.769698 1_556
N2 Ta0 1.954060 1_555
N2 Sr4 2.584592 1_545
N2 Sr3 2.664378 1_555
N2 Sr2 2.769694 1_556
N2 Sr2 2.769694 1_555
N3 Ta1 1.954051 1_555
N3 Sr2 2.584621 1_555
N3 Sr1 2.664334 1_455
N3 Sr3 2.769687 1_554
N3 Sr3 2.769687 1_555
N4 Ta1 1.954001 1_555
N4 Sr0 2.584633 1_455
N4 Sr2 2.664424 1_565
N4 Sr4 2.769698 1_555
N4 Sr4 2.769698 1_554
N5 Ta1 1.954060 1_555
N5 Sr1 2.584592 1_565
N5 Sr0 2.664378 1_555
N5 Sr5 2.769694 1_555
N5 Sr5 2.769694 1_554
