# generated using pymatgen
data_Sr3Ta4TiO15
_symmetry_space_group_name_H-M   'P 1'
_cell_length_a   3.97096700
_cell_length_b   12.58211500
_cell_length_c   12.54873602
_cell_angle_alpha   90.00000000
_cell_angle_beta   89.99465074
_cell_angle_gamma   90.00000000
_symmetry_Int_Tables_number   1
_chemical_formula_structural   Sr3Ta4TiO15
_chemical_formula_sum   'Sr6 Ta8 Ti2 O30'
_cell_volume   626.97454664
_cell_formula_units_Z   2
loop_
 _symmetry_equiv_pos_site_id
 _symmetry_equiv_pos_as_xyz
  1  'x, y, z'
loop_
 _atom_site_type_symbol
 _atom_site_label
 _atom_site_symmetry_multiplicity
 _atom_site_fract_x
 _atom_site_fract_y
 _atom_site_fract_z
 _atom_site_occupancy
  Sr  Sr0  1  0.37173600  0.50347400  0.49426300  1
  Sr  Sr1  1  0.37173600  0.99652600  0.99426300  1
  Sr  Sr2  1  0.37030900  0.65147600  0.80698900  1
  Sr  Sr3  1  0.36930900  0.38037200  0.21017200  1
  Sr  Sr4  1  0.37030900  0.84852400  0.30698900  1
  Sr  Sr5  1  0.36930900  0.11962800  0.71017200  1
  Ta  Ta0  1  0.87446700  0.41956600  0.70938600  1
  Ta  Ta1  1  0.87446700  0.08043400  0.20938600  1
  Ta  Ta2  1  0.86575500  0.49819100  0.00301300  1
  Ta  Ta3  1  0.86575500  0.00180900  0.50301300  1
  Ta  Ta4  1  0.87796800  0.28925900  0.42253200  1
  Ta  Ta5  1  0.88053400  0.71329100  0.57499600  1
  Ta  Ta6  1  0.87796800  0.21074100  0.92253200  1
  Ta  Ta7  1  0.88053400  0.78670900  0.07499600  1
  Ti  Ti0  1  0.84354000  0.58738100  0.29040000  1
  Ti  Ti1  1  0.84354000  0.91261900  0.79040000  1
  O  O0  1  0.88492000  0.50257800  0.15784600  1
  O  O1  1  0.88858900  0.50340200  0.84219100  1
  O  O2  1  0.88492000  0.99742200  0.65784600  1
  O  O3  1  0.88858900  0.99659800  0.34219100  1
  O  O4  1  0.38381600  0.29693700  0.41233300  1
  O  O5  1  0.38306000  0.70306700  0.58566300  1
  O  O6  1  0.38381600  0.20306300  0.91233300  1
  O  O7  1  0.38306000  0.79693300  0.08566300  1
  O  O8  1  0.87907300  0.77224400  0.72784300  1
  O  O9  1  0.88258600  0.22311300  0.27344700  1
  O  O10  1  0.87907300  0.72775600  0.22784300  1
  O  O11  1  0.88258600  0.27688700  0.77344700  1
  O  O12  1  0.88797400  0.43073700  0.35113300  1
  O  O13  1  0.88739200  0.56820100  0.64482300  1
  O  O14  1  0.88797400  0.06926300  0.85113200  1
  O  O15  1  0.88739200  0.93179900  0.14482300  1
  O  O16  1  0.38199300  0.50026800  0.00145000  1
  O  O17  1  0.38199300  0.99973200  0.50145000  1
  O  O18  1  0.88277700  0.63036000  0.44084400  1
  O  O19  1  0.88347700  0.37155600  0.55736100  1
  O  O20  1  0.88277700  0.86964000  0.94084400  1
  O  O21  1  0.88347700  0.12844400  0.05736100  1
  O  O22  1  0.39088500  0.57552700  0.29708000  1
  O  O23  1  0.38336700  0.42496100  0.70065400  1
  O  O24  1  0.39088500  0.92447300  0.79708000  1
  O  O25  1  0.38336700  0.07503900  0.20065400  1
  O  O26  1  0.88737700  0.84120000  0.48852200  1
  O  O27  1  0.88909600  0.15815500  0.50705900  1
  O  O28  1  0.88737700  0.65880000  0.98852200  1
  O  O29  1  0.88909600  0.34184500  0.00705900  1
loop_
_geom_bond_atom_site_label_1
_geom_bond_atom_site_label_2
_geom_bond_distance
_geom_bond_site_symmetry_2
O0 Ta2 1.945239 1_555
O0 Ti0 1.983001 1_555
O0 Sr3 2.548619 1_655
O0 Sr3 2.643350 1_555
O1 Ta0 1.973113 1_555
O1 Ta2 2.021204 1_556
O1 Sr2 2.706515 1_655
O1 Sr2 2.811059 1_555
O2 Ta3 1.945239 1_565
O2 Ti1 1.983001 1_555
O2 Sr5 2.548619 1_665
O2 Sr5 2.643350 1_565
O3 Ta1 1.973113 1_565
O3 Ta3 2.021204 1_565
O3 Sr4 2.706515 1_655
O3 Sr4 2.811059 1_555
O4 Ta4 1.968814 1_555
O4 Ta4 2.015084 1_455
O4 Sr3 2.746104 1_555
O4 Sr0 2.795070 1_555
O5 Ta5 1.984145 1_555
O5 Ta5 2.004144 1_455
O5 Sr0 2.761191 1_555
O5 Sr2 2.852654 1_555
O6 Ta6 1.968814 1_555
O6 Ta6 2.015084 1_455
O6 Sr5 2.746104 1_555
O6 Sr1 2.795070 1_545
O7 Ta7 1.984145 1_555
O7 Ta7 2.004144 1_455
O7 Sr1 2.761191 1_554
O7 Sr4 2.852654 1_555
O8 Ti1 1.937949 1_555
O8 Ta5 2.056476 1_555
O8 Sr2 2.664745 1_655
O8 Sr2 2.715975 1_555
O9 Ta1 1.967239 1_555
O9 Ta4 2.047677 1_555
O9 Sr3 2.877639 1_655
O9 Sr3 2.949596 1_555
O10 Ti0 1.937949 1_555
O10 Ta7 2.056476 1_555
O10 Sr4 2.664745 1_655
O10 Sr4 2.715975 1_555
O11 Ta0 1.967239 1_555
O11 Ta6 2.047677 1_555
O11 Sr5 2.877639 1_655
O11 Sr5 2.949596 1_555
O12 Ta4 1.993253 1_555
O12 Ti0 2.120492 1_555
O12 Sr3 2.680150 1_655
O12 Sr0 2.784679 1_655
O12 Sr3 2.788038 1_555
O12 Sr0 2.874927 1_555
O13 Ta5 2.025126 1_555
O13 Ta0 2.038739 1_555
O13 Sr0 2.816258 1_655
O13 Sr0 2.902835 1_555
O13 Sr2 2.986147 1_655
O13 Sr2 3.074786 1_555
O14 Ta6 1.993259 1_555
O14 Ti1 2.120487 1_545
O14 Sr5 2.680142 1_655
O14 Sr1 2.784687 1_645
O14 Sr5 2.788030 1_555
O14 Sr1 2.874935 1_545
O15 Ta7 2.025126 1_555
O15 Ta1 2.038739 1_565
O15 Sr1 2.816258 1_654
O15 Sr1 2.902835 1_554
O15 Sr4 2.986147 1_655
O15 Sr4 3.074786 1_555
O16 Ta2 1.921283 1_555
O16 Ta2 2.050223 1_455
O16 Sr3 3.022981 1_555
O16 Sr2 3.094594 1_554
O17 Ta3 1.921283 1_565
O17 Ta3 2.050223 1_465
O17 Sr5 3.022981 1_565
O17 Sr4 3.094594 1_555
O18 Ti0 1.969989 1_555
O18 Ta5 1.980612 1_555
O18 Sr0 2.601607 1_655
O18 Sr0 2.667595 1_555
O19 Ta4 1.983765 1_555
O19 Ta0 2.001391 1_555
O19 Sr0 2.672228 1_655
O19 Sr0 2.740742 1_555
O20 Ti1 1.969989 1_555
O20 Ta7 1.980612 1_556
O20 Sr1 2.601607 1_655
O20 Sr1 2.667595 1_555
O21 Ta6 1.983765 1_554
O21 Ta1 2.001391 1_555
O21 Sr1 2.672228 1_644
O21 Sr1 2.740742 1_544
O22 Ti0 1.805594 1_555
O22 Ti0 2.180220 1_455
O22 Sr0 2.636337 1_555
O22 Sr3 2.688128 1_555
O23 Ta0 1.954407 1_555
O23 Ta0 2.024922 1_455
O23 Sr0 2.772335 1_555
O23 Sr2 3.147369 1_555
O24 Ti1 1.805594 1_555
O24 Ti1 2.180220 1_455
O24 Sr1 2.636337 1_555
O24 Sr5 2.688128 1_565
O25 Ta1 1.954407 1_555
O25 Ta1 2.024922 1_455
O25 Sr1 2.772335 1_544
O25 Sr4 3.147369 1_545
O26 Ta5 1.941216 1_555
O26 Ta3 2.030781 1_565
O26 Sr4 2.979027 1_655
O26 Sr4 3.068317 1_555
O27 Ta4 1.961664 1_555
O27 Ta3 1.970000 1_555
O27 Sr5 3.220037 1_655
O27 Sr5 3.315233 1_555
O28 Ta7 1.941216 1_556
O28 Ta2 2.030781 1_556
O28 Sr2 2.979027 1_655
O28 Sr2 3.068317 1_555
O29 Ta6 1.961664 1_554
O29 Ta2 1.970000 1_555
O29 Sr3 3.220037 1_655
O29 Sr3 3.315233 1_555
