# generated using pymatgen
data_Dy5P12Ir19
_symmetry_space_group_name_H-M   'P 1'
_cell_length_a   12.63916301
_cell_length_b   12.63920219
_cell_length_c   3.96275186
_cell_angle_alpha   90.00000093
_cell_angle_beta   89.99999846
_cell_angle_gamma   120.00048018
_symmetry_Int_Tables_number   1
_chemical_formula_structural   Dy5P12Ir19
_chemical_formula_sum   'Dy5 P12 Ir19'
_cell_volume   548.23074273
_cell_formula_units_Z   1
loop_
 _symmetry_equiv_pos_site_id
 _symmetry_equiv_pos_as_xyz
  1  'x, y, z'
loop_
 _atom_site_type_symbol
 _atom_site_label
 _atom_site_symmetry_multiplicity
 _atom_site_fract_x
 _atom_site_fract_y
 _atom_site_fract_z
 _atom_site_occupancy
  Dy  Dy0  1  0.33332529  0.66666923  0.50000002  1
  Dy  Dy1  1  0.66667702  0.33332645  0.50000001  1
  Dy  Dy2  1  -0.00000104  0.81696849  -0.00000011  1
  Dy  Dy3  1  0.18302362  0.18302546  0.00000009  1
  Dy  Dy4  1  0.81697627  0.00001438  -0.00000002  1
  P  P0  1  0.00000350  0.64391070  0.49999999  1
  P  P1  1  0.35608753  0.35608270  0.50000010  1
  P  P2  1  0.64391578  0.00000786  0.49999999  1
  P  P3  1  0.51751405  0.68843421  -0.00000004  1
  P  P4  1  0.31156902  0.82908572  0.00000002  1
  P  P5  1  0.17090879  0.48248157  0.00000004  1
  P  P6  1  0.48248869  0.17091797  -0.00000008  1
  P  P7  1  0.68843427  0.51751096  0.00000003  1
  P  P8  1  0.82908311  0.31156853  0.00000000  1
  P  P9  1  0.99999517  0.17822951  0.50000000  1
  P  P10  1  0.82177580  0.82177545  0.49999999  1
  P  P11  1  0.17822816  0.00000295  0.49999999  1
  Ir  Ir0  1  0.50577735  0.86658665  0.00000006  1
  Ir  Ir1  1  0.13342272  0.63918918  -0.00000005  1
  Ir  Ir2  1  0.36080659  0.49423185  0.00000001  1
  Ir  Ir3  1  0.49423344  0.36080152  -0.00000012  1
  Ir  Ir4  1  0.86656964  0.50575810  0.00000001  1
  Ir  Ir5  1  0.63919116  0.13342449  0.00000006  1
  Ir  Ir6  1  -0.00000588  0.46520365  0.50000001  1
  Ir  Ir7  1  0.53479667  0.53478041  0.49999997  1
  Ir  Ir8  1  0.46520698  0.00000076  0.50000011  1
  Ir  Ir9  1  -0.00000534  0.28464483  0.00000001  1
  Ir  Ir10  1  0.71535431  0.71534989  0.00000000  1
  Ir  Ir11  1  0.28464681  0.00000651  -0.00000006  1
  Ir  Ir12  1  0.62472170  0.80563167  0.49999999  1
  Ir  Ir13  1  0.19437642  0.81909371  0.49999996  1
  Ir  Ir14  1  0.18090180  0.37527819  0.50000004  1
  Ir  Ir15  1  0.37528979  0.18090922  0.49999991  1
  Ir  Ir16  1  0.80562518  0.62471078  0.50000002  1
  Ir  Ir17  1  0.81908779  0.19438090  0.49999999  1
  Ir  Ir18  1  0.00000183  0.00000555  0.50000007  1
loop_
_geom_bond_atom_site_label_1
_geom_bond_atom_site_label_2
_geom_bond_distance
_geom_bond_site_symmetry_2
Dy0 P4 2.963108 1_556
Dy0 P4 2.963108 1_555
Dy0 P5 2.963176 1_555
Dy0 P5 2.963176 1_556
Dy0 P3 2.963216 1_556
Dy0 P3 2.963216 1_555
Dy0 Ir1 3.090733 1_556
Dy0 Ir1 3.090734 1_555
Dy0 Ir2 3.090893 1_555
Dy0 Ir2 3.090893 1_556
Dy0 Ir0 3.090924 1_555
Dy0 Ir0 3.090924 1_556
Dy0 Ir13 3.190475 1_555
Dy0 Ir14 3.190646 1_555
Dy0 Ir12 3.190699 1_555
Dy1 P8 2.963015 1_555
Dy1 P8 2.963015 1_556
Dy1 P6 2.963148 1_556
Dy1 P6 2.963148 1_555
Dy1 P7 2.963211 1_555
Dy1 P7 2.963211 1_556
Dy1 Ir4 3.090701 1_555
Dy1 Ir4 3.090701 1_556
Dy1 Ir5 3.090712 1_555
Dy1 Ir5 3.090712 1_556
Dy1 Ir3 3.090911 1_556
Dy1 Ir3 3.090912 1_555
Dy1 Ir17 3.190286 1_555
Dy1 Ir16 3.190579 1_555
Dy1 Ir15 3.190593 1_555
Dy2 P0 2.951323 1_554
Dy2 P0 2.951324 1_555
Dy2 P10 3.023338 1_454
Dy2 P10 3.023338 1_455
Dy2 P11 3.023377 1_564
Dy2 P11 3.023377 1_565
Dy2 Ir18 3.045945 1_564
Dy2 Ir18 3.045946 1_565
Dy2 Ir16 3.145834 1_454
Dy2 Ir16 3.145835 1_455
Dy2 Ir13 3.145837 1_554
Dy2 Ir13 3.145837 1_555
Dy2 Ir10 3.157851 1_455
Dy2 Ir11 3.157900 1_565
Dy2 Ir1 3.417906 1_555
Dy2 Ir4 3.417966 1_455
Dy3 P1 2.951314 1_554
Dy3 P1 2.951314 1_555
Dy3 P11 3.023322 1_555
Dy3 P11 3.023323 1_554
Dy3 P9 3.023371 1_455
Dy3 P9 3.023372 1_454
Dy3 Ir18 3.045788 1_555
Dy3 Ir18 3.045788 1_554
Dy3 Ir14 3.145831 1_555
Dy3 Ir14 3.145831 1_554
Dy3 Ir15 3.145929 1_555
Dy3 Ir15 3.145930 1_554
Dy3 Ir11 3.157836 1_555
Dy3 Ir9 3.157914 1_555
Dy3 Ir2 3.417921 1_555
Dy3 Ir3 3.417940 1_555
Dy4 P2 2.951292 1_555
Dy4 P2 2.951292 1_554
Dy4 P9 3.023235 1_554
Dy4 P9 3.023235 1_555
Dy4 P10 3.023457 1_544
Dy4 P10 3.023457 1_545
Dy4 Ir18 3.045885 1_654
Dy4 Ir18 3.045886 1_655
Dy4 Ir17 3.145802 1_554
Dy4 Ir17 3.145802 1_555
Dy4 Ir12 3.145864 1_544
Dy4 Ir12 3.145864 1_545
Dy4 Ir9 3.157697 1_655
Dy4 Ir10 3.158090 1_545
Dy4 Ir0 3.417826 1_545
Dy4 Ir5 3.417828 1_555
Ir0 P4 2.255306 1_555
Ir0 P3 2.329422 1_555
Ir0 P2 2.621761 1_565
Ir0 P2 2.621761 1_564
Ir0 Ir8 2.810142 1_564
Ir0 Ir8 2.810143 1_565
Ir0 Ir12 2.817396 1_555
Ir0 Ir12 2.817396 1_554
Ir0 Ir5 2.920758 1_565
Ir1 P5 2.255200 1_555
Ir1 P4 2.329417 1_555
Ir1 P0 2.621770 1_554
Ir1 P0 2.621770 1_555
Ir1 Ir6 2.810175 1_554
Ir1 Ir6 2.810175 1_555
Ir1 Ir13 2.817438 1_554
Ir1 Ir13 2.817438 1_555
Ir1 Ir4 2.920916 1_455
Ir2 P3 2.255250 1_555
Ir2 P5 2.329444 1_555
Ir2 P1 2.621852 1_554
Ir2 P1 2.621852 1_555
Ir2 Ir7 2.810240 1_555
Ir2 Ir7 2.810240 1_554
Ir2 Ir3 2.920987 1_555
Ir3 P7 2.255243 1_555
Ir3 P6 2.329304 1_555
Ir3 P1 2.621822 1_554
Ir3 P1 2.621823 1_555
Ir3 Ir7 2.810108 1_554
Ir3 Ir7 2.810109 1_555
Ir4 P8 2.255141 1_555
Ir4 P7 2.329312 1_555
Ir4 P0 2.621872 1_655
Ir4 P0 2.621872 1_654
Ir4 Ir6 2.810133 1_654
Ir4 Ir6 2.810133 1_655
Ir5 P6 2.255191 1_555
Ir5 P8 2.329372 1_555
Ir5 P2 2.621765 1_555
Ir5 P2 2.621766 1_554
Ir5 Ir8 2.810152 1_554
Ir5 Ir8 2.810152 1_555
Ir6 P0 2.258655 1_555
Ir6 P8 2.857996 1_456
Ir6 P8 2.857996 1_455
Ir6 P5 2.858029 1_555
Ir6 P5 2.858029 1_556
Ir6 Ir9 3.022240 1_555
Ir6 Ir9 3.022240 1_556
Ir7 P1 2.258649 1_555
Ir7 P7 2.857995 1_555
Ir7 P7 2.857995 1_556
Ir7 P3 2.858215 1_556
Ir7 P3 2.858215 1_555
Ir8 P2 2.258685 1_555
Ir8 P4 2.858029 1_546
Ir8 P4 2.858029 1_545
Ir8 P6 2.858042 1_556
Ir8 P6 2.858043 1_555
Ir9 P8 2.348889 1_455
Ir9 P5 2.348898 1_555
Ir9 P9 2.394764 1_455
Ir9 P9 2.394765 1_454
Ir10 P7 2.348955 1_555
Ir10 P3 2.348985 1_555
Ir10 P10 2.394814 1_555
Ir10 P10 2.394814 1_554
Ir10 Ir16 2.801272 1_554
Ir10 Ir16 2.801272 1_555
Ir10 Ir12 2.801306 1_555
Ir10 Ir12 2.801306 1_554
Ir10 Ir7 3.022267 1_555
Ir10 Ir7 3.022268 1_554
Ir11 P6 2.348922 1_555
Ir11 P4 2.349000 1_545
Ir11 P11 2.394771 1_554
Ir11 P11 2.394771 1_555
Ir11 Ir15 2.801207 1_555
Ir11 Ir15 2.801208 1_554
Ir11 Ir13 2.801285 1_544
Ir11 Ir13 2.801286 1_545
Ir11 Ir8 3.022272 1_554
Ir11 Ir8 3.022273 1_555
Ir12 P2 2.344890 1_565
Ir12 P10 2.395103 1_555
Ir12 P3 2.439042 1_556
Ir12 P3 2.439042 1_555
Ir12 Ir7 3.019957 1_555
Ir13 P0 2.344852 1_555
Ir13 P11 2.395131 1_565
Ir13 P4 2.439003 1_555
Ir13 P4 2.439003 1_556
Ir13 Ir8 3.019695 1_565
Ir14 P1 2.344943 1_555
Ir14 P9 2.395033 1_455
Ir14 P5 2.439031 1_556
Ir14 P5 2.439031 1_555
Ir14 Ir9 2.801237 1_556
Ir14 Ir9 2.801237 1_555
Ir14 Ir2 2.817436 1_556
Ir14 Ir2 2.817436 1_555
Ir14 Ir6 3.019748 1_555
Ir15 P1 2.344844 1_555
Ir15 P11 2.395122 1_555
Ir15 P6 2.438988 1_555
Ir15 P6 2.438989 1_556
Ir15 Ir3 2.817337 1_556
Ir15 Ir3 2.817338 1_555
Ir15 Ir8 3.019682 1_555
Ir16 P0 2.344878 1_655
Ir16 P10 2.395206 1_555
Ir16 P7 2.438989 1_555
Ir16 P7 2.438989 1_556
Ir16 Ir4 2.817397 1_555
Ir16 Ir4 2.817397 1_556
Ir16 Ir7 3.019662 1_555
Ir17 P2 2.344796 1_555
Ir17 P9 2.395123 1_555
Ir17 P8 2.438959 1_555
Ir17 P8 2.438959 1_556
Ir17 Ir9 2.801235 1_655
Ir17 Ir9 2.801235 1_656
Ir17 Ir5 2.817361 1_555
Ir17 Ir5 2.817362 1_556
Ir17 Ir6 3.019626 1_655
Ir18 P10 2.252641 1_445
Ir18 P11 2.252648 1_555
Ir18 P9 2.252651 1_455
