# generated using pymatgen
data_CaLa2Co2Sb2(PbO6)2
_symmetry_space_group_name_H-M   'P 1'
_cell_length_a   5.82456151
_cell_length_b   5.98748969
_cell_length_c   9.79471630
_cell_angle_alpha   76.19784714
_cell_angle_beta   93.24315430
_cell_angle_gamma   94.34308856
_symmetry_Int_Tables_number   1
_chemical_formula_structural   CaLa2Co2Sb2(PbO6)2
_chemical_formula_sum   'Ca1 La2 Co2 Sb2 Pb2 O12'
_cell_volume   330.50848315
_cell_formula_units_Z   1
loop_
 _symmetry_equiv_pos_site_id
 _symmetry_equiv_pos_as_xyz
  1  'x, y, z'
loop_
 _atom_site_type_symbol
 _atom_site_label
 _atom_site_symmetry_multiplicity
 _atom_site_fract_x
 _atom_site_fract_y
 _atom_site_fract_z
 _atom_site_occupancy
  Ca  Ca0  1  0.48667500  0.70241300  0.41395800  1
  La  La0  1  0.51538900  0.48291600  0.77998100  1
  La  La1  1  0.00088000  0.92624600  0.16698100  1
  Co  Co0  1  0.00680000  0.57605500  0.56337800  1
  Co  Co1  1  0.51081400  0.93622600  0.98467900  1
  Sb  Sb0  1  0.02844100  0.47685400  0.97853400  1
  Sb  Sb1  1  0.46372300  0.12497000  0.56512300  1
  Pb  Pb0  1  0.55948100  0.31477100  0.19293300  1
  Pb  Pb1  1  0.95155100  0.99702200  0.75874100  1
  O  O0  1  0.58801200  0.93371200  0.19538700  1
  O  O1  1  0.09518700  0.59478700  0.77379300  1
  O  O2  1  0.44611100  0.05452200  0.77467500  1
  O  O3  1  0.95835600  0.33751700  0.17886200  1
  O  O4  1  0.09907700  0.78803300  0.38690400  1
  O  O5  1  0.75258500  0.68283400  0.95591300  1
  O  O6  1  0.73133700  0.35372200  0.57020800  1
  O  O7  1  0.30221800  0.27272100  0.00305500  1
  O  O8  1  0.29162700  0.41769100  0.57394300  1
  O  O9  1  0.80823200  0.21897500  0.93264100  1
  O  O10  1  0.67037700  0.82020600  0.60487600  1
  O  O11  1  0.22122300  0.73780700  0.02876800  1
loop_
_geom_bond_atom_site_label_1
_geom_bond_atom_site_label_2
_geom_bond_distance
_geom_bond_site_symmetry_2
Ca0 O8 2.299103 1_555
Ca0 O10 2.329752 1_555
Ca0 O0 2.335392 1_555
Ca0 O4 2.339341 1_555
Ca0 O6 2.722333 1_555
La0 O8 2.434167 1_555
La0 O10 2.466045 1_555
La0 O9 2.575818 1_555
La0 O2 2.578613 1_555
La0 O1 2.579671 1_555
La0 O7 2.580267 1_556
La0 O5 2.602945 1_555
La0 O6 2.756852 1_555
La1 O4 2.175724 1_555
La1 O11 2.428471 1_555
La1 O0 2.441367 1_455
La1 O3 2.524098 1_465
La1 O9 2.772434 1_464
La1 O7 2.853119 1_565
La1 O5 3.044612 1_454
Co0 O8 1.958076 1_555
Co0 O4 1.960246 1_555
Co0 O6 1.999259 1_455
Co0 O1 2.122887 1_555
Co0 O10 2.636173 1_455
Co1 O11 1.994271 1_556
Co1 O2 2.032791 1_565
Co1 O0 2.083983 1_556
Co1 O5 2.221875 1_555
Co1 O9 2.317510 1_565
Co1 O7 2.477166 1_566
O0 Pb0 2.294480 1_565
O1 Sb0 2.010542 1_555
O1 Pb1 2.577546 1_455
O2 Sb1 2.001347 1_555
O3 Sb0 1.992660 1_654
O3 Pb0 2.326905 1_555
O5 Sb0 2.069108 1_655
O5 Pb1 2.607911 1_555
O6 Sb1 2.002121 1_555
O7 Sb0 2.050904 1_554
O7 Pb0 2.370347 1_555
O8 Sb1 2.105278 1_555
O9 Sb0 2.048716 1_655
O9 Pb1 2.602520 1_545
O10 Sb1 2.206998 1_565
O10 Pb1 2.508701 1_555
O11 Sb0 1.995687 1_554
