# generated using pymatgen
data_YGaCo
_symmetry_space_group_name_H-M   'P 1'
_cell_length_a   4.22789500
_cell_length_b   6.86156800
_cell_length_c   7.37485500
_cell_angle_alpha   90.00000000
_cell_angle_beta   90.00000000
_cell_angle_gamma   90.00000000
_symmetry_Int_Tables_number   1
_chemical_formula_structural   YGaCo
_chemical_formula_sum   'Y4 Ga4 Co4'
_cell_volume   213.94446272
_cell_formula_units_Z   4
loop_
 _symmetry_equiv_pos_site_id
 _symmetry_equiv_pos_as_xyz
  1  'x, y, z'
loop_
 _atom_site_type_symbol
 _atom_site_label
 _atom_site_symmetry_multiplicity
 _atom_site_fract_x
 _atom_site_fract_y
 _atom_site_fract_z
 _atom_site_occupancy
  Y  Y0  1  0.25000000  0.01655100  0.80913600  1
  Y  Y1  1  0.25000000  0.51655100  0.69086400  1
  Y  Y2  1  0.75000000  0.98344900  0.19086400  1
  Y  Y3  1  0.75000000  0.48344900  0.30913600  1
  Ga  Ga0  1  0.25000000  0.17319700  0.42185800  1
  Ga  Ga1  1  0.25000000  0.67319700  0.07814200  1
  Ga  Ga2  1  0.75000000  0.82680300  0.57814200  1
  Ga  Ga3  1  0.75000000  0.32680300  0.92185800  1
  Co  Co0  1  0.25000000  0.79772200  0.39962500  1
  Co  Co1  1  0.25000000  0.29772200  0.10037500  1
  Co  Co2  1  0.75000000  0.20227800  0.60037500  1
  Co  Co3  1  0.75000000  0.70227800  0.89962500  1
loop_
_geom_bond_atom_site_label_1
_geom_bond_atom_site_label_2
_geom_bond_distance
_geom_bond_site_symmetry_2
Y0 Y2 3.527839 1_546
Y0 Y2 3.527839 1_446
Y0 Y1 3.539926 1_555
Y0 Y1 3.539926 1_545
Y1 Y3 3.527839 1_455
Y1 Y3 3.527839 1_555
Y2 Y3 3.539926 1_565
Y2 Y3 3.539926 1_555
Ga0 Y2 3.010975 1_545
Ga0 Y2 3.010975 1_445
Ga0 Y0 3.051670 1_555
Ga0 Y1 3.079978 1_555
Ga0 Y3 3.113150 1_455
Ga0 Y3 3.113150 1_555
Ga1 Y3 3.010975 1_455
Ga1 Y3 3.010975 1_555
Ga1 Y1 3.051670 1_554
Ga1 Y0 3.079978 1_564
Ga1 Y2 3.113150 1_555
Ga1 Y2 3.113150 1_455
Ga2 Y0 3.010975 1_565
Ga2 Y0 3.010975 1_665
Ga2 Y2 3.051670 1_555
Ga2 Y3 3.079978 1_555
Ga2 Y1 3.113150 1_555
Ga2 Y1 3.113150 1_655
Ga3 Y1 3.010975 1_555
Ga3 Y1 3.010975 1_655
Ga3 Y3 3.051670 1_556
Ga3 Y2 3.079978 1_546
Ga3 Y0 3.113150 1_655
Ga3 Y0 3.113150 1_555
Co0 Ga2 2.498372 1_455
Co0 Ga2 2.498372 1_555
Co0 Ga1 2.520156 1_555
Co0 Ga0 2.581560 1_565
Co0 Y1 2.887099 1_555
Co0 Y2 2.909145 1_455
Co0 Y2 2.909145 1_555
Co0 Y3 3.092605 1_555
Co0 Y3 3.092605 1_455
Co0 Y0 3.372750 1_565
Co1 Ga3 2.498372 1_554
Co1 Ga3 2.498372 1_454
Co1 Ga0 2.520156 1_555
Co1 Ga1 2.581560 1_555
Co1 Y0 2.887099 1_554
Co1 Y3 2.909145 1_455
Co1 Y3 2.909145 1_555
Co1 Y2 3.092605 1_445
Co1 Y2 3.092605 1_545
Co1 Y1 3.372750 1_554
Co2 Ga0 2.498372 1_555
Co2 Ga0 2.498372 1_655
Co2 Ga3 2.520156 1_555
Co2 Ga2 2.581560 1_545
Co2 Y3 2.887099 1_555
Co2 Y0 2.909145 1_655
Co2 Y0 2.909145 1_555
Co2 Y1 3.092605 1_555
Co2 Y1 3.092605 1_655
Co2 Y2 3.372750 1_545
Co3 Ga1 2.498372 1_656
Co3 Ga1 2.498372 1_556
Co3 Ga2 2.520156 1_555
Co3 Ga3 2.581560 1_555
Co3 Y2 2.887099 1_556
Co3 Y1 2.909145 1_655
Co3 Y1 2.909145 1_555
Co3 Y0 3.092605 1_665
Co3 Y0 3.092605 1_565
Co3 Y3 3.372750 1_556
