# generated using pymatgen
data_Mg16Al12Ga
_symmetry_space_group_name_H-M   'P 1'
_cell_length_a   9.11019863
_cell_length_b   9.11019863
_cell_length_c   9.04222356
_cell_angle_alpha   70.77469631
_cell_angle_beta   70.77469631
_cell_angle_gamma   109.58668289
_symmetry_Int_Tables_number   1
_chemical_formula_structural   Mg16Al12Ga
_chemical_formula_sum   'Mg16 Al12 Ga1'
_cell_volume   580.37099917
_cell_formula_units_Z   1
loop_
 _symmetry_equiv_pos_site_id
 _symmetry_equiv_pos_as_xyz
  1  'x, y, z'
loop_
 _atom_site_type_symbol
 _atom_site_label
 _atom_site_symmetry_multiplicity
 _atom_site_fract_x
 _atom_site_fract_y
 _atom_site_fract_z
 _atom_site_occupancy
  Mg  Mg0  1  0.99805700  0.99805700  0.34745200  1
  Mg  Mg1  1  0.31311600  0.31311600  0.28960500  1
  Mg  Mg2  1  0.35392700  0.35392700  0.66237800  1
  Mg  Mg3  1  0.00224600  0.00224600  0.99756300  1
  Mg  Mg4  1  0.40227300  0.67821600  0.99735800  1
  Mg  Mg5  1  0.28670900  0.59930900  0.39989000  1
  Mg  Mg6  1  0.68354500  0.99970200  0.60028200  1
  Mg  Mg7  1  0.65314100  0.00106200  0.99612200  1
  Mg  Mg8  1  0.31931100  0.70833200  0.68641100  1
  Mg  Mg9  1  0.99796800  0.40083400  0.31768000  1
  Mg  Mg10  1  0.40083400  0.99796800  0.31768000  1
  Mg  Mg11  1  0.70833200  0.31931100  0.68641100  1
  Mg  Mg12  1  0.00106200  0.65314100  0.99612200  1
  Mg  Mg13  1  0.99970200  0.68354500  0.60028200  1
  Mg  Mg14  1  0.59930900  0.28670900  0.39989000  1
  Mg  Mg15  1  0.67821600  0.40227300  0.99735800  1
  Al  Al0  1  0.63495600  0.63495600  0.17778200  1
  Al  Al1  1  0.81650100  0.81650100  0.81305500  1
  Al  Al2  1  0.17835400  0.36102200  0.00756700  1
  Al  Al3  1  0.99898300  0.18422100  0.63480500  1
  Al  Al4  1  0.63398700  0.81953000  0.36477000  1
  Al  Al5  1  0.81041500  0.18063000  0.18602900  1
  Al  Al6  1  0.99633200  0.36633000  0.81735000  1
  Al  Al7  1  0.36633000  0.99633200  0.81735000  1
  Al  Al8  1  0.18063000  0.81041500  0.18602900  1
  Al  Al9  1  0.81953000  0.63398700  0.36477000  1
  Al  Al10  1  0.18422100  0.99898300  0.63480500  1
  Al  Al11  1  0.36102200  0.17835400  0.00756700  1
  Ga  Ga0  1  0.62097400  0.62097400  0.69563800  1
loop_
_geom_bond_atom_site_label_1
_geom_bond_atom_site_label_2
_geom_bond_distance
_geom_bond_site_symmetry_2
Mg0 Mg6 3.028845 1_555
Mg0 Mg13 3.028845 1_555
Mg0 Mg1 3.041266 1_665
Mg0 Mg3 3.138850 1_664
Mg1 Mg15 3.113304 1_554
Mg1 Mg4 3.113304 1_554
Mg1 Mg5 3.134494 1_555
Mg1 Mg14 3.134494 1_555
Mg1 Mg9 3.184011 1_455
Mg1 Mg10 3.184011 1_545
Mg2 Mg5 3.063740 1_555
Mg2 Mg3 3.169144 1_555
Mg2 Mg8 3.416253 1_555
Mg3 Mg7 3.181150 1_455
Mg4 Mg7 3.054297 1_565
Mg4 Mg8 3.095543 1_555
Mg4 Mg6 3.165315 1_555
Mg4 Mg5 3.181039 1_556
Mg4 Mg9 3.202362 1_456
Mg5 Mg9 3.118566 1_455
Mg5 Mg8 3.128977 1_555
Mg6 Mg8 3.113595 1_555
Mg6 Mg9 3.178176 1_565
Mg10 Mg7 3.039657 1_564
Mg10 Mg14 3.118566 1_565
Mg10 Mg8 3.145164 1_555
Mg10 Mg5 3.163115 1_555
Mg10 Mg13 3.178176 1_455
Mg10 Mg15 3.202362 1_564
Mg11 Mg7 3.041311 1_555
Mg11 Mg15 3.095543 1_555
Mg11 Mg13 3.113595 1_555
Mg11 Mg14 3.128977 1_555
Mg11 Mg9 3.145164 1_555
Mg11 Mg6 3.209968 1_545
Mg11 Mg2 3.416253 1_555
Mg12 Mg9 3.039657 1_456
Mg12 Mg8 3.041311 1_555
Mg12 Mg15 3.054297 1_455
Mg12 Mg3 3.181150 1_565
Mg13 Mg5 3.138430 1_655
Mg13 Mg15 3.165315 1_555
Mg13 Mg8 3.209968 1_655
Mg14 Mg2 3.063740 1_555
Mg14 Mg6 3.138430 1_545
Mg14 Mg9 3.163115 1_555
Mg14 Mg15 3.181039 1_554
Al0 Al1 2.707203 1_554
Al0 Al4 2.749323 1_555
Al0 Al9 2.749323 1_555
Al0 Mg1 2.923567 1_555
Al0 Mg5 2.981245 1_555
Al0 Mg14 2.981245 1_555
Al0 Mg7 3.113217 1_564
Al0 Mg12 3.113217 1_654
Al0 Mg4 3.118431 1_554
Al0 Mg15 3.118431 1_554
Al0 Mg3 3.218606 1_664
Al1 Al3 2.744008 1_565
Al1 Al10 2.744008 1_655
Al1 Ga0 2.799432 1_555
Al1 Mg13 2.954600 1_555
Al1 Mg6 2.954600 1_555
Al1 Mg12 3.109714 1_655
Al1 Mg7 3.109714 1_565
Al1 Mg15 3.145374 1_555
Al1 Mg4 3.145374 1_555
Al1 Mg3 3.210759 1_665
Al2 Al5 2.745641 1_455
Al2 Al6 2.754603 1_454
Al2 Mg4 2.875465 1_554
Al2 Mg9 2.954629 1_455
Al2 Mg8 2.976936 1_554
Al2 Mg2 3.036321 1_554
Al2 Mg0 3.068985 1_445
Al2 Mg1 3.144793 1_555
Al2 Mg3 3.168572 1_554
Al3 Al6 2.698446 1_555
Al3 Mg9 2.901730 1_555
Al3 Mg1 2.960075 1_655
Al3 Mg6 2.979754 1_545
Al3 Mg7 3.080750 1_555
Al3 Mg3 3.166168 1_655
Al3 Mg5 3.174940 1_655
Al3 Mg2 3.215835 1_655
Al3 Mg11 3.239295 1_555
Al4 Al5 2.694485 1_565
Al4 Al9 2.762268 1_555
Al4 Ga0 2.880190 1_555
Al4 Mg8 2.885272 1_555
Al4 Mg5 2.966218 1_555
Al4 Mg0 3.089343 1_555
Al4 Mg7 3.109655 1_564
Al4 Mg10 3.128961 1_555
Al4 Mg6 3.141870 1_555
Al4 Mg3 3.214161 1_664
Al5 Al6 2.736853 1_554
Al5 Mg14 2.898240 1_555
Al5 Mg9 2.995846 1_555
Al5 Mg15 3.025413 1_554
Al5 Mg7 3.094609 1_554
Al5 Mg10 3.117107 1_545
Al5 Mg0 3.125692 1_545
Al5 Mg6 3.144671 1_545
Al5 Mg3 3.219625 1_654
Al6 Mg13 2.893131 1_555
Al6 Mg8 2.982763 1_655
Al6 Mg15 3.006030 1_555
Al6 Mg7 3.100826 1_555
Al6 Mg2 3.151835 1_655
Al6 Mg11 3.177353 1_555
Al6 Mg5 3.183509 1_655
Al6 Mg3 3.205940 1_655
Al7 Al8 2.736853 1_556
Al7 Mg6 2.893131 1_555
Al7 Mg11 2.982763 1_565
Al7 Mg4 3.006030 1_555
Al7 Mg12 3.100826 1_555
Al7 Mg2 3.151835 1_565
Al7 Mg8 3.177353 1_555
Al7 Mg14 3.183509 1_565
Al7 Mg3 3.205940 1_565
Al8 Al9 2.694485 1_455
Al8 Mg5 2.898240 1_555
Al8 Mg10 2.995846 1_555
Al8 Mg4 3.025413 1_554
Al8 Mg12 3.094609 1_554
Al8 Mg9 3.117107 1_455
Al8 Mg0 3.125692 1_455
Al8 Mg13 3.144671 1_455
Al8 Mg3 3.219625 1_564
Al9 Ga0 2.880190 1_555
Al9 Mg11 2.885272 1_555
Al9 Mg14 2.966218 1_555
Al9 Mg0 3.089343 1_555
Al9 Mg12 3.109655 1_654
Al9 Mg9 3.128961 1_555
Al9 Mg13 3.141870 1_555
Al9 Mg3 3.214161 1_664
Al10 Al7 2.698446 1_555
Al10 Al3 2.757728 1_465
Al10 Mg10 2.901730 1_555
Al10 Mg1 2.960075 1_565
Al10 Mg13 2.979754 1_455
Al10 Mg12 3.080750 1_555
Al10 Mg3 3.166168 1_565
Al10 Mg14 3.174940 1_565
Al10 Mg2 3.215835 1_565
Al10 Mg8 3.239295 1_555
Al11 Al2 2.719467 1_555
Al11 Al8 2.745641 1_545
Al11 Al7 2.754603 1_544
Al11 Mg15 2.875465 1_554
Al11 Mg10 2.954629 1_545
Al11 Mg11 2.976936 1_554
Al11 Mg2 3.036321 1_554
Al11 Mg0 3.068985 1_445
Al11 Mg1 3.144793 1_555
Al11 Mg3 3.168572 1_554
Ga0 Mg2 2.987198 1_555
Ga0 Mg6 3.061261 1_555
Ga0 Mg13 3.061261 1_555
Ga0 Mg15 3.120676 1_555
Ga0 Mg4 3.120676 1_555
Ga0 Mg8 3.125169 1_555
Ga0 Mg11 3.125169 1_555
Ga0 Mg0 3.369996 1_555
