# generated using pymatgen
data_Ba4GaN3O
_symmetry_space_group_name_H-M   'P 1'
_cell_length_a   7.98743300
_cell_length_b   8.02536600
_cell_length_c   25.01159000
_cell_angle_alpha   90.00000000
_cell_angle_beta   90.00000000
_cell_angle_gamma   90.00000000
_symmetry_Int_Tables_number   1
_chemical_formula_structural   Ba4GaN3O
_chemical_formula_sum   'Ba32 Ga8 N24 O8'
_cell_volume   1603.29477367
_cell_formula_units_Z   8
loop_
 _symmetry_equiv_pos_site_id
 _symmetry_equiv_pos_as_xyz
  1  'x, y, z'
loop_
 _atom_site_type_symbol
 _atom_site_label
 _atom_site_symmetry_multiplicity
 _atom_site_fract_x
 _atom_site_fract_y
 _atom_site_fract_z
 _atom_site_occupancy
  Ba  Ba0  1  0.16599100  0.85743900  0.43682100  1
  Ba  Ba1  1  0.83400900  0.35743900  0.06317900  1
  Ba  Ba2  1  0.33400900  0.14256100  0.93682100  1
  Ba  Ba3  1  0.66599100  0.64256100  0.56317900  1
  Ba  Ba4  1  0.83400900  0.14256100  0.56317900  1
  Ba  Ba5  1  0.16599100  0.64256100  0.93682100  1
  Ba  Ba6  1  0.66599100  0.85743900  0.06317900  1
  Ba  Ba7  1  0.33400900  0.35743900  0.43682100  1
  Ba  Ba8  1  0.35744900  0.51893800  0.06120600  1
  Ba  Ba9  1  0.64255100  0.01893800  0.43879400  1
  Ba  Ba10  1  0.14255100  0.48106200  0.56120600  1
  Ba  Ba11  1  0.85744900  0.98106200  0.93879400  1
  Ba  Ba12  1  0.64255100  0.48106200  0.93879400  1
  Ba  Ba13  1  0.35744900  0.98106200  0.56120600  1
  Ba  Ba14  1  0.85744900  0.51893800  0.43879400  1
  Ba  Ba15  1  0.14255100  0.01893800  0.06120600  1
  Ba  Ba16  1  0.26335900  0.95314100  0.26645700  1
  Ba  Ba17  1  0.73664100  0.45314100  0.23354300  1
  Ba  Ba18  1  0.23664100  0.04685900  0.76645700  1
  Ba  Ba19  1  0.76335900  0.54685900  0.73354300  1
  Ba  Ba20  1  0.73664100  0.04685900  0.73354300  1
  Ba  Ba21  1  0.26335900  0.54685900  0.76645700  1
  Ba  Ba22  1  0.76335900  0.95314100  0.23354300  1
  Ba  Ba23  1  0.23664100  0.45314100  0.26645700  1
  Ba  Ba24  1  0.04053300  0.69115600  0.14972700  1
  Ba  Ba25  1  0.95946700  0.19115600  0.35027300  1
  Ba  Ba26  1  0.45946700  0.30884400  0.64972700  1
  Ba  Ba27  1  0.54053300  0.80884400  0.85027300  1
  Ba  Ba28  1  0.95946700  0.30884400  0.85027300  1
  Ba  Ba29  1  0.04053300  0.80884400  0.64972700  1
  Ba  Ba30  1  0.54053300  0.69115600  0.35027300  1
  Ba  Ba31  1  0.45946700  0.19115600  0.14972700  1
  Ga  Ga0  1  0.48437600  0.70630000  0.17145500  1
  Ga  Ga1  1  0.51562400  0.20630000  0.32854500  1
  Ga  Ga2  1  0.01562400  0.29370000  0.67145500  1
  Ga  Ga3  1  0.98437600  0.79370000  0.82854500  1
  Ga  Ga4  1  0.51562400  0.29370000  0.82854500  1
  Ga  Ga5  1  0.48437600  0.79370000  0.67145500  1
  Ga  Ga6  1  0.98437600  0.70630000  0.32854500  1
  Ga  Ga7  1  0.01562400  0.20630000  0.17145500  1
  N  N0  1  0.13882400  0.57445000  0.37233200  1
  N  N1  1  0.86117600  0.07445000  0.12766800  1
  N  N2  1  0.36117600  0.42555000  0.87233200  1
  N  N3  1  0.63882400  0.92555000  0.62766800  1
  N  N4  1  0.86117600  0.42555000  0.62766800  1
  N  N5  1  0.13882400  0.92555000  0.87233200  1
  N  N6  1  0.63882400  0.57445000  0.12766800  1
  N  N7  1  0.36117600  0.07445000  0.37233200  1
  N  N8  1  0.34885000  0.86098300  0.13194900  1
  N  N9  1  0.65115000  0.36098300  0.36805100  1
  N  N10  1  0.15115000  0.13901700  0.63194900  1
  N  N11  1  0.84885000  0.63901700  0.86805100  1
  N  N12  1  0.65115000  0.13901700  0.86805100  1
  N  N13  1  0.34885000  0.63901700  0.63194900  1
  N  N14  1  0.84885000  0.86098300  0.36805100  1
  N  N15  1  0.15115000  0.36098300  0.13194900  1
  N  N16  1  0.49123900  0.69139300  0.24721900  1
  N  N17  1  0.50876100  0.19139300  0.25278100  1
  N  N18  1  0.00876100  0.30860700  0.74721900  1
  N  N19  1  0.99123900  0.80860700  0.75278100  1
  N  N20  1  0.50876100  0.30860700  0.75278100  1
  N  N21  1  0.49123900  0.80860700  0.74721900  1
  N  N22  1  0.99123900  0.69139300  0.25278100  1
  N  N23  1  0.00876100  0.19139300  0.24721900  1
  O  O0  1  0.97432500  0.76833800  0.02533800  1
  O  O1  1  0.02567500  0.26833800  0.47466200  1
  O  O2  1  0.52567500  0.23166200  0.52533800  1
  O  O3  1  0.47432500  0.73166200  0.97466200  1
  O  O4  1  0.02567500  0.23166200  0.97466200  1
  O  O5  1  0.97432500  0.73166200  0.52533800  1
  O  O6  1  0.47432500  0.76833800  0.47466200  1
  O  O7  1  0.52567500  0.26833800  0.02533800  1
loop_
_geom_bond_atom_site_label_1
_geom_bond_atom_site_label_2
_geom_bond_distance
_geom_bond_site_symmetry_2
Ba0 O6 2.733585 1_555
Ba0 N0 2.794033 1_555
Ba0 N7 2.839963 1_565
Ba0 O5 2.874751 1_455
Ba0 N14 3.062055 1_455
Ba1 O7 2.733585 1_555
Ba1 N1 2.794033 1_555
Ba1 N6 2.839963 1_555
Ba1 O4 2.874751 1_654
Ba1 N15 3.062055 1_655
Ba2 O4 2.733585 1_555
Ba2 N2 2.794033 1_555
Ba2 N5 2.839963 1_545
Ba2 O7 2.874751 1_556
Ba2 N12 3.062055 1_555
Ba3 O5 2.733585 1_555
Ba3 N3 2.794033 1_555
Ba3 N4 2.839963 1_555
Ba3 O6 2.874751 1_555
Ba3 N13 3.062055 1_555
Ba4 O2 2.733585 1_555
Ba4 N4 2.794033 1_555
Ba4 N3 2.839963 1_545
Ba4 O1 2.874751 1_655
Ba4 N10 3.062055 1_655
Ba5 O3 2.733585 1_555
Ba5 N5 2.794033 1_555
Ba5 N2 2.839963 1_555
Ba5 O0 2.874751 1_456
Ba5 N11 3.062055 1_455
Ba6 O0 2.733585 1_555
Ba6 N6 2.794033 1_555
Ba6 N1 2.839963 1_565
Ba6 O3 2.874751 1_554
Ba6 N8 3.062055 1_555
Ba7 O1 2.733585 1_555
Ba7 N7 2.794033 1_555
Ba7 N0 2.839963 1_555
Ba7 O2 2.874751 1_555
Ba7 N9 3.062055 1_555
Ba8 O7 2.579744 1_555
Ba8 N15 2.730005 1_555
Ba8 N6 2.830703 1_555
Ba8 O3 2.910583 1_554
Ba9 O6 2.579744 1_545
Ba9 N14 2.730005 1_545
Ba9 N7 2.830703 1_555
Ba9 O2 2.910583 1_555
Ba10 O5 2.579744 1_455
Ba10 N13 2.730005 1_555
Ba10 N4 2.830703 1_455
Ba10 O1 2.910583 1_555
Ba11 O4 2.579744 1_665
Ba11 N12 2.730005 1_565
Ba11 N5 2.830703 1_655
Ba11 O0 2.910583 1_556
Ba12 O3 2.579744 1_555
Ba12 N11 2.730005 1_555
Ba12 N2 2.830703 1_555
Ba12 O7 2.910583 1_556
Ba13 O2 2.579744 1_565
Ba13 N10 2.730005 1_565
Ba13 N3 2.830703 1_555
Ba13 O6 2.910583 1_555
Ba14 O1 2.579744 1_655
Ba14 N9 2.730005 1_555
Ba14 N0 2.830703 1_655
Ba14 O5 2.910583 1_555
Ba15 O0 2.579744 1_445
Ba15 N8 2.730005 1_545
Ba15 N1 2.830703 1_455
Ba15 O4 2.910583 1_554
Ba16 N17 2.759546 1_565
Ba16 N16 2.820849 1_555
Ba16 N23 2.832484 1_565
Ba16 N7 2.927573 1_565
Ba16 N22 3.042022 1_455
Ba17 N16 2.759546 1_555
Ba17 N17 2.820849 1_555
Ba17 N22 2.832484 1_555
Ba17 N6 2.927573 1_555
Ba17 N23 3.042022 1_655
Ba18 N19 2.759546 1_445
Ba18 N18 2.820849 1_555
Ba18 N21 2.832484 1_545
Ba18 N5 2.927573 1_545
Ba18 N20 3.042022 1_555
Ba19 N18 2.759546 1_655
Ba19 N19 2.820849 1_555
Ba19 N20 2.832484 1_555
Ba19 N4 2.927573 1_555
Ba19 N21 3.042022 1_555
Ba20 N21 2.759546 1_545
Ba20 N20 2.820849 1_555
Ba20 N19 2.832484 1_545
Ba20 N3 2.927573 1_545
Ba20 N18 3.042022 1_655
Ba21 N20 2.759546 1_555
Ba21 N21 2.820849 1_555
Ba21 N18 2.832484 1_555
Ba21 N2 2.927573 1_555
Ba21 N19 3.042022 1_455
Ba22 N23 2.759546 1_665
Ba22 N22 2.820849 1_555
Ba22 N17 2.832484 1_565
Ba22 N1 2.927573 1_565
Ba22 N16 3.042022 1_555
Ba23 N22 2.759546 1_455
Ba23 N23 2.820849 1_555
Ba23 N16 2.832484 1_555
Ba23 N0 2.927573 1_555
Ba23 N17 3.042022 1_555
Ba24 N22 2.607444 1_455
Ba24 N15 2.828356 1_555
Ba24 N8 2.849558 1_555
Ba24 O0 3.216006 1_455
Ba24 N6 3.387759 1_455
Ba24 N1 3.437876 1_465
Ba25 N23 2.607444 1_655
Ba25 N14 2.828356 1_545
Ba25 N9 2.849558 1_555
Ba25 O1 3.216006 1_655
Ba25 N7 3.387759 1_655
Ba25 N0 3.437876 1_655
Ba26 N20 2.607444 1_555
Ba26 N13 2.828356 1_555
Ba26 N10 2.849558 1_555
Ba26 O2 3.216006 1_555
Ba26 N4 3.387759 1_555
Ba26 N3 3.437876 1_545
Ba27 N21 2.607444 1_555
Ba27 N12 2.828356 1_565
Ba27 N11 2.849558 1_555
Ba27 O3 3.216006 1_555
Ba27 N5 3.387759 1_555
Ba27 N2 3.437876 1_555
Ba28 N18 2.607444 1_655
Ba28 N11 2.828356 1_555
Ba28 N12 2.849558 1_555
Ba28 O4 3.216006 1_655
Ba28 N2 3.387759 1_655
Ba28 N5 3.437876 1_645
Ba29 N19 2.607444 1_455
Ba29 N10 2.828356 1_565
Ba29 N13 2.849558 1_555
Ba29 O5 3.216006 1_455
Ba29 N3 3.387759 1_455
Ba29 N4 3.437876 1_455
Ba30 N16 2.607444 1_555
Ba30 N9 2.828356 1_555
Ba30 N14 2.849558 1_555
Ba30 O6 3.216006 1_555
Ba30 N0 3.387759 1_555
Ba30 N7 3.437876 1_565
Ba31 N17 2.607444 1_555
Ba31 N8 2.828356 1_545
Ba31 N15 2.849558 1_555
Ba31 O7 3.216006 1_555
Ba31 N1 3.387759 1_555
Ba31 N6 3.437876 1_555
Ga0 N16 1.899542 1_555
Ga0 N8 1.920734 1_555
Ga0 N6 1.959839 1_555
Ga1 N17 1.899542 1_555
Ga1 N9 1.920734 1_555
Ga1 N7 1.959839 1_555
Ga2 N18 1.899542 1_555
Ga2 N10 1.920734 1_555
Ga2 N4 1.959839 1_455
Ga3 N19 1.899542 1_555
Ga3 N11 1.920734 1_555
Ga3 N5 1.959839 1_655
Ga4 N20 1.899542 1_555
Ga4 N12 1.920734 1_555
Ga4 N2 1.959839 1_555
Ga5 N21 1.899542 1_555
Ga5 N13 1.920734 1_555
Ga5 N3 1.959839 1_555
Ga6 N22 1.899542 1_555
Ga6 N14 1.920734 1_555
Ga6 N0 1.959839 1_655
Ga7 N23 1.899542 1_555
Ga7 N15 1.920734 1_555
Ga7 N1 1.959839 1_455
