# generated using pymatgen
data_Li5Fe3(SbO5)2
_symmetry_space_group_name_H-M   'P 1'
_cell_length_a   5.33157949
_cell_length_b   15.01273164
_cell_length_c   5.41095192
_cell_angle_alpha   86.50673433
_cell_angle_beta   99.72630167
_cell_angle_gamma   92.99842999
_symmetry_Int_Tables_number   1
_chemical_formula_structural   Li5Fe3(SbO5)2
_chemical_formula_sum   'Li10 Fe6 Sb4 O20'
_cell_volume   425.69382462
_cell_formula_units_Z   2
loop_
 _symmetry_equiv_pos_site_id
 _symmetry_equiv_pos_as_xyz
  1  'x, y, z'
loop_
 _atom_site_type_symbol
 _atom_site_label
 _atom_site_symmetry_multiplicity
 _atom_site_fract_x
 _atom_site_fract_y
 _atom_site_fract_z
 _atom_site_occupancy
  Li  Li0  1  0.24989100  0.25436900  0.25451400  1
  Li  Li1  1  0.75208200  0.74763700  0.74699600  1
  Li  Li2  1  0.70090300  0.20752100  0.02445000  1
  Li  Li3  1  0.19558400  0.69998200  0.53043400  1
  Li  Li4  1  0.81833100  0.29992900  0.45859500  1
  Li  Li5  1  0.30371900  0.79808200  0.97107600  1
  Li  Li6  1  0.90829900  0.40074400  0.01654500  1
  Li  Li7  1  0.38970600  0.90506000  0.48886400  1
  Li  Li8  1  0.59567800  0.10726400  0.50729800  1
  Li  Li9  1  0.11225100  0.59047300  0.00783300  1
  Fe  Fe0  1  0.00099700  0.49944200  0.50124000  1
  Fe  Fe1  1  0.95006500  0.94431600  0.74786300  1
  Fe  Fe2  1  0.04880300  0.05384000  0.25127100  1
  Fe  Fe3  1  0.50398200  0.99956800  0.99172800  1
  Fe  Fe4  1  0.45045700  0.44570000  0.25524900  1
  Fe  Fe5  1  0.55479500  0.55611900  0.74892800  1
  Sb  Sb0  1  0.36770800  0.35500400  0.76137400  1
  Sb  Sb1  1  0.85415000  0.84963600  0.25212900  1
  Sb  Sb2  1  0.14184700  0.14749000  0.74785500  1
  Sb  Sb3  1  0.64561500  0.65182100  0.24360200  1
  O  O0  1  0.67524800  0.43623200  0.64335000  1
  O  O1  1  0.15151500  0.91612100  0.13284900  1
  O  O2  1  0.85499300  0.06651400  0.86764600  1
  O  O3  1  0.34970100  0.58665800  0.36696000  1
  O  O4  1  0.23268600  0.47892600  0.87617000  1
  O  O5  1  0.72232500  0.96002200  0.36600200  1
  O  O6  1  0.26403400  0.02830800  0.62735500  1
  O  O7  1  0.77627700  0.54245600  0.12984300  1
  O  O8  1  0.01526700  0.25273500  0.88530300  1
  O  O9  1  0.55358200  0.77237500  0.36049200  1
  O  O10  1  0.43960700  0.20823000  0.62380900  1
  O  O11  1  0.94525000  0.73146500  0.13171000  1
  O  O12  1  0.36265500  0.11378000  0.08699400  1
  O  O13  1  0.86579600  0.62878200  0.58311100  1
  O  O14  1  0.10794500  0.38849800  0.36214800  1
  O  O15  1  0.63459500  0.87625800  0.91162600  1
  O  O16  1  0.57587500  0.33156800  0.13655800  1
  O  O17  1  0.06087300  0.82845300  0.59692400  1
  O  O18  1  0.92569500  0.16372100  0.40498400  1
  O  O19  1  0.44121700  0.67489900  0.89832200  1
loop_
_geom_bond_atom_site_label_1
_geom_bond_atom_site_label_2
_geom_bond_distance
_geom_bond_site_symmetry_2
Li0 O8 2.171382 1_554
Li0 O10 2.171992 1_555
Li0 O16 2.201179 1_555
Li0 O14 2.327651 1_555
Li0 O18 2.365778 1_455
Li0 O12 2.487541 1_555
Li1 O11 2.166368 1_556
Li1 O19 2.184064 1_555
Li1 O13 2.196692 1_555
Li1 O9 2.197806 1_555
Li1 O17 2.228127 1_655
Li1 O15 2.332202 1_555
Li2 O8 2.020368 1_654
Li2 O16 2.164393 1_555
Li2 O18 2.278618 1_555
Li2 O12 2.286908 1_555
Li2 O10 2.370395 1_554
Li2 O2 2.551945 1_554
Li3 O13 2.061790 1_455
Li3 O17 2.163783 1_555
Li3 O19 2.213339 1_555
Li3 O3 2.219741 1_555
Li3 O11 2.372391 1_455
Li3 O9 2.433944 1_555
Li4 O16 2.033544 1_555
Li4 O14 2.097025 1_655
Li4 O18 2.200930 1_555
Li4 O8 2.448427 1_655
Li4 O0 2.537498 1_555
Li4 O10 2.634508 1_555
Li5 O19 2.107226 1_555
Li5 O15 2.126512 1_555
Li5 O17 2.246452 1_555
Li5 O1 2.268154 1_556
Li5 O9 2.317275 1_556
Li5 O11 2.379871 1_456
Li6 O14 1.992454 1_655
Li6 O16 2.180727 1_555
Li6 O0 2.235135 1_554
Li6 O4 2.251349 1_654
Li6 O7 2.420513 1_555
Li6 O8 2.495724 1_654
Li7 O5 2.108580 1_555
Li7 O1 2.123143 1_555
Li7 O17 2.189007 1_555
Li7 O6 2.214132 1_565
Li7 O9 2.401988 1_555
Li7 O15 2.460467 1_555
Li8 O10 1.952710 1_555
Li8 O18 2.058321 1_555
Li8 O6 2.242441 1_555
Li8 O2 2.262703 1_555
Li8 O12 2.399206 1_555
Li8 O5 2.542308 1_545
Li9 O4 2.033879 1_554
Li9 O7 2.090609 1_455
Li9 O3 2.131876 1_555
Li9 O19 2.249635 1_554
Li9 O13 2.497300 1_454
Li9 O11 2.508804 1_455
Fe0 O14 2.015643 1_555
Fe0 O0 2.167491 1_455
Fe0 O13 2.201223 1_455
Fe0 O4 2.203044 1_555
Fe0 O7 2.236130 1_455
Fe0 O3 2.405110 1_555
Fe1 O2 2.096590 1_565
Fe1 O17 2.117853 1_655
Fe1 O1 2.203713 1_656
Fe1 O6 2.205692 1_665
Fe1 O15 2.207165 1_555
Fe1 O5 2.218582 1_555
Fe2 O18 2.075752 1_455
Fe2 O12 2.155801 1_555
Fe2 O2 2.158817 1_454
Fe2 O6 2.183297 1_555
Fe2 O1 2.320270 1_545
Fe2 O5 2.324024 1_445
Fe3 O12 2.036555 1_566
Fe3 O15 2.105811 1_555
Fe3 O6 2.193592 1_565
Fe3 O5 2.222204 1_556
Fe3 O2 2.260251 1_565
Fe3 O1 2.409545 1_556
Fe4 O16 2.048050 1_555
Fe4 O14 2.130516 1_555
Fe4 O4 2.221584 1_554
Fe4 O0 2.235536 1_555
Fe4 O3 2.348749 1_555
Fe4 O7 2.366906 1_555
Fe5 O0 2.085273 1_555
Fe5 O19 2.157317 1_555
Fe5 O7 2.199118 1_556
Fe5 O3 2.202486 1_555
Fe5 O4 2.204630 1_555
Fe5 O13 2.222289 1_555
O0 Sb0 2.152478 1_555
O1 Sb1 2.007006 1_455
O2 Sb2 2.069163 1_655
O3 Sb3 2.001609 1_555
O4 Sb0 2.190252 1_555
O5 Sb1 2.003132 1_555
O6 Sb2 2.111528 1_555
O7 Sb3 1.986864 1_555
O8 Sb2 1.982264 1_555
O8 Sb0 2.517199 1_555
O9 Sb3 2.062428 1_555
O9 Sb1 2.073000 1_555
O10 Sb2 1.984008 1_555
O10 Sb0 2.437414 1_555
O11 Sb1 2.036109 1_555
O11 Sb3 2.094528 1_555
O12 Sb2 2.056386 1_554
O13 Sb3 2.027042 1_555
O14 Sb0 2.401453 1_555
O15 Sb1 2.038400 1_556
O16 Sb0 2.160881 1_554
O17 Sb1 2.016482 1_455
O18 Sb2 2.020230 1_655
O19 Sb3 2.017630 1_556
