# generated using pymatgen
data_Nb6ZnTe8
_symmetry_space_group_name_H-M   'P 1'
_cell_length_a   10.79663459
_cell_length_b   10.79663459
_cell_length_c   3.66408800
_cell_angle_alpha   90.00000000
_cell_angle_beta   90.00000000
_cell_angle_gamma   120.00000361
_symmetry_Int_Tables_number   1
_chemical_formula_structural   Nb6ZnTe8
_chemical_formula_sum   'Nb6 Zn1 Te8'
_cell_volume   369.89061927
_cell_formula_units_Z   1
loop_
 _symmetry_equiv_pos_site_id
 _symmetry_equiv_pos_as_xyz
  1  'x, y, z'
loop_
 _atom_site_type_symbol
 _atom_site_label
 _atom_site_symmetry_multiplicity
 _atom_site_fract_x
 _atom_site_fract_y
 _atom_site_fract_z
 _atom_site_occupancy
  Nb  Nb0  1  0.10293600  0.48893800  0.74999900  1
  Nb  Nb1  1  0.51106200  0.61399800  0.74999900  1
  Nb  Nb2  1  0.38600200  0.89706400  0.74999900  1
  Nb  Nb3  1  0.89706400  0.51106200  0.25000100  1
  Nb  Nb4  1  0.48893800  0.38600200  0.25000100  1
  Nb  Nb5  1  0.61399800  0.10293600  0.25000100  1
  Zn  Zn0  1  0.00000000  0.00000000  0.50000000  1
  Te  Te0  1  0.27159100  0.33540300  0.75006500  1
  Te  Te1  1  0.66459700  0.93618800  0.75006500  1
  Te  Te2  1  0.06381200  0.72840900  0.75006500  1
  Te  Te3  1  0.72840900  0.66459700  0.24993500  1
  Te  Te4  1  0.33540300  0.06381200  0.24993500  1
  Te  Te5  1  0.93618800  0.27159100  0.24993500  1
  Te  Te6  1  0.66666700  0.33333300  0.74981100  1
  Te  Te7  1  0.33333300  0.66666700  0.25018900  1
loop_
_geom_bond_atom_site_label_1
_geom_bond_atom_site_label_2
_geom_bond_distance
_geom_bond_site_symmetry_2
Nb0 Te5 2.806888 1_456
Nb0 Te5 2.807194 1_455
Nb0 Te2 2.820508 1_555
Nb0 Te7 2.906958 1_555
Nb0 Te7 2.907836 1_556
Nb0 Te0 3.013634 1_555
Nb1 Te3 2.806888 1_556
Nb1 Te3 2.807194 1_555
Nb1 Te0 2.820508 1_555
Nb1 Te7 2.906964 1_555
Nb1 Te7 2.907842 1_556
Nb1 Te1 3.013633 1_555
Nb2 Te4 2.806888 1_566
Nb2 Te4 2.807194 1_565
Nb2 Te1 2.820508 1_555
Nb2 Te7 2.906956 1_555
Nb2 Te7 2.907833 1_556
Nb2 Te2 3.013633 1_555
Nb3 Te2 2.806888 1_654
Nb3 Te2 2.807194 1_655
Nb3 Te5 2.820508 1_555
Nb3 Te6 2.906958 1_555
Nb3 Te6 2.907836 1_554
Nb3 Te3 3.013634 1_555
Nb4 Te0 2.806888 1_554
Nb4 Te0 2.807194 1_555
Nb4 Te3 2.820508 1_555
Nb4 Te6 2.906964 1_555
Nb4 Te6 2.907842 1_554
Nb4 Te4 3.013633 1_555
Nb5 Te1 2.806888 1_544
Nb5 Te1 2.807194 1_545
Nb5 Te4 2.820508 1_555
Nb5 Te6 2.906956 1_555
Nb5 Te6 2.907833 1_554
Nb5 Te5 3.013633 1_555
