# generated using pymatgen
data_CsLaZr6CCl18
_symmetry_space_group_name_H-M   'P 1'
_cell_length_a   9.66630638
_cell_length_b   9.66630638
_cell_length_c   18.30880700
_cell_angle_alpha   90.00000000
_cell_angle_beta   90.00000000
_cell_angle_gamma   120.00000263
_symmetry_Int_Tables_number   1
_chemical_formula_structural   CsLaZr6CCl18
_chemical_formula_sum   'Cs2 La2 Zr12 C2 Cl36'
_cell_volume   1481.53453591
_cell_formula_units_Z   2
loop_
 _symmetry_equiv_pos_site_id
 _symmetry_equiv_pos_as_xyz
  1  'x, y, z'
loop_
 _atom_site_type_symbol
 _atom_site_label
 _atom_site_symmetry_multiplicity
 _atom_site_fract_x
 _atom_site_fract_y
 _atom_site_fract_z
 _atom_site_occupancy
  Cs  Cs0  1  0.33333300  0.66666700  0.75000000  1
  Cs  Cs1  1  0.66666700  0.33333300  0.25000000  1
  La  La0  1  0.66666700  0.33333300  0.75000000  1
  La  La1  1  0.33333300  0.66666700  0.25000000  1
  Zr  Zr0  1  0.82865200  0.03864100  0.57213000  1
  Zr  Zr1  1  0.17134800  0.96135900  0.42787000  1
  Zr  Zr2  1  0.96135900  0.79001100  0.57213000  1
  Zr  Zr3  1  0.82865200  0.79001100  0.92787000  1
  Zr  Zr4  1  0.03864100  0.20998900  0.42787000  1
  Zr  Zr5  1  0.17134800  0.20998900  0.07213000  1
  Zr  Zr6  1  0.20998900  0.17134800  0.57213000  1
  Zr  Zr7  1  0.96135900  0.17134800  0.92787000  1
  Zr  Zr8  1  0.79001100  0.82865200  0.42787000  1
  Zr  Zr9  1  0.03864100  0.82865200  0.07213000  1
  Zr  Zr10  1  0.20998900  0.03864100  0.92787000  1
  Zr  Zr11  1  0.79001100  0.96135900  0.07213000  1
  C  C0  1  0.00000000  0.00000000  0.50000000  1
  C  C1  1  0.00000000  0.00000000  0.00000000  1
  Cl  Cl0  1  0.27351500  0.42209000  0.50071300  1
  Cl  Cl1  1  0.72648500  0.57791000  0.49928700  1
  Cl  Cl2  1  0.57791000  0.85142500  0.50071300  1
  Cl  Cl3  1  0.27351500  0.85142500  0.99928700  1
  Cl  Cl4  1  0.42209000  0.14857500  0.49928700  1
  Cl  Cl5  1  0.72648500  0.14857500  0.00071300  1
  Cl  Cl6  1  0.14857500  0.72648500  0.50071300  1
  Cl  Cl7  1  0.57791000  0.72648500  0.99928700  1
  Cl  Cl8  1  0.85142500  0.27351500  0.49928700  1
  Cl  Cl9  1  0.42209000  0.27351500  0.00071300  1
  Cl  Cl10  1  0.14857500  0.42209000  0.99928700  1
  Cl  Cl11  1  0.85142500  0.57791000  0.00071300  1
  Cl  Cl12  1  0.04250600  0.23302500  0.66015600  1
  Cl  Cl13  1  0.95749400  0.76697500  0.33984400  1
  Cl  Cl14  1  0.76697500  0.80948100  0.66015600  1
  Cl  Cl15  1  0.04250600  0.80948100  0.83984400  1
  Cl  Cl16  1  0.23302500  0.19051900  0.33984400  1
  Cl  Cl17  1  0.95749400  0.19051900  0.16015600  1
  Cl  Cl18  1  0.19051900  0.95749400  0.66015600  1
  Cl  Cl19  1  0.76697500  0.95749400  0.83984400  1
  Cl  Cl20  1  0.80948100  0.04250600  0.33984400  1
  Cl  Cl21  1  0.23302500  0.04250600  0.16015600  1
  Cl  Cl22  1  0.19051900  0.23302500  0.83984400  1
  Cl  Cl23  1  0.80948100  0.76697500  0.16015600  1
  Cl  Cl24  1  0.62246800  0.07466700  0.66082200  1
  Cl  Cl25  1  0.37753200  0.92533300  0.33917800  1
  Cl  Cl26  1  0.92533300  0.54780100  0.66082200  1
  Cl  Cl27  1  0.62246800  0.54780100  0.83917800  1
  Cl  Cl28  1  0.07466700  0.45219900  0.33917800  1
  Cl  Cl29  1  0.37753200  0.45219900  0.16082200  1
  Cl  Cl30  1  0.45219900  0.37753200  0.66082200  1
  Cl  Cl31  1  0.92533300  0.37753200  0.83917800  1
  Cl  Cl32  1  0.54780100  0.62246800  0.33917800  1
  Cl  Cl33  1  0.07466700  0.62246800  0.16082200  1
  Cl  Cl34  1  0.45219900  0.07466700  0.83917800  1
  Cl  Cl35  1  0.54780100  0.92533300  0.16082200  1
loop_
_geom_bond_atom_site_label_1
_geom_bond_atom_site_label_2
_geom_bond_distance
_geom_bond_site_symmetry_2
C0 Zr6 2.290312 1_555
C0 Zr8 2.290312 1_445
C0 Zr4 2.290312 1_555
C0 Zr2 2.290312 1_445
C0 Zr1 2.290312 1_545
C0 Zr0 2.290312 1_455
C1 Zr5 2.290312 1_555
C1 Zr3 2.290312 1_444
C1 Zr10 2.290312 1_554
C1 Zr11 2.290312 1_445
C1 Zr7 2.290312 1_454
C1 Zr9 2.290312 1_545
Cl0 Zr6 2.544212 1_555
Cl0 Zr4 2.545958 1_555
Cl1 Zr8 2.544212 1_555
Cl1 Zr2 2.545958 1_555
Cl2 Zr0 2.544212 1_565
Cl2 Zr8 2.545959 1_555
Cl3 Zr10 2.544212 1_565
Cl3 Zr9 2.545959 1_556
Cl4 Zr1 2.544212 1_545
Cl4 Zr6 2.545959 1_555
Cl5 Zr11 2.544212 1_545
Cl5 Zr7 2.545959 1_554
Cl6 Zr2 2.544212 1_455
Cl6 Zr1 2.545959 1_555
Cl7 Zr3 2.544212 1_555
Cl7 Zr11 2.545958 1_556
Cl8 Zr4 2.544212 1_655
Cl8 Zr0 2.545959 1_555
Cl9 Zr5 2.544212 1_555
Cl9 Zr10 2.545958 1_554
Cl10 Zr7 2.544212 1_455
Cl10 Zr5 2.545959 1_556
Cl11 Zr9 2.544212 1_655
Cl11 Zr3 2.545959 1_554
Cl12 Zr0 2.552845 1_455
Cl12 Zr6 2.557152 1_555
Cl12 Cs0 4.049127 1_555
Cl13 Zr1 2.552845 1_655
Cl13 Zr8 2.557152 1_555
Cl13 Cs1 4.049127 1_555
Cl14 Zr2 2.552845 1_555
Cl14 Zr0 2.557152 1_565
Cl14 Cs0 4.049128 1_555
Cl15 Zr3 2.552845 1_455
Cl15 Zr10 2.557152 1_565
Cl15 Cs0 4.049120 1_555
Cl16 Zr4 2.552845 1_555
Cl16 Zr1 2.557152 1_545
Cl16 Cs1 4.049128 1_555
Cl17 Zr5 2.552845 1_655
Cl17 Zr11 2.557152 1_545
Cl17 Cs1 4.049120 1_555
Cl18 Zr6 2.552845 1_565
Cl18 Zr2 2.557152 1_455
Cl18 Cs0 4.049120 1_555
Cl19 Zr7 2.552845 1_565
Cl19 Zr3 2.557152 1_555
Cl19 Cs0 4.049127 1_555
Cl20 Zr8 2.552845 1_545
Cl20 Zr4 2.557152 1_655
Cl20 Cs1 4.049120 1_555
Cl21 Zr9 2.552845 1_545
Cl21 Zr5 2.557152 1_555
Cl21 Cs1 4.049127 1_555
Cl22 Zr10 2.552845 1_555
Cl22 Zr7 2.557152 1_455
Cl22 Cs0 4.049128 1_555
Cl23 Zr11 2.552845 1_555
Cl23 Zr9 2.557152 1_655
Cl23 Cs1 4.049128 1_555
Cl24 Zr0 2.724774 1_555
Cl24 La0 2.834053 1_555
Cl24 Cs0 3.874089 1_545
Cl25 Zr1 2.724774 1_555
Cl25 La1 2.834053 1_555
Cl25 Cs1 3.874089 1_565
Cl26 Zr2 2.724774 1_555
Cl26 La0 2.834056 1_555
Cl26 Cs0 3.874087 1_655
Cl27 Zr3 2.724774 1_555
Cl27 La0 2.834061 1_555
Cl27 Cs0 3.874095 1_555
Cl28 Zr4 2.724774 1_555
Cl28 La1 2.834056 1_555
Cl28 Cs1 3.874087 1_455
Cl29 Zr5 2.724774 1_555
Cl29 La1 2.834061 1_555
Cl29 Cs1 3.874095 1_555
Cl30 Zr6 2.724774 1_555
Cl30 La0 2.834061 1_555
Cl30 Cs0 3.874095 1_555
Cl31 Zr7 2.724774 1_555
Cl31 La0 2.834053 1_555
Cl31 Cs0 3.874089 1_655
Cl32 Zr8 2.724774 1_555
Cl32 La1 2.834061 1_555
Cl32 Cs1 3.874095 1_555
Cl33 Zr9 2.724774 1_555
Cl33 La1 2.834053 1_555
Cl33 Cs1 3.874089 1_455
Cl34 Zr10 2.724774 1_555
Cl34 La0 2.834056 1_555
Cl34 Cs0 3.874087 1_545
Cl35 Zr11 2.724774 1_555
Cl35 La1 2.834056 1_555
Cl35 Cs1 3.874087 1_565
