# generated using pymatgen
data_BaTe(SO2)4
_symmetry_space_group_name_H-M   'P 1'
_cell_length_a   5.03068271
_cell_length_b   10.89533700
_cell_length_c   12.61037075
_cell_angle_alpha   115.59449604
_cell_angle_beta   91.84461920
_cell_angle_gamma   90.00000000
_symmetry_Int_Tables_number   1
_chemical_formula_structural   BaTe(SO2)4
_chemical_formula_sum   'Ba2 Te2 S8 O16'
_cell_volume   622.96627482
_cell_formula_units_Z   2
loop_
 _symmetry_equiv_pos_site_id
 _symmetry_equiv_pos_as_xyz
  1  'x, y, z'
loop_
 _atom_site_type_symbol
 _atom_site_label
 _atom_site_symmetry_multiplicity
 _atom_site_fract_x
 _atom_site_fract_y
 _atom_site_fract_z
 _atom_site_occupancy
  Ba  Ba0  1  0.15845800  0.21550300  0.43100700  1
  Ba  Ba1  1  0.84154200  0.78449700  0.56899300  1
  Te  Te0  1  0.76256400  0.37191300  0.74382600  1
  Te  Te1  1  0.23743600  0.62808700  0.25617400  1
  S  S0  1  0.48781300  0.25430200  0.83736800  1
  S  S1  1  0.51218700  0.41693300  0.16263200  1
  S  S2  1  0.51218700  0.74569800  0.16263200  1
  S  S3  1  0.48781300  0.58306700  0.83736800  1
  S  S4  1  0.34035700  0.08647600  0.68132300  1
  S  S5  1  0.65964300  0.40515400  0.31867700  1
  S  S6  1  0.65964300  0.91352400  0.31867700  1
  S  S7  1  0.34035700  0.59484600  0.68132300  1
  O  O0  1  0.66359800  0.29345600  0.58691100  1
  O  O1  1  0.33640200  0.70654400  0.41308900  1
  O  O2  1  0.25620800  0.08573700  0.17147400  1
  O  O3  1  0.74379200  0.91426300  0.82852600  1
  O  O4  1  0.57781400  0.02063700  0.61915800  1
  O  O5  1  0.42218600  0.40147800  0.38084200  1
  O  O6  1  0.42218600  0.97936300  0.38084200  1
  O  O7  1  0.57781400  0.59852200  0.61915800  1
  O  O8  1  0.19050500  0.00358800  0.72473000  1
  O  O9  1  0.80949500  0.27885800  0.27527000  1
  O  O10  1  0.80949500  0.99641200  0.27527000  1
  O  O11  1  0.19050500  0.72114200  0.72473000  1
  O  O12  1  0.17159800  0.14716900  0.61967100  1
  O  O13  1  0.82840200  0.52749800  0.38032900  1
  O  O14  1  0.82840200  0.85283100  0.38032900  1
  O  O15  1  0.17159800  0.47250200  0.61967100  1
loop_
_geom_bond_atom_site_label_1
_geom_bond_atom_site_label_2
_geom_bond_distance
_geom_bond_site_symmetry_2
Ba0 O6 2.725370 1_545
Ba0 O5 2.725370 1_555
Ba0 O12 2.781940 1_555
Ba0 O15 2.781947 1_555
Ba0 O10 2.892148 1_445
Ba0 O9 2.892153 1_455
Ba0 O2 3.009605 1_555
Ba0 O0 3.046294 1_555
Ba0 O0 3.107486 1_455
Ba1 O4 2.725370 1_565
Ba1 O7 2.725370 1_555
Ba1 O14 2.781940 1_555
Ba1 O13 2.781947 1_555
Ba1 O8 2.892148 1_665
Ba1 O11 2.892153 1_655
Ba1 O3 3.009605 1_555
Ba1 O1 3.046294 1_555
Ba1 O1 3.107486 1_655
S0 S4 2.136161 1_555
S0 Te0 2.520882 1_555
S1 S5 2.136151 1_555
S1 Te1 2.520890 1_555
S2 S6 2.136161 1_555
S2 Te1 2.520882 1_555
S3 S7 2.136151 1_555
S3 Te0 2.520890 1_555
O0 Te0 1.835540 1_555
O1 Te1 1.835540 1_555
O4 S4 1.459636 1_555
O5 S5 1.459642 1_555
O6 S6 1.459636 1_555
O7 S7 1.459642 1_555
O8 S4 1.461906 1_555
O9 S5 1.461915 1_555
O10 S6 1.461906 1_555
O11 S7 1.461915 1_555
O12 S4 1.471110 1_555
O13 S5 1.471103 1_555
O14 S6 1.471110 1_555
O15 S7 1.471103 1_555
