# generated using pymatgen
data_LuNiGe3
_symmetry_space_group_name_H-M   'P 1'
_cell_length_a   10.95820560
_cell_length_b   10.95820560
_cell_length_c   4.04606500
_cell_angle_alpha   90.00000000
_cell_angle_beta   90.00000000
_cell_angle_gamma   158.52510572
_symmetry_Int_Tables_number   1
_chemical_formula_structural   LuNiGe3
_chemical_formula_sum   'Lu2 Ni2 Ge6'
_cell_volume   177.87043467
_cell_formula_units_Z   2
loop_
 _symmetry_equiv_pos_site_id
 _symmetry_equiv_pos_as_xyz
  1  'x, y, z'
loop_
 _atom_site_type_symbol
 _atom_site_label
 _atom_site_symmetry_multiplicity
 _atom_site_fract_x
 _atom_site_fract_y
 _atom_site_fract_z
 _atom_site_occupancy
  Lu  Lu0  1  0.16898100  0.83101900  0.50000000  1
  Lu  Lu1  1  0.83101900  0.16898100  0.50000000  1
  Ni  Ni0  1  0.38839500  0.61160500  0.00000000  1
  Ni  Ni1  1  0.61160500  0.38839500  0.00000000  1
  Ge  Ge0  1  0.28289200  0.71710800  0.00000000  1
  Ge  Ge1  1  0.71710800  0.28289200  0.00000000  1
  Ge  Ge2  1  0.44258300  0.55741700  0.50000000  1
  Ge  Ge3  1  0.55741700  0.44258300  0.50000000  1
  Ge  Ge4  1  0.05770400  0.94229600  0.00000000  1
  Ge  Ge5  1  0.94229600  0.05770400  0.00000000  1
loop_
_geom_bond_atom_site_label_1
_geom_bond_atom_site_label_2
_geom_bond_distance
_geom_bond_site_symmetry_2
Lu0 Ni1 3.128449 1_565
Lu0 Ni1 3.128449 1_566
Lu0 Ni1 3.128449 1_456
Lu0 Ni1 3.128449 1_455
Lu1 Ni0 3.128449 1_545
Lu1 Ni0 3.128449 1_655
Lu1 Ni0 3.128449 1_546
Lu1 Ni0 3.128449 1_656
Ge0 Ni0 2.271763 1_555
Ge0 Ge1 2.484886 1_565
Ge0 Ge1 2.484886 1_455
Ge0 Lu1 3.055283 1_565
Ge0 Lu1 3.055283 1_455
Ge0 Lu1 3.055283 1_454
Ge0 Lu1 3.055283 1_564
Ge0 Lu0 3.179455 1_555
Ge0 Lu0 3.179455 1_554
Ge1 Ni1 2.271763 1_555
Ge1 Lu0 3.055283 1_654
Ge1 Lu0 3.055283 1_655
Ge1 Lu0 3.055283 1_545
Ge1 Lu0 3.055283 1_544
Ge1 Lu1 3.179455 1_555
Ge1 Lu1 3.179455 1_554
Ge2 Ni0 2.335404 1_555
Ge2 Ni0 2.335404 1_556
Ge2 Ge3 2.472684 1_555
Ge2 Ge5 2.874173 1_455
Ge2 Ge5 2.874173 1_566
Ge2 Ge5 2.874173 1_456
Ge2 Ge5 2.874173 1_565
Ge2 Lu1 3.152631 1_455
Ge2 Lu1 3.152631 1_565
Ge3 Ni1 2.335404 1_556
Ge3 Ni1 2.335404 1_555
Ge3 Ge4 2.874173 1_655
Ge3 Ge4 2.874173 1_656
Ge3 Ge4 2.874173 1_545
Ge3 Ge4 2.874173 1_546
Ge3 Lu0 3.152631 1_545
Ge3 Lu0 3.152631 1_655
Ge4 Ni1 2.348455 1_455
Ge4 Ni1 2.348455 1_565
Ge4 Ge5 2.485044 1_465
Ge4 Lu0 3.135908 1_554
Ge4 Lu0 3.135908 1_555
Ge5 Ni0 2.348455 1_545
Ge5 Ni0 2.348455 1_655
Ge5 Lu1 3.135908 1_555
Ge5 Lu1 3.135908 1_554
