# generated using pymatgen
data_Gd(NO5)3
_symmetry_space_group_name_H-M   'P 1'
_cell_length_a   7.10998900
_cell_length_b   8.60873743
_cell_length_c   11.61680865
_cell_angle_alpha   68.78702281
_cell_angle_beta   77.36852412
_cell_angle_gamma   70.83927561
_symmetry_Int_Tables_number   1
_chemical_formula_structural   Gd(NO5)3
_chemical_formula_sum   'Gd2 N6 O30'
_cell_volume   622.09781385
_cell_formula_units_Z   2
loop_
 _symmetry_equiv_pos_site_id
 _symmetry_equiv_pos_as_xyz
  1  'x, y, z'
loop_
 _atom_site_type_symbol
 _atom_site_label
 _atom_site_symmetry_multiplicity
 _atom_site_fract_x
 _atom_site_fract_y
 _atom_site_fract_z
 _atom_site_occupancy
  Gd  Gd0  1  0.50795000  0.15166000  0.21290200  1
  Gd  Gd1  1  0.49205000  0.84834000  0.78709800  1
  N  N0  1  0.76299000  0.83228300  0.33228100  1
  N  N1  1  0.23701000  0.16771700  0.66771900  1
  N  N2  1  0.57254400  0.57752900  0.68476300  1
  N  N3  1  0.42745600  0.42247100  0.31523700  1
  N  N4  1  0.75951900  0.17509400  0.98638600  1
  N  N5  1  0.24048100  0.82490600  0.01361400  1
  O  O0  1  0.61001500  0.11099000  0.00875600  1
  O  O1  1  0.38998500  0.88901000  0.99124400  1
  O  O2  1  0.24097600  0.01851700  0.65906000  1
  O  O3  1  0.75902400  0.98148300  0.34094000  1
  O  O4  1  0.79144600  0.62728300  0.00706400  1
  O  O5  1  0.20855400  0.37271700  0.99293600  1
  O  O6  1  0.87923400  0.84449800  0.78699600  1
  O  O7  1  0.12076600  0.15550200  0.21300400  1
  O  O8  1  0.18067500  0.38080400  0.89001500  1
  O  O9  1  0.81932500  0.61919600  0.10998500  1
  O  O10  1  0.88534200  0.17284600  0.89690500  1
  O  O11  1  0.11465800  0.82715400  0.10309500  1
  O  O12  1  0.23299000  0.75753700  0.93065600  1
  O  O13  1  0.76701000  0.24246300  0.06934400  1
  O  O14  1  0.56105800  0.54941900  0.80408400  1
  O  O15  1  0.43894200  0.45058100  0.19591600  1
  O  O16  1  0.88728900  0.69907200  0.37589600  1
  O  O17  1  0.11271100  0.30092800  0.62410400  1
  O  O18  1  0.62318600  0.84270800  0.27249300  1
  O  O19  1  0.37681400  0.15729200  0.72750700  1
  O  O20  1  0.58061800  0.73415200  0.61681100  1
  O  O21  1  0.41938200  0.26584800  0.38318900  1
  O  O22  1  0.20465800  0.90388400  0.43759700  1
  O  O23  1  0.79534200  0.09611600  0.56240300  1
  O  O24  1  0.57049200  0.46961500  0.64146300  1
  O  O25  1  0.42950800  0.53038500  0.35853700  1
  O  O26  1  0.95814200  0.73059500  0.73537600  1
  O  O27  1  0.04185800  0.26940500  0.26462400  1
  O  O28  1  0.17469000  0.76516600  0.50484500  1
  O  O29  1  0.82531000  0.23483400  0.49515500  1
loop_
_geom_bond_atom_site_label_1
_geom_bond_atom_site_label_2
_geom_bond_distance
_geom_bond_site_symmetry_2
Gd0 O3 2.326566 1_545
Gd0 O13 2.333063 1_555
Gd0 O18 2.389481 1_545
Gd0 O21 2.394197 1_555
Gd0 O15 2.397451 1_555
Gd0 O0 2.440232 1_555
Gd0 O7 2.741941 1_555
Gd1 O2 2.326566 1_565
Gd1 O12 2.333063 1_555
Gd1 O19 2.389481 1_565
Gd1 O20 2.394197 1_555
Gd1 O14 2.397451 1_555
Gd1 O1 2.440232 1_555
Gd1 O6 2.741941 1_555
N0 O16 1.209514 1_555
N0 O18 1.294902 1_555
N0 O3 1.314968 1_555
N1 O17 1.209514 1_555
N1 O19 1.294902 1_555
N1 O2 1.314968 1_555
N2 O24 1.211013 1_555
N2 O20 1.305818 1_555
N2 O14 1.306639 1_555
N3 O25 1.211013 1_555
N3 O21 1.305818 1_555
N3 O15 1.306639 1_555
N4 O10 1.215604 1_555
N4 O0 1.289364 1_556
N4 O13 1.309626 1_556
N5 O11 1.215604 1_555
N5 O1 1.289364 1_554
N5 O12 1.309626 1_554
O4 O9 1.228001 1_555
O5 O8 1.228001 1_555
O22 O28 1.225103 1_555
O23 O29 1.225103 1_555
O26 O6 1.246237 1_555
O27 O7 1.246237 1_555
