# generated using pymatgen
data_CrN2
_symmetry_space_group_name_H-M   'P 1'
_cell_length_a   4.75922600
_cell_length_b   4.75922600
_cell_length_c   4.75922600
_cell_angle_alpha   90.00000000
_cell_angle_beta   90.00000000
_cell_angle_gamma   90.00000000
_symmetry_Int_Tables_number   1
_chemical_formula_structural   CrN2
_chemical_formula_sum   'Cr4 N8'
_cell_volume   107.79757361
_cell_formula_units_Z   4
loop_
 _symmetry_equiv_pos_site_id
 _symmetry_equiv_pos_as_xyz
  1  'x, y, z'
loop_
 _atom_site_type_symbol
 _atom_site_label
 _atom_site_symmetry_multiplicity
 _atom_site_fract_x
 _atom_site_fract_y
 _atom_site_fract_z
 _atom_site_occupancy
  Cr  Cr0  1  0.50000000  0.50000000  0.00000000  1
  Cr  Cr1  1  0.50000000  0.00000000  0.50000000  1
  Cr  Cr2  1  0.00000000  0.50000000  0.50000000  1
  Cr  Cr3  1  0.00000000  0.00000000  0.00000000  1
  N  N0  1  0.08244500  0.91755500  0.41755500  1
  N  N1  1  0.91755500  0.41755500  0.08244500  1
  N  N2  1  0.41755500  0.08244500  0.91755500  1
  N  N3  1  0.58244500  0.58244500  0.58244500  1
  N  N4  1  0.91755500  0.08244500  0.58244500  1
  N  N5  1  0.08244500  0.58244500  0.91755500  1
  N  N6  1  0.58244500  0.91755500  0.08244500  1
  N  N7  1  0.41755500  0.41755500  0.41755500  1
loop_
_geom_bond_atom_site_label_1
_geom_bond_atom_site_label_2
_geom_bond_distance
_geom_bond_site_symmetry_2
Cr0 N1 2.063258 1_555
Cr0 N5 2.063258 1_554
Cr0 N2 2.063258 1_554
Cr0 N7 2.063258 1_555
Cr0 N3 2.063258 1_554
Cr0 N6 2.063258 1_555
Cr1 N4 2.063258 1_555
Cr1 N6 2.063258 1_545
Cr1 N2 2.063258 1_555
Cr1 N3 2.063258 1_545
Cr1 N7 2.063258 1_555
Cr1 N0 2.063258 1_545
Cr2 N5 2.063258 1_555
Cr2 N4 2.063258 1_455
Cr2 N7 2.063258 1_555
Cr2 N1 2.063258 1_455
Cr2 N0 2.063258 1_555
Cr2 N3 2.063258 1_455
Cr3 N5 2.063258 1_544
Cr3 N1 2.063258 1_455
Cr3 N4 2.063258 1_454
Cr3 N6 2.063258 1_445
Cr3 N2 2.063258 1_554
Cr3 N0 2.063258 1_545
N0 N4 1.359225 1_465
N1 N5 1.359225 1_654
N2 N6 1.359225 1_546
N3 N7 1.359225 1_555
