# generated using pymatgen
data_RbCaBr3
_symmetry_space_group_name_H-M   'P 1'
_cell_length_a   7.78124338
_cell_length_b   8.11548266
_cell_length_c   11.15646626
_cell_angle_alpha   90.00000000
_cell_angle_beta   90.00000000
_cell_angle_gamma   90.00000000
_symmetry_Int_Tables_number   1
_chemical_formula_structural   RbCaBr3
_chemical_formula_sum   'Rb4 Ca4 Br12'
_cell_volume   704.51461973
_cell_formula_units_Z   4
loop_
 _symmetry_equiv_pos_site_id
 _symmetry_equiv_pos_as_xyz
  1  'x, y, z'
loop_
 _atom_site_type_symbol
 _atom_site_label
 _atom_site_symmetry_multiplicity
 _atom_site_fract_x
 _atom_site_fract_y
 _atom_site_fract_z
 _atom_site_occupancy
  Rb  Rb0  1  0.02076625  0.43580703  0.25000000  1
  Rb  Rb1  1  0.97923375  0.56419297  0.75000000  1
  Rb  Rb2  1  0.52076625  0.06419297  0.75000000  1
  Rb  Rb3  1  0.47923375  0.93580703  0.25000000  1
  Ca  Ca0  1  0.00000000  0.00000000  0.00000000  1
  Ca  Ca1  1  0.50000000  0.50000000  0.00000000  1
  Ca  Ca2  1  0.00000000  0.00000000  0.50000000  1
  Ca  Ca3  1  0.50000000  0.50000000  0.50000000  1
  Br  Br0  1  0.29889294  0.20470813  0.04458887  1
  Br  Br1  1  0.70110706  0.79529187  0.95541113  1
  Br  Br2  1  0.79889294  0.29529187  0.95541113  1
  Br  Br3  1  0.70110706  0.79529187  0.54458887  1
  Br  Br4  1  0.20110706  0.70470813  0.04458887  1
  Br  Br5  1  0.29889294  0.20470813  0.45541113  1
  Br  Br6  1  0.20110706  0.70470813  0.45541113  1
  Br  Br7  1  0.79889294  0.29529187  0.54458887  1
  Br  Br8  1  0.58722611  0.51913192  0.25000000  1
  Br  Br9  1  0.41277389  0.48086808  0.75000000  1
  Br  Br10  1  0.08722611  0.98086808  0.75000000  1
  Br  Br11  1  0.91277389  0.01913192  0.25000000  1
loop_
_geom_bond_atom_site_label_1
_geom_bond_atom_site_label_2
_geom_bond_distance
_geom_bond_site_symmetry_2
Br0 Ca0 2.901129 1_555
Br0 Ca1 2.905024 1_555
Br0 Rb3 3.461671 1_545
Br0 Rb0 3.667803 1_555
Br0 Rb2 3.883629 1_554
Br1 Ca0 2.901129 1_666
Br1 Ca1 2.905024 1_556
Br1 Rb2 3.461671 1_565
Br1 Rb1 3.667803 1_555
Br1 Rb3 3.883629 1_556
Br2 Ca1 2.901129 1_556
Br2 Ca0 2.905024 1_656
Br2 Rb1 3.461671 1_555
Br2 Rb2 3.667803 1_555
Br2 Rb0 3.883629 1_656
Br3 Ca2 2.901129 1_665
Br3 Ca3 2.905024 1_555
Br3 Rb2 3.461671 1_565
Br3 Rb1 3.667803 1_555
Br3 Rb3 3.883629 1_555
Br4 Ca1 2.901129 1_555
Br4 Ca0 2.905024 1_565
Br4 Rb0 3.461671 1_555
Br4 Rb3 3.667803 1_555
Br4 Rb1 3.883629 1_454
Br5 Ca2 2.901129 1_555
Br5 Ca3 2.905024 1_555
Br5 Rb3 3.461671 1_545
Br5 Rb0 3.667803 1_555
Br5 Rb2 3.883629 1_555
Br6 Ca3 2.901129 1_555
Br6 Ca2 2.905024 1_565
Br6 Rb0 3.461671 1_555
Br6 Rb3 3.667803 1_555
Br6 Rb1 3.883629 1_455
Br7 Ca3 2.901129 1_555
Br7 Ca2 2.905024 1_655
Br7 Rb1 3.461671 1_555
Br7 Rb2 3.667803 1_555
Br7 Rb0 3.883629 1_655
Br8 Ca3 2.874709 1_555
Br8 Ca1 2.874709 1_555
Br8 Rb0 3.440589 1_655
Br8 Rb3 3.484366 1_555
Br9 Ca1 2.874709 1_556
Br9 Ca3 2.874709 1_555
Br9 Rb1 3.440589 1_455
Br9 Rb2 3.484366 1_555
Br10 Ca2 2.874709 1_565
Br10 Ca0 2.874709 1_566
Br10 Rb2 3.440589 1_565
Br10 Rb1 3.484366 1_455
Br11 Ca0 2.874709 1_655
Br11 Ca2 2.874709 1_655
Br11 Rb3 3.440589 1_545
Br11 Rb0 3.484366 1_655
