# generated using pymatgen
data_Be2Tl2Co(O3F4)2
_symmetry_space_group_name_H-M   'P 1'
_cell_length_a   10.15434800
_cell_length_b   5.82514000
_cell_length_c   9.29613317
_cell_angle_alpha   78.23024987
_cell_angle_beta   90.00000000
_cell_angle_gamma   90.00000000
_symmetry_Int_Tables_number   1
_chemical_formula_structural   Be2Tl2Co(O3F4)2
_chemical_formula_sum   'Be4 Tl4 Co2 O12 F16'
_cell_volume   538.30999719
_cell_formula_units_Z   2
loop_
 _symmetry_equiv_pos_site_id
 _symmetry_equiv_pos_as_xyz
  1  'x, y, z'
loop_
 _atom_site_type_symbol
 _atom_site_label
 _atom_site_symmetry_multiplicity
 _atom_site_fract_x
 _atom_site_fract_y
 _atom_site_fract_z
 _atom_site_occupancy
  Be  Be0  1  0.36724100  0.76615300  0.93070700  1
  Be  Be1  1  0.63275900  0.23384700  0.06929300  1
  Be  Be2  1  0.86724100  0.23384700  0.56929300  1
  Be  Be3  1  0.13275900  0.76615300  0.43070700  1
  Tl  Tl0  1  0.70632800  0.82805700  0.87322500  1
  Tl  Tl1  1  0.29367200  0.17194300  0.12677500  1
  Tl  Tl2  1  0.20632800  0.17194300  0.62677500  1
  Tl  Tl3  1  0.79367200  0.82805700  0.37322500  1
  Co  Co0  1  0.50000000  0.50000000  0.50000000  1
  Co  Co1  1  0.00000000  0.50000000  0.00000000  1
  O  O0  1  0.45637200  0.80341800  0.48241600  1
  O  O1  1  0.54362800  0.19658200  0.51758400  1
  O  O2  1  0.95637200  0.19658200  0.01758400  1
  O  O3  1  0.04362800  0.80341800  0.98241600  1
  O  O4  1  0.10091900  0.41118400  0.86889700  1
  O  O5  1  0.89908100  0.58881600  0.13110300  1
  O  O6  1  0.60091900  0.58881600  0.63110300  1
  O  O7  1  0.39908100  0.41118400  0.36889700  1
  O  O8  1  0.39230100  0.31713300  0.65087800  1
  O  O9  1  0.60769900  0.68286700  0.34912200  1
  O  O10  1  0.89230100  0.68286700  0.84912200  1
  O  O11  1  0.10769900  0.31713300  0.15087800  1
  F  F0  1  0.25620900  0.93364100  0.85113800  1
  F  F1  1  0.74379100  0.06635900  0.14886200  1
  F  F2  1  0.75620900  0.06635900  0.64886200  1
  F  F3  1  0.24379100  0.93364100  0.35113800  1
  F  F4  1  0.49578300  0.81944000  0.83455200  1
  F  F5  1  0.50421700  0.18056000  0.16544800  1
  F  F6  1  0.99578300  0.18056000  0.66544800  1
  F  F7  1  0.00421700  0.81944000  0.33455200  1
  F  F8  1  0.12698200  0.83493700  0.58752100  1
  F  F9  1  0.87301800  0.16506300  0.41247900  1
  F  F10  1  0.62698200  0.16506300  0.91247900  1
  F  F11  1  0.37301800  0.83493700  0.08752100  1
  F  F12  1  0.34314900  0.49877000  0.94984200  1
  F  F13  1  0.65685100  0.50123000  0.05015800  1
  F  F14  1  0.84314900  0.50123000  0.55015800  1
  F  F15  1  0.15685100  0.49877000  0.44984200  1
loop_
_geom_bond_atom_site_label_1
_geom_bond_atom_site_label_2
_geom_bond_distance
_geom_bond_site_symmetry_2
Be0 F12 1.550614 1_555
Be0 F0 1.573454 1_555
Be0 F4 1.576663 1_555
Be0 F11 1.589762 1_556
Be1 F13 1.550614 1_555
Be1 F1 1.573454 1_555
Be1 F5 1.576663 1_555
Be1 F10 1.589762 1_554
Be2 F14 1.550614 1_555
Be2 F2 1.573454 1_555
Be2 F6 1.576663 1_555
Be2 F9 1.589762 1_555
Be3 F15 1.550614 1_555
Be3 F3 1.573454 1_555
Be3 F7 1.576663 1_555
Be3 F8 1.589762 1_555
Co0 O6 1.749400 1_555
Co0 O7 1.749400 1_555
Co0 O1 1.796943 1_555
Co0 O0 1.796943 1_555
Co0 O8 1.920525 1_555
Co0 O9 1.920525 1_555
Co1 O4 1.749400 1_554
Co1 O5 1.749400 1_455
Co1 O3 1.796943 1_554
Co1 O2 1.796943 1_455
Co1 O10 1.920525 1_454
Co1 O11 1.920525 1_555
O8 Tl2 2.099761 1_555
O9 Tl3 2.099761 1_555
O10 Tl0 2.099761 1_555
O11 Tl1 2.099761 1_555
F0 Tl2 2.313552 1_565
F1 Tl3 2.313552 1_545
F2 Tl0 2.313552 1_545
F3 Tl1 2.313552 1_565
F4 Tl0 2.170241 1_555
F5 Tl1 2.170241 1_555
F6 Tl2 2.170241 1_655
F7 Tl3 2.170241 1_455
F8 Tl2 2.219990 1_565
F9 Tl3 2.219990 1_545
F10 Tl0 2.219990 1_545
F11 Tl1 2.219990 1_565
F12 Tl1 2.303212 1_556
F13 Tl0 2.303212 1_554
F14 Tl3 2.303212 1_555
F15 Tl2 2.303212 1_555
