# generated using pymatgen
data_Sn(PbN)4
_symmetry_space_group_name_H-M   'P 1'
_cell_length_a   6.53177393
_cell_length_b   7.76524325
_cell_length_c   8.61190313
_cell_angle_alpha   88.44812464
_cell_angle_beta   78.69912501
_cell_angle_gamma   60.78117372
_symmetry_Int_Tables_number   1
_chemical_formula_structural   Sn(PbN)4
_chemical_formula_sum   'Sn2 Pb8 N8'
_cell_volume   372.63140251
_cell_formula_units_Z   2
loop_
 _symmetry_equiv_pos_site_id
 _symmetry_equiv_pos_as_xyz
  1  'x, y, z'
loop_
 _atom_site_type_symbol
 _atom_site_label
 _atom_site_symmetry_multiplicity
 _atom_site_fract_x
 _atom_site_fract_y
 _atom_site_fract_z
 _atom_site_occupancy
  Sn  Sn0  1  0.74092400  0.81679400  0.77929000  1
  Sn  Sn1  1  0.25907600  0.18320600  0.22071000  1
  Pb  Pb0  1  0.71791700  0.66006300  0.16549100  1
  Pb  Pb1  1  0.28208300  0.33993700  0.83450900  1
  Pb  Pb2  1  0.76183600  0.22794800  0.99500100  1
  Pb  Pb3  1  0.23816400  0.77205200  0.00499900  1
  Pb  Pb4  1  0.77704200  0.42684600  0.59273900  1
  Pb  Pb5  1  0.22295800  0.57315400  0.40726100  1
  Pb  Pb6  1  0.26266500  0.96554900  0.61060100  1
  Pb  Pb7  1  0.73733500  0.03445100  0.38939900  1
  N  N0  1  0.02456900  0.53228200  0.66887700  1
  N  N1  1  0.97543100  0.46771800  0.33112300  1
  N  N2  1  0.83399600  0.88747800  0.97747800  1
  N  N3  1  0.16600400  0.11252200  0.02252200  1
  N  N4  1  0.49260300  0.71715000  0.75725500  1
  N  N5  1  0.50739700  0.28285000  0.24274500  1
  N  N6  1  0.46270600  0.93103700  0.34452100  1
  N  N7  1  0.53729400  0.06896300  0.65547900  1
loop_
_geom_bond_atom_site_label_1
_geom_bond_atom_site_label_2
_geom_bond_distance
_geom_bond_site_symmetry_2
N0 Sn0 2.155199 1_455
N0 Pb4 2.334776 1_455
N0 Pb1 2.338140 1_555
N0 Pb5 2.464658 1_555
N1 Sn1 2.155199 1_655
N1 Pb5 2.334776 1_655
N1 Pb0 2.338140 1_555
N1 Pb4 2.464658 1_555
N2 Sn0 2.089758 1_555
N2 Pb3 2.398417 1_656
N2 Pb2 2.451923 1_565
N2 Pb0 2.643145 1_556
N3 Sn1 2.089758 1_555
N3 Pb2 2.398417 1_454
N3 Pb3 2.451923 1_545
N3 Pb1 2.643145 1_554
N4 Sn0 2.149273 1_555
N4 Pb6 2.313988 1_555
N4 Pb3 2.337448 1_556
N4 Pb4 2.365013 1_555
N5 Sn1 2.149273 1_555
N5 Pb7 2.313988 1_555
N5 Pb2 2.337448 1_554
N5 Pb5 2.365013 1_555
N6 Sn1 2.154141 1_565
N6 Pb0 2.308130 1_555
N6 Pb6 2.355378 1_555
N6 Pb7 2.388907 1_565
N7 Sn0 2.154141 1_545
N7 Pb1 2.308130 1_555
N7 Pb7 2.355378 1_555
N7 Pb6 2.388907 1_545
