# generated using pymatgen
data_P3Pb5BrO12
_symmetry_space_group_name_H-M   'P 1'
_cell_length_a   10.24810365
_cell_length_b   10.24810365
_cell_length_c   7.36138300
_cell_angle_alpha   90.00000000
_cell_angle_beta   90.00000000
_cell_angle_gamma   119.99999774
_symmetry_Int_Tables_number   1
_chemical_formula_structural   P3Pb5BrO12
_chemical_formula_sum   'P6 Pb10 Br2 O24'
_cell_volume   669.54084174
_cell_formula_units_Z   2
loop_
 _symmetry_equiv_pos_site_id
 _symmetry_equiv_pos_as_xyz
  1  'x, y, z'
loop_
 _atom_site_type_symbol
 _atom_site_label
 _atom_site_symmetry_multiplicity
 _atom_site_fract_x
 _atom_site_fract_y
 _atom_site_fract_z
 _atom_site_occupancy
  P  P0  1  0.03415100  0.40902600  0.75000000  1
  P  P1  1  0.96584900  0.59097400  0.25000000  1
  P  P2  1  0.59097400  0.62512500  0.75000000  1
  P  P3  1  0.40902600  0.37487500  0.25000000  1
  P  P4  1  0.37487500  0.96584900  0.75000000  1
  P  P5  1  0.62512500  0.03415100  0.25000000  1
  Pb  Pb0  1  0.25284300  0.26210900  0.75000000  1
  Pb  Pb1  1  0.74715700  0.73789100  0.25000000  1
  Pb  Pb2  1  0.73789100  0.99073500  0.75000000  1
  Pb  Pb3  1  0.26210900  0.00926500  0.25000000  1
  Pb  Pb4  1  0.00926500  0.74715700  0.75000000  1
  Pb  Pb5  1  0.99073500  0.25284300  0.25000000  1
  Pb  Pb6  1  0.33333300  0.66666700  0.49696900  1
  Pb  Pb7  1  0.66666700  0.33333300  0.50303100  1
  Pb  Pb8  1  0.66666700  0.33333300  0.99696900  1
  Pb  Pb9  1  0.33333300  0.66666700  0.00303100  1
  Br  Br0  1  0.00000000  0.00000000  0.50000000  1
  Br  Br1  1  0.00000000  0.00000000  0.00000000  1
  O  O0  1  0.48168000  0.13933800  0.75000000  1
  O  O1  1  0.51832000  0.86066200  0.25000000  1
  O  O2  1  0.86066200  0.34234200  0.75000000  1
  O  O3  1  0.13933800  0.65765800  0.25000000  1
  O  O4  1  0.65765800  0.51832000  0.75000000  1
  O  O5  1  0.34234200  0.48168000  0.25000000  1
  O  O6  1  0.11927700  0.58727800  0.75000000  1
  O  O7  1  0.88072300  0.41272200  0.25000000  1
  O  O8  1  0.41272200  0.53199900  0.75000000  1
  O  O9  1  0.58727800  0.46800100  0.25000000  1
  O  O10  1  0.46800100  0.88072300  0.75000000  1
  O  O11  1  0.53199900  0.11927700  0.25000000  1
  O  O12  1  0.09061100  0.36188500  0.57856800  1
  O  O13  1  0.90938900  0.63811500  0.42143200  1
  O  O14  1  0.63811500  0.72872600  0.57856800  1
  O  O15  1  0.90938900  0.63811500  0.07856800  1
  O  O16  1  0.36188500  0.27127400  0.42143200  1
  O  O17  1  0.09061100  0.36188500  0.92143200  1
  O  O18  1  0.27127400  0.90938900  0.57856800  1
  O  O19  1  0.36188500  0.27127400  0.07856800  1
  O  O20  1  0.72872600  0.09061100  0.42143200  1
  O  O21  1  0.63811500  0.72872600  0.92143200  1
  O  O22  1  0.72872600  0.09061100  0.07856800  1
  O  O23  1  0.27127400  0.90938900  0.92143200  1
loop_
_geom_bond_atom_site_label_1
_geom_bond_atom_site_label_2
_geom_bond_distance
_geom_bond_site_symmetry_2
Br0 Pb4 3.218079 1_545
Br0 Pb5 3.218079 1_455
Br0 Pb0 3.218083 1_555
Br0 Pb1 3.218083 1_445
Br0 Pb2 3.218087 1_445
Br0 Pb3 3.218087 1_555
Br1 Pb4 3.218079 1_544
Br1 Pb5 3.218079 1_455
Br1 Pb0 3.218083 1_554
Br1 Pb1 3.218083 1_445
Br1 Pb2 3.218087 1_444
Br1 Pb3 3.218087 1_555
O0 P4 1.553399 1_545
O0 Pb8 2.661335 1_555
O0 Pb7 2.661335 1_555
O1 P5 1.553399 1_565
O1 Pb9 2.661335 1_555
O1 Pb6 2.661335 1_555
O2 P0 1.553399 1_655
O2 Pb8 2.661331 1_555
O2 Pb7 2.661331 1_555
O3 P1 1.553399 1_455
O3 Pb9 2.661331 1_555
O3 Pb6 2.661331 1_555
O4 P2 1.553399 1_555
O4 Pb8 2.661339 1_555
O4 Pb7 2.661339 1_555
O5 P3 1.553399 1_555
O5 Pb6 2.661339 1_555
O5 Pb9 2.661339 1_555
O6 P0 1.582539 1_555
O6 Pb4 2.408905 1_555
O6 Pb9 2.675604 1_556
O6 Pb6 2.675604 1_555
O7 P1 1.582539 1_555
O7 Pb5 2.408905 1_555
O7 Pb8 2.675604 1_554
O7 Pb7 2.675604 1_555
O8 P2 1.582539 1_555
O8 Pb0 2.408897 1_555
O8 Pb9 2.675611 1_556
O8 Pb6 2.675611 1_555
O9 P3 1.582539 1_555
O9 Pb1 2.408897 1_555
O9 Pb7 2.675611 1_555
O9 Pb8 2.675611 1_554
O10 P4 1.582539 1_555
O10 Pb2 2.408896 1_555
O10 Pb9 2.675606 1_556
O10 Pb6 2.675606 1_555
O11 P5 1.582539 1_555
O11 Pb3 2.408896 1_555
O11 Pb7 2.675606 1_555
O11 Pb8 2.675606 1_554
O12 P0 1.562143 1_555
O12 Pb5 2.646277 1_455
O12 Pb0 2.665007 1_555
O13 P1 1.562143 1_555
O13 Pb4 2.646277 1_655
O13 Pb1 2.665007 1_555
O14 P2 1.562143 1_555
O14 Pb1 2.646279 1_555
O14 Pb2 2.665016 1_555
O15 P1 1.562143 1_555
O15 Pb4 2.646277 1_654
O15 Pb1 2.665007 1_555
O16 P3 1.562143 1_555
O16 Pb0 2.646279 1_555
O16 Pb3 2.665016 1_555
O17 P0 1.562143 1_555
O17 Pb5 2.646277 1_456
O17 Pb0 2.665007 1_555
O18 P4 1.562143 1_555
O18 Pb3 2.646275 1_565
O18 Pb4 2.665015 1_555
O19 P3 1.562143 1_555
O19 Pb0 2.646279 1_554
O19 Pb3 2.665016 1_555
O20 P5 1.562143 1_555
O20 Pb2 2.646275 1_545
O20 Pb5 2.665015 1_555
O21 P2 1.562143 1_555
O21 Pb1 2.646279 1_556
O21 Pb2 2.665016 1_555
O22 P5 1.562143 1_555
O22 Pb2 2.646275 1_544
O22 Pb5 2.665015 1_555
O23 P4 1.562143 1_555
O23 Pb3 2.646275 1_566
O23 Pb4 2.665015 1_555
