# generated using pymatgen
data_NpTe2
_symmetry_space_group_name_H-M   'P 1'
_cell_length_a   4.48794030
_cell_length_b   4.48794030
_cell_length_c   9.05752306
_cell_angle_alpha   90.00000000
_cell_angle_beta   90.00000000
_cell_angle_gamma   90.00000000
_symmetry_Int_Tables_number   1
_chemical_formula_structural   NpTe2
_chemical_formula_sum   'Np2 Te4'
_cell_volume   182.43308016
_cell_formula_units_Z   2
loop_
 _symmetry_equiv_pos_site_id
 _symmetry_equiv_pos_as_xyz
  1  'x, y, z'
loop_
 _atom_site_type_symbol
 _atom_site_label
 _atom_site_symmetry_multiplicity
 _atom_site_fract_x
 _atom_site_fract_y
 _atom_site_fract_z
 _atom_site_occupancy
  Np  Np0  1  0.75000000  0.75000000  0.72858238  1
  Np  Np1  1  0.25000000  0.25000000  0.27141762  1
  Te  Te0  1  0.75000000  0.75000000  0.36511761  1
  Te  Te1  1  0.25000000  0.25000000  0.63488239  1
  Te  Te2  1  0.75000000  0.25000000  -0.00000000  1
  Te  Te3  1  0.25000000  0.75000000  -0.00000000  1
loop_
_geom_bond_atom_site_label_1
_geom_bond_atom_site_label_2
_geom_bond_distance
_geom_bond_site_symmetry_2
Np0 Te1 3.284978 1_555
Np0 Te1 3.284978 1_665
Np0 Te1 3.284978 1_655
Np0 Te1 3.284978 1_565
Np0 Te0 3.292091 1_555
Np0 Te2 3.328512 1_566
Np0 Te2 3.328512 1_556
Np0 Te3 3.328512 1_656
Np0 Te3 3.328512 1_556
Np1 Te0 3.284978 1_445
Np1 Te0 3.284978 1_455
Np1 Te0 3.284978 1_555
Np1 Te0 3.284978 1_545
Np1 Te1 3.292091 1_555
Np1 Te3 3.328512 1_545
Np1 Te2 3.328512 1_455
Np1 Te2 3.328512 1_555
Np1 Te3 3.328512 1_555
Te2 Te3 3.173453 1_655
Te2 Te3 3.173453 1_645
Te2 Te3 3.173453 1_545
Te2 Te3 3.173453 1_555
