# generated using pymatgen
data_Mg14BiC
_symmetry_space_group_name_H-M   'P 1'
_cell_length_a   6.52934890
_cell_length_b   6.85807037
_cell_length_c   9.67780264
_cell_angle_alpha   90.00000000
_cell_angle_beta   90.00000000
_cell_angle_gamma   121.67986968
_symmetry_Int_Tables_number   1
_chemical_formula_structural   Mg14BiC
_chemical_formula_sum   'Mg14 Bi1 C1'
_cell_volume   368.78727541
_cell_formula_units_Z   1
loop_
 _symmetry_equiv_pos_site_id
 _symmetry_equiv_pos_as_xyz
  1  'x, y, z'
loop_
 _atom_site_type_symbol
 _atom_site_label
 _atom_site_symmetry_multiplicity
 _atom_site_fract_x
 _atom_site_fract_y
 _atom_site_fract_z
 _atom_site_occupancy
  Mg  Mg0  1  0.18782393  0.34391146  0.62500000  1
  Mg  Mg1  1  0.19372149  0.84686024  0.62500000  1
  Mg  Mg2  1  0.72089615  0.38323094  0.12500000  1
  Mg  Mg3  1  0.68111526  0.32091989  0.62500000  1
  Mg  Mg4  1  0.72089615  0.83766421  0.12500000  1
  Mg  Mg5  1  0.68111526  0.86019437  0.62500000  1
  Mg  Mg6  1  0.33182247  0.18920368  0.35909089  1
  Mg  Mg7  1  0.33182247  0.18920368  0.89090911  1
  Mg  Mg8  1  0.33182247  0.64261979  0.35909089  1
  Mg  Mg9  1  0.33182247  0.64261979  0.89090911  1
  Mg  Mg10  1  0.84880339  0.17440220  0.35142974  1
  Mg  Mg11  1  0.84880339  0.17440220  0.89857026  1
  Mg  Mg12  1  0.82951531  0.66475815  0.38854243  1
  Mg  Mg13  1  0.82951531  0.66475815  0.86145757  1
  Bi  Bi0  1  0.22200033  0.86099967  0.12500000  1
  C  C0  1  0.90850415  0.20425158  0.12500000  1
loop_
_geom_bond_atom_site_label_1
_geom_bond_atom_site_label_2
_geom_bond_distance
_geom_bond_site_symmetry_2
Mg0 Mg6 3.111267 1_555
Mg0 Mg7 3.111267 1_555
Mg0 Mg8 3.111274 1_555
Mg0 Mg9 3.111274 1_555
Mg0 Mg5 3.228459 1_445
Mg0 Mg3 3.228459 1_455
Mg0 Mg10 3.249320 1_455
Mg0 Mg11 3.249320 1_455
Mg0 Mg5 3.306403 1_555
Mg0 Mg3 3.306403 1_555
Mg0 Mg1 3.429192 1_555
Mg0 Mg1 3.429192 1_545
Mg1 Mg12 3.054842 1_455
Mg1 Mg13 3.054842 1_455
Mg1 Mg3 3.135305 1_565
Mg1 Mg5 3.135305 1_555
Mg1 Mg9 3.274768 1_555
Mg1 Mg8 3.274768 1_555
Mg1 Mg7 3.274776 1_565
Mg1 Mg6 3.274776 1_565
Mg1 Mg3 3.395902 1_455
Mg1 Mg5 3.395902 1_455
Mg3 Mg5 3.159688 1_545
Mg3 Mg6 3.236659 1_555
Mg3 Mg7 3.236659 1_555
Mg5 Mg8 3.236658 1_555
Mg5 Mg9 3.236658 1_555
Mg10 Mg3 3.220809 1_555
Mg10 Mg5 3.220816 1_545
Mg10 Mg12 3.449459 1_555
Mg10 Mg12 3.449460 1_545
Mg11 Mg3 3.220809 1_555
Mg11 Mg5 3.220816 1_545
Mg11 Mg13 3.449459 1_555
Mg11 Mg13 3.449460 1_545
Mg12 Mg4 3.049187 1_555
Mg12 Mg2 3.049194 1_555
Mg12 Mg5 3.055509 1_555
Mg12 Mg3 3.055518 1_555
Mg12 Mg6 3.185285 1_555
Mg12 Mg8 3.185285 1_555
Mg12 Mg6 3.374018 1_665
Mg12 Mg8 3.374018 1_655
Mg13 Mg4 3.049187 1_556
Mg13 Mg2 3.049194 1_556
Mg13 Mg5 3.055509 1_555
Mg13 Mg3 3.055518 1_555
Mg13 Mg7 3.185285 1_555
Mg13 Mg9 3.185285 1_555
Mg13 Mg7 3.374018 1_665
Mg13 Mg9 3.374018 1_655
Bi0 Mg9 3.002932 1_554
Bi0 Mg8 3.002932 1_555
Bi0 Mg7 3.002941 1_564
Bi0 Mg6 3.002941 1_565
Bi0 Mg2 3.190745 1_455
Bi0 Mg4 3.190745 1_455
Bi0 Mg2 3.344285 1_565
Bi0 Mg4 3.344286 1_555
Bi0 Mg12 3.355756 1_455
Bi0 Mg13 3.355756 1_454
C0 Mg4 2.141597 1_545
C0 Mg2 2.141598 1_555
C0 Mg10 2.216308 1_555
C0 Mg11 2.216308 1_554
