# generated using pymatgen
data_ZnSi2Ni3
_symmetry_space_group_name_H-M   'P 1'
_cell_length_a   4.53911900
_cell_length_b   4.55723784
_cell_length_c   13.59940443
_cell_angle_alpha   88.70909322
_cell_angle_beta   89.43849727
_cell_angle_gamma   89.13625051
_symmetry_Int_Tables_number   1
_chemical_formula_structural   ZnSi2Ni3
_chemical_formula_sum   'Zn4 Si8 Ni12'
_cell_volume   281.19922053
_cell_formula_units_Z   4
loop_
 _symmetry_equiv_pos_site_id
 _symmetry_equiv_pos_as_xyz
  1  'x, y, z'
loop_
 _atom_site_type_symbol
 _atom_site_label
 _atom_site_symmetry_multiplicity
 _atom_site_fract_x
 _atom_site_fract_y
 _atom_site_fract_z
 _atom_site_occupancy
  Zn  Zn0  1  0.35036800  0.83085100  0.11870300  1
  Zn  Zn1  1  0.34842800  0.85203900  0.44978200  1
  Zn  Zn2  1  0.34779100  0.84893300  0.78246500  1
  Zn  Zn3  1  0.84687500  0.66676500  0.21552100  1
  Si  Si0  1  0.84481100  0.66587400  0.54970200  1
  Si  Si1  1  0.84593600  0.66174200  0.88193100  1
  Si  Si2  1  0.65681200  0.34658700  0.05631000  1
  Si  Si3  1  0.65423900  0.35106800  0.38494200  1
  Si  Si4  1  0.64970600  0.34439900  0.72014000  1
  Si  Si5  1  0.15354500  0.14572600  0.27958400  1
  Si  Si6  1  0.16301700  0.14786100  0.61566300  1
  Si  Si7  1  0.16790200  0.14811500  0.94818200  1
  Ni  Ni0  1  0.64083700  0.16064900  0.21911000  1
  Ni  Ni1  1  0.65496400  0.16104800  0.55143700  1
  Ni  Ni2  1  0.65592700  0.16024300  0.88323800  1
  Ni  Ni3  1  0.14135400  0.33637700  0.11356500  1
  Ni  Ni4  1  0.12822000  0.35779400  0.45420500  1
  Ni  Ni5  1  0.13132200  0.35528900  0.78544800  1
  Ni  Ni6  1  0.34593200  0.62515900  0.29068800  1
  Ni  Ni7  1  0.35384600  0.62760700  0.61862100  1
  Ni  Ni8  1  0.35687100  0.62743500  0.95149700  1
  Ni  Ni9  1  0.85529900  0.85744500  0.03655900  1
  Ni  Ni10  1  0.85297300  0.86750900  0.38368500  1
  Ni  Ni11  1  0.85302800  0.85348500  0.70902200  1
loop_
_geom_bond_atom_site_label_1
_geom_bond_atom_site_label_2
_geom_bond_distance
_geom_bond_site_symmetry_2
Zn0 Zn3 2.708313 1_555
Zn0 Zn3 2.732049 1_455
Si0 Zn1 2.755601 1_555
Si0 Zn1 2.781654 1_655
Si1 Zn2 2.760439 1_555
Si1 Zn2 2.773602 1_655
Si2 Zn0 2.737504 1_555
Si2 Zn3 2.788948 1_555
Si2 Zn0 2.857349 1_545
Si3 Zn1 2.803068 1_545
Si3 Zn1 2.808534 1_555
Si3 Zn3 2.827023 1_555
Si4 Zn2 2.771125 1_545
Si4 Zn2 2.802357 1_555
Si5 Zn3 2.768055 1_445
Si5 Zn0 2.776440 1_545
Si5 Zn1 2.792135 1_545
Si5 Zn3 2.857598 1_455
Si6 Zn2 2.751098 1_545
Si6 Zn1 2.771348 1_545
Si7 Zn2 2.770104 1_545
Si7 Zn0 2.829241 1_546
Ni0 Si2 2.353546 1_555
Ni0 Si5 2.353666 1_555
Ni0 Zn3 2.425591 1_545
Ni0 Si3 2.436229 1_555
Ni0 Zn0 2.459534 1_545
Ni0 Si5 2.475331 1_655
Ni0 Zn3 2.501201 1_555
Ni1 Si6 2.390872 1_555
Ni1 Si0 2.403930 1_545
Ni1 Si3 2.405904 1_555
Ni1 Zn1 2.452501 1_545
Ni1 Si4 2.459082 1_555
Ni1 Si0 2.468379 1_555
Ni1 Si6 2.473377 1_655
Ni1 Ni4 2.667580 1_655
Ni1 Ni4 2.865827 1_555
Ni2 Si4 2.354028 1_555
Ni2 Si7 2.377681 1_555
Ni2 Si1 2.418190 1_545
Ni2 Si1 2.454538 1_555
Ni2 Zn2 2.456045 1_545
Ni2 Si7 2.493559 1_655
Ni2 Si2 2.520182 1_556
Ni3 Si2 2.339790 1_455
Ni3 Si5 2.401674 1_555
Ni3 Si7 2.426442 1_554
Ni3 Zn3 2.444025 1_455
Ni3 Si2 2.459409 1_555
Ni3 Zn0 2.460856 1_555
Ni3 Zn0 2.478032 1_545
Ni4 Si0 2.303840 1_455
Ni4 Si3 2.357956 1_455
Ni4 Si6 2.380983 1_555
Ni4 Zn1 2.477213 1_555
Ni4 Zn1 2.500129 1_545
Ni4 Si3 2.558150 1_555
Ni4 Si5 2.584828 1_555
Ni4 Ni6 2.697653 1_555
Ni4 Ni7 2.786940 1_555
Ni5 Si1 2.311891 1_455
Ni5 Si4 2.369319 1_455
Ni5 Si7 2.392708 1_555
Ni5 Zn2 2.467751 1_555
Ni5 Zn2 2.495422 1_545
Ni5 Si4 2.507074 1_555
Ni5 Si6 2.516622 1_555
Ni6 Si3 2.252111 1_555
Ni6 Si5 2.373630 1_555
Ni6 Zn1 2.419069 1_555
Ni6 Zn3 2.491978 1_555
Ni6 Zn3 2.497217 1_455
Ni6 Zn0 2.500077 1_555
Ni6 Si5 2.517422 1_565
Ni7 Si4 2.297632 1_555
Ni7 Si6 2.365087 1_555
Ni7 Si0 2.416342 1_555
Ni7 Zn2 2.466195 1_555
Ni7 Zn1 2.492661 1_555
Ni7 Si0 2.504103 1_455
Ni7 Si6 2.511503 1_565
Ni8 Si2 2.329542 1_556
Ni8 Si7 2.360286 1_555
Ni8 Si1 2.410429 1_555
Ni8 Zn0 2.474610 1_556
Ni8 Zn2 2.490152 1_555
Ni8 Si7 2.510542 1_565
Ni8 Si1 2.514665 1_455
Ni9 Si7 2.272468 1_664
Ni9 Si1 2.303606 1_554
Ni9 Si2 2.411349 1_565
Ni9 Si2 2.516793 1_555
Ni9 Zn0 2.519388 1_655
Ni9 Zn0 2.543170 1_555
Ni9 Zn3 2.565879 1_555
Ni10 Si5 2.325217 1_665
Ni10 Si3 2.368916 1_565
Ni10 Si0 2.418473 1_555
Ni10 Zn1 2.429532 1_655
Ni10 Zn1 2.453485 1_555
Ni10 Zn3 2.482744 1_555
Ni10 Si3 2.532805 1_555
Ni10 Ni4 2.770773 1_665
Ni10 Ni4 2.777071 1_655
Ni11 Si6 2.310131 1_665
Ni11 Si0 2.347938 1_555
Ni11 Si4 2.414536 1_565
Ni11 Zn2 2.466411 1_655
Ni11 Si1 2.490128 1_555
Ni11 Zn2 2.492582 1_555
Ni11 Si4 2.510607 1_555
