# generated using pymatgen
data_CaCr2O4
_symmetry_space_group_name_H-M   'P 1'
_cell_length_a   6.21185884
_cell_length_b   6.21185884
_cell_length_c   6.21185884
_cell_angle_alpha   120.25788218
_cell_angle_beta   117.71859284
_cell_angle_gamma   91.77518423
_symmetry_Int_Tables_number   1
_chemical_formula_structural   CaCr2O4
_chemical_formula_sum   'Ca2 Cr4 O8'
_cell_volume   171.89321438
_cell_formula_units_Z   2
loop_
 _symmetry_equiv_pos_site_id
 _symmetry_equiv_pos_as_xyz
  1  'x, y, z'
loop_
 _atom_site_type_symbol
 _atom_site_label
 _atom_site_symmetry_multiplicity
 _atom_site_fract_x
 _atom_site_fract_y
 _atom_site_fract_z
 _atom_site_occupancy
  Ca  Ca0  1  0.50000000  0.50000000  0.00000000  1
  Ca  Ca1  1  0.00000000  0.50000000  0.50000000  1
  Cr  Cr0  1  0.63153500  0.88153500  0.75000000  1
  Cr  Cr1  1  0.36846500  0.11846500  0.25000000  1
  Cr  Cr2  1  0.00000000  0.00000000  0.50000000  1
  Cr  Cr3  1  0.00000000  0.50000000  0.00000000  1
  O  O0  1  0.23643500  0.23031700  0.49388200  1
  O  O1  1  0.20588100  0.23544100  0.97044000  1
  O  O2  1  0.23643500  0.74255400  0.00611800  1
  O  O3  1  0.76500100  0.23544100  0.52956000  1
  O  O4  1  0.23499900  0.76455900  0.47044000  1
  O  O5  1  0.79411900  0.76455900  0.02956000  1
  O  O6  1  0.76356500  0.25744600  0.99388200  1
  O  O7  1  0.76356500  0.76968300  0.50611800  1
loop_
_geom_bond_atom_site_label_1
_geom_bond_atom_site_label_2
_geom_bond_distance
_geom_bond_site_symmetry_2
Ca0 O7 2.259454 1_555
Ca0 O0 2.259454 1_554
Ca0 O6 2.259458 1_554
Ca0 O2 2.259458 1_555
Ca0 O1 2.295711 1_554
Ca0 O5 2.295711 1_555
Ca1 O6 2.259453 1_454
Ca1 O2 2.259453 1_556
Ca1 O7 2.259454 1_455
Ca1 O0 2.259454 1_555
Ca1 O4 2.295711 1_555
Ca1 O3 2.295711 1_455
Cr0 O6 1.892311 1_565
Cr0 O7 1.892316 1_555
Cr0 O5 2.061395 1_556
Cr0 O4 2.061395 1_555
Cr1 O2 1.892311 1_545
Cr1 O0 1.892316 1_555
Cr1 O1 2.061395 1_554
Cr1 O3 2.061395 1_555
Cr2 O7 2.044983 1_445
Cr2 O0 2.044983 1_555
Cr2 O3 2.101105 1_455
Cr2 O1 2.101105 1_555
Cr2 O4 2.101105 1_545
Cr2 O5 2.101105 1_445
Cr3 O2 2.044987 1_555
Cr3 O6 2.044987 1_454
Cr3 O3 2.101105 1_454
Cr3 O4 2.101105 1_555
Cr3 O5 2.101105 1_455
Cr3 O1 2.101105 1_554
