# generated using pymatgen
data_Fe2H6(SO5)3
_symmetry_space_group_name_H-M   'P 1'
_cell_length_a   6.41668100
_cell_length_b   11.36086500
_cell_length_c   16.54198367
_cell_angle_alpha   78.05296447
_cell_angle_beta   90.00000000
_cell_angle_gamma   90.00000000
_symmetry_Int_Tables_number   1
_chemical_formula_structural   Fe2H6(SO5)3
_chemical_formula_sum   'Fe8 H24 S12 O60'
_cell_volume   1179.77440491
_cell_formula_units_Z   4
loop_
 _symmetry_equiv_pos_site_id
 _symmetry_equiv_pos_as_xyz
  1  'x, y, z'
loop_
 _atom_site_type_symbol
 _atom_site_label
 _atom_site_symmetry_multiplicity
 _atom_site_fract_x
 _atom_site_fract_y
 _atom_site_fract_z
 _atom_site_occupancy
  Fe  Fe0  1  0.25797900  0.98168500  0.11734500  1
  Fe  Fe1  1  0.75797900  0.01831500  0.38265500  1
  Fe  Fe2  1  0.74202100  0.01831500  0.88265500  1
  Fe  Fe3  1  0.24202100  0.98168500  0.61734500  1
  Fe  Fe4  1  0.77081800  0.63829500  0.09279400  1
  Fe  Fe5  1  0.27081800  0.36170500  0.40720600  1
  Fe  Fe6  1  0.22918200  0.36170500  0.90720600  1
  Fe  Fe7  1  0.72918200  0.63829500  0.59279400  1
  H  H0  1  0.22645100  0.80882400  0.25296400  1
  H  H1  1  0.72645100  0.19117600  0.24703600  1
  H  H2  1  0.77354900  0.19117600  0.74703600  1
  H  H3  1  0.27354900  0.80882400  0.75296400  1
  H  H4  1  0.17063200  0.93250700  0.28337800  1
  H  H5  1  0.67063200  0.06749300  0.21662200  1
  H  H6  1  0.82936800  0.06749300  0.71662200  1
  H  H7  1  0.32936800  0.93250700  0.78337800  1
  H  H8  1  0.66274000  0.40977000  0.08982900  1
  H  H9  1  0.16274000  0.59023000  0.41017100  1
  H  H10  1  0.33726000  0.59023000  0.91017100  1
  H  H11  1  0.83726000  0.40977000  0.58982900  1
  H  H12  1  0.91212600  0.41951700  0.09898000  1
  H  H13  1  0.41212600  0.58048300  0.40102000  1
  H  H14  1  0.08787400  0.58048300  0.90102000  1
  H  H15  1  0.58787400  0.41951700  0.59898000  1
  H  H16  1  0.76498200  0.48370400  0.24013100  1
  H  H17  1  0.26498200  0.51629600  0.25986900  1
  H  H18  1  0.23501800  0.51629600  0.75986900  1
  H  H19  1  0.73501800  0.48370400  0.74013100  1
  H  H20  1  0.71468700  0.61502500  0.25934300  1
  H  H21  1  0.21468700  0.38497500  0.24065700  1
  H  H22  1  0.28531300  0.38497500  0.74065700  1
  H  H23  1  0.78531300  0.61502500  0.75934300  1
  S  S0  1  0.75163100  0.92974300  0.09001200  1
  S  S1  1  0.25163100  0.07025700  0.40998800  1
  S  S2  1  0.24836900  0.07025700  0.90998800  1
  S  S3  1  0.74836900  0.92974300  0.59001200  1
  S  S4  1  0.27152600  0.68764100  0.12122000  1
  S  S5  1  0.77152600  0.31235900  0.37878000  1
  S  S6  1  0.72847400  0.31235900  0.87878000  1
  S  S7  1  0.22847400  0.68764100  0.62122000  1
  S  S8  1  0.72204000  0.73090700  0.88568900  1
  S  S9  1  0.22204000  0.26909300  0.61431100  1
  S  S10  1  0.27796000  0.26909300  0.11431100  1
  S  S11  1  0.77796000  0.73090700  0.38568900  1
  O  O0  1  0.77709300  0.80029500  0.12851100  1
  O  O1  1  0.27709300  0.19970500  0.37148900  1
  O  O2  1  0.22290700  0.19970500  0.87148900  1
  O  O3  1  0.72290700  0.80029500  0.62851100  1
  O  O4  1  0.69590000  0.94237000  0.00207300  1
  O  O5  1  0.19590000  0.05763000  0.49792700  1
  O  O6  1  0.30410000  0.05763000  0.99792700  1
  O  O7  1  0.80410000  0.94237000  0.50207300  1
  O  O8  1  0.58153500  0.98148600  0.13415200  1
  O  O9  1  0.08153500  0.01851400  0.36584800  1
  O  O10  1  0.41846500  0.01851400  0.86584800  1
  O  O11  1  0.91846500  0.98148600  0.63415200  1
  O  O12  1  0.94301500  0.99735800  0.10023300  1
  O  O13  1  0.44301500  0.00264200  0.39976700  1
  O  O14  1  0.05698500  0.00264200  0.89976700  1
  O  O15  1  0.55698500  0.99735800  0.60023300  1
  O  O16  1  0.26579700  0.82055500  0.08639000  1
  O  O17  1  0.76579700  0.17944500  0.41361000  1
  O  O18  1  0.73420300  0.17944500  0.91361000  1
  O  O19  1  0.23420300  0.82055500  0.58639000  1
  O  O20  1  0.08742900  0.63078400  0.09070000  1
  O  O21  1  0.58742900  0.36921600  0.40930000  1
  O  O22  1  0.91257100  0.36921600  0.90930000  1
  O  O23  1  0.41257100  0.63078400  0.59070000  1
  O  O24  1  0.45605200  0.63624000  0.08587600  1
  O  O25  1  0.95605200  0.36376000  0.41412400  1
  O  O26  1  0.54394800  0.36376000  0.91412400  1
  O  O27  1  0.04394800  0.63624000  0.58587600  1
  O  O28  1  0.27803500  0.66498300  0.21206100  1
  O  O29  1  0.77803500  0.33501700  0.28793900  1
  O  O30  1  0.72196500  0.33501700  0.78793900  1
  O  O31  1  0.22196500  0.66498300  0.71206100  1
  O  O32  1  0.74848700  0.86373200  0.84809000  1
  O  O33  1  0.24848700  0.13626800  0.65191000  1
  O  O34  1  0.25151300  0.13626800  0.15191000  1
  O  O35  1  0.75151300  0.86373200  0.34809000  1
  O  O36  1  0.78939400  0.71216800  0.97404500  1
  O  O37  1  0.28939400  0.28783200  0.52595500  1
  O  O38  1  0.21060600  0.28783200  0.02595500  1
  O  O39  1  0.71060600  0.71216800  0.47404500  1
  O  O40  1  0.86781800  0.66395600  0.84257200  1
  O  O41  1  0.36781800  0.33604400  0.65742800  1
  O  O42  1  0.13218200  0.33604400  0.15742800  1
  O  O43  1  0.63218200  0.66395600  0.34257200  1
  O  O44  1  0.50364800  0.69956200  0.87708400  1
  O  O45  1  0.00364800  0.30043800  0.62291600  1
  O  O46  1  0.49635200  0.30043800  0.12291600  1
  O  O47  1  0.99635200  0.69956200  0.37708400  1
  O  O48  1  0.22834400  0.89761900  0.23836700  1
  O  O49  1  0.72834400  0.10238100  0.26163300  1
  O  O50  1  0.77165600  0.10238100  0.76163300  1
  O  O51  1  0.27165600  0.89761900  0.73836700  1
  O  O52  1  0.78519200  0.46569300  0.07783100  1
  O  O53  1  0.28519200  0.53430700  0.42216900  1
  O  O54  1  0.21480800  0.53430700  0.92216900  1
  O  O55  1  0.71480800  0.46569300  0.57783100  1
  O  O56  1  0.76553100  0.57177300  0.21614700  1
  O  O57  1  0.26553100  0.42822700  0.28385300  1
  O  O58  1  0.23446900  0.42822700  0.78385300  1
  O  O59  1  0.73446900  0.57177300  0.71614700  1
loop_
_geom_bond_atom_site_label_1
_geom_bond_atom_site_label_2
_geom_bond_distance
_geom_bond_site_symmetry_2
Fe0 O34 1.956682 1_565
Fe0 O16 2.000952 1_555
Fe0 O6 2.007141 1_564
Fe0 O48 2.040710 1_555
Fe0 O12 2.043404 1_455
Fe0 O8 2.094627 1_555
Fe1 O35 1.956682 1_545
Fe1 O17 2.000952 1_555
Fe1 O7 2.007141 1_545
Fe1 O49 2.040710 1_555
Fe1 O13 2.043404 1_555
Fe1 O9 2.094627 1_655
Fe2 O32 1.956682 1_545
Fe2 O18 2.000952 1_555
Fe2 O4 2.007141 1_546
Fe2 O50 2.040710 1_555
Fe2 O14 2.043404 1_655
Fe2 O10 2.094627 1_555
Fe3 O33 1.956682 1_565
Fe3 O19 2.000952 1_555
Fe3 O5 2.007141 1_565
Fe3 O51 2.040710 1_555
Fe3 O15 2.043404 1_555
Fe3 O11 2.094627 1_455
Fe4 O36 1.973492 1_554
Fe4 O24 2.023400 1_555
Fe4 O56 2.024229 1_555
Fe4 O52 2.028763 1_555
Fe4 O20 2.033979 1_655
Fe4 O0 2.046508 1_555
Fe5 O37 1.973492 1_555
Fe5 O25 2.023400 1_455
Fe5 O57 2.024229 1_555
Fe5 O53 2.028763 1_555
Fe5 O21 2.033979 1_555
Fe5 O1 2.046508 1_555
Fe6 O38 1.973492 1_556
Fe6 O26 2.023400 1_555
Fe6 O58 2.024229 1_555
Fe6 O54 2.028763 1_555
Fe6 O22 2.033979 1_455
Fe6 O2 2.046508 1_555
Fe7 O39 1.973492 1_555
Fe7 O27 2.023400 1_655
Fe7 O59 2.024229 1_555
Fe7 O55 2.028763 1_555
Fe7 O23 2.033979 1_555
Fe7 O3 2.046508 1_555
H0 O48 0.987551 1_555
H1 O49 0.987551 1_555
H2 O50 0.987551 1_555
H3 O51 0.987551 1_555
H4 O48 0.985294 1_555
H5 O49 0.985294 1_555
H6 O50 0.985294 1_555
H7 O51 0.985294 1_555
H8 O52 1.004099 1_555
H8 O46 1.643419 1_555
H9 O53 1.004099 1_555
H9 O47 1.643419 1_455
H10 O54 1.004099 1_555
H10 O44 1.643419 1_555
H11 O55 1.004099 1_555
H11 O45 1.643419 1_655
H12 O52 0.992479 1_555
H13 O53 0.992479 1_555
H14 O54 0.992479 1_555
H15 O55 0.992479 1_555
H16 O56 0.997071 1_555
H16 O29 1.712542 1_555
H17 O57 0.997071 1_555
H17 O28 1.712542 1_555
H18 O58 0.997071 1_555
H18 O31 1.712542 1_555
H19 O59 0.997071 1_555
H19 O30 1.712542 1_555
H20 O56 1.001917 1_555
H20 O43 1.673817 1_555
H21 O57 1.001917 1_555
H21 O42 1.673817 1_555
H22 O58 1.001917 1_555
H22 O41 1.673817 1_555
H23 O59 1.001917 1_555
H23 O40 1.673817 1_555
O0 S0 1.485698 1_555
O1 S1 1.485698 1_555
O2 S2 1.485698 1_555
O3 S3 1.485698 1_555
O4 S0 1.475864 1_555
O5 S1 1.475864 1_555
O6 S2 1.475864 1_555
O7 S3 1.475864 1_555
O8 S0 1.499224 1_555
O9 S1 1.499224 1_555
O10 S2 1.499224 1_555
O11 S3 1.499224 1_555
O12 S0 1.476666 1_555
O13 S1 1.476666 1_555
O14 S2 1.476666 1_555
O15 S3 1.476666 1_555
O16 S4 1.501089 1_555
O17 S5 1.501089 1_555
O18 S6 1.501089 1_555
O19 S7 1.501089 1_555
O20 S4 1.484114 1_555
O21 S5 1.484114 1_555
O22 S6 1.484114 1_555
O23 S7 1.484114 1_555
O24 S4 1.492029 1_555
O25 S5 1.492029 1_555
O26 S6 1.492029 1_555
O27 S7 1.492029 1_555
O28 S4 1.471713 1_555
O29 S5 1.471713 1_555
O30 S6 1.471713 1_555
O31 S7 1.471713 1_555
O32 S8 1.517948 1_555
O33 S9 1.517948 1_555
O34 S10 1.517948 1_555
O35 S11 1.517948 1_555
O36 S8 1.496500 1_555
O37 S9 1.496500 1_555
O38 S10 1.496500 1_555
O39 S11 1.496500 1_555
O40 S8 1.478802 1_555
O41 S9 1.478802 1_555
O42 S10 1.478802 1_555
O43 S11 1.478802 1_555
O44 S8 1.460084 1_555
O45 S9 1.460084 1_555
O46 S10 1.460084 1_555
O47 S11 1.460084 1_555
