# generated using pymatgen
data_Li2FeSiO4
_symmetry_space_group_name_H-M   'P 1'
_cell_length_a   6.26626978
_cell_length_b   7.20577743
_cell_length_c   7.20496307
_cell_angle_alpha   85.85303862
_cell_angle_beta   89.99991900
_cell_angle_gamma   89.99988996
_symmetry_Int_Tables_number   1
_chemical_formula_structural   Li2FeSiO4
_chemical_formula_sum   'Li8 Fe4 Si4 O16'
_cell_volume   324.47642639
_cell_formula_units_Z   4
loop_
 _symmetry_equiv_pos_site_id
 _symmetry_equiv_pos_as_xyz
  1  'x, y, z'
loop_
 _atom_site_type_symbol
 _atom_site_label
 _atom_site_symmetry_multiplicity
 _atom_site_fract_x
 _atom_site_fract_y
 _atom_site_fract_z
 _atom_site_occupancy
  Li  Li0  1  0.74777072  0.36201904  0.30491715  1
  Li  Li1  1  0.74776305  0.86201366  0.80491028  1
  Li  Li2  1  0.75231825  0.44513138  0.88791602  1
  Li  Li3  1  0.75234143  0.94511204  0.38790418  1
  Li  Li4  1  0.24768188  0.44513146  0.88791706  1
  Li  Li5  1  0.24765116  0.94511334  0.38790132  1
  Li  Li6  1  0.25223108  0.36201931  0.30491709  1
  Li  Li7  1  0.25223817  0.86201582  0.80490978  1
  Fe  Fe0  1  0.49999950  0.62320546  0.55764670  1
  Fe  Fe1  1  0.00000152  0.19251848  0.62657177  1
  Fe  Fe2  1  0.49999922  0.12321405  0.05765620  1
  Fe  Fe3  1  0.00000181  0.69253414  0.12656600  1
  Si  Si0  1  -0.00000109  0.10765848  0.05794912  1
  Si  Si1  1  -0.00000038  0.60766197  0.55793856  1
  Si  Si2  1  0.50000111  0.69200246  0.14239833  1
  Si  Si3  1  0.50000132  0.19201481  0.64238522  1
  O  O0  1  0.00000004  0.44677269  0.72998523  1
  O  O1  1  0.00000068  0.94676890  0.22999646  1
  O  O2  1  0.50000042  0.52000874  0.30327407  1
  O  O3  1  0.50000107  0.02002581  0.80328104  1
  O  O4  1  0.49999975  0.38985474  0.74197923  1
  O  O5  1  0.50000023  0.88983892  0.24198083  1
  O  O6  1  -0.00000073  0.50812134  0.36006161  1
  O  O7  1  -0.00000050  0.00815168  0.86004945  1
  O  O8  1  0.78571569  0.23605855  0.07581591  1
  O  O9  1  0.78573097  0.73607504  0.57580852  1
  O  O10  1  0.28570989  0.67421013  0.01393979  1
  O  O11  1  0.28571050  0.17420260  0.51392972  1
  O  O12  1  0.71429119  0.67421104  0.01393892  1
  O  O13  1  0.71429123  0.17420318  0.51392926  1
  O  O14  1  0.21428293  0.23605788  0.07581724  1
  O  O15  1  0.21426887  0.73607489  0.57580792  1
loop_
_geom_bond_atom_site_label_1
_geom_bond_atom_site_label_2
_geom_bond_distance
_geom_bond_site_symmetry_2
Li0 O2 1.924780 1_555
Li0 O8 1.954926 1_555
Li0 O6 1.955707 1_655
Li0 O13 1.961795 1_555
Li1 O3 1.924838 1_565
Li1 O9 1.954864 1_555
Li1 O7 1.955881 1_665
Li1 O12 1.961815 1_556
Li2 O0 1.924007 1_655
Li2 O12 1.955198 1_556
Li2 O4 1.955680 1_555
Li2 O8 1.962463 1_556
Li3 O1 1.923791 1_655
Li3 O13 1.955297 1_565
Li3 O5 1.955735 1_555
Li3 O9 1.962293 1_555
Li4 O0 1.924014 1_555
Li4 O10 1.955193 1_556
Li4 O4 1.955677 1_555
Li4 O14 1.962469 1_556
Li5 O1 1.923737 1_555
Li5 O11 1.955305 1_565
Li5 O5 1.955762 1_555
Li5 O15 1.962306 1_555
Li6 O2 1.924778 1_555
Li6 O14 1.954924 1_555
Li6 O6 1.955719 1_555
Li6 O11 1.961801 1_555
Li7 O3 1.924837 1_565
Li7 O15 1.954875 1_555
Li7 O7 1.955880 1_565
Li7 O10 1.961836 1_556
Fe0 O15 1.974778 1_555
Fe0 O9 1.974787 1_555
Fe0 O2 2.027073 1_555
Fe0 O4 2.065972 1_555
Fe1 O11 1.974044 1_555
Fe1 O13 1.974055 1_455
Fe1 O0 2.027111 1_555
Fe1 O7 2.066760 1_555
Fe2 O14 1.974620 1_555
Fe2 O8 1.974625 1_555
Fe2 O3 2.027063 1_554
Fe2 O5 2.066074 1_545
Fe3 O10 1.973997 1_555
Fe3 O12 1.974016 1_455
Fe3 O1 2.027033 1_555
Fe3 O6 2.067053 1_555
O0 Si1 1.634866 1_555
O1 Si0 1.634871 1_565
O2 Si2 1.634546 1_555
O3 Si3 1.634617 1_555
O4 Si3 1.641697 1_555
O5 Si2 1.641633 1_555
O6 Si1 1.641640 1_555
O7 Si0 1.641665 1_556
O8 Si0 1.640982 1_655
O9 Si1 1.640964 1_655
O10 Si2 1.641145 1_555
O11 Si3 1.641147 1_555
O12 Si2 1.641139 1_555
O13 Si3 1.641141 1_555
O14 Si0 1.640988 1_555
O15 Si1 1.640969 1_555
