# generated using pymatgen
data_Tb4Fe29Si5
_symmetry_space_group_name_H-M   'P 1'
_cell_length_a   6.35179415
_cell_length_b   6.35179415
_cell_length_c   12.64869612
_cell_angle_alpha   82.91091532
_cell_angle_beta   82.91091532
_cell_angle_gamma   82.68951317
_symmetry_Int_Tables_number   1
_chemical_formula_structural   Tb4Fe29Si5
_chemical_formula_sum   'Tb4 Fe29 Si5'
_cell_volume   499.28119046
_cell_formula_units_Z   1
loop_
 _symmetry_equiv_pos_site_id
 _symmetry_equiv_pos_as_xyz
  1  'x, y, z'
loop_
 _atom_site_type_symbol
 _atom_site_label
 _atom_site_symmetry_multiplicity
 _atom_site_fract_x
 _atom_site_fract_y
 _atom_site_fract_z
 _atom_site_occupancy
  Tb  Tb0  1  0.65769300  0.65769300  0.32921700  1
  Tb  Tb1  1  0.65740200  0.65740200  0.82902100  1
  Tb  Tb2  1  0.34230700  0.34230700  0.17078300  1
  Tb  Tb3  1  0.34259800  0.34259800  0.67097900  1
  Fe  Fe0  1  0.29642100  0.70463600  0.00043100  1
  Fe  Fe1  1  0.29536400  0.70357900  0.49956900  1
  Fe  Fe2  1  0.70314800  0.99996100  0.14914300  1
  Fe  Fe3  1  0.70327400  0.99937600  0.64849200  1
  Fe  Fe4  1  0.00003900  0.29685200  0.35085700  1
  Fe  Fe5  1  0.00062400  0.29672600  0.85150800  1
  Fe  Fe6  1  0.29685200  0.00003900  0.35085700  1
  Fe  Fe7  1  0.29672600  0.00062400  0.85150800  1
  Fe  Fe8  1  0.99996100  0.70314800  0.14914300  1
  Fe  Fe9  1  0.99937600  0.70327400  0.64849200  1
  Fe  Fe10  1  0.70357900  0.29536400  0.49956900  1
  Fe  Fe11  1  0.70463600  0.29642100  0.00043100  1
  Fe  Fe12  1  0.34084000  0.34084000  0.42524200  1
  Fe  Fe13  1  0.34062200  0.34062200  0.92419000  1
  Fe  Fe14  1  0.34139000  0.84938100  0.17063300  1
  Fe  Fe15  1  0.34083600  0.84962100  0.67117100  1
  Fe  Fe16  1  0.84938100  0.34139000  0.17063300  1
  Fe  Fe17  1  0.84962100  0.34083600  0.67117100  1
  Fe  Fe18  1  0.65916000  0.65916000  0.07475800  1
  Fe  Fe19  1  0.65937800  0.65937800  0.57581000  1
  Fe  Fe20  1  0.65861000  0.15061900  0.32936700  1
  Fe  Fe21  1  0.65916400  0.15037900  0.82882900  1
  Fe  Fe22  1  0.15061900  0.65861000  0.32936700  1
  Fe  Fe23  1  0.15037900  0.65916400  0.82882900  1
  Fe  Fe24  1  0.90347000  0.90347000  0.45234600  1
  Fe  Fe25  1  0.90493600  0.90493600  0.95229500  1
  Fe  Fe26  1  0.09653000  0.09653000  0.04765400  1
  Fe  Fe27  1  0.09506400  0.09506400  0.54770500  1
  Fe  Fe28  1  0.00000000  0.00000000  0.25000000  1
  Si  Si0  1  0.00000000  0.00000000  0.75000000  1
  Si  Si1  1  0.00093100  0.50120500  0.99955600  1
  Si  Si2  1  0.99906900  0.49879500  0.50044400  1
  Si  Si3  1  0.49879500  0.99906900  0.50044400  1
  Si  Si4  1  0.50120500  0.00093100  0.99955600  1
loop_
_geom_bond_atom_site_label_1
_geom_bond_atom_site_label_2
_geom_bond_distance
_geom_bond_site_symmetry_2
Fe0 Si1 2.412128 1_554
Fe0 Si4 2.418328 1_564
Fe0 Fe7 2.491743 1_564
Fe0 Fe8 2.492000 1_455
Fe0 Fe14 2.503738 1_555
Fe0 Fe23 2.524889 1_554
Fe0 Fe18 2.564014 1_555
Fe0 Fe13 2.583237 1_554
Fe0 Fe26 2.746011 1_565
Fe0 Fe25 2.747740 1_454
Fe0 Tb2 2.963906 1_555
Fe0 Tb1 2.967571 1_554
Fe1 Si3 2.412128 1_555
Fe1 Si2 2.418328 1_455
Fe1 Fe9 2.491743 1_455
Fe1 Fe6 2.492000 1_565
Fe1 Fe22 2.503738 1_555
Fe1 Fe15 2.524889 1_555
Fe1 Fe12 2.564014 1_555
Fe1 Fe19 2.583237 1_555
Fe1 Fe24 2.746011 1_455
Fe1 Fe27 2.747740 1_565
Fe1 Tb0 2.963906 1_555
Fe1 Tb3 2.967571 1_555
Fe2 Fe28 2.403459 1_665
Fe2 Si4 2.412359 1_564
Fe2 Fe8 2.490808 1_555
Fe2 Fe20 2.550043 1_565
Fe2 Fe25 2.755526 1_554
Fe2 Fe26 2.769754 1_665
Fe2 Tb0 2.961897 1_555
Fe2 Tb2 2.963160 1_565
Fe3 Si3 2.407375 1_555
Fe3 Si0 2.408575 1_665
Fe3 Fe9 2.484841 1_555
Fe3 Tb1 2.964775 1_555
Fe3 Tb3 2.967020 1_565
Fe4 Si2 2.412359 1_455
Fe4 Fe6 2.490808 1_555
Fe4 Tb2 2.961897 1_555
Fe4 Tb0 2.963160 1_455
Fe5 Si1 2.407375 1_555
Fe5 Si0 2.408575 1_555
Fe5 Fe7 2.484841 1_555
Fe5 Tb3 2.964775 1_555
Fe5 Tb1 2.967020 1_455
Fe6 Si3 2.412359 1_545
Fe6 Tb2 2.961897 1_555
Fe6 Tb0 2.963160 1_545
Fe7 Si4 2.407375 1_555
Fe7 Si0 2.408575 1_555
Fe7 Tb3 2.964775 1_555
Fe7 Tb1 2.967020 1_545
Fe8 Si1 2.412359 1_654
Fe8 Tb0 2.961897 1_555
Fe8 Tb2 2.963160 1_655
Fe9 Si2 2.407375 1_555
Fe9 Si0 2.408575 1_665
Fe9 Tb1 2.964775 1_555
Fe9 Tb3 2.967020 1_655
Fe10 Si2 2.412128 1_555
Fe10 Si3 2.418328 1_545
Fe10 Fe3 2.491743 1_545
Fe10 Fe4 2.492000 1_655
Fe10 Fe20 2.503738 1_555
Fe10 Fe17 2.524889 1_555
Fe10 Fe12 2.564014 1_555
Fe10 Fe19 2.583237 1_555
Fe10 Fe24 2.746011 1_545
Fe10 Fe27 2.747740 1_655
Fe10 Tb0 2.963906 1_555
Fe10 Tb3 2.967571 1_555
Fe11 Si4 2.412128 1_554
Fe11 Si1 2.418328 1_654
Fe11 Fe5 2.491743 1_654
Fe11 Fe2 2.492000 1_545
Fe11 Fe16 2.503738 1_555
Fe11 Fe21 2.524889 1_554
Fe11 Fe18 2.564014 1_555
Fe11 Fe13 2.583237 1_554
Fe11 Fe26 2.746011 1_655
Fe11 Fe25 2.747740 1_544
Fe11 Tb2 2.963906 1_555
Fe11 Tb1 2.967571 1_554
Fe12 Si2 2.407409 1_455
Fe12 Si3 2.407409 1_545
Fe12 Fe20 2.478168 1_555
Fe12 Fe22 2.478168 1_555
Fe12 Fe4 2.524033 1_555
Fe12 Fe6 2.524033 1_555
Fe12 Fe27 2.588449 1_555
Fe12 Tb0 3.065997 1_555
Fe12 Tb3 3.111053 1_555
Fe12 Tb2 3.216304 1_555
Fe13 Si1 2.403498 1_555
Fe13 Si4 2.403498 1_555
Fe13 Fe21 2.478720 1_555
Fe13 Fe23 2.478720 1_555
Fe13 Fe5 2.508649 1_555
Fe13 Fe7 2.508649 1_555
Fe13 Fe26 2.581261 1_556
Fe13 Tb1 3.062838 1_555
Fe13 Tb2 3.121762 1_556
Fe13 Tb3 3.199745 1_555
Fe14 Fe28 2.407694 1_565
Fe14 Si4 2.414936 1_564
Fe14 Fe22 2.477996 1_555
Fe14 Fe18 2.478168 1_555
Fe14 Fe8 2.521963 1_455
Fe14 Fe6 2.550043 1_565
Fe14 Fe2 2.570915 1_555
Fe14 Fe26 2.583809 1_565
Fe14 Tb0 3.051527 1_555
Fe14 Tb2 3.131946 1_565
Fe14 Tb2 3.219860 1_555
Fe15 Si0 2.401965 1_565
Fe15 Si3 2.402648 1_555
Fe15 Fe23 2.466823 1_555
Fe15 Fe19 2.478720 1_555
Fe15 Fe9 2.526442 1_455
Fe15 Fe7 2.552531 1_565
Fe15 Fe3 2.571740 1_555
Fe15 Fe27 2.586077 1_565
Fe15 Tb1 3.047080 1_555
Fe15 Tb3 3.132432 1_565
Fe15 Tb3 3.219400 1_555
Fe16 Fe28 2.407694 1_655
Fe16 Si1 2.414936 1_654
Fe16 Fe20 2.477996 1_555
Fe16 Fe18 2.478168 1_555
Fe16 Fe2 2.521963 1_545
Fe16 Fe4 2.550043 1_655
Fe16 Fe8 2.570915 1_555
Fe16 Fe26 2.583809 1_655
Fe16 Tb0 3.051527 1_555
Fe16 Tb2 3.131946 1_655
Fe16 Tb2 3.219860 1_555
Fe17 Si0 2.401965 1_655
Fe17 Si2 2.402648 1_555
Fe17 Fe21 2.466823 1_555
Fe17 Fe19 2.478720 1_555
Fe17 Fe3 2.526442 1_545
Fe17 Fe5 2.552531 1_655
Fe17 Fe9 2.571740 1_555
Fe17 Fe27 2.586077 1_655
Fe17 Tb1 3.047080 1_555
Fe17 Tb3 3.132432 1_655
Fe17 Tb3 3.219400 1_555
Fe18 Si4 2.407409 1_564
Fe18 Si1 2.407409 1_654
Fe18 Fe8 2.524033 1_555
Fe18 Fe2 2.524033 1_555
Fe18 Fe25 2.588449 1_554
Fe18 Tb2 3.065997 1_555
Fe18 Tb1 3.111053 1_554
Fe18 Tb0 3.216304 1_555
Fe19 Si2 2.403498 1_555
Fe19 Si3 2.403498 1_555
Fe19 Fe9 2.508649 1_555
Fe19 Fe3 2.508649 1_555
Fe19 Fe24 2.581261 1_555
Fe19 Tb3 3.062838 1_555
Fe19 Tb0 3.121762 1_555
Fe19 Tb1 3.199745 1_555
Fe20 Fe28 2.407694 1_655
Fe20 Si3 2.414936 1_545
Fe20 Fe4 2.521963 1_655
Fe20 Fe6 2.570915 1_555
Fe20 Fe24 2.583809 1_545
Fe20 Tb2 3.051527 1_555
Fe20 Tb0 3.131946 1_545
Fe20 Tb0 3.219860 1_555
Fe21 Si0 2.401965 1_655
Fe21 Si4 2.402648 1_555
Fe21 Fe5 2.526442 1_655
Fe21 Fe3 2.552531 1_545
Fe21 Fe7 2.571740 1_555
Fe21 Fe25 2.586077 1_545
Fe21 Tb3 3.047080 1_555
Fe21 Tb1 3.132432 1_545
Fe21 Tb1 3.219400 1_555
Fe22 Fe28 2.407694 1_565
Fe22 Si2 2.414936 1_455
Fe22 Fe6 2.521963 1_565
Fe22 Fe8 2.550043 1_455
Fe22 Fe4 2.570915 1_555
Fe22 Fe24 2.583809 1_455
Fe22 Tb2 3.051527 1_555
Fe22 Tb0 3.131946 1_455
Fe22 Tb0 3.219860 1_555
Fe23 Si0 2.401965 1_565
Fe23 Si1 2.402648 1_555
Fe23 Fe7 2.526442 1_565
Fe23 Fe9 2.552531 1_455
Fe23 Fe5 2.571740 1_555
Fe23 Fe25 2.586077 1_455
Fe23 Tb3 3.047080 1_555
Fe23 Tb1 3.132432 1_455
Fe23 Tb1 3.219400 1_555
Fe24 Fe27 2.349120 1_665
Fe24 Fe28 2.573611 1_665
Fe24 Si3 2.579506 1_555
Fe24 Si2 2.579506 1_555
Fe24 Fe3 2.746015 1_555
Fe24 Fe9 2.746015 1_555
Fe24 Fe6 2.769754 1_665
Fe24 Fe4 2.769754 1_665
Fe24 Tb0 3.019973 1_555
Fe25 Fe26 2.349120 1_666
Fe25 Si0 2.570327 1_665
Fe25 Si4 2.572746 1_565
Fe25 Si1 2.572746 1_655
Fe25 Fe8 2.755526 1_556
Fe25 Fe7 2.756482 1_665
Fe25 Fe5 2.756482 1_665
Fe25 Tb1 3.035588 1_555
Fe26 Fe28 2.573611 1_555
Fe26 Si1 2.579506 1_554
Fe26 Si4 2.579506 1_554
Fe26 Fe5 2.746015 1_554
Fe26 Fe7 2.746015 1_554
Fe26 Fe8 2.769754 1_445
Fe26 Tb2 3.019973 1_555
Fe27 Si0 2.570327 1_555
Fe27 Si3 2.572746 1_545
Fe27 Si2 2.572746 1_455
Fe27 Fe4 2.755526 1_555
Fe27 Fe6 2.755526 1_555
Fe27 Fe9 2.756482 1_445
Fe27 Fe3 2.756482 1_445
Fe27 Tb3 3.035588 1_555
Fe28 Fe6 2.403459 1_555
Fe28 Fe4 2.403459 1_555
Fe28 Fe8 2.403459 1_445
Fe28 Tb2 3.253684 1_555
Fe28 Tb0 3.253684 1_445
Si0 Tb3 3.255976 1_555
Si0 Tb1 3.255976 1_445
Si1 Tb2 3.236315 1_556
Si1 Tb1 3.237434 1_455
Si2 Tb0 3.236315 1_555
Si2 Tb3 3.237434 1_655
Si3 Tb0 3.236315 1_555
Si3 Tb3 3.237434 1_565
Si4 Tb2 3.236315 1_556
Si4 Tb1 3.237434 1_545
