# generated using pymatgen
data_Dy2CoPtO6
_symmetry_space_group_name_H-M   'P 1'
_cell_length_a   5.77352500
_cell_length_b   5.33552600
_cell_length_c   9.34750313
_cell_angle_alpha   55.40993447
_cell_angle_beta   90.00000000
_cell_angle_gamma   90.00000000
_symmetry_Int_Tables_number   1
_chemical_formula_structural   Dy2CoPtO6
_chemical_formula_sum   'Dy4 Co2 Pt2 O12'
_cell_volume   237.04873312
_cell_formula_units_Z   2
loop_
 _symmetry_equiv_pos_site_id
 _symmetry_equiv_pos_as_xyz
  1  'x, y, z'
loop_
 _atom_site_type_symbol
 _atom_site_label
 _atom_site_symmetry_multiplicity
 _atom_site_fract_x
 _atom_site_fract_y
 _atom_site_fract_z
 _atom_site_occupancy
  Dy  Dy0  1  0.07567500  0.72284500  0.75167100  1
  Dy  Dy1  1  0.92432500  0.27715500  0.24832900  1
  Dy  Dy2  1  0.57567500  0.27715500  0.74832900  1
  Dy  Dy3  1  0.42432500  0.72284500  0.25167100  1
  Co  Co0  1  0.50000000  0.50000000  0.00000000  1
  Co  Co1  1  0.00000000  0.50000000  0.50000000  1
  Pt  Pt0  1  0.50000000  0.00000000  0.50000000  1
  Pt  Pt1  1  0.00000000  0.00000000  0.00000000  1
  O  O0  1  0.44932600  0.87774100  0.74943500  1
  O  O1  1  0.55067400  0.12225900  0.25056500  1
  O  O2  1  0.94932600  0.12225900  0.75056500  1
  O  O3  1  0.05067400  0.87774100  0.24943500  1
  O  O4  1  0.80231900  0.75052700  0.56625700  1
  O  O5  1  0.19768100  0.24947300  0.43374300  1
  O  O6  1  0.30231900  0.24947300  0.93374300  1
  O  O7  1  0.69768100  0.75052700  0.06625700  1
  O  O8  1  0.31056700  0.62634600  0.55839600  1
  O  O9  1  0.68943300  0.37365400  0.44160400  1
  O  O10  1  0.81056700  0.37365400  0.94160400  1
  O  O11  1  0.18943300  0.62634600  0.05839600  1
loop_
_geom_bond_atom_site_label_1
_geom_bond_atom_site_label_2
_geom_bond_distance
_geom_bond_site_symmetry_2
Dy0 O2 2.246942 1_465
Dy0 O10 2.282620 1_455
Dy0 O4 2.286003 1_455
Dy0 O0 2.306018 1_555
Dy0 O6 2.471305 1_555
Dy0 O8 2.534627 1_555
Dy0 O11 2.690858 1_556
Dy0 O5 2.782470 1_565
Dy1 O3 2.246942 1_645
Dy1 O11 2.282620 1_655
Dy1 O5 2.286003 1_655
Dy1 O1 2.306018 1_555
Dy1 O7 2.471305 1_555
Dy1 O9 2.534627 1_555
Dy1 O10 2.690858 1_554
Dy1 O4 2.782470 1_545
Dy2 O0 2.246942 1_545
Dy2 O8 2.282620 1_555
Dy2 O6 2.286003 1_555
Dy2 O2 2.306018 1_555
Dy2 O4 2.471305 1_555
Dy2 O10 2.534627 1_555
Dy2 O9 2.690858 1_555
Dy2 O7 2.782470 1_546
Dy3 O1 2.246942 1_565
Dy3 O9 2.282620 1_555
Dy3 O7 2.286003 1_555
Dy3 O3 2.306018 1_555
Dy3 O5 2.471305 1_555
Dy3 O11 2.534627 1_555
Dy3 O8 2.690858 1_555
Dy3 O6 2.782470 1_564
Co0 O0 2.067284 1_554
Co0 O1 2.067284 1_555
Co0 O11 2.094108 1_555
Co0 O10 2.094108 1_554
Co0 O6 2.100688 1_554
Co0 O7 2.100688 1_555
Co1 O2 2.067284 1_455
Co1 O3 2.067284 1_555
Co1 O8 2.094108 1_555
Co1 O9 2.094108 1_455
Co1 O5 2.100688 1_555
Co1 O4 2.100688 1_455
O0 Pt0 2.054403 1_565
O1 Pt0 2.054403 1_555
O2 Pt1 2.054403 1_656
O3 Pt1 2.054403 1_565
O4 Pt0 2.065406 1_565
O5 Pt0 2.065406 1_555
O6 Pt1 2.065406 1_556
O7 Pt1 2.065406 1_665
O8 Pt0 2.057460 1_565
O9 Pt0 2.057460 1_555
O10 Pt1 2.057460 1_656
O11 Pt1 2.057460 1_565
