# generated using pymatgen
data_Mg4Si3
_symmetry_space_group_name_H-M   'P 1'
_cell_length_a   6.07406400
_cell_length_b   7.20409009
_cell_length_c   12.92884532
_cell_angle_alpha   93.11788623
_cell_angle_beta   93.36740650
_cell_angle_gamma   108.18767766
_symmetry_Int_Tables_number   1
_chemical_formula_structural   Mg4Si3
_chemical_formula_sum   'Mg16 Si12'
_cell_volume   534.96905422
_cell_formula_units_Z   4
loop_
 _symmetry_equiv_pos_site_id
 _symmetry_equiv_pos_as_xyz
  1  'x, y, z'
loop_
 _atom_site_type_symbol
 _atom_site_label
 _atom_site_symmetry_multiplicity
 _atom_site_fract_x
 _atom_site_fract_y
 _atom_site_fract_z
 _atom_site_occupancy
  Mg  Mg0  1  0.82928200  0.87537700  0.88776200  1
  Mg  Mg1  1  0.62094900  0.44150000  0.91353500  1
  Mg  Mg2  1  0.11905700  0.92957400  0.42732200  1
  Mg  Mg3  1  0.17263200  0.59027300  0.23936900  1
  Mg  Mg4  1  0.30921800  0.85486500  0.85668800  1
  Mg  Mg5  1  0.08558500  0.38770900  0.92199600  1
  Mg  Mg6  1  0.56705900  0.82794800  0.42249000  1
  Mg  Mg7  1  0.36815900  0.32623600  0.36667000  1
  Mg  Mg8  1  0.33762600  0.84312100  0.63089900  1
  Mg  Mg9  1  0.26329400  0.20485700  0.72150100  1
  Mg  Mg10  1  0.83297200  0.85749700  0.20053900  1
  Mg  Mg11  1  0.82049900  0.22422700  0.33031700  1
  Mg  Mg12  1  0.93243100  0.48437500  0.68855500  1
  Mg  Mg13  1  0.84664300  0.87636600  0.65274700  1
  Mg  Mg14  1  0.61583800  0.43274200  0.14670700  1
  Mg  Mg15  1  0.37583800  0.99803600  0.19776900  1
  Si  Si0  1  0.55167700  0.18347900  0.54372800  1
  Si  Si1  1  0.13157600  0.54900300  0.46870800  1
  Si  Si2  1  0.26259400  0.12492800  0.00550600  1
  Si  Si3  1  0.05814900  0.71356800  0.03645900  1
  Si  Si4  1  0.45049400  0.58742400  0.75204200  1
  Si  Si5  1  0.69729200  0.14897700  0.78325500  1
  Si  Si6  1  0.79353300  0.58875100  0.34532500  1
  Si  Si7  1  0.07058200  0.21902300  0.15112400  1
  Si  Si8  1  0.53884600  0.52702400  0.57317400  1
  Si  Si9  1  0.96365600  0.20902100  0.53232900  1
  Si  Si10  1  0.48631600  0.73761200  0.04223200  1
  Si  Si11  1  0.67915400  0.11332800  0.02538000  1
loop_
_geom_bond_atom_site_label_1
_geom_bond_atom_site_label_2
_geom_bond_distance
_geom_bond_site_symmetry_2
Mg0 Si5 2.739028 1_565
Mg0 Si11 2.787551 1_566
Mg0 Si3 2.815795 1_656
Mg0 Si10 2.954131 1_556
Mg0 Si2 2.958790 1_666
Mg0 Si4 2.970883 1_555
Mg1 Si4 2.683422 1_555
Mg1 Si5 2.794418 1_555
Mg1 Si11 2.939208 1_556
Mg1 Si10 2.975010 1_556
Mg1 Si2 2.975421 1_556
Mg1 Si3 3.055419 1_656
Mg2 Si6 2.738967 1_455
Mg2 Si9 2.797573 1_465
Mg2 Si1 2.844956 1_555
Mg2 Si0 2.958265 1_565
Mg3 Si7 2.718274 1_555
Mg3 Si6 2.745078 1_455
Mg3 Si3 2.929067 1_555
Mg3 Si1 3.013107 1_555
Mg4 Si4 2.676534 1_555
Mg4 Si2 2.751019 1_566
Mg4 Si10 2.847762 1_556
Mg4 Si5 2.882872 1_565
Mg4 Si3 2.910078 1_556
Mg4 Si11 3.105394 1_566
Mg5 Si2 2.694830 1_556
Mg5 Si3 2.761144 1_556
Mg5 Si5 2.893662 1_455
Mg5 Si11 3.068717 1_456
Mg5 Si10 3.161373 1_556
Mg5 Si7 3.258044 1_556
Mg6 Si6 2.703894 1_555
Mg6 Si1 2.896580 1_555
Mg6 Si0 2.959002 1_565
Mg6 Si8 2.964993 1_555
Mg7 Si6 2.723723 1_555
Mg7 Si1 2.795166 1_555
Mg7 Si0 2.865736 1_555
Mg7 Si8 2.934944 1_555
Mg7 Si7 3.151550 1_555
Mg8 Si4 2.700438 1_555
Mg8 Si0 2.730454 1_565
Mg8 Si1 2.829489 1_555
Mg8 Si8 2.982645 1_555
Mg8 Si5 3.086272 1_565
Mg9 Si4 2.630055 1_555
Mg9 Si5 2.863370 1_555
Mg9 Si9 2.968893 1_455
Mg9 Si0 2.996252 1_555
Mg9 Si8 3.209644 1_555
Mg10 Si7 2.686482 1_665
Mg10 Si6 2.732620 1_555
Mg10 Si10 2.744957 1_555
Mg10 Si3 2.903948 1_655
Mg11 Si6 2.679087 1_555
Mg11 Si9 2.722738 1_555
Mg11 Si7 2.848811 1_655
Mg11 Si1 2.938282 1_655
Mg12 Si5 2.783898 1_555
Mg12 Si9 2.809740 1_555
Mg12 Si8 2.850333 1_555
Mg12 Si4 3.049401 1_655
Mg12 Si0 3.077947 1_555
Mg12 Si1 3.155202 1_655
Mg13 Si8 2.728115 1_555
Mg13 Si9 2.853883 1_565
Mg13 Si5 2.908347 1_565
Mg13 Si4 3.049223 1_555
Mg14 Si6 2.761415 1_555
Mg14 Si11 2.852042 1_555
Mg14 Si10 2.922970 1_555
Mg14 Si2 2.997175 1_555
Mg14 Si7 3.192358 1_555
Mg15 Si2 2.815412 1_565
Mg15 Si7 2.855140 1_565
Mg15 Si10 2.923689 1_555
Mg15 Si11 2.963134 1_565
Mg15 Si3 2.977672 1_555
Si0 Si9 2.465025 1_555
Si0 Si8 2.509519 1_555
Si1 Si9 2.544404 1_455
Si1 Si6 2.621950 1_455
Si1 Si8 2.800739 1_555
Si2 Si7 2.444762 1_555
Si4 Si8 2.450992 1_555
Si10 Si3 2.548305 1_555
Si10 Si11 2.619276 1_565
Si11 Si2 2.555961 1_555
Si11 Si7 2.675197 1_655
