# generated using pymatgen
data_Ho3Si4
_symmetry_space_group_name_H-M   'P 1'
_cell_length_a   36.35393096
_cell_length_b   36.35393096
_cell_length_c   3.86908153
_cell_angle_alpha   89.59593140
_cell_angle_beta   89.59593140
_cell_angle_gamma   6.51776025
_symmetry_Int_Tables_number   1
_chemical_formula_structural   Ho3Si4
_chemical_formula_sum   'Ho12 Si16'
_cell_volume   580.41480420
_cell_formula_units_Z   4
loop_
 _symmetry_equiv_pos_site_id
 _symmetry_equiv_pos_as_xyz
  1  'x, y, z'
loop_
 _atom_site_type_symbol
 _atom_site_label
 _atom_site_symmetry_multiplicity
 _atom_site_fract_x
 _atom_site_fract_y
 _atom_site_fract_z
 _atom_site_occupancy
  Ho  Ho0  1  0.47682900  0.47682900  0.25080000  1
  Ho  Ho1  1  0.80942400  0.80942400  0.24646100  1
  Ho  Ho2  1  0.14266700  0.14266700  0.24642700  1
  Ho  Ho3  1  0.85689800  0.85689800  0.76622900  1
  Ho  Ho4  1  0.19001600  0.19001600  0.76566100  1
  Ho  Ho5  1  0.52306500  0.52306500  0.74969400  1
  Ho  Ho6  1  0.90022300  0.90022300  0.25066600  1
  Ho  Ho7  1  0.23363900  0.23363900  0.25042100  1
  Ho  Ho8  1  0.56785700  0.56785700  0.24931300  1
  Ho  Ho9  1  0.43178200  0.43178200  0.75107100  1
  Ho  Ho10  1  0.76595000  0.76595000  0.75035300  1
  Ho  Ho11  1  0.09972200  0.09972200  0.75051000  1
  Si  Si0  1  0.93984100  0.93984100  0.25010200  1
  Si  Si1  1  0.27555000  0.27555000  0.25034600  1
  Si  Si2  1  0.60924000  0.60924000  0.25063600  1
  Si  Si3  1  0.39111300  0.39111300  0.75145900  1
  Si  Si4  1  0.72469100  0.72469100  0.75096100  1
  Si  Si5  1  0.06009500  0.06009500  0.74999800  1
  Si  Si6  1  0.37080100  0.37080100  0.25874100  1
  Si  Si7  1  0.70405400  0.70405400  0.25868800  1
  Si  Si8  1  0.04004000  0.04004000  0.25180600  1
  Si  Si9  1  0.95978500  0.95978500  0.74845500  1
  Si  Si10  1  0.29665500  0.29665500  0.74759000  1
  Si  Si11  1  0.63014400  0.63014400  0.74746600  1
  Si  Si12  1  0.33847400  0.33847400  0.30313800  1
  Si  Si13  1  0.67164600  0.67164600  0.30449200  1
  Si  Si14  1  0.00839300  0.00839300  0.24923100  1
  Si  Si15  1  0.99145900  0.99145900  0.75128500  1
loop_
_geom_bond_atom_site_label_1
_geom_bond_atom_site_label_2
_geom_bond_distance
_geom_bond_site_symmetry_2
Ho0 Si15 3.017448 1_544
Ho0 Si15 3.017448 1_454
Ho0 Si15 3.029449 1_545
Ho0 Si15 3.029449 1_455
Ho0 Si9 3.078225 1_545
Ho0 Si9 3.078225 1_455
Ho0 Si14 3.085544 1_655
Ho0 Si14 3.085544 1_565
Ho0 Si9 3.100533 1_544
Ho0 Si9 3.100533 1_454
Ho0 Si0 3.388235 1_545
Ho0 Si0 3.388235 1_455
Ho1 Si12 2.961824 1_565
Ho1 Si12 2.961824 1_655
Ho1 Si10 2.977263 1_655
Ho1 Si10 2.977263 1_565
Ho1 Si10 2.980094 1_654
Ho1 Si10 2.980094 1_564
Ho1 Si1 3.212004 1_655
Ho1 Si1 3.212004 1_565
Ho2 Si13 2.958584 1_455
Ho2 Si13 2.958584 1_545
Ho2 Si11 2.971608 1_455
Ho2 Si11 2.971608 1_545
Ho2 Si11 2.974733 1_544
Ho2 Si11 2.974733 1_454
Ho2 Si2 3.187233 1_455
Ho2 Si2 3.187233 1_545
Ho3 Si6 2.991297 1_566
Ho3 Si6 2.991297 1_656
Ho3 Si6 3.019417 1_565
Ho3 Si6 3.019417 1_655
Ho3 Si12 3.050211 1_565
Ho3 Si12 3.050211 1_655
Ho3 Si12 3.214922 1_656
Ho3 Si12 3.214922 1_566
Ho3 Si3 3.231234 1_565
Ho3 Si3 3.231234 1_655
Ho4 Si7 2.995934 1_546
Ho4 Si7 2.995934 1_456
Ho4 Si7 3.021373 1_455
Ho4 Si7 3.021373 1_545
Ho4 Si13 3.044090 1_455
Ho4 Si13 3.044090 1_545
Ho4 Si13 3.218102 1_456
Ho4 Si13 3.218102 1_546
Ho4 Si4 3.256963 1_455
Ho4 Si4 3.256963 1_545
Ho5 Si14 3.018563 1_656
Ho5 Si14 3.018563 1_566
Ho5 Si14 3.030479 1_565
Ho5 Si14 3.030479 1_655
Ho5 Si8 3.076799 1_565
Ho5 Si8 3.076799 1_655
Ho5 Si15 3.087809 1_545
Ho5 Si15 3.087809 1_455
Ho5 Si8 3.097948 1_566
Ho5 Si8 3.097948 1_656
Ho5 Si5 3.390642 1_565
Ho5 Si5 3.390642 1_655
Ho6 Si0 2.875867 1_555
Ho6 Si3 2.905943 1_565
Ho6 Si3 2.905943 1_655
Ho6 Si3 2.908077 1_564
Ho6 Si3 2.908077 1_654
Ho6 Si6 2.971941 1_655
Ho6 Si6 2.971941 1_565
Ho7 Si4 2.902693 1_455
Ho7 Si4 2.902693 1_545
Ho7 Si4 2.906022 1_454
Ho7 Si4 2.906022 1_544
Ho7 Si7 2.980458 1_455
Ho7 Si7 2.980458 1_545
Ho7 Si1 3.042329 1_555
Ho8 Si5 2.885433 1_565
Ho8 Si5 2.885433 1_655
Ho8 Si5 2.887216 1_564
Ho8 Si5 2.887216 1_654
Ho8 Si8 2.889313 1_565
Ho8 Si8 2.889313 1_655
Ho8 Si2 3.004044 1_555
Ho9 Si0 2.890353 1_545
Ho9 Si0 2.890353 1_455
Ho9 Si0 2.890866 1_456
Ho9 Si0 2.890866 1_546
Ho9 Si9 2.898764 1_545
Ho9 Si9 2.898764 1_455
Ho9 Si3 2.952164 1_555
Ho10 Si1 2.912060 1_655
Ho10 Si1 2.912060 1_565
Ho10 Si1 2.918557 1_656
Ho10 Si1 2.918557 1_566
Ho10 Si4 2.994987 1_555
Ho10 Si10 3.039518 1_565
Ho10 Si10 3.039518 1_655
Ho11 Si5 2.876550 1_555
Ho11 Si2 2.910328 1_455
Ho11 Si2 2.910328 1_545
Ho11 Si2 2.917456 1_456
Ho11 Si2 2.917456 1_546
Ho11 Si11 3.024485 1_455
Ho11 Si11 3.024485 1_545
Si0 Si9 2.413172 1_554
Si0 Si9 2.419343 1_555
Si1 Si10 2.467549 1_554
Si1 Si10 2.467797 1_555
Si3 Si6 2.418255 1_555
Si3 Si6 2.446504 1_556
Si4 Si7 2.431485 1_555
Si4 Si7 2.462028 1_556
Si5 Si8 2.418466 1_556
Si5 Si8 2.423721 1_555
Si11 Si2 2.457425 1_555
Si11 Si2 2.459859 1_556
Si12 Si6 2.351694 1_555
Si13 Si7 2.357923 1_555
Si14 Si15 2.291411 1_445
Si14 Si15 2.292654 1_444
Si14 Si8 2.297357 1_555
Si15 Si9 2.299328 1_555
