# generated using pymatgen
data_Pr2Ga5Cu3
_symmetry_space_group_name_H-M   'P 1'
_cell_length_a   4.21796846
_cell_length_b   4.21796846
_cell_length_c   10.26370542
_cell_angle_alpha   90.00000000
_cell_angle_beta   90.00000000
_cell_angle_gamma   90.00000000
_symmetry_Int_Tables_number   1
_chemical_formula_structural   Pr2Ga5Cu3
_chemical_formula_sum   'Pr2 Ga5 Cu3'
_cell_volume   182.60423044
_cell_formula_units_Z   1
loop_
 _symmetry_equiv_pos_site_id
 _symmetry_equiv_pos_as_xyz
  1  'x, y, z'
loop_
 _atom_site_type_symbol
 _atom_site_label
 _atom_site_symmetry_multiplicity
 _atom_site_fract_x
 _atom_site_fract_y
 _atom_site_fract_z
 _atom_site_occupancy
  Pr  Pr0  1  0.50000000  0.00000000  0.74359430  1
  Pr  Pr1  1  -0.00000000  0.50000000  0.25640570  1
  Ga  Ga0  1  -0.00000000  0.50000000  0.86419934  1
  Ga  Ga1  1  0.50000000  -0.00000000  0.38106386  1
  Ga  Ga2  1  0.50000000  0.00000000  0.13580066  1
  Ga  Ga3  1  0.00000000  0.50000000  0.61893614  1
  Ga  Ga4  1  0.50000000  0.50000000  -0.00000000  1
  Cu  Cu0  1  0.00000000  0.00000000  0.50000000  1
  Cu  Cu1  1  0.00000000  0.00000000  -0.00000000  1
  Cu  Cu2  1  0.50000000  0.50000000  0.50000000  1
loop_
_geom_bond_atom_site_label_1
_geom_bond_atom_site_label_2
_geom_bond_distance
_geom_bond_site_symmetry_2
Ga0 Ga3 2.517309 1_555
Ga0 Ga4 2.527952 1_456
Ga0 Ga4 2.527952 1_556
Ga0 Pr0 3.229228 1_455
Ga0 Pr0 3.229228 1_565
Ga0 Pr0 3.229228 1_555
Ga0 Pr0 3.229228 1_465
Ga1 Ga2 2.517309 1_555
Ga1 Pr1 3.245402 1_655
Ga1 Pr1 3.245402 1_545
Ga1 Pr1 3.245402 1_555
Ga1 Pr1 3.245402 1_645
Ga2 Ga4 2.527952 1_555
Ga2 Ga4 2.527952 1_545
Ga2 Pr1 3.229228 1_655
Ga2 Pr1 3.229228 1_545
Ga2 Pr1 3.229228 1_555
Ga2 Pr1 3.229228 1_645
Ga3 Pr0 3.245402 1_555
Ga3 Pr0 3.245402 1_565
Ga3 Pr0 3.245402 1_465
Ga3 Pr0 3.245402 1_455
Ga4 Pr1 3.372464 1_555
Ga4 Pr1 3.372464 1_655
Ga4 Pr0 3.372464 1_564
Ga4 Pr0 3.372464 1_554
Cu0 Ga3 2.436798 1_545
Cu0 Ga3 2.436798 1_555
Cu0 Ga1 2.436798 1_555
Cu0 Ga1 2.436798 1_455
Cu0 Pr0 3.270889 1_555
Cu0 Pr0 3.270889 1_455
Cu0 Pr1 3.270889 1_545
Cu0 Pr1 3.270889 1_555
Cu1 Ga2 2.527952 1_455
Cu1 Ga0 2.527952 1_544
Cu1 Ga0 2.527952 1_554
Cu1 Ga2 2.527952 1_555
Cu1 Pr1 3.372464 1_555
Cu1 Pr1 3.372464 1_545
Cu1 Pr0 3.372464 1_554
Cu1 Pr0 3.372464 1_454
Cu2 Ga3 2.436798 1_655
Cu2 Ga1 2.436798 1_565
Cu2 Ga3 2.436798 1_555
Cu2 Ga1 2.436798 1_555
Cu2 Pr0 3.270889 1_565
Cu2 Pr0 3.270889 1_555
Cu2 Pr1 3.270889 1_655
Cu2 Pr1 3.270889 1_555
