# generated using pymatgen
data_LaEu3(NiO3)4
_symmetry_space_group_name_H-M   'P 1'
_cell_length_a   7.64583000
_cell_length_b   5.43798400
_cell_length_c   5.46418976
_cell_angle_alpha   89.71890908
_cell_angle_beta   90.00000000
_cell_angle_gamma   90.00000000
_symmetry_Int_Tables_number   1
_chemical_formula_structural   LaEu3(NiO3)4
_chemical_formula_sum   'La1 Eu3 Ni4 O12'
_cell_volume   227.18680785
_cell_formula_units_Z   1
loop_
 _symmetry_equiv_pos_site_id
 _symmetry_equiv_pos_as_xyz
  1  'x, y, z'
loop_
 _atom_site_type_symbol
 _atom_site_label
 _atom_site_symmetry_multiplicity
 _atom_site_fract_x
 _atom_site_fract_y
 _atom_site_fract_z
 _atom_site_occupancy
  La  La0  1  0.50000000  0.49202700  0.53966100  1
  Eu  Eu0  1  0.50000000  0.00884100  0.04463500  1
  Eu  Eu1  1  0.00000000  0.50876500  0.45432000  1
  Eu  Eu2  1  0.00000000  0.99125500  0.95487200  1
  Ni  Ni0  1  0.24832700  0.99991500  0.50045100  1
  Ni  Ni1  1  0.75131400  0.49987000  0.99965400  1
  Ni  Ni2  1  0.75167300  0.99991500  0.50045100  1
  Ni  Ni3  1  0.24868600  0.49987000  0.99965400  1
  O  O0  1  0.50000000  0.58299200  0.99123800  1
  O  O1  1  0.50000000  0.92909200  0.48287400  1
  O  O2  1  0.00000000  0.41788100  0.01663000  1
  O  O3  1  0.00000000  0.08248200  0.51694200  1
  O  O4  1  0.29181700  0.20845100  0.79384400  1
  O  O5  1  0.71161100  0.28649800  0.28614100  1
  O  O6  1  0.79300800  0.78908900  0.20920700  1
  O  O7  1  0.20490700  0.70950800  0.71011700  1
  O  O8  1  0.20699200  0.78908900  0.20920700  1
  O  O9  1  0.79509300  0.70950800  0.71011700  1
  O  O10  1  0.70818300  0.20845100  0.79384400  1
  O  O11  1  0.28838900  0.28649800  0.28614100  1
loop_
_geom_bond_atom_site_label_1
_geom_bond_atom_site_label_2
_geom_bond_distance
_geom_bond_site_symmetry_2
La0 O1 2.395412 1_555
La0 O5 2.408548 1_555
La0 O11 2.408548 1_555
La0 O0 2.518976 1_555
La0 O4 2.611449 1_555
La0 O10 2.611449 1_555
La0 O7 2.714329 1_555
La0 O9 2.714329 1_555
Eu0 O0 2.335488 1_544
Eu0 O10 2.361183 1_554
Eu0 O4 2.361183 1_554
Eu0 O1 2.431480 1_545
Eu0 O5 2.580407 1_555
Eu0 O11 2.580407 1_555
Eu0 O8 2.691663 1_545
Eu0 O6 2.691663 1_545
Eu1 O3 2.341577 1_555
Eu1 O9 2.369551 1_455
Eu1 O7 2.369551 1_555
Eu1 O2 2.444526 1_555
Eu1 O8 2.569494 1_555
Eu1 O6 2.569494 1_455
Eu1 O11 2.679219 1_555
Eu1 O5 2.679219 1_455
Eu2 O2 2.346037 1_566
Eu2 O8 2.372699 1_556
Eu2 O6 2.372699 1_456
Eu2 O3 2.441431 1_565
Eu2 O9 2.571118 1_455
Eu2 O7 2.571118 1_555
Eu2 O10 2.671554 1_465
Eu2 O4 2.671554 1_565
Ni0 O3 1.953215 1_565
Ni0 O1 1.964854 1_555
Ni0 O11 1.968742 1_565
Ni0 O7 1.974575 1_555
Ni0 O8 1.991172 1_555
Ni0 O4 1.996122 1_565
Ni1 O2 1.955083 1_656
Ni1 O5 1.967535 1_556
Ni1 O9 1.974071 1_555
Ni1 O0 1.974439 1_555
Ni1 O10 1.975425 1_555
Ni1 O6 1.975855 1_556
Ni2 O3 1.953215 1_665
Ni2 O1 1.964854 1_555
Ni2 O5 1.968742 1_565
Ni2 O9 1.974575 1_555
Ni2 O6 1.991172 1_555
Ni2 O10 1.996122 1_565
Ni3 O2 1.955083 1_556
Ni3 O11 1.967535 1_556
Ni3 O7 1.974071 1_555
Ni3 O0 1.974439 1_555
Ni3 O4 1.975425 1_555
Ni3 O8 1.975855 1_556
