# generated using pymatgen
data_Na2MnPCO7
_symmetry_space_group_name_H-M   'P 1'
_cell_length_a   8.46906200
_cell_length_b   8.50188984
_cell_length_c   10.32561622
_cell_angle_alpha   108.25111309
_cell_angle_beta   107.18316238
_cell_angle_gamma   103.00589922
_symmetry_Int_Tables_number   1
_chemical_formula_structural   Na2MnPCO7
_chemical_formula_sum   'Na8 Mn4 P4 C4 O28'
_cell_volume   631.88731556
_cell_formula_units_Z   4
loop_
 _symmetry_equiv_pos_site_id
 _symmetry_equiv_pos_as_xyz
  1  'x, y, z'
loop_
 _atom_site_type_symbol
 _atom_site_label
 _atom_site_symmetry_multiplicity
 _atom_site_fract_x
 _atom_site_fract_y
 _atom_site_fract_z
 _atom_site_occupancy
  Na  Na0  1  0.76710100  0.74666300  0.25692700  1
  Na  Na1  1  0.47804200  0.02257300  0.26182900  1
  Na  Na2  1  0.98559200  0.47683800  0.23043900  1
  Na  Na3  1  0.51551800  0.01425600  0.75541900  1
  Na  Na4  1  0.99597300  0.49111800  0.75476800  1
  Na  Na5  1  0.23646900  0.24497500  0.75172600  1
  Na  Na6  1  0.76636500  0.77316800  0.76068800  1
  Na  Na7  1  0.45084500  0.70563000  0.92346700  1
  Mn  Mn0  1  0.94418100  0.18660000  0.35297800  1
  Mn  Mn1  1  0.44226000  0.68619100  0.35190600  1
  Mn  Mn2  1  0.55682000  0.31187300  0.64272700  1
  Mn  Mn3  1  0.05954500  0.80519800  0.64762000  1
  P  P0  1  0.18681800  0.93569000  0.42322000  1
  P  P1  1  0.70053600  0.44529400  0.42569500  1
  P  P2  1  0.31134300  0.55952800  0.57604400  1
  P  P3  1  0.80585400  0.06106500  0.57478900  1
  C  C0  1  0.76228500  0.01623800  0.07367400  1
  C  C1  1  0.28122400  0.53197400  0.07426500  1
  C  C2  1  0.72020400  0.47546100  0.92208800  1
  C  C3  1  0.22628800  0.96807400  0.91941400  1
  O  O0  1  0.31188700  0.03325700  0.05462200  1
  O  O1  1  0.78641200  0.54030900  0.06122900  1
  O  O2  1  0.43156700  0.67143700  0.15309000  1
  O  O3  1  0.90756900  0.15612900  0.14562200  1
  O  O4  1  0.70065000  0.95464700  0.15591900  1
  O  O5  1  0.21478600  0.47292000  0.15320600  1
  O  O6  1  0.27673700  0.83825600  0.33129100  1
  O  O7  1  0.06238000  0.00335000  0.32989900  1
  O  O8  1  0.78063500  0.33459100  0.33177600  1
  O  O9  1  0.60531900  0.53748700  0.33890600  1
  O  O10  1  0.16311800  0.42114000  0.43062500  1
  O  O11  1  0.56937600  0.31674500  0.45969900  1
  O  O12  1  0.06454500  0.79620700  0.45723500  1
  O  O13  1  0.66428500  0.92058100  0.42361200  1
  O  O14  1  0.32570500  0.08567700  0.57171200  1
  O  O15  1  0.44415600  0.69166100  0.54378200  1
  O  O16  1  0.94239700  0.19574100  0.54691000  1
  O  O17  1  0.84639300  0.58560700  0.57832400  1
  O  O18  1  0.24529900  0.67134600  0.68401100  1
  O  O19  1  0.42014300  0.47951800  0.67088400  1
  O  O20  1  0.72202400  0.16966000  0.66740400  1
  O  O21  1  0.90875900  0.97876900  0.66726500  1
  O  O22  1  0.77964100  0.53751300  0.83882700  1
  O  O23  1  0.27072300  0.02151800  0.82370800  1
  O  O24  1  0.57355500  0.33170100  0.84424200  1
  O  O25  1  0.07805200  0.82665400  0.84913000  1
  O  O26  1  0.68756700  0.94509000  0.93226500  1
  O  O27  1  0.22121300  0.47434900  0.93356100  1
loop_
_geom_bond_atom_site_label_1
_geom_bond_atom_site_label_2
_geom_bond_distance
_geom_bond_site_symmetry_2
Na0 O1 2.300386 1_555
Na0 O13 2.403709 1_555
Na0 O4 2.405724 1_555
Na0 O9 2.507578 1_555
Na0 O2 2.566300 1_555
Na0 O12 2.588294 1_655
Na0 O7 2.642779 1_665
Na1 O0 2.228542 1_555
Na1 O13 2.448771 1_545
Na1 O11 2.454098 1_555
Na1 O6 2.469942 1_545
Na1 O4 2.529104 1_545
Na1 O2 2.727309 1_545
Na1 O8 2.961836 1_555
Na2 O5 2.309083 1_655
Na2 O1 2.334152 1_555
Na2 O10 2.419644 1_655
Na2 O3 2.447356 1_555
Na2 O8 2.547814 1_555
Na2 O12 2.752912 1_655
Na3 O26 2.299891 1_545
Na3 O23 2.386042 1_555
Na3 O14 2.431085 1_555
Na3 O24 2.439847 1_555
Na3 O20 2.506279 1_555
Na3 O15 2.717056 1_545
Na4 O27 2.296497 1_655
Na4 O22 2.305658 1_555
Na4 O17 2.362318 1_555
Na4 O25 2.556693 1_655
Na4 O16 2.579630 1_555
Na4 O18 2.738024 1_655
Na4 O20 2.833903 1_555
Na5 O23 2.291502 1_555
Na5 O27 2.303953 1_555
Na5 O14 2.360984 1_555
Na5 O24 2.570243 1_555
Na5 O16 2.591272 1_455
Na5 O19 2.739791 1_555
Na5 O21 2.844639 1_445
Na6 O26 2.288258 1_555
Na6 O22 2.395412 1_555
Na6 O25 2.405001 1_655
Na6 O17 2.430575 1_555
Na6 O21 2.497011 1_555
Na6 O15 2.740150 1_555
Na7 O18 2.450668 1_555
Na7 O26 2.472186 1_555
Na7 O27 2.487236 1_555
Na7 O2 2.524260 1_556
Na7 O4 2.553390 1_556
Na7 O19 2.607514 1_555
Mn0 O16 1.984206 1_555
Mn0 O3 1.992896 1_555
Mn0 O7 2.023982 1_655
Mn0 O8 2.080198 1_555
Mn0 O10 2.124401 1_655
Mn0 O4 2.336520 1_545
Mn1 O15 1.962366 1_555
Mn1 O2 1.990495 1_555
Mn1 O9 2.076653 1_555
Mn1 O6 2.119825 1_555
Mn1 O13 2.149800 1_555
Mn1 O5 2.229511 1_555
Mn2 O11 1.936608 1_555
Mn2 O24 1.993335 1_555
Mn2 O19 2.034146 1_555
Mn2 O20 2.056232 1_555
Mn2 O14 2.154430 1_555
Mn2 O22 2.240774 1_555
Mn3 O12 1.956704 1_555
Mn3 O25 1.985929 1_555
Mn3 O17 2.034535 1_455
Mn3 O23 2.095371 1_565
Mn3 O18 2.153005 1_555
Mn3 O21 2.159471 1_455
C0 O26 1.275492 1_544
C0 O4 1.298189 1_545
C0 O3 1.314597 1_555
C1 O27 1.270796 1_554
C1 O5 1.277988 1_555
C1 O2 1.339112 1_555
C2 O1 1.253493 1_556
C2 O22 1.300418 1_555
C2 O24 1.339402 1_555
C3 O0 1.232203 1_566
C3 O23 1.322378 1_565
C3 O25 1.335703 1_555
O6 P0 1.544565 1_555
O7 P0 1.545996 1_545
O8 P1 1.546231 1_555
O9 P1 1.537924 1_555
O10 P2 1.526333 1_555
O11 P1 1.573526 1_555
O12 P0 1.589036 1_555
O13 P3 1.543556 1_565
O14 P0 1.547629 1_545
O15 P2 1.589084 1_555
O16 P3 1.593208 1_555
O17 P1 1.562560 1_555
O18 P2 1.550284 1_555
O19 P2 1.561080 1_555
O20 P3 1.553750 1_555
O21 P3 1.536907 1_565
