# generated using pymatgen
data_NpSi
_symmetry_space_group_name_H-M   'P 1'
_cell_length_a   6.41747362
_cell_length_b   6.41747362
_cell_length_c   6.37602200
_cell_angle_alpha   90.00000000
_cell_angle_beta   90.00000000
_cell_angle_gamma   141.03479043
_symmetry_Int_Tables_number   1
_chemical_formula_structural   NpSi
_chemical_formula_sum   'Np4 Si4'
_cell_volume   165.12922456
_cell_formula_units_Z   4
loop_
 _symmetry_equiv_pos_site_id
 _symmetry_equiv_pos_as_xyz
  1  'x, y, z'
loop_
 _atom_site_type_symbol
 _atom_site_label
 _atom_site_symmetry_multiplicity
 _atom_site_fract_x
 _atom_site_fract_y
 _atom_site_fract_z
 _atom_site_occupancy
  Np  Np0  1  0.27237700  0.72762300  0.25000000  1
  Np  Np1  1  0.72762300  0.27237700  0.75000000  1
  Np  Np2  1  0.44392700  0.55607300  0.75000000  1
  Np  Np3  1  0.55607300  0.44392700  0.25000000  1
  Si  Si0  1  0.09616500  0.90383500  0.55933700  1
  Si  Si1  1  0.90383500  0.09616500  0.44066300  1
  Si  Si2  1  0.09616500  0.90383500  0.94066300  1
  Si  Si3  1  0.90383500  0.09616500  0.05933700  1
loop_
_geom_bond_atom_site_label_1
_geom_bond_atom_site_label_2
_geom_bond_distance
_geom_bond_site_symmetry_2
Np0 Si0 2.904530 1_555
Np0 Si2 2.904530 1_554
Np0 Si1 2.930727 1_565
Np0 Si1 2.930727 1_455
Np0 Si3 2.930727 1_565
Np0 Si3 2.930727 1_455
Np1 Si3 2.904530 1_556
Np1 Si1 2.904530 1_555
Np1 Si2 2.930727 1_655
Np1 Si0 2.930727 1_655
Np1 Si2 2.930727 1_545
Np1 Si0 2.930727 1_545
Np2 Si3 2.950695 1_456
Np2 Si3 2.950695 1_566
Np2 Si1 2.950695 1_455
Np2 Si1 2.950695 1_565
Np2 Si2 3.074457 1_545
Np2 Si0 3.074457 1_545
Np2 Si2 3.074457 1_655
Np2 Si0 3.074457 1_655
Np3 Si0 2.950695 1_545
Np3 Si0 2.950695 1_655
Np3 Si2 2.950695 1_544
Np3 Si2 2.950695 1_654
Np3 Si1 3.074457 1_455
Np3 Si1 3.074457 1_565
Np3 Si3 3.074457 1_455
Np3 Si3 3.074457 1_565
Si0 Si2 2.431343 1_555
Si0 Si1 2.447125 1_465
Si1 Si3 2.431343 1_555
Si2 Si3 2.447125 1_466
