# generated using pymatgen
data_RbYMg14O16
_symmetry_space_group_name_H-M   'P 1'
_cell_length_a   4.49608500
_cell_length_b   8.71515000
_cell_length_c   8.95391100
_cell_angle_alpha   90.00000000
_cell_angle_beta   90.00000000
_cell_angle_gamma   90.00000000
_symmetry_Int_Tables_number   1
_chemical_formula_structural   RbYMg14O16
_chemical_formula_sum   'Rb1 Y1 Mg14 O16'
_cell_volume   350.85054277
_cell_formula_units_Z   1
loop_
 _symmetry_equiv_pos_site_id
 _symmetry_equiv_pos_as_xyz
  1  'x, y, z'
loop_
 _atom_site_type_symbol
 _atom_site_label
 _atom_site_symmetry_multiplicity
 _atom_site_fract_x
 _atom_site_fract_y
 _atom_site_fract_z
 _atom_site_occupancy
  Rb  Rb0  1  0.00000000  0.00000000  0.50000000  1
  Y  Y0  1  0.00000000  0.00000000  0.00000000  1
  Mg  Mg0  1  0.00000000  0.50000000  0.00000000  1
  Mg  Mg1  1  0.00000000  0.50000000  0.50000000  1
  Mg  Mg2  1  0.50000000  0.00000000  0.26229700  1
  Mg  Mg3  1  0.50000000  0.00000000  0.73770300  1
  Mg  Mg4  1  0.50000000  0.50000000  0.25281100  1
  Mg  Mg5  1  0.50000000  0.50000000  0.74718900  1
  Mg  Mg6  1  0.50000000  0.26200300  0.00000000  1
  Mg  Mg7  1  0.50000000  0.25556500  0.50000000  1
  Mg  Mg8  1  0.50000000  0.73799700  0.00000000  1
  Mg  Mg9  1  0.50000000  0.74443500  0.50000000  1
  Mg  Mg10  1  0.00000000  0.25927800  0.25704500  1
  Mg  Mg11  1  0.00000000  0.25927800  0.74295500  1
  Mg  Mg12  1  0.00000000  0.74072200  0.25704500  1
  Mg  Mg13  1  0.00000000  0.74072200  0.74295500  1
  O  O0  1  0.00000000  0.26247800  0.00000000  1
  O  O1  1  0.00000000  0.28174900  0.50000000  1
  O  O2  1  0.00000000  0.73752200  0.00000000  1
  O  O3  1  0.00000000  0.71825100  0.50000000  1
  O  O4  1  0.50000000  0.25019700  0.24878100  1
  O  O5  1  0.50000000  0.25019700  0.75121900  1
  O  O6  1  0.50000000  0.74980300  0.24878100  1
  O  O7  1  0.50000000  0.74980300  0.75121900  1
  O  O8  1  0.50000000  0.00000000  0.00000000  1
  O  O9  1  0.50000000  0.00000000  0.50000000  1
  O  O10  1  0.50000000  0.50000000  0.00000000  1
  O  O11  1  0.50000000  0.50000000  0.50000000  1
  O  O12  1  0.00000000  0.00000000  0.23478600  1
  O  O13  1  0.00000000  0.00000000  0.76521400  1
  O  O14  1  0.00000000  0.50000000  0.24312000  1
  O  O15  1  0.00000000  0.50000000  0.75688000  1
loop_
_geom_bond_atom_site_label_1
_geom_bond_atom_site_label_2
_geom_bond_distance
_geom_bond_site_symmetry_2
Mg0 O0 2.070040 1_555
Mg0 O2 2.070040 1_555
Mg0 O14 2.176875 1_555
Mg0 O15 2.176875 1_554
Mg0 O10 2.248042 1_455
Mg0 O10 2.248042 1_555
Mg1 O3 1.902090 1_555
Mg1 O1 1.902090 1_555
Mg1 O11 2.248042 1_455
Mg1 O11 2.248042 1_555
Mg1 O14 2.300081 1_555
Mg1 O15 2.300081 1_555
Mg2 O9 2.128372 1_555
Mg2 O4 2.183860 1_555
Mg2 O6 2.183860 1_545
Mg2 O12 2.261498 1_655
Mg2 O12 2.261498 1_555
Mg2 O8 2.348584 1_555
Mg3 O9 2.128372 1_555
Mg3 O5 2.183860 1_555
Mg3 O7 2.183860 1_545
Mg3 O13 2.261498 1_555
Mg3 O13 2.261498 1_655
Mg3 O8 2.348584 1_556
Mg4 O6 2.177370 1_555
Mg4 O4 2.177370 1_555
Mg4 O11 2.213308 1_555
Mg4 O14 2.249717 1_555
Mg4 O14 2.249717 1_655
Mg4 O10 2.263647 1_555
Mg5 O7 2.177370 1_555
Mg5 O5 2.177370 1_555
Mg5 O11 2.213308 1_555
Mg5 O15 2.249717 1_555
Mg5 O15 2.249717 1_655
Mg5 O10 2.263647 1_556
Mg6 O10 2.074180 1_555
Mg6 O5 2.229938 1_554
Mg6 O4 2.229938 1_555
Mg6 O0 2.248046 1_655
Mg6 O0 2.248046 1_555
Mg6 O8 2.283395 1_555
Mg7 O11 2.130288 1_555
Mg7 O9 2.227287 1_555
Mg7 O4 2.249879 1_555
Mg7 O5 2.249879 1_555
Mg7 O1 2.259595 1_555
Mg7 O1 2.259595 1_655
Mg8 O10 2.074180 1_555
Mg8 O6 2.229938 1_555
Mg8 O7 2.229938 1_554
Mg8 O2 2.248046 1_555
Mg8 O2 2.248046 1_655
Mg8 O8 2.283395 1_565
Mg9 O11 2.130288 1_555
Mg9 O9 2.227287 1_565
Mg9 O6 2.249879 1_555
Mg9 O7 2.249879 1_555
Mg9 O3 2.259595 1_655
Mg9 O3 2.259595 1_555
Mg10 O14 2.101630 1_555
Mg10 O1 2.184195 1_555
Mg10 O4 2.250652 1_455
Mg10 O4 2.250652 1_555
Mg10 O12 2.268419 1_555
Mg10 O0 2.301727 1_555
Mg11 O15 2.101630 1_555
Mg11 O1 2.184195 1_555
Mg11 O5 2.250652 1_455
Mg11 O5 2.250652 1_555
Mg11 O13 2.268419 1_555
Mg11 O0 2.301727 1_556
Mg12 O14 2.101630 1_555
Mg12 O3 2.184195 1_555
Mg12 O6 2.250652 1_455
Mg12 O6 2.250652 1_555
Mg12 O12 2.268419 1_565
Mg12 O2 2.301727 1_555
Mg13 O15 2.101630 1_555
Mg13 O3 2.184195 1_555
Mg13 O7 2.250652 1_455
Mg13 O7 2.250652 1_555
Mg13 O13 2.268419 1_565
Mg13 O2 2.301727 1_556
O0 Y0 2.287535 1_555
O1 Rb0 2.455485 1_555
O2 Y0 2.287535 1_565
O3 Rb0 2.455485 1_565
O8 Y0 2.248042 1_555
O8 Y0 2.248042 1_655
O9 Rb0 2.248042 1_555
O9 Rb0 2.248042 1_655
O12 Y0 2.102253 1_555
O12 Rb0 2.374703 1_555
O13 Y0 2.102253 1_556
O13 Rb0 2.374703 1_555
