# generated using pymatgen
data_PrTlP2S7
_symmetry_space_group_name_H-M   'P 1'
_cell_length_a   12.52466700
_cell_length_b   9.13697500
_cell_length_c   9.89608838
_cell_angle_alpha   89.55136004
_cell_angle_beta   90.00000000
_cell_angle_gamma   90.00000000
_symmetry_Int_Tables_number   1
_chemical_formula_structural   PrTlP2S7
_chemical_formula_sum   'Pr4 Tl4 P8 S28'
_cell_volume   1132.44958134
_cell_formula_units_Z   4
loop_
 _symmetry_equiv_pos_site_id
 _symmetry_equiv_pos_as_xyz
  1  'x, y, z'
loop_
 _atom_site_type_symbol
 _atom_site_label
 _atom_site_symmetry_multiplicity
 _atom_site_fract_x
 _atom_site_fract_y
 _atom_site_fract_z
 _atom_site_occupancy
  Pr  Pr0  1  0.64278000  0.10779000  0.14365100  1
  Pr  Pr1  1  0.14278000  0.39221000  0.85634900  1
  Pr  Pr2  1  0.35722000  0.89221000  0.85634900  1
  Pr  Pr3  1  0.85722000  0.60779000  0.14365100  1
  Tl  Tl0  1  0.81074400  0.37175400  0.60346000  1
  Tl  Tl1  1  0.31074400  0.12824600  0.39654000  1
  Tl  Tl2  1  0.18925600  0.62824600  0.39654000  1
  Tl  Tl3  1  0.68925600  0.87175400  0.60346000  1
  P  P0  1  0.03736100  0.30228200  0.18824600  1
  P  P1  1  0.53736100  0.19771800  0.81175400  1
  P  P2  1  0.96263900  0.69771800  0.81175400  1
  P  P3  1  0.46263900  0.80228200  0.18824600  1
  P  P4  1  0.59997100  0.47809100  0.27567400  1
  P  P5  1  0.09997100  0.02190900  0.72432600  1
  P  P6  1  0.40002900  0.52190900  0.72432600  1
  P  P7  1  0.90002900  0.97809100  0.27567400  1
  S  S0  1  0.05423000  0.07871400  0.25222500  1
  S  S1  1  0.55423000  0.42128600  0.74777500  1
  S  S2  1  0.94577000  0.92128600  0.74777500  1
  S  S3  1  0.44577000  0.57871400  0.25222500  1
  S  S4  1  0.19254800  0.35324000  0.14918900  1
  S  S5  1  0.69254800  0.14676000  0.85081100  1
  S  S6  1  0.80745200  0.64676000  0.85081100  1
  S  S7  1  0.30745200  0.85324000  0.14918900  1
  S  S8  1  0.97793000  0.42948700  0.33717000  1
  S  S9  1  0.47793000  0.07051300  0.66283000  1
  S  S10  1  0.02207000  0.57051300  0.66283000  1
  S  S11  1  0.52207000  0.92948700  0.33717000  1
  S  S12  1  0.94170400  0.32061100  0.02231000  1
  S  S13  1  0.44170400  0.17938900  0.97769000  1
  S  S14  1  0.05829600  0.67938900  0.97769000  1
  S  S15  1  0.55829600  0.82061100  0.02231000  1
  S  S16  1  0.79489400  0.11000400  0.37241000  1
  S  S17  1  0.29489400  0.38999600  0.62759000  1
  S  S18  1  0.20510600  0.88999600  0.62759000  1
  S  S19  1  0.70510600  0.61000400  0.37241000  1
  S  S20  1  0.55590900  0.29047800  0.36916600  1
  S  S21  1  0.05590900  0.20952200  0.63083400  1
  S  S22  1  0.44409100  0.70952200  0.63083400  1
  S  S23  1  0.94409100  0.79047800  0.36916600  1
  S  S24  1  0.66432700  0.43066900  0.09144500  1
  S  S25  1  0.16432700  0.06933100  0.90855500  1
  S  S26  1  0.33567300  0.56933100  0.90855500  1
  S  S27  1  0.83567300  0.93066900  0.09144500  1
loop_
_geom_bond_atom_site_label_1
_geom_bond_atom_site_label_2
_geom_bond_distance
_geom_bond_site_symmetry_2
Pr0 S11 2.925492 1_545
Pr0 S27 2.955628 1_545
Pr0 S16 2.959004 1_555
Pr0 S5 2.982850 1_554
Pr0 S20 3.001497 1_555
Pr0 S24 3.003195 1_555
Pr0 S13 3.074232 1_554
Pr0 S15 3.081560 1_545
Pr1 S10 2.925492 1_555
Pr1 S26 2.955628 1_555
Pr1 S17 2.959004 1_555
Pr1 S4 2.982850 1_556
Pr1 S21 3.001497 1_555
Pr1 S25 3.003195 1_555
Pr1 S12 3.074232 1_456
Pr1 S14 3.081560 1_555
Pr2 S9 2.925492 1_565
Pr2 S25 2.955628 1_565
Pr2 S18 2.959004 1_555
Pr2 S7 2.982850 1_556
Pr2 S22 3.001497 1_555
Pr2 S26 3.003195 1_555
Pr2 S15 3.074232 1_556
Pr2 S13 3.081560 1_565
Pr3 S8 2.925492 1_555
Pr3 S24 2.955628 1_555
Pr3 S19 2.959004 1_555
Pr3 S6 2.982850 1_554
Pr3 S23 3.001497 1_555
Pr3 S27 3.003195 1_555
Pr3 S14 3.074232 1_654
Pr3 S12 3.081560 1_555
P0 S8 2.025769 1_455
P0 S4 2.034992 1_555
P0 S12 2.038545 1_455
P0 S0 2.144299 1_555
P1 S9 2.025769 1_555
P1 S5 2.034992 1_555
P1 S13 2.038545 1_555
P1 S1 2.144299 1_555
P2 S10 2.025769 1_655
P2 S6 2.034992 1_555
P2 S14 2.038545 1_655
P2 S2 2.144299 1_555
P3 S11 2.025769 1_555
P3 S7 2.034992 1_555
P3 S15 2.038545 1_555
P3 S3 2.144299 1_555
P4 S20 2.018478 1_555
P4 S19 2.030058 1_555
P4 S24 2.042957 1_555
P4 S3 2.150760 1_555
P5 S21 2.018478 1_555
P5 S18 2.030058 1_545
P5 S25 2.042957 1_555
P5 S2 2.150760 1_445
P6 S22 2.018478 1_555
P6 S17 2.030058 1_555
P6 S26 2.042957 1_555
P6 S1 2.150760 1_555
P7 S23 2.018478 1_555
P7 S16 2.030058 1_565
P7 S27 2.042957 1_555
P7 S0 2.150760 1_665
