# generated using pymatgen
data_Ta4Ag2O11
_symmetry_space_group_name_H-M   'P 1'
_cell_length_a   12.85197980
_cell_length_b   12.85197980
_cell_length_c   12.85198042
_cell_angle_alpha   27.99307477
_cell_angle_beta   27.99307477
_cell_angle_gamma   27.99307868
_symmetry_Int_Tables_number   1
_chemical_formula_structural   Ta4Ag2O11
_chemical_formula_sum   'Ta8 Ag4 O22'
_cell_volume   413.05388992
_cell_formula_units_Z   2
loop_
 _symmetry_equiv_pos_site_id
 _symmetry_equiv_pos_as_xyz
  1  'x, y, z'
loop_
 _atom_site_type_symbol
 _atom_site_label
 _atom_site_symmetry_multiplicity
 _atom_site_fract_x
 _atom_site_fract_y
 _atom_site_fract_z
 _atom_site_occupancy
  Ta  Ta0  1  0.88623330  0.61376670  0.25000000  1
  Ta  Ta1  1  0.25000000  0.88623330  0.61376670  1
  Ta  Ta2  1  0.61376670  0.25000000  0.88623330  1
  Ta  Ta3  1  0.75000000  0.11376670  0.38623330  1
  Ta  Ta4  1  0.38623330  0.75000000  0.11376670  1
  Ta  Ta5  1  0.11376670  0.38623330  0.75000000  1
  Ta  Ta6  1  0.50000000  0.50000000  0.50000000  1
  Ta  Ta7  1  0.00000000  -0.00000000  -0.00000000  1
  Ag  Ag0  1  0.17104347  0.17104347  0.17104347  1
  Ag  Ag1  1  0.67104347  0.67104347  0.67104347  1
  Ag  Ag2  1  0.82895653  0.82895653  0.82895653  1
  Ag  Ag3  1  0.32895653  0.32895653  0.32895653  1
  O  O0  1  0.24536724  0.93601281  0.72569772  1
  O  O1  1  0.72569772  0.24536724  0.93601281  1
  O  O2  1  0.93601281  0.72569772  0.24536724  1
  O  O3  1  0.22569772  0.43601281  0.74536724  1
  O  O4  1  0.74536724  0.22569772  0.43601281  1
  O  O5  1  0.43601281  0.74536724  0.22569772  1
  O  O6  1  0.75463276  0.06398719  0.27430228  1
  O  O7  1  0.27430228  0.75463276  0.06398719  1
  O  O8  1  0.06398719  0.27430228  0.75463276  1
  O  O9  1  0.77430228  0.56398719  0.25463276  1
  O  O10  1  0.25463276  0.77430228  0.56398719  1
  O  O11  1  0.56398719  0.25463276  0.77430228  1
  O  O12  1  0.49867119  0.00132881  0.25000000  1
  O  O13  1  0.25000000  0.49867119  0.00132881  1
  O  O14  1  0.00132881  0.25000000  0.49867119  1
  O  O15  1  0.75000000  0.50132881  -0.00132881  1
  O  O16  1  -0.00132881  0.75000000  0.50132881  1
  O  O17  1  0.50132881  -0.00132881  0.75000000  1
  O  O18  1  0.09335406  0.09335406  0.09335406  1
  O  O19  1  0.59335406  0.59335406  0.59335406  1
  O  O20  1  0.90664594  0.90664594  0.90664594  1
  O  O21  1  0.40664594  0.40664594  0.40664594  1
loop_
_geom_bond_atom_site_label_1
_geom_bond_atom_site_label_2
_geom_bond_distance
_geom_bond_site_symmetry_2
Ag0 O4 2.560563 1_455
Ag0 O3 2.560563 1_554
Ag0 O5 2.560563 1_545
Ag0 O11 2.662549 1_554
Ag0 O10 2.662549 1_545
Ag0 O9 2.662549 1_455
Ag1 O1 2.560563 1_555
Ag1 O2 2.560563 1_555
Ag1 O0 2.560563 1_555
Ag1 O6 2.662549 1_565
Ag1 O7 2.662549 1_556
Ag1 O8 2.662549 1_655
Ag2 O10 2.560563 1_655
Ag2 O9 2.560563 1_556
Ag2 O11 2.560563 1_565
Ag2 O5 2.662549 1_556
Ag2 O4 2.662549 1_565
Ag2 O3 2.662549 1_655
Ag3 O7 2.560563 1_555
Ag3 O8 2.560563 1_555
Ag3 O6 2.560563 1_555
Ag3 O0 2.662549 1_545
Ag3 O1 2.662549 1_554
Ag3 O2 2.662549 1_455
O0 Ta1 1.972055 1_555
O0 Ta7 1.988947 1_566
O1 Ta2 1.972055 1_555
O1 Ta7 1.988947 1_656
O2 Ta0 1.972055 1_555
O2 Ta7 1.988947 1_665
O3 Ta5 1.972055 1_555
O3 Ta6 1.988947 1_555
O4 Ta3 1.972055 1_555
O4 Ta6 1.988947 1_555
O5 Ta4 1.972055 1_555
O5 Ta6 1.988947 1_555
O6 Ta3 1.972055 1_555
O6 Ta7 1.988947 1_655
O7 Ta4 1.972055 1_555
O7 Ta7 1.988947 1_565
O8 Ta5 1.972055 1_555
O8 Ta7 1.988947 1_556
O9 Ta0 1.972055 1_555
O9 Ta6 1.988947 1_555
O10 Ta1 1.972055 1_555
O10 Ta6 1.988947 1_555
O11 Ta2 1.972055 1_555
O11 Ta6 1.988947 1_555
O12 Ta2 2.002029 1_554
O12 Ta1 2.002029 1_545
O12 Ta0 2.409413 1_545
O13 Ta0 2.002029 1_455
O13 Ta2 2.002029 1_554
O13 Ta1 2.409413 1_554
O14 Ta0 2.002029 1_455
O14 Ta1 2.002029 1_545
O14 Ta2 2.409413 1_455
O15 Ta5 2.002029 1_654
O15 Ta4 2.002029 1_555
O15 Ta3 2.409413 1_555
O16 Ta5 2.002029 1_555
O16 Ta3 2.002029 1_465
O16 Ta4 2.409413 1_555
O17 Ta3 2.002029 1_555
O17 Ta4 2.002029 1_546
O17 Ta5 2.409413 1_555
O18 Ta3 2.018837 1_455
O18 Ta5 2.018837 1_554
O18 Ta4 2.018837 1_545
O19 Ta2 2.018837 1_555
O19 Ta0 2.018837 1_555
O19 Ta1 2.018837 1_555
O20 Ta1 2.018837 1_655
O20 Ta0 2.018837 1_556
O20 Ta2 2.018837 1_565
O21 Ta4 2.018837 1_555
O21 Ta5 2.018837 1_555
O21 Ta3 2.018837 1_555
