# generated using pymatgen
data_Pr2Si2PbS8
_symmetry_space_group_name_H-M   'P 1'
_cell_length_a   9.08159716
_cell_length_b   9.08159716
_cell_length_c   10.28212634
_cell_angle_alpha   65.24340252
_cell_angle_beta   65.24340252
_cell_angle_gamma   60.29462671
_symmetry_Int_Tables_number   1
_chemical_formula_structural   Pr2Si2PbS8
_chemical_formula_sum   'Pr4 Si4 Pb2 S16'
_cell_volume   644.44817701
_cell_formula_units_Z   2
loop_
 _symmetry_equiv_pos_site_id
 _symmetry_equiv_pos_as_xyz
  1  'x, y, z'
loop_
 _atom_site_type_symbol
 _atom_site_label
 _atom_site_symmetry_multiplicity
 _atom_site_fract_x
 _atom_site_fract_y
 _atom_site_fract_z
 _atom_site_occupancy
  Pr  Pr0  1  0.06124300  0.25195300  0.74817800  1
  Pr  Pr1  1  0.44004600  0.55702400  0.75323100  1
  Pr  Pr2  1  0.25195300  0.06124300  0.24817800  1
  Pr  Pr3  1  0.55702400  0.44004600  0.25323100  1
  Si  Si0  1  0.65241900  0.16950700  0.02122100  1
  Si  Si1  1  0.16950700  0.65241900  0.52122100  1
  Si  Si2  1  0.33291200  0.84599800  0.97801700  1
  Si  Si3  1  0.84599800  0.33291200  0.47801700  1
  Pb  Pb0  1  0.74991300  0.92929800  0.74952000  1
  Pb  Pb1  1  0.92929800  0.74991300  0.24952000  1
  S  S0  1  0.88492200  0.97595700  0.92683300  1
  S  S1  1  0.71284600  0.39743400  0.94627000  1
  S  S2  1  0.43854300  0.22568300  0.94749400  1
  S  S3  1  0.39743400  0.71284600  0.44627000  1
  S  S4  1  0.97595700  0.88492200  0.42683300  1
  S  S5  1  0.22568300  0.43854300  0.44749400  1
  S  S6  1  0.11109900  0.06677300  0.04574700  1
  S  S7  1  0.28102800  0.61331700  0.06482800  1
  S  S8  1  0.53385700  0.79032000  0.06891600  1
  S  S9  1  0.61331700  0.28102800  0.56482800  1
  S  S10  1  0.06677300  0.11109900  0.54574700  1
  S  S11  1  0.79032000  0.53385700  0.56891600  1
  S  S12  1  0.56773000  0.09769500  0.25815000  1
  S  S13  1  0.09769500  0.56773000  0.75815000  1
  S  S14  1  0.40052700  0.91195600  0.74159500  1
  S  S15  1  0.91195600  0.40052700  0.24159500  1
loop_
_geom_bond_atom_site_label_1
_geom_bond_atom_site_label_2
_geom_bond_distance
_geom_bond_site_symmetry_2
Pr0 S10 2.837225 1_555
Pr0 S6 2.913885 1_556
Pr0 S1 2.935721 1_455
Pr0 S5 2.985532 1_555
Pr0 S13 3.091880 1_555
Pr0 S14 3.099008 1_545
Pr0 S11 3.099766 1_455
Pr0 S0 3.143076 1_445
Pr1 S2 2.833472 1_555
Pr1 S11 2.894214 1_555
Pr1 S3 2.975477 1_555
Pr1 S14 3.016545 1_555
Pr1 S13 3.041595 1_555
Pr1 S7 3.062144 1_556
Pr1 S9 3.180553 1_555
Pr1 S1 3.213798 1_555
Pr2 S6 2.837225 1_555
Pr2 S10 2.913885 1_555
Pr2 S3 2.935721 1_545
Pr2 S2 2.985532 1_554
Pr2 S12 3.091880 1_555
Pr2 S15 3.099008 1_455
Pr2 S8 3.099766 1_545
Pr2 S4 3.143076 1_445
Pr3 S5 2.833472 1_555
Pr3 S8 2.894214 1_555
Pr3 S1 2.975477 1_554
Pr3 S15 3.016545 1_555
Pr3 S12 3.041595 1_555
Pr3 S9 3.062144 1_555
Pr3 S7 3.180553 1_555
Pr3 S3 3.213798 1_555
Pb0 S0 2.835644 1_555
Pb0 S9 2.883386 1_565
Pb0 S8 3.132748 1_556
Pb0 S4 3.159197 1_555
Pb0 S13 3.236939 1_655
Pb0 S14 3.289654 1_555
Pb1 S4 2.835644 1_555
Pb1 S7 2.883386 1_655
Pb1 S11 3.132748 1_555
Pb1 S0 3.159197 1_554
Pb1 S12 3.236939 1_565
Pb1 S15 3.289654 1_555
S0 Si0 2.126985 1_566
S1 Si0 2.148320 1_556
S2 Si0 2.129512 1_556
S3 Si1 2.148320 1_555
S4 Si1 2.126985 1_655
S5 Si1 2.129512 1_555
S6 Si2 2.134124 1_544
S7 Si2 2.130455 1_554
S8 Si2 2.139546 1_554
S9 Si3 2.130455 1_555
S10 Si3 2.134124 1_455
S11 Si3 2.139546 1_555
S12 Si0 2.132801 1_555
S13 Si1 2.132801 1_555
S14 Si2 2.130737 1_555
S15 Si3 2.130737 1_555
