# generated using pymatgen
data_TeMoWSe3
_symmetry_space_group_name_H-M   'P 1'
_cell_length_a   3.38300811
_cell_length_b   3.38300811
_cell_length_c   38.47392400
_cell_angle_alpha   90.00000000
_cell_angle_beta   90.00000000
_cell_angle_gamma   120.00000222
_symmetry_Int_Tables_number   1
_chemical_formula_structural   TeMoWSe3
_chemical_formula_sum   'Te2 Mo2 W2 Se6'
_cell_volume   381.33194047
_cell_formula_units_Z   2
loop_
 _symmetry_equiv_pos_site_id
 _symmetry_equiv_pos_as_xyz
  1  'x, y, z'
loop_
 _atom_site_type_symbol
 _atom_site_label
 _atom_site_symmetry_multiplicity
 _atom_site_fract_x
 _atom_site_fract_y
 _atom_site_fract_z
 _atom_site_occupancy
  Te  Te0  1  0.33333300  0.66666700  0.70665300  1
  Te  Te1  1  0.33333300  0.66666700  0.60842800  1
  Mo  Mo0  1  0.33333300  0.66666700  0.46964800  1
  Mo  Mo1  1  0.66666700  0.33333300  0.28180000  1
  W  W0  1  0.33333300  0.66666700  0.09391600  1
  W  W1  1  0.66666700  0.33333300  0.65756000  1
  Se  Se0  1  0.33333300  0.66666700  0.32478600  1
  Se  Se1  1  0.66666700  0.33333300  0.05075800  1
  Se  Se2  1  0.66666700  0.33333300  0.42667700  1
  Se  Se3  1  0.66666700  0.33333300  0.13708200  1
  Se  Se4  1  0.66666700  0.33333300  0.51263900  1
  Se  Se5  1  0.33333300  0.66666700  0.23880200  1
loop_
_geom_bond_atom_site_label_1
_geom_bond_atom_site_label_2
_geom_bond_distance
_geom_bond_site_symmetry_2
Te0 W1 2.717071 1_455
Te0 W1 2.717071 1_565
Te0 W1 2.717075 1_555
Te1 W1 2.718114 1_455
Te1 W1 2.718114 1_565
Te1 W1 2.718118 1_555
Mo0 Se2 2.558942 1_565
Mo0 Se2 2.558942 1_455
Mo0 Se2 2.558947 1_555
Mo0 Se4 2.559439 1_455
Mo0 Se4 2.559439 1_565
Mo0 Se4 2.559444 1_555
Mo1 Se0 2.559315 1_655
Mo1 Se0 2.559315 1_545
Mo1 Se0 2.559320 1_555
Mo1 Se5 2.559613 1_545
Mo1 Se5 2.559613 1_655
Mo1 Se5 2.559618 1_555
Se1 W0 2.563596 1_545
Se1 W0 2.563596 1_655
Se1 W0 2.563601 1_555
Se3 W0 2.563796 1_545
Se3 W0 2.563796 1_655
Se3 W0 2.563800 1_555
