# generated using pymatgen
data_CaCr2CoO7
_symmetry_space_group_name_H-M   'P 1'
_cell_length_a   6.84246660
_cell_length_b   11.28713949
_cell_length_c   14.64379000
_cell_angle_alpha   90.00000000
_cell_angle_beta   90.00000000
_cell_angle_gamma   99.51034972
_symmetry_Int_Tables_number   1
_chemical_formula_structural   CaCr2CoO7
_chemical_formula_sum   'Ca8 Cr16 Co8 O56'
_cell_volume   1115.42308466
_cell_formula_units_Z   8
loop_
 _symmetry_equiv_pos_site_id
 _symmetry_equiv_pos_as_xyz
  1  'x, y, z'
loop_
 _atom_site_type_symbol
 _atom_site_label
 _atom_site_symmetry_multiplicity
 _atom_site_fract_x
 _atom_site_fract_y
 _atom_site_fract_z
 _atom_site_occupancy
  Ca  Ca0  1  0.07778200  0.72778500  0.50249600  1
  Ca  Ca1  1  0.33022800  0.96219400  0.87987300  1
  Ca  Ca2  1  0.66977200  0.53780600  0.37987300  1
  Ca  Ca3  1  0.66977200  0.03780600  0.12012700  1
  Ca  Ca4  1  0.33022800  0.46219400  0.62012700  1
  Ca  Ca5  1  0.07778200  0.22778500  0.99750400  1
  Ca  Ca6  1  0.92221800  0.27221500  0.49750400  1
  Ca  Ca7  1  0.92221800  0.77221500  0.00249600  1
  Cr  Cr0  1  0.84136700  0.98469700  0.86900700  1
  Cr  Cr1  1  0.42256500  0.68948200  0.01537600  1
  Cr  Cr2  1  0.42256500  0.18948200  0.48462400  1
  Cr  Cr3  1  0.57743500  0.31051800  0.98462400  1
  Cr  Cr4  1  0.50560600  0.78611000  0.70411800  1
  Cr  Cr5  1  0.49439400  0.71389000  0.20411800  1
  Cr  Cr6  1  0.49439400  0.21389000  0.29588200  1
  Cr  Cr7  1  0.50560600  0.28611000  0.79588200  1
  Cr  Cr8  1  0.57743500  0.81051800  0.51537600  1
  Cr  Cr9  1  0.86890300  0.48283200  0.13674300  1
  Cr  Cr10  1  0.13109700  0.01716800  0.63674300  1
  Cr  Cr11  1  0.13109700  0.51716800  0.86325700  1
  Cr  Cr12  1  0.15863300  0.51530300  0.36900700  1
  Cr  Cr13  1  0.84136700  0.48469700  0.63099300  1
  Cr  Cr14  1  0.15863300  0.01530300  0.13099300  1
  Cr  Cr15  1  0.86890300  0.98283200  0.36325700  1
  Co  Co0  1  0.63404800  0.07326800  0.67209100  1
  Co  Co1  1  0.36595200  0.42673200  0.17209100  1
  Co  Co2  1  0.36595200  0.92673200  0.32790900  1
  Co  Co3  1  0.63404800  0.57326800  0.82790900  1
  Co  Co4  1  0.99893300  0.24880800  0.75402500  1
  Co  Co5  1  0.00106700  0.25119200  0.25402500  1
  Co  Co6  1  0.00106700  0.75119200  0.24597500  1
  Co  Co7  1  0.99893300  0.74880800  0.74597500  1
  O  O0  1  0.75895600  0.95634500  0.97746000  1
  O  O1  1  0.24104400  0.54365500  0.47746000  1
  O  O2  1  0.24104400  0.04365500  0.02254000  1
  O  O3  1  0.75895600  0.45634500  0.52254000  1
  O  O4  1  0.99172000  0.87503400  0.85156800  1
  O  O5  1  0.00828000  0.62496600  0.35156700  1
  O  O6  1  0.00828000  0.12496600  0.14843200  1
  O  O7  1  0.99172000  0.37503400  0.64843200  1
  O  O8  1  0.99569200  0.12104300  0.85748800  1
  O  O9  1  0.00430800  0.37895700  0.35748800  1
  O  O10  1  0.00430800  0.87895700  0.14251200  1
  O  O11  1  0.99569200  0.62104300  0.64251200  1
  O  O12  1  0.68529200  0.95566500  0.28843400  1
  O  O13  1  0.31470800  0.54433500  0.78843400  1
  O  O14  1  0.31470800  0.04433500  0.71156600  1
  O  O15  1  0.68529200  0.45566500  0.21156600  1
  O  O16  1  0.96694800  0.12934200  0.36306400  1
  O  O17  1  0.03305200  0.37065800  0.86306400  1
  O  O18  1  0.03305200  0.87065800  0.63693600  1
  O  O19  1  0.96694800  0.62934200  0.13693600  1
  O  O20  1  0.04393800  0.89589600  0.33960300  1
  O  O21  1  0.37891400  0.83017900  0.44162100  1
  O  O22  1  0.95606200  0.60410400  0.83960300  1
  O  O23  1  0.04393800  0.39589600  0.16039700  1
  O  O24  1  0.73158400  0.70960700  0.47916500  1
  O  O25  1  0.26841600  0.79039300  0.97916500  1
  O  O26  1  0.26841600  0.29039300  0.52083500  1
  O  O27  1  0.73158400  0.20960700  0.02083500  1
  O  O28  1  0.77586500  0.95025600  0.46619800  1
  O  O29  1  0.22413500  0.54974400  0.96619800  1
  O  O30  1  0.22413500  0.04974400  0.53380200  1
  O  O31  1  0.77586500  0.45025700  0.03380200  1
  O  O32  1  0.42428700  0.19842800  0.89407800  1
  O  O33  1  0.57571300  0.30157200  0.39407800  1
  O  O34  1  0.57571300  0.80157200  0.10592200  1
  O  O35  1  0.42428700  0.69842800  0.60592200  1
  O  O36  1  0.69365400  0.22037900  0.75102600  1
  O  O37  1  0.30634600  0.27962100  0.25102600  1
  O  O38  1  0.30634600  0.77962100  0.24897400  1
  O  O39  1  0.69365400  0.72037900  0.74897400  1
  O  O40  1  0.63536000  0.46844700  0.70220500  1
  O  O41  1  0.36464000  0.03155300  0.20220500  1
  O  O42  1  0.36464000  0.53155300  0.29779500  1
  O  O43  1  0.63536000  0.96844700  0.79779500  1
  O  O44  1  0.29716500  0.29658400  0.73685200  1
  O  O45  1  0.70283500  0.20341600  0.23685200  1
  O  O46  1  0.70283500  0.70341600  0.26314800  1
  O  O47  1  0.29716500  0.79658400  0.76314800  1
  O  O48  1  0.59583500  0.40486700  0.87651500  1
  O  O49  1  0.40416500  0.09513300  0.37651500  1
  O  O50  1  0.40416500  0.59513300  0.12348500  1
  O  O51  1  0.59583500  0.90486700  0.62348500  1
  O  O52  1  0.37891400  0.33017900  0.05837900  1
  O  O53  1  0.62108600  0.16982100  0.55837900  1
  O  O54  1  0.62108600  0.66982100  0.94162100  1
  O  O55  1  0.95606200  0.10410400  0.66039700  1
loop_
_geom_bond_atom_site_label_1
_geom_bond_atom_site_label_2
_geom_bond_distance
_geom_bond_site_symmetry_2
Ca0 O21 2.364120 1_555
Ca0 O24 2.368471 1_455
Ca0 O11 2.397382 1_455
Ca0 O5 2.505091 1_555
Ca0 O1 2.543404 1_555
Ca0 O18 2.594834 1_555
Ca0 O35 2.878310 1_555
Ca1 O4 2.398243 1_455
Ca1 O43 2.400015 1_555
Ca1 O2 2.401647 1_566
Ca1 O25 2.404638 1_555
Ca1 O47 2.515408 1_555
Ca1 O14 2.641573 1_565
Ca1 O32 2.645775 1_565
Ca2 O5 2.398245 1_655
Ca2 O42 2.400015 1_555
Ca2 O3 2.401647 1_555
Ca2 O24 2.404638 1_555
Ca2 O46 2.515408 1_555
Ca2 O15 2.641573 1_555
Ca2 O33 2.645775 1_555
Ca3 O6 2.398243 1_655
Ca3 O41 2.400015 1_555
Ca3 O0 2.401647 1_544
Ca3 O27 2.404638 1_555
Ca3 O45 2.515408 1_555
Ca3 O12 2.641573 1_545
Ca3 O34 2.645775 1_545
Ca4 O7 2.398243 1_455
Ca4 O40 2.400015 1_555
Ca4 O1 2.401647 1_555
Ca4 O26 2.404638 1_555
Ca4 O44 2.515408 1_555
Ca4 O13 2.641573 1_555
Ca4 O35 2.645775 1_555
Ca5 O52 2.364120 1_556
Ca5 O27 2.368471 1_456
Ca5 O8 2.397382 1_455
Ca5 O6 2.505078 1_556
Ca5 O2 2.543404 1_556
Ca5 O17 2.594834 1_555
Ca5 O32 2.878310 1_555
Ca6 O53 2.364120 1_555
Ca6 O26 2.368471 1_655
Ca6 O9 2.397382 1_655
Ca6 O7 2.505078 1_555
Ca6 O3 2.543404 1_555
Ca6 O16 2.594834 1_555
Ca6 O33 2.878310 1_555
Ca7 O54 2.364120 1_554
Ca7 O25 2.368471 1_654
Ca7 O10 2.397382 1_655
Ca7 O4 2.505078 1_554
Ca7 O0 2.543404 1_554
Ca7 O19 2.594834 1_555
Ca7 O34 2.878310 1_555
Cr0 O0 1.697945 1_555
Cr0 O8 1.724787 1_565
Cr0 O43 1.738570 1_555
Cr0 O4 1.754001 1_555
Cr1 O25 1.757272 1_554
Cr1 O54 1.777794 1_554
Cr1 O50 1.900502 1_555
Cr1 O34 2.004690 1_555
Cr1 O29 2.035224 1_554
Cr2 O26 1.757272 1_555
Cr2 O53 1.777794 1_555
Cr2 O49 1.900502 1_555
Cr2 O33 2.004690 1_555
Cr2 O30 2.035224 1_555
Cr3 O27 1.757272 1_556
Cr3 O52 1.777794 1_556
Cr3 O48 1.900502 1_555
Cr3 O32 2.004690 1_555
Cr3 O31 2.035232 1_556
Cr4 O47 1.688524 1_555
Cr4 O39 1.718427 1_555
Cr4 O35 1.781806 1_555
Cr4 O51 1.816223 1_555
Cr4 O43 2.510352 1_555
Cr5 O46 1.688524 1_555
Cr5 O38 1.718427 1_555
Cr5 O34 1.781806 1_555
Cr5 O50 1.816223 1_555
Cr5 O42 2.510352 1_555
Cr6 O45 1.688524 1_555
Cr6 O37 1.718427 1_555
Cr6 O33 1.781806 1_555
Cr6 O49 1.816223 1_555
Cr6 O41 2.510352 1_555
Cr7 O44 1.688524 1_555
Cr7 O36 1.718427 1_555
Cr7 O32 1.781806 1_555
Cr7 O48 1.816223 1_555
Cr7 O40 2.510352 1_555
Cr8 O24 1.757272 1_555
Cr8 O21 1.777794 1_555
Cr8 O51 1.900502 1_555
Cr8 O35 2.004690 1_555
Cr8 O28 2.035224 1_555
Cr9 O31 1.653936 1_555
Cr9 O15 1.657011 1_555
Cr9 O19 1.678727 1_555
Cr9 O23 1.704588 1_655
Cr10 O30 1.653938 1_555
Cr10 O14 1.657011 1_555
Cr10 O18 1.678727 1_545
Cr10 O55 1.704588 1_455
Cr11 O29 1.653938 1_555
Cr11 O13 1.657011 1_555
Cr11 O17 1.678727 1_555
Cr11 O22 1.704588 1_455
Cr12 O1 1.697945 1_555
Cr12 O9 1.724787 1_555
Cr12 O42 1.738570 1_555
Cr12 O5 1.754003 1_555
Cr13 O3 1.697945 1_555
Cr13 O11 1.724787 1_555
Cr13 O40 1.738570 1_555
Cr13 O7 1.754001 1_555
Cr14 O2 1.697945 1_555
Cr14 O10 1.724787 1_545
Cr14 O41 1.738570 1_555
Cr14 O6 1.754001 1_555
Cr15 O28 1.653938 1_555
Cr15 O12 1.657011 1_555
Cr15 O16 1.678727 1_565
Cr15 O20 1.704588 1_655
Co0 O53 2.000073 1_555
Co0 O51 2.005909 1_545
Co0 O36 2.008933 1_555
Co0 O55 2.179882 1_555
Co0 O43 2.189033 1_545
Co0 O14 2.231490 1_555
Co1 O52 2.000073 1_555
Co1 O50 2.005909 1_555
Co1 O37 2.008933 1_555
Co1 O23 2.179882 1_555
Co1 O42 2.189033 1_555
Co1 O15 2.231490 1_555
Co2 O21 2.000073 1_555
Co2 O49 2.005909 1_565
Co2 O38 2.008933 1_555
Co2 O20 2.179882 1_555
Co2 O41 2.189033 1_565
Co2 O12 2.231490 1_555
Co3 O54 2.000073 1_555
Co3 O48 2.005909 1_555
Co3 O39 2.008933 1_555
Co3 O22 2.179882 1_555
Co3 O40 2.189033 1_555
Co3 O13 2.231490 1_555
Co4 O44 2.038289 1_655
Co4 O36 2.060762 1_555
Co4 O8 2.089277 1_555
Co4 O17 2.095124 1_655
Co4 O7 2.108676 1_555
Co4 O55 2.115468 1_555
Co5 O45 2.038289 1_455
Co5 O37 2.060762 1_555
Co5 O9 2.089277 1_555
Co5 O16 2.095124 1_455
Co5 O6 2.108676 1_555
Co5 O23 2.115468 1_555
Co6 O46 2.038289 1_455
Co6 O38 2.060762 1_555
Co6 O10 2.089277 1_555
Co6 O19 2.095124 1_455
Co6 O5 2.108666 1_555
Co6 O20 2.115468 1_555
Co7 O47 2.038289 1_655
Co7 O39 2.060762 1_555
Co7 O11 2.089277 1_555
Co7 O18 2.095124 1_655
Co7 O4 2.108676 1_555
Co7 O22 2.115468 1_555
