# generated using pymatgen
data_HfMg149
_symmetry_space_group_name_H-M   'P 1'
_cell_length_a   15.94676590
_cell_length_b   15.94677140
_cell_length_c   15.59871713
_cell_angle_alpha   90.00000000
_cell_angle_beta   90.00000000
_cell_angle_gamma   120.00001141
_symmetry_Int_Tables_number   1
_chemical_formula_structural   HfMg149
_chemical_formula_sum   'Hf1 Mg149'
_cell_volume   3435.30144216
_cell_formula_units_Z   1
loop_
 _symmetry_equiv_pos_site_id
 _symmetry_equiv_pos_as_xyz
  1  'x, y, z'
loop_
 _atom_site_type_symbol
 _atom_site_label
 _atom_site_symmetry_multiplicity
 _atom_site_fract_x
 _atom_site_fract_y
 _atom_site_fract_z
 _atom_site_occupancy
  Hf  Hf0  1  -0.00000000  -0.00000000  0.00000000  1
  Mg  Mg0  1  0.60143723  0.00010455  -0.00000000  1
  Mg  Mg1  1  0.39866732  0.00010455  -0.00000000  1
  Mg  Mg2  1  0.19732698  0.19863379  -0.00000000  1
  Mg  Mg3  1  0.00130681  0.19863379  0.00000000  1
  Mg  Mg4  1  0.59977165  0.19954431  0.00000000  1
  Mg  Mg5  1  0.79973603  0.20026397  -0.00000000  1
  Mg  Mg6  1  0.40052894  0.20026497  -0.00000000  1
  Mg  Mg7  1  0.39866732  0.39856277  0.00000000  1
  Mg  Mg8  1  0.99989545  0.39856277  0.00000000  1
  Mg  Mg9  1  0.59977165  0.40022735  -0.00000000  1
  Mg  Mg10  1  0.80045569  0.40022735  -0.00000000  1
  Mg  Mg11  1  0.20051283  0.40102465  0.00000000  1
  Mg  Mg12  1  0.79973603  0.59947106  0.00000000  1
  Mg  Mg13  1  0.40002138  0.59997762  -0.00000000  1
  Mg  Mg14  1  0.19995624  0.59997862  0.00000000  1
  Mg  Mg15  1  0.99989545  0.60133268  0.00000000  1
  Mg  Mg16  1  0.60143723  0.60133268  -0.00000000  1
  Mg  Mg17  1  0.59897535  0.79948817  -0.00000000  1
  Mg  Mg18  1  0.20051283  0.79948817  -0.00000000  1
  Mg  Mg19  1  0.40002138  0.80004376  0.00000000  1
  Mg  Mg20  1  0.80136721  0.80267302  0.00000000  1
  Mg  Mg21  1  0.00130681  0.80267302  0.00000000  1
  Mg  Mg22  1  0.80136721  0.99869319  0.00000000  1
  Mg  Mg23  1  0.19732698  0.99869419  0.00000000  1
  Mg  Mg24  1  0.06604713  0.13209427  0.16472695  1
  Mg  Mg25  1  0.86790673  0.93395287  0.16472695  1
  Mg  Mg26  1  0.06604713  0.93395287  0.16472695  1
  Mg  Mg27  1  0.26549388  0.13274694  0.16537577  1
  Mg  Mg28  1  0.86725306  0.13274694  0.16537577  1
  Mg  Mg29  1  0.86725306  0.73450612  0.16537577  1
  Mg  Mg30  1  0.66666600  0.33333300  0.16618406  1
  Mg  Mg31  1  0.46592377  0.13304509  0.16656574  1
  Mg  Mg32  1  0.66712033  0.13304509  0.16656574  1
  Mg  Mg33  1  0.46592377  0.33287967  0.16656574  1
  Mg  Mg34  1  0.86695491  0.33287967  0.16656574  1
  Mg  Mg35  1  0.66712033  0.53407523  0.16656574  1
  Mg  Mg36  1  0.86695491  0.53407623  0.16656574  1
  Mg  Mg37  1  0.06664566  0.53332283  0.16676565  1
  Mg  Mg38  1  0.46667717  0.53332283  0.16676565  1
  Mg  Mg39  1  0.46667717  0.93335534  0.16676565  1
  Mg  Mg40  1  0.26669731  0.33427760  0.16694745  1
  Mg  Mg41  1  0.06758029  0.33427760  0.16694745  1
  Mg  Mg42  1  0.66572140  0.73330169  0.16694745  1
  Mg  Mg43  1  0.06758029  0.73330269  0.16694745  1
  Mg  Mg44  1  0.66572140  0.93241971  0.16694745  1
  Mg  Mg45  1  0.26669731  0.93241971  0.16694745  1
  Mg  Mg46  1  0.26695324  0.53390648  0.16707975  1
  Mg  Mg47  1  0.26695324  0.73304676  0.16707975  1
  Mg  Mg48  1  0.46609352  0.73304676  0.16707975  1
  Mg  Mg49  1  0.19967211  0.19989862  0.33231345  1
  Mg  Mg50  1  0.00022752  0.19989962  0.33231345  1
  Mg  Mg51  1  0.00022752  0.80032789  0.33231345  1
  Mg  Mg52  1  0.80010138  0.80032889  0.33231345  1
  Mg  Mg53  1  0.19967211  0.99977248  0.33231345  1
  Mg  Mg54  1  0.80010138  0.99977248  0.33231345  1
  Mg  Mg55  1  0.59995215  0.19990431  0.33288259  1
  Mg  Mg56  1  0.59995215  0.40004785  0.33288259  1
  Mg  Mg57  1  0.80009569  0.40004785  0.33288259  1
  Mg  Mg58  1  0.80010712  0.19989288  0.33316451  1
  Mg  Mg59  1  0.39978677  0.19989288  0.33316451  1
  Mg  Mg60  1  0.80010712  0.60021423  0.33316451  1
  Mg  Mg61  1  0.60006006  0.00010140  0.33337773  1
  Mg  Mg62  1  0.40004234  0.00010140  0.33337773  1
  Mg  Mg63  1  0.99989860  0.39993994  0.33337773  1
  Mg  Mg64  1  0.40004234  0.39993994  0.33337773  1
  Mg  Mg65  1  0.60006006  0.59995866  0.33337773  1
  Mg  Mg66  1  0.99989860  0.59995866  0.33337773  1
  Mg  Mg67  1  0.40006479  0.59993421  0.33363516  1
  Mg  Mg68  1  0.19986943  0.59993521  0.33363516  1
  Mg  Mg69  1  0.40006479  0.80013057  0.33363516  1
  Mg  Mg70  1  0.20021061  0.40042123  0.33393461  1
  Mg  Mg71  1  0.20021061  0.79978939  0.33393461  1
  Mg  Mg72  1  0.59957877  0.79978939  0.33393461  1
  Mg  Mg73  1  -0.00000000  -0.00000000  0.33435423  1
  Mg  Mg74  1  0.86672714  0.13327286  0.50000000  1
  Mg  Mg75  1  0.26654571  0.13327286  0.50000000  1
  Mg  Mg76  1  0.06675779  0.13351558  0.50000000  1
  Mg  Mg77  1  0.46701234  0.13409782  0.50000000  1
  Mg  Mg78  1  0.66708548  0.13409782  0.50000000  1
  Mg  Mg79  1  0.86590218  0.33291352  0.50000000  1
  Mg  Mg80  1  0.46701234  0.33291452  0.50000000  1
  Mg  Mg81  1  0.26663026  0.33309055  0.50000000  1
  Mg  Mg82  1  0.06646029  0.33309055  0.50000000  1
  Mg  Mg83  1  0.66666600  0.33333300  0.50000000  1
  Mg  Mg84  1  0.66708548  0.53298766  0.50000000  1
  Mg  Mg85  1  0.86590218  0.53298766  0.50000000  1
  Mg  Mg86  1  0.06576530  0.53288265  0.50000000  1
  Mg  Mg87  1  0.46711735  0.53288265  0.50000000  1
  Mg  Mg88  1  0.26656746  0.53313591  0.50000000  1
  Mg  Mg89  1  0.06646029  0.73336974  0.50000000  1
  Mg  Mg90  1  0.66691045  0.73336974  0.50000000  1
  Mg  Mg91  1  0.46686409  0.73343254  0.50000000  1
  Mg  Mg92  1  0.26656746  0.73343254  0.50000000  1
  Mg  Mg93  1  0.86672714  0.73345429  0.50000000  1
  Mg  Mg94  1  0.06675779  0.93324221  0.50000000  1
  Mg  Mg95  1  0.86648442  0.93324221  0.50000000  1
  Mg  Mg96  1  0.26663026  0.93353971  0.50000000  1
  Mg  Mg97  1  0.66691045  0.93353971  0.50000000  1
  Mg  Mg98  1  0.46711735  0.93423370  0.50000000  1
  Mg  Mg99  1  -0.00000000  -0.00000000  0.66564577  1
  Mg  Mg100  1  0.20021061  0.40042123  0.66606639  1
  Mg  Mg101  1  0.20021061  0.79978939  0.66606639  1
  Mg  Mg102  1  0.59957877  0.79978939  0.66606639  1
  Mg  Mg103  1  0.40006479  0.59993421  0.66636484  1
  Mg  Mg104  1  0.19986943  0.59993521  0.66636484  1
  Mg  Mg105  1  0.40006479  0.80013057  0.66636484  1
  Mg  Mg106  1  0.60006006  0.00010140  0.66662227  1
  Mg  Mg107  1  0.40004234  0.00010140  0.66662227  1
  Mg  Mg108  1  0.99989860  0.39993994  0.66662227  1
  Mg  Mg109  1  0.40004234  0.39993994  0.66662227  1
  Mg  Mg110  1  0.60006006  0.59995866  0.66662227  1
  Mg  Mg111  1  0.99989860  0.59995866  0.66662227  1
  Mg  Mg112  1  0.80010712  0.19989288  0.66683549  1
  Mg  Mg113  1  0.39978677  0.19989288  0.66683549  1
  Mg  Mg114  1  0.80010712  0.60021423  0.66683549  1
  Mg  Mg115  1  0.59995215  0.19990431  0.66711741  1
  Mg  Mg116  1  0.59995215  0.40004785  0.66711741  1
  Mg  Mg117  1  0.80009569  0.40004785  0.66711741  1
  Mg  Mg118  1  0.19967211  0.19989862  0.66768555  1
  Mg  Mg119  1  0.00022752  0.19989962  0.66768555  1
  Mg  Mg120  1  0.00022752  0.80032789  0.66768555  1
  Mg  Mg121  1  0.80010138  0.80032889  0.66768555  1
  Mg  Mg122  1  0.19967211  0.99977248  0.66768555  1
  Mg  Mg123  1  0.80010138  0.99977248  0.66768555  1
  Mg  Mg124  1  0.26695324  0.53390648  0.83292025  1
  Mg  Mg125  1  0.26695324  0.73304676  0.83292025  1
  Mg  Mg126  1  0.46609352  0.73304676  0.83292025  1
  Mg  Mg127  1  0.26669731  0.33427760  0.83305255  1
  Mg  Mg128  1  0.06758029  0.33427760  0.83305255  1
  Mg  Mg129  1  0.66572140  0.73330169  0.83305255  1
  Mg  Mg130  1  0.06758029  0.73330269  0.83305255  1
  Mg  Mg131  1  0.66572140  0.93241971  0.83305255  1
  Mg  Mg132  1  0.26669731  0.93241971  0.83305255  1
  Mg  Mg133  1  0.06664566  0.53332283  0.83323535  1
  Mg  Mg134  1  0.46667717  0.53332283  0.83323535  1
  Mg  Mg135  1  0.46667717  0.93335534  0.83323535  1
  Mg  Mg136  1  0.46592377  0.13304509  0.83343526  1
  Mg  Mg137  1  0.66712033  0.13304509  0.83343526  1
  Mg  Mg138  1  0.46592377  0.33287967  0.83343526  1
  Mg  Mg139  1  0.86695491  0.33287967  0.83343526  1
  Mg  Mg140  1  0.66712033  0.53407523  0.83343526  1
  Mg  Mg141  1  0.86695491  0.53407623  0.83343526  1
  Mg  Mg142  1  0.66666600  0.33333300  0.83381594  1
  Mg  Mg143  1  0.26549388  0.13274694  0.83462423  1
  Mg  Mg144  1  0.86725306  0.13274694  0.83462423  1
  Mg  Mg145  1  0.86725306  0.73450612  0.83462423  1
  Mg  Mg146  1  0.06604713  0.13209427  0.83527305  1
  Mg  Mg147  1  0.86790673  0.93395287  0.83527305  1
  Mg  Mg148  1  0.06604713  0.93395287  0.83527305  1
loop_
_geom_bond_atom_site_label_1
_geom_bond_atom_site_label_2
_geom_bond_distance
_geom_bond_site_symmetry_2
Hf0 Mg147 3.151247 1_444
Hf0 Mg25 3.151247 1_445
Hf0 Mg148 3.151256 1_544
Hf0 Mg26 3.151256 1_545
Hf0 Mg146 3.151256 1_554
Hf0 Mg24 3.151256 1_555
Hf0 Mg22 3.157182 1_445
Hf0 Mg20 3.157190 1_445
Hf0 Mg23 3.157190 1_545
Hf0 Mg2 3.157198 1_555
Hf0 Mg21 3.157200 1_545
Hf0 Mg3 3.157200 1_555
Mg0 Mg5 3.177164 1_555
Mg0 Mg44 3.178685 1_545
Mg0 Mg131 3.178685 1_544
Mg0 Mg17 3.179736 1_545
Mg0 Mg137 3.181429 1_554
Mg0 Mg32 3.181442 1_555
Mg0 Mg4 3.193783 1_555
Mg0 Mg135 3.198523 1_544
Mg0 Mg39 3.198535 1_545
Mg0 Mg22 3.199549 1_545
Mg0 Mg19 3.201182 1_545
Mg0 Mg1 3.233524 1_555
Mg1 Mg6 3.177173 1_555
Mg1 Mg45 3.178693 1_545
Mg1 Mg132 3.178693 1_544
Mg1 Mg18 3.179735 1_545
Mg1 Mg136 3.181429 1_554
Mg1 Mg31 3.181442 1_555
Mg1 Mg4 3.193774 1_555
Mg1 Mg135 3.198515 1_544
Mg1 Mg39 3.198528 1_545
Mg1 Mg23 3.199541 1_545
Mg1 Mg19 3.201175 1_545
Mg2 Mg3 3.125888 1_555
Mg2 Mg24 3.144790 1_555
Mg2 Mg27 3.175267 1_555
Mg2 Mg23 3.188391 1_545
Mg2 Mg7 3.199533 1_555
Mg2 Mg40 3.208033 1_555
Mg2 Mg6 3.227487 1_555
Mg3 Mg8 3.199534 1_455
Mg3 Mg41 3.208033 1_555
Mg3 Mg5 3.227479 1_455
Mg4 Mg6 3.183039 1_555
Mg4 Mg5 3.183063 1_555
Mg4 Mg9 3.200247 1_555
Mg5 Mg8 3.177164 1_555
Mg6 Mg7 3.177157 1_555
Mg6 Mg9 3.183031 1_555
Mg7 Mg9 3.193774 1_555
Mg10 Mg12 3.183048 1_555
Mg10 Mg5 3.183048 1_555
Mg10 Mg142 3.183349 1_554
Mg10 Mg30 3.183349 1_555
Mg10 Mg139 3.188652 1_554
Mg10 Mg34 3.188664 1_555
Mg10 Mg141 3.188668 1_554
Mg10 Mg36 3.188680 1_555
Mg10 Mg8 3.193774 1_555
Mg10 Mg15 3.193782 1_555
Mg10 Mg4 3.200253 1_555
Mg10 Mg9 3.200261 1_555
Mg11 Mg13 3.177096 1_555
Mg11 Mg14 3.177121 1_555
Mg11 Mg7 3.179735 1_555
Mg11 Mg8 3.179751 1_455
Mg11 Mg127 3.186213 1_554
Mg11 Mg40 3.186213 1_555
Mg11 Mg128 3.186221 1_554
Mg11 Mg41 3.186221 1_555
Mg11 Mg124 3.187502 1_554
Mg11 Mg46 3.187502 1_555
Mg11 Mg2 3.202381 1_555
Mg11 Mg3 3.202388 1_555
Mg12 Mg15 3.177156 1_555
Mg12 Mg16 3.177172 1_555
Mg12 Mg141 3.178835 1_554
Mg12 Mg36 3.178848 1_555
Mg12 Mg140 3.178851 1_554
Mg12 Mg35 3.178863 1_555
Mg12 Mg9 3.183055 1_555
Mg12 Mg145 3.183136 1_554
Mg12 Mg29 3.183136 1_555
Mg12 Mg21 3.227487 1_655
Mg12 Mg20 3.227488 1_555
Mg13 Mg17 3.177120 1_555
Mg13 Mg134 3.186901 1_554
Mg13 Mg38 3.186914 1_555
Mg13 Mg46 3.188992 1_555
Mg13 Mg48 3.189000 1_555
Mg13 Mg14 3.190400 1_555
Mg13 Mg19 3.190409 1_555
Mg13 Mg7 3.201175 1_555
Mg13 Mg16 3.201182 1_555
Mg14 Mg18 3.177105 1_555
Mg14 Mg37 3.186914 1_555
Mg14 Mg47 3.188993 1_555
Mg14 Mg46 3.189000 1_555
Mg14 Mg19 3.190392 1_555
Mg14 Mg15 3.201174 1_455
Mg14 Mg8 3.201182 1_455
Mg15 Mg43 3.178693 1_655
Mg15 Mg18 3.179751 1_655
Mg15 Mg36 3.181442 1_555
Mg15 Mg37 3.198536 1_655
Mg15 Mg21 3.199534 1_655
Mg15 Mg8 3.233525 1_555
Mg16 Mg42 3.178685 1_555
Mg16 Mg17 3.179752 1_555
Mg16 Mg35 3.181442 1_555
Mg16 Mg9 3.193783 1_555
Mg16 Mg38 3.198535 1_555
Mg16 Mg20 3.199541 1_555
Mg16 Mg7 3.233524 1_555
Mg17 Mg19 3.177112 1_555
Mg17 Mg44 3.186213 1_555
Mg17 Mg42 3.186221 1_555
Mg17 Mg48 3.187502 1_555
Mg17 Mg22 3.202388 1_555
Mg17 Mg20 3.202404 1_555
Mg18 Mg19 3.177095 1_555
Mg18 Mg45 3.186213 1_555
Mg18 Mg43 3.186221 1_555
Mg18 Mg47 3.187502 1_555
Mg18 Mg21 3.202388 1_555
Mg18 Mg23 3.202397 1_555
Mg19 Mg39 3.186922 1_555
Mg19 Mg47 3.188992 1_555
Mg19 Mg48 3.189000 1_555
Mg20 Mg22 3.125889 1_555
Mg20 Mg25 3.144791 1_555
Mg20 Mg29 3.175259 1_555
Mg20 Mg21 3.188390 1_655
Mg20 Mg42 3.208049 1_555
Mg21 Mg23 3.125896 1_555
Mg21 Mg26 3.144791 1_555
Mg21 Mg29 3.175267 1_455
Mg21 Mg43 3.208033 1_555
Mg22 Mg25 3.144791 1_555
Mg22 Mg28 3.175267 1_565
Mg22 Mg3 3.188398 1_665
Mg22 Mg44 3.208049 1_555
Mg22 Mg5 3.227488 1_565
Mg23 Mg26 3.144790 1_555
Mg23 Mg27 3.175259 1_565
Mg23 Mg45 3.208041 1_555
Mg23 Mg6 3.227487 1_565
Mg24 Mg3 3.144791 1_555
Mg24 Mg25 3.159707 1_445
Mg24 Mg26 3.159716 1_545
Mg24 Mg28 3.175355 1_455
Mg24 Mg27 3.175356 1_555
Mg24 Mg49 3.199915 1_555
Mg24 Mg50 3.199915 1_555
Mg24 Mg40 3.212202 1_555
Mg24 Mg41 3.212203 1_555
Mg24 Mg73 3.213889 1_555
Mg25 Mg26 3.159699 1_655
Mg25 Mg29 3.175349 1_555
Mg25 Mg28 3.175365 1_565
Mg25 Mg52 3.199907 1_555
Mg25 Mg54 3.199915 1_555
Mg25 Mg42 3.212226 1_555
Mg25 Mg44 3.212234 1_555
Mg25 Mg73 3.213880 1_665
Mg26 Mg27 3.175355 1_565
Mg26 Mg29 3.175355 1_455
Mg26 Mg53 3.199915 1_555
Mg26 Mg51 3.199915 1_555
Mg26 Mg45 3.212202 1_555
Mg26 Mg43 3.212204 1_555
Mg26 Mg73 3.213889 1_565
Mg27 Mg6 3.183136 1_555
Mg27 Mg49 3.186437 1_555
Mg27 Mg53 3.186445 1_545
Mg27 Mg31 3.193888 1_555
Mg27 Mg33 3.193896 1_555
Mg27 Mg45 3.204305 1_545
Mg27 Mg40 3.204305 1_555
Mg27 Mg59 3.207778 1_555
Mg28 Mg3 3.175267 1_655
Mg28 Mg5 3.183128 1_555
Mg28 Mg50 3.186445 1_655
Mg28 Mg54 3.186445 1_545
Mg28 Mg32 3.193904 1_555
Mg28 Mg34 3.193905 1_555
Mg28 Mg41 3.204304 1_655
Mg28 Mg44 3.204312 1_545
Mg28 Mg58 3.207770 1_555
Mg29 Mg51 3.186445 1_655
Mg29 Mg52 3.186445 1_555
Mg29 Mg36 3.193889 1_555
Mg29 Mg35 3.193904 1_555
Mg29 Mg43 3.204304 1_655
Mg29 Mg42 3.204312 1_555
Mg29 Mg60 3.207770 1_555
Mg30 Mg4 3.183341 1_555
Mg30 Mg9 3.183341 1_555
Mg30 Mg55 3.187002 1_555
Mg30 Mg56 3.187002 1_555
Mg30 Mg57 3.187010 1_555
Mg30 Mg31 3.197579 1_555
Mg30 Mg35 3.197580 1_555
Mg30 Mg32 3.197580 1_555
Mg30 Mg33 3.197586 1_555
Mg30 Mg34 3.197587 1_555
Mg30 Mg36 3.197595 1_555
Mg31 Mg6 3.178856 1_555
Mg31 Mg59 3.182196 1_555
Mg31 Mg62 3.184594 1_555
Mg31 Mg33 3.186716 1_555
Mg31 Mg55 3.186950 1_555
Mg31 Mg45 3.188236 1_545
Mg31 Mg4 3.188672 1_555
Mg31 Mg39 3.190432 1_545
Mg31 Mg32 3.208434 1_555
Mg32 Mg5 3.178863 1_555
Mg32 Mg58 3.182211 1_555
Mg32 Mg61 3.184594 1_555
Mg32 Mg34 3.186715 1_555
Mg32 Mg55 3.186943 1_555
Mg32 Mg44 3.188237 1_545
Mg32 Mg4 3.188672 1_555
Mg32 Mg39 3.190431 1_545
Mg33 Mg6 3.178856 1_555
Mg33 Mg7 3.181434 1_555
Mg33 Mg59 3.182212 1_555
Mg33 Mg64 3.184578 1_555
Mg33 Mg56 3.186950 1_555
Mg33 Mg40 3.188228 1_555
Mg33 Mg9 3.188672 1_555
Mg33 Mg38 3.190433 1_555
Mg33 Mg35 3.208426 1_555
Mg34 Mg5 3.178864 1_555
Mg34 Mg8 3.181442 1_555
Mg34 Mg58 3.182212 1_555
Mg34 Mg63 3.184594 1_555
Mg34 Mg57 3.186943 1_555
Mg34 Mg41 3.188244 1_655
Mg34 Mg37 3.190439 1_655
Mg34 Mg36 3.208436 1_555
Mg35 Mg60 3.182211 1_555
Mg35 Mg65 3.184594 1_555
Mg35 Mg36 3.186707 1_555
Mg35 Mg56 3.186942 1_555
Mg35 Mg42 3.188237 1_555
Mg35 Mg9 3.188672 1_555
Mg35 Mg38 3.190439 1_555
Mg36 Mg60 3.182204 1_555
Mg36 Mg66 3.184594 1_555
Mg36 Mg57 3.186950 1_555
Mg36 Mg43 3.188236 1_655
Mg36 Mg37 3.190447 1_655
Mg37 Mg43 3.181608 1_555
Mg37 Mg41 3.181608 1_555
Mg37 Mg63 3.185536 1_455
Mg37 Mg66 3.185536 1_455
Mg37 Mg68 3.187544 1_555
Mg37 Mg47 3.189618 1_555
Mg37 Mg46 3.189618 1_555
Mg37 Mg8 3.198536 1_455
Mg38 Mg42 3.181591 1_555
Mg38 Mg40 3.181607 1_555
Mg38 Mg65 3.185536 1_555
Mg38 Mg64 3.185537 1_555
Mg38 Mg67 3.187544 1_555
Mg38 Mg46 3.189618 1_555
Mg38 Mg48 3.189619 1_555
Mg38 Mg7 3.198536 1_555
Mg39 Mg45 3.181599 1_555
Mg39 Mg44 3.181599 1_555
Mg39 Mg62 3.185521 1_565
Mg39 Mg61 3.185536 1_565
Mg39 Mg69 3.187552 1_555
Mg39 Mg47 3.189626 1_555
Mg39 Mg48 3.189635 1_555
Mg40 Mg41 3.175273 1_555
Mg40 Mg49 3.177714 1_555
Mg40 Mg7 3.178693 1_555
Mg40 Mg46 3.181398 1_555
Mg40 Mg64 3.182961 1_555
Mg40 Mg70 3.184323 1_555
Mg41 Mg50 3.177705 1_555
Mg41 Mg8 3.178693 1_455
Mg41 Mg46 3.181397 1_555
Mg41 Mg63 3.182953 1_455
Mg41 Mg70 3.184323 1_555
Mg42 Mg44 3.175290 1_555
Mg42 Mg52 3.177721 1_555
Mg42 Mg48 3.181389 1_555
Mg42 Mg65 3.182945 1_555
Mg42 Mg72 3.184323 1_555
Mg43 Mg45 3.175273 1_555
Mg43 Mg51 3.177705 1_555
Mg43 Mg47 3.181397 1_555
Mg43 Mg66 3.182953 1_455
Mg43 Mg71 3.184323 1_555
Mg44 Mg54 3.177721 1_555
Mg44 Mg48 3.181389 1_555
Mg44 Mg61 3.182945 1_565
Mg44 Mg72 3.184323 1_555
Mg45 Mg53 3.177705 1_555
Mg45 Mg47 3.181398 1_555
Mg45 Mg62 3.182961 1_565
Mg45 Mg71 3.184323 1_555
Mg46 Mg48 3.175643 1_555
Mg46 Mg47 3.175645 1_555
Mg46 Mg67 3.182660 1_555
Mg46 Mg68 3.182668 1_555
Mg46 Mg70 3.189444 1_555
Mg47 Mg48 3.175643 1_555
Mg47 Mg69 3.182660 1_555
Mg47 Mg68 3.182660 1_555
Mg47 Mg71 3.189444 1_555
Mg48 Mg69 3.182668 1_555
Mg48 Mg67 3.182668 1_555
Mg48 Mg72 3.189443 1_555
Mg49 Mg50 3.180504 1_555
Mg49 Mg73 3.186091 1_555
Mg49 Mg59 3.191255 1_555
Mg49 Mg53 3.191366 1_545
Mg49 Mg64 3.192681 1_555
Mg49 Mg70 3.193503 1_555
Mg49 Mg76 3.195503 1_555
Mg49 Mg81 3.197713 1_555
Mg49 Mg75 3.200152 1_555
Mg50 Mg73 3.186100 1_555
Mg50 Mg58 3.191247 1_455
Mg50 Mg54 3.191373 1_445
Mg50 Mg63 3.192666 1_455
Mg50 Mg70 3.193486 1_555
Mg50 Mg76 3.195504 1_555
Mg50 Mg82 3.197705 1_555
Mg50 Mg74 3.200160 1_455
Mg51 Mg53 3.180496 1_555
Mg51 Mg73 3.186100 1_565
Mg51 Mg60 3.191247 1_455
Mg51 Mg52 3.191373 1_455
Mg51 Mg66 3.192666 1_455
Mg51 Mg71 3.193486 1_555
Mg51 Mg94 3.195504 1_555
Mg51 Mg89 3.197705 1_555
Mg51 Mg93 3.200160 1_455
Mg52 Mg54 3.180481 1_555
Mg52 Mg73 3.186083 1_665
Mg52 Mg60 3.191256 1_555
Mg52 Mg65 3.192681 1_555
Mg52 Mg72 3.193494 1_555
Mg52 Mg95 3.195496 1_555
Mg52 Mg90 3.197704 1_555
Mg52 Mg93 3.200160 1_555
Mg53 Mg73 3.186099 1_565
Mg53 Mg59 3.191255 1_565
Mg53 Mg62 3.192681 1_565
Mg53 Mg71 3.193487 1_555
Mg53 Mg94 3.195503 1_555
Mg53 Mg96 3.197705 1_555
Mg53 Mg75 3.200160 1_565
Mg54 Mg73 3.186083 1_665
Mg54 Mg58 3.191256 1_565
Mg54 Mg61 3.192681 1_565
Mg54 Mg72 3.193494 1_555
Mg54 Mg95 3.195496 1_555
Mg54 Mg97 3.197704 1_555
Mg54 Mg74 3.200160 1_565
Mg55 Mg62 3.187072 1_555
Mg55 Mg61 3.187081 1_555
Mg55 Mg77 3.188460 1_555
Mg55 Mg78 3.188461 1_555
Mg55 Mg57 3.191642 1_555
Mg55 Mg56 3.191643 1_555
Mg55 Mg59 3.191902 1_555
Mg55 Mg58 3.191919 1_555
Mg55 Mg83 3.192336 1_555
Mg56 Mg64 3.187064 1_555
Mg56 Mg65 3.187081 1_555
Mg56 Mg80 3.188460 1_555
Mg56 Mg84 3.188461 1_555
Mg56 Mg57 3.191642 1_555
Mg56 Mg59 3.191910 1_555
Mg56 Mg60 3.191918 1_555
Mg56 Mg83 3.192336 1_555
Mg57 Mg66 3.187080 1_555
Mg57 Mg63 3.187080 1_555
Mg57 Mg85 3.188461 1_555
Mg57 Mg79 3.188469 1_555
Mg57 Mg60 3.191919 1_555
Mg57 Mg58 3.191920 1_555
Mg57 Mg83 3.192343 1_555
Mg58 Mg79 3.185513 1_555
Mg58 Mg78 3.185521 1_555
Mg58 Mg74 3.187241 1_555
Mg58 Mg61 3.188069 1_555
Mg58 Mg63 3.188069 1_555
Mg59 Mg77 3.185513 1_555
Mg59 Mg80 3.185521 1_555
Mg59 Mg75 3.187249 1_555
Mg59 Mg62 3.188071 1_555
Mg59 Mg64 3.188071 1_555
Mg60 Mg84 3.185521 1_555
Mg60 Mg85 3.185521 1_555
Mg60 Mg93 3.187241 1_555
Mg60 Mg66 3.188069 1_555
Mg60 Mg65 3.188070 1_555
Mg61 Mg98 3.182169 1_545
Mg61 Mg97 3.185900 1_545
Mg61 Mg69 3.189085 1_545
Mg61 Mg62 3.189636 1_555
Mg61 Mg72 3.190511 1_545
Mg61 Mg78 3.190573 1_555
Mg62 Mg98 3.182169 1_545
Mg62 Mg96 3.185900 1_545
Mg62 Mg69 3.189071 1_545
Mg62 Mg71 3.190518 1_545
Mg62 Mg77 3.190573 1_555
Mg63 Mg86 3.182169 1_655
Mg63 Mg82 3.185892 1_655
Mg63 Mg68 3.189085 1_655
Mg63 Mg66 3.189653 1_555
Mg63 Mg70 3.190510 1_655
Mg63 Mg79 3.190573 1_555
Mg64 Mg87 3.182169 1_555
Mg64 Mg81 3.185900 1_555
Mg64 Mg67 3.189086 1_555
Mg64 Mg65 3.189644 1_555
Mg64 Mg70 3.190526 1_555
Mg64 Mg80 3.190565 1_555
Mg65 Mg87 3.182169 1_555
Mg65 Mg90 3.185892 1_555
Mg65 Mg67 3.189085 1_555
Mg65 Mg72 3.190511 1_555
Mg65 Mg84 3.190573 1_555
Mg66 Mg86 3.182169 1_655
Mg66 Mg89 3.185892 1_655
Mg66 Mg68 3.189078 1_655
Mg66 Mg71 3.190510 1_655
Mg66 Mg85 3.190573 1_555
Mg67 Mg88 3.183306 1_555
Mg67 Mg91 3.183314 1_555
Mg67 Mg70 3.184314 1_555
Mg67 Mg72 3.184330 1_555
Mg67 Mg87 3.188166 1_555
Mg67 Mg68 3.192477 1_555
Mg67 Mg69 3.192486 1_555
Mg68 Mg88 3.183306 1_555
Mg68 Mg92 3.183306 1_555
Mg68 Mg71 3.184315 1_555
Mg68 Mg70 3.184331 1_555
Mg68 Mg86 3.188166 1_555
Mg68 Mg69 3.192469 1_555
Mg69 Mg92 3.183306 1_555
Mg69 Mg91 3.183306 1_555
Mg69 Mg71 3.184314 1_555
Mg69 Mg72 3.184330 1_555
Mg69 Mg98 3.188158 1_555
Mg70 Mg88 3.173244 1_555
Mg70 Mg82 3.181534 1_555
Mg70 Mg81 3.181535 1_555
Mg71 Mg92 3.173236 1_555
Mg71 Mg89 3.181534 1_555
Mg71 Mg96 3.181535 1_555
Mg72 Mg91 3.173243 1_555
Mg72 Mg97 3.181535 1_555
Mg72 Mg90 3.181543 1_555
Mg73 Mg95 3.174315 1_445
Mg73 Mg94 3.174315 1_545
Mg73 Mg76 3.174315 1_555
Mg74 Mg97 3.185764 1_545
Mg74 Mg82 3.185772 1_655
Mg74 Mg76 3.187908 1_655
Mg74 Mg95 3.187910 1_545
Mg74 Mg79 3.190222 1_555
Mg74 Mg78 3.190237 1_555
Mg75 Mg81 3.185773 1_555
Mg75 Mg96 3.185773 1_545
Mg75 Mg76 3.187908 1_555
Mg75 Mg94 3.187908 1_545
Mg75 Mg80 3.190237 1_555
Mg75 Mg77 3.190237 1_555
Mg76 Mg99 3.174315 1_555
Mg76 Mg81 3.184950 1_555
Mg76 Mg82 3.184951 1_555
Mg76 Mg95 3.193713 1_445
Mg76 Mg94 3.193714 1_545
Mg77 Mg80 3.170484 1_555
Mg77 Mg83 3.180499 1_555
Mg77 Mg98 3.188025 1_545
Mg77 Mg78 3.190520 1_555
Mg77 Mg96 3.196851 1_545
Mg78 Mg79 3.170475 1_555
Mg78 Mg83 3.180508 1_555
Mg78 Mg98 3.188016 1_545
Mg78 Mg97 3.196860 1_545
Mg79 Mg83 3.180523 1_555
Mg79 Mg86 3.188016 1_655
Mg79 Mg85 3.190537 1_555
Mg79 Mg82 3.196843 1_655
Mg80 Mg83 3.180499 1_555
Mg80 Mg87 3.188009 1_555
Mg80 Mg84 3.190520 1_555
Mg80 Mg81 3.196851 1_555
Mg81 Mg88 3.190578 1_555
Mg81 Mg87 3.191594 1_555
Mg81 Mg82 3.192064 1_555
Mg82 Mg88 3.190569 1_555
Mg82 Mg86 3.191595 1_555
Mg83 Mg84 3.180508 1_555
Mg83 Mg85 3.180515 1_555
Mg84 Mg85 3.170483 1_555
Mg84 Mg87 3.188008 1_555
Mg84 Mg93 3.190237 1_555
Mg84 Mg90 3.196844 1_555
Mg85 Mg86 3.188008 1_655
Mg85 Mg93 3.190238 1_555
Mg85 Mg89 3.196851 1_655
Mg86 Mg89 3.191595 1_555
Mg86 Mg88 3.200128 1_555
Mg86 Mg92 3.200135 1_555
Mg87 Mg90 3.191602 1_555
Mg87 Mg88 3.200143 1_555
Mg87 Mg91 3.200145 1_555
Mg88 Mg91 3.194083 1_555
Mg88 Mg92 3.194085 1_555
Mg89 Mg94 3.184951 1_555
Mg89 Mg93 3.185772 1_455
Mg89 Mg92 3.190562 1_555
Mg89 Mg96 3.192064 1_555
Mg90 Mg95 3.184942 1_555
Mg90 Mg93 3.185756 1_555
Mg90 Mg91 3.190593 1_555
Mg90 Mg97 3.192065 1_555
Mg91 Mg97 3.190577 1_555
Mg91 Mg92 3.194083 1_555
Mg91 Mg98 3.200113 1_555
Mg92 Mg96 3.190563 1_555
Mg92 Mg98 3.200128 1_555
Mg93 Mg94 3.187908 1_655
Mg93 Mg95 3.187909 1_555
Mg94 Mg99 3.174315 1_565
Mg94 Mg96 3.184950 1_555
Mg94 Mg95 3.193713 1_455
Mg95 Mg99 3.174315 1_665
Mg95 Mg97 3.184934 1_555
Mg96 Mg98 3.191602 1_555
Mg97 Mg98 3.191602 1_555
Mg100 Mg88 3.173257 1_555
Mg100 Mg82 3.181547 1_555
Mg100 Mg81 3.181547 1_555
Mg100 Mg128 3.184310 1_555
Mg100 Mg127 3.184310 1_555
Mg100 Mg103 3.184314 1_555
Mg100 Mg104 3.184331 1_555
Mg100 Mg124 3.189431 1_555
Mg100 Mg108 3.190510 1_455
Mg100 Mg109 3.190526 1_555
Mg100 Mg119 3.193486 1_555
Mg100 Mg118 3.193503 1_555
Mg101 Mg92 3.173249 1_555
Mg101 Mg89 3.181547 1_555
Mg101 Mg96 3.181547 1_555
Mg101 Mg130 3.184310 1_555
Mg101 Mg132 3.184310 1_555
Mg101 Mg105 3.184314 1_555
Mg101 Mg104 3.184315 1_555
Mg101 Mg125 3.189431 1_555
Mg101 Mg111 3.190510 1_455
Mg101 Mg107 3.190518 1_565
Mg101 Mg120 3.193486 1_555
Mg101 Mg122 3.193487 1_555
Mg102 Mg91 3.173256 1_555
Mg102 Mg97 3.181547 1_555
Mg102 Mg90 3.181555 1_555
Mg102 Mg131 3.184310 1_555
Mg102 Mg129 3.184310 1_555
Mg102 Mg105 3.184330 1_555
Mg102 Mg103 3.184330 1_555
Mg102 Mg126 3.189431 1_555
Mg102 Mg106 3.190511 1_565
Mg102 Mg110 3.190511 1_555
Mg102 Mg123 3.193494 1_555
Mg102 Mg121 3.193494 1_555
Mg103 Mg124 3.182660 1_555
Mg103 Mg126 3.182668 1_555
Mg103 Mg88 3.183306 1_555
Mg103 Mg91 3.183314 1_555
Mg103 Mg134 3.187557 1_555
Mg103 Mg87 3.188166 1_555
Mg103 Mg110 3.189085 1_555
Mg103 Mg109 3.189086 1_555
Mg103 Mg104 3.192477 1_555
Mg103 Mg105 3.192486 1_555
Mg104 Mg125 3.182660 1_555
Mg104 Mg124 3.182668 1_555
Mg104 Mg88 3.183306 1_555
Mg104 Mg92 3.183306 1_555
Mg104 Mg133 3.187557 1_555
Mg104 Mg86 3.188166 1_555
Mg104 Mg111 3.189078 1_455
Mg104 Mg108 3.189085 1_455
Mg104 Mg105 3.192469 1_555
Mg105 Mg125 3.182660 1_555
Mg105 Mg126 3.182668 1_555
Mg105 Mg92 3.183306 1_555
Mg105 Mg91 3.183306 1_555
Mg105 Mg135 3.187565 1_555
Mg105 Mg98 3.188158 1_555
Mg105 Mg107 3.189071 1_565
Mg105 Mg106 3.189085 1_565
Mg106 Mg98 3.182169 1_545
Mg106 Mg131 3.182945 1_545
Mg106 Mg137 3.184607 1_555
Mg106 Mg135 3.185549 1_545
Mg106 Mg97 3.185900 1_545
Mg106 Mg115 3.187081 1_555
Mg106 Mg112 3.188069 1_555
Mg106 Mg107 3.189636 1_555
Mg106 Mg78 3.190573 1_555
Mg106 Mg123 3.192681 1_545
Mg107 Mg98 3.182169 1_545
Mg107 Mg132 3.182961 1_545
Mg107 Mg136 3.184607 1_555
Mg107 Mg135 3.185533 1_545
Mg107 Mg96 3.185900 1_545
Mg107 Mg115 3.187072 1_555
Mg107 Mg113 3.188071 1_555
Mg107 Mg77 3.190573 1_555
Mg107 Mg122 3.192681 1_545
Mg108 Mg86 3.182169 1_655
Mg108 Mg128 3.182953 1_655
Mg108 Mg139 3.184606 1_555
Mg108 Mg133 3.185549 1_655
Mg108 Mg82 3.185892 1_655
Mg108 Mg117 3.187080 1_555
Mg108 Mg112 3.188069 1_555
Mg108 Mg111 3.189653 1_555
Mg108 Mg79 3.190573 1_555
Mg108 Mg119 3.192666 1_655
Mg109 Mg87 3.182169 1_555
Mg109 Mg127 3.182961 1_555
Mg109 Mg138 3.184591 1_555
Mg109 Mg134 3.185549 1_555
Mg109 Mg81 3.185900 1_555
Mg109 Mg116 3.187064 1_555
Mg109 Mg113 3.188071 1_555
Mg109 Mg110 3.189644 1_555
Mg109 Mg80 3.190565 1_555
Mg109 Mg118 3.192681 1_555
Mg110 Mg87 3.182169 1_555
Mg110 Mg129 3.182945 1_555
Mg110 Mg140 3.184607 1_555
Mg110 Mg134 3.185549 1_555
Mg110 Mg90 3.185892 1_555
Mg110 Mg116 3.187081 1_555
Mg110 Mg114 3.188070 1_555
Mg110 Mg84 3.190573 1_555
Mg110 Mg121 3.192681 1_555
Mg111 Mg86 3.182169 1_655
Mg111 Mg130 3.182953 1_655
Mg111 Mg141 3.184606 1_555
Mg111 Mg133 3.185549 1_655
Mg111 Mg89 3.185892 1_655
Mg111 Mg117 3.187080 1_555
Mg111 Mg114 3.188069 1_555
Mg111 Mg85 3.190573 1_555
Mg111 Mg120 3.192666 1_655
Mg112 Mg137 3.182224 1_555
Mg112 Mg139 3.182224 1_555
Mg112 Mg79 3.185513 1_555
Mg112 Mg78 3.185521 1_555
Mg112 Mg74 3.187241 1_555
Mg112 Mg119 3.191247 1_655
Mg112 Mg123 3.191256 1_545
Mg112 Mg115 3.191919 1_555
Mg112 Mg117 3.191920 1_555
Mg112 Mg144 3.207770 1_555
Mg113 Mg136 3.182209 1_555
Mg113 Mg138 3.182225 1_555
Mg113 Mg77 3.185513 1_555
Mg113 Mg80 3.185521 1_555
Mg113 Mg75 3.187249 1_555
Mg113 Mg122 3.191255 1_545
Mg113 Mg118 3.191255 1_555
Mg113 Mg115 3.191902 1_555
Mg113 Mg116 3.191910 1_555
Mg113 Mg143 3.207778 1_555
Mg114 Mg141 3.182217 1_555
Mg114 Mg140 3.182224 1_555
Mg114 Mg84 3.185521 1_555
Mg114 Mg85 3.185521 1_555
Mg114 Mg93 3.187241 1_555
Mg114 Mg120 3.191247 1_655
Mg114 Mg121 3.191256 1_555
Mg114 Mg116 3.191918 1_555
Mg114 Mg117 3.191919 1_555
Mg114 Mg145 3.207770 1_555
Mg115 Mg137 3.186955 1_555
Mg115 Mg136 3.186963 1_555
Mg115 Mg142 3.187002 1_555
Mg115 Mg77 3.188460 1_555
Mg115 Mg78 3.188461 1_555
Mg115 Mg117 3.191642 1_555
Mg115 Mg116 3.191643 1_555
Mg115 Mg83 3.192336 1_555
Mg116 Mg140 3.186955 1_555
Mg116 Mg138 3.186963 1_555
Mg116 Mg142 3.187002 1_555
Mg116 Mg80 3.188460 1_555
Mg116 Mg84 3.188461 1_555
Mg116 Mg117 3.191642 1_555
Mg116 Mg83 3.192336 1_555
Mg117 Mg139 3.186955 1_555
Mg117 Mg141 3.186963 1_555
Mg117 Mg142 3.187010 1_555
Mg117 Mg85 3.188461 1_555
Mg117 Mg79 3.188469 1_555
Mg117 Mg83 3.192343 1_555
Mg118 Mg127 3.177726 1_555
Mg118 Mg119 3.180504 1_555
Mg118 Mg99 3.186091 1_555
Mg118 Mg143 3.186450 1_555
Mg118 Mg122 3.191366 1_545
Mg118 Mg76 3.195491 1_555
Mg118 Mg81 3.197700 1_555
Mg118 Mg146 3.199928 1_555
Mg118 Mg75 3.200139 1_555
Mg119 Mg128 3.177718 1_555
Mg119 Mg99 3.186100 1_555
Mg119 Mg144 3.186457 1_455
Mg119 Mg123 3.191373 1_445
Mg119 Mg76 3.195491 1_555
Mg119 Mg82 3.197692 1_555
Mg119 Mg146 3.199928 1_555
Mg119 Mg74 3.200147 1_455
Mg120 Mg130 3.177718 1_555
Mg120 Mg122 3.180496 1_555
Mg120 Mg99 3.186100 1_565
Mg120 Mg145 3.186457 1_455
Mg120 Mg121 3.191373 1_455
Mg120 Mg94 3.195491 1_555
Mg120 Mg89 3.197692 1_555
Mg120 Mg148 3.199928 1_555
Mg120 Mg93 3.200147 1_455
Mg121 Mg129 3.177734 1_555
Mg121 Mg123 3.180481 1_555
Mg121 Mg99 3.186083 1_665
Mg121 Mg145 3.186458 1_555
Mg121 Mg95 3.195483 1_555
Mg121 Mg90 3.197692 1_555
Mg121 Mg147 3.199920 1_555
Mg121 Mg93 3.200147 1_555
Mg122 Mg132 3.177718 1_555
Mg122 Mg99 3.186099 1_565
Mg122 Mg143 3.186458 1_565
Mg122 Mg94 3.195491 1_555
Mg122 Mg96 3.197692 1_555
Mg122 Mg148 3.199928 1_555
Mg122 Mg75 3.200147 1_565
Mg123 Mg131 3.177734 1_555
Mg123 Mg99 3.186083 1_665
Mg123 Mg144 3.186458 1_565
Mg123 Mg95 3.195483 1_555
Mg123 Mg97 3.197691 1_555
Mg123 Mg147 3.199928 1_555
Mg123 Mg74 3.200147 1_565
Mg124 Mg126 3.175643 1_555
Mg124 Mg125 3.175645 1_555
Mg124 Mg128 3.181397 1_555
Mg124 Mg127 3.181398 1_555
Mg124 Mg13 3.188992 1_556
Mg124 Mg14 3.189000 1_556
Mg124 Mg133 3.189618 1_555
Mg124 Mg134 3.189618 1_555
Mg125 Mg126 3.175643 1_555
Mg125 Mg130 3.181397 1_555
Mg125 Mg132 3.181398 1_555
Mg125 Mg18 3.187502 1_556
Mg125 Mg19 3.188992 1_556
Mg125 Mg14 3.188993 1_556
Mg125 Mg133 3.189618 1_555
Mg125 Mg135 3.189626 1_555
Mg126 Mg131 3.181389 1_555
Mg126 Mg129 3.181389 1_555
Mg126 Mg17 3.187502 1_556
Mg126 Mg19 3.189000 1_556
Mg126 Mg13 3.189000 1_556
Mg126 Mg134 3.189619 1_555
Mg126 Mg135 3.189635 1_555
Mg127 Mg128 3.175273 1_555
Mg127 Mg7 3.178693 1_556
Mg127 Mg134 3.181607 1_555
Mg127 Mg138 3.188228 1_555
Mg127 Mg143 3.204305 1_555
Mg127 Mg2 3.208033 1_556
Mg127 Mg146 3.212202 1_555
Mg128 Mg8 3.178693 1_456
Mg128 Mg133 3.181608 1_555
Mg128 Mg139 3.188244 1_455
Mg128 Mg144 3.204304 1_455
Mg128 Mg3 3.208033 1_556
Mg128 Mg146 3.212203 1_555
Mg129 Mg131 3.175290 1_555
Mg129 Mg16 3.178685 1_556
Mg129 Mg134 3.181591 1_555
Mg129 Mg17 3.186221 1_556
Mg129 Mg140 3.188237 1_555
Mg129 Mg145 3.204312 1_555
Mg129 Mg20 3.208049 1_556
Mg129 Mg147 3.212226 1_555
Mg130 Mg132 3.175273 1_555
Mg130 Mg15 3.178693 1_456
Mg130 Mg133 3.181608 1_555
Mg130 Mg18 3.186221 1_556
Mg130 Mg141 3.188236 1_455
Mg130 Mg145 3.204304 1_455
Mg130 Mg21 3.208033 1_556
Mg130 Mg148 3.212204 1_555
Mg131 Mg135 3.181599 1_555
Mg131 Mg17 3.186213 1_556
Mg131 Mg137 3.188237 1_565
Mg131 Mg144 3.204312 1_565
Mg131 Mg22 3.208049 1_556
Mg131 Mg147 3.212234 1_555
Mg132 Mg135 3.181599 1_555
Mg132 Mg18 3.186213 1_556
Mg132 Mg136 3.188236 1_565
Mg132 Mg143 3.204305 1_565
Mg132 Mg23 3.208041 1_556
Mg132 Mg148 3.212202 1_555
Mg133 Mg14 3.186901 1_556
Mg133 Mg139 3.190439 1_455
Mg133 Mg141 3.190447 1_455
Mg133 Mg15 3.198523 1_456
Mg133 Mg8 3.198523 1_456
Mg134 Mg138 3.190433 1_555
Mg134 Mg140 3.190439 1_555
Mg134 Mg16 3.198523 1_556
Mg134 Mg7 3.198523 1_556
Mg135 Mg19 3.186909 1_556
Mg135 Mg137 3.190431 1_565
Mg135 Mg136 3.190432 1_565
Mg136 Mg6 3.178843 1_556
Mg136 Mg138 3.186716 1_555
Mg136 Mg4 3.188659 1_556
Mg136 Mg143 3.193888 1_555
Mg136 Mg142 3.197579 1_555
Mg136 Mg137 3.208434 1_555
Mg137 Mg5 3.178851 1_556
Mg137 Mg139 3.186715 1_555
Mg137 Mg4 3.188660 1_556
Mg137 Mg144 3.193904 1_555
Mg137 Mg142 3.197580 1_555
Mg138 Mg6 3.178843 1_556
Mg138 Mg7 3.181421 1_556
Mg138 Mg9 3.188659 1_556
Mg138 Mg143 3.193896 1_555
Mg138 Mg142 3.197586 1_555
Mg138 Mg140 3.208426 1_555
Mg139 Mg5 3.178851 1_556
Mg139 Mg8 3.181429 1_556
Mg139 Mg144 3.193905 1_555
Mg139 Mg142 3.197587 1_555
Mg139 Mg141 3.208436 1_555
Mg140 Mg16 3.181429 1_556
Mg140 Mg141 3.186707 1_555
Mg140 Mg9 3.188660 1_556
Mg140 Mg145 3.193904 1_555
Mg140 Mg142 3.197580 1_555
Mg141 Mg15 3.181429 1_556
Mg141 Mg145 3.193889 1_555
Mg141 Mg142 3.197594 1_555
Mg142 Mg4 3.183341 1_556
Mg142 Mg9 3.183341 1_556
Mg143 Mg23 3.175259 1_546
Mg143 Mg2 3.175267 1_556
Mg143 Mg148 3.175355 1_545
Mg143 Mg146 3.175356 1_555
Mg143 Mg6 3.183136 1_556
Mg144 Mg3 3.175267 1_656
Mg144 Mg22 3.175267 1_546
Mg144 Mg146 3.175355 1_655
Mg144 Mg147 3.175365 1_545
Mg144 Mg5 3.183128 1_556
Mg145 Mg20 3.175259 1_556
Mg145 Mg21 3.175267 1_656
Mg145 Mg147 3.175349 1_555
Mg145 Mg148 3.175355 1_655
Mg146 Mg2 3.144790 1_556
Mg146 Mg3 3.144791 1_556
Mg146 Mg147 3.159707 1_445
Mg146 Mg148 3.159716 1_545
Mg146 Mg99 3.213889 1_555
Mg147 Mg22 3.144791 1_556
Mg147 Mg20 3.144791 1_556
Mg147 Mg148 3.159699 1_655
Mg147 Mg99 3.213880 1_665
Mg148 Mg23 3.144790 1_556
Mg148 Mg21 3.144791 1_556
Mg148 Mg99 3.213889 1_565
