# generated using pymatgen
data_NaMn(SiO3)2
_symmetry_space_group_name_H-M   'P 1'
_cell_length_a   5.43428255
_cell_length_b   6.51852149
_cell_length_c   6.51852077
_cell_angle_alpha   84.36343789
_cell_angle_beta   78.69206508
_cell_angle_gamma   78.69203383
_symmetry_Int_Tables_number   1
_chemical_formula_structural   NaMn(SiO3)2
_chemical_formula_sum   'Na2 Mn2 Si4 O12'
_cell_volume   221.60134699
_cell_formula_units_Z   2
loop_
 _symmetry_equiv_pos_site_id
 _symmetry_equiv_pos_as_xyz
  1  'x, y, z'
loop_
 _atom_site_type_symbol
 _atom_site_label
 _atom_site_symmetry_multiplicity
 _atom_site_fract_x
 _atom_site_fract_y
 _atom_site_fract_z
 _atom_site_occupancy
  Na  Na0  1  0.25000000  0.70355300  0.29644700  1
  Na  Na1  1  0.75000000  0.29644700  0.70355300  1
  Mn  Mn0  1  0.24999900  0.09558300  0.90442200  1
  Mn  Mn1  1  0.75000200  0.90441900  0.09557600  1
  Si  Si0  1  0.25347400  0.20616500  0.38142900  1
  Si  Si1  1  0.75347400  0.38142900  0.20616500  1
  Si  Si2  1  0.24652500  0.61857100  0.79383500  1
  Si  Si3  1  0.74652500  0.79383500  0.61857100  1
  O  O0  1  0.47948600  0.34870400  0.36210000  1
  O  O1  1  0.02051400  0.63790000  0.65129600  1
  O  O2  1  0.52051400  0.65129600  0.63790000  1
  O  O3  1  0.97948600  0.36210000  0.34870400  1
  O  O4  1  0.19646500  0.10313300  0.61843600  1
  O  O5  1  0.30353400  0.38156400  0.89686600  1
  O  O6  1  0.80353400  0.89686600  0.38156400  1
  O  O7  1  0.69646500  0.61843600  0.10313400  1
  O  O8  1  0.83868300  0.19393400  0.04190700  1
  O  O9  1  0.66131700  0.95809300  0.80606600  1
  O  O10  1  0.16131600  0.80606600  0.95809400  1
  O  O11  1  0.33868300  0.04190700  0.19393400  1
loop_
_geom_bond_atom_site_label_1
_geom_bond_atom_site_label_2
_geom_bond_distance
_geom_bond_site_symmetry_2
Na0 O10 2.354641 1_554
Na0 O11 2.354646 1_565
Na0 O0 2.443843 1_555
Na0 O1 2.443844 1_555
Na0 O7 2.488518 1_555
Na0 O6 2.488522 1_455
Na0 O2 2.858141 1_555
Na0 O3 2.858142 1_455
Na1 O8 2.354645 1_556
Na1 O9 2.354646 1_545
Na1 O2 2.443843 1_555
Na1 O3 2.443844 1_555
Na1 O4 2.488519 1_655
Na1 O5 2.488522 1_555
Na1 O0 2.858141 1_555
Na1 O1 2.858142 1_655
Mn0 O5 1.936810 1_555
Mn0 O4 1.936844 1_555
Mn0 O11 2.019160 1_556
Mn0 O10 2.019189 1_545
Mn0 O8 2.230617 1_456
Mn0 O9 2.230638 1_545
Mn1 O7 1.936825 1_555
Mn1 O6 1.936851 1_555
Mn1 O9 2.019149 1_554
Mn1 O8 2.019171 1_565
Mn1 O10 2.230604 1_654
Mn1 O11 2.230641 1_565
O0 Si0 1.658776 1_555
O0 Si1 1.668550 1_555
O1 Si2 1.658771 1_555
O1 Si3 1.668554 1_455
O2 Si3 1.658772 1_555
O2 Si2 1.668555 1_555
O3 Si1 1.658776 1_555
O3 Si0 1.668550 1_655
O4 Si0 1.619860 1_555
O5 Si2 1.619857 1_555
O6 Si3 1.619857 1_555
O7 Si1 1.619857 1_555
O8 Si1 1.641734 1_555
O9 Si3 1.641734 1_555
O10 Si2 1.641738 1_555
O11 Si0 1.641734 1_555
