# generated using pymatgen
data_HfMo2
_symmetry_space_group_name_H-M   'P 1'
_cell_length_a   5.34847517
_cell_length_b   5.34847517
_cell_length_c   17.36952878
_cell_angle_alpha   90.00000000
_cell_angle_beta   90.00000000
_cell_angle_gamma   120.00000606
_symmetry_Int_Tables_number   1
_chemical_formula_structural   HfMo2
_chemical_formula_sum   'Hf8 Mo16'
_cell_volume   430.30719682
_cell_formula_units_Z   8
loop_
 _symmetry_equiv_pos_site_id
 _symmetry_equiv_pos_as_xyz
  1  'x, y, z'
loop_
 _atom_site_type_symbol
 _atom_site_label
 _atom_site_symmetry_multiplicity
 _atom_site_fract_x
 _atom_site_fract_y
 _atom_site_fract_z
 _atom_site_occupancy
  Hf  Hf0  1  -0.00000000  0.00000000  0.40505238  1
  Hf  Hf1  1  -0.00000000  0.00000000  0.59494762  1
  Hf  Hf2  1  -0.00000000  0.00000000  0.90505238  1
  Hf  Hf3  1  -0.00000000  0.00000000  0.09494762  1
  Hf  Hf4  1  0.33333300  0.66666700  0.65638865  1
  Hf  Hf5  1  0.66666700  0.33333300  0.34361135  1
  Hf  Hf6  1  0.66666700  0.33333300  0.15638865  1
  Hf  Hf7  1  0.33333300  0.66666700  0.84361135  1
  Mo  Mo0  1  0.33333300  0.66666700  0.37653897  1
  Mo  Mo1  1  0.66666700  0.33333300  0.62346103  1
  Mo  Mo2  1  0.66666700  0.33333300  0.87653897  1
  Mo  Mo3  1  0.33333300  0.66666700  0.12346103  1
  Mo  Mo4  1  0.50000000  0.50000000  0.50000000  1
  Mo  Mo5  1  0.50000000  0.00000000  0.50000000  1
  Mo  Mo6  1  -0.00000000  0.50000000  0.50000000  1
  Mo  Mo7  1  0.50000000  0.50000000  -0.00000000  1
  Mo  Mo8  1  0.50000000  0.00000000  -0.00000000  1
  Mo  Mo9  1  -0.00000000  0.50000000  -0.00000000  1
  Mo  Mo10  1  0.16343570  0.83656430  0.25000000  1
  Mo  Mo11  1  0.16343570  0.32687140  0.25000000  1
  Mo  Mo12  1  0.67312860  0.83656430  0.25000000  1
  Mo  Mo13  1  0.83656430  0.16343570  0.75000000  1
  Mo  Mo14  1  0.83656430  0.67312860  0.75000000  1
  Mo  Mo15  1  0.32687140  0.16343570  0.75000000  1
loop_
_geom_bond_atom_site_label_1
_geom_bond_atom_site_label_2
_geom_bond_distance
_geom_bond_site_symmetry_2
Hf0 Mo11 3.089591 1_555
Hf0 Mo12 3.089591 1_445
Hf0 Mo10 3.089591 1_545
Hf0 Mo0 3.127405 1_545
Hf0 Mo0 3.127410 1_445
Hf0 Mo0 3.127410 1_555
Hf0 Mo4 3.141877 1_445
Hf0 Mo4 3.141877 1_555
Hf0 Mo6 3.141877 1_555
Hf0 Mo6 3.141877 1_545
Hf0 Mo5 3.141877 1_555
Hf0 Mo5 3.141877 1_455
Hf0 Hf5 3.267154 1_455
Hf0 Hf5 3.267158 1_445
Hf0 Hf5 3.267158 1_555
Hf0 Hf1 3.298391 1_555
Hf1 Mo15 3.089591 1_555
Hf1 Mo14 3.089591 1_445
Hf1 Mo13 3.089591 1_455
Hf1 Mo1 3.127405 1_455
Hf1 Mo1 3.127410 1_445
Hf1 Mo1 3.127410 1_555
Hf1 Mo4 3.141877 1_445
Hf1 Mo4 3.141877 1_555
Hf1 Mo6 3.141877 1_555
Hf1 Mo5 3.141877 1_555
Hf1 Mo5 3.141877 1_455
Hf1 Mo6 3.141877 1_545
Hf1 Hf4 3.267154 1_545
Hf1 Hf4 3.267158 1_555
Hf1 Hf4 3.267158 1_445
Hf2 Mo15 3.089591 1_555
Hf2 Mo14 3.089591 1_445
Hf2 Mo13 3.089591 1_455
Hf2 Mo2 3.127405 1_455
Hf2 Mo2 3.127410 1_555
Hf2 Mo2 3.127410 1_445
Hf2 Mo7 3.141877 1_446
Hf2 Mo7 3.141877 1_556
Hf2 Mo9 3.141877 1_546
Hf2 Mo8 3.141877 1_556
Hf2 Mo8 3.141877 1_456
Hf2 Mo9 3.141877 1_556
Hf2 Hf7 3.267154 1_545
Hf2 Hf7 3.267158 1_445
Hf2 Hf7 3.267158 1_555
Hf2 Hf3 3.298391 1_556
Hf3 Mo11 3.089591 1_555
Hf3 Mo12 3.089591 1_445
Hf3 Mo10 3.089591 1_545
Hf3 Mo3 3.127405 1_545
Hf3 Mo3 3.127410 1_555
Hf3 Mo3 3.127410 1_445
Hf3 Mo7 3.141877 1_555
Hf3 Mo7 3.141877 1_445
Hf3 Mo9 3.141877 1_545
Hf3 Mo8 3.141877 1_455
Hf3 Mo9 3.141877 1_555
Hf3 Mo8 3.141877 1_555
Hf3 Hf6 3.267154 1_455
Hf3 Hf6 3.267158 1_555
Hf3 Hf6 3.267158 1_445
Hf4 Mo5 3.124525 1_565
Hf4 Mo6 3.124525 1_555
Hf4 Mo4 3.124527 1_555
Hf4 Mo15 3.129897 1_565
Hf4 Mo14 3.129897 1_455
Hf4 Mo13 3.129899 1_565
Hf4 Mo13 3.129899 1_455
Hf4 Mo14 3.129902 1_555
Hf4 Mo15 3.129902 1_555
Hf4 Mo1 3.140460 1_455
Hf4 Mo1 3.140460 1_565
Hf4 Mo1 3.140469 1_555
Hf4 Hf7 3.251970 1_555
Hf5 Mo5 3.124525 1_555
Hf5 Mo6 3.124525 1_655
Hf5 Mo4 3.124527 1_555
Hf5 Mo11 3.129897 1_655
Hf5 Mo12 3.129897 1_545
Hf5 Mo10 3.129899 1_655
Hf5 Mo10 3.129899 1_545
Hf5 Mo12 3.129902 1_555
Hf5 Mo11 3.129902 1_555
Hf5 Mo0 3.140460 1_545
Hf5 Mo0 3.140460 1_655
Hf5 Mo0 3.140469 1_555
Hf5 Hf6 3.251970 1_555
Hf6 Mo9 3.124525 1_655
Hf6 Mo8 3.124525 1_555
Hf6 Mo7 3.124527 1_555
Hf6 Mo11 3.129897 1_655
Hf6 Mo12 3.129897 1_545
Hf6 Mo10 3.129899 1_655
Hf6 Mo10 3.129899 1_545
Hf6 Mo12 3.129902 1_555
Hf6 Mo11 3.129902 1_555
Hf6 Mo3 3.140460 1_545
Hf6 Mo3 3.140460 1_655
Hf6 Mo3 3.140469 1_555
Hf7 Mo9 3.124525 1_556
Hf7 Mo8 3.124525 1_566
Hf7 Mo7 3.124527 1_556
Hf7 Mo15 3.129897 1_565
Hf7 Mo14 3.129897 1_455
Hf7 Mo13 3.129899 1_565
Hf7 Mo13 3.129899 1_455
Hf7 Mo14 3.129902 1_555
Hf7 Mo15 3.129902 1_555
Hf7 Mo2 3.140460 1_455
Hf7 Mo2 3.140460 1_565
Hf7 Mo2 3.140469 1_555
Mo0 Mo6 2.642452 1_555
Mo0 Mo5 2.642452 1_565
Mo0 Mo4 2.642455 1_555
Mo0 Mo10 2.703336 1_555
Mo0 Mo12 2.703338 1_555
Mo0 Mo11 2.703338 1_555
Mo1 Mo5 2.642452 1_555
Mo1 Mo6 2.642452 1_655
Mo1 Mo4 2.642455 1_555
Mo1 Mo13 2.703336 1_555
Mo1 Mo14 2.703338 1_555
Mo1 Mo15 2.703338 1_555
Mo2 Mo9 2.642452 1_656
Mo2 Mo8 2.642452 1_556
Mo2 Mo7 2.642455 1_556
Mo3 Mo8 2.642452 1_565
Mo3 Mo9 2.642452 1_555
Mo3 Mo7 2.642455 1_555
Mo4 Mo5 2.674238 1_555
Mo4 Mo6 2.674238 1_655
Mo4 Mo6 2.674238 1_555
Mo4 Mo5 2.674238 1_565
Mo5 Mo6 2.674237 1_655
Mo5 Mo6 2.674237 1_545
Mo7 Mo8 2.674238 1_555
Mo7 Mo9 2.674238 1_555
Mo7 Mo9 2.674238 1_655
Mo7 Mo8 2.674238 1_565
Mo8 Mo9 2.674237 1_545
Mo8 Mo9 2.674237 1_655
Mo10 Mo12 2.622395 1_455
Mo10 Mo11 2.622395 1_565
Mo10 Mo3 2.703336 1_555
Mo10 Mo11 2.726080 1_555
Mo10 Mo12 2.726080 1_555
Mo11 Mo12 2.622395 1_445
Mo11 Mo3 2.703338 1_555
Mo11 Mo12 2.726080 1_555
Mo12 Mo3 2.703338 1_555
Mo13 Mo14 2.622395 1_545
Mo13 Mo15 2.622395 1_655
Mo13 Mo2 2.703336 1_555
Mo13 Mo15 2.726080 1_555
Mo13 Mo14 2.726080 1_555
Mo14 Mo15 2.622395 1_665
Mo14 Mo2 2.703338 1_555
Mo14 Mo15 2.726080 1_555
Mo15 Mo2 2.703338 1_555
