# generated using pymatgen
data_BaErMn2O5
_symmetry_space_group_name_H-M   'P 1'
_cell_length_a   5.60965800
_cell_length_b   5.60965800
_cell_length_c   7.81885600
_cell_angle_alpha   90.00000000
_cell_angle_beta   90.00000000
_cell_angle_gamma   90.00000000
_symmetry_Int_Tables_number   1
_chemical_formula_structural   BaErMn2O5
_chemical_formula_sum   'Ba2 Er2 Mn4 O10'
_cell_volume   246.04581601
_cell_formula_units_Z   2
loop_
 _symmetry_equiv_pos_site_id
 _symmetry_equiv_pos_as_xyz
  1  'x, y, z'
loop_
 _atom_site_type_symbol
 _atom_site_label
 _atom_site_symmetry_multiplicity
 _atom_site_fract_x
 _atom_site_fract_y
 _atom_site_fract_z
 _atom_site_occupancy
  Ba  Ba0  1  0.00000000  0.00000000  0.00000000  1
  Ba  Ba1  1  0.50000000  0.50000000  0.00000000  1
  Er  Er0  1  0.00000000  0.00000000  0.50000000  1
  Er  Er1  1  0.50000000  0.50000000  0.50000000  1
  Mn  Mn0  1  0.00000000  0.50000000  0.25864700  1
  Mn  Mn1  1  0.50000000  0.00000000  0.74135300  1
  Mn  Mn2  1  0.00000000  0.50000000  0.72353900  1
  Mn  Mn3  1  0.50000000  0.00000000  0.27646100  1
  O  O0  1  0.24399000  0.74399000  0.67791400  1
  O  O1  1  0.75601000  0.74399000  0.67791400  1
  O  O2  1  0.24399000  0.25601000  0.67791400  1
  O  O3  1  0.75601000  0.25601000  0.67791400  1
  O  O4  1  0.25601000  0.75601000  0.32208600  1
  O  O5  1  0.74399000  0.75601000  0.32208600  1
  O  O6  1  0.25601000  0.24399000  0.32208600  1
  O  O7  1  0.74399000  0.24399000  0.32208600  1
  O  O8  1  0.00000000  0.50000000  0.99377900  1
  O  O9  1  0.50000000  0.00000000  0.00622100  1
loop_
_geom_bond_atom_site_label_1
_geom_bond_atom_site_label_2
_geom_bond_distance
_geom_bond_site_symmetry_2
Ba0 O8 2.805251 1_554
Ba0 O9 2.805251 1_455
Ba0 O8 2.805251 1_544
Ba0 O9 2.805251 1_555
Ba0 O0 3.205911 1_544
Ba0 O7 3.205911 1_455
Ba0 O3 3.205911 1_454
Ba0 O2 3.205911 1_554
Ba0 O1 3.205911 1_444
Ba0 O4 3.205911 1_545
Ba0 O5 3.205911 1_445
Ba0 O6 3.205911 1_555
Ba1 O8 2.805251 1_554
Ba1 O9 2.805251 1_555
Ba1 O9 2.805251 1_565
Ba1 O8 2.805251 1_654
Ba1 O3 3.205911 1_554
Ba1 O6 3.205911 1_555
Ba1 O2 3.205911 1_554
Ba1 O4 3.205911 1_555
Ba1 O1 3.205911 1_554
Ba1 O7 3.205911 1_555
Ba1 O5 3.205911 1_555
Ba1 O0 3.205911 1_554
Er0 O0 2.422998 1_545
Er0 O1 2.422998 1_445
Er0 O2 2.422998 1_555
Er0 O4 2.422998 1_545
Er0 O3 2.422998 1_455
Er0 O5 2.422998 1_445
Er0 O7 2.422998 1_455
Er0 O6 2.422998 1_555
Er1 O2 2.422998 1_555
Er1 O3 2.422998 1_555
Er1 O6 2.422998 1_555
Er1 O4 2.422998 1_555
Er1 O7 2.422998 1_555
Er1 O1 2.422998 1_555
Er1 O5 2.422998 1_555
Er1 O0 2.422998 1_555
Mn0 O8 2.070965 1_554
Mn0 O5 2.090686 1_455
Mn0 O7 2.090686 1_455
Mn0 O6 2.090686 1_555
Mn0 O4 2.090686 1_555
Mn1 O9 2.070965 1_556
Mn1 O2 2.090686 1_555
Mn1 O3 2.090686 1_555
Mn1 O1 2.090686 1_545
Mn1 O0 2.090686 1_545
Mn2 O2 1.968233 1_555
Mn2 O3 1.968233 1_455
Mn2 O0 1.968233 1_555
Mn2 O1 1.968233 1_455
Mn2 O8 2.112968 1_555
Mn3 O6 1.968233 1_555
Mn3 O4 1.968233 1_545
Mn3 O7 1.968233 1_555
Mn3 O5 1.968233 1_545
Mn3 O9 2.112968 1_555
