# generated using pymatgen
data_Ba2Tl2Sb3O10
_symmetry_space_group_name_H-M   'P 1'
_cell_length_a   3.83857400
_cell_length_b   3.86402011
_cell_length_c   20.24958334
_cell_angle_alpha   95.46163224
_cell_angle_beta   95.04745022
_cell_angle_gamma   90.01393834
_symmetry_Int_Tables_number   1
_chemical_formula_structural   Ba2Tl2Sb3O10
_chemical_formula_sum   'Ba2 Tl2 Sb3 O10'
_cell_volume   297.81425357
_cell_formula_units_Z   1
loop_
 _symmetry_equiv_pos_site_id
 _symmetry_equiv_pos_as_xyz
  1  'x, y, z'
loop_
 _atom_site_type_symbol
 _atom_site_label
 _atom_site_symmetry_multiplicity
 _atom_site_fract_x
 _atom_site_fract_y
 _atom_site_fract_z
 _atom_site_occupancy
  Ba  Ba0  1  0.83258300  0.90043300  0.70360800  1
  Ba  Ba1  1  0.16639400  0.20848400  0.29689800  1
  Tl  Tl0  1  0.27661600  0.36675000  0.55921300  1
  Tl  Tl1  1  0.72789900  0.81052800  0.44159700  1
  Sb  Sb0  1  0.60184700  0.64228500  0.15830700  1
  Sb  Sb1  1  0.39427200  0.47086600  0.84217300  1
  Sb  Sb2  1  0.49338900  0.57386900  0.00017000  1
  O  O0  1  0.11942600  0.66199900  0.19925300  1
  O  O1  1  0.68562900  0.72111200  0.33843200  1
  O  O2  1  0.62110200  0.16152200  0.19761000  1
  O  O3  1  0.23360500  0.18272000  0.45549700  1
  O  O4  1  0.48105800  0.05774600  0.96979700  1
  O  O5  1  0.37509000  0.95174000  0.80229300  1
  O  O6  1  0.31625500  0.37316500  0.66233800  1
  O  O7  1  0.87486400  0.45006000  0.80206700  1
  O  O8  1  0.77095800  0.72565600  0.54526400  1
  O  O9  1  0.01031000  0.59059900  0.03242800  1
loop_
_geom_bond_atom_site_label_1
_geom_bond_atom_site_label_2
_geom_bond_distance
_geom_bond_site_symmetry_2
Ba0 O5 2.749795 1_655
Ba0 O7 2.762886 1_555
Ba0 O7 2.765621 1_565
Ba0 O5 2.767462 1_555
Ba0 O6 2.822075 1_565
Ba0 O6 2.836193 1_665
Ba0 O6 2.856561 1_555
Ba0 O6 2.871766 1_655
Ba0 O8 3.201140 1_555
Ba1 O0 2.746520 1_545
Ba1 O0 2.758620 1_555
Ba1 O2 2.765196 1_455
Ba1 O2 2.769463 1_555
Ba1 O1 2.826565 1_555
Ba1 O1 2.827438 1_455
Ba1 O1 2.869229 1_445
Ba1 O1 2.869627 1_545
Ba1 O3 3.210248 1_555
O0 Sb0 2.082919 1_455
O0 Sb0 2.093009 1_555
O1 Tl1 2.076718 1_555
O2 Sb0 2.085640 1_545
O2 Sb0 2.088299 1_555
O3 Tl0 2.144392 1_555
O3 Tl1 2.396076 1_445
O3 Tl1 2.401215 1_545
O4 Sb2 2.022413 1_546
O4 Sb2 2.029563 1_556
O5 Sb1 2.088626 1_565
O5 Sb1 2.094126 1_555
O6 Tl0 2.078158 1_555
O7 Sb1 2.078589 1_555
O7 Sb1 2.084173 1_655
O8 Tl1 2.147461 1_555
O8 Tl0 2.397908 1_655
O8 Tl0 2.402378 1_555
O9 Sb2 2.018558 1_555
O9 Sb2 2.032708 1_455
