# generated using pymatgen
data_Y(Fe2Ge)2
_symmetry_space_group_name_H-M   'P 1'
_cell_length_a   4.06880700
_cell_length_b   6.65976400
_cell_length_c   7.66521300
_cell_angle_alpha   90.00000000
_cell_angle_beta   90.00000000
_cell_angle_gamma   90.00000000
_symmetry_Int_Tables_number   1
_chemical_formula_structural   Y(Fe2Ge)2
_chemical_formula_sum   'Y2 Fe8 Ge4'
_cell_volume   207.70653316
_cell_formula_units_Z   2
loop_
 _symmetry_equiv_pos_site_id
 _symmetry_equiv_pos_as_xyz
  1  'x, y, z'
loop_
 _atom_site_type_symbol
 _atom_site_label
 _atom_site_symmetry_multiplicity
 _atom_site_fract_x
 _atom_site_fract_y
 _atom_site_fract_z
 _atom_site_occupancy
  Y  Y0  1  0.00000000  0.00000000  0.00000000  1
  Y  Y1  1  0.50000000  0.50000000  0.50000000  1
  Fe  Fe0  1  0.00000000  0.13978000  0.62158500  1
  Fe  Fe1  1  0.00000000  0.86022000  0.37841500  1
  Fe  Fe2  1  0.50000000  0.36022000  0.12158500  1
  Fe  Fe3  1  0.50000000  0.63978000  0.87841500  1
  Fe  Fe4  1  0.00000000  0.56528700  0.14893300  1
  Fe  Fe5  1  0.00000000  0.43471300  0.85106700  1
  Fe  Fe6  1  0.50000000  0.93471300  0.64893300  1
  Fe  Fe7  1  0.50000000  0.06528700  0.35106700  1
  Ge  Ge0  1  0.00000000  0.25516100  0.31411900  1
  Ge  Ge1  1  0.00000000  0.74483900  0.68588100  1
  Ge  Ge2  1  0.50000000  0.24483900  0.81411900  1
  Ge  Ge3  1  0.50000000  0.75516100  0.18588100  1
loop_
_geom_bond_atom_site_label_1
_geom_bond_atom_site_label_2
_geom_bond_distance
_geom_bond_site_symmetry_2
Fe0 Fe6 2.459242 1_445
Fe0 Fe6 2.459242 1_545
Fe0 Ge0 2.478896 1_555
Fe0 Ge2 2.608900 1_555
Fe0 Ge2 2.608900 1_455
Fe0 Fe1 2.634506 1_545
Fe0 Fe5 2.636703 1_555
Fe0 Ge1 2.675989 1_545
Fe0 Y0 3.046349 1_556
Fe0 Y1 3.280622 1_455
Fe0 Y1 3.280622 1_555
Fe1 Fe7 2.459242 1_465
Fe1 Fe7 2.459242 1_565
Fe1 Ge1 2.478896 1_555
Fe1 Ge3 2.608900 1_555
Fe1 Ge3 2.608900 1_455
Fe1 Fe4 2.636703 1_555
Fe1 Ge0 2.675989 1_565
Fe1 Y0 3.046349 1_565
Fe1 Y1 3.280622 1_455
Fe1 Y1 3.280622 1_555
Fe2 Fe4 2.459242 1_555
Fe2 Fe4 2.459242 1_655
Fe2 Ge2 2.478896 1_554
Fe2 Ge0 2.608900 1_555
Fe2 Ge0 2.608900 1_655
Fe2 Fe3 2.634506 1_554
Fe2 Fe7 2.636703 1_555
Fe2 Ge3 2.675989 1_555
Fe2 Y1 3.046349 1_555
Fe2 Y0 3.280622 1_655
Fe2 Y0 3.280622 1_555
Fe3 Fe5 2.459242 1_555
Fe3 Fe5 2.459242 1_655
Fe3 Ge3 2.478896 1_556
Fe3 Ge1 2.608900 1_555
Fe3 Ge1 2.608900 1_655
Fe3 Fe6 2.636703 1_555
Fe3 Ge2 2.675989 1_555
Fe3 Y1 3.046349 1_555
Fe3 Y0 3.280622 1_666
Fe3 Y0 3.280622 1_566
Fe4 Ge3 2.412055 1_555
Fe4 Ge3 2.412055 1_455
Fe4 Ge0 2.422594 1_555
Fe4 Y0 3.112038 1_565
Fe4 Y1 3.401374 1_455
Fe4 Y1 3.401374 1_555
Fe5 Ge2 2.412055 1_455
Fe5 Ge2 2.412055 1_555
Fe5 Ge1 2.422594 1_555
Fe5 Y0 3.112038 1_556
Fe5 Y1 3.401374 1_455
Fe5 Y1 3.401374 1_555
Fe6 Ge1 2.412055 1_555
Fe6 Ge1 2.412055 1_655
Fe6 Ge2 2.422594 1_565
Fe6 Y1 3.112038 1_555
Fe6 Y0 3.401374 1_666
Fe6 Y0 3.401374 1_566
Fe7 Ge0 2.412055 1_555
Fe7 Ge0 2.412055 1_655
Fe7 Ge3 2.422594 1_545
Fe7 Y1 3.112038 1_555
Fe7 Y0 3.401374 1_655
Fe7 Y0 3.401374 1_555
Ge0 Y0 2.947051 1_555
Ge0 Y1 2.971138 1_555
Ge0 Y1 2.971138 1_455
Ge1 Y0 2.947051 1_566
Ge1 Y1 2.971138 1_455
Ge1 Y1 2.971138 1_555
Ge2 Y1 2.947051 1_555
Ge2 Y0 2.971138 1_656
Ge2 Y0 2.971138 1_556
Ge3 Y1 2.947051 1_555
Ge3 Y0 2.971138 1_565
Ge3 Y0 2.971138 1_665
