# generated using pymatgen
data_TlH2NCl2
_symmetry_space_group_name_H-M   'P 1'
_cell_length_a   8.64118400
_cell_length_b   8.64118400
_cell_length_c   8.84628913
_cell_angle_alpha   119.23595028
_cell_angle_beta   119.23595028
_cell_angle_gamma   90.00000000
_symmetry_Int_Tables_number   1
_chemical_formula_structural   TlH2NCl2
_chemical_formula_sum   'Tl4 H8 N4 Cl8'
_cell_volume   477.66549977
_cell_formula_units_Z   4
loop_
 _symmetry_equiv_pos_site_id
 _symmetry_equiv_pos_as_xyz
  1  'x, y, z'
loop_
 _atom_site_type_symbol
 _atom_site_label
 _atom_site_symmetry_multiplicity
 _atom_site_fract_x
 _atom_site_fract_y
 _atom_site_fract_z
 _atom_site_occupancy
  Tl  Tl0  1  0.12500000  0.37500000  0.25000000  1
  Tl  Tl1  1  0.12500000  0.87500000  0.25000000  1
  Tl  Tl2  1  0.12500000  0.87500000  0.75000000  1
  Tl  Tl3  1  0.62500000  0.87500000  0.75000000  1
  H  H0  1  0.54845000  0.78358800  0.08741700  1
  H  H1  1  0.53896600  0.30382900  0.08741700  1
  H  H2  1  0.55382900  0.29845000  0.58741700  1
  H  H3  1  0.70155000  0.96641200  0.41258300  1
  H  H4  1  0.03358800  0.28896600  0.58741700  1
  H  H5  1  0.71103400  0.44617100  0.41258300  1
  H  H6  1  0.69617100  0.45155000  0.91258300  1
  H  H7  1  0.21641200  0.46103400  0.91258300  1
  N  N0  1  0.62500000  0.87500000  0.25000000  1
  N  N1  1  0.62500000  0.37500000  0.25000000  1
  N  N2  1  0.62500000  0.37500000  0.75000000  1
  N  N3  1  0.12500000  0.37500000  0.75000000  1
  Cl  Cl0  1  0.39894800  0.13264800  0.25751500  1
  Cl  Cl1  1  0.85856600  0.12486700  0.25751500  1
  Cl  Cl2  1  0.37486700  0.14894800  0.75751500  1
  Cl  Cl3  1  0.85105200  0.61735200  0.24248500  1
  Cl  Cl4  1  0.38264800  0.60856600  0.75751500  1
  Cl  Cl5  1  0.39143400  0.62513300  0.24248500  1
  Cl  Cl6  1  0.87513300  0.60105200  0.74248500  1
  Cl  Cl7  1  0.86735200  0.14143400  0.74248500  1
loop_
_geom_bond_atom_site_label_1
_geom_bond_atom_site_label_2
_geom_bond_distance
_geom_bond_site_symmetry_2
H0 N0 1.044520 1_555
H1 N1 1.044520 1_555
H2 N2 1.044520 1_555
H3 N0 1.044520 1_555
H4 N3 1.044520 1_555
H5 N1 1.044520 1_555
H6 N2 1.044520 1_555
H7 N3 1.044520 1_555
Cl0 Tl0 3.158512 1_555
Cl0 Tl1 3.204170 1_545
Cl0 Tl2 3.251439 1_544
Cl1 Tl1 3.158519 1_645
Cl1 Tl0 3.204176 1_655
Cl1 Tl3 3.251440 1_544
Cl2 Tl2 3.158512 1_545
Cl2 Tl3 3.204170 1_545
Cl2 Tl1 3.251439 1_545
Cl3 Tl0 3.158512 1_655
Cl3 Tl1 3.204170 1_655
Cl3 Tl2 3.251439 1_655
Cl4 Tl3 3.158519 1_555
Cl4 Tl2 3.204176 1_555
Cl4 Tl0 3.251440 1_555
Cl5 Tl1 3.158519 1_555
Cl5 Tl0 3.204176 1_555
Cl5 Tl3 3.251440 1_555
Cl6 Tl2 3.158512 1_655
Cl6 Tl3 3.204170 1_555
Cl6 Tl1 3.251439 1_656
Cl7 Tl3 3.158519 1_545
Cl7 Tl2 3.204176 1_645
Cl7 Tl0 3.251440 1_656
