# generated using pymatgen
data_Hf3(NiGe)4
_symmetry_space_group_name_H-M   'P 1'
_cell_length_a   3.88120969
_cell_length_b   6.47279801
_cell_length_c   7.42910972
_cell_angle_alpha   115.78817772
_cell_angle_beta   105.12856775
_cell_angle_gamma   90.00153801
_symmetry_Int_Tables_number   1
_chemical_formula_structural   Hf3(NiGe)4
_chemical_formula_sum   'Hf3 Ni4 Ge4'
_cell_volume   160.83406623
_cell_formula_units_Z   1
loop_
 _symmetry_equiv_pos_site_id
 _symmetry_equiv_pos_as_xyz
  1  'x, y, z'
loop_
 _atom_site_type_symbol
 _atom_site_label
 _atom_site_symmetry_multiplicity
 _atom_site_fract_x
 _atom_site_fract_y
 _atom_site_fract_z
 _atom_site_occupancy
  Hf  Hf0  1  0.12785480  0.12821651  0.25634249  1
  Hf  Hf1  1  0.87214520  0.87178349  0.74365751  1
  Hf  Hf2  1  0.00000000  0.50000000  0.00000000  1
  Ni  Ni0  1  0.32177021  0.12163631  0.64492414  1
  Ni  Ni1  1  0.67822979  0.87836369  0.35507586  1
  Ni  Ni2  1  0.32215040  0.52316042  0.64558239  1
  Ni  Ni3  1  0.67784960  0.47683958  0.35441761  1
  Ge  Ge0  1  0.21386389  0.71299420  0.42615501  1
  Ge  Ge1  1  0.49992058  0.20040438  0.99984922  1
  Ge  Ge2  1  0.50007942  0.79959562  0.00015078  1
  Ge  Ge3  1  0.78613611  0.28700580  0.57384499  1
loop_
_geom_bond_atom_site_label_1
_geom_bond_atom_site_label_2
_geom_bond_distance
_geom_bond_site_symmetry_2
Hf0 Ni0 2.806219 1_555
Hf0 Ni2 2.809882 1_555
Hf0 Ni1 2.810512 1_445
Hf0 Ni3 2.812000 1_455
Hf0 Ni1 2.816204 1_545
Hf0 Ni3 2.817271 1_555
Hf1 Ni1 2.806219 1_555
Hf1 Ni3 2.809882 1_555
Hf1 Ni0 2.810512 1_665
Hf1 Ni2 2.812000 1_655
Hf1 Ni0 2.816204 1_565
Hf1 Ni2 2.817271 1_555
Hf2 Ni3 3.252748 1_455
Hf2 Ni2 3.252748 1_554
Hf2 Ni3 3.256442 1_555
Hf2 Ni2 3.256442 1_454
Ni0 Ni2 2.596860 1_555
Ni1 Ni3 2.596860 1_555
Ni2 Ni3 2.763048 1_455
Ni2 Ni3 2.769338 1_555
Ge0 Ni3 2.378203 1_555
Ge0 Ni3 2.379259 1_455
Ge0 Ni1 2.379362 1_555
Ge0 Ni1 2.380205 1_455
Ge0 Ni0 2.391111 1_565
Ge0 Ni2 2.393558 1_555
Ge0 Hf2 2.728267 1_555
Ge0 Hf1 2.809378 1_555
Ge0 Hf1 2.811185 1_455
Ge1 Ni3 2.359367 1_556
Ge1 Ni0 2.359926 1_555
Ge1 Ge2 2.595330 1_546
Ge1 Hf2 2.743082 1_656
Ge1 Hf2 2.743133 1_556
Ge1 Hf0 2.853018 1_656
Ge1 Hf1 2.853119 1_445
Ge1 Hf0 2.854053 1_556
Ge1 Hf1 2.854291 1_545
Ge2 Ni2 2.359367 1_554
Ge2 Ni1 2.359926 1_555
Ge2 Hf2 2.743082 1_555
Ge2 Hf2 2.743133 1_655
Ge2 Hf1 2.853018 1_454
Ge2 Hf0 2.853119 1_665
Ge2 Hf1 2.854053 1_554
Ge2 Hf0 2.854291 1_565
Ge3 Ni2 2.378203 1_555
Ge3 Ni2 2.379259 1_655
Ge3 Ni0 2.379362 1_555
Ge3 Ni0 2.380205 1_655
Ge3 Ni1 2.391111 1_545
Ge3 Ni3 2.393558 1_555
Ge3 Hf2 2.728267 1_656
Ge3 Hf0 2.809378 1_555
Ge3 Hf0 2.811185 1_655
