# generated using pymatgen
data_Ba2Sb3O7
_symmetry_space_group_name_H-M   'P 1'
_cell_length_a   4.15561600
_cell_length_b   4.16767600
_cell_length_c   11.71227800
_cell_angle_alpha   90.00000000
_cell_angle_beta   90.00000000
_cell_angle_gamma   90.00000000
_symmetry_Int_Tables_number   1
_chemical_formula_structural   Ba2Sb3O7
_chemical_formula_sum   'Ba2 Sb3 O7'
_cell_volume   202.84800039
_cell_formula_units_Z   1
loop_
 _symmetry_equiv_pos_site_id
 _symmetry_equiv_pos_as_xyz
  1  'x, y, z'
loop_
 _atom_site_type_symbol
 _atom_site_label
 _atom_site_symmetry_multiplicity
 _atom_site_fract_x
 _atom_site_fract_y
 _atom_site_fract_z
 _atom_site_occupancy
  Ba  Ba0  1  0.50999000  0.50000000  0.30356100  1
  Ba  Ba1  1  0.50999000  0.50000000  0.69643900  1
  Sb  Sb0  1  0.99972400  0.00000000  0.12955400  1
  Sb  Sb1  1  0.99972400  0.00000000  0.87044600  1
  Sb  Sb2  1  0.06219100  0.00000000  0.50000000  1
  O  O0  1  0.92230100  0.50000000  0.50000000  1
  O  O1  1  0.49789600  0.00000000  0.15304200  1
  O  O2  1  0.49789600  0.00000000  0.84695800  1
  O  O3  1  0.99985400  0.50000000  0.15159700  1
  O  O4  1  0.99985400  0.50000000  0.84840300  1
  O  O5  1  0.99137400  0.00000000  0.31645600  1
  O  O6  1  0.99137400  0.00000000  0.68354400  1
loop_
_geom_bond_atom_site_label_1
_geom_bond_atom_site_label_2
_geom_bond_distance
_geom_bond_site_symmetry_2
Ba0 O3 2.704046 1_555
Ba0 O1 2.729981 1_555
Ba0 O1 2.729981 1_565
Ba0 O3 2.768022 1_455
Ba0 O0 2.868659 1_555
Ba0 O5 2.892573 1_555
Ba0 O5 2.892573 1_565
Ba0 O5 3.001657 1_465
Ba0 O5 3.001657 1_455
Ba0 O0 3.355269 1_455
Ba1 O4 2.704046 1_555
Ba1 O2 2.729981 1_555
Ba1 O2 2.729981 1_565
Ba1 O4 2.768022 1_455
Ba1 O0 2.868659 1_555
Ba1 O6 2.892573 1_555
Ba1 O6 2.892573 1_565
Ba1 O6 3.001657 1_465
Ba1 O6 3.001657 1_455
Ba1 O0 3.355269 1_455
O0 Sb2 2.163406 1_655
O0 Sb2 2.163406 1_665
O1 Sb0 2.088410 1_455
O1 Sb0 2.103471 1_555
O2 Sb1 2.088410 1_455
O2 Sb1 2.103471 1_555
O3 Sb0 2.099770 1_565
O3 Sb0 2.099770 1_555
O4 Sb1 2.099770 1_565
O4 Sb1 2.099770 1_555
O5 Sb2 2.169768 1_655
O5 Sb0 2.189323 1_555
O6 Sb2 2.169768 1_655
O6 Sb1 2.189323 1_555
