# generated using pymatgen
data_Hf6Zn6N
_symmetry_space_group_name_H-M   'P 1'
_cell_length_a   8.40806343
_cell_length_b   8.40806263
_cell_length_c   8.40794569
_cell_angle_alpha   60.00046011
_cell_angle_beta   60.00046323
_cell_angle_gamma   60.00100212
_symmetry_Int_Tables_number   1
_chemical_formula_structural   Hf6Zn6N
_chemical_formula_sum   'Hf12 Zn12 N2'
_cell_volume   420.31330387
_cell_formula_units_Z   2
loop_
 _symmetry_equiv_pos_site_id
 _symmetry_equiv_pos_as_xyz
  1  'x, y, z'
loop_
 _atom_site_type_symbol
 _atom_site_label
 _atom_site_symmetry_multiplicity
 _atom_site_fract_x
 _atom_site_fract_y
 _atom_site_fract_z
 _atom_site_occupancy
  Hf  Hf0  1  0.19004366  0.80995706  0.19004379  1
  Hf  Hf1  1  0.44004425  0.05995637  0.44004385  1
  Hf  Hf2  1  0.44004425  0.05995637  0.05995553  1
  Hf  Hf3  1  0.44004386  0.44004180  0.05995717  1
  Hf  Hf4  1  0.19004366  0.80995706  0.80995550  1
  Hf  Hf5  1  0.05995634  0.44004294  0.05995621  1
  Hf  Hf6  1  0.80995614  0.80995820  0.19004283  1
  Hf  Hf7  1  0.05995634  0.44004294  0.44004450  1
  Hf  Hf8  1  0.19004540  0.19004478  0.80995491  1
  Hf  Hf9  1  0.80995575  0.19004363  0.19004447  1
  Hf  Hf10  1  0.80995575  0.19004363  0.80995615  1
  Hf  Hf11  1  0.05995460  0.05995522  0.44004509  1
  Zn  Zn0  1  0.83174001  0.50477667  0.83174216  1
  Zn  Zn1  1  0.41826230  0.41826009  0.74521728  1
  Zn  Zn2  1  0.74522235  0.41825886  0.41825889  1
  Zn  Zn3  1  0.41826230  0.41826009  0.41825933  1
  Zn  Zn4  1  0.83173770  0.83173991  0.50478272  1
  Zn  Zn5  1  0.41825999  0.74522333  0.41825784  1
  Zn  Zn6  1  0.83173770  0.83173991  0.83174067  1
  Zn  Zn7  1  0.50477765  0.83174114  0.83174111  1
  Zn  Zn8  1  0.62500000  0.12500000  0.62500000  1
  Zn  Zn9  1  0.62500000  0.62500000  0.12500000  1
  Zn  Zn10  1  0.12500000  0.62500000  0.62500000  1
  Zn  Zn11  1  0.62500000  0.62500000  0.62500000  1
  N  N0  1  0.00000059  0.00000331  0.99999805  1
  N  N1  1  0.24999941  0.24999669  0.25000195  1
loop_
_geom_bond_atom_site_label_1
_geom_bond_atom_site_label_2
_geom_bond_distance
_geom_bond_site_symmetry_2
Hf0 N0 2.259781 1_564
Hf0 Zn7 2.841294 1_554
Hf0 Zn4 2.841339 1_455
Hf0 Zn5 3.041912 1_555
Hf0 Zn3 3.041977 1_555
Hf0 Zn10 3.042220 1_555
Hf0 Zn9 3.042284 1_555
Hf1 N1 2.259768 1_555
Hf1 Zn5 2.841294 1_545
Hf1 Zn3 2.841322 1_555
Hf1 Zn7 3.041915 1_545
Hf1 Zn4 3.041957 1_545
Hf1 Zn8 3.042216 1_555
Hf1 Zn11 3.042283 1_545
Hf2 N1 2.259768 1_555
Hf2 Zn5 2.841289 1_545
Hf2 Zn1 2.841325 1_554
Hf2 Zn7 3.041908 1_544
Hf2 Zn6 3.041954 1_544
Hf2 Zn8 3.042216 1_554
Hf2 Zn9 3.042283 1_545
Hf3 N1 2.259783 1_555
Hf3 Zn3 2.841276 1_555
Hf3 Zn1 2.841284 1_554
Hf3 Zn0 3.041944 1_554
Hf3 Zn7 3.041963 1_554
Hf3 Zn9 3.042238 1_555
Hf3 Zn11 3.042238 1_554
Hf4 N0 2.259781 1_565
Hf4 Zn7 2.841299 1_555
Hf4 Zn6 2.841335 1_455
Hf4 Zn5 3.041920 1_555
Hf4 Zn1 3.041980 1_555
Hf4 Zn10 3.042220 1_555
Hf4 Zn11 3.042284 1_555
Hf5 N1 2.259781 1_555
Hf5 Zn2 2.841294 1_455
Hf5 Zn1 2.841339 1_554
Hf5 Zn0 3.041912 1_454
Hf5 Zn6 3.041977 1_454
Hf5 Zn10 3.042220 1_554
Hf5 Zn9 3.042284 1_455
Hf6 N0 2.259783 1_664
Hf6 Zn6 2.841276 1_554
Hf6 Zn4 2.841284 1_555
Hf6 Zn5 3.041944 1_555
Hf6 Zn2 3.041963 1_555
Hf6 Zn11 3.042238 1_555
Hf6 Zn9 3.042238 1_555
Hf7 N1 2.259781 1_555
Hf7 Zn2 2.841299 1_455
Hf7 Zn3 2.841335 1_555
Hf7 Zn0 3.041920 1_455
Hf7 Zn4 3.041980 1_455
Hf7 Zn10 3.042220 1_555
Hf7 Zn11 3.042284 1_455
Hf8 N0 2.259763 1_555
Hf8 Zn7 2.841340 1_545
Hf8 Zn0 2.841348 1_455
Hf8 Zn1 3.041924 1_555
Hf8 Zn3 3.041928 1_555
Hf8 Zn8 3.042259 1_555
Hf8 Zn10 3.042262 1_555
Hf9 N0 2.259768 1_654
Hf9 Zn0 2.841289 1_554
Hf9 Zn4 2.841325 1_545
Hf9 Zn2 3.041908 1_555
Hf9 Zn3 3.041954 1_555
Hf9 Zn8 3.042216 1_555
Hf9 Zn9 3.042283 1_555
Hf10 N0 2.259768 1_655
Hf10 Zn0 2.841294 1_555
Hf10 Zn6 2.841322 1_545
Hf10 Zn2 3.041915 1_555
Hf10 Zn1 3.041957 1_555
Hf10 Zn8 3.042216 1_555
Hf10 Zn11 3.042283 1_555
Hf11 N1 2.259763 1_555
Hf11 Zn2 2.841340 1_455
Hf11 Zn5 2.841348 1_545
Hf11 Zn4 3.041924 1_445
Hf11 Zn6 3.041928 1_445
Hf11 Zn8 3.042259 1_455
Hf11 Zn10 3.042262 1_545
Zn0 Zn9 2.563668 1_556
Zn0 Zn11 2.563675 1_555
Zn0 Zn10 2.563698 1_655
Zn0 Zn4 2.749111 1_555
Zn0 Zn6 2.749111 1_555
Zn0 Zn7 2.749171 1_555
Zn1 Zn11 2.563667 1_555
Zn1 Zn8 2.563685 1_555
Zn1 Zn10 2.563701 1_555
Zn1 Zn3 2.749045 1_555
Zn1 Zn2 2.749094 1_555
Zn1 Zn5 2.749111 1_555
Zn2 Zn9 2.563671 1_555
Zn2 Zn8 2.563686 1_555
Zn2 Zn3 2.749094 1_555
Zn2 Zn5 2.749171 1_555
Zn3 Zn9 2.563665 1_555
Zn3 Zn8 2.563690 1_555
Zn3 Zn5 2.749111 1_555
Zn4 Zn8 2.563685 1_565
Zn4 Zn6 2.749045 1_555
Zn4 Zn7 2.749094 1_555
Zn5 Zn9 2.563668 1_555
Zn6 Zn9 2.563665 1_556
Zn6 Zn8 2.563690 1_565
Zn6 Zn7 2.749094 1_555
Zn7 Zn9 2.563671 1_556
Zn7 Zn8 2.563686 1_565
Zn10 Zn5 2.563698 1_555
Zn10 Zn4 2.563701 1_455
Zn10 Zn6 2.563705 1_455
Zn10 Zn3 2.563705 1_555
Zn11 Zn4 2.563667 1_555
Zn11 Zn5 2.563675 1_555
Zn11 Zn7 2.563678 1_555
Zn11 Zn2 2.563678 1_555
