# generated using pymatgen
data_CaWF4
_symmetry_space_group_name_H-M   'P 1'
_cell_length_a   6.97271196
_cell_length_b   6.97271196
_cell_length_c   6.97271196
_cell_angle_alpha   132.54776741
_cell_angle_beta   132.54776741
_cell_angle_gamma   69.36525158
_symmetry_Int_Tables_number   1
_chemical_formula_structural   CaWF4
_chemical_formula_sum   'Ca2 W2 F8'
_cell_volume   180.52812232
_cell_formula_units_Z   2
loop_
 _symmetry_equiv_pos_site_id
 _symmetry_equiv_pos_as_xyz
  1  'x, y, z'
loop_
 _atom_site_type_symbol
 _atom_site_label
 _atom_site_symmetry_multiplicity
 _atom_site_fract_x
 _atom_site_fract_y
 _atom_site_fract_z
 _atom_site_occupancy
  Ca  Ca0  1  0.75000000  0.75000000  0.00000000  1
  Ca  Ca1  1  0.25000000  0.25000000  0.00000000  1
  W  W0  1  0.00000000  0.50000000  0.50000000  1
  W  W1  1  0.50000000  0.00000000  0.50000000  1
  F  F0  1  0.96055300  0.46055300  0.13861000  1
  F  F1  1  0.67805800  0.17805800  0.13861000  1
  F  F2  1  0.03944700  0.53944700  0.86139000  1
  F  F3  1  0.53944700  0.67805800  0.50000000  1
  F  F4  1  0.32194200  0.82194200  0.86139000  1
  F  F5  1  0.82194200  0.96055300  0.50000000  1
  F  F6  1  0.46055300  0.32194200  0.50000000  1
  F  F7  1  0.17805800  0.03944700  0.50000000  1
loop_
_geom_bond_atom_site_label_1
_geom_bond_atom_site_label_2
_geom_bond_distance
_geom_bond_site_symmetry_2
Ca0 F2 2.406947 1_654
Ca0 F0 2.406947 1_555
Ca0 F3 2.406950 1_554
Ca0 F7 2.406950 1_665
Ca0 F6 2.406950 1_554
Ca0 F5 2.406950 1_555
Ca0 F4 2.406953 1_554
Ca0 F1 2.406953 1_565
Ca1 F2 2.406947 1_554
Ca1 F0 2.406947 1_455
Ca1 F3 2.406950 1_555
Ca1 F7 2.406950 1_554
Ca1 F5 2.406950 1_444
Ca1 F6 2.406950 1_555
Ca1 F1 2.406953 1_555
Ca1 F4 2.406953 1_544
F0 W0 2.163254 1_655
F1 W0 2.163245 1_655
F2 W0 2.163254 1_555
F3 W1 2.163247 1_565
F4 W0 2.163245 1_555
F5 W1 2.163247 1_565
F6 W1 2.163247 1_555
F7 W1 2.163247 1_555
