# generated using pymatgen
data_Cr3N4
_symmetry_space_group_name_H-M   'P 1'
_cell_length_a   7.63740633
_cell_length_b   7.63740633
_cell_length_c   2.75289800
_cell_angle_alpha   90.00000000
_cell_angle_beta   90.00000000
_cell_angle_gamma   120.00000289
_symmetry_Int_Tables_number   1
_chemical_formula_structural   Cr3N4
_chemical_formula_sum   'Cr6 N8'
_cell_volume   139.06330073
_cell_formula_units_Z   2
loop_
 _symmetry_equiv_pos_site_id
 _symmetry_equiv_pos_as_xyz
  1  'x, y, z'
loop_
 _atom_site_type_symbol
 _atom_site_label
 _atom_site_symmetry_multiplicity
 _atom_site_fract_x
 _atom_site_fract_y
 _atom_site_fract_z
 _atom_site_occupancy
  Cr  Cr0  1  0.52331800  0.65429400  0.75000000  1
  Cr  Cr1  1  0.13097500  0.47668200  0.75000000  1
  Cr  Cr2  1  0.34570600  0.86902500  0.75000000  1
  Cr  Cr3  1  0.47668200  0.34570600  0.25000000  1
  Cr  Cr4  1  0.86902500  0.52331800  0.25000000  1
  Cr  Cr5  1  0.65429400  0.13097500  0.25000000  1
  N  N0  1  0.63886400  0.95101200  0.75000000  1
  N  N1  1  0.31214700  0.36113600  0.75000000  1
  N  N2  1  0.04898800  0.68785300  0.75000000  1
  N  N3  1  0.36113600  0.04898800  0.25000000  1
  N  N4  1  0.68785300  0.63886400  0.25000000  1
  N  N5  1  0.95101200  0.31214700  0.25000000  1
  N  N6  1  0.66666700  0.33333300  0.75000000  1
  N  N7  1  0.33333300  0.66666700  0.25000000  1
loop_
_geom_bond_atom_site_label_1
_geom_bond_atom_site_label_2
_geom_bond_distance
_geom_bond_site_symmetry_2
Cr0 N4 1.906746 1_556
Cr0 N4 1.906746 1_555
Cr0 N0 1.978484 1_555
Cr0 N1 2.000772 1_555
Cr0 N7 2.036182 1_556
Cr0 N7 2.036182 1_555
Cr1 N5 1.906740 1_455
Cr1 N5 1.906740 1_456
Cr1 N1 1.978484 1_555
Cr1 N2 2.000772 1_555
Cr1 N7 2.036182 1_555
Cr1 N7 2.036182 1_556
Cr2 N3 1.906736 1_566
Cr2 N3 1.906736 1_565
Cr2 N2 1.978484 1_555
Cr2 N0 2.000772 1_555
Cr2 N7 2.036182 1_556
Cr2 N7 2.036182 1_555
Cr3 N1 1.906746 1_554
Cr3 N1 1.906746 1_555
Cr3 N3 1.978484 1_555
Cr3 N4 2.000772 1_555
Cr3 N6 2.036182 1_555
Cr3 N6 2.036182 1_554
Cr4 N2 1.906740 1_655
Cr4 N2 1.906740 1_654
Cr4 N4 1.978484 1_555
Cr4 N5 2.000772 1_555
Cr4 N6 2.036182 1_555
Cr4 N6 2.036182 1_554
Cr5 N0 1.906736 1_544
Cr5 N0 1.906736 1_545
Cr5 N5 1.978484 1_555
Cr5 N3 2.000772 1_555
Cr5 N6 2.036182 1_555
Cr5 N6 2.036182 1_554
