# generated using pymatgen
data_SrEu4Se5
_symmetry_space_group_name_H-M   'P 1'
_cell_length_a   7.55554253
_cell_length_b   7.55554253
_cell_length_c   10.68262061
_cell_angle_alpha   61.87997381
_cell_angle_beta   61.87997381
_cell_angle_gamma   33.55537930
_symmetry_Int_Tables_number   1
_chemical_formula_structural   SrEu4Se5
_chemical_formula_sum   'Sr1 Eu4 Se5'
_cell_volume   293.40718674
_cell_formula_units_Z   1
loop_
 _symmetry_equiv_pos_site_id
 _symmetry_equiv_pos_as_xyz
  1  'x, y, z'
loop_
 _atom_site_type_symbol
 _atom_site_label
 _atom_site_symmetry_multiplicity
 _atom_site_fract_x
 _atom_site_fract_y
 _atom_site_fract_z
 _atom_site_occupancy
  Sr  Sr0  1  0.00000000  0.00000000  -0.00000000  1
  Eu  Eu0  1  0.59958166  0.59958166  0.59987452  1
  Eu  Eu1  1  0.20017080  0.20017080  0.20132219  1
  Eu  Eu2  1  0.79982920  0.79982920  0.79867781  1
  Eu  Eu3  1  0.40041834  0.40041834  0.40012548  1
  Se  Se0  1  0.20129861  0.20129861  0.69714055  1
  Se  Se1  1  0.79870139  0.79870139  0.30285945  1
  Se  Se2  1  0.39800215  0.39800215  0.89825969  1
  Se  Se3  1  0.00000000  0.00000000  0.50000000  1
  Se  Se4  1  0.60199785  0.60199785  0.10174031  1
loop_
_geom_bond_atom_site_label_1
_geom_bond_atom_site_label_2
_geom_bond_distance
_geom_bond_site_symmetry_2
Eu0 Se1 3.060573 1_555
Eu0 Se3 3.079623 1_565
Eu0 Se3 3.079623 1_655
Eu0 Se0 3.083415 1_655
Eu0 Se0 3.083415 1_565
Eu0 Se2 3.084366 1_555
Eu1 Se4 3.064854 1_455
Eu1 Se4 3.064854 1_545
Eu1 Se3 3.077310 1_555
Eu1 Se1 3.080206 1_455
Eu1 Se1 3.080206 1_545
Eu1 Se2 3.090367 1_554
Eu2 Se2 3.064854 1_655
Eu2 Se2 3.064854 1_565
Eu2 Se3 3.077310 1_665
Eu2 Se0 3.080206 1_655
Eu2 Se0 3.080206 1_565
Eu2 Se4 3.090367 1_556
Eu3 Se0 3.060573 1_555
Eu3 Se3 3.079623 1_565
Eu3 Se3 3.079623 1_655
Eu3 Se1 3.083415 1_455
Eu3 Se1 3.083415 1_545
Eu3 Se4 3.084366 1_555
Se0 Sr0 3.110036 1_556
Se1 Sr0 3.110036 1_665
Se2 Sr0 3.113621 1_566
Se2 Sr0 3.113621 1_656
Se4 Sr0 3.113621 1_655
Se4 Sr0 3.113621 1_565
