# generated using pymatgen
data_Tc3Se4I
_symmetry_space_group_name_H-M   'P 1'
_cell_length_a   12.24931200
_cell_length_b   6.68510800
_cell_length_c   11.46473761
_cell_angle_alpha   64.93672740
_cell_angle_beta   90.00000000
_cell_angle_gamma   90.00000000
_symmetry_Int_Tables_number   1
_chemical_formula_structural   Tc3Se4I
_chemical_formula_sum   'Tc12 Se16 I4'
_cell_volume   850.42494922
_cell_formula_units_Z   4
loop_
 _symmetry_equiv_pos_site_id
 _symmetry_equiv_pos_as_xyz
  1  'x, y, z'
loop_
 _atom_site_type_symbol
 _atom_site_label
 _atom_site_symmetry_multiplicity
 _atom_site_fract_x
 _atom_site_fract_y
 _atom_site_fract_z
 _atom_site_occupancy
  Tc  Tc0  1  0.55520000  0.04111200  0.33885900  1
  Tc  Tc1  1  0.94480000  0.04111200  0.83885900  1
  Tc  Tc2  1  0.44480000  0.95888800  0.66114100  1
  Tc  Tc3  1  0.05520000  0.95888800  0.16114100  1
  Tc  Tc4  1  0.35791500  0.96440700  0.44994500  1
  Tc  Tc5  1  0.14208500  0.96440700  0.94994500  1
  Tc  Tc6  1  0.64208500  0.03559300  0.55005500  1
  Tc  Tc7  1  0.85791500  0.03559300  0.05005500  1
  Tc  Tc8  1  0.52260800  0.69812000  0.55991800  1
  Tc  Tc9  1  0.97739200  0.69812000  0.05991800  1
  Tc  Tc10  1  0.47739200  0.30188000  0.44008200  1
  Tc  Tc11  1  0.02260800  0.30188000  0.94008200  1
  Se  Se0  1  0.43401200  0.73183200  0.34318600  1
  Se  Se1  1  0.06598800  0.73183200  0.84318600  1
  Se  Se2  1  0.56598800  0.26816800  0.65681400  1
  Se  Se3  1  0.93401200  0.26816800  0.15681400  1
  Se  Se4  1  0.33822600  0.63760800  0.66549000  1
  Se  Se5  1  0.16177400  0.63760800  0.16549000  1
  Se  Se6  1  0.66177400  0.36239200  0.33451000  1
  Se  Se7  1  0.83822600  0.36239200  0.83451000  1
  Se  Se8  1  0.39622100  0.29610100  0.24045100  1
  Se  Se9  1  0.10377900  0.29610100  0.74045100  1
  Se  Se10  1  0.60377900  0.70389900  0.75954900  1
  Se  Se11  1  0.89622100  0.70389900  0.25954900  1
  Se  Se12  1  0.70710200  0.78240700  0.45553900  1
  Se  Se13  1  0.79289800  0.78240700  0.95553900  1
  Se  Se14  1  0.29289800  0.21759300  0.54446100  1
  Se  Se15  1  0.20710200  0.21759300  0.04446100  1
  I  I0  1  0.13402100  0.88944000  0.40806600  1
  I  I1  1  0.36597900  0.88944000  0.90806600  1
  I  I2  1  0.86597900  0.11056000  0.59193400  1
  I  I3  1  0.63402100  0.11056000  0.09193400  1
loop_
_geom_bond_atom_site_label_1
_geom_bond_atom_site_label_2
_geom_bond_distance
_geom_bond_site_symmetry_2
Se0 Tc0 2.528648 1_565
Se0 Tc4 2.529156 1_555
Se0 Tc8 2.632148 1_555
Se0 Tc10 2.659448 1_555
Se1 Tc1 2.528648 1_465
Se1 Tc5 2.529156 1_555
Se1 Tc9 2.632148 1_456
Se1 Tc11 2.659448 1_555
Se2 Tc2 2.528648 1_545
Se2 Tc6 2.529156 1_555
Se2 Tc10 2.632148 1_555
Se2 Tc8 2.659448 1_555
Se3 Tc3 2.528648 1_645
Se3 Tc7 2.529156 1_555
Se3 Tc11 2.632148 1_654
Se3 Tc9 2.659448 1_555
Se4 Tc2 2.495794 1_555
Se4 Tc8 2.512934 1_555
Se4 Tc4 2.522634 1_555
Se5 Tc3 2.495794 1_555
Se5 Tc9 2.512934 1_455
Se5 Tc5 2.522634 1_554
Se6 Tc0 2.495794 1_555
Se6 Tc10 2.512934 1_555
Se6 Tc6 2.522634 1_555
Se7 Tc1 2.495794 1_555
Se7 Tc11 2.512934 1_655
Se7 Tc7 2.522634 1_556
Se8 Tc10 2.510626 1_555
Se8 Tc0 2.518241 1_555
Se8 Tc4 2.528538 1_545
Se9 Tc11 2.510626 1_555
Se9 Tc1 2.518241 1_455
Se9 Tc5 2.528538 1_545
Se10 Tc8 2.510626 1_555
Se10 Tc2 2.518241 1_555
Se10 Tc6 2.528538 1_565
Se11 Tc9 2.510626 1_555
Se11 Tc3 2.518241 1_655
Se11 Tc7 2.528538 1_565
Se12 Tc6 2.495431 1_565
Se12 Tc0 2.506513 1_565
Se12 Tc8 2.507092 1_555
Se13 Tc7 2.495431 1_566
Se13 Tc1 2.506513 1_565
Se13 Tc9 2.507092 1_556
Se14 Tc4 2.495431 1_545
Se14 Tc2 2.506513 1_545
Se14 Tc10 2.507092 1_555
Se15 Tc5 2.495431 1_544
Se15 Tc3 2.506513 1_545
Se15 Tc11 2.507092 1_554
I0 Tc3 2.836966 1_555
I0 Tc4 2.864808 1_555
I1 Tc2 2.836966 1_555
I1 Tc5 2.864808 1_555
I2 Tc1 2.836966 1_555
I2 Tc6 2.864808 1_555
I3 Tc0 2.836966 1_555
I3 Tc7 2.864808 1_555
