# generated using pymatgen
data_Hf2Sc3Si4
_symmetry_space_group_name_H-M   'P 1'
_cell_length_a   7.17057700
_cell_length_b   7.17057700
_cell_length_c   12.99520000
_cell_angle_alpha   90.00000000
_cell_angle_beta   90.00000000
_cell_angle_gamma   90.00000000
_symmetry_Int_Tables_number   1
_chemical_formula_structural   Hf2Sc3Si4
_chemical_formula_sum   'Hf8 Sc12 Si16'
_cell_volume   668.17646623
_cell_formula_units_Z   4
loop_
 _symmetry_equiv_pos_site_id
 _symmetry_equiv_pos_as_xyz
  1  'x, y, z'
loop_
 _atom_site_type_symbol
 _atom_site_label
 _atom_site_symmetry_multiplicity
 _atom_site_fract_x
 _atom_site_fract_y
 _atom_site_fract_z
 _atom_site_occupancy
  Hf  Hf0  1  0.64249300  0.49873600  0.87566500  1
  Hf  Hf1  1  0.35750700  0.50126400  0.37566500  1
  Hf  Hf2  1  0.99873600  0.85750700  0.62566500  1
  Hf  Hf3  1  0.00126400  0.14249300  0.12566500  1
  Hf  Hf4  1  0.50126400  0.35750700  0.62433500  1
  Hf  Hf5  1  0.49873600  0.64249300  0.12433500  1
  Hf  Hf6  1  0.85750700  0.99873600  0.37433500  1
  Hf  Hf7  1  0.14249300  0.00126400  0.87433500  1
  Sc  Sc0  1  0.82318800  0.17681200  0.75000000  1
  Sc  Sc1  1  0.17681200  0.82318800  0.25000000  1
  Sc  Sc2  1  0.67681200  0.67681200  0.50000000  1
  Sc  Sc3  1  0.32318800  0.32318800  0.00000000  1
  Sc  Sc4  1  0.84612500  0.49624900  0.28481900  1
  Sc  Sc5  1  0.15387500  0.50375100  0.78481900  1
  Sc  Sc6  1  0.99624900  0.65387500  0.03481900  1
  Sc  Sc7  1  0.00375100  0.34612500  0.53481900  1
  Sc  Sc8  1  0.50375100  0.15387500  0.21518100  1
  Sc  Sc9  1  0.49624900  0.84612500  0.71518100  1
  Sc  Sc10  1  0.65387500  0.99624900  0.96518100  1
  Sc  Sc11  1  0.34612500  0.00375100  0.46518100  1
  Si  Si0  1  0.70881700  0.35589000  0.07372900  1
  Si  Si1  1  0.29118300  0.64411000  0.57372900  1
  Si  Si2  1  0.85589000  0.79118300  0.82372900  1
  Si  Si3  1  0.14411000  0.20881700  0.32372900  1
  Si  Si4  1  0.64411000  0.29118300  0.42627100  1
  Si  Si5  1  0.35589000  0.70881700  0.92627100  1
  Si  Si6  1  0.79118300  0.85589000  0.17627100  1
  Si  Si7  1  0.20881700  0.14411000  0.67627100  1
  Si  Si8  1  0.80049300  0.55188700  0.68642200  1
  Si  Si9  1  0.19950700  0.44811300  0.18642200  1
  Si  Si10  1  0.05188700  0.69950700  0.43642200  1
  Si  Si11  1  0.94811300  0.30049300  0.93642200  1
  Si  Si12  1  0.44811300  0.19950700  0.81357800  1
  Si  Si13  1  0.55188700  0.80049300  0.31357800  1
  Si  Si14  1  0.69950700  0.05188700  0.56357800  1
  Si  Si15  1  0.30049300  0.94811300  0.06357800  1
loop_
_geom_bond_atom_site_label_1
_geom_bond_atom_site_label_2
_geom_bond_distance
_geom_bond_site_symmetry_2
Hf0 Si5 2.631578 1_555
Hf0 Si2 2.682244 1_555
Hf0 Si12 2.682815 1_555
Hf0 Si11 2.728854 1_555
Hf0 Si8 2.734364 1_555
Hf0 Si0 2.810731 1_556
Hf1 Si4 2.631578 1_555
Hf1 Si3 2.682244 1_555
Hf1 Si13 2.682815 1_555
Hf1 Si10 2.728854 1_555
Hf1 Si9 2.734364 1_555
Hf1 Si1 2.810731 1_555
Hf2 Si7 2.631578 1_665
Hf2 Si1 2.682244 1_655
Hf2 Si14 2.682815 1_565
Hf2 Si8 2.728854 1_555
Hf2 Si10 2.734364 1_655
Hf2 Si2 2.810731 1_555
Hf3 Si6 2.631578 1_445
Hf3 Si0 2.682244 1_455
Hf3 Si15 2.682815 1_545
Hf3 Si9 2.728854 1_555
Hf3 Si11 2.734364 1_454
Hf3 Si3 2.810731 1_555
Hf4 Si1 2.631578 1_555
Hf4 Si7 2.682244 1_555
Hf4 Si8 2.682815 1_555
Hf4 Si14 2.728854 1_555
Hf4 Si12 2.734364 1_555
Hf4 Si4 2.810731 1_555
Hf5 Si0 2.631578 1_555
Hf5 Si6 2.682244 1_555
Hf5 Si9 2.682815 1_555
Hf5 Si15 2.728854 1_555
Hf5 Si13 2.734364 1_555
Hf5 Si5 2.810731 1_554
Hf6 Si3 2.631578 1_665
Hf6 Si4 2.682244 1_565
Hf6 Si10 2.682815 1_655
Hf6 Si13 2.728854 1_555
Hf6 Si14 2.734364 1_565
Hf6 Si6 2.810731 1_555
Hf7 Si2 2.631578 1_445
Hf7 Si5 2.682244 1_545
Hf7 Si11 2.682815 1_455
Hf7 Si12 2.728854 1_555
Hf7 Si15 2.734364 1_546
Hf7 Si7 2.810731 1_555
Sc0 Si14 2.730917 1_555
Sc0 Si11 2.730917 1_555
Sc0 Si12 2.818251 1_555
Sc0 Si8 2.818251 1_555
Sc0 Si2 2.935851 1_545
Sc0 Si7 2.935851 1_655
Sc1 Si10 2.730917 1_555
Sc1 Si15 2.730917 1_555
Sc1 Si9 2.818251 1_555
Sc1 Si13 2.818251 1_555
Sc1 Si6 2.935851 1_455
Sc1 Si3 2.935851 1_565
Sc2 Si8 2.730917 1_555
Sc2 Si13 2.730917 1_555
Sc2 Si14 2.818251 1_565
Sc2 Si10 2.818251 1_655
Sc2 Si1 2.935851 1_555
Sc2 Si4 2.935851 1_555
Sc3 Si9 2.730917 1_555
Sc3 Si12 2.730917 1_554
Sc3 Si15 2.818251 1_545
Sc3 Si11 2.818251 1_454
Sc3 Si0 2.935851 1_555
Sc3 Si5 2.935851 1_554
Sc4 Si4 2.763965 1_555
Sc4 Si9 2.859213 1_655
Sc4 Si10 2.860503 1_655
Sc4 Si6 2.965703 1_555
Sc4 Si3 3.011512 1_655
Sc4 Si13 3.057870 1_555
Sc4 Si0 3.083383 1_555
Sc5 Si5 2.763965 1_555
Sc5 Si8 2.859213 1_455
Sc5 Si11 2.860503 1_455
Sc5 Si7 2.965703 1_555
Sc5 Si2 3.011512 1_455
Sc5 Si12 3.057870 1_555
Sc5 Si1 3.083383 1_555
Sc6 Si6 2.763965 1_555
Sc6 Si11 2.859213 1_554
Sc6 Si9 2.860503 1_655
Sc6 Si5 2.965703 1_654
Sc6 Si0 3.011512 1_555
Sc6 Si15 3.057870 1_655
Sc6 Si2 3.083383 1_554
Sc7 Si7 2.763965 1_555
Sc7 Si10 2.859213 1_555
Sc7 Si8 2.860503 1_455
Sc7 Si4 2.965703 1_455
Sc7 Si1 3.011512 1_555
Sc7 Si14 3.057870 1_455
Sc7 Si3 3.083383 1_555
Sc8 Si0 2.763965 1_555
Sc8 Si13 2.859213 1_545
Sc8 Si15 2.860503 1_545
Sc8 Si3 2.965703 1_555
Sc8 Si6 3.011512 1_545
Sc8 Si9 3.057870 1_555
Sc8 Si4 3.083383 1_555
Sc9 Si1 2.763965 1_555
Sc9 Si12 2.859213 1_565
Sc9 Si14 2.860503 1_565
Sc9 Si2 2.965703 1_555
Sc9 Si7 3.011512 1_565
Sc9 Si8 3.057870 1_555
Sc9 Si5 3.083383 1_555
Sc10 Si2 2.763965 1_555
Sc10 Si15 2.859213 1_556
Sc10 Si12 2.860503 1_565
Sc10 Si0 2.965703 1_566
Sc10 Si5 3.011512 1_555
Sc10 Si11 3.057870 1_565
Sc10 Si6 3.083383 1_556
Sc11 Si3 2.763965 1_555
Sc11 Si14 2.859213 1_555
Sc11 Si13 2.860503 1_545
Sc11 Si1 2.965703 1_545
Sc11 Si4 3.011512 1_555
Sc11 Si10 3.057870 1_545
Sc11 Si7 3.083383 1_555
Si0 Si11 2.507172 1_554
Si1 Si10 2.507172 1_555
Si2 Si8 2.507172 1_555
Si3 Si9 2.507172 1_555
Si12 Si7 2.507172 1_555
Si13 Si6 2.507172 1_555
Si14 Si4 2.507172 1_555
Si15 Si5 2.507172 1_554
