# generated using pymatgen
data_LaNiO3
_symmetry_space_group_name_H-M   'P 1'
_cell_length_a   5.46805051
_cell_length_b   6.68717635
_cell_length_c   6.68676537
_cell_angle_alpha   70.42143197
_cell_angle_beta   90.01808041
_cell_angle_gamma   90.02295612
_symmetry_Int_Tables_number   1
_chemical_formula_structural   LaNiO3
_chemical_formula_sum   'La4 Ni4 O12'
_cell_volume   230.37032604
_cell_formula_units_Z   4
loop_
 _symmetry_equiv_pos_site_id
 _symmetry_equiv_pos_as_xyz
  1  'x, y, z'
loop_
 _atom_site_type_symbol
 _atom_site_label
 _atom_site_symmetry_multiplicity
 _atom_site_fract_x
 _atom_site_fract_y
 _atom_site_fract_z
 _atom_site_occupancy
  La  La0  1  0.50013400  0.74673900  0.25308700  1
  La  La1  1  0.99984300  0.00034400  0.50028200  1
  La  La2  1  0.50007400  0.25314500  0.74659000  1
  La  La3  1  0.99984700  0.50030800  0.00014800  1
  Ni  Ni0  1  0.99998800  0.50018600  0.50006100  1
  Ni  Ni1  1  0.49991400  0.75066100  0.75062100  1
  Ni  Ni2  1  0.99997900  0.99986500  0.00001900  1
  Ni  Ni3  1  0.50020500  0.24948200  0.24934000  1
  O  O0  1  0.25782000  0.37113600  0.37151000  1
  O  O1  1  0.74198800  0.62843900  0.62885800  1
  O  O2  1  0.25464300  0.87412200  0.87387800  1
  O  O3  1  0.74543100  0.12605700  0.12579600  1
  O  O4  1  0.99985200  0.75887000  0.24038000  1
  O  O5  1  0.50008600  0.99991700  0.50003700  1
  O  O6  1  0.99998000  0.24042000  0.75891000  1
  O  O7  1  0.49995500  0.50045200  0.00042100  1
  O  O8  1  0.25603700  0.62954900  0.62984800  1
  O  O9  1  0.74702800  0.87332600  0.87307900  1
  O  O10  1  0.25293500  0.12677500  0.12662200  1
  O  O11  1  0.74426100  0.37020700  0.37051300  1
loop_
_geom_bond_atom_site_label_1
_geom_bond_atom_site_label_2
_geom_bond_distance
_geom_bond_site_symmetry_2
La0 O1 2.711995 1_555
La0 O0 2.712268 1_555
La0 O11 2.723140 1_555
La0 O8 2.724095 1_555
La0 O7 2.726140 1_555
La0 O5 2.732558 1_555
La0 O4 2.734157 1_555
La0 O4 2.737250 1_455
La0 O2 2.740142 1_554
La0 O3 2.740208 1_565
La0 O9 2.748747 1_554
La0 O10 2.749993 1_565
La1 O11 2.717922 1_555
La1 O8 2.724632 1_645
La1 O9 2.725577 1_545
La1 O6 2.725605 1_555
La1 O0 2.728835 1_655
La1 O10 2.731009 1_655
La1 O5 2.732697 1_545
La1 O1 2.734456 1_545
La1 O2 2.734946 1_645
La1 O5 2.735358 1_645
La1 O3 2.738685 1_555
La1 O4 2.740186 1_545
La2 O0 2.709274 1_555
La2 O1 2.709576 1_555
La2 O11 2.720567 1_555
La2 O8 2.722292 1_555
La2 O5 2.730678 1_545
La2 O6 2.735225 1_555
La2 O6 2.736236 1_455
La2 O7 2.738083 1_556
La2 O2 2.738946 1_545
La2 O3 2.739766 1_556
La2 O9 2.748142 1_545
La2 O10 2.749541 1_556
La3 O11 2.720394 1_555
La3 O8 2.721666 1_654
La3 O4 2.726083 1_555
La3 O9 2.727056 1_554
La3 O10 2.730578 1_655
La3 O1 2.731158 1_554
La3 O0 2.731940 1_655
La3 O7 2.733437 1_555
La3 O7 2.734616 1_655
La3 O2 2.736096 1_654
La3 O3 2.737401 1_555
La3 O6 2.738853 1_554
Ni0 O8 1.990777 1_655
Ni0 O11 1.991005 1_555
Ni0 O1 1.991054 1_555
Ni0 O0 1.992529 1_655
Ni0 O4 1.998620 1_555
Ni0 O6 1.999583 1_555
Ni1 O8 1.877027 1_555
Ni1 O1 1.878985 1_555
Ni1 O2 1.901903 1_555
Ni1 O9 1.902046 1_555
Ni1 O5 1.927200 1_555
Ni1 O7 1.927840 1_556
Ni2 O4 1.855924 1_555
Ni2 O6 1.857110 1_564
Ni2 O9 1.956866 1_554
Ni2 O10 1.957017 1_665
Ni2 O3 1.958095 1_565
Ni2 O2 1.958219 1_654
Ni3 O11 1.877772 1_555
Ni3 O0 1.879560 1_555
Ni3 O3 1.902702 1_555
Ni3 O10 1.903813 1_555
Ni3 O7 1.927410 1_555
Ni3 O5 1.928824 1_545
