# generated using pymatgen
data_LiHPd
_symmetry_space_group_name_H-M   'P 1'
_cell_length_a   2.77946670
_cell_length_b   2.77946670
_cell_length_c   3.90431543
_cell_angle_alpha   90.00000000
_cell_angle_beta   90.00000000
_cell_angle_gamma   90.00000000
_symmetry_Int_Tables_number   1
_chemical_formula_structural   LiHPd
_chemical_formula_sum   'Li1 H1 Pd1'
_cell_volume   30.16253561
_cell_formula_units_Z   1
loop_
 _symmetry_equiv_pos_site_id
 _symmetry_equiv_pos_as_xyz
  1  'x, y, z'
loop_
 _atom_site_type_symbol
 _atom_site_label
 _atom_site_symmetry_multiplicity
 _atom_site_fract_x
 _atom_site_fract_y
 _atom_site_fract_z
 _atom_site_occupancy
  Li  Li0  1  0.50000000  0.50000000  0.50000000  1
  H  H0  1  0.50000000  0.50000000  -0.00000000  1
  Pd  Pd0  1  -0.00000000  -0.00000000  -0.00000000  1
loop_
_geom_bond_atom_site_label_1
_geom_bond_atom_site_label_2
_geom_bond_distance
_geom_bond_site_symmetry_2
Li0 Pd0 2.770133 1_665
Li0 Pd0 2.770133 1_566
Li0 Pd0 2.770133 1_666
Li0 Pd0 2.770133 1_556
Li0 Pd0 2.770133 1_555
Li0 Pd0 2.770133 1_565
Li0 Pd0 2.770133 1_655
Li0 Pd0 2.770133 1_656
H0 Li0 1.952158 1_555
H0 Li0 1.952158 1_554
H0 Pd0 1.965380 1_655
H0 Pd0 1.965380 1_555
H0 Pd0 1.965380 1_565
H0 Pd0 1.965380 1_665
