# generated using pymatgen
data_Sm(Ga2Cu)4
_symmetry_space_group_name_H-M   'P 1'
_cell_length_a   9.01410259
_cell_length_b   9.01410259
_cell_length_c   8.97117000
_cell_angle_alpha   90.00000000
_cell_angle_beta   90.00000000
_cell_angle_gamma   120.00000429
_symmetry_Int_Tables_number   1
_chemical_formula_structural   Sm(Ga2Cu)4
_chemical_formula_sum   'Sm3 Ga24 Cu12'
_cell_volume   631.28386871
_cell_formula_units_Z   3
loop_
 _symmetry_equiv_pos_site_id
 _symmetry_equiv_pos_as_xyz
  1  'x, y, z'
loop_
 _atom_site_type_symbol
 _atom_site_label
 _atom_site_symmetry_multiplicity
 _atom_site_fract_x
 _atom_site_fract_y
 _atom_site_fract_z
 _atom_site_occupancy
  Sm  Sm0  1  0.00000000  0.00000000  0.00000000  1
  Sm  Sm1  1  0.33333300  0.66666700  0.50000000  1
  Sm  Sm2  1  0.66666700  0.33333300  0.50000000  1
  Ga  Ga0  1  0.50000000  0.00000000  0.27446800  1
  Ga  Ga1  1  0.50000000  0.00000000  0.72553200  1
  Ga  Ga2  1  0.00000000  0.50000000  0.27446800  1
  Ga  Ga3  1  0.00000000  0.50000000  0.72553200  1
  Ga  Ga4  1  0.50000000  0.50000000  0.27446800  1
  Ga  Ga5  1  0.50000000  0.50000000  0.72553200  1
  Ga  Ga6  1  0.33333300  0.66666700  0.14582300  1
  Ga  Ga7  1  0.66666700  0.33333300  0.85417700  1
  Ga  Ga8  1  0.66666700  0.33333300  0.14582300  1
  Ga  Ga9  1  0.33333300  0.66666700  0.85417700  1
  Ga  Ga10  1  0.00000000  0.00000000  0.34759800  1
  Ga  Ga11  1  0.00000000  0.00000000  0.65240200  1
  Ga  Ga12  1  0.34635900  0.00000000  0.00000000  1
  Ga  Ga13  1  0.65364100  0.00000000  0.00000000  1
  Ga  Ga14  1  0.00000000  0.34635900  0.00000000  1
  Ga  Ga15  1  0.00000000  0.65364100  0.00000000  1
  Ga  Ga16  1  0.65364100  0.65364100  0.00000000  1
  Ga  Ga17  1  0.34635900  0.34635900  0.00000000  1
  Ga  Ga18  1  0.29712000  0.00000000  0.50000000  1
  Ga  Ga19  1  0.70288000  0.00000000  0.50000000  1
  Ga  Ga20  1  0.00000000  0.29712000  0.50000000  1
  Ga  Ga21  1  0.00000000  0.70288000  0.50000000  1
  Ga  Ga22  1  0.70288000  0.70288000  0.50000000  1
  Ga  Ga23  1  0.29712000  0.29712000  0.50000000  1
  Cu  Cu0  1  0.16697400  0.33394700  0.24072000  1
  Cu  Cu1  1  0.83302600  0.66605300  0.75928000  1
  Cu  Cu2  1  0.66605300  0.83302600  0.24072000  1
  Cu  Cu3  1  0.83302600  0.66605300  0.24072000  1
  Cu  Cu4  1  0.33394700  0.16697400  0.75928000  1
  Cu  Cu5  1  0.16697400  0.33394700  0.75928000  1
  Cu  Cu6  1  0.16697400  0.83302600  0.24072000  1
  Cu  Cu7  1  0.33394700  0.16697400  0.24072000  1
  Cu  Cu8  1  0.83302600  0.16697400  0.75928000  1
  Cu  Cu9  1  0.66605300  0.83302600  0.75928000  1
  Cu  Cu10  1  0.83302600  0.16697400  0.24072000  1
  Cu  Cu11  1  0.16697400  0.83302600  0.75928000  1
loop_
_geom_bond_atom_site_label_1
_geom_bond_atom_site_label_2
_geom_bond_distance
_geom_bond_site_symmetry_2
Ga0 Ga19 2.727293 1_555
Ga0 Ga18 2.727293 1_555
Ga0 Ga12 2.825060 1_555
Ga0 Ga13 2.825060 1_555
Ga0 Ga8 2.846593 1_555
Ga0 Ga6 2.846593 1_545
Ga0 Sm2 3.296186 1_555
Ga0 Sm1 3.296186 1_545
Ga1 Ga19 2.727293 1_555
Ga1 Ga18 2.727293 1_555
Ga1 Ga12 2.825060 1_556
Ga1 Ga13 2.825060 1_556
Ga1 Ga7 2.846593 1_555
Ga1 Ga9 2.846593 1_545
Ga1 Sm2 3.296186 1_555
Ga1 Sm1 3.296186 1_545
Ga2 Ga21 2.727293 1_555
Ga2 Ga20 2.727293 1_555
Ga2 Ga6 2.846593 1_555
Ga2 Ga8 2.846593 1_455
Ga2 Sm2 3.296186 1_455
Ga2 Sm1 3.296186 1_555
Ga3 Ga7 2.846593 1_455
Ga3 Ga9 2.846593 1_555
Ga3 Sm2 3.296186 1_455
Ga3 Sm1 3.296186 1_555
Ga4 Ga8 2.846601 1_555
Ga4 Ga6 2.846601 1_555
Ga4 Sm2 3.296192 1_555
Ga4 Sm1 3.296192 1_555
Ga5 Ga7 2.846601 1_555
Ga5 Ga9 2.846601 1_555
Ga5 Sm2 3.296192 1_555
Ga5 Sm1 3.296192 1_555
Ga6 Ga9 2.616406 1_554
Ga6 Sm1 3.177382 1_555
Ga7 Ga8 2.616406 1_556
Ga7 Sm2 3.177382 1_555
Ga8 Sm2 3.177382 1_555
Ga9 Sm1 3.177382 1_555
Ga10 Ga11 2.734449 1_555
Ga10 Ga23 3.007064 1_555
Ga10 Ga22 3.007064 1_445
Ga10 Ga18 3.007064 1_555
Ga10 Ga20 3.007064 1_555
Ga10 Ga19 3.007064 1_455
Ga10 Ga21 3.007064 1_545
Ga10 Sm0 3.118361 1_555
Ga11 Ga23 3.007064 1_555
Ga11 Ga22 3.007064 1_445
Ga11 Ga20 3.007064 1_555
Ga11 Ga19 3.007064 1_455
Ga11 Ga21 3.007064 1_545
Ga11 Ga18 3.007064 1_555
Ga11 Sm0 3.118361 1_556
Ga12 Ga13 2.769871 1_555
Ga12 Sm0 3.122116 1_555
Ga13 Sm0 3.122116 1_655
Ga14 Ga15 2.769871 1_555
Ga14 Ga2 2.825060 1_555
Ga14 Ga3 2.825060 1_554
Ga14 Sm0 3.122116 1_555
Ga15 Ga2 2.825060 1_555
Ga15 Ga3 2.825060 1_554
Ga15 Sm0 3.122116 1_565
Ga16 Ga17 2.769871 1_555
Ga16 Ga4 2.825060 1_555
Ga16 Ga5 2.825060 1_554
Ga16 Sm0 3.122115 1_665
Ga17 Ga4 2.825060 1_555
Ga17 Ga5 2.825060 1_554
Ga17 Sm0 3.122115 1_555
Ga18 Ga21 2.678270 1_545
Ga18 Ga23 2.678270 1_555
Ga18 Sm1 3.180500 1_545
Ga18 Sm2 3.180505 1_555
Ga19 Ga20 2.678270 1_655
Ga19 Ga22 2.678270 1_545
Ga19 Sm2 3.180500 1_555
Ga19 Sm1 3.180505 1_545
Ga20 Ga23 2.678270 1_555
Ga20 Ga3 2.727293 1_555
Ga20 Sm2 3.180500 1_455
Ga20 Sm1 3.180505 1_555
Ga21 Ga22 2.678270 1_455
Ga21 Ga3 2.727293 1_555
Ga21 Sm1 3.180500 1_555
Ga21 Sm2 3.180505 1_455
Ga22 Ga5 2.727293 1_555
Ga22 Ga4 2.727293 1_555
Ga22 Sm2 3.180509 1_555
Ga22 Sm1 3.180509 1_555
Ga23 Ga5 2.727293 1_555
Ga23 Ga4 2.727293 1_555
Ga23 Sm2 3.180509 1_555
Ga23 Sm1 3.180509 1_555
Cu0 Cu7 2.606930 1_555
Cu0 Cu10 2.606946 1_455
Cu0 Ga4 2.617321 1_555
Cu0 Ga2 2.617329 1_555
Cu0 Ga17 2.666437 1_555
Cu0 Ga14 2.666443 1_555
Cu0 Ga23 2.699334 1_555
Cu0 Ga20 2.699339 1_555
Cu0 Ga6 2.733322 1_555
Cu0 Ga10 2.777672 1_555
Cu0 Sm0 3.385223 1_555
Cu0 Sm1 3.486655 1_555
Cu1 Cu9 2.606930 1_555
Cu1 Cu11 2.606946 1_655
Cu1 Ga5 2.617321 1_555
Cu1 Ga3 2.617329 1_655
Cu1 Ga16 2.666437 1_556
Cu1 Ga15 2.666443 1_656
Cu1 Ga22 2.699334 1_555
Cu1 Ga21 2.699339 1_655
Cu1 Ga7 2.733322 1_555
Cu1 Ga11 2.777672 1_665
Cu1 Sm0 3.385223 1_666
Cu1 Sm2 3.486655 1_555
Cu2 Cu3 2.606930 1_555
Cu2 Ga4 2.617321 1_555
Cu2 Ga0 2.617329 1_565
Cu2 Ga16 2.666437 1_555
Cu2 Ga13 2.666443 1_565
Cu2 Ga22 2.699334 1_555
Cu2 Ga19 2.699339 1_565
Cu2 Ga6 2.733322 1_555
Cu2 Ga10 2.777672 1_665
Cu2 Sm0 3.385223 1_665
Cu2 Sm1 3.486655 1_555
Cu3 Cu6 2.606946 1_655
Cu3 Ga4 2.617321 1_555
Cu3 Ga2 2.617329 1_655
Cu3 Ga16 2.666437 1_555
Cu3 Ga15 2.666443 1_655
Cu3 Ga22 2.699334 1_555
Cu3 Ga21 2.699339 1_655
Cu3 Ga8 2.733322 1_555
Cu3 Ga10 2.777672 1_665
Cu3 Sm0 3.385223 1_665
Cu3 Sm2 3.486655 1_555
Cu4 Cu5 2.606930 1_555
Cu4 Ga5 2.617321 1_555
Cu4 Ga1 2.617329 1_555
Cu4 Ga17 2.666437 1_556
Cu4 Ga12 2.666443 1_556
Cu4 Ga23 2.699334 1_555
Cu4 Ga18 2.699339 1_555
Cu4 Ga7 2.733322 1_555
Cu4 Ga11 2.777672 1_555
Cu4 Sm0 3.385223 1_556
Cu4 Sm2 3.486655 1_555
Cu5 Cu8 2.606946 1_455
Cu5 Ga5 2.617321 1_555
Cu5 Ga3 2.617329 1_555
Cu5 Ga17 2.666437 1_556
Cu5 Ga14 2.666443 1_556
Cu5 Ga23 2.699334 1_555
Cu5 Ga20 2.699339 1_555
Cu5 Ga9 2.733322 1_555
Cu5 Ga11 2.777672 1_555
Cu5 Sm0 3.385223 1_556
Cu5 Sm1 3.486655 1_555
Cu6 Cu7 2.606946 1_565
Cu6 Ga0 2.617321 1_565
Cu6 Ga2 2.617321 1_555
Cu6 Ga12 2.666440 1_565
Cu6 Ga15 2.666440 1_555
Cu6 Ga18 2.699337 1_565
Cu6 Ga21 2.699337 1_555
Cu6 Ga6 2.733307 1_555
Cu6 Ga10 2.777679 1_565
Cu6 Sm0 3.385230 1_565
Cu6 Sm1 3.486643 1_555
Cu7 Ga4 2.617321 1_555
Cu7 Ga0 2.617329 1_555
Cu7 Ga17 2.666437 1_555
Cu7 Ga12 2.666443 1_555
Cu7 Ga23 2.699334 1_555
Cu7 Ga18 2.699339 1_555
Cu7 Ga8 2.733322 1_555
Cu7 Ga10 2.777672 1_555
Cu7 Sm0 3.385223 1_555
Cu7 Sm2 3.486655 1_555
Cu8 Cu9 2.606946 1_545
Cu8 Ga3 2.617321 1_655
Cu8 Ga1 2.617321 1_555
Cu8 Ga14 2.666440 1_656
Cu8 Ga13 2.666440 1_556
Cu8 Ga20 2.699337 1_655
Cu8 Ga19 2.699337 1_555
Cu8 Ga7 2.733307 1_555
Cu8 Ga11 2.777679 1_655
Cu8 Sm0 3.385230 1_656
Cu8 Sm2 3.486643 1_555
Cu9 Ga5 2.617321 1_555
Cu9 Ga1 2.617329 1_565
Cu9 Ga16 2.666437 1_556
Cu9 Ga13 2.666443 1_566
Cu9 Ga22 2.699334 1_555
Cu9 Ga19 2.699339 1_565
Cu9 Ga9 2.733322 1_555
Cu9 Ga11 2.777672 1_665
Cu9 Sm0 3.385223 1_666
Cu9 Sm1 3.486655 1_555
Cu10 Cu2 2.606946 1_545
Cu10 Ga2 2.617321 1_655
Cu10 Ga0 2.617321 1_555
Cu10 Ga14 2.666440 1_655
Cu10 Ga13 2.666440 1_555
Cu10 Ga20 2.699337 1_655
Cu10 Ga19 2.699337 1_555
Cu10 Ga8 2.733307 1_555
Cu10 Ga10 2.777679 1_655
Cu10 Sm0 3.385230 1_655
Cu10 Sm2 3.486643 1_555
Cu11 Cu4 2.606946 1_565
Cu11 Ga1 2.617321 1_565
Cu11 Ga3 2.617321 1_555
Cu11 Ga12 2.666440 1_566
Cu11 Ga15 2.666440 1_556
Cu11 Ga18 2.699337 1_565
Cu11 Ga21 2.699337 1_555
Cu11 Ga9 2.733307 1_555
Cu11 Ga11 2.777679 1_565
Cu11 Sm0 3.385230 1_566
Cu11 Sm1 3.486643 1_555
