# generated using pymatgen
data_Mg6GaNi
_symmetry_space_group_name_H-M   'P 1'
_cell_length_a   4.80552700
_cell_length_b   6.21064300
_cell_length_c   10.38167100
_cell_angle_alpha   90.00000000
_cell_angle_beta   90.00000000
_cell_angle_gamma   90.00000000
_symmetry_Int_Tables_number   1
_chemical_formula_structural   Mg6GaNi
_chemical_formula_sum   'Mg12 Ga2 Ni2'
_cell_volume   309.84525472
_cell_formula_units_Z   2
loop_
 _symmetry_equiv_pos_site_id
 _symmetry_equiv_pos_as_xyz
  1  'x, y, z'
loop_
 _atom_site_type_symbol
 _atom_site_label
 _atom_site_symmetry_multiplicity
 _atom_site_fract_x
 _atom_site_fract_y
 _atom_site_fract_z
 _atom_site_occupancy
  Mg  Mg0  1  0.50000000  0.25085700  0.08460000  1
  Mg  Mg1  1  0.50000000  0.74914300  0.08460000  1
  Mg  Mg2  1  0.00000000  0.24137300  0.91171500  1
  Mg  Mg3  1  0.00000000  0.75862700  0.91171500  1
  Mg  Mg4  1  0.00000000  0.50000000  0.17371400  1
  Mg  Mg5  1  0.00000000  0.50000000  0.66856700  1
  Mg  Mg6  1  0.50000000  0.75085700  0.58460000  1
  Mg  Mg7  1  0.50000000  0.24914300  0.58460000  1
  Mg  Mg8  1  0.00000000  0.74137300  0.41171500  1
  Mg  Mg9  1  0.00000000  0.25862700  0.41171500  1
  Mg  Mg10  1  0.00000000  0.00000000  0.67371400  1
  Mg  Mg11  1  0.00000000  0.00000000  0.16856700  1
  Ga  Ga0  1  0.50000000  0.50000000  0.83211000  1
  Ga  Ga1  1  0.50000000  0.00000000  0.33211000  1
  Ni  Ni0  1  0.50000000  0.50000000  0.33298500  1
  Ni  Ni1  1  0.50000000  0.00000000  0.83298500  1
loop_
_geom_bond_atom_site_label_1
_geom_bond_atom_site_label_2
_geom_bond_distance
_geom_bond_site_symmetry_2
Mg0 Mg11 2.993405 1_555
Mg0 Mg11 2.993405 1_655
Mg0 Mg2 2.999696 1_654
Mg0 Mg2 2.999696 1_554
Mg0 Mg4 3.003903 1_655
Mg0 Mg4 3.003903 1_555
Mg0 Ni0 3.007274 1_555
Mg0 Ni1 3.041516 1_554
Mg0 Mg1 3.094676 1_555
Mg0 Mg1 3.115967 1_545
Mg1 Mg11 2.993405 1_665
Mg1 Mg11 2.993405 1_565
Mg1 Mg3 2.999696 1_554
Mg1 Mg3 2.999696 1_654
Mg1 Mg4 3.003903 1_655
Mg1 Mg4 3.003903 1_555
Mg1 Ni0 3.007274 1_555
Mg1 Ni1 3.041516 1_564
Mg2 Ni1 2.947639 1_455
Mg2 Ni1 2.947639 1_555
Mg2 Mg5 2.991991 1_555
Mg2 Mg3 2.998163 1_545
Mg2 Mg4 3.158851 1_556
Mg2 Mg3 3.212480 1_555
Mg3 Ni1 2.947639 1_465
Mg3 Ni1 2.947639 1_565
Mg3 Mg5 2.991991 1_555
Mg3 Mg4 3.158851 1_556
Mg4 Mg8 2.890041 1_555
Mg4 Mg9 2.890041 1_555
Mg4 Ni0 2.916733 1_555
Mg4 Ni0 2.916733 1_455
Mg5 Mg6 2.993405 1_455
Mg5 Mg6 2.993405 1_555
Mg5 Mg7 2.993405 1_455
Mg5 Mg7 2.993405 1_555
Mg5 Mg8 3.059044 1_555
Mg5 Mg9 3.059044 1_555
Mg6 Mg8 2.999696 1_555
Mg6 Mg8 2.999696 1_655
Mg6 Ni1 3.007274 1_565
Mg6 Ni0 3.041516 1_555
Mg6 Mg7 3.094676 1_565
Mg6 Mg7 3.115967 1_555
Mg7 Mg9 2.999696 1_555
Mg7 Mg9 2.999696 1_655
Mg7 Ni1 3.007274 1_555
Mg7 Ni0 3.041516 1_555
Mg8 Ni0 2.947639 1_555
Mg8 Ni0 2.947639 1_455
Mg8 Mg9 2.998163 1_555
Mg8 Mg9 3.212480 1_565
Mg9 Ni0 2.947639 1_455
Mg9 Ni0 2.947639 1_555
Mg10 Mg2 2.890041 1_555
Mg10 Mg3 2.890041 1_545
Mg10 Ni1 2.916733 1_555
Mg10 Ni1 2.916733 1_455
Mg10 Mg7 3.003903 1_555
Mg10 Mg7 3.003903 1_455
Mg10 Mg6 3.003903 1_545
Mg10 Mg6 3.003903 1_445
Mg10 Mg5 3.105781 1_545
Mg10 Mg5 3.105781 1_555
Mg10 Mg8 3.158851 1_545
Mg10 Mg9 3.158851 1_555
Mg11 Mg9 2.991991 1_555
Mg11 Mg8 2.991991 1_545
Mg11 Mg2 3.059044 1_554
Mg11 Mg3 3.059044 1_544
Mg11 Mg4 3.105781 1_555
Mg11 Mg4 3.105781 1_545
Ga0 Mg5 2.942102 1_655
Ga0 Mg5 2.942102 1_555
Ga0 Mg6 3.004994 1_555
Ga0 Mg7 3.004994 1_555
Ga0 Mg3 3.006039 1_655
Ga0 Mg3 3.006039 1_555
Ga0 Mg2 3.006039 1_555
Ga0 Mg2 3.006039 1_655
Ga0 Mg0 3.043896 1_556
Ga0 Mg1 3.043896 1_556
Ga0 Ni1 3.105335 1_565
Ga0 Ni1 3.105335 1_555
Ga1 Mg11 2.942102 1_555
Ga1 Mg11 2.942102 1_655
Ga1 Mg0 3.004994 1_555
Ga1 Mg1 3.004994 1_545
Ga1 Mg9 3.006039 1_555
Ga1 Mg9 3.006039 1_655
Ga1 Mg8 3.006039 1_645
Ga1 Mg8 3.006039 1_545
Ga1 Mg7 3.043896 1_555
Ga1 Mg6 3.043896 1_545
Ga1 Ni0 3.105335 1_545
Ga1 Ni0 3.105335 1_555
