# generated using pymatgen
data_Pr2MgPtO6
_symmetry_space_group_name_H-M   'P 1'
_cell_length_a   5.77003600
_cell_length_b   5.54786500
_cell_length_c   9.66456040
_cell_angle_alpha   55.15793998
_cell_angle_beta   90.00000000
_cell_angle_gamma   90.00000000
_symmetry_Int_Tables_number   1
_chemical_formula_structural   Pr2MgPtO6
_chemical_formula_sum   'Pr4 Mg2 Pt2 O12'
_cell_volume   253.91411224
_cell_formula_units_Z   2
loop_
 _symmetry_equiv_pos_site_id
 _symmetry_equiv_pos_as_xyz
  1  'x, y, z'
loop_
 _atom_site_type_symbol
 _atom_site_label
 _atom_site_symmetry_multiplicity
 _atom_site_fract_x
 _atom_site_fract_y
 _atom_site_fract_z
 _atom_site_occupancy
  Pr  Pr0  1  0.44109400  0.23503500  0.74952500  1
  Pr  Pr1  1  0.55890600  0.76496500  0.25047500  1
  Pr  Pr2  1  0.94109400  0.76496500  0.75047500  1
  Pr  Pr3  1  0.05890600  0.23503500  0.24952500  1
  Mg  Mg0  1  0.00000000  0.50000000  0.50000000  1
  Mg  Mg1  1  0.50000000  0.50000000  0.00000000  1
  Pt  Pt0  1  0.00000000  0.00000000  0.00000000  1
  Pt  Pt1  1  0.50000000  0.00000000  0.50000000  1
  O  O0  1  0.02972400  0.34370200  0.75193900  1
  O  O1  1  0.97027600  0.65629800  0.24806100  1
  O  O2  1  0.52972400  0.65629800  0.74806100  1
  O  O3  1  0.47027600  0.34370200  0.25193900  1
  O  O4  1  0.70623100  0.85392200  0.94849600  1
  O  O5  1  0.29376900  0.14607800  0.05150400  1
  O  O6  1  0.20623100  0.14607800  0.55150400  1
  O  O7  1  0.79376900  0.85392200  0.44849600  1
  O  O8  1  0.20211900  0.75264800  0.95028600  1
  O  O9  1  0.79788100  0.24735200  0.04971400  1
  O  O10  1  0.70211900  0.24735200  0.54971400  1
  O  O11  1  0.29788100  0.75264800  0.45028600  1
loop_
_geom_bond_atom_site_label_1
_geom_bond_atom_site_label_2
_geom_bond_distance
_geom_bond_site_symmetry_2
Mg0 O1 2.073035 1_455
Mg0 O0 2.073035 1_555
Mg0 O11 2.092894 1_555
Mg0 O10 2.092894 1_455
Mg0 O6 2.098186 1_555
Mg0 O7 2.098186 1_455
Mg1 O2 2.073035 1_554
Mg1 O3 2.073035 1_555
Mg1 O9 2.092894 1_555
Mg1 O8 2.092894 1_554
Mg1 O5 2.098186 1_555
Mg1 O4 2.098186 1_554
O0 Pt0 2.046816 1_556
O0 Pr2 2.384540 1_455
O0 Pr0 2.452374 1_555
O1 Pt0 2.046816 1_665
O1 Pr3 2.384540 1_655
O1 Pr1 2.452374 1_555
O2 Pt1 2.046816 1_565
O2 Pr0 2.384540 1_555
O2 Pr2 2.452374 1_555
O3 Pt1 2.046816 1_555
O3 Pr1 2.384540 1_555
O3 Pr3 2.452374 1_555
O4 Pt0 2.058812 1_666
O4 Pr0 2.421364 1_565
O4 Pr2 2.611863 1_555
O4 Pr1 2.799645 1_556
O5 Pt0 2.058812 1_555
O5 Pr1 2.421364 1_545
O5 Pr3 2.611863 1_555
O5 Pr0 2.799645 1_554
O6 Pt1 2.058812 1_555
O6 Pr2 2.421364 1_445
O6 Pr0 2.611863 1_555
O6 Pr3 2.799645 1_555
O7 Pt1 2.058812 1_565
O7 Pr3 2.421364 1_665
O7 Pr1 2.611863 1_555
O7 Pr2 2.799645 1_555
O8 Pt0 2.056078 1_566
O8 Pr2 2.418965 1_455
O8 Pr0 2.625818 1_565
O8 Pr3 2.793486 1_556
O9 Pt0 2.056078 1_655
O9 Pr3 2.418965 1_655
O9 Pr1 2.625818 1_545
O9 Pr2 2.793486 1_554
O10 Pt1 2.056078 1_555
O10 Pr0 2.418965 1_555
O10 Pr2 2.625818 1_545
O10 Pr1 2.793486 1_555
O11 Pt1 2.056078 1_565
O11 Pr1 2.418965 1_555
O11 Pr3 2.625818 1_565
O11 Pr0 2.793486 1_555
