# generated using pymatgen
data_CuSiH18C7S3I
_symmetry_space_group_name_H-M   'P 1'
_cell_length_a   13.38048900
_cell_length_b   9.79123900
_cell_length_c   13.76759131
_cell_angle_alpha   78.43682130
_cell_angle_beta   90.00000000
_cell_angle_gamma   90.00000000
_symmetry_Int_Tables_number   1
_chemical_formula_structural   CuSiH18C7S3I
_chemical_formula_sum   'Cu4 Si4 H72 C28 S12 I4'
_cell_volume   1767.10600859
_cell_formula_units_Z   4
loop_
 _symmetry_equiv_pos_site_id
 _symmetry_equiv_pos_as_xyz
  1  'x, y, z'
loop_
 _atom_site_type_symbol
 _atom_site_label
 _atom_site_symmetry_multiplicity
 _atom_site_fract_x
 _atom_site_fract_y
 _atom_site_fract_z
 _atom_site_occupancy
  Cu  Cu0  1  0.01937900  0.55509200  0.09377900  1
  Cu  Cu1  1  0.51937900  0.44490800  0.40622100  1
  Cu  Cu2  1  0.98062100  0.44490800  0.90622100  1
  Cu  Cu3  1  0.48062100  0.55509200  0.59377900  1
  Si  Si0  1  0.13219100  0.81500900  0.23242900  1
  Si  Si1  1  0.63219100  0.18499100  0.26757100  1
  Si  Si2  1  0.86780900  0.18499100  0.76757100  1
  Si  Si3  1  0.36780900  0.81500900  0.73242900  1
  H  H0  1  0.16168900  0.05686200  0.25540800  1
  H  H1  1  0.66168900  0.94313800  0.24459200  1
  H  H2  1  0.83831100  0.94313800  0.74459200  1
  H  H3  1  0.33831100  0.05686200  0.75540800  1
  H  H4  1  0.22623200  0.02591600  0.14892700  1
  H  H5  1  0.72623200  0.97408400  0.35107300  1
  H  H6  1  0.77376800  0.97408400  0.85107300  1
  H  H7  1  0.27376800  0.02591600  0.64892700  1
  H  H8  1  0.22019200  0.34281000  0.10408700  1
  H  H9  1  0.72019200  0.65719000  0.39591300  1
  H  H10  1  0.77980800  0.65719000  0.89591300  1
  H  H11  1  0.27980800  0.34281000  0.60408700  1
  H  H12  1  0.97787300  0.94670600  0.17690100  1
  H  H13  1  0.47787300  0.05329400  0.32309900  1
  H  H14  1  0.02212700  0.05329400  0.82309900  1
  H  H15  1  0.52212700  0.94670600  0.67690100  1
  H  H16  1  0.86483100  0.84367900  0.00406600  1
  H  H17  1  0.36483100  0.15632100  0.49593400  1
  H  H18  1  0.13516900  0.15632100  0.99593400  1
  H  H19  1  0.63516900  0.84367900  0.50406600  1
  H  H20  1  0.27504400  0.95784400  0.26851400  1
  H  H21  1  0.77504400  0.04215600  0.23148600  1
  H  H22  1  0.72495600  0.04215600  0.73148600  1
  H  H23  1  0.22495600  0.95784400  0.76851400  1
  H  H24  1  0.16290100  0.69709600  0.40617400  1
  H  H25  1  0.66290100  0.30290400  0.09382600  1
  H  H26  1  0.83709900  0.30290400  0.59382600  1
  H  H27  1  0.33709900  0.69709600  0.90617400  1
  H  H28  1  0.05347300  0.68942700  0.58344200  1
  H  H29  1  0.55347300  0.31057300  0.91655800  1
  H  H30  1  0.94652700  0.31057300  0.41655800  1
  H  H31  1  0.44652700  0.68942700  0.08344200  1
  H  H32  1  0.95231100  0.80770800  0.58374100  1
  H  H33  1  0.45231100  0.19229200  0.91625900  1
  H  H34  1  0.04768900  0.19229200  0.41625900  1
  H  H35  1  0.54768900  0.80770800  0.08374100  1
  H  H36  1  0.04913300  0.63897400  0.35937700  1
  H  H37  1  0.54913300  0.36102600  0.14062300  1
  H  H38  1  0.95086700  0.36102600  0.64062300  1
  H  H39  1  0.45086700  0.63897400  0.85937700  1
  H  H40  1  0.78381500  0.70824000  0.06647600  1
  H  H41  1  0.28381500  0.29176000  0.43352400  1
  H  H42  1  0.21618500  0.29176000  0.93352400  1
  H  H43  1  0.71618500  0.70824000  0.56647600  1
  H  H44  1  0.26522300  0.50878300  0.04019900  1
  H  H45  1  0.76522300  0.49121700  0.45980100  1
  H  H46  1  0.73477700  0.49121700  0.95980100  1
  H  H47  1  0.23477700  0.50878300  0.54019900  1
  H  H48  1  0.04070200  0.89452500  0.07524300  1
  H  H49  1  0.54070200  0.10547500  0.42475700  1
  H  H50  1  0.95929800  0.10547500  0.92475700  1
  H  H51  1  0.45929800  0.89452500  0.57524300  1
  H  H52  1  0.22329800  0.74138000  0.09747400  1
  H  H53  1  0.72329800  0.25862000  0.40252600  1
  H  H54  1  0.77670200  0.25862000  0.90252600  1
  H  H55  1  0.27670200  0.74138000  0.59747400  1
  H  H56  1  0.93476700  0.65577300  0.53223600  1
  H  H57  1  0.43476700  0.34422700  0.96776400  1
  H  H58  1  0.06523300  0.34422700  0.46776400  1
  H  H59  1  0.56523300  0.65577300  0.03223600  1
  H  H60  1  0.28826800  0.68508800  0.21278900  1
  H  H61  1  0.78826800  0.31491200  0.28721100  1
  H  H62  1  0.71173200  0.31491200  0.78721100  1
  H  H63  1  0.21173200  0.68508800  0.71278900  1
  H  H64  1  0.32470400  0.42018500  0.15377300  1
  H  H65  1  0.82470400  0.57981500  0.34622700  1
  H  H66  1  0.67529600  0.57981500  0.84622700  1
  H  H67  1  0.17529600  0.42018500  0.65377300  1
  H  H68  1  0.79083900  0.86997600  0.10834400  1
  H  H69  1  0.29083900  0.13002400  0.39165600  1
  H  H70  1  0.20916100  0.13002400  0.89165600  1
  H  H71  1  0.70916100  0.86997600  0.60834400  1
  C  C0  1  0.20552000  0.97964500  0.22564800  1
  C  C1  1  0.70552000  0.02035500  0.27435200  1
  C  C2  1  0.79448000  0.02035500  0.77435200  1
  C  C3  1  0.29448000  0.97964500  0.72564800  1
  C  C4  1  0.01649500  0.85991100  0.15283300  1
  C  C5  1  0.51649500  0.14008900  0.34716700  1
  C  C6  1  0.98350500  0.14008900  0.84716700  1
  C  C7  1  0.48350500  0.85991100  0.65283300  1
  C  C8  1  0.09408800  0.73144500  0.36373500  1
  C  C9  1  0.59408800  0.26855500  0.13626500  1
  C  C10  1  0.90591200  0.26855500  0.63626500  1
  C  C11  1  0.40591200  0.73144500  0.86373500  1
  C  C12  1  0.83309300  0.79411400  0.07594600  1
  C  C13  1  0.33309300  0.20588600  0.42405400  1
  C  C14  1  0.16690700  0.20588600  0.92405400  1
  C  C15  1  0.66690700  0.79411400  0.57594600  1
  C  C16  1  0.98828500  0.73704800  0.54144300  1
  C  C17  1  0.48828500  0.26295200  0.95855700  1
  C  C18  1  0.01171500  0.26295200  0.45855700  1
  C  C19  1  0.51171500  0.73704800  0.04144300  1
  C  C20  1  0.21459300  0.69238900  0.17652600  1
  C  C21  1  0.71459300  0.30761100  0.32347400  1
  C  C22  1  0.78540700  0.30761100  0.82347400  1
  C  C23  1  0.28540700  0.69238900  0.67652600  1
  C  C24  1  0.25398500  0.44157800  0.11333200  1
  C  C25  1  0.75398500  0.55842200  0.38666800  1
  C  C26  1  0.74601500  0.55842200  0.88666800  1
  C  C27  1  0.24601500  0.44157800  0.61333200  1
  S  S0  1  0.93106200  0.71551300  0.15948000  1
  S  S1  1  0.43106200  0.28448700  0.34052000  1
  S  S2  1  0.06893800  0.28448700  0.84052000  1
  S  S3  1  0.56893800  0.71551300  0.65948000  1
  S  S4  1  0.16404600  0.51935800  0.18437400  1
  S  S5  1  0.66404600  0.48064200  0.31562600  1
  S  S6  1  0.83595400  0.48064200  0.81562600  1
  S  S7  1  0.33595400  0.51935800  0.68437400  1
  S  S8  1  0.02325100  0.84768700  0.42446000  1
  S  S9  1  0.52325100  0.15231300  0.07554000  1
  S  S10  1  0.97674900  0.15231300  0.57554000  1
  S  S11  1  0.47674900  0.84768700  0.92446000  1
  I  I0  1  0.93353300  0.31480700  0.09357800  1
  I  I1  1  0.43353300  0.68519300  0.40642200  1
  I  I2  1  0.06646700  0.68519300  0.90642200  1
  I  I3  1  0.56646700  0.31480700  0.59357800  1
loop_
_geom_bond_atom_site_label_1
_geom_bond_atom_site_label_2
_geom_bond_distance
_geom_bond_site_symmetry_2
Cu0 S4 2.291321 1_555
Cu0 S0 2.291599 1_455
Cu0 I0 2.618622 1_455
Cu0 I2 2.712190 1_554
Cu1 S5 2.291321 1_555
Cu1 S1 2.291599 1_555
Cu1 I1 2.618622 1_555
Cu1 I3 2.712190 1_555
Cu2 S6 2.291321 1_555
Cu2 S2 2.291599 1_655
Cu2 I2 2.618622 1_655
Cu2 I0 2.712190 1_556
Cu3 S7 2.291321 1_555
Cu3 S3 2.291599 1_555
Cu3 I3 2.618622 1_555
Cu3 I1 2.712190 1_555
C0 H4 1.098138 1_565
C0 H0 1.098922 1_565
C0 H20 1.099430 1_555
C0 Si0 1.873395 1_555
C1 H5 1.098138 1_545
C1 H1 1.098922 1_545
C1 H21 1.099430 1_555
C1 Si1 1.873395 1_555
C2 H6 1.098138 1_545
C2 H2 1.098922 1_545
C2 H22 1.099430 1_555
C2 Si2 1.873395 1_555
C3 H7 1.098138 1_565
C3 H3 1.098922 1_565
C3 H23 1.099430 1_555
C3 Si3 1.873395 1_555
C4 H12 1.100893 1_455
C4 H48 1.102608 1_555
C4 S0 1.806154 1_455
C4 Si0 1.896718 1_555
C5 H13 1.100893 1_555
C5 H49 1.102608 1_555
C5 S1 1.806154 1_555
C5 Si1 1.896718 1_555
C6 H14 1.100893 1_655
C6 H50 1.102608 1_555
C6 S2 1.806154 1_655
C6 Si2 1.896718 1_555
C7 H15 1.100893 1_555
C7 H51 1.102608 1_555
C7 S3 1.806154 1_555
C7 Si3 1.896718 1_555
C8 H36 1.098619 1_555
C8 H24 1.106120 1_555
C8 S8 1.809477 1_555
C8 Si0 1.898534 1_555
C9 H37 1.098619 1_555
C9 H25 1.106120 1_555
C9 S9 1.809477 1_555
C9 Si1 1.898534 1_555
C10 H38 1.098619 1_555
C10 H26 1.106120 1_555
C10 S10 1.809477 1_555
C10 Si2 1.898534 1_555
C11 H39 1.098619 1_555
C11 H27 1.106120 1_555
C11 S11 1.809477 1_555
C11 Si3 1.898534 1_555
C12 H16 1.096661 1_555
C12 H40 1.096665 1_555
C12 H68 1.096885 1_555
C12 S0 1.810659 1_555
C13 H17 1.096661 1_555
C13 H41 1.096665 1_555
C13 H69 1.096885 1_555
C13 S1 1.810659 1_555
C14 H18 1.096661 1_555
C14 H42 1.096665 1_555
C14 H70 1.096885 1_555
C14 S2 1.810659 1_555
C15 H19 1.096661 1_555
C15 H43 1.096665 1_555
C15 H71 1.096885 1_555
C15 S3 1.810659 1_555
C16 H56 1.096619 1_555
C16 H28 1.097488 1_655
C16 H32 1.100451 1_555
C16 S8 1.812985 1_655
C17 H57 1.096619 1_555
C17 H29 1.097488 1_555
C17 H33 1.100451 1_555
C17 S9 1.812985 1_556
C18 H58 1.096619 1_555
C18 H30 1.097488 1_455
C18 H34 1.100451 1_555
C18 S10 1.812985 1_455
C19 H59 1.096619 1_555
C19 H31 1.097488 1_555
C19 H35 1.100451 1_555
C19 S11 1.812985 1_554
C20 H60 1.100851 1_555
C20 H52 1.104032 1_555
C20 S4 1.807208 1_555
C20 Si0 1.902612 1_555
C21 H61 1.100851 1_555
C21 H53 1.104032 1_555
C21 S5 1.807208 1_555
C21 Si1 1.902612 1_555
C22 H62 1.100851 1_555
C22 H54 1.104032 1_555
C22 S6 1.807208 1_555
C22 Si2 1.902612 1_555
C23 H63 1.100851 1_555
C23 H55 1.104032 1_555
C23 S7 1.807208 1_555
C23 Si3 1.902612 1_555
C24 H64 1.096594 1_555
C24 H44 1.097165 1_555
C24 H8 1.097820 1_555
C24 S4 1.812034 1_555
C25 H65 1.096594 1_555
C25 H45 1.097165 1_555
C25 H9 1.097820 1_555
C25 S5 1.812034 1_555
C26 H66 1.096594 1_555
C26 H46 1.097165 1_555
C26 H10 1.097820 1_555
C26 S6 1.812034 1_555
C27 H67 1.096594 1_555
C27 H47 1.097165 1_555
C27 H11 1.097820 1_555
C27 S7 1.812034 1_555
