# generated using pymatgen
data_Li2VFe(P2O7)2
_symmetry_space_group_name_H-M   'P 1'
_cell_length_a   9.58643301
_cell_length_b   9.58688154
_cell_length_c   7.15268464
_cell_angle_alpha   79.29096550
_cell_angle_beta   79.30526818
_cell_angle_gamma   118.76781889
_symmetry_Int_Tables_number   1
_chemical_formula_structural   Li2VFe(P2O7)2
_chemical_formula_sum   'Li4 V2 Fe2 P8 O28'
_cell_volume   536.55565385
_cell_formula_units_Z   2
loop_
 _symmetry_equiv_pos_site_id
 _symmetry_equiv_pos_as_xyz
  1  'x, y, z'
loop_
 _atom_site_type_symbol
 _atom_site_label
 _atom_site_symmetry_multiplicity
 _atom_site_fract_x
 _atom_site_fract_y
 _atom_site_fract_z
 _atom_site_occupancy
  Li  Li0  1  0.06814300  0.43140000  0.32408300  1
  Li  Li1  1  0.31803400  0.18130400  0.67645300  1
  Li  Li2  1  0.56906000  0.93216300  0.32297300  1
  Li  Li3  1  0.81843800  0.68153600  0.67645800  1
  V  V0  1  0.75683800  0.75623400  0.27145000  1
  V  V1  1  0.49403200  0.99325500  0.72855500  1
  Fe  Fe0  1  0.25780200  0.25706700  0.26794500  1
  Fe  Fe1  1  0.99246700  0.49183500  0.73210900  1
  P  P0  1  0.34816600  0.52868600  0.52203700  1
  P  P1  1  0.84949000  0.02985900  0.52120000  1
  P  P2  1  0.67139800  0.45493000  0.08545900  1
  P  P3  1  0.17125400  0.95522000  0.08566900  1
  P  P4  1  0.29490200  0.57823100  0.91472700  1
  P  P5  1  0.79505900  0.07896400  0.91418300  1
  P  P6  1  0.22017600  0.90132800  0.47838200  1
  P  P7  1  0.72118000  0.40107700  0.47833000  1
  O  O0  1  0.19054700  0.12407200  0.08428700  1
  O  O1  1  0.01524800  0.19342900  0.39411600  1
  O  O2  1  0.20786100  0.05323000  0.49195900  1
  O  O3  1  0.27905800  0.47290800  0.11614000  1
  O  O4  1  0.48880700  0.31306800  0.14645900  1
  O  O5  1  0.33360900  0.37145900  0.48230100  1
  O  O6  1  0.19704000  0.54245000  0.50790600  1
  O  O7  1  0.69846300  0.04225000  0.50577800  1
  O  O8  1  0.55683100  0.23510200  0.60508800  1
  O  O9  1  0.05675100  0.73553400  0.60570300  1
  O  O10  1  0.62592400  0.05994200  0.91730600  1
  O  O11  1  0.12596900  0.55877200  0.91692600  1
  O  O12  1  0.34414200  0.49706600  0.75380600  1
  O  O13  1  0.75283800  0.40571800  0.24629400  1
  O  O14  1  0.25283300  0.90600700  0.24654400  1
  O  O15  1  0.69071700  0.62404700  0.08140000  1
  O  O16  1  0.51405500  0.69297200  0.39504000  1
  O  O17  1  0.70750200  0.55124200  0.49435000  1
  O  O18  1  0.87872900  0.41579600  0.51776400  1
  O  O19  1  0.37828400  0.91674600  0.51769900  1
  O  O20  1  0.93712100  0.26205600  0.85229300  1
  O  O21  1  0.43768800  0.76046200  0.85286500  1
  O  O22  1  0.27470600  0.97102300  0.88471200  1
  O  O23  1  0.77724400  0.47096400  0.88410100  1
  O  O24  1  0.77935400  0.97525200  0.11491400  1
  O  O25  1  0.98863800  0.81210000  0.14852400  1
  O  O26  1  0.83379500  0.87152000  0.48237700  1
  O  O27  1  0.84422900  0.99730500  0.75333500  1
loop_
_geom_bond_atom_site_label_1
_geom_bond_atom_site_label_2
_geom_bond_distance
_geom_bond_site_symmetry_2
Li0 O18 1.991628 1_455
Li0 O1 2.019990 1_555
Li0 O6 2.060600 1_555
Li0 O3 2.085226 1_555
Li1 O5 1.998577 1_555
Li1 O8 2.024619 1_555
Li1 O2 2.058090 1_555
Li1 O22 2.074570 1_545
Li2 O19 2.006091 1_555
Li2 O16 2.024360 1_555
Li2 O7 2.053562 1_565
Li2 O24 2.075071 1_555
Li3 O26 1.998124 1_555
Li3 O9 2.019542 1_655
Li3 O17 2.056243 1_555
Li3 O23 2.082731 1_555
Fe0 O0 1.978025 1_555
Fe0 O4 1.978746 1_555
Fe0 O3 2.044333 1_555
Fe0 O1 2.060204 1_555
Fe0 O2 2.065534 1_555
Fe0 O5 2.086359 1_555
Fe1 O20 1.968520 1_555
Fe1 O11 1.987442 1_655
Fe1 O23 2.041595 1_555
Fe1 O9 2.068322 1_655
Fe1 O6 2.069001 1_655
Fe1 O18 2.083633 1_555
O0 P3 1.536198 1_545
O1 P1 1.531679 1_455
O2 P6 1.535533 1_545
O3 P4 1.532520 1_554
O4 P2 1.519395 1_555
O5 P0 1.530925 1_555
O6 P0 1.536206 1_555
O7 P1 1.530484 1_555
O7 V1 2.068135 1_545
O8 P7 1.535200 1_555
O8 V1 2.053351 1_545
O9 P6 1.531612 1_555
O10 P5 1.537251 1_555
O10 V1 2.001591 1_545
O11 P4 1.535051 1_555
O12 P0 1.618589 1_555
O12 P4 1.624150 1_555
O13 P7 1.619023 1_555
O13 P2 1.625331 1_555
O14 P6 1.617411 1_555
O14 P3 1.626549 1_555
O15 P2 1.534688 1_555
O15 V0 2.010590 1_555
O16 P0 1.534948 1_555
O16 V0 2.060256 1_555
O17 P7 1.529782 1_555
O17 V0 2.070937 1_555
O18 P7 1.532431 1_555
O19 P6 1.535014 1_555
O19 V1 2.071890 1_555
O20 P5 1.522581 1_555
O21 P4 1.519118 1_555
O21 V1 1.996766 1_555
O22 P3 1.522475 1_556
O22 V1 2.079011 1_555
O23 P2 1.533860 1_556
O24 P5 1.522440 1_564
O24 V0 2.075889 1_555
O25 P3 1.521870 1_655
O25 V0 1.987991 1_555
O26 P1 1.535035 1_565
O26 V0 2.071219 1_555
O27 P1 1.618030 1_565
O27 P5 1.627058 1_565
