# generated using pymatgen
data_Li2FeTeO6
_symmetry_space_group_name_H-M   'P 1'
_cell_length_a   5.12633143
_cell_length_b   5.13441411
_cell_length_c   5.40098077
_cell_angle_alpha   118.31863623
_cell_angle_beta   90.02177494
_cell_angle_gamma   119.70490713
_symmetry_Int_Tables_number   1
_chemical_formula_structural   Li2FeTeO6
_chemical_formula_sum   'Li2 Fe1 Te1 O6'
_cell_volume   103.41779605
_cell_formula_units_Z   1
loop_
 _symmetry_equiv_pos_site_id
 _symmetry_equiv_pos_as_xyz
  1  'x, y, z'
loop_
 _atom_site_type_symbol
 _atom_site_label
 _atom_site_symmetry_multiplicity
 _atom_site_fract_x
 _atom_site_fract_y
 _atom_site_fract_z
 _atom_site_occupancy
  Li  Li0  1  0.71945600  0.43271600  0.14245600  1
  Li  Li1  1  0.20562700  0.41293300  0.62183000  1
  Fe  Fe0  1  0.99670000  0.99225000  0.98997200  1
  Te  Te0  1  0.49901900  0.99776300  0.49733000  1
  O  O0  1  0.61751900  0.49037900  0.76942000  1
  O  O1  1  0.76493700  0.14996900  0.27649900  1
  O  O2  1  0.87377800  0.15277200  0.77221800  1
  O  O3  1  0.12725500  0.89652500  0.27990700  1
  O  O4  1  0.27270900  0.89000600  0.76586300  1
  O  O5  1  0.38740100  0.51348500  0.27770200  1
loop_
_geom_bond_atom_site_label_1
_geom_bond_atom_site_label_2
_geom_bond_distance
_geom_bond_site_symmetry_2
Li0 O3 1.995012 1_655
Li0 O5 2.004064 1_555
Li0 O1 2.004619 1_555
Li0 O2 2.256472 1_554
Li0 O0 2.266814 1_554
Li0 O4 2.332644 1_544
Li1 O4 2.020037 1_555
Li1 O2 2.028878 1_455
Li1 O0 2.029243 1_555
Li1 O3 2.213628 1_545
Li1 O1 2.233824 1_455
Li1 O5 2.241489 1_555
Fe0 O4 1.969072 1_655
Fe0 O2 1.973149 1_565
Fe0 O0 1.989796 1_555
Fe0 O3 2.048666 1_656
Fe0 O1 2.056243 1_566
Fe0 O5 2.080455 1_666
O0 Te0 1.968776 1_545
O1 Te0 1.929065 1_545
O2 Te0 1.972275 1_545
O3 Te0 1.928366 1_555
O4 Te0 1.970272 1_555
O5 Te0 1.925674 1_555
