# generated using pymatgen
data_Ce(ZnP)3
_symmetry_space_group_name_H-M   'P 1'
_cell_length_a   4.02763164
_cell_length_b   4.02763164
_cell_length_c   20.05542942
_cell_angle_alpha   90.00000000
_cell_angle_beta   90.00000000
_cell_angle_gamma   119.99997608
_symmetry_Int_Tables_number   1
_chemical_formula_structural   Ce(ZnP)3
_chemical_formula_sum   'Ce2 Zn6 P6'
_cell_volume   281.74887482
_cell_formula_units_Z   2
loop_
 _symmetry_equiv_pos_site_id
 _symmetry_equiv_pos_as_xyz
  1  'x, y, z'
loop_
 _atom_site_type_symbol
 _atom_site_label
 _atom_site_symmetry_multiplicity
 _atom_site_fract_x
 _atom_site_fract_y
 _atom_site_fract_z
 _atom_site_occupancy
  Ce  Ce0  1  0.00000000  0.00000000  -0.00000000  1
  Ce  Ce1  1  0.00000000  0.00000000  0.50000000  1
  Zn  Zn0  1  0.33333300  0.66666700  0.75000000  1
  Zn  Zn1  1  0.66666700  0.33333300  0.25000000  1
  Zn  Zn2  1  0.33333300  0.66666700  0.13061205  1
  Zn  Zn3  1  0.66666700  0.33333300  0.86938795  1
  Zn  Zn4  1  0.66666700  0.33333300  0.63061205  1
  Zn  Zn5  1  0.33333300  0.66666700  0.36938795  1
  P  P0  1  0.33333300  0.66666700  0.58854047  1
  P  P1  1  0.66666700  0.33333300  0.41145953  1
  P  P2  1  0.66666700  0.33333300  0.08854047  1
  P  P3  1  0.33333300  0.66666700  0.91145953  1
  P  P4  1  0.33333300  0.66666700  0.25000000  1
  P  P5  1  0.66666700  0.33333300  0.75000000  1
loop_
_geom_bond_atom_site_label_1
_geom_bond_atom_site_label_2
_geom_bond_distance
_geom_bond_site_symmetry_2
Ce0 P3 2.925822 1_544
Ce0 P2 2.925822 1_455
Ce0 P3 2.925825 1_554
Ce0 P2 2.925825 1_445
Ce0 P3 2.925825 1_444
Ce0 P2 2.925825 1_555
Ce1 P0 2.925822 1_545
Ce1 P1 2.925822 1_455
Ce1 P1 2.925825 1_445
Ce1 P0 2.925825 1_555
Ce1 P1 2.925825 1_555
Ce1 P0 2.925825 1_445
P0 Zn4 2.473702 1_565
P0 Zn4 2.473702 1_455
P0 Zn4 2.473708 1_555
P1 Zn5 2.473702 1_545
P1 Zn5 2.473702 1_655
P1 Zn5 2.473708 1_555
P2 Zn2 2.473702 1_545
P2 Zn2 2.473702 1_655
P2 Zn2 2.473708 1_555
P3 Zn3 2.473702 1_565
P3 Zn3 2.473702 1_455
P3 Zn3 2.473708 1_555
P4 Zn1 2.325352 1_455
P4 Zn1 2.325352 1_565
P4 Zn1 2.325359 1_555
P4 Zn2 2.394377 1_555
P4 Zn5 2.394377 1_555
P5 Zn0 2.325352 1_545
P5 Zn0 2.325352 1_655
P5 Zn0 2.325359 1_555
P5 Zn4 2.394377 1_555
P5 Zn3 2.394377 1_555
