# generated using pymatgen
data_YNi3Se2ClO8
_symmetry_space_group_name_H-M   'P 1'
_cell_length_a   6.41588400
_cell_length_b   7.15707600
_cell_length_c   9.63638400
_cell_angle_alpha   90.00000000
_cell_angle_beta   90.00000000
_cell_angle_gamma   90.00000000
_symmetry_Int_Tables_number   1
_chemical_formula_structural   YNi3Se2ClO8
_chemical_formula_sum   'Y2 Ni6 Se4 Cl2 O16'
_cell_volume   442.49282198
_cell_formula_units_Z   2
loop_
 _symmetry_equiv_pos_site_id
 _symmetry_equiv_pos_as_xyz
  1  'x, y, z'
loop_
 _atom_site_type_symbol
 _atom_site_label
 _atom_site_symmetry_multiplicity
 _atom_site_fract_x
 _atom_site_fract_y
 _atom_site_fract_z
 _atom_site_occupancy
  Y  Y0  1  0.00000000  0.74075900  0.00000000  1
  Y  Y1  1  0.50000000  0.25924100  0.50000000  1
  Ni  Ni0  1  0.25000000  0.00000000  0.75000000  1
  Ni  Ni1  1  0.25000000  0.00000000  0.25000000  1
  Ni  Ni2  1  0.75000000  0.00000000  0.75000000  1
  Ni  Ni3  1  0.50000000  0.79567800  0.50000000  1
  Ni  Ni4  1  0.00000000  0.20432200  0.00000000  1
  Ni  Ni5  1  0.75000000  0.00000000  0.25000000  1
  Se  Se0  1  0.50000000  0.59427700  0.80955900  1
  Se  Se1  1  0.00000000  0.40572300  0.69044100  1
  Se  Se2  1  0.50000000  0.59427700  0.19044100  1
  Se  Se3  1  0.00000000  0.40572300  0.30955900  1
  Cl  Cl0  1  0.00000000  0.85767000  0.50000000  1
  Cl  Cl1  1  0.50000000  0.14233000  0.00000000  1
  O  O0  1  0.00000000  0.00183000  0.86256700  1
  O  O1  1  0.00000000  0.42471900  0.86927900  1
  O  O2  1  0.50000000  0.57528100  0.36927900  1
  O  O3  1  0.28875200  0.74044900  0.83823500  1
  O  O4  1  0.21124800  0.25955100  0.33823500  1
  O  O5  1  0.78875200  0.25955100  0.33823500  1
  O  O6  1  0.50000000  0.99817000  0.63743300  1
  O  O7  1  0.71124800  0.74044900  0.83823500  1
  O  O8  1  0.71124800  0.74044900  0.16176500  1
  O  O9  1  0.78875200  0.25955100  0.66176500  1
  O  O10  1  0.00000000  0.00183000  0.13743300  1
  O  O11  1  0.50000000  0.99817000  0.36256700  1
  O  O12  1  0.21124800  0.25955100  0.66176500  1
  O  O13  1  0.28875200  0.74044900  0.16176500  1
  O  O14  1  0.50000000  0.57528100  0.63072100  1
  O  O15  1  0.00000000  0.42471900  0.13072100  1
loop_
_geom_bond_atom_site_label_1
_geom_bond_atom_site_label_2
_geom_bond_distance
_geom_bond_site_symmetry_2
Ni0 O0 1.936376 1_555
Ni0 O6 1.936376 1_545
Ni0 O12 2.058044 1_555
Ni0 O3 2.058044 1_545
Ni1 O11 1.936376 1_545
Ni1 O10 1.936376 1_555
Ni1 O4 2.058044 1_555
Ni1 O13 2.058044 1_545
Ni2 O0 1.936376 1_655
Ni2 O6 1.936376 1_545
Ni2 O9 2.058044 1_555
Ni2 O7 2.058044 1_545
Ni3 O6 1.963224 1_555
Ni3 O11 1.963224 1_555
Ni3 O14 2.018656 1_555
Ni3 O2 2.018656 1_555
Ni4 O10 1.963224 1_555
Ni4 O0 1.963224 1_554
Ni4 O15 2.018656 1_555
Ni4 O1 2.018656 1_554
Ni5 O11 1.936376 1_545
Ni5 O10 1.936376 1_655
Ni5 O5 2.058044 1_555
Ni5 O8 2.058044 1_545
O0 Y0 2.290247 1_546
O1 Se1 1.728706 1_555
O1 Y0 2.589031 1_556
O2 Se2 1.728706 1_555
O2 Y1 2.589031 1_555
O3 Se0 1.734293 1_555
O3 Y0 2.421173 1_556
O4 Se3 1.734293 1_555
O4 Y1 2.421173 1_555
O5 Se3 1.734293 1_655
O5 Y1 2.421173 1_555
O6 Y1 2.290247 1_565
O7 Se0 1.734293 1_555
O7 Y0 2.421173 1_656
O8 Se2 1.734293 1_555
O8 Y0 2.421173 1_655
O9 Se1 1.734293 1_655
O9 Y1 2.421173 1_555
O10 Y0 2.290247 1_545
O11 Y1 2.290247 1_565
O12 Se1 1.734293 1_555
O12 Y1 2.421173 1_555
O13 Se2 1.734293 1_555
O13 Y0 2.421173 1_555
O14 Se0 1.728706 1_555
O14 Y1 2.589031 1_555
O15 Se3 1.728706 1_555
O15 Y0 2.589031 1_555
