# generated using pymatgen
data_Sm(Ge2Rh3)2
_symmetry_space_group_name_H-M   'P 1'
_cell_length_a   3.84824822
_cell_length_b   7.15646418
_cell_length_c   7.15646418
_cell_angle_alpha   120.00000889
_cell_angle_beta   90.00000000
_cell_angle_gamma   90.00000000
_symmetry_Int_Tables_number   1
_chemical_formula_structural   Sm(Ge2Rh3)2
_chemical_formula_sum   'Sm1 Ge4 Rh6'
_cell_volume   170.68315966
_cell_formula_units_Z   1
loop_
 _symmetry_equiv_pos_site_id
 _symmetry_equiv_pos_as_xyz
  1  'x, y, z'
loop_
 _atom_site_type_symbol
 _atom_site_label
 _atom_site_symmetry_multiplicity
 _atom_site_fract_x
 _atom_site_fract_y
 _atom_site_fract_z
 _atom_site_occupancy
  Sm  Sm0  1  -0.00000000  -0.00000000  -0.00000000  1
  Ge  Ge0  1  -0.00000000  0.66666700  0.33333300  1
  Ge  Ge1  1  0.50000000  0.19793400  0.80206600  1
  Ge  Ge2  1  0.50000000  0.60413399  0.80206600  1
  Ge  Ge3  1  0.50000000  0.19793400  0.39586601  1
  Rh  Rh0  1  -0.00000000  0.46679173  0.53320827  1
  Rh  Rh1  1  -0.00000000  0.06641455  0.53320827  1
  Rh  Rh2  1  -0.00000000  0.46679173  0.93358545  1
  Rh  Rh3  1  0.50000000  0.79995564  0.20004436  1
  Rh  Rh4  1  0.50000000  0.40008872  0.20004436  1
  Rh  Rh5  1  0.50000000  0.79995564  0.59991128  1
loop_
_geom_bond_atom_site_label_1
_geom_bond_atom_site_label_2
_geom_bond_distance
_geom_bond_site_symmetry_2
Ge0 Rh1 2.477507 1_565
Ge0 Rh2 2.477507 1_554
Ge0 Rh0 2.477526 1_555
Ge0 Rh3 2.536117 1_455
Ge0 Rh3 2.536117 1_555
Ge0 Rh4 2.536121 1_555
Ge0 Rh4 2.536121 1_455
Ge0 Rh5 2.536121 1_455
Ge0 Rh5 2.536121 1_555
Ge1 Rh4 2.466646 1_556
Ge1 Rh5 2.466646 1_545
Ge1 Rh1 2.545432 1_555
Ge1 Rh1 2.545432 1_655
Ge1 Rh2 2.545432 1_555
Ge1 Rh2 2.545432 1_655
Ge1 Sm0 3.117970 1_556
Ge1 Sm0 3.117970 1_656
Ge2 Rh5 2.466634 1_555
Ge2 Rh3 2.466646 1_556
Ge2 Rh0 2.545432 1_655
Ge2 Rh0 2.545432 1_555
Ge2 Rh2 2.545448 1_555
Ge2 Rh2 2.545448 1_655
Ge2 Sm0 3.117960 1_566
Ge2 Sm0 3.117960 1_666
Ge3 Rh4 2.466634 1_555
Ge3 Rh3 2.466646 1_545
Ge3 Rh0 2.545432 1_555
Ge3 Rh0 2.545432 1_655
Ge3 Rh1 2.545448 1_655
Ge3 Rh1 2.545448 1_555
Ge3 Sm0 3.117960 1_655
Ge3 Sm0 3.117960 1_555
Rh3 Sm0 3.138595 1_665
Rh3 Sm0 3.138595 1_565
Rh4 Sm0 3.138595 1_655
Rh4 Sm0 3.138595 1_555
Rh5 Sm0 3.138595 1_566
Rh5 Sm0 3.138595 1_666
