# generated using pymatgen
data_Zn4B6SeO12
_symmetry_space_group_name_H-M   'P 1'
_cell_length_a   6.71703679
_cell_length_b   6.71703679
_cell_length_c   6.71703679
_cell_angle_alpha   109.47122063
_cell_angle_beta   109.47122063
_cell_angle_gamma   109.47122063
_symmetry_Int_Tables_number   1
_chemical_formula_structural   Zn4B6SeO12
_chemical_formula_sum   'Zn4 B6 Se1 O12'
_cell_volume   233.29814766
_cell_formula_units_Z   1
loop_
 _symmetry_equiv_pos_site_id
 _symmetry_equiv_pos_as_xyz
  1  'x, y, z'
loop_
 _atom_site_type_symbol
 _atom_site_label
 _atom_site_symmetry_multiplicity
 _atom_site_fract_x
 _atom_site_fract_y
 _atom_site_fract_z
 _atom_site_occupancy
  Zn  Zn0  1  0.00000000  0.00000000  0.35477300  1
  Zn  Zn1  1  0.35477300  0.00000000  0.00000000  1
  Zn  Zn2  1  0.00000000  0.35477300  0.00000000  1
  Zn  Zn3  1  0.64522700  0.64522700  0.64522700  1
  B  B0  1  0.25000000  0.50000000  0.75000000  1
  B  B1  1  0.50000000  0.75000000  0.25000000  1
  B  B2  1  0.50000000  0.25000000  0.75000000  1
  B  B3  1  0.75000000  0.25000000  0.50000000  1
  B  B4  1  0.25000000  0.75000000  0.50000000  1
  B  B5  1  0.75000000  0.50000000  0.25000000  1
  Se  Se0  1  0.00000000  0.00000000  0.00000000  1
  O  O0  1  0.71456700  0.71456700  0.28814500  1
  O  O1  1  0.57357900  0.28543300  0.00000000  1
  O  O2  1  0.28543300  0.57357900  0.00000000  1
  O  O3  1  0.42642100  0.71185500  0.42642100  1
  O  O4  1  0.57357900  0.00000000  0.28543300  1
  O  O5  1  0.00000000  0.57357900  0.28543300  1
  O  O6  1  0.71185500  0.42642100  0.42642100  1
  O  O7  1  0.28814500  0.71456700  0.71456700  1
  O  O8  1  0.71456700  0.28814500  0.71456700  1
  O  O9  1  0.28543300  0.00000000  0.57357900  1
  O  O10  1  0.00000000  0.28543300  0.57357900  1
  O  O11  1  0.42642100  0.42642100  0.71185500  1
loop_
_geom_bond_atom_site_label_1
_geom_bond_atom_site_label_2
_geom_bond_distance
_geom_bond_site_symmetry_2
B0 O11 1.490856 1_555
B0 O2 1.490859 1_556
B0 O10 1.490859 1_555
B0 O7 1.490859 1_555
B1 O3 1.490856 1_555
B1 O4 1.490859 1_565
B1 O2 1.490859 1_555
B1 O0 1.490859 1_555
B2 O11 1.490856 1_555
B2 O1 1.490859 1_556
B2 O9 1.490859 1_555
B2 O8 1.490859 1_555
B3 O6 1.490856 1_555
B3 O4 1.490859 1_555
B3 O10 1.490859 1_655
B3 O8 1.490859 1_555
B4 O3 1.490856 1_555
B4 O9 1.490859 1_565
B4 O5 1.490859 1_555
B4 O7 1.490859 1_555
B5 O6 1.490856 1_555
B5 O5 1.490859 1_655
B5 O1 1.490859 1_555
B5 O0 1.490859 1_555
Se0 Zn1 2.383023 1_555
Se0 Zn2 2.383023 1_555
Se0 Zn3 2.383023 1_444
Se0 Zn0 2.383023 1_555
O0 Zn0 1.989326 1_665
O1 Zn1 1.989329 1_555
O2 Zn2 1.989329 1_555
O3 Zn3 1.989334 1_555
O4 Zn1 1.989329 1_555
O5 Zn2 1.989329 1_555
O6 Zn3 1.989334 1_555
O7 Zn1 1.989326 1_566
O8 Zn2 1.989326 1_656
O9 Zn0 1.989329 1_555
O10 Zn0 1.989329 1_555
O11 Zn3 1.989334 1_555
