# generated using pymatgen
data_CaHo(NiO3)2
_symmetry_space_group_name_H-M   'P 1'
_cell_length_a   5.27592100
_cell_length_b   5.48135201
_cell_length_c   7.43643601
_cell_angle_alpha   90.00564274
_cell_angle_beta   90.00010050
_cell_angle_gamma   90.00125704
_symmetry_Int_Tables_number   1
_chemical_formula_structural   CaHo(NiO3)2
_chemical_formula_sum   'Ca2 Ho2 Ni4 O12'
_cell_volume   215.05563163
_cell_formula_units_Z   2
loop_
 _symmetry_equiv_pos_site_id
 _symmetry_equiv_pos_as_xyz
  1  'x, y, z'
loop_
 _atom_site_type_symbol
 _atom_site_label
 _atom_site_symmetry_multiplicity
 _atom_site_fract_x
 _atom_site_fract_y
 _atom_site_fract_z
 _atom_site_occupancy
  Ca  Ca0  1  0.48727700  0.44142200  0.74974300  1
  Ca  Ca1  1  0.98749900  0.05862000  0.25021200  1
  Ho  Ho0  1  0.01869300  0.93295600  0.74984100  1
  Ho  Ho1  1  0.51862400  0.56710100  0.25011300  1
  Ni  Ni0  1  0.00083200  0.49518300  0.00032400  1
  Ni  Ni1  1  0.00084200  0.49508400  0.49970200  1
  Ni  Ni2  1  0.50091200  0.00480700  0.50033400  1
  Ni  Ni3  1  0.50089600  0.00484600  0.99964200  1
  O  O0  1  0.10246300  0.47668200  0.24998800  1
  O  O1  1  0.19533000  0.19826400  0.95104800  1
  O  O2  1  0.19533500  0.19822300  0.54892500  1
  O  O3  1  0.29210500  0.71206600  0.95337600  1
  O  O4  1  0.29202500  0.71199200  0.54648300  1
  O  O5  1  0.41490700  0.96801700  0.24995600  1
  O  O6  1  0.60257800  0.02333100  0.75003400  1
  O  O7  1  0.69536400  0.30163700  0.45112200  1
  O  O8  1  0.69534800  0.30168200  0.04894400  1
  O  O9  1  0.79206000  0.78800400  0.04674200  1
  O  O10  1  0.79207900  0.78797000  0.45342500  1
  O  O11  1  0.91482900  0.53211100  0.75004800  1
loop_
_geom_bond_atom_site_label_1
_geom_bond_atom_site_label_2
_geom_bond_distance
_geom_bond_site_symmetry_2
Ca0 O11 2.309845 1_555
Ca0 O4 2.354985 1_555
Ca0 O3 2.356652 1_555
Ca0 O6 2.371081 1_555
Ca0 O2 2.525692 1_555
Ca0 O1 2.527891 1_555
Ca0 O7 2.592965 1_555
Ca0 O8 2.596677 1_556
Ca1 O5 2.309022 1_645
Ca1 O10 2.355399 1_545
Ca1 O9 2.356362 1_545
Ca1 O0 2.370446 1_655
Ca1 O7 2.526231 1_555
Ca1 O8 2.528139 1_555
Ca1 O2 2.592678 1_655
Ca1 O1 2.595740 1_654
Ho0 O6 2.250597 1_465
Ho0 O11 2.264464 1_455
Ho0 O2 2.283728 1_565
Ho0 O1 2.285087 1_565
Ho0 O4 2.415202 1_555
Ho0 O3 2.416221 1_555
Ho0 O10 2.630491 1_455
Ho0 O9 2.633637 1_456
Ho1 O0 2.250865 1_555
Ho1 O5 2.264677 1_555
Ho1 O7 2.285103 1_555
Ho1 O8 2.285505 1_555
Ho1 O10 2.415079 1_555
Ho1 O9 2.415540 1_555
Ho1 O4 2.630030 1_555
Ho1 O3 2.632376 1_554
Ni0 O11 1.926358 1_454
Ni0 O0 1.935156 1_555
Ni0 O1 1.958582 1_554
Ni0 O8 1.962984 1_455
Ni0 O3 1.974010 1_554
Ni0 O9 1.977005 1_455
Ni1 O11 1.926893 1_455
Ni1 O0 1.935453 1_555
Ni1 O2 1.958290 1_555
Ni1 O7 1.962704 1_455
Ni1 O4 1.973461 1_555
Ni1 O10 1.977139 1_455
Ni2 O5 1.926973 1_545
Ni2 O6 1.935450 1_555
Ni2 O7 1.957983 1_555
Ni2 O2 1.963096 1_555
Ni2 O10 1.973371 1_545
Ni2 O4 1.976984 1_545
Ni3 O5 1.926556 1_546
Ni3 O6 1.934827 1_555
Ni3 O8 1.958075 1_556
Ni3 O1 1.963095 1_555
Ni3 O9 1.973667 1_546
Ni3 O3 1.976641 1_545
