# generated using pymatgen
data_Dy2TeO2
_symmetry_space_group_name_H-M   'P 1'
_cell_length_a   3.91141897
_cell_length_b   3.91141862
_cell_length_c   6.80539214
_cell_angle_alpha   106.70095372
_cell_angle_beta   106.70095078
_cell_angle_gamma   89.99999803
_symmetry_Int_Tables_number   1
_chemical_formula_structural   Dy2TeO2
_chemical_formula_sum   'Dy2 Te1 O2'
_cell_volume   95.13070244
_cell_formula_units_Z   1
loop_
 _symmetry_equiv_pos_site_id
 _symmetry_equiv_pos_as_xyz
  1  'x, y, z'
loop_
 _atom_site_type_symbol
 _atom_site_label
 _atom_site_symmetry_multiplicity
 _atom_site_fract_x
 _atom_site_fract_y
 _atom_site_fract_z
 _atom_site_occupancy
  Dy  Dy0  1  0.66289957  0.66289957  0.32580013  1
  Dy  Dy1  1  0.33710043  0.33710043  0.67419987  1
  Te  Te0  1  -0.00000000  0.00000000  -0.00000000  1
  O  O0  1  0.25000000  0.75000000  0.50000000  1
  O  O1  1  0.75000000  0.25000000  0.50000000  1
loop_
_geom_bond_atom_site_label_1
_geom_bond_atom_site_label_2
_geom_bond_distance
_geom_bond_site_symmetry_2
Dy0 O1 2.235636 1_555
Dy0 O0 2.235636 1_555
Dy0 O1 2.235639 1_565
Dy0 O0 2.235639 1_655
Dy0 Te0 3.428349 1_555
Dy0 Te0 3.428351 1_655
Dy0 Te0 3.428351 1_565
Dy0 Te0 3.428353 1_665
Dy1 O0 2.235636 1_555
Dy1 O1 2.235636 1_555
Dy1 O0 2.235639 1_545
Dy1 O1 2.235639 1_455
Dy1 Te0 3.428349 1_666
Dy1 Te0 3.428351 1_566
Dy1 Te0 3.428351 1_656
Dy1 Te0 3.428353 1_556
