# generated using pymatgen
data_Yb2MgS4
_symmetry_space_group_name_H-M   'P 1'
_cell_length_a   10.59234600
_cell_length_b   8.58800500
_cell_length_c   7.12178100
_cell_angle_alpha   90.00000000
_cell_angle_beta   90.00000000
_cell_angle_gamma   90.00000000
_symmetry_Int_Tables_number   1
_chemical_formula_structural   Yb2MgS4
_chemical_formula_sum   'Yb8 Mg4 S16'
_cell_volume   647.84790976
_cell_formula_units_Z   4
loop_
 _symmetry_equiv_pos_site_id
 _symmetry_equiv_pos_as_xyz
  1  'x, y, z'
loop_
 _atom_site_type_symbol
 _atom_site_label
 _atom_site_symmetry_multiplicity
 _atom_site_fract_x
 _atom_site_fract_y
 _atom_site_fract_z
 _atom_site_occupancy
  Yb  Yb0  1  0.00000000  0.00000000  0.50000000  1
  Yb  Yb1  1  0.50000000  0.00000000  0.00000000  1
  Yb  Yb2  1  0.50000000  0.50000000  0.00000000  1
  Yb  Yb3  1  0.00000000  0.50000000  0.50000000  1
  Yb  Yb4  1  0.20413300  0.75000000  0.92069400  1
  Yb  Yb5  1  0.79586700  0.25000000  0.07930600  1
  Yb  Yb6  1  0.29586700  0.25000000  0.42069400  1
  Yb  Yb7  1  0.70413300  0.75000000  0.57930600  1
  Mg  Mg0  1  0.13058700  0.25000000  0.94501900  1
  Mg  Mg1  1  0.86941300  0.75000000  0.05498100  1
  Mg  Mg2  1  0.36941300  0.75000000  0.44501900  1
  Mg  Mg3  1  0.63058700  0.25000000  0.55498100  1
  S  S0  1  0.20996100  0.05019000  0.73967200  1
  S  S1  1  0.79003900  0.94981000  0.26032800  1
  S  S2  1  0.29003900  0.94981000  0.23967200  1
  S  S3  1  0.70996100  0.05019000  0.76032800  1
  S  S4  1  0.70996100  0.44981000  0.76032800  1
  S  S5  1  0.29003900  0.55019000  0.23967200  1
  S  S6  1  0.79003900  0.55019000  0.26032800  1
  S  S7  1  0.20996100  0.44981000  0.73967200  1
  S  S8  1  0.06411000  0.75000000  0.25147200  1
  S  S9  1  0.93589000  0.25000000  0.74852800  1
  S  S10  1  0.43589000  0.25000000  0.75147200  1
  S  S11  1  0.56411000  0.75000000  0.24852800  1
  S  S12  1  0.04726400  0.25000000  0.25963000  1
  S  S13  1  0.95273600  0.75000000  0.74037000  1
  S  S14  1  0.45273600  0.75000000  0.75963000  1
  S  S15  1  0.54726400  0.25000000  0.24037000  1
loop_
_geom_bond_atom_site_label_1
_geom_bond_atom_site_label_2
_geom_bond_distance
_geom_bond_site_symmetry_2
Mg0 S7 2.406272 1_555
Mg0 S0 2.406272 1_555
Mg0 S12 2.408154 1_556
Mg0 S9 2.492248 1_455
Mg1 S6 2.406272 1_555
Mg1 S1 2.406272 1_555
Mg1 S13 2.408154 1_554
Mg1 S8 2.492248 1_655
Mg2 S5 2.406272 1_555
Mg2 S2 2.406272 1_555
Mg2 S14 2.408154 1_555
Mg2 S11 2.492248 1_555
Mg3 S4 2.406272 1_555
Mg3 S3 2.406272 1_555
Mg3 S15 2.408154 1_555
Mg3 S10 2.492248 1_555
S0 Yb0 2.836433 1_555
S0 Yb4 2.883071 1_545
S0 Yb6 2.988835 1_555
S1 Yb0 2.836433 1_665
S1 Yb5 2.883071 1_565
S1 Yb7 2.988835 1_555
S2 Yb1 2.836433 1_565
S2 Yb6 2.883071 1_565
S2 Yb4 2.988835 1_554
S3 Yb1 2.836433 1_556
S3 Yb7 2.883071 1_545
S3 Yb5 2.988835 1_556
S4 Yb2 2.836433 1_556
S4 Yb7 2.883071 1_555
S4 Yb5 2.988835 1_556
S5 Yb2 2.836433 1_555
S5 Yb6 2.883071 1_555
S5 Yb4 2.988835 1_554
S6 Yb3 2.836433 1_655
S6 Yb5 2.883071 1_555
S6 Yb7 2.988835 1_555
S7 Yb3 2.836433 1_555
S7 Yb4 2.883071 1_555
S7 Yb6 2.988835 1_555
S8 Yb4 2.783749 1_554
S8 Yb0 2.864179 1_565
S8 Yb3 2.864179 1_555
S9 Yb5 2.783749 1_556
S9 Yb0 2.864179 1_655
S9 Yb3 2.864179 1_655
S10 Yb6 2.783749 1_555
S10 Yb2 2.864179 1_556
S10 Yb1 2.864179 1_556
S11 Yb7 2.783749 1_555
S11 Yb1 2.864179 1_565
S11 Yb2 2.864179 1_555
S12 Yb3 2.791187 1_555
S12 Yb0 2.791187 1_555
S12 Yb6 2.872275 1_555
S12 Yb5 2.956382 1_455
S13 Yb0 2.791187 1_665
S13 Yb3 2.791187 1_655
S13 Yb7 2.872275 1_555
S13 Yb4 2.956382 1_655
S14 Yb1 2.791187 1_566
S14 Yb2 2.791187 1_556
S14 Yb4 2.872275 1_555
S14 Yb7 2.956382 1_555
S15 Yb1 2.791187 1_555
S15 Yb2 2.791187 1_555
S15 Yb5 2.872275 1_555
S15 Yb6 2.956382 1_555
