# generated using pymatgen
data_FeSe2
_symmetry_space_group_name_H-M   'P 1'
_cell_length_a   5.76633430
_cell_length_b   5.76633430
_cell_length_c   5.76633430
_cell_angle_alpha   90.00000000
_cell_angle_beta   90.00000000
_cell_angle_gamma   90.00000000
_symmetry_Int_Tables_number   1
_chemical_formula_structural   FeSe2
_chemical_formula_sum   'Fe4 Se8'
_cell_volume   191.73414020
_cell_formula_units_Z   4
loop_
 _symmetry_equiv_pos_site_id
 _symmetry_equiv_pos_as_xyz
  1  'x, y, z'
loop_
 _atom_site_type_symbol
 _atom_site_label
 _atom_site_symmetry_multiplicity
 _atom_site_fract_x
 _atom_site_fract_y
 _atom_site_fract_z
 _atom_site_occupancy
  Fe  Fe0  1  0.50000000  0.50000000  0.00000000  1
  Fe  Fe1  1  0.50000000  -0.00000000  0.50000000  1
  Fe  Fe2  1  -0.00000000  0.50000000  0.50000000  1
  Fe  Fe3  1  -0.00000000  -0.00000000  0.00000000  1
  Se  Se0  1  0.12273185  0.87726815  0.37726815  1
  Se  Se1  1  0.87726815  0.37726815  0.12273185  1
  Se  Se2  1  0.37726815  0.12273185  0.87726815  1
  Se  Se3  1  0.62273185  0.62273185  0.62273185  1
  Se  Se4  1  0.87726815  0.12273185  0.62273185  1
  Se  Se5  1  0.12273185  0.62273185  0.87726815  1
  Se  Se6  1  0.62273185  0.87726815  0.12273185  1
  Se  Se7  1  0.37726815  0.37726815  0.37726815  1
loop_
_geom_bond_atom_site_label_1
_geom_bond_atom_site_label_2
_geom_bond_distance
_geom_bond_site_symmetry_2
Fe0 Se1 2.394643 1_555
Fe0 Se3 2.394643 1_554
Fe0 Se2 2.394643 1_554
Fe0 Se5 2.394643 1_554
Fe0 Se6 2.394643 1_555
Fe0 Se7 2.394643 1_555
Fe1 Se4 2.394643 1_555
Fe1 Se2 2.394643 1_555
Fe1 Se6 2.394643 1_545
Fe1 Se3 2.394643 1_545
Fe1 Se0 2.394643 1_545
Fe1 Se7 2.394643 1_555
Fe2 Se3 2.394643 1_455
Fe2 Se1 2.394643 1_455
Fe2 Se0 2.394643 1_555
Fe2 Se4 2.394643 1_455
Fe2 Se5 2.394643 1_555
Fe2 Se7 2.394643 1_555
Fe3 Se5 2.394643 1_544
Fe3 Se6 2.394643 1_445
Fe3 Se1 2.394643 1_455
Fe3 Se2 2.394643 1_554
Fe3 Se4 2.394643 1_454
Fe3 Se0 2.394643 1_545
