# generated using pymatgen
data_Na2ZnS2
_symmetry_space_group_name_H-M   'P 1'
_cell_length_a   6.75563400
_cell_length_b   7.16493600
_cell_length_c   18.67559500
_cell_angle_alpha   90.00000000
_cell_angle_beta   90.00000000
_cell_angle_gamma   90.00000000
_symmetry_Int_Tables_number   1
_chemical_formula_structural   Na2ZnS2
_chemical_formula_sum   'Na16 Zn8 S16'
_cell_volume   903.96762223
_cell_formula_units_Z   8
loop_
 _symmetry_equiv_pos_site_id
 _symmetry_equiv_pos_as_xyz
  1  'x, y, z'
loop_
 _atom_site_type_symbol
 _atom_site_label
 _atom_site_symmetry_multiplicity
 _atom_site_fract_x
 _atom_site_fract_y
 _atom_site_fract_z
 _atom_site_occupancy
  Na  Na0  1  0.98932400  0.68570000  0.06849700  1
  Na  Na1  1  0.01067600  0.81430000  0.56849700  1
  Na  Na2  1  0.51067600  0.18570000  0.93150300  1
  Na  Na3  1  0.48932400  0.31430000  0.43150300  1
  Na  Na4  1  0.01067600  0.31430000  0.93150300  1
  Na  Na5  1  0.98932400  0.18570000  0.43150300  1
  Na  Na6  1  0.48932400  0.81430000  0.06849700  1
  Na  Na7  1  0.51067600  0.68570000  0.56849700  1
  Na  Na8  1  0.67791700  0.54405300  0.20060000  1
  Na  Na9  1  0.32208300  0.95594700  0.70060000  1
  Na  Na10  1  0.82208300  0.04405300  0.79940000  1
  Na  Na11  1  0.17791700  0.45594700  0.29940000  1
  Na  Na12  1  0.32208300  0.45594700  0.79940000  1
  Na  Na13  1  0.67791700  0.04405300  0.29940000  1
  Na  Na14  1  0.17791700  0.95594700  0.20060000  1
  Na  Na15  1  0.82208300  0.54405300  0.70060000  1
  Zn  Zn0  1  0.13352500  0.87856000  0.92108900  1
  Zn  Zn1  1  0.86647500  0.62144000  0.42108900  1
  Zn  Zn2  1  0.36647500  0.37856000  0.07891100  1
  Zn  Zn3  1  0.63352500  0.12144000  0.57891100  1
  Zn  Zn4  1  0.86647500  0.12144000  0.07891100  1
  Zn  Zn5  1  0.13352500  0.37856000  0.57891100  1
  Zn  Zn6  1  0.63352500  0.62144000  0.92108900  1
  Zn  Zn7  1  0.36647500  0.87856000  0.42108900  1
  S  S0  1  0.20787100  0.10519400  0.04790900  1
  S  S1  1  0.79212900  0.39480600  0.54790900  1
  S  S2  1  0.29212900  0.60519400  0.95209100  1
  S  S3  1  0.70787100  0.89480600  0.45209100  1
  S  S4  1  0.79212900  0.89480600  0.95209100  1
  S  S5  1  0.20787100  0.60519400  0.45209100  1
  S  S6  1  0.70787100  0.39480600  0.04790900  1
  S  S7  1  0.29212900  0.10519400  0.54790900  1
  S  S8  1  0.27529600  0.57767400  0.16619300  1
  S  S9  1  0.72470400  0.92232600  0.66619300  1
  S  S10  1  0.22470400  0.07767400  0.83380700  1
  S  S11  1  0.77529600  0.42232600  0.33380700  1
  S  S12  1  0.72470400  0.42232600  0.83380700  1
  S  S13  1  0.27529600  0.07767400  0.33380700  1
  S  S14  1  0.77529600  0.92232600  0.16619300  1
  S  S15  1  0.22470400  0.57767400  0.66619300  1
loop_
_geom_bond_atom_site_label_1
_geom_bond_atom_site_label_2
_geom_bond_distance
_geom_bond_site_symmetry_2
Na0 S8 2.767727 1_655
Na0 S6 2.847310 1_555
Na0 S14 2.879920 1_555
Na0 S4 2.957272 1_554
Na0 S2 3.040301 1_654
Na0 S0 3.370694 1_665
Na1 S9 2.767727 1_455
Na1 S7 2.847310 1_565
Na1 S15 2.879920 1_555
Na1 S5 2.957272 1_555
Na1 S3 3.040301 1_455
Na1 S1 3.370694 1_455
Na2 S10 2.767727 1_555
Na2 S4 2.847310 1_545
Na2 S12 2.879920 1_555
Na2 S6 2.957272 1_556
Na2 S0 3.040301 1_556
Na2 S2 3.370694 1_555
Na3 S11 2.767727 1_555
Na3 S5 2.847310 1_555
Na3 S13 2.879920 1_555
Na3 S7 2.957272 1_555
Na3 S1 3.040301 1_555
Na3 S3 3.370694 1_545
Na4 S12 2.767727 1_455
Na4 S2 2.847310 1_555
Na4 S10 2.879920 1_555
Na4 S0 2.957272 1_556
Na4 S6 3.040301 1_456
Na4 S4 3.370694 1_445
Na5 S13 2.767727 1_655
Na5 S3 2.847310 1_545
Na5 S11 2.879920 1_555
Na5 S1 2.957272 1_555
Na5 S7 3.040301 1_655
Na5 S5 3.370694 1_655
Na6 S14 2.767727 1_555
Na6 S0 2.847310 1_565
Na6 S8 2.879920 1_555
Na6 S2 2.957272 1_554
Na6 S4 3.040301 1_554
Na6 S6 3.370694 1_555
Na7 S15 2.767727 1_555
Na7 S1 2.847310 1_555
Na7 S9 2.879920 1_555
Na7 S3 2.957272 1_555
Na7 S5 3.040301 1_555
Na7 S7 3.370694 1_565
Na8 S11 2.717020 1_555
Na8 S8 2.805193 1_555
Na8 S14 2.862064 1_555
Na8 S6 3.052219 1_555
Na9 S10 2.717020 1_565
Na9 S9 2.805193 1_555
Na9 S15 2.862064 1_555
Na9 S7 3.052219 1_565
Na10 S9 2.717020 1_545
Na10 S10 2.805193 1_655
Na10 S12 2.862064 1_555
Na10 S4 3.052219 1_545
Na11 S8 2.717020 1_555
Na11 S11 2.805193 1_455
Na11 S13 2.862064 1_555
Na11 S5 3.052219 1_555
Na12 S15 2.717020 1_555
Na12 S12 2.805193 1_555
Na12 S10 2.862064 1_555
Na12 S2 3.052219 1_555
Na13 S14 2.717020 1_545
Na13 S13 2.805193 1_555
Na13 S11 2.862064 1_555
Na13 S3 3.052219 1_545
Na14 S13 2.717020 1_565
Na14 S14 2.805193 1_455
Na14 S8 2.862064 1_555
Na14 S0 3.052219 1_565
Na15 S12 2.717020 1_555
Na15 S15 2.805193 1_655
Na15 S9 2.862064 1_555
Na15 S1 3.052219 1_555
S0 Zn2 2.306421 1_555
S0 Zn4 2.380757 1_455
S0 Zn0 2.915227 1_544
S1 Zn3 2.306421 1_555
S1 Zn5 2.380757 1_655
S1 Zn1 2.915227 1_555
S2 Zn0 2.306421 1_555
S2 Zn6 2.380757 1_555
S2 Zn2 2.915227 1_556
S3 Zn1 2.306421 1_555
S3 Zn7 2.380757 1_555
S3 Zn3 2.915227 1_565
S4 Zn6 2.306421 1_555
S4 Zn0 2.380757 1_655
S4 Zn4 2.915227 1_566
S5 Zn7 2.306421 1_555
S5 Zn1 2.380757 1_455
S5 Zn5 2.915227 1_555
S6 Zn4 2.306421 1_555
S6 Zn2 2.380757 1_555
S6 Zn6 2.915227 1_554
S7 Zn5 2.306421 1_555
S7 Zn3 2.380757 1_555
S7 Zn7 2.915227 1_545
S8 Zn2 2.252057 1_555
S9 Zn3 2.252057 1_565
S10 Zn0 2.252057 1_545
S11 Zn1 2.252057 1_555
S12 Zn6 2.252057 1_555
S13 Zn7 2.252057 1_545
S14 Zn4 2.252057 1_565
S15 Zn5 2.252057 1_555
