# generated using pymatgen
data_LaSeCl
_symmetry_space_group_name_H-M   'P 1'
_cell_length_a   4.36310097
_cell_length_b   7.64304934
_cell_length_c   9.14306552
_cell_angle_alpha   90.00000000
_cell_angle_beta   90.00000000
_cell_angle_gamma   90.00000000
_symmetry_Int_Tables_number   1
_chemical_formula_structural   LaSeCl
_chemical_formula_sum   'La4 Se4 Cl4'
_cell_volume   304.89742645
_cell_formula_units_Z   4
loop_
 _symmetry_equiv_pos_site_id
 _symmetry_equiv_pos_as_xyz
  1  'x, y, z'
loop_
 _atom_site_type_symbol
 _atom_site_label
 _atom_site_symmetry_multiplicity
 _atom_site_fract_x
 _atom_site_fract_y
 _atom_site_fract_z
 _atom_site_occupancy
  La  La0  1  0.25000000  0.25871156  0.36860349  1
  La  La1  1  0.25000000  0.75871156  0.13139651  1
  La  La2  1  0.75000000  0.74128844  0.63139651  1
  La  La3  1  0.75000000  0.24128844  0.86860349  1
  Se  Se0  1  0.25000000  0.45904782  0.67169731  1
  Se  Se1  1  0.25000000  0.95904782  0.82830269  1
  Se  Se2  1  0.75000000  0.54095218  0.32830269  1
  Se  Se3  1  0.75000000  0.04095218  0.17169731  1
  Cl  Cl0  1  0.25000000  0.86507098  0.44024660  1
  Cl  Cl1  1  0.25000000  0.36507098  0.05975340  1
  Cl  Cl2  1  0.75000000  0.13492902  0.55975340  1
  Cl  Cl3  1  0.75000000  0.63492902  0.94024660  1
loop_
_geom_bond_atom_site_label_1
_geom_bond_atom_site_label_2
_geom_bond_distance
_geom_bond_site_symmetry_2
La0 Se2 3.090041 1_455
La0 Se2 3.090041 1_555
La0 Se0 3.166086 1_555
La0 Se3 3.281826 1_555
La0 Se3 3.281826 1_455
La1 Se3 3.090041 1_565
La1 Se3 3.090041 1_465
La1 Se1 3.166086 1_554
La1 Se2 3.281826 1_455
La1 Se2 3.281826 1_555
La2 Se0 3.090041 1_555
La2 Se0 3.090041 1_655
La2 Se2 3.166086 1_555
La2 Se1 3.281826 1_555
La2 Se1 3.281826 1_655
La3 Se1 3.090041 1_645
La3 Se1 3.090041 1_545
La3 Se3 3.166086 1_556
La3 Se0 3.281826 1_555
La3 Se0 3.281826 1_655
Cl0 La1 2.938516 1_555
Cl0 La2 2.951045 1_555
Cl0 La2 2.951045 1_455
Cl0 La0 3.079096 1_565
Cl1 La0 2.938516 1_555
Cl1 La3 2.951045 1_554
Cl1 La3 2.951045 1_454
Cl1 La1 3.079096 1_555
Cl2 La3 2.938516 1_555
Cl2 La0 2.951045 1_655
Cl2 La0 2.951045 1_555
Cl2 La2 3.079096 1_545
Cl3 La2 2.938516 1_555
Cl3 La1 2.951045 1_656
Cl3 La1 2.951045 1_556
Cl3 La3 3.079096 1_555
