# generated using pymatgen
data_Eu3Mg
_symmetry_space_group_name_H-M   'P 1'
_cell_length_a   7.93927600
_cell_length_b   12.08962000
_cell_length_c   12.41888200
_cell_angle_alpha   90.00000000
_cell_angle_beta   90.00000000
_cell_angle_gamma   90.00000000
_symmetry_Int_Tables_number   1
_chemical_formula_structural   Eu3Mg
_chemical_formula_sum   'Eu24 Mg8'
_cell_volume   1191.99943874
_cell_formula_units_Z   8
loop_
 _symmetry_equiv_pos_site_id
 _symmetry_equiv_pos_as_xyz
  1  'x, y, z'
loop_
 _atom_site_type_symbol
 _atom_site_label
 _atom_site_symmetry_multiplicity
 _atom_site_fract_x
 _atom_site_fract_y
 _atom_site_fract_z
 _atom_site_occupancy
  Eu  Eu0_0  1  0.00000000  0.00000000  0.49406750  1
  Eu  Eu0_1  1  0.00000000  0.00000000  0.99406750  1
  Eu  Eu0_2  1  0.00000000  0.50000000  0.49406750  1
  Eu  Eu0_3  1  0.00000000  0.50000000  0.99406750  1
  Eu  Eu0_4  1  0.50000000  0.00000000  0.49406750  1
  Eu  Eu0_5  1  0.50000000  0.00000000  0.99406750  1
  Eu  Eu0_6  1  0.50000000  0.50000000  0.49406750  1
  Eu  Eu0_7  1  0.50000000  0.50000000  0.99406750  1
  Eu  Eu1_0  1  0.25000000  0.00000000  0.23803000  1
  Eu  Eu1_1  1  0.25000000  0.00000000  0.73803000  1
  Eu  Eu1_2  1  0.25000000  0.50000000  0.23803000  1
  Eu  Eu1_3  1  0.25000000  0.50000000  0.73803000  1
  Eu  Eu1_4  1  0.75000000  0.00000000  0.23803000  1
  Eu  Eu1_5  1  0.75000000  0.00000000  0.73803000  1
  Eu  Eu1_6  1  0.75000000  0.50000000  0.23803000  1
  Eu  Eu1_7  1  0.75000000  0.50000000  0.73803000  1
  Eu  Eu2_0  1  0.25000000  0.25000000  0.42507100  1
  Eu  Eu2_1  1  0.25000000  0.25000000  0.92507100  1
  Eu  Eu2_2  1  0.25000000  0.75000000  0.42507100  1
  Eu  Eu2_3  1  0.25000000  0.75000000  0.92507100  1
  Eu  Eu2_4  1  0.75000000  0.25000000  0.42507100  1
  Eu  Eu2_5  1  0.75000000  0.25000000  0.92507100  1
  Eu  Eu2_6  1  0.75000000  0.75000000  0.42507100  1
  Eu  Eu2_7  1  0.75000000  0.75000000  0.92507100  1
  Mg  Mg0_0  1  0.00000000  0.25000000  0.17616450  1
  Mg  Mg0_1  1  0.00000000  0.25000000  0.67616450  1
  Mg  Mg0_2  1  0.00000000  0.75000000  0.17616450  1
  Mg  Mg0_3  1  0.00000000  0.75000000  0.67616450  1
  Mg  Mg0_4  1  0.50000000  0.25000000  0.17616450  1
  Mg  Mg0_5  1  0.50000000  0.25000000  0.67616450  1
  Mg  Mg0_6  1  0.50000000  0.75000000  0.17616450  1
  Mg  Mg0_7  1  0.50000000  0.75000000  0.67616450  1
loop_
_geom_bond_atom_site_label_1
_geom_bond_atom_site_label_2
_geom_bond_distance
_geom_bond_site_symmetry_2
Eu0_0 Eu1_1 3.621994 1_555
Eu0_0 Eu1_5 3.621994 1_455
Eu0_0 Eu2_0 3.715999 1_555
Eu0_0 Eu2_2 3.715999 1_545
Eu0_0 Eu2_4 3.715999 1_455
Eu0_0 Eu2_6 3.715999 1_445
Eu0_0 Eu1_0 3.748332 1_555
Eu0_0 Eu1_4 3.748332 1_455
Eu0_0 Mg0_3 3.774791 1_545
Eu0_0 Mg0_1 3.774791 1_555
Eu0_0 Eu0_4 3.969638 1_555
Eu0_0 Eu0_4 3.969638 1_455
Eu0_1 Eu1_0 3.621994 1_556
Eu0_1 Eu1_4 3.621994 1_456
Eu0_1 Eu2_1 3.715999 1_555
Eu0_1 Eu2_3 3.715999 1_545
Eu0_1 Eu2_5 3.715999 1_455
Eu0_1 Eu2_7 3.715999 1_445
Eu0_1 Eu1_1 3.748332 1_555
Eu0_1 Eu1_5 3.748332 1_455
Eu0_1 Mg0_2 3.774791 1_546
Eu0_1 Mg0_0 3.774791 1_556
Eu0_1 Eu0_5 3.969638 1_555
Eu0_1 Eu0_5 3.969638 1_455
Eu0_2 Eu1_3 3.621994 1_555
Eu0_2 Eu1_7 3.621994 1_455
Eu0_2 Eu2_0 3.715999 1_555
Eu0_2 Eu2_2 3.715999 1_555
Eu0_2 Eu2_4 3.715999 1_455
Eu0_2 Eu2_6 3.715999 1_455
Eu0_2 Eu1_2 3.748332 1_555
Eu0_2 Eu1_6 3.748332 1_455
Eu0_2 Mg0_3 3.774791 1_555
Eu0_2 Mg0_1 3.774791 1_555
Eu0_2 Eu0_6 3.969638 1_555
Eu0_2 Eu0_6 3.969638 1_455
Eu0_3 Eu1_2 3.621994 1_556
Eu0_3 Eu1_6 3.621994 1_456
Eu0_3 Eu2_3 3.715999 1_555
Eu0_3 Eu2_1 3.715999 1_555
Eu0_3 Eu2_5 3.715999 1_455
Eu0_3 Eu2_7 3.715999 1_455
Eu0_3 Eu1_3 3.748332 1_555
Eu0_3 Eu1_7 3.748332 1_455
Eu0_3 Mg0_0 3.774791 1_556
Eu0_3 Mg0_2 3.774791 1_556
Eu0_3 Eu0_7 3.969638 1_555
Eu0_3 Eu0_7 3.969638 1_455
Eu0_4 Eu1_5 3.621994 1_555
Eu0_4 Eu1_1 3.621994 1_555
Eu0_4 Eu2_4 3.715999 1_555
Eu0_4 Eu2_6 3.715999 1_545
Eu0_4 Eu2_0 3.715999 1_555
Eu0_4 Eu2_2 3.715999 1_545
Eu0_4 Eu1_0 3.748332 1_555
Eu0_4 Eu1_4 3.748332 1_555
Eu0_4 Mg0_7 3.774791 1_545
Eu0_4 Mg0_5 3.774791 1_555
Eu0_5 Eu1_4 3.621994 1_556
Eu0_5 Eu1_0 3.621994 1_556
Eu0_5 Eu2_5 3.715999 1_555
Eu0_5 Eu2_7 3.715999 1_545
Eu0_5 Eu2_1 3.715999 1_555
Eu0_5 Eu2_3 3.715999 1_545
Eu0_5 Eu1_1 3.748332 1_555
Eu0_5 Eu1_5 3.748332 1_555
Eu0_5 Mg0_4 3.774791 1_556
Eu0_5 Mg0_6 3.774791 1_546
Eu0_6 Eu1_7 3.621994 1_555
Eu0_6 Eu1_3 3.621994 1_555
Eu0_6 Eu2_4 3.715999 1_555
Eu0_6 Eu2_6 3.715999 1_555
Eu0_6 Eu2_0 3.715999 1_555
Eu0_6 Eu2_2 3.715999 1_555
Eu0_6 Eu1_2 3.748332 1_555
Eu0_6 Eu1_6 3.748332 1_555
Eu0_6 Mg0_7 3.774791 1_555
Eu0_6 Mg0_5 3.774791 1_555
Eu0_7 Eu1_6 3.621994 1_556
Eu0_7 Eu1_2 3.621994 1_556
Eu0_7 Eu2_7 3.715999 1_555
Eu0_7 Eu2_5 3.715999 1_555
Eu0_7 Eu2_3 3.715999 1_555
Eu0_7 Eu2_1 3.715999 1_555
Eu0_7 Eu1_3 3.748332 1_555
Eu0_7 Eu1_7 3.748332 1_555
Eu0_7 Mg0_4 3.774791 1_556
Eu0_7 Mg0_6 3.774791 1_556
Eu1_0 Mg0_2 3.696583 1_545
Eu1_0 Mg0_0 3.696583 1_555
Eu1_0 Mg0_4 3.696583 1_555
Eu1_0 Mg0_6 3.696583 1_545
Eu1_0 Eu2_2 3.811892 1_545
Eu1_0 Eu2_0 3.811892 1_555
Eu1_0 Eu1_4 3.969638 1_555
Eu1_0 Eu1_4 3.969638 1_455
Eu1_1 Mg0_5 3.696583 1_555
Eu1_1 Mg0_3 3.696583 1_545
Eu1_1 Mg0_7 3.696583 1_545
Eu1_1 Mg0_1 3.696583 1_555
Eu1_1 Eu2_3 3.811892 1_545
Eu1_1 Eu2_1 3.811892 1_555
Eu1_1 Eu1_5 3.969638 1_555
Eu1_1 Eu1_5 3.969638 1_455
Eu1_2 Mg0_6 3.696583 1_555
Eu1_2 Mg0_0 3.696583 1_555
Eu1_2 Mg0_4 3.696583 1_555
Eu1_2 Mg0_2 3.696583 1_555
Eu1_2 Eu2_2 3.811892 1_555
Eu1_2 Eu2_0 3.811892 1_555
Eu1_2 Eu1_6 3.969638 1_555
Eu1_2 Eu1_6 3.969638 1_455
Eu1_3 Mg0_5 3.696583 1_555
Eu1_3 Mg0_3 3.696583 1_555
Eu1_3 Mg0_7 3.696583 1_555
Eu1_3 Mg0_1 3.696583 1_555
Eu1_3 Eu2_1 3.811892 1_555
Eu1_3 Eu2_3 3.811892 1_555
Eu1_3 Eu1_7 3.969638 1_555
Eu1_3 Eu1_7 3.969638 1_455
Eu1_4 Mg0_4 3.696583 1_555
Eu1_4 Mg0_6 3.696583 1_545
Eu1_4 Mg0_0 3.696583 1_655
Eu1_4 Mg0_2 3.696583 1_645
Eu1_4 Eu2_6 3.811892 1_545
Eu1_4 Eu2_4 3.811892 1_555
Eu1_5 Mg0_5 3.696583 1_555
Eu1_5 Mg0_7 3.696583 1_545
Eu1_5 Mg0_1 3.696583 1_655
Eu1_5 Mg0_3 3.696583 1_645
Eu1_5 Eu2_7 3.811892 1_545
Eu1_5 Eu2_5 3.811892 1_555
Eu1_6 Mg0_6 3.696583 1_555
Eu1_6 Mg0_4 3.696583 1_555
Eu1_6 Mg0_0 3.696583 1_655
Eu1_6 Mg0_2 3.696583 1_655
Eu1_6 Eu2_6 3.811892 1_555
Eu1_6 Eu2_4 3.811892 1_555
Eu1_7 Mg0_5 3.696583 1_555
Eu1_7 Mg0_7 3.696583 1_555
Eu1_7 Mg0_1 3.696583 1_655
Eu1_7 Mg0_3 3.696583 1_655
Eu1_7 Eu2_7 3.811892 1_555
Eu1_7 Eu2_5 3.811892 1_555
Eu2_0 Mg0_0 3.673507 1_555
Eu2_0 Mg0_4 3.673507 1_555
Eu2_0 Mg0_5 3.696391 1_555
Eu2_0 Mg0_1 3.696391 1_555
Eu2_0 Eu2_4 3.969638 1_555
Eu2_0 Eu2_4 3.969638 1_455
Eu2_1 Mg0_5 3.673507 1_555
Eu2_1 Mg0_1 3.673507 1_555
Eu2_1 Mg0_0 3.696391 1_556
Eu2_1 Mg0_4 3.696391 1_556
Eu2_1 Eu2_5 3.969638 1_555
Eu2_1 Eu2_5 3.969638 1_455
Eu2_2 Mg0_6 3.673507 1_555
Eu2_2 Mg0_2 3.673507 1_555
Eu2_2 Mg0_3 3.696391 1_555
Eu2_2 Mg0_7 3.696391 1_555
Eu2_2 Eu2_6 3.969638 1_555
Eu2_2 Eu2_6 3.969638 1_455
Eu2_3 Mg0_3 3.673507 1_555
Eu2_3 Mg0_7 3.673507 1_555
Eu2_3 Mg0_6 3.696391 1_556
Eu2_3 Mg0_2 3.696391 1_556
Eu2_3 Eu2_7 3.969638 1_555
Eu2_3 Eu2_7 3.969638 1_455
Eu2_4 Mg0_4 3.673507 1_555
Eu2_4 Mg0_0 3.673507 1_655
Eu2_4 Mg0_5 3.696391 1_555
Eu2_4 Mg0_1 3.696391 1_655
Eu2_5 Mg0_5 3.673507 1_555
Eu2_5 Mg0_1 3.673507 1_655
Eu2_5 Mg0_4 3.696391 1_556
Eu2_5 Mg0_0 3.696391 1_656
Eu2_6 Mg0_6 3.673507 1_555
Eu2_6 Mg0_2 3.673507 1_655
Eu2_6 Mg0_7 3.696391 1_555
Eu2_6 Mg0_3 3.696391 1_655
Eu2_7 Mg0_7 3.673507 1_555
Eu2_7 Mg0_3 3.673507 1_655
Eu2_7 Mg0_6 3.696391 1_556
Eu2_7 Mg0_2 3.696391 1_656
