# generated using pymatgen
data_Pr2MgSe4
_symmetry_space_group_name_H-M   'P 1'
_cell_length_a   13.69182162
_cell_length_b   8.20516025
_cell_length_c   13.69109848
_cell_angle_alpha   90.00000000
_cell_angle_beta   90.00000000
_cell_angle_gamma   90.00000000
_symmetry_Int_Tables_number   1
_chemical_formula_structural   Pr2MgSe4
_chemical_formula_sum   'Pr16 Mg8 Se32'
_cell_volume   1538.10716122
_cell_formula_units_Z   8
loop_
 _symmetry_equiv_pos_site_id
 _symmetry_equiv_pos_as_xyz
  1  'x, y, z'
loop_
 _atom_site_type_symbol
 _atom_site_label
 _atom_site_symmetry_multiplicity
 _atom_site_fract_x
 _atom_site_fract_y
 _atom_site_fract_z
 _atom_site_occupancy
  Pr  Pr0  1  0.10833840  0.88573131  0.68476332  1
  Pr  Pr1  1  0.89166160  0.11426869  0.18476332  1
  Pr  Pr2  1  0.39166160  0.88573131  0.18476332  1
  Pr  Pr3  1  0.60833840  0.11426869  0.68476332  1
  Pr  Pr4  1  0.12673285  0.38381152  0.32625607  1
  Pr  Pr5  1  0.87326715  0.61618848  0.82625607  1
  Pr  Pr6  1  0.37326715  0.38381152  0.82625607  1
  Pr  Pr7  1  0.62673285  0.61618848  0.32625607  1
  Pr  Pr8  1  0.13457459  0.63079894  0.99310343  1
  Pr  Pr9  1  0.86542541  0.36920106  0.49310343  1
  Pr  Pr10  1  0.36542541  0.63079894  0.49310343  1
  Pr  Pr11  1  0.63457459  0.36920106  0.99310343  1
  Pr  Pr12  1  0.13525521  0.13096843  0.99375729  1
  Pr  Pr13  1  0.86474479  0.86903157  0.49375729  1
  Pr  Pr14  1  0.36474479  0.13096843  0.49375729  1
  Pr  Pr15  1  0.63525521  0.86903157  0.99375729  1
  Mg  Mg0  1  0.11212268  0.38541075  0.69317316  1
  Mg  Mg1  1  0.88787732  0.61458925  0.19317316  1
  Mg  Mg2  1  0.38787732  0.38541075  0.19317316  1
  Mg  Mg3  1  0.61212268  0.61458925  0.69317316  1
  Mg  Mg4  1  0.12609647  0.88031575  0.31992290  1
  Mg  Mg5  1  0.87390353  0.11968425  0.81992290  1
  Mg  Mg6  1  0.37390353  0.88031575  0.81992290  1
  Mg  Mg7  1  0.62609647  0.11968425  0.31992290  1
  Se  Se0  1  0.00991019  0.88271136  0.88022304  1
  Se  Se1  1  0.99008981  0.11728864  0.38022304  1
  Se  Se2  1  0.49008981  0.88271136  0.38022304  1
  Se  Se3  1  0.50991019  0.11728864  0.88022304  1
  Se  Se4  1  0.02781024  0.38393456  0.12841925  1
  Se  Se5  1  0.97218976  0.61606544  0.62841925  1
  Se  Se6  1  0.47218976  0.38393456  0.62841925  1
  Se  Se7  1  0.52781024  0.61606544  0.12841925  1
  Se  Se8  1  0.02622296  0.37306963  0.86687113  1
  Se  Se9  1  0.97377704  0.62693037  0.36687113  1
  Se  Se10  1  0.47377704  0.37306963  0.36687113  1
  Se  Se11  1  0.52622296  0.62693037  0.86687113  1
  Se  Se12  1  0.04772260  0.87424698  0.13997277  1
  Se  Se13  1  0.95227740  0.12575302  0.63997277  1
  Se  Se14  1  0.45227740  0.87424698  0.63997277  1
  Se  Se15  1  0.54772260  0.12575302  0.13997277  1
  Se  Se16  1  0.20884616  0.88167619  0.49566938  1
  Se  Se17  1  0.79115384  0.11832381  0.99566938  1
  Se  Se18  1  0.29115384  0.88167619  0.99566938  1
  Se  Se19  1  0.70884616  0.11832381  0.49566938  1
  Se  Se20  1  0.20980291  0.38186555  0.52424909  1
  Se  Se21  1  0.79019709  0.61813445  0.02424909  1
  Se  Se22  1  0.29019709  0.38186555  0.02424909  1
  Se  Se23  1  0.70980291  0.61813445  0.52424909  1
  Se  Se24  1  0.23162053  0.13462252  0.77339354  1
  Se  Se25  1  0.76837947  0.86537748  0.27339354  1
  Se  Se26  1  0.26837947  0.13462252  0.27339354  1
  Se  Se27  1  0.73162053  0.86537748  0.77339354  1
  Se  Se28  1  0.23309094  0.63787847  0.77722662  1
  Se  Se29  1  0.76690906  0.36212153  0.27722662  1
  Se  Se30  1  0.26690906  0.63787847  0.27722662  1
  Se  Se31  1  0.73309094  0.36212153  0.77722662  1
loop_
_geom_bond_atom_site_label_1
_geom_bond_atom_site_label_2
_geom_bond_distance
_geom_bond_site_symmetry_2
Pr0 Se24 2.914137 1_565
Pr0 Se16 2.932111 1_555
Pr0 Se28 2.942101 1_555
Pr0 Se13 2.969915 1_465
Pr0 Se5 2.994304 1_455
Pr0 Se0 2.996347 1_555
Pr1 Se25 2.914137 1_545
Pr1 Se17 2.932111 1_554
Pr1 Se29 2.942101 1_555
Pr1 Se12 2.969915 1_645
Pr1 Se4 2.994304 1_655
Pr1 Se1 2.996347 1_555
Pr2 Se26 2.914137 1_565
Pr2 Se18 2.932111 1_554
Pr2 Se30 2.942101 1_555
Pr2 Se15 2.969915 1_565
Pr2 Se7 2.994304 1_555
Pr2 Se2 2.996347 1_555
Pr3 Se27 2.914137 1_545
Pr3 Se19 2.932111 1_555
Pr3 Se31 2.942101 1_555
Pr3 Se14 2.969915 1_545
Pr3 Se6 2.994304 1_555
Pr3 Se3 2.996347 1_555
Pr4 Se26 2.909573 1_555
Pr4 Se30 2.912043 1_555
Pr4 Se20 2.939730 1_555
Pr4 Se9 2.945235 1_455
Pr4 Se1 2.971284 1_455
Pr4 Se4 3.028369 1_555
Pr5 Se27 2.909573 1_555
Pr5 Se31 2.912043 1_555
Pr5 Se21 2.939730 1_556
Pr5 Se8 2.945235 1_655
Pr5 Se0 2.971284 1_655
Pr5 Se5 3.028369 1_555
Pr6 Se24 2.909573 1_555
Pr6 Se28 2.912043 1_555
Pr6 Se22 2.939730 1_556
Pr6 Se11 2.945235 1_555
Pr6 Se3 2.971284 1_555
Pr6 Se6 3.028369 1_555
Pr7 Se25 2.909573 1_555
Pr7 Se29 2.912043 1_555
Pr7 Se23 2.939730 1_555
Pr7 Se10 2.945235 1_555
Pr7 Se2 2.971284 1_555
Pr7 Se7 3.028369 1_555
Pr8 Se18 2.972326 1_555
Pr8 Se22 2.982267 1_556
Pr8 Se12 3.073688 1_556
Pr8 Se0 3.094236 1_555
Pr8 Se8 3.108013 1_555
Pr8 Se4 3.109978 1_556
Pr8 Se28 3.249359 1_555
Pr9 Se19 2.972326 1_555
Pr9 Se23 2.982267 1_555
Pr9 Se13 3.073688 1_555
Pr9 Se1 3.094236 1_555
Pr9 Se9 3.108013 1_555
Pr9 Se5 3.109978 1_555
Pr9 Se29 3.249359 1_555
Pr10 Se16 2.972326 1_555
Pr10 Se20 2.982267 1_555
Pr10 Se14 3.073688 1_555
Pr10 Se2 3.094236 1_555
Pr10 Se10 3.108013 1_555
Pr10 Se6 3.109978 1_555
Pr10 Se30 3.249359 1_555
Pr11 Se17 2.972326 1_555
Pr11 Se21 2.982267 1_556
Pr11 Se15 3.073688 1_556
Pr11 Se3 3.094236 1_555
Pr11 Se11 3.108013 1_555
Pr11 Se7 3.109978 1_556
Pr11 Se31 3.249359 1_555
Pr12 Se18 2.956506 1_545
Pr12 Se22 2.985434 1_556
Pr12 Se8 3.031931 1_555
Pr12 Se0 3.083968 1_545
Pr12 Se4 3.141900 1_556
Pr12 Se12 3.143383 1_546
Pr12 Se24 3.293050 1_555
Pr13 Se19 2.956506 1_565
Pr13 Se23 2.985434 1_555
Pr13 Se9 3.031931 1_555
Pr13 Se1 3.083968 1_565
Pr13 Se5 3.141900 1_555
Pr13 Se13 3.143383 1_565
Pr13 Se25 3.293050 1_555
Pr14 Se16 2.956506 1_545
Pr14 Se20 2.985434 1_555
Pr14 Se10 3.031931 1_555
Pr14 Se2 3.083968 1_545
Pr14 Se6 3.141900 1_555
Pr14 Se14 3.143383 1_545
Pr14 Se26 3.293050 1_555
Pr15 Se17 2.956506 1_565
Pr15 Se21 2.985434 1_556
Pr15 Se11 3.031931 1_555
Pr15 Se3 3.083968 1_565
Pr15 Se7 3.141900 1_556
Pr15 Se15 3.143383 1_566
Pr15 Se27 3.293050 1_555
Mg0 Se8 2.654987 1_555
Mg0 Se20 2.671775 1_555
Mg0 Se5 2.835237 1_455
Mg0 Se24 2.849141 1_555
Mg0 Se28 2.891163 1_555
Mg0 Se13 3.139992 1_455
Mg1 Se9 2.654987 1_555
Mg1 Se21 2.671775 1_555
Mg1 Se4 2.835237 1_655
Mg1 Se25 2.849141 1_555
Mg1 Se29 2.891163 1_555
Mg1 Se12 3.139992 1_655
Mg2 Se10 2.654987 1_555
Mg2 Se22 2.671775 1_555
Mg2 Se7 2.835237 1_555
Mg2 Se26 2.849141 1_555
Mg2 Se30 2.891163 1_555
Mg2 Se15 3.139992 1_555
Mg3 Se11 2.654987 1_555
Mg3 Se23 2.671775 1_555
Mg3 Se6 2.835237 1_555
Mg3 Se27 2.849141 1_555
Mg3 Se31 2.891163 1_555
Mg3 Se14 3.139992 1_555
Mg4 Se16 2.659590 1_555
Mg4 Se12 2.687727 1_555
Mg4 Se1 2.816022 1_465
Mg4 Se30 2.831233 1_555
Mg4 Se26 2.924890 1_565
Mg4 Se9 3.014153 1_455
Mg5 Se17 2.659590 1_555
Mg5 Se13 2.687727 1_555
Mg5 Se0 2.816022 1_645
Mg5 Se31 2.831233 1_555
Mg5 Se27 2.924890 1_545
Mg5 Se8 3.014153 1_655
Mg6 Se18 2.659590 1_555
Mg6 Se14 2.687727 1_555
Mg6 Se3 2.816022 1_565
Mg6 Se28 2.831233 1_555
Mg6 Se24 2.924890 1_565
Mg6 Se11 3.014153 1_555
Mg7 Se19 2.659590 1_555
Mg7 Se15 2.687727 1_555
Mg7 Se2 2.816022 1_545
Mg7 Se29 2.831233 1_555
Mg7 Se25 2.924890 1_545
Mg7 Se10 3.014153 1_555
