# generated using pymatgen
data_MgVCr2Fe3(PO4)6
_symmetry_space_group_name_H-M   'P 1'
_cell_length_a   8.58848974
_cell_length_b   8.69728436
_cell_length_c   8.68144493
_cell_angle_alpha   59.99527107
_cell_angle_beta   60.99381633
_cell_angle_gamma   60.66846163
_symmetry_Int_Tables_number   1
_chemical_formula_structural   MgVCr2Fe3(PO4)6
_chemical_formula_sum   'Mg1 V1 Cr2 Fe3 P6 O24'
_cell_volume   464.19209771
_cell_formula_units_Z   1
loop_
 _symmetry_equiv_pos_site_id
 _symmetry_equiv_pos_as_xyz
  1  'x, y, z'
loop_
 _atom_site_type_symbol
 _atom_site_label
 _atom_site_symmetry_multiplicity
 _atom_site_fract_x
 _atom_site_fract_y
 _atom_site_fract_z
 _atom_site_occupancy
  Mg  Mg0  1  0.87766700  0.37632700  0.37747400  1
  V  V0  1  0.59170300  0.13593400  0.13812300  1
  Cr  Cr0  1  0.00267100  0.99759200  0.99644200  1
  Cr  Cr1  1  0.47360000  0.50857600  0.50800000  1
  Fe  Fe0  1  0.03317700  0.65550400  0.65927700  1
  Fe  Fe1  1  0.42841700  0.85944500  0.85488300  1
  Fe  Fe2  1  0.23215500  0.25387100  0.25393800  1
  P  P0  1  0.24527300  0.25647400  0.55007300  1
  P  P1  1  0.23769300  0.94793200  0.25495000  1
  P  P2  1  0.24696500  0.55177600  0.94406000  1
  P  P3  1  0.72368900  0.46877100  0.05613600  1
  P  P4  1  0.73309000  0.05099200  0.75538800  1
  P  P5  1  0.72497200  0.75421500  0.46894200  1
  O  O0  1  0.06478000  0.11016000  0.31418400  1
  O  O1  1  0.07220600  0.50409000  0.10840200  1
  O  O2  1  0.06896600  0.31642500  0.49937700  1
  O  O3  1  0.22961900  0.09966300  0.74333700  1
  O  O4  1  0.41573200  0.19944900  0.38457800  1
  O  O5  1  0.26520900  0.42116000  0.55835400  1
  O  O6  1  0.21756400  0.92879100  0.09786200  1
  O  O7  1  0.26125600  0.75457200  0.41920600  1
  O  O8  1  0.54946300  0.61034600  0.99888000  1
  O  O9  1  0.26378200  0.55733000  0.75296500  1
  O  O10  1  0.76208500  0.26596800  0.07252200  1
  O  O11  1  0.55899300  0.99245900  0.84713000  1
  O  O12  1  0.41286600  0.00181600  0.19473300  1
  O  O13  1  0.23382300  0.74535000  0.91685500  1
  O  O14  1  0.68459000  0.46317000  0.25542400  1
  O  O15  1  0.41994000  0.38201600  0.99776200  1
  O  O16  1  0.68745600  0.25202600  0.60321100  1
  O  O17  1  0.77923800  0.06476100  0.90268900  1
  O  O18  1  0.68118700  0.60169000  0.46375800  1
  O  O19  1  0.55537300  0.84395700  0.60722700  1
  O  O20  1  0.76500400  0.90275300  0.26493800  1
  O  O21  1  0.90633000  0.66936400  0.51795800  1
  O  O22  1  0.90251500  0.51802000  0.90989100  1
  O  O23  1  0.90970300  0.90694400  0.67295000  1
loop_
_geom_bond_atom_site_label_1
_geom_bond_atom_site_label_2
_geom_bond_distance
_geom_bond_site_symmetry_2
Mg0 O14 2.029635 1_555
Mg0 O16 2.045615 1_555
Mg0 O18 2.062167 1_555
Mg0 O2 2.094509 1_655
Mg0 O1 2.218276 1_655
Mg0 O0 2.239285 1_655
Cr0 O6 2.122870 1_556
Cr0 O17 2.151037 1_465
Cr0 O3 2.237451 1_565
Cr0 O13 2.269407 1_555
Cr0 O20 2.322169 1_456
Cr0 O10 2.376363 1_466
Cr1 O5 2.052888 1_555
Cr1 O9 2.094380 1_555
Cr1 O7 2.094942 1_555
Cr1 O18 2.102692 1_555
Cr1 O14 2.135219 1_555
Cr1 O16 2.155913 1_555
Fe0 O21 1.930332 1_455
Fe0 O22 1.941035 1_455
Fe0 O23 1.945882 1_455
Fe0 O9 2.126976 1_555
Fe0 O7 2.195787 1_555
Fe0 O5 2.237501 1_555
Fe1 O8 1.918912 1_555
Fe1 O19 1.924014 1_555
Fe1 O11 1.928856 1_555
Fe1 O13 2.070297 1_555
Fe1 O3 2.074374 1_565
Fe1 O6 2.142544 1_556
Fe2 O1 2.055179 1_555
Fe2 O0 2.068701 1_555
Fe2 O2 2.077652 1_555
Fe2 O4 2.112409 1_555
Fe2 O12 2.120992 1_555
Fe2 O15 2.143086 1_554
O0 P1 1.546868 1_545
O1 P2 1.549718 1_554
O2 P0 1.549735 1_555
O3 P0 1.538005 1_555
O4 P0 1.553993 1_555
O4 V0 2.096487 1_555
O5 P0 1.562441 1_555
O6 P1 1.549619 1_555
O7 P1 1.565415 1_555
O8 P3 1.518658 1_556
O9 P2 1.571535 1_555
O10 P3 1.569963 1_555
O10 V0 1.978302 1_555
O11 P4 1.521357 1_565
O12 P1 1.561839 1_545
O12 V0 2.100276 1_555
O13 P2 1.531314 1_555
O14 P3 1.573757 1_555
O15 P2 1.561591 1_555
O15 V0 2.069628 1_556
O16 P4 1.573713 1_555
O17 P4 1.580479 1_555
O17 V0 2.061767 1_556
O18 P5 1.570998 1_555
O19 P5 1.516426 1_555
O20 P5 1.574833 1_555
O20 V0 1.984716 1_565
O21 P5 1.534383 1_555
O22 P3 1.537457 1_556
O23 P4 1.537765 1_565
