# generated using pymatgen
data_ZnH9C4(NO2)3
_symmetry_space_group_name_H-M   'P 1'
_cell_length_a   8.23694440
_cell_length_b   11.59306961
_cell_length_c   8.93845216
_cell_angle_alpha   90.00000000
_cell_angle_beta   90.00000000
_cell_angle_gamma   90.00000000
_symmetry_Int_Tables_number   1
_chemical_formula_structural   ZnH9C4(NO2)3
_chemical_formula_sum   'Zn4 H36 C16 N12 O24'
_cell_volume   853.54593427
_cell_formula_units_Z   4
loop_
 _symmetry_equiv_pos_site_id
 _symmetry_equiv_pos_as_xyz
  1  'x, y, z'
loop_
 _atom_site_type_symbol
 _atom_site_label
 _atom_site_symmetry_multiplicity
 _atom_site_fract_x
 _atom_site_fract_y
 _atom_site_fract_z
 _atom_site_occupancy
  Zn  Zn0  1  0.23399491  0.25000000  0.25000000  1
  Zn  Zn1  1  0.26600509  0.75000000  0.25000000  1
  Zn  Zn2  1  0.76600509  0.75000000  0.75000000  1
  Zn  Zn3  1  0.73399491  0.25000000  0.75000000  1
  H  H0  1  0.25000000  0.00000000  0.31739535  1
  H  H1  1  0.25000000  0.50000000  0.18260465  1
  H  H2  1  0.75000000  0.00000000  0.68260465  1
  H  H3  1  0.75000000  0.50000000  0.81739535  1
  H  H4  1  0.11119797  0.78292084  0.92673555  1
  H  H5  1  0.11119797  0.71707916  0.57326445  1
  H  H6  1  0.38880202  0.28292081  0.57326445  1
  H  H7  1  0.38880202  0.21707919  0.92673555  1
  H  H8  1  0.88880205  0.21707919  0.07326444  1
  H  H9  1  0.88880205  0.28292081  0.42673555  1
  H  H10  1  0.61119795  0.71707916  0.42673555  1
  H  H11  1  0.61119795  0.78292084  0.07326444  1
  H  H12  1  0.83243621  0.91895290  0.07307391  1
  H  H13  1  0.83243621  0.58104710  0.42692609  1
  H  H14  1  0.66756379  0.41895290  0.42692609  1
  H  H15  1  0.66756379  0.08104710  0.07307391  1
  H  H16  1  0.16756380  0.08104710  0.92692609  1
  H  H17  1  0.16756380  0.41895290  0.57307391  1
  H  H18  1  0.33243618  0.58104710  0.57307391  1
  H  H19  1  0.33243618  0.91895290  0.92692609  1
  H  H20  1  0.92605029  0.87799538  0.24464455  1
  H  H21  1  0.92605029  0.62200462  0.25535546  1
  H  H22  1  0.57394971  0.37799538  0.25535546  1
  H  H23  1  0.57394971  0.12200463  0.24464455  1
  H  H24  1  0.07394971  0.12200463  0.75535543  1
  H  H25  1  0.07394971  0.37799538  0.74464457  1
  H  H26  1  0.42605029  0.62200462  0.74464457  1
  H  H27  1  0.42605029  0.87799538  0.75535543  1
  H  H28  1  0.81449911  0.93918071  0.46606963  1
  H  H29  1  0.81449911  0.56081929  0.03393038  1
  H  H30  1  0.68550089  0.43918071  0.03393038  1
  H  H31  1  0.68550089  0.06081928  0.46606963  1
  H  H32  1  0.18550087  0.06081928  0.53393040  1
  H  H33  1  0.18550087  0.43918071  0.96606960  1
  H  H34  1  0.31449911  0.56081929  0.96606960  1
  H  H35  1  0.31449911  0.93918071  0.53393040  1
  C  C0  1  0.25000000  0.00000000  0.19515777  1
  C  C1  1  0.25000000  0.50000000  0.30484223  1
  C  C2  1  0.75000000  0.00000000  0.80484220  1
  C  C3  1  0.75000000  0.50000000  0.69515780  1
  C  C4  1  0.03450043  0.71851050  0.98360596  1
  C  C5  1  0.03450043  0.78148950  0.51639404  1
  C  C6  1  0.46549958  0.21851047  0.51639404  1
  C  C7  1  0.46549958  0.28148953  0.98360596  1
  C  C8  1  0.96549958  0.28148953  0.01639401  1
  C  C9  1  0.96549958  0.21851047  0.48360599  1
  C  C10  1  0.53450042  0.78148950  0.48360599  1
  C  C11  1  0.53450042  0.71851050  0.01639401  1
  C  C12  1  0.25000000  0.00000000  0.73976302  1
  C  C13  1  0.25000000  0.50000000  0.76023698  1
  C  C14  1  0.75000000  0.00000000  0.26023701  1
  C  C15  1  0.75000000  0.50000000  0.23976300  1
  N  N0  1  0.84523066  0.92665548  0.18593088  1
  N  N1  1  0.84523066  0.57334452  0.31406913  1
  N  N2  1  0.65476934  0.42665548  0.31406913  1
  N  N3  1  0.65476934  0.07334451  0.18593088  1
  N  N4  1  0.15476935  0.07334451  0.81406910  1
  N  N5  1  0.15476935  0.42665548  0.68593090  1
  N  N6  1  0.34523066  0.57334452  0.68593090  1
  N  N7  1  0.34523066  0.92665548  0.81406910  1
  N  N8  1  0.25000000  0.00000000  0.59111687  1
  N  N9  1  0.25000000  0.50000000  0.90888313  1
  N  N10  1  0.75000000  0.00000000  0.40888313  1
  N  N11  1  0.75000000  0.50000000  0.09111688  1
  O  O0  1  0.76606815  0.90442912  0.87115612  1
  O  O1  1  0.76606815  0.59557088  0.62884388  1
  O  O2  1  0.73393185  0.40442909  0.62884388  1
  O  O3  1  0.73393185  0.09557091  0.87115612  1
  O  O4  1  0.23393188  0.09557091  0.12884386  1
  O  O5  1  0.23393188  0.40442909  0.37115615  1
  O  O6  1  0.26606812  0.59557088  0.37115615  1
  O  O7  1  0.26606812  0.90442912  0.12884386  1
  O  O8  1  0.91460674  0.67723728  0.91341930  1
  O  O9  1  0.91460674  0.82276272  0.58658070  1
  O  O10  1  0.58539326  0.17723730  0.58658070  1
  O  O11  1  0.58539326  0.32276272  0.91341930  1
  O  O12  1  0.08539327  0.32276272  0.08658070  1
  O  O13  1  0.08539327  0.17723730  0.41341930  1
  O  O14  1  0.41460674  0.82276272  0.41341930  1
  O  O15  1  0.41460674  0.67723728  0.08658070  1
  O  O16  1  0.07055007  0.69002308  0.11571681  1
  O  O17  1  0.07055007  0.80997692  0.38428321  1
  O  O18  1  0.42944993  0.19002305  0.38428321  1
  O  O19  1  0.42944993  0.30997695  0.11571681  1
  O  O20  1  0.92944990  0.30997695  0.88428321  1
  O  O21  1  0.92944990  0.19002305  0.61571679  1
  O  O22  1  0.57055010  0.80997692  0.61571679  1
  O  O23  1  0.57055010  0.69002308  0.88428321  1
loop_
_geom_bond_atom_site_label_1
_geom_bond_atom_site_label_2
_geom_bond_distance
_geom_bond_site_symmetry_2
H12 N0 1.018180 1_555
H13 N1 1.018180 1_555
H14 N2 1.018180 1_555
H15 N3 1.018180 1_555
H16 N4 1.018180 1_555
H17 N5 1.018180 1_555
H18 N6 1.018180 1_555
H19 N7 1.018180 1_555
H20 N0 1.018244 1_555
H21 N1 1.018244 1_555
H22 N2 1.018244 1_555
H23 N3 1.018245 1_555
H24 N4 1.018245 1_555
H25 N5 1.018244 1_555
H26 N6 1.018244 1_555
H27 N7 1.018244 1_555
H28 N10 1.020136 1_565
H29 N11 1.020136 1_555
H30 N11 1.020136 1_555
H31 N10 1.020136 1_555
H32 N8 1.020136 1_555
H33 N9 1.020136 1_555
H34 N9 1.020136 1_555
H35 N8 1.020136 1_565
C0 H0 1.092615 1_555
C0 O7 1.263502 1_545
C0 O4 1.263502 1_555
C1 H1 1.092615 1_555
C1 O6 1.263502 1_555
C1 O5 1.263502 1_555
C2 H2 1.092614 1_555
C2 O0 1.263502 1_545
C2 O3 1.263502 1_555
C3 H3 1.092614 1_555
C3 O1 1.263502 1_555
C3 O2 1.263502 1_555
C4 H4 1.102314 1_555
C4 O16 1.261621 1_556
C4 O8 1.264040 1_455
C5 H5 1.102314 1_555
C5 O17 1.261621 1_555
C5 O9 1.264040 1_455
C6 H6 1.102314 1_555
C6 O18 1.261621 1_555
C6 O10 1.264040 1_555
C7 H7 1.102314 1_555
C7 O19 1.261621 1_556
C7 O11 1.264040 1_555
C8 H8 1.102314 1_555
C8 O20 1.261621 1_554
C8 O12 1.264040 1_655
C9 H9 1.102314 1_555
C9 O21 1.261621 1_555
C9 O13 1.264040 1_655
C10 H10 1.102314 1_555
C10 O22 1.261621 1_555
C10 O14 1.264040 1_555
C11 H11 1.102314 1_555
C11 O23 1.261621 1_554
C11 O15 1.264040 1_555
C12 N8 1.328666 1_555
C12 N4 1.333951 1_555
C12 N7 1.333951 1_545
C13 N9 1.328666 1_555
C13 N5 1.333951 1_555
C13 N6 1.333951 1_555
C14 N10 1.328666 1_555
C14 N3 1.333951 1_555
C14 N0 1.333951 1_545
C15 N11 1.328666 1_555
C15 N1 1.333951 1_555
C15 N2 1.333951 1_555
O0 Zn2 2.092362 1_555
O1 Zn2 2.092362 1_555
O2 Zn3 2.092362 1_555
O3 Zn3 2.092362 1_555
O4 Zn0 2.092362 1_555
O5 Zn0 2.092362 1_555
O6 Zn1 2.092362 1_555
O7 Zn1 2.092362 1_555
O8 Zn2 2.084104 1_555
O9 Zn2 2.084104 1_555
O10 Zn3 2.084104 1_555
O11 Zn3 2.084104 1_555
O12 Zn0 2.084104 1_555
O13 Zn0 2.084104 1_555
O14 Zn1 2.084104 1_555
O15 Zn1 2.084104 1_555
O16 Zn1 2.125110 1_555
O17 Zn1 2.125110 1_555
O18 Zn0 2.125110 1_555
O19 Zn0 2.125110 1_555
O20 Zn3 2.125110 1_555
O21 Zn3 2.125110 1_555
O22 Zn2 2.125110 1_555
O23 Zn2 2.125110 1_555
