# generated using pymatgen
data_Ba5P4
_symmetry_space_group_name_H-M   'P 1'
_cell_length_a   8.43055145
_cell_length_b   8.51139651
_cell_length_c   9.36659560
_cell_angle_alpha   90.00001893
_cell_angle_beta   116.74601803
_cell_angle_gamma   90.00002881
_symmetry_Int_Tables_number   1
_chemical_formula_structural   Ba5P4
_chemical_formula_sum   'Ba10 P8'
_cell_volume   600.19863932
_cell_formula_units_Z   2
loop_
 _symmetry_equiv_pos_site_id
 _symmetry_equiv_pos_as_xyz
  1  'x, y, z'
loop_
 _atom_site_type_symbol
 _atom_site_label
 _atom_site_symmetry_multiplicity
 _atom_site_fract_x
 _atom_site_fract_y
 _atom_site_fract_z
 _atom_site_occupancy
  Ba  Ba0  1  0.02047853  0.66257069  0.70548108  1
  Ba  Ba1  1  0.68497513  0.33743543  0.70546258  1
  Ba  Ba2  1  0.18497594  0.16256501  0.70546332  1
  Ba  Ba3  1  0.52047849  0.83742926  0.70548108  1
  Ba  Ba4  1  0.97952138  0.33743350  0.29451753  1
  Ba  Ba5  1  0.31502422  0.66256791  0.29453657  1
  Ba  Ba6  1  0.81502427  0.83743200  0.29453671  1
  Ba  Ba7  1  0.47952120  0.16256635  0.29451739  1
  Ba  Ba8  1  0.50000026  0.50000455  0.00000181  1
  Ba  Ba9  1  0.00000040  -0.00000453  0.00000168  1
  P  P0  1  0.30300996  0.50000265  0.60602474  1
  P  P1  1  0.80301004  -0.00000274  0.60602476  1
  P  P2  1  0.69698894  0.50000106  0.39397374  1
  P  P3  1  0.19698894  -0.00000109  0.39397382  1
  P  P4  1  0.40327579  0.90506727  -0.00000601  1
  P  P5  1  0.59672533  0.09492929  0.00000760  1
  P  P6  1  0.09672536  0.40507064  0.00000756  1
  P  P7  1  0.90327582  0.59493277  -0.00000595  1
loop_
_geom_bond_atom_site_label_1
_geom_bond_atom_site_label_2
_geom_bond_distance
_geom_bond_site_symmetry_2
Ba0 P0 3.233108 1_555
Ba0 P2 3.271603 1_455
Ba0 P1 3.307578 1_465
Ba0 P6 3.351278 1_556
Ba0 P7 3.372070 1_456
Ba0 P4 3.777790 1_556
Ba1 P0 3.232963 1_555
Ba1 P2 3.271557 1_555
Ba1 P1 3.307676 1_555
Ba1 P7 3.351316 1_556
Ba1 P6 3.372352 1_656
Ba1 P5 3.777939 1_556
Ba2 P1 3.232967 1_455
Ba2 P3 3.271560 1_555
Ba2 P0 3.307671 1_555
Ba2 P4 3.351315 1_546
Ba2 P5 3.372346 1_556
Ba2 P6 3.777934 1_556
Ba3 P1 3.233108 1_565
Ba3 P3 3.271604 1_565
Ba3 P0 3.307577 1_555
Ba3 P5 3.351276 1_566
Ba3 P4 3.372069 1_556
Ba3 P7 3.777792 1_556
Ba4 P2 3.233113 1_555
Ba4 P0 3.271597 1_655
Ba4 P3 3.307634 1_655
Ba4 P7 3.351255 1_555
Ba4 P6 3.372049 1_655
Ba4 P5 3.777810 1_555
Ba5 P2 3.232959 1_555
Ba5 P0 3.271551 1_555
Ba5 P3 3.307622 1_565
Ba5 P6 3.351299 1_555
Ba5 P7 3.372333 1_455
Ba5 P4 3.777897 1_555
Ba6 P3 3.232957 1_665
Ba6 P1 3.271549 1_565
Ba6 P2 3.307620 1_555
Ba6 P5 3.351302 1_565
Ba6 P4 3.372335 1_555
Ba6 P7 3.777896 1_555
Ba7 P3 3.233112 1_555
Ba7 P1 3.271600 1_555
Ba7 P2 3.307634 1_555
Ba7 P4 3.351252 1_545
Ba7 P5 3.372048 1_555
Ba7 P6 3.777812 1_555
Ba8 P2 3.295365 1_555
Ba8 P0 3.295408 1_554
Ba8 P6 3.494553 1_555
Ba8 P7 3.494556 1_555
Ba8 P4 3.542764 1_555
Ba8 P5 3.542871 1_555
Ba9 P3 3.295366 1_555
Ba9 P1 3.295406 1_454
Ba9 P4 3.494555 1_545
Ba9 P5 3.494556 1_455
Ba9 P7 3.542764 1_445
Ba9 P6 3.542869 1_555
P4 P5 2.295872 1_565
P6 P7 2.295874 1_455
