# generated using pymatgen
data_K3SmSi2O7
_symmetry_space_group_name_H-M   'P 1'
_cell_length_a   10.07876209
_cell_length_b   10.07875259
_cell_length_c   14.64007326
_cell_angle_alpha   90.00000000
_cell_angle_beta   90.00000000
_cell_angle_gamma   120.00002435
_symmetry_Int_Tables_number   1
_chemical_formula_structural   K3SmSi2O7
_chemical_formula_sum   'K18 Sm6 Si12 O42'
_cell_volume   1287.91663661
_cell_formula_units_Z   6
loop_
 _symmetry_equiv_pos_site_id
 _symmetry_equiv_pos_as_xyz
  1  'x, y, z'
loop_
 _atom_site_type_symbol
 _atom_site_label
 _atom_site_symmetry_multiplicity
 _atom_site_fract_x
 _atom_site_fract_y
 _atom_site_fract_z
 _atom_site_occupancy
  K  K0  1  0.33087477  1.00000000  0.59061714  1
  K  K1  1  0.66912118  0.66912285  0.59061586  1
  K  K2  1  0.99999833  0.33087715  0.59061586  1
  K  K3  1  0.66912480  0.00000000  0.40938456  1
  K  K4  1  0.33087557  0.33088029  0.40938326  1
  K  K5  1  0.99999528  0.66911971  0.40938326  1
  K  K6  1  0.66912523  0.00000000  0.09061714  1
  K  K7  1  0.33087882  0.33087715  0.09061586  1
  K  K8  1  0.00000167  0.66912285  0.09061586  1
  K  K9  1  0.33087520  1.00000000  0.90938456  1
  K  K10  1  0.66912443  0.66911971  0.90938326  1
  K  K11  1  0.00000472  0.33088029  0.90938326  1
  K  K12  1  0.33329932  0.66669790  0.74999993  1
  K  K13  1  0.66660143  0.33330210  0.74999993  1
  K  K14  1  0.66670068  0.33330210  0.24999993  1
  K  K15  1  0.33339857  0.66669790  0.24999993  1
  K  K16  1  0.99999937  -0.00000000  0.50000007  1
  K  K17  1  0.00000063  0.00000000  0.00000007  1
  Sm  Sm0  1  0.00000076  -0.00000000  0.75000000  1
  Sm  Sm1  1  0.99999924  0.00000000  0.25000000  1
  Sm  Sm2  1  0.33331834  0.66667851  0.49999998  1
  Sm  Sm3  1  0.66663983  0.33332149  0.49999998  1
  Sm  Sm4  1  0.66668166  0.33332149  -0.00000002  1
  Sm  Sm5  1  0.33336017  0.66667851  -0.00000002  1
  Si  Si0  1  0.65950267  0.00000000  0.64326538  1
  Si  Si1  1  0.34049295  0.34050155  0.64326661  1
  Si  Si2  1  0.99999140  0.65949845  0.64326661  1
  Si  Si3  1  0.34049408  1.00000000  0.35673103  1
  Si  Si4  1  0.65950032  0.65950206  0.35673521  1
  Si  Si5  1  0.99999826  0.34049794  0.35673521  1
  Si  Si6  1  0.34049733  1.00000000  0.14326538  1
  Si  Si7  1  0.65950705  0.65949845  0.14326661  1
  Si  Si8  1  0.00000860  0.34050155  0.14326661  1
  Si  Si9  1  0.65950592  0.00000000  0.85673103  1
  Si  Si10  1  0.34049968  0.34049794  0.85673521  1
  Si  Si11  1  0.00000174  0.65950206  0.85673521  1
  O  O0  1  0.67825985  0.52427620  0.40645608  1
  O  O1  1  0.84601264  0.32173743  0.40645682  1
  O  O2  1  0.47571823  0.15397978  0.40645478  1
  O  O3  1  0.15398365  0.47572380  0.40645608  1
  O  O4  1  0.52427521  0.67826257  0.40645682  1
  O  O5  1  0.32173845  0.84602022  0.40645478  1
  O  O6  1  0.32173814  0.47572617  0.59354210  1
  O  O7  1  0.15397989  0.67826389  0.59354610  1
  O  O8  1  0.52427583  0.84601737  0.59354413  1
  O  O9  1  0.84601198  0.52427383  0.59354210  1
  O  O10  1  0.47571600  0.32173611  0.59354610  1
  O  O11  1  0.67825846  0.15398263  0.59354413  1
  O  O12  1  0.32174015  0.47572380  0.90645608  1
  O  O13  1  0.15398736  0.67826257  0.90645682  1
  O  O14  1  0.52428177  0.84602022  0.90645478  1
  O  O15  1  0.84601635  0.52427620  0.90645608  1
  O  O16  1  0.47572479  0.32173743  0.90645682  1
  O  O17  1  0.67826155  0.15397978  0.90645478  1
  O  O18  1  0.67826186  0.52427383  0.09354210  1
  O  O19  1  0.84602011  0.32173611  0.09354610  1
  O  O20  1  0.47572417  0.15398263  0.09354413  1
  O  O21  1  0.15398802  0.47572617  0.09354210  1
  O  O22  1  0.52428400  0.67826389  0.09354610  1
  O  O23  1  0.32174154  0.84601737  0.09354413  1
  O  O24  1  0.82199562  0.00000000  0.64555078  1
  O  O25  1  0.17800454  0.17800312  0.64555050  1
  O  O26  1  0.00000141  0.82199688  0.64555050  1
  O  O27  1  0.17800300  1.00000000  0.35444985  1
  O  O28  1  0.82199535  0.82199501  0.35444925  1
  O  O29  1  0.00000034  0.17800499  0.35444925  1
  O  O30  1  0.17800438  1.00000000  0.14555078  1
  O  O31  1  0.82199546  0.82199688  0.14555050  1
  O  O32  1  0.99999859  0.17800312  0.14555050  1
  O  O33  1  0.82199700  0.00000000  0.85444985  1
  O  O34  1  0.17800465  0.17800499  0.85444925  1
  O  O35  1  0.99999966  0.82199501  0.85444925  1
  O  O36  1  0.59665637  1.00000000  0.74999952  1
  O  O37  1  0.40334324  0.40334157  0.75000023  1
  O  O38  1  0.00000167  0.59665843  0.75000023  1
  O  O39  1  0.40334363  0.00000000  0.24999952  1
  O  O40  1  0.59665676  0.59665843  0.25000023  1
  O  O41  1  0.99999833  0.40334157  0.25000023  1
loop_
_geom_bond_atom_site_label_1
_geom_bond_atom_site_label_2
_geom_bond_distance
_geom_bond_site_symmetry_2
K0 O10 2.813227 1_565
K0 O7 2.813227 1_555
K0 O25 3.000576 1_565
K0 O26 3.000576 1_555
K0 O8 3.038927 1_555
K0 O11 3.038928 1_565
K0 O5 3.089218 1_555
K0 O2 3.089218 1_565
K1 O9 2.813258 1_555
K1 O8 2.813261 1_555
K1 O24 3.000611 1_565
K1 O26 3.000639 1_655
K1 O6 3.038919 1_555
K1 O10 3.038954 1_555
K1 O4 3.089198 1_555
K1 O0 3.089207 1_555
K2 O6 2.813258 1_655
K2 O11 2.813261 1_555
K2 O24 3.000611 1_555
K2 O25 3.000639 1_655
K2 O9 3.038918 1_555
K2 O7 3.038953 1_655
K2 O1 3.089198 1_555
K2 O3 3.089207 1_655
K3 O4 2.813234 1_545
K3 O1 2.813234 1_555
K3 O28 3.000602 1_545
K3 O29 3.000602 1_655
K3 O2 3.038954 1_555
K3 O5 3.038954 1_545
K3 O11 3.089203 1_555
K3 O8 3.089203 1_545
K4 O3 2.813222 1_555
K4 O2 2.813292 1_555
K4 O29 3.000593 1_555
K4 O27 3.000633 1_545
K4 O4 3.038912 1_555
K4 O0 3.038929 1_555
K4 O6 3.089188 1_555
K4 O10 3.089231 1_555
K5 O0 2.813222 1_555
K5 O5 2.813292 1_655
K5 O28 3.000593 1_555
K5 O27 3.000633 1_655
K5 O1 3.038912 1_555
K5 O3 3.038928 1_655
K5 O9 3.089188 1_555
K5 O7 3.089231 1_655
K6 O22 2.813227 1_545
K6 O19 2.813227 1_555
K6 O31 3.000576 1_545
K6 O32 3.000576 1_555
K6 O20 3.038927 1_555
K6 O23 3.038928 1_545
K6 O17 3.089218 1_554
K6 O14 3.089218 1_544
K7 O21 2.813258 1_555
K7 O20 2.813261 1_555
K7 O30 3.000611 1_545
K7 O32 3.000639 1_455
K7 O18 3.038919 1_555
K7 O22 3.038954 1_555
K7 O16 3.089198 1_554
K7 O12 3.089207 1_554
K8 O18 2.813258 1_455
K8 O23 2.813261 1_555
K8 O30 3.000611 1_555
K8 O31 3.000639 1_455
K8 O21 3.038918 1_555
K8 O19 3.038953 1_455
K8 O13 3.089198 1_554
K8 O15 3.089207 1_454
K9 O16 2.813234 1_565
K9 O13 2.813234 1_555
K9 O34 3.000602 1_565
K9 O35 3.000602 1_455
K9 O14 3.038954 1_555
K9 O17 3.038954 1_565
K9 O23 3.089203 1_556
K9 O20 3.089203 1_566
K10 O15 2.813222 1_555
K10 O14 2.813292 1_555
K10 O35 3.000593 1_555
K10 O33 3.000633 1_565
K10 O16 3.038912 1_555
K10 O12 3.038929 1_555
K10 O18 3.089188 1_556
K10 O22 3.089231 1_556
K11 O12 2.813222 1_555
K11 O17 2.813292 1_455
K11 O34 3.000593 1_555
K11 O33 3.000633 1_455
K11 O13 3.038912 1_555
K11 O15 3.038928 1_455
K11 O21 3.089188 1_556
K11 O19 3.089231 1_456
K12 O13 2.955831 1_555
K12 O7 2.955848 1_555
K12 O8 2.956186 1_555
K12 O14 2.956205 1_555
K12 O6 2.956455 1_555
K12 O12 2.956457 1_555
K12 O38 3.067801 1_555
K12 O36 3.068144 1_555
K12 O37 3.068798 1_555
K13 O16 2.955831 1_555
K13 O10 2.955848 1_555
K13 O11 2.956186 1_555
K13 O17 2.956204 1_555
K13 O9 2.956455 1_555
K13 O15 2.956457 1_555
K13 O37 3.067801 1_555
K13 O36 3.068144 1_545
K13 O38 3.068799 1_655
K14 O1 2.955831 1_555
K14 O19 2.955848 1_555
K14 O20 2.956186 1_555
K14 O2 2.956205 1_555
K14 O18 2.956455 1_555
K14 O0 2.956457 1_555
K14 O41 3.067801 1_555
K14 O39 3.068144 1_555
K14 O40 3.068798 1_555
K15 O4 2.955831 1_555
K15 O22 2.955848 1_555
K15 O23 2.956186 1_555
K15 O5 2.956204 1_555
K15 O21 2.956455 1_555
K15 O3 2.956457 1_555
K15 O40 3.067801 1_555
K15 O39 3.068144 1_565
K15 O41 3.068799 1_455
K16 O27 2.785539 1_645
K16 O26 2.785544 1_645
K16 O25 2.785544 1_655
K16 O24 2.785545 1_555
K16 O29 2.785550 1_655
K16 O28 2.785550 1_545
K17 O33 2.785539 1_454
K17 O32 2.785544 1_455
K17 O31 2.785544 1_445
K17 O30 2.785545 1_545
K17 O35 2.785550 1_444
K17 O34 2.785550 1_554
O0 Si4 1.637321 1_555
O0 Sm3 2.316862 1_555
O1 Si5 1.637325 1_555
O1 Sm3 2.317006 1_555
O2 Si3 1.637303 1_545
O2 Sm3 2.316752 1_555
O3 Si5 1.637321 1_455
O3 Sm2 2.316862 1_555
O4 Si4 1.637325 1_555
O4 Sm2 2.317006 1_555
O5 Si3 1.637303 1_555
O5 Sm2 2.316752 1_555
O6 Si1 1.637308 1_555
O6 Sm2 2.316973 1_555
O7 Si2 1.637326 1_455
O7 Sm2 2.316759 1_555
O8 Si0 1.637312 1_565
O8 Sm2 2.316892 1_555
O9 Si2 1.637308 1_555
O9 Sm3 2.316974 1_555
O10 Si1 1.637326 1_555
O10 Sm3 2.316759 1_555
O11 Si0 1.637312 1_555
O11 Sm3 2.316892 1_555
O12 Si10 1.637321 1_555
O12 Sm5 2.316862 1_556
O13 Si11 1.637325 1_555
O13 Sm5 2.317006 1_556
O14 Si9 1.637303 1_565
O14 Sm5 2.316752 1_556
O15 Si11 1.637321 1_655
O15 Sm4 2.316862 1_556
O16 Si10 1.637325 1_555
O16 Sm4 2.317006 1_556
O17 Si9 1.637303 1_555
O17 Sm4 2.316752 1_556
O18 Si7 1.637308 1_555
O18 Sm4 2.316973 1_555
O19 Si8 1.637326 1_655
O19 Sm4 2.316759 1_555
O20 Si6 1.637312 1_545
O20 Sm4 2.316892 1_555
O21 Si8 1.637308 1_555
O21 Sm5 2.316974 1_555
O22 Si7 1.637326 1_555
O22 Sm5 2.316759 1_555
O23 Si6 1.637312 1_555
O23 Sm5 2.316892 1_555
O24 Si0 1.638070 1_555
O24 Sm0 2.357324 1_655
O25 Si1 1.638072 1_555
O25 Sm0 2.357312 1_555
O26 Si2 1.638072 1_455
O26 Sm0 2.357312 1_565
O27 Si3 1.638049 1_555
O27 Sm1 2.357319 1_465
O28 Si4 1.638079 1_555
O28 Sm1 2.357317 1_565
O29 Si5 1.638079 1_455
O29 Sm1 2.357317 1_455
O30 Si6 1.638070 1_555
O30 Sm1 2.357324 1_465
O31 Si7 1.638072 1_555
O31 Sm1 2.357312 1_565
O32 Si8 1.638072 1_655
O32 Sm1 2.357312 1_555
O33 Si9 1.638049 1_555
O33 Sm0 2.357319 1_655
O34 Si10 1.638079 1_555
O34 Sm0 2.357317 1_555
O35 Si11 1.638079 1_655
O35 Sm0 2.357317 1_665
O36 Si9 1.686072 1_565
O36 Si0 1.686095 1_565
O37 Si1 1.686084 1_555
O37 Si10 1.686096 1_555
O38 Si2 1.686084 1_455
O38 Si11 1.686096 1_555
O39 Si3 1.686072 1_545
O39 Si6 1.686095 1_545
O40 Si7 1.686084 1_555
O40 Si4 1.686096 1_555
O41 Si8 1.686084 1_655
O41 Si5 1.686096 1_555
