# generated using pymatgen
data_Lu6Ga19Pd3
_symmetry_space_group_name_H-M   'P 1'
_cell_length_a   8.11245202
_cell_length_b   8.11245202
_cell_length_c   15.86676528
_cell_angle_alpha   76.36422931
_cell_angle_beta   76.36422931
_cell_angle_gamma   30.32162174
_symmetry_Int_Tables_number   1
_chemical_formula_structural   Lu6Ga19Pd3
_chemical_formula_sum   'Lu6 Ga19 Pd3'
_cell_volume   511.21182569
_cell_formula_units_Z   1
loop_
 _symmetry_equiv_pos_site_id
 _symmetry_equiv_pos_as_xyz
  1  'x, y, z'
loop_
 _atom_site_type_symbol
 _atom_site_label
 _atom_site_symmetry_multiplicity
 _atom_site_fract_x
 _atom_site_fract_y
 _atom_site_fract_z
 _atom_site_occupancy
  Lu  Lu0  1  0.09843200  0.09843200  0.59817700  1
  Lu  Lu1  1  0.60014300  0.60014300  0.09911100  1
  Lu  Lu2  1  0.39895400  0.39895400  0.90190900  1
  Lu  Lu3  1  0.90246500  0.90246500  0.40108400  1
  Lu  Lu4  1  0.25117200  0.25117200  0.74983300  1
  Lu  Lu5  1  0.74953200  0.74953200  0.25029600  1
  Ga  Ga0  1  0.03789200  0.03789200  0.82316500  1
  Ga  Ga1  1  0.54034100  0.54034100  0.32007100  1
  Ga  Ga2  1  0.46145800  0.46145800  0.68123600  1
  Ga  Ga3  1  0.96135300  0.96135300  0.17744900  1
  Ga  Ga4  1  0.31954700  0.31954700  0.53671600  1
  Ga  Ga5  1  0.82159000  0.82159000  0.03863100  1
  Ga  Ga6  1  0.17801600  0.17801600  0.96189900  1
  Ga  Ga7  1  0.67877000  0.67877000  0.46061400  1
  Ga  Ga8  1  0.88970900  0.88970900  0.76431500  1
  Ga  Ga9  1  0.39235800  0.39235800  0.26064100  1
  Ga  Ga10  1  0.60785200  0.60785200  0.74071500  1
  Ga  Ga11  1  0.10874800  0.10874800  0.23856900  1
  Ga  Ga12  1  0.75987000  0.75987000  0.89419500  1
  Ga  Ga13  1  0.26115700  0.26115700  0.38992800  1
  Ga  Ga14  1  0.73643500  0.73643500  0.60936400  1
  Ga  Ga15  1  0.23973000  0.23973000  0.10728300  1
  Ga  Ga16  1  0.99965900  0.99965900  0.00087900  1
  Ga  Ga17  1  0.50381100  0.50381100  0.49534400  1
  Ga  Ga18  1  0.90698700  0.90698700  0.59367400  1
  Pd  Pd0  1  0.40978900  0.40978900  0.09066800  1
  Pd  Pd1  1  0.59057700  0.59057700  0.90916700  1
  Pd  Pd2  1  0.09365400  0.09365400  0.40506700  1
loop_
_geom_bond_atom_site_label_1
_geom_bond_atom_site_label_2
_geom_bond_distance
_geom_bond_site_symmetry_2
Lu0 Pd2 3.083161 1_555
Lu1 Pd0 3.016502 1_555
Lu1 Pd1 3.053844 1_554
Lu2 Pd1 3.031042 1_555
Lu2 Pd0 3.040893 1_556
Lu3 Pd2 3.010119 1_665
Ga0 Ga10 2.590937 1_455
Ga0 Ga10 2.590937 1_545
Ga0 Ga8 2.704716 1_445
Ga0 Ga16 2.735823 1_446
Ga0 Pd1 2.755744 1_545
Ga0 Pd1 2.755744 1_455
Ga0 Lu2 3.077096 1_455
Ga0 Lu2 3.077096 1_545
Ga0 Lu4 3.257462 1_555
Ga0 Lu0 3.462547 1_555
Ga1 Ga11 2.577701 1_565
Ga1 Ga11 2.577701 1_655
Ga1 Ga17 2.698915 1_555
Ga1 Ga9 2.706885 1_555
Ga1 Pd2 2.750852 1_565
Ga1 Pd2 2.750852 1_655
Ga1 Lu3 3.075689 1_455
Ga1 Lu3 3.075689 1_545
Ga1 Lu5 3.191547 1_555
Ga1 Lu1 3.400680 1_555
Ga2 Ga8 2.603451 1_545
Ga2 Ga8 2.603451 1_455
Ga2 Lu0 3.075456 1_655
Ga2 Lu0 3.075456 1_565
Ga2 Lu4 3.205991 1_555
Ga2 Lu2 3.397568 1_555
Ga3 Ga9 2.591227 1_565
Ga3 Ga9 2.591227 1_655
Ga3 Pd0 2.755454 1_655
Ga3 Pd0 2.755454 1_565
Ga3 Lu1 3.074189 1_565
Ga3 Lu1 3.074189 1_655
Ga3 Lu5 3.235207 1_555
Ga3 Lu3 3.441340 1_555
Ga4 Lu3 3.074686 1_455
Ga4 Lu3 3.074686 1_545
Ga4 Lu4 3.288189 1_555
Ga4 Lu0 3.360322 1_555
Ga5 Pd0 2.765488 1_565
Ga5 Pd0 2.765488 1_655
Ga5 Lu2 3.064525 1_654
Ga5 Lu2 3.064525 1_564
Ga5 Lu5 3.271265 1_555
Ga5 Lu1 3.364755 1_555
Ga6 Pd1 2.763348 1_455
Ga6 Pd1 2.763348 1_545
Ga6 Lu1 3.071059 1_456
Ga6 Lu1 3.071059 1_546
Ga6 Lu4 3.278915 1_555
Ga6 Lu2 3.356839 1_555
Ga7 Pd2 2.762017 1_565
Ga7 Pd2 2.762017 1_655
Ga7 Lu0 3.083318 1_655
Ga7 Lu0 3.083318 1_565
Ga7 Lu5 3.249238 1_555
Ga7 Lu3 3.398172 1_555
Ga8 Lu2 3.072941 1_655
Ga8 Lu2 3.072941 1_565
Ga8 Lu4 3.082937 1_655
Ga8 Lu4 3.082937 1_565
Ga9 Pd0 2.643534 1_555
Ga9 Lu3 3.108757 1_545
Ga9 Lu3 3.108757 1_455
Ga9 Lu5 3.116153 1_455
Ga9 Lu5 3.116153 1_545
Ga10 Ga14 2.519565 1_555
Ga10 Pd1 2.619879 1_555
Ga10 Ga2 2.683912 1_555
Ga10 Lu4 3.117425 1_565
Ga10 Lu4 3.117425 1_655
Ga10 Lu0 3.130658 1_565
Ga10 Lu0 3.130658 1_655
Ga11 Ga15 2.541536 1_555
Ga11 Pd2 2.594196 1_555
Ga11 Ga3 2.713285 1_445
Ga11 Lu1 3.092157 1_455
Ga11 Lu1 3.092157 1_545
Ga11 Lu5 3.097921 1_455
Ga11 Lu5 3.097921 1_545
Ga12 Ga8 2.516788 1_555
Ga12 Ga6 2.574069 1_655
Ga12 Ga6 2.574069 1_565
Ga12 Pd1 2.603352 1_555
Ga12 Ga5 2.695981 1_556
Ga12 Lu2 3.064413 1_655
Ga12 Lu2 3.064413 1_565
Ga12 Lu4 3.149442 1_655
Ga12 Lu4 3.149442 1_565
Ga13 Ga9 2.524024 1_555
Ga13 Pd2 2.575018 1_555
Ga13 Ga7 2.591716 1_455
Ga13 Ga7 2.591716 1_545
Ga13 Ga4 2.702028 1_555
Ga13 Lu3 3.101778 1_455
Ga13 Lu3 3.101778 1_545
Ga13 Lu5 3.104837 1_545
Ga13 Lu5 3.104837 1_455
Ga14 Ga4 2.605994 1_655
Ga14 Ga4 2.605994 1_565
Ga14 Ga18 2.621214 1_555
Ga14 Ga7 2.725273 1_555
Ga14 Lu0 3.064450 1_565
Ga14 Lu0 3.064450 1_655
Ga14 Lu4 3.126243 1_655
Ga14 Lu4 3.126243 1_565
Ga15 Ga5 2.578594 1_455
Ga15 Ga5 2.578594 1_545
Ga15 Pd0 2.611312 1_555
Ga15 Ga6 2.710036 1_554
Ga15 Lu1 3.071655 1_545
Ga15 Lu1 3.071655 1_455
Ga15 Lu5 3.137537 1_455
Ga15 Lu5 3.137537 1_545
Ga16 Ga5 2.705384 1_555
Ga16 Ga6 2.709260 1_664
Ga16 Ga3 2.718052 1_555
Ga16 Pd0 2.744501 1_565
Ga16 Pd0 2.744501 1_655
Ga16 Pd1 2.762965 1_564
Ga16 Pd1 2.762965 1_654
Ga16 Lu1 3.256534 1_565
Ga16 Lu1 3.256534 1_655
Ga17 Ga7 2.659535 1_555
Ga17 Pd2 2.747397 1_655
Ga17 Pd2 2.747397 1_565
Ga17 Ga4 2.798632 1_555
Ga17 Ga18 2.842360 1_545
Ga17 Ga18 2.842360 1_455
Ga17 Ga2 2.860742 1_555
Ga17 Lu3 3.227477 1_455
Ga17 Lu3 3.227477 1_545
Ga17 Lu0 3.246585 1_655
Ga17 Lu0 3.246585 1_565
Ga18 Ga8 2.654432 1_555
Ga18 Ga2 2.781759 1_655
Ga18 Ga2 2.781759 1_565
Ga18 Ga4 2.792435 1_655
Ga18 Ga4 2.792435 1_565
Ga18 Lu0 3.016315 1_665
Ga18 Lu3 3.073844 1_555
