# generated using pymatgen
data_K2GaCuF6
_symmetry_space_group_name_H-M   'P 1'
_cell_length_a   5.89732854
_cell_length_b   5.89732854
_cell_length_c   5.89732854
_cell_angle_alpha   60.00000000
_cell_angle_beta   60.00000000
_cell_angle_gamma   60.00000000
_symmetry_Int_Tables_number   1
_chemical_formula_structural   K2GaCuF6
_chemical_formula_sum   'K2 Ga1 Cu1 F6'
_cell_volume   145.02770371
_cell_formula_units_Z   1
loop_
 _symmetry_equiv_pos_site_id
 _symmetry_equiv_pos_as_xyz
  1  'x, y, z'
loop_
 _atom_site_type_symbol
 _atom_site_label
 _atom_site_symmetry_multiplicity
 _atom_site_fract_x
 _atom_site_fract_y
 _atom_site_fract_z
 _atom_site_occupancy
  K  K0  1  0.75000000  0.75000000  0.75000000  1
  K  K1  1  0.25000000  0.25000000  0.25000000  1
  Ga  Ga0  1  0.00000000  0.00000000  0.00000000  1
  Cu  Cu0  1  0.50000000  0.50000000  0.50000000  1
  F  F0  1  0.76750100  0.23249900  0.23249900  1
  F  F1  1  0.23249900  0.23249900  0.76750100  1
  F  F2  1  0.23249900  0.76750100  0.76750100  1
  F  F3  1  0.23249900  0.76750100  0.23249900  1
  F  F4  1  0.76750100  0.23249900  0.76750100  1
  F  F5  1  0.76750100  0.76750100  0.23249900  1
loop_
_geom_bond_atom_site_label_1
_geom_bond_atom_site_label_2
_geom_bond_distance
_geom_bond_site_symmetry_2
Cu0 F4 2.230980 1_555
Cu0 F5 2.230980 1_555
Cu0 F2 2.230980 1_555
Cu0 F3 2.230980 1_555
Cu0 F0 2.230980 1_555
Cu0 F1 2.230980 1_555
F0 Ga0 1.939061 1_655
F0 K1 2.952275 1_555
F0 K0 2.952275 1_545
F0 K0 2.952275 1_554
F0 K1 2.952275 1_655
F1 Ga0 1.939061 1_556
F1 K1 2.952275 1_555
F1 K0 2.952275 1_455
F1 K0 2.952275 1_545
F1 K1 2.952275 1_556
F2 Ga0 1.939061 1_566
F2 K0 2.952275 1_455
F2 K1 2.952275 1_556
F2 K1 2.952275 1_565
F2 K0 2.952275 1_555
F3 Ga0 1.939061 1_565
F3 K1 2.952275 1_555
F3 K0 2.952275 1_455
F3 K0 2.952275 1_554
F3 K1 2.952275 1_565
F4 Ga0 1.939061 1_656
F4 K0 2.952275 1_545
F4 K1 2.952275 1_655
F4 K1 2.952275 1_556
F4 K0 2.952275 1_555
F5 Ga0 1.939061 1_665
F5 K0 2.952275 1_554
F5 K1 2.952275 1_655
F5 K1 2.952275 1_565
F5 K0 2.952275 1_555
