# generated using pymatgen
data_Rb3(MoO3)10
_symmetry_space_group_name_H-M   'P 1'
_cell_length_a   10.30103043
_cell_length_b   10.30103043
_cell_length_c   10.35762359
_cell_angle_alpha   62.76844207
_cell_angle_beta   62.76844207
_cell_angle_gamma   43.92225311
_symmetry_Int_Tables_number   1
_chemical_formula_structural   Rb3(MoO3)10
_chemical_formula_sum   'Rb3 Mo10 O30'
_cell_volume   663.14026760
_cell_formula_units_Z   1
loop_
 _symmetry_equiv_pos_site_id
 _symmetry_equiv_pos_as_xyz
  1  'x, y, z'
loop_
 _atom_site_type_symbol
 _atom_site_label
 _atom_site_symmetry_multiplicity
 _atom_site_fract_x
 _atom_site_fract_y
 _atom_site_fract_z
 _atom_site_occupancy
  Rb  Rb0  1  0.50000000  0.50000000  0.50000000  1
  Rb  Rb1  1  0.81637800  0.81637800  0.71780700  1
  Rb  Rb2  1  0.18362200  0.18362200  0.28219300  1
  Mo  Mo0  1  0.22303600  0.22303600  0.82760500  1
  Mo  Mo1  1  0.77696400  0.77696400  0.17239500  1
  Mo  Mo2  1  0.82163900  0.33407300  0.04042000  1
  Mo  Mo3  1  0.33407300  0.82163900  0.04042000  1
  Mo  Mo4  1  0.17836100  0.66592700  0.95958000  1
  Mo  Mo5  1  0.66592700  0.17836100  0.95958000  1
  Mo  Mo6  1  0.61076500  0.10993000  0.34301700  1
  Mo  Mo7  1  0.10993000  0.61076500  0.34301700  1
  Mo  Mo8  1  0.38923500  0.89007000  0.65698300  1
  Mo  Mo9  1  0.89007000  0.38923500  0.65698300  1
  O  O0  1  0.50000000  0.00000000  0.50000000  1
  O  O1  1  0.00000000  0.50000000  0.50000000  1
  O  O2  1  0.24802100  0.24802100  0.96798700  1
  O  O3  1  0.75197900  0.75197900  0.03201300  1
  O  O4  1  0.31498300  0.31498300  0.66487400  1
  O  O5  1  0.68501700  0.68501700  0.33512600  1
  O  O6  1  0.57816500  0.57816500  0.01012900  1
  O  O7  1  0.42183500  0.42183500  0.98987100  1
  O  O8  1  0.08824700  0.08824700  0.00811800  1
  O  O9  1  0.91175300  0.91175300  0.99188200  1
  O  O10  1  0.84444900  0.84444900  0.31143400  1
  O  O11  1  0.15555100  0.15555100  0.68856600  1
  O  O12  1  0.35765500  0.35765500  0.32863300  1
  O  O13  1  0.64234500  0.64234500  0.67136700  1
  O  O14  1  0.83866200  0.35798500  0.18523900  1
  O  O15  1  0.35798500  0.83866200  0.18523900  1
  O  O16  1  0.16133800  0.64201500  0.81476100  1
  O  O17  1  0.64201500  0.16133800  0.81476100  1
  O  O18  1  0.94209400  0.42566600  0.83851100  1
  O  O19  1  0.42566600  0.94209400  0.83851100  1
  O  O20  1  0.05790600  0.57433400  0.16148900  1
  O  O21  1  0.57433400  0.05790600  0.16148900  1
  O  O22  1  0.68925100  0.12931200  0.44356100  1
  O  O23  1  0.12931200  0.68925100  0.44356100  1
  O  O24  1  0.31074900  0.87068800  0.55643900  1
  O  O25  1  0.87068800  0.31074900  0.55643900  1
  O  O26  1  0.71497600  0.20517100  0.14532700  1
  O  O27  1  0.20517100  0.71497600  0.14532700  1
  O  O28  1  0.28502400  0.79482900  0.85467300  1
  O  O29  1  0.79482900  0.28502400  0.85467300  1
loop_
_geom_bond_atom_site_label_1
_geom_bond_atom_site_label_2
_geom_bond_distance
_geom_bond_site_symmetry_2
Mo0 O4 1.733612 1_555
Mo0 O2 1.739842 1_555
Mo0 O19 1.989841 1_545
Mo0 O18 1.989841 1_455
Mo0 O8 2.318833 1_556
Mo0 O11 2.359871 1_555
Mo1 O5 1.733612 1_555
Mo1 O3 1.739842 1_555
Mo1 O21 1.989841 1_565
Mo1 O20 1.989841 1_655
Mo1 O9 2.318833 1_554
Mo1 O10 2.359871 1_555
Mo2 O14 1.726973 1_555
Mo2 O6 1.903829 1_555
Mo2 O26 1.959510 1_555
Mo2 O8 1.995692 1_655
Mo2 O18 2.075872 1_554
Mo2 O29 2.368503 1_554
Mo3 O15 1.726973 1_555
Mo3 O6 1.903829 1_555
Mo3 O27 1.959510 1_555
Mo3 O8 1.995692 1_565
Mo3 O19 2.075872 1_554
Mo3 O28 2.368503 1_554
Mo4 O16 1.726973 1_555
Mo4 O7 1.903829 1_555
Mo4 O28 1.959510 1_555
Mo4 O9 1.995692 1_455
Mo4 O20 2.075872 1_556
Mo4 O27 2.368503 1_556
Mo5 O17 1.726973 1_555
Mo5 O7 1.903829 1_555
Mo5 O29 1.959510 1_555
Mo5 O9 1.995692 1_545
Mo5 O21 2.075872 1_556
Mo5 O26 2.368503 1_556
Mo6 O22 1.723767 1_555
Mo6 O0 1.925184 1_555
Mo6 O12 1.937773 1_555
Mo6 O26 1.993648 1_555
Mo6 O10 1.998780 1_545
Mo6 O21 2.412625 1_555
Mo7 O23 1.723767 1_555
Mo7 O1 1.925184 1_555
Mo7 O12 1.937773 1_555
Mo7 O27 1.993648 1_555
Mo7 O10 1.998780 1_455
Mo7 O20 2.412625 1_555
Mo8 O24 1.723767 1_555
Mo8 O0 1.925184 1_565
Mo8 O13 1.937773 1_555
Mo8 O28 1.993648 1_555
Mo8 O11 1.998780 1_565
Mo8 O19 2.412625 1_555
Mo9 O25 1.723767 1_555
Mo9 O1 1.925184 1_655
Mo9 O13 1.937773 1_555
Mo9 O29 1.993648 1_555
Mo9 O11 1.998780 1_655
Mo9 O18 2.412625 1_555
O2 Rb2 2.855489 1_556
O3 Rb1 2.855489 1_554
O4 Rb0 3.075115 1_555
O5 Rb0 3.075115 1_555
O14 Rb2 3.046674 1_655
O14 Rb0 3.397539 1_555
O15 Rb2 3.046674 1_565
O15 Rb0 3.397539 1_555
O16 Rb1 3.046674 1_455
O16 Rb0 3.397539 1_555
O17 Rb1 3.046674 1_545
O17 Rb0 3.397539 1_555
O18 Rb1 2.967662 1_555
O19 Rb1 2.967662 1_555
O20 Rb2 2.967662 1_555
O21 Rb2 2.967662 1_555
O22 Rb0 2.999865 1_555
O22 Rb1 3.019605 1_545
O23 Rb0 2.999865 1_555
O23 Rb1 3.019605 1_455
O24 Rb0 2.999865 1_555
O24 Rb2 3.019605 1_565
O25 Rb0 2.999865 1_555
O25 Rb2 3.019605 1_655
