# generated using pymatgen
data_Cr4Co3(PO4)6
_symmetry_space_group_name_H-M   'P 1'
_cell_length_a   6.37225532
_cell_length_b   7.96230601
_cell_length_c   9.41149619
_cell_angle_alpha   105.20929516
_cell_angle_beta   108.31695057
_cell_angle_gamma   101.55592396
_symmetry_Int_Tables_number   1
_chemical_formula_structural   Cr4Co3(PO4)6
_chemical_formula_sum   'Cr4 Co3 P6 O24'
_cell_volume   416.08446274
_cell_formula_units_Z   1
loop_
 _symmetry_equiv_pos_site_id
 _symmetry_equiv_pos_as_xyz
  1  'x, y, z'
loop_
 _atom_site_type_symbol
 _atom_site_label
 _atom_site_symmetry_multiplicity
 _atom_site_fract_x
 _atom_site_fract_y
 _atom_site_fract_z
 _atom_site_occupancy
  Cr  Cr0  1  0.61985600  0.54303200  0.89080900  1
  Cr  Cr1  1  0.04990600  0.71708300  0.52378500  1
  Cr  Cr2  1  0.38014500  0.45696800  0.10919100  1
  Cr  Cr3  1  0.95009300  0.28291700  0.47621500  1
  Co  Co0  1  0.29668500  0.81254200  0.29594500  1
  Co  Co1  1  0.70331600  0.18745800  0.70405500  1
  Co  Co2  1  0.00000000  0.00000000  0.00000000  1
  P  P0  1  0.77824600  0.85361000  0.23401300  1
  P  P1  1  0.22175500  0.14639000  0.76598700  1
  P  P2  1  0.60905000  0.76763100  0.63408000  1
  P  P3  1  0.39094900  0.23236900  0.36591900  1
  P  P4  1  0.09399500  0.59618300  0.83317100  1
  P  P5  1  0.90600700  0.40381700  0.16683000  1
  O  O0  1  0.79030000  0.05216800  0.29580400  1
  O  O1  1  0.20969900  0.94783200  0.70419600  1
  O  O2  1  0.77835400  0.80167500  0.06077200  1
  O  O3  1  0.22164600  0.19832500  0.93922700  1
  O  O4  1  0.62902300  0.23807500  0.49146000  1
  O  O5  1  0.37097700  0.76192500  0.50854000  1
  O  O6  1  0.00951600  0.18505300  0.65588500  1
  O  O7  1  0.99048500  0.81494700  0.34411500  1
  O  O8  1  0.87968700  0.46433400  0.83885400  1
  O  O9  1  0.12031200  0.53566600  0.16114600  1
  O  O10  1  0.88279500  0.20875700  0.08454600  1
  O  O11  1  0.11720600  0.79124300  0.91545400  1
  O  O12  1  0.92883300  0.45178300  0.34490400  1
  O  O13  1  0.26878700  0.03565300  0.23806300  1
  O  O14  1  0.73121200  0.96434700  0.76193700  1
  O  O15  1  0.31464700  0.54329800  0.91891900  1
  O  O16  1  0.68535200  0.45670200  0.08108000  1
  O  O17  1  0.24897900  0.28560500  0.46407500  1
  O  O18  1  0.07116800  0.54821700  0.65509600  1
  O  O19  1  0.44793600  0.36628700  0.28344700  1
  O  O20  1  0.55206400  0.63371300  0.71655400  1
  O  O21  1  0.45211900  0.26695300  0.76923400  1
  O  O22  1  0.54788000  0.73304700  0.23076600  1
  O  O23  1  0.75102000  0.71439500  0.53592600  1
loop_
_geom_bond_atom_site_label_1
_geom_bond_atom_site_label_2
_geom_bond_distance
_geom_bond_site_symmetry_2
Cr0 O20 1.923151 1_555
Cr0 O8 2.033936 1_555
Cr0 O16 2.035793 1_556
Cr0 O15 2.043838 1_555
Cr0 O2 2.059774 1_556
Cr0 O21 2.062541 1_555
Cr1 O23 1.939761 1_455
Cr1 O1 1.955092 1_555
Cr1 O7 2.004255 1_455
Cr1 O18 2.047703 1_555
Cr1 O5 2.062203 1_555
Cr1 O12 2.134584 1_455
Cr2 O19 1.923159 1_555
Cr2 O9 2.033948 1_555
Cr2 O15 2.035801 1_554
Cr2 O16 2.043830 1_555
Cr2 O3 2.059778 1_554
Cr2 O22 2.062540 1_555
Cr3 O17 1.939757 1_655
Cr3 O0 1.955092 1_555
Cr3 O6 2.004255 1_655
Cr3 O12 2.047703 1_555
Cr3 O4 2.062196 1_555
Cr3 O18 2.134583 1_655
Co0 O13 2.014364 1_565
Co0 O22 2.039237 1_555
Co0 O5 2.072216 1_555
Co0 O9 2.091983 1_555
Co0 O7 2.139959 1_455
Co1 O14 2.014362 1_545
Co1 O21 2.039249 1_555
Co1 O4 2.072216 1_555
Co1 O8 2.091981 1_555
Co1 O6 2.139959 1_655
Co2 O10 2.032426 1_455
Co2 O11 2.032430 1_544
Co2 O2 2.214423 1_445
Co2 O3 2.214429 1_554
Co2 O13 2.256895 1_555
Co2 O14 2.256897 1_444
O0 P0 1.511441 1_545
O1 P1 1.511437 1_565
O2 P0 1.573673 1_555
O3 P1 1.573667 1_555
O4 P3 1.586551 1_555
O5 P2 1.586543 1_555
O6 P1 1.565550 1_555
O7 P0 1.565550 1_555
O8 P4 1.571908 1_655
O9 P5 1.571899 1_455
O10 P5 1.496223 1_555
O11 P4 1.496223 1_555
O12 P5 1.569867 1_555
O13 P3 1.562397 1_555
O14 P2 1.562401 1_555
O15 P4 1.583625 1_555
O16 P5 1.583645 1_555
O17 P3 1.524786 1_555
O18 P4 1.569875 1_555
O19 P3 1.525648 1_555
O20 P2 1.525661 1_555
O21 P1 1.571347 1_555
O22 P0 1.571358 1_555
O23 P2 1.524772 1_555
