# generated using pymatgen
data_InPd3
_symmetry_space_group_name_H-M   'P 1'
_cell_length_a   4.08968924
_cell_length_b   4.08968924
_cell_length_c   8.20855328
_cell_angle_alpha   104.42494235
_cell_angle_beta   104.42494235
_cell_angle_gamma   90.00000000
_symmetry_Int_Tables_number   1
_chemical_formula_structural   InPd3
_chemical_formula_sum   'In2 Pd6'
_cell_volume   128.49057035
_cell_formula_units_Z   2
loop_
 _symmetry_equiv_pos_site_id
 _symmetry_equiv_pos_as_xyz
  1  'x, y, z'
loop_
 _atom_site_type_symbol
 _atom_site_label
 _atom_site_symmetry_multiplicity
 _atom_site_fract_x
 _atom_site_fract_y
 _atom_site_fract_z
 _atom_site_occupancy
  In  In0  1  0.87496690  0.87496690  0.74993481  1
  In  In1  1  0.12503310  0.12503310  0.25006519  1
  Pd  Pd0  1  0.50000000  -0.00000000  -0.00000000  1
  Pd  Pd1  1  -0.00000000  0.50000000  -0.00000000  1
  Pd  Pd2  1  0.25000000  0.75000000  0.50000000  1
  Pd  Pd3  1  0.75000000  0.25000000  0.50000000  1
  Pd  Pd4  1  0.62607943  0.62607943  0.25215986  1
  Pd  Pd5  1  0.37392057  0.37392057  0.74784014  1
loop_
_geom_bond_atom_site_label_1
_geom_bond_atom_site_label_2
_geom_bond_distance
_geom_bond_site_symmetry_2
In0 Pd3 2.805005 1_555
In0 Pd2 2.805005 1_555
In0 Pd3 2.805009 1_565
In0 Pd2 2.805009 1_655
In0 Pd1 2.805691 1_656
In0 Pd0 2.805691 1_566
In0 Pd0 2.805694 1_666
In0 Pd1 2.805694 1_666
In0 Pd5 2.891886 1_555
In0 Pd5 2.891892 1_565
In0 Pd5 2.891892 1_655
In0 Pd5 2.891898 1_665
In1 Pd3 2.805005 1_555
In1 Pd2 2.805005 1_555
In1 Pd2 2.805009 1_545
In1 Pd3 2.805009 1_455
In1 Pd0 2.805691 1_555
In1 Pd1 2.805691 1_555
In1 Pd1 2.805694 1_545
In1 Pd0 2.805694 1_455
In1 Pd4 2.891886 1_555
In1 Pd4 2.891892 1_545
In1 Pd4 2.891892 1_455
In1 Pd4 2.891898 1_445
Pd0 Pd5 2.816734 1_544
Pd0 Pd4 2.816734 1_555
Pd0 Pd5 2.816737 1_554
Pd0 Pd4 2.816737 1_545
Pd0 Pd1 2.891847 1_555
Pd0 Pd1 2.891847 1_545
Pd0 Pd1 2.891847 1_655
Pd0 Pd1 2.891847 1_645
Pd1 Pd4 2.816734 1_555
Pd1 Pd5 2.816734 1_454
Pd1 Pd5 2.816737 1_554
Pd1 Pd4 2.816737 1_455
Pd2 Pd5 2.794015 1_555
Pd2 Pd4 2.794015 1_555
Pd2 Pd4 2.794018 1_455
Pd2 Pd5 2.794018 1_565
Pd2 Pd3 2.891847 1_465
Pd2 Pd3 2.891847 1_555
Pd2 Pd3 2.891847 1_565
Pd2 Pd3 2.891847 1_455
Pd3 Pd5 2.794015 1_555
Pd3 Pd4 2.794015 1_555
Pd3 Pd4 2.794018 1_545
Pd3 Pd5 2.794018 1_655
