# generated using pymatgen
data_Ba2P7Br
_symmetry_space_group_name_H-M   'P 1'
_cell_length_a   6.94598154
_cell_length_b   6.38055076
_cell_length_c   11.99928737
_cell_angle_alpha   84.13349423
_cell_angle_beta   90.00000000
_cell_angle_gamma   90.00000000
_symmetry_Int_Tables_number   1
_chemical_formula_structural   Ba2P7Br
_chemical_formula_sum   'Ba4 P14 Br2'
_cell_volume   529.01350166
_cell_formula_units_Z   2
loop_
 _symmetry_equiv_pos_site_id
 _symmetry_equiv_pos_as_xyz
  1  'x, y, z'
loop_
 _atom_site_type_symbol
 _atom_site_label
 _atom_site_symmetry_multiplicity
 _atom_site_fract_x
 _atom_site_fract_y
 _atom_site_fract_z
 _atom_site_occupancy
  Ba  Ba0  1  0.75000000  0.28659842  0.04486325  1
  Ba  Ba1  1  0.25000000  0.71340158  0.95513675  1
  Ba  Ba2  1  0.75000000  0.06717012  0.64757222  1
  Ba  Ba3  1  0.25000000  0.93282988  0.35242778  1
  P  P0  1  0.75000000  0.49399689  0.44716879  1
  P  P1  1  0.25000000  0.50600311  0.55283121  1
  P  P2  1  0.75000000  0.83037119  0.22373108  1
  P  P3  1  0.25000000  0.16962881  0.77626892  1
  P  P4  1  0.75000000  0.82914060  0.40556602  1
  P  P5  1  0.25000000  0.17085940  0.59443398  1
  P  P6  1  0.50779089  0.62657976  0.19725695  1
  P  P7  1  0.00779089  0.37342024  0.80274305  1
  P  P8  1  0.49220911  0.37342024  0.80274305  1
  P  P9  1  0.99220911  0.62657976  0.19725695  1
  P  P10  1  0.58234473  0.36174087  0.31254809  1
  P  P11  1  0.08234473  0.63825913  0.68745191  1
  P  P12  1  0.41765527  0.63825913  0.68745191  1
  P  P13  1  0.91765527  0.36174087  0.31254809  1
  Br  Br0  1  0.75000000  0.84598720  0.91422613  1
  Br  Br1  1  0.25000000  0.15401280  0.08577387  1
loop_
_geom_bond_atom_site_label_1
_geom_bond_atom_site_label_2
_geom_bond_distance
_geom_bond_site_symmetry_2
Ba0 Br0 3.355851 1_544
Ba0 P8 3.409510 1_554
Ba0 P7 3.409510 1_654
Ba0 P6 3.419189 1_555
Ba0 P9 3.419189 1_555
Ba0 P2 3.435574 1_545
Ba0 P10 3.495416 1_555
Ba0 P13 3.495416 1_555
Ba0 Br1 3.596306 1_655
Ba0 Br1 3.596306 1_555
Ba0 Br0 3.748699 1_554
Ba1 Br1 3.355851 1_566
Ba1 P9 3.409510 1_456
Ba1 P6 3.409510 1_556
Ba1 P7 3.419189 1_555
Ba1 P8 3.419189 1_555
Ba1 P3 3.435574 1_565
Ba1 P11 3.495416 1_555
Ba1 P12 3.495416 1_555
Ba1 Br0 3.596306 1_455
Ba1 Br0 3.596306 1_555
Ba1 Br1 3.748699 1_556
Ba2 P8 3.351887 1_555
Ba2 P7 3.351887 1_655
Ba2 Br0 3.362499 1_545
Ba2 P4 3.411868 1_545
Ba2 P0 3.443934 1_555
Ba2 P11 3.574875 1_645
Ba2 P12 3.574875 1_545
Ba2 P5 3.580461 1_555
Ba2 P5 3.580461 1_655
Ba3 P9 3.351887 1_455
Ba3 P6 3.351887 1_555
Ba3 Br1 3.362499 1_565
Ba3 P5 3.411868 1_565
Ba3 P1 3.443934 1_555
Ba3 P10 3.574875 1_565
Ba3 P13 3.574875 1_465
Ba3 P4 3.580461 1_555
Ba3 P4 3.580461 1_455
P0 P4 2.145634 1_555
P0 P10 2.226266 1_555
P0 P13 2.226266 1_555
P1 P5 2.145634 1_555
P1 P11 2.226266 1_555
P1 P12 2.226266 1_555
P2 P6 2.169456 1_555
P2 P9 2.169456 1_555
P2 P4 2.181101 1_555
P3 P8 2.169456 1_555
P3 P7 2.169456 1_555
P3 P5 2.181101 1_555
P10 P6 2.135322 1_555
P10 P13 2.329061 1_555
P11 P7 2.135322 1_555
P11 P12 2.329061 1_555
P12 P8 2.135322 1_555
P13 P9 2.135322 1_555
