# generated using pymatgen
data_La3GaCoS7
_symmetry_space_group_name_H-M   'P 1'
_cell_length_a   10.16537030
_cell_length_b   10.16537030
_cell_length_c   5.97840000
_cell_angle_alpha   90.00000000
_cell_angle_beta   90.00000000
_cell_angle_gamma   120.00000192
_symmetry_Int_Tables_number   1
_chemical_formula_structural   La3GaCoS7
_chemical_formula_sum   'La6 Ga2 Co2 S14'
_cell_volume   535.01012279
_cell_formula_units_Z   2
loop_
 _symmetry_equiv_pos_site_id
 _symmetry_equiv_pos_as_xyz
  1  'x, y, z'
loop_
 _atom_site_type_symbol
 _atom_site_label
 _atom_site_symmetry_multiplicity
 _atom_site_fract_x
 _atom_site_fract_y
 _atom_site_fract_z
 _atom_site_occupancy
  La  La0  1  0.14032400  0.37035000  0.21923300  1
  La  La1  1  0.23002600  0.85967600  0.21923300  1
  La  La2  1  0.62965000  0.76997400  0.21923300  1
  La  La3  1  0.85967600  0.62965000  0.71923300  1
  La  La4  1  0.76997400  0.14032400  0.71923300  1
  La  La5  1  0.37035000  0.23002600  0.71923300  1
  Ga  Ga0  1  0.66666700  0.33333300  0.13893800  1
  Ga  Ga1  1  0.33333300  0.66666700  0.63893800  1
  Co  Co0  1  0.00000000  0.00000000  0.00180500  1
  Co  Co1  1  0.00000000  0.00000000  0.50180500  1
  S  S0  1  0.86332300  0.08504800  0.25936400  1
  S  S1  1  0.22172500  0.13667700  0.25936400  1
  S  S2  1  0.91495200  0.77827500  0.25936400  1
  S  S3  1  0.13667700  0.91495200  0.75936400  1
  S  S4  1  0.77827500  0.86332300  0.75936400  1
  S  S5  1  0.08504800  0.22172500  0.75936400  1
  S  S6  1  0.42122600  0.51658400  0.49209400  1
  S  S7  1  0.09535800  0.57877400  0.49209400  1
  S  S8  1  0.48341600  0.90464200  0.49209400  1
  S  S9  1  0.57877400  0.48341600  0.99209400  1
  S  S10  1  0.90464200  0.42122600  0.99209400  1
  S  S11  1  0.51658400  0.09535800  0.99209400  1
  S  S12  1  0.66666700  0.33333300  0.51375200  1
  S  S13  1  0.33333300  0.66666700  0.01375200  1
loop_
_geom_bond_atom_site_label_1
_geom_bond_atom_site_label_2
_geom_bond_distance
_geom_bond_site_symmetry_2
La0 S0 2.868992 1_455
La0 S7 2.885716 1_555
La0 S1 2.889674 1_555
La0 S13 2.919218 1_555
La0 S6 2.963072 1_555
La0 S10 3.015014 1_454
La0 S5 3.050892 1_554
La0 S5 3.489500 1_555
La1 S1 2.868992 1_565
La1 S8 2.885716 1_555
La1 S2 2.889674 1_455
La1 S13 2.919211 1_555
La1 S7 2.963072 1_555
La1 S11 3.015014 1_564
La1 S3 3.050892 1_554
La1 S3 3.489500 1_555
La2 S2 2.868992 1_555
La2 S6 2.885716 1_555
La2 S0 2.889674 1_565
La2 S13 2.919220 1_555
La2 S8 2.963073 1_555
La2 S9 3.015014 1_554
La2 S4 3.050892 1_554
La2 S4 3.489500 1_555
La3 S3 2.868992 1_655
La3 S10 2.885716 1_555
La3 S4 2.889674 1_555
La3 S12 2.919218 1_555
La3 S9 2.963072 1_555
La3 S7 3.015014 1_655
La3 S2 3.050892 1_555
La3 S2 3.489500 1_556
La4 S4 2.868992 1_545
La4 S11 2.885716 1_555
La4 S5 2.889674 1_655
La4 S12 2.919211 1_555
La4 S10 2.963072 1_555
La4 S8 3.015014 1_545
La4 S0 3.050892 1_555
La4 S0 3.489500 1_556
La5 S5 2.868992 1_555
La5 S9 2.885716 1_555
La5 S3 2.889674 1_545
La5 S12 2.919220 1_555
La5 S11 2.963073 1_555
La5 S6 3.015014 1_555
La5 S1 3.050892 1_555
La5 S1 3.489500 1_556
Ga0 S12 2.240788 1_555
Ga0 S10 2.293393 1_554
Ga0 S11 2.293395 1_554
Ga0 S9 2.293402 1_554
Ga1 S13 2.240788 1_556
Ga1 S7 2.293393 1_555
Ga1 S8 2.293395 1_555
Ga1 S6 2.293402 1_555
Co0 S4 2.445353 1_444
Co0 S5 2.445353 1_554
Co0 S3 2.445354 1_544
Co0 S1 2.499984 1_555
Co0 S2 2.499984 1_445
Co0 S0 2.499984 1_455
Co1 S1 2.445353 1_555
Co1 S2 2.445353 1_445
Co1 S0 2.445354 1_455
Co1 S4 2.499984 1_445
Co1 S5 2.499984 1_555
Co1 S3 2.499984 1_545
