# generated using pymatgen
data_Be(NF2)2
_symmetry_space_group_name_H-M   'P 1'
_cell_length_a   6.21581200
_cell_length_b   14.68206500
_cell_length_c   11.91848500
_cell_angle_alpha   90.00000000
_cell_angle_beta   90.00000000
_cell_angle_gamma   90.00000000
_symmetry_Int_Tables_number   1
_chemical_formula_structural   Be(NF2)2
_chemical_formula_sum   'Be8 N16 F32'
_cell_volume   1087.69233293
_cell_formula_units_Z   8
loop_
 _symmetry_equiv_pos_site_id
 _symmetry_equiv_pos_as_xyz
  1  'x, y, z'
loop_
 _atom_site_type_symbol
 _atom_site_label
 _atom_site_symmetry_multiplicity
 _atom_site_fract_x
 _atom_site_fract_y
 _atom_site_fract_z
 _atom_site_occupancy
  Be  Be0  1  0.83470200  0.01944800  0.95251800  1
  Be  Be1  1  0.16529800  0.98055200  0.45251800  1
  Be  Be2  1  0.66529800  0.51944800  0.95251800  1
  Be  Be3  1  0.33470200  0.48055200  0.45251800  1
  Be  Be4  1  0.82285900  0.77550400  0.69659700  1
  Be  Be5  1  0.17714100  0.22449600  0.19659700  1
  Be  Be6  1  0.67714100  0.27550400  0.69659700  1
  Be  Be7  1  0.32285900  0.72449600  0.19659700  1
  N  N0  1  0.31501800  0.80784700  0.74126200  1
  N  N1  1  0.68498200  0.19215300  0.24126200  1
  N  N2  1  0.18498200  0.30784700  0.74126200  1
  N  N3  1  0.81501800  0.69215300  0.24126200  1
  N  N4  1  0.66112900  0.82309800  0.96908200  1
  N  N5  1  0.33887100  0.17690200  0.46908200  1
  N  N6  1  0.83887100  0.32309800  0.96908200  1
  N  N7  1  0.16112900  0.67690200  0.46908200  1
  N  N8  1  0.59411600  0.54888100  0.68985100  1
  N  N9  1  0.40588400  0.45111900  0.18985100  1
  N  N10  1  0.90588400  0.04888100  0.68985100  1
  N  N11  1  0.09411600  0.95111900  0.18985100  1
  N  N12  1  0.75157100  0.86325300  0.44054200  1
  N  N13  1  0.24842900  0.13674700  0.94054200  1
  N  N14  1  0.74842900  0.36325300  0.44054200  1
  N  N15  1  0.25157100  0.63674700  0.94054200  1
  F  F0  1  0.89591000  0.98604200  0.17358100  1
  F  F1  1  0.10409000  0.01395800  0.67358100  1
  F  F2  1  0.60409000  0.48604200  0.17358100  1
  F  F3  1  0.39591000  0.51395800  0.67358100  1
  F  F4  1  0.91929400  0.69042200  0.68787000  1
  F  F5  1  0.08070600  0.30957800  0.18787000  1
  F  F6  1  0.58070600  0.19042200  0.68787000  1
  F  F7  1  0.41929400  0.80957800  0.18787000  1
  F  F8  1  0.71087000  0.78055600  0.48507700  1
  F  F9  1  0.28913000  0.21944400  0.98507700  1
  F  F10  1  0.78913000  0.28055600  0.48507700  1
  F  F11  1  0.21087000  0.71944400  0.98507700  1
  F  F12  1  0.78651600  0.59779000  0.97395000  1
  F  F13  1  0.21348400  0.40221000  0.47395000  1
  F  F14  1  0.71348400  0.09779000  0.97395000  1
  F  F15  1  0.28651600  0.90221000  0.47395000  1
  F  F16  1  0.00213800  0.95823500  0.93134500  1
  F  F17  1  0.99786200  0.04176500  0.43134500  1
  F  F18  1  0.49786200  0.45823500  0.93134500  1
  F  F19  1  0.50213800  0.54176500  0.43134500  1
  F  F20  1  0.58294500  0.90915400  0.97456700  1
  F  F21  1  0.41705500  0.09084600  0.47456700  1
  F  F22  1  0.91705500  0.40915400  0.97456700  1
  F  F23  1  0.08294500  0.59084600  0.47456700  1
  F  F24  1  0.44053200  0.73570900  0.71534200  1
  F  F25  1  0.55946800  0.26429100  0.21534200  1
  F  F26  1  0.05946800  0.23570900  0.71534200  1
  F  F27  1  0.94053200  0.76429100  0.21534200  1
  F  F28  1  0.76082500  0.86624700  0.70811700  1
  F  F29  1  0.23917500  0.13375300  0.20811700  1
  F  F30  1  0.73917500  0.36624700  0.70811700  1
  F  F31  1  0.26082500  0.63375300  0.20811700  1
loop_
_geom_bond_atom_site_label_1
_geom_bond_atom_site_label_2
_geom_bond_distance
_geom_bond_site_symmetry_2
Be0 F16 1.398057 1_645
Be0 F14 1.398561 1_555
Be1 F17 1.398057 1_465
Be1 F15 1.398561 1_555
Be2 F18 1.398057 1_555
Be2 F12 1.398561 1_555
Be3 F19 1.398057 1_555
Be3 F13 1.398561 1_555
Be4 F4 1.389451 1_555
Be4 F28 1.393751 1_555
Be5 F5 1.389451 1_555
Be5 F29 1.393751 1_555
Be6 F6 1.389451 1_555
Be6 F30 1.393751 1_555
Be7 F7 1.389451 1_555
Be7 F31 1.393751 1_555
F0 N11 1.348465 1_655
F1 N10 1.348465 1_455
F2 N9 1.348465 1_555
F3 N8 1.348465 1_555
F8 N12 1.349049 1_555
F9 N13 1.349049 1_555
F10 N14 1.349049 1_555
F11 N15 1.349049 1_555
F20 N4 1.355296 1_555
F21 N5 1.355296 1_555
F22 N6 1.355296 1_555
F23 N7 1.355296 1_555
F24 N0 1.351248 1_555
F25 N1 1.351248 1_555
F26 N2 1.351248 1_555
F27 N3 1.351248 1_555
