# generated using pymatgen
data_TmAlAu
_symmetry_space_group_name_H-M   'P 1'
_cell_length_a   4.41474332
_cell_length_b   7.04228550
_cell_length_c   7.71312860
_cell_angle_alpha   90.00004732
_cell_angle_beta   90.00000000
_cell_angle_gamma   90.00000000
_symmetry_Int_Tables_number   1
_chemical_formula_structural   TmAlAu
_chemical_formula_sum   'Tm4 Al4 Au4'
_cell_volume   239.80026472
_cell_formula_units_Z   4
loop_
 _symmetry_equiv_pos_site_id
 _symmetry_equiv_pos_as_xyz
  1  'x, y, z'
loop_
 _atom_site_type_symbol
 _atom_site_label
 _atom_site_symmetry_multiplicity
 _atom_site_fract_x
 _atom_site_fract_y
 _atom_site_fract_z
 _atom_site_occupancy
  Tm  Tm0  1  0.25000000  0.00820753  0.30070625  1
  Tm  Tm1  1  0.25000000  0.50820753  0.19929375  1
  Tm  Tm2  1  0.75000000  0.99179247  0.69929375  1
  Tm  Tm3  1  0.75000000  0.49179247  0.80070625  1
  Al  Al0  1  0.25000000  0.17566245  0.92197140  1
  Al  Al1  1  0.25000000  0.67566245  0.57802860  1
  Al  Al2  1  0.75000000  0.82433755  0.07802860  1
  Al  Al3  1  0.75000000  0.32433755  0.42197140  1
  Au  Au0  1  0.25000000  0.28388243  0.59396289  1
  Au  Au1  1  0.25000000  0.78388243  0.90603711  1
  Au  Au2  1  0.75000000  0.71611757  0.40603711  1
  Au  Au3  1  0.75000000  0.21611757  0.09396289  1
loop_
_geom_bond_atom_site_label_1
_geom_bond_atom_site_label_2
_geom_bond_distance
_geom_bond_site_symmetry_2
Al0 Au3 2.591043 1_556
Al0 Au3 2.591043 1_456
Al0 Au0 2.642268 1_555
Al0 Au1 2.761763 1_545
Al0 Tm2 3.082063 1_445
Al0 Tm2 3.082063 1_545
Al0 Tm0 3.150279 1_556
Al0 Tm1 3.171719 1_556
Al0 Tm3 3.271644 1_455
Al0 Tm3 3.271644 1_555
Al1 Au2 2.591043 1_455
Al1 Au2 2.591043 1_555
Al1 Au1 2.642267 1_555
Al1 Au0 2.761763 1_555
Al1 Tm3 3.082064 1_555
Al1 Tm3 3.082064 1_455
Al1 Tm1 3.150278 1_555
Al1 Tm0 3.171721 1_565
Al1 Tm2 3.271643 1_555
Al1 Tm2 3.271643 1_455
Al2 Au1 2.591043 1_654
Al2 Au1 2.591043 1_554
Al2 Au2 2.642268 1_555
Al2 Au3 2.761763 1_565
Al2 Tm0 3.082063 1_665
Al2 Tm0 3.082063 1_565
Al2 Tm2 3.150279 1_554
Al2 Tm3 3.171719 1_554
Al2 Tm1 3.271644 1_655
Al2 Tm1 3.271644 1_555
Al3 Au0 2.591043 1_655
Al3 Au0 2.591043 1_555
Al3 Au3 2.642267 1_555
Al3 Au2 2.761763 1_555
Al3 Tm1 3.082064 1_655
Al3 Tm1 3.082064 1_555
Al3 Tm3 3.150278 1_555
Al3 Tm2 3.171721 1_545
Al3 Tm0 3.271643 1_655
Al3 Tm0 3.271643 1_555
Au0 Tm0 2.980816 1_555
Au0 Tm3 3.091784 1_555
Au0 Tm3 3.091784 1_455
Au0 Tm2 3.124693 1_445
Au0 Tm2 3.124693 1_545
Au0 Tm1 3.429636 1_555
Au1 Tm1 2.980818 1_556
Au1 Tm2 3.091785 1_455
Au1 Tm2 3.091785 1_555
Au1 Tm3 3.124692 1_555
Au1 Tm3 3.124692 1_455
Au1 Tm0 3.429634 1_566
Au2 Tm2 2.980816 1_555
Au2 Tm1 3.091784 1_655
Au2 Tm1 3.091784 1_555
Au2 Tm0 3.124693 1_665
Au2 Tm0 3.124693 1_565
Au2 Tm3 3.429636 1_555
Au3 Tm3 2.980818 1_554
Au3 Tm0 3.091785 1_555
Au3 Tm0 3.091785 1_655
Au3 Tm1 3.124692 1_555
Au3 Tm1 3.124692 1_655
Au3 Tm2 3.429634 1_544
