# generated using pymatgen
data_Li4V3O8
_symmetry_space_group_name_H-M   'P 1'
_cell_length_a   5.85297192
_cell_length_b   10.13174842
_cell_length_c   6.15846663
_cell_angle_alpha   106.05778630
_cell_angle_beta   61.52390210
_cell_angle_gamma   90.11146602
_symmetry_Int_Tables_number   1
_chemical_formula_structural   Li4V3O8
_chemical_formula_sum   'Li8 V6 O16'
_cell_volume   304.82190259
_cell_formula_units_Z   2
loop_
 _symmetry_equiv_pos_site_id
 _symmetry_equiv_pos_as_xyz
  1  'x, y, z'
loop_
 _atom_site_type_symbol
 _atom_site_label
 _atom_site_symmetry_multiplicity
 _atom_site_fract_x
 _atom_site_fract_y
 _atom_site_fract_z
 _atom_site_occupancy
  Li  Li0  1  0.49577700  0.49818300  0.99763000  1
  Li  Li1  1  0.00607000  0.99811200  0.99820500  1
  Li  Li2  1  0.25457100  0.25115900  0.50140300  1
  Li  Li3  1  0.74478600  0.75122600  0.50145000  1
  Li  Li4  1  0.46906200  0.17993500  0.07462700  1
  Li  Li5  1  0.95808600  0.68065900  0.07420800  1
  Li  Li6  1  0.52867100  0.82109600  0.92778100  1
  Li  Li7  1  0.04155200  0.32143200  0.92878000  1
  V  V0  1  0.49123000  0.49935900  0.50777900  1
  V  V1  1  0.74499400  0.24810800  0.50027600  1
  V  V2  1  0.49913200  0.99849100  0.50807800  1
  V  V3  1  0.00694900  0.00080800  0.49375300  1
  V  V4  1  0.25637400  0.74905300  0.49960900  1
  V  V5  1  0.99807400  0.50127400  0.49416900  1
  O  O0  1  0.13799700  0.61848400  0.70910800  1
  O  O1  1  0.65204900  0.11772600  0.70941800  1
  O  O2  1  0.84688500  0.38195900  0.29571600  1
  O  O3  1  0.35852600  0.88202400  0.29280900  1
  O  O4  1  0.88849200  0.37197000  0.69532100  1
  O  O5  1  0.38032600  0.87179300  0.71609100  1
  O  O6  1  0.63187200  0.61010700  0.70504300  1
  O  O7  1  0.16264100  0.10969800  0.70580600  1
  O  O8  1  0.40541900  0.37164900  0.71275400  1
  O  O9  1  0.91688300  0.87208500  0.69496800  1
  O  O10  1  0.10344200  0.62089700  0.29309400  1
  O  O11  1  0.62991200  0.13413500  0.29099900  1
  O  O12  1  0.36342500  0.39159700  0.29334900  1
  O  O13  1  0.84283300  0.89128300  0.29369300  1
  O  O14  1  0.57972900  0.63496400  0.29052600  1
  O  O15  1  0.10424000  0.12073500  0.29355800  1
loop_
_geom_bond_atom_site_label_1
_geom_bond_atom_site_label_2
_geom_bond_distance
_geom_bond_site_symmetry_2
Li0 O8 2.153841 1_555
Li0 O12 2.195998 1_556
Li0 O14 2.208002 1_556
Li0 O10 2.214720 1_556
Li0 O6 2.219327 1_555
Li0 O4 2.235702 1_555
Li1 O5 2.146277 1_555
Li1 O13 2.196251 1_456
Li1 O11 2.202118 1_466
Li1 O7 2.215674 1_565
Li1 O15 2.219422 1_566
Li1 O9 2.235667 1_455
Li2 O8 2.043674 1_555
Li2 O4 2.068057 1_455
Li2 O7 2.068219 1_555
Li2 O15 2.071836 1_555
Li2 O12 2.073363 1_555
Li2 O11 2.087274 1_555
Li3 O5 2.053757 1_555
Li3 O6 2.061797 1_555
Li3 O9 2.065665 1_555
Li3 O13 2.069071 1_555
Li3 O10 2.074036 1_655
Li3 O14 2.086601 1_555
Li4 O1 1.877302 1_554
Li4 O12 2.099650 1_555
Li4 O11 2.101740 1_555
Li4 O15 2.105742 1_555
Li5 O0 1.876825 1_654
Li5 O13 2.091984 1_555
Li5 O14 2.101697 1_555
Li5 O10 2.110610 1_655
Li6 O3 1.877835 1_556
Li6 O5 2.041786 1_555
Li6 O6 2.099740 1_555
Li6 O9 2.187248 1_555
Li7 O2 1.887233 1_456
Li7 O8 2.057391 1_555
Li7 O7 2.106698 1_555
Li7 O4 2.183838 1_455
O0 V4 1.995724 1_555
O0 V5 1.998366 1_455
O0 V0 2.001460 1_555
O1 V1 1.992540 1_555
O1 V3 1.997613 1_655
O1 V2 2.005820 1_545
O2 V5 1.986936 1_555
O2 V1 2.001845 1_555
O2 V0 2.002874 1_555
O3 V3 1.992898 1_565
O3 V2 1.999606 1_555
O3 V4 2.003605 1_555
O4 V5 1.949141 1_555
O4 V1 1.961410 1_555
O5 V2 1.956840 1_555
O5 V4 1.962611 1_555
O6 V0 1.899582 1_555
O6 V5 2.014726 1_555
O7 V2 1.895739 1_545
O7 V3 2.021589 1_555
O8 V0 1.953579 1_555
O8 V1 1.962852 1_555
O9 V3 1.944949 1_665
O9 V4 1.962122 1_655
O10 V5 1.865960 1_455
O10 V4 2.066923 1_555
O11 V1 1.857330 1_555
O11 V2 2.073253 1_545
O12 V0 1.907008 1_555
O12 V5 2.015970 1_455
O13 V2 1.911087 1_555
O13 V3 2.010001 1_665
O14 V4 1.853997 1_555
O14 V0 2.073486 1_555
O15 V3 1.864742 1_555
O15 V1 2.063102 1_455
