# generated using pymatgen
data_Ag5PSeO4
_symmetry_space_group_name_H-M   'P 1'
_cell_length_a   6.98528600
_cell_length_b   6.98528600
_cell_length_c   7.36352400
_cell_angle_alpha   90.00000000
_cell_angle_beta   90.00000000
_cell_angle_gamma   90.00000000
_symmetry_Int_Tables_number   1
_chemical_formula_structural   Ag5PSeO4
_chemical_formula_sum   'Ag10 P2 Se2 O8'
_cell_volume   359.29741373
_cell_formula_units_Z   2
loop_
 _symmetry_equiv_pos_site_id
 _symmetry_equiv_pos_as_xyz
  1  'x, y, z'
loop_
 _atom_site_type_symbol
 _atom_site_label
 _atom_site_symmetry_multiplicity
 _atom_site_fract_x
 _atom_site_fract_y
 _atom_site_fract_z
 _atom_site_occupancy
  Ag  Ag0  1  0.78071300  0.71928700  0.19572100  1
  Ag  Ag1  1  0.21928700  0.71928700  0.19572100  1
  Ag  Ag2  1  0.78071300  0.28071300  0.19572100  1
  Ag  Ag3  1  0.21928700  0.28071300  0.19572100  1
  Ag  Ag4  1  0.71928700  0.78071300  0.80427900  1
  Ag  Ag5  1  0.28071300  0.78071300  0.80427900  1
  Ag  Ag6  1  0.71928700  0.21928700  0.80427900  1
  Ag  Ag7  1  0.28071300  0.21928700  0.80427900  1
  Ag  Ag8  1  0.00000000  0.50000000  0.46965700  1
  Ag  Ag9  1  0.50000000  0.00000000  0.53034300  1
  P  P0  1  0.50000000  0.50000000  0.50000000  1
  P  P1  1  0.00000000  0.00000000  0.50000000  1
  Se  Se0  1  0.00000000  0.50000000  0.00047100  1
  Se  Se1  1  0.50000000  0.00000000  0.99952900  1
  O  O0  1  0.50000000  0.31627400  0.37678700  1
  O  O1  1  0.50000000  0.68372600  0.37678700  1
  O  O2  1  0.81627400  0.00000000  0.37678700  1
  O  O3  1  0.18372600  0.00000000  0.37678700  1
  O  O4  1  0.00000000  0.18372600  0.62321300  1
  O  O5  1  0.00000000  0.81627400  0.62321300  1
  O  O6  1  0.68372600  0.50000000  0.62321300  1
  O  O7  1  0.31627400  0.50000000  0.62321300  1
loop_
_geom_bond_atom_site_label_1
_geom_bond_atom_site_label_2
_geom_bond_distance
_geom_bond_site_symmetry_2
Ag0 O2 2.384182 1_565
Ag0 O1 2.384182 1_555
Ag0 Se0 2.599957 1_655
Ag0 Se1 3.126820 1_564
Ag1 O3 2.384182 1_565
Ag1 O1 2.384182 1_555
Ag1 Se0 2.599957 1_555
Ag1 Se1 3.126820 1_564
Ag2 O2 2.384182 1_555
Ag2 O0 2.384182 1_555
Ag2 Se0 2.599957 1_655
Ag2 Se1 3.126820 1_554
Ag3 O3 2.384182 1_555
Ag3 O0 2.384182 1_555
Ag3 Se0 2.599957 1_555
Ag3 Se1 3.126820 1_554
Ag4 O5 2.384182 1_655
Ag4 O6 2.384182 1_555
Ag4 Se1 2.599957 1_565
Ag4 Se0 3.126820 1_656
Ag5 O5 2.384182 1_555
Ag5 O7 2.384182 1_555
Ag5 Se1 2.599957 1_565
Ag5 Se0 3.126820 1_556
Ag6 O4 2.384182 1_655
Ag6 O6 2.384182 1_555
Ag6 Se1 2.599957 1_555
Ag6 Se0 3.126820 1_656
Ag7 O4 2.384182 1_555
Ag7 O7 2.384182 1_555
Ag7 Se1 2.599957 1_555
Ag7 Se0 3.126820 1_556
Ag8 O5 2.481806 1_555
Ag8 O7 2.481806 1_555
Ag8 O4 2.481806 1_555
Ag8 O6 2.481806 1_455
Ag9 O2 2.481806 1_555
Ag9 O0 2.481806 1_555
Ag9 O3 2.481806 1_555
Ag9 O1 2.481806 1_545
O0 P0 1.571694 1_555
O1 P0 1.571694 1_555
O2 P1 1.571694 1_655
O3 P1 1.571694 1_555
O4 P1 1.571694 1_555
O5 P1 1.571694 1_565
O6 P0 1.571694 1_555
O7 P0 1.571694 1_555
