# generated using pymatgen
data_KAlSe2
_symmetry_space_group_name_H-M   'P 1'
_cell_length_a   7.72887302
_cell_length_b   7.72887302
_cell_length_c   15.44864797
_cell_angle_alpha   82.75452462
_cell_angle_beta   82.75452462
_cell_angle_gamma   90.03082137
_symmetry_Int_Tables_number   1
_chemical_formula_structural   KAlSe2
_chemical_formula_sum   'K8 Al8 Se16'
_cell_volume   908.02662008
_cell_formula_units_Z   8
loop_
 _symmetry_equiv_pos_site_id
 _symmetry_equiv_pos_as_xyz
  1  'x, y, z'
loop_
 _atom_site_type_symbol
 _atom_site_label
 _atom_site_symmetry_multiplicity
 _atom_site_fract_x
 _atom_site_fract_y
 _atom_site_fract_z
 _atom_site_occupancy
  K  K0  1  0.65375380  0.77714834  0.88805574  1
  K  K1  1  0.34624620  0.22285166  0.11194426  1
  K  K2  1  0.22285166  0.34624620  0.61194426  1
  K  K3  1  0.77714834  0.65375380  0.38805574  1
  K  K4  1  0.22421461  0.84846739  0.61038263  1
  K  K5  1  0.77578539  0.15153261  0.38961737  1
  K  K6  1  0.15153261  0.77578539  0.88961737  1
  K  K7  1  0.84846739  0.22421461  0.11038263  1
  Al  Al0  1  0.70985132  0.08763133  0.66248069  1
  Al  Al1  1  0.29014868  0.91236867  0.33751931  1
  Al  Al2  1  0.91236867  0.29014868  0.83751931  1
  Al  Al3  1  0.08763133  0.70985132  0.16248069  1
  Al  Al4  1  0.41967434  0.28977542  0.83774595  1
  Al  Al5  1  0.58032566  0.71022458  0.16225405  1
  Al  Al6  1  0.71022458  0.58032566  0.66225405  1
  Al  Al7  1  0.28977542  0.41967434  0.33774595  1
  Se  Se0  1  0.43306070  0.05573209  0.75054662  1
  Se  Se1  1  0.56693930  0.94426791  0.24945338  1
  Se  Se2  1  0.94426791  0.56693930  0.74945338  1
  Se  Se3  1  0.05573209  0.43306070  0.25054662  1
  Se  Se4  1  0.64205411  0.26622734  0.93379272  1
  Se  Se5  1  0.35794589  0.73377266  0.06620728  1
  Se  Se6  1  0.73377266  0.35794589  0.56620728  1
  Se  Se7  1  0.26622734  0.64205411  0.43379272  1
  Se  Se8  1  0.43305580  0.56694420  0.75000000  1
  Se  Se9  1  0.56694420  0.43305580  0.25000000  1
  Se  Se10  1  0.73263524  0.85748494  0.57015201  1
  Se  Se11  1  0.26736476  0.14251506  0.42984799  1
  Se  Se12  1  0.14251506  0.26736476  0.92984799  1
  Se  Se13  1  0.85748494  0.73263524  0.07015201  1
  Se  Se14  1  0.94324578  0.05675422  0.75000000  1
  Se  Se15  1  0.05675422  0.94324578  0.25000000  1
loop_
_geom_bond_atom_site_label_1
_geom_bond_atom_site_label_2
_geom_bond_distance
_geom_bond_site_symmetry_2
K0 Se5 3.330656 1_556
K0 Se13 3.374213 1_556
K0 Se0 3.438375 1_565
K0 Se14 3.442893 1_565
K0 Se8 3.447671 1_555
K0 Se2 3.454661 1_555
K1 Se4 3.330656 1_554
K1 Se12 3.374213 1_554
K1 Se1 3.438375 1_545
K1 Se15 3.442893 1_545
K1 Se9 3.447671 1_555
K1 Se3 3.454661 1_555
K2 Se7 3.330656 1_555
K2 Se11 3.374213 1_555
K2 Se2 3.438375 1_455
K2 Se14 3.442893 1_455
K2 Se8 3.447671 1_555
K2 Se0 3.454661 1_555
K3 Se6 3.330656 1_555
K3 Se10 3.374213 1_555
K3 Se3 3.438375 1_655
K3 Se15 3.442893 1_655
K3 Se9 3.447671 1_555
K3 Se1 3.454661 1_555
K4 Se7 3.311777 1_555
K4 Se11 3.349708 1_565
K4 Se0 3.407952 1_565
K4 Se14 3.414324 1_465
K4 Se2 3.416878 1_455
K4 Se8 3.419074 1_555
K5 Se6 3.311777 1_555
K5 Se10 3.349708 1_545
K5 Se1 3.407952 1_545
K5 Se15 3.414324 1_645
K5 Se3 3.416878 1_655
K5 Se9 3.419074 1_555
K6 Se5 3.311777 1_556
K6 Se13 3.349708 1_456
K6 Se2 3.407952 1_455
K6 Se14 3.414324 1_465
K6 Se0 3.416878 1_565
K6 Se8 3.419074 1_555
K7 Se4 3.311777 1_554
K7 Se12 3.349708 1_654
K7 Se3 3.407952 1_655
K7 Se15 3.414324 1_645
K7 Se1 3.416878 1_545
K7 Se9 3.419074 1_555
Al0 Se0 2.380954 1_555
Al0 Se14 2.381858 1_555
Al0 Se6 2.399485 1_555
Al0 Se10 2.409664 1_545
Al1 Se1 2.380954 1_555
Al1 Se15 2.381858 1_555
Al1 Se7 2.399485 1_555
Al1 Se11 2.409664 1_565
Al2 Se2 2.380954 1_555
Al2 Se14 2.381858 1_555
Al2 Se4 2.399485 1_555
Al2 Se12 2.409664 1_655
Al3 Se3 2.380954 1_555
Al3 Se15 2.381858 1_555
Al3 Se5 2.399485 1_555
Al3 Se13 2.409664 1_455
Al4 Se8 2.381004 1_555
Al4 Se0 2.382688 1_555
Al4 Se4 2.400906 1_555
Al4 Se12 2.410777 1_555
Al5 Se9 2.381004 1_555
Al5 Se1 2.382688 1_555
Al5 Se5 2.400906 1_555
Al5 Se13 2.410777 1_555
Al6 Se8 2.381004 1_555
Al6 Se2 2.382688 1_555
Al6 Se6 2.400906 1_555
Al6 Se10 2.410777 1_555
Al7 Se9 2.381004 1_555
Al7 Se3 2.382688 1_555
Al7 Se7 2.400906 1_555
Al7 Se11 2.410777 1_555
