# generated using pymatgen
data_K9In9GeSb22
_symmetry_space_group_name_H-M   'P 1'
_cell_length_a   11.54743479
_cell_length_b   11.86476224
_cell_length_c   13.63405728
_cell_angle_alpha   113.25634192
_cell_angle_beta   114.15666359
_cell_angle_gamma   90.80983428
_symmetry_Int_Tables_number   1
_chemical_formula_structural   K9In9GeSb22
_chemical_formula_sum   'K9 In9 Ge1 Sb22'
_cell_volume   1531.11710803
_cell_formula_units_Z   1
loop_
 _symmetry_equiv_pos_site_id
 _symmetry_equiv_pos_as_xyz
  1  'x, y, z'
loop_
 _atom_site_type_symbol
 _atom_site_label
 _atom_site_symmetry_multiplicity
 _atom_site_fract_x
 _atom_site_fract_y
 _atom_site_fract_z
 _atom_site_occupancy
  K  K0  1  0.12910924  0.14776518  0.61123541  1
  K  K1  1  0.87020012  0.85353340  0.38986962  1
  K  K2  1  0.45248958  0.49562309  0.64282990  1
  K  K3  1  0.54729317  0.50602309  0.35801344  1
  K  K4  1  0.49951800  0.49986947  0.99929861  1
  K  K5  1  0.87310455  0.82957758  0.73873380  1
  K  K6  1  0.12591617  0.17094352  0.26095648  1
  K  K7  1  0.12199187  0.18604483  0.94031122  1
  K  K8  1  0.87774729  0.81409411  0.05887890  1
  In  In0  1  0.23941797  0.74239112  0.83241447  1
  In  In1  1  0.76034072  0.25762882  0.16739667  1
  In  In2  1  0.25035460  0.74638670  0.47205878  1
  In  In3  1  0.75048549  0.25434780  0.52963349  1
  In  In4  1  0.75600949  0.21484422  0.82655473  1
  In  In5  1  0.24423589  0.78588824  0.17247644  1
  In  In6  1  0.57404587  0.92964057  0.83657986  1
  In  In7  1  0.42534445  0.06900723  0.16409741  1
  In  In8  1  0.58785471  0.92338140  0.50330003  1
  Ge  Ge0  1  0.41679990  0.07362782  0.49784121  1
  Sb  Sb0  1  0.51733081  0.75707224  0.92309267  1
  Sb  Sb1  1  0.48287391  0.24403375  0.07710808  1
  Sb  Sb2  1  0.38345657  0.08418975  0.82342249  1
  Sb  Sb3  1  0.61627617  0.91472768  0.17434659  1
  Sb  Sb4  1  0.12311424  0.80417513  0.62753455  1
  Sb  Sb5  1  0.87548896  0.19660722  0.37224828  1
  Sb  Sb6  1  0.51398963  0.76133450  0.25286097  1
  Sb  Sb7  1  0.48096472  0.23086640  0.73333096  1
  Sb  Sb8  1  0.08133215  0.41706899  0.52283861  1
  Sb  Sb9  1  0.91794910  0.58295676  0.47704252  1
  Sb  Sb10  1  0.12313606  0.48358739  0.76304222  1
  Sb  Sb11  1  0.87613952  0.51653835  0.23704927  1
  Sb  Sb12  1  0.52533089  0.76141107  0.59480094  1
  Sb  Sb13  1  0.47008198  0.22867524  0.40996763  1
  Sb  Sb14  1  0.83681617  0.08757338  0.64280321  1
  Sb  Sb15  1  0.17749087  0.92419050  0.36634073  1
  Sb  Sb16  1  0.86706151  0.50951470  0.72862743  1
  Sb  Sb17  1  0.13254559  0.49257811  0.27194627  1
  Sb  Sb18  1  0.82627342  0.09290455  0.98377002  1
  Sb  Sb19  1  0.17224144  0.90761039  0.01538035  1
  Sb  Sb20  1  0.86225803  0.48334938  0.92966465  1
  Sb  Sb21  1  0.13558918  0.51841633  0.07030111  1
loop_
_geom_bond_atom_site_label_1
_geom_bond_atom_site_label_2
_geom_bond_distance
_geom_bond_site_symmetry_2
K0 Sb2 3.520809 1_555
K0 Sb15 3.615441 1_545
K0 Sb5 3.641233 1_455
K0 Sb7 3.647783 1_555
K0 Sb14 3.667567 1_455
K0 Sb10 3.711689 1_555
K0 Sb8 3.809595 1_555
K1 Sb3 3.528784 1_555
K1 Sb4 3.629531 1_655
K1 Sb14 3.648002 1_565
K1 Sb6 3.684530 1_555
K1 Sb11 3.725424 1_555
K1 Sb15 3.802229 1_655
K1 Sb9 3.814390 1_555
K2 Sb13 3.571810 1_555
K2 Sb0 3.607831 1_555
K2 Sb12 3.617663 1_555
K2 Sb7 3.775739 1_555
K2 Sb8 3.854654 1_555
K3 Sb12 3.554592 1_555
K3 Sb1 3.617369 1_555
K3 Sb6 3.793487 1_555
K3 Sb13 3.794715 1_555
K3 Sb9 3.849807 1_555
K4 Sb6 3.556189 1_556
K4 Sb1 3.615179 1_556
K4 Sb0 3.618756 1_555
K4 Sb7 3.686088 1_555
K4 Sb10 4.162853 1_555
K4 Sb11 4.170325 1_556
K5 Sb12 3.582905 1_555
K5 Sb19 3.674773 1_656
K5 Sb4 3.737661 1_655
K5 Sb14 3.742412 1_565
K5 Sb16 3.743803 1_555
K5 Sb18 3.807724 1_565
K5 Sb9 3.856271 1_555
K6 Sb13 3.550620 1_555
K6 Sb18 3.681770 1_454
K6 Sb15 3.696095 1_545
K6 Sb5 3.742850 1_455
K6 Sb17 3.757910 1_555
K6 Sb19 3.809272 1_545
K6 Sb8 3.854149 1_555
K7 Sb21 3.598956 1_556
K7 Sb1 3.723201 1_556
K7 Sb14 3.725392 1_455
K7 Sb19 3.812602 1_546
K7 Sb18 3.911460 1_455
K7 Sb2 3.954303 1_555
K8 Sb20 3.577415 1_554
K8 Sb0 3.719065 1_554
K8 Sb18 3.818044 1_564
K8 Sb15 3.864151 1_655
K8 Sb19 3.900117 1_655
K8 Sb3 3.940591 1_555
In0 Sb0 2.902496 1_555
In0 Sb19 2.903871 1_556
In0 Sb10 2.945664 1_555
In0 Sb4 2.952660 1_555
In1 Sb18 2.899216 1_554
In1 Sb1 2.899588 1_555
In1 Sb11 2.944028 1_555
In1 Sb5 2.945733 1_555
In2 Sb12 2.883392 1_555
In2 Sb4 2.924425 1_555
In2 Sb15 2.948674 1_555
In2 Sb17 2.953156 1_555
In3 Sb13 2.914587 1_555
In3 Sb14 2.915096 1_555
In3 Sb5 2.925676 1_555
In3 Sb16 2.957680 1_555
In4 Sb14 2.897074 1_555
In4 Sb18 2.899090 1_555
In4 Sb20 2.927754 1_555
In4 Sb7 2.939873 1_555
In4 K7 3.934113 1_655
In5 Sb19 2.895463 1_555
In5 Sb6 2.910780 1_555
In5 Sb15 2.924206 1_555
In5 Sb21 2.924302 1_555
In5 K8 3.937679 1_455
In6 Sb18 2.872193 1_565
In6 Sb2 2.879046 1_565
In6 Sb12 2.901987 1_555
In6 Sb0 2.917851 1_555
In7 Sb19 2.871521 1_545
In7 Sb3 2.880131 1_545
In7 Sb13 2.938202 1_555
In7 Sb1 2.951483 1_555
In8 Sb14 2.849182 1_565
In8 Sb12 2.891691 1_555
In8 Sb6 2.910090 1_555
Ge0 In8 2.677482 1_545
Ge0 Sb15 2.700117 1_545
Ge0 Sb13 2.740412 1_555
Ge0 Sb7 2.760735 1_555
Sb0 Sb3 2.866212 1_556
Sb1 Sb2 2.895903 1_554
Sb2 Sb7 2.927419 1_555
Sb3 Sb6 2.892387 1_555
Sb4 Sb9 2.881776 1_455
Sb5 Sb8 2.880329 1_655
Sb8 Sb9 2.816824 1_455
Sb10 Sb16 2.839502 1_455
Sb10 Sb8 2.869741 1_555
Sb11 Sb17 2.837486 1_655
Sb11 Sb9 2.867169 1_555
Sb16 Sb20 2.899687 1_555
Sb17 Sb21 2.897912 1_555
Sb20 Sb21 2.862046 1_656
