# generated using pymatgen
data_NaMgP(CO3)2
_symmetry_space_group_name_H-M   'P 1'
_cell_length_a   9.71509700
_cell_length_b   10.11649600
_cell_length_c   11.73342700
_cell_angle_alpha   90.00000000
_cell_angle_beta   90.00000000
_cell_angle_gamma   90.00000000
_symmetry_Int_Tables_number   1
_chemical_formula_structural   NaMgP(CO3)2
_chemical_formula_sum   'Na8 Mg8 P8 C16 O48'
_cell_volume   1153.19335445
_cell_formula_units_Z   8
loop_
 _symmetry_equiv_pos_site_id
 _symmetry_equiv_pos_as_xyz
  1  'x, y, z'
loop_
 _atom_site_type_symbol
 _atom_site_label
 _atom_site_symmetry_multiplicity
 _atom_site_fract_x
 _atom_site_fract_y
 _atom_site_fract_z
 _atom_site_occupancy
  Na  Na0  1  0.07842400  0.11414600  0.93529500  1
  Na  Na1  1  0.42157600  0.61414600  0.06470500  1
  Na  Na2  1  0.57842400  0.88585400  0.56470500  1
  Na  Na3  1  0.92157600  0.38585400  0.43529500  1
  Na  Na4  1  0.92157600  0.88585400  0.06470500  1
  Na  Na5  1  0.57842400  0.38585400  0.93529500  1
  Na  Na6  1  0.42157600  0.11414600  0.43529500  1
  Na  Na7  1  0.07842400  0.61414600  0.56470500  1
  Mg  Mg0  1  0.91399500  0.31166700  0.10851400  1
  Mg  Mg1  1  0.58600500  0.81166700  0.89148600  1
  Mg  Mg2  1  0.41399500  0.68833300  0.39148600  1
  Mg  Mg3  1  0.08600500  0.18833300  0.60851400  1
  Mg  Mg4  1  0.08600500  0.68833300  0.89148600  1
  Mg  Mg5  1  0.41399500  0.18833300  0.10851400  1
  Mg  Mg6  1  0.58600500  0.31166700  0.60851400  1
  Mg  Mg7  1  0.91399500  0.81166700  0.39148600  1
  P  P0  1  0.71334400  0.09433300  0.96356900  1
  P  P1  1  0.78665600  0.59433300  0.03643100  1
  P  P2  1  0.21334400  0.90566700  0.53643100  1
  P  P3  1  0.28665600  0.40566700  0.46356900  1
  P  P4  1  0.28665600  0.90566700  0.03643100  1
  P  P5  1  0.21334400  0.40566700  0.96356900  1
  P  P6  1  0.78665600  0.09433300  0.46356900  1
  P  P7  1  0.71334400  0.59433300  0.53643100  1
  C  C0  1  0.67354000  0.14602700  0.81599100  1
  C  C1  1  0.82646000  0.64602700  0.18400900  1
  C  C2  1  0.17354000  0.85397300  0.68400900  1
  C  C3  1  0.32646000  0.35397300  0.31599100  1
  C  C4  1  0.32646000  0.85397300  0.18400900  1
  C  C5  1  0.17354000  0.35397300  0.81599100  1
  C  C6  1  0.82646000  0.14602700  0.31599100  1
  C  C7  1  0.67354000  0.64602700  0.68400900  1
  C  C8  1  0.55297900  0.07683600  0.75320900  1
  C  C9  1  0.94702100  0.57683600  0.24679100  1
  C  C10  1  0.05297900  0.92316400  0.74679100  1
  C  C11  1  0.44702100  0.42316400  0.25320900  1
  C  C12  1  0.44702100  0.92316400  0.24679100  1
  C  C13  1  0.05297900  0.42316400  0.75320900  1
  C  C14  1  0.94702100  0.07683600  0.25320900  1
  C  C15  1  0.55297900  0.57683600  0.74679100  1
  O  O0  1  0.85176900  0.15165000  0.00165600  1
  O  O1  1  0.64823100  0.65165000  0.99834400  1
  O  O2  1  0.35176900  0.84835000  0.49834400  1
  O  O3  1  0.14823100  0.34835000  0.50165600  1
  O  O4  1  0.14823100  0.84835000  0.99834400  1
  O  O5  1  0.35176900  0.34835000  0.00165600  1
  O  O6  1  0.64823100  0.15165000  0.50165600  1
  O  O7  1  0.85176900  0.65165000  0.49834400  1
  O  O8  1  0.71322000  0.94343800  0.96955800  1
  O  O9  1  0.78678000  0.44343800  0.03044200  1
  O  O10  1  0.21322000  0.05656200  0.53044200  1
  O  O11  1  0.28678000  0.55656200  0.46955800  1
  O  O12  1  0.28678000  0.05656200  0.03044200  1
  O  O13  1  0.21322000  0.55656200  0.96955800  1
  O  O14  1  0.78678000  0.94343800  0.46955800  1
  O  O15  1  0.71322000  0.44343800  0.53044200  1
  O  O16  1  0.58826500  0.16333300  0.01604200  1
  O  O17  1  0.91173500  0.66333300  0.98395800  1
  O  O18  1  0.08826500  0.83666700  0.48395800  1
  O  O19  1  0.41173500  0.33666700  0.51604200  1
  O  O20  1  0.41173500  0.83666700  0.98395800  1
  O  O21  1  0.08826500  0.33666700  0.01604200  1
  O  O22  1  0.91173500  0.16333300  0.51604200  1
  O  O23  1  0.58826500  0.66333300  0.48395800  1
  O  O24  1  0.72233700  0.24524400  0.76958500  1
  O  O25  1  0.77766300  0.74524400  0.23041500  1
  O  O26  1  0.22233700  0.75475600  0.73041500  1
  O  O27  1  0.27766300  0.25475600  0.26958500  1
  O  O28  1  0.27766300  0.75475600  0.23041500  1
  O  O29  1  0.22233700  0.25475600  0.76958500  1
  O  O30  1  0.77766300  0.24524400  0.26958500  1
  O  O31  1  0.72233700  0.74524400  0.73041500  1
  O  O32  1  0.53472800  0.95336900  0.76694100  1
  O  O33  1  0.96527200  0.45336900  0.23305900  1
  O  O34  1  0.03472800  0.04663100  0.73305900  1
  O  O35  1  0.46527200  0.54663100  0.26694100  1
  O  O36  1  0.46527200  0.04663100  0.23305900  1
  O  O37  1  0.03472800  0.54663100  0.76694100  1
  O  O38  1  0.96527200  0.95336900  0.26694100  1
  O  O39  1  0.53472800  0.45336900  0.73305900  1
  O  O40  1  0.48709700  0.14982500  0.68587400  1
  O  O41  1  0.01290300  0.64982500  0.31412600  1
  O  O42  1  0.98709700  0.85017500  0.81412600  1
  O  O43  1  0.51290300  0.35017500  0.18587400  1
  O  O44  1  0.51290300  0.85017500  0.31412600  1
  O  O45  1  0.98709700  0.35017500  0.68587400  1
  O  O46  1  0.01290300  0.14982500  0.18587400  1
  O  O47  1  0.48709700  0.64982500  0.81412600  1
loop_
_geom_bond_atom_site_label_1
_geom_bond_atom_site_label_2
_geom_bond_distance
_geom_bond_site_symmetry_2
Na0 O0 2.366206 1_456
Na0 O12 2.383924 1_556
Na0 O21 2.444255 1_556
Na0 O34 2.505489 1_555
Na1 O1 2.366206 1_554
Na1 O13 2.383924 1_554
Na1 O20 2.444255 1_554
Na1 O35 2.505489 1_555
Na2 O2 2.366206 1_555
Na2 O14 2.383924 1_555
Na2 O23 2.444255 1_555
Na2 O32 2.505489 1_555
Na3 O3 2.366206 1_655
Na3 O15 2.383924 1_555
Na3 O22 2.444255 1_555
Na3 O33 2.505489 1_555
Na4 O4 2.366206 1_654
Na4 O8 2.383924 1_554
Na4 O17 2.444255 1_554
Na4 O38 2.505489 1_555
Na5 O5 2.366206 1_556
Na5 O9 2.383924 1_556
Na5 O16 2.444255 1_556
Na5 O39 2.505489 1_555
Na6 O6 2.366206 1_555
Na6 O10 2.383924 1_555
Na6 O19 2.444255 1_555
Na6 O36 2.505489 1_555
Na7 O7 2.366206 1_455
Na7 O11 2.383924 1_555
Na7 O18 2.444255 1_555
Na7 O37 2.505489 1_555
Mg0 O21 2.026731 1_655
Mg0 O9 2.035600 1_555
Mg0 O46 2.104260 1_655
Mg0 O33 2.106817 1_555
Mg0 O0 2.134959 1_555
Mg0 O30 2.403656 1_555
Mg1 O20 2.026731 1_555
Mg1 O8 2.035600 1_555
Mg1 O47 2.104260 1_555
Mg1 O32 2.106817 1_555
Mg1 O1 2.134959 1_555
Mg1 O31 2.403656 1_555
Mg2 O23 2.026731 1_555
Mg2 O11 2.035600 1_555
Mg2 O44 2.104260 1_555
Mg2 O35 2.106817 1_555
Mg2 O2 2.134959 1_555
Mg2 O28 2.403656 1_555
Mg3 O22 2.026731 1_455
Mg3 O10 2.035600 1_555
Mg3 O45 2.104260 1_455
Mg3 O34 2.106817 1_555
Mg3 O3 2.134959 1_555
Mg3 O29 2.403656 1_555
Mg4 O17 2.026731 1_455
Mg4 O13 2.035600 1_555
Mg4 O42 2.104260 1_455
Mg4 O37 2.106817 1_555
Mg4 O4 2.134959 1_555
Mg4 O26 2.403656 1_555
Mg5 O16 2.026731 1_555
Mg5 O12 2.035600 1_555
Mg5 O43 2.104260 1_555
Mg5 O36 2.106817 1_555
Mg5 O5 2.134959 1_555
Mg5 O27 2.403656 1_555
Mg6 O19 2.026731 1_555
Mg6 O15 2.035600 1_555
Mg6 O40 2.104260 1_555
Mg6 O39 2.106817 1_555
Mg6 O6 2.134959 1_555
Mg6 O24 2.403656 1_555
Mg7 O18 2.026731 1_655
Mg7 O14 2.035600 1_555
Mg7 O41 2.104260 1_655
Mg7 O38 2.106817 1_555
Mg7 O7 2.134959 1_555
Mg7 O25 2.403656 1_555
C0 O24 1.236403 1_555
C0 P0 1.849716 1_555
C1 O25 1.236403 1_555
C1 P1 1.849716 1_555
C2 O26 1.236403 1_555
C2 P2 1.849716 1_555
C3 O27 1.236403 1_555
C3 P3 1.849716 1_555
C4 O28 1.236403 1_555
C4 P4 1.849716 1_555
C5 O29 1.236403 1_555
C5 P5 1.849716 1_555
C6 O30 1.236403 1_555
C6 P6 1.849716 1_555
C7 O31 1.236403 1_555
C7 P7 1.849716 1_555
C8 O40 1.256622 1_555
C8 O32 1.271823 1_545
C9 O41 1.256622 1_655
C9 O33 1.271823 1_555
C10 O42 1.256622 1_455
C10 O34 1.271823 1_565
C11 O43 1.256622 1_555
C11 O35 1.271823 1_555
C12 O44 1.256622 1_555
C12 O36 1.271823 1_565
C13 O45 1.256622 1_455
C13 O37 1.271823 1_555
C14 O46 1.256622 1_655
C14 O38 1.271823 1_545
C15 O47 1.256622 1_555
C15 O39 1.271823 1_555
O0 P0 1.531161 1_554
O1 P1 1.531161 1_556
O2 P2 1.531161 1_555
O3 P3 1.531161 1_555
O4 P4 1.531161 1_556
O5 P5 1.531161 1_554
O6 P6 1.531161 1_555
O7 P7 1.531161 1_555
O8 P0 1.528146 1_565
O9 P1 1.528146 1_555
O10 P2 1.528146 1_545
O11 P3 1.528146 1_555
O12 P4 1.528146 1_545
O13 P5 1.528146 1_555
O14 P6 1.528146 1_565
O15 P7 1.528146 1_555
O16 P0 1.530663 1_554
O17 P1 1.530663 1_556
O18 P2 1.530663 1_555
O19 P3 1.530663 1_555
O20 P4 1.530663 1_556
O21 P5 1.530663 1_554
O22 P6 1.530663 1_555
O23 P7 1.530663 1_555
