# generated using pymatgen
data_Cs2Zr(WO4)3
_symmetry_space_group_name_H-M   'P 1'
_cell_length_a   7.45407544
_cell_length_b   7.45407544
_cell_length_c   7.57659656
_cell_angle_alpha   60.57747896
_cell_angle_beta   60.57747896
_cell_angle_gamma   59.98335498
_symmetry_Int_Tables_number   1
_chemical_formula_structural   Cs2Zr(WO4)3
_chemical_formula_sum   'Cs2 Zr1 W3 O12'
_cell_volume   300.21146768
_cell_formula_units_Z   1
loop_
 _symmetry_equiv_pos_site_id
 _symmetry_equiv_pos_as_xyz
  1  'x, y, z'
loop_
 _atom_site_type_symbol
 _atom_site_label
 _atom_site_symmetry_multiplicity
 _atom_site_fract_x
 _atom_site_fract_y
 _atom_site_fract_z
 _atom_site_occupancy
  Cs  Cs0  1  0.88900400  0.83776100  0.88802200  1
  Cs  Cs1  1  0.16223900  0.11099600  0.11197800  1
  Zr  Zr0  1  0.50244900  0.49755100  0.00000000  1
  W  W0  1  0.50219900  0.99764600  0.49981900  1
  W  W1  1  0.00235400  0.49780100  0.50018100  1
  W  W2  1  0.50181600  0.49818400  0.50000000  1
  O  O0  1  0.19313300  0.19217100  0.55261800  1
  O  O1  1  0.56218000  0.56517100  0.20202000  1
  O  O2  1  0.56230700  0.16971600  0.20221500  1
  O  O3  1  0.19331000  0.56194300  0.55210100  1
  O  O4  1  0.17156900  0.56293400  0.20209500  1
  O  O5  1  0.56169500  0.19232000  0.55336300  1
  O  O6  1  0.80782900  0.80686700  0.44738200  1
  O  O7  1  0.43482900  0.43782000  0.79798000  1
  O  O8  1  0.43706600  0.82843100  0.79790500  1
  O  O9  1  0.80768000  0.43830500  0.44663700  1
  O  O10  1  0.83028400  0.43769300  0.79778500  1
  O  O11  1  0.43805700  0.80669000  0.44789900  1
loop_
_geom_bond_atom_site_label_1
_geom_bond_atom_site_label_2
_geom_bond_distance
_geom_bond_site_symmetry_2
Cs0 O4 3.180153 1_656
Cs0 O1 3.198801 1_556
Cs0 O3 3.263903 1_655
Cs0 O2 3.432605 1_566
Cs0 O0 3.508878 1_665
Cs0 O5 3.522680 1_565
Cs1 O8 3.180153 1_544
Cs1 O7 3.198801 1_554
Cs1 O11 3.263903 1_545
Cs1 O10 3.432605 1_454
Cs1 O6 3.508878 1_445
Cs1 O9 3.522680 1_455
O0 W1 1.948007 1_555
O0 W0 1.972883 1_545
O1 W2 1.915207 1_555
O1 Zr0 2.108839 1_555
O2 W0 1.915994 1_545
O2 Zr0 2.102475 1_555
O3 W1 1.955819 1_555
O3 W2 1.966965 1_555
O4 W1 1.914150 1_555
O4 Zr0 2.117863 1_555
O5 W2 1.953018 1_555
O5 W0 1.966219 1_545
O6 W0 1.948007 1_555
O6 W1 1.972883 1_655
O7 W2 1.915207 1_555
O7 Zr0 2.108839 1_556
O8 W0 1.914150 1_555
O8 Zr0 2.117863 1_556
O9 W2 1.953018 1_555
O9 W1 1.966219 1_655
O10 W1 1.915994 1_655
O10 Zr0 2.102475 1_556
O11 W0 1.955819 1_555
O11 W2 1.966965 1_555
