# generated using pymatgen
data_Ta4Co
_symmetry_space_group_name_H-M   'P 1'
_cell_length_a   6.50759139
_cell_length_b   6.50759139
_cell_length_c   6.50759139
_cell_angle_alpha   60.00000000
_cell_angle_beta   60.00000000
_cell_angle_gamma   60.00000000
_symmetry_Int_Tables_number   1
_chemical_formula_structural   Ta4Co
_chemical_formula_sum   'Ta8 Co2'
_cell_volume   194.87037887
_cell_formula_units_Z   2
loop_
 _symmetry_equiv_pos_site_id
 _symmetry_equiv_pos_as_xyz
  1  'x, y, z'
loop_
 _atom_site_type_symbol
 _atom_site_label
 _atom_site_symmetry_multiplicity
 _atom_site_fract_x
 _atom_site_fract_y
 _atom_site_fract_z
 _atom_site_occupancy
  Ta  Ta0  1  0.60880400  0.60880400  0.60880400  1
  Ta  Ta1  1  0.17358900  0.60880400  0.60880400  1
  Ta  Ta2  1  0.60880400  0.17358900  0.60880400  1
  Ta  Ta3  1  0.57641100  0.14119600  0.14119600  1
  Ta  Ta4  1  0.14119600  0.14119600  0.14119600  1
  Ta  Ta5  1  0.60880400  0.60880400  0.17358900  1
  Ta  Ta6  1  0.14119600  0.57641100  0.14119600  1
  Ta  Ta7  1  0.14119600  0.14119600  0.57641100  1
  Co  Co0  1  0.00000000  0.00000000  0.00000000  1
  Co  Co1  1  0.75000000  0.75000000  0.75000000  1
loop_
_geom_bond_atom_site_label_1
_geom_bond_atom_site_label_2
_geom_bond_distance
_geom_bond_site_symmetry_2
Co0 Ta4 2.250704 1_555
Co0 Ta6 2.250709 1_545
Co0 Ta3 2.250709 1_455
Co0 Ta7 2.250709 1_554
Co1 Ta0 2.250704 1_555
Co1 Ta5 2.250709 1_556
Co1 Ta1 2.250709 1_655
Co1 Ta2 2.250709 1_565
