# generated using pymatgen
data_SrZnO5
_symmetry_space_group_name_H-M   'P 1'
_cell_length_a   5.47615500
_cell_length_b   6.88688758
_cell_length_c   7.68318567
_cell_angle_alpha   101.01547650
_cell_angle_beta   107.73795770
_cell_angle_gamma   109.09651458
_symmetry_Int_Tables_number   1
_chemical_formula_structural   SrZnO5
_chemical_formula_sum   'Sr2 Zn2 O10'
_cell_volume   246.81559888
_cell_formula_units_Z   2
loop_
 _symmetry_equiv_pos_site_id
 _symmetry_equiv_pos_as_xyz
  1  'x, y, z'
loop_
 _atom_site_type_symbol
 _atom_site_label
 _atom_site_symmetry_multiplicity
 _atom_site_fract_x
 _atom_site_fract_y
 _atom_site_fract_z
 _atom_site_occupancy
  Sr  Sr0  1  0.54791100  0.47640900  0.74173500  1
  Sr  Sr1  1  0.45208900  0.52359100  0.25826500  1
  Zn  Zn0  1  0.14299400  0.97232300  0.30373100  1
  Zn  Zn1  1  0.85700600  0.02767700  0.69626900  1
  O  O0  1  0.30686700  0.80136700  0.04750100  1
  O  O1  1  0.69313300  0.19863300  0.95249900  1
  O  O2  1  0.77847300  0.71940400  0.10570400  1
  O  O3  1  0.22152700  0.28059600  0.89429600  1
  O  O4  1  0.15844000  0.75324200  0.87123000  1
  O  O5  1  0.84156000  0.24675800  0.12877000  1
  O  O6  1  0.37961000  0.24982800  0.41441200  1
  O  O7  1  0.62039000  0.75017200  0.58558800  1
  O  O8  1  0.96142600  0.66886900  0.26819600  1
  O  O9  1  0.03857400  0.33113100  0.73180400  1
loop_
_geom_bond_atom_site_label_1
_geom_bond_atom_site_label_2
_geom_bond_distance
_geom_bond_site_symmetry_2
O0 O4 1.259422 1_554
O0 Zn0 2.636127 1_555
O0 Sr1 2.882514 1_555
O1 O5 1.259422 1_556
O1 Zn1 2.636127 1_555
O1 Sr0 2.882514 1_555
O2 O8 1.521701 1_555
O2 Zn0 2.048202 1_655
O2 Sr1 2.586615 1_555
O2 Sr0 2.625350 1_554
O3 O9 1.521701 1_555
O3 Zn1 2.048202 1_455
O3 Sr0 2.586615 1_555
O3 Sr1 2.625350 1_556
O4 Sr0 2.979966 1_455
O5 Sr1 2.979966 1_655
O6 Zn0 1.772506 1_545
O6 Sr0 2.399171 1_555
O6 Sr1 2.411712 1_555
O7 Zn1 1.772506 1_565
O7 Sr1 2.399171 1_555
O7 Sr0 2.411712 1_555
O8 Zn0 1.920303 1_655
O8 Sr1 2.608008 1_555
O8 Sr1 3.175108 1_655
O9 Zn1 1.920303 1_455
O9 Sr0 2.608008 1_555
O9 Sr0 3.175108 1_455
