# generated using pymatgen
data_NdBr2Cl
_symmetry_space_group_name_H-M   'P 1'
_cell_length_a   4.34235615
_cell_length_b   7.69525627
_cell_length_c   7.86079963
_cell_angle_alpha   61.21582193
_cell_angle_beta   90.00000000
_cell_angle_gamma   90.00000000
_symmetry_Int_Tables_number   1
_chemical_formula_structural   NdBr2Cl
_chemical_formula_sum   'Nd2 Br4 Cl2'
_cell_volume   230.21694475
_cell_formula_units_Z   2
loop_
 _symmetry_equiv_pos_site_id
 _symmetry_equiv_pos_as_xyz
  1  'x, y, z'
loop_
 _atom_site_type_symbol
 _atom_site_label
 _atom_site_symmetry_multiplicity
 _atom_site_fract_x
 _atom_site_fract_y
 _atom_site_fract_z
 _atom_site_occupancy
  Nd  Nd0  1  -0.00000000  0.32732320  0.33310900  1
  Nd  Nd1  1  0.50000000  0.66476381  0.66253006  1
  Br  Br0  1  -0.00000000  0.69656909  0.91622515  1
  Br  Br1  1  0.50000000  0.09175867  0.61908875  1
  Br  Br2  1  0.50000000  0.62253300  0.29360437  1
  Br  Br3  1  0.50000000  0.28128161  0.08478892  1
  Cl  Cl0  1  -0.00000000  0.90750692  0.41053464  1
  Cl  Cl1  1  -0.00000000  0.40826269  0.68012011  1
loop_
_geom_bond_atom_site_label_1
_geom_bond_atom_site_label_2
_geom_bond_distance
_geom_bond_site_symmetry_2
Br0 Nd1 3.036606 1_555
Br0 Nd1 3.036606 1_455
Br0 Nd0 3.137766 1_556
Br1 Nd0 3.021465 1_555
Br1 Nd0 3.021465 1_655
Br1 Nd1 3.135722 1_545
Br2 Nd0 3.048240 1_655
Br2 Nd0 3.048240 1_555
Br2 Nd1 3.069773 1_555
Br3 Nd0 3.052187 1_555
Br3 Nd0 3.052187 1_655
Br3 Nd1 3.208278 1_554
Cl0 Nd1 2.926401 1_455
Cl0 Nd1 2.926401 1_555
Cl0 Nd0 2.985572 1_565
Cl1 Nd1 2.892464 1_455
Cl1 Nd1 2.892464 1_555
Cl1 Nd0 3.076513 1_555
