# generated using pymatgen
data_Ce2MgNi2
_symmetry_space_group_name_H-M   'P 1'
_cell_length_a   3.54068880
_cell_length_b   7.57526181
_cell_length_c   7.57526181
_cell_angle_alpha   89.99893112
_cell_angle_beta   90.00000000
_cell_angle_gamma   90.00000000
_symmetry_Int_Tables_number   1
_chemical_formula_structural   Ce2MgNi2
_chemical_formula_sum   'Ce4 Mg2 Ni4'
_cell_volume   203.18098036
_cell_formula_units_Z   2
loop_
 _symmetry_equiv_pos_site_id
 _symmetry_equiv_pos_as_xyz
  1  'x, y, z'
loop_
 _atom_site_type_symbol
 _atom_site_label
 _atom_site_symmetry_multiplicity
 _atom_site_fract_x
 _atom_site_fract_y
 _atom_site_fract_z
 _atom_site_occupancy
  Ce  Ce0  1  0.50000000  0.83178138  0.33178138  1
  Ce  Ce1  1  0.50000000  0.66818156  0.83181844  1
  Ce  Ce2  1  0.50000000  0.33181844  0.16818156  1
  Ce  Ce3  1  0.50000000  0.16821862  0.66821862  1
  Mg  Mg0  1  0.00000000  0.50000000  0.50000000  1
  Mg  Mg1  1  -0.00000000  -0.00000000  0.00000000  1
  Ni  Ni0  1  -0.00000000  0.62821517  0.12821517  1
  Ni  Ni1  1  0.00000000  0.87180135  0.62819865  1
  Ni  Ni2  1  0.00000000  0.37178483  0.87178483  1
  Ni  Ni3  1  0.00000000  0.12819865  0.37180135  1
loop_
_geom_bond_atom_site_label_1
_geom_bond_atom_site_label_2
_geom_bond_distance
_geom_bond_site_symmetry_2
Ce0 Ni0 2.808941 1_655
Ce0 Ni0 2.808941 1_555
Ce0 Ni1 2.875421 1_655
Ce0 Ni1 2.875421 1_555
Ce0 Ni3 2.875421 1_665
Ce0 Ni3 2.875421 1_565
Ce1 Ni1 2.809355 1_555
Ce1 Ni1 2.809355 1_655
Ce1 Ni2 2.875248 1_555
Ce1 Ni2 2.875248 1_655
Ce1 Ni0 2.875248 1_656
Ce1 Ni0 2.875248 1_556
Ce2 Ni3 2.809355 1_555
Ce2 Ni3 2.809355 1_655
Ce2 Ni0 2.875248 1_555
Ce2 Ni2 2.875248 1_554
Ce2 Ni0 2.875248 1_655
Ce2 Ni2 2.875248 1_654
Ce3 Ni2 2.808941 1_555
Ce3 Ni2 2.808941 1_655
Ce3 Ni1 2.875421 1_645
Ce3 Ni1 2.875421 1_545
Ce3 Ni3 2.875421 1_655
Ce3 Ni3 2.875421 1_555
Mg0 Ni2 2.979123 1_555
Mg0 Ni0 2.979123 1_555
Mg0 Ni1 2.979235 1_555
Mg0 Ni3 2.979235 1_555
Mg1 Ni0 2.979123 1_545
Mg1 Ni2 2.979123 1_554
Mg1 Ni3 2.979235 1_555
Mg1 Ni1 2.979235 1_544
Ni0 Ni2 2.747174 1_554
Ni1 Ni3 2.746768 1_565
