# generated using pymatgen
data_RbMg6Mo
_symmetry_space_group_name_H-M   'P 1'
_cell_length_a   6.46328388
_cell_length_b   6.46328388
_cell_length_c   5.13694300
_cell_angle_alpha   90.00000000
_cell_angle_beta   90.00000000
_cell_angle_gamma   119.99999880
_symmetry_Int_Tables_number   1
_chemical_formula_structural   RbMg6Mo
_chemical_formula_sum   'Rb1 Mg6 Mo1'
_cell_volume   185.84113400
_cell_formula_units_Z   1
loop_
 _symmetry_equiv_pos_site_id
 _symmetry_equiv_pos_as_xyz
  1  'x, y, z'
loop_
 _atom_site_type_symbol
 _atom_site_label
 _atom_site_symmetry_multiplicity
 _atom_site_fract_x
 _atom_site_fract_y
 _atom_site_fract_z
 _atom_site_occupancy
  Rb  Rb0  1  0.00000000  0.00000000  0.00000000  1
  Mg  Mg0  1  0.48188700  0.96377400  0.00000000  1
  Mg  Mg1  1  0.03622600  0.51811300  0.00000000  1
  Mg  Mg2  1  0.48188700  0.51811300  0.00000000  1
  Mg  Mg3  1  0.82472300  0.64944700  0.50000000  1
  Mg  Mg4  1  0.35055300  0.17527700  0.50000000  1
  Mg  Mg5  1  0.82472300  0.17527700  0.50000000  1
  Mo  Mo0  1  0.33333300  0.66666700  0.50000000  1
loop_
_geom_bond_atom_site_label_1
_geom_bond_atom_site_label_2
_geom_bond_distance
_geom_bond_site_symmetry_2
Mg0 Mg2 2.880434 1_555
Mg0 Mg1 2.880434 1_555
Mg0 Mo0 3.059848 1_555
Mg0 Mo0 3.059848 1_554
Mg0 Mg5 3.216621 1_565
Mg0 Mg5 3.216621 1_564
Mg0 Mg4 3.216624 1_564
Mg0 Mg4 3.216624 1_565
Mg0 Rb0 3.237997 1_565
Mg0 Rb0 3.237997 1_665
Mg1 Mg2 2.880434 1_555
Mg1 Mo0 3.059848 1_555
Mg1 Mo0 3.059848 1_554
Mg1 Mg5 3.216621 1_455
Mg1 Mg5 3.216621 1_454
Mg1 Mg3 3.216624 1_455
Mg1 Mg3 3.216624 1_454
Mg1 Rb0 3.237997 1_565
Mg1 Rb0 3.237997 1_555
Mg2 Mo0 3.059851 1_555
Mg2 Mo0 3.059851 1_554
Mg2 Mg3 3.216620 1_554
Mg2 Mg4 3.216620 1_555
Mg2 Mg4 3.216620 1_554
Mg2 Mg3 3.216620 1_555
Mg2 Rb0 3.237997 1_665
Mg2 Rb0 3.237997 1_555
Mg3 Mg5 3.064695 1_555
Mg3 Mg4 3.064695 1_555
Mg3 Rb0 3.232209 1_665
Mg3 Rb0 3.232209 1_666
Mg3 Mo0 3.233079 1_555
Mg3 Mo0 3.233079 1_655
Mg3 Mg5 3.398589 1_565
Mg3 Mg4 3.398589 1_665
Mg4 Mg5 3.064695 1_555
Mg4 Rb0 3.232209 1_555
Mg4 Rb0 3.232209 1_556
Mg4 Mo0 3.233079 1_555
Mg4 Mo0 3.233079 1_545
Mg4 Mg5 3.398589 1_455
Mg5 Rb0 3.232212 1_656
Mg5 Rb0 3.232212 1_655
Mg5 Mo0 3.233079 1_545
Mg5 Mo0 3.233079 1_655
