# generated using pymatgen
data_Ti2Zn(PO4)2
_symmetry_space_group_name_H-M   'P 1'
_cell_length_a   8.89024482
_cell_length_b   8.89024482
_cell_length_c   16.77205558
_cell_angle_alpha   64.31102871
_cell_angle_beta   64.31102871
_cell_angle_gamma   33.63626856
_symmetry_Int_Tables_number   1
_chemical_formula_structural   Ti2Zn(PO4)2
_chemical_formula_sum   'Ti8 Zn4 P8 O32'
_cell_volume   654.66942678
_cell_formula_units_Z   4
loop_
 _symmetry_equiv_pos_site_id
 _symmetry_equiv_pos_as_xyz
  1  'x, y, z'
loop_
 _atom_site_type_symbol
 _atom_site_label
 _atom_site_symmetry_multiplicity
 _atom_site_fract_x
 _atom_site_fract_y
 _atom_site_fract_z
 _atom_site_occupancy
  Ti  Ti0  1  0.21210000  0.61266900  0.95688100  1
  Ti  Ti1  1  0.38733100  0.78790000  0.54311900  1
  Ti  Ti2  1  0.78790000  0.38733100  0.04311900  1
  Ti  Ti3  1  0.50000000  0.00000000  0.00000000  1
  Ti  Ti4  1  0.61266900  0.21210000  0.45688100  1
  Ti  Ti5  1  0.68458100  0.31541900  0.25000000  1
  Ti  Ti6  1  0.31541900  0.68458100  0.75000000  1
  Ti  Ti7  1  0.00000000  0.50000000  0.50000000  1
  Zn  Zn0  1  0.48866900  0.85868700  0.83571300  1
  Zn  Zn1  1  0.14131300  0.51133100  0.66428700  1
  Zn  Zn2  1  0.85868700  0.48866900  0.33571300  1
  Zn  Zn3  1  0.51133100  0.14131300  0.16428700  1
  P  P0  1  0.04284200  0.50976900  0.86887900  1
  P  P1  1  0.76845900  0.20793500  0.61693500  1
  P  P2  1  0.95715800  0.49023100  0.13112100  1
  P  P3  1  0.20793500  0.76845900  0.11693500  1
  P  P4  1  0.50976900  0.04284200  0.36887900  1
  P  P5  1  0.49023100  0.95715800  0.63112100  1
  P  P6  1  0.23154100  0.79206500  0.38306500  1
  P  P7  1  0.79206500  0.23154100  0.88306500  1
  O  O0  1  0.70301500  0.80830000  0.10723500  1
  O  O1  1  0.82716300  0.29839500  0.93923000  1
  O  O2  1  0.80830000  0.70301500  0.60723500  1
  O  O3  1  0.79078600  0.38518600  0.55670100  1
  O  O4  1  0.18986200  0.37174600  0.04828800  1
  O  O5  1  0.54751800  0.34797000  0.69904300  1
  O  O6  1  0.61481400  0.20921400  0.94329900  1
  O  O7  1  0.91511800  0.05783300  0.14581100  1
  O  O8  1  0.20921400  0.61481400  0.44329900  1
  O  O9  1  0.70160500  0.17283700  0.56077000  1
  O  O10  1  0.88121100  0.37199400  0.14610500  1
  O  O11  1  0.61444900  0.91840600  0.28898600  1
  O  O12  1  0.17283700  0.70160500  0.06077000  1
  O  O13  1  0.05783300  0.91511800  0.64581100  1
  O  O14  1  0.29698500  0.19170000  0.89276500  1
  O  O15  1  0.11878900  0.62800600  0.85389500  1
  O  O16  1  0.91840600  0.61444900  0.78898600  1
  O  O17  1  0.38518600  0.79078600  0.05670100  1
  O  O18  1  0.37199400  0.88121100  0.64610500  1
  O  O19  1  0.38555100  0.08159400  0.71101400  1
  O  O20  1  0.94216700  0.08488200  0.35418900  1
  O  O21  1  0.37174600  0.18986200  0.54828800  1
  O  O22  1  0.08488200  0.94216700  0.85418900  1
  O  O23  1  0.34797000  0.54751800  0.19904300  1
  O  O24  1  0.29839500  0.82716300  0.43923000  1
  O  O25  1  0.19170000  0.29698500  0.39276500  1
  O  O26  1  0.08159400  0.38555100  0.21101400  1
  O  O27  1  0.62825400  0.81013800  0.45171200  1
  O  O28  1  0.81013800  0.62825400  0.95171200  1
  O  O29  1  0.65203000  0.45248200  0.80095700  1
  O  O30  1  0.45248200  0.65203000  0.30095700  1
  O  O31  1  0.62800600  0.11878900  0.35389500  1
loop_
_geom_bond_atom_site_label_1
_geom_bond_atom_site_label_2
_geom_bond_distance
_geom_bond_site_symmetry_2
O0 P2 1.557392 1_555
O0 Ti3 2.105176 1_565
O0 Zn3 2.286051 1_565
O1 P7 1.544998 1_555
O1 Ti2 1.997650 1_556
O2 P5 1.557392 1_555
O2 Ti7 2.105176 1_655
O2 Zn1 2.286051 1_655
O3 P1 1.584287 1_555
O3 Ti1 2.086470 1_555
O3 Ti7 2.488361 1_655
O4 P2 1.570945 1_455
O4 Ti3 2.095666 1_555
O4 Ti0 2.138342 1_554
O5 P1 1.540747 1_555
O5 Ti6 2.085640 1_555
O6 P7 1.584287 1_555
O6 Ti0 2.086470 1_555
O6 Ti3 2.488361 1_556
O7 P3 1.570096 1_645
O7 Ti2 2.150478 1_555
O7 Ti5 2.246643 1_555
O8 P6 1.584287 1_555
O8 Ti4 2.086470 1_555
O8 Ti7 2.488361 1_555
O9 P1 1.544998 1_555
O9 Ti4 1.997650 1_555
O10 P2 1.558725 1_555
O10 Ti5 2.099648 1_555
O10 Ti2 2.130732 1_555
O11 P4 1.541153 1_565
O11 Zn3 2.045887 1_565
O11 Zn2 2.234088 1_555
O12 P3 1.544998 1_555
O12 Ti0 1.997650 1_554
O13 P1 1.570096 1_465
O13 Ti1 2.150478 1_555
O13 Ti6 2.246643 1_555
O14 P0 1.557392 1_555
O14 Ti3 2.105176 1_556
O14 Zn0 2.286051 1_545
O15 P0 1.558725 1_555
O15 Ti6 2.099648 1_555
O15 Ti0 2.130732 1_555
O16 P0 1.541153 1_655
O16 Zn1 2.045887 1_655
O16 Zn0 2.234088 1_555
O17 P3 1.584287 1_555
O17 Ti2 2.086470 1_555
O17 Ti3 2.488361 1_565
O18 P5 1.558725 1_555
O18 Ti6 2.099648 1_555
O18 Ti1 2.130732 1_555
O19 P5 1.541153 1_545
O19 Zn0 2.045887 1_545
O19 Zn1 2.234088 1_555
O20 P6 1.570096 1_645
O20 Ti4 2.150478 1_555
O20 Ti5 2.246643 1_555
O21 P5 1.570945 1_545
O21 Ti7 2.095666 1_555
O21 Ti4 2.138342 1_555
O22 P7 1.570096 1_465
O22 Ti0 2.150478 1_555
O22 Ti6 2.246643 1_555
O23 P3 1.540747 1_555
O23 Ti5 2.085640 1_555
O24 P6 1.544998 1_555
O24 Ti1 1.997650 1_555
O25 P4 1.557392 1_555
O25 Ti7 2.105176 1_555
O25 Zn2 2.286051 1_455
O26 P2 1.541153 1_455
O26 Zn2 2.045887 1_455
O26 Zn3 2.234088 1_555
O27 P4 1.570945 1_565
O27 Ti7 2.095666 1_655
O27 Ti1 2.138342 1_555
O28 P0 1.570945 1_655
O28 Ti3 2.095666 1_566
O28 Ti2 2.138342 1_556
O29 P7 1.540747 1_555
O29 Ti6 2.085640 1_555
O30 P6 1.540747 1_555
O30 Ti5 2.085640 1_555
O31 P4 1.558725 1_555
O31 Ti5 2.099648 1_555
O31 Ti4 2.130732 1_555
