# generated using pymatgen
data_Li9Mn2Co5O16
_symmetry_space_group_name_H-M   'P 1'
_cell_length_a   5.91936458
_cell_length_b   5.91936458
_cell_length_c   10.13557140
_cell_angle_alpha   72.97903302
_cell_angle_beta   72.97903302
_cell_angle_gamma   59.03370932
_symmetry_Int_Tables_number   1
_chemical_formula_structural   Li9Mn2Co5O16
_chemical_formula_sum   'Li9 Mn2 Co5 O16'
_cell_volume   286.77555484
_cell_formula_units_Z   1
loop_
 _symmetry_equiv_pos_site_id
 _symmetry_equiv_pos_as_xyz
  1  'x, y, z'
loop_
 _atom_site_type_symbol
 _atom_site_label
 _atom_site_symmetry_multiplicity
 _atom_site_fract_x
 _atom_site_fract_y
 _atom_site_fract_z
 _atom_site_occupancy
  Li  Li0  1  0.00000000  0.50000000  0.00000000  1
  Li  Li1  1  0.50000000  0.00000000  0.00000000  1
  Li  Li2  1  0.25533200  0.25533300  0.74342700  1
  Li  Li3  1  0.75006800  0.75006800  0.74511600  1
  Li  Li4  1  0.50000000  0.00000000  0.50000000  1
  Li  Li5  1  0.00000000  0.50000000  0.50000000  1
  Li  Li6  1  0.74466800  0.74466800  0.25657300  1
  Li  Li7  1  0.24993200  0.24993200  0.25488400  1
  Li  Li8  1  0.50000000  0.50000000  0.50000000  1
  Mn  Mn0  1  0.00000000  0.00000000  0.00000000  1
  Mn  Mn1  1  0.00000000  0.00000000  0.50000000  1
  Co  Co0  1  0.50000000  0.50000000  0.00000000  1
  Co  Co1  1  0.25626000  0.74427000  0.74383600  1
  Co  Co2  1  0.74427000  0.25626000  0.74383600  1
  Co  Co3  1  0.74374000  0.25573000  0.25616400  1
  Co  Co4  1  0.25573000  0.74374000  0.25616400  1
  O  O0  1  0.12411600  0.64828900  0.11666400  1
  O  O1  1  0.64828900  0.12411600  0.11666400  1
  O  O2  1  0.38331100  0.38331100  0.87758800  1
  O  O3  1  0.89444700  0.89444700  0.87306500  1
  O  O4  1  0.65151900  0.11993100  0.62233400  1
  O  O5  1  0.11993100  0.65151900  0.62233400  1
  O  O6  1  0.88463000  0.88463000  0.38182800  1
  O  O7  1  0.38730100  0.38730100  0.35833100  1
  O  O8  1  0.87588400  0.35171100  0.88333600  1
  O  O9  1  0.35171100  0.87588400  0.88333600  1
  O  O10  1  0.11537000  0.11537000  0.61817200  1
  O  O11  1  0.61269900  0.61269900  0.64166900  1
  O  O12  1  0.34848100  0.88006900  0.37766600  1
  O  O13  1  0.88006900  0.34848100  0.37766600  1
  O  O14  1  0.61668900  0.61668900  0.12241200  1
  O  O15  1  0.10555300  0.10555300  0.12693500  1
loop_
_geom_bond_atom_site_label_1
_geom_bond_atom_site_label_2
_geom_bond_distance
_geom_bond_site_symmetry_2
Li0 O14 2.098925 1_455
Li0 O2 2.098925 1_554
Li0 O0 2.118571 1_555
Li0 O8 2.118571 1_454
Li0 O3 2.169787 1_454
Li0 O15 2.169787 1_555
Li1 O2 2.098925 1_554
Li1 O14 2.098925 1_545
Li1 O9 2.118571 1_544
Li1 O1 2.118571 1_555
Li1 O15 2.169787 1_555
Li1 O3 2.169787 1_544
Li2 O5 2.145955 1_555
Li2 O4 2.145959 1_555
Li2 O8 2.161384 1_455
Li2 O9 2.161387 1_545
Li2 O2 2.189414 1_555
Li2 O10 2.218642 1_555
Li3 O11 2.024944 1_555
Li3 O4 2.048879 1_565
Li3 O5 2.048879 1_655
Li3 O9 2.224231 1_555
Li3 O8 2.224231 1_555
Li3 O3 2.278578 1_555
Li4 O6 2.089727 1_545
Li4 O10 2.089727 1_555
Li4 O12 2.160426 1_545
Li4 O4 2.160426 1_555
Li4 O7 2.196009 1_555
Li4 O11 2.196009 1_545
Li5 O6 2.089727 1_455
Li5 O10 2.089727 1_555
Li5 O13 2.160426 1_455
Li5 O5 2.160426 1_555
Li5 O7 2.196009 1_555
Li5 O11 2.196009 1_455
Li6 O12 2.145959 1_555
Li6 O13 2.145959 1_555
Li6 O0 2.161383 1_655
Li6 O1 2.161383 1_565
Li6 O14 2.189419 1_555
Li6 O6 2.218638 1_555
Li7 O7 2.024944 1_555
Li7 O13 2.048879 1_455
Li7 O12 2.048879 1_545
Li7 O0 2.224231 1_555
Li7 O1 2.224231 1_555
Li7 O15 2.278578 1_555
Li8 O12 2.084412 1_555
Li8 O13 2.084412 1_555
Li8 O5 2.084412 1_555
Li8 O4 2.084412 1_555
Li8 O7 2.128712 1_555
Li8 O11 2.128712 1_555
Mn0 O0 1.940532 1_545
Mn0 O1 1.940532 1_455
Mn0 O8 1.940532 1_454
Mn0 O9 1.940532 1_544
Mn0 O15 1.943952 1_555
Mn0 O3 1.943952 1_444
Mn1 O6 1.950641 1_445
Mn1 O10 1.950641 1_555
Mn1 O13 1.951270 1_455
Mn1 O12 1.951270 1_545
Mn1 O5 1.951270 1_545
Mn1 O4 1.951270 1_455
Co0 O2 1.996994 1_554
Co0 O14 1.996994 1_555
Co0 O1 2.043734 1_555
Co0 O9 2.043734 1_554
Co0 O0 2.043734 1_555
Co0 O8 2.043734 1_554
Co1 O11 1.905931 1_555
Co1 O5 1.975549 1_555
Co1 O3 2.042764 1_455
Co1 O2 2.053331 1_555
Co1 O10 2.059566 1_565
Co1 O9 2.119173 1_555
Co2 O11 1.905931 1_555
Co2 O4 1.975549 1_555
Co2 O3 2.042764 1_545
Co2 O2 2.053331 1_555
Co2 O10 2.059566 1_655
Co2 O8 2.119173 1_555
Co3 O7 1.905931 1_555
Co3 O13 1.975549 1_555
Co3 O15 2.042764 1_655
Co3 O14 2.053331 1_555
Co3 O6 2.059566 1_545
Co3 O1 2.119173 1_555
Co4 O7 1.905931 1_555
Co4 O12 1.975549 1_555
Co4 O15 2.042764 1_565
Co4 O14 2.053331 1_555
Co4 O6 2.059566 1_455
Co4 O0 2.119173 1_555
