# generated using pymatgen
data_LiMg6Cr
_symmetry_space_group_name_H-M   'P 1'
_cell_length_a   5.01740000
_cell_length_b   6.30607600
_cell_length_c   10.71946400
_cell_angle_alpha   90.00000000
_cell_angle_beta   90.00000000
_cell_angle_gamma   90.00000000
_symmetry_Int_Tables_number   1
_chemical_formula_structural   LiMg6Cr
_chemical_formula_sum   'Li2 Mg12 Cr2'
_cell_volume   339.16497425
_cell_formula_units_Z   2
loop_
 _symmetry_equiv_pos_site_id
 _symmetry_equiv_pos_as_xyz
  1  'x, y, z'
loop_
 _atom_site_type_symbol
 _atom_site_label
 _atom_site_symmetry_multiplicity
 _atom_site_fract_x
 _atom_site_fract_y
 _atom_site_fract_z
 _atom_site_occupancy
  Li  Li0  1  0.50000000  0.00000000  0.83390800  1
  Li  Li1  1  0.50000000  0.50000000  0.33390800  1
  Mg  Mg0  1  0.50000000  0.25083700  0.58320800  1
  Mg  Mg1  1  0.50000000  0.74916300  0.58320800  1
  Mg  Mg2  1  0.00000000  0.24564600  0.41337100  1
  Mg  Mg3  1  0.00000000  0.75435400  0.41337100  1
  Mg  Mg4  1  0.00000000  0.00000000  0.66830100  1
  Mg  Mg5  1  0.00000000  0.00000000  0.17107600  1
  Mg  Mg6  1  0.50000000  0.75083700  0.08320800  1
  Mg  Mg7  1  0.50000000  0.24916300  0.08320800  1
  Mg  Mg8  1  0.00000000  0.74564600  0.91337100  1
  Mg  Mg9  1  0.00000000  0.25435400  0.91337100  1
  Mg  Mg10  1  0.00000000  0.50000000  0.16830100  1
  Mg  Mg11  1  0.00000000  0.50000000  0.67107600  1
  Cr  Cr0  1  0.50000000  0.00000000  0.33356100  1
  Cr  Cr1  1  0.50000000  0.50000000  0.83356100  1
loop_
_geom_bond_atom_site_label_1
_geom_bond_atom_site_label_2
_geom_bond_distance
_geom_bond_site_symmetry_2
Li0 Mg4 3.073268 1_555
Li0 Mg4 3.073268 1_655
Li0 Mg9 3.097076 1_655
Li0 Mg9 3.097076 1_555
Li0 Mg8 3.097076 1_645
Li0 Mg8 3.097076 1_545
Li0 Mg7 3.100051 1_556
Li0 Mg6 3.100051 1_546
Li0 Mg0 3.118339 1_555
Li0 Mg1 3.118339 1_545
Li1 Mg10 3.073268 1_555
Li1 Mg10 3.073268 1_655
Li1 Mg3 3.097076 1_555
Li1 Mg3 3.097076 1_655
Li1 Mg2 3.097076 1_655
Li1 Mg2 3.097076 1_555
Li1 Mg1 3.100051 1_555
Li1 Mg0 3.100051 1_555
Li1 Mg6 3.118339 1_555
Li1 Mg7 3.118339 1_555
Mg0 Mg2 3.099854 1_655
Mg0 Mg2 3.099854 1_555
Mg0 Mg4 3.102850 1_555
Mg0 Mg4 3.102850 1_655
Mg0 Mg11 3.106372 1_555
Mg0 Mg11 3.106372 1_655
Mg0 Mg1 3.142482 1_555
Mg0 Mg1 3.163594 1_545
Mg1 Mg3 3.099854 1_655
Mg1 Mg3 3.099854 1_555
Mg1 Mg4 3.102850 1_565
Mg1 Mg4 3.102850 1_665
Mg1 Mg11 3.106372 1_655
Mg1 Mg11 3.106372 1_555
Mg2 Mg5 3.024139 1_555
Mg2 Mg3 3.098125 1_545
Mg2 Mg4 3.141228 1_555
Mg2 Mg3 3.207951 1_555
Mg3 Mg5 3.024139 1_565
Mg3 Mg4 3.141228 1_565
Mg4 Mg9 3.077981 1_555
Mg4 Mg8 3.077981 1_545
Mg5 Mg6 3.106372 1_445
Mg5 Mg6 3.106372 1_545
Mg5 Mg7 3.106372 1_455
Mg5 Mg7 3.106372 1_555
Mg5 Mg9 3.194358 1_554
Mg5 Mg8 3.194358 1_544
Mg6 Mg8 3.099854 1_554
Mg6 Mg8 3.099854 1_654
Mg6 Mg7 3.142482 1_565
Mg6 Mg7 3.163594 1_555
Mg7 Mg9 3.099854 1_554
Mg7 Mg9 3.099854 1_654
Mg8 Mg9 3.098125 1_555
Mg8 Mg9 3.207951 1_565
Mg10 Mg3 3.077981 1_555
Mg10 Mg2 3.077981 1_555
Mg10 Mg7 3.102850 1_455
Mg10 Mg7 3.102850 1_555
Mg10 Mg6 3.102850 1_455
Mg10 Mg6 3.102850 1_555
Mg10 Mg8 3.141228 1_554
Mg10 Mg9 3.141228 1_554
Mg10 Mg5 3.153178 1_555
Mg10 Mg5 3.153178 1_565
Mg11 Mg8 3.024139 1_555
Mg11 Mg9 3.024139 1_555
Mg11 Mg4 3.153178 1_565
Mg11 Mg4 3.153178 1_555
Mg11 Mg3 3.194358 1_555
Mg11 Mg2 3.194358 1_555
Cr0 Mg5 3.054059 1_555
Cr0 Mg5 3.054059 1_655
Cr0 Mg2 3.070030 1_655
Cr0 Mg2 3.070030 1_555
Cr0 Mg3 3.070030 1_645
Cr0 Mg3 3.070030 1_545
Cr0 Mg0 3.108617 1_555
Cr0 Mg1 3.108617 1_545
Cr0 Mg6 3.109787 1_545
Cr0 Mg7 3.109787 1_555
Cr0 Li1 3.153040 1_555
Cr0 Li1 3.153040 1_545
Cr1 Mg11 3.054059 1_555
Cr1 Mg11 3.054059 1_655
Cr1 Mg8 3.070030 1_555
Cr1 Mg8 3.070030 1_655
Cr1 Mg9 3.070030 1_555
Cr1 Mg9 3.070030 1_655
Cr1 Mg6 3.108617 1_556
Cr1 Mg7 3.108617 1_556
Cr1 Mg1 3.109787 1_555
Cr1 Mg0 3.109787 1_555
Cr1 Li0 3.153040 1_555
Cr1 Li0 3.153040 1_565
