# generated using pymatgen
data_TbB2C
_symmetry_space_group_name_H-M   'P 1'
_cell_length_a   6.79707308
_cell_length_b   6.79707308
_cell_length_c   7.53135202
_cell_angle_alpha   90.00000000
_cell_angle_beta   90.00000000
_cell_angle_gamma   90.00000000
_symmetry_Int_Tables_number   1
_chemical_formula_structural   TbB2C
_chemical_formula_sum   'Tb8 B16 C8'
_cell_volume   347.94998808
_cell_formula_units_Z   8
loop_
 _symmetry_equiv_pos_site_id
 _symmetry_equiv_pos_as_xyz
  1  'x, y, z'
loop_
 _atom_site_type_symbol
 _atom_site_label
 _atom_site_symmetry_multiplicity
 _atom_site_fract_x
 _atom_site_fract_y
 _atom_site_fract_z
 _atom_site_occupancy
  Tb  Tb0  1  0.30939603  0.80939603  0.75000000  1
  Tb  Tb1  1  0.19060397  0.30939603  0.25000000  1
  Tb  Tb2  1  0.80939603  0.69060397  0.25000000  1
  Tb  Tb3  1  0.69060397  0.19060397  0.75000000  1
  Tb  Tb4  1  0.69060397  0.19060397  0.25000000  1
  Tb  Tb5  1  0.80939603  0.69060397  0.75000000  1
  Tb  Tb6  1  0.19060397  0.30939603  0.75000000  1
  Tb  Tb7  1  0.30939603  0.80939603  0.25000000  1
  B  B0  1  0.15106660  0.03441015  -0.00000000  1
  B  B1  1  0.53441015  0.65106660  0.50000000  1
  B  B2  1  0.84893340  0.96558985  0.00000000  1
  B  B3  1  0.34893340  0.53441015  -0.00000000  1
  B  B4  1  0.65106660  0.46558985  0.00000000  1
  B  B5  1  0.03441015  0.84893340  0.50000000  1
  B  B6  1  0.96558985  0.15106660  0.50000000  1
  B  B7  1  0.46558985  0.34893340  0.50000000  1
  B  B8  1  0.09746350  0.59509040  0.00000000  1
  B  B9  1  0.40490960  0.09746350  0.50000000  1
  B  B10  1  0.59509040  0.90253650  0.50000000  1
  B  B11  1  0.59746350  0.90490960  0.00000000  1
  B  B12  1  0.40253650  0.09509040  -0.00000000  1
  B  B13  1  0.90253650  0.40490960  -0.00000000  1
  B  B14  1  0.09509040  0.59746350  0.50000000  1
  B  B15  1  0.90490960  0.40253650  0.50000000  1
  C  C0  1  0.17742049  0.04084636  0.50000000  1
  C  C1  1  0.67742049  0.45915364  0.50000000  1
  C  C2  1  0.32257951  0.54084636  0.50000000  1
  C  C3  1  0.95915364  0.17742049  -0.00000000  1
  C  C4  1  0.04084636  0.82257951  0.00000000  1
  C  C5  1  0.54084636  0.67742049  -0.00000000  1
  C  C6  1  0.82257951  0.95915364  0.50000000  1
  C  C7  1  0.45915364  0.32257951  0.00000000  1
loop_
_geom_bond_atom_site_label_1
_geom_bond_atom_site_label_2
_geom_bond_distance
_geom_bond_site_symmetry_2
B0 C4 1.623074 1_545
B0 C3 1.626796 1_455
B0 Tb7 2.653755 1_545
B0 Tb0 2.653755 1_544
B0 Tb1 2.666614 1_555
B0 Tb6 2.666614 1_554
B1 C2 1.623074 1_555
B1 C1 1.626796 1_555
B1 Tb7 2.653755 1_555
B1 Tb0 2.653755 1_555
B1 Tb5 2.666614 1_555
B1 Tb2 2.666614 1_555
B2 C3 1.623074 1_565
B2 C4 1.626796 1_655
B2 Tb3 2.653755 1_564
B2 Tb4 2.653755 1_565
B2 Tb5 2.666614 1_554
B2 Tb2 2.666614 1_555
B3 C7 1.623074 1_555
B3 C5 1.626796 1_555
B3 Tb6 2.653755 1_554
B3 Tb1 2.653755 1_555
B3 Tb7 2.666614 1_555
B3 Tb0 2.666614 1_554
B4 C5 1.623074 1_555
B4 C7 1.626796 1_555
B4 Tb5 2.653755 1_554
B4 Tb2 2.653755 1_555
B4 Tb4 2.666614 1_555
B4 Tb3 2.666614 1_554
B5 C6 1.623074 1_455
B5 C0 1.626796 1_565
B5 Tb5 2.653755 1_455
B5 Tb2 2.653755 1_455
B5 Tb7 2.666614 1_555
B5 Tb0 2.666614 1_555
B6 C0 1.623074 1_655
B6 C6 1.626796 1_545
B6 Tb6 2.653755 1_655
B6 Tb1 2.653755 1_655
B6 Tb3 2.666614 1_555
B6 Tb4 2.666614 1_555
B7 C1 1.623074 1_555
B7 C2 1.626796 1_555
B7 Tb4 2.653755 1_555
B7 Tb3 2.653755 1_555
B7 Tb6 2.666614 1_555
B7 Tb1 2.666614 1_555
B8 C4 1.593429 1_555
B8 Tb1 2.777911 1_555
B8 Tb6 2.777911 1_554
B8 Tb0 2.782447 1_554
B8 Tb7 2.782447 1_555
B8 Tb2 2.792916 1_455
B8 Tb5 2.792916 1_454
B9 C0 1.593429 1_555
B9 Tb3 2.777911 1_555
B9 Tb4 2.777911 1_555
B9 Tb1 2.782447 1_555
B9 Tb6 2.782447 1_555
B9 Tb0 2.792916 1_545
B9 Tb7 2.792916 1_545
B10 C6 1.593429 1_555
B10 Tb0 2.777911 1_555
B10 Tb7 2.777911 1_555
B10 Tb5 2.782447 1_555
B10 Tb2 2.782447 1_555
B10 Tb3 2.792916 1_565
B10 Tb4 2.792916 1_565
B11 C5 1.593429 1_555
B11 Tb4 2.777911 1_565
B11 Tb3 2.777911 1_564
B11 Tb5 2.782447 1_554
B11 Tb2 2.782447 1_555
B11 Tb0 2.792916 1_554
B11 Tb7 2.792916 1_555
B12 C7 1.593429 1_555
B12 Tb7 2.777911 1_545
B12 Tb0 2.777911 1_544
B12 Tb1 2.782447 1_555
B12 Tb6 2.782447 1_554
B12 Tb4 2.792916 1_555
B12 Tb3 2.792916 1_554
B13 C3 1.593429 1_555
B13 Tb2 2.777911 1_555
B13 Tb5 2.777911 1_554
B13 Tb4 2.782447 1_555
B13 Tb3 2.782447 1_554
B13 Tb6 2.792916 1_654
B13 Tb1 2.792916 1_655
B14 C2 1.593429 1_555
B14 Tb2 2.777911 1_455
B14 Tb5 2.777911 1_455
B14 Tb7 2.782447 1_555
B14 Tb0 2.782447 1_555
B14 Tb6 2.792916 1_555
B14 Tb1 2.792916 1_555
B15 C1 1.593429 1_555
B15 Tb6 2.777911 1_655
B15 Tb1 2.777911 1_655
B15 Tb4 2.782447 1_555
B15 Tb3 2.782447 1_555
B15 Tb5 2.792916 1_555
B15 Tb2 2.792916 1_555
C0 Tb0 2.612410 1_545
C0 Tb7 2.612410 1_545
C0 Tb1 2.623932 1_555
C0 Tb6 2.623932 1_555
C1 Tb5 2.612410 1_555
C1 Tb2 2.612410 1_555
C1 Tb3 2.623932 1_555
C1 Tb4 2.623932 1_555
C2 Tb6 2.612410 1_555
C2 Tb1 2.612410 1_555
C2 Tb0 2.623932 1_555
C2 Tb7 2.623932 1_555
C3 Tb1 2.612410 1_655
C3 Tb6 2.612410 1_654
C3 Tb4 2.623932 1_555
C3 Tb3 2.623932 1_554
C4 Tb5 2.612410 1_454
C4 Tb2 2.612410 1_455
C4 Tb0 2.623932 1_554
C4 Tb7 2.623932 1_555
C5 Tb0 2.612410 1_554
C5 Tb7 2.612410 1_555
C5 Tb5 2.623932 1_554
C5 Tb2 2.623932 1_555
C6 Tb3 2.612410 1_565
C6 Tb4 2.612410 1_565
C6 Tb5 2.623932 1_555
C6 Tb2 2.623932 1_555
C7 Tb4 2.612410 1_555
C7 Tb3 2.612410 1_554
C7 Tb1 2.623932 1_555
C7 Tb6 2.623932 1_554
