# generated using pymatgen
data_Hf2MnCo
_symmetry_space_group_name_H-M   'P 1'
_cell_length_a   12.75780093
_cell_length_b   12.75780093
_cell_length_c   12.75780093
_cell_angle_alpha   137.78126044
_cell_angle_beta   112.68888240
_cell_angle_gamma   82.74347816
_symmetry_Int_Tables_number   1
_chemical_formula_structural   Hf2MnCo
_chemical_formula_sum   'Hf2 Mn1 Co1'
_cell_volume   1244.08530237
_cell_formula_units_Z   1
loop_
 _symmetry_equiv_pos_site_id
 _symmetry_equiv_pos_as_xyz
  1  'x, y, z'
loop_
 _atom_site_type_symbol
 _atom_site_label
 _atom_site_symmetry_multiplicity
 _atom_site_fract_x
 _atom_site_fract_y
 _atom_site_fract_z
 _atom_site_occupancy
  Hf  Hf0  1  0.00000000  0.25848900  0.25848900  1
  Hf  Hf1  1  0.00000000  0.74151100  0.74151100  1
  Mn  Mn0  1  0.00000000  0.00000000  0.00000000  1
  Co  Co0  1  0.00000000  0.50000000  0.50000000  1
loop_
_geom_bond_atom_site_label_1
_geom_bond_atom_site_label_2
_geom_bond_distance
_geom_bond_site_symmetry_2
Hf0 Mn0 2.375366 1_555
Hf1 Mn0 2.375366 1_566
Co0 Hf1 2.219348 1_555
Co0 Hf0 2.219348 1_555
