# generated using pymatgen
data_U3Ni3Bi4
_symmetry_space_group_name_H-M   'P 1'
_cell_length_a   8.30722008
_cell_length_b   8.30722008
_cell_length_c   8.30722008
_cell_angle_alpha   109.47122063
_cell_angle_beta   109.47122063
_cell_angle_gamma   109.47122063
_symmetry_Int_Tables_number   1
_chemical_formula_structural   U3Ni3Bi4
_chemical_formula_sum   'U6 Ni6 Bi8'
_cell_volume   441.31151353
_cell_formula_units_Z   2
loop_
 _symmetry_equiv_pos_site_id
 _symmetry_equiv_pos_as_xyz
  1  'x, y, z'
loop_
 _atom_site_type_symbol
 _atom_site_label
 _atom_site_symmetry_multiplicity
 _atom_site_fract_x
 _atom_site_fract_y
 _atom_site_fract_z
 _atom_site_occupancy
  U  U0  1  0.12500000  0.87500000  0.25000000  1
  U  U1  1  0.37500000  0.62500000  0.75000000  1
  U  U2  1  0.87500000  0.25000000  0.12500000  1
  U  U3  1  0.62500000  0.75000000  0.37500000  1
  U  U4  1  0.25000000  0.12500000  0.87500000  1
  U  U5  1  0.75000000  0.37500000  0.62500000  1
  Ni  Ni0  1  0.62500000  0.37500000  0.25000000  1
  Ni  Ni1  1  0.87500000  0.12500000  0.75000000  1
  Ni  Ni2  1  0.37500000  0.25000000  0.62500000  1
  Ni  Ni3  1  0.12500000  0.75000000  0.87500000  1
  Ni  Ni4  1  0.25000000  0.62500000  0.37500000  1
  Ni  Ni5  1  0.75000000  0.87500000  0.12500000  1
  Bi  Bi0  1  0.33396052  0.33396052  0.33396052  1
  Bi  Bi1  1  0.16603948  0.50000000  -0.00000000  1
  Bi  Bi2  1  0.00000000  0.16603948  0.50000000  1
  Bi  Bi3  1  0.83396052  0.83396052  0.83396052  1
  Bi  Bi4  1  0.50000000  -0.00000000  0.16603948  1
  Bi  Bi5  1  0.66603948  0.50000000  0.00000000  1
  Bi  Bi6  1  0.50000000  0.00000000  0.66603948  1
  Bi  Bi7  1  0.00000000  0.66603948  0.50000000  1
loop_
_geom_bond_atom_site_label_1
_geom_bond_atom_site_label_2
_geom_bond_distance
_geom_bond_site_symmetry_2
Ni0 U2 2.937046 1_555
Ni0 U4 2.937046 1_554
Ni0 U5 2.937046 1_555
Ni0 U3 2.937046 1_555
Ni1 U2 2.937046 1_556
Ni1 U3 2.937046 1_545
Ni1 U5 2.937046 1_555
Ni1 U4 2.937046 1_655
Ni2 U0 2.937046 1_545
Ni2 U1 2.937046 1_555
Ni2 U4 2.937046 1_555
Ni2 U5 2.937046 1_555
Ni3 U0 2.937046 1_556
Ni3 U4 2.937046 1_565
Ni3 U5 2.937046 1_455
Ni3 U1 2.937046 1_555
Ni4 U0 2.937046 1_555
Ni4 U2 2.937046 1_455
Ni4 U1 2.937046 1_555
Ni4 U3 2.937046 1_555
Ni5 U2 2.937046 1_565
Ni5 U1 2.937046 1_554
Ni5 U0 2.937046 1_655
Ni5 U3 2.937046 1_555
Bi0 Ni0 2.679803 1_555
Bi0 Ni4 2.679803 1_555
Bi0 Ni2 2.679803 1_555
Bi0 U1 3.316746 1_555
Bi0 U5 3.316746 1_555
Bi0 U3 3.316746 1_555
Bi0 U4 3.323264 1_554
Bi0 U0 3.323264 1_545
Bi0 U2 3.323264 1_455
Bi1 Ni1 2.679803 1_454
Bi1 Ni4 2.679803 1_555
Bi1 Ni3 2.679803 1_554
Bi1 U0 3.316746 1_555
Bi1 U2 3.316746 1_455
Bi1 U5 3.316746 1_454
Bi1 U1 3.323264 1_554
Bi1 U3 3.323264 1_555
Bi1 U4 3.323264 1_554
Bi2 Ni5 2.679803 1_445
Bi2 Ni2 2.679803 1_555
Bi2 Ni1 2.679803 1_455
Bi2 U0 3.316746 1_545
Bi2 U3 3.316746 1_445
Bi2 U4 3.316746 1_555
Bi2 U1 3.323264 1_555
Bi2 U2 3.323264 1_455
Bi2 U5 3.323264 1_455
Bi3 Ni3 2.679803 1_655
Bi3 Ni1 2.679803 1_565
Bi3 Ni5 2.679803 1_556
Bi3 U2 3.316746 1_566
Bi3 U0 3.316746 1_656
Bi3 U4 3.316746 1_665
Bi3 U1 3.323264 1_555
Bi3 U5 3.323264 1_555
Bi3 U3 3.323264 1_555
Bi4 Ni5 2.679803 1_545
Bi4 Ni0 2.679803 1_555
Bi4 Ni3 2.679803 1_544
Bi4 U2 3.316746 1_555
Bi4 U4 3.316746 1_554
Bi4 U1 3.316746 1_544
Bi4 U5 3.323264 1_555
Bi4 U0 3.323264 1_545
Bi4 U3 3.323264 1_545
Bi5 Ni0 2.679803 1_555
Bi5 Ni2 2.679803 1_554
Bi5 Ni5 2.679803 1_555
Bi5 U4 3.316746 1_554
Bi5 U1 3.316746 1_554
Bi5 U3 3.316746 1_555
Bi5 U0 3.323264 1_655
Bi5 U5 3.323264 1_554
Bi5 U2 3.323264 1_555
Bi6 Ni2 2.679803 1_555
Bi6 Ni1 2.679803 1_555
Bi6 Ni4 2.679803 1_545
Bi6 U0 3.316746 1_545
Bi6 U3 3.316746 1_545
Bi6 U5 3.316746 1_555
Bi6 U1 3.323264 1_545
Bi6 U4 3.323264 1_555
Bi6 U2 3.323264 1_556
Bi7 Ni0 2.679803 1_455
Bi7 Ni3 2.679803 1_555
Bi7 Ni4 2.679803 1_555
Bi7 U5 3.316746 1_455
Bi7 U2 3.316746 1_455
Bi7 U1 3.316746 1_555
Bi7 U4 3.323264 1_565
Bi7 U0 3.323264 1_555
Bi7 U3 3.323264 1_455
