# generated using pymatgen
data_LaTl(PS3)2
_symmetry_space_group_name_H-M   'P 1'
_cell_length_a   7.57980500
_cell_length_b   11.52879100
_cell_length_c   12.16404062
_cell_angle_alpha   70.52905518
_cell_angle_beta   90.00000000
_cell_angle_gamma   90.00000000
_symmetry_Int_Tables_number   1
_chemical_formula_structural   LaTl(PS3)2
_chemical_formula_sum   'La4 Tl4 P8 S24'
_cell_volume   1002.17632493
_cell_formula_units_Z   4
loop_
 _symmetry_equiv_pos_site_id
 _symmetry_equiv_pos_as_xyz
  1  'x, y, z'
loop_
 _atom_site_type_symbol
 _atom_site_label
 _atom_site_symmetry_multiplicity
 _atom_site_fract_x
 _atom_site_fract_y
 _atom_site_fract_z
 _atom_site_occupancy
  La  La0  1  0.89427400  0.40232800  0.35191100  1
  La  La1  1  0.39427400  0.09767200  0.64808900  1
  La  La2  1  0.10572600  0.59767200  0.64808900  1
  La  La3  1  0.60572600  0.90232800  0.35191100  1
  Tl  Tl0  1  0.09004300  0.12582200  0.12647600  1
  Tl  Tl1  1  0.59004300  0.37417800  0.87352400  1
  Tl  Tl2  1  0.90995700  0.87417800  0.87352400  1
  Tl  Tl3  1  0.40995700  0.62582200  0.12647600  1
  P  P0  1  0.62171800  0.22901300  0.21129500  1
  P  P1  1  0.12171800  0.27098700  0.78870500  1
  P  P2  1  0.37828200  0.77098700  0.78870500  1
  P  P3  1  0.87828200  0.72901300  0.21129500  1
  P  P4  1  0.89962900  0.25503200  0.67286200  1
  P  P5  1  0.39962900  0.24496800  0.32713800  1
  P  P6  1  0.10037100  0.74496800  0.32713800  1
  P  P7  1  0.60037100  0.75503200  0.67286200  1
  S  S0  1  0.52651000  0.12859400  0.11747700  1
  S  S1  1  0.02651000  0.37140600  0.88252300  1
  S  S2  1  0.47349000  0.87140600  0.88252300  1
  S  S3  1  0.97349000  0.62859400  0.11747700  1
  S  S4  1  0.70998800  0.40297000  0.13141100  1
  S  S5  1  0.20998800  0.09703000  0.86858900  1
  S  S6  1  0.29001200  0.59703000  0.86858900  1
  S  S7  1  0.79001200  0.90297000  0.13141100  1
  S  S8  1  0.21420100  0.35508100  0.22244200  1
  S  S9  1  0.71420100  0.14491900  0.77755800  1
  S  S10  1  0.78579900  0.64491900  0.77755800  1
  S  S11  1  0.28579900  0.85508100  0.22244200  1
  S  S12  1  0.80799900  0.13468500  0.32757200  1
  S  S13  1  0.30799900  0.36531500  0.67242800  1
  S  S14  1  0.19200100  0.86531500  0.67242800  1
  S  S15  1  0.69200100  0.63468500  0.32757200  1
  S  S16  1  0.51592000  0.31468100  0.44410100  1
  S  S17  1  0.01592000  0.18531900  0.55589900  1
  S  S18  1  0.48408000  0.68531900  0.55589900  1
  S  S19  1  0.98408000  0.81468100  0.44410100  1
  S  S20  1  0.81276200  0.43085700  0.59110800  1
  S  S21  1  0.31276200  0.06914300  0.40889200  1
  S  S22  1  0.18723800  0.56914300  0.40889200  1
  S  S23  1  0.68723800  0.93085700  0.59110800  1
loop_
_geom_bond_atom_site_label_1
_geom_bond_atom_site_label_2
_geom_bond_distance
_geom_bond_site_symmetry_2
La0 S15 3.014225 1_555
La0 S17 3.021233 1_655
La0 S4 3.021929 1_555
La0 S8 3.037981 1_655
La0 S20 3.097366 1_555
La0 S16 3.122135 1_555
La0 S22 3.162084 1_655
La0 S3 3.215285 1_555
La0 S12 3.262704 1_555
La1 S14 3.014225 1_545
La1 S16 3.021233 1_555
La1 S5 3.021929 1_555
La1 S9 3.037981 1_555
La1 S21 3.097366 1_555
La1 S17 3.122135 1_555
La1 S23 3.162084 1_545
La1 S2 3.215285 1_545
La1 S13 3.262704 1_555
La2 S13 3.014225 1_555
La2 S19 3.021233 1_455
La2 S6 3.021929 1_555
La2 S10 3.037981 1_455
La2 S22 3.097366 1_555
La2 S18 3.122135 1_555
La2 S20 3.162084 1_455
La2 S1 3.215285 1_555
La2 S14 3.262704 1_555
La3 S12 3.014225 1_565
La3 S18 3.021233 1_555
La3 S7 3.021929 1_555
La3 S11 3.037981 1_555
La3 S23 3.097366 1_555
La3 S19 3.122135 1_555
La3 S21 3.162084 1_565
La3 S0 3.215285 1_565
La3 S15 3.262704 1_555
P0 S0 2.011022 1_555
P0 S4 2.028495 1_555
P0 S12 2.037500 1_555
P0 P5 2.241886 1_555
P1 S1 2.011022 1_555
P1 S5 2.028495 1_555
P1 S13 2.037500 1_555
P1 P4 2.241886 1_455
P2 S2 2.011022 1_555
P2 S6 2.028495 1_555
P2 S14 2.037500 1_555
P2 P7 2.241886 1_555
P3 S3 2.011022 1_555
P3 S7 2.028495 1_555
P3 S15 2.037500 1_555
P3 P6 2.241886 1_655
P4 S9 2.032508 1_555
P4 S20 2.046352 1_555
P4 S17 2.051687 1_655
P5 S8 2.032508 1_555
P5 S21 2.046352 1_555
P5 S16 2.051687 1_555
P6 S11 2.032508 1_555
P6 S22 2.046352 1_555
P6 S19 2.051687 1_455
P7 S10 2.032508 1_555
P7 S23 2.046352 1_555
P7 S18 2.051687 1_555
