# generated using pymatgen
data_K3Ce(PO4)2
_symmetry_space_group_name_H-M   'P 1'
_cell_length_a   5.70658600
_cell_length_b   7.55773100
_cell_length_c   9.68644842
_cell_angle_alpha   89.14067735
_cell_angle_beta   90.00000000
_cell_angle_gamma   90.00000000
_symmetry_Int_Tables_number   1
_chemical_formula_structural   K3Ce(PO4)2
_chemical_formula_sum   'K6 Ce2 P4 O16'
_cell_volume   417.71831721
_cell_formula_units_Z   2
loop_
 _symmetry_equiv_pos_site_id
 _symmetry_equiv_pos_as_xyz
  1  'x, y, z'
loop_
 _atom_site_type_symbol
 _atom_site_label
 _atom_site_symmetry_multiplicity
 _atom_site_fract_x
 _atom_site_fract_y
 _atom_site_fract_z
 _atom_site_occupancy
  K  K0  1  0.25000000  0.79619600  0.58342600  1
  K  K1  1  0.25000000  0.50801000  0.30856700  1
  K  K2  1  0.75000000  0.20380400  0.41657400  1
  K  K3  1  0.75000000  0.63939300  0.09433700  1
  K  K4  1  0.75000000  0.49199000  0.69143300  1
  K  K5  1  0.25000000  0.36060700  0.90566300  1
  Ce  Ce0  1  0.75000000  0.99142700  0.79116000  1
  Ce  Ce1  1  0.25000000  0.00857300  0.20884000  1
  P  P0  1  0.25000000  0.80016200  0.92611900  1
  P  P1  1  0.75000000  0.76403700  0.41433900  1
  P  P2  1  0.25000000  0.23596300  0.58566100  1
  P  P3  1  0.75000000  0.19983800  0.07388100  1
  O  O0  1  0.97344100  0.25797100  0.15433900  1
  O  O1  1  0.75000000  0.28454600  0.92581200  1
  O  O2  1  0.97328800  0.84341400  0.34221100  1
  O  O3  1  0.52655900  0.25797100  0.15433900  1
  O  O4  1  0.75000000  0.56173900  0.39995500  1
  O  O5  1  0.25000000  0.71545400  0.07418800  1
  O  O6  1  0.02655900  0.74202900  0.84566100  1
  O  O7  1  0.75000000  0.81922600  0.56925000  1
  O  O8  1  0.52671200  0.84341400  0.34221100  1
  O  O9  1  0.47328800  0.15658600  0.65778900  1
  O  O10  1  0.47344100  0.74202900  0.84566100  1
  O  O11  1  0.02671200  0.15658600  0.65778900  1
  O  O12  1  0.25000000  0.18077400  0.43075000  1
  O  O13  1  0.75000000  0.99558600  0.05664900  1
  O  O14  1  0.25000000  0.43826100  0.60004500  1
  O  O15  1  0.25000000  0.00441400  0.94335100  1
loop_
_geom_bond_atom_site_label_1
_geom_bond_atom_site_label_2
_geom_bond_distance
_geom_bond_site_symmetry_2
K0 O14 2.707551 1_555
K0 O2 2.838159 1_455
K0 O8 2.838159 1_555
K0 O7 2.861768 1_555
K0 O7 2.861768 1_455
K0 O6 2.866092 1_555
K0 O10 2.866092 1_555
K0 O9 3.101617 1_565
K0 O11 3.101617 1_565
K0 O12 3.241317 1_565
K1 O12 2.725702 1_555
K1 O5 2.739619 1_555
K1 O14 2.864394 1_555
K1 O3 2.894528 1_555
K1 O0 2.894528 1_455
K1 O8 3.008349 1_555
K1 O2 3.008349 1_455
K1 O4 3.016717 1_455
K1 O4 3.016717 1_555
K2 O4 2.707551 1_555
K2 O11 2.838159 1_655
K2 O9 2.838159 1_555
K2 O12 2.861768 1_555
K2 O12 2.861768 1_655
K2 O3 2.866092 1_555
K2 O0 2.866092 1_555
K2 O2 3.101617 1_545
K2 O8 3.101617 1_545
K2 O7 3.241317 1_545
K3 O13 2.711220 1_555
K3 O5 2.916583 1_655
K3 O5 2.916583 1_555
K3 O10 2.972987 1_554
K3 O6 2.972987 1_654
K3 O4 3.009321 1_555
K3 O8 3.142789 1_555
K3 O2 3.142789 1_555
K3 O1 3.160432 1_554
K3 O0 3.197383 1_555
K3 O3 3.197383 1_555
K4 O7 2.725702 1_555
K4 O1 2.739619 1_555
K4 O4 2.864394 1_555
K4 O10 2.894528 1_555
K4 O6 2.894528 1_655
K4 O11 3.008349 1_655
K4 O9 3.008349 1_555
K4 O14 3.016717 1_555
K4 O14 3.016717 1_655
K5 O15 2.711220 1_555
K5 O1 2.916583 1_555
K5 O1 2.916583 1_455
K5 O0 2.972987 1_456
K5 O3 2.972987 1_556
K5 O14 3.009321 1_555
K5 O11 3.142789 1_555
K5 O9 3.142789 1_555
K5 O5 3.160432 1_556
K5 O10 3.197383 1_555
K5 O6 3.197383 1_555
Ce0 O9 2.381634 1_565
Ce0 O11 2.381634 1_665
Ce0 O6 2.508461 1_655
Ce0 O10 2.508461 1_555
Ce0 O7 2.529449 1_555
Ce0 O13 2.572309 1_556
Ce0 O1 2.587563 1_565
Ce1 O2 2.381634 1_445
Ce1 O8 2.381634 1_545
Ce1 O3 2.508461 1_555
Ce1 O0 2.508461 1_455
Ce1 O12 2.529449 1_555
Ce1 O15 2.572309 1_554
Ce1 O5 2.587563 1_545
O0 P3 1.560940 1_555
O1 P3 1.561866 1_556
O2 P1 1.568142 1_555
O3 P3 1.560940 1_555
O4 P1 1.537329 1_555
O5 P0 1.561866 1_554
O6 P0 1.560940 1_555
O7 P1 1.563445 1_555
O8 P1 1.568142 1_555
O9 P2 1.568142 1_555
O10 P0 1.560940 1_555
O11 P2 1.568142 1_555
O12 P2 1.563445 1_555
O13 P3 1.555167 1_565
O14 P2 1.537329 1_555
O15 P0 1.555167 1_545
