# generated using pymatgen
data_Y2CuGe6
_symmetry_space_group_name_H-M   'P 1'
_cell_length_a   10.87380228
_cell_length_b   10.87380228
_cell_length_c   4.09045800
_cell_angle_alpha   90.00000000
_cell_angle_beta   90.00000000
_cell_angle_gamma   158.41134369
_symmetry_Int_Tables_number   1
_chemical_formula_structural   Y2CuGe6
_chemical_formula_sum   'Y2 Cu1 Ge6'
_cell_volume   177.95588455
_cell_formula_units_Z   1
loop_
 _symmetry_equiv_pos_site_id
 _symmetry_equiv_pos_as_xyz
  1  'x, y, z'
loop_
 _atom_site_type_symbol
 _atom_site_label
 _atom_site_symmetry_multiplicity
 _atom_site_fract_x
 _atom_site_fract_y
 _atom_site_fract_z
 _atom_site_occupancy
  Y  Y0  1  0.99715000  0.00285000  0.00000000  1
  Y  Y1  1  0.33112800  0.66887200  0.00000000  1
  Cu  Cu0  1  0.77669900  0.22330100  0.50000000  1
  Ge  Ge0  1  0.71643000  0.28357000  0.00000000  1
  Ge  Ge1  1  0.60053600  0.39946400  0.00000000  1
  Ge  Ge2  1  0.45584800  0.54415200  0.50000000  1
  Ge  Ge3  1  0.88540400  0.11459600  0.50000000  1
  Ge  Ge4  1  0.09978800  0.90021200  0.50000000  1
  Ge  Ge5  1  0.21601600  0.78398400  0.50000000  1
loop_
_geom_bond_atom_site_label_1
_geom_bond_atom_site_label_2
_geom_bond_distance
_geom_bond_site_symmetry_2
Cu0 Ge3 2.322243 1_555
Cu0 Ge5 2.414091 1_655
Cu0 Ge5 2.414091 1_545
Cu0 Ge0 2.416745 1_555
Cu0 Ge0 2.416745 1_556
Cu0 Y1 3.111632 1_545
Cu0 Y1 3.111632 1_546
Cu0 Y1 3.111632 1_655
Cu0 Y1 3.111632 1_656
Ge0 Ge1 2.475820 1_555
Ge0 Ge5 2.886231 1_655
Ge0 Ge5 2.886231 1_654
Ge0 Ge5 2.886231 1_545
Ge0 Ge5 2.886231 1_544
Ge0 Y1 3.186082 1_545
Ge0 Y1 3.186082 1_655
Ge1 Ge4 2.886262 1_545
Ge1 Ge4 2.886262 1_654
Ge1 Ge4 2.886262 1_655
Ge1 Ge4 2.886262 1_544
Ge1 Y0 3.004208 1_455
Ge1 Y0 3.004208 1_565
Ge2 Ge3 2.532184 1_565
Ge2 Ge3 2.532184 1_455
Ge2 Y0 3.018071 1_455
Ge2 Y0 3.018071 1_456
Ge2 Y0 3.018071 1_565
Ge2 Y0 3.018071 1_566
Ge2 Y1 3.358842 1_556
Ge2 Y1 3.358842 1_555
Ge3 Y1 3.110412 1_545
Ge3 Y1 3.110412 1_546
Ge3 Y1 3.110412 1_656
Ge3 Y1 3.110412 1_655
Ge3 Y0 3.143520 1_556
Ge3 Y0 3.143520 1_555
Ge4 Ge5 2.482955 1_555
Ge4 Y0 2.998434 1_466
Ge4 Y0 2.998434 1_465
Ge5 Y1 3.198469 1_555
Ge5 Y1 3.198469 1_556
