# generated using pymatgen
data_Al2Zn2S5
_symmetry_space_group_name_H-M   'P 1'
_cell_length_a   15.21577275
_cell_length_b   15.21577275
_cell_length_c   15.21577294
_cell_angle_alpha   14.03713088
_cell_angle_beta   14.03713088
_cell_angle_gamma   14.03713298
_symmetry_Int_Tables_number   1
_chemical_formula_structural   Al2Zn2S5
_chemical_formula_sum   'Al2 Zn2 S5'
_cell_volume   180.37831430
_cell_formula_units_Z   1
loop_
 _symmetry_equiv_pos_site_id
 _symmetry_equiv_pos_as_xyz
  1  'x, y, z'
loop_
 _atom_site_type_symbol
 _atom_site_label
 _atom_site_symmetry_multiplicity
 _atom_site_fract_x
 _atom_site_fract_y
 _atom_site_fract_z
 _atom_site_occupancy
  Al  Al0  1  0.10426700  0.10426700  0.10426700  1
  Al  Al1  1  0.92297600  0.92297600  0.92297600  1
  Zn  Zn0  1  0.68894600  0.68894600  0.68894600  1
  Zn  Zn1  1  0.51713700  0.51713700  0.51713700  1
  S  S0  1  0.00547900  0.00547900  0.00547900  1
  S  S1  1  0.46735200  0.46735200  0.46735200  1
  S  S2  1  0.60805200  0.60805200  0.60805200  1
  S  S3  1  0.74533600  0.74533600  0.74533600  1
  S  S4  1  0.87245500  0.87245500  0.87245500  1
loop_
_geom_bond_atom_site_label_1
_geom_bond_atom_site_label_2
_geom_bond_distance
_geom_bond_site_symmetry_2
Al0 S3 2.438670 1_445
Al0 S3 2.438670 1_544
Al0 S3 2.438670 1_454
Al0 S1 2.533111 1_554
Al0 S1 2.533112 1_455
Al0 S1 2.533112 1_545
Al1 S4 2.283078 1_555
Al1 S2 2.302409 1_556
Al1 S2 2.302409 1_565
Al1 S2 2.302409 1_655
S0 Zn0 2.277146 1_445
S0 Zn0 2.277146 1_454
S0 Zn0 2.277146 1_544
S1 Zn1 2.249818 1_555
S3 Zn0 2.548302 1_555
S4 Zn1 2.365592 1_556
S4 Zn1 2.365592 1_565
S4 Zn1 2.365592 1_655
