# generated using pymatgen
data_VCrO3
_symmetry_space_group_name_H-M   'P 1'
_cell_length_a   5.10626200
_cell_length_b   5.49689470
_cell_length_c   8.84711249
_cell_angle_alpha   105.53829532
_cell_angle_beta   90.01317262
_cell_angle_gamma   117.66117204
_symmetry_Int_Tables_number   1
_chemical_formula_structural   VCrO3
_chemical_formula_sum   'V4 Cr4 O12'
_cell_volume   209.63491911
_cell_formula_units_Z   4
loop_
 _symmetry_equiv_pos_site_id
 _symmetry_equiv_pos_as_xyz
  1  'x, y, z'
loop_
 _atom_site_type_symbol
 _atom_site_label
 _atom_site_symmetry_multiplicity
 _atom_site_fract_x
 _atom_site_fract_y
 _atom_site_fract_z
 _atom_site_occupancy
  V  V0  1  0.14807100  0.87135600  0.57516200  1
  V  V1  1  0.35157800  0.87647800  0.17416200  1
  V  V2  1  0.85033600  0.12550300  0.42715700  1
  V  V3  1  0.85153600  0.62916400  0.92332900  1
  Cr  Cr0  1  0.15018900  0.37574700  0.07475300  1
  Cr  Cr1  1  0.34738000  0.37043200  0.67478100  1
  Cr  Cr2  1  0.65281100  0.62729300  0.32417300  1
  Cr  Cr3  1  0.64866400  0.12746600  0.82689900  1
  O  O0  1  0.05257200  0.52436200  0.72280600  1
  O  O1  1  0.05315700  0.02685400  0.22319900  1
  O  O2  1  0.44738400  0.87327300  0.37509500  1
  O  O3  1  0.55402900  0.62390400  0.12442900  1
  O  O4  1  0.25152200  0.77667600  0.97322500  1
  O  O5  1  0.25300800  0.27919100  0.47266800  1
  O  O6  1  0.74831000  0.71931600  0.52645300  1
  O  O7  1  0.75164400  0.22544700  0.02647900  1
  O  O8  1  0.44498900  0.37372300  0.87469900  1
  O  O9  1  0.55128700  0.12515900  0.62760800  1
  O  O10  1  0.94572600  0.97700100  0.77654700  1
  O  O11  1  0.94580700  0.47165300  0.27637700  1
loop_
_geom_bond_atom_site_label_1
_geom_bond_atom_site_label_2
_geom_bond_distance
_geom_bond_site_symmetry_2
Cr0 O7 1.804429 1_455
Cr0 O3 1.836533 1_555
Cr0 O11 2.134680 1_455
Cr0 O8 2.324845 1_554
Cr0 O4 2.435893 1_554
Cr0 O1 2.473020 1_555
Cr1 O5 1.725062 1_555
Cr1 O8 1.830606 1_555
Cr1 O9 2.019446 1_555
Cr1 O0 2.037876 1_555
Cr2 O6 1.726814 1_555
Cr2 O3 1.830532 1_555
Cr2 O2 2.030342 1_555
Cr2 O11 2.035686 1_555
Cr2 O1 2.585388 1_665
Cr3 O7 1.706287 1_556
Cr3 O9 1.826982 1_555
Cr3 O8 2.023236 1_555
Cr3 O10 2.037454 1_545
O0 V3 2.129620 1_455
O0 V0 2.460423 1_555
O1 V1 2.042346 1_545
O1 V2 2.149580 1_455
O1 V3 2.771098 1_444
O2 V2 1.837595 1_565
O2 V1 1.850447 1_555
O2 V0 2.337791 1_555
O3 V1 2.048264 1_555
O3 V3 2.337105 1_554
O4 V1 1.714377 1_556
O4 V3 1.814943 1_455
O5 V2 1.818824 1_455
O6 V0 1.809328 1_655
O8 V3 1.853565 1_555
O9 V0 1.840260 1_545
O9 V2 2.340332 1_555
O10 V0 2.140743 1_655
O10 V3 2.459722 1_555
O11 V2 2.477198 1_555
