# generated using pymatgen
data_KTm(MoO4)2
_symmetry_space_group_name_H-M   'P 1'
_cell_length_a   7.44586278
_cell_length_b   7.44586278
_cell_length_c   7.69646614
_cell_angle_alpha   61.72706501
_cell_angle_beta   61.72706501
_cell_angle_gamma   87.78780776
_symmetry_Int_Tables_number   1
_chemical_formula_structural   KTm(MoO4)2
_chemical_formula_sum   'K2 Tm2 Mo4 O16'
_cell_volume   321.33009877
_cell_formula_units_Z   2
loop_
 _symmetry_equiv_pos_site_id
 _symmetry_equiv_pos_as_xyz
  1  'x, y, z'
loop_
 _atom_site_type_symbol
 _atom_site_label
 _atom_site_symmetry_multiplicity
 _atom_site_fract_x
 _atom_site_fract_y
 _atom_site_fract_z
 _atom_site_occupancy
  K  K0  1  0.19969100  0.80030900  0.75000000  1
  K  K1  1  0.80030900  0.19969100  0.25000000  1
  Tm  Tm0  1  0.77127900  0.22872100  0.75000000  1
  Tm  Tm1  1  0.22872100  0.77127900  0.25000000  1
  Mo  Mo0  1  0.69674400  0.69841500  0.76158200  1
  Mo  Mo1  1  0.30325600  0.30158500  0.23841800  1
  Mo  Mo2  1  0.30158500  0.30325600  0.73841800  1
  Mo  Mo3  1  0.69841500  0.69674400  0.26158200  1
  O  O0  1  0.61242900  0.77088300  0.55908100  1
  O  O1  1  0.38757100  0.22911700  0.44091900  1
  O  O2  1  0.22911700  0.38757100  0.94091900  1
  O  O3  1  0.77088300  0.61242900  0.05908100  1
  O  O4  1  0.38147000  0.06387000  0.88041200  1
  O  O5  1  0.61853000  0.93613000  0.11958800  1
  O  O6  1  0.93613000  0.61853000  0.61958800  1
  O  O7  1  0.06387000  0.38147000  0.38041200  1
  O  O8  1  0.58775400  0.36653200  0.96740100  1
  O  O9  1  0.41224600  0.63346800  0.03259900  1
  O  O10  1  0.63346800  0.41224600  0.53259900  1
  O  O11  1  0.36653200  0.58775400  0.46740100  1
  O  O12  1  0.79287500  0.95686500  0.69180300  1
  O  O13  1  0.20712500  0.04313500  0.30819700  1
  O  O14  1  0.04313500  0.20712500  0.80819700  1
  O  O15  1  0.95686500  0.79287500  0.19180300  1
loop_
_geom_bond_atom_site_label_1
_geom_bond_atom_site_label_2
_geom_bond_distance
_geom_bond_site_symmetry_2
K0 O0 2.761646 1_555
K0 O2 2.761646 1_555
K0 O1 2.794106 1_565
K0 O3 2.794106 1_456
K0 O15 2.973128 1_456
K0 O13 2.973128 1_565
K0 O9 3.054226 1_556
K0 O11 3.054226 1_555
K0 O4 3.169957 1_565
K0 O6 3.169957 1_455
K0 O14 3.354547 1_565
K0 O12 3.354547 1_455
K1 O1 2.761646 1_555
K1 O3 2.761646 1_555
K1 O0 2.794106 1_545
K1 O2 2.794106 1_654
K1 O12 2.973128 1_545
K1 O14 2.973128 1_654
K1 O10 3.054226 1_555
K1 O8 3.054226 1_554
K1 O5 3.169957 1_545
K1 O7 3.169957 1_655
K1 O13 3.354547 1_655
K1 O15 3.354547 1_545
Mo0 O0 1.793998 1_555
Mo0 O12 1.807515 1_555
Mo0 O6 1.847647 1_555
Mo0 O9 2.002410 1_556
Mo0 O8 2.122049 1_555
Mo0 O3 2.395559 1_556
Mo1 O1 1.793998 1_555
Mo1 O13 1.807515 1_555
Mo1 O7 1.847647 1_555
Mo1 O8 2.002410 1_554
Mo1 O9 2.122049 1_555
Mo1 O2 2.395559 1_554
Mo2 O2 1.793998 1_555
Mo2 O14 1.807515 1_555
Mo2 O4 1.847647 1_555
Mo2 O11 2.002410 1_555
Mo2 O10 2.122049 1_555
Mo2 O1 2.395559 1_555
Mo3 O3 1.793998 1_555
Mo3 O15 1.807515 1_555
Mo3 O5 1.847647 1_555
Mo3 O10 2.002410 1_555
Mo3 O11 2.122049 1_555
Mo3 O0 2.395559 1_555
O4 Tm1 2.320951 1_546
O4 Tm0 2.699342 1_555
O5 Tm0 2.320951 1_564
O5 Tm1 2.699342 1_555
O6 Tm1 2.320951 1_655
O6 Tm0 2.699342 1_555
O7 Tm0 2.320951 1_455
O7 Tm1 2.699342 1_555
O8 Tm0 2.252138 1_555
O9 Tm1 2.252138 1_555
O10 Tm0 2.252138 1_555
O11 Tm1 2.252138 1_555
O12 Tm0 2.255978 1_565
O13 Tm1 2.255978 1_545
O14 Tm0 2.255978 1_455
O15 Tm1 2.255978 1_655
