# generated using pymatgen
data_Dy2MgS4
_symmetry_space_group_name_H-M   'P 1'
_cell_length_a   7.23150119
_cell_length_b   8.37218498
_cell_length_c   12.91617285
_cell_angle_alpha   80.45608500
_cell_angle_beta   84.34950476
_cell_angle_gamma   90.01100630
_symmetry_Int_Tables_number   1
_chemical_formula_structural   Dy2MgS4
_chemical_formula_sum   'Dy8 Mg4 S16'
_cell_volume   767.31040711
_cell_formula_units_Z   4
loop_
 _symmetry_equiv_pos_site_id
 _symmetry_equiv_pos_as_xyz
  1  'x, y, z'
loop_
 _atom_site_type_symbol
 _atom_site_label
 _atom_site_symmetry_multiplicity
 _atom_site_fract_x
 _atom_site_fract_y
 _atom_site_fract_z
 _atom_site_occupancy
  Dy  Dy0  1  0.13518900  0.70027800  0.69396100  1
  Dy  Dy1  1  0.86481100  0.29972200  0.30603900  1
  Dy  Dy2  1  0.24144000  0.87237300  0.00061000  1
  Dy  Dy3  1  0.75856000  0.12762700  0.99939000  1
  Dy  Dy4  1  0.36792200  0.55496800  0.30427900  1
  Dy  Dy5  1  0.63207800  0.44503200  0.69572100  1
  Dy  Dy6  1  0.36634800  0.04268700  0.30782300  1
  Dy  Dy7  1  0.63365200  0.95731300  0.69217700  1
  Mg  Mg0  1  0.13373900  0.20038200  0.70015100  1
  Mg  Mg1  1  0.86626100  0.79961800  0.29984900  1
  Mg  Mg2  1  0.24922900  0.37751700  0.99625400  1
  Mg  Mg3  1  0.75077100  0.62248300  0.00374600  1
  S  S0  1  0.09395800  0.64533800  0.89683100  1
  S  S1  1  0.90604200  0.35466200  0.10316900  1
  S  S2  1  0.10714600  0.15520000  0.89257400  1
  S  S3  1  0.89285400  0.84480000  0.10742600  1
  S  S4  1  0.16972000  0.78116200  0.37213500  1
  S  S5  1  0.83028000  0.21883800  0.62786500  1
  S  S6  1  0.19145500  0.28182600  0.37527500  1
  S  S7  1  0.80854500  0.71817400  0.62472500  1
  S  S8  1  0.30365500  0.97879000  0.62933200  1
  S  S9  1  0.69634500  0.02121000  0.37066800  1
  S  S10  1  0.30539000  0.45660300  0.62890900  1
  S  S11  1  0.69461000  0.54339700  0.37109100  1
  S  S12  1  0.39426900  0.10285400  0.10445100  1
  S  S13  1  0.60573100  0.89714600  0.89554900  1
  S  S14  1  0.40414100  0.59301000  0.10178100  1
  S  S15  1  0.59585900  0.40699000  0.89821900  1
loop_
_geom_bond_atom_site_label_1
_geom_bond_atom_site_label_2
_geom_bond_distance
_geom_bond_site_symmetry_2
Dy0 S0 2.571554 1_555
Dy0 S10 2.597803 1_555
Dy0 S8 2.602163 1_555
Dy0 S7 2.602589 1_455
Dy1 S1 2.571554 1_555
Dy1 S11 2.597803 1_555
Dy1 S9 2.602163 1_555
Dy1 S6 2.602589 1_655
Dy2 S3 2.742349 1_455
Dy2 S2 2.769334 1_564
Dy2 S0 2.769979 1_554
Dy2 S14 2.802244 1_555
Dy2 S12 2.809465 1_565
Dy2 S13 2.833169 1_554
Dy3 S2 2.742349 1_655
Dy3 S3 2.769334 1_546
Dy3 S1 2.769979 1_556
Dy3 S15 2.802244 1_555
Dy3 S13 2.809465 1_545
Dy3 S12 2.833169 1_556
Dy4 S14 2.568990 1_555
Dy4 S11 2.590182 1_555
Dy4 S4 2.590905 1_555
Dy4 S6 2.602282 1_555
Dy5 S15 2.568990 1_555
Dy5 S10 2.590182 1_555
Dy5 S5 2.590905 1_555
Dy5 S7 2.602282 1_555
Dy6 S12 2.579005 1_555
Dy6 S4 2.582443 1_545
Dy6 S9 2.592143 1_555
Dy6 S6 2.594122 1_555
Dy7 S13 2.579005 1_555
Dy7 S5 2.582443 1_565
Dy7 S8 2.592143 1_555
Dy7 S7 2.594122 1_555
Mg0 S2 2.439513 1_555
Mg0 S5 2.463133 1_455
Mg0 S10 2.471560 1_555
Mg0 S8 2.476004 1_545
Mg1 S3 2.439513 1_555
Mg1 S4 2.463133 1_655
Mg1 S11 2.471560 1_555
Mg1 S9 2.476004 1_565
Mg2 S15 2.686762 1_555
Mg2 S0 2.695849 1_555
Mg2 S1 2.709249 1_456
Mg2 S2 2.722157 1_555
Mg2 S14 2.735512 1_556
Mg2 S12 2.750426 1_556
Mg3 S14 2.686762 1_555
Mg3 S1 2.695849 1_555
Mg3 S0 2.709249 1_654
Mg3 S3 2.722157 1_555
Mg3 S15 2.735512 1_554
Mg3 S13 2.750426 1_554
