# generated using pymatgen
data_Na11TiNb2Si4(PO13)2
_symmetry_space_group_name_H-M   'P 1'
_cell_length_a   5.57465300
_cell_length_b   7.24691270
_cell_length_c   14.71390553
_cell_angle_alpha   92.58766017
_cell_angle_beta   95.39982074
_cell_angle_gamma   90.55149198
_symmetry_Int_Tables_number   1
_chemical_formula_structural   Na11TiNb2Si4(PO13)2
_chemical_formula_sum   'Na11 Ti1 Nb2 Si4 P2 O26'
_cell_volume   591.12853894
_cell_formula_units_Z   1
loop_
 _symmetry_equiv_pos_site_id
 _symmetry_equiv_pos_as_xyz
  1  'x, y, z'
loop_
 _atom_site_type_symbol
 _atom_site_label
 _atom_site_symmetry_multiplicity
 _atom_site_fract_x
 _atom_site_fract_y
 _atom_site_fract_z
 _atom_site_occupancy
  Na  Na0  1  0.50569600  0.76095400  0.49710300  1
  Na  Na1  1  0.49631000  0.24241300  0.50028900  1
  Na  Na2  1  0.29478700  0.00936300  0.26529000  1
  Na  Na3  1  0.70513600  0.99133800  0.73607800  1
  Na  Na4  1  0.80517400  0.49264900  0.13359600  1
  Na  Na5  1  0.19486500  0.50711500  0.86633200  1
  Na  Na6  1  0.99995200  0.49954300  0.50004600  1
  Na  Na7  1  0.75272600  0.26411800  0.92191900  1
  Na  Na8  1  0.24721000  0.73588300  0.07817500  1
  Na  Na9  1  0.81759300  0.01805700  0.10045500  1
  Na  Na10  1  0.18248300  0.98207000  0.89957200  1
  Ti  Ti0  1  0.02604800  0.00088200  0.49181800  1
  Nb  Nb0  1  0.69809500  0.50701600  0.71609100  1
  Nb  Nb1  1  0.30151900  0.49240600  0.28401300  1
  Si  Si0  1  0.80225300  0.20480100  0.31610700  1
  Si  Si1  1  0.19618100  0.79573100  0.68451500  1
  Si  Si2  1  0.81710300  0.78116500  0.30367800  1
  Si  Si3  1  0.18262600  0.21825900  0.69513500  1
  P  P0  1  0.68666100  0.74424300  0.93351100  1
  P  P1  1  0.31325200  0.25566800  0.06651700  1
  O  O0  1  0.74433500  0.56982200  0.87016600  1
  O  O1  1  0.25534100  0.43016800  0.12980100  1
  O  O2  1  0.58764400  0.25735700  0.05683200  1
  O  O3  1  0.41226900  0.74264000  0.94314600  1
  O  O4  1  0.56667100  0.67655100  0.25810400  1
  O  O5  1  0.43279100  0.32334000  0.74172700  1
  O  O6  1  0.95011200  0.30366700  0.74442400  1
  O  O7  1  0.05042200  0.69653500  0.25483800  1
  O  O8  1  0.54154500  0.28964400  0.28138600  1
  O  O9  1  0.45775800  0.71069800  0.71805900  1
  O  O10  1  0.98179700  0.68544900  0.72768900  1
  O  O11  1  0.01731500  0.31435400  0.27275000  1
  O  O12  1  0.82949800  0.72563000  0.02866100  1
  O  O13  1  0.17044600  0.27426900  0.97134700  1
  O  O14  1  0.76432100  0.92733600  0.89169400  1
  O  O15  1  0.23573300  0.07266600  0.10841400  1
  O  O16  1  0.74138100  0.99068000  0.57918700  1
  O  O17  1  0.26557100  0.00341400  0.42393500  1
  O  O18  1  0.79604700  0.99441200  0.26477500  1
  O  O19  1  0.20407900  0.00616600  0.73525500  1
  O  O20  1  0.67807000  0.48445000  0.59339200  1
  O  O21  1  0.32193400  0.51494300  0.40666400  1
  O  O22  1  0.84187300  0.78974100  0.41416100  1
  O  O23  1  0.16447900  0.21052500  0.58464300  1
  O  O24  1  0.83725800  0.19911000  0.42647300  1
  O  O25  1  0.15329000  0.80187600  0.57437700  1
loop_
_geom_bond_atom_site_label_1
_geom_bond_atom_site_label_2
_geom_bond_distance
_geom_bond_site_symmetry_2
Na0 O16 2.331138 1_555
Na0 O22 2.343280 1_555
Na0 O21 2.343653 1_555
Na0 O25 2.375145 1_555
Na0 O17 2.446043 1_565
Na0 O20 2.642547 1_555
Na1 O24 2.293450 1_555
Na1 O17 2.329374 1_555
Na1 O23 2.337870 1_555
Na1 O20 2.338266 1_555
Na1 O16 2.546149 1_545
Na1 O21 2.602676 1_555
Na2 O17 2.357496 1_555
Na2 O15 2.366937 1_555
Na2 O8 2.432172 1_555
Na2 O7 2.624590 1_545
Na2 O11 2.713984 1_555
Na2 O18 2.780655 1_445
Na2 O18 2.798201 1_545
Na2 O4 2.864083 1_545
Na3 O16 2.335966 1_555
Na3 O14 2.350203 1_555
Na3 O9 2.436556 1_555
Na3 O6 2.624311 1_565
Na3 O10 2.717501 1_555
Na3 O19 2.783662 1_665
Na3 O19 2.795227 1_565
Na3 O5 2.859497 1_565
Na4 O2 2.276467 1_555
Na4 O12 2.350190 1_555
Na4 O7 2.549278 1_655
Na4 O1 2.559652 1_655
Na4 O11 2.659489 1_655
Na4 O4 2.678099 1_555
Na5 O3 2.277653 1_555
Na5 O13 2.350337 1_555
Na5 O6 2.552401 1_455
Na5 O0 2.562009 1_455
Na5 O10 2.655961 1_455
Na5 O5 2.676859 1_555
Na6 O20 2.364712 1_555
Na6 O21 2.365658 1_655
Na6 O25 2.509758 1_655
Na6 O24 2.509804 1_555
Na6 O23 2.614389 1_655
Na6 O22 2.619609 1_555
Na7 O2 2.267523 1_556
Na7 O13 2.372773 1_655
Na7 O0 2.374388 1_555
Na7 O14 2.463549 1_545
Na7 O6 2.952288 1_555
Na8 O3 2.269020 1_554
Na8 O12 2.373006 1_455
Na8 O1 2.373792 1_555
Na8 O15 2.463550 1_565
Na8 O7 2.939265 1_555
Na9 O2 2.247458 1_555
Na9 O12 2.329176 1_545
Na9 O15 2.351702 1_655
Na9 O18 2.445641 1_545
Na10 O3 2.247510 1_555
Na10 O13 2.327649 1_565
Na10 O14 2.352026 1_455
Na10 O19 2.446012 1_565
Nb0 O20 1.798239 1_555
Nb0 O9 2.004039 1_555
Nb0 O10 2.022963 1_555
Nb0 O5 2.052774 1_555
Nb0 O6 2.074683 1_555
Nb0 O0 2.282035 1_555
Nb1 O21 1.797457 1_555
Nb1 O8 1.998372 1_555
Nb1 O11 2.023477 1_555
Nb1 O4 2.055496 1_555
Nb1 O7 2.077525 1_555
Nb1 O1 2.283365 1_555
O0 P0 1.589864 1_555
O1 P1 1.590145 1_555
O2 P1 1.549542 1_555
O3 P0 1.549404 1_555
O4 Si2 1.652563 1_555
O5 Si3 1.657474 1_555
O6 Si3 1.655593 1_655
O7 Si2 1.654025 1_455
O8 Si0 1.630063 1_555
O9 Si1 1.630642 1_555
O10 Si1 1.625094 1_655
O11 Si0 1.626654 1_455
O12 P0 1.556155 1_554
O13 P1 1.556321 1_556
O14 P0 1.561845 1_555
O15 P1 1.561574 1_555
O16 Ti0 2.136978 1_665
O17 Ti0 1.741579 1_555
O18 Si0 1.669243 1_565
O18 Si2 1.673429 1_555
O19 Si1 1.665737 1_545
O19 Si3 1.672540 1_555
O22 Si2 1.616814 1_555
O22 Ti0 2.071741 1_665
O23 Si3 1.617779 1_555
O23 Ti0 2.088263 1_555
O24 Si0 1.619704 1_555
O24 Ti0 2.014719 1_655
O25 Si1 1.618382 1_555
O25 Ti0 2.018512 1_565
