# generated using pymatgen
data_Ba2ThS6
_symmetry_space_group_name_H-M   'P 1'
_cell_length_a   5.53901505
_cell_length_b   5.53901505
_cell_length_c   16.15255486
_cell_angle_alpha   90.00000000
_cell_angle_beta   90.00000000
_cell_angle_gamma   90.00000000
_symmetry_Int_Tables_number   1
_chemical_formula_structural   Ba2ThS6
_chemical_formula_sum   'Ba4 Th2 S12'
_cell_volume   495.57149161
_cell_formula_units_Z   2
loop_
 _symmetry_equiv_pos_site_id
 _symmetry_equiv_pos_as_xyz
  1  'x, y, z'
loop_
 _atom_site_type_symbol
 _atom_site_label
 _atom_site_symmetry_multiplicity
 _atom_site_fract_x
 _atom_site_fract_y
 _atom_site_fract_z
 _atom_site_occupancy
  Ba  Ba0  1  0.00000000  -0.00000000  0.13667476  1
  Ba  Ba1  1  0.50000000  0.50000000  0.63667476  1
  Ba  Ba2  1  0.50000000  0.50000000  0.36332524  1
  Ba  Ba3  1  -0.00000000  -0.00000000  0.86332524  1
  Th  Th0  1  -0.00000000  -0.00000000  0.50000000  1
  Th  Th1  1  0.50000000  0.50000000  -0.00000000  1
  S  S0  1  0.31214849  0.50000000  0.16751594  1
  S  S1  1  0.68785151  0.50000000  0.16751594  1
  S  S2  1  0.00000000  0.81214849  0.66751594  1
  S  S3  1  0.00000000  0.18785151  0.66751594  1
  S  S4  1  0.18785151  -0.00000000  0.33248406  1
  S  S5  1  0.81214849  -0.00000000  0.33248406  1
  S  S6  1  0.50000000  0.68785151  0.83248406  1
  S  S7  1  0.50000000  0.31214849  0.83248406  1
  S  S8  1  -0.00000000  0.50000000  0.97408883  1
  S  S9  1  -0.00000000  0.50000000  0.47408883  1
  S  S10  1  0.50000000  -0.00000000  0.52591117  1
  S  S11  1  0.50000000  -0.00000000  0.02591117  1
loop_
_geom_bond_atom_site_label_1
_geom_bond_atom_site_label_2
_geom_bond_distance
_geom_bond_site_symmetry_2
Ba0 S11 3.297136 1_455
Ba0 S11 3.297136 1_555
Ba0 S1 3.302690 1_445
Ba0 S1 3.302690 1_455
Ba0 S0 3.302690 1_555
Ba0 S0 3.302690 1_545
Ba0 S4 3.329579 1_555
Ba0 S5 3.329579 1_455
Ba0 S8 3.816672 1_554
Ba0 S8 3.816672 1_544
Ba1 S10 3.297136 1_555
Ba1 S10 3.297136 1_565
Ba1 S2 3.302690 1_555
Ba1 S3 3.302690 1_655
Ba1 S2 3.302690 1_655
Ba1 S3 3.302690 1_555
Ba1 S6 3.329579 1_555
Ba1 S7 3.329579 1_555
Ba1 S9 3.816672 1_555
Ba1 S9 3.816672 1_655
Ba2 S9 3.297136 1_555
Ba2 S9 3.297136 1_655
Ba2 S5 3.302690 1_565
Ba2 S5 3.302690 1_555
Ba2 S4 3.302690 1_565
Ba2 S4 3.302690 1_555
Ba2 S1 3.329579 1_555
Ba2 S0 3.329579 1_555
Ba2 S10 3.816672 1_555
Ba2 S10 3.816672 1_565
Ba3 S8 3.297136 1_545
Ba3 S8 3.297136 1_555
Ba3 S7 3.302690 1_455
Ba3 S6 3.302690 1_445
Ba3 S6 3.302690 1_545
Ba3 S7 3.302690 1_555
Ba3 S2 3.329579 1_545
Ba3 S3 3.329579 1_555
Ba3 S11 3.816672 1_456
Ba3 S11 3.816672 1_556
S0 S1 2.081025 1_555
S0 Th1 2.898978 1_555
S1 Th1 2.898978 1_555
S2 S3 2.081025 1_565
S2 Th0 2.898978 1_565
S3 Th0 2.898978 1_555
S4 S5 2.081025 1_455
S4 Th0 2.898978 1_555
S5 Th0 2.898978 1_655
S6 S7 2.081025 1_555
S6 Th1 2.898978 1_556
S7 Th1 2.898978 1_556
S8 Th1 2.800954 1_556
S8 Th1 2.800954 1_456
S9 Th0 2.800954 1_565
S9 Th0 2.800954 1_555
S10 Th0 2.800954 1_555
S10 Th0 2.800954 1_655
S11 Th1 2.800954 1_555
S11 Th1 2.800954 1_545
