# generated using pymatgen
data_Ba3Lu2MoO9
_symmetry_space_group_name_H-M   'P 1'
_cell_length_a   5.94778682
_cell_length_b   5.94778682
_cell_length_c   7.28242392
_cell_angle_alpha   90.00000000
_cell_angle_beta   90.00000000
_cell_angle_gamma   120.00000179
_symmetry_Int_Tables_number   1
_chemical_formula_structural   Ba3Lu2MoO9
_chemical_formula_sum   'Ba3 Lu2 Mo1 O9'
_cell_volume   223.10914331
_cell_formula_units_Z   1
loop_
 _symmetry_equiv_pos_site_id
 _symmetry_equiv_pos_as_xyz
  1  'x, y, z'
loop_
 _atom_site_type_symbol
 _atom_site_label
 _atom_site_symmetry_multiplicity
 _atom_site_fract_x
 _atom_site_fract_y
 _atom_site_fract_z
 _atom_site_occupancy
  Ba  Ba0  1  -0.00000000  -0.00000000  0.50000000  1
  Ba  Ba1  1  0.66666700  0.33333300  0.82038736  1
  Ba  Ba2  1  0.33333300  0.66666700  0.17961264  1
  Lu  Lu0  1  0.66666700  0.33333300  0.33513239  1
  Lu  Lu1  1  0.33333300  0.66666700  0.66486761  1
  Mo  Mo0  1  -0.00000000  -0.00000000  0.00000000  1
  O  O0  1  0.69223041  0.84611521  0.84875420  1
  O  O1  1  0.30776959  0.15388479  0.15124580  1
  O  O2  1  -0.00000000  0.50000000  0.50000000  1
  O  O3  1  0.50000000  -0.00000000  0.50000000  1
  O  O4  1  0.15388479  0.30776959  0.84875420  1
  O  O5  1  0.84611521  0.69223041  0.15124580  1
  O  O6  1  0.50000000  0.50000000  0.50000000  1
  O  O7  1  0.15388479  0.84611521  0.84875420  1
  O  O8  1  0.84611521  0.15388479  0.15124580  1
loop_
_geom_bond_atom_site_label_1
_geom_bond_atom_site_label_2
_geom_bond_distance
_geom_bond_site_symmetry_2
Ba0 O6 2.973893 1_555
Ba0 O6 2.973893 1_445
Ba0 O2 2.973893 1_555
Ba0 O3 2.973893 1_455
Ba0 O3 2.973893 1_555
Ba0 O2 2.973893 1_545
Ba0 O8 2.993934 1_455
Ba0 O7 2.993934 1_545
Ba0 O1 2.993934 1_555
Ba0 O4 2.993934 1_555
Ba0 O0 2.993934 1_445
Ba0 O5 2.993934 1_445
Ba1 O2 2.896863 1_655
Ba1 O3 2.896863 1_555
Ba1 O6 2.896866 1_555
Ba1 O0 2.983963 1_545
Ba1 O4 2.983963 1_655
Ba1 O7 2.983967 1_655
Ba1 O7 2.983967 1_545
Ba1 O4 2.983969 1_555
Ba1 O0 2.983969 1_555
Ba1 O8 3.036934 1_556
Ba1 O5 3.036937 1_556
Ba1 O1 3.036937 1_556
Ba2 O2 2.896863 1_555
Ba2 O3 2.896863 1_565
Ba2 O6 2.896866 1_555
Ba2 O5 2.983963 1_455
Ba2 O1 2.983963 1_565
Ba2 O8 2.983967 1_455
Ba2 O8 2.983967 1_565
Ba2 O1 2.983969 1_555
Ba2 O5 2.983969 1_555
Ba2 O7 3.036934 1_554
Ba2 O0 3.036937 1_554
Ba2 O4 3.036937 1_554
Lu0 O2 2.095122 1_655
Lu0 O3 2.095122 1_555
Lu0 O6 2.095126 1_555
Lu0 O8 2.282720 1_555
Lu0 O5 2.282724 1_555
Lu0 O1 2.282724 1_555
Lu1 O2 2.095122 1_555
Lu1 O3 2.095122 1_565
Lu1 O6 2.095126 1_555
Lu1 O7 2.282720 1_555
Lu1 O0 2.282724 1_555
Lu1 O4 2.282724 1_555
Mo0 O7 1.930373 1_544
Mo0 O8 1.930373 1_455
Mo0 O4 1.930373 1_554
Mo0 O0 1.930373 1_444
Mo0 O5 1.930373 1_445
Mo0 O1 1.930373 1_555
