# generated using pymatgen
data_Te2W3(SeS)2
_symmetry_space_group_name_H-M   'P 1'
_cell_length_a   3.34768590
_cell_length_b   3.34768590
_cell_length_c   31.04127900
_cell_angle_alpha   90.00000000
_cell_angle_beta   90.00000000
_cell_angle_gamma   119.99999795
_symmetry_Int_Tables_number   1
_chemical_formula_structural   Te2W3(SeS)2
_chemical_formula_sum   'Te2 W3 Se2 S2'
_cell_volume   301.27261230
_cell_formula_units_Z   1
loop_
 _symmetry_equiv_pos_site_id
 _symmetry_equiv_pos_as_xyz
  1  'x, y, z'
loop_
 _atom_site_type_symbol
 _atom_site_label
 _atom_site_symmetry_multiplicity
 _atom_site_fract_x
 _atom_site_fract_y
 _atom_site_fract_z
 _atom_site_occupancy
  Te  Te0  1  0.33333300  0.66666700  0.40832000  1
  Te  Te1  1  0.33333300  0.66666700  0.28560000  1
  W  W0  1  0.33333300  0.66666700  0.11563400  1
  W  W1  1  0.33333300  0.66666700  0.57836200  1
  W  W2  1  0.66666700  0.33333300  0.34694400  1
  Se  Se0  1  0.66666700  0.33333300  0.52449100  1
  Se  Se1  1  0.66666700  0.33333300  0.63220300  1
  S  S0  1  0.66666700  0.33333300  0.06663200  1
  S  S1  1  0.66666700  0.33333300  0.16465600  1
loop_
_geom_bond_atom_site_label_1
_geom_bond_atom_site_label_2
_geom_bond_distance
_geom_bond_site_symmetry_2
Te0 W2 2.713928 1_455
Te0 W2 2.713928 1_565
Te0 W2 2.713932 1_555
Te1 W2 2.713231 1_455
Te1 W2 2.713231 1_565
Te1 W2 2.713235 1_555
Se0 W1 2.555777 1_655
Se0 W1 2.555777 1_545
Se0 W1 2.555781 1_555
Se1 W1 2.555168 1_545
Se1 W1 2.555168 1_655
Se1 W1 2.555172 1_555
S0 W0 2.459544 1_545
S0 W0 2.459544 1_655
S0 W0 2.459549 1_555
S1 W0 2.459928 1_545
S1 W0 2.459928 1_655
S1 W0 2.459933 1_555
