# generated using pymatgen
data_NdCu6
_symmetry_space_group_name_H-M   'P 1'
_cell_length_a   5.05304487
_cell_length_b   7.99470768
_cell_length_c   10.02670589
_cell_angle_alpha   90.00000000
_cell_angle_beta   90.00000000
_cell_angle_gamma   91.22782664
_symmetry_Int_Tables_number   1
_chemical_formula_structural   NdCu6
_chemical_formula_sum   'Nd4 Cu24'
_cell_volume   404.96201803
_cell_formula_units_Z   4
loop_
 _symmetry_equiv_pos_site_id
 _symmetry_equiv_pos_as_xyz
  1  'x, y, z'
loop_
 _atom_site_type_symbol
 _atom_site_label
 _atom_site_symmetry_multiplicity
 _atom_site_fract_x
 _atom_site_fract_y
 _atom_site_fract_z
 _atom_site_occupancy
  Nd  Nd0  1  0.74187247  0.23904461  0.93668561  1
  Nd  Nd1  1  0.25812753  0.26095539  0.43668561  1
  Nd  Nd2  1  0.25812753  0.76095539  0.06331439  1
  Nd  Nd3  1  0.74187247  0.73904461  0.56331439  1
  Cu  Cu0  1  0.49833522  0.93330991  0.30709587  1
  Cu  Cu1  1  0.50166478  0.56669009  0.80709587  1
  Cu  Cu2  1  0.50166478  0.06669009  0.69290413  1
  Cu  Cu3  1  0.49833522  0.43330991  0.19290413  1
  Cu  Cu4  1  0.99220086  0.56406217  0.81085245  1
  Cu  Cu5  1  0.00779914  0.93593783  0.31085245  1
  Cu  Cu6  1  0.00779914  0.43593783  0.18914755  1
  Cu  Cu7  1  0.99220086  0.06406217  0.68914755  1
  Cu  Cu8  1  0.75288403  0.85097705  0.85663681  1
  Cu  Cu9  1  0.24711597  0.64902295  0.35663681  1
  Cu  Cu10  1  0.24711597  0.14902295  0.14336319  1
  Cu  Cu11  1  0.75288403  0.35097705  0.64336319  1
  Cu  Cu12  1  0.75145722  0.18165959  0.24468379  1
  Cu  Cu13  1  0.24854278  0.31834041  0.74468379  1
  Cu  Cu14  1  0.24854278  0.81834041  0.75531621  1
  Cu  Cu15  1  0.75145722  0.68165959  0.25531621  1
  Cu  Cu16  1  0.77085824  0.43579163  0.40272615  1
  Cu  Cu17  1  0.22914176  0.06420837  0.90272615  1
  Cu  Cu18  1  0.22914176  0.56420837  0.59727385  1
  Cu  Cu19  1  0.77085824  0.93579163  0.09727385  1
  Cu  Cu20  1  0.74934319  0.09830934  0.48381395  1
  Cu  Cu21  1  0.25065681  0.40169066  0.98381395  1
  Cu  Cu22  1  0.25065681  0.90169066  0.51618605  1
  Cu  Cu23  1  0.74934319  0.59830934  0.01618605  1
loop_
_geom_bond_atom_site_label_1
_geom_bond_atom_site_label_2
_geom_bond_distance
_geom_bond_site_symmetry_2
Cu0 Cu12 2.420920 1_565
Cu0 Cu22 2.451922 1_555
Cu0 Cu15 2.462394 1_555
Cu0 Cu5 2.479526 1_555
Cu0 Cu19 2.514283 1_555
Cu0 Cu20 2.533127 1_565
Cu0 Cu5 2.574255 1_655
Cu0 Cu9 2.626806 1_555
Cu0 Cu10 2.715612 1_565
Cu0 Nd2 3.045486 1_555
Cu0 Nd1 3.187360 1_565
Cu0 Nd3 3.257039 1_555
Cu1 Cu13 2.420920 1_555
Cu1 Cu23 2.451922 1_556
Cu1 Cu14 2.462394 1_555
Cu1 Cu4 2.479526 1_555
Cu1 Cu18 2.514283 1_555
Cu1 Cu21 2.533127 1_555
Cu1 Cu4 2.574255 1_455
Cu1 Cu8 2.626806 1_555
Cu1 Cu11 2.715612 1_555
Cu1 Nd3 3.045486 1_555
Cu1 Nd0 3.187360 1_555
Cu1 Nd2 3.257039 1_556
Cu2 Cu20 2.451922 1_555
Cu2 Cu7 2.479526 1_555
Cu2 Cu22 2.533127 1_545
Cu2 Cu7 2.574255 1_455
Cu2 Cu8 2.715612 1_545
Cu2 Nd0 3.045486 1_555
Cu2 Nd3 3.187360 1_545
Cu2 Nd1 3.257039 1_555
Cu3 Cu6 2.479526 1_555
Cu3 Cu6 2.574255 1_655
Cu3 Cu9 2.715612 1_555
Cu3 Nd1 3.045486 1_555
Cu3 Nd2 3.187360 1_555
Cu3 Nd0 3.257039 1_554
Cu4 Cu8 2.655841 1_555
Cu4 Nd3 3.129402 1_555
Cu4 Nd0 3.130946 1_555
Cu4 Nd2 3.255853 1_656
Cu5 Cu9 2.655841 1_555
Cu5 Nd2 3.129402 1_555
Cu5 Nd1 3.130946 1_565
Cu5 Nd3 3.255853 1_455
Cu6 Cu9 2.663913 1_555
Cu6 Nd1 3.129402 1_555
Cu6 Nd2 3.130946 1_555
Cu6 Nd0 3.255853 1_454
Cu7 Cu8 2.663913 1_545
Cu7 Nd0 3.129402 1_555
Cu7 Nd3 3.130946 1_545
Cu7 Nd1 3.255853 1_655
Cu8 Nd3 3.074340 1_555
Cu8 Nd0 3.206264 1_565
Cu8 Nd2 3.314422 1_556
Cu8 Nd2 3.377724 1_656
Cu9 Nd2 3.074340 1_555
Cu9 Nd1 3.206264 1_555
Cu9 Nd3 3.314422 1_555
Cu9 Nd3 3.377724 1_455
Cu10 Cu17 2.507384 1_554
Cu10 Cu21 2.576509 1_554
Cu10 Cu3 2.626806 1_555
Cu10 Cu6 2.655841 1_555
Cu10 Cu5 2.663913 1_545
Cu10 Cu12 2.720499 1_455
Cu10 Cu12 2.750691 1_555
Cu10 Cu19 2.955556 1_445
Cu10 Nd1 3.074340 1_555
Cu10 Nd2 3.206264 1_545
Cu10 Cu19 3.211994 1_545
Cu10 Nd0 3.314422 1_554
Cu10 Nd0 3.377724 1_454
Cu11 Cu16 2.507384 1_555
Cu11 Cu20 2.576509 1_555
Cu11 Cu2 2.626806 1_555
Cu11 Cu7 2.655841 1_555
Cu11 Cu4 2.663913 1_555
Cu11 Cu13 2.720499 1_655
Cu11 Cu13 2.750691 1_555
Cu11 Cu18 2.955556 1_655
Cu11 Nd0 3.074340 1_555
Cu11 Nd3 3.206264 1_555
Cu11 Cu18 3.211994 1_555
Cu11 Nd1 3.314422 1_555
Cu11 Nd1 3.377724 1_655
Cu12 Cu6 2.451051 1_655
Cu12 Cu3 2.462394 1_555
Cu12 Cu19 2.462968 1_545
Cu12 Cu5 2.467022 1_645
Cu12 Cu20 2.488524 1_555
Cu12 Cu16 2.576824 1_555
Cu12 Nd0 3.122627 1_554
Cu12 Nd1 3.223343 1_555
Cu12 Nd1 3.254733 1_655
Cu13 Cu7 2.451051 1_455
Cu13 Cu2 2.462394 1_555
Cu13 Cu18 2.462968 1_555
Cu13 Cu4 2.467022 1_455
Cu13 Cu21 2.488524 1_555
Cu13 Cu17 2.576824 1_555
Cu13 Nd1 3.122627 1_555
Cu13 Nd0 3.223343 1_555
Cu13 Nd0 3.254733 1_455
Cu14 Cu2 2.420920 1_565
Cu14 Cu4 2.451051 1_455
Cu14 Cu17 2.462968 1_565
Cu14 Cu7 2.467022 1_465
Cu14 Cu22 2.488524 1_555
Cu14 Cu18 2.576824 1_555
Cu14 Cu8 2.720499 1_455
Cu14 Cu8 2.750691 1_555
Cu14 Nd2 3.122627 1_556
Cu14 Nd3 3.223343 1_555
Cu14 Nd3 3.254733 1_455
Cu15 Cu3 2.420920 1_555
Cu15 Cu5 2.451051 1_655
Cu15 Cu16 2.462968 1_555
Cu15 Cu6 2.467022 1_655
Cu15 Cu23 2.488524 1_555
Cu15 Cu19 2.576824 1_555
Cu15 Cu9 2.720499 1_655
Cu15 Cu9 2.750691 1_555
Cu15 Nd3 3.122627 1_555
Cu15 Nd2 3.223343 1_555
Cu15 Nd2 3.254733 1_655
Cu16 Cu6 2.453443 1_655
Cu16 Cu3 2.514283 1_555
Cu16 Cu20 2.817780 1_555
Cu16 Nd1 2.877425 1_655
Cu16 Nd3 2.916698 1_555
Cu16 Nd1 2.937175 1_555
Cu16 Cu9 2.955556 1_655
Cu16 Cu18 3.181171 1_655
Cu16 Cu9 3.211994 1_555
Cu17 Cu7 2.453443 1_455
Cu17 Cu2 2.514283 1_555
Cu17 Cu21 2.817780 1_555
Cu17 Nd0 2.877425 1_455
Cu17 Nd2 2.916698 1_546
Cu17 Nd0 2.937175 1_555
Cu17 Cu8 2.955556 1_445
Cu17 Cu19 3.181171 1_446
Cu17 Cu8 3.211994 1_545
Cu18 Cu4 2.453443 1_455
Cu18 Cu9 2.507384 1_555
Cu18 Cu22 2.817780 1_555
Cu18 Nd3 2.877425 1_455
Cu18 Nd1 2.916698 1_555
Cu18 Nd3 2.937175 1_555
Cu19 Cu5 2.453443 1_655
Cu19 Cu8 2.507384 1_554
Cu19 Cu23 2.817780 1_555
Cu19 Nd2 2.877425 1_655
Cu19 Nd0 2.916698 1_564
Cu19 Nd2 2.937175 1_555
Cu20 Cu7 2.415378 1_555
Cu20 Cu5 2.543802 1_645
Cu20 Nd1 2.865904 1_555
Cu20 Nd1 2.894893 1_655
Cu20 Cu22 2.959108 1_545
Cu20 Nd3 2.980238 1_545
Cu20 Cu22 3.027177 1_645
Cu21 Cu6 2.415378 1_556
Cu21 Cu3 2.451922 1_556
Cu21 Cu4 2.543802 1_455
Cu21 Nd0 2.865904 1_555
Cu21 Nd0 2.894893 1_455
Cu21 Cu23 2.959108 1_556
Cu21 Nd2 2.980238 1_556
Cu21 Cu23 3.027177 1_456
Cu22 Cu5 2.415378 1_555
Cu22 Cu7 2.543802 1_465
Cu22 Cu9 2.576509 1_555
Cu22 Nd3 2.865904 1_555
Cu22 Nd3 2.894893 1_455
Cu22 Nd1 2.980238 1_565
Cu23 Cu4 2.415378 1_554
Cu23 Cu3 2.533127 1_555
Cu23 Cu6 2.543802 1_655
Cu23 Cu8 2.576509 1_554
Cu23 Nd2 2.865904 1_555
Cu23 Nd2 2.894893 1_655
Cu23 Nd0 2.980238 1_554
