# generated using pymatgen
data_Nb5CoN9
_symmetry_space_group_name_H-M   'P 1'
_cell_length_a   9.47396282
_cell_length_b   5.37064800
_cell_length_c   16.27496492
_cell_angle_alpha   90.00000000
_cell_angle_beta   125.83007427
_cell_angle_gamma   90.00000000
_symmetry_Int_Tables_number   1
_chemical_formula_structural   Nb5CoN9
_chemical_formula_sum   'Nb20 Co4 N36'
_cell_volume   671.38085691
_cell_formula_units_Z   4
loop_
 _symmetry_equiv_pos_site_id
 _symmetry_equiv_pos_as_xyz
  1  'x, y, z'
loop_
 _atom_site_type_symbol
 _atom_site_label
 _atom_site_symmetry_multiplicity
 _atom_site_fract_x
 _atom_site_fract_y
 _atom_site_fract_z
 _atom_site_occupancy
  Nb  Nb0  1  0.27067300  0.04564500  0.56687200  1
  Nb  Nb1  1  0.72932700  0.54564500  0.93312800  1
  Nb  Nb2  1  0.72932700  0.95435500  0.43312800  1
  Nb  Nb3  1  0.27067300  0.45435500  0.06687200  1
  Nb  Nb4  1  0.77502700  0.46762700  0.54790500  1
  Nb  Nb5  1  0.22497300  0.96762700  0.95209500  1
  Nb  Nb6  1  0.22497300  0.53237300  0.45209500  1
  Nb  Nb7  1  0.77502700  0.03237300  0.04790500  1
  Nb  Nb8  1  0.27429800  0.47082900  0.72061400  1
  Nb  Nb9  1  0.72570200  0.97082900  0.77938600  1
  Nb  Nb10  1  0.72570200  0.52917100  0.27938600  1
  Nb  Nb11  1  0.27429800  0.02917100  0.22061400  1
  Nb  Nb12  1  0.44939400  0.99583800  0.82688500  1
  Nb  Nb13  1  0.55060600  0.49583800  0.67311500  1
  Nb  Nb14  1  0.55060600  0.00416200  0.17311500  1
  Nb  Nb15  1  0.44939400  0.50416200  0.32688500  1
  Nb  Nb16  1  0.99894200  0.52990600  0.82225300  1
  Nb  Nb17  1  0.00105800  0.02990600  0.67774700  1
  Nb  Nb18  1  0.00105800  0.47009400  0.17774700  1
  Nb  Nb19  1  0.99894200  0.97009400  0.32225300  1
  Co  Co0  1  0.00000000  0.50000000  0.50000000  1
  Co  Co1  1  0.00000000  0.00000000  0.00000000  1
  Co  Co2  1  0.50000000  0.00000000  0.50000000  1
  Co  Co3  1  0.50000000  0.50000000  0.00000000  1
  N  N0  1  0.97918500  0.90604700  0.78913400  1
  N  N1  1  0.02081500  0.40604700  0.71086600  1
  N  N2  1  0.02081500  0.09395300  0.21086600  1
  N  N3  1  0.97918500  0.59395300  0.28913400  1
  N  N4  1  0.54427300  0.67247600  0.78745800  1
  N  N5  1  0.45572700  0.17247600  0.71254200  1
  N  N6  1  0.45572700  0.32752400  0.21254200  1
  N  N7  1  0.54427300  0.82752400  0.28745800  1
  N  N8  1  0.23010500  0.82293100  0.75354100  1
  N  N9  1  0.76989500  0.32293100  0.74645900  1
  N  N10  1  0.76989500  0.17706900  0.24645900  1
  N  N11  1  0.23010500  0.67706900  0.25354100  1
  N  N12  1  0.88637500  0.78232700  0.39620100  1
  N  N13  1  0.11362500  0.28232700  0.10379900  1
  N  N14  1  0.11362500  0.21767300  0.60379900  1
  N  N15  1  0.88637500  0.71767300  0.89620100  1
  N  N16  1  0.07413500  0.25201300  0.44198400  1
  N  N17  1  0.92586500  0.75201300  0.05801600  1
  N  N18  1  0.92586500  0.74798700  0.55801600  1
  N  N19  1  0.07413500  0.24798700  0.94198400  1
  N  N20  1  0.41524500  0.16341100  0.36412800  1
  N  N21  1  0.58475500  0.66341100  0.13587200  1
  N  N22  1  0.58475500  0.83658900  0.63587200  1
  N  N23  1  0.41524500  0.33658900  0.86412800  1
  N  N24  1  0.57427400  0.69753200  0.46561900  1
  N  N25  1  0.42572600  0.19753200  0.03438100  1
  N  N26  1  0.42572600  0.30246800  0.53438100  1
  N  N27  1  0.57427400  0.80246800  0.96561900  1
  N  N28  1  0.76155700  0.34468700  0.42378600  1
  N  N29  1  0.23844300  0.84468700  0.07621400  1
  N  N30  1  0.23844300  0.65531300  0.57621400  1
  N  N31  1  0.76155700  0.15531300  0.92378600  1
  N  N32  1  0.25491900  0.90644800  0.43367000  1
  N  N33  1  0.74508100  0.40644800  0.06633000  1
  N  N34  1  0.74508100  0.09355200  0.56633000  1
  N  N35  1  0.25491900  0.59355200  0.93367000  1
loop_
_geom_bond_atom_site_label_1
_geom_bond_atom_site_label_2
_geom_bond_distance
_geom_bond_site_symmetry_2
Co0 N18 1.983701 1_455
Co0 N16 1.983701 1_555
Co0 N28 2.014172 1_455
Co0 N30 2.014172 1_555
Co0 N14 2.045156 1_555
Co0 N12 2.045156 1_455
Co1 N17 1.983701 1_445
Co1 N19 1.983701 1_554
Co1 N31 2.014172 1_454
Co1 N29 2.014172 1_545
Co1 N15 2.045156 1_444
Co1 N13 2.045156 1_555
Co2 N34 1.968353 1_555
Co2 N32 1.968353 1_545
Co2 N24 1.976880 1_545
Co2 N26 1.976880 1_555
Co2 N22 2.055737 1_545
Co2 N20 2.055737 1_555
Co3 N33 1.968353 1_555
Co3 N35 1.968353 1_554
Co3 N27 1.976880 1_554
Co3 N25 1.976880 1_555
Co3 N23 2.055737 1_554
Co3 N21 2.055737 1_555
N0 Nb17 2.052209 1_665
N0 Nb16 2.070830 1_555
N0 Nb5 2.309829 1_655
N0 Nb9 2.338229 1_555
N1 Nb16 2.052209 1_455
N1 Nb17 2.070830 1_555
N1 Nb4 2.309829 1_455
N1 Nb8 2.338229 1_555
N2 Nb19 2.052209 1_445
N2 Nb18 2.070830 1_555
N2 Nb7 2.309829 1_455
N2 Nb11 2.338229 1_555
N3 Nb18 2.052209 1_655
N3 Nb19 2.070830 1_555
N3 Nb6 2.309829 1_655
N3 Nb10 2.338229 1_555
N4 Nb1 2.071724 1_555
N4 Nb13 2.120691 1_555
N4 Nb12 2.216081 1_555
N4 Nb8 2.375005 1_555
N4 Nb9 2.409066 1_555
N5 Nb0 2.071724 1_555
N5 Nb12 2.120691 1_545
N5 Nb13 2.216081 1_555
N5 Nb9 2.375005 1_545
N5 Nb8 2.409066 1_555
N6 Nb3 2.071724 1_555
N6 Nb15 2.120691 1_555
N6 Nb14 2.216081 1_555
N6 Nb10 2.375005 1_555
N6 Nb11 2.409066 1_555
N7 Nb2 2.071724 1_555
N7 Nb14 2.120691 1_565
N7 Nb15 2.216081 1_555
N7 Nb11 2.375005 1_565
N7 Nb10 2.409066 1_555
N8 Nb12 1.923530 1_555
N8 Nb8 2.073907 1_555
N8 Nb17 2.081398 1_565
N9 Nb13 1.923530 1_555
N9 Nb9 2.073907 1_545
N9 Nb16 2.081398 1_555
N10 Nb14 1.923530 1_555
N10 Nb10 2.073907 1_555
N10 Nb19 2.081398 1_545
N11 Nb15 1.923530 1_555
N11 Nb11 2.073907 1_565
N11 Nb18 2.081398 1_555
N12 Nb10 2.095691 1_555
N12 Nb2 2.115517 1_555
N12 Nb19 2.259498 1_555
N13 Nb11 2.095691 1_555
N13 Nb3 2.115517 1_555
N13 Nb18 2.259498 1_555
N14 Nb8 2.095691 1_555
N14 Nb0 2.115517 1_555
N14 Nb17 2.259498 1_555
N15 Nb9 2.095691 1_555
N15 Nb1 2.115517 1_555
N15 Nb16 2.259498 1_555
N16 Nb6 2.015212 1_555
N16 Nb0 2.096615 1_555
N16 Nb19 2.229766 1_445
N17 Nb7 2.015212 1_565
N17 Nb1 2.096615 1_554
N17 Nb18 2.229766 1_655
N18 Nb4 2.015212 1_555
N18 Nb2 2.096615 1_555
N18 Nb17 2.229766 1_665
N19 Nb5 2.015212 1_545
N19 Nb3 2.096615 1_556
N19 Nb16 2.229766 1_455
N20 Nb15 2.012646 1_555
N20 Nb11 2.026522 1_555
N20 Nb2 2.731984 1_545
N21 Nb14 2.012646 1_565
N21 Nb10 2.026522 1_555
N21 Nb3 2.731984 1_555
N22 Nb13 2.012646 1_555
N22 Nb9 2.026522 1_555
N22 Nb0 2.731984 1_565
N23 Nb12 2.012646 1_545
N23 Nb8 2.026522 1_555
N23 Nb1 2.731984 1_555
N24 Nb4 1.988303 1_555
N24 Nb15 2.109228 1_555
N24 Nb2 2.291154 1_555
N25 Nb5 1.988303 1_544
N25 Nb14 2.109228 1_555
N25 Nb3 2.291154 1_555
N26 Nb6 1.988303 1_555
N26 Nb13 2.109228 1_555
N26 Nb0 2.291154 1_555
N27 Nb7 1.988303 1_566
N27 Nb12 2.109228 1_555
N27 Nb1 2.291154 1_555
N28 Nb4 2.056931 1_555
N28 Nb2 2.136663 1_545
N28 Nb10 2.384415 1_555
N28 Nb15 2.550790 1_555
N29 Nb5 2.056931 1_554
N29 Nb3 2.136663 1_555
N29 Nb11 2.384415 1_565
N29 Nb14 2.550790 1_565
N30 Nb6 2.056931 1_555
N30 Nb0 2.136663 1_565
N30 Nb8 2.384415 1_555
N30 Nb13 2.550790 1_555
N31 Nb7 2.056931 1_556
N31 Nb1 2.136663 1_555
N31 Nb9 2.384415 1_545
N31 Nb12 2.550790 1_545
N32 Nb19 2.034131 1_455
N32 Nb6 2.075137 1_555
N32 Nb0 2.214034 1_565
N33 Nb18 2.034131 1_655
N33 Nb7 2.075137 1_555
N33 Nb1 2.214034 1_554
N34 Nb17 2.034131 1_655
N34 Nb4 2.075137 1_555
N34 Nb2 2.214034 1_545
N35 Nb16 2.034131 1_455
N35 Nb5 2.075137 1_555
N35 Nb3 2.214034 1_556
