# generated using pymatgen
data_La2AgO4
_symmetry_space_group_name_H-M   'P 1'
_cell_length_a   7.11895849
_cell_length_b   7.11895849
_cell_length_c   7.11895849
_cell_angle_alpha   146.29843403
_cell_angle_beta   146.29843403
_cell_angle_gamma   48.40370048
_symmetry_Int_Tables_number   1
_chemical_formula_structural   La2AgO4
_chemical_formula_sum   'La2 Ag1 O4'
_cell_volume   110.60943184
_cell_formula_units_Z   1
loop_
 _symmetry_equiv_pos_site_id
 _symmetry_equiv_pos_as_xyz
  1  'x, y, z'
loop_
 _atom_site_type_symbol
 _atom_site_label
 _atom_site_symmetry_multiplicity
 _atom_site_fract_x
 _atom_site_fract_y
 _atom_site_fract_z
 _atom_site_occupancy
  La  La0  1  0.36156300  0.36156300  0.00000000  1
  La  La1  1  0.63843700  0.63843700  0.00000000  1
  Ag  Ag0  1  0.00000000  0.00000000  0.00000000  1
  O  O0  1  0.50000000  0.00000000  0.50000000  1
  O  O1  1  0.00000000  0.50000000  0.50000000  1
  O  O2  1  0.19484600  0.19484600  0.00000000  1
  O  O3  1  0.80515400  0.80515400  0.00000000  1
loop_
_geom_bond_atom_site_label_1
_geom_bond_atom_site_label_2
_geom_bond_distance
_geom_bond_site_symmetry_2
La0 O2 2.165071 1_555
La0 O1 2.736925 1_655
La0 O0 2.736925 1_554
La0 O0 2.736925 1_565
La0 O1 2.736925 1_554
La0 O3 3.008970 1_455
La0 O3 3.008970 1_556
La0 O3 3.008970 1_545
La0 O3 3.008970 1_444
La1 O3 2.165071 1_555
La1 O1 2.736925 1_655
La1 O0 2.736925 1_554
La1 O1 2.736925 1_554
La1 O0 2.736925 1_565
La1 O2 3.008970 1_666
La1 O2 3.008970 1_554
La1 O2 3.008970 1_565
La1 O2 3.008970 1_655
Ag0 O1 2.063645 1_544
Ag0 O0 2.063645 1_555
Ag0 O0 2.063645 1_454
Ag0 O1 2.063645 1_555
Ag0 O3 2.530368 1_445
Ag0 O2 2.530368 1_555
