# generated using pymatgen
data_Ti4Al11Zn
_symmetry_space_group_name_H-M   'P 1'
_cell_length_a   3.90293900
_cell_length_b   3.90293900
_cell_length_c   16.61379700
_cell_angle_alpha   90.00000000
_cell_angle_beta   90.00000000
_cell_angle_gamma   90.00000000
_symmetry_Int_Tables_number   1
_chemical_formula_structural   Ti4Al11Zn
_chemical_formula_sum   'Ti4 Al11 Zn1'
_cell_volume   253.07685388
_cell_formula_units_Z   1
loop_
 _symmetry_equiv_pos_site_id
 _symmetry_equiv_pos_as_xyz
  1  'x, y, z'
loop_
 _atom_site_type_symbol
 _atom_site_label
 _atom_site_symmetry_multiplicity
 _atom_site_fract_x
 _atom_site_fract_y
 _atom_site_fract_z
 _atom_site_occupancy
  Ti  Ti0  1  0.50000000  0.50000000  0.38276100  1
  Ti  Ti1  1  0.00000000  0.00000000  0.88215700  1
  Ti  Ti2  1  0.00000000  0.00000000  0.11880800  1
  Ti  Ti3  1  0.50000000  0.50000000  0.61866500  1
  Al  Al0  1  0.50000000  0.00000000  0.00207400  1
  Al  Al1  1  0.00000000  0.50000000  0.50031400  1
  Al  Al2  1  0.50000000  0.00000000  0.50031400  1
  Al  Al3  1  0.00000000  0.50000000  0.00207400  1
  Al  Al4  1  0.00000000  0.50000000  0.24789200  1
  Al  Al5  1  0.50000000  0.00000000  0.75001200  1
  Al  Al6  1  0.50000000  0.00000000  0.24789200  1
  Al  Al7  1  0.00000000  0.50000000  0.75001200  1
  Al  Al8  1  0.00000000  0.00000000  0.62490600  1
  Al  Al9  1  0.00000000  0.00000000  0.37304900  1
  Al  Al10  1  0.50000000  0.50000000  0.87578300  1
  Zn  Zn0  1  0.50000000  0.50000000  0.12328800  1
loop_
_geom_bond_atom_site_label_1
_geom_bond_atom_site_label_2
_geom_bond_distance
_geom_bond_site_symmetry_2
Ti2 Zn0 2.760798 1_545
Ti2 Zn0 2.760798 1_445
Ti2 Zn0 2.760798 1_555
Ti2 Zn0 2.760798 1_455
Al0 Ti2 2.751270 1_655
Al0 Ti2 2.751270 1_555
Al0 Al3 2.759795 1_645
Al0 Al3 2.759795 1_555
Al0 Al3 2.759795 1_655
Al0 Al3 2.759795 1_545
Al0 Ti1 2.788799 1_654
Al0 Ti1 2.788799 1_554
Al0 Zn0 2.804233 1_555
Al0 Zn0 2.804233 1_545
Al0 Al10 2.865408 1_554
Al0 Al10 2.865408 1_544
Al1 Al2 2.759795 1_455
Al1 Al2 2.759795 1_565
Al1 Al2 2.759795 1_555
Al1 Al2 2.759795 1_465
Al1 Ti0 2.760878 1_555
Al1 Ti0 2.760878 1_455
Al1 Ti3 2.770272 1_555
Al1 Ti3 2.770272 1_455
Al1 Al8 2.844804 1_565
Al1 Al8 2.844804 1_555
Al1 Al9 2.877278 1_555
Al1 Al9 2.877278 1_565
Al2 Ti0 2.760878 1_555
Al2 Ti0 2.760878 1_545
Al2 Ti3 2.770272 1_545
Al2 Ti3 2.770272 1_555
Al2 Al8 2.844804 1_555
Al2 Al8 2.844804 1_655
Al2 Al9 2.877278 1_555
Al2 Al9 2.877278 1_655
Al3 Ti2 2.751270 1_565
Al3 Ti2 2.751270 1_555
Al3 Ti1 2.788799 1_554
Al3 Ti1 2.788799 1_564
Al3 Zn0 2.804233 1_555
Al3 Zn0 2.804233 1_455
Al4 Al6 2.759795 1_465
Al4 Al6 2.759795 1_455
Al4 Al6 2.759795 1_565
Al4 Al6 2.759795 1_555
Al4 Zn0 2.844949 1_555
Al4 Zn0 2.844949 1_455
Al4 Al9 2.851641 1_555
Al4 Al9 2.851641 1_565
Al4 Ti2 2.899558 1_565
Al4 Ti2 2.899558 1_555
Al4 Ti0 2.971348 1_455
Al4 Ti0 2.971348 1_555
Al5 Al7 2.759795 1_555
Al5 Al7 2.759795 1_545
Al5 Al7 2.759795 1_645
Al5 Al7 2.759795 1_655
Al5 Al8 2.851024 1_555
Al5 Al8 2.851024 1_655
Al5 Ti3 2.927475 1_545
Al5 Ti3 2.927475 1_555
Al5 Ti1 2.937371 1_655
Al5 Ti1 2.937371 1_555
Al6 Zn0 2.844949 1_545
Al6 Zn0 2.844949 1_555
Al6 Al9 2.851641 1_655
Al6 Al9 2.851641 1_555
Al6 Ti2 2.899558 1_655
Al6 Ti2 2.899558 1_555
Al6 Ti0 2.971348 1_555
Al6 Ti0 2.971348 1_545
Al7 Al8 2.851024 1_555
Al7 Al8 2.851024 1_565
Al7 Ti3 2.927475 1_455
Al7 Ti3 2.927475 1_555
Al7 Ti1 2.937371 1_565
Al7 Ti1 2.937371 1_555
Al8 Ti3 2.761742 1_455
Al8 Ti3 2.761742 1_545
Al8 Ti3 2.761742 1_555
Al8 Ti3 2.761742 1_445
Al9 Ti0 2.764507 1_555
Al9 Ti0 2.764507 1_545
Al9 Ti0 2.764507 1_445
Al9 Ti0 2.764507 1_455
Al10 Ti1 2.761826 1_555
Al10 Ti1 2.761826 1_565
Al10 Ti1 2.761826 1_655
Al10 Ti1 2.761826 1_665
Al10 Al7 2.859088 1_555
Al10 Al7 2.859088 1_655
Al10 Al5 2.859088 1_565
Al10 Al5 2.859088 1_555
Al10 Al3 2.865408 1_556
Al10 Al3 2.865408 1_656
