# generated using pymatgen
data_La3BeBiS7
_symmetry_space_group_name_H-M   'P 1'
_cell_length_a   10.31170879
_cell_length_b   10.31170879
_cell_length_c   6.28034100
_cell_angle_alpha   90.00000000
_cell_angle_beta   90.00000000
_cell_angle_gamma   120.00000509
_symmetry_Int_Tables_number   1
_chemical_formula_structural   La3BeBiS7
_chemical_formula_sum   'La6 Be2 Bi2 S14'
_cell_volume   578.32919155
_cell_formula_units_Z   2
loop_
 _symmetry_equiv_pos_site_id
 _symmetry_equiv_pos_as_xyz
  1  'x, y, z'
loop_
 _atom_site_type_symbol
 _atom_site_label
 _atom_site_symmetry_multiplicity
 _atom_site_fract_x
 _atom_site_fract_y
 _atom_site_fract_z
 _atom_site_occupancy
  La  La0  1  0.73857600  0.13632000  0.24739600  1
  La  La1  1  0.39774400  0.26142400  0.24739600  1
  La  La2  1  0.86368000  0.60225600  0.24739600  1
  La  La3  1  0.26142400  0.86368000  0.74739600  1
  La  La4  1  0.60225600  0.73857600  0.74739600  1
  La  La5  1  0.13632000  0.39774400  0.74739600  1
  Be  Be0  1  0.66666700  0.33333300  0.65970000  1
  Be  Be1  1  0.33333300  0.66666700  0.15970000  1
  Bi  Bi0  1  0.00000000  0.00000000  0.01002800  1
  Bi  Bi1  1  0.00000000  0.00000000  0.51002800  1
  S  S0  1  0.83213700  0.08702100  0.77656400  1
  S  S1  1  0.25488500  0.16786300  0.77656400  1
  S  S2  1  0.91297900  0.74511500  0.77656400  1
  S  S3  1  0.16786300  0.91297900  0.27656400  1
  S  S4  1  0.74511500  0.83213700  0.27656400  1
  S  S5  1  0.08702100  0.25488500  0.27656400  1
  S  S6  1  0.88267800  0.40325800  0.52764400  1
  S  S7  1  0.52058000  0.11732200  0.52764400  1
  S  S8  1  0.59674200  0.47942000  0.52764400  1
  S  S9  1  0.11732200  0.59674200  0.02764400  1
  S  S10  1  0.47942000  0.88267800  0.02764400  1
  S  S11  1  0.40325800  0.52058000  0.02764400  1
  S  S12  1  0.66666700  0.33333300  0.00746300  1
  S  S13  1  0.33333300  0.66666700  0.50746300  1
loop_
_geom_bond_atom_site_label_1
_geom_bond_atom_site_label_2
_geom_bond_distance
_geom_bond_site_symmetry_2
La0 S7 2.783684 1_555
La0 S12 2.907579 1_555
La0 S6 2.965191 1_555
La0 S10 2.982854 1_545
La0 S5 3.169467 1_655
La0 S4 3.176185 1_545
La0 S0 3.228533 1_554
La0 S0 3.567122 1_555
La1 S8 2.783684 1_555
La1 S12 2.907587 1_555
La1 S7 2.965191 1_555
La1 S11 2.982854 1_555
La1 S3 3.169469 1_545
La1 S5 3.176196 1_555
La1 S1 3.228530 1_554
La1 S1 3.567119 1_555
La2 S6 2.783684 1_555
La2 S12 2.907585 1_555
La2 S8 2.965191 1_555
La2 S9 2.982854 1_655
La2 S4 3.169477 1_555
La2 S3 3.176190 1_655
La2 S2 3.228530 1_554
La2 S2 3.567118 1_555
La3 S10 2.783684 1_556
La3 S13 2.907579 1_555
La3 S9 2.965191 1_556
La3 S7 2.982854 1_565
La3 S2 3.169467 1_455
La3 S1 3.176185 1_565
La3 S3 3.228533 1_555
La3 S3 3.567122 1_556
La4 S11 2.783684 1_556
La4 S13 2.907587 1_555
La4 S10 2.965191 1_556
La4 S8 2.982854 1_555
La4 S0 3.169469 1_565
La4 S2 3.176196 1_555
La4 S4 3.228530 1_555
La4 S4 3.567119 1_556
La5 S9 2.783684 1_556
La5 S13 2.907585 1_555
La5 S11 2.965191 1_556
La5 S6 2.982854 1_455
La5 S1 3.169477 1_555
La5 S0 3.176190 1_455
La5 S5 3.228530 1_555
La5 S5 3.567118 1_556
Be0 S6 2.136153 1_555
Be0 S7 2.136155 1_555
Be0 S8 2.136162 1_555
Be0 S12 2.184070 1_556
Be1 S9 2.136153 1_555
Be1 S10 2.136155 1_555
Be1 S11 2.136162 1_555
Be1 S13 2.184070 1_555
Bi0 S0 2.739434 1_454
Bi0 S1 2.739441 1_554
Bi0 S2 2.739442 1_444
Bi0 S3 2.855998 1_545
Bi0 S4 2.856004 1_445
Bi0 S5 2.856006 1_555
Bi1 S3 2.739434 1_545
Bi1 S4 2.739441 1_445
Bi1 S5 2.739442 1_555
Bi1 S0 2.855998 1_455
Bi1 S1 2.856004 1_555
Bi1 S2 2.856006 1_445
