# generated using pymatgen
data_Sc2H10S3O17
_symmetry_space_group_name_H-M   'P 1'
_cell_length_a   6.40286637
_cell_length_b   11.81800438
_cell_length_c   12.83711980
_cell_angle_alpha   91.02088952
_cell_angle_beta   76.35595339
_cell_angle_gamma   80.49141155
_symmetry_Int_Tables_number   1
_chemical_formula_structural   Sc2H10S3O17
_chemical_formula_sum   'Sc4 H20 S6 O34'
_cell_volume   929.35643892
_cell_formula_units_Z   2
loop_
 _symmetry_equiv_pos_site_id
 _symmetry_equiv_pos_as_xyz
  1  'x, y, z'
loop_
 _atom_site_type_symbol
 _atom_site_label
 _atom_site_symmetry_multiplicity
 _atom_site_fract_x
 _atom_site_fract_y
 _atom_site_fract_z
 _atom_site_occupancy
  Sc  Sc0  1  0.35093000  0.83749700  0.22280300  1
  Sc  Sc1  1  0.00000000  0.50000000  0.00000000  1
  Sc  Sc2  1  0.64907000  0.16250300  0.77719700  1
  Sc  Sc3  1  0.00000000  0.50000000  0.50000000  1
  H  H0  1  0.55383000  0.10260700  0.02622700  1
  H  H1  1  0.86292100  0.84593000  0.54662800  1
  H  H2  1  0.79173700  0.86211000  0.16285000  1
  H  H3  1  0.65149000  0.41607700  0.32476900  1
  H  H4  1  0.76193800  0.01903700  0.72020600  1
  H  H5  1  0.32805200  0.05129200  0.90792500  1
  H  H6  1  0.27585600  0.56357300  0.24817700  1
  H  H7  1  0.72414400  0.43642700  0.75182300  1
  H  H8  1  0.72107200  0.62115900  0.92660500  1
  H  H9  1  0.42884000  0.31618400  0.46339200  1
  H  H10  1  0.18026000  0.40487700  0.11824300  1
  H  H11  1  0.67194800  0.94870800  0.09207500  1
  H  H12  1  0.27892800  0.37884100  0.07339500  1
  H  H13  1  0.57116000  0.68381600  0.53660800  1
  H  H14  1  0.13707900  0.15407000  0.45337200  1
  H  H15  1  0.34851000  0.58392300  0.67523100  1
  H  H16  1  0.23806200  0.98096300  0.27979400  1
  H  H17  1  0.20826300  0.13789000  0.83715000  1
  H  H18  1  0.44617000  0.89739300  0.97377300  1
  H  H19  1  0.81974000  0.59512300  0.88175700  1
  S  S0  1  0.17886500  0.75907300  0.01124000  1
  S  S1  1  0.19655900  0.75791400  0.49752800  1
  S  S2  1  0.60868900  0.59017900  0.24247000  1
  S  S3  1  0.80344100  0.24208600  0.50247200  1
  S  S4  1  0.82113500  0.24092700  0.98876000  1
  S  S5  1  0.39131100  0.40982100  0.75753000  1
  O  O0  1  0.39653500  0.97816600  0.00797500  1
  O  O1  1  0.01296000  0.17285600  0.42095400  1
  O  O2  1  0.02118100  0.82230000  0.96055200  1
  O  O3  1  0.14035800  0.80789000  0.12803500  1
  O  O4  1  0.18800100  0.79500500  0.39013500  1
  O  O5  1  0.14203200  0.63477000  0.02101000  1
  O  O6  1  0.62731700  0.38613500  0.79009100  1
  O  O7  1  0.37976300  0.28248800  0.74321700  1
  O  O8  1  0.81068300  0.36678600  0.49174200  1
  O  O9  1  0.28548500  0.37170800  0.46995700  1
  O  O10  1  0.64804400  0.89938300  0.15530200  1
  O  O11  1  0.76868400  0.54733200  0.13781600  1
  O  O12  1  0.37268300  0.61386500  0.20990900  1
  O  O13  1  0.93349900  0.55595000  0.35339300  1
  O  O14  1  0.46532700  0.55462400  0.71001600  1
  O  O15  1  0.41004400  0.75795000  0.95790800  1
  O  O16  1  0.85796800  0.36523000  0.97899000  1
  O  O17  1  0.23131600  0.45266800  0.86218400  1
  O  O18  1  0.71451500  0.62829200  0.53004300  1
  O  O19  1  0.84820200  0.65930500  0.41518200  1
  O  O20  1  0.58995600  0.24205000  0.04209200  1
  O  O21  1  0.62297300  0.21386700  0.46206100  1
  O  O22  1  0.06650100  0.44405000  0.64660700  1
  O  O23  1  0.97881900  0.17770100  0.03944800  1
  O  O24  1  0.15179800  0.34069500  0.58481800  1
  O  O25  1  0.81199900  0.20499500  0.60986500  1
  O  O26  1  0.62023700  0.71751200  0.25678300  1
  O  O27  1  0.53467300  0.44537600  0.28998400  1
  O  O28  1  0.85964200  0.19211000  0.87196500  1
  O  O29  1  0.60346500  0.02183400  0.99202500  1
  O  O30  1  0.18931700  0.63321400  0.50825800  1
  O  O31  1  0.37702700  0.78613300  0.53793900  1
  O  O32  1  0.35195600  0.10061700  0.84469800  1
  O  O33  1  0.98704000  0.82714400  0.57904600  1
loop_
_geom_bond_atom_site_label_1
_geom_bond_atom_site_label_2
_geom_bond_distance
_geom_bond_site_symmetry_2
H0 O29 1.011924 1_554
H1 O33 0.977280 1_555
H2 O10 0.979586 1_555
H3 O27 0.977883 1_555
H4 Sc2 1.798250 1_555
H5 O32 1.004855 1_555
H5 O0 1.663950 1_546
H6 O12 0.983568 1_555
H7 O6 0.983568 1_555
H9 O9 1.021141 1_555
H9 O21 1.581184 1_555
H10 H12 0.763621 1_555
H10 Sc1 2.314853 1_555
H11 O10 1.004855 1_555
H11 O29 1.663950 1_564
H13 O18 1.021141 1_555
H13 O31 1.581184 1_555
H14 O1 0.977280 1_555
H15 O14 0.977883 1_555
H16 Sc0 1.798250 1_555
H17 O32 0.979586 1_555
H18 O0 1.011924 1_556
H19 H8 0.763621 1_555
H19 Sc1 2.314853 1_656
O1 S3 1.583886 1_455
O2 S0 1.441905 1_556
O3 S0 1.545750 1_555
O3 Sc0 2.082007 1_555
O4 S1 1.464571 1_555
O4 Sc0 2.260299 1_555
O5 S0 1.528536 1_555
O5 Sc1 2.003862 1_555
O6 S5 1.642847 1_555
O6 Sc2 2.623652 1_555
O7 S5 1.528736 1_555
O7 Sc2 2.177924 1_555
O8 S3 1.489875 1_555
O8 Sc3 2.155057 1_655
O9 Sc3 2.125956 1_555
O10 Sc0 2.146946 1_555
O11 S2 1.505260 1_555
O11 Sc1 2.022687 1_655
O12 S2 1.642847 1_555
O12 Sc0 2.623652 1_555
O13 O19 1.400026 1_555
O13 Sc3 2.118930 1_655
O14 S5 1.921947 1_555
O15 S0 1.474787 1_556
O16 S4 1.528536 1_555
O16 Sc1 2.003862 1_656
O17 S5 1.505260 1_555
O17 Sc1 2.022687 1_556
O18 O19 1.602686 1_555
O18 Sc3 2.125956 1_655
O19 Sc3 2.375370 1_655
O20 S4 1.474787 1_554
O21 S3 1.455848 1_555
O22 O24 1.400026 1_555
O22 Sc3 2.118930 1_555
O23 S4 1.441900 1_554
O24 O9 1.602686 1_555
O24 Sc3 2.375370 1_555
O25 S3 1.464571 1_555
O25 Sc2 2.260299 1_555
O26 S2 1.528736 1_555
O26 Sc0 2.177924 1_555
O27 S2 1.921947 1_555
O28 S4 1.545750 1_555
O28 Sc2 2.082007 1_555
O30 S1 1.489875 1_555
O30 Sc3 2.155057 1_555
O31 S1 1.455848 1_555
O32 Sc2 2.146946 1_555
O33 S1 1.583886 1_655
