# generated using pymatgen
data_Mn8Nb3Si
_symmetry_space_group_name_H-M   'P 1'
_cell_length_a   4.76371371
_cell_length_b   4.76371371
_cell_length_c   7.81869100
_cell_angle_alpha   90.00000000
_cell_angle_beta   90.00000000
_cell_angle_gamma   119.99999591
_symmetry_Int_Tables_number   1
_chemical_formula_structural   Mn8Nb3Si
_chemical_formula_sum   'Mn8 Nb3 Si1'
_cell_volume   153.65829335
_cell_formula_units_Z   1
loop_
 _symmetry_equiv_pos_site_id
 _symmetry_equiv_pos_as_xyz
  1  'x, y, z'
loop_
 _atom_site_type_symbol
 _atom_site_label
 _atom_site_symmetry_multiplicity
 _atom_site_fract_x
 _atom_site_fract_y
 _atom_site_fract_z
 _atom_site_occupancy
  Mn  Mn0  1  0.33333300  0.66666700  0.50253600  1
  Mn  Mn1  1  0.33333300  0.66666700  0.00959500  1
  Mn  Mn2  1  0.50433000  0.00866000  0.74673600  1
  Mn  Mn3  1  0.50433000  0.49567000  0.74673600  1
  Mn  Mn4  1  0.99134000  0.49567000  0.74673600  1
  Mn  Mn5  1  0.15974700  0.31949500  0.25257900  1
  Mn  Mn6  1  0.15974700  0.84025300  0.25257900  1
  Mn  Mn7  1  0.68050500  0.84025300  0.25257900  1
  Nb  Nb0  1  0.66666700  0.33333300  0.44330900  1
  Nb  Nb1  1  0.66666700  0.33333300  0.06588400  1
  Nb  Nb2  1  0.00000000  0.00000000  0.91879400  1
  Si  Si0  1  0.00000000  0.00000000  0.56185000  1
loop_
_geom_bond_atom_site_label_1
_geom_bond_atom_site_label_2
_geom_bond_distance
_geom_bond_site_symmetry_2
Mn0 Mn4 2.374054 1_455
Mn0 Mn2 2.374054 1_565
Mn0 Mn3 2.374057 1_555
Mn0 Mn6 2.422972 1_555
Mn0 Mn7 2.422972 1_555
Mn0 Mn5 2.422972 1_555
Mn0 Nb0 2.789041 1_455
Mn0 Nb0 2.789041 1_565
Mn0 Nb0 2.789049 1_555
Mn0 Si0 2.789154 1_565
Mn0 Si0 2.789158 1_665
Mn0 Si0 2.789158 1_555
Mn1 Mn6 2.379215 1_555
Mn1 Mn7 2.379215 1_555
Mn1 Mn5 2.379215 1_555
Mn1 Mn2 2.492893 1_564
Mn1 Mn4 2.492893 1_454
Mn1 Mn3 2.492895 1_554
Mn1 Nb1 2.785319 1_455
Mn1 Nb1 2.785319 1_565
Mn1 Nb1 2.785327 1_555
Mn1 Nb2 2.840480 1_564
Mn1 Nb2 2.840485 1_554
Mn1 Nb2 2.840485 1_664
Mn2 Mn3 2.319976 1_555
Mn2 Mn4 2.319976 1_555
Mn2 Mn3 2.443737 1_545
Mn2 Mn4 2.443738 1_445
Mn2 Nb0 2.724405 1_555
Mn2 Nb2 2.735739 1_655
Mn2 Nb2 2.735739 1_555
Mn2 Si0 2.786428 1_655
Mn2 Si0 2.786428 1_555
Mn2 Nb1 2.832086 1_556
Mn3 Mn4 2.319976 1_555
Mn3 Mn4 2.443737 1_455
Mn3 Nb0 2.724407 1_555
Mn3 Nb2 2.735739 1_555
Mn3 Nb2 2.735739 1_665
Mn3 Si0 2.786428 1_665
Mn3 Si0 2.786428 1_555
Mn3 Nb1 2.832088 1_556
Mn4 Nb0 2.724405 1_555
Mn4 Nb2 2.735739 1_655
Mn4 Nb2 2.735739 1_665
Mn4 Si0 2.786428 1_655
Mn4 Si0 2.786428 1_665
Mn4 Nb1 2.832086 1_556
Mn5 Mn6 2.282972 1_545
Mn5 Mn7 2.282972 1_445
Mn5 Mn6 2.480742 1_555
Mn5 Mn7 2.480742 1_555
Mn5 Si0 2.753998 1_555
Mn5 Nb1 2.794143 1_455
Mn5 Nb1 2.794151 1_555
Mn5 Nb0 2.810753 1_455
Mn5 Nb0 2.810761 1_555
Mn5 Nb2 2.923727 1_554
Mn6 Mn7 2.282972 1_455
Mn6 Mn7 2.480742 1_555
Mn6 Si0 2.753996 1_565
Mn6 Nb1 2.794147 1_455
Mn6 Nb1 2.794147 1_565
Mn6 Nb0 2.810757 1_455
Mn6 Nb0 2.810757 1_565
Mn6 Nb2 2.923725 1_564
Mn7 Si0 2.753998 1_665
Mn7 Nb1 2.794143 1_565
Mn7 Nb1 2.794151 1_555
Mn7 Nb0 2.810753 1_565
Mn7 Nb0 2.810761 1_555
Mn7 Nb2 2.923727 1_664
Nb0 Si0 2.902298 1_655
Nb0 Si0 2.902302 1_555
Nb0 Si0 2.902302 1_665
Nb0 Nb1 2.950969 1_555
Nb1 Nb2 2.981095 1_654
Nb1 Nb2 2.981099 1_664
Nb1 Nb2 2.981099 1_554
Nb2 Si0 2.790835 1_555
