# generated using pymatgen
data_Cs3BiI6
_symmetry_space_group_name_H-M   'P 1'
_cell_length_a   9.49735765
_cell_length_b   9.49735765
_cell_length_c   9.49735765
_cell_angle_alpha   60.00000000
_cell_angle_beta   60.00000000
_cell_angle_gamma   60.00000000
_symmetry_Int_Tables_number   1
_chemical_formula_structural   Cs3BiI6
_chemical_formula_sum   'Cs3 Bi1 I6'
_cell_volume   605.74994215
_cell_formula_units_Z   1
loop_
 _symmetry_equiv_pos_site_id
 _symmetry_equiv_pos_as_xyz
  1  'x, y, z'
loop_
 _atom_site_type_symbol
 _atom_site_label
 _atom_site_symmetry_multiplicity
 _atom_site_fract_x
 _atom_site_fract_y
 _atom_site_fract_z
 _atom_site_occupancy
  Cs  Cs0  1  0.75000000  0.75000000  0.75000000  1
  Cs  Cs1  1  0.25000000  0.25000000  0.25000000  1
  Cs  Cs2  1  0.50000000  0.50000000  0.50000000  1
  Bi  Bi0  1  0.00000000  0.00000000  0.00000000  1
  I  I0  1  0.77011500  0.22988500  0.22988500  1
  I  I1  1  0.22988500  0.22988500  0.77011500  1
  I  I2  1  0.22988500  0.77011500  0.77011500  1
  I  I3  1  0.22988500  0.77011500  0.22988500  1
  I  I4  1  0.77011500  0.22988500  0.77011500  1
  I  I5  1  0.77011500  0.77011500  0.22988500  1
loop_
_geom_bond_atom_site_label_1
_geom_bond_atom_site_label_2
_geom_bond_distance
_geom_bond_site_symmetry_2
Cs2 I4 3.627993 1_555
Cs2 I5 3.627993 1_555
Cs2 I2 3.627993 1_555
Cs2 I3 3.627993 1_555
Cs2 I0 3.627993 1_555
Cs2 I1 3.627993 1_555
Bi0 I1 3.087653 1_554
Bi0 I0 3.087653 1_455
Bi0 I3 3.087653 1_545
Bi0 I4 3.087653 1_454
Bi0 I5 3.087653 1_445
Bi0 I2 3.087653 1_544
