# generated using pymatgen
data_Yb2O3
_symmetry_space_group_name_H-M   'P 1'
_cell_length_a   9.27308999
_cell_length_b   9.27308999
_cell_length_c   9.27308999
_cell_angle_alpha   109.47122063
_cell_angle_beta   109.47122063
_cell_angle_gamma   109.47122063
_symmetry_Int_Tables_number   1
_chemical_formula_structural   Yb2O3
_chemical_formula_sum   'Yb16 O24'
_cell_volume   613.83483642
_cell_formula_units_Z   8
loop_
 _symmetry_equiv_pos_site_id
 _symmetry_equiv_pos_as_xyz
  1  'x, y, z'
loop_
 _atom_site_type_symbol
 _atom_site_label
 _atom_site_symmetry_multiplicity
 _atom_site_fract_x
 _atom_site_fract_y
 _atom_site_fract_z
 _atom_site_occupancy
  Yb  Yb0  1  0.49297000  0.50000000  0.00000000  1
  Yb  Yb1  1  0.00000000  0.49297000  0.50000000  1
  Yb  Yb2  1  0.50000000  0.00000000  0.49297000  1
  Yb  Yb3  1  0.00703000  0.00703000  0.00703000  1
  Yb  Yb4  1  0.21529900  0.75000000  0.96529900  1
  Yb  Yb5  1  0.25000000  0.53470100  0.28470100  1
  Yb  Yb6  1  0.96529900  0.21529900  0.75000000  1
  Yb  Yb7  1  0.28470100  0.25000000  0.53470100  1
  Yb  Yb8  1  0.75000000  0.96529900  0.21529900  1
  Yb  Yb9  1  0.53470100  0.28470100  0.25000000  1
  Yb  Yb10  1  0.72269600  0.75000000  0.47269600  1
  Yb  Yb11  1  0.25000000  0.02730400  0.77730400  1
  Yb  Yb12  1  0.47269600  0.72269600  0.75000000  1
  Yb  Yb13  1  0.77730400  0.25000000  0.02730400  1
  Yb  Yb14  1  0.75000000  0.47269600  0.72269600  1
  Yb  Yb15  1  0.02730400  0.77730400  0.25000000  1
  O  O0  1  0.46680600  0.73980500  0.00298700  1
  O  O1  1  0.46381900  0.49701300  0.23681800  1
  O  O2  1  0.22700100  0.26318200  0.76019500  1
  O  O3  1  0.23681800  0.46381900  0.49701300  1
  O  O4  1  0.76019500  0.22700100  0.26318200  1
  O  O5  1  0.00298700  0.46680600  0.73980500  1
  O  O6  1  0.26318200  0.76019500  0.22700100  1
  O  O7  1  0.73980500  0.00298700  0.46680600  1
  O  O8  1  0.49701300  0.23681800  0.46381900  1
  O  O9  1  0.03319400  0.03618100  0.27299900  1
  O  O10  1  0.03618100  0.27299900  0.03319400  1
  O  O11  1  0.27299900  0.03319400  0.03618100  1
  O  O12  1  0.53839400  0.51129900  0.77355500  1
  O  O13  1  0.76483900  0.72644500  0.23774400  1
  O  O14  1  0.52709600  0.26225600  0.98870100  1
  O  O15  1  0.23774400  0.76483900  0.72644500  1
  O  O16  1  0.98870100  0.52709600  0.26225600  1
  O  O17  1  0.77355500  0.53839400  0.51129900  1
  O  O18  1  0.26225600  0.98870100  0.52709600  1
  O  O19  1  0.51129900  0.77355500  0.53839400  1
  O  O20  1  0.72644500  0.23774400  0.76483900  1
  O  O21  1  0.96160600  0.73516100  0.97290400  1
  O  O22  1  0.73516100  0.97290400  0.96160600  1
  O  O23  1  0.97290400  0.96160600  0.73516100  1
loop_
_geom_bond_atom_site_label_1
_geom_bond_atom_site_label_2
_geom_bond_distance
_geom_bond_site_symmetry_2
O0 Yb4 2.279492 1_554
O0 Yb8 2.300587 1_555
O0 Yb0 2.308186 1_555
O0 Yb12 2.318362 1_554
O1 Yb5 2.279492 1_555
O1 Yb9 2.300587 1_555
O1 Yb0 2.308186 1_555
O1 Yb10 2.318362 1_555
O2 Yb6 2.279492 1_455
O2 Yb7 2.300587 1_555
O2 Yb0 2.308186 1_556
O2 Yb11 2.318362 1_555
O3 Yb7 2.279492 1_555
O3 Yb5 2.300587 1_555
O3 Yb1 2.308186 1_555
O3 Yb12 2.318362 1_555
O4 Yb8 2.279492 1_545
O4 Yb9 2.300587 1_555
O4 Yb1 2.308186 1_655
O4 Yb13 2.318362 1_555
O5 Yb6 2.279492 1_455
O5 Yb4 2.300587 1_555
O5 Yb1 2.308186 1_555
O5 Yb14 2.318362 1_455
O6 Yb4 2.279492 1_554
O6 Yb5 2.300587 1_555
O6 Yb2 2.308186 1_565
O6 Yb15 2.318362 1_555
O7 Yb8 2.279492 1_545
O7 Yb6 2.300587 1_555
O7 Yb2 2.308186 1_555
O7 Yb10 2.318362 1_545
O8 Yb9 2.279492 1_555
O8 Yb7 2.300587 1_555
O8 Yb2 2.308186 1_555
O8 Yb14 2.318362 1_555
O9 Yb7 2.279492 1_555
O9 Yb8 2.300587 1_445
O9 Yb3 2.308186 1_555
O9 Yb15 2.318362 1_545
O10 Yb5 2.279492 1_555
O10 Yb6 2.300587 1_454
O10 Yb3 2.308186 1_555
O10 Yb13 2.318362 1_455
O11 Yb9 2.279492 1_555
O11 Yb4 2.300587 1_544
O11 Yb3 2.308186 1_555
O11 Yb11 2.318362 1_554
O12 Yb14 2.274565 1_555
O12 Yb12 2.292285 1_555
O12 Yb0 2.303188 1_556
O12 Yb7 2.336563 1_555
O13 Yb15 2.274565 1_655
O13 Yb10 2.292285 1_555
O13 Yb0 2.303188 1_555
O13 Yb8 2.336563 1_555
O14 Yb13 2.274556 1_556
O14 Yb11 2.292290 1_555
O14 Yb0 2.303192 1_556
O14 Yb9 2.336567 1_556
O15 Yb11 2.274565 1_565
O15 Yb12 2.292285 1_555
O15 Yb1 2.303188 1_555
O15 Yb4 2.336563 1_555
O16 Yb15 2.274556 1_655
O16 Yb13 2.292290 1_555
O16 Yb1 2.303192 1_655
O16 Yb5 2.336567 1_655
O17 Yb10 2.274565 1_555
O17 Yb14 2.292285 1_555
O17 Yb1 2.303188 1_655
O17 Yb9 2.336563 1_555
O18 Yb11 2.274556 1_565
O18 Yb15 2.292290 1_555
O18 Yb2 2.303192 1_565
O18 Yb7 2.336567 1_565
O19 Yb12 2.274565 1_555
O19 Yb10 2.292285 1_555
O19 Yb2 2.303188 1_565
O19 Yb5 2.336563 1_555
O20 Yb13 2.274565 1_556
O20 Yb14 2.292285 1_555
O20 Yb2 2.303188 1_555
O20 Yb6 2.336563 1_555
O21 Yb14 2.274561 1_555
O21 Yb15 2.292294 1_656
O21 Yb3 2.303185 1_666
O21 Yb4 2.336560 1_655
O22 Yb12 2.274561 1_555
O22 Yb13 2.292294 1_566
O22 Yb3 2.303185 1_666
O22 Yb8 2.336560 1_556
O23 Yb10 2.274561 1_555
O23 Yb11 2.292294 1_665
O23 Yb3 2.303185 1_666
O23 Yb6 2.336560 1_565
