# generated using pymatgen
data_LiMg14Bi
_symmetry_space_group_name_H-M   'P 1'
_cell_length_a   6.42323114
_cell_length_b   6.32224681
_cell_length_c   10.49603021
_cell_angle_alpha   90.00000000
_cell_angle_beta   90.00000000
_cell_angle_gamma   119.48128320
_symmetry_Int_Tables_number   1
_chemical_formula_structural   LiMg14Bi
_chemical_formula_sum   'Li1 Mg14 Bi1'
_cell_volume   371.04542437
_cell_formula_units_Z   1
loop_
 _symmetry_equiv_pos_site_id
 _symmetry_equiv_pos_as_xyz
  1  'x, y, z'
loop_
 _atom_site_type_symbol
 _atom_site_label
 _atom_site_symmetry_multiplicity
 _atom_site_fract_x
 _atom_site_fract_y
 _atom_site_fract_z
 _atom_site_occupancy
  Li  Li0  1  0.16614385  0.33307143  0.12500000  1
  Mg  Mg0  1  0.16722643  0.33361272  0.62500000  1
  Mg  Mg1  1  0.16635698  0.83317799  0.62500000  1
  Mg  Mg2  1  0.66784378  0.33251673  0.12500000  1
  Mg  Mg3  1  0.66615677  0.33392957  0.62500000  1
  Mg  Mg4  1  0.66784378  0.83532604  0.12500000  1
  Mg  Mg5  1  0.66615677  0.83222620  0.62500000  1
  Mg  Mg6  1  0.33546332  0.17145358  0.37862660  1
  Mg  Mg7  1  0.33546332  0.17145358  0.87137340  1
  Mg  Mg8  1  0.33546332  0.66401074  0.37862660  1
  Mg  Mg9  1  0.33546332  0.66401074  0.87137340  1
  Mg  Mg10  1  0.83335673  0.16667886  0.37656688  1
  Mg  Mg11  1  0.83335673  0.16667886  0.87343312  1
  Mg  Mg12  1  0.82795068  0.66397584  0.37861238  1
  Mg  Mg13  1  0.82795068  0.66397584  0.87138762  1
  Bi  Bi0  1  0.16780355  0.83390128  0.12500000  1
loop_
_geom_bond_atom_site_label_1
_geom_bond_atom_site_label_2
_geom_bond_distance
_geom_bond_site_symmetry_2
Li0 Mg4 3.198972 1_445
Li0 Mg2 3.198972 1_455
Li0 Mg4 3.224262 1_555
Li0 Mg2 3.224262 1_555
Li0 Mg6 3.226036 1_555
Li0 Mg7 3.226036 1_554
Li0 Mg8 3.226042 1_555
Li0 Mg9 3.226042 1_554
Li0 Mg10 3.230252 1_455
Li0 Mg11 3.230252 1_454
Mg0 Mg1 3.161127 1_555
Mg0 Mg1 3.161127 1_545
Mg0 Mg7 3.161701 1_555
Mg0 Mg6 3.161701 1_555
Mg0 Mg9 3.161707 1_555
Mg0 Mg8 3.161707 1_555
Mg0 Mg5 3.203759 1_555
Mg0 Mg3 3.203760 1_555
Mg0 Mg11 3.206942 1_455
Mg0 Mg10 3.206942 1_455
Mg0 Mg5 3.219472 1_445
Mg0 Mg3 3.219473 1_455
Mg1 Mg9 3.186577 1_555
Mg1 Mg8 3.186577 1_555
Mg1 Mg7 3.186583 1_565
Mg1 Mg6 3.186583 1_565
Mg1 Mg12 3.204423 1_455
Mg1 Mg13 3.204423 1_455
Mg1 Mg3 3.209944 1_455
Mg1 Mg5 3.209944 1_455
Mg1 Mg3 3.213295 1_565
Mg1 Mg5 3.213295 1_555
Mg2 Mg4 3.143362 1_545
Mg2 Mg4 3.178885 1_555
Mg2 Mg6 3.246807 1_555
Mg2 Mg7 3.246807 1_554
Mg3 Mg5 3.150354 1_555
Mg3 Mg5 3.171893 1_545
Mg3 Mg7 3.179077 1_555
Mg3 Mg6 3.179077 1_555
Mg4 Mg8 3.246807 1_555
Mg4 Mg9 3.246807 1_554
Mg5 Mg9 3.179077 1_555
Mg5 Mg8 3.179077 1_555
Mg6 Mg8 3.114068 1_555
Mg6 Mg8 3.208179 1_545
Mg7 Mg9 3.114068 1_555
Mg7 Mg9 3.208179 1_545
Mg10 Mg12 3.161341 1_545
Mg10 Mg12 3.161341 1_555
Mg10 Mg3 3.191963 1_555
Mg10 Mg5 3.191969 1_545
Mg10 Mg2 3.209151 1_555
Mg10 Mg4 3.209157 1_545
Mg10 Mg8 3.210471 1_655
Mg10 Mg6 3.210471 1_655
Mg10 Mg8 3.213121 1_545
Mg10 Mg6 3.213121 1_555
Mg11 Mg13 3.161341 1_545
Mg11 Mg13 3.161341 1_555
Mg11 Mg3 3.191963 1_555
Mg11 Mg5 3.191969 1_545
Mg11 Mg2 3.209151 1_556
Mg11 Mg4 3.209157 1_546
Mg11 Mg9 3.210471 1_655
Mg11 Mg7 3.210471 1_655
Mg11 Mg9 3.213121 1_545
Mg11 Mg7 3.213121 1_555
Mg12 Mg5 3.160296 1_555
Mg12 Mg3 3.160302 1_555
Mg12 Mg6 3.163468 1_555
Mg12 Mg8 3.163469 1_555
Mg12 Mg4 3.227011 1_555
Mg12 Mg2 3.227017 1_555
Mg12 Mg6 3.259762 1_665
Mg12 Mg8 3.259762 1_655
Mg13 Mg5 3.160296 1_555
Mg13 Mg3 3.160302 1_555
Mg13 Mg7 3.163468 1_555
Mg13 Mg9 3.163469 1_555
Mg13 Mg4 3.227011 1_556
Mg13 Mg2 3.227017 1_556
Mg13 Mg7 3.259762 1_665
Mg13 Mg9 3.259762 1_655
Bi0 Li0 3.161137 1_555
Bi0 Li0 3.161137 1_565
Bi0 Mg2 3.207450 1_565
Bi0 Mg4 3.207451 1_555
Bi0 Mg2 3.215800 1_455
Bi0 Mg4 3.215800 1_455
Bi0 Mg8 3.246317 1_555
Bi0 Mg9 3.246317 1_554
Bi0 Mg6 3.246323 1_565
Bi0 Mg7 3.246323 1_564
Bi0 Mg12 3.270621 1_455
Bi0 Mg13 3.270621 1_454
