# generated using pymatgen
data_TaCr3(AgS4)2
_symmetry_space_group_name_H-M   'P 1'
_cell_length_a   11.54065777
_cell_length_b   7.40714900
_cell_length_c   12.21603859
_cell_angle_alpha   90.00000000
_cell_angle_beta   89.58809031
_cell_angle_gamma   90.00000000
_symmetry_Int_Tables_number   1
_chemical_formula_structural   TaCr3(AgS4)2
_chemical_formula_sum   'Ta4 Cr12 Ag8 S32'
_cell_volume   1044.24118117
_cell_formula_units_Z   4
loop_
 _symmetry_equiv_pos_site_id
 _symmetry_equiv_pos_as_xyz
  1  'x, y, z'
loop_
 _atom_site_type_symbol
 _atom_site_label
 _atom_site_symmetry_multiplicity
 _atom_site_fract_x
 _atom_site_fract_y
 _atom_site_fract_z
 _atom_site_occupancy
  Ta  Ta0  1  0.88781400  0.10508700  0.19110900  1
  Ta  Ta1  1  0.38781400  0.89491300  0.19110900  1
  Ta  Ta2  1  0.86273800  0.61912300  0.82262200  1
  Ta  Ta3  1  0.36273800  0.38087700  0.82262200  1
  Cr  Cr0  1  0.10903000  0.87967200  0.69267700  1
  Cr  Cr1  1  0.60903000  0.12032800  0.69267700  1
  Cr  Cr2  1  0.12666900  0.36721900  0.32502700  1
  Cr  Cr3  1  0.62666900  0.63278100  0.32502700  1
  Cr  Cr4  1  0.16310400  0.62076900  0.93643600  1
  Cr  Cr5  1  0.84202800  0.37685200  0.44366400  1
  Cr  Cr6  1  0.34202800  0.62314800  0.44366400  1
  Cr  Cr7  1  0.66310400  0.37923100  0.93643600  1
  Cr  Cr8  1  0.13625700  0.13278800  0.00027600  1
  Cr  Cr9  1  0.85531900  0.87711100  0.50780800  1
  Cr  Cr10  1  0.35531900  0.12288900  0.50780800  1
  Cr  Cr11  1  0.63625700  0.86721200  0.00027600  1
  Ag  Ag0  1  0.09157000  0.37052400  0.66383000  1
  Ag  Ag1  1  0.90161700  0.62083800  0.17947200  1
  Ag  Ag2  1  0.40161700  0.37916200  0.17947200  1
  Ag  Ag3  1  0.59157000  0.62947600  0.66383000  1
  Ag  Ag4  1  0.11283900  0.88066200  0.33958000  1
  Ag  Ag5  1  0.88624400  0.11407500  0.82787500  1
  Ag  Ag6  1  0.38624400  0.88592500  0.82787500  1
  Ag  Ag7  1  0.61283900  0.11933800  0.33958000  1
  S  S0  1  0.02860000  0.83745500  0.87367400  1
  S  S1  1  0.98015600  0.16140300  0.37859500  1
  S  S2  1  0.48015600  0.83859700  0.37859500  1
  S  S3  1  0.52860000  0.16254500  0.87367400  1
  S  S4  1  0.04161100  0.32656500  0.14491300  1
  S  S5  1  0.95721900  0.67726000  0.64121400  1
  S  S6  1  0.45721900  0.32274000  0.64121400  1
  S  S7  1  0.54161100  0.67343500  0.14491300  1
  S  S8  1  0.01390500  0.41646100  0.88502800  1
  S  S9  1  0.98737900  0.57681900  0.38031600  1
  S  S10  1  0.48737900  0.42318100  0.38031600  1
  S  S11  1  0.51390500  0.58353900  0.88502800  1
  S  S12  1  0.02644100  0.90429500  0.12542200  1
  S  S13  1  0.97506100  0.07828700  0.63060200  1
  S  S14  1  0.47506100  0.92171300  0.63060200  1
  S  S15  1  0.52644100  0.09570500  0.12542200  1
  S  S16  1  0.22817300  0.86999000  0.52879500  1
  S  S17  1  0.77466000  0.13331800  0.02803900  1
  S  S18  1  0.27466000  0.86668200  0.02803900  1
  S  S19  1  0.72817300  0.13001000  0.52879500  1
  S  S20  1  0.22513100  0.37668600  0.49715500  1
  S  S21  1  0.77547400  0.62499700  0.00602500  1
  S  S22  1  0.27547400  0.37500300  0.00602500  1
  S  S23  1  0.72513100  0.62331400  0.49715500  1
  S  S24  1  0.21970200  0.12525800  0.80640900  1
  S  S25  1  0.78824500  0.88143300  0.30697100  1
  S  S26  1  0.28824500  0.11856700  0.30697100  1
  S  S27  1  0.71970200  0.87474200  0.80640900  1
  S  S28  1  0.24508700  0.62216800  0.75827300  1
  S  S29  1  0.75792600  0.37654600  0.27219400  1
  S  S30  1  0.25792600  0.62345400  0.27219400  1
  S  S31  1  0.74508700  0.37783200  0.75827300  1
loop_
_geom_bond_atom_site_label_1
_geom_bond_atom_site_label_2
_geom_bond_distance
_geom_bond_site_symmetry_2
Cr0 S13 2.268619 1_465
Cr0 S5 2.393419 1_455
Cr0 S0 2.412193 1_555
Cr0 S16 2.421594 1_555
Cr0 S28 2.600723 1_555
Cr0 S24 2.626067 1_565
Cr1 S14 2.268619 1_545
Cr1 S6 2.393419 1_555
Cr1 S3 2.412193 1_555
Cr1 S19 2.421594 1_555
Cr1 S31 2.600723 1_555
Cr1 S27 2.626067 1_545
Cr2 S9 2.331308 1_455
Cr2 S1 2.365468 1_455
Cr2 S20 2.398318 1_555
Cr2 S4 2.434451 1_555
Cr2 S30 2.509858 1_555
Cr2 S26 2.629079 1_555
Cr3 S10 2.331308 1_555
Cr3 S2 2.365468 1_555
Cr3 S23 2.398318 1_555
Cr3 S7 2.434451 1_555
Cr3 S29 2.509858 1_555
Cr3 S25 2.629079 1_555
Cr4 S0 2.364440 1_555
Cr4 S28 2.366980 1_555
Cr4 S8 2.380108 1_555
Cr4 S22 2.394624 1_556
Cr4 S18 2.499664 1_556
Cr5 S29 2.314949 1_555
Cr5 S23 2.359460 1_555
Cr5 S9 2.363881 1_555
Cr5 S1 2.387785 1_555
Cr5 S19 2.476167 1_555
Cr6 S30 2.314949 1_555
Cr6 S20 2.359460 1_555
Cr6 S10 2.363881 1_555
Cr6 S2 2.387785 1_555
Cr6 S16 2.476167 1_555
Cr7 S3 2.364440 1_555
Cr7 S31 2.366980 1_555
Cr7 S11 2.380108 1_555
Cr7 S21 2.394624 1_556
Cr7 S17 2.499664 1_556
Cr8 S22 2.409725 1_555
Cr8 S4 2.519407 1_555
Cr8 S24 2.550782 1_554
Cr8 S18 2.561102 1_545
Cr8 S12 2.603844 1_545
Cr8 S8 2.901651 1_554
Cr8 S0 2.957811 1_544
Cr9 S19 2.392183 1_565
Cr9 S23 2.410641 1_555
Cr9 S5 2.501555 1_555
Cr9 S13 2.531826 1_565
Cr9 S25 2.578150 1_555
Cr9 S1 2.994805 1_565
Cr10 S16 2.392183 1_545
Cr10 S20 2.410641 1_555
Cr10 S6 2.501555 1_555
Cr10 S14 2.531826 1_545
Cr10 S26 2.578150 1_555
Cr10 S2 2.994805 1_545
Cr11 S21 2.409725 1_555
Cr11 S7 2.519407 1_555
Cr11 S27 2.550782 1_554
Cr11 S17 2.561102 1_565
Cr11 S15 2.603844 1_565
Cr11 S11 2.901651 1_554
Cr11 S3 2.957811 1_564
Ag0 S20 2.545300 1_555
Ag0 S13 2.581902 1_455
Ag0 S5 2.765628 1_455
Ag0 S28 2.823774 1_555
Ag0 S8 2.861119 1_555
Ag0 S24 2.925379 1_555
Ag1 S21 2.579542 1_555
Ag1 S12 2.627895 1_655
Ag1 S9 2.672187 1_555
Ag1 S29 2.698190 1_555
Ag1 S4 2.744059 1_655
Ag1 S25 2.799002 1_555
Ag2 S22 2.579542 1_555
Ag2 S15 2.627895 1_555
Ag2 S10 2.672187 1_555
Ag2 S30 2.698190 1_555
Ag2 S7 2.744059 1_555
Ag2 S26 2.799002 1_555
Ag3 S23 2.545300 1_555
Ag3 S14 2.581902 1_555
Ag3 S6 2.765628 1_555
Ag3 S31 2.823774 1_555
Ag3 S11 2.861119 1_555
Ag3 S27 2.925379 1_555
Ag4 S1 2.624055 1_465
Ag4 S30 2.662919 1_555
Ag4 S16 2.676745 1_555
Ag4 S26 2.711130 1_565
Ag4 S9 2.720094 1_455
Ag4 S12 2.811875 1_555
Ag5 S13 2.625449 1_555
Ag5 S27 2.629229 1_545
Ag5 S31 2.685803 1_555
Ag5 S0 2.687668 1_645
Ag5 S17 2.759059 1_556
Ag5 S8 2.773017 1_655
Ag6 S14 2.625449 1_555
Ag6 S24 2.629229 1_565
Ag6 S28 2.685803 1_555
Ag6 S3 2.687668 1_565
Ag6 S18 2.759059 1_556
Ag6 S11 2.773017 1_555
Ag7 S2 2.624055 1_545
Ag7 S29 2.662919 1_555
Ag7 S19 2.676745 1_555
Ag7 S25 2.711130 1_545
Ag7 S10 2.720094 1_555
Ag7 S15 2.811875 1_555
S0 Ta2 2.585633 1_455
S1 Ta0 2.567183 1_555
S2 Ta1 2.567183 1_555
S3 Ta3 2.585633 1_555
S4 Ta0 2.479055 1_455
S5 Ta2 2.500131 1_555
S6 Ta3 2.500131 1_555
S7 Ta1 2.479055 1_555
S8 Ta2 2.428428 1_455
S11 Ta3 2.428428 1_555
S12 Ta0 2.323145 1_465
S15 Ta1 2.323145 1_545
S17 Ta0 2.398911 1_555
S18 Ta1 2.398911 1_555
S21 Ta2 2.450168 1_554
S22 Ta3 2.450168 1_554
S24 Ta3 2.520680 1_555
S25 Ta0 2.458610 1_565
S26 Ta1 2.458610 1_545
S27 Ta2 2.520680 1_555
S28 Ta3 2.381425 1_555
S29 Ta0 2.692556 1_555
S30 Ta1 2.692556 1_555
S31 Ta2 2.381425 1_555
