# generated using pymatgen
data_Li7Mn4CoO12
_symmetry_space_group_name_H-M   'P 1'
_cell_length_a   7.99625489
_cell_length_b   7.99625489
_cell_length_c   11.83436553
_cell_angle_alpha   55.91893386
_cell_angle_beta   55.91893386
_cell_angle_gamma   20.97748669
_symmetry_Int_Tables_number   1
_chemical_formula_structural   Li7Mn4CoO12
_chemical_formula_sum   'Li7 Mn4 Co1 O12'
_cell_volume   222.60134778
_cell_formula_units_Z   1
loop_
 _symmetry_equiv_pos_site_id
 _symmetry_equiv_pos_as_xyz
  1  'x, y, z'
loop_
 _atom_site_type_symbol
 _atom_site_label
 _atom_site_symmetry_multiplicity
 _atom_site_fract_x
 _atom_site_fract_y
 _atom_site_fract_z
 _atom_site_occupancy
  Li  Li0  1  0.65995900  0.65995900  0.77167200  1
  Li  Li1  1  0.02736800  0.02736800  0.22017000  1
  Li  Li2  1  0.30808700  0.30808700  0.78363700  1
  Li  Li3  1  0.67587400  0.67587400  0.23442700  1
  Li  Li4  1  0.99084000  0.99084000  0.76644900  1
  Li  Li5  1  0.33948500  0.33948500  0.23143000  1
  Li  Li6  1  0.66701700  0.66701700  0.99624600  1
  Mn  Mn0  1  0.00309900  0.00309900  0.99861000  1
  Mn  Mn1  1  0.00282400  0.00282400  0.49416100  1
  Mn  Mn2  1  0.32911700  0.32911700  0.50708700  1
  Mn  Mn3  1  0.66705100  0.66705100  0.49906500  1
  Co  Co0  1  0.31815900  0.31815900  0.00527700  1
  O  O0  1  0.49977000  0.49977000  0.88943300  1
  O  O1  1  0.81744100  0.81744100  0.40195800  1
  O  O2  1  0.14815600  0.14815600  0.88845700  1
  O  O3  1  0.50172300  0.50172300  0.38342200  1
  O  O4  1  0.83774400  0.83774400  0.87534300  1
  O  O5  1  0.17602700  0.17602700  0.38208300  1
  O  O6  1  0.83079100  0.83079100  0.61686700  1
  O  O7  1  0.17800000  0.17800000  0.12177500  1
  O  O8  1  0.51685400  0.51685400  0.59731100  1
  O  O9  1  0.84931400  0.84931400  0.10563000  1
  O  O10  1  0.15738700  0.15738700  0.61498100  1
  O  O11  1  0.49790100  0.49790100  0.11450900  1
loop_
_geom_bond_atom_site_label_1
_geom_bond_atom_site_label_2
_geom_bond_distance
_geom_bond_site_symmetry_2
Li0 O2 1.941944 1_565
Li0 O2 1.941944 1_655
Li0 O0 2.070358 1_555
Li0 O6 2.227899 1_555
Li0 O10 2.375842 1_565
Li0 O10 2.375842 1_655
Li1 O7 1.955256 1_555
Li1 O11 2.134864 1_545
Li1 O11 2.134864 1_455
Li1 O3 2.264091 1_545
Li1 O3 2.264091 1_455
Li2 O4 2.022660 1_545
Li2 O4 2.022660 1_455
Li2 O2 2.075571 1_555
Li2 O6 2.310508 1_455
Li2 O6 2.310508 1_545
Li3 O7 1.961271 1_655
Li3 O7 1.961271 1_565
Li3 O9 2.241363 1_555
Li3 O3 2.259448 1_555
Li3 O5 2.275345 1_655
Li3 O5 2.275345 1_565
Li4 O4 1.980032 1_555
Li4 O0 2.118940 1_565
Li4 O0 2.118940 1_655
Li4 O10 2.172899 1_665
Li4 O8 2.315074 1_565
Li4 O8 2.315074 1_655
Li5 O9 2.024097 1_455
Li5 O9 2.024097 1_545
Li5 O11 2.047340 1_555
Li5 O5 2.135984 1_555
Li5 O1 2.348285 1_455
Li5 O1 2.348285 1_545
Li6 O2 2.065265 1_655
Li6 O2 2.065265 1_565
Li6 O7 2.155940 1_566
Li6 O7 2.155940 1_656
Li6 O11 2.188363 1_556
Li6 O4 2.208332 1_555
Mn0 O2 1.874404 1_555
Mn0 O0 1.966758 1_545
Mn0 O0 1.966758 1_455
Mn0 O11 1.969542 1_546
Mn0 O11 1.969542 1_456
Mn0 O9 1.990317 1_446
Mn1 O3 1.965344 1_455
Mn1 O3 1.965344 1_545
Mn1 O8 1.991161 1_545
Mn1 O8 1.991161 1_455
Mn1 O6 2.224783 1_445
Mn1 O5 2.249461 1_555
Mn2 O6 1.961242 1_545
Mn2 O6 1.961242 1_455
Mn2 O1 1.990197 1_455
Mn2 O1 1.990197 1_545
Mn2 O3 2.231940 1_555
Mn2 O10 2.234493 1_555
Mn3 O10 1.945826 1_565
Mn3 O10 1.945826 1_655
Mn3 O8 1.949459 1_555
Mn3 O1 1.953429 1_555
Mn3 O5 1.957734 1_565
Mn3 O5 1.957734 1_655
Co0 O7 1.815256 1_555
Co0 O4 2.009601 1_544
Co0 O4 2.009601 1_454
Co0 O9 2.105363 1_545
Co0 O9 2.105363 1_455
Co0 O0 2.360731 1_554
