# generated using pymatgen
data_CaMg2
_symmetry_space_group_name_H-M   'P 1'
_cell_length_a   18.24038480
_cell_length_b   18.24038480
_cell_length_c   11.23460200
_cell_angle_alpha   90.00000000
_cell_angle_beta   90.00000000
_cell_angle_gamma   158.24973155
_symmetry_Int_Tables_number   1
_chemical_formula_structural   CaMg2
_chemical_formula_sum   'Ca16 Mg32'
_cell_volume   1385.11655039
_cell_formula_units_Z   16
loop_
 _symmetry_equiv_pos_site_id
 _symmetry_equiv_pos_as_xyz
  1  'x, y, z'
loop_
 _atom_site_type_symbol
 _atom_site_label
 _atom_site_symmetry_multiplicity
 _atom_site_fract_x
 _atom_site_fract_y
 _atom_site_fract_z
 _atom_site_occupancy
  Ca  Ca0_0  1  0.14323700  0.35676300  0.12500000  1
  Ca  Ca0_1  1  0.14323700  0.35676300  0.62500000  1
  Ca  Ca0_2  1  0.14323700  0.85676300  0.12500000  1
  Ca  Ca0_3  1  0.14323700  0.85676300  0.62500000  1
  Ca  Ca0_4  1  0.64323700  0.35676300  0.12500000  1
  Ca  Ca0_5  1  0.64323700  0.35676300  0.62500000  1
  Ca  Ca0_6  1  0.64323700  0.85676300  0.12500000  1
  Ca  Ca0_7  1  0.64323700  0.85676300  0.62500000  1
  Ca  Ca1_0  1  0.35676300  0.14323700  0.37500000  1
  Ca  Ca1_1  1  0.35676300  0.14323700  0.87500000  1
  Ca  Ca1_2  1  0.35676300  0.64323700  0.37500000  1
  Ca  Ca1_3  1  0.35676300  0.64323700  0.87500000  1
  Ca  Ca1_4  1  0.85676300  0.14323700  0.37500000  1
  Ca  Ca1_5  1  0.85676300  0.14323700  0.87500000  1
  Ca  Ca1_6  1  0.85676300  0.64323700  0.37500000  1
  Ca  Ca1_7  1  0.85676300  0.64323700  0.87500000  1
  Mg  Mg0_0  1  0.30246700  0.19753300  0.12500000  1
  Mg  Mg0_1  1  0.30246700  0.19753300  0.62500000  1
  Mg  Mg0_2  1  0.30246700  0.69753300  0.12500000  1
  Mg  Mg0_3  1  0.30246700  0.69753300  0.62500000  1
  Mg  Mg0_4  1  0.80246700  0.19753300  0.12500000  1
  Mg  Mg0_5  1  0.80246700  0.19753300  0.62500000  1
  Mg  Mg0_6  1  0.80246700  0.69753300  0.12500000  1
  Mg  Mg0_7  1  0.80246700  0.69753300  0.62500000  1
  Mg  Mg1_0  1  0.47665550  0.02334450  0.12500000  1
  Mg  Mg1_1  1  0.47665550  0.02334450  0.62500000  1
  Mg  Mg1_2  1  0.47665550  0.52334450  0.12500000  1
  Mg  Mg1_3  1  0.47665550  0.52334450  0.62500000  1
  Mg  Mg1_4  1  0.97665550  0.02334450  0.12500000  1
  Mg  Mg1_5  1  0.97665550  0.02334450  0.62500000  1
  Mg  Mg1_6  1  0.97665550  0.52334450  0.12500000  1
  Mg  Mg1_7  1  0.97665550  0.52334450  0.62500000  1
  Mg  Mg2_0  1  0.02334450  0.47665550  0.37500000  1
  Mg  Mg2_1  1  0.02334450  0.47665550  0.87500000  1
  Mg  Mg2_2  1  0.02334450  0.97665550  0.37500000  1
  Mg  Mg2_3  1  0.02334450  0.97665550  0.87500000  1
  Mg  Mg2_4  1  0.52334450  0.47665550  0.37500000  1
  Mg  Mg2_5  1  0.52334450  0.47665550  0.87500000  1
  Mg  Mg2_6  1  0.52334450  0.97665550  0.37500000  1
  Mg  Mg2_7  1  0.52334450  0.97665550  0.87500000  1
  Mg  Mg3_0  1  0.19753300  0.30246700  0.37500000  1
  Mg  Mg3_1  1  0.19753300  0.30246700  0.87500000  1
  Mg  Mg3_2  1  0.19753300  0.80246700  0.37500000  1
  Mg  Mg3_3  1  0.19753300  0.80246700  0.87500000  1
  Mg  Mg3_4  1  0.69753300  0.30246700  0.37500000  1
  Mg  Mg3_5  1  0.69753300  0.30246700  0.87500000  1
  Mg  Mg3_6  1  0.69753300  0.80246700  0.37500000  1
  Mg  Mg3_7  1  0.69753300  0.80246700  0.87500000  1
loop_
_geom_bond_atom_site_label_1
_geom_bond_atom_site_label_2
_geom_bond_distance
_geom_bond_site_symmetry_2
Ca0_0 Mg3_0 3.416470 1_555
Ca0_0 Mg3_1 3.416470 1_554
Ca0_0 Ca0_6 3.441400 1_445
Ca0_0 Ca0_6 3.441400 1_555
Ca0_0 Mg1_2 3.448485 1_555
Ca0_0 Mg1_4 3.448485 1_455
Ca0_0 Ca1_2 3.543557 1_555
Ca0_0 Ca1_4 3.543557 1_455
Ca0_0 Ca1_5 3.543557 1_454
Ca0_0 Ca1_3 3.543557 1_554
Ca0_0 Mg0_2 3.679075 1_555
Ca0_0 Mg0_4 3.679075 1_455
Ca0_1 Mg3_1 3.416470 1_555
Ca0_1 Mg3_0 3.416470 1_555
Ca0_1 Ca0_7 3.441400 1_445
Ca0_1 Ca0_7 3.441400 1_555
Ca0_1 Mg1_3 3.448485 1_555
Ca0_1 Mg1_5 3.448485 1_455
Ca0_1 Ca1_3 3.543557 1_555
Ca0_1 Ca1_5 3.543557 1_455
Ca0_1 Ca1_4 3.543557 1_455
Ca0_1 Ca1_2 3.543557 1_555
Ca0_1 Mg0_3 3.679075 1_555
Ca0_1 Mg0_5 3.679075 1_455
Ca0_2 Mg3_2 3.416470 1_555
Ca0_2 Mg3_3 3.416470 1_554
Ca0_2 Ca0_4 3.441400 1_455
Ca0_2 Ca0_4 3.441400 1_565
Ca0_2 Mg1_0 3.448485 1_565
Ca0_2 Mg1_6 3.448485 1_455
Ca0_2 Ca1_6 3.543557 1_455
Ca0_2 Ca1_7 3.543557 1_454
Ca0_2 Ca1_0 3.543557 1_565
Ca0_2 Ca1_1 3.543557 1_564
Ca0_2 Mg0_6 3.679075 1_455
Ca0_2 Mg0_0 3.679075 1_565
Ca0_3 Mg3_3 3.416470 1_555
Ca0_3 Mg3_2 3.416470 1_555
Ca0_3 Ca0_5 3.441400 1_455
Ca0_3 Ca0_5 3.441400 1_565
Ca0_3 Mg1_1 3.448485 1_565
Ca0_3 Mg1_7 3.448485 1_455
Ca0_3 Ca1_7 3.543557 1_455
Ca0_3 Ca1_6 3.543557 1_455
Ca0_3 Ca1_1 3.543557 1_565
Ca0_3 Ca1_0 3.543557 1_565
Ca0_3 Mg0_7 3.679075 1_455
Ca0_3 Mg0_1 3.679075 1_565
Ca0_4 Mg3_4 3.416470 1_555
Ca0_4 Mg3_5 3.416470 1_554
Ca0_4 Mg1_6 3.448485 1_555
Ca0_4 Mg1_0 3.448485 1_555
Ca0_4 Ca1_6 3.543557 1_555
Ca0_4 Ca1_0 3.543557 1_555
Ca0_4 Ca1_7 3.543557 1_554
Ca0_4 Ca1_1 3.543557 1_554
Ca0_4 Mg0_6 3.679075 1_555
Ca0_4 Mg0_0 3.679075 1_555
Ca0_5 Mg3_5 3.416470 1_555
Ca0_5 Mg3_4 3.416470 1_555
Ca0_5 Mg1_7 3.448485 1_555
Ca0_5 Mg1_1 3.448485 1_555
Ca0_5 Ca1_7 3.543557 1_555
Ca0_5 Ca1_1 3.543557 1_555
Ca0_5 Ca1_6 3.543557 1_555
Ca0_5 Ca1_0 3.543557 1_555
Ca0_5 Mg0_7 3.679075 1_555
Ca0_5 Mg0_1 3.679075 1_555
Ca0_6 Mg3_6 3.416470 1_555
Ca0_6 Mg3_7 3.416470 1_554
Ca0_6 Mg1_4 3.448485 1_565
Ca0_6 Mg1_2 3.448485 1_555
Ca0_6 Ca1_2 3.543557 1_555
Ca0_6 Ca1_4 3.543557 1_565
Ca0_6 Ca1_3 3.543557 1_554
Ca0_6 Ca1_5 3.543557 1_564
Ca0_6 Mg0_2 3.679075 1_555
Ca0_6 Mg0_4 3.679075 1_565
Ca0_7 Mg3_7 3.416470 1_555
Ca0_7 Mg3_6 3.416470 1_555
Ca0_7 Mg1_5 3.448485 1_565
Ca0_7 Mg1_3 3.448485 1_555
Ca0_7 Ca1_3 3.543557 1_555
Ca0_7 Ca1_5 3.543557 1_565
Ca0_7 Ca1_4 3.543557 1_565
Ca0_7 Ca1_2 3.543557 1_555
Ca0_7 Mg0_3 3.679075 1_555
Ca0_7 Mg0_5 3.679075 1_565
Ca1_0 Mg0_0 3.416470 1_555
Ca1_0 Mg0_1 3.416470 1_555
Ca1_0 Ca1_6 3.441400 1_445
Ca1_0 Ca1_6 3.441400 1_555
Ca1_0 Mg2_4 3.448485 1_555
Ca1_0 Mg2_2 3.448485 1_545
Ca1_0 Mg3_2 3.679075 1_545
Ca1_0 Mg3_4 3.679075 1_555
Ca1_1 Mg0_1 3.416470 1_555
Ca1_1 Mg0_0 3.416470 1_556
Ca1_1 Ca1_7 3.441400 1_445
Ca1_1 Ca1_7 3.441400 1_555
Ca1_1 Mg2_3 3.448485 1_545
Ca1_1 Mg2_5 3.448485 1_555
Ca1_1 Mg3_3 3.679075 1_545
Ca1_1 Mg3_5 3.679075 1_555
Ca1_2 Mg0_2 3.416470 1_555
Ca1_2 Mg0_3 3.416470 1_555
Ca1_2 Ca1_4 3.441400 1_455
Ca1_2 Ca1_4 3.441400 1_565
Ca1_2 Mg2_6 3.448485 1_555
Ca1_2 Mg2_0 3.448485 1_555
Ca1_2 Mg3_6 3.679075 1_555
Ca1_2 Mg3_0 3.679075 1_555
Ca1_3 Mg0_3 3.416470 1_555
Ca1_3 Mg0_2 3.416470 1_556
Ca1_3 Ca1_5 3.441400 1_455
Ca1_3 Ca1_5 3.441400 1_565
Ca1_3 Mg2_7 3.448485 1_555
Ca1_3 Mg2_1 3.448485 1_555
Ca1_3 Mg3_7 3.679075 1_555
Ca1_3 Mg3_1 3.679075 1_555
Ca1_4 Mg0_4 3.416470 1_555
Ca1_4 Mg0_5 3.416470 1_555
Ca1_4 Mg2_0 3.448485 1_655
Ca1_4 Mg2_6 3.448485 1_545
Ca1_4 Mg3_6 3.679075 1_545
Ca1_4 Mg3_0 3.679075 1_655
Ca1_5 Mg0_5 3.416470 1_555
Ca1_5 Mg0_4 3.416470 1_556
Ca1_5 Mg2_1 3.448485 1_655
Ca1_5 Mg2_7 3.448485 1_545
Ca1_5 Mg3_7 3.679075 1_545
Ca1_5 Mg3_1 3.679075 1_655
Ca1_6 Mg0_6 3.416470 1_555
Ca1_6 Mg0_7 3.416470 1_555
Ca1_6 Mg2_2 3.448485 1_655
Ca1_6 Mg2_4 3.448485 1_555
Ca1_6 Mg3_2 3.679075 1_655
Ca1_6 Mg3_4 3.679075 1_555
Ca1_7 Mg0_7 3.416470 1_555
Ca1_7 Mg0_6 3.416470 1_556
Ca1_7 Mg2_3 3.448485 1_655
Ca1_7 Mg2_5 3.448485 1_555
Ca1_7 Mg3_3 3.679075 1_655
Ca1_7 Mg3_5 3.679075 1_555
Mg0_0 Mg1_2 3.215186 1_555
Mg0_0 Mg1_4 3.215186 1_455
Mg0_0 Mg0_6 3.441400 1_445
Mg0_0 Mg0_6 3.441400 1_555
Mg0_0 Mg2_4 3.455122 1_555
Mg0_0 Mg2_5 3.455122 1_554
Mg0_0 Mg2_2 3.455122 1_545
Mg0_0 Mg2_3 3.455122 1_544
Mg0_1 Mg1_3 3.215186 1_555
Mg0_1 Mg1_5 3.215186 1_455
Mg0_1 Mg0_7 3.441400 1_445
Mg0_1 Mg0_7 3.441400 1_555
Mg0_1 Mg2_5 3.455122 1_555
Mg0_1 Mg2_3 3.455122 1_545
Mg0_1 Mg2_4 3.455122 1_555
Mg0_1 Mg2_2 3.455122 1_545
Mg0_2 Mg1_0 3.215186 1_565
Mg0_2 Mg1_6 3.215186 1_455
Mg0_2 Mg0_4 3.441400 1_565
Mg0_2 Mg0_4 3.441400 1_455
Mg0_2 Mg2_6 3.455122 1_555
Mg0_2 Mg2_0 3.455122 1_555
Mg0_2 Mg2_7 3.455122 1_554
Mg0_2 Mg2_1 3.455122 1_554
Mg0_3 Mg1_1 3.215186 1_565
Mg0_3 Mg1_7 3.215186 1_455
Mg0_3 Mg0_5 3.441400 1_455
Mg0_3 Mg0_5 3.441400 1_565
Mg0_3 Mg2_7 3.455122 1_555
Mg0_3 Mg2_1 3.455122 1_555
Mg0_3 Mg2_6 3.455122 1_555
Mg0_3 Mg2_0 3.455122 1_555
Mg0_4 Mg1_6 3.215186 1_555
Mg0_4 Mg1_0 3.215186 1_555
Mg0_4 Mg2_0 3.455122 1_655
Mg0_4 Mg2_6 3.455122 1_545
Mg0_4 Mg2_1 3.455122 1_654
Mg0_4 Mg2_7 3.455122 1_544
Mg0_5 Mg1_7 3.215186 1_555
Mg0_5 Mg1_1 3.215186 1_555
Mg0_5 Mg2_1 3.455122 1_655
Mg0_5 Mg2_0 3.455122 1_655
Mg0_5 Mg2_7 3.455122 1_545
Mg0_5 Mg2_6 3.455122 1_545
Mg0_6 Mg1_2 3.215186 1_555
Mg0_6 Mg1_4 3.215186 1_565
Mg0_6 Mg2_2 3.455122 1_655
Mg0_6 Mg2_3 3.455122 1_654
Mg0_6 Mg2_4 3.455122 1_555
Mg0_6 Mg2_5 3.455122 1_554
Mg0_7 Mg1_5 3.215186 1_565
Mg0_7 Mg1_3 3.215186 1_555
Mg0_7 Mg2_3 3.455122 1_655
Mg0_7 Mg2_2 3.455122 1_655
Mg0_7 Mg2_5 3.455122 1_555
Mg0_7 Mg2_4 3.455122 1_555
Mg1_0 Mg2_6 3.268993 1_545
Mg1_0 Mg2_7 3.268993 1_544
Mg1_0 Mg1_6 3.441400 1_445
Mg1_0 Mg1_6 3.441400 1_555
Mg1_0 Mg3_2 3.455122 1_545
Mg1_0 Mg3_3 3.455122 1_544
Mg1_0 Mg3_4 3.455122 1_555
Mg1_0 Mg3_5 3.455122 1_554
Mg1_1 Mg2_7 3.268993 1_545
Mg1_1 Mg2_6 3.268993 1_545
Mg1_1 Mg1_7 3.441400 1_445
Mg1_1 Mg1_7 3.441400 1_555
Mg1_1 Mg3_3 3.455122 1_545
Mg1_1 Mg3_5 3.455122 1_555
Mg1_1 Mg3_2 3.455122 1_545
Mg1_1 Mg3_4 3.455122 1_555
Mg1_2 Mg2_4 3.268993 1_555
Mg1_2 Mg2_5 3.268993 1_554
Mg1_2 Mg1_4 3.441400 1_455
Mg1_2 Mg1_4 3.441400 1_565
Mg1_2 Mg3_0 3.455122 1_555
Mg1_2 Mg3_1 3.455122 1_554
Mg1_2 Mg3_6 3.455122 1_555
Mg1_2 Mg3_7 3.455122 1_554
Mg1_3 Mg2_5 3.268993 1_555
Mg1_3 Mg2_4 3.268993 1_555
Mg1_3 Mg1_5 3.441400 1_455
Mg1_3 Mg1_5 3.441400 1_565
Mg1_3 Mg3_1 3.455122 1_555
Mg1_3 Mg3_0 3.455122 1_555
Mg1_3 Mg3_7 3.455122 1_555
Mg1_3 Mg3_6 3.455122 1_555
Mg1_4 Mg2_2 3.268993 1_645
Mg1_4 Mg2_3 3.268993 1_644
Mg1_4 Mg3_6 3.455122 1_545
Mg1_4 Mg3_0 3.455122 1_655
Mg1_4 Mg3_7 3.455122 1_544
Mg1_4 Mg3_1 3.455122 1_654
Mg1_5 Mg2_3 3.268993 1_645
Mg1_5 Mg2_2 3.268993 1_645
Mg1_5 Mg3_7 3.455122 1_545
Mg1_5 Mg3_1 3.455122 1_655
Mg1_5 Mg3_6 3.455122 1_545
Mg1_5 Mg3_0 3.455122 1_655
Mg1_6 Mg2_0 3.268993 1_655
Mg1_6 Mg2_1 3.268993 1_654
Mg1_6 Mg3_4 3.455122 1_555
Mg1_6 Mg3_5 3.455122 1_554
Mg1_6 Mg3_2 3.455122 1_655
Mg1_6 Mg3_3 3.455122 1_654
Mg1_7 Mg2_1 3.268993 1_655
Mg1_7 Mg2_0 3.268993 1_655
Mg1_7 Mg3_5 3.455122 1_555
Mg1_7 Mg3_4 3.455122 1_555
Mg1_7 Mg3_3 3.455122 1_655
Mg1_7 Mg3_2 3.455122 1_655
Mg2_0 Mg3_4 3.215186 1_455
Mg2_0 Mg3_2 3.215186 1_555
Mg2_0 Mg2_6 3.441400 1_445
Mg2_0 Mg2_6 3.441400 1_555
Mg2_1 Mg3_5 3.215186 1_455
Mg2_1 Mg3_3 3.215186 1_555
Mg2_1 Mg2_7 3.441400 1_555
Mg2_1 Mg2_7 3.441400 1_445
Mg2_2 Mg3_6 3.215186 1_455
Mg2_2 Mg3_0 3.215186 1_565
Mg2_2 Mg2_4 3.441400 1_565
Mg2_2 Mg2_4 3.441400 1_455
Mg2_3 Mg3_7 3.215186 1_455
Mg2_3 Mg3_1 3.215186 1_565
Mg2_3 Mg2_5 3.441400 1_455
Mg2_3 Mg2_5 3.441400 1_565
Mg2_4 Mg3_0 3.215186 1_555
Mg2_4 Mg3_6 3.215186 1_555
Mg2_5 Mg3_1 3.215186 1_555
Mg2_5 Mg3_7 3.215186 1_555
Mg2_6 Mg3_2 3.215186 1_555
Mg2_6 Mg3_4 3.215186 1_565
Mg2_7 Mg3_3 3.215186 1_555
Mg2_7 Mg3_5 3.215186 1_565
Mg3_0 Mg3_6 3.441400 1_445
Mg3_0 Mg3_6 3.441400 1_555
Mg3_1 Mg3_7 3.441400 1_555
Mg3_1 Mg3_7 3.441400 1_445
Mg3_2 Mg3_4 3.441400 1_565
Mg3_2 Mg3_4 3.441400 1_455
Mg3_3 Mg3_5 3.441400 1_455
Mg3_3 Mg3_5 3.441400 1_565
