# generated using pymatgen
data_K2Mo2Se2O11
_symmetry_space_group_name_H-M   'P 1'
_cell_length_a   6.89882100
_cell_length_b   10.47016400
_cell_length_c   15.08942500
_cell_angle_alpha   90.00000000
_cell_angle_beta   90.00000000
_cell_angle_gamma   90.00000000
_symmetry_Int_Tables_number   1
_chemical_formula_structural   K2Mo2Se2O11
_chemical_formula_sum   'K8 Mo8 Se8 O44'
_cell_volume   1089.93613673
_cell_formula_units_Z   4
loop_
 _symmetry_equiv_pos_site_id
 _symmetry_equiv_pos_as_xyz
  1  'x, y, z'
loop_
 _atom_site_type_symbol
 _atom_site_label
 _atom_site_symmetry_multiplicity
 _atom_site_fract_x
 _atom_site_fract_y
 _atom_site_fract_z
 _atom_site_occupancy
  K  K0  1  0.47026300  0.52759200  0.75000000  1
  K  K1  1  0.02973700  0.02759200  0.75000000  1
  K  K2  1  0.52973700  0.47240800  0.25000000  1
  K  K3  1  0.97026300  0.97240800  0.25000000  1
  K  K4  1  0.50000000  0.50000000  0.50000000  1
  K  K5  1  0.00000000  0.00000000  0.00000000  1
  K  K6  1  0.50000000  0.50000000  0.00000000  1
  K  K7  1  0.00000000  0.00000000  0.50000000  1
  Mo  Mo0  1  0.47883600  0.16382000  0.62688500  1
  Mo  Mo1  1  0.02116400  0.66382000  0.87311500  1
  Mo  Mo2  1  0.52116400  0.83618000  0.12688500  1
  Mo  Mo3  1  0.97883600  0.33618000  0.37311500  1
  Mo  Mo4  1  0.52116400  0.83618000  0.37311500  1
  Mo  Mo5  1  0.97883600  0.33618000  0.12688500  1
  Mo  Mo6  1  0.47883600  0.16382000  0.87311500  1
  Mo  Mo7  1  0.02116400  0.66382000  0.62688500  1
  Se  Se0  1  0.51067000  0.16202400  0.38786100  1
  Se  Se1  1  0.98933000  0.66202400  0.11213900  1
  Se  Se2  1  0.48933000  0.83797600  0.88786100  1
  Se  Se3  1  0.01067000  0.33797600  0.61213900  1
  Se  Se4  1  0.48933000  0.83797600  0.61213900  1
  Se  Se5  1  0.01067000  0.33797600  0.88786100  1
  Se  Se6  1  0.51067000  0.16202400  0.11213900  1
  Se  Se7  1  0.98933000  0.66202400  0.38786100  1
  O  O0  1  0.54440900  0.32236300  0.64452600  1
  O  O1  1  0.95559100  0.82236300  0.85547400  1
  O  O2  1  0.45559100  0.67763700  0.14452600  1
  O  O3  1  0.04440900  0.17763700  0.35547400  1
  O  O4  1  0.45559100  0.67763700  0.35547400  1
  O  O5  1  0.04440900  0.17763700  0.14452600  1
  O  O6  1  0.54440900  0.32236300  0.85547400  1
  O  O7  1  0.95559100  0.82236300  0.64452600  1
  O  O8  1  0.70480400  0.08866600  0.61570400  1
  O  O9  1  0.79519600  0.58866600  0.88429600  1
  O  O10  1  0.29519600  0.91133400  0.11570400  1
  O  O11  1  0.20480400  0.41133400  0.38429600  1
  O  O12  1  0.29519600  0.91133400  0.38429600  1
  O  O13  1  0.20480400  0.41133400  0.11570400  1
  O  O14  1  0.70480400  0.08866600  0.88429600  1
  O  O15  1  0.79519600  0.58866600  0.61570400  1
  O  O16  1  0.42970500  0.11993600  0.75000000  1
  O  O17  1  0.07029500  0.61993600  0.75000000  1
  O  O18  1  0.57029500  0.88006400  0.25000000  1
  O  O19  1  0.92970500  0.38006400  0.25000000  1
  O  O20  1  0.42109000  0.18649800  0.49596200  1
  O  O21  1  0.07891000  0.68649800  0.00403800  1
  O  O22  1  0.57891000  0.81350200  0.99596200  1
  O  O23  1  0.92109000  0.31350200  0.50403800  1
  O  O24  1  0.57891000  0.81350200  0.50403800  1
  O  O25  1  0.92109000  0.31350200  0.99596200  1
  O  O26  1  0.42109000  0.18649800  0.00403800  1
  O  O27  1  0.07891000  0.68649800  0.49596200  1
  O  O28  1  0.66046500  0.29225000  0.37265100  1
  O  O29  1  0.83953500  0.79225000  0.12734900  1
  O  O30  1  0.33953500  0.70775000  0.87265100  1
  O  O31  1  0.16046500  0.20775000  0.62734900  1
  O  O32  1  0.33953500  0.70775000  0.62734900  1
  O  O33  1  0.16046500  0.20775000  0.87265100  1
  O  O34  1  0.66046500  0.29225000  0.12734900  1
  O  O35  1  0.83953500  0.79225000  0.37265100  1
  O  O36  1  0.66388000  0.03332400  0.39670700  1
  O  O37  1  0.83612000  0.53332400  0.10329300  1
  O  O38  1  0.33612000  0.96667600  0.89670700  1
  O  O39  1  0.16388000  0.46667600  0.60329300  1
  O  O40  1  0.33612000  0.96667600  0.60329300  1
  O  O41  1  0.16388000  0.46667600  0.89670700  1
  O  O42  1  0.66388000  0.03332400  0.10329300  1
  O  O43  1  0.83612000  0.53332400  0.39670700  1
loop_
_geom_bond_atom_site_label_1
_geom_bond_atom_site_label_2
_geom_bond_distance
_geom_bond_site_symmetry_2
K0 O6 2.722484 1_555
K0 O0 2.722484 1_555
K0 O32 2.792248 1_555
K0 O30 2.792248 1_555
K0 O17 2.923797 1_555
K0 O9 3.088756 1_555
K0 O15 3.088756 1_555
K0 O41 3.126502 1_555
K0 O39 3.126502 1_555
K1 O1 2.722484 1_445
K1 O7 2.722484 1_445
K1 O31 2.792248 1_555
K1 O33 2.792248 1_555
K1 O16 2.923797 1_555
K1 O14 3.088756 1_455
K1 O8 3.088756 1_455
K1 O40 3.126502 1_545
K1 O38 3.126502 1_545
K2 O4 2.722484 1_555
K2 O2 2.722484 1_555
K2 O28 2.792248 1_555
K2 O34 2.792248 1_555
K2 O19 2.923797 1_555
K2 O13 3.088756 1_555
K2 O11 3.088756 1_555
K2 O43 3.126502 1_555
K2 O37 3.126502 1_555
K3 O5 2.722484 1_665
K3 O3 2.722484 1_665
K3 O35 2.792248 1_555
K3 O29 2.792248 1_555
K3 O18 2.923797 1_555
K3 O10 3.088756 1_655
K3 O12 3.088756 1_655
K3 O42 3.126502 1_565
K3 O36 3.126502 1_565
K4 O39 2.815679 1_555
K4 O43 2.815679 1_555
K4 O11 2.838551 1_555
K4 O15 2.838551 1_555
K4 O4 2.882533 1_555
K4 O0 2.882533 1_555
K4 O28 3.106368 1_555
K4 O32 3.106368 1_555
K5 O42 2.815679 1_455
K5 O38 2.815679 1_544
K5 O10 2.838551 1_545
K5 O14 2.838551 1_454
K5 O5 2.882533 1_555
K5 O1 2.882533 1_444
K5 O29 3.106368 1_445
K5 O33 3.106368 1_554
K6 O41 2.815679 1_554
K6 O37 2.815679 1_555
K6 O13 2.838551 1_555
K6 O9 2.838551 1_554
K6 O2 2.882533 1_555
K6 O6 2.882533 1_554
K6 O34 3.106368 1_555
K6 O30 3.106368 1_554
K7 O36 2.815679 1_455
K7 O40 2.815679 1_545
K7 O12 2.838551 1_545
K7 O8 2.838551 1_455
K7 O3 2.882533 1_555
K7 O7 2.882533 1_445
K7 O35 3.106368 1_445
K7 O31 3.106368 1_555
Mo0 O0 1.740979 1_555
Mo0 O8 1.754379 1_555
Mo0 O16 1.943496 1_555
Mo0 O20 2.029259 1_555
Mo0 O31 2.244039 1_555
Mo0 O40 2.314464 1_545
Mo1 O1 1.740979 1_455
Mo1 O9 1.754379 1_455
Mo1 O17 1.943496 1_555
Mo1 O21 2.029259 1_556
Mo1 O30 2.244039 1_555
Mo1 O41 2.314464 1_555
Mo2 O2 1.740979 1_555
Mo2 O10 1.754379 1_555
Mo2 O18 1.943496 1_555
Mo2 O22 2.029259 1_554
Mo2 O29 2.244039 1_555
Mo2 O42 2.314464 1_565
Mo3 O3 1.740979 1_655
Mo3 O11 1.754379 1_655
Mo3 O19 1.943496 1_555
Mo3 O23 2.029259 1_555
Mo3 O28 2.244039 1_555
Mo3 O43 2.314464 1_555
Mo4 O4 1.740979 1_555
Mo4 O12 1.754379 1_555
Mo4 O18 1.943496 1_555
Mo4 O24 2.029259 1_555
Mo4 O35 2.244039 1_555
Mo4 O36 2.314464 1_565
Mo5 O5 1.740979 1_655
Mo5 O13 1.754379 1_655
Mo5 O19 1.943496 1_555
Mo5 O25 2.029259 1_554
Mo5 O34 2.244039 1_555
Mo5 O37 2.314464 1_555
Mo6 O6 1.740979 1_555
Mo6 O14 1.754379 1_555
Mo6 O16 1.943496 1_555
Mo6 O26 2.029259 1_556
Mo6 O33 2.244039 1_555
Mo6 O38 2.314464 1_545
Mo7 O7 1.740979 1_455
Mo7 O15 1.754379 1_455
Mo7 O17 1.943496 1_555
Mo7 O27 2.029259 1_555
Mo7 O32 2.244039 1_555
Mo7 O39 2.314464 1_555
O20 Se0 1.763047 1_555
O21 Se1 1.763047 1_455
O22 Se2 1.763047 1_555
O23 Se3 1.763047 1_655
O24 Se4 1.763047 1_555
O25 Se5 1.763047 1_655
O26 Se6 1.763047 1_555
O27 Se7 1.763047 1_455
O28 Se0 1.726183 1_555
O29 Se1 1.726183 1_555
O30 Se2 1.726183 1_555
O31 Se3 1.726183 1_555
O32 Se4 1.726183 1_555
O33 Se5 1.726183 1_555
O34 Se6 1.726183 1_555
O35 Se7 1.726183 1_555
O36 Se0 1.717784 1_555
O37 Se1 1.717784 1_555
O38 Se2 1.717784 1_555
O39 Se3 1.717784 1_555
O40 Se4 1.717784 1_555
O41 Se5 1.717784 1_555
O42 Se6 1.717784 1_555
O43 Se7 1.717784 1_555
