# generated using pymatgen
data_Al3P2(H4O7)2
_symmetry_space_group_name_H-M   'P 1'
_cell_length_a   7.43551459
_cell_length_b   7.83011419
_cell_length_c   10.05681976
_cell_angle_alpha   70.21821961
_cell_angle_beta   69.50047397
_cell_angle_gamma   65.56580100
_symmetry_Int_Tables_number   1
_chemical_formula_structural   Al3P2(H4O7)2
_chemical_formula_sum   'Al6 P4 H16 O28'
_cell_volume   486.28509537
_cell_formula_units_Z   2
loop_
 _symmetry_equiv_pos_site_id
 _symmetry_equiv_pos_as_xyz
  1  'x, y, z'
loop_
 _atom_site_type_symbol
 _atom_site_label
 _atom_site_symmetry_multiplicity
 _atom_site_fract_x
 _atom_site_fract_y
 _atom_site_fract_z
 _atom_site_occupancy
  Al  Al0  1  0.73339700  0.82270400  0.24511700  1
  Al  Al1  1  0.26660300  0.17729600  0.75488300  1
  Al  Al2  1  0.24680800  0.81801600  0.73602000  1
  Al  Al3  1  0.75319200  0.18198400  0.26398000  1
  Al  Al4  1  0.75719200  0.50161200  0.75322000  1
  Al  Al5  1  0.24280800  0.49838800  0.24678000  1
  P  P0  1  0.65143900  0.60595500  0.05946100  1
  P  P1  1  0.34856100  0.39404500  0.94053900  1
  P  P2  1  0.16591300  0.60212200  0.54827800  1
  P  P3  1  0.83408700  0.39787800  0.45172200  1
  H  H0  1  0.86648900  0.04848100  0.76368500  1
  H  H1  1  0.13351100  0.95151900  0.23631500  1
  H  H2  1  0.86180900  0.83343900  0.82818300  1
  H  H3  1  0.13819100  0.16656100  0.17181700  1
  H  H4  1  0.35740600  0.87335900  0.40563600  1
  H  H5  1  0.64259400  0.12664100  0.59436400  1
  H  H6  1  0.40379100  0.07043200  0.32056300  1
  H  H7  1  0.59620900  0.92956800  0.67943700  1
  H  H8  1  0.82705300  0.85615700  0.45484300  1
  H  H9  1  0.17294700  0.14384300  0.54515700  1
  H  H10  1  0.30591100  0.86010000  0.95870700  1
  H  H11  1  0.69408900  0.13990000  0.04129300  1
  H  H12  1  0.04011900  0.69496600  0.07139200  1
  H  H13  1  0.95988100  0.30503400  0.92860800  1
  H  H14  1  0.57762100  0.70379600  0.57262100  1
  H  H15  1  0.42237900  0.29620400  0.42737900  1
  O  O0  1  0.93439200  0.64109700  0.61647500  1
  O  O1  1  0.06560800  0.35890300  0.38352500  1
  O  O2  1  0.19633800  0.64153100  0.38111600  1
  O  O3  1  0.80366200  0.35846900  0.61888400  1
  O  O4  1  0.71656300  0.64008500  0.89062300  1
  O  O5  1  0.28343700  0.35991500  0.10937700  1
  O  O6  1  0.94570400  0.91533800  0.80033600  1
  O  O7  1  0.05429600  0.08466200  0.19966400  1
  O  O8  1  0.76246600  0.93386100  0.37417400  1
  O  O9  1  0.23753400  0.06613900  0.62582600  1
  O  O10  1  0.26620900  0.93147200  0.86678200  1
  O  O11  1  0.73379100  0.06852800  0.13321800  1
  O  O12  1  0.70466400  0.60567200  0.39440400  1
  O  O13  1  0.29533600  0.39432800  0.60559500  1
  O  O14  1  0.68964000  0.76016800  0.09718600  1
  O  O15  1  0.31036000  0.23983200  0.90281400  1
  O  O16  1  0.01796600  0.69452200  0.17352600  1
  O  O17  1  0.98203400  0.30547800  0.82647400  1
  O  O18  1  0.42937300  0.94005400  0.31180900  1
  O  O19  1  0.57062700  0.05994600  0.68819100  1
  O  O20  1  0.21753000  0.59718500  0.87620100  1
  O  O21  1  0.78247000  0.40281500  0.12379900  1
  O  O22  1  0.53999100  0.70665400  0.67617800  1
  O  O23  1  0.46000900  0.29334600  0.32382200  1
  O  O24  1  0.22999100  0.75041400  0.57397600  1
  O  O25  1  0.77000900  0.24958600  0.42602400  1
  O  O26  1  0.42013000  0.63617800  0.11120500  1
  O  O27  1  0.57987000  0.36382200  0.88879500  1
loop_
_geom_bond_atom_site_label_1
_geom_bond_atom_site_label_2
_geom_bond_distance
_geom_bond_site_symmetry_2
Al0 O11 1.872847 1_565
Al0 O14 1.876922 1_555
Al0 O12 1.880518 1_555
Al0 O8 1.898836 1_555
Al0 O16 1.915215 1_655
Al0 O18 2.010261 1_555
Al1 O10 1.872847 1_545
Al1 O15 1.876922 1_555
Al1 O13 1.880523 1_555
Al1 O9 1.898836 1_555
Al1 O17 1.915215 1_455
Al1 O19 2.010261 1_555
Al2 O20 1.863116 1_555
Al2 O9 1.868903 1_565
Al2 O10 1.889187 1_555
Al2 O24 1.932085 1_555
Al2 O22 1.933524 1_555
Al2 O6 1.979771 1_455
Al3 O21 1.863116 1_555
Al3 O8 1.868903 1_545
Al3 O11 1.889187 1_555
Al3 O25 1.932085 1_555
Al3 O23 1.933524 1_555
Al3 O7 1.979771 1_655
Al4 O3 1.891673 1_555
Al4 O4 1.904504 1_555
Al4 O17 1.915457 1_555
Al4 O22 1.917161 1_555
Al4 O27 1.919239 1_555
Al4 O0 1.929985 1_555
Al5 O2 1.891673 1_555
Al5 O5 1.904504 1_555
Al5 O16 1.915457 1_555
Al5 O23 1.917161 1_555
Al5 O26 1.919239 1_555
Al5 O1 1.929985 1_555
H0 O6 0.976524 1_545
H1 O7 0.976524 1_565
H2 O6 0.982762 1_555
H3 O7 0.982762 1_555
H4 O18 0.996713 1_555
H5 O19 0.996713 1_555
H6 O18 0.987205 1_545
H7 O19 0.987205 1_565
H8 O8 0.977764 1_555
H9 O9 0.977764 1_555
H10 O10 0.979321 1_555
H11 O11 0.979321 1_555
H12 O16 0.980675 1_555
H13 O17 0.980675 1_555
H14 O22 0.984843 1_555
H15 O23 0.984843 1_555
O0 P2 1.551487 1_655
O1 P3 1.551487 1_455
O2 P2 1.553320 1_555
O3 P3 1.553320 1_555
O4 P0 1.553398 1_556
O5 P1 1.553398 1_554
O12 P3 1.537528 1_555
O13 P2 1.537526 1_555
O14 P0 1.533626 1_555
O15 P1 1.533626 1_555
O20 P1 1.536475 1_555
O21 P0 1.536475 1_555
O24 P2 1.545672 1_555
O25 P3 1.545672 1_555
O26 P0 1.550689 1_555
O27 P1 1.550689 1_555
