# generated using pymatgen
data_TlVPO6
_symmetry_space_group_name_H-M   'P 1'
_cell_length_a   6.82714800
_cell_length_b   9.69264000
_cell_length_c   18.06332000
_cell_angle_alpha   90.00000000
_cell_angle_beta   90.00000000
_cell_angle_gamma   90.00000000
_symmetry_Int_Tables_number   1
_chemical_formula_structural   TlVPO6
_chemical_formula_sum   'Tl8 V8 P8 O48'
_cell_volume   1195.30566015
_cell_formula_units_Z   8
loop_
 _symmetry_equiv_pos_site_id
 _symmetry_equiv_pos_as_xyz
  1  'x, y, z'
loop_
 _atom_site_type_symbol
 _atom_site_label
 _atom_site_symmetry_multiplicity
 _atom_site_fract_x
 _atom_site_fract_y
 _atom_site_fract_z
 _atom_site_occupancy
  Tl  Tl0  1  0.77205400  0.30298800  0.09900500  1
  Tl  Tl1  1  0.22794600  0.80298800  0.40099500  1
  Tl  Tl2  1  0.72794600  0.69701200  0.59900500  1
  Tl  Tl3  1  0.27205400  0.19701200  0.90099500  1
  Tl  Tl4  1  0.22794600  0.69701200  0.90099500  1
  Tl  Tl5  1  0.77205400  0.19701200  0.59900500  1
  Tl  Tl6  1  0.27205400  0.30298800  0.40099500  1
  Tl  Tl7  1  0.72794600  0.80298800  0.09900500  1
  V  V0  1  0.47604400  0.54608300  0.24197800  1
  V  V1  1  0.52395600  0.04608300  0.25802200  1
  V  V2  1  0.02395600  0.45391700  0.74197800  1
  V  V3  1  0.97604400  0.95391700  0.75802200  1
  V  V4  1  0.52395600  0.45391700  0.75802200  1
  V  V5  1  0.47604400  0.95391700  0.74197800  1
  V  V6  1  0.97604400  0.54608300  0.25802200  1
  V  V7  1  0.02395600  0.04608300  0.24197800  1
  P  P0  1  0.20061200  0.60209400  0.10011800  1
  P  P1  1  0.79938800  0.10209400  0.39988200  1
  P  P2  1  0.29938800  0.39790600  0.60011800  1
  P  P3  1  0.70061200  0.89790600  0.89988200  1
  P  P4  1  0.79938800  0.39790600  0.89988200  1
  P  P5  1  0.20061200  0.89790600  0.60011800  1
  P  P6  1  0.70061200  0.60209400  0.39988200  1
  P  P7  1  0.29938800  0.10209400  0.10011800  1
  O  O0  1  0.14055200  0.73442000  0.05871900  1
  O  O1  1  0.85944800  0.23442000  0.44128100  1
  O  O2  1  0.35944800  0.26558000  0.55871900  1
  O  O3  1  0.64055200  0.76558000  0.94128100  1
  O  O4  1  0.85944800  0.26558000  0.94128100  1
  O  O5  1  0.14055200  0.76558000  0.55871900  1
  O  O6  1  0.64055200  0.73442000  0.44128100  1
  O  O7  1  0.35944800  0.23442000  0.05871900  1
  O  O8  1  0.23089800  0.50435800  0.03384100  1
  O  O9  1  0.76910200  0.00435800  0.46615900  1
  O  O10  1  0.26910200  0.49564200  0.53384100  1
  O  O11  1  0.73089800  0.99564200  0.96615900  1
  O  O12  1  0.76910200  0.49564200  0.96615900  1
  O  O13  1  0.23089800  0.99564200  0.53384100  1
  O  O14  1  0.73089800  0.50435800  0.46615900  1
  O  O15  1  0.26910200  0.00435800  0.03384100  1
  O  O16  1  0.39173000  0.62121400  0.14645300  1
  O  O17  1  0.60827000  0.12121400  0.35354700  1
  O  O18  1  0.10827000  0.37878600  0.64645300  1
  O  O19  1  0.89173000  0.87878600  0.85354700  1
  O  O20  1  0.60827000  0.37878600  0.85354700  1
  O  O21  1  0.39173000  0.87878600  0.64645300  1
  O  O22  1  0.89173000  0.62121400  0.35354700  1
  O  O23  1  0.10827000  0.12121400  0.14645300  1
  O  O24  1  0.47037500  0.38069200  0.22732700  1
  O  O25  1  0.52962500  0.88069200  0.27267300  1
  O  O26  1  0.02962500  0.61930800  0.72732700  1
  O  O27  1  0.97037500  0.11930800  0.77267300  1
  O  O28  1  0.52962500  0.61930800  0.77267300  1
  O  O29  1  0.47037500  0.11930800  0.72732700  1
  O  O30  1  0.97037500  0.38069200  0.27267300  1
  O  O31  1  0.02962500  0.88069200  0.22732700  1
  O  O32  1  0.72119200  0.60124300  0.22458800  1
  O  O33  1  0.27880800  0.10124300  0.27541200  1
  O  O34  1  0.77880800  0.39875700  0.72458800  1
  O  O35  1  0.22119200  0.89875700  0.77541200  1
  O  O36  1  0.27880800  0.39875700  0.77541200  1
  O  O37  1  0.72119200  0.89875700  0.72458800  1
  O  O38  1  0.22119200  0.60124300  0.27541200  1
  O  O39  1  0.77880800  0.10124300  0.22458800  1
  O  O40  1  0.53384600  0.54951000  0.34846400  1
  O  O41  1  0.46615400  0.04951000  0.15153600  1
  O  O42  1  0.96615400  0.45049000  0.84846400  1
  O  O43  1  0.03384600  0.95049000  0.65153600  1
  O  O44  1  0.46615400  0.45049000  0.65153600  1
  O  O45  1  0.53384600  0.95049000  0.84846400  1
  O  O46  1  0.03384600  0.54951000  0.15153600  1
  O  O47  1  0.96615400  0.04951000  0.34846400  1
loop_
_geom_bond_atom_site_label_1
_geom_bond_atom_site_label_2
_geom_bond_distance
_geom_bond_site_symmetry_2
O0 P0 1.540251 1_555
O1 P1 1.540251 1_555
O2 P2 1.540251 1_555
O3 P3 1.540251 1_555
O4 P4 1.540251 1_555
O5 P5 1.540251 1_555
O6 P6 1.540251 1_555
O7 P7 1.540251 1_555
O8 P0 1.540589 1_555
O9 P1 1.540589 1_555
O10 P2 1.540589 1_555
O11 P3 1.540589 1_555
O12 P4 1.540589 1_555
O13 P5 1.540589 1_555
O14 P6 1.540589 1_555
O15 P7 1.540589 1_555
O16 P0 1.561196 1_555
O16 V0 1.959334 1_555
O17 P1 1.561196 1_555
O17 V1 1.959334 1_555
O18 P2 1.561196 1_555
O18 V2 1.959334 1_555
O19 P3 1.561196 1_555
O19 V3 1.959334 1_555
O20 P4 1.561196 1_555
O20 V4 1.959334 1_555
O21 P5 1.561196 1_555
O21 V5 1.959334 1_555
O22 P6 1.561196 1_555
O22 V6 1.959334 1_555
O23 P7 1.561196 1_555
O23 V7 1.959334 1_555
O24 V0 1.625234 1_555
O25 V1 1.625234 1_565
O26 V2 1.625234 1_555
O27 V3 1.625234 1_545
O28 V4 1.625234 1_555
O29 V5 1.625234 1_545
O30 V6 1.625234 1_555
O31 V7 1.625234 1_565
O32 V0 1.784842 1_555
O32 V6 1.917778 1_555
O33 V1 1.784842 1_555
O33 V7 1.917778 1_555
O34 V2 1.784842 1_655
O34 V4 1.917778 1_555
O35 V3 1.784842 1_455
O35 V5 1.917778 1_555
O36 V4 1.784842 1_555
O36 V2 1.917778 1_555
O37 V5 1.784842 1_555
O37 V3 1.917778 1_555
O38 V6 1.784842 1_455
O38 V0 1.917778 1_555
O39 V7 1.784842 1_655
O39 V1 1.917778 1_555
O40 P6 1.555207 1_555
O40 V0 1.963835 1_555
O41 P7 1.555207 1_555
O41 V1 1.963835 1_555
O42 P4 1.555207 1_555
O42 V2 1.963835 1_655
O43 P5 1.555207 1_555
O43 V3 1.963835 1_455
O44 P2 1.555207 1_555
O44 V4 1.963835 1_555
O45 P3 1.555207 1_555
O45 V5 1.963835 1_555
O46 P0 1.555207 1_555
O46 V6 1.963835 1_455
O47 P1 1.555207 1_555
O47 V7 1.963835 1_655
