# generated using pymatgen
data_Zr6NiSn2
_symmetry_space_group_name_H-M   'P 1'
_cell_length_a   7.94671057
_cell_length_b   7.94671057
_cell_length_c   3.54376386
_cell_angle_alpha   90.00000000
_cell_angle_beta   90.00000000
_cell_angle_gamma   120.00000543
_symmetry_Int_Tables_number   1
_chemical_formula_structural   Zr6NiSn2
_chemical_formula_sum   'Zr6 Ni1 Sn2'
_cell_volume   193.80731923
_cell_formula_units_Z   1
loop_
 _symmetry_equiv_pos_site_id
 _symmetry_equiv_pos_as_xyz
  1  'x, y, z'
loop_
 _atom_site_type_symbol
 _atom_site_label
 _atom_site_symmetry_multiplicity
 _atom_site_fract_x
 _atom_site_fract_y
 _atom_site_fract_z
 _atom_site_occupancy
  Zr  Zr0  1  0.24285596  0.00000000  0.50000000  1
  Zr  Zr1  1  0.00000000  0.24285596  0.50000000  1
  Zr  Zr2  1  0.75714404  0.75714404  0.50000000  1
  Zr  Zr3  1  0.60227071  0.00000000  0.00000000  1
  Zr  Zr4  1  0.00000000  0.60227071  0.00000000  1
  Zr  Zr5  1  0.39772929  0.39772929  -0.00000000  1
  Ni  Ni0  1  0.00000000  0.00000000  0.00000000  1
  Sn  Sn0  1  0.33333300  0.66666700  0.50000000  1
  Sn  Sn1  1  0.66666700  0.33333300  0.50000000  1
loop_
_geom_bond_atom_site_label_1
_geom_bond_atom_site_label_2
_geom_bond_distance
_geom_bond_site_symmetry_2
Ni0 Zr2 2.619943 1_445
Ni0 Zr2 2.619943 1_444
Ni0 Zr0 2.619943 1_555
Ni0 Zr0 2.619943 1_554
Ni0 Zr1 2.619943 1_555
Ni0 Zr1 2.619943 1_554
Ni0 Zr5 3.160639 1_555
Ni0 Zr3 3.160640 1_455
Ni0 Zr4 3.160640 1_545
Sn0 Zr4 3.010411 1_555
Sn0 Zr4 3.010411 1_556
Sn0 Zr3 3.010413 1_566
Sn0 Zr3 3.010413 1_565
Sn0 Zr5 3.010417 1_556
Sn0 Zr5 3.010417 1_555
Sn0 Zr0 3.072161 1_565
Sn0 Zr1 3.072166 1_555
Sn0 Zr2 3.072169 1_555
Sn1 Zr3 3.010411 1_555
Sn1 Zr3 3.010411 1_556
Sn1 Zr4 3.010413 1_655
Sn1 Zr4 3.010413 1_656
Sn1 Zr5 3.010417 1_555
Sn1 Zr5 3.010417 1_556
Sn1 Zr1 3.072161 1_655
Sn1 Zr0 3.072166 1_555
Sn1 Zr2 3.072169 1_555
