# generated using pymatgen
data_MoBr3
_symmetry_space_group_name_H-M   'P 1'
_cell_length_a   7.52590036
_cell_length_b   7.52590036
_cell_length_c   6.04706700
_cell_angle_alpha   90.00000000
_cell_angle_beta   90.00000000
_cell_angle_gamma   120.00000315
_symmetry_Int_Tables_number   1
_chemical_formula_structural   MoBr3
_chemical_formula_sum   'Mo2 Br6'
_cell_volume   296.61446502
_cell_formula_units_Z   2
loop_
 _symmetry_equiv_pos_site_id
 _symmetry_equiv_pos_as_xyz
  1  'x, y, z'
loop_
 _atom_site_type_symbol
 _atom_site_label
 _atom_site_symmetry_multiplicity
 _atom_site_fract_x
 _atom_site_fract_y
 _atom_site_fract_z
 _atom_site_occupancy
  Mo  Mo0  1  0.00000000  0.00000000  0.50000000  1
  Mo  Mo1  1  0.00000000  0.00000000  0.00000000  1
  Br  Br0  1  0.00000000  0.28134100  0.25000000  1
  Br  Br1  1  0.71865900  0.71865900  0.25000000  1
  Br  Br2  1  0.00000000  0.71865900  0.75000000  1
  Br  Br3  1  0.28134100  0.28134100  0.75000000  1
  Br  Br4  1  0.71865900  0.00000000  0.75000000  1
  Br  Br5  1  0.28134100  0.00000000  0.25000000  1
loop_
_geom_bond_atom_site_label_1
_geom_bond_atom_site_label_2
_geom_bond_distance
_geom_bond_site_symmetry_2
Br0 Mo1 2.601651 1_555
Br0 Mo0 2.601651 1_555
Br1 Mo1 2.601650 1_665
Br1 Mo0 2.601650 1_665
Br2 Mo1 2.601651 1_566
Br2 Mo0 2.601651 1_565
Br3 Mo0 2.601650 1_555
Br3 Mo1 2.601650 1_556
Br4 Mo0 2.601651 1_655
Br4 Mo1 2.601651 1_656
Br5 Mo1 2.601651 1_555
Br5 Mo0 2.601651 1_555
