# generated using pymatgen
data_Ce4Ga2S5O4
_symmetry_space_group_name_H-M   'P 1'
_cell_length_a   3.89321500
_cell_length_b   7.86217298
_cell_length_c   9.67314132
_cell_angle_alpha   101.52669260
_cell_angle_beta   101.59531901
_cell_angle_gamma   90.20632484
_symmetry_Int_Tables_number   1
_chemical_formula_structural   Ce4Ga2S5O4
_chemical_formula_sum   'Ce4 Ga2 S5 O4'
_cell_volume   283.89854183
_cell_formula_units_Z   1
loop_
 _symmetry_equiv_pos_site_id
 _symmetry_equiv_pos_as_xyz
  1  'x, y, z'
loop_
 _atom_site_type_symbol
 _atom_site_label
 _atom_site_symmetry_multiplicity
 _atom_site_fract_x
 _atom_site_fract_y
 _atom_site_fract_z
 _atom_site_occupancy
  Ce  Ce0  1  0.81066400  0.41546800  0.64413800  1
  Ce  Ce1  1  0.80831000  0.91962000  0.63325600  1
  Ce  Ce2  1  0.16806700  0.59315500  0.36075000  1
  Ce  Ce3  1  0.17235400  0.10615000  0.36204900  1
  Ga  Ga0  1  0.49254700  0.65347600  0.00023900  1
  Ga  Ga1  1  0.83209100  0.16195800  0.99982900  1
  S  S0  1  0.59956700  0.30744000  0.22490400  1
  S  S1  1  0.59780000  0.82775400  0.22059000  1
  S  S2  1  0.37891100  0.71727000  0.77897300  1
  S  S3  1  0.37545000  0.19002400  0.77675100  1
  S  S4  1  0.98613500  0.48795500  0.99745500  1
  O  O0  1  0.24394100  0.38490600  0.50733500  1
  O  O1  1  0.23752400  0.87927800  0.49443100  1
  O  O2  1  0.73940800  0.63088200  0.49956600  1
  O  O3  1  0.74123100  0.13266400  0.49973200  1
loop_
_geom_bond_atom_site_label_1
_geom_bond_atom_site_label_2
_geom_bond_distance
_geom_bond_site_symmetry_2
Ce0 O0 2.317838 1_555
Ce0 O0 2.329703 1_655
Ce0 O3 2.360226 1_555
Ce0 O2 2.386421 1_555
Ce0 S3 3.069031 1_555
Ce0 S3 3.070010 1_655
Ce0 S2 3.129078 1_655
Ce0 S2 3.135295 1_555
Ce0 S4 3.279064 1_555
Ce1 O3 2.296556 1_565
Ce1 O1 2.330641 1_655
Ce1 O1 2.338193 1_555
Ce1 O2 2.362336 1_555
Ce1 S3 2.979340 1_665
Ce1 S3 3.012167 1_565
Ce1 S2 3.019212 1_655
Ce1 S2 3.022718 1_555
Ce2 O2 2.328387 1_455
Ce2 O2 2.339697 1_555
Ce2 O1 2.344833 1_555
Ce2 O0 2.354027 1_555
Ce2 S0 3.047425 1_455
Ce2 S0 3.054477 1_555
Ce2 S1 3.150917 1_555
Ce2 S1 3.160411 1_455
Ce2 S4 3.371789 1_454
Ce3 O3 2.328593 1_555
Ce3 O3 2.329081 1_455
Ce3 O0 2.337346 1_555
Ce3 O1 2.381447 1_545
Ce3 S0 2.955996 1_555
Ce3 S0 2.985386 1_455
Ce3 S1 3.024398 1_545
Ce3 S1 3.033828 1_445
Ga0 S1 2.250832 1_555
Ga0 S2 2.253509 1_554
Ga0 S4 2.326322 1_554
Ga0 S4 2.351066 1_454
Ga1 S3 2.552765 1_555
Ga1 S0 2.583108 1_556
Ga1 S4 2.635789 1_555
