# generated using pymatgen
data_FeSnO6
_symmetry_space_group_name_H-M   'P 1'
_cell_length_a   7.04751300
_cell_length_b   7.04751300
_cell_length_c   7.04751300
_cell_angle_alpha   90.00000000
_cell_angle_beta   90.00000000
_cell_angle_gamma   90.00000000
_symmetry_Int_Tables_number   1
_chemical_formula_structural   FeSnO6
_chemical_formula_sum   'Fe4 Sn4 O24'
_cell_volume   350.03192545
_cell_formula_units_Z   4
loop_
 _symmetry_equiv_pos_site_id
 _symmetry_equiv_pos_as_xyz
  1  'x, y, z'
loop_
 _atom_site_type_symbol
 _atom_site_label
 _atom_site_symmetry_multiplicity
 _atom_site_fract_x
 _atom_site_fract_y
 _atom_site_fract_z
 _atom_site_occupancy
  Fe  Fe0  1  0.75000000  0.25000000  0.25000000  1
  Fe  Fe1  1  0.25000000  0.25000000  0.75000000  1
  Fe  Fe2  1  0.25000000  0.75000000  0.25000000  1
  Fe  Fe3  1  0.75000000  0.75000000  0.75000000  1
  Sn  Sn0  1  0.25000000  0.75000000  0.75000000  1
  Sn  Sn1  1  0.75000000  0.75000000  0.25000000  1
  Sn  Sn2  1  0.75000000  0.25000000  0.75000000  1
  Sn  Sn3  1  0.25000000  0.25000000  0.25000000  1
  O  O0  1  0.17975700  0.39475000  0.50602100  1
  O  O1  1  0.82024300  0.39475000  0.49397900  1
  O  O2  1  0.82024300  0.60525000  0.50602100  1
  O  O3  1  0.17975700  0.60525000  0.49397900  1
  O  O4  1  0.50602100  0.17975700  0.39475000  1
  O  O5  1  0.49397900  0.82024300  0.39475000  1
  O  O6  1  0.50602100  0.82024300  0.60525000  1
  O  O7  1  0.49397900  0.17975700  0.60525000  1
  O  O8  1  0.39475000  0.50602100  0.17975700  1
  O  O9  1  0.39475000  0.49397900  0.82024300  1
  O  O10  1  0.60525000  0.50602100  0.82024300  1
  O  O11  1  0.60525000  0.49397900  0.17975700  1
  O  O12  1  0.32024300  0.10525000  0.99397900  1
  O  O13  1  0.67975700  0.10525000  0.00602100  1
  O  O14  1  0.67975700  0.89475000  0.99397900  1
  O  O15  1  0.32024300  0.89475000  0.00602100  1
  O  O16  1  0.99397900  0.32024300  0.10525000  1
  O  O17  1  0.00602100  0.67975700  0.10525000  1
  O  O18  1  0.99397900  0.67975700  0.89475000  1
  O  O19  1  0.00602100  0.32024300  0.89475000  1
  O  O20  1  0.10525000  0.99397900  0.32024300  1
  O  O21  1  0.10525000  0.00602100  0.67975700  1
  O  O22  1  0.89475000  0.99397900  0.67975700  1
  O  O23  1  0.89475000  0.00602100  0.32024300  1
loop_
_geom_bond_atom_site_label_1
_geom_bond_atom_site_label_2
_geom_bond_distance
_geom_bond_site_symmetry_2
Fe0 O1 2.059664 1_555
Fe0 O16 2.059664 1_555
Fe0 O11 2.059664 1_555
Fe0 O4 2.059664 1_555
Fe0 O13 2.059664 1_555
Fe0 O23 2.059664 1_555
Fe1 O9 2.059664 1_555
Fe1 O12 2.059664 1_555
Fe1 O7 2.059664 1_555
Fe1 O0 2.059664 1_555
Fe1 O21 2.059664 1_555
Fe1 O19 2.059664 1_555
Fe2 O5 2.059664 1_555
Fe2 O20 2.059664 1_555
Fe2 O3 2.059664 1_555
Fe2 O8 2.059664 1_555
Fe2 O17 2.059664 1_555
Fe2 O15 2.059664 1_555
Fe3 O14 2.059664 1_555
Fe3 O18 2.059664 1_555
Fe3 O22 2.059664 1_555
Fe3 O2 2.059664 1_555
Fe3 O10 2.059664 1_555
Fe3 O6 2.059664 1_555
O0 O3 1.485927 1_555
O0 Sn3 2.131024 1_555
O1 O2 1.485927 1_555
O1 Sn2 2.131024 1_555
O2 Sn1 2.131024 1_555
O3 Sn0 2.131024 1_555
O4 O7 1.485927 1_555
O4 Sn3 2.131024 1_555
O5 O6 1.485927 1_555
O5 Sn1 2.131024 1_555
O6 Sn0 2.131024 1_555
O7 Sn2 2.131024 1_555
O8 Sn3 2.131024 1_555
O9 Sn0 2.131024 1_555
O10 O9 1.485927 1_555
O10 Sn2 2.131024 1_555
O11 O8 1.485927 1_555
O11 Sn1 2.131024 1_555
O12 O15 1.485927 1_546
O12 Sn3 2.131024 1_556
O13 O14 1.485927 1_544
O13 Sn2 2.131024 1_554
O14 Sn1 2.131024 1_556
O15 Sn0 2.131024 1_554
O16 O19 1.485927 1_654
O16 Sn3 2.131024 1_655
O17 O18 1.485927 1_454
O17 Sn1 2.131024 1_455
O18 Sn0 2.131024 1_655
O19 Sn2 2.131024 1_455
O20 O23 1.485927 1_465
O20 Sn3 2.131024 1_565
O21 O22 1.485927 1_445
O21 Sn0 2.131024 1_545
O22 Sn2 2.131024 1_565
O23 Sn1 2.131024 1_545
