# generated using pymatgen
data_Mo3H12C4NO10
_symmetry_space_group_name_H-M   'P 1'
_cell_length_a   10.29471106
_cell_length_b   10.29471106
_cell_length_c   10.29471106
_cell_angle_alpha   60.00000000
_cell_angle_beta   60.00000000
_cell_angle_gamma   60.00000000
_symmetry_Int_Tables_number   1
_chemical_formula_structural   Mo3H12C4NO10
_chemical_formula_sum   'Mo6 H24 C8 N2 O20'
_cell_volume   771.48500192
_cell_formula_units_Z   2
loop_
 _symmetry_equiv_pos_site_id
 _symmetry_equiv_pos_as_xyz
  1  'x, y, z'
loop_
 _atom_site_type_symbol
 _atom_site_label
 _atom_site_symmetry_multiplicity
 _atom_site_fract_x
 _atom_site_fract_y
 _atom_site_fract_z
 _atom_site_occupancy
  Mo  Mo0  1  0.16182700  0.83817300  0.16182700  1
  Mo  Mo1  1  0.83817300  0.16182700  0.16182700  1
  Mo  Mo2  1  0.83817300  0.83817300  0.16182700  1
  Mo  Mo3  1  0.83817300  0.16182700  0.83817300  1
  Mo  Mo4  1  0.16182700  0.16182700  0.83817300  1
  Mo  Mo5  1  0.16182700  0.83817300  0.83817300  1
  H  H0  1  0.26513300  0.43980000  0.26513300  1
  H  H1  1  0.02993300  0.26513300  0.26513300  1
  H  H2  1  0.43980000  0.02993300  0.26513300  1
  H  H3  1  0.02993300  0.43980000  0.26513300  1
  H  H4  1  0.43980000  0.26513300  0.26513300  1
  H  H5  1  0.26513300  0.02993300  0.26513300  1
  H  H6  1  0.02993300  0.26513300  0.43980000  1
  H  H7  1  0.26513300  0.26513300  0.02993300  1
  H  H8  1  0.26513300  0.26513300  0.43980000  1
  H  H9  1  0.43980000  0.26513300  0.02993300  1
  H  H10  1  0.26513300  0.43980000  0.02993300  1
  H  H11  1  0.26513300  0.02993300  0.43980000  1
  H  H12  1  0.73486700  0.56020000  0.73486700  1
  H  H13  1  0.97006700  0.73486700  0.73486700  1
  H  H14  1  0.56020000  0.97006700  0.73486700  1
  H  H15  1  0.97006700  0.56020000  0.73486700  1
  H  H16  1  0.56020000  0.73486700  0.73486700  1
  H  H17  1  0.73486700  0.97006700  0.73486700  1
  H  H18  1  0.97006700  0.73486700  0.56020000  1
  H  H19  1  0.73486700  0.73486700  0.97006700  1
  H  H20  1  0.73486700  0.73486700  0.56020000  1
  H  H21  1  0.56020000  0.73486700  0.97006700  1
  H  H22  1  0.73486700  0.56020000  0.97006700  1
  H  H23  1  0.73486700  0.97006700  0.56020000  1
  C  C0  1  0.30955800  0.30955800  0.30955800  1
  C  C1  1  0.07132700  0.30955800  0.30955800  1
  C  C2  1  0.30955800  0.07132700  0.30955800  1
  C  C3  1  0.30955800  0.30955800  0.07132700  1
  C  C4  1  0.69044200  0.69044200  0.69044200  1
  C  C5  1  0.92867300  0.69044200  0.69044200  1
  C  C6  1  0.69044200  0.92867300  0.69044200  1
  C  C7  1  0.69044200  0.69044200  0.92867300  1
  N  N0  1  0.25000000  0.25000000  0.25000000  1
  N  N1  1  0.75000000  0.75000000  0.75000000  1
  O  O0  1  0.00000000  0.00000000  0.00000000  1
  O  O1  1  0.00000000  0.00000000  0.26189400  1
  O  O2  1  0.73810600  0.00000000  0.26189400  1
  O  O3  1  0.00000000  0.73810600  0.26189400  1
  O  O4  1  0.73810600  0.26189400  0.00000000  1
  O  O5  1  0.00000000  0.26189400  0.00000000  1
  O  O6  1  0.00000000  0.26189400  0.73810600  1
  O  O7  1  0.26189400  0.73810600  0.00000000  1
  O  O8  1  0.26189400  0.00000000  0.73810600  1
  O  O9  1  0.26189400  0.00000000  0.00000000  1
  O  O10  1  0.00000000  0.00000000  0.73810600  1
  O  O11  1  0.00000000  0.73810600  0.00000000  1
  O  O12  1  0.73810600  0.00000000  0.00000000  1
  O  O13  1  0.27962500  0.72037500  0.27962500  1
  O  O14  1  0.72037500  0.27962500  0.27962500  1
  O  O15  1  0.72037500  0.72037500  0.27962500  1
  O  O16  1  0.72037500  0.27962500  0.72037500  1
  O  O17  1  0.27962500  0.27962500  0.72037500  1
  O  O18  1  0.27962500  0.72037500  0.72037500  1
  O  O19  1  0.50000000  0.50000000  0.50000000  1
loop_
_geom_bond_atom_site_label_1
_geom_bond_atom_site_label_2
_geom_bond_distance
_geom_bond_site_symmetry_2
Mo0 O13 1.715012 1_555
Mo0 O7 1.958740 1_555
Mo0 O3 1.958740 1_555
Mo0 O1 1.958740 1_565
Mo0 O9 1.958740 1_565
Mo0 O0 2.356026 1_565
Mo1 O14 1.715012 1_555
Mo1 O4 1.958740 1_555
Mo1 O2 1.958740 1_555
Mo1 O5 1.958740 1_655
Mo1 O1 1.958740 1_655
Mo1 O0 2.356026 1_655
Mo2 O15 1.715012 1_555
Mo2 O11 1.958740 1_655
Mo2 O12 1.958740 1_565
Mo2 O3 1.958740 1_655
Mo2 O2 1.958740 1_565
Mo2 O0 2.356026 1_665
Mo3 O16 1.715012 1_555
Mo3 O10 1.958740 1_655
Mo3 O12 1.958740 1_556
Mo3 O6 1.958740 1_655
Mo3 O4 1.958740 1_556
Mo3 O0 2.356026 1_656
Mo4 O17 1.715012 1_555
Mo4 O6 1.958740 1_555
Mo4 O8 1.958740 1_555
Mo4 O5 1.958740 1_556
Mo4 O9 1.958740 1_556
Mo4 O0 2.356026 1_556
Mo5 O18 1.715012 1_555
Mo5 O10 1.958740 1_565
Mo5 O11 1.958740 1_556
Mo5 O8 1.958740 1_565
Mo5 O7 1.958740 1_556
Mo5 O0 2.356026 1_566
C0 H4 1.094910 1_555
C0 H0 1.094910 1_555
C0 H8 1.094910 1_555
C0 N0 1.501862 1_555
C1 H6 1.094910 1_555
C1 H3 1.094910 1_555
C1 H1 1.094927 1_555
C1 N0 1.501853 1_555
C2 H2 1.094910 1_555
C2 H11 1.094910 1_555
C2 H5 1.094927 1_555
C2 N0 1.501853 1_555
C3 H10 1.094910 1_555
C3 H9 1.094910 1_555
C3 H7 1.094927 1_555
C3 N0 1.501853 1_555
C4 H16 1.094910 1_555
C4 H12 1.094910 1_555
C4 H20 1.094910 1_555
C4 N1 1.501862 1_555
C5 H15 1.094910 1_555
C5 H18 1.094910 1_555
C5 H13 1.094927 1_555
C5 N1 1.501853 1_555
C6 H14 1.094910 1_555
C6 H23 1.094910 1_555
C6 H17 1.094927 1_555
C6 N1 1.501853 1_555
C7 H22 1.094910 1_555
C7 H21 1.094910 1_555
C7 H19 1.094927 1_555
C7 N1 1.501853 1_555
