# generated using pymatgen
data_KMg3(SiO3)4
_symmetry_space_group_name_H-M   'P 1'
_cell_length_a   5.31933259
_cell_length_b   5.31933259
_cell_length_c   10.37244294
_cell_angle_alpha   85.73575754
_cell_angle_beta   85.73575754
_cell_angle_gamma   120.82269515
_symmetry_Int_Tables_number   1
_chemical_formula_structural   KMg3(SiO3)4
_chemical_formula_sum   'K1 Mg3 Si4 O12'
_cell_volume   249.16364449
_cell_formula_units_Z   1
loop_
 _symmetry_equiv_pos_site_id
 _symmetry_equiv_pos_as_xyz
  1  'x, y, z'
loop_
 _atom_site_type_symbol
 _atom_site_label
 _atom_site_symmetry_multiplicity
 _atom_site_fract_x
 _atom_site_fract_y
 _atom_site_fract_z
 _atom_site_occupancy
  K  K0  1  0.00000000  0.00000000  0.00000000  1
  Mg  Mg0  1  0.83436700  0.16563300  0.50000000  1
  Mg  Mg1  1  0.16563300  0.83436700  0.50000000  1
  Mg  Mg2  1  0.50000000  0.50000000  0.50000000  1
  Si  Si0  1  0.59218700  0.25811200  0.22963500  1
  Si  Si1  1  0.40781300  0.74188800  0.77036500  1
  Si  Si2  1  0.74188800  0.40781300  0.77036500  1
  Si  Si3  1  0.25811200  0.59218700  0.22963500  1
  O  O0  1  0.46912500  0.46912500  0.17006300  1
  O  O1  1  0.53087500  0.53087500  0.82993700  1
  O  O2  1  0.87164900  0.87164900  0.40778200  1
  O  O3  1  0.12835100  0.12835100  0.59221800  1
  O  O4  1  0.41832500  0.94421000  0.16524300  1
  O  O5  1  0.58167500  0.05579000  0.83475700  1
  O  O6  1  0.05579000  0.58167500  0.83475700  1
  O  O7  1  0.94421000  0.41832500  0.16524300  1
  O  O8  1  0.55250800  0.21220000  0.38589900  1
  O  O9  1  0.44749200  0.78780000  0.61410100  1
  O  O10  1  0.78780000  0.44749200  0.61410100  1
  O  O11  1  0.21220000  0.55250800  0.38589900  1
loop_
_geom_bond_atom_site_label_1
_geom_bond_atom_site_label_2
_geom_bond_distance
_geom_bond_site_symmetry_2
K0 O4 3.024168 1_545
K0 O7 3.024168 1_455
K0 O5 3.024168 1_454
K0 O6 3.024168 1_544
K0 O1 3.067075 1_554
K0 O0 3.067075 1_445
K0 O0 3.239409 1_555
K0 O1 3.239409 1_444
K0 O6 3.285437 1_554
K0 O5 3.285437 1_554
K0 O7 3.285437 1_445
K0 O4 3.285437 1_445
Mg0 O3 1.977822 1_655
Mg0 O2 1.977822 1_545
Mg0 O8 2.076251 1_555
Mg0 O10 2.076251 1_555
Mg0 O9 2.172712 1_545
Mg0 O11 2.172712 1_655
Mg1 O3 1.977822 1_565
Mg1 O2 1.977822 1_455
Mg1 O11 2.076251 1_555
Mg1 O9 2.076251 1_555
Mg1 O8 2.172712 1_565
Mg1 O10 2.172712 1_455
Mg2 O2 2.040577 1_555
Mg2 O3 2.040577 1_555
Mg2 O8 2.116798 1_555
Mg2 O11 2.116798 1_555
Mg2 O10 2.116798 1_555
Mg2 O9 2.116798 1_555
O0 Si0 1.667388 1_555
O0 Si3 1.667388 1_555
O1 Si2 1.667388 1_555
O1 Si1 1.667388 1_555
O4 Si0 1.662737 1_565
O4 Si3 1.665162 1_555
O5 Si1 1.662737 1_545
O5 Si2 1.665162 1_555
O6 Si2 1.662737 1_455
O6 Si1 1.665162 1_555
O7 Si3 1.662737 1_655
O7 Si0 1.665162 1_555
O8 Si0 1.602731 1_555
O9 Si1 1.602731 1_555
O10 Si2 1.602731 1_555
O11 Si3 1.602731 1_555
