# generated using pymatgen
data_Li7Mn4CoO12
_symmetry_space_group_name_H-M   'P 1'
_cell_length_a   5.04217400
_cell_length_b   5.08286490
_cell_length_c   8.93579277
_cell_angle_alpha   91.72751077
_cell_angle_beta   92.38360215
_cell_angle_gamma   107.80350518
_symmetry_Int_Tables_number   1
_chemical_formula_structural   Li7Mn4CoO12
_chemical_formula_sum   'Li7 Mn4 Co1 O12'
_cell_volume   217.63548500
_cell_formula_units_Z   1
loop_
 _symmetry_equiv_pos_site_id
 _symmetry_equiv_pos_as_xyz
  1  'x, y, z'
loop_
 _atom_site_type_symbol
 _atom_site_label
 _atom_site_symmetry_multiplicity
 _atom_site_fract_x
 _atom_site_fract_y
 _atom_site_fract_z
 _atom_site_occupancy
  Li  Li0  1  0.00763700  0.50438500  0.16337100  1
  Li  Li1  1  0.48493600  0.49031900  0.34819300  1
  Li  Li2  1  0.99294500  0.50128500  0.51177100  1
  Li  Li3  1  0.51317000  0.51198000  0.65693300  1
  Li  Li4  1  0.99661700  0.49356300  0.82468900  1
  Li  Li5  1  0.50084000  0.50068700  0.99260900  1
  Li  Li6  1  0.00072400  0.00176000  0.66556200  1
  Mn  Mn0  1  0.00665400  0.00486400  0.99165400  1
  Mn  Mn1  1  0.49692900  0.99326000  0.50971700  1
  Mn  Mn2  1  0.49850100  0.00113400  0.16465100  1
  Mn  Mn3  1  0.99626200  0.99337400  0.34236300  1
  Co  Co0  1  0.51393800  0.00913700  0.82524600  1
  O  O0  1  0.24553500  0.76933400  0.00709600  1
  O  O1  1  0.77126000  0.79054800  0.15798000  1
  O  O2  1  0.24239500  0.76122800  0.34585100  1
  O  O3  1  0.72835900  0.76195100  0.49973900  1
  O  O4  1  0.28770000  0.78192300  0.66334800  1
  O  O5  1  0.74768800  0.77305700  0.84452700  1
  O  O6  1  0.72666600  0.21317600  0.33957800  1
  O  O7  1  0.24899200  0.22507900  0.49287200  1
  O  O8  1  0.72994400  0.23938300  0.65980000  1
  O  O9  1  0.24392900  0.21001000  0.84777800  1
  O  O10  1  0.76496400  0.23471200  0.98852200  1
  O  O11  1  0.25341500  0.23385100  0.15614900  1
loop_
_geom_bond_atom_site_label_1
_geom_bond_atom_site_label_2
_geom_bond_distance
_geom_bond_site_symmetry_2
Li0 O0 2.113621 1_555
Li0 O11 2.115218 1_555
Li0 O10 2.122126 1_454
Li0 O2 2.128487 1_555
Li0 O1 2.144303 1_455
Li0 O6 2.391846 1_455
Li1 O3 1.989794 1_555
Li1 O7 2.038755 1_555
Li1 O2 2.102733 1_555
Li1 O6 2.127696 1_555
Li1 O11 2.185154 1_555
Li1 O1 2.513021 1_555
Li2 O8 2.110193 1_555
Li2 O4 2.120801 1_655
Li2 O3 2.150426 1_555
Li2 O7 2.185972 1_655
Li2 O2 2.186980 1_655
Li2 O6 2.191960 1_555
Li3 O8 2.010237 1_555
Li3 O4 2.032952 1_555
Li3 O3 2.038632 1_555
Li3 O7 2.137971 1_555
Li3 O5 2.170407 1_555
Li3 O9 2.486609 1_555
Li4 O8 2.075146 1_555
Li4 O10 2.134766 1_555
Li4 O5 2.172256 1_555
Li4 O9 2.184111 1_655
Li4 O0 2.193867 1_656
Li4 O4 2.317078 1_655
Li5 O9 2.027501 1_555
Li5 O5 2.100108 1_555
Li5 O0 2.148620 1_556
Li5 O1 2.164758 1_556
Li5 O10 2.169016 1_555
Li5 O11 2.183563 1_556
Li6 O9 2.052226 1_555
Li6 O3 2.065324 1_445
Li6 O8 2.081309 1_455
Li6 O4 2.081468 1_545
Li6 O7 2.152692 1_555
Li6 O5 2.216167 1_445
Mn0 O9 1.901949 1_555
Mn0 O5 1.909106 1_445
Mn0 O10 1.928865 1_455
Mn0 O0 1.944461 1_546
Mn0 O11 1.980532 1_556
Mn0 O1 2.063504 1_446
Mn1 O3 1.895579 1_555
Mn1 O8 1.900784 1_565
Mn1 O4 1.915169 1_555
Mn1 O7 1.967164 1_565
Mn1 O2 1.999036 1_555
Mn1 O6 2.088027 1_565
Mn2 O11 1.955390 1_555
Mn2 O0 1.956742 1_545
Mn2 O6 1.979666 1_555
Mn2 O1 1.985920 1_545
Mn2 O10 2.237144 1_554
Mn2 O2 2.259699 1_545
Mn3 O7 1.914133 1_665
Mn3 O2 1.956521 1_655
Mn3 O6 2.006040 1_565
Mn3 O1 2.022727 1_555
Mn3 O3 2.114727 1_555
Mn3 O11 2.297167 1_665
Co0 O4 1.919463 1_545
Co0 O5 1.928505 1_545
Co0 O9 1.948569 1_555
Co0 O10 1.975711 1_555
Co0 O8 2.049462 1_555
Co0 O0 2.291585 1_546
