# generated using pymatgen
data_SrMg14CuO16
_symmetry_space_group_name_H-M   'P 1'
_cell_length_a   8.76396501
_cell_length_b   8.54948464
_cell_length_c   4.39025423
_cell_angle_alpha   90.00000000
_cell_angle_beta   90.00000000
_cell_angle_gamma   90.00000000
_symmetry_Int_Tables_number   1
_chemical_formula_structural   SrMg14CuO16
_chemical_formula_sum   'Sr1 Mg14 Cu1 O16'
_cell_volume   328.95026560
_cell_formula_units_Z   1
loop_
 _symmetry_equiv_pos_site_id
 _symmetry_equiv_pos_as_xyz
  1  'x, y, z'
loop_
 _atom_site_type_symbol
 _atom_site_label
 _atom_site_symmetry_multiplicity
 _atom_site_fract_x
 _atom_site_fract_y
 _atom_site_fract_z
 _atom_site_occupancy
  Sr  Sr0  1  0.00000000  0.50000000  0.00000000  1
  Mg  Mg0  1  0.50000000  0.00000000  0.00000000  1
  Mg  Mg1  1  0.50000000  0.50000000  0.00000000  1
  Mg  Mg2  1  0.00000000  0.23939092  0.50000000  1
  Mg  Mg3  1  0.00000000  0.76060908  0.50000000  1
  Mg  Mg4  1  0.50000000  0.24800674  0.50000000  1
  Mg  Mg5  1  0.50000000  0.75199326  0.50000000  1
  Mg  Mg6  1  0.25162309  0.00000000  0.50000000  1
  Mg  Mg7  1  0.26047531  0.50000000  0.50000000  1
  Mg  Mg8  1  0.74837691  0.00000000  0.50000000  1
  Mg  Mg9  1  0.73952469  0.50000000  0.50000000  1
  Mg  Mg10  1  0.25790297  0.24261976  -0.00000000  1
  Mg  Mg11  1  0.25790297  0.75738024  -0.00000000  1
  Mg  Mg12  1  0.74209703  0.24261976  -0.00000000  1
  Mg  Mg13  1  0.74209703  0.75738024  -0.00000000  1
  Cu  Cu0  1  0.00000000  0.00000000  0.00000000  1
  O  O0  1  0.26591037  0.00000000  -0.00000000  1
  O  O1  1  0.27062872  0.50000000  -0.00000000  1
  O  O2  1  0.73408963  0.00000000  0.00000000  1
  O  O3  1  0.72937128  0.50000000  0.00000000  1
  O  O4  1  0.24876773  0.24979624  0.50000000  1
  O  O5  1  0.24876773  0.75020376  0.50000000  1
  O  O6  1  0.75123227  0.24979624  0.50000000  1
  O  O7  1  0.75123227  0.75020376  0.50000000  1
  O  O8  1  0.00000000  0.00000000  0.50000000  1
  O  O9  1  0.00000000  0.50000000  0.50000000  1
  O  O10  1  0.50000000  0.00000000  0.50000000  1
  O  O11  1  0.50000000  0.50000000  0.50000000  1
  O  O12  1  0.00000000  0.22491263  -0.00000000  1
  O  O13  1  0.00000000  0.77508737  -0.00000000  1
  O  O14  1  0.50000000  0.24825696  0.00000000  1
  O  O15  1  0.50000000  0.75174304  -0.00000000  1
loop_
_geom_bond_atom_site_label_1
_geom_bond_atom_site_label_2
_geom_bond_distance
_geom_bond_site_symmetry_2
Mg0 O0 2.051553 1_555
Mg0 O2 2.051553 1_555
Mg0 O15 2.122469 1_545
Mg0 O14 2.122469 1_555
Mg0 O10 2.195127 1_555
Mg0 O10 2.195127 1_554
Mg1 O1 2.010202 1_555
Mg1 O3 2.010202 1_555
Mg1 O14 2.152273 1_555
Mg1 O15 2.152273 1_555
Mg1 O11 2.195127 1_554
Mg1 O11 2.195127 1_555
Mg2 O8 2.046669 1_555
Mg2 O6 2.182006 1_455
Mg2 O4 2.182006 1_555
Mg2 O12 2.198614 1_555
Mg2 O12 2.198614 1_556
Mg2 O9 2.228073 1_555
Mg3 O8 2.046669 1_565
Mg3 O7 2.182006 1_455
Mg3 O5 2.182006 1_555
Mg3 O13 2.198614 1_555
Mg3 O13 2.198614 1_556
Mg3 O9 2.228073 1_555
Mg4 O10 2.120330 1_555
Mg4 O11 2.154413 1_555
Mg4 O14 2.195128 1_556
Mg4 O14 2.195128 1_555
Mg4 O4 2.201844 1_555
Mg4 O6 2.201844 1_555
Mg5 O10 2.120330 1_565
Mg5 O11 2.154413 1_555
Mg5 O15 2.195128 1_556
Mg5 O15 2.195128 1_555
Mg5 O5 2.201844 1_555
Mg5 O7 2.201844 1_555
Mg6 O4 2.135776 1_555
Mg6 O5 2.135776 1_545
Mg6 O10 2.176767 1_555
Mg6 O0 2.198695 1_556
Mg6 O0 2.198695 1_555
Mg6 O8 2.205216 1_555
Mg7 O11 2.099186 1_555
Mg7 O5 2.141573 1_555
Mg7 O4 2.141573 1_555
Mg7 O1 2.196930 1_556
Mg7 O1 2.196930 1_555
Mg7 O9 2.282797 1_555
Mg8 O6 2.135776 1_555
Mg8 O7 2.135776 1_545
Mg8 O10 2.176767 1_555
Mg8 O2 2.198695 1_555
Mg8 O2 2.198695 1_556
Mg8 O8 2.205216 1_655
Mg9 O11 2.099186 1_555
Mg9 O6 2.141573 1_555
Mg9 O7 2.141573 1_555
Mg9 O3 2.196930 1_556
Mg9 O3 2.196930 1_555
Mg9 O9 2.282797 1_655
Mg10 O0 2.075461 1_555
Mg10 O14 2.122277 1_555
Mg10 O4 2.197443 1_554
Mg10 O4 2.197443 1_555
Mg10 O1 2.203293 1_555
Mg10 O12 2.265317 1_555
Mg11 O0 2.075461 1_565
Mg11 O15 2.122277 1_555
Mg11 O5 2.197443 1_554
Mg11 O5 2.197443 1_555
Mg11 O1 2.203293 1_555
Mg11 O13 2.265317 1_555
Mg12 O2 2.075461 1_555
Mg12 O14 2.122277 1_555
Mg12 O6 2.197443 1_554
Mg12 O6 2.197443 1_555
Mg12 O3 2.203293 1_555
Mg12 O12 2.265317 1_655
Mg13 O2 2.075461 1_565
Mg13 O15 2.122277 1_555
Mg13 O7 2.197443 1_554
Mg13 O7 2.197443 1_555
Mg13 O3 2.203293 1_555
Mg13 O13 2.265317 1_655
Cu0 O13 1.922887 1_545
Cu0 O12 1.922887 1_555
Cu0 O8 2.195127 1_554
Cu0 O8 2.195127 1_555
Cu0 O2 2.330429 1_455
Cu0 O0 2.330429 1_555
O1 Sr0 2.371781 1_555
O3 Sr0 2.371781 1_655
O9 Sr0 2.195127 1_556
O9 Sr0 2.195127 1_555
O12 Sr0 2.351855 1_555
O13 Sr0 2.351855 1_555
