# generated using pymatgen
data_HCNO
_symmetry_space_group_name_H-M   'P 1'
_cell_length_a   5.58669269
_cell_length_b   5.58669269
_cell_length_c   9.84661692
_cell_angle_alpha   82.67797664
_cell_angle_beta   82.67797664
_cell_angle_gamma   76.40671688
_symmetry_Int_Tables_number   1
_chemical_formula_structural   HCNO
_chemical_formula_sum   'H6 C6 N6 O6'
_cell_volume   294.76077225
_cell_formula_units_Z   6
loop_
 _symmetry_equiv_pos_site_id
 _symmetry_equiv_pos_as_xyz
  1  'x, y, z'
loop_
 _atom_site_type_symbol
 _atom_site_label
 _atom_site_symmetry_multiplicity
 _atom_site_fract_x
 _atom_site_fract_y
 _atom_site_fract_z
 _atom_site_occupancy
  H  H0  1  0.55005800  0.78485200  0.07563900  1
  H  H1  1  0.21514800  0.44994200  0.42436100  1
  H  H2  1  0.44994200  0.21514800  0.92436100  1
  H  H3  1  0.78485200  0.55005800  0.57563900  1
  H  H4  1  0.86860700  0.13139300  0.25000000  1
  H  H5  1  0.13139300  0.86860700  0.75000000  1
  C  C0  1  0.41830300  0.58169700  0.25000000  1
  C  C1  1  0.58169700  0.41830300  0.75000000  1
  C  C2  1  0.01218600  0.79050000  0.35311700  1
  C  C3  1  0.20950000  0.98781400  0.14688300  1
  C  C4  1  0.98781400  0.20950000  0.64688300  1
  C  C5  1  0.79050000  0.01218600  0.85311700  1
  N  N0  1  0.01774300  0.98225700  0.25000000  1
  N  N1  1  0.98225700  0.01774300  0.75000000  1
  N  N2  1  0.40297500  0.78262000  0.15143700  1
  N  N3  1  0.21738000  0.59702500  0.34856300  1
  N  N4  1  0.59702500  0.21738000  0.84856300  1
  N  N5  1  0.78262000  0.40297500  0.65143700  1
  O  O0  1  0.59670400  0.40329600  0.25000000  1
  O  O1  1  0.40329600  0.59670400  0.75000000  1
  O  O2  1  0.79279000  0.83534900  0.94275000  1
  O  O3  1  0.16465100  0.20721000  0.55725000  1
  O  O4  1  0.20721000  0.16465100  0.05725000  1
  O  O5  1  0.83534900  0.79279000  0.44275000  1
loop_
_geom_bond_atom_site_label_1
_geom_bond_atom_site_label_2
_geom_bond_distance
_geom_bond_site_symmetry_2
H0 N2 1.038521 1_555
H1 N3 1.038521 1_555
H2 N4 1.038521 1_555
H3 N5 1.038521 1_555
H4 N0 1.030564 1_645
H5 N1 1.030564 1_465
C0 O0 1.232792 1_555
C0 N3 1.381139 1_555
C0 N2 1.381139 1_555
C1 O1 1.232792 1_555
C1 N5 1.381139 1_555
C1 N4 1.381139 1_555
C2 O5 1.236857 1_455
C2 N3 1.378866 1_555
C2 N0 1.381994 1_555
C3 O4 1.236857 1_565
C3 N2 1.378866 1_555
C3 N0 1.381994 1_555
C4 O3 1.236857 1_655
C4 N5 1.378866 1_555
C4 N1 1.381994 1_555
C5 O2 1.236857 1_545
C5 N4 1.378866 1_555
C5 N1 1.381994 1_555
