# generated using pymatgen
data_NiC4S4(NO6)2
_symmetry_space_group_name_H-M   'P 1'
_cell_length_a   9.90869488
_cell_length_b   8.05340079
_cell_length_c   7.57361794
_cell_angle_alpha   67.51704540
_cell_angle_beta   85.21804532
_cell_angle_gamma   66.76870821
_symmetry_Int_Tables_number   1
_chemical_formula_structural   NiC4S4(NO6)2
_chemical_formula_sum   'Ni1 C4 S4 N2 O12'
_cell_volume   511.52875046
_cell_formula_units_Z   1
loop_
 _symmetry_equiv_pos_site_id
 _symmetry_equiv_pos_as_xyz
  1  'x, y, z'
loop_
 _atom_site_type_symbol
 _atom_site_label
 _atom_site_symmetry_multiplicity
 _atom_site_fract_x
 _atom_site_fract_y
 _atom_site_fract_z
 _atom_site_occupancy
  Ni  Ni0  1  0.50000000  0.00000000  0.50000000  1
  C  C0  1  0.10641900  0.37270200  0.85831900  1
  C  C1  1  0.89358100  0.62729800  0.14168100  1
  C  C2  1  0.90147200  0.14272700  0.78620200  1
  C  C3  1  0.09852800  0.85727300  0.21379800  1
  S  S0  1  0.31733700  0.58076200  0.72065600  1
  S  S1  1  0.68266300  0.41923800  0.27934400  1
  S  S2  1  0.56034200  0.16482200  0.82726500  1
  S  S3  1  0.43965800  0.83517800  0.17273500  1
  N  N0  1  0.44417000  0.37244100  0.79324200  1
  N  N1  1  0.55583000  0.62755900  0.20675800  1
  O  O0  1  0.27215300  0.65786200  0.87377600  1
  O  O1  1  0.72784700  0.34213800  0.12622400  1
  O  O2  1  0.16523500  0.27084900  0.00711900  1
  O  O3  1  0.83476500  0.72915100  0.99288100  1
  O  O4  1  0.92497900  0.18477200  0.62828000  1
  O  O5  1  0.07502100  0.81522800  0.37172000  1
  O  O6  1  0.57861000  0.10779000  0.65585300  1
  O  O7  1  0.42139000  0.89221000  0.34414700  1
  O  O8  1  0.29019500  0.09251000  0.57973900  1
  O  O9  1  0.70980500  0.90749000  0.42026100  1
  O  O10  1  0.31159300  0.22624600  0.42741000  1
  O  O11  1  0.68840700  0.77375400  0.57259000  1
loop_
_geom_bond_atom_site_label_1
_geom_bond_atom_site_label_2
_geom_bond_distance
_geom_bond_site_symmetry_2
Ni0 O11 1.956753 1_545
Ni0 O10 1.956753 1_555
Ni0 O9 2.038262 1_545
Ni0 O8 2.038262 1_555
Ni0 O6 2.055221 1_555
Ni0 O7 2.055221 1_545
C0 O2 1.143629 1_556
C1 O3 1.143629 1_554
C2 O4 1.142564 1_555
C3 O5 1.142564 1_555
N0 S2 1.545552 1_555
N0 S0 1.562935 1_555
N1 S3 1.545552 1_555
N1 S1 1.562935 1_555
O0 S0 1.475015 1_555
O1 S1 1.475015 1_555
O6 S2 1.510079 1_555
O7 S3 1.510079 1_555
O10 O8 1.313382 1_555
O11 O9 1.313382 1_555
