# generated using pymatgen
data_Ca4Mn3CrO12
_symmetry_space_group_name_H-M   'P 1'
_cell_length_a   3.83439600
_cell_length_b   7.58690000
_cell_length_c   7.58690000
_cell_angle_alpha   90.00000000
_cell_angle_beta   90.00000000
_cell_angle_gamma   90.00000000
_symmetry_Int_Tables_number   1
_chemical_formula_structural   Ca4Mn3CrO12
_chemical_formula_sum   'Ca4 Mn3 Cr1 O12'
_cell_volume   220.71186605
_cell_formula_units_Z   1
loop_
 _symmetry_equiv_pos_site_id
 _symmetry_equiv_pos_as_xyz
  1  'x, y, z'
loop_
 _atom_site_type_symbol
 _atom_site_label
 _atom_site_symmetry_multiplicity
 _atom_site_fract_x
 _atom_site_fract_y
 _atom_site_fract_z
 _atom_site_occupancy
  Ca  Ca0  1  0.50000000  0.25056300  0.25056300  1
  Ca  Ca1  1  0.50000000  0.25056300  0.74943700  1
  Ca  Ca2  1  0.50000000  0.74943700  0.25056300  1
  Ca  Ca3  1  0.50000000  0.74943700  0.74943700  1
  Mn  Mn0  1  0.00000000  0.00000000  0.50000000  1
  Mn  Mn1  1  0.00000000  0.50000000  0.00000000  1
  Mn  Mn2  1  0.00000000  0.50000000  0.50000000  1
  Cr  Cr0  1  0.00000000  0.00000000  0.00000000  1
  O  O0  1  0.00000000  0.00000000  0.24964200  1
  O  O1  1  0.00000000  0.00000000  0.75035800  1
  O  O2  1  0.00000000  0.50000000  0.24976000  1
  O  O3  1  0.00000000  0.50000000  0.75024000  1
  O  O4  1  0.50000000  0.00000000  0.00000000  1
  O  O5  1  0.50000000  0.00000000  0.50000000  1
  O  O6  1  0.50000000  0.50000000  0.00000000  1
  O  O7  1  0.50000000  0.50000000  0.50000000  1
  O  O8  1  0.00000000  0.24964200  0.00000000  1
  O  O9  1  0.00000000  0.24976000  0.50000000  1
  O  O10  1  0.00000000  0.75035800  0.00000000  1
  O  O11  1  0.00000000  0.75024000  0.50000000  1
loop_
_geom_bond_atom_site_label_1
_geom_bond_atom_site_label_2
_geom_bond_distance
_geom_bond_site_symmetry_2
Ca0 O7 2.676334 1_555
Ca0 O5 2.682381 1_555
Ca0 O6 2.682381 1_555
Ca0 O4 2.688415 1_555
Ca0 O9 2.693894 1_655
Ca0 O9 2.693894 1_555
Ca0 O2 2.693894 1_655
Ca0 O2 2.693894 1_555
Ca0 O8 2.699905 1_655
Ca0 O0 2.699905 1_555
Ca0 O0 2.699905 1_655
Ca0 O8 2.699905 1_555
Ca1 O7 2.676334 1_555
Ca1 O5 2.682381 1_555
Ca1 O6 2.682381 1_556
Ca1 O4 2.688415 1_556
Ca1 O9 2.693894 1_655
Ca1 O9 2.693894 1_555
Ca1 O3 2.693894 1_655
Ca1 O3 2.693894 1_555
Ca1 O8 2.699905 1_656
Ca1 O1 2.699905 1_555
Ca1 O1 2.699905 1_655
Ca1 O8 2.699905 1_556
Ca2 O7 2.676334 1_555
Ca2 O5 2.682381 1_565
Ca2 O6 2.682381 1_555
Ca2 O4 2.688415 1_565
Ca2 O2 2.693894 1_655
Ca2 O2 2.693894 1_555
Ca2 O11 2.693894 1_555
Ca2 O11 2.693894 1_655
Ca2 O10 2.699905 1_555
Ca2 O0 2.699905 1_665
Ca2 O10 2.699905 1_655
Ca2 O0 2.699905 1_565
Ca3 O7 2.676334 1_555
Ca3 O5 2.682381 1_565
Ca3 O6 2.682381 1_556
Ca3 O4 2.688415 1_566
Ca3 O3 2.693894 1_655
Ca3 O11 2.693894 1_555
Ca3 O11 2.693894 1_655
Ca3 O3 2.693894 1_555
Ca3 O10 2.699905 1_556
Ca3 O10 2.699905 1_656
Ca3 O1 2.699905 1_565
Ca3 O1 2.699905 1_665
Mn0 O11 1.894904 1_545
Mn0 O9 1.894904 1_555
Mn0 O1 1.899441 1_555
Mn0 O0 1.899441 1_555
Mn0 O5 1.917198 1_455
Mn0 O5 1.917198 1_555
Mn1 O3 1.894904 1_554
Mn1 O2 1.894904 1_555
Mn1 O10 1.899441 1_555
Mn1 O8 1.899441 1_555
Mn1 O6 1.917198 1_555
Mn1 O6 1.917198 1_455
Mn2 O2 1.898546 1_555
Mn2 O11 1.898546 1_555
Mn2 O3 1.898546 1_555
Mn2 O9 1.898546 1_555
Mn2 O7 1.917198 1_455
Mn2 O7 1.917198 1_555
Cr0 O8 1.894009 1_555
Cr0 O0 1.894009 1_555
Cr0 O1 1.894009 1_554
Cr0 O10 1.894009 1_545
Cr0 O4 1.917198 1_455
Cr0 O4 1.917198 1_555
