# generated using pymatgen
data_SmZnGe
_symmetry_space_group_name_H-M   'P 1'
_cell_length_a   4.22971048
_cell_length_b   4.22971048
_cell_length_c   16.31313123
_cell_angle_alpha   90.00000000
_cell_angle_beta   90.00000000
_cell_angle_gamma   119.99999531
_symmetry_Int_Tables_number   1
_chemical_formula_structural   SmZnGe
_chemical_formula_sum   'Sm4 Zn4 Ge4'
_cell_volume   252.74889452
_cell_formula_units_Z   4
loop_
 _symmetry_equiv_pos_site_id
 _symmetry_equiv_pos_as_xyz
  1  'x, y, z'
loop_
 _atom_site_type_symbol
 _atom_site_label
 _atom_site_symmetry_multiplicity
 _atom_site_fract_x
 _atom_site_fract_y
 _atom_site_fract_z
 _atom_site_occupancy
  Sm  Sm0  1  -0.00000000  -0.00000000  0.25000000  1
  Sm  Sm1  1  -0.00000000  -0.00000000  0.75000000  1
  Sm  Sm2  1  -0.00000000  -0.00000000  -0.00000000  1
  Sm  Sm3  1  -0.00000000  -0.00000000  0.50000000  1
  Zn  Zn0  1  0.33333300  0.66666700  0.14309244  1
  Zn  Zn1  1  0.66666700  0.33333300  0.85690756  1
  Zn  Zn2  1  0.66666700  0.33333300  0.64309244  1
  Zn  Zn3  1  0.33333300  0.66666700  0.35690756  1
  Ge  Ge0  1  0.33333300  0.66666700  0.61558925  1
  Ge  Ge1  1  0.66666700  0.33333300  0.38441075  1
  Ge  Ge2  1  0.66666700  0.33333300  0.11558925  1
  Ge  Ge3  1  0.33333300  0.66666700  0.88441075  1
loop_
_geom_bond_atom_site_label_1
_geom_bond_atom_site_label_2
_geom_bond_distance
_geom_bond_site_symmetry_2
Sm0 Zn0 3.000833 1_545
Sm0 Zn3 3.000833 1_545
Sm0 Zn3 3.000836 1_445
Sm0 Zn0 3.000836 1_445
Sm0 Zn0 3.000836 1_555
Sm0 Zn3 3.000836 1_555
Sm1 Zn1 3.000833 1_455
Sm1 Zn2 3.000833 1_455
Sm1 Zn1 3.000836 1_555
Sm1 Zn2 3.000836 1_445
Sm1 Zn2 3.000836 1_555
Sm1 Zn1 3.000836 1_445
Sm2 Zn0 3.378219 1_545
Sm2 Zn1 3.378219 1_454
Sm2 Zn0 3.378221 1_555
Sm2 Zn0 3.378221 1_445
Sm2 Zn1 3.378221 1_554
Sm2 Zn1 3.378221 1_444
Sm3 Zn3 3.378219 1_545
Sm3 Zn2 3.378219 1_455
Sm3 Zn3 3.378221 1_555
Sm3 Zn2 3.378221 1_445
Sm3 Zn2 3.378221 1_555
Sm3 Zn3 3.378221 1_445
Ge0 Zn2 2.482896 1_565
Ge0 Zn2 2.482896 1_455
Ge0 Zn2 2.482903 1_555
Ge0 Sm3 3.085295 1_565
Ge0 Sm3 3.085298 1_555
Ge0 Sm3 3.085298 1_665
Ge0 Sm1 3.281955 1_565
Ge0 Sm1 3.281958 1_665
Ge0 Sm1 3.281958 1_555
Ge1 Zn3 2.482896 1_545
Ge1 Zn3 2.482896 1_655
Ge1 Zn3 2.482903 1_555
Ge1 Sm3 3.085295 1_655
Ge1 Sm3 3.085298 1_555
Ge1 Sm3 3.085298 1_665
Ge1 Sm0 3.281955 1_655
Ge1 Sm0 3.281958 1_555
Ge1 Sm0 3.281958 1_665
Ge2 Zn0 2.482896 1_545
Ge2 Zn0 2.482896 1_655
Ge2 Zn0 2.482903 1_555
Ge2 Sm2 3.085295 1_655
Ge2 Sm2 3.085298 1_555
Ge2 Sm2 3.085298 1_665
Ge2 Sm0 3.281955 1_655
Ge2 Sm0 3.281958 1_555
Ge2 Sm0 3.281958 1_665
Ge3 Zn1 2.482896 1_565
Ge3 Zn1 2.482896 1_455
Ge3 Zn1 2.482903 1_555
Ge3 Sm2 3.085295 1_566
Ge3 Sm2 3.085298 1_556
Ge3 Sm2 3.085298 1_666
Ge3 Sm1 3.281955 1_565
Ge3 Sm1 3.281958 1_665
Ge3 Sm1 3.281958 1_555
