# generated using pymatgen
data_Y7Ta3O18
_symmetry_space_group_name_H-M   'P 1'
_cell_length_a   6.43531500
_cell_length_b   6.44868407
_cell_length_c   18.82412586
_cell_angle_alpha   90.23896221
_cell_angle_beta   89.92618620
_cell_angle_gamma   109.68207194
_symmetry_Int_Tables_number   1
_chemical_formula_structural   Y7Ta3O18
_chemical_formula_sum   'Y14 Ta6 O36'
_cell_volume   735.54173089
_cell_formula_units_Z   2
loop_
 _symmetry_equiv_pos_site_id
 _symmetry_equiv_pos_as_xyz
  1  'x, y, z'
loop_
 _atom_site_type_symbol
 _atom_site_label
 _atom_site_symmetry_multiplicity
 _atom_site_fract_x
 _atom_site_fract_y
 _atom_site_fract_z
 _atom_site_occupancy
  Y  Y0  1  0.00173500  0.47084400  0.29951700  1
  Y  Y1  1  0.49937400  0.50271400  0.19844600  1
  Y  Y2  1  0.99844400  0.53699900  0.10009500  1
  Y  Y3  1  0.46357100  0.00166000  0.10041200  1
  Y  Y4  1  0.50000000  0.50000000  0.00000000  1
  Y  Y5  1  0.00155600  0.46300100  0.89990500  1
  Y  Y6  1  0.53642900  0.99834000  0.89958800  1
  Y  Y7  1  0.50062600  0.49728600  0.80155400  1
  Y  Y8  1  0.99826500  0.52915600  0.70048300  1
  Y  Y9  1  0.46859600  0.00182700  0.69937500  1
  Y  Y10  1  0.49886200  0.50303100  0.60589000  1
  Y  Y11  1  0.50000000  0.00000000  0.50000000  1
  Y  Y12  1  0.50113800  0.49696900  0.39411000  1
  Y  Y13  1  0.53140400  0.99817300  0.30062500  1
  Ta  Ta0  1  0.99940300  0.00233400  0.20399400  1
  Ta  Ta1  1  0.00000000  0.00000000  0.00000000  1
  Ta  Ta2  1  0.00059700  0.99766600  0.79600600  1
  Ta  Ta3  1  0.00323800  0.99773700  0.58874300  1
  Ta  Ta4  1  0.00000000  0.50000000  0.50000000  1
  Ta  Ta5  1  0.99676200  0.00226300  0.41125700  1
  O  O0  1  0.63695100  0.36281200  0.30108900  1
  O  O1  1  0.32240600  0.07461800  0.21356200  1
  O  O2  1  0.06734800  0.32165500  0.18823700  1
  O  O3  1  0.92093000  0.67736200  0.21224200  1
  O  O4  1  0.67748300  0.93461500  0.18981100  1
  O  O5  1  0.62737500  0.37139200  0.09925600  1
  O  O6  1  0.36230000  0.63869200  0.10076300  1
  O  O7  1  0.06437000  0.93759800  0.10123200  1
  O  O8  1  0.32294800  0.07203600  0.98711700  1
  O  O9  1  0.07280400  0.32314100  0.01256500  1
  O  O10  1  0.92719600  0.67685900  0.98743500  1
  O  O11  1  0.67705200  0.92796400  0.01288300  1
  O  O12  1  0.93563000  0.06240200  0.89876800  1
  O  O13  1  0.63770000  0.36130800  0.89923700  1
  O  O14  1  0.37262500  0.62860800  0.90074400  1
  O  O15  1  0.32251700  0.06538500  0.81018900  1
  O  O16  1  0.07907000  0.32263800  0.78775800  1
  O  O17  1  0.93265200  0.67834500  0.81176300  1
  O  O18  1  0.67759400  0.92538200  0.78643800  1
  O  O19  1  0.62979100  0.36952800  0.70468000  1
  O  O20  1  0.36304900  0.63718800  0.69891100  1
  O  O21  1  0.05506900  0.93854000  0.69396700  1
  O  O22  1  0.34668600  0.11455100  0.59453800  1
  O  O23  1  0.06292100  0.32314500  0.60593700  1
  O  O24  1  0.90868600  0.63929700  0.59259000  1
  O  O25  1  0.67828700  0.91009700  0.60564400  1
  O  O26  1  0.90670300  0.13251200  0.49990700  1
  O  O27  1  0.67008700  0.38833800  0.49152300  1
  O  O28  1  0.32991300  0.61166200  0.50847700  1
  O  O29  1  0.09329700  0.86748800  0.50009300  1
  O  O30  1  0.32171300  0.08990300  0.39435600  1
  O  O31  1  0.09131400  0.36070300  0.40741000  1
  O  O32  1  0.93707900  0.67685500  0.39406300  1
  O  O33  1  0.65331400  0.88544900  0.40546200  1
  O  O34  1  0.94493100  0.06146000  0.30603300  1
  O  O35  1  0.37020900  0.63047200  0.29532000  1
loop_
_geom_bond_atom_site_label_1
_geom_bond_atom_site_label_2
_geom_bond_distance
_geom_bond_site_symmetry_2
O0 Y0 2.212543 1_655
O0 Y13 2.216911 1_545
O0 Y12 2.251938 1_555
O0 Y1 2.426526 1_555
O1 Ta0 1.979395 1_455
O1 Y13 2.279679 1_545
O1 Y3 2.420302 1_555
O1 Y1 2.624328 1_555
O2 Ta0 1.979326 1_455
O2 Y2 2.305189 1_455
O2 Y0 2.397163 1_555
O2 Y1 2.634906 1_555
O3 Ta0 1.990097 1_565
O3 Y0 2.286918 1_655
O3 Y2 2.410444 1_555
O3 Y1 2.576181 1_555
O4 Ta0 1.986152 1_565
O4 Y3 2.308005 1_565
O4 Y13 2.377049 1_555
O4 Y1 2.636359 1_555
O5 Y3 2.259172 1_555
O5 Y2 2.263887 1_555
O5 Y4 2.307699 1_555
O5 Y1 2.309703 1_555
O6 Y3 2.208182 1_565
O6 Y2 2.208762 1_455
O6 Y1 2.338136 1_555
O6 Y4 2.387112 1_555
O7 Ta1 2.021280 1_565
O7 Ta0 2.049326 1_465
O7 Y3 2.460823 1_565
O7 Y2 2.472929 1_455
O8 Ta1 1.985735 1_556
O8 Y6 2.292473 1_545
O8 Y3 2.421346 1_556
O8 Y4 2.617353 1_556
O9 Ta1 1.989057 1_555
O9 Y2 2.295496 1_455
O9 Y5 2.412087 1_554
O9 Y4 2.608262 1_555
O10 Ta1 1.989057 1_666
O10 Y5 2.295496 1_655
O10 Y2 2.412087 1_556
O10 Y4 2.608262 1_556
O11 Ta1 1.985735 1_665
O11 Y3 2.292473 1_565
O11 Y6 2.421346 1_554
O11 Y4 2.617353 1_555
O12 Ta1 2.021280 1_656
O12 Ta2 2.049326 1_645
O12 Y6 2.460823 1_545
O12 Y5 2.472929 1_655
O13 Y6 2.208182 1_545
O13 Y5 2.208762 1_655
O13 Y7 2.338136 1_555
O13 Y4 2.387112 1_556
O14 Y6 2.259172 1_555
O14 Y5 2.263887 1_555
O14 Y4 2.307699 1_556
O14 Y7 2.309703 1_555
O15 Ta2 1.986152 1_545
O15 Y6 2.308005 1_545
O15 Y9 2.377049 1_555
O15 Y7 2.636359 1_555
O16 Ta2 1.990097 1_545
O16 Y8 2.286918 1_455
O16 Y5 2.410444 1_555
O16 Y7 2.576181 1_555
O17 Ta2 1.979326 1_655
O17 Y5 2.305189 1_655
O17 Y8 2.397163 1_555
O17 Y7 2.634906 1_555
O18 Ta2 1.979395 1_655
O18 Y9 2.279679 1_565
O18 Y6 2.420302 1_555
O18 Y7 2.624328 1_555
O19 Y8 2.246035 1_555
O19 Y9 2.247219 1_555
O19 Y7 2.267144 1_555
O19 Y10 2.327092 1_555
O20 Y8 2.212543 1_455
O20 Y9 2.216911 1_565
O20 Y10 2.251938 1_555
O20 Y7 2.426526 1_555
O21 Ta2 2.009950 1_555
O21 Ta3 2.067397 1_555
O21 Y8 2.543764 1_455
O21 Y9 2.554908 1_565
O22 Ta3 2.083928 1_545
O22 Y11 2.271897 1_555
O22 Y9 2.332074 1_555
O22 Y10 2.371530 1_555
O23 Ta3 2.026705 1_545
O23 Y8 2.335860 1_455
O23 Ta4 2.402810 1_555
O23 Y10 2.650263 1_555
O24 Ta4 2.128353 1_655
O24 Ta3 2.184547 1_655
O24 Y8 2.291849 1_555
O24 Y10 2.495896 1_555
O25 Ta3 1.999319 1_655
O25 Y9 2.409740 1_565
O25 Y11 2.463899 1_565
O25 Y10 2.486459 1_555
O26 Ta5 2.034663 1_555
O26 Ta3 2.077559 1_645
O26 Ta4 2.240100 1_655
O26 Y11 2.464499 1_555
O27 Ta4 2.005398 1_655
O27 Y12 2.358863 1_555
O27 Y11 2.377264 1_555
O27 Y10 2.631647 1_555
O28 Ta4 2.005398 1_555
O28 Y10 2.358863 1_555
O28 Y11 2.377264 1_565
O28 Y12 2.631647 1_555
O29 Ta3 2.034663 1_555
O29 Ta5 2.077559 1_465
O29 Ta4 2.240100 1_555
O29 Y11 2.464499 1_565
O30 Ta5 1.999319 1_455
O30 Y13 2.409740 1_545
O30 Y11 2.463899 1_555
O30 Y12 2.486459 1_555
O31 Ta4 2.128353 1_555
O31 Ta5 2.184547 1_455
O31 Y0 2.291849 1_555
O31 Y12 2.495896 1_555
O32 Ta5 2.026705 1_565
O32 Y0 2.335860 1_655
O32 Ta4 2.402810 1_655
O32 Y12 2.650263 1_555
O33 Ta5 2.083928 1_565
O33 Y11 2.271897 1_565
O33 Y13 2.332074 1_555
O33 Y12 2.371530 1_555
O34 Ta0 2.009950 1_555
O34 Ta5 2.067397 1_555
O34 Y0 2.543764 1_655
O34 Y13 2.554908 1_545
O35 Y0 2.246035 1_555
O35 Y13 2.247219 1_555
O35 Y1 2.267144 1_555
O35 Y12 2.327092 1_555
