# generated using pymatgen
data_CaZrV2O8
_symmetry_space_group_name_H-M   'P 1'
_cell_length_a   5.91898811
_cell_length_b   5.91898811
_cell_length_c   5.91898811
_cell_angle_alpha   106.11408464
_cell_angle_beta   106.11408464
_cell_angle_gamma   116.41683518
_symmetry_Int_Tables_number   1
_chemical_formula_structural   CaZrV2O8
_chemical_formula_sum   'Ca1 Zr1 V2 O8'
_cell_volume   157.85231654
_cell_formula_units_Z   1
loop_
 _symmetry_equiv_pos_site_id
 _symmetry_equiv_pos_as_xyz
  1  'x, y, z'
loop_
 _atom_site_type_symbol
 _atom_site_label
 _atom_site_symmetry_multiplicity
 _atom_site_fract_x
 _atom_site_fract_y
 _atom_site_fract_z
 _atom_site_occupancy
  Ca  Ca0  1  0.00000000  0.00000000  0.00000000  1
  Zr  Zr0  1  0.25000000  0.75000000  0.50000000  1
  V  V0  1  0.75000000  0.25000000  0.50000000  1
  V  V1  1  0.50000000  0.50000000  0.00000000  1
  O  O0  1  0.94078100  0.61889700  0.67811600  1
  O  O1  1  0.46951600  0.66635900  0.80315700  1
  O  O2  1  0.86320200  0.66635900  0.19684300  1
  O  O3  1  0.94078100  0.26266500  0.32188400  1
  O  O4  1  0.33364100  0.13679800  0.80315700  1
  O  O5  1  0.73733500  0.05921900  0.67811600  1
  O  O6  1  0.38110300  0.05921900  0.32188400  1
  O  O7  1  0.33364100  0.53048400  0.19684300  1
loop_
_geom_bond_atom_site_label_1
_geom_bond_atom_site_label_2
_geom_bond_distance
_geom_bond_site_symmetry_2
Ca0 O6 2.319747 1_555
Ca0 O5 2.319747 1_454
Ca0 O3 2.319747 1_455
Ca0 O0 2.319747 1_444
Ca0 O4 2.508209 1_554
Ca0 O7 2.508209 1_555
Ca0 O1 2.508209 1_444
Ca0 O2 2.508209 1_445
O0 V0 1.738293 1_555
O0 Zr0 2.307597 1_655
O1 V1 1.742948 1_556
O1 Zr0 2.219099 1_555
O2 V1 1.742948 1_555
O2 Zr0 2.219099 1_655
O3 V0 1.738293 1_555
O3 Zr0 2.307597 1_655
O4 V1 1.742948 1_556
O4 Zr0 2.219099 1_545
O5 V0 1.738293 1_555
O5 Zr0 2.307597 1_545
O6 V0 1.738293 1_555
O6 Zr0 2.307597 1_545
O7 V1 1.742948 1_555
O7 Zr0 2.219099 1_555
