# generated using pymatgen
data_Li2Mn3FeO8
_symmetry_space_group_name_H-M   'P 1'
_cell_length_a   5.96886828
_cell_length_b   5.79211151
_cell_length_c   9.50340300
_cell_angle_alpha   90.00199928
_cell_angle_beta   90.00180400
_cell_angle_gamma   60.00237389
_symmetry_Int_Tables_number   1
_chemical_formula_structural   Li2Mn3FeO8
_chemical_formula_sum   'Li4 Mn6 Fe2 O16'
_cell_volume   284.54376609
_cell_formula_units_Z   2
loop_
 _symmetry_equiv_pos_site_id
 _symmetry_equiv_pos_as_xyz
  1  'x, y, z'
loop_
 _atom_site_type_symbol
 _atom_site_label
 _atom_site_symmetry_multiplicity
 _atom_site_fract_x
 _atom_site_fract_y
 _atom_site_fract_z
 _atom_site_occupancy
  Li  Li0  1  0.66608300  0.66390300  0.88991100  1
  Li  Li1  1  0.33390100  0.33611800  0.38989700  1
  Li  Li2  1  0.00471300  0.99407100  0.99810600  1
  Li  Li3  1  0.99524900  0.00595800  0.49811100  1
  Mn  Mn0  1  0.82833100  0.33894900  0.21345700  1
  Mn  Mn1  1  0.17165900  0.66107100  0.71345700  1
  Mn  Mn2  1  0.33946900  0.83183000  0.21772300  1
  Mn  Mn3  1  0.83061700  0.82837200  0.21314800  1
  Mn  Mn4  1  0.16935600  0.17165300  0.71315200  1
  Mn  Mn5  1  0.66051800  0.16817200  0.71772200  1
  Fe  Fe0  1  0.67426600  0.66634600  0.49307000  1
  Fe  Fe1  1  0.32570900  0.33365300  0.99307200  1
  O  O0  1  0.69063700  0.65418500  0.10182600  1
  O  O1  1  0.30938700  0.34580700  0.60183500  1
  O  O2  1  0.97417700  0.01055400  0.31232400  1
  O  O3  1  0.02576700  0.98949400  0.81231200  1
  O  O4  1  0.32110500  0.83892400  0.59969900  1
  O  O5  1  0.84671800  0.32777900  0.60401100  1
  O  O6  1  0.15630000  0.16153600  0.10599700  1
  O  O7  1  0.84367100  0.83849000  0.60599400  1
  O  O8  1  0.15328200  0.67226400  0.10402200  1
  O  O9  1  0.67887100  0.16109300  0.09969700  1
  O  O10  1  0.52537400  0.51633500  0.33472800  1
  O  O11  1  0.53428300  0.96199700  0.33660000  1
  O  O12  1  0.96238700  0.51541000  0.33331800  1
  O  O13  1  0.03759500  0.48463600  0.83331100  1
  O  O14  1  0.46565800  0.03802600  0.83662300  1
  O  O15  1  0.47461500  0.48367700  0.83471900  1
loop_
_geom_bond_atom_site_label_1
_geom_bond_atom_site_label_2
_geom_bond_distance
_geom_bond_site_symmetry_2
Li0 O14 1.947102 1_565
Li0 O15 1.965645 1_555
Li0 O13 1.995617 1_655
Li0 O0 2.017978 1_556
Li1 O11 1.947081 1_545
Li1 O10 1.965608 1_555
Li1 O12 1.995551 1_455
Li1 O1 2.018189 1_555
Li2 O3 1.769402 1_555
Li2 O8 1.902922 1_556
Li2 O6 1.920488 1_566
Li2 O9 1.941476 1_466
Li3 O2 1.769334 1_555
Li3 O5 1.902868 1_555
Li3 O7 1.920488 1_545
Li3 O4 1.941497 1_645
Mn0 O2 1.898147 1_555
Mn0 O0 1.906389 1_555
Mn0 O10 1.948358 1_555
Mn0 O12 1.949376 1_555
Mn0 O6 1.979813 1_655
Mn0 O9 1.986125 1_555
Mn1 O3 1.898166 1_555
Mn1 O1 1.906410 1_555
Mn1 O15 1.948281 1_555
Mn1 O13 1.949330 1_555
Mn1 O7 1.979885 1_455
Mn1 O4 1.986112 1_555
Mn2 O10 1.944100 1_555
Mn2 O6 1.970269 1_565
Mn2 O11 2.018260 1_555
Mn2 O8 2.069713 1_555
Mn2 O2 2.092139 1_465
Mn2 O0 2.123406 1_555
Mn3 O2 1.907903 1_565
Mn3 O0 1.917813 1_555
Mn3 O11 1.932672 1_555
Mn3 O12 1.945048 1_555
Mn3 O8 1.964968 1_655
Mn3 O9 1.987827 1_565
Mn4 O3 1.907913 1_545
Mn4 O1 1.917925 1_555
Mn4 O14 1.932610 1_555
Mn4 O13 1.945033 1_555
Mn4 O5 1.964888 1_455
Mn4 O4 1.987829 1_545
Mn5 O15 1.944060 1_555
Mn5 O7 1.970142 1_545
Mn5 O14 2.018587 1_555
Mn5 O5 2.070061 1_555
Mn5 O3 2.091869 1_645
Mn5 O1 2.123161 1_555
Fe0 O5 1.999596 1_555
Fe0 O7 2.043591 1_555
Fe0 O4 2.088704 1_555
Fe0 O11 2.100271 1_555
Fe0 O12 2.126841 1_555
Fe0 O10 2.140354 1_555
Fe1 O8 1.999784 1_556
Fe1 O6 2.043568 1_556
Fe1 O9 2.088663 1_556
Fe1 O14 2.099999 1_555
Fe1 O13 2.126845 1_555
Fe1 O15 2.140607 1_555
