# generated using pymatgen
data_SrP3NO12
_symmetry_space_group_name_H-M   'P 1'
_cell_length_a   7.19883400
_cell_length_b   10.03059200
_cell_length_c   16.81212200
_cell_angle_alpha   90.00000000
_cell_angle_beta   90.00000000
_cell_angle_gamma   90.00000000
_symmetry_Int_Tables_number   1
_chemical_formula_structural   SrP3NO12
_chemical_formula_sum   'Sr4 P12 N4 O48'
_cell_volume   1213.97923331
_cell_formula_units_Z   4
loop_
 _symmetry_equiv_pos_site_id
 _symmetry_equiv_pos_as_xyz
  1  'x, y, z'
loop_
 _atom_site_type_symbol
 _atom_site_label
 _atom_site_symmetry_multiplicity
 _atom_site_fract_x
 _atom_site_fract_y
 _atom_site_fract_z
 _atom_site_occupancy
  Sr  Sr0  1  0.75000000  0.16130200  0.04298500  1
  Sr  Sr1  1  0.75000000  0.66130200  0.45701500  1
  Sr  Sr2  1  0.25000000  0.83869800  0.95701500  1
  Sr  Sr3  1  0.25000000  0.33869800  0.54298500  1
  P  P0  1  0.75000000  0.52078000  0.08348000  1
  P  P1  1  0.75000000  0.02078000  0.41652000  1
  P  P2  1  0.25000000  0.47922000  0.91652000  1
  P  P3  1  0.25000000  0.97922000  0.58348000  1
  P  P4  1  0.93986300  0.36002800  0.20011800  1
  P  P5  1  0.56013700  0.86002800  0.29988200  1
  P  P6  1  0.43986300  0.63997200  0.79988200  1
  P  P7  1  0.06013700  0.13997200  0.70011800  1
  P  P8  1  0.06013700  0.63997200  0.79988200  1
  P  P9  1  0.43986300  0.13997200  0.70011800  1
  P  P10  1  0.56013700  0.36002800  0.20011800  1
  P  P11  1  0.93986300  0.86002800  0.29988200  1
  N  N0  1  0.75000000  0.19164000  0.76684900  1
  N  N1  1  0.75000000  0.69164000  0.73315100  1
  N  N2  1  0.25000000  0.80836000  0.23315100  1
  N  N3  1  0.25000000  0.30836000  0.26684900  1
  O  O0  1  0.92695100  0.49113300  0.14875500  1
  O  O1  1  0.57304900  0.99113300  0.35124500  1
  O  O2  1  0.42695100  0.50886700  0.85124500  1
  O  O3  1  0.07304900  0.00886700  0.64875500  1
  O  O4  1  0.07304900  0.50886700  0.85124500  1
  O  O5  1  0.42695100  0.00886700  0.64875500  1
  O  O6  1  0.57304900  0.49113300  0.14875500  1
  O  O7  1  0.92695100  0.99113300  0.35124500  1
  O  O8  1  0.75000000  0.36450600  0.25296700  1
  O  O9  1  0.75000000  0.86450600  0.24703300  1
  O  O10  1  0.25000000  0.63549400  0.74703300  1
  O  O11  1  0.25000000  0.13549400  0.75296700  1
  O  O12  1  0.75000000  0.40685500  0.02602900  1
  O  O13  1  0.75000000  0.90685500  0.47397100  1
  O  O14  1  0.25000000  0.59314500  0.97397100  1
  O  O15  1  0.25000000  0.09314500  0.52602900  1
  O  O16  1  0.75000000  0.66321300  0.06443100  1
  O  O17  1  0.75000000  0.16321300  0.43556900  1
  O  O18  1  0.25000000  0.33678700  0.93556900  1
  O  O19  1  0.25000000  0.83678700  0.56443100  1
  O  O20  1  0.09670000  0.39724000  0.26513000  1
  O  O21  1  0.40330000  0.89724000  0.23487000  1
  O  O22  1  0.59670000  0.60276000  0.73487000  1
  O  O23  1  0.90330000  0.10276000  0.76513000  1
  O  O24  1  0.90330000  0.60276000  0.73487000  1
  O  O25  1  0.59670000  0.10276000  0.76513000  1
  O  O26  1  0.40330000  0.39724000  0.26513000  1
  O  O27  1  0.09670000  0.89724000  0.23487000  1
  O  O28  1  0.96439300  0.23262900  0.15768500  1
  O  O29  1  0.53560700  0.73262900  0.34231500  1
  O  O30  1  0.46439300  0.76737100  0.84231500  1
  O  O31  1  0.03560700  0.26737100  0.65768500  1
  O  O32  1  0.03560700  0.76737100  0.84231500  1
  O  O33  1  0.46439300  0.26737100  0.65768500  1
  O  O34  1  0.53560700  0.23262900  0.15768500  1
  O  O35  1  0.96439300  0.73262900  0.34231500  1
  O  O36  1  0.75000000  0.95989400  0.95207900  1
  O  O37  1  0.75000000  0.45989400  0.54792100  1
  O  O38  1  0.25000000  0.04010600  0.04792100  1
  O  O39  1  0.25000000  0.54010600  0.45207900  1
  O  O40  1  0.02583500  0.98322800  0.03903700  1
  O  O41  1  0.47416500  0.48322800  0.46096300  1
  O  O42  1  0.52583500  0.01677200  0.96096300  1
  O  O43  1  0.97416500  0.51677200  0.53903700  1
  O  O44  1  0.97416500  0.01677200  0.96096300  1
  O  O45  1  0.52583500  0.51677200  0.53903700  1
  O  O46  1  0.47416500  0.98322800  0.03903700  1
  O  O47  1  0.02583500  0.48322800  0.46096300  1
loop_
_geom_bond_atom_site_label_1
_geom_bond_atom_site_label_2
_geom_bond_distance
_geom_bond_site_symmetry_2
N0 O23 1.418990 1_555
N0 O25 1.418990 1_555
N1 O22 1.418990 1_555
N1 O24 1.418990 1_555
N2 O21 1.418990 1_555
N2 O27 1.418990 1_555
N3 O26 1.418990 1_555
N3 O20 1.418990 1_555
O0 P4 1.575974 1_555
O0 P0 1.707459 1_555
O1 P5 1.575974 1_555
O1 P1 1.707459 1_565
O2 P6 1.575974 1_555
O2 P2 1.707459 1_555
O3 P7 1.575974 1_555
O3 P3 1.707459 1_545
O4 P8 1.575974 1_555
O4 P2 1.707459 1_555
O5 P9 1.575974 1_555
O5 P3 1.707459 1_545
O6 P10 1.575974 1_555
O6 P0 1.707459 1_555
O7 P11 1.575974 1_555
O7 P1 1.707459 1_565
O8 P4 1.630821 1_555
O8 P10 1.630821 1_555
O9 P11 1.630821 1_555
O9 P5 1.630821 1_555
O10 P6 1.630821 1_555
O10 P8 1.630821 1_555
O11 P9 1.630821 1_555
O11 P7 1.630821 1_555
O12 P0 1.496247 1_555
O12 Sr0 2.479484 1_555
O13 P1 1.496247 1_565
O13 Sr1 2.479484 1_555
O14 P2 1.496247 1_555
O14 Sr2 2.479484 1_555
O15 P3 1.496247 1_545
O15 Sr3 2.479484 1_555
O16 P0 1.464141 1_555
O17 P1 1.464141 1_555
O18 P2 1.464141 1_555
O19 P3 1.464141 1_555
O20 P4 1.615143 1_455
O21 P5 1.615143 1_555
O22 P6 1.615143 1_555
O23 P7 1.615143 1_655
O24 P8 1.615143 1_655
O25 P9 1.615143 1_555
O26 P10 1.615143 1_555
O27 P11 1.615143 1_455
O28 P4 1.474145 1_555
O28 Sr0 2.571464 1_555
O29 P5 1.474145 1_555
O29 Sr1 2.571464 1_555
O30 P6 1.474145 1_555
O30 Sr2 2.571464 1_555
O31 P7 1.474145 1_555
O31 Sr3 2.571464 1_555
O32 P8 1.474145 1_555
O32 Sr2 2.571464 1_555
O33 P9 1.474145 1_555
O33 Sr3 2.571464 1_555
O34 P10 1.474145 1_555
O34 Sr0 2.571464 1_555
O35 P11 1.474145 1_555
O35 Sr1 2.571464 1_555
O36 O44 1.718114 1_565
O36 O42 1.718114 1_565
O36 Sr0 2.533209 1_566
O37 O43 1.718114 1_555
O37 O45 1.718114 1_555
O37 Sr1 2.533209 1_555
O38 O40 1.718114 1_545
O38 O46 1.718114 1_545
O38 Sr2 2.533209 1_544
O39 O41 1.718114 1_555
O39 O47 1.718114 1_555
O39 Sr3 2.533209 1_555
O40 O44 1.405154 1_464
O40 Sr2 2.570476 1_554
O40 Sr0 2.671673 1_465
O41 O45 1.405154 1_555
O41 Sr3 2.570476 1_555
O41 Sr1 2.671673 1_555
O42 O46 1.405154 1_546
O42 Sr0 2.570476 1_556
O42 Sr2 2.671673 1_545
O43 O47 1.405154 1_655
O43 Sr1 2.570476 1_555
O43 Sr3 2.671673 1_655
O44 Sr0 2.570476 1_556
O44 Sr2 2.671673 1_645
O45 Sr1 2.570476 1_555
O45 Sr3 2.671673 1_555
O46 Sr2 2.570476 1_554
O46 Sr0 2.671673 1_565
O47 Sr3 2.570476 1_555
O47 Sr1 2.671673 1_455
