# generated using pymatgen
data_Sr2Cr2GaO7
_symmetry_space_group_name_H-M   'P 1'
_cell_length_a   12.93353008
_cell_length_b   12.93353008
_cell_length_c   12.93353008
_cell_angle_alpha   156.38021201
_cell_angle_beta   156.07587431
_cell_angle_gamma   33.86964200
_symmetry_Int_Tables_number   1
_chemical_formula_structural   Sr2Cr2GaO7
_chemical_formula_sum   'Sr4 Cr4 Ga2 O14'
_cell_volume   351.17685019
_cell_formula_units_Z   2
loop_
 _symmetry_equiv_pos_site_id
 _symmetry_equiv_pos_as_xyz
  1  'x, y, z'
loop_
 _atom_site_type_symbol
 _atom_site_label
 _atom_site_symmetry_multiplicity
 _atom_site_fract_x
 _atom_site_fract_y
 _atom_site_fract_z
 _atom_site_occupancy
  Sr  Sr0  1  0.33580500  0.84066100  0.48814400  1
  Sr  Sr1  1  0.66419500  0.15233900  0.50485600  1
  Sr  Sr2  1  0.85251700  0.34066100  0.50485600  1
  Sr  Sr3  1  0.14748300  0.65233900  0.48814400  1
  Cr  Cr0  1  0.57102800  0.56941100  0.99183900  1
  Cr  Cr1  1  0.92242800  0.92081100  0.99183900  1
  Cr  Cr2  1  0.07757200  0.06941100  0.99838300  1
  Cr  Cr3  1  0.42897200  0.42081100  0.99838300  1
  Ga  Ga0  1  0.68010200  0.79455400  0.97465600  1
  Ga  Ga1  1  0.31989800  0.29455400  0.11445200  1
  O  O0  1  0.17579500  0.16937100  0.49896500  1
  O  O1  1  0.64821900  0.15482300  0.30304200  1
  O  O2  1  0.17040700  0.66937100  0.99357600  1
  O  O3  1  0.14767400  0.16098700  0.95270600  1
  O  O4  1  0.32708400  0.32394100  0.49284500  1
  O  O5  1  0.33109600  0.82394100  0.99685700  1
  O  O6  1  0.35178100  0.65482300  0.50660500  1
  O  O7  1  0.82959300  0.82317000  0.49896500  1
  O  O8  1  0.82420500  0.32317000  0.99357600  1
  O  O9  1  0.70828100  0.66098700  0.01331300  1
  O  O10  1  0.85232600  0.80503200  0.01331300  1
  O  O11  1  0.29171900  0.30503200  0.95270600  1
  O  O12  1  0.67291600  0.16576100  0.99685700  1
  O  O13  1  0.66890400  0.66576100  0.49284500  1
loop_
_geom_bond_atom_site_label_1
_geom_bond_atom_site_label_2
_geom_bond_distance
_geom_bond_site_symmetry_2
Cr0 O5 1.866424 1_555
Cr0 O8 1.882663 1_555
Cr0 O4 1.883542 1_555
Cr0 O7 1.911905 1_556
Cr0 O9 2.572644 1_556
Cr1 O12 1.866424 1_565
Cr1 O2 1.882667 1_655
Cr1 O13 1.883542 1_555
Cr1 O0 1.911906 1_666
Cr1 O10 2.572644 1_556
Cr2 O4 1.866424 1_556
Cr2 O7 1.882663 1_445
Cr2 O5 1.883542 1_545
Cr2 O8 1.911906 1_455
Cr2 O3 2.572644 1_555
Cr3 O13 1.866424 1_556
Cr3 O0 1.882663 1_555
Cr3 O12 1.883542 1_555
Cr3 O2 1.911901 1_555
Cr3 O11 2.572644 1_555
Ga0 O9 1.889730 1_556
Ga0 O10 1.889730 1_556
Ga0 O6 1.909352 1_555
Ga0 O1 1.914939 1_566
Ga1 O11 1.889730 1_554
Ga1 O3 1.889730 1_554
Ga1 O1 1.909356 1_555
Ga1 O6 1.914942 1_555
O0 Sr0 2.684286 1_545
O0 Sr2 2.699386 1_455
O1 Sr2 2.452215 1_555
O1 Sr1 2.452215 1_555
O2 Sr2 2.684295 1_455
O2 Sr0 2.699395 1_556
O3 Sr1 2.534338 1_455
O3 Sr3 2.635866 1_545
O3 Sr3 2.775607 1_556
O3 Sr1 2.940289 1_556
O4 Sr3 2.696421 1_555
O4 Sr1 2.698899 1_555
O5 Sr1 2.696421 1_566
O5 Sr3 2.698899 1_555
O6 Sr3 2.452203 1_555
O6 Sr0 2.452227 1_555
O7 Sr3 2.684297 1_655
O7 Sr1 2.699392 1_565
O8 Sr1 2.684286 1_555
O8 Sr3 2.699386 1_656
O9 Sr3 2.534338 1_655
O9 Sr1 2.635866 1_554
O9 Sr1 2.775607 1_565
O9 Sr3 2.940289 1_554
O10 Sr0 2.534338 1_655
O10 Sr2 2.635866 1_554
O10 Sr2 2.775607 1_565
O10 Sr0 2.940289 1_554
O11 Sr2 2.534338 1_455
O11 Sr0 2.635866 1_545
O11 Sr0 2.775607 1_556
O11 Sr2 2.940289 1_556
O12 Sr2 2.696421 1_556
O12 Sr0 2.698899 1_545
O13 Sr0 2.696421 1_555
O13 Sr2 2.698899 1_555
