# generated using pymatgen
data_MgSi
_symmetry_space_group_name_H-M   'P 1'
_cell_length_a   3.61766900
_cell_length_b   4.44475000
_cell_length_c   5.12925753
_cell_angle_alpha   69.07970826
_cell_angle_beta   90.00000000
_cell_angle_gamma   90.00000000
_symmetry_Int_Tables_number   1
_chemical_formula_structural   MgSi
_chemical_formula_sum   'Mg2 Si2'
_cell_volume   77.03956999
_cell_formula_units_Z   2
loop_
 _symmetry_equiv_pos_site_id
 _symmetry_equiv_pos_as_xyz
  1  'x, y, z'
loop_
 _atom_site_type_symbol
 _atom_site_label
 _atom_site_symmetry_multiplicity
 _atom_site_fract_x
 _atom_site_fract_y
 _atom_site_fract_z
 _atom_site_occupancy
  Mg  Mg0  1  0.75000000  0.65942200  0.71652200  1
  Mg  Mg1  1  0.25000000  0.34057800  0.28347800  1
  Si  Si0  1  0.25000000  0.12346200  0.84685600  1
  Si  Si1  1  0.75000000  0.87653800  0.15314400  1
loop_
_geom_bond_atom_site_label_1
_geom_bond_atom_site_label_2
_geom_bond_distance
_geom_bond_site_symmetry_2
Mg0 Si1 2.700042 1_555
Mg0 Si1 2.736833 1_556
Mg0 Si0 2.873398 1_555
Mg0 Si0 2.873398 1_655
Mg0 Si0 2.992918 1_565
Mg0 Si0 2.992918 1_665
Mg1 Si0 2.700042 1_555
Mg1 Si0 2.736833 1_554
Mg1 Si1 2.873398 1_555
Mg1 Si1 2.873398 1_455
Mg1 Si1 2.992918 1_445
Mg1 Si1 2.992918 1_545
Si0 Si1 2.390234 1_546
Si0 Si1 2.390234 1_446
