# generated using pymatgen
data_BiSbS3
_symmetry_space_group_name_H-M   'P 1'
_cell_length_a   3.96888500
_cell_length_b   11.20558400
_cell_length_c   11.86769200
_cell_angle_alpha   90.00000000
_cell_angle_beta   90.00000000
_cell_angle_gamma   90.00000000
_symmetry_Int_Tables_number   1
_chemical_formula_structural   BiSbS3
_chemical_formula_sum   'Bi4 Sb4 S12'
_cell_volume   527.79986815
_cell_formula_units_Z   4
loop_
 _symmetry_equiv_pos_site_id
 _symmetry_equiv_pos_as_xyz
  1  'x, y, z'
loop_
 _atom_site_type_symbol
 _atom_site_label
 _atom_site_symmetry_multiplicity
 _atom_site_fract_x
 _atom_site_fract_y
 _atom_site_fract_z
 _atom_site_occupancy
  Bi  Bi0  1  0.25000000  0.16977100  0.51571600  1
  Bi  Bi1  1  0.25000000  0.33022900  0.01571600  1
  Bi  Bi2  1  0.75000000  0.83022900  0.48428400  1
  Bi  Bi3  1  0.75000000  0.66977100  0.98428400  1
  Sb  Sb0  1  0.75000000  0.46180700  0.64622200  1
  Sb  Sb1  1  0.75000000  0.03819300  0.14622200  1
  Sb  Sb2  1  0.25000000  0.53819300  0.35377800  1
  Sb  Sb3  1  0.25000000  0.96180700  0.85377800  1
  S  S0  1  0.25000000  0.62542800  0.54627700  1
  S  S1  1  0.25000000  0.87457200  0.04627700  1
  S  S2  1  0.75000000  0.37457200  0.45372300  1
  S  S3  1  0.75000000  0.12542800  0.95372300  1
  S  S4  1  0.75000000  0.05615200  0.62245500  1
  S  S5  1  0.75000000  0.44384800  0.12245500  1
  S  S6  1  0.25000000  0.94384800  0.37754500  1
  S  S7  1  0.25000000  0.55615200  0.87754500  1
  S  S8  1  0.25000000  0.31318200  0.70233400  1
  S  S9  1  0.25000000  0.18681800  0.20233400  1
  S  S10  1  0.75000000  0.68681800  0.29766600  1
  S  S11  1  0.75000000  0.81318200  0.79766600  1
loop_
_geom_bond_atom_site_label_1
_geom_bond_atom_site_label_2
_geom_bond_distance
_geom_bond_site_symmetry_2
Bi0 S4 2.676492 1_555
Bi0 S4 2.676492 1_455
Bi0 S8 2.736324 1_555
Bi0 S6 3.016263 1_545
Bi0 S2 3.121846 1_455
Bi0 S2 3.121846 1_555
Bi1 S5 2.676492 1_455
Bi1 S5 2.676492 1_555
Bi1 S9 2.736324 1_555
Bi1 S7 3.016263 1_554
Bi1 S3 3.121846 1_554
Bi1 S3 3.121846 1_454
Bi2 S6 2.676492 1_655
Bi2 S6 2.676492 1_555
Bi2 S10 2.736324 1_555
Bi2 S4 3.016263 1_565
Bi2 S0 3.121846 1_655
Bi2 S0 3.121846 1_555
Bi3 S7 2.676492 1_555
Bi3 S7 2.676492 1_655
Bi3 S11 2.736324 1_555
Bi3 S5 3.016263 1_556
Bi3 S1 3.121846 1_556
Bi3 S1 3.121846 1_656
S0 Sb2 2.484868 1_555
S0 Sb0 2.950677 1_555
S0 Sb0 2.950677 1_455
S1 Sb3 2.484868 1_554
S1 Sb1 2.950677 1_565
S1 Sb1 2.950677 1_465
S2 Sb0 2.484868 1_555
S2 Sb2 2.950677 1_655
S2 Sb2 2.950677 1_555
S3 Sb1 2.484868 1_556
S3 Sb3 2.950677 1_645
S3 Sb3 2.950677 1_545
S8 Sb0 2.674905 1_555
S8 Sb0 2.674905 1_455
S9 Sb1 2.674905 1_555
S9 Sb1 2.674905 1_455
S10 Sb2 2.674905 1_555
S10 Sb2 2.674905 1_655
S11 Sb3 2.674905 1_555
S11 Sb3 2.674905 1_655
