# generated using pymatgen
data_Ba6ZnCo5(SiO4)6
_symmetry_space_group_name_H-M   'P 1'
_cell_length_a   8.83792300
_cell_length_b   9.22677342
_cell_length_c   9.23137096
_cell_angle_alpha   119.94877276
_cell_angle_beta   90.02047570
_cell_angle_gamma   90.01734999
_symmetry_Int_Tables_number   1
_chemical_formula_structural   Ba6ZnCo5(SiO4)6
_chemical_formula_sum   'Ba6 Zn1 Co5 Si6 O24'
_cell_volume   652.26002243
_cell_formula_units_Z   1
loop_
 _symmetry_equiv_pos_site_id
 _symmetry_equiv_pos_as_xyz
  1  'x, y, z'
loop_
 _atom_site_type_symbol
 _atom_site_label
 _atom_site_symmetry_multiplicity
 _atom_site_fract_x
 _atom_site_fract_y
 _atom_site_fract_z
 _atom_site_occupancy
  Ba  Ba0  1  0.77809000  0.66677800  0.33309500  1
  Ba  Ba1  1  0.27767900  0.33329500  0.66624800  1
  Ba  Ba2  1  0.77046600  0.33324100  0.66692500  1
  Ba  Ba3  1  0.27036300  0.66593300  0.33346800  1
  Ba  Ba4  1  0.75046200  0.99962900  0.99973100  1
  Ba  Ba5  1  0.25043600  0.00102400  0.00045900  1
  Zn  Zn0  1  0.46621900  0.32999700  0.31939700  1
  Co  Co0  1  0.96434300  0.31823700  0.98858300  1
  Co  Co1  1  0.46414800  0.98837700  0.66972100  1
  Co  Co2  1  0.96418200  0.67007700  0.68158300  1
  Co  Co3  1  0.46405600  0.68163200  0.01142000  1
  Co  Co4  1  0.96435400  0.01153300  0.32972200  1
  Si  Si0  1  0.56771400  0.01126300  0.34010200  1
  Si  Si1  1  0.06735700  0.34023800  0.32921300  1
  Si  Si2  1  0.56735800  0.32851200  0.98890400  1
  Si  Si3  1  0.06747100  0.98900200  0.65989200  1
  Si  Si4  1  0.56734800  0.66007100  0.67077600  1
  Si  Si5  1  0.06754900  0.67094600  0.01099100  1
  O  O0  1  0.47684400  0.08780000  0.23619900  1
  O  O1  1  0.97541600  0.23735600  0.15002000  1
  O  O2  1  0.47578600  0.14900600  0.91164900  1
  O  O3  1  0.97567300  0.91237800  0.76273300  1
  O  O4  1  0.47566600  0.76264400  0.85004600  1
  O  O5  1  0.97570500  0.85024600  0.08761000  1
  O  O6  1  0.51030500  0.09641500  0.53574700  1
  O  O7  1  0.00995100  0.53620600  0.44002100  1
  O  O8  1  0.51046800  0.44001100  0.90422300  1
  O  O9  1  0.01039300  0.90387300  0.46393900  1
  O  O10  1  0.50936600  0.46406600  0.56074300  1
  O  O11  1  0.01051700  0.55996200  0.09620900  1
  O  O12  1  0.54942100  0.80580300  0.23982400  1
  O  O13  1  0.04962200  0.23996200  0.43458600  1
  O  O14  1  0.54900700  0.43364800  0.19437600  1
  O  O15  1  0.04953800  0.19455800  0.76017200  1
  O  O16  1  0.54976400  0.76006100  0.56520600  1
  O  O17  1  0.04957300  0.56557800  0.80560500  1
  O  O18  1  0.24623400  0.34586000  0.28070300  1
  O  O19  1  0.74634200  0.28040100  0.93550000  1
  O  O20  1  0.24643300  0.93512800  0.65488500  1
  O  O21  1  0.74622900  0.65428900  0.71925800  1
  O  O22  1  0.24655000  0.71992700  0.06501500  1
  O  O23  1  0.74660200  0.06500400  0.34543600  1
loop_
_geom_bond_atom_site_label_1
_geom_bond_atom_site_label_2
_geom_bond_distance
_geom_bond_site_symmetry_2
Ba0 O16 2.750779 1_555
Ba0 O12 2.752121 1_555
Ba0 O14 2.758826 1_555
Ba0 O7 2.795039 1_655
Ba0 O9 2.795889 1_655
Ba0 O11 2.797416 1_655
Ba1 O13 2.744913 1_555
Ba1 O15 2.750222 1_555
Ba1 O17 2.750298 1_555
Ba1 O10 2.787568 1_555
Ba1 O6 2.798339 1_555
Ba1 O8 2.804314 1_555
Ba2 O21 2.761472 1_555
Ba2 O19 2.763580 1_555
Ba2 O23 2.764620 1_555
Ba2 O6 2.980085 1_555
Ba2 O8 2.983207 1_555
Ba2 O10 2.987347 1_555
Ba2 O15 3.092202 1_655
Ba2 O17 3.094122 1_655
Ba2 O13 3.096738 1_655
Ba3 O18 2.750934 1_555
Ba3 O20 2.767714 1_555
Ba3 O22 2.768808 1_555
Ba3 O7 2.978699 1_555
Ba3 O11 2.980580 1_555
Ba3 O9 2.985692 1_555
Ba3 O14 3.092654 1_555
Ba3 O16 3.093242 1_555
Ba3 O12 3.099825 1_555
Ba4 O5 2.763626 1_556
Ba4 O3 2.764388 1_555
Ba4 O1 2.765077 1_566
Ba4 O19 2.932228 1_565
Ba4 O21 2.936105 1_555
Ba4 O23 2.937289 1_566
Ba4 O0 3.083276 1_566
Ba4 O4 3.092969 1_555
Ba4 O2 3.094096 1_565
Ba5 O2 2.760472 1_554
Ba5 O0 2.763520 1_555
Ba5 O4 2.771891 1_544
Ba5 O18 2.932432 1_555
Ba5 O20 2.934467 1_544
Ba5 O22 2.937071 1_545
Ba5 O1 3.093320 1_455
Ba5 O3 3.095902 1_444
Ba5 O5 3.097576 1_445
Co0 O1 1.974289 1_556
Co0 O19 1.975397 1_555
Co0 O15 1.978468 1_655
Co0 O11 1.978569 1_656
Co1 O2 1.972257 1_565
Co1 O20 1.973462 1_555
Co1 O16 1.978231 1_555
Co1 O6 1.980088 1_565
Co2 O3 1.974152 1_555
Co2 O21 1.975733 1_555
Co2 O17 1.977874 1_655
Co2 O7 1.978078 1_655
Co3 O22 1.972668 1_555
Co3 O4 1.974925 1_554
Co3 O12 1.978361 1_555
Co3 O8 1.978832 1_554
Co4 O23 1.974177 1_555
Co4 O5 1.974677 1_545
Co4 O13 1.977023 1_655
Co4 O9 1.978939 1_645
O0 Si0 1.655227 1_555
O0 Zn0 1.969538 1_555
O1 Si1 1.651809 1_655
O2 Si2 1.651120 1_555
O3 Si3 1.652180 1_655
O4 Si4 1.651845 1_555
O5 Si5 1.651957 1_655
O6 Si0 1.649460 1_555
O7 Si1 1.651477 1_555
O8 Si2 1.650839 1_555
O9 Si3 1.650475 1_555
O10 Si4 1.652250 1_555
O10 Zn0 1.971488 1_555
O11 Si5 1.651015 1_555
O12 Si0 1.650578 1_565
O13 Si1 1.650894 1_555
O14 Si2 1.651755 1_554
O14 Zn0 1.970834 1_555
O15 Si3 1.651214 1_545
O16 Si4 1.650082 1_555
O17 Si5 1.650596 1_556
O18 Si1 1.651098 1_555
O18 Zn0 1.995205 1_555
O19 Si2 1.650701 1_555
O20 Si3 1.651799 1_555
O21 Si4 1.651029 1_555
O22 Si5 1.652163 1_555
O23 Si0 1.650135 1_555
