# generated using pymatgen
data_Er(SiPt)2
_symmetry_space_group_name_H-M   'P 1'
_cell_length_a   5.85776065
_cell_length_b   5.85776065
_cell_length_c   5.85776065
_cell_angle_alpha   138.03284741
_cell_angle_beta   138.03284741
_cell_angle_gamma   60.85269497
_symmetry_Int_Tables_number   1
_chemical_formula_structural   Er(SiPt)2
_chemical_formula_sum   'Er1 Si2 Pt2'
_cell_volume   88.90231032
_cell_formula_units_Z   1
loop_
 _symmetry_equiv_pos_site_id
 _symmetry_equiv_pos_as_xyz
  1  'x, y, z'
loop_
 _atom_site_type_symbol
 _atom_site_label
 _atom_site_symmetry_multiplicity
 _atom_site_fract_x
 _atom_site_fract_y
 _atom_site_fract_z
 _atom_site_occupancy
  Er  Er0  1  0.00000000  0.00000000  0.00000000  1
  Si  Si0  1  0.75000000  0.25000000  0.50000000  1
  Si  Si1  1  0.25000000  0.75000000  0.50000000  1
  Pt  Pt0  1  0.63248200  0.63248200  0.00000000  1
  Pt  Pt1  1  0.36751800  0.36751800  0.00000000  1
loop_
_geom_bond_atom_site_label_1
_geom_bond_atom_site_label_2
_geom_bond_distance
_geom_bond_site_symmetry_2
Er0 Pt0 3.254469 1_545
Er0 Pt1 3.254469 1_455
Er0 Pt0 3.254469 1_455
Er0 Pt1 3.254469 1_556
Er0 Pt0 3.254469 1_556
Er0 Pt0 3.254469 1_444
Er0 Pt1 3.254469 1_444
Er0 Pt1 3.254469 1_545
Er0 Si0 3.283054 1_454
Er0 Si0 3.283054 1_444
Er0 Si0 3.283054 1_555
Er0 Si1 3.283054 1_555
Er0 Si1 3.283054 1_544
Er0 Si1 3.283054 1_545
Er0 Si1 3.283054 1_444
Er0 Si0 3.283054 1_455
Pt0 Si1 2.410309 1_655
Pt0 Si0 2.410309 1_554
Pt0 Si1 2.410309 1_554
Pt0 Si0 2.410309 1_565
Pt1 Si0 2.410309 1_454
Pt1 Si0 2.410309 1_555
Pt1 Si1 2.410309 1_544
Pt1 Si1 2.410309 1_555
