# generated using pymatgen
data_Ba3Li(AsO4)2
_symmetry_space_group_name_H-M   'P 1'
_cell_length_a   8.33123364
_cell_length_b   8.33123404
_cell_length_c   8.33123358
_cell_angle_alpha   41.42598820
_cell_angle_beta   41.42598586
_cell_angle_gamma   41.42598594
_symmetry_Int_Tables_number   1
_chemical_formula_structural   Ba3Li(AsO4)2
_chemical_formula_sum   'Ba3 Li1 As2 O8'
_cell_volume   228.73533416
_cell_formula_units_Z   1
loop_
 _symmetry_equiv_pos_site_id
 _symmetry_equiv_pos_as_xyz
  1  'x, y, z'
loop_
 _atom_site_type_symbol
 _atom_site_label
 _atom_site_symmetry_multiplicity
 _atom_site_fract_x
 _atom_site_fract_y
 _atom_site_fract_z
 _atom_site_occupancy
  Ba  Ba0  1  0.79187700  0.79187700  0.79187700  1
  Ba  Ba1  1  0.20812300  0.20812300  0.20812300  1
  Ba  Ba2  1  0.00000000  0.00000000  0.00000000  1
  Li  Li0  1  0.50000000  0.50000000  0.50000000  1
  As  As0  1  0.60246500  0.60246500  0.60246500  1
  As  As1  1  0.39753500  0.39753500  0.39753500  1
  O  O0  1  0.67935400  0.67935400  0.67935400  1
  O  O1  1  0.32064600  0.32064600  0.32064600  1
  O  O2  1  0.72154700  0.72154700  0.25449400  1
  O  O3  1  0.72154700  0.25449400  0.72154700  1
  O  O4  1  0.25449400  0.72154700  0.72154700  1
  O  O5  1  0.27845300  0.74550600  0.27845300  1
  O  O6  1  0.27845300  0.27845300  0.74550600  1
  O  O7  1  0.74550600  0.27845300  0.27845300  1
loop_
_geom_bond_atom_site_label_1
_geom_bond_atom_site_label_2
_geom_bond_distance
_geom_bond_site_symmetry_2
Ba0 O0 2.567133 1_555
Ba0 O5 3.000891 1_655
Ba0 O5 3.000891 1_556
Ba0 O6 3.000891 1_565
Ba0 O6 3.000891 1_655
Ba0 O7 3.000891 1_565
Ba0 O7 3.000891 1_556
Ba0 O2 3.046792 1_556
Ba0 O4 3.046792 1_655
Ba0 O3 3.046792 1_565
Ba1 O1 2.567133 1_555
Ba1 O3 3.000891 1_455
Ba1 O3 3.000891 1_554
Ba1 O2 3.000891 1_545
Ba1 O2 3.000891 1_455
Ba1 O4 3.000891 1_545
Ba1 O4 3.000891 1_554
Ba1 O6 3.046792 1_554
Ba1 O7 3.046792 1_455
Ba1 O5 3.046792 1_545
Ba2 O3 2.928685 1_454
Ba2 O5 2.928685 1_545
Ba2 O4 2.928685 1_544
Ba2 O7 2.928685 1_455
Ba2 O2 2.928685 1_445
Ba2 O6 2.928685 1_554
Ba2 O1 3.414787 1_455
Ba2 O0 3.414787 1_544
Ba2 O1 3.414787 1_554
Ba2 O0 3.414787 1_445
Ba2 O1 3.414787 1_545
Ba2 O0 3.414787 1_454
Li0 O5 2.187058 1_555
Li0 O3 2.187058 1_555
Li0 O7 2.187058 1_555
Li0 O4 2.187058 1_555
Li0 O6 2.187059 1_555
Li0 O2 2.187059 1_555
As0 O0 1.754169 1_555
As0 O4 1.795190 1_555
As0 O2 1.795190 1_555
As0 O3 1.795190 1_555
As1 O1 1.754169 1_555
As1 O7 1.795190 1_555
As1 O6 1.795190 1_555
As1 O5 1.795190 1_555
