# generated using pymatgen
data_Ti2ZnCoO7
_symmetry_space_group_name_H-M   'P 1'
_cell_length_a   14.20539800
_cell_length_b   6.63847500
_cell_length_c   11.84286047
_cell_angle_alpha   74.51757034
_cell_angle_beta   90.00000000
_cell_angle_gamma   90.00000000
_symmetry_Int_Tables_number   1
_chemical_formula_structural   Ti2ZnCoO7
_chemical_formula_sum   'Ti16 Zn8 Co8 O56'
_cell_volume   1076.28124204
_cell_formula_units_Z   8
loop_
 _symmetry_equiv_pos_site_id
 _symmetry_equiv_pos_as_xyz
  1  'x, y, z'
loop_
 _atom_site_type_symbol
 _atom_site_label
 _atom_site_symmetry_multiplicity
 _atom_site_fract_x
 _atom_site_fract_y
 _atom_site_fract_z
 _atom_site_occupancy
  Ti  Ti0  1  0.88540100  0.15431800  0.99031300  1
  Ti  Ti1  1  0.01264000  0.57036300  0.68398500  1
  Ti  Ti2  1  0.48736000  0.57036300  0.18398500  1
  Ti  Ti3  1  0.98736000  0.42963700  0.31601500  1
  Ti  Ti4  1  0.71170900  0.48729100  0.80327900  1
  Ti  Ti5  1  0.21170900  0.51270900  0.69672100  1
  Ti  Ti6  1  0.28829100  0.51270900  0.19672100  1
  Ti  Ti7  1  0.78829100  0.48729100  0.30327900  1
  Ti  Ti8  1  0.51264000  0.42963700  0.81601500  1
  Ti  Ti9  1  0.14769000  0.12722200  0.47382200  1
  Ti  Ti10  1  0.64769000  0.87277800  0.02617800  1
  Ti  Ti11  1  0.85231000  0.87277800  0.52617800  1
  Ti  Ti12  1  0.38540100  0.84568200  0.50968700  1
  Ti  Ti13  1  0.61459900  0.15431800  0.49031300  1
  Ti  Ti14  1  0.11459900  0.84568200  0.00968700  1
  Ti  Ti15  1  0.35231000  0.12722200  0.97382200  1
  Zn  Zn0  1  0.51493700  0.95987800  0.76390800  1
  Zn  Zn1  1  0.89023300  0.69080100  0.92150500  1
  Zn  Zn2  1  0.39023300  0.30919900  0.57849500  1
  Zn  Zn3  1  0.10976700  0.30919900  0.07849500  1
  Zn  Zn4  1  0.60976700  0.69080100  0.42150500  1
  Zn  Zn5  1  0.98506300  0.95987800  0.26390800  1
  Zn  Zn6  1  0.48506300  0.04012200  0.23609200  1
  Zn  Zn7  1  0.01493700  0.04012200  0.73609200  1
  Co  Co0  1  0.66795500  0.36135200  0.08402300  1
  Co  Co1  1  0.16795500  0.63864800  0.41597700  1
  Co  Co2  1  0.33204500  0.63864800  0.91597700  1
  Co  Co3  1  0.83204500  0.36135200  0.58402300  1
  Co  Co4  1  0.76565600  0.00876100  0.25524400  1
  Co  Co5  1  0.26565600  0.99123900  0.24475600  1
  Co  Co6  1  0.23434400  0.99123900  0.74475600  1
  Co  Co7  1  0.73434400  0.00876100  0.75524400  1
  O  O0  1  0.00607400  0.22127500  0.98581800  1
  O  O1  1  0.50607400  0.77872500  0.51418200  1
  O  O2  1  0.99392600  0.77872500  0.01418200  1
  O  O3  1  0.49392600  0.22127500  0.48581800  1
  O  O4  1  0.83567300  0.98603800  0.89583500  1
  O  O5  1  0.33567300  0.01396200  0.60416500  1
  O  O6  1  0.16432700  0.01396200  0.10416500  1
  O  O7  1  0.66432700  0.98603800  0.39583500  1
  O  O8  1  0.86877100  0.01613600  0.15284200  1
  O  O9  1  0.36877100  0.98386400  0.34715800  1
  O  O10  1  0.13122900  0.98386400  0.84715800  1
  O  O11  1  0.63122900  0.01613600  0.65284200  1
  O  O12  1  0.28996100  0.37402700  0.92478700  1
  O  O13  1  0.78996100  0.62597300  0.57521300  1
  O  O14  1  0.71003900  0.62597300  0.07521300  1
  O  O15  1  0.21003900  0.37402700  0.42478700  1
  O  O16  1  0.36069900  0.01803500  0.13589900  1
  O  O17  1  0.86069900  0.98196500  0.36410100  1
  O  O18  1  0.63930100  0.98196500  0.86410100  1
  O  O19  1  0.13930100  0.01803500  0.63589900  1
  O  O20  1  0.31516500  0.93028800  0.89021800  1
  O  O21  1  0.45151100  0.67623300  0.81875700  1
  O  O22  1  0.81516500  0.06971200  0.60978200  1
  O  O23  1  0.18483500  0.93028800  0.39021800  1
  O  O24  1  0.46648600  0.25392400  0.72949400  1
  O  O25  1  0.96648600  0.74607600  0.77050600  1
  O  O26  1  0.53351400  0.74607600  0.27050600  1
  O  O27  1  0.03351400  0.25392400  0.22949400  1
  O  O28  1  0.46997700  0.21094200  0.95304000  1
  O  O29  1  0.96997700  0.78905800  0.54696000  1
  O  O30  1  0.53002300  0.78905800  0.04696000  1
  O  O31  1  0.03002300  0.21094200  0.45304000  1
  O  O32  1  0.89083100  0.54969600  0.21096700  1
  O  O33  1  0.39083100  0.45030400  0.28903300  1
  O  O34  1  0.10916900  0.45030400  0.78903300  1
  O  O35  1  0.60916900  0.54969600  0.71096700  1
  O  O36  1  0.74643700  0.28065700  0.23349500  1
  O  O37  1  0.24643700  0.71934300  0.26650500  1
  O  O38  1  0.25356300  0.71934300  0.76650500  1
  O  O39  1  0.75356300  0.28065700  0.73349500  1
  O  O40  1  0.67787000  0.40786500  0.44258800  1
  O  O41  1  0.17787000  0.59213500  0.05741200  1
  O  O42  1  0.32213000  0.59213500  0.55741200  1
  O  O43  1  0.82213000  0.40786500  0.94258800  1
  O  O44  1  0.73416200  0.74912800  0.28252900  1
  O  O45  1  0.23416200  0.25087200  0.21747100  1
  O  O46  1  0.26583800  0.25087200  0.71747100  1
  O  O47  1  0.76583800  0.74912800  0.78252900  1
  O  O48  1  0.87504600  0.40919600  0.42394700  1
  O  O49  1  0.37504600  0.59080400  0.07605300  1
  O  O50  1  0.12495400  0.59080400  0.57605300  1
  O  O51  1  0.62495400  0.40919600  0.92394700  1
  O  O52  1  0.04848900  0.67623300  0.31875700  1
  O  O53  1  0.54848900  0.32376700  0.18124300  1
  O  O54  1  0.95151100  0.32376700  0.68124300  1
  O  O55  1  0.68483500  0.06971200  0.10978200  1
loop_
_geom_bond_atom_site_label_1
_geom_bond_atom_site_label_2
_geom_bond_distance
_geom_bond_site_symmetry_2
Co0 O14 1.832033 1_555
Co0 O55 1.893016 1_555
Co0 O51 1.935574 1_554
Co0 O53 2.028433 1_555
Co0 O36 2.038910 1_555
Co1 O15 1.832033 1_555
Co1 O23 1.893016 1_555
Co1 O50 1.935574 1_555
Co1 O52 2.028433 1_555
Co1 O37 2.038910 1_555
Co2 O12 1.832033 1_555
Co2 O20 1.893016 1_555
Co2 O49 1.935574 1_556
Co2 O21 2.028433 1_555
Co2 O38 2.038910 1_555
Co3 O13 1.832033 1_555
Co3 O22 1.893016 1_555
Co3 O48 1.935574 1_555
Co3 O54 2.028433 1_555
Co3 O39 2.038910 1_555
Co4 O44 1.725662 1_545
Co4 O36 1.774994 1_555
Co4 O17 1.842288 1_545
Co4 O8 1.893945 1_555
Co4 O55 2.019245 1_555
Co4 O7 2.175503 1_545
Co5 O45 1.725662 1_565
Co5 O37 1.774994 1_555
Co5 O16 1.842288 1_565
Co5 O9 1.893945 1_555
Co5 O23 2.019245 1_555
Co5 O6 2.175503 1_565
Co6 O46 1.725662 1_565
Co6 O38 1.774994 1_555
Co6 O19 1.842288 1_565
Co6 O10 1.893945 1_555
Co6 O20 2.019245 1_555
Co6 O5 2.175503 1_565
Co7 O47 1.725662 1_545
Co7 O39 1.774994 1_555
Co7 O18 1.842288 1_545
Co7 O11 1.893945 1_555
Co7 O22 2.019245 1_555
Co7 O4 2.175503 1_545
O0 Ti0 1.768130 1_455
O0 Zn3 2.014218 1_556
O1 Ti12 1.768130 1_555
O1 Zn4 2.014218 1_555
O2 Ti14 1.768130 1_655
O2 Zn1 2.014218 1_554
O3 Ti13 1.768130 1_555
O3 Zn2 2.014218 1_555
O4 Ti0 1.914735 1_565
O4 Zn1 2.053366 1_555
O5 Ti12 1.914735 1_545
O5 Zn2 2.053366 1_555
O6 Ti14 1.914735 1_545
O6 Zn3 2.053366 1_555
O7 Ti13 1.914735 1_565
O7 Zn4 2.053366 1_555
O8 Ti0 1.912983 1_554
O8 Zn5 2.082390 1_545
O9 Ti12 1.912983 1_555
O9 Zn6 2.082390 1_565
O10 Ti14 1.912983 1_556
O10 Zn7 2.082390 1_565
O11 Ti13 1.912983 1_555
O11 Zn0 2.082390 1_545
O12 Ti15 1.816067 1_555
O13 Ti11 1.816067 1_555
O14 Ti10 1.816067 1_555
O15 Ti9 1.816067 1_555
O16 Ti15 1.865772 1_554
O16 Zn6 2.154844 1_555
O17 Ti11 1.865772 1_555
O17 Zn5 2.154844 1_555
O18 Ti10 1.865772 1_556
O18 Zn0 2.154844 1_555
O19 Ti9 1.865772 1_555
O19 Zn7 2.154844 1_555
O20 Ti15 1.912839 1_565
O21 Ti8 1.861002 1_555
O21 Zn0 2.031329 1_555
O22 Ti11 1.912839 1_545
O23 Ti9 1.912839 1_565
O24 Ti8 1.865084 1_555
O24 Zn0 2.006351 1_545
O24 Zn2 2.038510 1_555
O25 Ti1 1.865084 1_655
O25 Zn7 2.006351 1_665
O25 Zn1 2.038510 1_555
O26 Ti2 1.865084 1_555
O26 Zn6 2.006351 1_565
O26 Zn4 2.038510 1_555
O27 Ti3 1.865084 1_455
O27 Zn5 2.006351 1_445
O27 Zn3 2.038510 1_555
O28 Ti15 1.757943 1_555
O28 Ti8 1.962293 1_555
O29 Ti11 1.757943 1_555
O29 Ti1 1.962293 1_655
O30 Ti10 1.757943 1_555
O30 Ti2 1.962293 1_555
O31 Ti9 1.757943 1_555
O31 Ti3 1.962293 1_455
O32 Ti7 1.801872 1_555
O32 Ti3 1.879852 1_555
O33 Ti6 1.801872 1_555
O33 Ti2 1.879852 1_555
O34 Ti5 1.801872 1_555
O34 Ti1 1.879852 1_555
O35 Ti4 1.801872 1_555
O35 Ti8 1.879852 1_555
O36 Ti7 1.877072 1_555
O37 Ti6 1.877072 1_555
O38 Ti5 1.877072 1_555
O39 Ti4 1.877072 1_555
O40 Ti13 1.858069 1_555
O40 Zn4 2.067791 1_555
O40 Ti7 2.235153 1_555
O41 Ti14 1.858069 1_555
O41 Zn3 2.067791 1_555
O41 Ti6 2.235153 1_555
O42 Ti12 1.858069 1_555
O42 Zn2 2.067791 1_555
O42 Ti5 2.235153 1_555
O43 Ti0 1.858069 1_555
O43 Zn1 2.067791 1_555
O43 Ti4 2.235153 1_555
O44 Ti7 1.856049 1_555
O44 Zn4 2.375113 1_555
O45 Ti6 1.856049 1_555
O45 Zn3 2.375113 1_555
O46 Ti5 1.856049 1_555
O46 Zn2 2.375113 1_555
O47 Ti4 1.856049 1_555
O47 Zn1 2.375113 1_555
O48 Ti7 1.853163 1_555
O48 Ti3 2.026123 1_555
O49 Ti6 1.853163 1_555
O49 Ti2 2.026123 1_555
O50 Ti5 1.853163 1_555
O50 Ti1 2.026123 1_555
O51 Ti4 1.853163 1_555
O51 Ti8 2.026123 1_555
O52 Ti3 1.861002 1_455
O52 Zn5 2.031329 1_455
O53 Ti2 1.861002 1_555
O53 Zn6 2.031329 1_555
O54 Ti1 1.861002 1_655
O54 Zn7 2.031329 1_655
O55 Ti10 1.912839 1_545
