# generated using pymatgen
data_Ho2SiSeO4
_symmetry_space_group_name_H-M   'P 1'
_cell_length_a   6.04202100
_cell_length_b   6.95092600
_cell_length_c   10.82142600
_cell_angle_alpha   90.00000000
_cell_angle_beta   90.00000000
_cell_angle_gamma   90.00000000
_symmetry_Int_Tables_number   1
_chemical_formula_structural   Ho2SiSeO4
_chemical_formula_sum   'Ho8 Si4 Se4 O16'
_cell_volume   454.47436276
_cell_formula_units_Z   4
loop_
 _symmetry_equiv_pos_site_id
 _symmetry_equiv_pos_as_xyz
  1  'x, y, z'
loop_
 _atom_site_type_symbol
 _atom_site_label
 _atom_site_symmetry_multiplicity
 _atom_site_fract_x
 _atom_site_fract_y
 _atom_site_fract_z
 _atom_site_occupancy
  Ho  Ho0  1  0.60940200  0.25000000  0.50000000  1
  Ho  Ho1  1  0.60940200  0.25000000  0.00000000  1
  Ho  Ho2  1  0.39059800  0.75000000  0.50000000  1
  Ho  Ho3  1  0.39059800  0.75000000  0.00000000  1
  Ho  Ho4  1  0.86587900  0.52772100  0.75000000  1
  Ho  Ho5  1  0.86587900  0.97227900  0.25000000  1
  Ho  Ho6  1  0.13412100  0.02772100  0.75000000  1
  Ho  Ho7  1  0.13412100  0.47227900  0.25000000  1
  Si  Si0  1  0.11465800  0.25000000  0.50000000  1
  Si  Si1  1  0.88534200  0.75000000  0.50000000  1
  Si  Si2  1  0.88534200  0.75000000  0.00000000  1
  Si  Si3  1  0.11465800  0.25000000  0.00000000  1
  Se  Se0  1  0.57100000  0.86809100  0.75000000  1
  Se  Se1  1  0.57100000  0.63190900  0.25000000  1
  Se  Se2  1  0.42900000  0.36809100  0.75000000  1
  Se  Se3  1  0.42900000  0.13190900  0.25000000  1
  O  O0  1  0.27840000  0.43222500  0.03143600  1
  O  O1  1  0.27840000  0.06777500  0.96856400  1
  O  O2  1  0.72160000  0.93222500  0.46856400  1
  O  O3  1  0.72160000  0.56777500  0.53143600  1
  O  O4  1  0.72160000  0.56777500  0.96856400  1
  O  O5  1  0.72160000  0.93222500  0.03143600  1
  O  O6  1  0.27840000  0.06777500  0.53143600  1
  O  O7  1  0.27840000  0.43222500  0.46856400  1
  O  O8  1  0.05245400  0.74058800  0.12101300  1
  O  O9  1  0.05245400  0.74058800  0.37898700  1
  O  O10  1  0.94754600  0.24058800  0.37898700  1
  O  O11  1  0.94754600  0.25941200  0.62101300  1
  O  O12  1  0.94754600  0.25941200  0.87898700  1
  O  O13  1  0.94754600  0.24058800  0.12101300  1
  O  O14  1  0.05245400  0.75941200  0.62101300  1
  O  O15  1  0.05245400  0.75941200  0.87898700  1
loop_
_geom_bond_atom_site_label_1
_geom_bond_atom_site_label_2
_geom_bond_distance
_geom_bond_site_symmetry_2
Ho0 O2 2.335425 1_545
Ho0 O3 2.335425 1_555
Ho0 O6 2.391603 1_555
Ho0 O7 2.391603 1_555
Ho0 O10 2.427613 1_555
Ho0 O11 2.427613 1_555
Ho0 Se2 3.029987 1_555
Ho0 Se3 3.029987 1_555
Ho1 O4 2.335425 1_554
Ho1 O5 2.335425 1_545
Ho1 O1 2.391603 1_554
Ho1 O0 2.391603 1_555
Ho1 O12 2.427613 1_554
Ho1 O13 2.427613 1_555
Ho1 Se2 3.029987 1_554
Ho1 Se3 3.029987 1_555
Ho2 O6 2.335425 1_565
Ho2 O7 2.335425 1_555
Ho2 O2 2.391603 1_555
Ho2 O3 2.391603 1_555
Ho2 O14 2.427613 1_555
Ho2 O9 2.427613 1_555
Ho2 Se0 3.029987 1_555
Ho2 Se1 3.029987 1_555
Ho3 O1 2.335425 1_564
Ho3 O0 2.335425 1_555
Ho3 O4 2.391603 1_554
Ho3 O5 2.391603 1_555
Ho3 O8 2.427613 1_555
Ho3 O15 2.427613 1_554
Ho3 Se1 3.029987 1_555
Ho3 Se0 3.029987 1_554
Ho4 O12 2.381178 1_555
Ho4 O11 2.381178 1_555
Ho4 O14 2.410956 1_655
Ho4 O15 2.410956 1_655
Ho4 O3 2.536038 1_555
Ho4 O4 2.536038 1_555
Ho4 Se2 2.863358 1_555
Ho4 Se0 2.961714 1_555
Ho5 O13 2.381178 1_565
Ho5 O10 2.381178 1_565
Ho5 O9 2.410956 1_655
Ho5 O8 2.410956 1_655
Ho5 O2 2.536038 1_555
Ho5 O5 2.536038 1_555
Ho5 Se3 2.863358 1_565
Ho5 Se1 2.961714 1_555
Ho6 O14 2.381178 1_545
Ho6 O15 2.381178 1_545
Ho6 O11 2.410956 1_455
Ho6 O12 2.410956 1_455
Ho6 O1 2.536038 1_555
Ho6 O6 2.536038 1_555
Ho6 Se0 2.863358 1_545
Ho6 Se2 2.961714 1_555
Ho7 O8 2.381178 1_555
Ho7 O9 2.381178 1_555
Ho7 O13 2.410956 1_455
Ho7 O10 2.410956 1_455
Ho7 O7 2.536038 1_555
Ho7 O0 2.536038 1_555
Ho7 Se1 2.863358 1_555
Ho7 Se3 2.961714 1_555
O0 Si3 1.642821 1_555
O1 Si3 1.642821 1_556
O2 Si1 1.642821 1_555
O3 Si1 1.642821 1_555
O4 Si2 1.642821 1_556
O5 Si2 1.642821 1_555
O6 Si0 1.642821 1_555
O7 Si0 1.642821 1_555
O8 Si2 1.654884 1_455
O9 Si1 1.654884 1_455
O10 Si0 1.654884 1_655
O11 Si0 1.654884 1_655
O12 Si3 1.654884 1_656
O13 Si3 1.654884 1_655
O14 Si1 1.654884 1_455
O15 Si2 1.654884 1_456
