# generated using pymatgen
data_LaGaBi2
_symmetry_space_group_name_H-M   'P 1'
_cell_length_a   13.75718911
_cell_length_b   13.75718911
_cell_length_c   4.43320500
_cell_angle_alpha   90.00000000
_cell_angle_beta   90.00000000
_cell_angle_gamma   119.99999573
_symmetry_Int_Tables_number   1
_chemical_formula_structural   LaGaBi2
_chemical_formula_sum   'La6 Ga6 Bi12'
_cell_volume   726.62088992
_cell_formula_units_Z   6
loop_
 _symmetry_equiv_pos_site_id
 _symmetry_equiv_pos_as_xyz
  1  'x, y, z'
loop_
 _atom_site_type_symbol
 _atom_site_label
 _atom_site_symmetry_multiplicity
 _atom_site_fract_x
 _atom_site_fract_y
 _atom_site_fract_z
 _atom_site_occupancy
  La  La0  1  0.77409900  0.22590100  0.50000000  1
  La  La1  1  0.77409900  0.54819800  0.50000000  1
  La  La2  1  0.45180200  0.22590100  0.50000000  1
  La  La3  1  0.22590100  0.77409900  0.50000000  1
  La  La4  1  0.54819800  0.77409900  0.50000000  1
  La  La5  1  0.22590100  0.45180200  0.50000000  1
  Ga  Ga0  1  0.81872300  0.81872300  0.50000000  1
  Ga  Ga1  1  0.18127700  0.00000000  0.50000000  1
  Ga  Ga2  1  0.00000000  0.18127700  0.50000000  1
  Ga  Ga3  1  0.18127700  0.18127700  0.50000000  1
  Ga  Ga4  1  0.81872300  0.00000000  0.50000000  1
  Ga  Ga5  1  0.00000000  0.81872300  0.50000000  1
  Bi  Bi0  1  0.67500800  0.67500800  0.00000000  1
  Bi  Bi1  1  0.32499200  0.00000000  0.00000000  1
  Bi  Bi2  1  0.00000000  0.32499200  0.00000000  1
  Bi  Bi3  1  0.32499200  0.32499200  0.00000000  1
  Bi  Bi4  1  0.67500800  0.00000000  0.00000000  1
  Bi  Bi5  1  0.00000000  0.67500800  0.00000000  1
  Bi  Bi6  1  0.50000000  0.50000000  0.50000000  1
  Bi  Bi7  1  0.50000000  0.00000000  0.50000000  1
  Bi  Bi8  1  0.00000000  0.50000000  0.50000000  1
  Bi  Bi9  1  0.66666700  0.33333300  0.00000000  1
  Bi  Bi10  1  0.33333300  0.66666700  0.00000000  1
  Bi  Bi11  1  0.00000000  0.00000000  0.00000000  1
loop_
_geom_bond_atom_site_label_1
_geom_bond_atom_site_label_2
_geom_bond_distance
_geom_bond_site_symmetry_2
Ga0 Ga5 2.493862 1_655
Ga0 Ga4 2.493862 1_565
Ga0 La4 3.455853 1_555
Ga0 La1 3.455853 1_555
Ga1 Ga3 2.493862 1_555
Ga1 Ga5 2.493862 1_545
Ga1 La3 3.455853 1_545
Ga1 La2 3.455853 1_555
Ga2 Ga3 2.493862 1_555
Ga2 Ga4 2.493862 1_455
Ga2 La0 3.455853 1_455
Ga2 La5 3.455853 1_555
Ga3 La2 3.455853 1_555
Ga3 La5 3.455853 1_555
Ga4 La0 3.455853 1_555
Ga4 La4 3.455853 1_545
Ga5 La3 3.455853 1_555
Ga5 La1 3.455853 1_455
Bi0 Ga0 2.970237 1_555
Bi0 Ga0 2.970237 1_554
Bi0 Bi6 3.272606 1_555
Bi0 Bi6 3.272606 1_554
Bi0 La1 3.491894 1_554
Bi0 La4 3.491894 1_554
Bi0 La4 3.491894 1_555
Bi0 La1 3.491894 1_555
Bi1 Ga1 2.970237 1_555
Bi1 Ga1 2.970237 1_554
Bi1 Bi7 3.272606 1_554
Bi1 Bi7 3.272606 1_555
Bi1 La3 3.491894 1_544
Bi1 La3 3.491894 1_545
Bi1 La2 3.491894 1_554
Bi1 La2 3.491894 1_555
Bi2 Ga2 2.970237 1_555
Bi2 Ga2 2.970237 1_554
Bi2 Bi8 3.272606 1_554
Bi2 Bi8 3.272606 1_555
Bi2 La0 3.491894 1_455
Bi2 La0 3.491894 1_454
Bi2 La5 3.491894 1_555
Bi2 La5 3.491894 1_554
Bi3 Ga3 2.970237 1_555
Bi3 Ga3 2.970237 1_554
Bi3 Bi6 3.272606 1_554
Bi3 Bi6 3.272606 1_555
Bi3 La2 3.491894 1_554
Bi3 La5 3.491894 1_554
Bi3 La2 3.491894 1_555
Bi3 La5 3.491894 1_555
Bi4 Ga4 2.970237 1_555
Bi4 Ga4 2.970237 1_554
Bi4 Bi7 3.272606 1_554
Bi4 Bi7 3.272606 1_555
Bi4 La0 3.491894 1_555
Bi4 La0 3.491894 1_554
Bi4 La4 3.491894 1_544
Bi4 La4 3.491894 1_545
Bi5 Ga5 2.970237 1_554
Bi5 Ga5 2.970237 1_555
Bi5 Bi8 3.272606 1_554
Bi5 Bi8 3.272606 1_555
Bi5 La3 3.491894 1_554
Bi5 La3 3.491894 1_555
Bi5 La1 3.491894 1_455
Bi5 La1 3.491894 1_454
Bi6 La2 3.486906 1_555
Bi6 La5 3.486906 1_555
Bi6 La4 3.486906 1_555
Bi6 La1 3.486906 1_555
Bi7 La4 3.486906 1_545
Bi7 La2 3.486906 1_555
Bi7 La0 3.486906 1_555
Bi7 La3 3.486906 1_545
Bi8 La5 3.486906 1_555
Bi8 La1 3.486906 1_455
Bi8 La0 3.486906 1_455
Bi8 La3 3.486906 1_555
Bi9 La0 3.386214 1_554
Bi9 La0 3.386214 1_555
Bi9 La1 3.386223 1_555
Bi9 La1 3.386223 1_554
Bi9 La2 3.386223 1_555
Bi9 La2 3.386223 1_554
Bi10 La3 3.386214 1_554
Bi10 La3 3.386214 1_555
Bi10 La4 3.386223 1_555
Bi10 La4 3.386223 1_554
Bi10 La5 3.386223 1_554
Bi10 La5 3.386223 1_555
Bi11 Ga1 3.336566 1_555
Bi11 Ga2 3.336566 1_555
Bi11 Ga1 3.336566 1_554
Bi11 Ga2 3.336566 1_554
Bi11 Ga5 3.336566 1_544
Bi11 Ga5 3.336566 1_545
Bi11 Ga4 3.336566 1_455
Bi11 Ga4 3.336566 1_454
Bi11 Ga3 3.336566 1_554
Bi11 Ga3 3.336566 1_555
Bi11 Ga0 3.336566 1_444
Bi11 Ga0 3.336566 1_445
