# generated using pymatgen
data_Mg6NbCd
_symmetry_space_group_name_H-M   'P 1'
_cell_length_a   4.96406400
_cell_length_b   6.26524800
_cell_length_c   10.93220600
_cell_angle_alpha   90.00000000
_cell_angle_beta   90.00000000
_cell_angle_gamma   90.00000000
_symmetry_Int_Tables_number   1
_chemical_formula_structural   Mg6NbCd
_chemical_formula_sum   'Mg12 Nb2 Cd2'
_cell_volume   340.00354509
_cell_formula_units_Z   2
loop_
 _symmetry_equiv_pos_site_id
 _symmetry_equiv_pos_as_xyz
  1  'x, y, z'
loop_
 _atom_site_type_symbol
 _atom_site_label
 _atom_site_symmetry_multiplicity
 _atom_site_fract_x
 _atom_site_fract_y
 _atom_site_fract_z
 _atom_site_occupancy
  Mg  Mg0  1  0.50000000  0.74723500  0.91761900  1
  Mg  Mg1  1  0.50000000  0.25276500  0.91761900  1
  Mg  Mg2  1  0.00000000  0.26058200  0.58634600  1
  Mg  Mg3  1  0.00000000  0.73941800  0.58634600  1
  Mg  Mg4  1  0.00000000  0.50000000  0.82579200  1
  Mg  Mg5  1  0.00000000  0.00000000  0.83255500  1
  Mg  Mg6  1  0.50000000  0.24723500  0.41761900  1
  Mg  Mg7  1  0.50000000  0.75276500  0.41761900  1
  Mg  Mg8  1  0.00000000  0.76058200  0.08634600  1
  Mg  Mg9  1  0.00000000  0.23941800  0.08634600  1
  Mg  Mg10  1  0.00000000  0.00000000  0.32579200  1
  Mg  Mg11  1  0.00000000  0.50000000  0.33255500  1
  Nb  Nb0  1  0.50000000  0.50000000  0.66798900  1
  Nb  Nb1  1  0.50000000  0.00000000  0.16798900  1
  Cd  Cd0  1  0.50000000  0.00000000  0.66572800  1
  Cd  Cd1  1  0.50000000  0.50000000  0.16572800  1
loop_
_geom_bond_atom_site_label_1
_geom_bond_atom_site_label_2
_geom_bond_distance
_geom_bond_site_symmetry_2
Mg0 Mg5 3.087583 1_565
Mg0 Mg5 3.087583 1_665
Mg0 Mg4 3.093155 1_655
Mg0 Mg4 3.093155 1_555
Mg0 Mg8 3.093521 1_656
Mg0 Mg8 3.093521 1_556
Mg0 Mg1 3.097977 1_555
Mg0 Nb0 3.137968 1_555
Mg0 Nb1 3.162214 1_566
Mg0 Mg1 3.167271 1_565
Mg1 Mg5 3.087583 1_655
Mg1 Mg5 3.087583 1_555
Mg1 Mg4 3.093155 1_655
Mg1 Mg4 3.093155 1_555
Mg1 Mg9 3.093521 1_556
Mg1 Mg9 3.093521 1_656
Mg1 Nb0 3.137968 1_555
Mg1 Nb1 3.162214 1_556
Mg2 Mg3 3.000026 1_555
Mg2 Mg4 3.016994 1_555
Mg2 Nb0 3.034328 1_455
Mg2 Nb0 3.034328 1_555
Mg2 Mg6 3.093521 1_455
Mg2 Mg6 3.093521 1_555
Mg2 Mg5 3.148042 1_555
Mg2 Mg3 3.265222 1_545
Mg3 Mg4 3.016994 1_555
Mg3 Nb0 3.034328 1_455
Mg3 Nb0 3.034328 1_555
Mg3 Mg7 3.093521 1_455
Mg3 Mg7 3.093521 1_555
Mg3 Mg5 3.148042 1_565
Mg4 Nb0 3.022677 1_555
Mg4 Nb0 3.022677 1_455
Mg4 Mg5 3.133496 1_555
Mg4 Mg5 3.133496 1_565
Mg4 Mg8 3.283134 1_556
Mg4 Mg9 3.283134 1_556
Mg5 Mg9 3.154024 1_556
Mg5 Mg8 3.154024 1_546
Mg6 Mg7 3.097977 1_545
Mg6 Nb1 3.137968 1_555
Mg6 Nb0 3.162214 1_555
Mg6 Mg7 3.167271 1_555
Mg7 Nb1 3.137968 1_565
Mg7 Nb0 3.162214 1_555
Mg8 Mg9 3.000026 1_565
Mg8 Nb1 3.034328 1_465
Mg8 Nb1 3.034328 1_565
Mg8 Mg9 3.265222 1_555
Mg9 Nb1 3.034328 1_555
Mg9 Nb1 3.034328 1_455
Mg10 Mg8 3.016994 1_545
Mg10 Mg9 3.016994 1_555
Mg10 Nb1 3.022677 1_455
Mg10 Nb1 3.022677 1_555
Mg10 Mg6 3.093155 1_455
Mg10 Mg6 3.093155 1_555
Mg10 Mg7 3.093155 1_545
Mg10 Mg7 3.093155 1_445
Mg10 Mg11 3.133496 1_545
Mg10 Mg11 3.133496 1_555
Mg10 Mg2 3.283134 1_555
Mg10 Mg3 3.283134 1_545
Mg11 Mg7 3.087583 1_455
Mg11 Mg7 3.087583 1_555
Mg11 Mg6 3.087583 1_555
Mg11 Mg6 3.087583 1_455
Mg11 Mg8 3.148042 1_555
Mg11 Mg9 3.148042 1_555
Mg11 Mg2 3.154024 1_555
Mg11 Mg3 3.154024 1_555
Cd0 Mg5 3.080046 1_655
Cd0 Mg5 3.080046 1_555
Cd0 Mg2 3.094998 1_555
Cd0 Mg3 3.094998 1_645
Cd0 Mg3 3.094998 1_545
Cd0 Mg2 3.094998 1_655
Cd0 Mg6 3.123518 1_555
Cd0 Mg7 3.123518 1_545
Cd0 Nb0 3.132722 1_545
Cd0 Nb0 3.132722 1_555
Cd0 Mg1 3.176617 1_555
Cd0 Mg0 3.176617 1_545
Cd1 Mg11 3.080046 1_555
Cd1 Mg11 3.080046 1_655
Cd1 Mg8 3.094998 1_655
Cd1 Mg9 3.094998 1_555
Cd1 Mg9 3.094998 1_655
Cd1 Mg8 3.094998 1_555
Cd1 Mg0 3.123518 1_554
Cd1 Mg1 3.123518 1_554
Cd1 Nb1 3.132722 1_555
Cd1 Nb1 3.132722 1_565
Cd1 Mg7 3.176617 1_555
Cd1 Mg6 3.176617 1_555
