# generated using pymatgen
data_LiMg6Fe
_symmetry_space_group_name_H-M   'P 1'
_cell_length_a   6.05728580
_cell_length_b   6.05728580
_cell_length_c   4.91247900
_cell_angle_alpha   90.00000000
_cell_angle_beta   90.00000000
_cell_angle_gamma   117.69553502
_symmetry_Int_Tables_number   1
_chemical_formula_structural   LiMg6Fe
_chemical_formula_sum   'Li1 Mg6 Fe1'
_cell_volume   159.59195507
_cell_formula_units_Z   1
loop_
 _symmetry_equiv_pos_site_id
 _symmetry_equiv_pos_as_xyz
  1  'x, y, z'
loop_
 _atom_site_type_symbol
 _atom_site_label
 _atom_site_symmetry_multiplicity
 _atom_site_fract_x
 _atom_site_fract_y
 _atom_site_fract_z
 _atom_site_occupancy
  Li  Li0  1  0.66743200  0.33256800  0.50000000  1
  Mg  Mg0  1  0.83340500  0.65302400  0.00000000  1
  Mg  Mg1  1  0.34697600  0.16659500  0.00000000  1
  Mg  Mg2  1  0.33807100  0.66192900  0.00000000  1
  Mg  Mg3  1  0.67035400  0.86153500  0.50000000  1
  Mg  Mg4  1  0.13846500  0.32964600  0.50000000  1
  Mg  Mg5  1  0.16004500  0.83995500  0.50000000  1
  Fe  Fe0  1  0.84525200  0.15474800  0.00000000  1
loop_
_geom_bond_atom_site_label_1
_geom_bond_atom_site_label_2
_geom_bond_distance
_geom_bond_site_symmetry_2
Li0 Mg4 2.861451 1_655
Li0 Mg3 2.861451 1_545
Li0 Mg0 2.999616 1_556
Li0 Mg0 2.999616 1_555
Li0 Mg1 2.999616 1_555
Li0 Mg1 2.999616 1_556
Li0 Mg5 3.134453 1_545
Li0 Mg5 3.134453 1_655
Li0 Mg3 3.195917 1_555
Li0 Mg4 3.195917 1_555
Mg0 Mg5 3.024468 1_654
Mg0 Mg5 3.024468 1_655
Mg0 Mg2 3.025826 1_555
Mg0 Mg2 3.032212 1_655
Mg0 Mg1 3.048467 1_555
Mg0 Mg3 3.124624 1_554
Mg0 Mg3 3.124624 1_555
Mg0 Mg1 3.218567 1_665
Mg1 Mg5 3.024468 1_544
Mg1 Mg5 3.024468 1_545
Mg1 Mg2 3.025826 1_555
Mg1 Mg2 3.032212 1_545
Mg1 Mg4 3.124624 1_555
Mg1 Mg4 3.124624 1_554
Mg2 Mg3 3.046962 1_555
Mg2 Mg3 3.046962 1_554
Mg2 Mg4 3.046962 1_555
Mg2 Mg4 3.046962 1_554
Mg2 Mg5 3.072414 1_554
Mg2 Mg5 3.072414 1_555
Mg3 Mg4 2.933668 1_665
Mg3 Mg5 3.029164 1_655
Mg3 Mg5 3.032544 1_555
Mg3 Mg4 3.333366 1_555
Mg4 Mg5 3.029164 1_545
Mg4 Mg5 3.032544 1_555
Fe0 Mg4 2.925898 1_655
Fe0 Mg4 2.925898 1_654
Fe0 Mg3 2.925898 1_545
Fe0 Mg3 2.925898 1_544
Fe0 Mg1 3.006405 1_655
Fe0 Mg0 3.006405 1_545
Fe0 Mg0 3.052214 1_555
Fe0 Mg1 3.052214 1_555
Fe0 Li0 3.071132 1_554
Fe0 Li0 3.071132 1_555
Fe0 Mg2 3.134401 1_655
Fe0 Mg2 3.134401 1_545
