# generated using pymatgen
data_Sm12(MnC3)5
_symmetry_space_group_name_H-M   'P 1'
_cell_length_a   5.23046059
_cell_length_b   10.65145704
_cell_length_c   10.65122558
_cell_angle_alpha   120.00108817
_cell_angle_beta   90.00000000
_cell_angle_gamma   90.00000000
_symmetry_Int_Tables_number   1
_chemical_formula_structural   Sm12(MnC3)5
_chemical_formula_sum   'Sm12 Mn5 C15'
_cell_volume   513.89501669
_cell_formula_units_Z   1
loop_
 _symmetry_equiv_pos_site_id
 _symmetry_equiv_pos_as_xyz
  1  'x, y, z'
loop_
 _atom_site_type_symbol
 _atom_site_label
 _atom_site_symmetry_multiplicity
 _atom_site_fract_x
 _atom_site_fract_y
 _atom_site_fract_z
 _atom_site_occupancy
  Sm  Sm0  1  0.50000000  0.20672275  0.20672405  1
  Sm  Sm1  1  0.50000000  -0.00000720  0.79326772  1
  Sm  Sm2  1  0.50000000  0.79327656  -0.00000655  1
  Sm  Sm3  1  -0.00000000  0.72936983  0.18637245  1
  Sm  Sm4  1  -0.00000000  0.45700011  0.27064711  1
  Sm  Sm5  1  -0.00000000  0.54299877  0.81362605  1
  Sm  Sm6  1  -0.00000000  0.81363853  0.54299820  1
  Sm  Sm7  1  -0.00000000  0.18633955  0.72934362  1
  Sm  Sm8  1  -0.00000000  0.27063422  0.45699838  1
  Sm  Sm9  1  0.50000000  0.57480752  0.57480155  1
  Sm  Sm10  1  0.50000000  -0.00000870  0.42521656  1
  Sm  Sm11  1  0.50000000  0.42521208  -0.00000200  1
  Mn  Mn0  1  -0.00000000  0.84702123  0.84700739  1
  Mn  Mn1  1  0.00000000  0.00001249  0.15298943  1
  Mn  Mn2  1  0.00000000  0.15295412  -0.00001017  1
  Mn  Mn3  1  0.50000000  0.66669035  0.33336888  1
  Mn  Mn4  1  0.50000000  0.33332742  0.66664469  1
  C  C0  1  -0.00000000  0.67551484  0.67550807  1
  C  C1  1  -0.00000000  -0.00000397  0.32449430  1
  C  C2  1  -0.00000000  0.32449041  -0.00000064  1
  C  C3  1  -0.00000000  0.20191659  0.20190486  1
  C  C4  1  -0.00000000  0.00001111  0.79809510  1
  C  C5  1  -0.00000000  0.79811991  0.00000725  1
  C  C6  1  -0.00000000  0.54965504  0.54965205  1
  C  C7  1  -0.00000000  -0.00001233  0.45034098  1
  C  C8  1  -0.00000000  0.45034228  0.00000060  1
  C  C9  1  0.50000000  0.71586421  0.19731020  1
  C  C10  1  0.50000000  0.48142197  0.28413670  1
  C  C11  1  0.50000000  0.51855821  0.80269496  1
  C  C12  1  0.50000000  0.80270980  0.51857047  1
  C  C13  1  0.50000000  0.19728467  0.71586756  1
  C  C14  1  0.50000000  0.28413862  0.48143118  1
loop_
_geom_bond_atom_site_label_1
_geom_bond_atom_site_label_2
_geom_bond_distance
_geom_bond_site_symmetry_2
C0 C6 1.340534 1_555
C0 Mn0 1.826705 1_555
C0 Sm6 2.496607 1_555
C0 Sm5 2.496610 1_555
C0 Sm9 2.826659 1_455
C0 Sm9 2.826659 1_555
C1 C7 1.340466 1_555
C1 Mn1 1.826825 1_555
C1 Sm3 2.496524 1_545
C1 Sm8 2.496637 1_555
C1 Sm10 2.826733 1_555
C1 Sm10 2.826733 1_455
C2 C8 1.340499 1_555
C2 Mn2 1.827061 1_555
C2 Sm4 2.496670 1_555
C2 Sm7 2.496745 1_554
C2 Sm11 2.826732 1_455
C2 Sm11 2.826732 1_555
C3 Mn2 1.943092 1_555
C3 Mn1 1.943170 1_555
C3 Sm4 2.434917 1_555
C3 Sm8 2.435026 1_555
C3 Sm0 2.615733 1_555
C3 Sm0 2.615733 1_455
C4 Mn2 1.942907 1_556
C4 Mn0 1.943165 1_545
C4 Sm7 2.434862 1_555
C4 Sm6 2.435034 1_545
C4 Sm1 2.615734 1_555
C4 Sm1 2.615734 1_455
C5 Mn1 1.943032 1_565
C5 Mn0 1.943161 1_554
C5 Sm3 2.435199 1_555
C5 Sm5 2.435272 1_554
C5 Sm2 2.615738 1_555
C5 Sm2 2.615738 1_455
C6 Sm4 2.621510 1_555
C6 Sm8 2.621738 1_555
C6 Sm9 2.628915 1_455
C6 Sm9 2.628915 1_555
C6 Sm5 2.847759 1_555
C6 Sm6 2.847907 1_555
C7 Sm7 2.621489 1_555
C7 Sm6 2.621595 1_545
C7 Sm10 2.628888 1_455
C7 Sm10 2.628888 1_555
C7 Sm3 2.847646 1_545
C7 Sm8 2.847986 1_555
C8 Sm3 2.621771 1_555
C8 Sm5 2.621821 1_554
C8 Sm11 2.628892 1_555
C8 Sm11 2.628892 1_455
C8 Sm4 2.847920 1_555
C8 Sm7 2.848035 1_554
C9 Mn3 1.770189 1_555
C9 Sm2 2.613404 1_555
C9 Sm3 2.624968 1_655
C9 Sm3 2.624968 1_555
C9 Sm11 2.737636 1_555
C9 Sm10 2.775766 1_565
C10 Mn3 1.770412 1_555
C10 Sm0 2.613119 1_555
C10 Sm4 2.624950 1_555
C10 Sm4 2.624950 1_655
C10 Sm9 2.737633 1_555
C10 Sm11 2.775911 1_555
C11 Mn4 1.770141 1_555
C11 Sm2 2.613258 1_556
C11 Sm5 2.624966 1_655
C11 Sm5 2.624966 1_555
C11 Sm11 2.737611 1_556
C11 Sm9 2.775847 1_555
C12 Mn3 1.769814 1_555
C12 Sm1 2.613021 1_565
C12 Sm6 2.624955 1_555
C12 Sm6 2.624955 1_655
C12 Sm10 2.737482 1_565
C12 Sm9 2.775856 1_555
C13 Mn4 1.770415 1_555
C13 Sm1 2.613087 1_555
C13 Sm7 2.624949 1_555
C13 Sm7 2.624949 1_655
C13 Sm10 2.737546 1_555
C13 Sm11 2.775837 1_556
C14 Mn4 1.769923 1_555
C14 Sm0 2.613126 1_555
C14 Sm8 2.624959 1_555
C14 Sm8 2.624959 1_655
C14 Sm9 2.737774 1_555
C14 Sm10 2.776053 1_555
