# generated using pymatgen
data_Li7Mn5O12
_symmetry_space_group_name_H-M   'P 1'
_cell_length_a   6.03939540
_cell_length_b   6.48307053
_cell_length_c   12.01269321
_cell_angle_alpha   102.87150377
_cell_angle_beta   85.69991340
_cell_angle_gamma   77.10633011
_symmetry_Int_Tables_number   1
_chemical_formula_structural   Li7Mn5O12
_chemical_formula_sum   'Li14 Mn10 O24'
_cell_volume   443.09865363
_cell_formula_units_Z   2
loop_
 _symmetry_equiv_pos_site_id
 _symmetry_equiv_pos_as_xyz
  1  'x, y, z'
loop_
 _atom_site_type_symbol
 _atom_site_label
 _atom_site_symmetry_multiplicity
 _atom_site_fract_x
 _atom_site_fract_y
 _atom_site_fract_z
 _atom_site_occupancy
  Li  Li0  1  0.83340300  0.66667200  0.33334100  1
  Li  Li1  1  0.33330300  0.66667400  0.83331800  1
  Li  Li2  1  0.34754700  0.66714100  0.08881100  1
  Li  Li3  1  0.84405000  0.67193000  0.59233500  1
  Li  Li4  1  0.82259400  0.66147600  0.07431000  1
  Li  Li5  1  0.31909000  0.66616700  0.57784400  1
  Li  Li6  1  0.67061400  0.34308300  0.41760400  1
  Li  Li7  1  0.16780000  0.33836700  0.90621500  1
  Li  Li8  1  0.99607600  0.99019100  0.24907900  1
  Li  Li9  1  0.49887300  0.99507800  0.76043900  1
  Li  Li10  1  0.50535100  0.99054400  0.24357900  1
  Li  Li11  1  0.01394800  0.99189300  0.75349700  1
  Li  Li12  1  0.16126900  0.34282100  0.42309800  1
  Li  Li13  1  0.65269400  0.34145700  0.91316000  1
  Mn  Mn0  1  0.83328400  0.66674400  0.83336300  1
  Mn  Mn1  1  0.33342500  0.66661400  0.33332300  1
  Mn  Mn2  1  0.49694600  0.99918000  0.49672700  1
  Mn  Mn3  1  0.00037700  0.99784200  0.99620600  1
  Mn  Mn4  1  0.16971700  0.33408700  0.16993000  1
  Mn  Mn5  1  0.66623800  0.33552800  0.67050000  1
  Mn  Mn6  1  0.98923000  0.00018900  0.49582000  1
  Mn  Mn7  1  0.49426500  0.99531700  0.99569700  1
  Mn  Mn8  1  0.67757900  0.33305000  0.17081700  1
  Mn  Mn9  1  0.17225100  0.33803900  0.67092000  1
  O  O0  1  0.54783100  0.68621400  0.44773600  1
  O  O1  1  0.05054200  0.68051700  0.94798500  1
  O  O2  1  0.11901400  0.64699100  0.21891500  1
  O  O3  1  0.61610200  0.65288500  0.71868000  1
  O  O4  1  0.43473300  0.34954900  0.29404700  1
  O  O5  1  0.93063700  0.35150500  0.79212700  1
  O  O6  1  0.23208300  0.98362900  0.37260300  1
  O  O7  1  0.73587900  0.98188900  0.87458800  1
  O  O8  1  0.26565700  0.01089200  0.12253000  1
  O  O9  1  0.76373100  0.00838900  0.61807600  1
  O  O10  1  0.90296200  0.32496900  0.04860200  1
  O  O11  1  0.40092300  0.32237200  0.54415600  1
  O  O12  1  0.09035800  0.68272500  0.45361500  1
  O  O13  1  0.59342200  0.67763600  0.95421400  1
  O  O14  1  0.57646400  0.65058600  0.21301800  1
  O  O15  1  0.07312900  0.65574300  0.71246000  1
  O  O16  1  0.90671700  0.33285200  0.27413000  1
  O  O17  1  0.43470100  0.32436200  0.78380200  1
  O  O18  1  0.76001100  0.00048100  0.39255300  1
  O  O19  1  0.23189800  0.00905000  0.88287000  1
  O  O20  1  0.76175400  0.01712400  0.12644600  1
  O  O21  1  0.22622800  0.01274400  0.60764400  1
  O  O22  1  0.44038800  0.32057200  0.05903300  1
  O  O23  1  0.90491000  0.31624000  0.54023500  1
loop_
_geom_bond_atom_site_label_1
_geom_bond_atom_site_label_2
_geom_bond_distance
_geom_bond_site_symmetry_2
Li0 O18 2.055380 1_565
Li0 O16 2.055466 1_555
Li0 O0 2.085303 1_555
Li0 O2 2.085457 1_655
Li0 O12 2.201791 1_655
Li0 O14 2.202141 1_555
Li1 O1 2.084582 1_555
Li1 O3 2.084651 1_555
Li1 O17 2.098705 1_555
Li1 O19 2.099103 1_565
Li1 O15 2.219854 1_555
Li1 O13 2.219928 1_555
Li2 O2 2.052467 1_555
Li2 O8 2.109752 1_565
Li2 O14 2.112721 1_555
Li2 O22 2.130776 1_555
Li2 O13 2.134947 1_554
Li2 O1 2.556917 1_554
Li3 O3 2.014950 1_555
Li3 O9 2.072129 1_565
Li3 O15 2.075924 1_655
Li3 O12 2.172852 1_655
Li3 O23 2.188268 1_555
Li3 O0 2.586508 1_555
Li4 O1 2.014768 1_654
Li4 O10 2.072467 1_555
Li4 O13 2.076048 1_554
Li4 O14 2.172286 1_555
Li4 O20 2.188036 1_565
Li4 O2 2.587492 1_655
Li5 O0 2.053037 1_555
Li5 O11 2.110054 1_555
Li5 O12 2.112148 1_555
Li5 O21 2.130804 1_565
Li5 O15 2.135281 1_555
Li5 O3 2.557020 1_555
Li6 O18 2.111412 1_555
Li6 O0 2.119978 1_555
Li6 O23 2.125922 1_555
Li6 O16 2.132240 1_555
Li6 O4 2.133621 1_555
Li6 O11 2.190719 1_555
Li7 O19 2.033417 1_555
Li7 O5 2.056457 1_455
Li7 O17 2.070911 1_555
Li7 O1 2.103187 1_555
Li7 O10 2.282411 1_456
Li7 O22 2.560527 1_556
Li8 O16 2.111778 1_565
Li8 O2 2.120457 1_655
Li8 O20 2.126102 1_565
Li8 O18 2.131988 1_565
Li8 O6 2.133884 1_655
Li8 O8 2.190202 1_665
Li9 O17 2.033160 1_565
Li9 O7 2.056303 1_555
Li9 O19 2.071431 1_565
Li9 O3 2.103433 1_555
Li9 O9 2.282082 1_565
Li9 O21 2.560499 1_565
Li10 O20 2.075537 1_565
Li10 O14 2.090491 1_555
Li10 O8 2.131514 1_565
Li10 O6 2.192806 1_555
Li10 O4 2.203646 1_565
Li10 O18 2.444946 1_565
Li11 O15 2.065760 1_555
Li11 O19 2.110772 1_565
Li11 O21 2.139564 1_565
Li11 O7 2.159801 1_455
Li11 O5 2.205300 1_465
Li11 O9 2.305528 1_465
Li12 O23 2.075381 1_455
Li12 O12 2.090244 1_555
Li12 O11 2.131463 1_555
Li12 O4 2.193433 1_555
Li12 O6 2.204734 1_545
Li12 O16 2.444441 1_455
Li13 O13 2.065895 1_555
Li13 O17 2.110801 1_555
Li13 O22 2.139923 1_556
Li13 O5 2.158910 1_555
Li13 O7 2.205074 1_545
Li13 O10 2.305933 1_556
Mn0 O7 1.932546 1_555
Mn0 O5 1.933098 1_555
Mn0 O13 1.950477 1_555
Mn0 O15 1.950624 1_655
Mn0 O1 1.973307 1_655
Mn0 O3 1.973535 1_555
Mn1 O6 1.945371 1_555
Mn1 O4 1.945662 1_555
Mn1 O12 1.949411 1_555
Mn1 O14 1.949550 1_555
Mn1 O2 1.960693 1_555
Mn1 O0 1.960707 1_555
Mn2 O0 1.928771 1_555
Mn2 O18 1.950069 1_565
Mn2 O11 1.981770 1_565
Mn2 O21 2.003283 1_565
Mn2 O9 2.254093 1_565
Mn2 O6 2.270433 1_555
Mn3 O19 1.902083 1_565
Mn3 O1 1.955547 1_555
Mn3 O10 2.008219 1_466
Mn3 O20 2.008636 1_466
Mn3 O7 2.247931 1_455
Mn3 O8 2.290118 1_566
Mn4 O2 1.928494 1_555
Mn4 O16 1.949809 1_455
Mn4 O8 1.981760 1_555
Mn4 O22 2.003017 1_555
Mn4 O10 2.253754 1_455
Mn4 O4 2.271048 1_555
Mn5 O17 1.901778 1_555
Mn5 O3 1.955738 1_555
Mn5 O9 2.008326 1_555
Mn5 O23 2.009030 1_555
Mn5 O5 2.247555 1_555
Mn5 O11 2.290479 1_555
Mn6 O9 1.909807 1_555
Mn6 O18 1.926835 1_555
Mn6 O23 1.936194 1_555
Mn6 O12 1.947740 1_645
Mn6 O6 1.971538 1_645
Mn6 O21 2.037499 1_655
Mn7 O8 1.947194 1_566
Mn7 O13 1.948396 1_555
Mn7 O7 1.954982 1_555
Mn7 O22 2.018178 1_566
Mn7 O19 2.160680 1_565
Mn7 O20 2.340976 1_566
Mn8 O10 1.909237 1_555
Mn8 O16 1.926856 1_555
Mn8 O20 1.935417 1_555
Mn8 O14 1.948169 1_555
Mn8 O4 1.971726 1_555
Mn8 O22 2.038023 1_555
Mn9 O11 1.946679 1_555
Mn9 O15 1.948522 1_555
Mn9 O5 1.955709 1_455
Mn9 O21 2.018263 1_555
Mn9 O17 2.161517 1_555
Mn9 O23 2.339753 1_455
