# generated using pymatgen
data_Ce2Sb2Se5
_symmetry_space_group_name_H-M   'P 1'
_cell_length_a   5.99012044
_cell_length_b   11.88480222
_cell_length_c   15.85603023
_cell_angle_alpha   110.80236542
_cell_angle_beta   90.00000000
_cell_angle_gamma   90.00000000
_symmetry_Int_Tables_number   1
_chemical_formula_structural   Ce2Sb2Se5
_chemical_formula_sum   'Ce8 Sb8 Se20'
_cell_volume   1055.22676895
_cell_formula_units_Z   4
loop_
 _symmetry_equiv_pos_site_id
 _symmetry_equiv_pos_as_xyz
  1  'x, y, z'
loop_
 _atom_site_type_symbol
 _atom_site_label
 _atom_site_symmetry_multiplicity
 _atom_site_fract_x
 _atom_site_fract_y
 _atom_site_fract_z
 _atom_site_occupancy
  Ce  Ce0  1  0.23552550  0.33648509  0.66299783  1
  Ce  Ce1  1  0.73552550  0.16351491  0.33700217  1
  Ce  Ce2  1  0.76447450  0.66351491  0.33700217  1
  Ce  Ce3  1  0.26447450  0.83648509  0.66299783  1
  Ce  Ce4  1  0.76673032  0.81192982  0.11094464  1
  Ce  Ce5  1  0.26673032  0.68807018  0.88905536  1
  Ce  Ce6  1  0.23326968  0.18807018  0.88905536  1
  Ce  Ce7  1  0.73326968  0.31192982  0.11094464  1
  Sb  Sb0  1  0.18488592  0.48000009  0.42816991  1
  Sb  Sb1  1  0.68488592  0.01999991  0.57183009  1
  Sb  Sb2  1  0.81511408  0.51999991  0.57183009  1
  Sb  Sb3  1  0.31511408  0.98000009  0.42816991  1
  Sb  Sb4  1  0.21074528  0.05642821  0.12106669  1
  Sb  Sb5  1  0.71074528  0.44357179  0.87893331  1
  Sb  Sb6  1  0.78925472  0.94357179  0.87893331  1
  Sb  Sb7  1  0.28925472  0.55642821  0.12106669  1
  Se  Se0  1  0.73581735  0.20557504  0.90474689  1
  Se  Se1  1  0.23581735  0.29442496  0.09525311  1
  Se  Se2  1  0.26418265  0.79442496  0.09525311  1
  Se  Se3  1  0.76418265  0.70557504  0.90474689  1
  Se  Se4  1  0.01054102  0.84081480  0.49713371  1
  Se  Se5  1  0.51054102  0.65918520  0.50286629  1
  Se  Se6  1  0.98945898  0.15918520  0.50286629  1
  Se  Se7  1  0.48945898  0.34081480  0.49713371  1
  Se  Se8  1  0.24658896  0.60273294  0.69751194  1
  Se  Se9  1  0.74658896  0.89726706  0.30248806  1
  Se  Se10  1  0.75341104  0.39726706  0.30248806  1
  Se  Se11  1  0.25341104  0.10273294  0.69751194  1
  Se  Se12  1  0.29264298  0.93625593  0.87795814  1
  Se  Se13  1  0.79264298  0.56374407  0.12204186  1
  Se  Se14  1  0.70735702  0.06374407  0.12204186  1
  Se  Se15  1  0.20735702  0.43625593  0.87795814  1
  Se  Se16  1  0.26602075  0.64548807  0.29661824  1
  Se  Se17  1  0.76602075  0.85451193  0.70338176  1
  Se  Se18  1  0.73397925  0.35451193  0.70338176  1
  Se  Se19  1  0.23397925  0.14548807  0.29661824  1
loop_
_geom_bond_atom_site_label_1
_geom_bond_atom_site_label_2
_geom_bond_distance
_geom_bond_site_symmetry_2
Ce0 Se8 3.014414 1_555
Ce0 Se11 3.018058 1_555
Ce0 Se6 3.042914 1_455
Ce0 Se18 3.045237 1_555
Ce0 Se7 3.054360 1_555
Ce0 Se18 3.063402 1_455
Ce0 Se15 3.190786 1_555
Ce1 Se9 3.014414 1_545
Ce1 Se10 3.018058 1_555
Ce1 Se7 3.042914 1_555
Ce1 Se19 3.045237 1_655
Ce1 Se6 3.054360 1_555
Ce1 Se19 3.063402 1_555
Ce1 Se14 3.190786 1_555
Ce2 Se10 3.014414 1_555
Ce2 Se9 3.018058 1_555
Ce2 Se4 3.042914 1_655
Ce2 Se16 3.045237 1_555
Ce2 Se5 3.054360 1_555
Ce2 Se16 3.063402 1_655
Ce2 Se13 3.190786 1_555
Ce3 Se11 3.014414 1_565
Ce3 Se8 3.018058 1_555
Ce3 Se5 3.042914 1_555
Ce3 Se17 3.045237 1_455
Ce3 Se4 3.054360 1_555
Ce3 Se17 3.063402 1_555
Ce3 Se12 3.190786 1_555
Ce4 Se9 2.842424 1_555
Ce4 Se14 2.956356 1_565
Ce4 Se2 2.991258 1_655
Ce4 Se13 3.020608 1_555
Ce4 Se2 3.021664 1_555
Ce4 Se3 3.058112 1_554
Ce5 Se8 2.842424 1_555
Ce5 Se15 2.956356 1_555
Ce5 Se3 2.991258 1_555
Ce5 Se12 3.020608 1_555
Ce5 Se3 3.021664 1_455
Ce5 Se2 3.058112 1_556
Ce6 Se11 2.842424 1_555
Ce6 Se12 2.956356 1_545
Ce6 Se0 2.991258 1_455
Ce6 Se15 3.020608 1_555
Ce6 Se0 3.021664 1_555
Ce6 Se1 3.058112 1_556
Ce7 Se10 2.842424 1_555
Ce7 Se13 2.956356 1_555
Ce7 Se1 2.991258 1_555
Ce7 Se14 3.020608 1_555
Ce7 Se1 3.021664 1_655
Ce7 Se0 3.058112 1_554
Sb0 Se5 2.819864 1_555
Sb0 Se7 2.923254 1_555
Sb0 Se10 3.197877 1_455
Sb1 Se4 2.819864 1_645
Sb1 Se6 2.923254 1_555
Sb1 Se11 3.197877 1_555
Sb2 Se7 2.819864 1_555
Sb2 Se5 2.923254 1_555
Sb2 Se8 3.197877 1_655
Sb3 Se6 2.819864 1_465
Sb3 Se4 2.923254 1_555
Sb3 Se9 3.197877 1_555
Sb4 Se19 2.606750 1_555
Sb4 Se14 2.975914 1_555
Sb4 Se1 3.002177 1_555
Sb4 Se2 3.010120 1_545
Sb4 Se14 3.016491 1_455
Sb5 Se18 2.606750 1_555
Sb5 Se15 2.975914 1_655
Sb5 Se0 3.002177 1_555
Sb5 Se3 3.010120 1_555
Sb5 Se15 3.016491 1_555
Sb6 Se17 2.606750 1_555
Sb6 Se12 2.975914 1_555
Sb6 Se3 3.002177 1_555
Sb6 Se0 3.010120 1_565
Sb6 Se12 3.016491 1_655
Sb7 Se16 2.606750 1_555
Sb7 Se13 2.975914 1_455
Sb7 Se2 3.002177 1_555
Sb7 Se1 3.010120 1_555
Sb7 Se13 3.016491 1_555
