# generated using pymatgen
data_MnVGaCo
_symmetry_space_group_name_H-M   'P 1'
_cell_length_a   5.75998200
_cell_length_b   5.75998200
_cell_length_c   5.75998200
_cell_angle_alpha   90.00000000
_cell_angle_beta   90.00000000
_cell_angle_gamma   90.00000000
_symmetry_Int_Tables_number   1
_chemical_formula_structural   MnVGaCo
_chemical_formula_sum   'Mn4 V4 Ga4 Co4'
_cell_volume   191.10118442
_cell_formula_units_Z   4
loop_
 _symmetry_equiv_pos_site_id
 _symmetry_equiv_pos_as_xyz
  1  'x, y, z'
loop_
 _atom_site_type_symbol
 _atom_site_label
 _atom_site_symmetry_multiplicity
 _atom_site_fract_x
 _atom_site_fract_y
 _atom_site_fract_z
 _atom_site_occupancy
  Mn  Mn0  1  0.50000000  0.50000000  0.00000000  1
  Mn  Mn1  1  0.50000000  0.00000000  0.50000000  1
  Mn  Mn2  1  0.00000000  0.50000000  0.50000000  1
  Mn  Mn3  1  0.50000000  0.50000000  0.50000000  1
  V  V0  1  0.25660900  0.25660900  0.25660900  1
  V  V1  1  0.74339100  0.74339100  0.25660900  1
  V  V2  1  0.25660900  0.74339100  0.74339100  1
  V  V3  1  0.74339100  0.25660900  0.74339100  1
  Ga  Ga0  1  0.75238500  0.75238500  0.75238500  1
  Ga  Ga1  1  0.24761500  0.24761500  0.75238500  1
  Ga  Ga2  1  0.24761500  0.75238500  0.24761500  1
  Ga  Ga3  1  0.75238500  0.24761500  0.24761500  1
  Co  Co0  1  0.00000000  0.00000000  0.00000000  1
  Co  Co1  1  0.50000000  0.00000000  0.00000000  1
  Co  Co2  1  0.00000000  0.50000000  0.00000000  1
  Co  Co3  1  0.00000000  0.00000000  0.50000000  1
loop_
_geom_bond_atom_site_label_1
_geom_bond_atom_site_label_2
_geom_bond_distance
_geom_bond_site_symmetry_2
Mn0 V1 2.472948 1_555
Mn0 V2 2.472948 1_554
Mn0 V0 2.472948 1_555
Mn0 V3 2.472948 1_554
Mn1 V3 2.472948 1_555
Mn1 V2 2.472948 1_545
Mn1 V0 2.472948 1_555
Mn1 V1 2.472948 1_545
Mn2 V2 2.472948 1_555
Mn2 V1 2.472948 1_455
Mn2 V0 2.472948 1_555
Mn2 V3 2.472948 1_455
Mn3 V1 2.428210 1_555
Mn3 V3 2.428210 1_555
Mn3 V2 2.428210 1_555
Mn3 V0 2.428210 1_555
Ga0 Mn1 2.502177 1_565
Ga0 Mn2 2.502177 1_655
Ga0 Mn0 2.502177 1_556
Ga0 Mn3 2.517940 1_555
Ga1 Mn1 2.502177 1_555
Ga1 Mn2 2.502177 1_555
Ga1 Mn0 2.502177 1_556
Ga1 Mn3 2.517940 1_555
Ga2 Mn0 2.502177 1_555
Ga2 Mn2 2.502177 1_555
Ga2 Mn1 2.502177 1_565
Ga2 Mn3 2.517940 1_555
Ga3 Mn0 2.502177 1_555
Ga3 Mn1 2.502177 1_555
Ga3 Mn2 2.502177 1_655
Ga3 Mn3 2.517940 1_555
Co0 Ga1 2.470351 1_554
Co0 Ga3 2.470351 1_455
Co0 Ga2 2.470351 1_545
Co0 Ga0 2.470351 1_444
Co0 V0 2.560081 1_555
Co0 V3 2.560081 1_454
Co0 V2 2.560081 1_544
Co0 V1 2.560081 1_445
Co1 Ga0 2.486315 1_544
Co1 Ga1 2.486315 1_554
Co1 Ga3 2.486315 1_555
Co1 Ga2 2.486315 1_545
Co1 V0 2.516892 1_555
Co1 V3 2.516892 1_554
Co1 V1 2.516892 1_545
Co1 V2 2.516892 1_544
Co2 Ga0 2.486315 1_454
Co2 Ga1 2.486315 1_554
Co2 Ga3 2.486315 1_455
Co2 Ga2 2.486315 1_555
Co2 V1 2.516892 1_455
Co2 V2 2.516892 1_554
Co2 V0 2.516892 1_555
Co2 V3 2.516892 1_454
Co3 Ga0 2.486315 1_445
Co3 Ga1 2.486315 1_555
Co3 Ga3 2.486315 1_455
Co3 Ga2 2.486315 1_545
Co3 V2 2.516892 1_545
Co3 V0 2.516892 1_555
Co3 V3 2.516892 1_455
Co3 V1 2.516892 1_445
