# generated using pymatgen
data_Gd2(Ga3Ir)3
_symmetry_space_group_name_H-M   'P 1'
_cell_length_a   7.52325604
_cell_length_b   7.52325604
_cell_length_c   9.49525015
_cell_angle_alpha   90.00000000
_cell_angle_beta   90.00000000
_cell_angle_gamma   119.78894406
_symmetry_Int_Tables_number   1
_chemical_formula_structural   Gd2(Ga3Ir)3
_chemical_formula_sum   'Gd4 Ga18 Ir6'
_cell_volume   466.41062568
_cell_formula_units_Z   2
loop_
 _symmetry_equiv_pos_site_id
 _symmetry_equiv_pos_as_xyz
  1  'x, y, z'
loop_
 _atom_site_type_symbol
 _atom_site_label
 _atom_site_symmetry_multiplicity
 _atom_site_fract_x
 _atom_site_fract_y
 _atom_site_fract_z
 _atom_site_occupancy
  Gd  Gd0  1  0.99755357  0.66899332  0.25000000  1
  Gd  Gd1  1  0.00244643  0.33100668  0.75000000  1
  Gd  Gd2  1  0.66899332  0.99755357  0.25000000  1
  Gd  Gd3  1  0.33100668  0.00244643  0.75000000  1
  Ga  Ga0  1  0.13013479  0.13013479  0.25000000  1
  Ga  Ga1  1  0.86986521  0.86986521  0.75000000  1
  Ga  Ga2  1  0.00154946  0.33450742  0.07830133  1
  Ga  Ga3  1  0.99845054  0.66549258  0.92169867  1
  Ga  Ga4  1  0.99845054  0.66549258  0.57830133  1
  Ga  Ga5  1  0.33450742  0.00154946  0.42169867  1
  Ga  Ga6  1  0.00154946  0.33450742  0.42169867  1
  Ga  Ga7  1  0.66549258  0.99845054  0.57830133  1
  Ga  Ga8  1  0.66549258  0.99845054  0.92169867  1
  Ga  Ga9  1  0.33450742  0.00154946  0.07830133  1
  Ga  Ga10  1  0.33428088  0.33428088  0.56507220  1
  Ga  Ga11  1  0.66571912  0.66571912  0.43492780  1
  Ga  Ga12  1  0.66571912  0.66571912  0.06507220  1
  Ga  Ga13  1  0.33428088  0.33428088  0.93492780  1
  Ga  Ga14  1  0.33809970  0.54385396  0.25000000  1
  Ga  Ga15  1  0.66190030  0.45614604  0.75000000  1
  Ga  Ga16  1  0.54385396  0.33809970  0.25000000  1
  Ga  Ga17  1  0.45614604  0.66190030  0.75000000  1
  Ir  Ir0  1  0.67108513  0.32891487  -0.00000000  1
  Ir  Ir1  1  0.32891487  0.67108513  -0.00000000  1
  Ir  Ir2  1  0.32891487  0.67108513  0.50000000  1
  Ir  Ir3  1  0.67108513  0.32891487  0.50000000  1
  Ir  Ir4  1  -0.00000000  0.00000000  -0.00000000  1
  Ir  Ir5  1  -0.00000000  0.00000000  0.50000000  1
loop_
_geom_bond_atom_site_label_1
_geom_bond_atom_site_label_2
_geom_bond_distance
_geom_bond_site_symmetry_2
Ga0 Ir4 2.568973 1_555
Ga0 Ir5 2.568973 1_555
Ga0 Ga16 2.701293 1_555
Ga0 Ga14 2.701293 1_555
Ga0 Ga2 2.726852 1_555
Ga0 Ga5 2.726852 1_555
Ga0 Ga6 2.726852 1_555
Ga0 Ga9 2.726852 1_555
Ga0 Gd0 3.097180 1_445
Ga0 Gd2 3.097180 1_445
Ga1 Ir5 2.568973 1_665
Ga1 Ir4 2.568973 1_666
Ga1 Ga17 2.701293 1_555
Ga1 Ga15 2.701293 1_555
Ga1 Ga4 2.726852 1_555
Ga1 Ga7 2.726852 1_555
Ga1 Ga8 2.726852 1_555
Ga1 Ga3 2.726852 1_555
Ga1 Gd1 3.097180 1_665
Ga1 Gd3 3.097180 1_665
Ga2 Ir0 2.575198 1_455
Ga2 Ir1 2.614145 1_555
Ga2 Ir4 2.618581 1_555
Ga2 Ga3 2.910304 1_454
Ga2 Ga8 2.940059 1_444
Ga2 Gd2 3.006968 1_445
Ga2 Gd0 3.011047 1_455
Ga2 Gd1 3.117450 1_554
Ga3 Ir1 2.575198 1_656
Ga3 Ir0 2.614145 1_556
Ga3 Ir4 2.618581 1_666
Ga3 Ga9 2.940059 1_666
Ga3 Gd3 3.006968 1_665
Ga3 Gd1 3.011047 1_655
Ga3 Gd0 3.117450 1_556
Ga4 Ir2 2.575198 1_655
Ga4 Ir3 2.614145 1_555
Ga4 Ir5 2.618581 1_665
Ga4 Ga6 2.910304 1_655
Ga4 Ga5 2.940059 1_665
Ga4 Gd3 3.006968 1_665
Ga4 Gd1 3.011047 1_655
Ga4 Gd0 3.117450 1_555
Ga5 Ir2 2.575198 1_545
Ga5 Ir3 2.614145 1_555
Ga5 Ir5 2.618581 1_555
Ga5 Ga7 2.910304 1_545
Ga5 Gd0 3.006968 1_445
Ga5 Gd2 3.011047 1_545
Ga5 Gd3 3.117450 1_555
Ga6 Ir3 2.575198 1_455
Ga6 Ir2 2.614145 1_555
Ga6 Ir5 2.618581 1_555
Ga6 Ga7 2.940059 1_445
Ga6 Gd2 3.006968 1_445
Ga6 Gd0 3.011047 1_455
Ga6 Gd1 3.117450 1_555
Ga7 Ir3 2.575198 1_565
Ga7 Ir2 2.614145 1_555
Ga7 Ir5 2.618581 1_665
Ga7 Gd1 3.006968 1_665
Ga7 Gd3 3.011047 1_565
Ga7 Gd2 3.117450 1_555
Ga8 Ir0 2.575198 1_566
Ga8 Ir1 2.614145 1_556
Ga8 Ir4 2.618581 1_666
Ga8 Ga9 2.910304 1_566
Ga8 Gd1 3.006968 1_665
Ga8 Gd3 3.011047 1_565
Ga8 Gd2 3.117450 1_556
Ga9 Ir1 2.575198 1_545
Ga9 Ir0 2.614145 1_555
Ga9 Ir4 2.618581 1_555
Ga9 Gd0 3.006968 1_445
Ga9 Gd2 3.011047 1_545
Ga9 Gd3 3.117450 1_554
Ga10 Ir5 2.597459 1_555
Ga10 Ir3 2.627834 1_555
Ga10 Ir2 2.627834 1_555
Ga10 Ga17 2.784532 1_555
Ga10 Ga15 2.784532 1_555
Ga10 Ga11 2.790038 1_555
Ga10 Ga5 2.850209 1_555
Ga10 Ga6 2.850209 1_555
Ga10 Gd1 3.042237 1_555
Ga10 Gd3 3.042237 1_555
Ga11 Ir5 2.597459 1_665
Ga11 Ir3 2.627834 1_555
Ga11 Ir2 2.627834 1_555
Ga11 Ga14 2.784532 1_555
Ga11 Ga16 2.784532 1_555
Ga11 Ga4 2.850209 1_555
Ga11 Ga7 2.850209 1_555
Ga11 Gd0 3.042237 1_555
Ga11 Gd2 3.042237 1_555
Ga12 Ir4 2.597459 1_665
Ga12 Ir0 2.627834 1_555
Ga12 Ir1 2.627834 1_555
Ga12 Ga16 2.784532 1_555
Ga12 Ga14 2.784532 1_555
Ga12 Ga13 2.790038 1_554
Ga12 Ga3 2.850209 1_554
Ga12 Ga8 2.850209 1_554
Ga12 Gd2 3.042237 1_555
Ga12 Gd0 3.042237 1_555
Ga13 Ir4 2.597459 1_556
Ga13 Ir0 2.627834 1_556
Ga13 Ir1 2.627834 1_556
Ga13 Ga17 2.784532 1_555
Ga13 Ga15 2.784532 1_555
Ga13 Ga2 2.850209 1_556
Ga13 Ga9 2.850209 1_556
Ga13 Gd1 3.042237 1_555
Ga13 Gd3 3.042237 1_555
Ga14 Ir2 2.573266 1_555
Ga14 Ir1 2.573266 1_555
Ga14 Ga16 2.678259 1_555
Ga14 Ga2 2.754448 1_555
Ga14 Ga6 2.754448 1_555
Ga14 Gd2 3.066744 1_555
Ga14 Gd0 3.137974 1_455
Ga15 Ir0 2.573266 1_556
Ga15 Ir3 2.573266 1_555
Ga15 Ga17 2.678259 1_555
Ga15 Ga4 2.754448 1_555
Ga15 Ga3 2.754448 1_555
Ga15 Gd3 3.066744 1_555
Ga15 Gd1 3.137974 1_655
Ga16 Ir0 2.573266 1_555
Ga16 Ir3 2.573266 1_555
Ga16 Ga9 2.754448 1_555
Ga16 Ga5 2.754448 1_555
Ga16 Gd0 3.066744 1_555
Ga16 Gd2 3.137974 1_545
Ga17 Ir1 2.573266 1_556
Ga17 Ir2 2.573266 1_555
Ga17 Ga7 2.754448 1_555
Ga17 Ga8 2.754448 1_555
Ga17 Gd1 3.066744 1_555
Ga17 Gd3 3.137974 1_565
