# generated using pymatgen
data_LiNbRu2
_symmetry_space_group_name_H-M   'P 1'
_cell_length_a   4.31581310
_cell_length_b   4.31581310
_cell_length_c   4.31581310
_cell_angle_alpha   60.00000000
_cell_angle_beta   60.00000000
_cell_angle_gamma   60.00000000
_symmetry_Int_Tables_number   1
_chemical_formula_structural   LiNbRu2
_chemical_formula_sum   'Li1 Nb1 Ru2'
_cell_volume   56.84246319
_cell_formula_units_Z   1
loop_
 _symmetry_equiv_pos_site_id
 _symmetry_equiv_pos_as_xyz
  1  'x, y, z'
loop_
 _atom_site_type_symbol
 _atom_site_label
 _atom_site_symmetry_multiplicity
 _atom_site_fract_x
 _atom_site_fract_y
 _atom_site_fract_z
 _atom_site_occupancy
  Li  Li0  1  0.50000000  0.50000000  0.50000000  1
  Nb  Nb0  1  -0.00000000  -0.00000000  0.00000000  1
  Ru  Ru0  1  0.25000000  0.25000000  0.25000000  1
  Ru  Ru1  1  0.75000000  0.75000000  0.75000000  1
loop_
_geom_bond_atom_site_label_1
_geom_bond_atom_site_label_2
_geom_bond_distance
_geom_bond_site_symmetry_2
Li0 Ru0 2.642885 1_655
Li0 Ru1 2.642885 1_545
Li0 Ru0 2.642885 1_565
Li0 Ru1 2.642885 1_455
Li0 Ru0 2.642885 1_555
Li0 Ru0 2.642885 1_556
Li0 Ru1 2.642885 1_555
Li0 Ru1 2.642885 1_554
Nb0 Ru1 2.642885 1_544
Nb0 Ru0 2.642885 1_545
Nb0 Ru1 2.642885 1_454
Nb0 Ru0 2.642885 1_455
Nb0 Ru0 2.642885 1_555
Nb0 Ru1 2.642885 1_444
Nb0 Ru0 2.642885 1_554
Nb0 Ru1 2.642885 1_445
