# generated using pymatgen
data_Ho2Ga3Ni
_symmetry_space_group_name_H-M   'P 1'
_cell_length_a   5.49314936
_cell_length_b   5.49314936
_cell_length_c   7.02765542
_cell_angle_alpha   51.21826306
_cell_angle_beta   51.21826306
_cell_angle_gamma   46.01918575
_symmetry_Int_Tables_number   1
_chemical_formula_structural   Ho2Ga3Ni
_chemical_formula_sum   'Ho2 Ga3 Ni1'
_cell_volume   111.81102596
_cell_formula_units_Z   1
loop_
 _symmetry_equiv_pos_site_id
 _symmetry_equiv_pos_as_xyz
  1  'x, y, z'
loop_
 _atom_site_type_symbol
 _atom_site_label
 _atom_site_symmetry_multiplicity
 _atom_site_fract_x
 _atom_site_fract_y
 _atom_site_fract_z
 _atom_site_occupancy
  Ho  Ho0  1  0.53938876  0.53938876  0.70876871  1
  Ho  Ho1  1  0.45424915  0.45424915  0.29615912  1
  Ga  Ga0  1  0.85181471  0.85181471  0.68487333  1
  Ga  Ga1  1  0.82357750  0.82357750  0.12349641  1
  Ga  Ga2  1  0.16335134  0.16335134  0.90636163  1
  Ni  Ni0  1  0.16761954  0.16761954  0.28034080  1
loop_
_geom_bond_atom_site_label_1
_geom_bond_atom_site_label_2
_geom_bond_distance
_geom_bond_site_symmetry_2
Ho0 Ni0 3.117021 1_556
Ho0 Ni0 3.169150 1_565
Ho0 Ni0 3.169150 1_655
Ho1 Ni0 2.975225 1_555
Ho1 Ni0 2.991955 1_655
Ho1 Ni0 2.991955 1_565
Ga0 Ni0 2.433996 1_665
Ga0 Ga2 2.574485 1_655
Ga0 Ga2 2.574485 1_565
Ga0 Ga1 2.895751 1_556
Ga0 Ho0 2.944479 1_565
Ga0 Ho0 2.944479 1_655
Ga0 Ho0 3.047531 1_555
Ga0 Ho1 3.048723 1_565
Ga0 Ho1 3.048723 1_655
Ga0 Ho1 3.333481 1_556
Ga1 Ni0 2.438587 1_655
Ga1 Ni0 2.438587 1_565
Ga1 Ga2 2.645390 1_664
Ga1 Ho0 3.014804 1_555
Ga1 Ho0 3.034968 1_654
Ga1 Ho0 3.034968 1_564
Ga1 Ho1 3.041854 1_555
Ga1 Ho1 3.164023 1_655
Ga1 Ho1 3.164023 1_565
Ga2 Ni0 2.657756 1_556
Ga2 Ho1 2.949958 1_546
Ga2 Ho1 2.949958 1_456
Ga2 Ho0 3.033374 1_555
Ga2 Ho1 3.142342 1_555
Ga2 Ho0 3.237142 1_545
Ga2 Ho0 3.237142 1_455
