# generated using pymatgen
data_Ba2YNi2F11
_symmetry_space_group_name_H-M   'P 1'
_cell_length_a   7.86001194
_cell_length_b   7.86001194
_cell_length_c   13.50238900
_cell_angle_alpha   90.00000000
_cell_angle_beta   90.00000000
_cell_angle_gamma   119.99999952
_symmetry_Int_Tables_number   1
_chemical_formula_structural   Ba2YNi2F11
_chemical_formula_sum   'Ba6 Y3 Ni6 F33'
_cell_volume   722.41650778
_cell_formula_units_Z   3
loop_
 _symmetry_equiv_pos_site_id
 _symmetry_equiv_pos_as_xyz
  1  'x, y, z'
loop_
 _atom_site_type_symbol
 _atom_site_label
 _atom_site_symmetry_multiplicity
 _atom_site_fract_x
 _atom_site_fract_y
 _atom_site_fract_z
 _atom_site_occupancy
  Ba  Ba0  1  0.88625000  0.85424800  0.66429600  1
  Ba  Ba1  1  0.51962400  0.19578400  0.81723600  1
  Ba  Ba2  1  0.96799800  0.11375000  0.99762900  1
  Ba  Ba3  1  0.80421600  0.32383900  0.48390300  1
  Ba  Ba4  1  0.67616100  0.48037600  0.15057000  1
  Ba  Ba5  1  0.14575200  0.03200200  0.33096300  1
  Y  Y0  1  0.45988000  0.66848800  0.89481100  1
  Y  Y1  1  0.20860800  0.54012000  0.22814500  1
  Y  Y2  1  0.33151200  0.79139200  0.56147800  1
  Ni  Ni0  1  0.96690000  0.66352700  0.88260300  1
  Ni  Ni1  1  0.11833900  0.40337700  0.71857800  1
  Ni  Ni2  1  0.59662300  0.71496100  0.38524400  1
  Ni  Ni3  1  0.69662700  0.03310000  0.21593600  1
  Ni  Ni4  1  0.28503900  0.88166100  0.05191100  1
  Ni  Ni5  1  0.33647300  0.30337300  0.54926900  1
  F  F0  1  0.99850900  0.75952500  0.02374500  1
  F  F1  1  0.84688200  0.38911300  0.93163300  1
  F  F2  1  0.76101700  0.00149100  0.35707900  1
  F  F3  1  0.41690200  0.08964600  0.49723600  1
  F  F4  1  0.89883100  0.96526700  0.17680100  1
  F  F5  1  0.29014200  0.32179900  0.19305600  1
  F  F6  1  0.91035400  0.32725500  0.16390200  1
  F  F7  1  0.67820100  0.96834200  0.85972300  1
  F  F8  1  0.06643600  0.10116900  0.51013400  1
  F  F9  1  0.57626600  0.00029700  0.07871100  1
  F  F10  1  0.67274500  0.58309800  0.83056900  1
  F  F11  1  0.24047500  0.23898300  0.69041200  1
  F  F12  1  0.63484600  0.68218800  0.01566500  1
  F  F13  1  0.34767800  0.15332700  0.01053200  1
  F  F14  1  0.04734100  0.36515400  0.34899800  1
  F  F15  1  0.61088700  0.45777000  0.59830000  1
  F  F16  1  0.28530900  0.81880100  0.90156100  1
  F  F17  1  0.42403100  0.42373400  0.41204400  1
  F  F18  1  0.33850900  0.73821800  0.38931100  1
  F  F19  1  0.31781200  0.95265900  0.68233200  1
  F  F20  1  0.39970900  0.66149100  0.72264400  1
  F  F21  1  0.84667300  0.19435100  0.67719900  1
  F  F22  1  0.80564900  0.65232200  0.34386600  1
  F  F23  1  0.53349200  0.71469100  0.23489400  1
  F  F24  1  0.99970300  0.57596900  0.74537700  1
  F  F25  1  0.03473300  0.93356400  0.84346800  1
  F  F26  1  0.54223000  0.15311800  0.26496600  1
  F  F27  1  0.19916800  0.38074100  0.86219700  1
  F  F28  1  0.18157200  0.80083200  0.19553000  1
  F  F29  1  0.26178200  0.60029100  0.05597700  1
  F  F30  1  0.03165800  0.70985800  0.52639000  1
  F  F31  1  0.18119900  0.46650800  0.56822800  1
  F  F32  1  0.61925900  0.81842800  0.52886300  1
loop_
_geom_bond_atom_site_label_1
_geom_bond_atom_site_label_2
_geom_bond_distance
_geom_bond_site_symmetry_2
Ba0 F25 2.622197 1_655
Ba0 F32 2.690053 1_555
Ba0 F8 2.712324 1_665
Ba0 F30 2.712677 1_655
Ba0 F21 2.846887 1_565
Ba0 F15 2.906051 1_555
Ba0 F11 2.932810 1_665
Ba0 F24 2.954391 1_555
Ba0 F10 2.970225 1_555
Ba0 F19 3.088695 1_655
Ba1 F19 2.540602 1_545
Ba1 F10 2.661712 1_555
Ba1 F7 2.703097 1_545
Ba1 F1 2.720799 1_555
Ba1 F16 2.830378 1_545
Ba1 F13 2.880760 1_556
Ba1 F11 2.933741 1_555
Ba1 F21 3.195679 1_555
Ba2 F4 2.622197 1_546
Ba2 F27 2.690041 1_655
Ba2 F25 2.712313 1_645
Ba2 F7 2.712672 1_545
Ba2 F13 2.846887 1_656
Ba2 F1 2.906057 1_555
Ba2 F0 2.932814 1_546
Ba2 F9 2.954396 1_556
Ba2 F6 2.970221 1_556
Ba2 F12 3.088697 1_546
Ba3 F14 2.540608 1_655
Ba3 F3 2.661712 1_555
Ba3 F30 2.703097 1_655
Ba3 F15 2.720809 1_555
Ba3 F31 2.830377 1_655
Ba3 F21 2.880757 1_555
Ba3 F2 2.933741 1_555
Ba3 F22 3.195685 1_555
Ba4 F12 2.540619 1_555
Ba4 F6 2.661711 1_555
Ba4 F5 2.703095 1_555
Ba4 F26 2.720790 1_555
Ba4 F23 2.830378 1_555
Ba4 F22 2.880759 1_555
Ba4 F0 2.933749 1_555
Ba4 F13 3.195690 1_555
Ba5 F8 2.622184 1_555
Ba5 F28 2.690047 1_545
Ba5 F4 2.712324 1_445
Ba5 F5 2.712682 1_555
Ba5 F22 2.846887 1_445
Ba5 F26 2.906054 1_555
Ba5 F2 2.932807 1_455
Ba5 F17 2.954391 1_555
Ba5 F3 2.970226 1_555
Ba5 F14 3.088701 1_555
F0 Ni4 1.994061 1_655
F0 Ni0 2.018787 1_554
F1 Ni0 1.986374 1_555
F2 Ni2 1.994059 1_545
F2 Ni3 2.018802 1_555
F3 Ni5 2.185700 1_555
F3 Y2 2.263875 1_545
F4 Ni3 1.984144 1_565
F5 Y1 2.163230 1_555
F6 Ni3 2.185699 1_555
F6 Y1 2.263882 1_655
F7 Y0 2.163222 1_555
F8 Ni5 1.984144 1_555
F9 Ni4 2.026256 1_545
F9 Ni3 2.037316 1_555
F10 Ni0 2.185697 1_555
F10 Y0 2.263882 1_555
F11 Ni1 1.994061 1_555
F11 Ni5 2.018800 1_555
F12 Y0 2.101810 1_554
F13 Ni4 2.015630 1_545
F14 Y1 2.101802 1_555
F15 Ni5 1.986379 1_555
F16 Ni4 2.089596 1_556
F16 Ni0 2.182683 1_455
F16 Y0 2.215405 1_555
F17 Ni2 2.026257 1_555
F17 Ni5 2.037316 1_555
F18 Ni2 2.126790 1_555
F18 Y2 2.367438 1_555
F18 Y1 2.571505 1_555
F19 Y2 2.101815 1_555
F20 Ni1 2.126786 1_555
F20 Y0 2.367438 1_555
F20 Y2 2.571505 1_555
F21 Ni1 2.015627 1_655
F22 Ni2 2.015618 1_555
F23 Ni2 2.089598 1_555
F23 Ni3 2.182683 1_565
F23 Y1 2.215405 1_555
F24 Ni1 2.026260 1_655
F24 Ni0 2.037329 1_555
F25 Ni0 1.984144 1_455
F26 Ni3 1.986381 1_555
F27 Ni1 2.075768 1_555
F27 Y0 2.207655 1_555
F28 Ni4 2.075772 1_555
F28 Y1 2.207662 1_555
F29 Ni4 2.126782 1_555
F29 Y1 2.367451 1_555
F29 Y0 2.571505 1_554
F30 Y2 2.163220 1_555
F31 Ni1 2.089597 1_555
F31 Ni5 2.182684 1_555
F31 Y2 2.215405 1_555
F32 Ni2 2.075774 1_555
F32 Y2 2.207655 1_555
