# generated using pymatgen
data_CdCu2GeSe4
_symmetry_space_group_name_H-M   'P 1'
_cell_length_a   6.96966700
_cell_length_b   6.96966700
_cell_length_c   6.96966700
_cell_angle_alpha   130.51312460
_cell_angle_beta   130.51312460
_cell_angle_gamma   72.58777243
_symmetry_Int_Tables_number   1
_chemical_formula_structural   CdCu2GeSe4
_chemical_formula_sum   'Cd1 Cu2 Ge1 Se4'
_cell_volume   191.21989581
_cell_formula_units_Z   1
loop_
 _symmetry_equiv_pos_site_id
 _symmetry_equiv_pos_as_xyz
  1  'x, y, z'
loop_
 _atom_site_type_symbol
 _atom_site_label
 _atom_site_symmetry_multiplicity
 _atom_site_fract_x
 _atom_site_fract_y
 _atom_site_fract_z
 _atom_site_occupancy
  Cd  Cd0  1  0.00000000  0.00000000  0.00000000  1
  Cu  Cu0  1  0.75000000  0.25000000  0.50000000  1
  Cu  Cu1  1  0.25000000  0.75000000  0.50000000  1
  Ge  Ge0  1  0.50000000  0.50000000  0.00000000  1
  Se  Se0  1  0.40461500  0.86769500  0.00000000  1
  Se  Se1  1  0.59538500  0.59538500  0.46308100  1
  Se  Se2  1  0.13230500  0.13230500  0.53691900  1
  Se  Se3  1  0.86769500  0.40461500  0.00000000  1
loop_
_geom_bond_atom_site_label_1
_geom_bond_atom_site_label_2
_geom_bond_distance
_geom_bond_site_symmetry_2
Cd0 Se2 2.691939 1_555
Cd0 Se1 2.691945 1_444
Cd0 Se3 2.691945 1_455
Cd0 Se0 2.691945 1_545
Cu0 Se1 2.431904 1_555
Cu0 Se0 2.431907 1_545
Cu0 Se3 2.431907 1_556
Cu0 Se2 2.431910 1_655
Cu1 Se1 2.431904 1_555
Cu1 Se3 2.431907 1_455
Cu1 Se0 2.431907 1_556
Cu1 Se2 2.431910 1_565
Ge0 Se2 2.447409 1_554
Ge0 Se3 2.447409 1_555
Ge0 Se0 2.447409 1_555
Ge0 Se1 2.447416 1_555
