# generated using pymatgen
data_Na2GeF6
_symmetry_space_group_name_H-M   'P 1'
_cell_length_a   8.98880666
_cell_length_b   8.98873453
_cell_length_c   5.04850310
_cell_angle_alpha   89.99990443
_cell_angle_beta   89.99983249
_cell_angle_gamma   120.00186278
_symmetry_Int_Tables_number   1
_chemical_formula_structural   Na2GeF6
_chemical_formula_sum   'Na6 Ge3 F18'
_cell_volume   353.25287132
_cell_formula_units_Z   3
loop_
 _symmetry_equiv_pos_site_id
 _symmetry_equiv_pos_as_xyz
  1  'x, y, z'
loop_
 _atom_site_type_symbol
 _atom_site_label
 _atom_site_symmetry_multiplicity
 _atom_site_fract_x
 _atom_site_fract_y
 _atom_site_fract_z
 _atom_site_occupancy
  Na  Na0  1  0.62580646  0.62571494  0.00019340  1
  Na  Na1  1  -0.00006705  0.37421153  0.00020188  1
  Na  Na2  1  0.37430505  0.00012073  0.00017469  1
  Na  Na3  1  0.29104406  0.29087122  0.50010684  1
  Na  Na4  1  -0.00016325  0.70895329  0.50012991  1
  Na  Na5  1  0.70914525  0.00020052  0.50009608  1
  Ge  Ge0  1  0.66665648  0.33332872  0.50415324  1
  Ge  Ge1  1  0.33334615  0.66668684  0.49572929  1
  Ge  Ge2  1  -0.00000946  -0.00002617  0.00011293  1
  F  F0  1  0.08642550  0.19078139  0.20345661  1
  F  F1  1  0.80920702  0.89562890  0.20344397  1
  F  F2  1  0.10435052  0.91356496  0.20343715  1
  F  F3  1  0.89549671  0.80923313  0.79670920  1
  F  F4  1  0.91372950  0.10448769  0.79669137  1
  F  F5  1  0.19074761  0.08625714  0.79668313  1
  F  F6  1  0.55181652  0.40754308  0.70997576  1
  F  F7  1  0.59243982  0.14427384  0.70997355  1
  F  F8  1  0.85572352  0.44816810  0.70998091  1
  F  F9  1  0.47650301  0.22334008  0.29897932  1
  F  F10  1  0.77665006  0.25316085  0.29897626  1
  F  F11  1  0.74683724  0.52349324  0.29898684  1
  F  F12  1  0.25329776  0.77684618  0.70074868  1
  F  F13  1  0.52355107  0.74671328  0.70075093  1
  F  F14  1  0.22314578  0.47644735  0.70075532  1
  F  F15  1  0.40728333  0.55156587  0.28986100  1
  F  F16  1  0.44843590  0.85571279  0.28985637  1
  F  F17  1  0.14429545  0.59272149  0.28983537  1
loop_
_geom_bond_atom_site_label_1
_geom_bond_atom_site_label_2
_geom_bond_distance
_geom_bond_site_symmetry_2
F0 Ge2 1.807353 1_555
F0 Na3 2.186425 1_555
F0 Na1 2.378637 1_555
F1 Ge2 1.807156 1_665
F1 Na5 2.186540 1_565
F1 Na0 2.378466 1_555
F2 Ge2 1.807088 1_565
F2 Na4 2.186513 1_555
F2 Na2 2.378767 1_565
F3 Ge2 1.807157 1_666
F3 Na4 2.186194 1_655
F3 Na0 2.377819 1_556
F4 Ge2 1.807466 1_656
F4 Na5 2.186022 1_555
F4 Na1 2.378101 1_656
F5 Ge2 1.807332 1_556
F5 Na3 2.186109 1_555
F5 Na2 2.377988 1_556
F6 Ge0 1.810796 1_555
F6 Na0 2.265076 1_556
F6 Na3 2.293150 1_555
F7 Ge0 1.810754 1_555
F7 Na2 2.264779 1_556
F7 Na5 2.293233 1_555
F8 Ge0 1.810854 1_555
F8 Na1 2.265124 1_656
F8 Na4 2.293170 1_655
F9 Ge0 1.811620 1_555
F9 Na3 2.278278 1_555
F9 Na2 2.302629 1_555
F10 Ge0 1.811710 1_555
F10 Na5 2.278041 1_555
F10 Na1 2.302899 1_655
F11 Ge0 1.811653 1_555
F11 Na4 2.278315 1_655
F11 Na0 2.302822 1_555
F12 Ge1 1.811643 1_555
F12 Na4 2.280022 1_555
F12 Na2 2.304993 1_566
F13 Ge1 1.811626 1_555
F13 Na5 2.280257 1_565
F13 Na0 2.304965 1_556
F14 Ge1 1.811838 1_555
F14 Na3 2.280195 1_555
F14 Na1 2.304704 1_556
F15 Ge1 1.811205 1_555
F15 Na0 2.265358 1_555
F15 Na3 2.293665 1_555
F16 Ge1 1.810957 1_555
F16 Na2 2.265551 1_565
F16 Na5 2.293778 1_565
F17 Ge1 1.811185 1_555
F17 Na1 2.265147 1_555
F17 Na4 2.293810 1_555
