# generated using pymatgen
data_MgCd3
_symmetry_space_group_name_H-M   'P 1'
_cell_length_a   6.45744024
_cell_length_b   9.93998712
_cell_length_c   10.60854132
_cell_angle_alpha   90.00000000
_cell_angle_beta   90.00000000
_cell_angle_gamma   90.00000000
_symmetry_Int_Tables_number   1
_chemical_formula_structural   MgCd3
_chemical_formula_sum   'Mg8 Cd24'
_cell_volume   680.92909245
_cell_formula_units_Z   8
loop_
 _symmetry_equiv_pos_site_id
 _symmetry_equiv_pos_as_xyz
  1  'x, y, z'
loop_
 _atom_site_type_symbol
 _atom_site_label
 _atom_site_symmetry_multiplicity
 _atom_site_fract_x
 _atom_site_fract_y
 _atom_site_fract_z
 _atom_site_occupancy
  Mg  Mg0_0  1  0.00000000  0.25000000  0.16728000  1
  Mg  Mg0_1  1  0.00000000  0.25000000  0.66728000  1
  Mg  Mg0_2  1  0.00000000  0.75000000  0.16728000  1
  Mg  Mg0_3  1  0.00000000  0.75000000  0.66728000  1
  Mg  Mg0_4  1  0.50000000  0.25000000  0.16728000  1
  Mg  Mg0_5  1  0.50000000  0.25000000  0.66728000  1
  Mg  Mg0_6  1  0.50000000  0.75000000  0.16728000  1
  Mg  Mg0_7  1  0.50000000  0.75000000  0.66728000  1
  Cd  Cd0_0  1  0.00000000  0.00000000  0.00201684  1
  Cd  Cd0_1  1  0.00000000  0.00000000  0.50201684  1
  Cd  Cd0_2  1  0.00000000  0.50000000  0.00201684  1
  Cd  Cd0_3  1  0.00000000  0.50000000  0.50201684  1
  Cd  Cd0_4  1  0.50000000  0.00000000  0.00201684  1
  Cd  Cd0_5  1  0.50000000  0.00000000  0.50201684  1
  Cd  Cd0_6  1  0.50000000  0.50000000  0.00201684  1
  Cd  Cd0_7  1  0.50000000  0.50000000  0.50201684  1
  Cd  Cd1_0  1  0.25000000  0.00000000  0.24901905  1
  Cd  Cd1_1  1  0.25000000  0.00000000  0.74901905  1
  Cd  Cd1_2  1  0.25000000  0.50000000  0.24901905  1
  Cd  Cd1_3  1  0.25000000  0.50000000  0.74901905  1
  Cd  Cd1_4  1  0.75000000  0.00000000  0.24901905  1
  Cd  Cd1_5  1  0.75000000  0.00000000  0.74901905  1
  Cd  Cd1_6  1  0.75000000  0.50000000  0.24901905  1
  Cd  Cd1_7  1  0.75000000  0.50000000  0.74901905  1
  Cd  Cd2_0  1  0.25000000  0.25000000  0.41501761  1
  Cd  Cd2_1  1  0.25000000  0.25000000  0.91501761  1
  Cd  Cd2_2  1  0.25000000  0.75000000  0.41501761  1
  Cd  Cd2_3  1  0.25000000  0.75000000  0.91501761  1
  Cd  Cd2_4  1  0.75000000  0.25000000  0.41501761  1
  Cd  Cd2_5  1  0.75000000  0.25000000  0.91501761  1
  Cd  Cd2_6  1  0.75000000  0.75000000  0.41501761  1
  Cd  Cd2_7  1  0.75000000  0.75000000  0.91501761  1
loop_
_geom_bond_atom_site_label_1
_geom_bond_atom_site_label_2
_geom_bond_distance
_geom_bond_site_symmetry_2
Mg0_0 Mg0_4 3.228720 1_555
Mg0_0 Mg0_4 3.228720 1_455
Mg0_1 Mg0_5 3.228720 1_455
Mg0_1 Mg0_5 3.228720 1_555
Mg0_2 Mg0_6 3.228720 1_455
Mg0_2 Mg0_6 3.228720 1_555
Mg0_3 Mg0_7 3.228720 1_555
Mg0_3 Mg0_7 3.228720 1_455
Cd0_0 Mg0_2 3.041204 1_545
Cd0_0 Mg0_0 3.041204 1_555
Cd0_0 Cd1_0 3.077711 1_555
Cd0_0 Cd1_4 3.077711 1_455
Cd0_0 Cd2_7 3.103736 1_444
Cd0_0 Cd2_1 3.103736 1_554
Cd0_0 Cd2_3 3.103736 1_544
Cd0_0 Cd2_5 3.103736 1_454
Cd0_0 Cd1_1 3.132041 1_554
Cd0_0 Cd1_5 3.132041 1_454
Cd0_0 Cd0_4 3.228720 1_555
Cd0_0 Cd0_4 3.228720 1_455
Cd0_1 Mg0_3 3.041204 1_545
Cd0_1 Mg0_1 3.041204 1_555
Cd0_1 Cd1_1 3.077711 1_555
Cd0_1 Cd1_5 3.077711 1_455
Cd0_1 Cd2_0 3.103736 1_555
Cd0_1 Cd2_4 3.103736 1_455
Cd0_1 Cd2_2 3.103736 1_545
Cd0_1 Cd2_6 3.103736 1_445
Cd0_1 Cd1_0 3.132041 1_555
Cd0_1 Cd1_4 3.132041 1_455
Cd0_1 Cd0_5 3.228720 1_555
Cd0_1 Cd0_5 3.228720 1_455
Cd0_2 Mg0_2 3.041204 1_555
Cd0_2 Mg0_0 3.041204 1_555
Cd0_2 Cd1_2 3.077711 1_555
Cd0_2 Cd1_6 3.077711 1_455
Cd0_2 Cd2_3 3.103736 1_554
Cd0_2 Cd2_7 3.103736 1_454
Cd0_2 Cd2_1 3.103736 1_554
Cd0_2 Cd2_5 3.103736 1_454
Cd0_2 Cd1_7 3.132041 1_454
Cd0_2 Cd1_3 3.132041 1_554
Cd0_2 Cd0_6 3.228720 1_555
Cd0_2 Cd0_6 3.228720 1_455
Cd0_3 Mg0_3 3.041204 1_555
Cd0_3 Mg0_1 3.041204 1_555
Cd0_3 Cd1_3 3.077711 1_555
Cd0_3 Cd1_7 3.077711 1_455
Cd0_3 Cd2_6 3.103736 1_455
Cd0_3 Cd2_4 3.103736 1_455
Cd0_3 Cd2_2 3.103736 1_555
Cd0_3 Cd2_0 3.103736 1_555
Cd0_3 Cd1_6 3.132041 1_455
Cd0_3 Cd1_2 3.132041 1_555
Cd0_3 Cd0_7 3.228720 1_455
Cd0_3 Cd0_7 3.228720 1_555
Cd0_4 Mg0_6 3.041204 1_545
Cd0_4 Mg0_4 3.041204 1_555
Cd0_4 Cd1_4 3.077711 1_555
Cd0_4 Cd1_0 3.077711 1_555
Cd0_4 Cd2_5 3.103736 1_554
Cd0_4 Cd2_1 3.103736 1_554
Cd0_4 Cd2_3 3.103736 1_544
Cd0_4 Cd2_7 3.103736 1_544
Cd0_4 Cd1_1 3.132041 1_554
Cd0_4 Cd1_5 3.132041 1_554
Cd0_5 Mg0_5 3.041204 1_555
Cd0_5 Mg0_7 3.041204 1_545
Cd0_5 Cd1_1 3.077711 1_555
Cd0_5 Cd1_5 3.077711 1_555
Cd0_5 Cd2_0 3.103736 1_555
Cd0_5 Cd2_2 3.103736 1_545
Cd0_5 Cd2_4 3.103736 1_555
Cd0_5 Cd2_6 3.103736 1_545
Cd0_5 Cd1_0 3.132041 1_555
Cd0_5 Cd1_4 3.132041 1_555
Cd0_6 Mg0_6 3.041204 1_555
Cd0_6 Mg0_4 3.041204 1_555
Cd0_6 Cd1_2 3.077711 1_555
Cd0_6 Cd1_6 3.077711 1_555
Cd0_6 Cd2_3 3.103736 1_554
Cd0_6 Cd2_7 3.103736 1_554
Cd0_6 Cd2_1 3.103736 1_554
Cd0_6 Cd2_5 3.103736 1_554
Cd0_6 Cd1_3 3.132041 1_554
Cd0_6 Cd1_7 3.132041 1_554
Cd0_7 Mg0_5 3.041204 1_555
Cd0_7 Mg0_7 3.041204 1_555
Cd0_7 Cd1_3 3.077711 1_555
Cd0_7 Cd1_7 3.077711 1_555
Cd0_7 Cd2_0 3.103736 1_555
Cd0_7 Cd2_2 3.103736 1_555
Cd0_7 Cd2_6 3.103736 1_555
Cd0_7 Cd2_4 3.103736 1_555
Cd0_7 Cd1_2 3.132041 1_555
Cd0_7 Cd1_6 3.132041 1_555
Cd1_0 Cd2_0 3.045708 1_555
Cd1_0 Cd2_2 3.045708 1_545
Cd1_0 Mg0_6 3.087602 1_545
Cd1_0 Mg0_0 3.087602 1_555
Cd1_0 Mg0_2 3.087602 1_545
Cd1_0 Mg0_4 3.087602 1_555
Cd1_0 Cd1_4 3.228720 1_555
Cd1_0 Cd1_4 3.228720 1_455
Cd1_1 Cd2_1 3.045708 1_555
Cd1_1 Cd2_3 3.045708 1_545
Cd1_1 Mg0_5 3.087602 1_555
Cd1_1 Mg0_3 3.087602 1_545
Cd1_1 Mg0_7 3.087602 1_545
Cd1_1 Mg0_1 3.087602 1_555
Cd1_1 Cd1_5 3.228720 1_455
Cd1_1 Cd1_5 3.228720 1_555
Cd1_2 Cd2_2 3.045708 1_555
Cd1_2 Cd2_0 3.045708 1_555
Cd1_2 Mg0_2 3.087602 1_555
Cd1_2 Mg0_0 3.087602 1_555
Cd1_2 Mg0_6 3.087602 1_555
Cd1_2 Mg0_4 3.087602 1_555
Cd1_2 Cd1_6 3.228720 1_455
Cd1_2 Cd1_6 3.228720 1_555
Cd1_3 Cd2_3 3.045708 1_555
Cd1_3 Cd2_1 3.045708 1_555
Cd1_3 Mg0_5 3.087602 1_555
Cd1_3 Mg0_3 3.087602 1_555
Cd1_3 Mg0_7 3.087602 1_555
Cd1_3 Mg0_1 3.087602 1_555
Cd1_3 Cd1_7 3.228720 1_455
Cd1_3 Cd1_7 3.228720 1_555
Cd1_4 Cd2_6 3.045708 1_545
Cd1_4 Cd2_4 3.045708 1_555
Cd1_4 Mg0_6 3.087602 1_545
Cd1_4 Mg0_0 3.087602 1_655
Cd1_4 Mg0_2 3.087602 1_645
Cd1_4 Mg0_4 3.087602 1_555
Cd1_5 Cd2_5 3.045708 1_555
Cd1_5 Cd2_7 3.045708 1_545
Cd1_5 Mg0_3 3.087602 1_645
Cd1_5 Mg0_5 3.087602 1_555
Cd1_5 Mg0_7 3.087602 1_545
Cd1_5 Mg0_1 3.087602 1_655
Cd1_6 Cd2_6 3.045708 1_555
Cd1_6 Cd2_4 3.045708 1_555
Cd1_6 Mg0_0 3.087602 1_655
Cd1_6 Mg0_6 3.087602 1_555
Cd1_6 Mg0_2 3.087602 1_655
Cd1_6 Mg0_4 3.087602 1_555
Cd1_7 Cd2_7 3.045708 1_555
Cd1_7 Cd2_5 3.045708 1_555
Cd1_7 Mg0_5 3.087602 1_555
Cd1_7 Mg0_3 3.087602 1_655
Cd1_7 Mg0_7 3.087602 1_555
Cd1_7 Mg0_1 3.087602 1_655
Cd2_0 Mg0_0 3.084356 1_555
Cd2_0 Mg0_4 3.084356 1_555
Cd2_0 Mg0_1 3.125358 1_555
Cd2_0 Mg0_5 3.125358 1_555
Cd2_0 Cd2_4 3.228720 1_455
Cd2_0 Cd2_4 3.228720 1_555
Cd2_1 Mg0_1 3.084356 1_555
Cd2_1 Mg0_5 3.084356 1_555
Cd2_1 Mg0_0 3.125358 1_556
Cd2_1 Mg0_4 3.125358 1_556
Cd2_1 Cd2_5 3.228720 1_455
Cd2_1 Cd2_5 3.228720 1_555
Cd2_2 Mg0_2 3.084356 1_555
Cd2_2 Mg0_6 3.084356 1_555
Cd2_2 Mg0_3 3.125358 1_555
Cd2_2 Mg0_7 3.125358 1_555
Cd2_2 Cd2_6 3.228720 1_455
Cd2_2 Cd2_6 3.228720 1_555
Cd2_3 Mg0_3 3.084356 1_555
Cd2_3 Mg0_7 3.084356 1_555
Cd2_3 Mg0_2 3.125358 1_556
Cd2_3 Mg0_6 3.125358 1_556
Cd2_3 Cd2_7 3.228720 1_455
Cd2_3 Cd2_7 3.228720 1_555
Cd2_4 Mg0_0 3.084356 1_655
Cd2_4 Mg0_4 3.084356 1_555
Cd2_4 Mg0_1 3.125358 1_655
Cd2_4 Mg0_5 3.125358 1_555
Cd2_5 Mg0_1 3.084356 1_655
Cd2_5 Mg0_5 3.084356 1_555
Cd2_5 Mg0_0 3.125358 1_656
Cd2_5 Mg0_4 3.125358 1_556
Cd2_6 Mg0_2 3.084356 1_655
Cd2_6 Mg0_6 3.084356 1_555
Cd2_6 Mg0_7 3.125358 1_555
Cd2_6 Mg0_3 3.125358 1_655
Cd2_7 Mg0_7 3.084356 1_555
Cd2_7 Mg0_3 3.084356 1_655
Cd2_7 Mg0_6 3.125358 1_556
Cd2_7 Mg0_2 3.125358 1_656
