# generated using pymatgen
data_Na2LiCuP2O7
_symmetry_space_group_name_H-M   'P 1'
_cell_length_a   5.83282102
_cell_length_b   7.77913295
_cell_length_c   8.75868203
_cell_angle_alpha   68.79505396
_cell_angle_beta   90.00823324
_cell_angle_gamma   112.01466338
_symmetry_Int_Tables_number   1
_chemical_formula_structural   Na2LiCuP2O7
_chemical_formula_sum   'Na4 Li2 Cu2 P4 O14'
_cell_volume   339.25255765
_cell_formula_units_Z   2
loop_
 _symmetry_equiv_pos_site_id
 _symmetry_equiv_pos_as_xyz
  1  'x, y, z'
loop_
 _atom_site_type_symbol
 _atom_site_label
 _atom_site_symmetry_multiplicity
 _atom_site_fract_x
 _atom_site_fract_y
 _atom_site_fract_z
 _atom_site_occupancy
  Na  Na0  1  0.07584500  0.40561200  0.20539700  1
  Na  Na1  1  0.36983700  0.46012200  0.72396500  1
  Na  Na2  1  0.67018400  0.59430400  0.29457100  1
  Na  Na3  1  0.90977500  0.53996500  0.77601500  1
  Li  Li0  1  0.28075900  0.28877200  0.49507800  1
  Li  Li1  1  0.99210700  0.71126100  0.00493500  1
  Cu  Cu0  1  0.94086600  0.95673400  0.49655800  1
  Cu  Cu1  1  0.98416000  0.04328400  0.00335300  1
  P  P0  1  0.23856300  0.77413300  0.34489700  1
  P  P1  1  0.54418200  0.78575600  0.86534000  1
  P  P2  1  0.46441000  0.22583300  0.15515500  1
  P  P3  1  0.75846200  0.21424900  0.63464500  1
  O  O0  1  0.08502200  0.72022600  0.21432000  1
  O  O1  1  0.08133000  0.78036200  0.48362400  1
  O  O2  1  0.26532200  0.65293600  0.92381100  1
  O  O3  1  0.36551700  0.62920900  0.42045200  1
  O  O4  1  0.36472700  0.27969500  0.28573900  1
  O  O5  1  0.30096200  0.21965400  0.01635800  1
  O  O6  1  0.69754800  0.81453500  0.00680400  1
  O  O7  1  0.67533600  0.72189800  0.75797100  1
  O  O8  1  0.61234900  0.34714100  0.57606800  1
  O  O9  1  0.46122000  0.99996300  0.25002600  1
  O  O10  1  0.54002600  0.00004100  0.75000700  1
  O  O11  1  0.73620700  0.37073800  0.07969800  1
  O  O12  1  0.88293800  0.18539800  0.49324000  1
  O  O13  1  0.95343400  0.27817700  0.74197800  1
loop_
_geom_bond_atom_site_label_1
_geom_bond_atom_site_label_2
_geom_bond_distance
_geom_bond_site_symmetry_2
Na0 O11 2.241157 1_455
Na0 O4 2.243267 1_555
Na0 O2 2.445373 1_554
Na0 O12 2.447080 1_455
Na0 O0 2.457441 1_555
Na1 O7 2.264747 1_555
Na1 O13 2.277863 1_455
Na1 O5 2.488085 1_556
Na1 O8 2.491490 1_555
Na1 O3 2.508589 1_555
Na1 O2 2.875822 1_555
Na2 O3 2.241919 1_555
Na2 O0 2.243637 1_655
Na2 O8 2.444210 1_555
Na2 O6 2.446355 1_555
Na2 O4 2.457232 1_555
Na3 O13 2.264728 1_555
Na3 O7 2.277477 1_555
Na3 O1 2.488033 1_655
Na3 O2 2.490931 1_655
Na3 O11 2.510257 1_556
Na3 O8 2.876664 1_555
Li0 O4 1.930427 1_555
Li0 O8 2.006083 1_555
Li0 O12 2.154465 1_455
Li0 O3 2.334842 1_555
Li1 O0 1.930235 1_655
Li1 O2 2.006474 1_654
Li1 O6 2.154509 1_555
Li1 O11 2.335597 1_555
Cu0 O1 1.876624 1_655
Cu0 O12 1.921549 1_565
Cu0 O7 2.415053 1_555
Cu1 O5 1.876769 1_655
Cu1 O6 1.921743 1_545
Cu1 O13 2.414780 1_554
O0 P0 1.533305 1_555
O1 P0 1.547920 1_555
O2 P1 1.527417 1_555
O3 P0 1.530776 1_555
O4 P2 1.533390 1_555
O5 P2 1.548118 1_555
O6 P1 1.560697 1_554
O7 P1 1.529515 1_555
O8 P3 1.528058 1_555
O9 P0 1.642317 1_555
O9 P2 1.642381 1_565
O10 P3 1.616075 1_555
O10 P1 1.616134 1_545
O11 P2 1.530490 1_555
O12 P3 1.560434 1_555
O13 P3 1.529153 1_555
