# generated using pymatgen
data_Pr2NiB10
_symmetry_space_group_name_H-M   'P 1'
_cell_length_a   4.20577788
_cell_length_b   5.64762251
_cell_length_c   11.24321876
_cell_angle_alpha   90.00000000
_cell_angle_beta   90.00000000
_cell_angle_gamma   90.00000000
_symmetry_Int_Tables_number   1
_chemical_formula_structural   Pr2NiB10
_chemical_formula_sum   'Pr4 Ni2 B20'
_cell_volume   267.05619316
_cell_formula_units_Z   2
loop_
 _symmetry_equiv_pos_site_id
 _symmetry_equiv_pos_as_xyz
  1  'x, y, z'
loop_
 _atom_site_type_symbol
 _atom_site_label
 _atom_site_symmetry_multiplicity
 _atom_site_fract_x
 _atom_site_fract_y
 _atom_site_fract_z
 _atom_site_occupancy
  Pr  Pr0  1  0.50000000  0.18892410  0.36316675  1
  Pr  Pr1  1  0.50000000  0.81107590  0.63683325  1
  Pr  Pr2  1  0.50000000  0.31107590  0.86316675  1
  Pr  Pr3  1  0.50000000  0.68892410  0.13683325  1
  Ni  Ni0  1  0.00000000  -0.00000000  0.00000000  1
  Ni  Ni1  1  0.00000000  0.50000000  0.50000000  1
  B  B0  1  0.00000000  0.37319779  0.04157415  1
  B  B1  1  0.00000000  0.62680221  0.95842585  1
  B  B2  1  0.00000000  0.12680221  0.54157415  1
  B  B3  1  0.00000000  0.87319779  0.45842585  1
  B  B4  1  0.00000000  0.34105290  0.19768768  1
  B  B5  1  0.00000000  0.65894710  0.80231232  1
  B  B6  1  0.00000000  0.15894710  0.69768768  1
  B  B7  1  0.00000000  0.84105290  0.30231232  1
  B  B8  1  0.00000000  0.03238575  0.18675812  1
  B  B9  1  0.00000000  0.96761425  0.81324188  1
  B  B10  1  0.00000000  0.46761425  0.68675812  1
  B  B11  1  0.00000000  0.53238575  0.31324188  1
  B  B12  1  0.29967319  0.19997976  0.11377369  1
  B  B13  1  0.70032681  0.80002024  0.88622631  1
  B  B14  1  0.29967319  0.80002024  0.88622631  1
  B  B15  1  0.70032681  0.30002024  0.61377369  1
  B  B16  1  0.70032681  0.19997976  0.11377369  1
  B  B17  1  0.29967319  0.69997976  0.38622631  1
  B  B18  1  0.70032681  0.69997976  0.38622631  1
  B  B19  1  0.29967319  0.30002024  0.61377369  1
loop_
_geom_bond_atom_site_label_1
_geom_bond_atom_site_label_2
_geom_bond_distance
_geom_bond_site_symmetry_2
Ni0 Pr3 3.142522 1_445
Ni0 Pr3 3.142522 1_545
Ni0 Pr2 3.142522 1_454
Ni0 Pr2 3.142522 1_554
Ni1 Pr0 3.142522 1_455
Ni1 Pr1 3.142522 1_555
Ni1 Pr0 3.142522 1_555
Ni1 Pr1 3.142522 1_455
B0 B1 1.710359 1_554
B0 B4 1.764582 1_555
B0 B12 1.790101 1_555
B0 B16 1.790101 1_455
B0 Ni0 2.158890 1_555
B0 Pr2 2.927244 1_454
B0 Pr2 2.927244 1_554
B0 Pr3 2.957817 1_455
B0 Pr3 2.957817 1_555
B1 B5 1.764582 1_555
B1 B14 1.790101 1_555
B1 B13 1.790101 1_455
B1 Ni0 2.158890 1_566
B1 Pr3 2.927244 1_456
B1 Pr3 2.927244 1_556
B1 Pr2 2.957817 1_455
B1 Pr2 2.957817 1_555
B2 B3 1.710359 1_545
B2 B6 1.764582 1_555
B2 Ni1 2.158890 1_555
B2 Pr0 2.927244 1_555
B2 Pr0 2.927244 1_455
B2 Pr1 2.957817 1_545
B2 Pr1 2.957817 1_445
B3 B7 1.764582 1_555
B3 Ni1 2.158890 1_555
B3 Pr1 2.927244 1_455
B3 Pr1 2.927244 1_555
B3 Pr0 2.957817 1_465
B3 Pr0 2.957817 1_565
B4 B8 1.747561 1_555
B4 Pr0 2.936296 1_555
B4 Pr0 2.936296 1_455
B4 Pr3 2.958057 1_555
B4 Pr3 2.958057 1_455
B5 B9 1.747561 1_555
B5 Pr1 2.936296 1_555
B5 Pr1 2.936296 1_455
B5 Pr2 2.958057 1_555
B5 Pr2 2.958057 1_455
B6 B9 1.689842 1_545
B6 Pr2 2.936296 1_455
B6 Pr2 2.936296 1_555
B6 Pr1 2.958057 1_545
B6 Pr1 2.958057 1_445
B7 B8 1.689842 1_565
B7 Pr3 2.936296 1_455
B7 Pr3 2.936296 1_555
B7 Pr0 2.958057 1_565
B7 Pr0 2.958057 1_465
B8 Ni0 2.107713 1_555
B8 Pr3 2.915444 1_545
B8 Pr3 2.915444 1_445
B8 Pr0 3.022846 1_555
B8 Pr0 3.022846 1_455
B9 Ni0 2.107713 1_566
B9 Pr2 2.915444 1_465
B9 Pr2 2.915444 1_565
B9 Pr1 3.022846 1_455
B9 Pr1 3.022846 1_555
B10 B5 1.689842 1_555
B10 B6 1.747561 1_555
B10 B19 1.777001 1_555
B10 B15 1.777001 1_455
B10 Ni1 2.107713 1_555
B10 Pr1 2.915444 1_555
B10 Pr1 2.915444 1_455
B10 Pr2 3.022846 1_455
B10 Pr2 3.022846 1_555
B11 B4 1.689842 1_555
B11 B7 1.747561 1_555
B11 B17 1.777001 1_555
B11 B18 1.777001 1_455
B11 Ni1 2.107713 1_555
B11 Pr0 2.915444 1_455
B11 Pr0 2.915444 1_555
B11 Pr3 3.022846 1_455
B11 Pr3 3.022846 1_555
B12 B16 1.685060 1_555
B12 B4 1.764484 1_555
B12 B8 1.777001 1_555
B12 Ni0 2.121410 1_555
B12 Pr3 2.898664 1_555
B12 Pr0 2.928492 1_555
B12 Pr2 3.007084 1_554
B12 Pr3 3.017865 1_545
B13 B14 1.685060 1_555
B13 B5 1.764484 1_655
B13 B9 1.777001 1_655
B13 Ni0 2.121410 1_666
B13 Pr2 2.898664 1_555
B13 Pr1 2.928492 1_555
B13 Pr3 3.007084 1_556
B13 Pr2 3.017865 1_565
B14 B5 1.764484 1_555
B14 B9 1.777001 1_555
B14 Ni0 2.121410 1_566
B14 Pr2 2.898664 1_555
B14 Pr1 2.928492 1_555
B14 Pr3 3.007084 1_556
B14 Pr2 3.017865 1_565
B15 B19 1.685060 1_555
B15 B6 1.764484 1_655
B15 B2 1.790101 1_655
B15 Ni1 2.121410 1_655
B15 Pr1 2.898664 1_545
B15 Pr2 2.928492 1_555
B15 Pr0 3.007084 1_555
B15 Pr1 3.017865 1_555
B16 B4 1.764484 1_655
B16 B8 1.777001 1_655
B16 Ni0 2.121410 1_655
B16 Pr3 2.898664 1_555
B16 Pr0 2.928492 1_555
B16 Pr2 3.007084 1_554
B16 Pr3 3.017865 1_545
B17 B18 1.685060 1_555
B17 B7 1.764484 1_555
B17 B3 1.790101 1_555
B17 Ni1 2.121410 1_555
B17 Pr0 2.898664 1_565
B17 Pr3 2.928492 1_555
B17 Pr1 3.007084 1_555
B17 Pr0 3.017865 1_555
B18 B7 1.764484 1_655
B18 B3 1.790101 1_655
B18 Ni1 2.121410 1_655
B18 Pr0 2.898664 1_565
B18 Pr3 2.928492 1_555
B18 Pr1 3.007084 1_555
B18 Pr0 3.017865 1_555
B19 B6 1.764484 1_555
B19 B2 1.790101 1_555
B19 Ni1 2.121410 1_555
B19 Pr1 2.898664 1_545
B19 Pr2 2.928492 1_555
B19 Pr0 3.007084 1_555
B19 Pr1 3.017865 1_555
