# generated using pymatgen
data_FeSb6(Pb2Se7)2
_symmetry_space_group_name_H-M   'P 1'
_cell_length_a   20.15496100
_cell_length_b   4.14602300
_cell_length_c   16.84155716
_cell_angle_alpha   88.04478357
_cell_angle_beta   90.00000000
_cell_angle_gamma   90.00000000
_symmetry_Int_Tables_number   1
_chemical_formula_structural   FeSb6(Pb2Se7)2
_chemical_formula_sum   'Fe2 Sb12 Pb8 Se28'
_cell_volume   1406.51054563
_cell_formula_units_Z   2
loop_
 _symmetry_equiv_pos_site_id
 _symmetry_equiv_pos_as_xyz
  1  'x, y, z'
loop_
 _atom_site_type_symbol
 _atom_site_label
 _atom_site_symmetry_multiplicity
 _atom_site_fract_x
 _atom_site_fract_y
 _atom_site_fract_z
 _atom_site_occupancy
  Fe  Fe0  1  0.00000000  0.50000000  0.00000000  1
  Fe  Fe1  1  0.50000000  0.50000000  0.50000000  1
  Sb  Sb0  1  0.54935400  0.09520900  0.10284800  1
  Sb  Sb1  1  0.04935400  0.90479100  0.39715200  1
  Sb  Sb2  1  0.45064600  0.90479100  0.89715200  1
  Sb  Sb3  1  0.95064600  0.09520900  0.60284800  1
  Sb  Sb4  1  0.93423100  0.93464600  0.18096200  1
  Sb  Sb5  1  0.43423100  0.06535400  0.31903800  1
  Sb  Sb6  1  0.06576900  0.06535400  0.81903800  1
  Sb  Sb7  1  0.56576900  0.93464600  0.68096200  1
  Sb  Sb8  1  0.66007100  0.09126600  0.86662200  1
  Sb  Sb9  1  0.16007100  0.90873400  0.63337800  1
  Sb  Sb10  1  0.33992900  0.90873400  0.13337800  1
  Sb  Sb11  1  0.83992900  0.09126600  0.36662200  1
  Pb  Pb0  1  0.73652500  0.54773100  0.06448100  1
  Pb  Pb1  1  0.23652500  0.45226900  0.43551900  1
  Pb  Pb2  1  0.26347500  0.45226900  0.93551900  1
  Pb  Pb3  1  0.76347500  0.54773100  0.56448100  1
  Pb  Pb4  1  0.63462900  0.52790000  0.31022900  1
  Pb  Pb5  1  0.13462900  0.47210000  0.18977100  1
  Pb  Pb6  1  0.36537100  0.47210000  0.68977100  1
  Pb  Pb7  1  0.86537100  0.52790000  0.81022900  1
  Se  Se0  1  0.66252500  0.04363100  0.18113900  1
  Se  Se1  1  0.16252500  0.95636900  0.31886100  1
  Se  Se2  1  0.33747500  0.95636900  0.81886100  1
  Se  Se3  1  0.83747500  0.04363100  0.68113900  1
  Se  Se4  1  0.89501400  0.48677200  0.07796800  1
  Se  Se5  1  0.39501400  0.51322800  0.42203200  1
  Se  Se6  1  0.10498600  0.51322800  0.92203200  1
  Se  Se7  1  0.60498600  0.48677200  0.57796800  1
  Se  Se8  1  0.54326500  0.02089600  0.40710500  1
  Se  Se9  1  0.04326500  0.97910400  0.09289500  1
  Se  Se10  1  0.45673500  0.97910400  0.59289500  1
  Se  Se11  1  0.95673500  0.02089600  0.90710500  1
  Se  Se12  1  0.77306100  0.06293000  0.94372900  1
  Se  Se13  1  0.27306100  0.93707000  0.55627100  1
  Se  Se14  1  0.22693900  0.93707000  0.05627100  1
  Se  Se15  1  0.72693900  0.06293000  0.44372900  1
  Se  Se16  1  0.59859800  0.55440200  0.99447000  1
  Se  Se17  1  0.09859800  0.44559800  0.50553000  1
  Se  Se18  1  0.40140200  0.44559800  0.00553000  1
  Se  Se19  1  0.90140200  0.55440200  0.49447000  1
  Se  Se20  1  0.50335300  0.52870900  0.21536100  1
  Se  Se21  1  0.00335300  0.47129100  0.28463900  1
  Se  Se22  1  0.49664700  0.47129100  0.78463900  1
  Se  Se23  1  0.99664700  0.52870900  0.71536100  1
  Se  Se24  1  0.79713500  0.58686100  0.27194200  1
  Se  Se25  1  0.29713500  0.41313900  0.22805800  1
  Se  Se26  1  0.20286500  0.41313900  0.72805800  1
  Se  Se27  1  0.70286500  0.58686100  0.77194200  1
loop_
_geom_bond_atom_site_label_1
_geom_bond_atom_site_label_2
_geom_bond_distance
_geom_bond_site_symmetry_2
Fe0 Se4 2.489928 1_455
Fe0 Se6 2.489928 1_554
Fe0 Se11 2.713999 1_454
Fe0 Se9 2.713999 1_555
Fe0 Se11 2.764337 1_464
Fe0 Se9 2.764337 1_545
Fe1 Se5 2.489928 1_555
Fe1 Se7 2.489928 1_555
Fe1 Se10 2.713999 1_555
Fe1 Se8 2.713999 1_555
Fe1 Se10 2.764337 1_545
Fe1 Se8 2.764337 1_565
Sb0 Se0 2.639661 1_555
Sb0 Se16 2.775619 1_554
Sb0 Se20 2.812990 1_555
Sb0 Se16 3.102152 1_544
Sb0 Se20 3.108541 1_545
Sb1 Se1 2.639661 1_555
Sb1 Se17 2.775619 1_555
Sb1 Se21 2.812990 1_555
Sb1 Se17 3.102152 1_565
Sb1 Se21 3.108541 1_565
Sb2 Se2 2.639661 1_555
Sb2 Se18 2.775619 1_556
Sb2 Se22 2.812990 1_555
Sb2 Se18 3.102152 1_566
Sb2 Se22 3.108541 1_565
Sb3 Se3 2.639661 1_555
Sb3 Se19 2.775619 1_555
Sb3 Se23 2.812990 1_555
Sb3 Se19 3.102152 1_545
Sb3 Se23 3.108541 1_545
Sb4 Se9 2.654148 1_655
Sb4 Se4 2.702105 1_555
Sb4 Se21 2.907118 1_655
Sb4 Se4 2.933033 1_565
Sb4 Se21 3.194548 1_665
Sb5 Se8 2.654148 1_555
Sb5 Se5 2.702105 1_555
Sb5 Se20 2.907118 1_555
Sb5 Se5 2.933033 1_545
Sb5 Se20 3.194548 1_545
Sb6 Se11 2.654148 1_455
Sb6 Se6 2.702105 1_555
Sb6 Se23 2.907118 1_455
Sb6 Se6 2.933033 1_545
Sb6 Se23 3.194548 1_445
Sb7 Se10 2.654148 1_555
Sb7 Se7 2.702105 1_555
Sb7 Se22 2.907118 1_555
Sb7 Se7 2.933033 1_565
Sb7 Se22 3.194548 1_565
Sb8 Se12 2.622193 1_555
Sb8 Se27 2.699067 1_555
Sb8 Se27 2.808473 1_545
Sb8 Se16 3.184394 1_555
Sb8 Se16 3.286116 1_545
Sb9 Se13 2.622193 1_555
Sb9 Se26 2.699067 1_555
Sb9 Se26 2.808473 1_565
Sb9 Se17 3.184394 1_555
Sb9 Se17 3.286116 1_565
Sb10 Se14 2.622193 1_555
Sb10 Se25 2.699067 1_555
Sb10 Se25 2.808473 1_565
Sb10 Se18 3.184394 1_555
Sb10 Se18 3.286116 1_565
Sb11 Se15 2.622193 1_555
Sb11 Se24 2.699067 1_555
Sb11 Se24 2.808473 1_545
Sb11 Se19 3.184394 1_555
Sb11 Se19 3.286116 1_545
Pb0 Se12 2.990684 1_564
Pb0 Se12 2.999501 1_554
Pb0 Se16 3.019391 1_554
Pb0 Se0 3.189432 1_555
Pb0 Se4 3.211753 1_555
Pb0 Se0 3.253822 1_565
Pb1 Se13 2.990684 1_545
Pb1 Se13 2.999501 1_555
Pb1 Se17 3.019391 1_555
Pb1 Se1 3.189432 1_555
Pb1 Se5 3.211753 1_555
Pb1 Se1 3.253822 1_545
Pb2 Se14 2.990684 1_546
Pb2 Se14 2.999501 1_556
Pb2 Se18 3.019391 1_556
Pb2 Se2 3.189432 1_555
Pb2 Se6 3.211753 1_555
Pb2 Se2 3.253822 1_545
Pb3 Se15 2.990684 1_565
Pb3 Se15 2.999501 1_555
Pb3 Se19 3.019391 1_555
Pb3 Se3 3.189432 1_555
Pb3 Se7 3.211753 1_555
Pb3 Se3 3.253822 1_565
Pb4 Se0 3.049189 1_565
Pb4 Se0 3.061341 1_555
Pb4 Se20 3.090786 1_555
Pb4 Se8 3.199596 1_555
Pb4 Se8 3.233915 1_565
Pb4 Se24 3.345503 1_555
Pb4 Se15 3.455012 1_555
Pb5 Se1 3.049189 1_545
Pb5 Se1 3.061341 1_555
Pb5 Se21 3.090786 1_555
Pb5 Se9 3.199596 1_555
Pb5 Se9 3.233915 1_545
Pb5 Se25 3.345503 1_555
Pb5 Se14 3.455012 1_555
Pb6 Se2 3.049189 1_545
Pb6 Se2 3.061341 1_555
Pb6 Se22 3.090786 1_555
Pb6 Se10 3.199596 1_555
Pb6 Se10 3.233915 1_545
Pb6 Se26 3.345503 1_555
Pb6 Se13 3.455012 1_555
Pb7 Se3 3.049189 1_565
Pb7 Se3 3.061341 1_555
Pb7 Se23 3.090786 1_555
Pb7 Se11 3.199596 1_555
Pb7 Se11 3.233915 1_565
Pb7 Se27 3.345503 1_555
Pb7 Se12 3.455012 1_555
