# generated using pymatgen
data_Rb(WO3)3
_symmetry_space_group_name_H-M   'P 1'
_cell_length_a   7.53121304
_cell_length_b   7.55009314
_cell_length_c   7.78010800
_cell_angle_alpha   89.99981086
_cell_angle_beta   89.99911037
_cell_angle_gamma   120.10419748
_symmetry_Int_Tables_number   1
_chemical_formula_structural   Rb(WO3)3
_chemical_formula_sum   'Rb2 W6 O18'
_cell_volume   382.71593735
_cell_formula_units_Z   2
loop_
 _symmetry_equiv_pos_site_id
 _symmetry_equiv_pos_as_xyz
  1  'x, y, z'
loop_
 _atom_site_type_symbol
 _atom_site_label
 _atom_site_symmetry_multiplicity
 _atom_site_fract_x
 _atom_site_fract_y
 _atom_site_fract_z
 _atom_site_occupancy
  Rb  Rb0  1  0.99997200  0.99992500  0.50259300  1
  Rb  Rb1  1  0.99997400  0.99993400  0.00045900  1
  W  W0  1  0.99997700  0.49985900  0.25006300  1
  W  W1  1  0.50017400  0.50024400  0.25007300  1
  W  W2  1  0.50017400  0.00000700  0.75004100  1
  W  W3  1  0.00002300  0.50017000  0.75005500  1
  W  W4  1  0.49984000  0.49985400  0.75006300  1
  W  W5  1  0.49982700  0.00010000  0.25005900  1
  O  O0  1  0.50002700  0.99998500  0.49372200  1
  O  O1  1  0.49994800  0.50002300  0.00188500  1
  O  O2  1  0.00012700  0.50009800  0.00038900  1
  O  O3  1  0.99995800  0.50001000  0.49969600  1
  O  O4  1  0.50001900  0.49993800  0.49820300  1
  O  O5  1  0.49994600  0.99982200  0.00636400  1
  O  O6  1  0.79053900  0.57870800  0.75005900  1
  O  O7  1  0.20947200  0.78856400  0.25009900  1
  O  O8  1  0.42006300  0.21177800  0.24999600  1
  O  O9  1  0.20934200  0.42121400  0.74997200  1
  O  O10  1  0.21059100  0.78874400  0.74994900  1
  O  O11  1  0.79047400  0.21138600  0.25000100  1
  O  O12  1  0.78995700  0.57867000  0.25000000  1
  O  O13  1  0.57993800  0.78830500  0.25008800  1
  O  O14  1  0.21015600  0.42142100  0.25009200  1
  O  O15  1  0.78947900  0.21137600  0.75005300  1
  O  O16  1  0.41893600  0.21553600  0.75006300  1
  O  O17  1  0.58106800  0.78433100  0.74995800  1
loop_
_geom_bond_atom_site_label_1
_geom_bond_atom_site_label_2
_geom_bond_distance
_geom_bond_site_symmetry_2
O0 W5 1.895726 1_565
O0 W2 1.994190 1_565
O1 W1 1.930930 1_555
O1 W4 1.959203 1_554
O2 W0 1.942491 1_455
O2 W3 1.947626 1_554
O3 W0 1.942172 1_555
O3 W3 1.947820 1_655
O4 W1 1.930479 1_555
O4 W4 1.959498 1_555
O5 W5 1.895975 1_565
O5 W2 1.994221 1_564
O6 W3 1.943992 1_655
O6 W4 1.959599 1_555
O6 Rb0 3.358043 1_555
O6 Rb1 3.371270 1_556
O7 W0 1.946966 1_455
O7 W5 1.956808 1_565
O7 Rb1 3.366646 1_455
O7 Rb0 3.379445 1_455
O8 W1 1.946611 1_555
O8 W5 1.969304 1_555
O8 Rb1 3.355718 1_445
O8 Rb0 3.369495 1_445
O9 W3 1.945042 1_555
O9 W4 1.958554 1_555
O9 Rb0 3.358084 1_445
O9 Rb1 3.371913 1_446
O10 W3 1.948291 1_555
O10 W2 1.952166 1_565
O10 Rb0 3.361399 1_455
O10 Rb1 3.375522 1_456
O11 W0 1.945733 1_555
O11 W5 1.957886 1_555
O11 Rb1 3.366634 1_545
O11 Rb0 3.380433 1_545
O12 W0 1.949353 1_555
O12 W1 1.953773 1_555
O12 Rb1 3.367555 1_555
O12 Rb0 3.381293 1_555
O13 W1 1.944322 1_555
O13 W5 1.972017 1_565
O13 Rb1 3.355783 1_555
O13 Rb0 3.368834 1_555
O14 W0 1.948504 1_455
O14 W1 1.954711 1_555
O14 Rb1 3.369197 1_445
O14 Rb0 3.382116 1_445
O15 W3 1.949424 1_655
O15 W2 1.950891 1_555
O15 Rb0 3.362616 1_545
O15 Rb1 3.375776 1_546
O16 W4 1.914992 1_555
O16 W2 2.005253 1_555
O16 Rb0 3.340731 1_445
O16 Rb1 3.353828 1_446
O17 W4 1.915551 1_555
O17 W2 2.004480 1_565
O17 Rb0 3.339879 1_555
O17 Rb1 3.354072 1_556
