# generated using pymatgen
data_BaMgTl2
_symmetry_space_group_name_H-M   'P 1'
_cell_length_a   11.72789040
_cell_length_b   13.70967233
_cell_length_c   13.70967239
_cell_angle_alpha   63.01888206
_cell_angle_beta   64.67684318
_cell_angle_gamma   64.67684550
_symmetry_Int_Tables_number   1
_chemical_formula_structural   BaMgTl2
_chemical_formula_sum   'Ba1 Mg1 Tl2'
_cell_volume   1699.28390618
_cell_formula_units_Z   1
loop_
 _symmetry_equiv_pos_site_id
 _symmetry_equiv_pos_as_xyz
  1  'x, y, z'
loop_
 _atom_site_type_symbol
 _atom_site_label
 _atom_site_symmetry_multiplicity
 _atom_site_fract_x
 _atom_site_fract_y
 _atom_site_fract_z
 _atom_site_occupancy
  Ba  Ba0  1  0.50000000  0.00000000  0.00000000  1
  Mg  Mg0  1  -0.00000000  0.00000000  0.00000000  1
  Tl  Tl0  1  0.76646001  0.00000000  1.00000000  1
  Tl  Tl1  1  0.23353999  1.00000000  0.00000000  1
loop_
_geom_bond_atom_site_label_1
_geom_bond_atom_site_label_2
_geom_bond_distance
_geom_bond_site_symmetry_2
Ba0 Tl1 3.125014 1_545
Ba0 Tl0 3.125014 1_554
Mg0 Tl1 2.738931 1_545
Mg0 Tl0 2.738931 1_454
