# generated using pymatgen
data_Nb4FeS8
_symmetry_space_group_name_H-M   'P 1'
_cell_length_a   6.72989065
_cell_length_b   6.72988902
_cell_length_c   12.11525435
_cell_angle_alpha   89.99995970
_cell_angle_beta   90.00014467
_cell_angle_gamma   119.99988827
_symmetry_Int_Tables_number   1
_chemical_formula_structural   Nb4FeS8
_chemical_formula_sum   'Nb8 Fe2 S16'
_cell_volume   475.20343030
_cell_formula_units_Z   2
loop_
 _symmetry_equiv_pos_site_id
 _symmetry_equiv_pos_as_xyz
  1  'x, y, z'
loop_
 _atom_site_type_symbol
 _atom_site_label
 _atom_site_symmetry_multiplicity
 _atom_site_fract_x
 _atom_site_fract_y
 _atom_site_fract_z
 _atom_site_occupancy
  Nb  Nb0  1  0.00011087  0.00005891  0.24997734  1
  Nb  Nb1  1  -0.00011081  -0.00005836  0.75002240  1
  Nb  Nb2  1  0.49297039  0.98601194  0.75002025  1
  Nb  Nb3  1  0.01390287  0.50694775  0.75002139  1
  Nb  Nb4  1  0.49297262  0.50695486  0.75001858  1
  Nb  Nb5  1  0.50702779  0.01398653  0.24997923  1
  Nb  Nb6  1  0.98609822  0.49305112  0.24997850  1
  Nb  Nb7  1  0.50702884  0.49304666  0.24998005  1
  Fe  Fe0  1  0.00000059  0.00000079  0.49999634  1
  Fe  Fe1  1  0.00000001  -0.00000000  0.00000331  1
  S  S0  1  0.33330445  0.66664959  0.88227637  1
  S  S1  1  0.66669670  0.33334972  0.11772325  1
  S  S2  1  0.66669655  0.33334835  0.38222553  1
  S  S3  1  0.33330321  0.66665073  0.61777515  1
  S  S4  1  0.83208106  0.66424149  0.87852723  1
  S  S5  1  0.33563879  0.16781759  0.87850480  1
  S  S6  1  0.83208198  0.16783426  0.87852767  1
  S  S7  1  0.16791634  0.33576023  0.12147515  1
  S  S8  1  0.66436023  0.83218173  0.12149722  1
  S  S9  1  0.16791557  0.83216334  0.12147487  1
  S  S10  1  0.16792070  0.33575863  0.37847798  1
  S  S11  1  0.66436586  0.83218468  0.37845396  1
  S  S12  1  0.16791707  0.83216825  0.37847743  1
  S  S13  1  0.83208409  0.66424574  0.62151881  1
  S  S14  1  0.33563411  0.16781449  0.62154428  1
  S  S15  1  0.83208291  0.16783201  0.62152090  1
loop_
_geom_bond_atom_site_label_1
_geom_bond_atom_site_label_2
_geom_bond_distance
_geom_bond_site_symmetry_2
Nb0 S12 2.500329 1_545
Nb0 S10 2.500350 1_555
Nb0 S9 2.500367 1_545
Nb0 S7 2.500370 1_555
Nb0 S11 2.500379 1_445
Nb0 S8 2.500425 1_445
Nb1 S15 2.500338 1_455
Nb1 S13 2.500355 1_445
Nb1 S4 2.500385 1_445
Nb1 S6 2.500386 1_455
Nb1 S14 2.500390 1_555
Nb1 S5 2.500438 1_555
Nb2 S3 2.455911 1_555
Nb2 S0 2.456005 1_555
Nb2 S14 2.517223 1_565
Nb2 S5 2.517286 1_565
Nb2 S15 2.517293 1_565
Nb2 S6 2.517344 1_565
Nb3 S3 2.456097 1_555
Nb3 S0 2.456166 1_555
Nb3 S15 2.517312 1_455
Nb3 S13 2.517328 1_455
Nb3 S6 2.517347 1_455
Nb3 S4 2.517352 1_455
Nb4 S3 2.455913 1_555
Nb4 S0 2.456020 1_555
Nb4 S14 2.517221 1_555
Nb4 S13 2.517291 1_555
Nb4 S5 2.517298 1_555
Nb4 S4 2.517338 1_555
Nb5 S2 2.455924 1_555
Nb5 S1 2.456008 1_555
Nb5 S11 2.517219 1_545
Nb5 S8 2.517266 1_545
Nb5 S12 2.517276 1_545
Nb5 S9 2.517324 1_545
Nb6 S2 2.456110 1_555
Nb6 S1 2.456168 1_555
Nb6 S10 2.517297 1_655
Nb6 S7 2.517303 1_655
Nb6 S12 2.517306 1_655
Nb6 S9 2.517321 1_655
Nb7 S2 2.455932 1_555
Nb7 S1 2.456021 1_555
Nb7 S11 2.517208 1_555
Nb7 S10 2.517263 1_555
Nb7 S8 2.517263 1_555
Nb7 S7 2.517329 1_555
Fe0 S11 2.448445 1_445
Fe0 S14 2.448480 1_555
Fe0 S12 2.448808 1_545
Fe0 S10 2.448847 1_555
Fe0 S15 2.448849 1_455
Fe0 S13 2.448864 1_445
Fe1 S8 2.448121 1_445
Fe1 S5 2.448150 1_554
Fe1 S9 2.448474 1_545
Fe1 S6 2.448504 1_454
Fe1 S7 2.448517 1_555
Fe1 S4 2.448540 1_444
