# generated using pymatgen
data_Pr2P2AuO
_symmetry_space_group_name_H-M   'P 1'
_cell_length_a   4.27185800
_cell_length_b   7.96373088
_cell_length_c   7.97880388
_cell_angle_alpha   78.07269384
_cell_angle_beta   74.47252696
_cell_angle_gamma   74.44239456
_symmetry_Int_Tables_number   1
_chemical_formula_structural   Pr2P2AuO
_chemical_formula_sum   'Pr4 P4 Au2 O2'
_cell_volume   249.27532577
_cell_formula_units_Z   2
loop_
 _symmetry_equiv_pos_site_id
 _symmetry_equiv_pos_as_xyz
  1  'x, y, z'
loop_
 _atom_site_type_symbol
 _atom_site_label
 _atom_site_symmetry_multiplicity
 _atom_site_fract_x
 _atom_site_fract_y
 _atom_site_fract_z
 _atom_site_occupancy
  Pr  Pr0  1  0.13241200  0.68812100  0.04705500  1
  Pr  Pr1  1  0.86758800  0.31187900  0.95294500  1
  Pr  Pr2  1  0.17208700  0.26995900  0.38586700  1
  Pr  Pr3  1  0.82791300  0.73004100  0.61413300  1
  P  P0  1  0.54844400  0.54653700  0.35657400  1
  P  P1  1  0.45155600  0.45346300  0.64342600  1
  P  P2  1  0.14763900  0.97213400  0.73258900  1
  P  P3  1  0.85236100  0.02786600  0.26741100  1
  Au  Au0  1  0.41160900  0.87460100  0.30218100  1
  Au  Au1  1  0.58839100  0.12539900  0.69781900  1
  O  O0  1  0.27833500  0.36993000  0.07339900  1
  O  O1  1  0.72166500  0.63007000  0.92660100  1
loop_
_geom_bond_atom_site_label_1
_geom_bond_atom_site_label_2
_geom_bond_distance
_geom_bond_site_symmetry_2
P0 P1 2.217023 1_555
P0 Pr2 2.996074 1_555
P0 Pr2 2.996077 1_655
P0 Pr0 3.263858 1_555
P0 Pr0 3.263861 1_655
P0 Pr3 3.357781 1_455
P0 Pr3 3.357784 1_555
P1 Pr3 2.996074 1_555
P1 Pr3 2.996077 1_455
P1 Pr1 3.263858 1_555
P1 Pr1 3.263861 1_455
P1 Pr2 3.357781 1_655
P1 Pr2 3.357784 1_555
P2 Pr0 3.010184 1_556
P2 Pr3 3.054936 1_555
P2 Pr3 3.054939 1_455
P2 Pr2 3.248929 1_565
P2 Pr1 3.308580 1_465
P3 Pr1 3.010184 1_554
P3 Pr2 3.054936 1_555
P3 Pr2 3.054939 1_655
P3 Pr3 3.248929 1_545
P3 Pr0 3.308580 1_645
Au0 P3 2.434111 1_565
Au0 P3 2.434115 1_465
Au0 P0 2.490731 1_555
Au0 Pr2 3.190780 1_565
Au0 Pr3 3.281836 1_555
Au0 Pr3 3.281836 1_455
Au0 Pr0 3.357254 1_555
Au0 Pr0 3.357254 1_655
Au1 P2 2.434111 1_545
Au1 P2 2.434115 1_645
Au1 P1 2.490731 1_555
Au1 Pr3 3.190780 1_545
Au1 Pr2 3.281836 1_655
Au1 Pr2 3.281836 1_555
Au1 Pr1 3.357254 1_555
Au1 Pr1 3.357254 1_455
O0 Pr1 2.395383 1_454
O0 Pr1 2.395387 1_554
O0 Pr2 2.413101 1_555
O0 Pr0 2.420028 1_555
O1 Pr0 2.395383 1_656
O1 Pr0 2.395387 1_556
O1 Pr3 2.413101 1_555
O1 Pr1 2.420028 1_555
