# generated using pymatgen
data_Dy7C2I12O
_symmetry_space_group_name_H-M   'P 1'
_cell_length_a   9.93647200
_cell_length_b   10.59896274
_cell_length_c   16.99444829
_cell_angle_alpha   101.58465384
_cell_angle_beta   92.90014481
_cell_angle_gamma   112.96753015
_symmetry_Int_Tables_number   1
_chemical_formula_structural   Dy7C2I12O
_chemical_formula_sum   'Dy14 C4 I24 O2'
_cell_volume   1597.75486245
_cell_formula_units_Z   2
loop_
 _symmetry_equiv_pos_site_id
 _symmetry_equiv_pos_as_xyz
  1  'x, y, z'
loop_
 _atom_site_type_symbol
 _atom_site_label
 _atom_site_symmetry_multiplicity
 _atom_site_fract_x
 _atom_site_fract_y
 _atom_site_fract_z
 _atom_site_occupancy
  Dy  Dy0  1  0.66419800  0.54811100  0.88647900  1
  Dy  Dy1  1  0.33580200  0.45188900  0.11352100  1
  Dy  Dy2  1  0.93445900  0.57142500  0.73736100  1
  Dy  Dy3  1  0.06554100  0.42857500  0.26263900  1
  Dy  Dy4  1  0.86838700  0.88303500  0.85719200  1
  Dy  Dy5  1  0.13161300  0.11696500  0.14280800  1
  Dy  Dy6  1  0.45492900  0.74681300  0.81024400  1
  Dy  Dy7  1  0.54507100  0.25318700  0.18975600  1
  Dy  Dy8  1  0.72163200  0.75906000  0.65703100  1
  Dy  Dy9  1  0.27836800  0.24094000  0.34296900  1
  Dy  Dy10  1  0.52471300  0.44035800  0.68580800  1
  Dy  Dy11  1  0.47528700  0.55964200  0.31419200  1
  Dy  Dy12  1  0.35756100  0.54899800  0.51991300  1
  Dy  Dy13  1  0.64243900  0.45100200  0.48008700  1
  C  C0  1  0.63583900  0.67904900  0.78170100  1
  C  C1  1  0.36416100  0.32095100  0.21829900  1
  C  C2  1  0.75388200  0.63843100  0.76401800  1
  C  C3  1  0.24611800  0.36156900  0.23598200  1
  I  I0  1  0.66113800  0.02616400  0.91040700  1
  I  I1  1  0.33886200  0.97383600  0.08959300  1
  I  I2  1  0.94889200  0.05473700  0.72899900  1
  I  I3  1  0.05110800  0.94526300  0.27100100  1
  I  I4  1  0.43908900  0.25238700  0.80114400  1
  I  I5  1  0.56091100  0.74761300  0.19885600  1
  I  I6  1  0.90444000  0.42994800  0.87338300  1
  I  I7  1  0.09556000  0.57005200  0.12661700  1
  I  I8  1  0.45608000  0.84921000  0.64770500  1
  I  I9  1  0.54392000  0.15079000  0.35229500  1
  I  I10  1  0.21591900  0.47022500  0.68394000  1
  I  I11  1  0.78408100  0.52977500  0.31606000  1
  I  I12  1  0.72595500  0.29631600  0.60788000  1
  I  I13  1  0.27404500  0.70368400  0.39212000  1
  I  I14  1  0.17485800  0.84614000  0.83450800  1
  I  I15  1  0.82514200  0.15386000  0.16549200  1
  I  I16  1  0.60616900  0.39807400  0.05043700  1
  I  I17  1  0.39383100  0.60192600  0.94956300  1
  I  I18  1  0.69202300  0.80296900  0.47146400  1
  I  I19  1  0.30797700  0.19703100  0.52853600  1
  I  I20  1  0.87591400  0.80223100  0.01882000  1
  I  I21  1  0.12408600  0.19776900  0.98118000  1
  I  I22  1  0.96305300  0.67554200  0.57381700  1
  I  I23  1  0.03694700  0.32445800  0.42618300  1
  O  O0  1  0.55717400  0.54689100  0.58126800  1
  O  O1  1  0.44282600  0.45310900  0.41873200  1
loop_
_geom_bond_atom_site_label_1
_geom_bond_atom_site_label_2
_geom_bond_distance
_geom_bond_site_symmetry_2
Dy0 I4 3.050459 1_555
Dy0 I20 3.066699 1_556
Dy0 I6 3.097030 1_555
Dy0 I17 3.151769 1_555
Dy0 I16 3.442648 1_556
Dy1 I5 3.050459 1_555
Dy1 I21 3.066699 1_554
Dy1 I7 3.097030 1_555
Dy1 I16 3.151769 1_555
Dy1 I17 3.442648 1_554
Dy2 I6 2.965462 1_555
Dy2 I14 3.025208 1_655
Dy2 I12 3.143849 1_555
Dy2 I22 3.176523 1_555
Dy2 I10 3.464575 1_655
Dy3 I7 2.965462 1_555
Dy3 I15 3.025208 1_455
Dy3 I13 3.143849 1_555
Dy3 I23 3.176523 1_555
Dy3 I11 3.464575 1_455
Dy4 I20 3.042678 1_556
Dy4 I2 3.054594 1_565
Dy4 I0 3.071730 1_565
Dy4 I14 3.250018 1_655
Dy4 I21 3.470436 1_665
Dy5 I21 3.042678 1_554
Dy5 I3 3.054594 1_545
Dy5 I1 3.071730 1_545
Dy5 I15 3.250018 1_455
Dy5 I20 3.470436 1_445
Dy6 I0 2.958157 1_565
Dy6 I17 3.034916 1_555
Dy6 I8 3.163171 1_555
Dy6 I10 3.219473 1_555
Dy6 I14 3.354278 1_555
Dy7 I1 2.958157 1_545
Dy7 I16 3.034916 1_555
Dy7 I9 3.163171 1_555
Dy7 I11 3.219473 1_555
Dy7 I15 3.354278 1_555
Dy8 O0 2.267483 1_555
Dy8 I2 3.012401 1_565
Dy8 I8 3.144309 1_555
Dy8 I22 3.167932 1_555
Dy8 I18 3.294058 1_555
Dy9 O1 2.267483 1_555
Dy9 I3 3.012401 1_545
Dy9 I9 3.144309 1_555
Dy9 I23 3.167932 1_555
Dy9 I19 3.294058 1_555
Dy10 O0 2.261579 1_555
Dy10 I4 2.991535 1_555
Dy10 I12 3.149864 1_555
Dy10 I10 3.204376 1_555
Dy10 I19 3.278320 1_555
Dy11 O1 2.261579 1_555
Dy11 I5 2.991535 1_555
Dy11 I13 3.149864 1_555
Dy11 I11 3.204376 1_555
Dy11 I18 3.278320 1_555
Dy12 O1 2.196583 1_555
Dy12 O0 2.203730 1_555
Dy12 I8 3.221500 1_555
Dy12 I23 3.224485 1_555
Dy12 I13 3.225328 1_555
Dy12 I10 3.295911 1_555
Dy12 I19 3.601835 1_555
Dy12 I18 3.626863 1_555
Dy13 O0 2.196583 1_555
Dy13 O1 2.203730 1_555
Dy13 I9 3.221500 1_555
Dy13 I22 3.224485 1_555
Dy13 I12 3.225328 1_555
Dy13 I11 3.295911 1_555
Dy13 I18 3.601835 1_555
Dy13 I19 3.626863 1_555
C0 C2 1.424499 1_555
C0 Dy6 2.222260 1_555
C0 Dy10 2.501452 1_555
C0 Dy8 2.504987 1_555
C0 Dy4 2.519294 1_555
C0 Dy0 2.534371 1_555
C1 C3 1.424499 1_555
C1 Dy7 2.222260 1_555
C1 Dy11 2.501452 1_555
C1 Dy9 2.504987 1_555
C1 Dy5 2.519294 1_555
C1 Dy1 2.534371 1_555
C2 Dy2 2.208310 1_555
C2 Dy10 2.490281 1_555
C2 Dy8 2.497516 1_555
C2 Dy0 2.522665 1_555
C2 Dy4 2.527852 1_555
C3 Dy3 2.208310 1_555
C3 Dy11 2.490281 1_555
C3 Dy9 2.497516 1_555
C3 Dy1 2.522665 1_555
C3 Dy5 2.527852 1_555
