# generated using pymatgen
data_Li2CrFe3O8
_symmetry_space_group_name_H-M   'P 1'
_cell_length_a   8.45243116
_cell_length_b   8.42521705
_cell_length_c   8.42732847
_cell_angle_alpha   89.70906414
_cell_angle_beta   90.07012411
_cell_angle_gamma   90.10614999
_symmetry_Int_Tables_number   1
_chemical_formula_structural   Li2CrFe3O8
_chemical_formula_sum   'Li8 Cr4 Fe12 O32'
_cell_volume   600.13091233
_cell_formula_units_Z   4
loop_
 _symmetry_equiv_pos_site_id
 _symmetry_equiv_pos_as_xyz
  1  'x, y, z'
loop_
 _atom_site_type_symbol
 _atom_site_label
 _atom_site_symmetry_multiplicity
 _atom_site_fract_x
 _atom_site_fract_y
 _atom_site_fract_z
 _atom_site_occupancy
  Li  Li0  1  0.00168100  0.99740600  0.99999200  1
  Li  Li1  1  0.24841400  0.25036000  0.25129100  1
  Li  Li2  1  0.24833700  0.75154400  0.75044700  1
  Li  Li3  1  0.50056300  0.99825900  0.49919300  1
  Li  Li4  1  0.50142700  0.50019600  0.99982300  1
  Li  Li5  1  0.74884700  0.25087200  0.75049100  1
  Li  Li6  1  0.74796400  0.74989200  0.25211800  1
  Li  Li7  1  0.00125700  0.50088100  0.49858600  1
  Cr  Cr0  1  0.12463500  0.87250300  0.37594200  1
  Cr  Cr1  1  0.37384200  0.12557000  0.87585600  1
  Cr  Cr2  1  0.62427500  0.62766500  0.62355600  1
  Cr  Cr3  1  0.87596100  0.37538900  0.12535700  1
  Fe  Fe0  1  0.12673600  0.12091600  0.62015700  1
  Fe  Fe1  1  0.12649400  0.37633400  0.87519500  1
  Fe  Fe2  1  0.12541000  0.62896900  0.12817000  1
  Fe  Fe3  1  0.37571800  0.37661100  0.62784200  1
  Fe  Fe4  1  0.37382000  0.62616700  0.37613200  1
  Fe  Fe5  1  0.37277000  0.87404600  0.12367000  1
  Fe  Fe6  1  0.62736000  0.37730900  0.37726800  1
  Fe  Fe7  1  0.62519000  0.12308000  0.12626800  1
  Fe  Fe8  1  0.62106800  0.87311500  0.87152700  1
  Fe  Fe9  1  0.87788700  0.12389900  0.37345800  1
  Fe  Fe10  1  0.87630100  0.87404800  0.62297200  1
  Fe  Fe11  1  0.87386800  0.62489300  0.87550200  1
  O  O0  1  0.11675300  0.11092300  0.38492100  1
  O  O1  1  0.11331000  0.88464300  0.61460600  1
  O  O2  1  0.11546900  0.61191500  0.89294100  1
  O  O3  1  0.15624700  0.13041800  0.87113000  1
  O  O4  1  0.09409400  0.38008300  0.12084200  1
  O  O5  1  0.13549400  0.36030200  0.64056700  1
  O  O6  1  0.13596900  0.63346900  0.36157400  1
  O  O7  1  0.13464300  0.86359500  0.13677900  1
  O  O8  1  0.36883400  0.13545700  0.64695600  1
  O  O9  1  0.36734300  0.35394800  0.87026100  1
  O  O10  1  0.36552100  0.63169000  0.13916600  1
  O  O11  1  0.38781200  0.61623600  0.61212400  1
  O  O12  1  0.36418200  0.85486500  0.36501600  1
  O  O13  1  0.38745900  0.39560200  0.38308200  1
  O  O14  1  0.38343300  0.11813100  0.10363700  1
  O  O15  1  0.38186200  0.89721400  0.88268000  1
  O  O16  1  0.61713800  0.39789500  0.61783700  1
  O  O17  1  0.61468400  0.61821300  0.39485500  1
  O  O18  1  0.61369700  0.88732200  0.10890000  1
  O  O19  1  0.65664400  0.37022800  0.12918600  1
  O  O20  1  0.59450100  0.12045500  0.87982100  1
  O  O21  1  0.63504800  0.14144500  0.36188500  1
  O  O22  1  0.63399300  0.85461200  0.63093600  1
  O  O23  1  0.63276000  0.63228500  0.85319800  1
  O  O24  1  0.86775800  0.36647600  0.35234000  1
  O  O25  1  0.86664100  0.14666700  0.13067500  1
  O  O26  1  0.86110300  0.86736500  0.85533700  1
  O  O27  1  0.88475700  0.88399600  0.39215900  1
  O  O28  1  0.86152600  0.64000800  0.63454000  1
  O  O29  1  0.88547100  0.10791000  0.61710700  1
  O  O30  1  0.88439000  0.38273600  0.89771300  1
  O  O31  1  0.88163500  0.60411200  0.11655900  1
loop_
_geom_bond_atom_site_label_1
_geom_bond_atom_site_label_2
_geom_bond_distance
_geom_bond_site_symmetry_2
Li0 O7 1.962447 1_556
Li0 O26 2.025725 1_455
Li0 O25 2.029685 1_466
Li0 O3 2.031675 1_565
Li1 O0 1.967628 1_555
Li1 O4 2.023374 1_555
Li1 O14 2.028342 1_555
Li1 O13 2.029162 1_555
Li2 O1 1.964462 1_555
Li2 O15 2.006871 1_555
Li2 O11 2.017447 1_555
Li2 O2 2.017739 1_555
Li3 O22 1.989386 1_555
Li3 O21 2.017527 1_565
Li3 O12 2.018051 1_555
Li3 O8 2.036985 1_565
Li4 O10 1.986742 1_556
Li4 O23 1.995607 1_555
Li4 O9 2.000079 1_555
Li4 O19 2.024472 1_556
Li5 O16 2.002866 1_555
Li5 O29 2.017418 1_555
Li5 O20 2.020699 1_555
Li5 O30 2.022856 1_555
Li6 O17 1.982926 1_555
Li6 O27 2.002902 1_555
Li6 O18 2.018088 1_555
Li6 O31 2.027985 1_555
Li7 O6 1.965450 1_555
Li7 O24 2.020044 1_455
Li7 O28 2.025756 1_455
Li7 O5 2.027099 1_555
Cr0 O0 2.011779 1_565
Cr0 O1 2.016817 1_555
Cr0 O7 2.019165 1_555
Cr0 O6 2.020620 1_555
Cr0 O12 2.032708 1_555
Cr0 O27 2.034837 1_455
Cr1 O3 1.840114 1_555
Cr1 O20 1.865937 1_555
Cr1 O14 1.921906 1_556
Cr1 O9 1.925356 1_555
Cr1 O15 1.925833 1_545
Cr1 O8 1.930806 1_555
Cr2 O22 1.915012 1_555
Cr2 O17 1.930984 1_555
Cr2 O23 1.937095 1_555
Cr2 O16 1.937532 1_555
Cr2 O11 2.003051 1_555
Cr2 O28 2.009894 1_555
Cr3 O4 1.844540 1_655
Cr3 O19 1.854508 1_555
Cr3 O24 1.915288 1_555
Cr3 O30 1.920520 1_554
Cr3 O31 1.928600 1_555
Cr3 O25 1.928792 1_555
Fe0 O0 1.986308 1_555
Fe0 O1 1.994456 1_545
Fe0 O5 2.026278 1_555
Fe0 O29 2.042152 1_455
Fe0 O8 2.061952 1_555
Fe0 O3 2.131277 1_555
Fe1 O5 1.984141 1_555
Fe1 O2 1.993564 1_555
Fe1 O9 2.045319 1_555
Fe1 O30 2.056211 1_455
Fe1 O3 2.088024 1_555
Fe1 O4 2.088921 1_556
Fe2 O6 1.969441 1_555
Fe2 O7 1.979865 1_555
Fe2 O2 1.989941 1_554
Fe2 O10 2.031615 1_555
Fe2 O31 2.072963 1_455
Fe2 O4 2.114276 1_555
Fe3 O11 2.024963 1_555
Fe3 O5 2.037785 1_555
Fe3 O8 2.038063 1_555
Fe3 O16 2.049919 1_555
Fe3 O9 2.052178 1_555
Fe3 O13 2.070546 1_555
Fe4 O12 1.930497 1_555
Fe4 O13 1.946771 1_555
Fe4 O11 1.993493 1_555
Fe4 O10 1.998445 1_555
Fe4 O6 2.015043 1_555
Fe4 O17 2.042996 1_555
Fe5 O7 2.017651 1_555
Fe5 O15 2.040801 1_554
Fe5 O12 2.040863 1_555
Fe5 O18 2.043194 1_555
Fe5 O10 2.046221 1_555
Fe5 O14 2.064344 1_565
Fe6 O21 1.993271 1_555
Fe6 O13 2.034549 1_555
Fe6 O16 2.037588 1_555
Fe6 O17 2.038848 1_555
Fe6 O24 2.045287 1_555
Fe6 O19 2.106729 1_555
Fe7 O21 1.994053 1_555
Fe7 O18 1.994618 1_545
Fe7 O25 2.050443 1_555
Fe7 O14 2.052449 1_555
Fe7 O20 2.092934 1_554
Fe7 O19 2.098955 1_555
Fe8 O18 2.005656 1_556
Fe8 O26 2.034311 1_555
Fe8 O15 2.034750 1_555
Fe8 O22 2.037393 1_555
Fe8 O23 2.038287 1_555
Fe8 O20 2.097897 1_565
Fe9 O0 2.024320 1_655
Fe9 O27 2.027505 1_545
Fe9 O24 2.052533 1_555
Fe9 O25 2.056114 1_555
Fe9 O29 2.057970 1_555
Fe9 O21 2.060325 1_555
Fe10 O27 1.947910 1_555
Fe10 O26 1.963098 1_555
Fe10 O29 1.972090 1_565
Fe10 O28 1.977476 1_555
Fe10 O1 2.006434 1_655
Fe10 O22 2.055476 1_555
Fe11 O28 2.036568 1_555
Fe11 O31 2.039099 1_556
Fe11 O23 2.047403 1_555
Fe11 O30 2.049931 1_555
Fe11 O2 2.050298 1_655
Fe11 O26 2.052102 1_555
