# generated using pymatgen
data_Li9Mn2Co5O16
_symmetry_space_group_name_H-M   'P 1'
_cell_length_a   5.90715100
_cell_length_b   5.90954648
_cell_length_c   8.63124416
_cell_angle_alpha   88.17279355
_cell_angle_beta   70.58488098
_cell_angle_gamma   87.13558209
_symmetry_Int_Tables_number   1
_chemical_formula_structural   Li9Mn2Co5O16
_chemical_formula_sum   'Li9 Mn2 Co5 O16'
_cell_volume   283.77845676
_cell_formula_units_Z   1
loop_
 _symmetry_equiv_pos_site_id
 _symmetry_equiv_pos_as_xyz
  1  'x, y, z'
loop_
 _atom_site_type_symbol
 _atom_site_label
 _atom_site_symmetry_multiplicity
 _atom_site_fract_x
 _atom_site_fract_y
 _atom_site_fract_z
 _atom_site_occupancy
  Li  Li0  1  0.12522200  0.25457600  0.25874500  1
  Li  Li1  1  0.24711300  0.00166400  0.50294300  1
  Li  Li2  1  0.61273300  0.25747200  0.26313200  1
  Li  Li3  1  0.74882400  0.00044700  0.50367500  1
  Li  Li4  1  0.88706500  0.74191100  0.73772400  1
  Li  Li5  1  0.37432600  0.74070000  0.74218800  1
  Li  Li6  1  0.50200000  0.50149700  0.99527600  1
  Li  Li7  1  0.00292600  0.49748900  0.99685700  1
  Li  Li8  1  0.25006700  0.50028400  0.50408700  1
  Mn  Mn0  1  0.99786500  0.99796700  0.99697400  1
  Mn  Mn1  1  0.62061000  0.74642100  0.25255800  1
  Co  Co0  1  0.12160500  0.74509300  0.25335700  1
  Co  Co1  1  0.37203300  0.25374200  0.74747800  1
  Co  Co2  1  0.49863500  0.00109300  0.99889100  1
  Co  Co3  1  0.75175000  0.49208600  0.50381500  1
  Co  Co4  1  0.88228400  0.25897400  0.74833700  1
  O  O0  1  0.87104300  0.97463900  0.23745200  1
  O  O1  1  0.00505800  0.74343000  0.47926600  1
  O  O2  1  0.39956300  0.99555800  0.23434000  1
  O  O3  1  0.52048700  0.74373800  0.48227700  1
  O  O4  1  0.64275300  0.49545200  0.75114000  1
  O  O5  1  0.14242300  0.48175800  0.75146300  1
  O  O6  1  0.23784100  0.21593900  0.99530600  1
  O  O7  1  0.76937600  0.23832300  0.98660800  1
  O  O8  1  0.38903700  0.53560300  0.24257300  1
  O  O9  1  0.50303000  0.25729100  0.51744000  1
  O  O10  1  0.85555200  0.50852400  0.25015900  1
  O  O11  1  0.98447000  0.25764400  0.51302600  1
  O  O12  1  0.10082400  0.00197100  0.76241100  1
  O  O13  1  0.59960800  0.01727100  0.76862900  1
  O  O14  1  0.75492700  0.77865300  0.00712900  1
  O  O15  1  0.22894500  0.76279300  0.01474200  1
loop_
_geom_bond_atom_site_label_1
_geom_bond_atom_site_label_2
_geom_bond_distance
_geom_bond_site_symmetry_2
Li0 O11 2.072790 1_455
Li0 O2 2.135252 1_545
Li0 O10 2.151208 1_455
Li0 O6 2.162677 1_554
Li0 O8 2.303348 1_555
Li0 O0 2.340087 1_445
Li1 O11 2.094526 1_455
Li1 O12 2.115595 1_555
Li1 O3 2.131359 1_545
Li1 O2 2.191172 1_545
Li1 O1 2.201659 1_545
Li1 O9 2.224658 1_555
Li2 O9 2.071765 1_555
Li2 O10 2.089580 1_555
Li2 O8 2.097459 1_555
Li2 O2 2.114342 1_545
Li2 O0 2.171389 1_545
Li2 O7 2.259221 1_554
Li3 O9 2.025493 1_555
Li3 O1 2.054498 1_645
Li3 O3 2.131388 1_545
Li3 O11 2.132672 1_555
Li3 O13 2.163859 1_555
Li3 O0 2.175541 1_545
Li4 O4 2.075018 1_555
Li4 O12 2.096523 1_665
Li4 O1 2.104295 1_655
Li4 O5 2.128032 1_655
Li4 O14 2.207267 1_556
Li4 O13 2.247859 1_565
Li5 O5 2.086478 1_555
Li5 O4 2.113133 1_555
Li5 O3 2.118893 1_555
Li5 O12 2.145925 1_565
Li5 O13 2.222031 1_565
Li5 O15 2.225754 1_556
Li6 O4 1.992464 1_555
Li6 O8 2.027063 1_556
Li6 O15 2.145167 1_556
Li6 O7 2.145302 1_555
Li6 O14 2.298309 1_556
Li6 O6 2.354896 1_555
Li7 O5 2.004592 1_555
Li7 O10 2.068850 1_456
Li7 O6 2.110090 1_555
Li7 O7 2.134895 1_455
Li7 O14 2.143481 1_456
Li7 O15 2.150847 1_556
Li8 O5 2.016103 1_555
Li8 O1 2.045454 1_555
Li8 O9 2.048830 1_555
Li8 O8 2.137188 1_555
Li8 O11 2.158895 1_455
Li8 O3 2.160910 1_555
Mn0 O12 1.910266 1_665
Mn0 O7 1.930761 1_565
Mn0 O15 1.937590 1_656
Mn0 O6 1.958754 1_665
Mn0 O14 1.960069 1_556
Mn0 O0 1.961315 1_556
Mn1 O3 1.871016 1_555
Mn1 O8 1.919986 1_555
Mn1 O10 1.921125 1_555
Mn1 O2 1.956261 1_555
Mn1 O14 2.006294 1_555
Mn1 O0 2.020970 1_555
Co0 O1 1.839315 1_555
Co0 O8 1.936764 1_555
Co0 O15 1.944071 1_555
Co0 O0 1.993046 1_455
Co0 O10 2.162424 1_455
Co0 O2 2.227540 1_555
Co1 O5 1.856286 1_555
Co1 O9 1.875905 1_555
Co1 O13 1.937133 1_555
Co1 O6 2.028252 1_555
Co1 O4 2.205332 1_555
Co1 O12 2.210357 1_555
Co2 O13 1.876256 1_555
Co2 O2 1.918454 1_546
Co2 O6 1.954467 1_555
Co2 O14 1.972760 1_546
Co2 O15 2.146363 1_546
Co2 O7 2.153206 1_555
Co3 O11 1.921170 1_555
Co3 O4 2.014857 1_555
Co3 O3 2.015086 1_555
Co3 O9 2.043569 1_555
Co3 O10 2.068487 1_555
Co3 O1 2.116926 1_655
Co4 O11 1.917024 1_555
Co4 O4 1.933228 1_555
Co4 O7 1.941509 1_555
Co4 O12 1.970914 1_655
Co4 O5 2.080254 1_655
Co4 O13 2.210686 1_555
