# generated using pymatgen
data_Te10Rh7
_symmetry_space_group_name_H-M   'P 1'
_cell_length_a   8.83650638
_cell_length_b   8.97194536
_cell_length_c   10.51015874
_cell_angle_alpha   76.19038081
_cell_angle_beta   74.37477262
_cell_angle_gamma   79.02773417
_symmetry_Int_Tables_number   1
_chemical_formula_structural   Te10Rh7
_chemical_formula_sum   'Te20 Rh14'
_cell_volume   772.15312855
_cell_formula_units_Z   2
loop_
 _symmetry_equiv_pos_site_id
 _symmetry_equiv_pos_as_xyz
  1  'x, y, z'
loop_
 _atom_site_type_symbol
 _atom_site_label
 _atom_site_symmetry_multiplicity
 _atom_site_fract_x
 _atom_site_fract_y
 _atom_site_fract_z
 _atom_site_occupancy
  Te  Te0  1  0.79577869  0.53958775  -0.00188537  1
  Te  Te1  1  0.59350221  0.34291939  0.80294599  1
  Te  Te2  1  0.38832746  0.14323528  0.60080599  1
  Te  Te3  1  0.18701128  0.94395529  0.39788470  1
  Te  Te4  1  0.98456830  0.75261439  0.19577250  1
  Te  Te5  1  0.01543170  0.24738561  0.80422750  1
  Te  Te6  1  0.81298872  0.05604471  0.60211530  1
  Te  Te7  1  0.61167254  0.85676472  0.39919401  1
  Te  Te8  1  0.40649779  0.65708061  0.19705401  1
  Te  Te9  1  0.20422131  0.46041225  0.00188537  1
  Te  Te10  1  0.49538515  0.22753731  0.20510934  1
  Te  Te11  1  0.29581104  0.03057200  0.00445587  1
  Te  Te12  1  0.09886693  0.82972974  0.80284012  1
  Te  Te13  1  0.89647224  0.63003379  0.60607629  1
  Te  Te14  1  0.69297506  0.43125645  0.40823638  1
  Te  Te15  1  0.30702494  0.56874355  0.59176362  1
  Te  Te16  1  0.10352776  0.36996621  0.39392371  1
  Te  Te17  1  0.90113307  0.17027026  0.19715988  1
  Te  Te18  1  0.70418896  0.96942800  0.99554413  1
  Te  Te19  1  0.50461485  0.77246269  0.79489066  1
  Rh  Rh0  1  0.75329716  0.25838676  0.99245514  1
  Rh  Rh1  1  0.54431144  0.06842458  0.79470695  1
  Rh  Rh2  1  0.34361074  0.86618085  0.58542215  1
  Rh  Rh3  1  0.13716696  0.66905508  0.38693534  1
  Rh  Rh4  1  0.93896977  0.47331596  0.19717356  1
  Rh  Rh5  1  0.06103023  0.52668404  0.80282644  1
  Rh  Rh6  1  0.86283304  0.33094492  0.61306466  1
  Rh  Rh7  1  0.65638926  0.13381915  0.41457785  1
  Rh  Rh8  1  0.45568856  0.93157542  0.20529305  1
  Rh  Rh9  1  0.24670284  0.74161324  0.00754486  1
  Rh  Rh10  1  0.60085415  0.59951748  0.60336877  1
  Rh  Rh11  1  0.19770801  0.20013667  0.19676808  1
  Rh  Rh12  1  0.80229199  0.79986333  0.80323192  1
  Rh  Rh13  1  0.39914585  0.40048252  0.39663123  1
loop_
_geom_bond_atom_site_label_1
_geom_bond_atom_site_label_2
_geom_bond_distance
_geom_bond_site_symmetry_2
Rh0 Te5 2.612775 1_655
Rh0 Te1 2.631045 1_555
Rh0 Te0 2.637000 1_556
Rh0 Te17 2.696167 1_556
Rh0 Te18 2.700189 1_545
Rh0 Te10 2.732557 1_556
Rh1 Te1 2.605989 1_555
Rh1 Te2 2.647926 1_555
Rh1 Te11 2.667544 1_556
Rh1 Te6 2.676647 1_555
Rh1 Te18 2.733881 1_545
Rh1 Te19 2.743303 1_545
Rh2 Te3 2.594598 1_555
Rh2 Te7 2.637090 1_555
Rh2 Te2 2.638417 1_565
Rh2 Te12 2.693720 1_555
Rh2 Te15 2.731709 1_555
Rh2 Te19 2.815331 1_555
Rh3 Te4 2.602412 1_455
Rh3 Te3 2.620429 1_555
Rh3 Te8 2.665500 1_555
Rh3 Te13 2.685270 1_455
Rh3 Te16 2.737193 1_555
Rh3 Te15 2.828205 1_555
Rh4 Te4 2.608716 1_555
Rh4 Te0 2.622473 1_555
Rh4 Te14 2.665232 1_555
Rh4 Te9 2.671823 1_655
Rh4 Te16 2.727915 1_655
Rh4 Te17 2.801877 1_555
Rh5 Te5 2.608716 1_555
Rh5 Te9 2.622473 1_556
Rh5 Te15 2.665232 1_555
Rh5 Te0 2.671823 1_456
Rh5 Te13 2.727915 1_455
Rh5 Te12 2.801877 1_555
Rh6 Te5 2.602412 1_655
Rh6 Te6 2.620429 1_555
Rh6 Te1 2.665500 1_555
Rh6 Te16 2.685270 1_655
Rh6 Te13 2.737193 1_555
Rh6 Te14 2.828205 1_555
Rh7 Te6 2.594598 1_555
Rh7 Te2 2.637090 1_555
Rh7 Te7 2.638417 1_545
Rh7 Te17 2.693720 1_555
Rh7 Te14 2.731709 1_555
Rh7 Te10 2.815331 1_555
Rh8 Te8 2.605989 1_555
Rh8 Te7 2.647926 1_555
Rh8 Te18 2.667544 1_554
Rh8 Te3 2.676647 1_555
Rh8 Te11 2.733881 1_565
Rh8 Te10 2.743303 1_565
Rh9 Te4 2.612775 1_455
Rh9 Te8 2.631045 1_555
Rh9 Te9 2.637000 1_555
Rh9 Te12 2.696167 1_554
Rh9 Te11 2.700189 1_565
Rh9 Te19 2.732557 1_554
Rh10 Te13 2.686176 1_555
Rh10 Te19 2.692459 1_555
Rh10 Te14 2.694182 1_555
Rh10 Te15 2.700387 1_555
Rh10 Te1 2.717044 1_555
Rh10 Te7 2.747731 1_555
Rh11 Te11 2.678311 1_555
Rh11 Te17 2.683430 1_455
Rh11 Te9 2.712188 1_555
Rh11 Te10 2.714394 1_555
Rh11 Te16 2.720961 1_555
Rh11 Te3 2.723144 1_545
Rh12 Te18 2.678311 1_555
Rh12 Te12 2.683430 1_655
Rh12 Te0 2.712188 1_556
Rh12 Te19 2.714394 1_555
Rh12 Te13 2.720961 1_555
Rh12 Te6 2.723144 1_565
Rh13 Te16 2.686176 1_555
Rh13 Te10 2.692459 1_555
Rh13 Te15 2.694182 1_555
Rh13 Te14 2.700387 1_555
Rh13 Te8 2.717044 1_555
Rh13 Te2 2.747731 1_555
