# generated using pymatgen
data_Sr3Ca(FeO3)4
_symmetry_space_group_name_H-M   'P 1'
_cell_length_a   5.50814616
_cell_length_b   5.50799908
_cell_length_c   7.78812000
_cell_angle_alpha   89.99979193
_cell_angle_beta   89.99979194
_cell_angle_gamma   89.99660179
_symmetry_Int_Tables_number   1
_chemical_formula_structural   Sr3Ca(FeO3)4
_chemical_formula_sum   'Sr3 Ca1 Fe4 O12'
_cell_volume   236.28271304
_cell_formula_units_Z   1
loop_
 _symmetry_equiv_pos_site_id
 _symmetry_equiv_pos_as_xyz
  1  'x, y, z'
loop_
 _atom_site_type_symbol
 _atom_site_label
 _atom_site_symmetry_multiplicity
 _atom_site_fract_x
 _atom_site_fract_y
 _atom_site_fract_z
 _atom_site_occupancy
  Sr  Sr0  1  0.50000000  0.00000000  0.25001500  1
  Sr  Sr1  1  0.00000000  0.50000000  0.25001500  1
  Sr  Sr2  1  0.00000000  0.50000000  0.74998500  1
  Ca  Ca0  1  0.50000000  0.00000000  0.74998600  1
  Fe  Fe0  1  0.00000000  0.00000000  0.99857000  1
  Fe  Fe1  1  0.50000000  0.50000000  0.99858600  1
  Fe  Fe2  1  0.00000100  0.00000000  0.50141400  1
  Fe  Fe3  1  0.49999900  0.50000000  0.50143300  1
  O  O0  1  0.25253400  0.24746700  0.99668000  1
  O  O1  1  0.74746500  0.75253300  0.99668000  1
  O  O2  1  0.25253200  0.24746400  0.50332000  1
  O  O3  1  0.74746800  0.75253600  0.50331900  1
  O  O4  1  0.99999900  0.00000000  0.24999800  1
  O  O5  1  0.50000000  0.50000000  0.24999600  1
  O  O6  1  0.00000000  0.00000000  0.75000100  1
  O  O7  1  0.50000000  0.50000000  0.75000400  1
  O  O8  1  0.25253600  0.75253200  0.99667800  1
  O  O9  1  0.74746500  0.24746900  0.99668000  1
  O  O10  1  0.25253100  0.75253800  0.50331900  1
  O  O11  1  0.74746900  0.24746300  0.50332100  1
loop_
_geom_bond_atom_site_label_1
_geom_bond_atom_site_label_2
_geom_bond_distance
_geom_bond_site_symmetry_2
Ca0 O2 2.721422 1_555
Ca0 O3 2.721427 1_545
Ca0 O11 2.721490 1_555
Ca0 O10 2.721513 1_545
Ca0 O1 2.721576 1_545
Ca0 O0 2.721579 1_555
Ca0 O8 2.721639 1_545
Ca0 O9 2.721669 1_555
Ca0 O7 2.754000 1_545
Ca0 O7 2.754000 1_555
Ca0 O6 2.754073 1_555
Ca0 O6 2.754073 1_655
Fe0 O6 1.935885 1_555
Fe0 O9 1.947512 1_455
Fe0 O8 1.947512 1_545
Fe0 O0 1.947615 1_555
Fe0 O1 1.947620 1_445
Fe0 O4 1.958151 1_456
Fe1 O7 1.935986 1_555
Fe1 O9 1.947480 1_555
Fe1 O8 1.947481 1_555
Fe1 O1 1.947604 1_555
Fe1 O0 1.947608 1_555
Fe1 O5 1.958011 1_556
Fe2 O6 1.936025 1_555
Fe2 O10 1.947466 1_545
Fe2 O11 1.947478 1_455
Fe2 O2 1.947593 1_555
Fe2 O3 1.947601 1_445
Fe2 O4 1.958058 1_455
Fe3 O7 1.935901 1_555
Fe3 O10 1.947518 1_555
Fe3 O11 1.947522 1_555
Fe3 O2 1.947622 1_555
Fe3 O3 1.947630 1_555
Fe3 O5 1.958222 1_555
O0 Sr2 2.749680 1_555
O0 Sr0 2.758334 1_556
O0 Sr1 2.786059 1_556
O1 Sr2 2.749682 1_655
O1 Sr0 2.758331 1_566
O1 Sr1 2.786062 1_656
O2 Sr2 2.749519 1_555
O2 Sr0 2.758164 1_555
O2 Sr1 2.785896 1_555
O3 Sr2 2.749525 1_655
O3 Sr0 2.758158 1_565
O3 Sr1 2.785891 1_655
O4 Sr1 2.754000 1_645
O4 Sr1 2.754000 1_655
O4 Sr0 2.754068 1_555
O4 Sr0 2.754079 1_655
O5 Sr0 2.754000 1_555
O5 Sr0 2.754000 1_565
O5 Sr1 2.754073 1_555
O5 Sr1 2.754073 1_655
O6 Sr2 2.754000 1_555
O6 Sr2 2.754000 1_545
O7 Sr2 2.754073 1_655
O7 Sr2 2.754073 1_555
O8 Sr2 2.749762 1_555
O8 Sr0 2.758429 1_566
O8 Sr1 2.786148 1_556
O9 Sr2 2.749753 1_655
O9 Sr0 2.758409 1_556
O9 Sr1 2.786146 1_656
O10 Sr2 2.749604 1_555
O10 Sr0 2.758229 1_565
O10 Sr1 2.785983 1_555
O11 Sr2 2.749604 1_655
O11 Sr0 2.758257 1_555
O11 Sr1 2.785977 1_655
