# generated using pymatgen
data_ZrAu4
_symmetry_space_group_name_H-M   'P 1'
_cell_length_a   5.05231400
_cell_length_b   5.29826600
_cell_length_c   15.00551300
_cell_angle_alpha   90.00000000
_cell_angle_beta   90.00000000
_cell_angle_gamma   90.00000000
_symmetry_Int_Tables_number   1
_chemical_formula_structural   ZrAu4
_chemical_formula_sum   'Zr4 Au16'
_cell_volume   401.67512707
_cell_formula_units_Z   4
loop_
 _symmetry_equiv_pos_site_id
 _symmetry_equiv_pos_as_xyz
  1  'x, y, z'
loop_
 _atom_site_type_symbol
 _atom_site_label
 _atom_site_symmetry_multiplicity
 _atom_site_fract_x
 _atom_site_fract_y
 _atom_site_fract_z
 _atom_site_occupancy
  Zr  Zr0  1  0.75000000  0.73300400  0.88331800  1
  Zr  Zr1  1  0.25000000  0.76699600  0.38331800  1
  Zr  Zr2  1  0.75000000  0.23300400  0.61668200  1
  Zr  Zr3  1  0.25000000  0.26699600  0.11668200  1
  Au  Au0  1  0.25000000  0.36549200  0.72675100  1
  Au  Au1  1  0.75000000  0.13450800  0.22675100  1
  Au  Au2  1  0.25000000  0.46054000  0.54096800  1
  Au  Au3  1  0.25000000  0.45754800  0.92874400  1
  Au  Au4  1  0.25000000  0.86549200  0.77324900  1
  Au  Au5  1  0.75000000  0.03946000  0.04096800  1
  Au  Au6  1  0.25000000  0.96054000  0.95903200  1
  Au  Au7  1  0.75000000  0.54245200  0.07125600  1
  Au  Au8  1  0.25000000  0.95754800  0.57125600  1
  Au  Au9  1  0.75000000  0.23395900  0.80688000  1
  Au  Au10  1  0.25000000  0.76604100  0.19312000  1
  Au  Au11  1  0.75000000  0.63450800  0.27324900  1
  Au  Au12  1  0.75000000  0.04245200  0.42874400  1
  Au  Au13  1  0.25000000  0.26604100  0.30688000  1
  Au  Au14  1  0.75000000  0.53946000  0.45903200  1
  Au  Au15  1  0.75000000  0.73395900  0.69312000  1
loop_
_geom_bond_atom_site_label_1
_geom_bond_atom_site_label_2
_geom_bond_distance
_geom_bond_site_symmetry_2
Au0 Au4 2.739476 1_555
Au0 Au4 2.739476 1_545
Au0 Au2 2.832889 1_555
Au0 Au9 2.883200 1_555
Au0 Au9 2.883200 1_455
Au0 Au3 3.070000 1_555
Au0 Zr2 3.098731 1_555
Au0 Zr2 3.098731 1_455
Au0 Au8 3.180541 1_545
Au0 Au15 3.232239 1_455
Au0 Au15 3.232239 1_555
Au1 Au11 2.739476 1_555
Au1 Au11 2.739476 1_545
Au1 Au5 2.832889 1_555
Au1 Au13 2.883200 1_555
Au1 Au13 2.883200 1_655
Au1 Au12 3.070000 1_555
Au1 Zr3 3.098731 1_655
Au1 Zr3 3.098731 1_555
Au1 Au7 3.180541 1_555
Au1 Au10 3.232239 1_645
Au1 Au10 3.232239 1_545
Au2 Au8 2.672214 1_555
Au2 Au8 2.703462 1_545
Au2 Zr1 2.869235 1_555
Au2 Zr2 3.020860 1_455
Au2 Zr2 3.020860 1_555
Au3 Au6 2.672214 1_545
Au3 Au6 2.703462 1_555
Au3 Zr3 2.995377 1_556
Au3 Zr0 2.996008 1_555
Au3 Zr0 2.996008 1_455
Au3 Au4 3.180541 1_555
Au4 Au6 2.832889 1_555
Au4 Au8 3.070000 1_555
Au4 Zr0 3.098731 1_555
Au4 Zr0 3.098731 1_455
Au4 Au9 3.232239 1_465
Au4 Au9 3.232239 1_565
Au5 Au7 2.672214 1_545
Au5 Au7 2.703462 1_555
Au5 Au6 2.840415 1_544
Au5 Au6 2.840415 1_644
Au5 Zr0 2.869235 1_544
Au5 Zr3 3.020860 1_655
Au5 Zr3 3.020860 1_555
Au6 Zr3 2.869235 1_566
Au6 Zr0 3.020860 1_555
Au6 Zr0 3.020860 1_455
Au7 Zr0 2.995377 1_554
Au7 Zr3 2.996008 1_555
Au7 Zr3 2.996008 1_655
Au8 Zr1 2.995377 1_555
Au8 Zr2 2.996008 1_565
Au8 Zr2 2.996008 1_465
Au9 Zr2 2.854023 1_555
Au9 Zr0 2.882137 1_555
Au9 Zr0 2.891423 1_545
Au10 Zr1 2.854023 1_555
Au10 Zr3 2.882137 1_555
Au10 Au11 2.883200 1_555
Au10 Au11 2.883200 1_455
Au10 Zr3 2.891423 1_565
Au11 Au14 2.832889 1_555
Au11 Au7 3.070000 1_555
Au11 Zr1 3.098731 1_555
Au11 Zr1 3.098731 1_655
Au11 Au12 3.180541 1_565
Au11 Au13 3.232239 1_555
Au11 Au13 3.232239 1_655
Au12 Au14 2.672214 1_555
Au12 Au14 2.703462 1_545
Au12 Zr2 2.995377 1_555
Au12 Zr1 2.996008 1_545
Au12 Zr1 2.996008 1_645
Au13 Zr3 2.854023 1_555
Au13 Zr1 2.882137 1_545
Au13 Zr1 2.891423 1_555
Au14 Au2 2.840415 1_555
Au14 Au2 2.840415 1_655
Au14 Zr2 2.869235 1_555
Au14 Zr1 3.020860 1_655
Au14 Zr1 3.020860 1_555
Au15 Zr0 2.854023 1_555
Au15 Zr2 2.882137 1_565
Au15 Au4 2.883200 1_655
Au15 Au4 2.883200 1_555
Au15 Zr2 2.891423 1_555
