# generated using pymatgen
data_Al(CoSi)2
_symmetry_space_group_name_H-M   'P 1'
_cell_length_a   3.88939747
_cell_length_b   3.88939721
_cell_length_c   4.58775416
_cell_angle_alpha   90.00000000
_cell_angle_beta   90.00000000
_cell_angle_gamma   120.00000210
_symmetry_Int_Tables_number   1
_chemical_formula_structural   Al(CoSi)2
_chemical_formula_sum   'Al1 Co2 Si2'
_cell_volume   60.10289428
_cell_formula_units_Z   1
loop_
 _symmetry_equiv_pos_site_id
 _symmetry_equiv_pos_as_xyz
  1  'x, y, z'
loop_
 _atom_site_type_symbol
 _atom_site_label
 _atom_site_symmetry_multiplicity
 _atom_site_fract_x
 _atom_site_fract_y
 _atom_site_fract_z
 _atom_site_occupancy
  Al  Al0  1  0.00000000  -0.00000000  -0.00000000  1
  Co  Co0  1  0.66666700  0.33333300  0.16210706  1
  Co  Co1  1  0.33333300  0.66666700  0.83789194  1
  Si  Si0  1  0.33333300  0.66666700  0.34807052  1
  Si  Si1  1  0.66666700  0.33333300  0.65192948  1
loop_
_geom_bond_atom_site_label_1
_geom_bond_atom_site_label_2
_geom_bond_distance
_geom_bond_site_symmetry_2
Al0 Co0 2.365494 1_455
Al0 Co1 2.365495 1_544
Al0 Co0 2.365497 1_445
Al0 Co0 2.365497 1_555
Al0 Co1 2.365498 1_554
Al0 Co1 2.365498 1_444
Al0 Si1 2.755436 1_454
Al0 Si0 2.755436 1_545
Al0 Si1 2.755439 1_444
Al0 Si0 2.755439 1_555
Al0 Si0 2.755439 1_445
Al0 Si1 2.755439 1_554
Co0 Si1 2.247185 1_555
Co0 Si1 2.340569 1_554
Co0 Si0 2.402152 1_545
Co0 Si0 2.402152 1_655
Co0 Si0 2.402158 1_555
Co1 Si0 2.247180 1_555
Co1 Si0 2.340574 1_556
Co1 Si1 2.402150 1_565
Co1 Si1 2.402150 1_455
Co1 Si1 2.402156 1_555
Si0 Si1 2.643063 1_565
Si0 Si1 2.643063 1_455
Si0 Si1 2.643068 1_555
