# generated using pymatgen
data_C4SeBr4
_symmetry_space_group_name_H-M   'P 1'
_cell_length_a   4.50066600
_cell_length_b   14.38198500
_cell_length_c   15.34438289
_cell_angle_alpha   83.73410307
_cell_angle_beta   90.00000000
_cell_angle_gamma   90.00000000
_symmetry_Int_Tables_number   1
_chemical_formula_structural   C4SeBr4
_chemical_formula_sum   'C16 Se4 Br16'
_cell_volume   987.28565862
_cell_formula_units_Z   4
loop_
 _symmetry_equiv_pos_site_id
 _symmetry_equiv_pos_as_xyz
  1  'x, y, z'
loop_
 _atom_site_type_symbol
 _atom_site_label
 _atom_site_symmetry_multiplicity
 _atom_site_fract_x
 _atom_site_fract_y
 _atom_site_fract_z
 _atom_site_occupancy
  C  C0  1  0.64367000  0.95814900  0.29607400  1
  C  C1  1  0.35633000  0.04185100  0.70392600  1
  C  C2  1  0.14367000  0.54185100  0.70392600  1
  C  C3  1  0.85633000  0.45814900  0.29607400  1
  C  C4  1  0.58143600  0.89099200  0.14696800  1
  C  C5  1  0.41856400  0.10900800  0.85303200  1
  C  C6  1  0.08143600  0.60900800  0.85303200  1
  C  C7  1  0.91856400  0.39099200  0.14696800  1
  C  C8  1  0.45859200  0.83778500  0.21704600  1
  C  C9  1  0.54140800  0.16221500  0.78295400  1
  C  C10  1  0.95859200  0.66221500  0.78295400  1
  C  C11  1  0.04140800  0.33778500  0.21704600  1
  C  C12  1  0.49333500  0.87496900  0.30012500  1
  C  C13  1  0.50666500  0.12503100  0.69987500  1
  C  C14  1  0.99333500  0.62503100  0.69987500  1
  C  C15  1  0.00666500  0.37496900  0.30012500  1
  Se  Se0  1  0.73618500  0.49986100  0.18045000  1
  Se  Se1  1  0.26381500  0.50013900  0.81955000  1
  Se  Se2  1  0.23618500  0.00013900  0.81955000  1
  Se  Se3  1  0.76381500  0.99986100  0.18045000  1
  Br  Br0  1  0.76532300  0.52898200  0.38761100  1
  Br  Br1  1  0.23467700  0.47101800  0.61238900  1
  Br  Br2  1  0.26532300  0.97101800  0.61238900  1
  Br  Br3  1  0.73467700  0.02898200  0.38761100  1
  Br  Br4  1  0.60597800  0.86251600  0.03115400  1
  Br  Br5  1  0.39402200  0.13748400  0.96884600  1
  Br  Br6  1  0.10597800  0.63748400  0.96884600  1
  Br  Br7  1  0.89402200  0.36251600  0.03115400  1
  Br  Br8  1  0.25747600  0.72409400  0.20697900  1
  Br  Br9  1  0.74252400  0.27590600  0.79302100  1
  Br  Br10  1  0.75747600  0.77590600  0.79302100  1
  Br  Br11  1  0.24252400  0.22409400  0.20697900  1
  Br  Br12  1  0.84109200  0.68699800  0.59445300  1
  Br  Br13  1  0.15890800  0.31300200  0.40554700  1
  Br  Br14  1  0.34109200  0.81300200  0.40554700  1
  Br  Br15  1  0.65890800  0.18699800  0.59445300  1
loop_
_geom_bond_atom_site_label_1
_geom_bond_atom_site_label_2
_geom_bond_distance
_geom_bond_site_symmetry_2
C0 C12 1.369871 1_555
C0 Se3 1.888824 1_555
C1 C13 1.369871 1_555
C1 Se2 1.888824 1_555
C2 Se1 1.888824 1_555
C3 Se0 1.888824 1_555
C4 C8 1.366713 1_555
C4 Se3 1.888089 1_555
C5 C9 1.366713 1_555
C5 Se2 1.888089 1_555
C6 Se1 1.888089 1_555
C7 Se0 1.888089 1_555
C10 C6 1.366713 1_655
C10 C14 1.443730 1_555
C11 C7 1.366713 1_455
C11 C15 1.443730 1_555
C12 C8 1.443730 1_555
C13 C9 1.443730 1_555
C14 C2 1.369871 1_655
C15 C3 1.369871 1_455
Br0 C3 1.868351 1_555
Br1 C2 1.868351 1_555
Br2 C1 1.868351 1_565
Br3 C0 1.868351 1_545
Br4 C4 1.869988 1_555
Br5 C5 1.869988 1_555
Br6 C6 1.869988 1_555
Br7 C7 1.869988 1_555
Br8 C8 1.889937 1_555
Br9 C9 1.889937 1_555
Br10 C10 1.889937 1_555
Br11 C11 1.889937 1_555
Br12 C14 1.888332 1_555
Br13 C15 1.888332 1_555
Br14 C12 1.888332 1_555
Br15 C13 1.888332 1_555
