# generated using pymatgen
data_Pr4CdPd
_symmetry_space_group_name_H-M   'P 1'
_cell_length_a   10.07235790
_cell_length_b   10.07268718
_cell_length_c   10.07228794
_cell_angle_alpha   59.99963582
_cell_angle_beta   59.99867729
_cell_angle_gamma   59.99963265
_symmetry_Int_Tables_number   1
_chemical_formula_structural   Pr4CdPd
_chemical_formula_sum   'Pr16 Cd4 Pd4'
_cell_volume   722.57492736
_cell_formula_units_Z   4
loop_
 _symmetry_equiv_pos_site_id
 _symmetry_equiv_pos_as_xyz
  1  'x, y, z'
loop_
 _atom_site_type_symbol
 _atom_site_label
 _atom_site_symmetry_multiplicity
 _atom_site_fract_x
 _atom_site_fract_y
 _atom_site_fract_z
 _atom_site_occupancy
  Pr  Pr0  1  0.35129476  0.35138530  0.35125814  1
  Pr  Pr1  1  0.35126194  0.35134468  0.94608857  1
  Pr  Pr2  1  0.35131151  0.94604729  0.35127536  1
  Pr  Pr3  1  0.94607847  0.35136002  0.35124033  1
  Pr  Pr4  1  0.80681998  0.19326115  0.19316362  1
  Pr  Pr5  1  0.19319218  0.80671304  0.80686088  1
  Pr  Pr6  1  0.19323423  0.80675919  0.19319530  1
  Pr  Pr7  1  0.80676546  0.19322730  0.80681462  1
  Pr  Pr8  1  0.19317746  0.19324403  0.80684309  1
  Pr  Pr9  1  0.80683838  0.80673285  0.19317833  1
  Pr  Pr10  1  0.93569685  0.56430707  0.56429279  1
  Pr  Pr11  1  0.56429311  0.93568196  0.93571743  1
  Pr  Pr12  1  0.56431725  0.93567744  0.56431674  1
  Pr  Pr13  1  0.93570536  0.56428274  0.93572967  1
  Pr  Pr14  1  0.56428603  0.56430003  0.93571718  1
  Pr  Pr15  1  0.93569834  0.93568648  0.56430022  1
  Cd  Cd0  1  0.57949400  0.57947345  0.57949432  1
  Cd  Cd1  1  0.57949657  0.57947359  0.26154541  1
  Cd  Cd2  1  0.57948980  0.26155828  0.57948733  1
  Cd  Cd3  1  0.26155030  0.57947738  0.57949761  1
  Pd  Pd0  1  0.14367335  0.14368059  0.14367150  1
  Pd  Pd1  1  0.14367985  0.14367916  0.56897035  1
  Pd  Pd2  1  0.14367141  0.56897246  0.14367034  1
  Pd  Pd3  1  0.56897442  0.14367550  0.14367186  1
loop_
_geom_bond_atom_site_label_1
_geom_bond_atom_site_label_2
_geom_bond_distance
_geom_bond_site_symmetry_2
Pr0 Pr14 3.655811 1_554
Pr0 Pr10 3.656299 1_455
Pr0 Pr12 3.657412 1_545
Pr1 Pr13 3.655967 1_455
Pr1 Pr14 3.656533 1_555
Pr1 Pr11 3.657046 1_545
Pr10 Pr3 3.656637 1_555
Pr10 Pr12 3.740662 1_555
Pr10 Pr15 3.740834 1_555
Pr10 Pr14 3.740963 1_555
Pr10 Pr13 3.741140 1_555
Pr10 Pr9 3.764886 1_555
Pr10 Pr6 3.764903 1_655
Pr10 Pr8 3.765048 1_655
Pr10 Pr7 3.765048 1_555
Pr11 Pr2 3.655937 1_556
Pr11 Pr12 3.740756 1_555
Pr11 Pr14 3.740851 1_555
Pr11 Pr15 3.740899 1_555
Pr11 Pr13 3.740972 1_555
Pr11 Pr6 3.764721 1_556
Pr11 Pr9 3.764858 1_556
Pr11 Pr8 3.764998 1_565
Pr11 Pr7 3.765188 1_565
Pr12 Pr2 3.657075 1_555
Pr12 Pr15 3.740646 1_555
Pr12 Pr14 3.740790 1_555
Pr12 Pr9 3.765488 1_555
Pr12 Pr5 3.765495 1_555
Pr12 Pr8 3.765571 1_565
Pr12 Pr4 3.765585 1_565
Pr13 Pr3 3.655586 1_556
Pr13 Pr14 3.741044 1_555
Pr13 Pr15 3.741068 1_555
Pr13 Pr9 3.764278 1_556
Pr13 Pr4 3.764321 1_556
Pr13 Pr5 3.764450 1_655
Pr13 Pr8 3.764472 1_655
Pr14 Pr6 3.764479 1_556
Pr14 Pr4 3.764708 1_556
Pr14 Pr5 3.764720 1_555
Pr14 Pr7 3.764842 1_555
Pr15 Pr2 3.656430 1_655
Pr15 Pr3 3.657169 1_565
Pr15 Pr6 3.765115 1_655
Pr15 Pr4 3.765177 1_565
Pr15 Pr5 3.765186 1_655
Pr15 Pr7 3.765383 1_565
Cd0 Cd2 3.202316 1_555
Cd0 Cd3 3.202406 1_555
Cd0 Cd1 3.202459 1_555
Cd0 Pr10 3.441661 1_555
Cd0 Pr14 3.441775 1_555
Cd0 Pr12 3.441857 1_555
Cd0 Pr3 3.536654 1_555
Cd0 Pr1 3.536660 1_555
Cd0 Pr2 3.536837 1_555
Cd0 Pr7 3.611972 1_555
Cd0 Pr5 3.612198 1_555
Cd0 Pr9 3.612246 1_555
Cd1 Cd2 3.202314 1_555
Cd1 Cd3 3.202423 1_555
Cd1 Pr13 3.441533 1_554
Cd1 Pr14 3.441672 1_554
Cd1 Pr11 3.441702 1_554
Cd1 Pr3 3.536256 1_555
Cd1 Pr0 3.536359 1_555
Cd1 Pr2 3.536426 1_555
Cd1 Pr4 3.611869 1_555
Cd1 Pr9 3.611968 1_555
Cd1 Pr6 3.612075 1_555
Cd2 Cd3 3.202332 1_555
Cd2 Pr15 3.441895 1_545
Cd2 Pr11 3.442020 1_545
Cd2 Pr12 3.442101 1_545
Cd2 Pr3 3.536769 1_555
Cd2 Pr1 3.536784 1_555
Cd2 Pr0 3.536988 1_555
Cd2 Pr7 3.612083 1_555
Cd2 Pr8 3.612322 1_555
Cd2 Pr4 3.612326 1_555
Cd3 Pr13 3.441791 1_455
Cd3 Pr15 3.441826 1_455
Cd3 Pr10 3.441899 1_455
Cd3 Pr1 3.536391 1_555
Cd3 Pr2 3.536539 1_555
Cd3 Pr0 3.536570 1_555
Cd3 Pr5 3.611974 1_555
Cd3 Pr8 3.612014 1_555
Cd3 Pr6 3.612257 1_555
Pd0 Pr2 2.959162 1_545
Pd0 Pr3 2.959231 1_455
Pd0 Pr1 2.959278 1_554
Pd0 Pr8 2.978472 1_554
Pd0 Pr4 2.978724 1_455
Pd0 Pr6 2.979473 1_545
Pd0 Pr13 3.655512 1_454
Pd0 Pr11 3.655623 1_544
Pd0 Pr15 3.655709 1_445
Pd1 Pr0 2.959761 1_555
Pd1 Pr2 2.959783 1_545
Pd1 Pr3 2.959825 1_455
Pd1 Pr7 2.979286 1_455
Pd1 Pr8 2.979581 1_555
Pd1 Pr5 2.979893 1_545
Pd1 Pr10 3.655811 1_455
Pd1 Pr12 3.655840 1_545
Pd1 Pr15 3.655935 1_445
Pd2 Pr3 2.958931 1_455
Pd2 Pr0 2.958944 1_555
Pd2 Pr1 2.958955 1_554
Pd2 Pr5 2.978310 1_554
Pd2 Pr9 2.978543 1_455
Pd2 Pr6 2.978980 1_555
Pd2 Pr13 3.655408 1_454
Pd2 Pr14 3.655554 1_554
Pd2 Pr10 3.655617 1_455
Pd3 Pr2 2.959535 1_545
Pd3 Pr0 2.959566 1_555
Pd3 Pr1 2.959573 1_554
Pd3 Pr7 2.978729 1_554
Pd3 Pr4 2.979427 1_555
Pd3 Pr9 2.979658 1_545
Pd3 Pr14 3.655751 1_554
Pd3 Pr11 3.655760 1_544
Pd3 Pr12 3.655870 1_545
