# generated using pymatgen
data_Cs
_symmetry_space_group_name_H-M   'P 1'
_cell_length_a   16.69486373
_cell_length_b   16.69486373
_cell_length_c   16.69486373
_cell_angle_alpha   109.47122063
_cell_angle_beta   109.47122063
_cell_angle_gamma   109.47122063
_symmetry_Int_Tables_number   1
_chemical_formula_structural   Cs
_chemical_formula_sum   Cs29
_cell_volume   3582.00959636
_cell_formula_units_Z   29
loop_
 _symmetry_equiv_pos_site_id
 _symmetry_equiv_pos_as_xyz
  1  'x, y, z'
loop_
 _atom_site_type_symbol
 _atom_site_label
 _atom_site_symmetry_multiplicity
 _atom_site_fract_x
 _atom_site_fract_y
 _atom_site_fract_z
 _atom_site_occupancy
  Cs  Cs0  1  0.00000000  -0.00000000  -0.00000000  1
  Cs  Cs1  1  0.63520965  -0.00000000  0.00000000  1
  Cs  Cs2  1  0.37384598  0.18965421  0.00000000  1
  Cs  Cs3  1  0.18965421  0.37384598  -0.00000000  1
  Cs  Cs4  1  0.68292304  0.40465862  -0.00000000  1
  Cs  Cs5  1  0.00000000  0.63520965  -0.00000000  1
  Cs  Cs6  1  0.40465862  0.68292304  0.00000000  1
  Cs  Cs7  1  0.81034579  0.81034579  0.18419077  1
  Cs  Cs8  1  0.37384598  -0.00000000  0.18965421  1
  Cs  Cs9  1  0.00000000  0.37384598  0.18965421  1
  Cs  Cs10  1  0.59534138  0.59534138  0.27826442  1
  Cs  Cs11  1  0.72173458  0.31707596  0.31707596  1
  Cs  Cs12  1  0.31707596  0.72173458  0.31707596  1
  Cs  Cs13  1  0.36478935  0.36478935  0.36478935  1
  Cs  Cs14  1  0.18965421  -0.00000000  0.37384598  1
  Cs  Cs15  1  0.00000000  0.18965421  0.37384598  1
  Cs  Cs16  1  0.68292304  0.00000000  0.40465862  1
  Cs  Cs17  1  0.00000000  0.68292304  0.40465862  1
  Cs  Cs18  1  0.59534138  0.27826442  0.59534138  1
  Cs  Cs19  1  0.27826442  0.59534138  0.59534138  1
  Cs  Cs20  1  0.81580823  0.62615402  0.62615402  1
  Cs  Cs21  1  0.62615402  0.81580823  0.62615402  1
  Cs  Cs22  1  0.00000000  0.00000000  0.63520965  1
  Cs  Cs23  1  0.40465862  -0.00000000  0.68292304  1
  Cs  Cs24  1  0.00000000  0.40465862  0.68292304  1
  Cs  Cs25  1  0.31707596  0.31707596  0.72173458  1
  Cs  Cs26  1  0.81034579  0.18419077  0.81034579  1
  Cs  Cs27  1  0.18419077  0.81034579  0.81034579  1
  Cs  Cs28  1  0.62615402  0.62615402  0.81580823  1
loop_
_geom_bond_atom_site_label_1
_geom_bond_atom_site_label_2
_geom_bond_distance
_geom_bond_site_symmetry_2
Cs1 Cs11 5.408624 1_555
Cs1 Cs23 5.408637 1_554
Cs1 Cs6 5.408637 1_545
Cs2 Cs3 5.021546 1_555
Cs2 Cs8 5.170467 1_555
Cs2 Cs27 5.170467 1_544
Cs2 Cs4 5.211728 1_555
Cs2 Cs23 5.480777 1_554
Cs3 Cs9 5.170467 1_555
Cs3 Cs6 5.211728 1_555
Cs4 Cs5 5.408637 1_655
Cs4 Cs9 5.480777 1_655
Cs6 Cs8 5.480777 1_565
Cs10 Cs7 5.211741 1_555
Cs10 Cs13 5.408643 1_555
Cs10 Cs20 5.480777 1_555
Cs10 Cs21 5.480777 1_555
Cs11 Cs20 5.211741 1_555
Cs11 Cs8 5.480763 1_555
Cs11 Cs2 5.480763 1_555
Cs12 Cs21 5.211741 1_555
Cs12 Cs5 5.408624 1_555
Cs12 Cs9 5.480763 1_555
Cs12 Cs3 5.480763 1_555
Cs13 Cs18 5.408643 1_555
Cs13 Cs19 5.408643 1_555
Cs14 Cs8 5.021546 1_555
Cs14 Cs15 5.170467 1_555
Cs14 Cs7 5.170467 1_445
Cs14 Cs23 5.211728 1_555
Cs14 Cs25 5.480763 1_555
Cs14 Cs17 5.480777 1_545
Cs15 Cs9 5.021546 1_555
Cs15 Cs7 5.170467 1_445
Cs15 Cs24 5.211728 1_555
Cs15 Cs25 5.480763 1_555
Cs15 Cs16 5.480777 1_455
Cs16 Cs8 5.211728 1_555
Cs16 Cs22 5.408637 1_655
Cs16 Cs7 5.480787 1_545
Cs17 Cs9 5.211728 1_555
Cs17 Cs22 5.408637 1_565
Cs17 Cs7 5.480787 1_455
Cs18 Cs26 5.211741 1_555
Cs18 Cs28 5.480777 1_555
Cs18 Cs20 5.480777 1_555
Cs19 Cs27 5.211741 1_555
Cs19 Cs28 5.480777 1_555
Cs19 Cs21 5.480777 1_555
Cs20 Cs27 5.021533 1_655
Cs20 Cs28 5.170467 1_555
Cs20 Cs21 5.170467 1_555
Cs21 Cs26 5.021533 1_565
Cs21 Cs28 5.170467 1_555
Cs22 Cs25 5.408624 1_555
Cs23 Cs27 5.480787 1_545
Cs24 Cs5 5.408637 1_556
Cs24 Cs3 5.480777 1_556
Cs24 Cs26 5.480787 1_455
Cs25 Cs28 5.211741 1_555
Cs26 Cs9 5.170467 1_656
Cs26 Cs3 5.170467 1_656
Cs26 Cs4 5.480787 1_556
Cs27 Cs8 5.170467 1_566
Cs27 Cs6 5.480787 1_556
Cs28 Cs7 5.021533 1_556
