# generated using pymatgen
data_TbGePd
_symmetry_space_group_name_H-M   'P 1'
_cell_length_a   11.47226148
_cell_length_b   11.47226148
_cell_length_c   11.47226148
_cell_angle_alpha   157.75321892
_cell_angle_beta   141.06582403
_cell_angle_gamma   45.29713730
_symmetry_Int_Tables_number   1
_chemical_formula_structural   TbGePd
_chemical_formula_sum   'Tb6 Ge6 Pd6'
_cell_volume   358.36651111
_cell_formula_units_Z   6
loop_
 _symmetry_equiv_pos_site_id
 _symmetry_equiv_pos_as_xyz
  1  'x, y, z'
loop_
 _atom_site_type_symbol
 _atom_site_label
 _atom_site_symmetry_multiplicity
 _atom_site_fract_x
 _atom_site_fract_y
 _atom_site_fract_z
 _atom_site_occupancy
  Tb  Tb0  1  0.53516600  0.00000000  0.53516600  1
  Tb  Tb1  1  0.86904400  0.33384200  0.53520100  1
  Tb  Tb2  1  0.20135900  0.66615800  0.53520100  1
  Tb  Tb3  1  0.95213000  0.50000000  0.45213000  1
  Tb  Tb4  1  0.62563700  0.16726800  0.45836800  1
  Tb  Tb5  1  0.29110000  0.83273200  0.45836800  1
  Ge  Ge0  1  0.21953300  0.06473000  0.15480300  1
  Ge  Ge1  1  0.09007200  0.93527000  0.15480300  1
  Ge  Ge2  1  0.07078400  0.23481800  0.83596600  1
  Ge  Ge3  1  0.60114800  0.76518200  0.83596600  1
  Ge  Ge4  1  0.56139000  0.40593600  0.15545400  1
  Ge  Ge5  1  0.74951900  0.59406400  0.15545400  1
  Pd  Pd0  1  0.93081800  0.10401500  0.82680400  1
  Pd  Pd1  1  0.72278900  0.89598500  0.82680400  1
  Pd  Pd2  1  0.43184000  0.26632700  0.16551200  1
  Pd  Pd3  1  0.89918500  0.73367300  0.16551200  1
  Pd  Pd4  1  0.25196800  0.42825500  0.82371300  1
  Pd  Pd5  1  0.39545800  0.57174500  0.82371300  1
loop_
_geom_bond_atom_site_label_1
_geom_bond_atom_site_label_2
_geom_bond_distance
_geom_bond_site_symmetry_2
Ge0 Pd5 2.566862 1_555
Ge0 Pd5 2.566862 1_544
Ge0 Pd0 2.642437 1_454
Ge0 Ge1 2.741344 1_545
Ge0 Tb3 3.029687 1_455
Ge0 Tb3 3.029687 1_444
Ge0 Tb4 3.178458 1_555
Ge0 Tb0 3.215282 1_555
Ge0 Tb2 3.216792 1_555
Ge0 Tb2 3.216792 1_544
Ge1 Pd4 2.566861 1_565
Ge1 Pd4 2.566865 1_554
Ge1 Pd1 2.642430 1_454
Ge1 Tb3 3.029688 1_465
Ge1 Tb3 3.029691 1_454
Ge1 Tb5 3.178443 1_555
Ge1 Tb0 3.215289 1_565
Ge1 Tb1 3.216773 1_465
Ge1 Tb1 3.216779 1_454
Ge2 Pd3 2.568646 1_445
Ge2 Pd3 2.568646 1_456
Ge2 Pd2 2.606751 1_556
Ge2 Pd0 2.770668 1_455
Ge2 Tb2 3.055039 1_556
Ge2 Tb2 3.055039 1_545
Ge2 Tb1 3.112239 1_455
Ge2 Tb5 3.173843 1_556
Ge2 Tb5 3.173843 1_545
Ge2 Tb4 3.222220 1_455
Ge3 Pd2 2.568642 1_566
Ge3 Pd2 2.568646 1_555
Ge3 Pd3 2.606745 1_556
Ge3 Pd1 2.770657 1_555
Ge3 Tb1 3.055044 1_566
Ge3 Tb1 3.055047 1_555
Ge3 Tb2 3.112234 1_555
Ge3 Tb4 3.173836 1_566
Ge3 Tb4 3.173839 1_555
Ge3 Tb5 3.222228 1_555
Ge4 Pd4 2.580345 1_554
Ge4 Pd1 2.580632 1_544
Ge4 Pd1 2.580632 1_555
Ge4 Pd2 2.957229 1_555
Ge4 Tb3 3.018896 1_555
Ge4 Tb5 3.093947 1_544
Ge4 Tb5 3.093947 1_555
Ge4 Tb0 3.116388 1_554
Ge4 Tb0 3.116388 1_565
Ge4 Tb1 3.280614 1_555
Ge5 Pd5 2.580351 1_554
Ge5 Pd0 2.580622 1_554
Ge5 Pd0 2.580630 1_565
Ge5 Pd3 2.957229 1_555
Ge5 Tb3 3.018900 1_555
Ge5 Tb4 3.093947 1_554
Ge5 Tb4 3.093947 1_565
Ge5 Tb0 3.116394 1_554
Ge5 Tb0 3.116398 1_565
Ge5 Tb2 3.280607 1_655
Pd0 Tb2 3.028108 1_656
Pd0 Tb2 3.028112 1_645
Pd0 Tb4 3.119470 1_555
Pd0 Tb0 3.134354 1_555
Pd0 Tb3 3.266188 1_556
Pd0 Tb3 3.266191 1_545
Pd1 Tb1 3.028099 1_566
Pd1 Tb1 3.028102 1_555
Pd1 Tb5 3.119468 1_555
Pd1 Tb0 3.134364 1_565
Pd1 Tb3 3.266196 1_555
Pd1 Tb3 3.266196 1_566
Pd2 Tb5 3.063429 1_544
Pd2 Tb5 3.063432 1_555
Pd2 Tb4 3.068321 1_555
Pd2 Tb1 3.167816 1_555
Pd2 Tb2 3.223426 1_544
Pd2 Tb2 3.223429 1_555
Pd3 Tb4 3.063425 1_565
Pd3 Tb4 3.063428 1_554
Pd3 Tb5 3.068321 1_655
Pd3 Tb2 3.167816 1_655
Pd3 Tb1 3.223424 1_565
Pd3 Tb1 3.223427 1_554
Pd4 Tb1 2.977218 1_455
Pd4 Pd5 3.038420 1_555
Pd4 Tb0 3.133827 1_555
Pd4 Tb0 3.133827 1_566
Pd4 Tb5 3.170184 1_556
Pd4 Tb5 3.170184 1_545
Pd4 Tb3 3.221999 1_455
Pd5 Tb2 2.977228 1_555
Pd5 Tb0 3.133827 1_555
Pd5 Tb0 3.133827 1_566
Pd5 Tb4 3.170190 1_566
Pd5 Tb4 3.170193 1_555
Pd5 Tb3 3.221999 1_455
