# generated using pymatgen
data_Cs2KRb
_symmetry_space_group_name_H-M   'P 1'
_cell_length_a   8.21821139
_cell_length_b   8.21821139
_cell_length_c   8.21821139
_cell_angle_alpha   60.00000000
_cell_angle_beta   60.00000000
_cell_angle_gamma   60.00000000
_symmetry_Int_Tables_number   1
_chemical_formula_structural   Cs2KRb
_chemical_formula_sum   'Cs2 K1 Rb1'
_cell_volume   392.47945305
_cell_formula_units_Z   1
loop_
 _symmetry_equiv_pos_site_id
 _symmetry_equiv_pos_as_xyz
  1  'x, y, z'
loop_
 _atom_site_type_symbol
 _atom_site_label
 _atom_site_symmetry_multiplicity
 _atom_site_fract_x
 _atom_site_fract_y
 _atom_site_fract_z
 _atom_site_occupancy
  Cs  Cs0  1  0.75000000  0.75000000  0.75000000  1
  Cs  Cs1  1  0.25000000  0.25000000  0.25000000  1
  K  K0  1  0.50000000  0.50000000  0.50000000  1
  Rb  Rb0  1  0.00000000  0.00000000  0.00000000  1
loop_
_geom_bond_atom_site_label_1
_geom_bond_atom_site_label_2
_geom_bond_distance
_geom_bond_site_symmetry_2
Cs0 K0 5.032606 1_556
Cs0 Rb0 5.032606 1_666
Cs0 K0 5.032606 1_555
Cs0 Rb0 5.032606 1_566
Cs0 K0 5.032606 1_655
Cs0 K0 5.032606 1_565
Cs0 Rb0 5.032606 1_656
Cs0 Rb0 5.032606 1_665
Cs1 Rb0 5.032606 1_655
Cs1 K0 5.032606 1_555
Cs1 K0 5.032606 1_545
Cs1 Rb0 5.032606 1_565
Cs1 Rb0 5.032606 1_556
Cs1 K0 5.032606 1_455
Cs1 Rb0 5.032606 1_555
Cs1 K0 5.032606 1_554
