# generated using pymatgen
data_LaNi4Pt
_symmetry_space_group_name_H-M   'P 1'
_cell_length_a   5.16265553
_cell_length_b   5.16266573
_cell_length_c   4.00671953
_cell_angle_alpha   90.00000000
_cell_angle_beta   90.00000000
_cell_angle_gamma   123.32618033
_symmetry_Int_Tables_number   1
_chemical_formula_structural   LaNi4Pt
_chemical_formula_sum   'La1 Ni4 Pt1'
_cell_volume   89.23020112
_cell_formula_units_Z   1
loop_
 _symmetry_equiv_pos_site_id
 _symmetry_equiv_pos_as_xyz
  1  'x, y, z'
loop_
 _atom_site_type_symbol
 _atom_site_label
 _atom_site_symmetry_multiplicity
 _atom_site_fract_x
 _atom_site_fract_y
 _atom_site_fract_z
 _atom_site_occupancy
  La  La0  1  0.50000000  0.50000000  0.00000000  1
  Ni  Ni0  1  0.18315758  0.81683997  -0.00000000  1
  Ni  Ni1  1  0.81684242  0.18316003  0.00000000  1
  Ni  Ni2  1  -0.00000000  0.50000000  0.50000000  1
  Ni  Ni3  1  0.50000000  -0.00000000  0.50000000  1
  Pt  Pt0  1  -0.00000000  -0.00000000  0.50000000  1
loop_
_geom_bond_atom_site_label_1
_geom_bond_atom_site_label_2
_geom_bond_distance
_geom_bond_site_symmetry_2
La0 Ni0 2.879471 1_555
La0 Ni1 2.879471 1_555
La0 Ni1 2.962360 1_455
La0 Ni0 2.962360 1_655
La0 Ni1 2.962376 1_565
La0 Ni0 2.962376 1_545
La0 Pt0 3.165174 1_664
La0 Pt0 3.165174 1_554
La0 Pt0 3.165174 1_555
La0 Pt0 3.165174 1_665
La0 Ni2 3.267523 1_554
La0 Ni2 3.267523 1_555
La0 Ni2 3.267523 1_654
La0 Ni2 3.267523 1_655
La0 Ni3 3.267527 1_565
La0 Ni3 3.267527 1_555
La0 Ni3 3.267527 1_554
La0 Ni3 3.267527 1_564
Ni0 Ni2 2.425626 1_554
Ni0 Ni2 2.425626 1_555
Ni0 Ni3 2.425630 1_565
Ni0 Ni3 2.425630 1_564
Ni0 Pt0 2.604650 1_564
Ni0 Pt0 2.604650 1_565
Ni0 Ni1 2.735113 1_455
Ni0 Ni1 2.735129 1_565
Ni1 Ni2 2.425626 1_654
Ni1 Ni2 2.425626 1_655
Ni1 Ni3 2.425630 1_554
Ni1 Ni3 2.425630 1_555
Ni1 Pt0 2.604650 1_655
Ni1 Pt0 2.604650 1_654
Ni2 Ni3 2.450484 1_565
Ni2 Ni3 2.450484 1_455
Ni2 Pt0 2.581333 1_565
Ni2 Pt0 2.581333 1_555
Ni3 Pt0 2.581328 1_655
Ni3 Pt0 2.581328 1_555
