# generated using pymatgen
data_La4Al51W7
_symmetry_space_group_name_H-M   'P 1'
_cell_length_a   10.45640803
_cell_length_b   10.45640803
_cell_length_c   11.78218500
_cell_angle_alpha   90.00000000
_cell_angle_beta   90.00000000
_cell_angle_gamma   120.00000022
_symmetry_Int_Tables_number   1
_chemical_formula_structural   La4Al51W7
_chemical_formula_sum   'La4 Al51 W7'
_cell_volume   1115.63341242
_cell_formula_units_Z   1
loop_
 _symmetry_equiv_pos_site_id
 _symmetry_equiv_pos_as_xyz
  1  'x, y, z'
loop_
 _atom_site_type_symbol
 _atom_site_label
 _atom_site_symmetry_multiplicity
 _atom_site_fract_x
 _atom_site_fract_y
 _atom_site_fract_z
 _atom_site_occupancy
  La  La0  1  0.33333300  0.66666700  0.42104700  1
  La  La1  1  0.66666700  0.33333300  0.57895300  1
  La  La2  1  0.33333300  0.66666700  0.09195000  1
  La  La3  1  0.66666700  0.33333300  0.90805000  1
  Al  Al0  1  0.09204200  0.90795800  0.39994800  1
  Al  Al1  1  0.90795800  0.09204200  0.60005200  1
  Al  Al2  1  0.09204200  0.18408400  0.39994800  1
  Al  Al3  1  0.90795800  0.81591600  0.60005200  1
  Al  Al4  1  0.81591600  0.90795800  0.39994800  1
  Al  Al5  1  0.18408400  0.09204200  0.60005200  1
  Al  Al6  1  0.57742000  0.42258000  0.34401700  1
  Al  Al7  1  0.42258000  0.57742000  0.65598300  1
  Al  Al8  1  0.57742000  0.15484000  0.34401700  1
  Al  Al9  1  0.42258000  0.84516000  0.65598300  1
  Al  Al10  1  0.84516000  0.42258000  0.34401700  1
  Al  Al11  1  0.15484000  0.57742000  0.65598300  1
  Al  Al12  1  0.15558600  0.84441400  0.04438300  1
  Al  Al13  1  0.84441400  0.15558600  0.95561700  1
  Al  Al14  1  0.15558600  0.31117200  0.04438300  1
  Al  Al15  1  0.84441400  0.68882800  0.95561700  1
  Al  Al16  1  0.68882800  0.84441400  0.04438300  1
  Al  Al17  1  0.31117200  0.15558600  0.95561700  1
  Al  Al18  1  0.90857700  0.09142300  0.16925400  1
  Al  Al19  1  0.09142300  0.90857700  0.83074600  1
  Al  Al20  1  0.90857700  0.81715400  0.16925400  1
  Al  Al21  1  0.09142300  0.18284600  0.83074600  1
  Al  Al22  1  0.18284600  0.09142300  0.16925400  1
  Al  Al23  1  0.81715400  0.90857700  0.83074600  1
  Al  Al24  1  0.75737100  0.24262900  0.14147000  1
  Al  Al25  1  0.24262900  0.75737100  0.85853000  1
  Al  Al26  1  0.75737100  0.51474200  0.14147000  1
  Al  Al27  1  0.24262900  0.48525800  0.85853000  1
  Al  Al28  1  0.48525800  0.24262900  0.14147000  1
  Al  Al29  1  0.51474200  0.75737100  0.85853000  1
  Al  Al30  1  0.50000000  0.00000000  0.00000000  1
  Al  Al31  1  0.00000000  0.50000000  0.00000000  1
  Al  Al32  1  0.50000000  0.50000000  0.00000000  1
  Al  Al33  1  0.07094800  0.40098600  0.24550600  1
  Al  Al34  1  0.92905200  0.59901400  0.75449400  1
  Al  Al35  1  0.59901400  0.66996300  0.24550600  1
  Al  Al36  1  0.40098600  0.07094800  0.75449400  1
  Al  Al37  1  0.40098600  0.33003700  0.75449400  1
  Al  Al38  1  0.59901400  0.92905200  0.24550600  1
  Al  Al39  1  0.33003700  0.92905200  0.24550600  1
  Al  Al40  1  0.66996300  0.59901400  0.75449400  1
  Al  Al41  1  0.66996300  0.07094800  0.75449400  1
  Al  Al42  1  0.33003700  0.40098600  0.24550600  1
  Al  Al43  1  0.92905200  0.33003700  0.75449400  1
  Al  Al44  1  0.07094800  0.66996300  0.24550600  1
  Al  Al45  1  0.36590600  0.00000000  0.50000000  1
  Al  Al46  1  0.63409400  0.00000000  0.50000000  1
  Al  Al47  1  0.00000000  0.36590600  0.50000000  1
  Al  Al48  1  0.00000000  0.63409400  0.50000000  1
  Al  Al49  1  0.63409400  0.63409400  0.50000000  1
  Al  Al50  1  0.36590600  0.36590600  0.50000000  1
  W  W0  1  0.83156700  0.16843300  0.34392300  1
  W  W1  1  0.16843300  0.83156700  0.65607700  1
  W  W2  1  0.83156700  0.66313300  0.34392300  1
  W  W3  1  0.16843300  0.33686700  0.65607700  1
  W  W4  1  0.33686700  0.16843300  0.34392300  1
  W  W5  1  0.66313300  0.83156700  0.65607700  1
  W  W6  1  0.00000000  0.00000000  0.00000000  1
loop_
_geom_bond_atom_site_label_1
_geom_bond_atom_site_label_2
_geom_bond_distance
_geom_bond_site_symmetry_2
Al0 W2 2.726716 1_455
Al0 W4 2.726716 1_565
Al1 W5 2.726716 1_545
Al1 W3 2.726716 1_655
Al2 W0 2.726711 1_455
Al2 W4 2.726722 1_555
Al3 W1 2.726711 1_655
Al3 W5 2.726722 1_555
Al4 W0 2.726711 1_565
Al4 W2 2.726722 1_555
Al5 W1 2.726711 1_545
Al5 W3 2.726722 1_555
Al6 W2 2.589321 1_555
Al6 W4 2.589321 1_555
Al6 La1 3.205426 1_555
Al7 W5 2.589321 1_555
Al7 W3 2.589321 1_555
Al7 La0 3.205426 1_555
Al8 W4 2.589315 1_555
Al8 W0 2.589325 1_555
Al8 La1 3.205422 1_555
Al9 W5 2.589315 1_555
Al9 W1 2.589325 1_555
Al9 La0 3.205422 1_555
Al10 W2 2.589315 1_555
Al10 W0 2.589325 1_555
Al10 La1 3.205422 1_555
Al11 W3 2.589315 1_555
Al11 W1 2.589325 1_555
Al11 La0 3.205422 1_555
Al12 Al25 2.698181 1_554
Al12 Al19 2.772404 1_554
Al12 Al39 2.848096 1_555
Al12 Al44 2.848096 1_555
Al12 Al22 2.860178 1_565
Al12 Al20 2.860178 1_455
Al12 W6 2.865934 1_565
Al12 Al15 3.005652 1_454
Al12 Al17 3.005652 1_564
Al12 La2 3.267602 1_555
Al13 Al24 2.698181 1_556
Al13 Al18 2.772404 1_556
Al13 Al43 2.848096 1_555
Al13 Al41 2.848096 1_555
Al13 Al21 2.860178 1_655
Al13 Al23 2.860178 1_545
Al13 W6 2.865934 1_656
Al13 Al14 3.005652 1_656
Al13 Al16 3.005652 1_546
Al13 La3 3.267602 1_555
Al14 Al27 2.698181 1_554
Al14 Al21 2.772404 1_554
Al14 Al42 2.848096 1_555
Al14 Al33 2.848101 1_555
Al14 Al18 2.860178 1_455
Al14 Al22 2.860178 1_555
Al14 W6 2.865934 1_555
Al14 Al17 3.005652 1_554
Al14 La2 3.267611 1_555
Al15 Al26 2.698181 1_556
Al15 Al20 2.772404 1_556
Al15 Al40 2.848096 1_555
Al15 Al34 2.848101 1_555
Al15 Al19 2.860178 1_655
Al15 Al23 2.860178 1_555
Al15 W6 2.865934 1_666
Al15 Al16 3.005652 1_556
Al15 La3 3.267611 1_555
Al16 Al29 2.698181 1_554
Al16 Al23 2.772404 1_554
Al16 Al35 2.848096 1_555
Al16 Al38 2.848101 1_555
Al16 Al18 2.860178 1_565
Al16 Al20 2.860178 1_555
Al16 W6 2.865934 1_665
Al16 La2 3.267611 1_555
Al17 Al28 2.698181 1_556
Al17 Al22 2.772404 1_556
Al17 Al37 2.848096 1_555
Al17 Al36 2.848101 1_555
Al17 Al19 2.860178 1_545
Al17 Al21 2.860178 1_555
Al17 W6 2.865934 1_556
Al17 La3 3.267611 1_555
Al18 W0 2.486074 1_555
Al18 W6 2.591972 1_655
Al19 W1 2.486074 1_555
Al19 W6 2.591972 1_566
Al20 W2 2.486079 1_555
Al20 W6 2.591972 1_665
Al21 W3 2.486079 1_555
Al21 W6 2.591972 1_556
Al22 W4 2.486079 1_555
Al22 W6 2.591972 1_555
Al23 W5 2.486079 1_555
Al23 W6 2.591972 1_666
Al24 W0 2.737800 1_555
Al24 La3 3.203465 1_554
Al25 W1 2.737800 1_555
Al25 La2 3.203465 1_556
Al26 W2 2.737795 1_555
Al26 La3 3.203470 1_554
Al27 W3 2.737795 1_555
Al27 La2 3.203470 1_556
Al28 W4 2.737795 1_555
Al28 La3 3.203470 1_554
Al29 W5 2.737795 1_555
Al29 La2 3.203470 1_556
Al30 La2 3.207031 1_545
Al30 La3 3.207031 1_554
Al31 La3 3.207031 1_454
Al31 La2 3.207031 1_555
Al32 La3 3.207040 1_554
Al32 La2 3.207040 1_555
Al33 W0 2.726962 1_455
Al33 La2 3.300971 1_555
Al33 La0 3.449753 1_555
Al34 W1 2.726962 1_655
Al34 La3 3.300971 1_555
Al34 La1 3.449753 1_555
Al35 W2 2.726972 1_555
Al35 La2 3.300971 1_555
Al35 La0 3.449753 1_555
Al36 W1 2.726962 1_545
Al36 La3 3.300971 1_555
Al36 La1 3.449753 1_555
Al37 W3 2.726972 1_555
Al37 La3 3.300971 1_555
Al37 La1 3.449753 1_555
Al38 W0 2.726962 1_565
Al38 La2 3.300971 1_555
Al38 La0 3.449753 1_555
Al39 W4 2.726953 1_565
Al39 La2 3.300971 1_555
Al39 La0 3.449753 1_555
Al40 W5 2.726972 1_555
Al40 La3 3.300971 1_555
Al40 La1 3.449753 1_555
Al41 W5 2.726953 1_545
Al41 La3 3.300971 1_555
Al41 La1 3.449753 1_555
Al42 W4 2.726972 1_555
Al42 La2 3.300971 1_555
Al42 La0 3.449753 1_555
Al43 W3 2.726953 1_655
Al43 La3 3.300971 1_555
Al43 La1 3.449753 1_555
Al44 W2 2.726953 1_455
Al44 La2 3.300971 1_555
Al44 La0 3.449753 1_555
Al45 W4 2.666547 1_555
Al45 W1 2.666552 1_545
Al45 La0 3.455819 1_545
Al45 La1 3.455823 1_555
Al46 W5 2.666547 1_545
Al46 W0 2.666552 1_555
Al46 La1 3.455819 1_555
Al46 La0 3.455823 1_545
Al47 W3 2.666547 1_555
Al47 W0 2.666552 1_455
Al47 La1 3.455819 1_455
Al47 La0 3.455823 1_555
Al48 W2 2.666547 1_455
Al48 W1 2.666552 1_555
Al48 La0 3.455819 1_555
Al48 La1 3.455823 1_455
Al49 W2 2.666555 1_555
Al49 W5 2.666555 1_555
Al49 La1 3.455829 1_555
Al49 La0 3.455829 1_555
Al50 W3 2.666555 1_555
Al50 W4 2.666555 1_555
Al50 La1 3.455829 1_555
Al50 La0 3.455829 1_555
