# generated using pymatgen
data_ZnFe3(P2O7)2
_symmetry_space_group_name_H-M   'P 1'
_cell_length_a   7.76016800
_cell_length_b   7.26040400
_cell_length_c   9.59524709
_cell_angle_alpha   69.33615397
_cell_angle_beta   90.00000000
_cell_angle_gamma   90.00000000
_symmetry_Int_Tables_number   1
_chemical_formula_structural   ZnFe3(P2O7)2
_chemical_formula_sum   'Zn2 Fe6 P8 O28'
_cell_volume   505.83553470
_cell_formula_units_Z   2
loop_
 _symmetry_equiv_pos_site_id
 _symmetry_equiv_pos_as_xyz
  1  'x, y, z'
loop_
 _atom_site_type_symbol
 _atom_site_label
 _atom_site_symmetry_multiplicity
 _atom_site_fract_x
 _atom_site_fract_y
 _atom_site_fract_z
 _atom_site_occupancy
  Zn  Zn0  1  0.00000000  0.50000000  0.00000000  1
  Zn  Zn1  1  0.50000000  0.50000000  0.50000000  1
  Fe  Fe0  1  0.13043400  0.81465900  0.51432500  1
  Fe  Fe1  1  0.63043400  0.18534100  0.98567500  1
  Fe  Fe2  1  0.86956600  0.18534100  0.48567500  1
  Fe  Fe3  1  0.36956600  0.81465900  0.01432500  1
  Fe  Fe4  1  0.00000000  0.00000000  0.00000000  1
  Fe  Fe5  1  0.50000000  0.00000000  0.50000000  1
  P  P0  1  0.93163300  0.42101600  0.70692100  1
  P  P1  1  0.43163300  0.57898400  0.79307900  1
  P  P2  1  0.06836700  0.57898400  0.29307900  1
  P  P3  1  0.56836700  0.42101600  0.20692100  1
  P  P4  1  0.20593400  0.13629200  0.68890200  1
  P  P5  1  0.70593400  0.86370800  0.81109800  1
  P  P6  1  0.79406600  0.86370800  0.31109800  1
  P  P7  1  0.29406600  0.13629200  0.18890200  1
  O  O0  1  0.37895800  0.19345100  0.60732900  1
  O  O1  1  0.87895800  0.80654900  0.89267100  1
  O  O2  1  0.62104200  0.80654900  0.39267100  1
  O  O3  1  0.12104200  0.19345100  0.10732900  1
  O  O4  1  0.39979100  0.68430200  0.62016600  1
  O  O5  1  0.89979100  0.31569800  0.87983400  1
  O  O6  1  0.60020900  0.31569800  0.37983400  1
  O  O7  1  0.10020900  0.68430200  0.12016600  1
  O  O8  1  0.79474700  0.36768900  0.61310200  1
  O  O9  1  0.29474700  0.63231100  0.88689800  1
  O  O10  1  0.20525300  0.63231100  0.38689800  1
  O  O11  1  0.70525300  0.36768900  0.11310200  1
  O  O12  1  0.11658400  0.34234100  0.67196500  1
  O  O13  1  0.61658400  0.65765900  0.82803500  1
  O  O14  1  0.88341600  0.65765900  0.32803500  1
  O  O15  1  0.38341600  0.34234100  0.17196500  1
  O  O16  1  0.53087600  0.63639500  0.17376900  1
  O  O17  1  0.03087600  0.36360500  0.32623100  1
  O  O18  1  0.46912400  0.36360500  0.82623100  1
  O  O19  1  0.96912400  0.63639500  0.67376900  1
  O  O20  1  0.78875300  0.97377100  0.14055200  1
  O  O21  1  0.28875300  0.02622900  0.35944800  1
  O  O22  1  0.21124700  0.02622900  0.85944800  1
  O  O23  1  0.71124700  0.97377100  0.64055200  1
  O  O24  1  0.41173000  0.03160500  0.11277000  1
  O  O25  1  0.91173000  0.96839500  0.38723000  1
  O  O26  1  0.58827000  0.96839500  0.88723000  1
  O  O27  1  0.08827000  0.03160500  0.61277000  1
loop_
_geom_bond_atom_site_label_1
_geom_bond_atom_site_label_2
_geom_bond_distance
_geom_bond_site_symmetry_2
Fe0 O19 2.045782 1_455
Fe0 O21 2.113366 1_565
Fe0 O27 2.128476 1_565
Fe0 O25 2.157035 1_455
Fe0 O10 2.174238 1_555
Fe0 O4 2.370219 1_555
Fe1 O18 2.045782 1_555
Fe1 O20 2.113366 1_546
Fe1 O26 2.128476 1_545
Fe1 O24 2.157035 1_556
Fe1 O11 2.174238 1_556
Fe1 O5 2.370219 1_555
Fe2 O17 2.045782 1_655
Fe2 O23 2.113366 1_545
Fe2 O25 2.128476 1_545
Fe2 O27 2.157035 1_655
Fe2 O8 2.174238 1_555
Fe2 O6 2.370219 1_555
Fe3 O16 2.045782 1_555
Fe3 O22 2.113366 1_564
Fe3 O24 2.128476 1_565
Fe3 O26 2.157035 1_554
Fe3 O9 2.174238 1_554
Fe3 O7 2.370219 1_555
Fe4 O20 2.088338 1_445
Fe4 O22 2.088338 1_554
Fe4 O3 2.221814 1_555
Fe4 O1 2.221814 1_444
Fe4 O7 2.307087 1_545
Fe4 O5 2.307087 1_454
Fe5 O23 2.088338 1_545
Fe5 O21 2.088338 1_555
Fe5 O0 2.221814 1_555
Fe5 O2 2.221814 1_545
Fe5 O6 2.307087 1_555
Fe5 O4 2.307087 1_545
O0 P4 1.535722 1_555
O0 Zn1 2.297563 1_555
O1 P5 1.535722 1_555
O1 Zn0 2.297563 1_656
O2 P6 1.535722 1_555
O2 Zn1 2.297563 1_555
O3 P7 1.535722 1_555
O3 Zn0 2.297563 1_555
O4 P1 1.582125 1_555
O4 Zn1 2.193997 1_555
O5 P0 1.582125 1_555
O5 Zn0 2.193997 1_656
O6 P3 1.582125 1_555
O6 Zn1 2.193997 1_555
O7 P2 1.582125 1_555
O7 Zn0 2.193997 1_555
O8 P0 1.527965 1_555
O8 Zn1 2.568358 1_555
O9 P1 1.527965 1_555
O9 Zn0 2.568358 1_556
O10 P2 1.527965 1_555
O10 Zn1 2.568358 1_555
O11 P3 1.527965 1_555
O11 Zn0 2.568358 1_655
O12 P4 1.604244 1_555
O12 P0 1.622944 1_455
O13 P5 1.604244 1_555
O13 P1 1.622944 1_555
O14 P6 1.604244 1_555
O14 P2 1.622944 1_655
O15 P7 1.604244 1_555
O15 P3 1.622944 1_555
O16 P3 1.509981 1_555
O17 P2 1.509981 1_555
O18 P1 1.509981 1_555
O19 P0 1.509981 1_555
O20 P6 1.547661 1_555
O21 P7 1.547661 1_555
O22 P4 1.547661 1_555
O23 P5 1.547661 1_555
O24 P7 1.528709 1_555
O25 P6 1.528709 1_555
O26 P5 1.528709 1_555
O27 P4 1.528709 1_555
