# generated using pymatgen
data_Rb2Be2Co(O3F4)2
_symmetry_space_group_name_H-M   'P 1'
_cell_length_a   6.19916758
_cell_length_b   8.15403089
_cell_length_c   11.64707500
_cell_angle_alpha   90.00000000
_cell_angle_beta   90.00000000
_cell_angle_gamma   104.42970728
_symmetry_Int_Tables_number   1
_chemical_formula_structural   Rb2Be2Co(O3F4)2
_chemical_formula_sum   'Rb4 Be4 Co2 O12 F16'
_cell_volume   570.16642220
_cell_formula_units_Z   2
loop_
 _symmetry_equiv_pos_site_id
 _symmetry_equiv_pos_as_xyz
  1  'x, y, z'
loop_
 _atom_site_type_symbol
 _atom_site_label
 _atom_site_symmetry_multiplicity
 _atom_site_fract_x
 _atom_site_fract_y
 _atom_site_fract_z
 _atom_site_occupancy
  Rb  Rb0  1  0.84981000  0.61677300  0.14809700  1
  Rb  Rb1  1  0.15019000  0.38322700  0.85190300  1
  Rb  Rb2  1  0.15019000  0.88322700  0.64809700  1
  Rb  Rb3  1  0.84981000  0.11677300  0.35190300  1
  Be  Be0  1  0.74201400  0.60281500  0.84745300  1
  Be  Be1  1  0.25798600  0.39718500  0.15254700  1
  Be  Be2  1  0.25798600  0.89718500  0.34745300  1
  Be  Be3  1  0.74201400  0.10281500  0.65254700  1
  Co  Co0  1  0.50000000  0.00000000  0.00000000  1
  Co  Co1  1  0.50000000  0.50000000  0.50000000  1
  O  O0  1  0.76750200  0.99128400  0.93666400  1
  O  O1  1  0.23249800  0.00871600  0.06333600  1
  O  O2  1  0.23249800  0.50871600  0.43666400  1
  O  O3  1  0.76750200  0.49128400  0.56333600  1
  O  O4  1  0.45756300  0.64784700  0.60626300  1
  O  O5  1  0.54243700  0.35215300  0.39373700  1
  O  O6  1  0.54243700  0.85215300  0.10626300  1
  O  O7  1  0.45756300  0.14784700  0.89373700  1
  O  O8  1  0.34680100  0.85276700  0.90014200  1
  O  O9  1  0.65319900  0.14723300  0.09985800  1
  O  O10  1  0.65319900  0.64723300  0.40014200  1
  O  O11  1  0.34680100  0.35276700  0.59985800  1
  F  F0  1  0.89739200  0.58531700  0.74554600  1
  F  F1  1  0.10260800  0.41468300  0.25445400  1
  F  F2  1  0.10260800  0.91468300  0.24554600  1
  F  F3  1  0.89739200  0.08531700  0.75445400  1
  F  F4  1  0.87061200  0.75913700  0.92550500  1
  F  F5  1  0.12938800  0.24086300  0.07449500  1
  F  F6  1  0.12938800  0.74086300  0.42550500  1
  F  F7  1  0.87061200  0.25913700  0.57449500  1
  F  F8  1  0.70621000  0.94656300  0.57289100  1
  F  F9  1  0.29379000  0.05343700  0.42710900  1
  F  F10  1  0.29379000  0.55343700  0.07289100  1
  F  F11  1  0.70621000  0.44656300  0.92710900  1
  F  F12  1  0.52357000  0.64043500  0.80114600  1
  F  F13  1  0.47643000  0.35956500  0.19885400  1
  F  F14  1  0.47643000  0.85956500  0.30114600  1
  F  F15  1  0.52357000  0.14043500  0.69885400  1
loop_
_geom_bond_atom_site_label_1
_geom_bond_atom_site_label_2
_geom_bond_distance
_geom_bond_site_symmetry_2
Be0 F11 1.546723 1_555
Be0 F0 1.557372 1_555
Be0 F12 1.557496 1_555
Be0 F4 1.606318 1_555
Be1 F10 1.546723 1_555
Be1 F1 1.557372 1_555
Be1 F13 1.557496 1_555
Be1 F5 1.606318 1_555
Be2 F9 1.546723 1_565
Be2 F2 1.557372 1_555
Be2 F14 1.557496 1_555
Be2 F6 1.606318 1_555
Be3 F8 1.546723 1_545
Be3 F3 1.557372 1_555
Be3 F15 1.557496 1_555
Be3 F7 1.606318 1_555
Co0 O8 1.768530 1_544
Co0 O9 1.768530 1_555
Co0 O6 1.792318 1_545
Co0 O7 1.792318 1_554
Co0 O0 1.832453 1_544
Co0 O1 1.832453 1_555
Co1 O10 1.768530 1_555
Co1 O11 1.768530 1_555
Co1 O4 1.792318 1_555
Co1 O5 1.792318 1_555
Co1 O3 1.832453 1_555
Co1 O2 1.832453 1_555
O4 Rb2 3.061785 1_555
O5 Rb3 3.061785 1_555
O6 Rb0 3.061785 1_555
O7 Rb1 3.061785 1_555
O8 Rb2 3.211816 1_555
O9 Rb3 3.211816 1_555
O10 Rb0 3.211816 1_555
O11 Rb1 3.211816 1_555
F0 Rb2 2.783473 1_655
F0 Rb1 2.827163 1_655
F1 Rb3 2.783473 1_455
F1 Rb0 2.827163 1_455
F2 Rb0 2.783473 1_455
F2 Rb3 2.827163 1_465
F3 Rb1 2.783473 1_655
F3 Rb2 2.827163 1_645
F4 Rb0 2.830348 1_556
F5 Rb1 2.830348 1_554
F6 Rb2 2.830348 1_555
F7 Rb3 2.830348 1_555
F8 Rb3 2.954274 1_565
F8 Rb2 3.052469 1_655
F9 Rb2 2.954274 1_545
F9 Rb3 3.052469 1_455
F10 Rb1 2.954274 1_554
F10 Rb0 3.052469 1_455
F11 Rb0 2.954274 1_556
F11 Rb1 3.052469 1_655
F12 Rb1 2.772412 1_555
F13 Rb0 2.772412 1_555
F14 Rb3 2.772412 1_565
F15 Rb2 2.772412 1_545
