# generated using pymatgen
data_V2OsW
_symmetry_space_group_name_H-M   'P 1'
_cell_length_a   4.29419457
_cell_length_b   4.29419457
_cell_length_c   4.29419457
_cell_angle_alpha   60.00000000
_cell_angle_beta   60.00000000
_cell_angle_gamma   60.00000000
_symmetry_Int_Tables_number   1
_chemical_formula_structural   V2OsW
_chemical_formula_sum   'V2 Os1 W1'
_cell_volume   55.99253851
_cell_formula_units_Z   1
loop_
 _symmetry_equiv_pos_site_id
 _symmetry_equiv_pos_as_xyz
  1  'x, y, z'
loop_
 _atom_site_type_symbol
 _atom_site_label
 _atom_site_symmetry_multiplicity
 _atom_site_fract_x
 _atom_site_fract_y
 _atom_site_fract_z
 _atom_site_occupancy
  V  V0  1  0.25000000  0.25000000  0.25000000  1
  V  V1  1  0.75000000  0.75000000  0.75000000  1
  Os  Os0  1  0.50000000  0.50000000  0.50000000  1
  W  W0  1  0.00000000  0.00000000  0.00000000  1
loop_
_geom_bond_atom_site_label_1
_geom_bond_atom_site_label_2
_geom_bond_distance
_geom_bond_site_symmetry_2
V0 W0 2.629646 1_655
V0 W0 2.629646 1_556
V0 W0 2.629646 1_555
V0 W0 2.629646 1_565
V1 W0 2.629646 1_566
V1 W0 2.629646 1_666
V1 W0 2.629646 1_665
V1 W0 2.629646 1_656
Os0 V1 2.629646 1_455
Os0 V0 2.629646 1_655
Os0 V0 2.629646 1_556
Os0 V1 2.629646 1_555
Os0 V0 2.629646 1_565
Os0 V0 2.629646 1_555
Os0 V1 2.629646 1_554
Os0 V1 2.629646 1_545
