# generated using pymatgen
data_KMg6Nb
_symmetry_space_group_name_H-M   'P 1'
_cell_length_a   6.50896025
_cell_length_b   6.50896025
_cell_length_c   5.12415500
_cell_angle_alpha   90.00000000
_cell_angle_beta   90.00000000
_cell_angle_gamma   120.00000253
_symmetry_Int_Tables_number   1
_chemical_formula_structural   KMg6Nb
_chemical_formula_sum   'K1 Mg6 Nb1'
_cell_volume   188.00790817
_cell_formula_units_Z   1
loop_
 _symmetry_equiv_pos_site_id
 _symmetry_equiv_pos_as_xyz
  1  'x, y, z'
loop_
 _atom_site_type_symbol
 _atom_site_label
 _atom_site_symmetry_multiplicity
 _atom_site_fract_x
 _atom_site_fract_y
 _atom_site_fract_z
 _atom_site_occupancy
  K  K0  1  0.66666700  0.33333300  0.00000000  1
  Mg  Mg0  1  0.69877200  0.84938600  0.00000000  1
  Mg  Mg1  1  0.15061400  0.30122800  0.00000000  1
  Mg  Mg2  1  0.15061400  0.84938600  0.00000000  1
  Mg  Mg3  1  0.01338800  0.50669400  0.50000000  1
  Mg  Mg4  1  0.49330600  0.98661200  0.50000000  1
  Mg  Mg5  1  0.49330600  0.50669400  0.50000000  1
  Nb  Nb0  1  0.00000000  0.00000000  0.50000000  1
loop_
_geom_bond_atom_site_label_1
_geom_bond_atom_site_label_2
_geom_bond_distance
_geom_bond_site_symmetry_2
K0 Mg3 3.222433 1_654
K0 Mg3 3.222433 1_655
K0 Mg4 3.222433 1_545
K0 Mg4 3.222433 1_544
K0 Mg5 3.222437 1_554
K0 Mg5 3.222437 1_555
K0 Mg0 3.259505 1_545
K0 Mg1 3.259505 1_655
K0 Mg2 3.259508 1_655
K0 Mg2 3.259508 1_545
K0 Mg0 3.259511 1_555
K0 Mg1 3.259511 1_555
Mg0 Mg1 2.941022 1_665
Mg0 Mg2 2.941022 1_655
Mg0 Nb0 3.073669 1_664
Mg0 Nb0 3.073669 1_665
Mg0 Mg5 3.216386 1_554
Mg0 Mg5 3.216386 1_555
Mg0 Mg4 3.216386 1_555
Mg0 Mg4 3.216386 1_554
Mg1 Mg2 2.941022 1_545
Mg1 Nb0 3.073669 1_555
Mg1 Nb0 3.073669 1_554
Mg1 Mg5 3.216386 1_554
Mg1 Mg5 3.216386 1_555
Mg1 Mg3 3.216386 1_555
Mg1 Mg3 3.216386 1_554
Mg2 Nb0 3.073669 1_565
Mg2 Nb0 3.073669 1_564
Mg2 Mg4 3.216386 1_555
Mg2 Mg4 3.216386 1_554
Mg2 Mg3 3.216386 1_554
Mg2 Mg3 3.216386 1_555
Mg3 Mg4 3.123767 1_555
Mg3 Mg5 3.123767 1_555
Mg3 Nb0 3.255355 1_555
Mg3 Nb0 3.255355 1_565
Mg3 Mg4 3.385193 1_445
Mg3 Mg5 3.385193 1_455
Mg4 Mg5 3.123767 1_555
Mg4 Nb0 3.255355 1_665
Mg4 Nb0 3.255355 1_565
Mg4 Mg5 3.385193 1_565
Mg5 Nb0 3.255355 1_555
Mg5 Nb0 3.255355 1_665
