# generated using pymatgen
data_Li7Mn4CoO12
_symmetry_space_group_name_H-M   'P 1'
_cell_length_a   2.88382706
_cell_length_b   29.13950197
_cell_length_c   5.18861001
_cell_angle_alpha   88.00387145
_cell_angle_beta   90.01933732
_cell_angle_gamma   89.99454053
_symmetry_Int_Tables_number   1
_chemical_formula_structural   Li7Mn4CoO12
_chemical_formula_sum   'Li14 Mn8 Co2 O24'
_cell_volume   435.75133082
_cell_formula_units_Z   2
loop_
 _symmetry_equiv_pos_site_id
 _symmetry_equiv_pos_as_xyz
  1  'x, y, z'
loop_
 _atom_site_type_symbol
 _atom_site_label
 _atom_site_symmetry_multiplicity
 _atom_site_fract_x
 _atom_site_fract_y
 _atom_site_fract_z
 _atom_site_occupancy
  Li  Li0  1  0.00124500  0.08256900  0.66288900  1
  Li  Li1  1  0.99989100  0.58828200  0.68481200  1
  Li  Li2  1  0.49319300  0.32640300  0.14607100  1
  Li  Li3  1  0.49999400  0.83402300  0.16788500  1
  Li  Li4  1  0.50180500  0.08396300  0.17004100  1
  Li  Li5  1  0.50038900  0.58310600  0.16423600  1
  Li  Li6  1  0.50059000  0.00430600  0.51143700  1
  Li  Li7  1  0.50061900  0.50540200  0.49258800  1
  Li  Li8  1  0.50216200  0.16215000  0.83564300  1
  Li  Li9  1  0.50006000  0.66339800  0.82208100  1
  Li  Li10  1  0.99844000  0.24911200  0.98127600  1
  Li  Li11  1  0.99999800  0.75132300  0.98617500  1
  Li  Li12  1  0.99699500  0.41587700  0.35468500  1
  Li  Li13  1  0.99996200  0.91767200  0.35175000  1
  Mn  Mn0  1  0.00120100  0.50309900  0.00938700  1
  Mn  Mn1  1  0.00363300  0.16340000  0.31120200  1
  Mn  Mn2  1  0.49970800  0.25037500  0.49123600  1
  Mn  Mn3  1  0.49779600  0.41741800  0.84804900  1
  Mn  Mn4  1  0.00051100  0.00407200  0.03864400  1
  Mn  Mn5  1  0.00007000  0.66231700  0.29464800  1
  Mn  Mn6  1  0.49985700  0.74897400  0.47914500  1
  Mn  Mn7  1  0.49985700  0.91733000  0.85544300  1
  Co  Co0  1  0.99998000  0.83316100  0.66739500  1
  Co  Co1  1  0.99758300  0.33337100  0.67150100  1
  O  O0  1  0.50038100  0.46152100  0.14135800  1
  O  O1  1  0.50044200  0.96443000  0.18163800  1
  O  O2  1  0.50333300  0.20327200  0.17197800  1
  O  O3  1  0.50001300  0.70127000  0.15122400  1
  O  O4  1  0.00079000  0.03911500  0.32148400  1
  O  O5  1  0.00056700  0.53585400  0.29702800  1
  O  O6  1  0.00249400  0.12881800  0.02668800  1
  O  O7  1  0.00008300  0.62672800  0.01071800  1
  O  O8  1  0.50365700  0.12984300  0.48308600  1
  O  O9  1  0.50010900  0.62848500  0.46856200  1
  O  O10  1  0.50050200  0.03725300  0.86484700  1
  O  O11  1  0.50135200  0.53669600  0.84309600  1
  O  O12  1  0.00525800  0.20986200  0.61923900  1
  O  O13  1  0.00001700  0.70783500  0.60460300  1
  O  O14  1  0.00144600  0.45684500  0.70788400  1
  O  O15  1  0.99994200  0.95742000  0.72477500  1
  O  O16  1  0.99474900  0.38192800  0.00961500  1
  O  O17  1  0.99985900  0.87855500  0.99919000  1
  O  O18  1  0.99453300  0.28898400  0.33765800  1
  O  O19  1  0.99989500  0.78692600  0.33229500  1
  O  O20  1  0.49758100  0.29133300  0.81777800  1
  O  O21  1  0.49980300  0.79488600  0.81355000  1
  O  O22  1  0.49748000  0.38044200  0.55503400  1
  O  O23  1  0.50017400  0.87059300  0.51845500  1
loop_
_geom_bond_atom_site_label_1
_geom_bond_atom_site_label_2
_geom_bond_distance
_geom_bond_site_symmetry_2
Li0 O8 2.176297 1_455
Li0 O8 2.186083 1_555
Li0 O10 2.194744 1_555
Li0 O10 2.198187 1_455
Li0 O4 2.213032 1_555
Li0 O6 2.357228 1_556
Li1 O7 2.060708 1_656
Li1 O9 2.148415 1_555
Li1 O9 2.149916 1_655
Li1 O11 2.217264 1_555
Li1 O11 2.222192 1_655
Li1 O5 2.568360 1_655
Li2 O20 2.016750 1_554
Li2 O18 2.042260 1_455
Li2 O18 2.047090 1_555
Li2 O16 2.259287 1_455
Li2 O16 2.265508 1_555
Li3 O17 2.109481 1_454
Li3 O17 2.109522 1_554
Li3 O23 2.139920 1_555
Li3 O19 2.146316 1_555
Li3 O19 2.147262 1_455
Li3 O21 2.196988 1_554
Li4 O6 2.065480 1_555
Li4 O6 2.068776 1_655
Li4 O4 2.079260 1_655
Li4 O4 2.083856 1_555
Li4 O10 2.123758 1_554
Li4 O8 2.139370 1_555
Li5 O7 2.063346 1_655
Li5 O7 2.064034 1_555
Li5 O5 2.093603 1_555
Li5 O5 2.093810 1_655
Li5 O9 2.094594 1_555
Li5 O11 2.182278 1_554
Li6 O4 2.001700 1_555
Li6 O4 2.003149 1_655
Li6 O10 2.099246 1_555
Li6 O1 2.101638 1_545
Li6 O15 2.249180 1_545
Li6 O15 2.252220 1_445
Li7 O5 1.957697 1_555
Li7 O5 1.958105 1_655
Li7 O11 2.062660 1_555
Li7 O0 2.262401 1_555
Li7 O14 2.283310 1_555
Li7 O14 2.285675 1_655
Li8 O6 1.984058 1_556
Li8 O6 1.984829 1_656
Li8 O8 2.086268 1_555
Li8 O2 2.151037 1_556
Li8 O12 2.266481 1_555
Li8 O12 2.278460 1_655
Li9 O7 2.026072 1_656
Li9 O7 2.026593 1_556
Li9 O3 2.065363 1_556
Li9 O9 2.128274 1_555
Li9 O13 2.219511 1_555
Li9 O13 2.220005 1_655
Li10 O20 2.057602 1_655
Li10 O20 2.060506 1_555
Li10 O2 2.170523 1_556
Li10 O2 2.188583 1_656
Li10 O18 2.217876 1_556
Li10 O12 2.233121 1_655
Li11 O21 2.100748 1_655
Li11 O21 2.100939 1_555
Li11 O19 2.105064 1_556
Li11 O3 2.202646 1_656
Li11 O3 2.203150 1_556
Li11 O13 2.387539 1_655
Li12 O22 2.036764 1_555
Li12 O22 2.038108 1_655
Li12 O16 2.075501 1_555
Li12 O14 2.221745 1_655
Li12 O0 2.222889 1_555
Li12 O0 2.236167 1_655
Li13 O1 2.150720 1_555
Li13 O23 2.150830 1_555
Li13 O23 2.151083 1_655
Li13 O1 2.153148 1_655
Li13 O17 2.188799 1_554
Li13 O15 2.289928 1_555
Mn0 O5 1.799353 1_555
Mn0 O11 1.928938 1_454
Mn0 O11 1.930164 1_554
Mn0 O0 1.987528 1_555
Mn0 O0 1.991458 1_455
Mn0 O14 2.100189 1_554
Mn1 O6 1.816140 1_555
Mn1 O8 1.941382 1_555
Mn1 O8 1.941864 1_455
Mn1 O2 1.972537 1_555
Mn1 O2 1.973283 1_455
Mn1 O12 2.130320 1_555
Mn2 O12 1.953025 1_555
Mn2 O18 1.968662 1_555
Mn2 O12 1.976026 1_655
Mn2 O18 1.989858 1_455
Mn2 O20 2.106180 1_555
Mn2 O2 2.187792 1_555
Mn3 O22 1.893800 1_555
Mn3 O16 1.940259 1_556
Mn3 O16 1.953839 1_456
Mn3 O14 1.959206 1_555
Mn3 O14 1.975157 1_655
Mn3 O0 2.025823 1_556
Mn4 O4 1.816812 1_555
Mn4 O10 1.940448 1_454
Mn4 O10 1.940999 1_554
Mn4 O1 1.975510 1_545
Mn4 O1 1.976326 1_445
Mn4 O15 2.157405 1_444
Mn5 O7 1.830907 1_555
Mn5 O9 1.949997 1_555
Mn5 O9 1.950420 1_455
Mn5 O3 1.965168 1_455
Mn5 O3 1.965454 1_555
Mn5 O13 2.119973 1_555
Mn6 O19 1.955156 1_455
Mn6 O19 1.955852 1_555
Mn6 O13 1.971084 1_555
Mn6 O13 1.971271 1_655
Mn6 O21 2.227582 1_555
Mn6 O3 2.234280 1_555
Mn7 O15 1.961278 1_455
Mn7 O15 1.962139 1_555
Mn7 O17 1.962731 1_555
Mn7 O17 1.963251 1_455
Mn7 O1 2.215864 1_556
Mn7 O23 2.253418 1_555
Co0 O23 1.950557 1_555
Co0 O23 1.951922 1_655
Co0 O21 1.958746 1_655
Co0 O21 1.960030 1_555
Co0 O17 2.207279 1_555
Co0 O19 2.236381 1_555
Co1 O20 2.022335 1_655
Co1 O20 2.022875 1_555
Co1 O22 2.065866 1_555
Co1 O22 2.065918 1_655
Co1 O18 2.197617 1_555
Co1 O16 2.291884 1_556
