# generated using pymatgen
data_HoCo4Ni
_symmetry_space_group_name_H-M   'P 1'
_cell_length_a   4.90620820
_cell_length_b   4.90620820
_cell_length_c   3.94013300
_cell_angle_alpha   90.00000000
_cell_angle_beta   90.00000000
_cell_angle_gamma   120.00000275
_symmetry_Int_Tables_number   1
_chemical_formula_structural   HoCo4Ni
_chemical_formula_sum   'Ho1 Co4 Ni1'
_cell_volume   82.13598130
_cell_formula_units_Z   1
loop_
 _symmetry_equiv_pos_site_id
 _symmetry_equiv_pos_as_xyz
  1  'x, y, z'
loop_
 _atom_site_type_symbol
 _atom_site_label
 _atom_site_symmetry_multiplicity
 _atom_site_fract_x
 _atom_site_fract_y
 _atom_site_fract_z
 _atom_site_occupancy
  Ho  Ho0  1  0.33333300  0.66666700  0.00000000  1
  Co  Co0  1  0.00000000  0.00000000  0.00000000  1
  Co  Co1  1  0.33639000  0.16819500  0.50000000  1
  Co  Co2  1  0.83180500  0.16819500  0.50000000  1
  Co  Co3  1  0.83180500  0.66361000  0.50000000  1
  Ni  Ni0  1  0.66666700  0.33333300  0.00000000  1
loop_
_geom_bond_atom_site_label_1
_geom_bond_atom_site_label_2
_geom_bond_distance
_geom_bond_site_symmetry_2
Ho0 Ni0 2.832598 1_455
Ho0 Ni0 2.832598 1_565
Ho0 Ni0 2.832606 1_555
Co0 Co3 2.433932 1_444
Co0 Co1 2.433932 1_554
Co0 Co3 2.433932 1_445
Co0 Co1 2.433932 1_555
Co0 Co2 2.433932 1_455
Co0 Co2 2.433932 1_454
Co0 Ni0 2.832598 1_455
Co0 Ho0 2.832598 1_545
Co0 Ho0 2.832602 1_445
Co0 Ho0 2.832602 1_555
Co0 Ni0 2.832602 1_445
Co0 Ni0 2.832602 1_555
Co1 Ni0 2.418771 1_556
Co1 Ni0 2.418771 1_555
Co1 Co3 2.430609 1_555
Co1 Co2 2.430609 1_555
Co1 Co3 2.475599 1_445
Co1 Co2 2.475599 1_455
Co1 Ho0 3.146274 1_545
Co1 Ho0 3.146274 1_546
Co1 Ho0 3.146278 1_555
Co1 Ho0 3.146278 1_556
Co2 Ni0 2.418768 1_556
Co2 Ni0 2.418768 1_555
Co2 Co3 2.430609 1_555
Co2 Co3 2.475599 1_545
Co2 Ho0 3.146276 1_546
Co2 Ho0 3.146276 1_655
Co2 Ho0 3.146276 1_656
Co2 Ho0 3.146276 1_545
Co3 Ni0 2.418771 1_556
Co3 Ni0 2.418771 1_555
Co3 Ho0 3.146274 1_655
Co3 Ho0 3.146274 1_656
Co3 Ho0 3.146278 1_556
Co3 Ho0 3.146278 1_555
