# generated using pymatgen
data_Ce2BPd6
_symmetry_space_group_name_H-M   'P 1'
_cell_length_a   4.36615500
_cell_length_b   4.36615500
_cell_length_c   8.23623200
_cell_angle_alpha   90.00000000
_cell_angle_beta   90.00000000
_cell_angle_gamma   90.00000000
_symmetry_Int_Tables_number   1
_chemical_formula_structural   Ce2BPd6
_chemical_formula_sum   'Ce2 B1 Pd6'
_cell_volume   157.00983960
_cell_formula_units_Z   1
loop_
 _symmetry_equiv_pos_site_id
 _symmetry_equiv_pos_as_xyz
  1  'x, y, z'
loop_
 _atom_site_type_symbol
 _atom_site_label
 _atom_site_symmetry_multiplicity
 _atom_site_fract_x
 _atom_site_fract_y
 _atom_site_fract_z
 _atom_site_occupancy
  Ce  Ce0  1  0.00000000  0.00000000  0.99632900  1
  Ce  Ce1  1  0.00000000  0.00000000  0.50367100  1
  B  B0  1  0.50000000  0.50000000  0.25000000  1
  Pd  Pd0  1  0.50000000  0.50000000  0.98759400  1
  Pd  Pd1  1  0.50000000  0.50000000  0.51240600  1
  Pd  Pd2  1  0.50000000  0.00000000  0.25000000  1
  Pd  Pd3  1  0.50000000  0.00000000  0.75000000  1
  Pd  Pd4  1  0.00000000  0.50000000  0.25000000  1
  Pd  Pd5  1  0.00000000  0.50000000  0.75000000  1
loop_
_geom_bond_atom_site_label_1
_geom_bond_atom_site_label_2
_geom_bond_distance
_geom_bond_site_symmetry_2
Ce0 Pd5 2.980260 1_545
Ce0 Pd3 2.980260 1_455
Ce0 Pd3 2.980260 1_555
Ce0 Pd5 2.980260 1_555
Ce0 Pd2 3.021750 1_556
Ce0 Pd4 3.021750 1_546
Ce0 Pd2 3.021750 1_456
Ce0 Pd4 3.021750 1_556
Ce0 Pd0 3.088176 1_455
Ce0 Pd0 3.088176 1_555
Ce0 Pd0 3.088176 1_545
Ce0 Pd0 3.088176 1_445
Ce1 Pd3 2.980260 1_455
Ce1 Pd3 2.980260 1_555
Ce1 Pd5 2.980260 1_555
Ce1 Pd5 2.980260 1_545
Ce1 Pd4 3.021750 1_555
Ce1 Pd2 3.021750 1_455
Ce1 Pd4 3.021750 1_545
Ce1 Pd2 3.021750 1_555
Ce1 Pd1 3.088176 1_545
Ce1 Pd1 3.088176 1_445
Ce1 Pd1 3.088176 1_455
Ce1 Pd1 3.088176 1_555
B0 Pd0 2.161237 1_554
B0 Pd1 2.161237 1_555
B0 Pd4 2.183078 1_555
B0 Pd4 2.183078 1_655
B0 Pd2 2.183078 1_565
B0 Pd2 2.183078 1_555
