# generated using pymatgen
data_Hf3Bi
_symmetry_space_group_name_H-M   'P 1'
_cell_length_a   6.32864222
_cell_length_b   6.32864222
_cell_length_c   5.23479300
_cell_angle_alpha   90.00000000
_cell_angle_beta   90.00000000
_cell_angle_gamma   120.00000232
_symmetry_Int_Tables_number   1
_chemical_formula_structural   Hf3Bi
_chemical_formula_sum   'Hf6 Bi2'
_cell_volume   181.57298079
_cell_formula_units_Z   2
loop_
 _symmetry_equiv_pos_site_id
 _symmetry_equiv_pos_as_xyz
  1  'x, y, z'
loop_
 _atom_site_type_symbol
 _atom_site_label
 _atom_site_symmetry_multiplicity
 _atom_site_fract_x
 _atom_site_fract_y
 _atom_site_fract_z
 _atom_site_occupancy
  Hf  Hf0  1  0.16224800  0.32449500  0.25000000  1
  Hf  Hf1  1  0.67550500  0.83775200  0.25000000  1
  Hf  Hf2  1  0.16224800  0.83775200  0.25000000  1
  Hf  Hf3  1  0.83775200  0.67550500  0.75000000  1
  Hf  Hf4  1  0.32449500  0.16224800  0.75000000  1
  Hf  Hf5  1  0.83775200  0.16224800  0.75000000  1
  Bi  Bi0  1  0.33333300  0.66666700  0.75000000  1
  Bi  Bi1  1  0.66666700  0.33333300  0.25000000  1
loop_
_geom_bond_atom_site_label_1
_geom_bond_atom_site_label_2
_geom_bond_distance
_geom_bond_site_symmetry_2
Hf0 Hf1 3.080422 1_445
Hf0 Hf2 3.080422 1_545
Hf0 Hf4 3.164449 1_555
Hf0 Hf4 3.164449 1_554
Hf0 Hf5 3.164455 1_454
Hf0 Hf5 3.164455 1_455
Hf0 Hf1 3.248220 1_555
Hf0 Hf2 3.248220 1_555
Hf1 Hf2 3.080422 1_655
Hf1 Hf3 3.164449 1_554
Hf1 Hf3 3.164449 1_555
Hf1 Hf5 3.164455 1_564
Hf1 Hf5 3.164455 1_565
Hf1 Hf2 3.248220 1_555
Hf2 Hf4 3.164455 1_564
Hf2 Hf4 3.164455 1_565
Hf2 Hf3 3.164455 1_455
Hf2 Hf3 3.164455 1_454
Hf3 Hf4 3.080422 1_665
Hf3 Hf5 3.080422 1_565
Hf3 Hf4 3.248220 1_555
Hf3 Hf5 3.248220 1_555
Hf4 Hf5 3.080422 1_455
Hf4 Hf5 3.248220 1_555
Bi0 Hf5 3.164692 1_455
Bi0 Hf5 3.164692 1_565
Bi0 Hf4 3.164692 1_555
Bi0 Hf3 3.164692 1_555
Bi0 Hf4 3.164692 1_565
Bi0 Hf3 3.164692 1_455
Bi0 Hf2 3.219894 1_556
Bi0 Hf2 3.219894 1_555
Bi0 Hf1 3.219900 1_555
Bi0 Hf0 3.219900 1_555
Bi0 Hf0 3.219900 1_556
Bi0 Hf1 3.219900 1_556
Bi1 Hf2 3.164692 1_545
Bi1 Hf2 3.164692 1_655
Bi1 Hf0 3.164692 1_555
Bi1 Hf1 3.164692 1_555
Bi1 Hf0 3.164692 1_655
Bi1 Hf1 3.164692 1_545
Bi1 Hf5 3.219894 1_554
Bi1 Hf5 3.219894 1_555
Bi1 Hf3 3.219900 1_554
Bi1 Hf3 3.219900 1_555
Bi1 Hf4 3.219900 1_555
Bi1 Hf4 3.219900 1_554
