# generated using pymatgen
data_Li2TiV3O8
_symmetry_space_group_name_H-M   'P 1'
_cell_length_a   5.91867617
_cell_length_b   9.57008075
_cell_length_c   5.96677865
_cell_angle_alpha   90.01697114
_cell_angle_beta   119.89929257
_cell_angle_gamma   89.65929698
_symmetry_Int_Tables_number   1
_chemical_formula_structural   Li2TiV3O8
_chemical_formula_sum   'Li4 Ti2 V6 O16'
_cell_volume   292.98192675
_cell_formula_units_Z   2
loop_
 _symmetry_equiv_pos_site_id
 _symmetry_equiv_pos_as_xyz
  1  'x, y, z'
loop_
 _atom_site_type_symbol
 _atom_site_label
 _atom_site_symmetry_multiplicity
 _atom_site_fract_x
 _atom_site_fract_y
 _atom_site_fract_z
 _atom_site_occupancy
  Li  Li0  1  0.66086400  0.89417500  0.33413400  1
  Li  Li1  1  0.32820300  0.39478200  0.66714900  1
  Li  Li2  1  0.01286900  0.99417000  0.00506900  1
  Li  Li3  1  0.00653300  0.49434200  0.99449200  1
  Ti  Ti0  1  0.68074700  0.49566500  0.34178000  1
  Ti  Ti1  1  0.33360500  0.99635600  0.66397600  1
  V  V0  1  0.82768500  0.21214100  0.16970200  1
  V  V1  1  0.65615900  0.71351300  0.82744100  1
  V  V2  1  0.17425600  0.71106400  0.34244100  1
  V  V3  1  0.82635400  0.21258600  0.65621400  1
  V  V4  1  0.17721500  0.72264000  0.82937900  1
  V  V5  1  0.34861400  0.22240900  0.17346100  1
  O  O0  1  0.83763000  0.59439500  0.16889300  1
  O  O1  1  0.66606900  0.09499700  0.83215000  1
  O  O2  1  0.51475300  0.34244200  0.03834700  1
  O  O3  1  0.46943000  0.84646900  0.96066000  1
  O  O4  1  0.63657800  0.10117300  0.31782700  1
  O  O5  1  0.32730600  0.60260200  0.68768900  1
  O  O6  1  0.01848800  0.30705300  0.00797900  1
  O  O7  1  0.00288700  0.80635300  0.98687600  1
  O  O8  1  0.34057900  0.59822900  0.17271900  1
  O  O9  1  0.16556600  0.09680100  0.82485000  1
  O  O10  1  0.95656000  0.34178400  0.47681400  1
  O  O11  1  0.48031700  0.84169000  0.52505200  1
  O  O12  1  0.51279200  0.34282800  0.47527200  1
  O  O13  1  0.03796000  0.84069900  0.52286300  1
  O  O14  1  0.16572500  0.09388900  0.33759600  1
  O  O15  1  0.83455400  0.59259400  0.65917500  1
loop_
_geom_bond_atom_site_label_1
_geom_bond_atom_site_label_2
_geom_bond_distance
_geom_bond_site_symmetry_2
Li0 O11 1.977933 1_555
Li0 O4 1.984244 1_565
Li0 O3 1.986575 1_554
Li0 O13 1.998121 1_655
Li1 O10 1.976832 1_455
Li1 O2 1.982834 1_556
Li1 O5 1.992729 1_555
Li1 O12 1.997947 1_555
Li2 O7 1.800211 1_554
Li2 O14 1.971168 1_565
Li2 O9 1.979362 1_564
Li2 O1 2.018528 1_464
Li3 O6 1.793593 1_556
Li3 O15 1.970445 1_455
Li3 O8 1.988701 1_556
Li3 O0 2.006044 1_456
O0 Ti0 1.945519 1_555
O0 V2 2.063354 1_655
O0 V1 2.099816 1_554
O1 Ti1 1.955272 1_545
O1 V3 2.067520 1_555
O1 V0 2.078243 1_556
O2 V5 1.934105 1_555
O2 V0 2.031156 1_555
O2 Ti0 2.153049 1_555
O3 V4 1.918953 1_555
O3 V1 2.081056 1_555
O3 Ti1 2.099201 1_555
O4 V5 1.872547 1_555
O4 V0 2.049347 1_555
O4 V3 2.056006 1_555
O5 V4 1.886695 1_555
O5 V1 2.004072 1_555
O5 V2 2.066728 1_555
O6 V5 1.872735 1_555
O6 V0 2.032401 1_455
O6 V3 2.036525 1_454
O7 V4 1.883067 1_555
O7 V1 1.995165 1_455
O7 V2 2.050923 1_556
O8 Ti0 1.996716 1_555
O8 V2 2.035006 1_555
O8 V4 2.135964 1_554
O9 Ti1 1.942799 1_545
O9 V3 2.057009 1_455
O9 V5 2.170900 1_556
O10 V0 2.023733 1_555
O10 V3 2.025598 1_555
O10 Ti0 2.035584 1_555
O11 V1 1.989311 1_555
O11 V2 2.022320 1_555
O11 Ti1 2.081734 1_555
O12 V5 1.944952 1_555
O12 V3 2.034497 1_555
O12 Ti0 2.137607 1_555
O13 V4 1.946305 1_555
O13 V2 2.049857 1_555
O13 Ti1 2.133379 1_555
O14 Ti1 1.926643 1_545
O14 V0 2.064655 1_455
O14 V5 2.171880 1_555
O15 Ti0 1.888385 1_555
O15 V1 2.122178 1_555
O15 V4 2.160866 1_655
