# generated using pymatgen
data_BaNd2NiO5
_symmetry_space_group_name_H-M   'P 1'
_cell_length_a   3.86405804
_cell_length_b   5.98710184
_cell_length_c   6.89677969
_cell_angle_alpha   64.27895483
_cell_angle_beta   73.73117386
_cell_angle_gamma   90.00193309
_symmetry_Int_Tables_number   1
_chemical_formula_structural   BaNd2NiO5
_chemical_formula_sum   'Ba1 Nd2 Ni1 O5'
_cell_volume   136.61773150
_cell_formula_units_Z   1
loop_
 _symmetry_equiv_pos_site_id
 _symmetry_equiv_pos_as_xyz
  1  'x, y, z'
loop_
 _atom_site_type_symbol
 _atom_site_label
 _atom_site_symmetry_multiplicity
 _atom_site_fract_x
 _atom_site_fract_y
 _atom_site_fract_z
 _atom_site_occupancy
  Ba  Ba0  1  0.50000000  0.50000000  0.99999900  1
  Nd  Nd0  1  0.29729800  0.79727500  0.40548900  1
  Nd  Nd1  1  0.70269900  0.20272200  0.59451300  1
  Ni  Ni0  1  0.00000100  0.00000000  0.99999900  1
  O  O0  1  0.50000100  0.00000100  0.99999900  1
  O  O1  1  0.14505600  0.90353100  0.70990800  1
  O  O2  1  0.85494300  0.09646900  0.29009200  1
  O  O3  1  0.85494200  0.61343800  0.29009800  1
  O  O4  1  0.14505900  0.38656300  0.70990000  1
loop_
_geom_bond_atom_site_label_1
_geom_bond_atom_site_label_2
_geom_bond_distance
_geom_bond_site_symmetry_2
Ba0 O0 2.993545 1_555
Ba0 O0 2.993557 1_565
Ba0 O4 3.010338 1_555
Ba0 O3 3.010343 1_556
Ba0 O4 3.010390 1_655
Ba0 O3 3.010390 1_456
Ba0 O1 3.010400 1_655
Ba0 O2 3.010404 1_456
Ba0 O1 3.010477 1_555
Ba0 O2 3.010481 1_556
Nd0 O1 2.371928 1_555
Nd0 O4 2.372192 1_555
Nd0 O0 2.394567 1_564
Nd0 O2 2.507327 1_565
Nd0 O3 2.507479 1_555
Nd0 O3 2.507740 1_455
Nd0 O2 2.507750 1_465
Nd1 O2 2.371929 1_555
Nd1 O3 2.372218 1_555
Nd1 O0 2.394543 1_555
Nd1 O1 2.507314 1_545
Nd1 O4 2.507474 1_555
Nd1 O1 2.507743 1_645
Nd1 O4 2.507747 1_655
Ni0 O0 1.932029 1_555
Ni0 O0 1.932029 1_455
Ni0 O1 2.241702 1_545
Ni0 O2 2.241715 1_456
Ni0 O3 2.241862 1_446
Ni0 O4 2.241866 1_555
