# generated using pymatgen
data_SrUI6
_symmetry_space_group_name_H-M   'P 1'
_cell_length_a   7.97660775
_cell_length_b   7.97533651
_cell_length_c   14.69300157
_cell_angle_alpha   83.78592943
_cell_angle_beta   83.73722285
_cell_angle_gamma   119.27169159
_symmetry_Int_Tables_number   1
_chemical_formula_structural   SrUI6
_chemical_formula_sum   'Sr2 U2 I12'
_cell_volume   796.29678373
_cell_formula_units_Z   2
loop_
 _symmetry_equiv_pos_site_id
 _symmetry_equiv_pos_as_xyz
  1  'x, y, z'
loop_
 _atom_site_type_symbol
 _atom_site_label
 _atom_site_symmetry_multiplicity
 _atom_site_fract_x
 _atom_site_fract_y
 _atom_site_fract_z
 _atom_site_occupancy
  Sr  Sr0  1  0.08388079  0.91533897  0.25018830  1
  Sr  Sr1  1  0.91611921  0.08466103  0.74981170  1
  U  U0  1  0.41885500  0.58061383  0.25022875  1
  U  U1  1  0.58114500  0.41938617  0.74977125  1
  I  I0  1  0.31867839  0.46528835  0.62870301  1
  I  I1  1  0.46498393  0.31788193  0.12909019  1
  I  I2  1  0.22827042  0.06611472  0.87316912  1
  I  I3  1  0.06479988  0.22800094  0.37351472  1
  I  I4  1  0.16258006  0.63177659  0.12609500  1
  I  I5  1  0.63232781  0.16251151  0.62589070  1
  I  I6  1  0.36767219  0.83748849  0.37410930  1
  I  I7  1  0.83741994  0.36822341  0.87390500  1
  I  I8  1  0.77172958  0.93388528  0.12683088  1
  I  I9  1  0.93520012  0.77199906  0.62648528  1
  I  I10  1  0.53501607  0.68211807  0.87090981  1
  I  I11  1  0.68132161  0.53471165  0.37129699  1
loop_
_geom_bond_atom_site_label_1
_geom_bond_atom_site_label_2
_geom_bond_distance
_geom_bond_site_symmetry_2
I0 U1 3.017040 1_555
I0 Sr1 3.277825 1_455
I1 U0 3.018685 1_555
I1 Sr0 3.279216 1_545
I2 U1 3.028799 1_555
I2 Sr1 3.285327 1_455
I3 U0 3.029870 1_555
I3 Sr0 3.288428 1_545
I4 U0 3.023227 1_555
I4 Sr0 3.296082 1_555
I5 U1 3.023209 1_555
I5 Sr1 3.294535 1_555
I6 U0 3.023209 1_555
I6 Sr0 3.294535 1_555
I7 U1 3.023227 1_555
I7 Sr1 3.296082 1_555
I8 U0 3.028799 1_555
I8 Sr0 3.285327 1_655
I9 U1 3.029870 1_555
I9 Sr1 3.288428 1_565
I10 U1 3.018685 1_555
I10 Sr1 3.279216 1_565
I11 U0 3.017040 1_555
I11 Sr0 3.277825 1_655
