# generated using pymatgen
data_Ag2BiSbTe4
_symmetry_space_group_name_H-M   'P 1'
_cell_length_a   7.55702211
_cell_length_b   7.55702211
_cell_length_c   7.55702211
_cell_angle_alpha   131.59455421
_cell_angle_beta   131.59455421
_cell_angle_gamma   70.87014316
_symmetry_Int_Tables_number   1
_chemical_formula_structural   Ag2BiSbTe4
_chemical_formula_sum   'Ag2 Bi1 Sb1 Te4'
_cell_volume   236.39877161
_cell_formula_units_Z   1
loop_
 _symmetry_equiv_pos_site_id
 _symmetry_equiv_pos_as_xyz
  1  'x, y, z'
loop_
 _atom_site_type_symbol
 _atom_site_label
 _atom_site_symmetry_multiplicity
 _atom_site_fract_x
 _atom_site_fract_y
 _atom_site_fract_z
 _atom_site_occupancy
  Ag  Ag0  1  0.50000000  0.50000000  0.00000000  1
  Ag  Ag1  1  0.25000000  0.75000000  0.50000000  1
  Bi  Bi0  1  0.00000000  0.00000000  0.00000000  1
  Sb  Sb0  1  0.75000000  0.25000000  0.50000000  1
  Te  Te0  1  0.00016900  0.50016900  0.50000000  1
  Te  Te1  1  0.74566400  0.74566400  0.00000000  1
  Te  Te2  1  0.49983100  0.99983100  0.50000000  1
  Te  Te3  1  0.25433600  0.25433600  0.00000000  1
loop_
_geom_bond_atom_site_label_1
_geom_bond_atom_site_label_2
_geom_bond_distance
_geom_bond_site_symmetry_2
Ag0 Te3 3.025233 1_555
Ag0 Te1 3.025233 1_555
Ag0 Te2 3.098126 1_544
Ag0 Te0 3.098126 1_554
Ag0 Te2 3.098126 1_555
Ag0 Te0 3.098126 1_655
Ag1 Te0 3.076548 1_555
Ag1 Te2 3.076548 1_555
Ag1 Te3 3.098585 1_566
Ag1 Te1 3.098585 1_556
Ag1 Te1 3.098585 1_455
Ag1 Te3 3.098585 1_555
Bi0 Te0 3.098126 1_544
Bi0 Te0 3.098126 1_555
Bi0 Te2 3.098126 1_444
Bi0 Te2 3.098126 1_545
Bi0 Te1 3.132025 1_445
Bi0 Te3 3.132025 1_555
Sb0 Te2 3.080710 1_545
Sb0 Te0 3.080710 1_655
Sb0 Te3 3.098585 1_656
Sb0 Te1 3.098585 1_556
Sb0 Te1 3.098585 1_545
Sb0 Te3 3.098585 1_555
