# generated using pymatgen
data_Zn3Si3(MoO6)2
_symmetry_space_group_name_H-M   'P 1'
_cell_length_a   10.49227362
_cell_length_b   10.49227362
_cell_length_c   10.49227362
_cell_angle_alpha   109.47122063
_cell_angle_beta   109.47122063
_cell_angle_gamma   109.47122063
_symmetry_Int_Tables_number   1
_chemical_formula_structural   Zn3Si3(MoO6)2
_chemical_formula_sum   'Zn12 Si12 Mo8 O48'
_cell_volume   889.17436323
_cell_formula_units_Z   4
loop_
 _symmetry_equiv_pos_site_id
 _symmetry_equiv_pos_as_xyz
  1  'x, y, z'
loop_
 _atom_site_type_symbol
 _atom_site_label
 _atom_site_symmetry_multiplicity
 _atom_site_fract_x
 _atom_site_fract_y
 _atom_site_fract_z
 _atom_site_occupancy
  Zn  Zn0  1  0.25000000  0.37500000  0.12500000  1
  Zn  Zn1  1  0.75000000  0.12500000  0.37500000  1
  Zn  Zn2  1  0.37500000  0.12500000  0.25000000  1
  Zn  Zn3  1  0.12500000  0.37500000  0.75000000  1
  Zn  Zn4  1  0.25000000  0.87500000  0.62500000  1
  Zn  Zn5  1  0.12500000  0.25000000  0.37500000  1
  Zn  Zn6  1  0.62500000  0.25000000  0.87500000  1
  Zn  Zn7  1  0.75000000  0.62500000  0.87500000  1
  Zn  Zn8  1  0.87500000  0.75000000  0.62500000  1
  Zn  Zn9  1  0.87500000  0.62500000  0.25000000  1
  Zn  Zn10  1  0.62500000  0.87500000  0.75000000  1
  Zn  Zn11  1  0.37500000  0.75000000  0.12500000  1
  Si  Si0  1  0.12500000  0.75000000  0.87500000  1
  Si  Si1  1  0.87500000  0.25000000  0.12500000  1
  Si  Si2  1  0.75000000  0.37500000  0.62500000  1
  Si  Si3  1  0.12500000  0.87500000  0.25000000  1
  Si  Si4  1  0.25000000  0.12500000  0.87500000  1
  Si  Si5  1  0.37500000  0.62500000  0.75000000  1
  Si  Si6  1  0.37500000  0.25000000  0.62500000  1
  Si  Si7  1  0.87500000  0.12500000  0.75000000  1
  Si  Si8  1  0.62500000  0.37500000  0.25000000  1
  Si  Si9  1  0.75000000  0.87500000  0.12500000  1
  Si  Si10  1  0.25000000  0.62500000  0.37500000  1
  Si  Si11  1  0.62500000  0.75000000  0.37500000  1
  Mo  Mo0  1  0.50000000  0.00000000  0.00000000  1
  Mo  Mo1  1  0.50000000  0.50000000  0.00000000  1
  Mo  Mo2  1  0.00000000  0.50000000  0.50000000  1
  Mo  Mo3  1  0.00000000  0.00000000  0.50000000  1
  Mo  Mo4  1  0.50000000  0.50000000  0.50000000  1
  Mo  Mo5  1  0.00000000  0.50000000  0.00000000  1
  Mo  Mo6  1  0.50000000  0.00000000  0.50000000  1
  Mo  Mo7  1  0.00000000  0.00000000  0.00000000  1
  O  O0  1  0.59221400  0.89381700  0.37328400  1
  O  O1  1  0.37328400  0.59221400  0.89381700  1
  O  O2  1  0.28107000  0.30160300  0.90778600  1
  O  O3  1  0.47946700  0.60618300  0.19839700  1
  O  O4  1  0.30160300  0.89381700  0.02053300  1
  O  O5  1  0.12671600  0.02053300  0.21893000  1
  O  O6  1  0.37328400  0.28107000  0.47946700  1
  O  O7  1  0.89381700  0.37328400  0.59221400  1
  O  O8  1  0.19839700  0.21893000  0.59221400  1
  O  O9  1  0.47946700  0.37328400  0.28107000  1
  O  O10  1  0.89381700  0.02053300  0.30160300  1
  O  O11  1  0.60618300  0.90778600  0.12671600  1
  O  O12  1  0.90778600  0.12671600  0.60618300  1
  O  O13  1  0.28107000  0.47946700  0.37328400  1
  O  O14  1  0.59221400  0.19839700  0.21893000  1
  O  O15  1  0.21893000  0.59221400  0.19839700  1
  O  O16  1  0.02053300  0.30160300  0.89381700  1
  O  O17  1  0.90778600  0.28107000  0.30160300  1
  O  O18  1  0.02053300  0.21893000  0.12671600  1
  O  O19  1  0.80160300  0.78107000  0.40778600  1
  O  O20  1  0.19839700  0.47946700  0.60618300  1
  O  O21  1  0.60618300  0.19839700  0.47946700  1
  O  O22  1  0.21893000  0.12671600  0.02053300  1
  O  O23  1  0.12671600  0.60618300  0.90778600  1
  O  O24  1  0.40778600  0.10618300  0.62671600  1
  O  O25  1  0.62671600  0.40778600  0.10618300  1
  O  O26  1  0.71893000  0.69839700  0.09221400  1
  O  O27  1  0.52053300  0.39381700  0.80160300  1
  O  O28  1  0.69839700  0.10618300  0.97946700  1
  O  O29  1  0.87328400  0.97946700  0.78107000  1
  O  O30  1  0.62671600  0.71893000  0.52053300  1
  O  O31  1  0.10618300  0.62671600  0.40778600  1
  O  O32  1  0.87328400  0.39381700  0.09221400  1
  O  O33  1  0.78107000  0.87328400  0.97946700  1
  O  O34  1  0.39381700  0.80160300  0.52053300  1
  O  O35  1  0.69839700  0.09221400  0.71893000  1
  O  O36  1  0.80160300  0.52053300  0.39381700  1
  O  O37  1  0.97946700  0.78107000  0.87328400  1
  O  O38  1  0.09221400  0.71893000  0.69839700  1
  O  O39  1  0.97946700  0.69839700  0.10618300  1
  O  O40  1  0.78107000  0.40778600  0.80160300  1
  O  O41  1  0.40778600  0.80160300  0.78107000  1
  O  O42  1  0.71893000  0.52053300  0.62671600  1
  O  O43  1  0.09221400  0.87328400  0.39381700  1
  O  O44  1  0.39381700  0.09221400  0.87328400  1
  O  O45  1  0.10618300  0.97946700  0.69839700  1
  O  O46  1  0.52053300  0.62671600  0.71893000  1
  O  O47  1  0.30160300  0.90778600  0.28107000  1
loop_
_geom_bond_atom_site_label_1
_geom_bond_atom_site_label_2
_geom_bond_distance
_geom_bond_site_symmetry_2
Mo0 O41 2.129255 1_544
Mo0 O14 2.129255 1_555
Mo0 O4 2.129255 1_545
Mo0 O11 2.129255 1_545
Mo0 O28 2.129255 1_554
Mo0 O44 2.129255 1_554
Mo1 O2 2.129255 1_554
Mo1 O3 2.129255 1_555
Mo1 O1 2.129255 1_554
Mo1 O26 2.129255 1_555
Mo1 O27 2.129255 1_554
Mo1 O25 2.129255 1_555
Mo2 O38 2.129255 1_555
Mo2 O17 2.129255 1_455
Mo2 O20 2.129255 1_555
Mo2 O31 2.129255 1_555
Mo2 O7 2.129255 1_455
Mo2 O36 2.129255 1_455
Mo3 O10 2.129255 1_455
Mo3 O45 2.129255 1_545
Mo3 O19 2.129255 1_445
Mo3 O8 2.129255 1_555
Mo3 O12 2.129255 1_455
Mo3 O43 2.129255 1_545
Mo4 O42 2.129255 1_555
Mo4 O30 2.129255 1_555
Mo4 O46 2.129255 1_555
Mo4 O9 2.129255 1_555
Mo4 O6 2.129255 1_555
Mo4 O13 2.129255 1_555
Mo5 O16 2.129255 1_554
Mo5 O40 2.129255 1_454
Mo5 O15 2.129255 1_555
Mo5 O23 2.129255 1_554
Mo5 O39 2.129255 1_455
Mo5 O32 2.129255 1_455
Mo6 O35 2.129255 1_555
Mo6 O0 2.129255 1_545
Mo6 O47 2.129255 1_545
Mo6 O21 2.129255 1_555
Mo6 O24 2.129255 1_555
Mo6 O34 2.129255 1_545
Mo7 O29 2.129255 1_444
Mo7 O33 2.129255 1_444
Mo7 O37 2.129255 1_444
Mo7 O22 2.129255 1_555
Mo7 O5 2.129255 1_555
Mo7 O18 2.129255 1_555
O0 Si11 1.660025 1_555
O0 Zn11 2.320794 1_555
O0 Zn1 2.428722 1_565
O1 Si5 1.660025 1_555
O1 Zn3 2.320794 1_555
O1 Zn11 2.428722 1_556
O2 Si4 1.660025 1_555
O2 Zn0 2.320794 1_556
O2 Zn3 2.428722 1_555
O3 Si11 1.660025 1_555
O3 Zn11 2.320794 1_555
O3 Zn0 2.428722 1_555
O4 Si0 1.660025 1_554
O4 Zn11 2.320794 1_555
O4 Zn2 2.428722 1_565
O5 Si3 1.660025 1_545
O5 Zn2 2.320794 1_555
O5 Zn5 2.428722 1_555
O6 Si6 1.660025 1_555
O6 Zn5 2.320794 1_555
O6 Zn2 2.428722 1_555
O7 Si2 1.660025 1_555
O7 Zn1 2.320794 1_555
O7 Zn3 2.428722 1_655
O8 Si6 1.660025 1_555
O8 Zn5 2.320794 1_555
O8 Zn3 2.428722 1_555
O9 Si8 1.660025 1_555
O9 Zn2 2.320794 1_555
O9 Zn0 2.428722 1_555
O10 Si9 1.660025 1_545
O10 Zn1 2.320794 1_555
O10 Zn5 2.428722 1_655
O11 Si9 1.660025 1_555
O11 Zn1 2.320794 1_565
O11 Zn11 2.428722 1_555
O12 Si7 1.660025 1_555
O12 Zn3 2.320794 1_655
O12 Zn1 2.428722 1_555
O13 Si10 1.660025 1_555
O13 Zn0 2.320794 1_555
O13 Zn5 2.428722 1_555
O14 Si8 1.660025 1_555
O14 Zn2 2.320794 1_555
O14 Zn1 2.428722 1_555
O15 Si10 1.660025 1_555
O15 Zn0 2.320794 1_555
O15 Zn11 2.428722 1_555
O16 Si7 1.660025 1_455
O16 Zn3 2.320794 1_555
O16 Zn0 2.428722 1_556
O17 Si1 1.660025 1_555
O17 Zn5 2.320794 1_655
O17 Zn1 2.428722 1_555
O18 Si1 1.660025 1_455
O18 Zn5 2.320794 1_555
O18 Zn0 2.428722 1_555
O19 Si11 1.660025 1_555
O19 Zn8 2.320794 1_555
O19 Zn9 2.428722 1_555
O20 Si5 1.660025 1_555
O20 Zn3 2.320794 1_555
O20 Zn5 2.428722 1_555
O21 Si2 1.660025 1_555
O21 Zn1 2.320794 1_555
O21 Zn2 2.428722 1_555
O22 Si4 1.660025 1_554
O22 Zn0 2.320794 1_555
O22 Zn2 2.428722 1_555
O23 Si0 1.660025 1_555
O23 Zn11 2.320794 1_556
O23 Zn3 2.428722 1_555
O24 Si6 1.660025 1_555
O24 Zn6 2.320794 1_555
O24 Zn4 2.428722 1_545
O25 Si8 1.660025 1_555
O25 Zn9 2.320794 1_555
O25 Zn6 2.428722 1_554
O26 Si9 1.660025 1_555
O26 Zn7 2.320794 1_554
O26 Zn9 2.428722 1_555
O27 Si6 1.660025 1_555
O27 Zn6 2.320794 1_555
O27 Zn7 2.428722 1_555
O28 Si1 1.660025 1_556
O28 Zn6 2.320794 1_555
O28 Zn10 2.428722 1_545
O29 Si7 1.660025 1_565
O29 Zn10 2.320794 1_555
O29 Zn8 2.428722 1_555
O30 Si11 1.660025 1_555
O30 Zn8 2.320794 1_555
O30 Zn10 2.428722 1_555
O31 Si10 1.660025 1_555
O31 Zn4 2.320794 1_555
O31 Zn9 2.428722 1_455
O32 Si1 1.660025 1_555
O32 Zn6 2.320794 1_554
O32 Zn9 2.428722 1_555
O33 Si9 1.660025 1_556
O33 Zn7 2.320794 1_555
O33 Zn10 2.428722 1_555
O34 Si10 1.660025 1_555
O34 Zn4 2.320794 1_555
O34 Zn10 2.428722 1_555
O35 Si7 1.660025 1_555
O35 Zn10 2.320794 1_545
O35 Zn6 2.428722 1_555
O36 Si8 1.660025 1_555
O36 Zn9 2.320794 1_555
O36 Zn8 2.428722 1_555
O37 Si0 1.660025 1_655
O37 Zn8 2.320794 1_555
O37 Zn7 2.428722 1_555
O38 Si0 1.660025 1_555
O38 Zn8 2.320794 1_455
O38 Zn4 2.428722 1_555
O39 Si3 1.660025 1_655
O39 Zn9 2.320794 1_555
O39 Zn7 2.428722 1_554
O40 Si2 1.660025 1_555
O40 Zn7 2.320794 1_555
O40 Zn6 2.428722 1_555
O41 Si5 1.660025 1_555
O41 Zn10 2.320794 1_555
O41 Zn4 2.428722 1_555
O42 Si2 1.660025 1_555
O42 Zn7 2.320794 1_555
O42 Zn8 2.428722 1_555
O43 Si3 1.660025 1_555
O43 Zn9 2.320794 1_455
O43 Zn4 2.428722 1_555
O44 Si4 1.660025 1_555
O44 Zn4 2.320794 1_545
O44 Zn6 2.428722 1_555
O45 Si4 1.660025 1_565
O45 Zn4 2.320794 1_555
O45 Zn8 2.428722 1_455
O46 Si5 1.660025 1_555
O46 Zn10 2.320794 1_555
O46 Zn7 2.428722 1_555
O47 Si3 1.660025 1_555
O47 Zn2 2.320794 1_565
O47 Zn11 2.428722 1_555
