# generated using pymatgen
data_Sr2Zn5Si3
_symmetry_space_group_name_H-M   'P 1'
_cell_length_a   4.24266099
_cell_length_b   4.24266099
_cell_length_c   10.62097809
_cell_angle_alpha   90.00000000
_cell_angle_beta   90.00000000
_cell_angle_gamma   90.00000000
_symmetry_Int_Tables_number   1
_chemical_formula_structural   Sr2Zn5Si3
_chemical_formula_sum   'Sr2 Zn5 Si3'
_cell_volume   191.17943536
_cell_formula_units_Z   1
loop_
 _symmetry_equiv_pos_site_id
 _symmetry_equiv_pos_as_xyz
  1  'x, y, z'
loop_
 _atom_site_type_symbol
 _atom_site_label
 _atom_site_symmetry_multiplicity
 _atom_site_fract_x
 _atom_site_fract_y
 _atom_site_fract_z
 _atom_site_occupancy
  Sr  Sr0  1  -0.00000000  -0.00000000  0.99568749  1
  Sr  Sr1  1  0.50000000  0.50000000  0.50345732  1
  Zn  Zn0  1  -0.00000000  0.50000000  0.25368828  1
  Zn  Zn1  1  0.50000000  0.00000000  0.74761799  1
  Zn  Zn2  1  0.50000000  0.00000000  0.25368828  1
  Zn  Zn3  1  0.00000000  0.50000000  0.74761799  1
  Zn  Zn4  1  0.50000000  0.50000000  0.11538311  1
  Si  Si0  1  -0.00000000  -0.00000000  0.61468609  1
  Si  Si1  1  -0.00000000  -0.00000000  0.38771669  1
  Si  Si2  1  0.50000000  0.50000000  0.88045975  1
loop_
_geom_bond_atom_site_label_1
_geom_bond_atom_site_label_2
_geom_bond_distance
_geom_bond_site_symmetry_2
Sr0 Zn4 3.258259 1_446
Sr0 Zn4 3.258259 1_456
Sr0 Zn4 3.258259 1_556
Sr0 Zn4 3.258259 1_546
Sr0 Zn3 3.382588 1_545
Sr0 Zn3 3.382588 1_555
Sr0 Zn1 3.382588 1_455
Sr0 Zn1 3.382588 1_555
Sr0 Zn2 3.465379 1_556
Sr0 Zn0 3.465379 1_546
Sr0 Zn2 3.465379 1_456
Sr0 Zn0 3.465379 1_556
Sr1 Zn1 3.350352 1_565
Sr1 Zn3 3.350352 1_555
Sr1 Zn3 3.350352 1_655
Sr1 Zn1 3.350352 1_555
Sr1 Zn2 3.396667 1_555
Sr1 Zn2 3.396667 1_565
Sr1 Zn0 3.396667 1_555
Sr1 Zn0 3.396667 1_655
Zn0 Zn4 2.580275 1_455
Zn0 Zn4 2.580275 1_555
Zn2 Zn4 2.580275 1_545
Zn2 Zn4 2.580275 1_555
Si0 Si1 2.410637 1_555
Si0 Zn3 2.548217 1_555
Si0 Zn3 2.548217 1_545
Si0 Zn1 2.548217 1_455
Si0 Zn1 2.548217 1_555
Si0 Sr1 3.224235 1_545
Si0 Sr1 3.224235 1_455
Si0 Sr1 3.224235 1_555
Si0 Sr1 3.224235 1_445
Si1 Zn2 2.554688 1_455
Si1 Zn2 2.554688 1_555
Si1 Zn0 2.554688 1_545
Si1 Zn0 2.554688 1_555
Si1 Sr1 3.242100 1_545
Si1 Sr1 3.242100 1_455
Si1 Sr1 3.242100 1_555
Si1 Sr1 3.242100 1_445
Si2 Zn4 2.495116 1_556
Si2 Zn1 2.547687 1_565
Si2 Zn3 2.547687 1_655
Si2 Zn3 2.547687 1_555
Si2 Zn1 2.547687 1_555
Si2 Sr0 3.240038 1_565
Si2 Sr0 3.240038 1_665
Si2 Sr0 3.240038 1_655
Si2 Sr0 3.240038 1_555
