# generated using pymatgen
data_Pd(SN)4
_symmetry_space_group_name_H-M   'P 1'
_cell_length_a   13.43770300
_cell_length_b   8.47177700
_cell_length_c   9.12623004
_cell_angle_alpha   67.22453784
_cell_angle_beta   90.00000000
_cell_angle_gamma   90.00000000
_symmetry_Int_Tables_number   1
_chemical_formula_structural   Pd(SN)4
_chemical_formula_sum   'Pd4 S16 N16'
_cell_volume   957.93393503
_cell_formula_units_Z   4
loop_
 _symmetry_equiv_pos_site_id
 _symmetry_equiv_pos_as_xyz
  1  'x, y, z'
loop_
 _atom_site_type_symbol
 _atom_site_label
 _atom_site_symmetry_multiplicity
 _atom_site_fract_x
 _atom_site_fract_y
 _atom_site_fract_z
 _atom_site_occupancy
  Pd  Pd0  1  0.35662500  0.77431300  0.77664800  1
  Pd  Pd1  1  0.85662500  0.72568700  0.22335200  1
  Pd  Pd2  1  0.64337500  0.22568700  0.22335200  1
  Pd  Pd3  1  0.14337500  0.27431300  0.77664800  1
  S  S0  1  0.51604700  0.76980700  0.85352100  1
  S  S1  1  0.01604700  0.73019300  0.14647900  1
  S  S2  1  0.48395300  0.23019300  0.14647900  1
  S  S3  1  0.98395300  0.26980700  0.85352100  1
  S  S4  1  0.39911500  0.80452500  0.52931200  1
  S  S5  1  0.89911500  0.69547500  0.47068800  1
  S  S6  1  0.60088500  0.19547500  0.47068800  1
  S  S7  1  0.10088500  0.30452500  0.52931200  1
  S  S8  1  0.19534100  0.79837700  0.53407300  1
  S  S9  1  0.69534100  0.70162300  0.46592700  1
  S  S10  1  0.80465900  0.20162300  0.46592700  1
  S  S11  1  0.30465900  0.29837700  0.53407300  1
  S  S12  1  0.40438400  0.73401400  0.11554200  1
  S  S13  1  0.90438400  0.76598600  0.88445800  1
  S  S14  1  0.59561600  0.26598600  0.88445800  1
  S  S15  1  0.09561600  0.23401400  0.11554200  1
  N  N0  1  0.29599600  0.81259000  0.43176700  1
  N  N1  1  0.79599600  0.68741000  0.56823300  1
  N  N2  1  0.70400400  0.18741000  0.56823300  1
  N  N3  1  0.20400400  0.31259000  0.43176700  1
  N  N4  1  0.21419100  0.77943200  0.70644600  1
  N  N5  1  0.71419100  0.72056800  0.29355400  1
  N  N6  1  0.78580900  0.22056800  0.29355400  1
  N  N7  1  0.28580900  0.27943200  0.70644600  1
  N  N8  1  0.31939300  0.74497100  0.99875200  1
  N  N9  1  0.81939300  0.75502900  0.00124800  1
  N  N10  1  0.68060700  0.25502900  0.00124800  1
  N  N11  1  0.18060700  0.24497100  0.99875200  1
  N  N12  1  0.51458000  0.74678400  0.03856000  1
  N  N13  1  0.01458000  0.75321600  0.96144000  1
  N  N14  1  0.48542000  0.25321600  0.96144000  1
  N  N15  1  0.98542000  0.24678400  0.03856000  1
loop_
_geom_bond_atom_site_label_1
_geom_bond_atom_site_label_2
_geom_bond_distance
_geom_bond_site_symmetry_2
Pd0 S4 2.244852 1_555
Pd0 S0 2.249936 1_555
Pd1 S5 2.244852 1_555
Pd1 S1 2.249936 1_655
Pd2 S6 2.244852 1_555
Pd2 S2 2.249936 1_555
Pd3 S7 2.244852 1_555
Pd3 S3 2.249936 1_455
N0 S8 1.621309 1_555
N0 S4 1.634069 1_555
N1 S9 1.621309 1_555
N1 S5 1.634069 1_555
N2 S10 1.621309 1_555
N2 S6 1.634069 1_555
N3 S11 1.621309 1_555
N3 S7 1.634069 1_555
N4 S8 1.539198 1_555
N4 Pd0 2.013500 1_555
N5 S9 1.539198 1_555
N5 Pd1 2.013500 1_555
N6 S10 1.539198 1_555
N6 Pd2 2.013500 1_555
N7 S11 1.539198 1_555
N7 Pd3 2.013500 1_555
N8 S12 1.540263 1_556
N8 Pd0 2.007638 1_555
N9 S13 1.540263 1_554
N9 Pd1 2.007638 1_555
N10 S14 1.540263 1_554
N10 Pd2 2.007638 1_555
N11 S15 1.540263 1_556
N11 Pd3 2.007638 1_555
N12 S0 1.623315 1_554
N12 S12 1.624547 1_555
N13 S1 1.623315 1_556
N13 S13 1.624547 1_455
N14 S2 1.623315 1_556
N14 S14 1.624547 1_555
N15 S3 1.623315 1_554
N15 S15 1.624547 1_655
