# generated using pymatgen
data_Cr2FeNO8
_symmetry_space_group_name_H-M   'P 1'
_cell_length_a   15.62624700
_cell_length_b   5.61157500
_cell_length_c   10.09379746
_cell_angle_alpha   57.22696029
_cell_angle_beta   90.00000000
_cell_angle_gamma   90.00000000
_symmetry_Int_Tables_number   1
_chemical_formula_structural   Cr2FeNO8
_chemical_formula_sum   'Cr8 Fe4 N4 O32'
_cell_volume   744.21394515
_cell_formula_units_Z   4
loop_
 _symmetry_equiv_pos_site_id
 _symmetry_equiv_pos_as_xyz
  1  'x, y, z'
loop_
 _atom_site_type_symbol
 _atom_site_label
 _atom_site_symmetry_multiplicity
 _atom_site_fract_x
 _atom_site_fract_y
 _atom_site_fract_z
 _atom_site_occupancy
  Cr  Cr0  1  0.11703100  0.70714900  0.03865800  1
  Cr  Cr1  1  0.38296900  0.70714900  0.53865800  1
  Cr  Cr2  1  0.88296900  0.29285100  0.96134200  1
  Cr  Cr3  1  0.61703100  0.29285100  0.46134200  1
  Cr  Cr4  1  0.08092800  0.59380800  0.63994400  1
  Cr  Cr5  1  0.41907200  0.59380800  0.13994400  1
  Cr  Cr6  1  0.91907200  0.40619200  0.36005600  1
  Cr  Cr7  1  0.58092800  0.40619200  0.86005600  1
  Fe  Fe0  1  0.94591700  0.98072000  0.76028100  1
  Fe  Fe1  1  0.55408300  0.98072000  0.26028100  1
  Fe  Fe2  1  0.05408300  0.01928000  0.23971900  1
  Fe  Fe3  1  0.44591700  0.01928000  0.73971900  1
  N  N0  1  0.29387500  0.23642200  0.00129100  1
  N  N1  1  0.20612500  0.23642200  0.50129100  1
  N  N2  1  0.70612500  0.76357800  0.99870900  1
  N  N3  1  0.79387500  0.76357800  0.49870900  1
  O  O0  1  0.16152800  0.50889200  0.75651000  1
  O  O1  1  0.33847200  0.50889200  0.25651000  1
  O  O2  1  0.83847200  0.49110800  0.24349000  1
  O  O3  1  0.66152800  0.49110800  0.74349000  1
  O  O4  1  0.81195100  0.13764900  0.09763000  1
  O  O5  1  0.68804900  0.13764900  0.59763000  1
  O  O6  1  0.18804900  0.86235100  0.90237000  1
  O  O7  1  0.31195100  0.86235100  0.40237000  1
  O  O8  1  0.98068400  0.21511900  0.04119300  1
  O  O9  1  0.51931600  0.21511900  0.54119300  1
  O  O10  1  0.01931600  0.78488100  0.95880700  1
  O  O11  1  0.48068400  0.78488100  0.45880700  1
  O  O12  1  0.11380800  0.80225600  0.45034500  1
  O  O13  1  0.38619200  0.80225600  0.95034500  1
  O  O14  1  0.88619200  0.19774400  0.54965500  1
  O  O15  1  0.61380800  0.19774400  0.04965500  1
  O  O16  1  0.12556800  0.82393600  0.16220800  1
  O  O17  1  0.37443200  0.82393600  0.66220800  1
  O  O18  1  0.87443200  0.17606400  0.83779200  1
  O  O19  1  0.62556800  0.17606400  0.33779200  1
  O  O20  1  0.13357900  0.35064300  0.14182500  1
  O  O21  1  0.36642100  0.35064300  0.64182500  1
  O  O22  1  0.86642100  0.64935700  0.85817500  1
  O  O23  1  0.63357900  0.64935700  0.35817500  1
  O  O24  1  0.01001800  0.77134900  0.67967400  1
  O  O25  1  0.48998200  0.77134900  0.17967400  1
  O  O26  1  0.98998200  0.22865100  0.32032600  1
  O  O27  1  0.51001800  0.22865100  0.82032600  1
  O  O28  1  0.03410200  0.29492900  0.67183800  1
  O  O29  1  0.46589800  0.29492900  0.17183800  1
  O  O30  1  0.96589800  0.70507100  0.32816200  1
  O  O31  1  0.53410200  0.70507100  0.82816200  1
loop_
_geom_bond_atom_site_label_1
_geom_bond_atom_site_label_2
_geom_bond_distance
_geom_bond_site_symmetry_2
Cr0 O6 1.607918 1_554
Cr0 O10 1.670557 1_554
Cr0 O16 1.699218 1_555
Cr0 O20 1.702381 1_555
Cr1 O7 1.607918 1_555
Cr1 O11 1.670557 1_555
Cr1 O17 1.699218 1_555
Cr1 O21 1.702381 1_555
Cr2 O4 1.607918 1_556
Cr2 O8 1.670557 1_556
Cr2 O18 1.699218 1_555
Cr2 O22 1.702381 1_555
Cr3 O5 1.607918 1_555
Cr3 O9 1.670557 1_555
Cr3 O19 1.699218 1_555
Cr3 O23 1.702381 1_555
Cr4 O0 1.609574 1_555
Cr4 O24 1.677422 1_555
Cr4 O28 1.693350 1_555
Cr4 O12 1.694466 1_555
Cr5 O1 1.609574 1_555
Cr5 O25 1.677422 1_555
Cr5 O29 1.693350 1_555
Cr5 O13 1.694466 1_554
Cr6 O2 1.609574 1_555
Cr6 O26 1.677422 1_555
Cr6 O30 1.693350 1_555
Cr6 O14 1.694466 1_555
Cr7 O3 1.609574 1_555
Cr7 O27 1.677422 1_555
Cr7 O31 1.693350 1_555
Cr7 O15 1.694466 1_556
Fe0 O22 1.996981 1_555
Fe0 O18 1.997505 1_565
Fe0 O14 2.017675 1_565
Fe0 O24 2.020056 1_655
Fe0 O28 2.025001 1_665
Fe0 O10 2.038286 1_655
Fe1 O23 1.996981 1_555
Fe1 O19 1.997505 1_565
Fe1 O15 2.017675 1_565
Fe1 O25 2.020056 1_555
Fe1 O29 2.025001 1_565
Fe1 O11 2.038286 1_555
Fe2 O20 1.996981 1_555
Fe2 O16 1.997505 1_545
Fe2 O12 2.017675 1_545
Fe2 O26 2.020056 1_455
Fe2 O30 2.025001 1_445
Fe2 O8 2.038286 1_455
Fe3 O21 1.996981 1_555
Fe3 O17 1.997505 1_545
Fe3 O13 2.017675 1_545
Fe3 O27 2.020056 1_555
Fe3 O31 2.025001 1_545
Fe3 O9 2.038286 1_555
