# generated using pymatgen
data_NaNbO3
_symmetry_space_group_name_H-M   'P 1'
_cell_length_a   5.56281900
_cell_length_b   5.61153900
_cell_length_c   7.90948000
_cell_angle_alpha   90.00000000
_cell_angle_beta   90.00000000
_cell_angle_gamma   90.00000000
_symmetry_Int_Tables_number   1
_chemical_formula_structural   NaNbO3
_chemical_formula_sum   'Na4 Nb4 O12'
_cell_volume   246.90213602
_cell_formula_units_Z   4
loop_
 _symmetry_equiv_pos_site_id
 _symmetry_equiv_pos_as_xyz
  1  'x, y, z'
loop_
 _atom_site_type_symbol
 _atom_site_label
 _atom_site_symmetry_multiplicity
 _atom_site_fract_x
 _atom_site_fract_y
 _atom_site_fract_z
 _atom_site_occupancy
  Na  Na0  1  0.49918400  0.98442900  0.25000000  1
  Na  Na1  1  0.00081600  0.48442900  0.25000000  1
  Na  Na2  1  0.50081600  0.01557100  0.75000000  1
  Na  Na3  1  0.99918400  0.51557100  0.75000000  1
  Nb  Nb0  1  0.50000000  0.50000000  0.00000000  1
  Nb  Nb1  1  0.00000000  0.00000000  0.50000000  1
  Nb  Nb2  1  0.50000000  0.50000000  0.50000000  1
  Nb  Nb3  1  0.00000000  0.00000000  0.00000000  1
  O  O0  1  0.93633800  0.01136800  0.25000000  1
  O  O1  1  0.56366200  0.51136800  0.25000000  1
  O  O2  1  0.06366200  0.98863200  0.75000000  1
  O  O3  1  0.43633800  0.48863200  0.75000000  1
  O  O4  1  0.21358900  0.71478500  0.03257400  1
  O  O5  1  0.28641100  0.21478500  0.46742600  1
  O  O6  1  0.78641100  0.28521500  0.53257400  1
  O  O7  1  0.71358900  0.78521500  0.96742600  1
  O  O8  1  0.78641100  0.28521500  0.96742600  1
  O  O9  1  0.71358900  0.78521500  0.53257400  1
  O  O10  1  0.21358900  0.71478500  0.46742600  1
  O  O11  1  0.28641100  0.21478500  0.03257400  1
loop_
_geom_bond_atom_site_label_1
_geom_bond_atom_site_label_2
_geom_bond_distance
_geom_bond_site_symmetry_2
Na0 O0 2.436503 1_565
Na0 O5 2.455475 1_565
Na0 O11 2.455475 1_565
Na0 O1 2.678722 1_555
Na0 O9 2.769026 1_555
Na0 O7 2.769026 1_554
Na0 O10 2.787650 1_555
Na0 O4 2.787650 1_555
Na0 O1 2.978613 1_565
Na1 O1 2.436503 1_455
Na1 O10 2.455475 1_555
Na1 O4 2.455475 1_555
Na1 O0 2.678722 1_455
Na1 O8 2.769026 1_454
Na1 O6 2.769026 1_455
Na1 O5 2.787650 1_555
Na1 O11 2.787650 1_555
Na1 O0 2.978613 1_465
Na2 O2 2.436503 1_545
Na2 O9 2.455475 1_545
Na2 O7 2.455475 1_545
Na2 O3 2.678722 1_555
Na2 O11 2.769026 1_556
Na2 O5 2.769026 1_555
Na2 O8 2.787650 1_555
Na2 O6 2.787650 1_555
Na2 O3 2.978613 1_545
Na3 O3 2.436503 1_655
Na3 O8 2.455475 1_555
Na3 O6 2.455475 1_555
Na3 O2 2.678722 1_655
Na3 O4 2.769026 1_656
Na3 O10 2.769026 1_655
Na3 O9 2.787650 1_555
Na3 O7 2.787650 1_555
Na3 O2 2.978613 1_645
Nb0 O1 2.009845 1_555
Nb0 O3 2.009845 1_554
Nb0 O7 2.009896 1_554
Nb0 O11 2.009896 1_555
Nb0 O4 2.014329 1_555
Nb0 O8 2.014329 1_554
Nb1 O0 2.009845 1_455
Nb1 O2 2.009845 1_545
Nb1 O6 2.009896 1_455
Nb1 O10 2.009896 1_545
Nb1 O5 2.014329 1_555
Nb1 O9 2.014329 1_445
Nb2 O1 2.009845 1_555
Nb2 O3 2.009845 1_555
Nb2 O9 2.009896 1_555
Nb2 O5 2.009896 1_555
Nb2 O6 2.014329 1_555
Nb2 O10 2.014329 1_555
Nb3 O0 2.009845 1_455
Nb3 O2 2.009845 1_544
Nb3 O8 2.009896 1_454
Nb3 O4 2.009896 1_545
Nb3 O11 2.014329 1_555
Nb3 O7 2.014329 1_444
