# generated using pymatgen
data_BaEuBiSbO6
_symmetry_space_group_name_H-M   'P 1'
_cell_length_a   6.05778463
_cell_length_b   6.13508661
_cell_length_c   8.59751031
_cell_angle_alpha   89.77611493
_cell_angle_beta   90.49237909
_cell_angle_gamma   89.98993573
_symmetry_Int_Tables_number   1
_chemical_formula_structural   BaEuBiSbO6
_chemical_formula_sum   'Ba2 Eu2 Bi2 Sb2 O12'
_cell_volume   319.51251275
_cell_formula_units_Z   2
loop_
 _symmetry_equiv_pos_site_id
 _symmetry_equiv_pos_as_xyz
  1  'x, y, z'
loop_
 _atom_site_type_symbol
 _atom_site_label
 _atom_site_symmetry_multiplicity
 _atom_site_fract_x
 _atom_site_fract_y
 _atom_site_fract_z
 _atom_site_occupancy
  Ba  Ba0  1  0.99471184  0.03167782  0.24943503  1
  Ba  Ba1  1  0.00528816  0.96832218  0.75056497  1
  Eu  Eu0  1  0.51324842  0.54051999  0.24720081  1
  Eu  Eu1  1  0.48675158  0.45948001  0.75279919  1
  Bi  Bi0  1  0.00000000  0.50000000  -0.00000000  1
  Bi  Bi1  1  0.50000000  -0.00000000  0.50000000  1
  Sb  Sb0  1  0.50000000  -0.00000000  -0.00000000  1
  Sb  Sb1  1  0.00000000  0.50000000  0.50000000  1
  O  O0  1  0.23245020  0.19734835  0.96755336  1
  O  O1  1  0.26944428  0.69154043  0.55597230  1
  O  O2  1  0.76754980  0.80265165  0.03244664  1
  O  O3  1  0.73055572  0.30845957  0.44402770  1
  O  O4  1  0.31761406  0.72196679  0.94893559  1
  O  O5  1  0.19739235  0.23701812  0.54509958  1
  O  O6  1  0.68238594  0.27803321  0.05106441  1
  O  O7  1  0.80260765  0.76298188  0.45490042  1
  O  O8  1  0.43354168  0.95113733  0.23073325  1
  O  O9  1  0.10343557  0.49339725  0.27158897  1
  O  O10  1  0.56645832  0.04886267  0.76926675  1
  O  O11  1  0.89656443  0.50660275  0.72841103  1
loop_
_geom_bond_atom_site_label_1
_geom_bond_atom_site_label_2
_geom_bond_distance
_geom_bond_site_symmetry_2
Ba0 O7 2.684298 1_545
Ba0 O2 2.706529 1_545
Ba0 O8 2.710031 1_645
Ba0 O3 2.882768 1_555
Ba0 O9 2.914945 1_655
Ba0 O6 2.948922 1_555
Ba0 O0 3.003609 1_654
Ba0 O5 3.086764 1_655
Ba1 O5 2.684298 1_565
Ba1 O0 2.706529 1_565
Ba1 O10 2.710031 1_465
Ba1 O1 2.882768 1_555
Ba1 O11 2.914945 1_455
Ba1 O4 2.948922 1_555
Ba1 O2 3.003609 1_456
Ba1 O7 3.086764 1_455
Eu0 O9 2.509853 1_555
Eu0 O6 2.556759 1_555
Eu0 O3 2.562363 1_555
Eu0 O8 2.568079 1_555
Eu0 O7 2.844315 1_555
Eu0 O2 2.897416 1_555
Eu0 O4 3.023989 1_554
Eu0 O1 3.189529 1_555
Eu1 O11 2.509853 1_555
Eu1 O4 2.556759 1_555
Eu1 O1 2.562363 1_555
Eu1 O10 2.568079 1_555
Eu1 O5 2.844315 1_555
Eu1 O0 2.897416 1_555
Eu1 O6 3.023989 1_556
Eu1 O3 3.189529 1_555
Bi0 O0 2.349090 1_554
Bi0 O2 2.349090 1_455
Bi0 O4 2.399977 1_554
Bi0 O6 2.399977 1_455
Bi0 O9 2.412579 1_555
Bi0 O11 2.412579 1_454
Bi1 O8 2.366586 1_545
Bi1 O10 2.366586 1_555
Bi1 O5 2.375056 1_555
Bi1 O7 2.375056 1_545
Bi1 O1 2.401846 1_545
Bi1 O3 2.401846 1_555
O0 Sb0 2.039483 1_556
O1 Sb1 2.065977 1_555
O2 Sb0 2.039483 1_565
O3 Sb1 2.065977 1_655
O4 Sb0 2.078758 1_566
O5 Sb1 2.042000 1_555
O6 Sb0 2.078758 1_555
O7 Sb1 2.042000 1_655
O8 Sb0 2.048477 1_565
O9 Sb1 2.066977 1_555
O10 Sb0 2.048477 1_556
O11 Sb1 2.066977 1_655
