# generated using pymatgen
data_Al2Tl3(PO4)3
_symmetry_space_group_name_H-M   'P 1'
_cell_length_a   6.22034700
_cell_length_b   10.54433600
_cell_length_c   18.04840200
_cell_angle_alpha   90.00000000
_cell_angle_beta   90.00000000
_cell_angle_gamma   90.00000000
_symmetry_Int_Tables_number   1
_chemical_formula_structural   Al2Tl3(PO4)3
_chemical_formula_sum   'Al8 Tl12 P12 O48'
_cell_volume   1183.78437802
_cell_formula_units_Z   4
loop_
 _symmetry_equiv_pos_site_id
 _symmetry_equiv_pos_as_xyz
  1  'x, y, z'
loop_
 _atom_site_type_symbol
 _atom_site_label
 _atom_site_symmetry_multiplicity
 _atom_site_fract_x
 _atom_site_fract_y
 _atom_site_fract_z
 _atom_site_occupancy
  Al  Al0  1  0.75248700  0.41711300  0.28860100  1
  Al  Al1  1  0.24751300  0.58288700  0.78860100  1
  Al  Al2  1  0.74751300  0.91711300  0.78860100  1
  Al  Al3  1  0.25248700  0.08288700  0.28860100  1
  Al  Al4  1  0.76085900  0.41728000  0.95447600  1
  Al  Al5  1  0.23914100  0.58272000  0.45447600  1
  Al  Al6  1  0.73914100  0.91728000  0.45447600  1
  Al  Al7  1  0.26085900  0.08272000  0.95447600  1
  Tl  Tl0  1  0.73371700  0.14061700  0.12015000  1
  Tl  Tl1  1  0.26628300  0.85938300  0.62015000  1
  Tl  Tl2  1  0.76628300  0.64061700  0.62015000  1
  Tl  Tl3  1  0.23371700  0.35938300  0.12015000  1
  Tl  Tl4  1  0.75928200  0.33747800  0.72927200  1
  Tl  Tl5  1  0.24071800  0.66252200  0.22927200  1
  Tl  Tl6  1  0.74071800  0.83747800  0.22927200  1
  Tl  Tl7  1  0.25928200  0.16252200  0.72927200  1
  Tl  Tl8  1  0.76212000  0.34201400  0.51255100  1
  Tl  Tl9  1  0.23788000  0.65798600  0.01255100  1
  Tl  Tl10  1  0.73788000  0.84201400  0.01255100  1
  Tl  Tl11  1  0.26212000  0.15798600  0.51255100  1
  P  P0  1  0.76043300  0.00848200  0.62206600  1
  P  P1  1  0.23956700  0.99151800  0.12206600  1
  P  P2  1  0.73956700  0.50848200  0.12206600  1
  P  P3  1  0.26043300  0.49151800  0.62206600  1
  P  P4  1  0.74631300  0.12676800  0.33094000  1
  P  P5  1  0.25368600  0.87323200  0.83094000  1
  P  P6  1  0.75368700  0.62676800  0.83094000  1
  P  P7  1  0.24631300  0.37323200  0.33094000  1
  P  P8  1  0.75474100  0.12824100  0.91178600  1
  P  P9  1  0.24525900  0.87175900  0.41178600  1
  P  P10  1  0.74525900  0.62824100  0.41178600  1
  P  P11  1  0.25474100  0.37175900  0.91178600  1
  O  O0  1  0.55432400  0.08985800  0.62274500  1
  O  O1  1  0.44567600  0.91014200  0.12274500  1
  O  O2  1  0.94567600  0.58985800  0.12274500  1
  O  O3  1  0.05432400  0.41014200  0.62274500  1
  O  O4  1  0.96828400  0.08835000  0.62237000  1
  O  O5  1  0.03171600  0.91165000  0.12237000  1
  O  O6  1  0.53171600  0.58835000  0.12237000  1
  O  O7  1  0.46828400  0.41165000  0.62237000  1
  O  O8  1  0.73927300  0.41343800  0.18893900  1
  O  O9  1  0.26072700  0.58656200  0.68893900  1
  O  O10  1  0.76072700  0.91343800  0.68893900  1
  O  O11  1  0.23927300  0.08656200  0.18893900  1
  O  O12  1  0.74201400  0.41601400  0.05415300  1
  O  O13  1  0.25798600  0.58398600  0.55415300  1
  O  O14  1  0.75798600  0.91601400  0.55415300  1
  O  O15  1  0.24201400  0.08398600  0.05415300  1
  O  O16  1  0.55943100  0.08943300  0.27859300  1
  O  O17  1  0.44056900  0.91056700  0.77859300  1
  O  O18  1  0.94056900  0.58943300  0.77859300  1
  O  O19  1  0.05943100  0.41056700  0.27859300  1
  O  O20  1  0.94941700  0.07424100  0.29320200  1
  O  O21  1  0.05058300  0.92575900  0.79320200  1
  O  O22  1  0.55058300  0.57424100  0.79320200  1
  O  O23  1  0.44941700  0.42575900  0.29320200  1
  O  O24  1  0.75625200  0.27214800  0.34225100  1
  O  O25  1  0.24374800  0.72785200  0.84225100  1
  O  O26  1  0.74374800  0.77214800  0.84225100  1
  O  O27  1  0.25625200  0.22785200  0.34225100  1
  O  O28  1  0.71375200  0.06994600  0.40942200  1
  O  O29  1  0.28624800  0.93005400  0.90942200  1
  O  O30  1  0.78624800  0.56994600  0.90942200  1
  O  O31  1  0.21375200  0.43005400  0.40942200  1
  O  O32  1  0.72471700  0.07002700  0.83380500  1
  O  O33  1  0.27528300  0.92997300  0.33380500  1
  O  O34  1  0.77528300  0.57002700  0.33380500  1
  O  O35  1  0.22471700  0.42997300  0.83380500  1
  O  O36  1  0.76350600  0.27314900  0.89979500  1
  O  O37  1  0.23649400  0.72685100  0.39979500  1
  O  O38  1  0.73649400  0.77314900  0.39979500  1
  O  O39  1  0.26350600  0.22685100  0.89979500  1
  O  O40  1  0.56734600  0.09171200  0.96456700  1
  O  O41  1  0.43265400  0.90828800  0.46456700  1
  O  O42  1  0.93265400  0.59171200  0.46456700  1
  O  O43  1  0.06734600  0.40828800  0.96456700  1
  O  O44  1  0.95695900  0.07629500  0.95055700  1
  O  O45  1  0.04304200  0.92370500  0.45055700  1
  O  O46  1  0.54304100  0.57629500  0.45055700  1
  O  O47  1  0.45695800  0.42370500  0.95055700  1
loop_
_geom_bond_atom_site_label_1
_geom_bond_atom_site_label_2
_geom_bond_distance
_geom_bond_site_symmetry_2
Al0 O8 1.801034 1_555
Al0 O24 1.809597 1_555
Al0 O34 1.812593 1_555
Al0 O23 1.889230 1_555
Al0 O19 1.919065 1_655
Al1 O9 1.801034 1_555
Al1 O25 1.809597 1_555
Al1 O35 1.812593 1_555
Al1 O22 1.889230 1_555
Al1 O18 1.919065 1_455
Al2 O10 1.801034 1_555
Al2 O26 1.809597 1_555
Al2 O32 1.812593 1_565
Al2 O21 1.889230 1_655
Al2 O17 1.919065 1_555
Al3 O11 1.801034 1_555
Al3 O27 1.809597 1_555
Al3 O33 1.812593 1_545
Al3 O20 1.889230 1_455
Al3 O16 1.919065 1_555
Al4 O12 1.802875 1_556
Al4 O30 1.810384 1_555
Al4 O36 1.812164 1_555
Al4 O47 1.892905 1_555
Al4 O43 1.917481 1_655
Al5 O13 1.802875 1_555
Al5 O31 1.810384 1_555
Al5 O37 1.812164 1_555
Al5 O46 1.892899 1_555
Al5 O42 1.917481 1_455
Al6 O14 1.802875 1_555
Al6 O28 1.810384 1_565
Al6 O38 1.812164 1_555
Al6 O45 1.892905 1_655
Al6 O41 1.917481 1_555
Al7 O15 1.802875 1_556
Al7 O29 1.810384 1_545
Al7 O39 1.812164 1_555
Al7 O44 1.892899 1_455
Al7 O40 1.917481 1_555
O0 P0 1.542761 1_555
O0 Tl7 2.766188 1_555
O0 Tl11 2.788401 1_555
O1 P1 1.542761 1_555
O1 Tl6 2.766188 1_555
O1 Tl10 2.788401 1_555
O2 P2 1.542761 1_555
O2 Tl5 2.766188 1_655
O2 Tl9 2.788401 1_655
O3 P3 1.542761 1_555
O3 Tl4 2.766188 1_455
O3 Tl8 2.788401 1_455
O4 P0 1.543003 1_555
O4 Tl7 2.758766 1_655
O4 Tl11 2.794353 1_655
O5 P1 1.543003 1_555
O5 Tl6 2.758766 1_455
O5 Tl10 2.794353 1_455
O6 P2 1.543003 1_555
O6 Tl5 2.758766 1_555
O6 Tl9 2.794353 1_555
O7 P3 1.543003 1_555
O7 Tl4 2.758766 1_555
O7 Tl8 2.794353 1_555
O8 P2 1.568786 1_555
O9 P3 1.568786 1_555
O10 P0 1.568786 1_565
O11 P1 1.568786 1_545
O12 P2 1.566294 1_555
O13 P3 1.566294 1_555
O14 P0 1.566294 1_565
O15 P1 1.566294 1_545
O16 P4 1.548847 1_555
O17 P5 1.548851 1_555
O18 P6 1.548847 1_555
O19 P7 1.548847 1_555
O20 P4 1.538440 1_555
O21 P5 1.538435 1_555
O22 P6 1.538440 1_555
O23 P7 1.538440 1_555
O24 P4 1.547704 1_555
O25 P5 1.547704 1_555
O26 P6 1.547704 1_555
O27 P7 1.547704 1_555
O28 P4 1.551259 1_555
O29 P5 1.551260 1_555
O30 P6 1.551259 1_555
O31 P7 1.551259 1_555
O32 P8 1.546781 1_555
O33 P9 1.546781 1_555
O34 P10 1.546781 1_555
O35 P11 1.546781 1_555
O36 P8 1.544172 1_555
O37 P9 1.544172 1_555
O38 P10 1.544172 1_555
O39 P11 1.544172 1_555
O40 P8 1.553898 1_555
O41 P9 1.553898 1_555
O42 P10 1.553898 1_555
O43 P11 1.553898 1_555
O44 P8 1.540097 1_555
O45 P9 1.540092 1_555
O46 P10 1.540097 1_555
O47 P11 1.540092 1_555
