# generated using pymatgen
data_BaO2
_symmetry_space_group_name_H-M   'P 1'
_cell_length_a   4.40908108
_cell_length_b   4.40908108
_cell_length_c   3.66374000
_cell_angle_alpha   90.00000000
_cell_angle_beta   90.00000000
_cell_angle_gamma   127.85866987
_symmetry_Int_Tables_number   1
_chemical_formula_structural   BaO2
_chemical_formula_sum   'Ba1 O2'
_cell_volume   56.23255274
_cell_formula_units_Z   1
loop_
 _symmetry_equiv_pos_site_id
 _symmetry_equiv_pos_as_xyz
  1  'x, y, z'
loop_
 _atom_site_type_symbol
 _atom_site_label
 _atom_site_symmetry_multiplicity
 _atom_site_fract_x
 _atom_site_fract_y
 _atom_site_fract_z
 _atom_site_occupancy
  Ba  Ba0  1  0.00000000  0.00000000  0.00000000  1
  O  O0  1  0.40385300  0.59614700  0.50000000  1
  O  O1  1  0.59614700  0.40385300  0.50000000  1
loop_
_geom_bond_atom_site_label_1
_geom_bond_atom_site_label_2
_geom_bond_distance
_geom_bond_site_symmetry_2
Ba0 O1 2.773161 1_554
Ba0 O1 2.773161 1_555
Ba0 O0 2.773161 1_554
Ba0 O0 2.773161 1_555
Ba0 O0 2.773161 1_445
Ba0 O1 2.773161 1_444
Ba0 O1 2.773161 1_445
Ba0 O0 2.773161 1_444
O0 O1 1.523149 1_555
