# generated using pymatgen
data_Mg9Si5
_symmetry_space_group_name_H-M   'P 1'
_cell_length_a   12.83029954
_cell_length_b   12.83029954
_cell_length_c   12.83029977
_cell_angle_alpha   32.54141106
_cell_angle_beta   32.54141106
_cell_angle_gamma   32.54140910
_symmetry_Int_Tables_number   1
_chemical_formula_structural   Mg9Si5
_chemical_formula_sum   'Mg18 Si10'
_cell_volume   543.44489731
_cell_formula_units_Z   2
loop_
 _symmetry_equiv_pos_site_id
 _symmetry_equiv_pos_as_xyz
  1  'x, y, z'
loop_
 _atom_site_type_symbol
 _atom_site_label
 _atom_site_symmetry_multiplicity
 _atom_site_fract_x
 _atom_site_fract_y
 _atom_site_fract_z
 _atom_site_occupancy
  Mg  Mg0  1  0.34858900  0.88793600  0.67474500  1
  Mg  Mg1  1  0.99561700  0.25000000  0.50438300  1
  Mg  Mg2  1  0.88793600  0.67474500  0.34858900  1
  Mg  Mg3  1  0.25000000  0.50438300  0.99561700  1
  Mg  Mg4  1  0.67474500  0.34858900  0.88793600  1
  Mg  Mg5  1  0.50438300  0.99561700  0.25000000  1
  Mg  Mg6  1  0.84858900  0.17474500  0.38793600  1
  Mg  Mg7  1  0.49561700  0.00438300  0.75000000  1
  Mg  Mg8  1  0.17474500  0.38793600  0.84858900  1
  Mg  Mg9  1  0.00438300  0.75000000  0.49561700  1
  Mg  Mg10  1  0.38793600  0.84858900  0.17474500  1
  Mg  Mg11  1  0.75000000  0.49561700  0.00438300  1
  Mg  Mg12  1  0.61206400  0.15141100  0.82525500  1
  Mg  Mg13  1  0.65141100  0.11206400  0.32525500  1
  Mg  Mg14  1  0.15141100  0.82525500  0.61206400  1
  Mg  Mg15  1  0.11206400  0.32525500  0.65141100  1
  Mg  Mg16  1  0.82525500  0.61206400  0.15141100  1
  Mg  Mg17  1  0.32525500  0.65141100  0.11206400  1
  Si  Si0  1  0.07868300  0.07868300  0.07868300  1
  Si  Si1  1  0.19334500  0.19334500  0.19334500  1
  Si  Si2  1  0.92131700  0.92131700  0.92131700  1
  Si  Si3  1  0.00000000  0.00000000  0.00000000  1
  Si  Si4  1  0.80665500  0.80665500  0.80665500  1
  Si  Si5  1  0.30665500  0.30665500  0.30665500  1
  Si  Si6  1  0.42131700  0.42131700  0.42131700  1
  Si  Si7  1  0.69334500  0.69334500  0.69334500  1
  Si  Si8  1  0.57868300  0.57868300  0.57868300  1
  Si  Si9  1  0.50000000  0.50000000  0.50000000  1
loop_
_geom_bond_atom_site_label_1
_geom_bond_atom_site_label_2
_geom_bond_distance
_geom_bond_site_symmetry_2
Mg0 Si3 2.700308 1_566
Mg0 Si7 2.830510 1_555
Mg0 Si5 2.844075 1_565
Mg0 Si8 2.887750 1_555
Mg0 Si2 3.054506 1_455
Mg1 Si8 2.730262 1_555
Mg1 Si2 2.730262 1_545
Mg1 Si5 2.757271 1_655
Mg1 Si1 2.757271 1_655
Mg2 Si3 2.700308 1_665
Mg2 Si7 2.830510 1_555
Mg2 Si5 2.844075 1_655
Mg2 Si8 2.887750 1_555
Mg2 Si2 3.054507 1_554
Mg3 Si2 2.730262 1_455
Mg3 Si8 2.730262 1_555
Mg3 Si1 2.757271 1_556
Mg3 Si5 2.757271 1_556
Mg4 Si3 2.700308 1_656
Mg4 Si7 2.830510 1_555
Mg4 Si5 2.844075 1_556
Mg4 Si8 2.887750 1_555
Mg4 Si2 3.054506 1_545
Mg5 Si2 2.730262 1_554
Mg5 Si8 2.730262 1_555
Mg5 Si1 2.757271 1_565
Mg5 Si5 2.757271 1_565
Mg6 Si9 2.700308 1_555
Mg6 Si1 2.830510 1_655
Mg6 Si4 2.844075 1_545
Mg6 Si0 2.887750 1_655
Mg6 Si6 3.054506 1_555
Mg7 Si0 2.730262 1_556
Mg7 Si6 2.730262 1_555
Mg7 Si4 2.757271 1_545
Mg7 Si7 2.757271 1_545
Mg8 Si9 2.700308 1_555
Mg8 Si1 2.830510 1_556
Mg8 Si4 2.844075 1_455
Mg8 Si0 2.887750 1_556
Mg8 Si6 3.054507 1_555
Mg9 Si6 2.730262 1_555
Mg9 Si0 2.730262 1_565
Mg9 Si7 2.757271 1_455
Mg9 Si4 2.757271 1_455
Mg10 Si9 2.700308 1_555
Mg10 Si1 2.830510 1_565
Mg10 Si4 2.844075 1_554
Mg10 Si0 2.887750 1_565
Mg10 Si6 3.054506 1_555
Mg11 Si0 2.730262 1_655
Mg11 Si6 2.730262 1_555
Mg11 Si4 2.757271 1_554
Mg11 Si7 2.757271 1_554
Mg12 Si9 2.700308 1_555
Mg12 Si4 2.830510 1_545
Mg12 Si1 2.844075 1_556
Mg12 Si2 2.887750 1_545
Mg12 Si8 3.054506 1_555
Mg13 Si3 2.700308 1_655
Mg13 Si5 2.830510 1_555
Mg13 Si7 2.844075 1_545
Mg13 Si6 2.887750 1_555
Mg13 Si0 3.054506 1_655
Mg14 Si9 2.700308 1_555
Mg14 Si4 2.830510 1_455
Mg14 Si1 2.844075 1_565
Mg14 Si2 2.887750 1_455
Mg14 Si8 3.054506 1_555
Mg15 Si3 2.700308 1_556
Mg15 Si5 2.830510 1_555
Mg15 Si7 2.844075 1_455
Mg15 Si6 2.887750 1_555
Mg15 Si0 3.054507 1_556
Mg16 Si9 2.700308 1_555
Mg16 Si4 2.830510 1_554
Mg16 Si1 2.844075 1_655
Mg16 Si2 2.887750 1_554
Mg16 Si8 3.054507 1_555
Mg17 Si3 2.700308 1_565
Mg17 Si5 2.830510 1_555
Mg17 Si7 2.844075 1_554
Mg17 Si6 2.887750 1_555
Mg17 Si0 3.054506 1_565
