# generated using pymatgen
data_Y2Ni17
_symmetry_space_group_name_H-M   'P 1'
_cell_length_a   8.25236635
_cell_length_b   8.25236635
_cell_length_c   8.01611800
_cell_angle_alpha   90.00000000
_cell_angle_beta   90.00000000
_cell_angle_gamma   120.00000280
_symmetry_Int_Tables_number   1
_chemical_formula_structural   Y2Ni17
_chemical_formula_sum   'Y4 Ni34'
_cell_volume   472.77196996
_cell_formula_units_Z   2
loop_
 _symmetry_equiv_pos_site_id
 _symmetry_equiv_pos_as_xyz
  1  'x, y, z'
loop_
 _atom_site_type_symbol
 _atom_site_label
 _atom_site_symmetry_multiplicity
 _atom_site_fract_x
 _atom_site_fract_y
 _atom_site_fract_z
 _atom_site_occupancy
  Y  Y0  1  0.00000000  0.00000000  0.25000000  1
  Y  Y1  1  0.00000000  0.00000000  0.75000000  1
  Y  Y2  1  0.33333300  0.66666700  0.75000000  1
  Y  Y3  1  0.66666700  0.33333300  0.25000000  1
  Ni  Ni0  1  0.33333300  0.66666700  0.39715900  1
  Ni  Ni1  1  0.66666700  0.33333300  0.60284100  1
  Ni  Ni2  1  0.66666700  0.33333300  0.89715900  1
  Ni  Ni3  1  0.33333300  0.66666700  0.10284100  1
  Ni  Ni4  1  0.50000000  0.50000000  0.50000000  1
  Ni  Ni5  1  0.50000000  0.00000000  0.50000000  1
  Ni  Ni6  1  0.00000000  0.50000000  0.50000000  1
  Ni  Ni7  1  0.50000000  0.50000000  0.00000000  1
  Ni  Ni8  1  0.50000000  0.00000000  0.00000000  1
  Ni  Ni9  1  0.00000000  0.50000000  0.00000000  1
  Ni  Ni10  1  0.32771500  0.37167100  0.25000000  1
  Ni  Ni11  1  0.62832900  0.95604400  0.25000000  1
  Ni  Ni12  1  0.04395600  0.67228500  0.25000000  1
  Ni  Ni13  1  0.62832900  0.67228500  0.25000000  1
  Ni  Ni14  1  0.04395600  0.37167100  0.25000000  1
  Ni  Ni15  1  0.32771500  0.95604400  0.25000000  1
  Ni  Ni16  1  0.67228500  0.62832900  0.75000000  1
  Ni  Ni17  1  0.37167100  0.04395600  0.75000000  1
  Ni  Ni18  1  0.95604400  0.32771500  0.75000000  1
  Ni  Ni19  1  0.37167100  0.32771500  0.75000000  1
  Ni  Ni20  1  0.95604400  0.62832900  0.75000000  1
  Ni  Ni21  1  0.67228500  0.04395600  0.75000000  1
  Ni  Ni22  1  0.16518700  0.83481300  0.52181600  1
  Ni  Ni23  1  0.16518700  0.33037400  0.52181600  1
  Ni  Ni24  1  0.66962600  0.83481300  0.52181600  1
  Ni  Ni25  1  0.83481300  0.16518700  0.47818400  1
  Ni  Ni26  1  0.83481300  0.66962600  0.47818400  1
  Ni  Ni27  1  0.33037400  0.16518700  0.47818400  1
  Ni  Ni28  1  0.83481300  0.16518700  0.02181600  1
  Ni  Ni29  1  0.83481300  0.66962600  0.02181600  1
  Ni  Ni30  1  0.33037400  0.16518700  0.02181600  1
  Ni  Ni31  1  0.16518700  0.83481300  0.97818400  1
  Ni  Ni32  1  0.16518700  0.33037400  0.97818400  1
  Ni  Ni33  1  0.66962600  0.83481300  0.97818400  1
loop_
_geom_bond_atom_site_label_1
_geom_bond_atom_site_label_2
_geom_bond_distance
_geom_bond_site_symmetry_2
Ni0 Ni3 2.359288 1_555
Ni0 Ni5 2.520859 1_565
Ni0 Ni6 2.520859 1_555
Ni0 Ni4 2.520866 1_555
Ni0 Ni22 2.602855 1_555
Ni0 Ni23 2.602861 1_555
Ni0 Ni24 2.602861 1_555
Ni0 Ni12 2.684620 1_555
Ni0 Ni15 2.684620 1_555
Ni0 Ni11 2.684623 1_555
Ni0 Ni14 2.684623 1_555
Ni0 Ni13 2.684627 1_555
Ni0 Ni10 2.684627 1_555
Ni0 Y2 2.828415 1_555
Ni1 Ni2 2.359288 1_555
Ni1 Ni5 2.520859 1_555
Ni1 Ni6 2.520859 1_655
Ni1 Ni4 2.520866 1_555
Ni1 Ni25 2.602855 1_555
Ni1 Ni27 2.602861 1_555
Ni1 Ni26 2.602861 1_555
Ni1 Ni18 2.684620 1_555
Ni1 Ni21 2.684620 1_555
Ni1 Ni20 2.684623 1_555
Ni1 Ni17 2.684623 1_555
Ni1 Ni19 2.684627 1_555
Ni1 Ni16 2.684627 1_555
Ni1 Y3 2.828415 1_555
Ni2 Ni9 2.520859 1_656
Ni2 Ni8 2.520859 1_556
Ni2 Ni7 2.520866 1_556
Ni2 Ni28 2.602855 1_556
Ni2 Ni30 2.602861 1_556
Ni2 Ni29 2.602861 1_556
Ni2 Ni21 2.684620 1_555
Ni2 Ni20 2.684623 1_555
Ni2 Y3 2.828415 1_556
Ni3 Ni8 2.520859 1_565
Ni3 Ni9 2.520859 1_555
Ni3 Ni7 2.520866 1_555
Ni3 Ni31 2.602855 1_554
Ni3 Ni32 2.602861 1_554
Ni3 Ni33 2.602861 1_554
Ni3 Y2 2.828415 1_554
Ni4 Y2 3.113083 1_555
Ni4 Y3 3.113083 1_555
Ni5 Y2 3.113078 1_545
Ni5 Y3 3.113078 1_555
Ni6 Y3 3.113078 1_455
Ni6 Y2 3.113078 1_555
Ni7 Y3 3.113083 1_555
Ni7 Y2 3.113083 1_554
Ni8 Y2 3.113078 1_544
Ni8 Y3 3.113078 1_555
Ni9 Y3 3.113078 1_455
Ni9 Y2 3.113078 1_554
Ni10 Ni14 2.341683 1_555
Ni10 Ni7 2.377684 1_555
Ni10 Ni4 2.377684 1_555
Ni10 Ni13 2.480777 1_555
Ni10 Ni23 2.491109 1_555
Ni10 Ni32 2.491109 1_554
Ni10 Ni30 2.507432 1_555
Ni10 Ni27 2.507432 1_555
Ni10 Ni3 2.684627 1_555
Ni10 Y0 2.902843 1_555
Ni10 Y3 2.968020 1_555
Ni11 Ni13 2.341683 1_555
Ni11 Ni5 2.377684 1_565
Ni11 Ni8 2.377684 1_565
Ni11 Ni15 2.480777 1_555
Ni11 Ni33 2.491109 1_554
Ni11 Ni24 2.491109 1_555
Ni11 Ni28 2.507432 1_565
Ni11 Ni25 2.507432 1_565
Ni11 Ni3 2.684623 1_555
Ni11 Y0 2.902843 1_665
Ni11 Y3 2.968011 1_565
Ni12 Ni15 2.341683 1_555
Ni12 Ni9 2.377684 1_555
Ni12 Ni6 2.377684 1_555
Ni12 Ni14 2.480777 1_555
Ni12 Ni31 2.491109 1_554
Ni12 Ni22 2.491109 1_555
Ni12 Ni29 2.507432 1_455
Ni12 Ni26 2.507432 1_455
Ni12 Ni3 2.684620 1_555
Ni12 Y0 2.902843 1_565
Ni12 Y3 2.968015 1_455
Ni13 Ni7 2.377684 1_555
Ni13 Ni4 2.377684 1_555
Ni13 Ni24 2.491109 1_555
Ni13 Ni33 2.491109 1_554
Ni13 Ni26 2.507432 1_555
Ni13 Ni29 2.507432 1_555
Ni13 Ni3 2.684627 1_555
Ni13 Y0 2.902843 1_665
Ni13 Y3 2.968020 1_555
Ni14 Ni9 2.377684 1_555
Ni14 Ni6 2.377684 1_555
Ni14 Ni23 2.491109 1_555
Ni14 Ni32 2.491109 1_554
Ni14 Ni25 2.507432 1_455
Ni14 Ni28 2.507432 1_455
Ni14 Ni3 2.684623 1_555
Ni14 Y0 2.902843 1_555
Ni14 Y3 2.968011 1_455
Ni15 Ni8 2.377684 1_565
Ni15 Ni5 2.377684 1_565
Ni15 Ni31 2.491109 1_554
Ni15 Ni22 2.491109 1_555
Ni15 Ni27 2.507432 1_565
Ni15 Ni30 2.507432 1_565
Ni15 Ni3 2.684620 1_555
Ni15 Y0 2.902843 1_565
Ni15 Y3 2.968015 1_565
Ni16 Ni20 2.341683 1_555
Ni16 Ni7 2.377684 1_556
Ni16 Ni4 2.377684 1_555
Ni16 Ni19 2.480777 1_555
Ni16 Ni26 2.491109 1_555
Ni16 Ni29 2.491109 1_556
Ni16 Ni33 2.507432 1_555
Ni16 Ni24 2.507432 1_555
Ni16 Ni2 2.684627 1_555
Ni16 Y1 2.902843 1_665
Ni16 Y2 2.968020 1_555
Ni17 Ni19 2.341683 1_555
Ni17 Ni8 2.377684 1_556
Ni17 Ni5 2.377684 1_555
Ni17 Ni21 2.480777 1_555
Ni17 Ni27 2.491109 1_555
Ni17 Ni30 2.491109 1_556
Ni17 Ni31 2.507432 1_545
Ni17 Ni22 2.507432 1_545
Ni17 Ni2 2.684623 1_555
Ni17 Y1 2.902843 1_555
Ni17 Y2 2.968011 1_545
Ni18 Ni21 2.341683 1_555
Ni18 Ni6 2.377684 1_655
Ni18 Ni9 2.377684 1_656
Ni18 Ni20 2.480777 1_555
Ni18 Ni28 2.491109 1_556
Ni18 Ni25 2.491109 1_555
Ni18 Ni23 2.507432 1_655
Ni18 Ni32 2.507432 1_655
Ni18 Ni2 2.684620 1_555
Ni18 Y1 2.902843 1_655
Ni18 Y2 2.968015 1_655
Ni19 Ni7 2.377684 1_556
Ni19 Ni4 2.377684 1_555
Ni19 Ni27 2.491109 1_555
Ni19 Ni30 2.491109 1_556
Ni19 Ni23 2.507432 1_555
Ni19 Ni32 2.507432 1_555
Ni19 Ni2 2.684627 1_555
Ni19 Y1 2.902843 1_555
Ni19 Y2 2.968020 1_555
Ni20 Ni6 2.377684 1_655
Ni20 Ni9 2.377684 1_656
Ni20 Ni26 2.491109 1_555
Ni20 Ni29 2.491109 1_556
Ni20 Ni31 2.507432 1_655
Ni20 Ni22 2.507432 1_655
Ni20 Y1 2.902843 1_665
Ni20 Y2 2.968011 1_655
Ni21 Ni5 2.377684 1_555
Ni21 Ni8 2.377684 1_556
Ni21 Ni28 2.491109 1_556
Ni21 Ni25 2.491109 1_555
Ni21 Ni33 2.507432 1_545
Ni21 Ni24 2.507432 1_545
Ni21 Y1 2.902843 1_655
Ni21 Y2 2.968015 1_545
Ni22 Ni27 2.386868 1_565
Ni22 Ni26 2.386868 1_455
Ni22 Ni6 2.399280 1_555
Ni22 Ni5 2.399280 1_565
Ni22 Y1 2.986737 1_565
Ni22 Y2 3.020283 1_555
Ni22 Y0 3.212858 1_565
Ni23 Ni25 2.386868 1_455
Ni23 Ni27 2.386868 1_555
Ni23 Ni4 2.399280 1_555
Ni23 Ni6 2.399280 1_555
Ni23 Y1 2.986737 1_555
Ni23 Y2 3.020289 1_555
Ni23 Y0 3.212858 1_555
Ni24 Ni25 2.386868 1_565
Ni24 Ni26 2.386868 1_555
Ni24 Ni4 2.399280 1_555
Ni24 Ni5 2.399280 1_565
Ni24 Y1 2.986737 1_665
Ni24 Y2 3.020289 1_555
Ni24 Y0 3.212858 1_665
Ni25 Ni5 2.399280 1_555
Ni25 Ni6 2.399280 1_655
Ni25 Y0 2.986737 1_655
Ni25 Y3 3.020283 1_555
Ni25 Y1 3.212858 1_655
Ni26 Ni4 2.399280 1_555
Ni26 Ni6 2.399280 1_655
Ni26 Y0 2.986737 1_665
Ni26 Y3 3.020289 1_555
Ni26 Y1 3.212858 1_665
Ni27 Ni4 2.399280 1_555
Ni27 Ni5 2.399280 1_555
Ni27 Y0 2.986737 1_555
Ni27 Y3 3.020289 1_555
Ni27 Y1 3.212858 1_555
Ni28 Ni32 2.386868 1_654
Ni28 Ni33 2.386868 1_544
Ni28 Ni9 2.399280 1_655
Ni28 Ni8 2.399280 1_555
Ni28 Y0 2.986737 1_655
Ni28 Y3 3.020283 1_555
Ni28 Y1 3.212858 1_654
Ni29 Ni31 2.386868 1_654
Ni29 Ni33 2.386868 1_554
Ni29 Ni7 2.399280 1_555
Ni29 Ni9 2.399280 1_655
Ni29 Y0 2.986737 1_665
Ni29 Y3 3.020289 1_555
Ni29 Y1 3.212858 1_664
Ni30 Ni31 2.386868 1_544
Ni30 Ni32 2.386868 1_554
Ni30 Ni7 2.399280 1_555
Ni30 Ni8 2.399280 1_555
Ni30 Y0 2.986737 1_555
Ni30 Y3 3.020289 1_555
Ni30 Y1 3.212858 1_554
Ni31 Ni9 2.399280 1_556
Ni31 Ni8 2.399280 1_566
Ni31 Y1 2.986737 1_565
Ni31 Y2 3.020283 1_555
Ni31 Y0 3.212858 1_566
Ni32 Ni7 2.399280 1_556
Ni32 Ni9 2.399280 1_556
Ni32 Y1 2.986737 1_555
Ni32 Y2 3.020289 1_555
Ni32 Y0 3.212858 1_556
Ni33 Ni7 2.399280 1_556
Ni33 Ni8 2.399280 1_566
Ni33 Y1 2.986737 1_665
Ni33 Y2 3.020289 1_555
Ni33 Y0 3.212858 1_666
