# generated using pymatgen
data_FeC2N3
_symmetry_space_group_name_H-M   'P 1'
_cell_length_a   6.80566185
_cell_length_b   8.54349047
_cell_length_c   5.95716028
_cell_angle_alpha   89.99999825
_cell_angle_beta   99.27594749
_cell_angle_gamma   51.12118988
_symmetry_Int_Tables_number   1
_chemical_formula_structural   FeC2N3
_chemical_formula_sum   'Fe4 C8 N12'
_cell_volume   263.79990148
_cell_formula_units_Z   4
loop_
 _symmetry_equiv_pos_site_id
 _symmetry_equiv_pos_as_xyz
  1  'x, y, z'
loop_
 _atom_site_type_symbol
 _atom_site_label
 _atom_site_symmetry_multiplicity
 _atom_site_fract_x
 _atom_site_fract_y
 _atom_site_fract_z
 _atom_site_occupancy
  Fe  Fe0  1  0.00000000  0.97087500  0.75000000  1
  Fe  Fe1  1  0.00000000  0.02912500  0.25000000  1
  Fe  Fe2  1  0.00000000  0.26189700  0.75000000  1
  Fe  Fe3  1  0.00000000  0.73810300  0.25000000  1
  C  C0  1  0.39268700  0.56733500  0.56454800  1
  C  C1  1  0.60731300  0.96002200  0.93545200  1
  C  C2  1  0.60731300  0.43266500  0.43545200  1
  C  C3  1  0.39268700  0.03997800  0.06454800  1
  C  C4  1  0.28233800  0.51067000  0.89297800  1
  C  C5  1  0.71766200  0.79300800  0.60702200  1
  C  C6  1  0.71766200  0.48933000  0.10702200  1
  C  C7  1  0.28233800  0.20699200  0.39297800  1
  N  N0  1  0.20653900  0.77195500  0.51136900  1
  N  N1  1  0.79346100  0.97849500  0.98863100  1
  N  N2  1  0.79346100  0.22804500  0.48863100  1
  N  N3  1  0.20653900  0.02150500  0.01136900  1
  N  N4  1  0.41489500  0.45478700  0.74141500  1
  N  N5  1  0.58510500  0.86968200  0.75858500  1
  N  N6  1  0.58510500  0.54521300  0.25858500  1
  N  N7  1  0.41489500  0.13031800  0.24141500  1
  N  N8  1  0.17906000  0.53910100  0.04978200  1
  N  N9  1  0.82094000  0.71816100  0.45021800  1
  N  N10  1  0.82094000  0.46089900  0.95021800  1
  N  N11  1  0.17906000  0.28183900  0.54978200  1
loop_
_geom_bond_atom_site_label_1
_geom_bond_atom_site_label_2
_geom_bond_distance
_geom_bond_site_symmetry_2
Fe0 N1 2.128424 1_455
Fe0 N0 2.128428 1_555
Fe0 N3 2.155211 1_566
Fe0 N2 2.155216 1_465
Fe1 N3 2.128424 1_555
Fe1 N2 2.128428 1_455
Fe1 N1 2.155211 1_444
Fe1 N0 2.155216 1_545
Fe2 N11 1.914650 1_555
Fe2 N10 1.914650 1_455
Fe2 N2 2.070878 1_455
Fe2 N3 2.070883 1_556
Fe3 N9 1.914650 1_455
Fe3 N8 1.914650 1_555
Fe3 N0 2.070878 1_555
Fe3 N1 2.070883 1_454
C0 N4 1.350473 1_555
C0 N0 1.360809 1_555
C1 N5 1.350473 1_555
C1 N1 1.360815 1_555
C2 N6 1.350473 1_555
C2 N2 1.360809 1_555
C3 N7 1.350473 1_555
C3 N3 1.360815 1_555
C4 N8 1.192865 1_556
C4 N4 1.256539 1_555
C5 N9 1.192865 1_555
C5 N5 1.256539 1_555
C6 N10 1.192865 1_554
C6 N6 1.256539 1_555
C7 N11 1.192865 1_555
C7 N7 1.256539 1_555
