# generated using pymatgen
data_NaYb3
_symmetry_space_group_name_H-M   'P 1'
_cell_length_a   7.04081957
_cell_length_b   7.04081957
_cell_length_c   5.75520203
_cell_angle_alpha   90.00000000
_cell_angle_beta   90.00000000
_cell_angle_gamma   120.00000269
_symmetry_Int_Tables_number   1
_chemical_formula_structural   NaYb3
_chemical_formula_sum   'Na2 Yb6'
_cell_volume   247.08001802
_cell_formula_units_Z   2
loop_
 _symmetry_equiv_pos_site_id
 _symmetry_equiv_pos_as_xyz
  1  'x, y, z'
loop_
 _atom_site_type_symbol
 _atom_site_label
 _atom_site_symmetry_multiplicity
 _atom_site_fract_x
 _atom_site_fract_y
 _atom_site_fract_z
 _atom_site_occupancy
  Na  Na0  1  0.33333300  0.66666700  0.75000000  1
  Na  Na1  1  0.66666700  0.33333300  0.25000000  1
  Yb  Yb0  1  0.67311410  0.83655655  0.25000000  1
  Yb  Yb1  1  0.16344345  0.83655655  0.25000000  1
  Yb  Yb2  1  0.83655655  0.67311410  0.75000000  1
  Yb  Yb3  1  0.32688590  0.16344345  0.75000000  1
  Yb  Yb4  1  0.83655655  0.16344345  0.75000000  1
  Yb  Yb5  1  0.16344345  0.32688590  0.25000000  1
loop_
_geom_bond_atom_site_label_1
_geom_bond_atom_site_label_2
_geom_bond_distance
_geom_bond_site_symmetry_2
Na0 Yb4 3.520629 1_455
Na0 Yb4 3.520629 1_565
Na0 Yb2 3.520629 1_555
Na0 Yb3 3.520629 1_555
Na0 Yb3 3.520629 1_565
Na0 Yb2 3.520629 1_455
Na0 Yb1 3.545842 1_555
Na0 Yb1 3.545842 1_556
Na0 Yb0 3.545849 1_556
Na0 Yb0 3.545849 1_555
Na0 Yb5 3.545849 1_555
Na0 Yb5 3.545849 1_556
Na1 Yb1 3.520629 1_545
Na1 Yb1 3.520629 1_655
Na1 Yb0 3.520629 1_555
Na1 Yb5 3.520629 1_555
Na1 Yb5 3.520629 1_655
Na1 Yb0 3.520629 1_545
Na1 Yb4 3.545842 1_555
Na1 Yb4 3.545842 1_554
Na1 Yb3 3.545849 1_555
Na1 Yb2 3.545849 1_555
Na1 Yb2 3.545849 1_554
Na1 Yb3 3.545849 1_554
Yb0 Yb5 3.452320 1_665
Yb0 Yb1 3.452321 1_655
Yb0 Yb2 3.500485 1_555
Yb0 Yb2 3.500485 1_554
Yb0 Yb4 3.500492 1_565
Yb0 Yb4 3.500492 1_564
Yb0 Yb5 3.588499 1_555
Yb0 Yb1 3.588499 1_555
Yb1 Yb5 3.452321 1_565
Yb1 Yb3 3.500492 1_565
Yb1 Yb2 3.500492 1_454
Yb1 Yb2 3.500492 1_455
Yb1 Yb3 3.500492 1_564
Yb1 Yb5 3.588499 1_555
Yb2 Yb3 3.452320 1_665
Yb2 Yb4 3.452321 1_565
Yb2 Yb3 3.588499 1_555
Yb2 Yb4 3.588499 1_555
Yb3 Yb4 3.452321 1_455
Yb3 Yb5 3.500485 1_555
Yb3 Yb5 3.500485 1_556
Yb3 Yb4 3.588499 1_555
Yb4 Yb5 3.500492 1_656
Yb4 Yb5 3.500492 1_655
