# generated using pymatgen
data_Mg4Si7
_symmetry_space_group_name_H-M   'P 1'
_cell_length_a   4.30300400
_cell_length_b   6.74468341
_cell_length_c   14.06638031
_cell_angle_alpha   102.28765948
_cell_angle_beta   89.88126897
_cell_angle_gamma   90.77588491
_symmetry_Int_Tables_number   1
_chemical_formula_structural   Mg4Si7
_chemical_formula_sum   'Mg8 Si14'
_cell_volume   398.85120596
_cell_formula_units_Z   2
loop_
 _symmetry_equiv_pos_site_id
 _symmetry_equiv_pos_as_xyz
  1  'x, y, z'
loop_
 _atom_site_type_symbol
 _atom_site_label
 _atom_site_symmetry_multiplicity
 _atom_site_fract_x
 _atom_site_fract_y
 _atom_site_fract_z
 _atom_site_occupancy
  Mg  Mg0  1  0.93078600  0.17660600  0.94162600  1
  Mg  Mg1  1  0.93270700  0.29220900  0.50957300  1
  Mg  Mg2  1  0.42587000  0.07601800  0.35256500  1
  Mg  Mg3  1  0.43863400  0.53751600  0.65439900  1
  Mg  Mg4  1  0.92869900  0.64609300  0.84454500  1
  Mg  Mg5  1  0.93004000  0.71080900  0.07096400  1
  Mg  Mg6  1  0.43555800  0.56249800  0.41866600  1
  Mg  Mg7  1  0.42939800  0.00977900  0.58169000  1
  Si  Si0  1  0.42574500  0.50352400  0.95315200  1
  Si  Si1  1  0.43082800  0.87760000  0.96554300  1
  Si  Si2  1  0.43261600  0.97589700  0.14593100  1
  Si  Si3  1  0.43602100  0.33894100  0.08917000  1
  Si  Si4  1  0.94333500  0.69385200  0.55764100  1
  Si  Si5  1  0.92156400  0.89537500  0.43947300  1
  Si  Si6  1  0.93632200  0.16941700  0.15041400  1
  Si  Si7  1  0.42688200  0.91953100  0.79709600  1
  Si  Si8  1  0.93471400  0.27273400  0.70556300  1
  Si  Si9  1  0.43328100  0.66379000  0.20568700  1
  Si  Si10  1  0.93103800  0.32397200  0.32004800  1
  Si  Si11  1  0.43304200  0.28437800  0.79802700  1
  Si  Si12  1  0.92600200  0.91722600  0.71275000  1
  Si  Si13  1  0.93324600  0.65585200  0.28908100  1
loop_
_geom_bond_atom_site_label_1
_geom_bond_atom_site_label_2
_geom_bond_distance
_geom_bond_site_symmetry_2
Mg0 Si6 2.947742 1_556
Mg0 Si1 2.996119 1_545
Mg0 Si3 3.019317 1_556
Mg0 Si0 3.024286 1_655
Mg0 Si1 3.036331 1_645
Mg0 Si3 3.036372 1_656
Mg0 Si0 3.096296 1_555
Mg0 Si11 3.137447 1_655
Mg0 Si11 3.143368 1_555
Mg0 Si7 3.202672 1_545
Mg0 Si7 3.205985 1_645
Mg1 Si5 2.647968 1_545
Mg1 Si4 2.648556 1_555
Mg1 Si10 2.719623 1_555
Mg1 Si8 2.787817 1_555
Mg2 Si10 2.820318 1_555
Mg2 Si10 2.822387 1_455
Mg2 Si2 2.840753 1_545
Mg2 Si5 2.870420 1_445
Mg2 Si5 2.871174 1_545
Mg2 Si9 3.091439 1_545
Mg3 Si4 2.861872 1_455
Mg3 Si4 2.866574 1_555
Mg3 Si11 2.909324 1_555
Mg3 Si7 2.910677 1_555
Mg3 Si8 2.974028 1_455
Mg3 Si8 2.986743 1_555
Mg4 Si8 2.840774 1_555
Mg4 Si12 2.867897 1_555
Mg4 Si0 2.915057 1_555
Mg4 Si0 2.920183 1_655
Mg4 Si1 2.965819 1_655
Mg4 Si7 2.975407 1_655
Mg4 Si1 2.978062 1_555
Mg4 Si7 3.024427 1_555
Mg4 Si11 3.180307 1_555
Mg4 Si11 3.247741 1_655
Mg5 Si2 2.843892 1_655
Mg5 Si2 2.860399 1_555
Mg5 Si0 2.886281 1_654
Mg5 Si0 2.890726 1_554
Mg5 Si9 2.912326 1_555
Mg5 Si9 2.944896 1_655
Mg5 Si1 2.956214 1_654
Mg5 Si1 2.977845 1_554
Mg5 Si6 3.056774 1_565
Mg5 Si13 3.167854 1_555
Mg6 Si10 2.861622 1_555
Mg6 Si10 2.862433 1_455
Mg6 Si4 2.896378 1_455
Mg6 Si4 2.934044 1_555
Mg6 Si13 2.956533 1_555
Mg6 Si13 2.988743 1_455
Mg6 Si5 3.015878 1_555
Mg6 Si5 3.141682 1_455
Mg6 Si9 3.211445 1_555
Mg7 Si5 2.907238 1_545
Mg7 Si4 2.933392 1_445
Mg7 Si5 2.947523 1_445
Mg7 Si12 2.982766 1_545
Mg7 Si12 2.986140 1_445
Mg7 Si4 3.059932 1_545
Mg7 Si8 3.079635 1_455
Mg7 Si8 3.083084 1_555
Mg7 Si11 3.208002 1_555
Si0 Si11 2.361186 1_555
Si0 Si3 2.408425 1_556
Si0 Si1 2.491556 1_555
Si1 Si7 2.445411 1_555
Si1 Si2 2.482326 1_556
Si2 Si9 2.427165 1_555
Si2 Si6 2.508855 1_565
Si2 Si6 2.511593 1_465
Si2 Si3 2.732130 1_565
Si3 Si9 2.441110 1_555
Si3 Si6 2.649126 1_455
Si3 Si6 2.679109 1_555
Si4 Si5 2.363229 1_555
Si10 Si13 2.369558 1_555
Si10 Si6 2.392176 1_555
Si11 Si7 2.457808 1_545
Si11 Si8 2.501877 1_455
Si11 Si8 2.511427 1_555
Si12 Si4 2.374650 1_555
Si12 Si8 2.421104 1_565
Si12 Si7 2.450115 1_555
Si12 Si7 2.460690 1_655
Si13 Si5 2.373756 1_555
Si13 Si9 2.453911 1_655
Si13 Si9 2.459175 1_555
