# generated using pymatgen
data_MnZn4Se5
_symmetry_space_group_name_H-M   'P 1'
_cell_length_a   6.98892581
_cell_length_b   6.98892581
_cell_length_c   9.90062705
_cell_angle_alpha   61.97852629
_cell_angle_beta   61.97852629
_cell_angle_gamma   33.53001316
_symmetry_Int_Tables_number   1
_chemical_formula_structural   MnZn4Se5
_chemical_formula_sum   'Mn1 Zn4 Se5'
_cell_volume   232.76114493
_cell_formula_units_Z   1
loop_
 _symmetry_equiv_pos_site_id
 _symmetry_equiv_pos_as_xyz
  1  'x, y, z'
loop_
 _atom_site_type_symbol
 _atom_site_label
 _atom_site_symmetry_multiplicity
 _atom_site_fract_x
 _atom_site_fract_y
 _atom_site_fract_z
 _atom_site_occupancy
  Mn  Mn0  1  0.00096831  0.00096831  0.99853600  1
  Zn  Zn0  1  0.60127009  0.60127009  0.59452579  1
  Zn  Zn1  1  0.19826034  0.19826034  0.20200992  1
  Zn  Zn2  1  0.80221974  0.80221974  0.79859167  1
  Zn  Zn3  1  0.39759123  0.39759123  0.40520199  1
  Se  Se0  1  0.79852659  0.79852659  0.55249831  1
  Se  Se1  1  0.39495177  0.39495177  0.15906644  1
  Se  Se2  1  0.00251285  0.00251285  0.74196377  1
  Se  Se3  1  0.59823199  0.59823199  0.34877839  1
  Se  Se4  1  0.20546908  0.20546908  0.94882472  1
loop_
_geom_bond_atom_site_label_1
_geom_bond_atom_site_label_2
_geom_bond_distance
_geom_bond_site_symmetry_2
Mn0 Se1 2.527907 1_456
Mn0 Se1 2.527907 1_546
Mn0 Se2 2.530147 1_555
Mn0 Se4 2.532078 1_555
Se0 Zn3 2.459919 1_655
Se0 Zn3 2.459919 1_565
Se0 Zn2 2.461108 1_555
Se0 Zn0 2.462702 1_555
Se1 Zn1 2.452003 1_555
Se1 Zn3 2.454422 1_555
Se2 Zn2 2.454686 1_445
Se2 Zn0 2.459363 1_455
Se2 Zn0 2.459363 1_545
Se3 Zn0 2.453260 1_555
Se3 Zn3 2.459869 1_555
Se3 Zn1 2.461455 1_655
Se3 Zn1 2.461455 1_565
Se4 Zn1 2.460790 1_556
Se4 Zn2 2.462328 1_455
Se4 Zn2 2.462328 1_545
