# generated using pymatgen
data_Li7Mn2(CoO4)3
_symmetry_space_group_name_H-M   'P 1'
_cell_length_a   7.76709534
_cell_length_b   7.76709534
_cell_length_c   10.22228843
_cell_angle_alpha   71.19604388
_cell_angle_beta   71.19604388
_cell_angle_gamma   21.70444666
_symmetry_Int_Tables_number   1
_chemical_formula_structural   Li7Mn2(CoO4)3
_chemical_formula_sum   'Li7 Mn2 Co3 O12'
_cell_volume   215.42996431
_cell_formula_units_Z   1
loop_
 _symmetry_equiv_pos_site_id
 _symmetry_equiv_pos_as_xyz
  1  'x, y, z'
loop_
 _atom_site_type_symbol
 _atom_site_label
 _atom_site_symmetry_multiplicity
 _atom_site_fract_x
 _atom_site_fract_y
 _atom_site_fract_z
 _atom_site_occupancy
  Li  Li0  1  0.49519600  0.49519600  0.24383700  1
  Li  Li1  1  0.16343800  0.16343800  0.75511400  1
  Li  Li2  1  0.83656200  0.83656200  0.24488600  1
  Li  Li3  1  0.50480400  0.50480400  0.75616300  1
  Li  Li4  1  0.16393800  0.16393800  0.25355000  1
  Li  Li5  1  0.83606200  0.83606200  0.74645000  1
  Li  Li6  1  0.00000000  0.00000000  0.00000000  1
  Mn  Mn0  1  0.33730700  0.33730700  0.00309000  1
  Mn  Mn1  1  0.66269300  0.66269300  0.99691000  1
  Co  Co0  1  0.00000000  0.00000000  0.50000000  1
  Co  Co1  1  0.33344300  0.33344300  0.49880600  1
  Co  Co2  1  0.66655700  0.66655700  0.50119400  1
  O  O0  1  0.59335400  0.59335400  0.88300200  1
  O  O1  1  0.24355900  0.24355900  0.38655500  1
  O  O2  1  0.90493000  0.90493000  0.88963200  1
  O  O3  1  0.57847700  0.57847700  0.38456300  1
  O  O4  1  0.24524000  0.24524000  0.89406400  1
  O  O5  1  0.91300800  0.91300800  0.38281200  1
  O  O6  1  0.42152300  0.42152300  0.61543700  1
  O  O7  1  0.09507000  0.09507000  0.11036800  1
  O  O8  1  0.75644100  0.75644100  0.61344500  1
  O  O9  1  0.40664600  0.40664600  0.11699800  1
  O  O10  1  0.08699200  0.08699200  0.61718800  1
  O  O11  1  0.75476000  0.75476000  0.10593600  1
loop_
_geom_bond_atom_site_label_1
_geom_bond_atom_site_label_2
_geom_bond_distance
_geom_bond_site_symmetry_2
Li0 O5 2.135346 1_545
Li0 O5 2.135346 1_455
Li0 O9 2.157770 1_555
Li0 O3 2.209861 1_555
Li0 O7 2.226454 1_655
Li0 O7 2.226454 1_565
Li1 O0 2.018237 1_545
Li1 O0 2.018237 1_455
Li1 O10 2.104156 1_555
Li1 O4 2.176827 1_555
Li1 O8 2.213639 1_545
Li1 O8 2.213639 1_455
Li2 O9 2.018237 1_565
Li2 O9 2.018237 1_655
Li2 O5 2.104156 1_555
Li2 O11 2.176827 1_555
Li2 O1 2.213639 1_565
Li2 O1 2.213639 1_655
Li3 O10 2.135346 1_655
Li3 O10 2.135346 1_565
Li3 O0 2.157770 1_555
Li3 O6 2.209861 1_555
Li3 O2 2.226454 1_545
Li3 O2 2.226454 1_455
Li4 O7 2.062913 1_555
Li4 O1 2.099573 1_555
Li4 O3 2.117991 1_545
Li4 O3 2.117991 1_455
Li4 O11 2.227768 1_455
Li4 O11 2.227768 1_545
Li5 O2 2.062913 1_555
Li5 O8 2.099573 1_555
Li5 O6 2.117991 1_655
Li5 O6 2.117991 1_565
Li5 O4 2.227768 1_655
Li5 O4 2.227768 1_565
Li6 O2 2.109673 1_444
Li6 O7 2.109673 1_555
Li6 O0 2.116426 1_454
Li6 O0 2.116426 1_544
Li6 O9 2.116426 1_545
Li6 O9 2.116426 1_455
Mn0 O9 1.812026 1_555
Mn0 O2 1.939741 1_454
Mn0 O2 1.939741 1_544
Mn0 O11 1.990154 1_545
Mn0 O11 1.990154 1_455
Mn0 O4 2.059751 1_554
Mn1 O0 1.812026 1_555
Mn1 O7 1.939741 1_656
Mn1 O7 1.939741 1_566
Mn1 O4 1.990154 1_655
Mn1 O4 1.990154 1_565
Mn1 O11 2.059751 1_556
Co0 O6 2.009245 1_455
Co0 O6 2.009245 1_545
Co0 O3 2.009245 1_545
Co0 O3 2.009245 1_455
Co0 O10 2.059136 1_555
Co0 O5 2.059136 1_445
Co1 O8 1.997053 1_455
Co1 O8 1.997053 1_545
Co1 O5 2.018208 1_545
Co1 O5 2.018208 1_455
Co1 O1 2.056698 1_555
Co1 O6 2.068526 1_555
Co2 O1 1.997053 1_565
Co2 O1 1.997053 1_655
Co2 O10 2.018208 1_565
Co2 O10 2.018208 1_655
Co2 O8 2.056698 1_555
Co2 O3 2.068526 1_555
