# generated using pymatgen
data_Nb3Br7N2O5
_symmetry_space_group_name_H-M   'P 1'
_cell_length_a   10.13937940
_cell_length_b   10.13937940
_cell_length_c   11.50211976
_cell_angle_alpha   72.08810747
_cell_angle_beta   72.08810747
_cell_angle_gamma   52.34391350
_symmetry_Int_Tables_number   1
_chemical_formula_structural   Nb3Br7N2O5
_chemical_formula_sum   'Nb6 Br14 N4 O10'
_cell_volume   879.48844988
_cell_formula_units_Z   2
loop_
 _symmetry_equiv_pos_site_id
 _symmetry_equiv_pos_as_xyz
  1  'x, y, z'
loop_
 _atom_site_type_symbol
 _atom_site_label
 _atom_site_symmetry_multiplicity
 _atom_site_fract_x
 _atom_site_fract_y
 _atom_site_fract_z
 _atom_site_occupancy
  Nb  Nb0  1  0.21789000  0.78838900  0.52065300  1
  Nb  Nb1  1  0.21161100  0.78211000  0.97934700  1
  Nb  Nb2  1  0.78211000  0.21161100  0.47934700  1
  Nb  Nb3  1  0.78838900  0.21789000  0.02065300  1
  Nb  Nb4  1  0.46822200  0.53177800  0.25000000  1
  Nb  Nb5  1  0.53177800  0.46822200  0.75000000  1
  Br  Br0  1  0.06420400  0.63853000  0.62615000  1
  Br  Br1  1  0.36147000  0.93579600  0.87385000  1
  Br  Br2  1  0.93579600  0.36147000  0.37385000  1
  Br  Br3  1  0.63853000  0.06420400  0.12615000  1
  Br  Br4  1  0.36482700  0.93915400  0.45689300  1
  Br  Br5  1  0.06084600  0.63517300  0.04310700  1
  Br  Br6  1  0.63517300  0.06084600  0.54310700  1
  Br  Br7  1  0.93915400  0.36482700  0.95689300  1
  Br  Br8  1  0.28725000  0.41465300  0.33150200  1
  Br  Br9  1  0.58534700  0.71275000  0.16849800  1
  Br  Br10  1  0.71275000  0.58534700  0.66849800  1
  Br  Br11  1  0.41465300  0.28725000  0.83150200  1
  Br  Br12  1  0.07716100  0.92283900  0.75000000  1
  Br  Br13  1  0.92283900  0.07716100  0.25000000  1
  N  N0  1  0.75382500  0.84944300  0.85638200  1
  N  N1  1  0.15055700  0.24617500  0.64361800  1
  N  N2  1  0.24617500  0.15055700  0.14361800  1
  N  N3  1  0.84944300  0.75382500  0.35638200  1
  O  O0  1  0.29304700  0.70820800  0.37718800  1
  O  O1  1  0.29179200  0.70695300  0.12281200  1
  O  O2  1  0.70695300  0.29179200  0.62281200  1
  O  O3  1  0.70820800  0.29304700  0.87718800  1
  O  O4  1  0.39431900  0.60786900  0.62689800  1
  O  O5  1  0.39213100  0.60568100  0.87310200  1
  O  O6  1  0.60568100  0.39213100  0.37310200  1
  O  O7  1  0.60786900  0.39431900  0.12689800  1
  O  O8  1  0.00000000  0.00000000  0.50000000  1
  O  O9  1  0.00000000  0.00000000  0.00000000  1
loop_
_geom_bond_atom_site_label_1
_geom_bond_atom_site_label_2
_geom_bond_distance
_geom_bond_site_symmetry_2
Nb0 O0 1.805379 1_555
Nb0 O8 1.938667 1_565
Nb0 O4 2.002961 1_555
Nb1 O1 1.805379 1_556
Nb1 O9 1.938667 1_566
Nb1 O5 2.002961 1_555
Nb2 O2 1.805379 1_555
Nb2 O8 1.938667 1_655
Nb2 O6 2.002961 1_555
Nb3 O3 1.805379 1_554
Nb3 O9 1.938667 1_655
Nb3 O7 2.002961 1_555
Nb4 O6 1.876620 1_555
Nb4 O7 1.876620 1_555
Nb4 O0 2.150413 1_555
Nb4 O1 2.150413 1_555
Nb5 O5 1.876620 1_555
Nb5 O4 1.876620 1_555
Nb5 O3 2.150413 1_555
Nb5 O2 2.150413 1_555
Br0 Nb0 2.608696 1_555
Br1 Nb1 2.608696 1_555
Br2 Nb2 2.608696 1_555
Br3 Nb3 2.608696 1_555
Br4 Nb0 2.552519 1_555
Br5 Nb1 2.552519 1_554
Br6 Nb2 2.552519 1_555
Br7 Nb3 2.552519 1_556
Br8 Nb4 2.564339 1_555
Br9 Nb4 2.564339 1_555
Br10 Nb5 2.564339 1_555
Br11 Nb5 2.564339 1_555
Br12 Nb1 2.893675 1_555
Br12 Nb0 2.893675 1_555
Br13 Nb2 2.893675 1_555
Br13 Nb3 2.893675 1_555
