# generated using pymatgen
data_CuB2P2(HO2)6
_symmetry_space_group_name_H-M   'P 1'
_cell_length_a   7.98808800
_cell_length_b   13.70395700
_cell_length_c   8.55339300
_cell_angle_alpha   90.00000000
_cell_angle_beta   90.00000000
_cell_angle_gamma   90.00000000
_symmetry_Int_Tables_number   1
_chemical_formula_structural   CuB2P2(HO2)6
_chemical_formula_sum   'Cu4 B8 P8 H24 O48'
_cell_volume   936.32637000
_cell_formula_units_Z   4
loop_
 _symmetry_equiv_pos_site_id
 _symmetry_equiv_pos_as_xyz
  1  'x, y, z'
loop_
 _atom_site_type_symbol
 _atom_site_label
 _atom_site_symmetry_multiplicity
 _atom_site_fract_x
 _atom_site_fract_y
 _atom_site_fract_z
 _atom_site_occupancy
  Cu  Cu0  1  0.50000000  0.00000000  0.50000000  1
  Cu  Cu1  1  0.50000000  0.50000000  0.00000000  1
  Cu  Cu2  1  0.00000000  0.00000000  0.00000000  1
  Cu  Cu3  1  0.00000000  0.50000000  0.50000000  1
  B  B0  1  0.25544400  0.82444100  0.42191300  1
  B  B1  1  0.74455600  0.32444100  0.07808700  1
  B  B2  1  0.24455600  0.17555900  0.92191300  1
  B  B3  1  0.75544400  0.67555900  0.57808700  1
  B  B4  1  0.74455600  0.17555900  0.57808700  1
  B  B5  1  0.25544400  0.67555900  0.92191300  1
  B  B6  1  0.75544400  0.82444100  0.07808700  1
  B  B7  1  0.24455600  0.32444100  0.42191300  1
  P  P0  1  0.59152600  0.79589000  0.36770500  1
  P  P1  1  0.40847400  0.29589000  0.13229500  1
  P  P2  1  0.90847400  0.20411000  0.86770500  1
  P  P3  1  0.09152600  0.70411000  0.63229500  1
  P  P4  1  0.40847400  0.20411000  0.63229500  1
  P  P5  1  0.59152600  0.70411000  0.86770500  1
  P  P6  1  0.09152600  0.79589000  0.13229500  1
  P  P7  1  0.90847400  0.29589000  0.36770500  1
  H  H0  1  0.20880500  0.97138200  0.37794300  1
  H  H1  1  0.79119500  0.47138200  0.12205700  1
  H  H2  1  0.29119500  0.02861800  0.87794300  1
  H  H3  1  0.70880500  0.52861800  0.62205700  1
  H  H4  1  0.79119500  0.02861800  0.62205700  1
  H  H5  1  0.20880500  0.52861800  0.87794300  1
  H  H6  1  0.70880500  0.97138200  0.12205700  1
  H  H7  1  0.29119500  0.47138200  0.37794300  1
  H  H8  1  0.37344900  0.88541100  0.79155000  1
  H  H9  1  0.62655100  0.38541100  0.70845000  1
  H  H10  1  0.12655100  0.11458900  0.29155000  1
  H  H11  1  0.87344900  0.61458900  0.20845000  1
  H  H12  1  0.62655100  0.11458900  0.20845000  1
  H  H13  1  0.37344900  0.61458900  0.29155000  1
  H  H14  1  0.87344900  0.88541100  0.70845000  1
  H  H15  1  0.12655100  0.38541100  0.79155000  1
  H  H16  1  0.53087600  0.94136500  0.84411600  1
  H  H17  1  0.46912400  0.44136500  0.65588400  1
  H  H18  1  0.96912400  0.05863500  0.34411600  1
  H  H19  1  0.03087600  0.55863500  0.15588400  1
  H  H20  1  0.46912400  0.05863500  0.15588400  1
  H  H21  1  0.53087600  0.55863500  0.34411600  1
  H  H22  1  0.03087600  0.94136500  0.65588400  1
  H  H23  1  0.96912400  0.44136500  0.84411600  1
  O  O0  1  0.63595100  0.88554400  0.46306400  1
  O  O1  1  0.36404900  0.38554400  0.03693600  1
  O  O2  1  0.86404900  0.11445600  0.96306400  1
  O  O3  1  0.13595100  0.61445600  0.53693600  1
  O  O4  1  0.36404900  0.11445600  0.53693600  1
  O  O5  1  0.63595100  0.61445600  0.96306400  1
  O  O6  1  0.13595100  0.88554400  0.03693600  1
  O  O7  1  0.86404900  0.38554400  0.46306400  1
  O  O8  1  0.40372500  0.76515800  0.38205300  1
  O  O9  1  0.59627500  0.26515800  0.11794700  1
  O  O10  1  0.09627500  0.23484200  0.88205300  1
  O  O11  1  0.90372500  0.73484200  0.61794700  1
  O  O12  1  0.59627500  0.23484200  0.61794700  1
  O  O13  1  0.40372500  0.73484200  0.88205300  1
  O  O14  1  0.90372500  0.76515800  0.11794700  1
  O  O15  1  0.09627500  0.26515800  0.38205300  1
  O  O16  1  0.61768600  0.80676000  0.18851100  1
  O  O17  1  0.38231400  0.30676000  0.31148900  1
  O  O18  1  0.88231400  0.19324000  0.68851100  1
  O  O19  1  0.11768600  0.69324000  0.81148900  1
  O  O20  1  0.38231400  0.19324000  0.81148900  1
  O  O21  1  0.61768600  0.69324000  0.68851100  1
  O  O22  1  0.11768600  0.80676000  0.31148900  1
  O  O23  1  0.88231400  0.30676000  0.18851100  1
  O  O24  1  0.69734300  0.70597400  0.41874600  1
  O  O25  1  0.30265700  0.20597400  0.08125400  1
  O  O26  1  0.80265700  0.29402600  0.91874600  1
  O  O27  1  0.19734300  0.79402600  0.58125400  1
  O  O28  1  0.30265700  0.29402600  0.58125400  1
  O  O29  1  0.69734300  0.79402600  0.91874600  1
  O  O30  1  0.19734300  0.70597400  0.08125400  1
  O  O31  1  0.80265700  0.20597400  0.41874600  1
  O  O32  1  0.29409400  0.92850900  0.42911900  1
  O  O33  1  0.70590600  0.42850900  0.07088100  1
  O  O34  1  0.20590600  0.07149100  0.92911900  1
  O  O35  1  0.79409400  0.57149100  0.57088100  1
  O  O36  1  0.70590600  0.07149100  0.57088100  1
  O  O37  1  0.29409400  0.57149100  0.92911900  1
  O  O38  1  0.79409400  0.92850900  0.07088100  1
  O  O39  1  0.20590600  0.42850900  0.42911900  1
  O  O40  1  0.42474300  0.95033400  0.78911400  1
  O  O41  1  0.57525700  0.45033400  0.71088600  1
  O  O42  1  0.07525700  0.04966600  0.28911400  1
  O  O43  1  0.92474300  0.54966600  0.21088600  1
  O  O44  1  0.57525700  0.04966600  0.21088600  1
  O  O45  1  0.42474300  0.54966600  0.28911400  1
  O  O46  1  0.92474300  0.95033400  0.71088600  1
  O  O47  1  0.07525700  0.45033400  0.78911400  1
loop_
_geom_bond_atom_site_label_1
_geom_bond_atom_site_label_2
_geom_bond_distance
_geom_bond_site_symmetry_2
Cu0 O4 1.933746 1_555
Cu0 O0 1.933746 1_545
Cu0 O32 2.008171 1_545
Cu0 O36 2.008171 1_555
Cu1 O1 1.933746 1_555
Cu1 O5 1.933746 1_554
Cu1 O37 2.008171 1_554
Cu1 O33 2.008171 1_555
Cu2 O6 1.933746 1_545
Cu2 O2 1.933746 1_454
Cu2 O34 2.008171 1_554
Cu2 O38 2.008171 1_445
Cu3 O3 1.933746 1_555
Cu3 O7 1.933746 1_455
Cu3 O35 2.008171 1_455
Cu3 O39 2.008171 1_555
B0 O32 1.460481 1_555
B0 O22 1.470279 1_555
B0 O8 1.476228 1_555
B0 O27 1.498881 1_555
B1 O33 1.460481 1_555
B1 O23 1.470279 1_555
B1 O9 1.476228 1_555
B1 O26 1.498881 1_554
B2 O34 1.460481 1_555
B2 O20 1.470279 1_555
B2 O10 1.476228 1_555
B2 O25 1.498881 1_556
B3 O35 1.460481 1_555
B3 O21 1.470279 1_555
B3 O11 1.476228 1_555
B3 O24 1.498881 1_555
B4 O36 1.460481 1_555
B4 O18 1.470279 1_555
B4 O12 1.476228 1_555
B4 O31 1.498881 1_555
B5 O37 1.460481 1_555
B5 O19 1.470279 1_555
B5 O13 1.476228 1_555
B5 O30 1.498881 1_556
B6 O38 1.460481 1_555
B6 O16 1.470279 1_555
B6 O14 1.476228 1_555
B6 O29 1.498881 1_554
B7 O39 1.460481 1_555
B7 O17 1.470279 1_555
B7 O15 1.476228 1_555
B7 O28 1.498881 1_555
H0 O32 1.000481 1_555
H1 O33 1.000481 1_555
H2 O34 1.000481 1_555
H3 O35 1.000481 1_555
H4 O36 1.000481 1_555
H5 O37 1.000481 1_555
H6 O38 1.000481 1_555
H7 O39 1.000481 1_555
H8 O40 0.979741 1_555
H9 O41 0.979741 1_555
H10 O42 0.979741 1_555
H11 O43 0.979741 1_555
H12 O44 0.979741 1_555
H13 O45 0.979741 1_555
H14 O46 0.979741 1_555
H15 O47 0.979741 1_555
H16 O40 0.977342 1_555
H17 O41 0.977342 1_555
H18 O42 0.977342 1_655
H19 O43 0.977342 1_455
H20 O44 0.977342 1_555
H21 O45 0.977342 1_555
H22 O46 0.977342 1_455
H23 O47 0.977342 1_655
O0 P0 1.516806 1_555
O1 P1 1.516806 1_555
O2 P2 1.516806 1_555
O3 P3 1.516806 1_555
O4 P4 1.516806 1_555
O5 P5 1.516806 1_555
O6 P6 1.516806 1_555
O7 P7 1.516806 1_555
O8 P0 1.562991 1_555
O9 P1 1.562991 1_555
O10 P2 1.562991 1_455
O11 P3 1.562991 1_655
O12 P4 1.562991 1_555
O13 P5 1.562991 1_555
O14 P6 1.562991 1_655
O15 P7 1.562991 1_455
O16 P0 1.554052 1_555
O17 P1 1.554052 1_555
O18 P2 1.554052 1_555
O19 P3 1.554052 1_555
O20 P4 1.554052 1_555
O21 P5 1.554052 1_555
O22 P6 1.554052 1_555
O23 P7 1.554052 1_555
O24 P0 1.556733 1_555
O25 P1 1.556733 1_555
O26 P2 1.556733 1_555
O27 P3 1.556733 1_555
O28 P4 1.556733 1_555
O29 P5 1.556733 1_555
O30 P6 1.556733 1_555
O31 P7 1.556733 1_555
