# generated using pymatgen
data_K2Mo2C4O15
_symmetry_space_group_name_H-M   'P 1'
_cell_length_a   14.72333600
_cell_length_b   6.61345300
_cell_length_c   7.57299866
_cell_angle_alpha   88.40215355
_cell_angle_beta   90.00000000
_cell_angle_gamma   90.00000000
_symmetry_Int_Tables_number   1
_chemical_formula_structural   K2Mo2C4O15
_chemical_formula_sum   'K4 Mo4 C8 O30'
_cell_volume   737.11198423
_cell_formula_units_Z   2
loop_
 _symmetry_equiv_pos_site_id
 _symmetry_equiv_pos_as_xyz
  1  'x, y, z'
loop_
 _atom_site_type_symbol
 _atom_site_label
 _atom_site_symmetry_multiplicity
 _atom_site_fract_x
 _atom_site_fract_y
 _atom_site_fract_z
 _atom_site_occupancy
  K  K0  1  0.64980500  0.86676300  0.79976000  1
  K  K1  1  0.35019500  0.13323700  0.20024000  1
  K  K2  1  0.14980500  0.63323700  0.20024000  1
  K  K3  1  0.85019500  0.36676300  0.79976000  1
  Mo  Mo0  1  0.89447800  0.87458500  0.10486000  1
  Mo  Mo1  1  0.10552200  0.12541500  0.89514000  1
  Mo  Mo2  1  0.39447800  0.62541500  0.89514000  1
  Mo  Mo3  1  0.60552200  0.37458500  0.10486000  1
  C  C0  1  0.93272200  0.74808800  0.48489000  1
  C  C1  1  0.06727800  0.25191200  0.51511000  1
  C  C2  1  0.43272200  0.75191200  0.51511000  1
  C  C3  1  0.56727800  0.24808800  0.48489000  1
  C  C4  1  0.82588400  0.73969200  0.45954500  1
  C  C5  1  0.17411600  0.26030800  0.54045500  1
  C  C6  1  0.32588400  0.76030800  0.54045500  1
  C  C7  1  0.67411600  0.23969200  0.45954500  1
  O  O0  1  0.30890300  0.52109400  0.03047200  1
  O  O1  1  0.69109700  0.47890600  0.96952800  1
  O  O2  1  0.80890300  0.97890600  0.96952800  1
  O  O3  1  0.19109700  0.02109400  0.03047200  1
  O  O4  1  0.61103900  0.68089300  0.22819600  1
  O  O5  1  0.38896100  0.31910700  0.77180400  1
  O  O6  1  0.11103900  0.81910700  0.77180400  1
  O  O7  1  0.88896100  0.18089300  0.22819600  1
  O  O8  1  0.80062500  0.80913300  0.30491500  1
  O  O9  1  0.19937500  0.19086700  0.69508500  1
  O  O10  1  0.30062500  0.69086700  0.69508500  1
  O  O11  1  0.69937500  0.30913300  0.30491500  1
  O  O12  1  0.00000000  0.00000000  0.00000000  1
  O  O13  1  0.50000000  0.50000000  0.00000000  1
  O  O14  1  0.90682700  0.62636700  0.04187000  1
  O  O15  1  0.09317300  0.37363300  0.95813000  1
  O  O16  1  0.40682700  0.87363300  0.95813000  1
  O  O17  1  0.59317300  0.12636700  0.04187000  1
  O  O18  1  0.46484400  0.80999700  0.37117900  1
  O  O19  1  0.53515600  0.19000300  0.62882100  1
  O  O20  1  0.96484400  0.69000300  0.62882100  1
  O  O21  1  0.03515600  0.30999700  0.37117900  1
  O  O22  1  0.77514500  0.67462700  0.57738200  1
  O  O23  1  0.22485500  0.32537300  0.42261800  1
  O  O24  1  0.27514500  0.82537300  0.42261800  1
  O  O25  1  0.72485500  0.17462700  0.57738200  1
  O  O26  1  0.97502100  0.81767800  0.34743500  1
  O  O27  1  0.02497900  0.18232200  0.65256500  1
  O  O28  1  0.47502100  0.68232200  0.65256500  1
  O  O29  1  0.52497900  0.31767800  0.34743500  1
loop_
_geom_bond_atom_site_label_1
_geom_bond_atom_site_label_2
_geom_bond_distance
_geom_bond_site_symmetry_2
K0 O17 2.679587 1_566
K0 O2 2.782663 1_555
K0 O22 2.824118 1_555
K0 O25 2.830430 1_565
K0 O1 2.901415 1_555
K0 O19 2.990109 1_565
K0 O28 3.070619 1_555
K1 O16 2.679587 1_544
K1 O3 2.782663 1_555
K1 O23 2.824118 1_555
K1 O24 2.830430 1_545
K1 O0 2.901415 1_555
K1 O18 2.990109 1_545
K1 O29 3.070619 1_555
K2 O15 2.679587 1_554
K2 O0 2.782663 1_555
K2 O24 2.824118 1_555
K2 O23 2.830430 1_555
K2 O3 2.901415 1_565
K2 O21 2.990109 1_555
K2 O26 3.070619 1_455
K3 O14 2.679587 1_556
K3 O1 2.782663 1_555
K3 O25 2.824118 1_555
K3 O22 2.830430 1_555
K3 O2 2.901415 1_545
K3 O20 2.990109 1_555
K3 O27 3.070619 1_655
Mo0 O14 1.731779 1_555
Mo0 O2 1.753394 1_554
Mo0 O12 1.922395 1_665
Mo0 O8 2.086989 1_555
Mo0 O26 2.209976 1_555
Mo0 O7 2.255703 1_565
Mo1 O15 1.731779 1_555
Mo1 O3 1.753394 1_556
Mo1 O12 1.922395 1_556
Mo1 O9 2.086989 1_555
Mo1 O27 2.209976 1_555
Mo1 O6 2.255703 1_545
Mo2 O16 1.731779 1_555
Mo2 O0 1.753394 1_556
Mo2 O13 1.922395 1_556
Mo2 O10 2.086989 1_555
Mo2 O28 2.209976 1_555
Mo2 O5 2.255703 1_555
Mo3 O17 1.731779 1_555
Mo3 O1 1.753394 1_554
Mo3 O13 1.922395 1_555
Mo3 O11 2.086989 1_555
Mo3 O29 2.209976 1_555
Mo3 O4 2.255703 1_555
C0 O20 1.239341 1_555
C0 O26 1.287060 1_555
C1 O21 1.239341 1_555
C1 O27 1.287060 1_555
C2 O18 1.239341 1_555
C2 O28 1.287060 1_555
C3 O19 1.239341 1_555
C3 O29 1.287060 1_555
C4 O22 1.232140 1_555
C4 O8 1.300190 1_555
C5 O23 1.232140 1_555
C5 O9 1.300190 1_555
C6 O24 1.232140 1_555
C6 O10 1.300190 1_555
C7 O25 1.232140 1_555
C7 O11 1.300190 1_555
