# generated using pymatgen
data_Yb5Mg
_symmetry_space_group_name_H-M   'P 1'
_cell_length_a   6.46455538
_cell_length_b   6.46455538
_cell_length_c   6.12333600
_cell_angle_alpha   90.00000000
_cell_angle_beta   90.00000000
_cell_angle_gamma   119.99999362
_symmetry_Int_Tables_number   1
_chemical_formula_structural   Yb5Mg
_chemical_formula_sum   'Yb5 Mg1'
_cell_volume   221.61342738
_cell_formula_units_Z   1
loop_
 _symmetry_equiv_pos_site_id
 _symmetry_equiv_pos_as_xyz
  1  'x, y, z'
loop_
 _atom_site_type_symbol
 _atom_site_label
 _atom_site_symmetry_multiplicity
 _atom_site_fract_x
 _atom_site_fract_y
 _atom_site_fract_z
 _atom_site_occupancy
  Yb  Yb0  1  0.66666700  0.33333300  0.50000000  1
  Yb  Yb1  1  0.32340900  0.00000000  0.00000000  1
  Yb  Yb2  1  0.67659100  0.67659100  0.00000000  1
  Yb  Yb3  1  0.00000000  0.32340900  0.00000000  1
  Yb  Yb4  1  0.33333300  0.66666700  0.50000000  1
  Mg  Mg0  1  0.00000000  0.00000000  0.50000000  1
loop_
_geom_bond_atom_site_label_1
_geom_bond_atom_site_label_2
_geom_bond_distance
_geom_bond_site_symmetry_2
Yb0 Yb4 3.732309 1_545
Yb0 Yb4 3.732309 1_655
Yb0 Yb4 3.732320 1_555
Yb0 Yb3 3.762917 1_656
Yb0 Yb3 3.762917 1_655
Yb0 Yb1 3.762919 1_556
Yb0 Yb1 3.762919 1_555
Yb0 Yb2 3.762921 1_556
Yb0 Yb2 3.762921 1_555
Yb1 Yb3 3.621191 1_555
Yb1 Yb2 3.621191 1_445
Yb1 Yb4 3.762917 1_545
Yb1 Yb4 3.762917 1_544
Yb1 Yb2 3.789096 1_545
Yb1 Yb3 3.789096 1_655
Yb1 Yb3 3.789096 1_545
Yb1 Yb2 3.789096 1_555
Yb2 Yb3 3.621191 1_665
Yb2 Yb4 3.762921 1_554
Yb2 Yb4 3.762921 1_555
Yb2 Yb3 3.789096 1_655
Yb2 Yb3 3.789096 1_555
Yb3 Yb4 3.762919 1_555
Yb3 Yb4 3.762919 1_554
Mg0 Yb3 3.707400 1_555
Mg0 Yb3 3.707400 1_556
Mg0 Yb1 3.707400 1_556
Mg0 Yb1 3.707400 1_555
Mg0 Yb2 3.707401 1_446
Mg0 Yb2 3.707401 1_445
Mg0 Yb4 3.732309 1_545
Mg0 Yb0 3.732309 1_455
Mg0 Yb0 3.732315 1_555
Mg0 Yb4 3.732315 1_445
Mg0 Yb0 3.732315 1_445
Mg0 Yb4 3.732315 1_555
