# generated using pymatgen
data_Ag(NO)3
_symmetry_space_group_name_H-M   'P 1'
_cell_length_a   6.02928100
_cell_length_b   7.93065800
_cell_length_c   10.43585900
_cell_angle_alpha   90.00000000
_cell_angle_beta   90.00000000
_cell_angle_gamma   90.00000000
_symmetry_Int_Tables_number   1
_chemical_formula_structural   Ag(NO)3
_chemical_formula_sum   'Ag4 N12 O12'
_cell_volume   499.00276209
_cell_formula_units_Z   4
loop_
 _symmetry_equiv_pos_site_id
 _symmetry_equiv_pos_as_xyz
  1  'x, y, z'
loop_
 _atom_site_type_symbol
 _atom_site_label
 _atom_site_symmetry_multiplicity
 _atom_site_fract_x
 _atom_site_fract_y
 _atom_site_fract_z
 _atom_site_occupancy
  Ag  Ag0  1  0.50000000  0.50000000  0.50000000  1
  Ag  Ag1  1  0.00000000  0.00000000  0.00000000  1
  Ag  Ag2  1  0.00000000  0.50000000  0.50000000  1
  Ag  Ag3  1  0.50000000  0.00000000  0.00000000  1
  N  N0  1  0.00000000  0.26262900  0.98569900  1
  N  N1  1  0.00000000  0.73737100  0.01430100  1
  N  N2  1  0.50000000  0.76262900  0.51430100  1
  N  N3  1  0.50000000  0.23737100  0.48569900  1
  N  N4  1  0.50000000  0.13509100  0.82555700  1
  N  N5  1  0.50000000  0.86490900  0.17444300  1
  N  N6  1  0.00000000  0.63509100  0.67444300  1
  N  N7  1  0.00000000  0.36490900  0.32555700  1
  N  N8  1  0.00000000  0.07674900  0.65667500  1
  N  N9  1  0.00000000  0.92325100  0.34332500  1
  N  N10  1  0.50000000  0.57674900  0.84332500  1
  N  N11  1  0.50000000  0.42325100  0.15667500  1
  O  O0  1  0.00000000  0.23484300  0.67478600  1
  O  O1  1  0.00000000  0.76515700  0.32521400  1
  O  O2  1  0.50000000  0.73484300  0.82521400  1
  O  O3  1  0.50000000  0.26515700  0.17478600  1
  O  O4  1  0.18021800  0.99870000  0.64882000  1
  O  O5  1  0.18021800  0.00130000  0.35118000  1
  O  O6  1  0.31978200  0.49870000  0.85118000  1
  O  O7  1  0.31978200  0.50130000  0.14882000  1
  O  O8  1  0.81978200  0.00130000  0.35118000  1
  O  O9  1  0.81978200  0.99870000  0.64882000  1
  O  O10  1  0.68021800  0.50130000  0.14882000  1
  O  O11  1  0.68021800  0.49870000  0.85118000  1
loop_
_geom_bond_atom_site_label_1
_geom_bond_atom_site_label_2
_geom_bond_distance
_geom_bond_site_symmetry_2
Ag0 N2 2.088161 1_555
Ag0 N3 2.088161 1_555
Ag1 N1 2.088161 1_545
Ag1 N0 2.088161 1_554
Ag2 N7 2.112320 1_555
Ag2 N6 2.112320 1_555
Ag3 N4 2.112320 1_554
Ag3 N5 2.112320 1_545
N8 O9 1.253205 1_445
N8 O4 1.253205 1_545
N8 O0 1.267955 1_555
N9 O8 1.253205 1_465
N9 O5 1.253205 1_565
N9 O1 1.267955 1_555
N10 O6 1.253205 1_555
N10 O11 1.253205 1_555
N10 O2 1.267955 1_555
N11 O7 1.253205 1_555
N11 O10 1.253205 1_555
N11 O3 1.267955 1_555
