# generated using pymatgen
data_Mg6CdFe
_symmetry_space_group_name_H-M   'P 1'
_cell_length_a   4.86123900
_cell_length_b   6.14775400
_cell_length_c   10.59373700
_cell_angle_alpha   90.00000000
_cell_angle_beta   90.00000000
_cell_angle_gamma   90.00000000
_symmetry_Int_Tables_number   1
_chemical_formula_structural   Mg6CdFe
_chemical_formula_sum   'Mg12 Cd2 Fe2'
_cell_volume   316.60126183
_cell_formula_units_Z   2
loop_
 _symmetry_equiv_pos_site_id
 _symmetry_equiv_pos_as_xyz
  1  'x, y, z'
loop_
 _atom_site_type_symbol
 _atom_site_label
 _atom_site_symmetry_multiplicity
 _atom_site_fract_x
 _atom_site_fract_y
 _atom_site_fract_z
 _atom_site_occupancy
  Mg  Mg0  1  0.50000000  0.25195500  0.08345300  1
  Mg  Mg1  1  0.50000000  0.74804500  0.08345300  1
  Mg  Mg2  1  0.00000000  0.23611600  0.91200000  1
  Mg  Mg3  1  0.00000000  0.76388400  0.91200000  1
  Mg  Mg4  1  0.00000000  0.50000000  0.17608900  1
  Mg  Mg5  1  0.00000000  0.50000000  0.66716500  1
  Mg  Mg6  1  0.50000000  0.75195500  0.58345300  1
  Mg  Mg7  1  0.50000000  0.24804500  0.58345300  1
  Mg  Mg8  1  0.00000000  0.73611600  0.41200000  1
  Mg  Mg9  1  0.00000000  0.26388400  0.41200000  1
  Mg  Mg10  1  0.00000000  0.00000000  0.67608900  1
  Mg  Mg11  1  0.00000000  0.00000000  0.16716500  1
  Cd  Cd0  1  0.50000000  0.50000000  0.83354000  1
  Cd  Cd1  1  0.50000000  0.00000000  0.33354000  1
  Fe  Fe0  1  0.50000000  0.50000000  0.33230500  1
  Fe  Fe1  1  0.50000000  0.00000000  0.83230500  1
loop_
_geom_bond_atom_site_label_1
_geom_bond_atom_site_label_2
_geom_bond_distance
_geom_bond_site_symmetry_2
Mg0 Mg11 3.015565 1_655
Mg0 Mg11 3.015565 1_555
Mg0 Mg4 3.032550 1_655
Mg0 Mg4 3.032550 1_555
Mg0 Mg2 3.035859 1_654
Mg0 Mg2 3.035859 1_554
Mg0 Mg1 3.049839 1_555
Mg0 Mg1 3.097915 1_545
Mg1 Mg11 3.015565 1_665
Mg1 Mg11 3.015565 1_565
Mg1 Mg4 3.032550 1_555
Mg1 Mg4 3.032550 1_655
Mg1 Mg3 3.035859 1_554
Mg1 Mg3 3.035859 1_654
Mg2 Mg3 2.903166 1_545
Mg2 Mg5 3.059282 1_555
Mg2 Mg4 3.234023 1_556
Mg2 Mg3 3.244588 1_555
Mg3 Mg5 3.059282 1_555
Mg3 Mg4 3.234023 1_556
Mg4 Mg8 2.890154 1_555
Mg4 Mg9 2.890154 1_555
Mg5 Mg6 3.015565 1_555
Mg5 Mg6 3.015565 1_455
Mg5 Mg7 3.015565 1_455
Mg5 Mg7 3.015565 1_555
Mg5 Mg9 3.068244 1_555
Mg5 Mg8 3.068244 1_555
Mg6 Mg8 3.035859 1_555
Mg6 Mg8 3.035859 1_655
Mg6 Mg7 3.049839 1_565
Mg6 Mg7 3.097915 1_555
Mg7 Mg9 3.035859 1_555
Mg7 Mg9 3.035859 1_655
Mg8 Mg9 2.903166 1_555
Mg8 Mg9 3.244588 1_565
Mg10 Mg2 2.890154 1_555
Mg10 Mg3 2.890154 1_545
Mg10 Mg7 3.032550 1_455
Mg10 Mg7 3.032550 1_555
Mg10 Mg6 3.032550 1_545
Mg10 Mg6 3.032550 1_445
Mg10 Mg5 3.075330 1_555
Mg10 Mg5 3.075330 1_545
Mg10 Mg8 3.234023 1_545
Mg10 Mg9 3.234023 1_555
Mg11 Mg8 3.059282 1_545
Mg11 Mg9 3.059282 1_555
Mg11 Mg2 3.068244 1_554
Mg11 Mg3 3.068244 1_544
Mg11 Mg4 3.075330 1_545
Mg11 Mg4 3.075330 1_555
Cd0 Mg5 3.002405 1_655
Cd0 Mg5 3.002405 1_555
Cd0 Mg3 3.038193 1_555
Cd0 Mg2 3.038193 1_655
Cd0 Mg3 3.038193 1_655
Cd0 Mg2 3.038193 1_555
Cd0 Mg1 3.055275 1_556
Cd0 Mg0 3.055275 1_556
Cd0 Mg6 3.068934 1_555
Cd0 Mg7 3.068934 1_555
Cd0 Fe1 3.073905 1_555
Cd0 Fe1 3.073905 1_565
Cd1 Mg11 3.002405 1_655
Cd1 Mg11 3.002405 1_555
Cd1 Mg9 3.038193 1_655
Cd1 Mg8 3.038193 1_645
Cd1 Mg8 3.038193 1_545
Cd1 Mg9 3.038193 1_555
Cd1 Mg7 3.055275 1_555
Cd1 Mg6 3.055275 1_545
Cd1 Mg0 3.068934 1_555
Cd1 Mg1 3.068934 1_545
Cd1 Fe0 3.073905 1_555
Cd1 Fe0 3.073905 1_545
Fe0 Mg4 2.940517 1_555
Fe0 Mg4 2.940517 1_655
Fe0 Mg8 2.954284 1_655
Fe0 Mg9 2.954284 1_555
Fe0 Mg9 2.954284 1_655
Fe0 Mg8 2.954284 1_555
Fe0 Mg1 3.045540 1_555
Fe0 Mg0 3.045540 1_555
Fe0 Mg6 3.078642 1_555
Fe0 Mg7 3.078642 1_555
Fe1 Mg10 2.940517 1_555
Fe1 Mg10 2.940517 1_655
Fe1 Mg2 2.954284 1_655
Fe1 Mg3 2.954284 1_545
Fe1 Mg2 2.954284 1_555
Fe1 Mg3 2.954284 1_645
Fe1 Mg7 3.045540 1_555
Fe1 Mg6 3.045540 1_545
Fe1 Mg1 3.078642 1_546
Fe1 Mg0 3.078642 1_556
