# generated using pymatgen
data_MgGa2
_symmetry_space_group_name_H-M   'P 1'
_cell_length_a   7.62158151
_cell_length_b   7.62158151
_cell_length_c   4.62140894
_cell_angle_alpha   90.00000000
_cell_angle_beta   90.00000000
_cell_angle_gamma   155.43927356
_symmetry_Int_Tables_number   1
_chemical_formula_structural   MgGa2
_chemical_formula_sum   'Mg2 Ga4'
_cell_volume   111.58354961
_cell_formula_units_Z   2
loop_
 _symmetry_equiv_pos_site_id
 _symmetry_equiv_pos_as_xyz
  1  'x, y, z'
loop_
 _atom_site_type_symbol
 _atom_site_label
 _atom_site_symmetry_multiplicity
 _atom_site_fract_x
 _atom_site_fract_y
 _atom_site_fract_z
 _atom_site_occupancy
  Mg  Mg0  1  0.10692369  0.89307631  0.50000000  1
  Mg  Mg1  1  0.78651134  0.21348866  0.50000000  1
  Ga  Ga0  1  0.98884188  0.01115812  0.00000000  1
  Ga  Ga1  1  0.33313130  0.66686870  0.00000000  1
  Ga  Ga2  1  0.67032237  0.32967763  0.00000000  1
  Ga  Ga3  1  0.44760443  0.55239557  0.50000000  1
loop_
_geom_bond_atom_site_label_1
_geom_bond_atom_site_label_2
_geom_bond_distance
_geom_bond_site_symmetry_2
Ga0 Ga1 2.829599 1_655
Ga0 Ga1 2.829599 1_545
Ga0 Mg0 2.903890 1_645
Ga0 Mg0 2.903890 1_644
Ga1 Ga3 2.871655 1_555
Ga1 Ga3 2.871655 1_554
Ga1 Mg1 2.906785 1_454
Ga1 Mg1 2.906785 1_455
Ga1 Mg1 2.906785 1_565
Ga1 Mg1 2.906785 1_564
Ga1 Ga2 2.916884 1_455
Ga1 Ga2 2.916884 1_565
Ga2 Mg1 2.886902 1_555
Ga2 Mg1 2.886902 1_554
Ga2 Mg0 2.976393 1_544
Ga2 Mg0 2.976393 1_654
Ga2 Mg0 2.976393 1_545
Ga2 Mg0 2.976393 1_655
Ga3 Mg0 2.873818 1_545
Ga3 Mg0 2.873818 1_655
Ga3 Mg1 2.895672 1_565
Ga3 Mg1 2.895672 1_455
