# generated using pymatgen
data_NaHoBO5
_symmetry_space_group_name_H-M   'P 1'
_cell_length_a   4.61369380
_cell_length_b   6.32361830
_cell_length_c   6.83108200
_cell_angle_alpha   90.00000000
_cell_angle_beta   90.00000000
_cell_angle_gamma   109.88741163
_symmetry_Int_Tables_number   1
_chemical_formula_structural   NaHoBO5
_chemical_formula_sum   'Na2 Ho2 B2 O10'
_cell_volume   187.41286313
_cell_formula_units_Z   2
loop_
 _symmetry_equiv_pos_site_id
 _symmetry_equiv_pos_as_xyz
  1  'x, y, z'
loop_
 _atom_site_type_symbol
 _atom_site_label
 _atom_site_symmetry_multiplicity
 _atom_site_fract_x
 _atom_site_fract_y
 _atom_site_fract_z
 _atom_site_occupancy
  Na  Na0  1  0.50000000  0.50000000  0.50000000  1
  Na  Na1  1  0.50000000  0.50000000  0.00000000  1
  Ho  Ho0  1  0.14624100  0.91595000  0.25000000  1
  Ho  Ho1  1  0.85375900  0.08405000  0.75000000  1
  B  B0  1  0.09484800  0.70499800  0.75000000  1
  B  B1  1  0.90515200  0.29500200  0.25000000  1
  O  O0  1  0.00990400  0.80515300  0.92567600  1
  O  O1  1  0.99009600  0.19484700  0.42567600  1
  O  O2  1  0.99009600  0.19484700  0.07432400  1
  O  O3  1  0.00990400  0.80515300  0.57432400  1
  O  O4  1  0.93102500  0.46298700  0.75000000  1
  O  O5  1  0.06897500  0.53701300  0.25000000  1
  O  O6  1  0.42472700  0.75772100  0.75000000  1
  O  O7  1  0.57527300  0.24227900  0.25000000  1
  O  O8  1  0.39653700  0.16211100  0.75000000  1
  O  O9  1  0.60346300  0.83788900  0.25000000  1
loop_
_geom_bond_atom_site_label_1
_geom_bond_atom_site_label_2
_geom_bond_distance
_geom_bond_site_symmetry_2
Na0 O6 2.465394 1_555
Na0 O7 2.465394 1_555
Na0 O3 2.535219 1_655
Na0 O1 2.535219 1_455
Na0 O8 2.648742 1_555
Na0 O9 2.648742 1_555
Na0 O4 2.691194 1_555
Na0 O5 2.691194 1_555
Na1 O6 2.465394 1_554
Na1 O7 2.465394 1_555
Na1 O0 2.535219 1_654
Na1 O2 2.535219 1_455
Na1 O8 2.648742 1_554
Na1 O9 2.648742 1_555
Na1 O5 2.691194 1_555
Na1 O4 2.691194 1_554
Ho0 O5 2.299553 1_555
Ho0 O7 2.323245 1_565
Ho0 O9 2.324226 1_555
Ho0 O3 2.344160 1_555
Ho0 O0 2.344160 1_554
Ho0 O9 2.381960 1_455
Ho0 O2 2.435969 1_465
Ho0 O1 2.435969 1_465
Ho1 O4 2.299553 1_555
Ho1 O6 2.323245 1_545
Ho1 O8 2.324226 1_555
Ho1 O1 2.344160 1_555
Ho1 O2 2.344160 1_556
Ho1 O8 2.381960 1_655
Ho1 O0 2.435969 1_645
Ho1 O3 2.435969 1_645
B0 O6 1.443017 1_555
B0 O4 1.458216 1_455
B0 O0 1.470958 1_555
B0 O3 1.470958 1_555
B1 O7 1.443017 1_555
B1 O5 1.458216 1_655
B1 O1 1.470958 1_555
B1 O2 1.470958 1_555
