# generated using pymatgen
data_Li7Mn5O12
_symmetry_space_group_name_H-M   'P 1'
_cell_length_a   2.99197500
_cell_length_b   6.48846476
_cell_length_c   12.10118172
_cell_angle_alpha   102.40961262
_cell_angle_beta   94.25927576
_cell_angle_gamma   103.03735023
_symmetry_Int_Tables_number   1
_chemical_formula_structural   Li7Mn5O12
_chemical_formula_sum   'Li7 Mn5 O12'
_cell_volume   221.65343812
_cell_formula_units_Z   1
loop_
 _symmetry_equiv_pos_site_id
 _symmetry_equiv_pos_as_xyz
  1  'x, y, z'
loop_
 _atom_site_type_symbol
 _atom_site_label
 _atom_site_symmetry_multiplicity
 _atom_site_fract_x
 _atom_site_fract_y
 _atom_site_fract_z
 _atom_site_occupancy
  Li  Li0  1  0.65676600  0.83240900  0.92154800  1
  Li  Li1  1  0.97412600  0.49988800  0.26158800  1
  Li  Li2  1  0.34323400  0.16759100  0.07845200  1
  Li  Li3  1  0.66951700  0.81431600  0.41362000  1
  Li  Li4  1  0.33048300  0.18568400  0.58638000  1
  Li  Li5  1  0.02587400  0.50011200  0.73841200  1
  Li  Li6  1  0.00000000  0.50000000  0.50000000  1
  Mn  Mn0  1  0.67357000  0.82239400  0.65942200  1
  Mn  Mn1  1  0.32643000  0.17760600  0.34057800  1
  Mn  Mn2  1  0.00000000  0.50000000  0.00000000  1
  Mn  Mn3  1  0.65047900  0.83186200  0.17079200  1
  Mn  Mn4  1  0.34952100  0.16813800  0.82920800  1
  O  O0  1  0.21080000  0.84574200  0.77627700  1
  O  O1  1  0.47080400  0.51067400  0.12192600  1
  O  O2  1  0.81297600  0.17463400  0.95520800  1
  O  O3  1  0.13090100  0.84596100  0.29083300  1
  O  O4  1  0.84530500  0.16305900  0.44236600  1
  O  O5  1  0.51565600  0.52498400  0.62965600  1
  O  O6  1  0.18702400  0.82536600  0.04479200  1
  O  O7  1  0.48434400  0.47501600  0.37034400  1
  O  O8  1  0.78920000  0.15425800  0.22372300  1
  O  O9  1  0.15469500  0.83694100  0.55763400  1
  O  O10  1  0.86909900  0.15403900  0.70916700  1
  O  O11  1  0.52919600  0.48932600  0.87807400  1
loop_
_geom_bond_atom_site_label_1
_geom_bond_atom_site_label_2
_geom_bond_distance
_geom_bond_site_symmetry_2
Li0 O2 2.104706 1_565
Li0 O6 2.110435 1_656
Li0 O11 2.112198 1_555
Li0 O6 2.124461 1_556
Li0 O0 2.155760 1_555
Li0 O0 2.505837 1_655
Li1 O7 1.998122 1_655
Li1 O7 2.043674 1_555
Li1 O8 2.122792 1_555
Li1 O3 2.132145 1_655
Li1 O1 2.202135 1_555
Li1 O1 2.333788 1_655
Li2 O6 2.104706 1_545
Li2 O2 2.110435 1_454
Li2 O1 2.112198 1_555
Li2 O2 2.124461 1_554
Li2 O8 2.155760 1_555
Li2 O8 2.505837 1_455
Li3 O7 2.083036 1_555
Li3 O3 2.112706 1_655
Li3 O9 2.141043 1_655
Li3 O4 2.148368 1_565
Li3 O3 2.184425 1_555
Li3 O9 2.412908 1_555
Li4 O5 2.083036 1_555
Li4 O10 2.112706 1_455
Li4 O4 2.141043 1_455
Li4 O9 2.148368 1_545
Li4 O10 2.184425 1_555
Li4 O4 2.412908 1_555
Li5 O5 1.998122 1_455
Li5 O5 2.043674 1_555
Li5 O0 2.122792 1_555
Li5 O10 2.132145 1_455
Li5 O11 2.202135 1_555
Li5 O11 2.333788 1_455
Li6 O7 2.070413 1_455
Li6 O5 2.070413 1_555
Li6 O4 2.078563 1_455
Li6 O9 2.078563 1_555
Li6 O5 2.218657 1_455
Li6 O7 2.218657 1_555
Mn0 O5 1.827968 1_555
Mn0 O9 1.941211 1_555
Mn0 O9 1.962238 1_655
Mn0 O0 2.016603 1_655
Mn0 O10 2.039147 1_565
Mn0 O0 2.057446 1_555
Mn1 O7 1.827968 1_555
Mn1 O4 1.941211 1_555
Mn1 O4 1.962238 1_455
Mn1 O8 2.016603 1_455
Mn1 O3 2.039147 1_545
Mn1 O8 2.057446 1_555
Mn2 O11 1.941479 1_454
Mn2 O1 1.941479 1_555
Mn2 O2 1.998479 1_454
Mn2 O6 1.998479 1_555
Mn2 O1 2.245280 1_455
Mn2 O11 2.245280 1_554
Mn3 O3 1.938576 1_655
Mn3 O6 1.970121 1_555
Mn3 O1 1.974704 1_555
Mn3 O8 1.987790 1_565
Mn3 O3 2.208547 1_555
Mn3 O6 2.295693 1_655
Mn4 O10 1.938576 1_455
Mn4 O2 1.970121 1_555
Mn4 O11 1.974704 1_555
Mn4 O0 1.987790 1_545
Mn4 O10 2.208547 1_555
Mn4 O2 2.295693 1_455
