# generated using pymatgen
data_Mg14CdFe
_symmetry_space_group_name_H-M   'P 1'
_cell_length_a   6.28847467
_cell_length_b   6.28847417
_cell_length_c   9.91182442
_cell_angle_alpha   90.00000000
_cell_angle_beta   90.00000000
_cell_angle_gamma   120.00000258
_symmetry_Int_Tables_number   1
_chemical_formula_structural   Mg14CdFe
_chemical_formula_sum   'Mg14 Cd1 Fe1'
_cell_volume   339.44922222
_cell_formula_units_Z   1
loop_
 _symmetry_equiv_pos_site_id
 _symmetry_equiv_pos_as_xyz
  1  'x, y, z'
loop_
 _atom_site_type_symbol
 _atom_site_label
 _atom_site_symmetry_multiplicity
 _atom_site_fract_x
 _atom_site_fract_y
 _atom_site_fract_z
 _atom_site_occupancy
  Mg  Mg0  1  0.16394398  0.83197149  0.12500000  1
  Mg  Mg1  1  0.16910414  0.83455157  0.62500000  1
  Mg  Mg2  1  0.66802851  0.33605602  0.12500000  1
  Mg  Mg3  1  0.66544843  0.33089586  0.62500000  1
  Mg  Mg4  1  0.66802851  0.83197149  0.12500000  1
  Mg  Mg5  1  0.66544843  0.83455157  0.62500000  1
  Mg  Mg6  1  0.32596482  0.17403518  0.36323580  1
  Mg  Mg7  1  0.32596482  0.17403518  0.88676420  1
  Mg  Mg8  1  0.32596482  0.65193064  0.36323580  1
  Mg  Mg9  1  0.32596482  0.65193064  0.88676420  1
  Mg  Mg10  1  0.84806936  0.17403518  0.36323580  1
  Mg  Mg11  1  0.84806936  0.17403518  0.88676420  1
  Mg  Mg12  1  0.83333300  0.66666700  0.37732630  1
  Mg  Mg13  1  0.83333300  0.66666700  0.87267370  1
  Cd  Cd0  1  0.16666700  0.33333300  0.62500000  1
  Fe  Fe0  1  0.16666700  0.33333300  0.12500000  1
loop_
_geom_bond_atom_site_label_1
_geom_bond_atom_site_label_2
_geom_bond_distance
_geom_bond_site_symmetry_2
Mg0 Mg8 3.008229 1_555
Mg0 Mg9 3.008229 1_554
Mg0 Mg7 3.008236 1_564
Mg0 Mg6 3.008236 1_565
Mg0 Mg13 3.081700 1_454
Mg0 Mg12 3.081700 1_455
Mg0 Mg2 3.118552 1_455
Mg0 Mg4 3.118552 1_455
Mg0 Mg2 3.169923 1_565
Mg0 Mg4 3.169923 1_555
Mg1 Mg12 3.061097 1_455
Mg1 Mg13 3.061097 1_455
Mg1 Mg3 3.121248 1_565
Mg1 Mg5 3.121248 1_555
Mg1 Mg3 3.167226 1_455
Mg1 Mg5 3.167226 1_455
Mg1 Mg9 3.186911 1_555
Mg1 Mg8 3.186911 1_555
Mg1 Mg7 3.186918 1_565
Mg1 Mg6 3.186918 1_565
Mg2 Mg6 3.008236 1_555
Mg2 Mg7 3.008236 1_554
Mg2 Mg4 3.118552 1_555
Mg2 Mg4 3.169923 1_545
Mg3 Mg5 3.121248 1_545
Mg3 Mg5 3.167226 1_555
Mg3 Mg6 3.186918 1_555
Mg3 Mg7 3.186918 1_555
Mg4 Mg8 3.008235 1_555
Mg4 Mg9 3.008235 1_554
Mg5 Mg8 3.186917 1_555
Mg5 Mg9 3.186917 1_555
Mg6 Mg8 3.005233 1_555
Mg6 Mg8 3.283241 1_545
Mg7 Mg9 3.005233 1_555
Mg7 Mg9 3.283241 1_545
Mg10 Mg8 3.005233 1_655
Mg10 Mg6 3.005233 1_655
Mg10 Mg2 3.008229 1_555
Mg10 Mg4 3.008235 1_545
Mg10 Mg12 3.148360 1_545
Mg10 Mg12 3.148360 1_555
Mg10 Mg3 3.186911 1_555
Mg10 Mg5 3.186917 1_545
Mg10 Mg8 3.283241 1_545
Mg10 Mg6 3.283241 1_555
Mg11 Mg9 3.005233 1_655
Mg11 Mg7 3.005233 1_655
Mg11 Mg2 3.008229 1_556
Mg11 Mg4 3.008235 1_546
Mg11 Mg13 3.148360 1_545
Mg11 Mg13 3.148360 1_555
Mg11 Mg3 3.186911 1_555
Mg11 Mg5 3.186917 1_545
Mg11 Mg9 3.283241 1_545
Mg11 Mg7 3.283241 1_555
Mg12 Mg5 3.061090 1_555
Mg12 Mg3 3.061096 1_555
Mg12 Mg4 3.081693 1_555
Mg12 Mg2 3.081700 1_555
Mg12 Mg6 3.148360 1_665
Mg12 Mg6 3.148360 1_555
Mg12 Mg8 3.148361 1_655
Mg12 Mg8 3.148361 1_555
Mg13 Mg5 3.061090 1_555
Mg13 Mg3 3.061096 1_555
Mg13 Mg4 3.081693 1_556
Mg13 Mg2 3.081700 1_556
Mg13 Mg7 3.148360 1_665
Mg13 Mg7 3.148360 1_555
Mg13 Mg9 3.148361 1_655
Mg13 Mg9 3.148361 1_555
Cd0 Mg6 3.121249 1_555
Cd0 Mg7 3.121249 1_555
Cd0 Mg9 3.121255 1_555
Cd0 Mg8 3.121255 1_555
Cd0 Mg11 3.121255 1_455
Cd0 Mg10 3.121255 1_455
Cd0 Mg1 3.144265 1_555
Cd0 Mg1 3.144265 1_545
Cd0 Mg5 3.144265 1_555
Cd0 Mg5 3.144265 1_445
Cd0 Mg3 3.144265 1_555
Cd0 Mg3 3.144265 1_455
Fe0 Mg6 2.930261 1_555
Fe0 Mg7 2.930261 1_554
Fe0 Mg8 2.930268 1_555
Fe0 Mg9 2.930268 1_554
Fe0 Mg11 2.930268 1_454
Fe0 Mg10 2.930268 1_455
Fe0 Mg0 3.144272 1_545
Fe0 Mg4 3.144272 1_445
Fe0 Mg0 3.144272 1_555
Fe0 Mg4 3.144272 1_555
Fe0 Mg2 3.144272 1_455
Fe0 Mg2 3.144272 1_555
