# generated using pymatgen
data_ZnRu2Br7N6
_symmetry_space_group_name_H-M   'P 1'
_cell_length_a   7.74619598
_cell_length_b   10.68202454
_cell_length_c   10.38992800
_cell_angle_alpha   90.00000000
_cell_angle_beta   90.00000000
_cell_angle_gamma   94.40148288
_symmetry_Int_Tables_number   1
_chemical_formula_structural   ZnRu2Br7N6
_chemical_formula_sum   'Zn2 Ru4 Br14 N12'
_cell_volume   857.17966841
_cell_formula_units_Z   2
loop_
 _symmetry_equiv_pos_site_id
 _symmetry_equiv_pos_as_xyz
  1  'x, y, z'
loop_
 _atom_site_type_symbol
 _atom_site_label
 _atom_site_symmetry_multiplicity
 _atom_site_fract_x
 _atom_site_fract_y
 _atom_site_fract_z
 _atom_site_occupancy
  Zn  Zn0  1  0.24205100  0.52578800  0.75000000  1
  Zn  Zn1  1  0.75794900  0.47421200  0.25000000  1
  Ru  Ru0  1  0.71494900  0.17314400  0.75000000  1
  Ru  Ru1  1  0.28505100  0.82685600  0.25000000  1
  Ru  Ru2  1  0.85639800  0.84633500  0.75000000  1
  Ru  Ru3  1  0.14360200  0.15366500  0.25000000  1
  Br  Br0  1  0.03358100  0.10357200  0.75000000  1
  Br  Br1  1  0.96641900  0.89642800  0.25000000  1
  Br  Br2  1  0.63848700  0.57892300  0.43813000  1
  Br  Br3  1  0.36151300  0.42107700  0.56187000  1
  Br  Br4  1  0.36151300  0.42107700  0.93813000  1
  Br  Br5  1  0.63848700  0.57892300  0.06187000  1
  Br  Br6  1  0.67601700  0.96691000  0.92081200  1
  Br  Br7  1  0.32398300  0.03309000  0.07918800  1
  Br  Br8  1  0.32398300  0.03309000  0.42081200  1
  Br  Br9  1  0.67601700  0.96691000  0.57918800  1
  Br  Br10  1  0.27786100  0.75298500  0.75000000  1
  Br  Br11  1  0.72213900  0.24701500  0.25000000  1
  Br  Br12  1  0.92820800  0.46907100  0.75000000  1
  Br  Br13  1  0.07179200  0.53092900  0.25000000  1
  N  N0  1  0.01697000  0.82871600  0.87785000  1
  N  N1  1  0.98303000  0.17128400  0.12215000  1
  N  N2  1  0.98303000  0.17128400  0.37785000  1
  N  N3  1  0.01697000  0.82871600  0.62215000  1
  N  N4  1  0.75295200  0.27687200  0.87998600  1
  N  N5  1  0.24704800  0.72312800  0.12001400  1
  N  N6  1  0.24704800  0.72312800  0.37998600  1
  N  N7  1  0.75295200  0.27687200  0.62001400  1
  N  N8  1  0.73434200  0.70632500  0.75000000  1
  N  N9  1  0.26565800  0.29367500  0.25000000  1
  N  N10  1  0.48278200  0.13478800  0.75000000  1
  N  N11  1  0.51721800  0.86521200  0.25000000  1
loop_
_geom_bond_atom_site_label_1
_geom_bond_atom_site_label_2
_geom_bond_distance
_geom_bond_site_symmetry_2
Br0 Ru0 2.631689 1_455
Br0 Ru2 2.975793 1_445
Br1 Ru1 2.631689 1_655
Br1 Ru3 2.975793 1_665
Br2 Zn1 2.467180 1_555
Br3 Zn0 2.467180 1_555
Br4 Zn0 2.467180 1_555
Br5 Zn1 2.467180 1_555
Br6 Ru2 2.652760 1_555
Br6 Ru0 2.826980 1_565
Br7 Ru3 2.652760 1_555
Br7 Ru1 2.826980 1_545
Br8 Ru3 2.652760 1_555
Br8 Ru1 2.826980 1_545
Br9 Ru2 2.652760 1_555
Br9 Ru0 2.826980 1_565
Br10 Zn0 2.421482 1_555
Br11 Zn1 2.421482 1_555
Br12 Zn0 2.459915 1_655
Br13 Zn1 2.459915 1_455
N0 Ru2 1.839284 1_455
N1 Ru3 1.839284 1_655
N2 Ru3 1.839284 1_655
N3 Ru2 1.839284 1_455
N4 Ru0 1.757352 1_555
N5 Ru1 1.757352 1_555
N6 Ru1 1.757352 1_555
N7 Ru0 1.757352 1_555
N8 Ru2 1.706946 1_555
N9 Ru3 1.706946 1_555
N10 Ru0 1.813575 1_555
N11 Ru1 1.813575 1_555
