# generated using pymatgen
data_K2Tc
_symmetry_space_group_name_H-M   'P 1'
_cell_length_a   21.50166347
_cell_length_b   21.50166195
_cell_length_c   5.66482400
_cell_angle_alpha   90.00000000
_cell_angle_beta   90.00000000
_cell_angle_gamma   119.47990297
_symmetry_Int_Tables_number   1
_chemical_formula_structural   K2Tc
_chemical_formula_sum   'K48 Tc24'
_cell_volume   2279.88760505
_cell_formula_units_Z   24
loop_
 _symmetry_equiv_pos_site_id
 _symmetry_equiv_pos_as_xyz
  1  'x, y, z'
loop_
 _atom_site_type_symbol
 _atom_site_label
 _atom_site_symmetry_multiplicity
 _atom_site_fract_x
 _atom_site_fract_y
 _atom_site_fract_z
 _atom_site_occupancy
  K  K0_0  1  0.17676400  0.17676400  0.00000000  1
  K  K0_1  1  0.17676400  0.17676400  0.50000000  1
  K  K0_2  1  0.17676400  0.67676400  0.00000000  1
  K  K0_3  1  0.17676400  0.67676400  0.50000000  1
  K  K0_4  1  0.67676400  0.17676400  0.00000000  1
  K  K0_5  1  0.67676400  0.17676400  0.50000000  1
  K  K0_6  1  0.67676400  0.67676400  0.00000000  1
  K  K0_7  1  0.67676400  0.67676400  0.50000000  1
  K  K1_0  1  0.32509450  0.00071750  0.00000000  1
  K  K1_1  1  0.32509450  0.00071750  0.50000000  1
  K  K1_2  1  0.32509450  0.50071750  0.00000000  1
  K  K1_3  1  0.32509450  0.50071750  0.50000000  1
  K  K1_4  1  0.82509450  0.00071750  0.00000000  1
  K  K1_5  1  0.82509450  0.00071750  0.50000000  1
  K  K1_6  1  0.82509450  0.50071750  0.00000000  1
  K  K1_7  1  0.82509450  0.50071750  0.50000000  1
  K  K2_0  1  0.00071750  0.32509450  0.00000000  1
  K  K2_1  1  0.00071750  0.32509450  0.50000000  1
  K  K2_2  1  0.00071750  0.82509450  0.00000000  1
  K  K2_3  1  0.00071750  0.82509450  0.50000000  1
  K  K2_4  1  0.50071750  0.32509450  0.00000000  1
  K  K2_5  1  0.50071750  0.32509450  0.50000000  1
  K  K2_6  1  0.50071750  0.82509450  0.00000000  1
  K  K2_7  1  0.50071750  0.82509450  0.50000000  1
  K  K3_0  1  0.34155650  0.34155650  0.25000000  1
  K  K3_1  1  0.34155650  0.34155650  0.75000000  1
  K  K3_2  1  0.34155650  0.84155650  0.25000000  1
  K  K3_3  1  0.34155650  0.84155650  0.75000000  1
  K  K3_4  1  0.84155650  0.34155650  0.25000000  1
  K  K3_5  1  0.84155650  0.34155650  0.75000000  1
  K  K3_6  1  0.84155650  0.84155650  0.25000000  1
  K  K3_7  1  0.84155650  0.84155650  0.75000000  1
  K  K4_0  1  0.15617300  0.00060600  0.25000000  1
  K  K4_1  1  0.15617300  0.00060600  0.75000000  1
  K  K4_2  1  0.15617300  0.50060600  0.25000000  1
  K  K4_3  1  0.15617300  0.50060600  0.75000000  1
  K  K4_4  1  0.65617300  0.00060600  0.25000000  1
  K  K4_5  1  0.65617300  0.00060600  0.75000000  1
  K  K4_6  1  0.65617300  0.50060600  0.25000000  1
  K  K4_7  1  0.65617300  0.50060600  0.75000000  1
  K  K5_0  1  0.00060600  0.15617300  0.25000000  1
  K  K5_1  1  0.00060600  0.15617300  0.75000000  1
  K  K5_2  1  0.00060600  0.65617300  0.25000000  1
  K  K5_3  1  0.00060600  0.65617300  0.75000000  1
  K  K5_4  1  0.50060600  0.15617300  0.25000000  1
  K  K5_5  1  0.50060600  0.15617300  0.75000000  1
  K  K5_6  1  0.50060600  0.65617300  0.25000000  1
  K  K5_7  1  0.50060600  0.65617300  0.75000000  1
  Tc  Tc0_0  1  0.49760050  0.49760050  0.00000000  1
  Tc  Tc0_1  1  0.49760050  0.49760050  0.50000000  1
  Tc  Tc0_2  1  0.49760050  0.99760050  0.00000000  1
  Tc  Tc0_3  1  0.49760050  0.99760050  0.50000000  1
  Tc  Tc0_4  1  0.99760050  0.49760050  0.00000000  1
  Tc  Tc0_5  1  0.99760050  0.49760050  0.50000000  1
  Tc  Tc0_6  1  0.99760050  0.99760050  0.00000000  1
  Tc  Tc0_7  1  0.99760050  0.99760050  0.50000000  1
  Tc  Tc1_0  1  0.33416000  0.16737700  0.25000000  1
  Tc  Tc1_1  1  0.33416000  0.16737700  0.75000000  1
  Tc  Tc1_2  1  0.33416000  0.66737700  0.25000000  1
  Tc  Tc1_3  1  0.33416000  0.66737700  0.75000000  1
  Tc  Tc1_4  1  0.83416000  0.16737700  0.25000000  1
  Tc  Tc1_5  1  0.83416000  0.16737700  0.75000000  1
  Tc  Tc1_6  1  0.83416000  0.66737700  0.25000000  1
  Tc  Tc1_7  1  0.83416000  0.66737700  0.75000000  1
  Tc  Tc2_0  1  0.16737700  0.33416000  0.25000000  1
  Tc  Tc2_1  1  0.16737700  0.33416000  0.75000000  1
  Tc  Tc2_2  1  0.16737700  0.83416000  0.25000000  1
  Tc  Tc2_3  1  0.16737700  0.83416000  0.75000000  1
  Tc  Tc2_4  1  0.66737700  0.33416000  0.25000000  1
  Tc  Tc2_5  1  0.66737700  0.33416000  0.75000000  1
  Tc  Tc2_6  1  0.66737700  0.83416000  0.25000000  1
  Tc  Tc2_7  1  0.66737700  0.83416000  0.75000000  1
loop_
_geom_bond_atom_site_label_1
_geom_bond_atom_site_label_2
_geom_bond_distance
_geom_bond_site_symmetry_2
K0_0 K0_1 2.832412 1_555
K0_0 K0_1 2.832412 1_554
K0_0 Tc2_1 3.764572 1_554
K0_0 Tc2_0 3.764572 1_555
K0_0 Tc1_1 3.764572 1_554
K0_0 Tc1_0 3.764572 1_555
K0_0 Tc0_6 3.882557 1_445
K0_1 Tc2_0 3.764572 1_555
K0_1 Tc2_1 3.764572 1_555
K0_1 Tc1_0 3.764572 1_555
K0_1 Tc1_1 3.764572 1_555
K0_1 Tc0_7 3.882557 1_445
K0_2 K0_3 2.832412 1_555
K0_2 K0_3 2.832412 1_554
K0_2 Tc2_3 3.764572 1_554
K0_2 Tc2_2 3.764572 1_555
K0_2 Tc1_2 3.764572 1_555
K0_2 Tc1_3 3.764572 1_554
K0_2 Tc0_4 3.882557 1_455
K0_3 Tc2_2 3.764572 1_555
K0_3 Tc2_3 3.764572 1_555
K0_3 Tc1_2 3.764572 1_555
K0_3 Tc1_3 3.764572 1_555
K0_3 Tc0_5 3.882557 1_455
K0_4 K0_5 2.832412 1_555
K0_4 K0_5 2.832412 1_554
K0_4 Tc2_5 3.764572 1_554
K0_4 Tc2_4 3.764572 1_555
K0_4 Tc1_5 3.764572 1_554
K0_4 Tc1_4 3.764572 1_555
K0_4 Tc0_2 3.882557 1_545
K0_5 Tc2_5 3.764572 1_555
K0_5 Tc2_4 3.764572 1_555
K0_5 Tc1_4 3.764572 1_555
K0_5 Tc1_5 3.764572 1_555
K0_5 Tc0_3 3.882557 1_545
K0_6 K0_7 2.832412 1_554
K0_6 K0_7 2.832412 1_555
K0_6 Tc2_7 3.764572 1_554
K0_6 Tc2_6 3.764572 1_555
K0_6 Tc1_7 3.764572 1_554
K0_6 Tc1_6 3.764572 1_555
K0_6 Tc0_0 3.882557 1_555
K0_7 Tc2_6 3.764572 1_555
K0_7 Tc2_7 3.764572 1_555
K0_7 Tc1_6 3.764572 1_555
K0_7 Tc1_7 3.764572 1_555
K0_7 Tc0_1 3.882557 1_555
K1_0 K1_1 2.832412 1_554
K1_0 K1_1 2.832412 1_555
K1_0 Tc0_2 3.742603 1_545
K1_0 Tc1_1 3.767931 1_554
K1_0 Tc1_0 3.767931 1_555
K1_0 Tc2_3 3.791827 1_544
K1_0 Tc2_2 3.791827 1_545
K1_1 Tc0_3 3.742603 1_545
K1_1 Tc1_0 3.767931 1_555
K1_1 Tc1_1 3.767931 1_555
K1_1 Tc2_2 3.791827 1_545
K1_1 Tc2_3 3.791827 1_545
K1_2 K1_3 2.832412 1_554
K1_2 K1_3 2.832412 1_555
K1_2 Tc0_0 3.742603 1_555
K1_2 Tc1_3 3.767931 1_554
K1_2 Tc1_2 3.767931 1_555
K1_2 Tc2_1 3.791827 1_554
K1_2 Tc2_0 3.791827 1_555
K1_3 Tc0_1 3.742603 1_555
K1_3 Tc1_3 3.767931 1_555
K1_3 Tc1_2 3.767931 1_555
K1_3 Tc2_0 3.791827 1_555
K1_3 Tc2_1 3.791827 1_555
K1_4 K1_5 2.832412 1_554
K1_4 K1_5 2.832412 1_555
K1_4 Tc0_6 3.742603 1_545
K1_4 Tc1_4 3.767931 1_555
K1_4 Tc1_5 3.767931 1_554
K1_4 Tc2_7 3.791827 1_544
K1_4 Tc2_6 3.791827 1_545
K1_5 Tc0_7 3.742603 1_545
K1_5 Tc1_4 3.767931 1_555
K1_5 Tc1_5 3.767931 1_555
K1_5 Tc2_6 3.791827 1_545
K1_5 Tc2_7 3.791827 1_545
K1_6 K1_7 2.832412 1_555
K1_6 K1_7 2.832412 1_554
K1_6 Tc0_4 3.742603 1_555
K1_6 Tc1_6 3.767931 1_555
K1_6 Tc1_7 3.767931 1_554
K1_6 Tc2_5 3.791827 1_554
K1_6 Tc2_4 3.791827 1_555
K1_7 Tc0_5 3.742603 1_555
K1_7 Tc1_6 3.767931 1_555
K1_7 Tc1_7 3.767931 1_555
K1_7 Tc2_4 3.791827 1_555
K1_7 Tc2_5 3.791827 1_555
K2_0 K2_1 2.832412 1_555
K2_0 K2_1 2.832412 1_554
K2_0 Tc0_4 3.742603 1_455
K2_0 Tc2_1 3.767931 1_554
K2_0 Tc2_0 3.767931 1_555
K2_0 Tc1_5 3.791827 1_454
K2_0 Tc1_4 3.791827 1_455
K2_1 Tc0_5 3.742603 1_455
K2_1 Tc2_0 3.767931 1_555
K2_1 Tc2_1 3.767931 1_555
K2_1 Tc1_5 3.791827 1_455
K2_1 Tc1_4 3.791827 1_455
K2_2 K2_3 2.832412 1_555
K2_2 K2_3 2.832412 1_554
K2_2 Tc0_6 3.742603 1_455
K2_2 Tc2_2 3.767931 1_555
K2_2 Tc2_3 3.767931 1_554
K2_2 Tc1_7 3.791827 1_454
K2_2 Tc1_6 3.791827 1_455
K2_3 Tc0_7 3.742603 1_455
K2_3 Tc2_2 3.767931 1_555
K2_3 Tc2_3 3.767931 1_555
K2_3 Tc1_7 3.791827 1_455
K2_3 Tc1_6 3.791827 1_455
K2_4 K2_5 2.832412 1_555
K2_4 K2_5 2.832412 1_554
K2_4 Tc0_0 3.742603 1_555
K2_4 Tc2_5 3.767931 1_554
K2_4 Tc2_4 3.767931 1_555
K2_4 Tc1_1 3.791827 1_554
K2_4 Tc1_0 3.791827 1_555
K2_5 Tc0_1 3.742603 1_555
K2_5 Tc2_4 3.767931 1_555
K2_5 Tc2_5 3.767931 1_555
K2_5 Tc1_0 3.791827 1_555
K2_5 Tc1_1 3.791827 1_555
K2_6 K2_7 2.832412 1_555
K2_6 K2_7 2.832412 1_554
K2_6 Tc0_2 3.742603 1_555
K2_6 Tc2_7 3.767931 1_554
K2_6 Tc2_6 3.767931 1_555
K2_6 Tc1_2 3.791827 1_555
K2_6 Tc1_3 3.791827 1_554
K2_7 Tc0_3 3.742603 1_555
K2_7 Tc2_6 3.767931 1_555
K2_7 Tc2_7 3.767931 1_555
K2_7 Tc1_2 3.791827 1_555
K2_7 Tc1_3 3.791827 1_555
K3_0 K3_1 2.832412 1_554
K3_0 K3_1 2.832412 1_555
K3_0 Tc0_0 3.666129 1_555
K3_0 Tc0_1 3.666129 1_555
K3_0 Tc1_0 3.669496 1_555
K3_0 Tc2_0 3.669497 1_555
K3_1 Tc0_0 3.666129 1_556
K3_1 Tc0_1 3.666129 1_555
K3_1 Tc1_1 3.669496 1_555
K3_1 Tc2_1 3.669497 1_555
K3_2 K3_3 2.832412 1_554
K3_2 K3_3 2.832412 1_555
K3_2 Tc0_2 3.666129 1_555
K3_2 Tc0_3 3.666129 1_555
K3_2 Tc1_2 3.669496 1_555
K3_2 Tc2_2 3.669497 1_555
K3_3 Tc0_2 3.666129 1_556
K3_3 Tc0_3 3.666129 1_555
K3_3 Tc1_3 3.669496 1_555
K3_3 Tc2_3 3.669497 1_555
K3_4 K3_5 2.832412 1_554
K3_4 K3_5 2.832412 1_555
K3_4 Tc0_5 3.666129 1_555
K3_4 Tc0_4 3.666129 1_555
K3_4 Tc1_4 3.669496 1_555
K3_4 Tc2_4 3.669497 1_555
K3_5 Tc0_4 3.666129 1_556
K3_5 Tc0_5 3.666129 1_555
K3_5 Tc1_5 3.669496 1_555
K3_5 Tc2_5 3.669497 1_555
K3_6 K3_7 2.832412 1_554
K3_6 K3_7 2.832412 1_555
K3_6 Tc0_6 3.666129 1_555
K3_6 Tc0_7 3.666129 1_555
K3_6 Tc1_6 3.669496 1_555
K3_6 Tc2_6 3.669497 1_555
K3_7 Tc0_6 3.666129 1_556
K3_7 Tc0_7 3.666129 1_555
K3_7 Tc1_7 3.669496 1_555
K3_7 Tc2_7 3.669497 1_555
K4_0 K4_1 2.832412 1_554
K4_0 K4_1 2.832412 1_555
K4_0 Tc0_6 3.663077 1_445
K4_0 Tc0_7 3.663077 1_445
K4_0 Tc2_2 3.703362 1_545
K4_0 Tc1_0 3.741337 1_555
K4_1 Tc0_6 3.663077 1_446
K4_1 Tc0_7 3.663077 1_445
K4_1 Tc2_3 3.703362 1_545
K4_1 Tc1_1 3.741337 1_555
K4_2 K4_3 2.832412 1_554
K4_2 K4_3 2.832412 1_555
K4_2 Tc0_5 3.663077 1_455
K4_2 Tc0_4 3.663077 1_455
K4_2 Tc2_0 3.703362 1_555
K4_2 Tc1_2 3.741337 1_555
K4_3 Tc0_4 3.663077 1_456
K4_3 Tc0_5 3.663077 1_455
K4_3 Tc2_1 3.703362 1_555
K4_3 Tc1_3 3.741337 1_555
K4_4 K4_5 2.832412 1_554
K4_4 K4_5 2.832412 1_555
K4_4 Tc0_3 3.663077 1_545
K4_4 Tc0_2 3.663077 1_545
K4_4 Tc2_6 3.703362 1_545
K4_4 Tc1_4 3.741337 1_555
K4_5 Tc0_2 3.663077 1_546
K4_5 Tc0_3 3.663077 1_545
K4_5 Tc2_7 3.703362 1_545
K4_5 Tc1_5 3.741337 1_555
K4_6 K4_7 2.832412 1_554
K4_6 K4_7 2.832412 1_555
K4_6 Tc0_0 3.663077 1_555
K4_6 Tc0_1 3.663077 1_555
K4_6 Tc2_4 3.703362 1_555
K4_6 Tc1_6 3.741337 1_555
K4_7 Tc0_0 3.663077 1_556
K4_7 Tc0_1 3.663077 1_555
K4_7 Tc2_5 3.703362 1_555
K4_7 Tc1_7 3.741337 1_555
K5_0 K5_1 2.832412 1_554
K5_0 K5_1 2.832412 1_555
K5_0 Tc0_6 3.663077 1_445
K5_0 Tc0_7 3.663077 1_445
K5_0 Tc1_4 3.703362 1_455
K5_0 Tc2_0 3.741337 1_555
K5_1 Tc0_6 3.663077 1_446
K5_1 Tc0_7 3.663077 1_445
K5_1 Tc1_5 3.703362 1_455
K5_1 Tc2_1 3.741337 1_555
K5_2 K5_3 2.832412 1_554
K5_2 K5_3 2.832412 1_555
K5_2 Tc0_4 3.663077 1_455
K5_2 Tc0_5 3.663077 1_455
K5_2 Tc1_6 3.703362 1_455
K5_2 Tc2_2 3.741337 1_555
K5_3 Tc0_4 3.663077 1_456
K5_3 Tc0_5 3.663077 1_455
K5_3 Tc1_7 3.703362 1_455
K5_3 Tc2_3 3.741337 1_555
K5_4 K5_5 2.832412 1_554
K5_4 K5_5 2.832412 1_555
K5_4 Tc0_3 3.663077 1_545
K5_4 Tc0_2 3.663077 1_545
K5_4 Tc1_0 3.703362 1_555
K5_4 Tc2_4 3.741337 1_555
K5_5 Tc0_2 3.663077 1_546
K5_5 Tc0_3 3.663077 1_545
K5_5 Tc1_1 3.703362 1_555
K5_5 Tc2_5 3.741337 1_555
K5_6 K5_7 2.832412 1_554
K5_6 K5_7 2.832412 1_555
K5_6 Tc0_0 3.663077 1_555
K5_6 Tc0_1 3.663077 1_555
K5_6 Tc1_2 3.703362 1_555
K5_6 Tc2_6 3.741337 1_555
K5_7 Tc0_0 3.663077 1_556
K5_7 Tc0_1 3.663077 1_555
K5_7 Tc1_3 3.703362 1_555
K5_7 Tc2_7 3.741337 1_555
Tc0_0 Tc0_1 2.832412 1_555
Tc0_0 Tc0_1 2.832412 1_554
Tc0_2 Tc0_3 2.832412 1_554
Tc0_2 Tc0_3 2.832412 1_555
Tc0_4 Tc0_5 2.832412 1_554
Tc0_4 Tc0_5 2.832412 1_555
Tc0_6 Tc0_7 2.832412 1_555
Tc0_6 Tc0_7 2.832412 1_554
Tc1_0 Tc1_1 2.832412 1_554
Tc1_0 Tc1_1 2.832412 1_555
Tc1_2 Tc1_3 2.832412 1_554
Tc1_2 Tc1_3 2.832412 1_555
Tc1_4 Tc1_5 2.832412 1_554
Tc1_4 Tc1_5 2.832412 1_555
Tc1_6 Tc1_7 2.832412 1_554
Tc1_6 Tc1_7 2.832412 1_555
Tc2_0 Tc2_1 2.832412 1_554
Tc2_0 Tc2_1 2.832412 1_555
Tc2_2 Tc2_3 2.832412 1_554
Tc2_2 Tc2_3 2.832412 1_555
Tc2_4 Tc2_5 2.832412 1_554
Tc2_4 Tc2_5 2.832412 1_555
Tc2_6 Tc2_7 2.832412 1_554
Tc2_6 Tc2_7 2.832412 1_555
