# generated using pymatgen
data_Li4Mn3Fe3(PO4)6
_symmetry_space_group_name_H-M   'P 1'
_cell_length_a   8.48974800
_cell_length_b   8.57207245
_cell_length_c   8.59201541
_cell_angle_alpha   62.87410692
_cell_angle_beta   63.09012162
_cell_angle_gamma   64.01453942
_symmetry_Int_Tables_number   1
_chemical_formula_structural   Li4Mn3Fe3(PO4)6
_chemical_formula_sum   'Li4 Mn3 Fe3 P6 O24'
_cell_volume   474.61051688
_cell_formula_units_Z   1
loop_
 _symmetry_equiv_pos_site_id
 _symmetry_equiv_pos_as_xyz
  1  'x, y, z'
loop_
 _atom_site_type_symbol
 _atom_site_label
 _atom_site_symmetry_multiplicity
 _atom_site_fract_x
 _atom_site_fract_y
 _atom_site_fract_z
 _atom_site_occupancy
  Li  Li0  1  0.84930200  0.25999300  0.64379600  1
  Li  Li1  1  0.14842500  0.73131400  0.34471800  1
  Li  Li2  1  0.73472800  0.35092100  0.14372500  1
  Li  Li3  1  0.35057300  0.14276500  0.73444000  1
  Mn  Mn0  1  0.64681100  0.64683300  0.64904200  1
  Mn  Mn1  1  0.85525900  0.85197900  0.85033800  1
  Mn  Mn2  1  0.34490700  0.34811900  0.34739500  1
  Fe  Fe0  1  0.99610000  0.99200500  0.00631900  1
  Fe  Fe1  1  0.15361300  0.15214500  0.14901000  1
  Fe  Fe2  1  0.49677000  0.50926500  0.49985900  1
  P  P0  1  0.24876600  0.94028500  0.55734900  1
  P  P1  1  0.94787200  0.55697900  0.24309600  1
  P  P2  1  0.56052900  0.24999900  0.94999300  1
  P  P3  1  0.45059100  0.75670100  0.04640600  1
  P  P4  1  0.04896500  0.43675000  0.75025400  1
  P  P5  1  0.75381600  0.05950900  0.45360000  1
  O  O0  1  0.09624100  0.54625500  0.30712800  1
  O  O1  1  0.53712700  0.32240900  0.09523100  1
  O  O2  1  0.31382100  0.08935900  0.54406500  1
  O  O3  1  0.08191800  0.92937600  0.74485900  1
  O  O4  1  0.18230300  0.99971100  0.39257700  1
  O  O5  1  0.39162300  0.75061400  0.56794800  1
  O  O6  1  0.92643000  0.74509900  0.08506500  1
  O  O7  1  0.76290300  0.54694800  0.40140500  1
  O  O8  1  0.60827100  0.83116400  0.99617900  1
  O  O9  1  0.57457600  0.38919300  0.75216500  1
  O  O10  1  0.25313400  0.90965900  0.07168600  1
  O  O11  1  0.98404300  0.60255000  0.80908400  1
  O  O12  1  0.00723300  0.39336500  0.17617400  1
  O  O13  1  0.75517100  0.10236300  0.92915700  1
  O  O14  1  0.43096900  0.61084400  0.24393700  1
  O  O15  1  0.39816500  0.17864900  0.00515300  1
  O  O16  1  0.24616600  0.42610400  0.60159100  1
  O  O17  1  0.07913800  0.24570000  0.91113300  1
  O  O18  1  0.60383600  0.25195500  0.42592500  1
  O  O19  1  0.81509300  0.03934300  0.60808500  1
  O  O20  1  0.90900900  0.07840700  0.25683800  1
  O  O21  1  0.69412700  0.89839900  0.49767500  1
  O  O22  1  0.47656400  0.68938700  0.89947400  1
  O  O23  1  0.90811200  0.43758300  0.68512700  1
loop_
_geom_bond_atom_site_label_1
_geom_bond_atom_site_label_2
_geom_bond_distance
_geom_bond_site_symmetry_2
Li0 O23 2.003079 1_555
Li0 O9 2.060215 1_555
Li0 O13 2.151156 1_555
Li0 O19 2.201642 1_555
Li0 O7 2.460932 1_555
Li1 O0 2.007394 1_555
Li1 O14 2.082007 1_555
Li1 O10 2.159514 1_555
Li2 O1 2.032850 1_555
Li2 O18 2.084471 1_555
Li2 O20 2.189357 1_555
Li3 O2 2.062148 1_555
Li3 O16 2.118697 1_555
Li3 O17 2.160259 1_555
Li3 O18 2.620629 1_555
Mn0 O21 2.057123 1_555
Mn0 O22 2.071385 1_555
Mn0 O23 2.205292 1_555
Mn0 O9 2.224686 1_555
Mn0 O5 2.254502 1_555
Mn0 O7 2.292425 1_555
Mn1 O8 1.935062 1_555
Mn1 O3 1.989024 1_655
Mn1 O19 2.035267 1_565
Mn1 O11 2.045585 1_555
Mn1 O6 2.050578 1_556
Mn1 O13 2.234664 1_565
Mn2 O1 2.079824 1_555
Mn2 O0 2.108190 1_555
Mn2 O2 2.129892 1_555
Mn2 O16 2.258933 1_555
Mn2 O18 2.283536 1_555
Mn2 O14 2.329041 1_555
Fe0 O13 2.116176 1_564
Fe0 O6 2.171659 1_555
Fe0 O10 2.230149 1_655
Fe0 O17 2.257173 1_664
Fe0 O3 2.267414 1_654
Fe0 O20 2.293826 1_565
Fe1 O15 1.929845 1_555
Fe1 O12 1.949421 1_555
Fe1 O4 1.958356 1_545
Fe1 O20 2.108310 1_455
Fe1 O17 2.109725 1_554
Fe1 O10 2.165200 1_545
Fe2 O5 2.105218 1_555
Fe2 O7 2.141297 1_555
Fe2 O14 2.201145 1_555
Fe2 O9 2.204740 1_555
Fe2 O16 2.208217 1_555
Fe2 O18 2.256757 1_555
O0 P1 1.541901 1_455
O1 P2 1.534865 1_554
O2 P0 1.542536 1_545
O3 P0 1.588647 1_555
O4 P0 1.547811 1_555
O5 P0 1.536133 1_555
O6 P1 1.564298 1_555
O7 P1 1.549752 1_555
O8 P3 1.536338 1_556
O9 P2 1.555255 1_555
O10 P3 1.606414 1_555
O11 P4 1.515163 1_655
O12 P1 1.550920 1_455
O13 P2 1.571802 1_555
O14 P3 1.569398 1_555
O15 P2 1.543328 1_554
O16 P4 1.574639 1_555
O17 P4 1.595915 1_555
O18 P5 1.573186 1_555
O19 P5 1.548982 1_555
O20 P5 1.594154 1_555
O21 P5 1.506694 1_565
O22 P3 1.508687 1_556
O23 P4 1.528950 1_655
