# generated using pymatgen
data_MgSi
_symmetry_space_group_name_H-M   'P 1'
_cell_length_a   4.75043200
_cell_length_b   5.09655501
_cell_length_c   10.35814783
_cell_angle_alpha   98.60665237
_cell_angle_beta   101.52313027
_cell_angle_gamma   102.94007515
_symmetry_Int_Tables_number   1
_chemical_formula_structural   MgSi
_chemical_formula_sum   'Mg6 Si6'
_cell_volume   234.47075260
_cell_formula_units_Z   6
loop_
 _symmetry_equiv_pos_site_id
 _symmetry_equiv_pos_as_xyz
  1  'x, y, z'
loop_
 _atom_site_type_symbol
 _atom_site_label
 _atom_site_symmetry_multiplicity
 _atom_site_fract_x
 _atom_site_fract_y
 _atom_site_fract_z
 _atom_site_occupancy
  Mg  Mg0  1  0.83979200  0.50060400  0.14333700  1
  Mg  Mg1  1  0.07896300  0.90984900  0.82809400  1
  Mg  Mg2  1  0.59550000  0.98371300  0.56501300  1
  Mg  Mg3  1  0.19550800  0.32602300  0.45595200  1
  Mg  Mg4  1  0.67954200  0.35493300  0.84971900  1
  Mg  Mg5  1  0.28200100  0.07679400  0.16545800  1
  Si  Si0  1  0.42311100  0.65754800  0.29769700  1
  Si  Si1  1  0.79971300  0.53478100  0.56833300  1
  Si  Si2  1  0.28860700  0.55126700  0.99235600  1
  Si  Si3  1  0.69179800  0.95051100  0.00356200  1
  Si  Si4  1  0.99063000  0.77793000  0.40124400  1
  Si  Si5  1  0.13490500  0.37598800  0.72935400  1
loop_
_geom_bond_atom_site_label_1
_geom_bond_atom_site_label_2
_geom_bond_distance
_geom_bond_site_symmetry_2
Mg0 Si4 2.701717 1_555
Mg0 Si0 2.780143 1_655
Mg0 Si3 2.818898 1_545
Mg0 Si2 2.855855 1_554
Mg0 Si2 2.874813 1_654
Mg0 Si0 2.950436 1_555
Mg0 Si3 3.026066 1_555
Mg1 Si5 2.704386 1_565
Mg1 Si5 2.849428 1_555
Mg1 Si3 2.850001 1_456
Mg1 Si2 2.880178 1_555
Mg1 Si1 2.924422 1_455
Mg1 Si3 3.053634 1_556
Mg2 Si1 2.679841 1_555
Mg2 Si1 2.750954 1_565
Mg2 Si0 2.864874 1_555
Mg2 Si4 2.899029 1_455
Mg2 Si5 2.899137 1_665
Mg2 Si4 3.020285 1_555
Mg3 Si4 2.675749 1_445
Mg3 Si1 2.724302 1_455
Mg3 Si0 2.725776 1_555
Mg3 Si1 2.766231 1_555
Mg3 Si4 2.783369 1_455
Mg3 Si5 2.882763 1_555
Mg4 Si5 2.671231 1_555
Mg4 Si5 2.694219 1_655
Mg4 Si3 2.791207 1_546
Mg4 Si2 2.847535 1_655
Mg4 Si2 2.849383 1_555
Mg4 Si3 3.192558 1_556
Mg5 Si0 2.835792 1_545
Mg5 Si3 2.842105 1_445
Mg5 Si3 2.925479 1_545
Mg5 Si0 2.935535 1_555
Mg5 Si2 3.002061 1_544
Mg5 Si2 3.217093 1_554
Si0 Si4 2.588821 1_555
Si0 Si4 2.644919 1_455
Si1 Si5 2.427408 1_655
Si1 Si4 2.473731 1_555
Si2 Si3 2.432550 1_556
Si2 Si5 2.633873 1_555
