# generated using pymatgen
data_Li3MnCo3O8
_symmetry_space_group_name_H-M   'P 1'
_cell_length_a   5.75365096
_cell_length_b   10.25127748
_cell_length_c   5.91187752
_cell_angle_alpha   74.03676465
_cell_angle_beta   60.53456921
_cell_angle_gamma   73.13849061
_symmetry_Int_Tables_number   1
_chemical_formula_structural   Li3MnCo3O8
_chemical_formula_sum   'Li6 Mn2 Co6 O16'
_cell_volume   286.85304207
_cell_formula_units_Z   2
loop_
 _symmetry_equiv_pos_site_id
 _symmetry_equiv_pos_as_xyz
  1  'x, y, z'
loop_
 _atom_site_type_symbol
 _atom_site_label
 _atom_site_symmetry_multiplicity
 _atom_site_fract_x
 _atom_site_fract_y
 _atom_site_fract_z
 _atom_site_occupancy
  Li  Li0  1  0.75848200  0.74655100  0.74780100  1
  Li  Li1  1  0.24155700  0.25341900  0.25223700  1
  Li  Li2  1  0.25249500  0.75313200  0.25329500  1
  Li  Li3  1  0.74744100  0.24689000  0.74672100  1
  Li  Li4  1  0.75213700  0.74860700  0.25143300  1
  Li  Li5  1  0.24797100  0.25139100  0.74861300  1
  Mn  Mn0  1  0.50006600  0.49995100  0.49998400  1
  Mn  Mn1  1  0.99998200  0.00008300  0.00002800  1
  Co  Co0  1  0.00001100  0.49994200  0.50003000  1
  Co  Co1  1  0.49996100  0.49997000  0.99994700  1
  Co  Co2  1  0.00002900  0.49996400  0.99996600  1
  Co  Co3  1  0.50002500  0.00000700  0.00004200  1
  Co  Co4  1  0.99995100  0.99995900  0.50006000  1
  Co  Co5  1  0.50017900  0.99993700  0.50003600  1
  O  O0  1  0.87740500  0.88721100  0.34807700  1
  O  O1  1  0.36049200  0.39281100  0.85671200  1
  O  O2  1  0.63954300  0.60715500  0.14311400  1
  O  O3  1  0.12264500  0.11298300  0.65166400  1
  O  O4  1  0.10568400  0.59898700  0.15618100  1
  O  O5  1  0.60718800  0.10605400  0.66212400  1
  O  O6  1  0.39280200  0.89392300  0.33800700  1
  O  O7  1  0.89425900  0.40093600  0.84393300  1
  O  O8  1  0.85462200  0.89254400  0.88931000  1
  O  O9  1  0.35301500  0.39123500  0.39295900  1
  O  O10  1  0.36816200  0.89060800  0.88514000  1
  O  O11  1  0.85935800  0.38597200  0.40553600  1
  O  O12  1  0.14061200  0.61393100  0.59443800  1
  O  O13  1  0.63167900  0.10955500  0.11489800  1
  O  O14  1  0.64682500  0.60868200  0.60695900  1
  O  O15  1  0.14541800  0.10761100  0.11075300  1
loop_
_geom_bond_atom_site_label_1
_geom_bond_atom_site_label_2
_geom_bond_distance
_geom_bond_site_symmetry_2
Li0 O12 2.118303 1_655
Li0 O14 2.191756 1_555
Li0 O10 2.196644 1_555
Li0 O8 2.206786 1_555
Li0 O2 2.264743 1_556
Li0 O0 2.288906 1_555
Li1 O11 2.118207 1_455
Li1 O9 2.190042 1_555
Li1 O13 2.194964 1_555
Li1 O15 2.205059 1_555
Li1 O1 2.265616 1_554
Li1 O3 2.286663 1_555
Li2 O12 2.047149 1_555
Li2 O0 2.091375 1_455
Li2 O6 2.111117 1_555
Li2 O10 2.144312 1_554
Li2 O2 2.190604 1_555
Li2 O4 2.300122 1_555
Li3 O11 2.046683 1_555
Li3 O3 2.090985 1_655
Li3 O5 2.110880 1_555
Li3 O13 2.143725 1_556
Li3 O1 2.189969 1_555
Li3 O7 2.299634 1_555
Li4 O0 2.076181 1_555
Li4 O4 2.084636 1_655
Li4 O6 2.085004 1_555
Li4 O2 2.096729 1_555
Li4 O14 2.106024 1_555
Li4 O8 2.152528 1_554
Li5 O3 2.075824 1_555
Li5 O5 2.084683 1_555
Li5 O7 2.084826 1_455
Li5 O1 2.095326 1_555
Li5 O9 2.106133 1_555
Li5 O15 2.151799 1_556
Mn0 O11 1.942301 1_555
Mn0 O12 1.943000 1_555
Mn0 O14 1.953069 1_555
Mn0 O9 1.954426 1_555
Mn0 O1 1.967302 1_555
Mn0 O2 1.968131 1_555
Mn1 O0 1.950959 1_545
Mn1 O3 1.952413 1_654
Mn1 O8 1.952836 1_544
Mn1 O15 1.953108 1_655
Mn1 O10 1.957785 1_644
Mn1 O13 1.958305 1_555
Co0 O4 1.881426 1_555
Co0 O7 1.881515 1_455
Co0 O9 1.891533 1_555
Co0 O14 1.892458 1_455
Co0 O12 1.919042 1_555
Co0 O11 1.919444 1_455
Co1 O4 2.036709 1_556
Co1 O7 2.036796 1_555
Co1 O1 2.063797 1_555
Co1 O2 2.064183 1_556
Co1 O14 2.131778 1_555
Co1 O9 2.131970 1_556
Co2 O7 1.917696 1_455
Co2 O4 1.918032 1_556
Co2 O1 1.920240 1_555
Co2 O2 1.920438 1_456
Co2 O12 2.206058 1_555
Co2 O11 2.206326 1_456
Co3 O5 1.880268 1_554
Co3 O6 1.880609 1_545
Co3 O8 1.893017 1_544
Co3 O15 1.893590 1_555
Co3 O10 1.927279 1_544
Co3 O13 1.927415 1_555
Co4 O5 2.055465 1_565
Co4 O6 2.055619 1_655
Co4 O0 2.075476 1_555
Co4 O3 2.076590 1_665
Co4 O8 2.110582 1_555
Co4 O15 2.111664 1_665
Co5 O5 2.005750 1_565
Co5 O6 2.006155 1_555
Co5 O0 2.012700 1_555
Co5 O3 2.015045 1_565
Co5 O10 2.098912 1_555
Co5 O13 2.100127 1_565
