# generated using pymatgen
data_KNiN
_symmetry_space_group_name_H-M   'P 1'
_cell_length_a   6.25256847
_cell_length_b   9.21869842
_cell_length_c   9.24619428
_cell_angle_alpha   89.51278513
_cell_angle_beta   109.76210612
_cell_angle_gamma   89.99999806
_symmetry_Int_Tables_number   1
_chemical_formula_structural   KNiN
_chemical_formula_sum   'K8 Ni8 N8'
_cell_volume   501.54654559
_cell_formula_units_Z   8
loop_
 _symmetry_equiv_pos_site_id
 _symmetry_equiv_pos_as_xyz
  1  'x, y, z'
loop_
 _atom_site_type_symbol
 _atom_site_label
 _atom_site_symmetry_multiplicity
 _atom_site_fract_x
 _atom_site_fract_y
 _atom_site_fract_z
 _atom_site_occupancy
  K  K0_0  1  0.01829650  0.00589200  0.03659350  1
  K  K0_1  1  0.01829650  0.00589200  0.53659350  1
  K  K0_2  1  0.01829650  0.50589200  0.03659350  1
  K  K0_3  1  0.01829650  0.50589200  0.53659350  1
  K  K0_4  1  0.51829650  0.00589200  0.03659350  1
  K  K0_5  1  0.51829650  0.00589200  0.53659350  1
  K  K0_6  1  0.51829650  0.50589200  0.03659350  1
  K  K0_7  1  0.51829650  0.50589200  0.53659350  1
  Ni  Ni0_0  1  0.14703800  0.26758750  0.29407650  1
  Ni  Ni0_1  1  0.14703800  0.26758750  0.79407650  1
  Ni  Ni0_2  1  0.14703800  0.76758750  0.29407650  1
  Ni  Ni0_3  1  0.14703800  0.76758750  0.79407650  1
  Ni  Ni0_4  1  0.64703800  0.26758750  0.29407650  1
  Ni  Ni0_5  1  0.64703800  0.26758750  0.79407650  1
  Ni  Ni0_6  1  0.64703800  0.76758750  0.29407650  1
  Ni  Ni0_7  1  0.64703800  0.76758750  0.79407650  1
  N  N0_0  1  0.37266500  0.32952050  0.24533050  1
  N  N0_1  1  0.37266500  0.32952050  0.74533050  1
  N  N0_2  1  0.37266500  0.82952050  0.24533050  1
  N  N0_3  1  0.37266500  0.82952050  0.74533050  1
  N  N0_4  1  0.87266500  0.32952050  0.24533050  1
  N  N0_5  1  0.87266500  0.32952050  0.74533050  1
  N  N0_6  1  0.87266500  0.82952050  0.24533050  1
  N  N0_7  1  0.87266500  0.82952050  0.74533050  1
loop_
_geom_bond_atom_site_label_1
_geom_bond_atom_site_label_2
_geom_bond_distance
_geom_bond_site_symmetry_2
K0_0 N0_6 2.886656 1_445
K0_0 N0_2 2.886657 1_545
K0_0 N0_7 3.023505 1_444
K0_0 Ni0_2 3.123648 1_545
K0_0 K0_4 3.126284 1_555
K0_0 K0_4 3.126284 1_455
K0_0 Ni0_0 3.307226 1_555
K0_0 Ni0_3 3.436090 1_544
K0_0 Ni0_7 3.436091 1_444
K0_0 Ni0_1 3.553149 1_554
K0_0 Ni0_5 3.553150 1_454
K0_1 N0_7 2.886656 1_445
K0_1 N0_3 2.886657 1_545
K0_1 N0_6 3.023505 1_445
K0_1 Ni0_3 3.123648 1_545
K0_1 K0_5 3.126284 1_455
K0_1 K0_5 3.126284 1_555
K0_1 Ni0_1 3.307226 1_555
K0_1 Ni0_2 3.436090 1_545
K0_1 Ni0_6 3.436091 1_445
K0_1 Ni0_0 3.553149 1_555
K0_1 Ni0_4 3.553150 1_455
K0_2 N0_4 2.886656 1_455
K0_2 N0_0 2.886657 1_555
K0_2 N0_5 3.023505 1_454
K0_2 Ni0_0 3.123648 1_555
K0_2 K0_6 3.126284 1_555
K0_2 K0_6 3.126284 1_455
K0_2 Ni0_2 3.307226 1_555
K0_2 Ni0_1 3.436090 1_554
K0_2 Ni0_5 3.436091 1_454
K0_2 Ni0_3 3.553149 1_554
K0_2 Ni0_7 3.553150 1_454
K0_3 N0_5 2.886656 1_455
K0_3 N0_1 2.886657 1_555
K0_3 N0_4 3.023505 1_455
K0_3 Ni0_1 3.123648 1_555
K0_3 K0_7 3.126284 1_555
K0_3 K0_7 3.126284 1_455
K0_3 Ni0_3 3.307226 1_555
K0_3 Ni0_0 3.436090 1_555
K0_3 Ni0_4 3.436091 1_455
K0_3 Ni0_2 3.553149 1_555
K0_3 Ni0_6 3.553150 1_455
K0_4 N0_2 2.886656 1_545
K0_4 N0_6 2.886657 1_545
K0_4 N0_3 3.023505 1_544
K0_4 Ni0_6 3.123648 1_545
K0_4 Ni0_4 3.307226 1_555
K0_4 Ni0_7 3.436090 1_544
K0_4 Ni0_3 3.436091 1_544
K0_4 Ni0_5 3.553149 1_554
K0_4 Ni0_1 3.553150 1_554
K0_5 N0_3 2.886656 1_545
K0_5 N0_7 2.886657 1_545
K0_5 N0_2 3.023505 1_545
K0_5 Ni0_7 3.123648 1_545
K0_5 Ni0_5 3.307226 1_555
K0_5 Ni0_6 3.436090 1_545
K0_5 Ni0_2 3.436091 1_545
K0_5 Ni0_4 3.553149 1_555
K0_5 Ni0_0 3.553150 1_555
K0_6 N0_0 2.886656 1_555
K0_6 N0_4 2.886657 1_555
K0_6 N0_1 3.023505 1_554
K0_6 Ni0_4 3.123648 1_555
K0_6 Ni0_6 3.307226 1_555
K0_6 Ni0_5 3.436090 1_554
K0_6 Ni0_1 3.436091 1_554
K0_6 Ni0_7 3.553149 1_554
K0_6 Ni0_3 3.553150 1_554
K0_7 N0_1 2.886656 1_555
K0_7 N0_5 2.886657 1_555
K0_7 N0_0 3.023505 1_555
K0_7 Ni0_5 3.123648 1_555
K0_7 Ni0_7 3.307226 1_555
K0_7 Ni0_4 3.436090 1_555
K0_7 Ni0_0 3.436091 1_555
K0_7 Ni0_6 3.553149 1_555
K0_7 Ni0_2 3.553150 1_555
N0_0 Ni0_0 1.716080 1_555
N0_0 Ni0_4 1.716080 1_555
N0_1 Ni0_1 1.716080 1_555
N0_1 Ni0_5 1.716080 1_555
N0_2 Ni0_2 1.716080 1_555
N0_2 Ni0_6 1.716080 1_555
N0_3 Ni0_3 1.716080 1_555
N0_3 Ni0_7 1.716080 1_555
N0_4 Ni0_4 1.716080 1_555
N0_4 Ni0_0 1.716080 1_655
N0_5 Ni0_5 1.716080 1_555
N0_5 Ni0_1 1.716080 1_655
N0_6 Ni0_6 1.716080 1_555
N0_6 Ni0_2 1.716080 1_655
N0_7 Ni0_7 1.716080 1_555
N0_7 Ni0_3 1.716080 1_655
