# generated using pymatgen
data_Mg14NiSn
_symmetry_space_group_name_H-M   'P 1'
_cell_length_a   6.23792479
_cell_length_b   6.27827588
_cell_length_c   10.15249743
_cell_angle_alpha   90.00000000
_cell_angle_beta   90.00000000
_cell_angle_gamma   120.21421874
_symmetry_Int_Tables_number   1
_chemical_formula_structural   Mg14NiSn
_chemical_formula_sum   'Mg14 Ni1 Sn1'
_cell_volume   343.59158881
_cell_formula_units_Z   1
loop_
 _symmetry_equiv_pos_site_id
 _symmetry_equiv_pos_as_xyz
  1  'x, y, z'
loop_
 _atom_site_type_symbol
 _atom_site_label
 _atom_site_symmetry_multiplicity
 _atom_site_fract_x
 _atom_site_fract_y
 _atom_site_fract_z
 _atom_site_occupancy
  Mg  Mg0  1  0.16785324  0.33392612  0.62500000  1
  Mg  Mg1  1  0.17072036  0.83535968  0.62500000  1
  Mg  Mg2  1  0.67269549  0.33740364  0.12500000  1
  Mg  Mg3  1  0.66497440  0.33014800  0.62500000  1
  Mg  Mg4  1  0.67269549  0.83529085  0.12500000  1
  Mg  Mg5  1  0.66497440  0.83482540  0.62500000  1
  Mg  Mg6  1  0.32761909  0.17163619  0.36100919  1
  Mg  Mg7  1  0.32761909  0.17163619  0.88899081  1
  Mg  Mg8  1  0.32761909  0.65598390  0.36100919  1
  Mg  Mg9  1  0.32761909  0.65598390  0.88899081  1
  Mg  Mg10  1  0.84361280  0.17180690  0.36306014  1
  Mg  Mg11  1  0.84361280  0.17180690  0.88693986  1
  Mg  Mg12  1  0.83302902  0.66651501  0.37850403  1
  Mg  Mg13  1  0.83302902  0.66651501  0.87149597  1
  Ni  Ni0  1  0.16239804  0.33119852  0.12500000  1
  Sn  Sn0  1  0.15992858  0.82996379  0.12500000  1
loop_
_geom_bond_atom_site_label_1
_geom_bond_atom_site_label_2
_geom_bond_distance
_geom_bond_site_symmetry_2
Mg0 Mg5 3.113008 1_555
Mg0 Mg3 3.113009 1_555
Mg0 Mg5 3.125051 1_445
Mg0 Mg3 3.125051 1_455
Mg0 Mg1 3.139176 1_555
Mg0 Mg1 3.139176 1_545
Mg0 Mg10 3.182292 1_455
Mg0 Mg11 3.182292 1_455
Mg0 Mg6 3.199482 1_555
Mg0 Mg7 3.199482 1_555
Mg0 Mg8 3.199488 1_555
Mg0 Mg9 3.199488 1_555
Mg1 Mg3 3.084809 1_565
Mg1 Mg5 3.084809 1_555
Mg1 Mg12 3.094566 1_455
Mg1 Mg13 3.094566 1_455
Mg1 Mg3 3.153118 1_455
Mg1 Mg5 3.153119 1_455
Mg1 Mg8 3.243268 1_555
Mg1 Mg9 3.243268 1_555
Mg1 Mg7 3.243274 1_565
Mg1 Mg6 3.243274 1_565
Mg2 Mg7 3.033665 1_554
Mg2 Mg6 3.033665 1_555
Mg2 Sn0 3.056290 1_655
Mg2 Ni0 3.074517 1_655
Mg2 Mg4 3.125873 1_555
Mg2 Mg4 3.152403 1_545
Mg2 Ni0 3.163771 1_555
Mg2 Sn0 3.181902 1_545
Mg3 Mg5 3.109772 1_545
Mg3 Mg5 3.168504 1_555
Mg3 Mg6 3.239500 1_555
Mg3 Mg7 3.239500 1_555
Mg4 Mg8 3.033665 1_555
Mg4 Mg9 3.033665 1_554
Mg4 Sn0 3.056291 1_655
Mg4 Ni0 3.074516 1_665
Mg4 Ni0 3.163771 1_555
Mg4 Sn0 3.181902 1_555
Mg5 Mg9 3.239500 1_555
Mg5 Mg8 3.239500 1_555
Mg6 Ni0 2.974244 1_555
Mg6 Sn0 3.029610 1_545
Mg7 Ni0 2.974244 1_556
Mg7 Sn0 3.029610 1_546
Mg8 Ni0 2.974250 1_555
Mg8 Sn0 3.029603 1_555
Mg9 Ni0 2.974250 1_556
Mg9 Sn0 3.029603 1_556
Mg10 Ni0 2.965531 1_655
Mg10 Mg2 3.028972 1_555
Mg10 Mg4 3.028978 1_545
Mg10 Mg12 3.143569 1_545
Mg10 Mg12 3.143569 1_555
Mg10 Mg3 3.227543 1_555
Mg10 Mg5 3.227549 1_545
Mg11 Ni0 2.965531 1_656
Mg11 Mg2 3.028972 1_556
Mg11 Mg4 3.028978 1_546
Mg11 Mg13 3.143569 1_545
Mg11 Mg13 3.143569 1_555
Mg11 Mg3 3.227543 1_555
Mg11 Mg5 3.227549 1_545
Mg12 Mg5 3.097296 1_555
Mg12 Mg3 3.097302 1_555
Mg12 Sn0 3.119152 1_655
Mg12 Mg6 3.124064 1_665
Mg12 Mg8 3.124065 1_655
Mg12 Mg6 3.125011 1_555
Mg12 Mg8 3.125012 1_555
Mg12 Mg4 3.132675 1_555
Mg12 Mg2 3.132682 1_555
Mg13 Mg5 3.097296 1_555
Mg13 Mg3 3.097302 1_555
Mg13 Sn0 3.119152 1_656
Mg13 Mg7 3.124064 1_665
Mg13 Mg9 3.124065 1_655
Mg13 Mg7 3.125011 1_555
Mg13 Mg9 3.125012 1_555
Mg13 Mg4 3.132675 1_556
Mg13 Mg2 3.132682 1_556
Ni0 Sn0 3.139166 1_545
Ni0 Sn0 3.139166 1_555
