# generated using pymatgen
data_AlCr2O4
_symmetry_space_group_name_H-M   'P 1'
_cell_length_a   5.99699796
_cell_length_b   5.99699796
_cell_length_c   5.99699724
_cell_angle_alpha   59.64995116
_cell_angle_beta   59.64995116
_cell_angle_gamma   59.64995126
_symmetry_Int_Tables_number   1
_chemical_formula_structural   AlCr2O4
_chemical_formula_sum   'Al2 Cr4 O8'
_cell_volume   151.29290585
_cell_formula_units_Z   2
loop_
 _symmetry_equiv_pos_site_id
 _symmetry_equiv_pos_as_xyz
  1  'x, y, z'
loop_
 _atom_site_type_symbol
 _atom_site_label
 _atom_site_symmetry_multiplicity
 _atom_site_fract_x
 _atom_site_fract_y
 _atom_site_fract_z
 _atom_site_occupancy
  Al  Al0  1  0.62368500  0.62368500  0.62368500  1
  Al  Al1  1  0.37631500  0.37631500  0.37631500  1
  Cr  Cr0  1  0.50000000  0.00000000  0.00000000  1
  Cr  Cr1  1  0.00000000  0.00000000  0.00000000  1
  Cr  Cr2  1  0.00000000  0.50000000  0.00000000  1
  Cr  Cr3  1  0.00000000  0.00000000  0.50000000  1
  O  O0  1  0.75124200  0.24519200  0.75124200  1
  O  O1  1  0.24875800  0.24875800  0.75480800  1
  O  O2  1  0.75480800  0.24875800  0.24875800  1
  O  O3  1  0.25381200  0.25381200  0.25381200  1
  O  O4  1  0.75124200  0.75124200  0.24519200  1
  O  O5  1  0.24875800  0.75480800  0.24875800  1
  O  O6  1  0.24519200  0.75124200  0.75124200  1
  O  O7  1  0.74618800  0.74618800  0.74618800  1
loop_
_geom_bond_atom_site_label_1
_geom_bond_atom_site_label_2
_geom_bond_distance
_geom_bond_site_symmetry_2
Al0 O7 1.804264 1_555
Al0 O4 1.845111 1_555
Al0 O0 1.845111 1_555
Al0 O6 1.845111 1_555
Al1 O3 1.804264 1_555
Al1 O1 1.845111 1_555
Al1 O2 1.845111 1_555
Al1 O5 1.845111 1_555
Cr0 O4 2.099626 1_545
Cr0 O1 2.099626 1_554
Cr0 O0 2.099626 1_554
Cr0 O5 2.099626 1_545
Cr0 O3 2.147726 1_555
Cr0 O7 2.147726 1_544
Cr1 O5 2.104415 1_545
Cr1 O2 2.104415 1_455
Cr1 O0 2.104415 1_454
Cr1 O6 2.104415 1_544
Cr1 O1 2.104416 1_554
Cr1 O4 2.104416 1_445
Cr2 O4 2.099626 1_455
Cr2 O1 2.099626 1_554
Cr2 O6 2.099626 1_554
Cr2 O2 2.099626 1_455
Cr2 O3 2.147726 1_555
Cr2 O7 2.147726 1_454
Cr3 O6 2.099626 1_545
Cr3 O0 2.099626 1_455
Cr3 O5 2.099626 1_545
Cr3 O2 2.099626 1_455
Cr3 O3 2.147726 1_555
Cr3 O7 2.147726 1_445
