# generated using pymatgen
data_AlAg
_symmetry_space_group_name_H-M   'P 1'
_cell_length_a   5.85277310
_cell_length_b   5.85277310
_cell_length_c   8.85520886
_cell_angle_alpha   90.00000000
_cell_angle_beta   90.00000000
_cell_angle_gamma   119.99999486
_symmetry_Int_Tables_number   1
_chemical_formula_structural   AlAg
_chemical_formula_sum   'Al8 Ag8'
_cell_volume   262.69562462
_cell_formula_units_Z   8
loop_
 _symmetry_equiv_pos_site_id
 _symmetry_equiv_pos_as_xyz
  1  'x, y, z'
loop_
 _atom_site_type_symbol
 _atom_site_label
 _atom_site_symmetry_multiplicity
 _atom_site_fract_x
 _atom_site_fract_y
 _atom_site_fract_z
 _atom_site_occupancy
  Al  Al0_0  1  0.00000000  0.00000000  0.25000000  1
  Al  Al0_1  1  0.00000000  0.00000000  0.75000000  1
  Al  Al0_2  1  0.00000000  0.50000000  0.25000000  1
  Al  Al0_3  1  0.00000000  0.50000000  0.75000000  1
  Al  Al0_4  1  0.50000000  0.00000000  0.25000000  1
  Al  Al0_5  1  0.50000000  0.00000000  0.75000000  1
  Al  Al0_6  1  0.50000000  0.50000000  0.25000000  1
  Al  Al0_7  1  0.50000000  0.50000000  0.75000000  1
  Ag  Ag0_0  1  0.33333350  0.16666650  0.00000000  1
  Ag  Ag0_1  1  0.33333350  0.16666650  0.50000000  1
  Ag  Ag0_2  1  0.33333350  0.66666650  0.00000000  1
  Ag  Ag0_3  1  0.33333350  0.66666650  0.50000000  1
  Ag  Ag0_4  1  0.83333350  0.16666650  0.00000000  1
  Ag  Ag0_5  1  0.83333350  0.16666650  0.50000000  1
  Ag  Ag0_6  1  0.83333350  0.66666650  0.00000000  1
  Ag  Ag0_7  1  0.83333350  0.66666650  0.50000000  1
loop_
_geom_bond_atom_site_label_1
_geom_bond_atom_site_label_2
_geom_bond_distance
_geom_bond_site_symmetry_2
Al0_0 Al0_2 2.926387 1_555
Al0_0 Al0_2 2.926387 1_545
Al0_0 Al0_4 2.926387 1_455
Al0_0 Al0_4 2.926387 1_555
Al0_0 Al0_6 2.926387 1_445
Al0_0 Al0_6 2.926387 1_555
Al0_1 Al0_5 2.926387 1_455
Al0_1 Al0_5 2.926387 1_555
Al0_1 Al0_3 2.926387 1_545
Al0_1 Al0_3 2.926387 1_555
Al0_1 Al0_7 2.926387 1_555
Al0_1 Al0_7 2.926387 1_445
Al0_2 Al0_6 2.926387 1_555
Al0_2 Al0_6 2.926387 1_455
Al0_2 Al0_4 2.926387 1_565
Al0_2 Al0_4 2.926387 1_455
Al0_3 Al0_7 2.926387 1_455
Al0_3 Al0_7 2.926387 1_555
Al0_3 Al0_5 2.926387 1_455
Al0_3 Al0_5 2.926387 1_565
Al0_4 Al0_6 2.926387 1_545
Al0_4 Al0_6 2.926387 1_555
Al0_5 Al0_7 2.926387 1_545
Al0_5 Al0_7 2.926387 1_555
Ag0_0 Al0_5 2.784869 1_554
Ag0_0 Al0_4 2.784869 1_555
Ag0_0 Al0_1 2.784870 1_554
Ag0_0 Al0_6 2.784870 1_555
Ag0_0 Al0_0 2.784870 1_555
Ag0_0 Al0_7 2.784870 1_554
Ag0_0 Ag0_2 2.926387 1_545
Ag0_0 Ag0_4 2.926387 1_555
Ag0_0 Ag0_4 2.926387 1_455
Ag0_0 Ag0_2 2.926387 1_555
Ag0_0 Ag0_6 2.926387 1_555
Ag0_0 Ag0_6 2.926387 1_445
Ag0_1 Al0_5 2.784869 1_555
Ag0_1 Al0_4 2.784869 1_555
Ag0_1 Al0_6 2.784870 1_555
Ag0_1 Al0_0 2.784870 1_555
Ag0_1 Al0_7 2.784870 1_555
Ag0_1 Al0_1 2.784870 1_555
Ag0_1 Ag0_5 2.926387 1_555
Ag0_1 Ag0_3 2.926387 1_545
Ag0_1 Ag0_5 2.926387 1_455
Ag0_1 Ag0_3 2.926387 1_555
Ag0_1 Ag0_7 2.926387 1_555
Ag0_1 Ag0_7 2.926387 1_445
Ag0_2 Al0_7 2.784869 1_554
Ag0_2 Al0_6 2.784869 1_555
Ag0_2 Al0_2 2.784870 1_555
Ag0_2 Al0_4 2.784870 1_565
Ag0_2 Al0_3 2.784870 1_554
Ag0_2 Al0_5 2.784870 1_564
Ag0_2 Ag0_6 2.926387 1_555
Ag0_2 Ag0_6 2.926387 1_455
Ag0_2 Ag0_4 2.926387 1_565
Ag0_2 Ag0_4 2.926387 1_455
Ag0_3 Al0_6 2.784869 1_555
Ag0_3 Al0_7 2.784869 1_555
Ag0_3 Al0_2 2.784870 1_555
Ag0_3 Al0_5 2.784870 1_565
Ag0_3 Al0_3 2.784870 1_555
Ag0_3 Al0_4 2.784870 1_565
Ag0_3 Ag0_7 2.926387 1_555
Ag0_3 Ag0_7 2.926387 1_455
Ag0_3 Ag0_5 2.926387 1_565
Ag0_3 Ag0_5 2.926387 1_455
Ag0_4 Al0_0 2.784869 1_655
Ag0_4 Al0_1 2.784869 1_654
Ag0_4 Al0_3 2.784870 1_654
Ag0_4 Al0_4 2.784870 1_555
Ag0_4 Al0_5 2.784870 1_554
Ag0_4 Al0_2 2.784870 1_655
Ag0_4 Ag0_6 2.926387 1_545
Ag0_4 Ag0_6 2.926387 1_555
Ag0_5 Al0_0 2.784869 1_655
Ag0_5 Al0_1 2.784869 1_655
Ag0_5 Al0_4 2.784870 1_555
Ag0_5 Al0_2 2.784870 1_655
Ag0_5 Al0_3 2.784870 1_655
Ag0_5 Al0_5 2.784870 1_555
Ag0_5 Ag0_7 2.926387 1_545
Ag0_5 Ag0_7 2.926387 1_555
Ag0_6 Al0_3 2.784869 1_654
Ag0_6 Al0_2 2.784869 1_655
Ag0_6 Al0_6 2.784870 1_555
Ag0_6 Al0_7 2.784870 1_554
Ag0_6 Al0_1 2.784870 1_664
Ag0_6 Al0_0 2.784870 1_665
Ag0_7 Al0_2 2.784869 1_655
Ag0_7 Al0_3 2.784869 1_655
Ag0_7 Al0_6 2.784870 1_555
Ag0_7 Al0_7 2.784870 1_555
Ag0_7 Al0_1 2.784870 1_665
Ag0_7 Al0_0 2.784870 1_665
