# generated using pymatgen
data_RbMg6Al
_symmetry_space_group_name_H-M   'P 1'
_cell_length_a   5.17956200
_cell_length_b   6.99970000
_cell_length_c   11.72607400
_cell_angle_alpha   90.00000000
_cell_angle_beta   90.00000000
_cell_angle_gamma   90.00000000
_symmetry_Int_Tables_number   1
_chemical_formula_structural   RbMg6Al
_chemical_formula_sum   'Rb2 Mg12 Al2'
_cell_volume   425.13327032
_cell_formula_units_Z   2
loop_
 _symmetry_equiv_pos_site_id
 _symmetry_equiv_pos_as_xyz
  1  'x, y, z'
loop_
 _atom_site_type_symbol
 _atom_site_label
 _atom_site_symmetry_multiplicity
 _atom_site_fract_x
 _atom_site_fract_y
 _atom_site_fract_z
 _atom_site_occupancy
  Rb  Rb0  1  0.50000000  0.50000000  0.83889900  1
  Rb  Rb1  1  0.50000000  0.00000000  0.33889900  1
  Mg  Mg0  1  0.50000000  0.24074100  0.08203800  1
  Mg  Mg1  1  0.50000000  0.75925900  0.08203800  1
  Mg  Mg2  1  0.00000000  0.21638900  0.91562700  1
  Mg  Mg3  1  0.00000000  0.78361100  0.91562700  1
  Mg  Mg4  1  0.00000000  0.50000000  0.16870900  1
  Mg  Mg5  1  0.00000000  0.50000000  0.64882000  1
  Mg  Mg6  1  0.50000000  0.74074100  0.58203800  1
  Mg  Mg7  1  0.50000000  0.25925900  0.58203800  1
  Mg  Mg8  1  0.00000000  0.71638900  0.41562700  1
  Mg  Mg9  1  0.00000000  0.28361100  0.41562700  1
  Mg  Mg10  1  0.00000000  0.00000000  0.66870900  1
  Mg  Mg11  1  0.00000000  0.00000000  0.14882000  1
  Al  Al0  1  0.50000000  0.50000000  0.34824700  1
  Al  Al1  1  0.50000000  0.00000000  0.84824700  1
loop_
_geom_bond_atom_site_label_1
_geom_bond_atom_site_label_2
_geom_bond_distance
_geom_bond_site_symmetry_2
Mg0 Mg11 3.187445 1_655
Mg0 Mg11 3.187445 1_555
Mg0 Mg2 3.247119 1_654
Mg0 Mg2 3.247119 1_554
Mg0 Mg4 3.321614 1_555
Mg0 Mg4 3.321614 1_655
Mg0 Mg1 3.370230 1_545
Mg0 Rb0 3.379621 1_554
Mg0 Rb1 3.451316 1_555
Mg1 Mg11 3.187445 1_665
Mg1 Mg11 3.187445 1_565
Mg1 Mg3 3.247119 1_554
Mg1 Mg3 3.247119 1_654
Mg1 Mg4 3.321614 1_655
Mg1 Mg4 3.321614 1_555
Mg1 Rb0 3.379621 1_554
Mg1 Rb1 3.451316 1_565
Mg2 Mg3 3.029316 1_545
Mg2 Rb0 3.384885 1_455
Mg2 Rb0 3.384885 1_555
Mg2 Mg4 3.570432 1_556
Mg3 Rb0 3.384885 1_455
Mg3 Rb0 3.384885 1_555
Mg3 Mg4 3.570432 1_556
Mg4 Mg8 3.267630 1_555
Mg4 Mg9 3.267630 1_555
Mg5 Mg8 3.125915 1_555
Mg5 Mg9 3.125915 1_555
Mg5 Mg6 3.187445 1_455
Mg5 Mg6 3.187445 1_555
Mg5 Mg7 3.187445 1_555
Mg5 Mg7 3.187445 1_455
Mg5 Rb0 3.416851 1_455
Mg5 Rb0 3.416851 1_555
Mg6 Mg8 3.247119 1_555
Mg6 Mg8 3.247119 1_655
Mg6 Mg7 3.370230 1_555
Mg6 Rb1 3.379621 1_565
Mg6 Rb0 3.451316 1_555
Mg7 Mg9 3.247119 1_555
Mg7 Mg9 3.247119 1_655
Mg7 Rb1 3.379621 1_555
Mg7 Rb0 3.451316 1_555
Mg8 Mg9 3.029316 1_555
Mg8 Rb1 3.384885 1_565
Mg8 Rb1 3.384885 1_465
Mg9 Rb1 3.384885 1_555
Mg9 Rb1 3.384885 1_455
Mg10 Mg3 3.267630 1_545
Mg10 Mg2 3.267630 1_555
Mg10 Mg7 3.321614 1_555
Mg10 Mg7 3.321614 1_455
Mg10 Mg6 3.321614 1_445
Mg10 Mg6 3.321614 1_545
Mg10 Mg5 3.507612 1_545
Mg10 Mg5 3.507612 1_555
Mg10 Mg9 3.570432 1_555
Mg10 Mg8 3.570432 1_545
Mg11 Mg2 3.125915 1_554
Mg11 Mg3 3.125915 1_544
Mg11 Rb1 3.416851 1_555
Mg11 Rb1 3.416851 1_455
Mg11 Mg4 3.507612 1_545
Mg11 Mg4 3.507612 1_555
Al0 Mg8 3.102486 1_555
Al0 Mg8 3.102486 1_655
Al0 Mg9 3.102486 1_655
Al0 Mg9 3.102486 1_555
Al0 Mg6 3.217944 1_555
Al0 Mg7 3.217944 1_555
Al0 Mg4 3.337537 1_555
Al0 Mg4 3.337537 1_655
Al0 Rb1 3.501566 1_565
Al0 Rb1 3.501566 1_555
Al1 Mg2 3.102486 1_655
Al1 Mg2 3.102486 1_555
Al1 Mg3 3.102486 1_645
Al1 Mg3 3.102486 1_545
Al1 Mg0 3.217944 1_556
Al1 Mg1 3.217944 1_546
Al1 Mg10 3.337537 1_555
Al1 Mg10 3.337537 1_655
Al1 Rb0 3.501566 1_545
Al1 Rb0 3.501566 1_555
