# generated using pymatgen
data_Na3MoO4F
_symmetry_space_group_name_H-M   'P 1'
_cell_length_a   5.66470700
_cell_length_b   7.61201800
_cell_length_c   13.04212800
_cell_angle_alpha   90.00000000
_cell_angle_beta   90.00000000
_cell_angle_gamma   90.00000000
_symmetry_Int_Tables_number   1
_chemical_formula_structural   Na3MoO4F
_chemical_formula_sum   'Na12 Mo4 O16 F4'
_cell_volume   562.37462454
_cell_formula_units_Z   4
loop_
 _symmetry_equiv_pos_site_id
 _symmetry_equiv_pos_as_xyz
  1  'x, y, z'
loop_
 _atom_site_type_symbol
 _atom_site_label
 _atom_site_symmetry_multiplicity
 _atom_site_fract_x
 _atom_site_fract_y
 _atom_site_fract_z
 _atom_site_occupancy
  Na  Na0  1  0.22703400  0.25000000  0.60730600  1
  Na  Na1  1  0.72703400  0.25000000  0.89269400  1
  Na  Na2  1  0.77296600  0.75000000  0.39269400  1
  Na  Na3  1  0.27296600  0.75000000  0.10730600  1
  Na  Na4  1  0.22998300  0.53957400  0.32064800  1
  Na  Na5  1  0.72998300  0.96042600  0.17935200  1
  Na  Na6  1  0.77001700  0.03957400  0.67935200  1
  Na  Na7  1  0.27001700  0.46042600  0.82064800  1
  Na  Na8  1  0.77001700  0.46042600  0.67935200  1
  Na  Na9  1  0.27001700  0.03957400  0.82064800  1
  Na  Na10  1  0.22998300  0.96042600  0.32064800  1
  Na  Na11  1  0.72998300  0.53957400  0.17935200  1
  Mo  Mo0  1  0.70926200  0.25000000  0.41600800  1
  Mo  Mo1  1  0.20926200  0.25000000  0.08399200  1
  Mo  Mo2  1  0.29073800  0.75000000  0.58399200  1
  Mo  Mo3  1  0.79073800  0.75000000  0.91600800  1
  O  O0  1  0.82416900  0.25000000  0.54420100  1
  O  O1  1  0.32416900  0.25000000  0.95579900  1
  O  O2  1  0.17583100  0.75000000  0.45579900  1
  O  O3  1  0.67583100  0.75000000  0.04420100  1
  O  O4  1  0.81058900  0.44241600  0.34939300  1
  O  O5  1  0.31058900  0.05758400  0.15060700  1
  O  O6  1  0.18941100  0.94241600  0.65060700  1
  O  O7  1  0.68941100  0.55758400  0.84939300  1
  O  O8  1  0.18941100  0.55758400  0.65060700  1
  O  O9  1  0.68941100  0.94241600  0.84939300  1
  O  O10  1  0.81058900  0.05758400  0.34939300  1
  O  O11  1  0.31058900  0.44241600  0.15060700  1
  O  O12  1  0.39045200  0.25000000  0.42111800  1
  O  O13  1  0.89045200  0.25000000  0.07888200  1
  O  O14  1  0.60954800  0.75000000  0.57888200  1
  O  O15  1  0.10954800  0.75000000  0.92111800  1
  F  F0  1  0.50211600  0.25000000  0.73282000  1
  F  F1  1  0.00211600  0.25000000  0.76718000  1
  F  F2  1  0.49788400  0.75000000  0.26718000  1
  F  F3  1  0.99788400  0.75000000  0.23282000  1
loop_
_geom_bond_atom_site_label_1
_geom_bond_atom_site_label_2
_geom_bond_distance
_geom_bond_site_symmetry_2
Na0 O8 2.417891 1_555
Na0 O6 2.417891 1_545
Na0 O0 2.425985 1_455
Na0 O12 2.598755 1_555
Na1 O7 2.417891 1_555
Na1 O9 2.417891 1_545
Na1 O1 2.425985 1_555
Na1 O13 2.598755 1_556
Na2 O10 2.417891 1_565
Na2 O4 2.417891 1_555
Na2 O2 2.425985 1_655
Na2 O14 2.598755 1_555
Na3 O5 2.417891 1_565
Na3 O11 2.417891 1_555
Na3 O3 2.425985 1_555
Na3 O15 2.598755 1_554
Na4 O11 2.381939 1_555
Na4 O2 2.401398 1_555
Na4 O4 2.516281 1_455
Na4 O12 2.720658 1_555
Na5 O10 2.381939 1_565
Na5 O3 2.401398 1_555
Na5 O5 2.516281 1_565
Na5 O13 2.720658 1_565
Na6 O9 2.381939 1_545
Na6 O0 2.401398 1_555
Na6 O6 2.516281 1_645
Na6 O14 2.720658 1_545
Na7 O8 2.381939 1_555
Na7 O1 2.401398 1_555
Na7 O7 2.516281 1_555
Na7 O15 2.720658 1_555
Na8 O7 2.381939 1_555
Na8 O0 2.401398 1_555
Na8 O8 2.516281 1_655
Na8 O14 2.720658 1_555
Na9 O6 2.381939 1_545
Na9 O1 2.401398 1_555
Na9 O9 2.516281 1_545
Na9 O15 2.720658 1_545
Na10 O5 2.381939 1_565
Na10 O2 2.401398 1_555
Na10 O10 2.516281 1_465
Na10 O12 2.720658 1_565
Na11 O4 2.381939 1_555
Na11 O3 2.401398 1_555
Na11 O11 2.516281 1_555
Na11 O13 2.720658 1_555
Mo0 O0 1.794149 1_555
Mo0 O4 1.797094 1_555
Mo0 O10 1.797094 1_555
Mo0 O12 1.807195 1_555
Mo1 O1 1.794149 1_554
Mo1 O11 1.797094 1_555
Mo1 O5 1.797094 1_555
Mo1 O13 1.807195 1_455
Mo2 O2 1.794149 1_555
Mo2 O6 1.797094 1_555
Mo2 O8 1.797094 1_555
Mo2 O14 1.807195 1_555
Mo3 O3 1.794149 1_556
Mo3 O9 1.797094 1_555
Mo3 O7 1.797094 1_555
Mo3 O15 1.807195 1_655
F0 Na0 2.260053 1_555
F0 Na6 2.314084 1_555
F0 Na8 2.314084 1_555
F0 Na7 2.367778 1_555
F0 Na9 2.367778 1_555
F0 Na1 2.443552 1_555
F1 Na1 2.260053 1_455
F1 Na7 2.314084 1_555
F1 Na9 2.314084 1_555
F1 Na6 2.367778 1_455
F1 Na8 2.367778 1_455
F1 Na0 2.443552 1_555
F2 Na2 2.260053 1_555
F2 Na4 2.314084 1_555
F2 Na10 2.314084 1_555
F2 Na11 2.367778 1_555
F2 Na5 2.367778 1_555
F2 Na3 2.443552 1_555
F3 Na3 2.260053 1_655
F3 Na11 2.314084 1_555
F3 Na5 2.314084 1_555
F3 Na4 2.367778 1_655
F3 Na10 2.367778 1_655
F3 Na2 2.443552 1_555
