# generated using pymatgen
data_Mg14CuSnO16
_symmetry_space_group_name_H-M   'P 1'
_cell_length_a   8.72234034
_cell_length_b   8.63741416
_cell_length_c   4.30772331
_cell_angle_alpha   90.00000000
_cell_angle_beta   90.00000000
_cell_angle_gamma   90.00000000
_symmetry_Int_Tables_number   1
_chemical_formula_structural   Mg14CuSnO16
_chemical_formula_sum   'Mg14 Cu1 Sn1 O16'
_cell_volume   324.53726596
_cell_formula_units_Z   1
loop_
 _symmetry_equiv_pos_site_id
 _symmetry_equiv_pos_as_xyz
  1  'x, y, z'
loop_
 _atom_site_type_symbol
 _atom_site_label
 _atom_site_symmetry_multiplicity
 _atom_site_fract_x
 _atom_site_fract_y
 _atom_site_fract_z
 _atom_site_occupancy
  Mg  Mg0  1  0.50000000  -0.00000000  -0.00000000  1
  Mg  Mg1  1  0.50000000  0.50000000  -0.00000000  1
  Mg  Mg2  1  0.00000000  0.23431026  0.50000000  1
  Mg  Mg3  1  0.00000000  0.76568974  0.50000000  1
  Mg  Mg4  1  0.50000000  0.24640946  0.50000000  1
  Mg  Mg5  1  0.50000000  0.75359054  0.50000000  1
  Mg  Mg6  1  0.24928253  -0.00000000  0.50000000  1
  Mg  Mg7  1  0.26091554  0.50000000  0.50000000  1
  Mg  Mg8  1  0.75071747  -0.00000000  0.50000000  1
  Mg  Mg9  1  0.73908446  0.50000000  0.50000000  1
  Mg  Mg10  1  0.25432738  0.24038907  -0.00000000  1
  Mg  Mg11  1  0.25432738  0.75961093  0.00000000  1
  Mg  Mg12  1  0.74567262  0.24038907  -0.00000000  1
  Mg  Mg13  1  0.74567262  0.75961093  0.00000000  1
  Cu  Cu0  1  0.00000000  -0.00000000  -0.00000000  1
  Sn  Sn0  1  0.00000000  0.50000000  -0.00000000  1
  O  O0  1  0.26809480  -0.00000000  -0.00000000  1
  O  O1  1  0.26321975  0.50000000  -0.00000000  1
  O  O2  1  0.73190520  -0.00000000  -0.00000000  1
  O  O3  1  0.73678025  0.50000000  -0.00000000  1
  O  O4  1  0.24822602  0.25113641  0.50000000  1
  O  O5  1  0.24822602  0.74886359  0.50000000  1
  O  O6  1  0.75177398  0.25113641  0.50000000  1
  O  O7  1  0.75177398  0.74886359  0.50000000  1
  O  O8  1  0.00000000  -0.00000000  0.50000000  1
  O  O9  1  0.00000000  0.50000000  0.50000000  1
  O  O10  1  0.50000000  -0.00000000  0.50000000  1
  O  O11  1  0.50000000  0.50000000  0.50000000  1
  O  O12  1  0.00000000  0.24537791  -0.00000000  1
  O  O13  1  0.00000000  0.75462209  0.00000000  1
  O  O14  1  0.50000000  0.25202885  0.00000000  1
  O  O15  1  0.50000000  0.74797115  -0.00000000  1
loop_
_geom_bond_atom_site_label_1
_geom_bond_atom_site_label_2
_geom_bond_distance
_geom_bond_site_symmetry_2
Mg0 O2 2.022756 1_555
Mg0 O0 2.022756 1_555
Mg0 O10 2.153862 1_554
Mg0 O10 2.153862 1_555
Mg0 O15 2.176878 1_545
Mg0 O14 2.176878 1_555
Mg1 O1 2.065278 1_555
Mg1 O3 2.065278 1_555
Mg1 O14 2.141830 1_555
Mg1 O15 2.141830 1_555
Mg1 O11 2.153862 1_554
Mg1 O11 2.153862 1_555
Mg2 O8 2.023835 1_555
Mg2 O12 2.155982 1_556
Mg2 O12 2.155982 1_555
Mg2 O6 2.169984 1_455
Mg2 O4 2.169984 1_555
Mg2 O9 2.294872 1_555
Mg3 O8 2.023835 1_565
Mg3 O13 2.155982 1_555
Mg3 O13 2.155982 1_556
Mg3 O7 2.169984 1_455
Mg3 O5 2.169984 1_555
Mg3 O9 2.294872 1_555
Mg4 O10 2.128341 1_555
Mg4 O14 2.154408 1_556
Mg4 O14 2.154408 1_555
Mg4 O11 2.190367 1_555
Mg4 O4 2.196438 1_555
Mg4 O6 2.196438 1_555
Mg5 O10 2.128341 1_565
Mg5 O15 2.154408 1_556
Mg5 O15 2.154408 1_555
Mg5 O11 2.190367 1_555
Mg5 O5 2.196438 1_555
Mg5 O7 2.196438 1_555
Mg6 O0 2.160103 1_555
Mg6 O0 2.160103 1_556
Mg6 O5 2.169189 1_545
Mg6 O4 2.169189 1_555
Mg6 O8 2.174327 1_555
Mg6 O10 2.186843 1_555
Mg7 O11 2.085376 1_555
Mg7 O4 2.152386 1_555
Mg7 O5 2.152386 1_555
Mg7 O1 2.153955 1_555
Mg7 O1 2.153955 1_556
Mg7 O9 2.275794 1_555
Mg8 O2 2.160103 1_555
Mg8 O2 2.160103 1_556
Mg8 O7 2.169189 1_545
Mg8 O6 2.169189 1_555
Mg8 O8 2.174327 1_655
Mg8 O10 2.186843 1_555
Mg9 O11 2.085376 1_555
Mg9 O6 2.152386 1_555
Mg9 O7 2.152386 1_555
Mg9 O3 2.153955 1_556
Mg9 O3 2.153955 1_555
Mg9 O9 2.275794 1_655
Mg10 O0 2.079810 1_555
Mg10 O14 2.145197 1_555
Mg10 O4 2.156518 1_554
Mg10 O4 2.156518 1_555
Mg10 O12 2.218748 1_555
Mg10 O1 2.243708 1_555
Mg11 O0 2.079810 1_565
Mg11 O15 2.145197 1_555
Mg11 O5 2.156518 1_554
Mg11 O5 2.156518 1_555
Mg11 O13 2.218748 1_555
Mg11 O1 2.243708 1_555
Mg12 O2 2.079810 1_555
Mg12 O14 2.145197 1_555
Mg12 O6 2.156518 1_555
Mg12 O6 2.156518 1_554
Mg12 O12 2.218748 1_655
Mg12 O3 2.243708 1_555
Mg13 O2 2.079810 1_565
Mg13 O15 2.145197 1_555
Mg13 O7 2.156518 1_555
Mg13 O7 2.156518 1_554
Mg13 O13 2.218748 1_655
Mg13 O3 2.243708 1_555
Cu0 O13 2.119431 1_545
Cu0 O12 2.119431 1_555
Cu0 O8 2.153862 1_555
Cu0 O8 2.153862 1_554
Cu0 O0 2.338414 1_555
Cu0 O2 2.338414 1_455
O1 Sn0 2.295892 1_555
O3 Sn0 2.295892 1_655
O9 Sn0 2.153862 1_556
O9 Sn0 2.153862 1_555
O12 Sn0 2.199276 1_555
O13 Sn0 2.199276 1_555
