# generated using pymatgen
data_CoNi(AsS)2
_symmetry_space_group_name_H-M   'P 1'
_cell_length_a   5.63280000
_cell_length_b   5.62266500
_cell_length_c   5.62893094
_cell_angle_alpha   89.84749081
_cell_angle_beta   90.00000000
_cell_angle_gamma   90.00000000
_symmetry_Int_Tables_number   1
_chemical_formula_structural   CoNi(AsS)2
_chemical_formula_sum   'Co2 Ni2 As4 S4'
_cell_volume   178.27519583
_cell_formula_units_Z   2
loop_
 _symmetry_equiv_pos_site_id
 _symmetry_equiv_pos_as_xyz
  1  'x, y, z'
loop_
 _atom_site_type_symbol
 _atom_site_label
 _atom_site_symmetry_multiplicity
 _atom_site_fract_x
 _atom_site_fract_y
 _atom_site_fract_z
 _atom_site_occupancy
  Co  Co0  1  0.49242200  0.50645100  0.74236100  1
  Co  Co1  1  0.99242200  0.49354900  0.25763900  1
  Ni  Ni0  1  0.50803100  0.99160600  0.24199000  1
  Ni  Ni1  1  0.00803100  0.00839400  0.75801000  1
  As  As0  1  0.11904700  0.87365700  0.36890400  1
  As  As1  1  0.61904700  0.12634300  0.63109600  1
  As  As2  1  0.87580800  0.61618100  0.87388700  1
  As  As3  1  0.37580800  0.38381900  0.12611300  1
  S  S0  1  0.88511400  0.12225500  0.13604900  1
  S  S1  1  0.38511400  0.87774500  0.86395100  1
  S  S2  1  0.11957700  0.38776600  0.62956100  1
  S  S3  1  0.61957700  0.61223400  0.37043900  1
loop_
_geom_bond_atom_site_label_1
_geom_bond_atom_site_label_2
_geom_bond_distance
_geom_bond_site_symmetry_2
Co0 S1 2.280290 1_555
Co0 S3 2.289754 1_555
Co0 S2 2.293776 1_555
Co1 S0 2.280290 1_555
Co1 S2 2.289754 1_655
Co1 S3 2.293776 1_555
Ni0 S0 2.324743 1_565
Ni0 S1 2.329094 1_554
Ni0 S3 2.336532 1_555
Ni1 S1 2.324743 1_545
Ni1 S0 2.329094 1_456
Ni1 S2 2.336532 1_555
As0 S0 2.323440 1_465
As0 Co1 2.340047 1_455
As0 Ni0 2.397589 1_555
As0 Ni1 2.402291 1_565
As1 S1 2.323440 1_545
As1 Co0 2.340047 1_555
As1 Ni1 2.397589 1_655
As1 Ni0 2.402291 1_545
As2 S2 2.331453 1_655
As2 Co1 2.359039 1_556
As2 Co0 2.365335 1_555
As2 Ni1 2.415733 1_665
As3 S3 2.331453 1_555
As3 Co0 2.359039 1_554
As3 Co1 2.365335 1_455
As3 Ni0 2.415733 1_545
