# generated using pymatgen
data_TlMo2(PO4)3
_symmetry_space_group_name_H-M   'P 1'
_cell_length_a   9.03054400
_cell_length_b   9.45025800
_cell_length_c   12.51052500
_cell_angle_alpha   90.00000000
_cell_angle_beta   90.00000000
_cell_angle_gamma   90.00000000
_symmetry_Int_Tables_number   1
_chemical_formula_structural   TlMo2(PO4)3
_chemical_formula_sum   'Tl4 Mo8 P12 O48'
_cell_volume   1067.66034722
_cell_formula_units_Z   4
loop_
 _symmetry_equiv_pos_site_id
 _symmetry_equiv_pos_as_xyz
  1  'x, y, z'
loop_
 _atom_site_type_symbol
 _atom_site_label
 _atom_site_symmetry_multiplicity
 _atom_site_fract_x
 _atom_site_fract_y
 _atom_site_fract_z
 _atom_site_occupancy
  Tl  Tl0  1  0.83057200  0.16359500  0.25000000  1
  Tl  Tl1  1  0.83057200  0.33640500  0.75000000  1
  Tl  Tl2  1  0.16942800  0.66359500  0.25000000  1
  Tl  Tl3  1  0.16942800  0.83640500  0.75000000  1
  Mo  Mo0  1  0.75209100  0.96999500  0.89982800  1
  Mo  Mo1  1  0.24790900  0.46999500  0.89982800  1
  Mo  Mo2  1  0.75209100  0.53000500  0.39982800  1
  Mo  Mo3  1  0.75209100  0.96999500  0.60017200  1
  Mo  Mo4  1  0.24790900  0.03000500  0.39982800  1
  Mo  Mo5  1  0.24790900  0.46999500  0.60017200  1
  Mo  Mo6  1  0.75209100  0.53000500  0.10017200  1
  Mo  Mo7  1  0.24790900  0.03000500  0.10017200  1
  P  P0  1  0.40745600  0.36180100  0.36968900  1
  P  P1  1  0.40745600  0.13819900  0.63031100  1
  P  P2  1  0.59254400  0.86180100  0.13031100  1
  P  P3  1  0.59254400  0.63819900  0.86968900  1
  P  P4  1  0.59254400  0.63819900  0.63031100  1
  P  P5  1  0.59254400  0.86180100  0.36968900  1
  P  P6  1  0.40745600  0.13819900  0.86968900  1
  P  P7  1  0.40745600  0.36180100  0.13031100  1
  P  P8  1  0.97202700  0.25000000  0.50000000  1
  P  P9  1  0.97202700  0.25000000  0.00000000  1
  P  P10  1  0.02797300  0.75000000  0.50000000  1
  P  P11  1  0.02797300  0.75000000  0.00000000  1
  O  O0  1  0.64201500  0.58994400  0.75000000  1
  O  O1  1  0.64201500  0.91005600  0.25000000  1
  O  O2  1  0.35798500  0.08994400  0.75000000  1
  O  O3  1  0.35798500  0.41005600  0.25000000  1
  O  O4  1  0.06509100  0.16118100  0.42107900  1
  O  O5  1  0.06509100  0.33881900  0.57892100  1
  O  O6  1  0.93490900  0.66118100  0.07892100  1
  O  O7  1  0.93490900  0.83881900  0.92107900  1
  O  O8  1  0.93490900  0.83881900  0.57892100  1
  O  O9  1  0.93490900  0.66118100  0.42107900  1
  O  O10  1  0.06509100  0.33881900  0.92107900  1
  O  O11  1  0.06509100  0.16118100  0.07892100  1
  O  O12  1  0.42991400  0.89591400  0.38414000  1
  O  O13  1  0.42991400  0.60408600  0.61586000  1
  O  O14  1  0.57008600  0.39591400  0.11586000  1
  O  O15  1  0.57008600  0.10408600  0.88414000  1
  O  O16  1  0.57008600  0.10408600  0.61586000  1
  O  O17  1  0.61329900  0.79743600  0.62189600  1
  O  O18  1  0.57008600  0.39591400  0.38414000  1
  O  O19  1  0.42991400  0.89591400  0.11586000  1
  O  O20  1  0.38670100  0.20256400  0.37810400  1
  O  O21  1  0.38670100  0.29743600  0.62189600  1
  O  O22  1  0.61329900  0.70256400  0.12189600  1
  O  O23  1  0.61329900  0.79743600  0.87810400  1
  O  O24  1  0.21295600  0.01859700  0.25000000  1
  O  O25  1  0.21295600  0.48140300  0.75000000  1
  O  O26  1  0.78704400  0.51859700  0.25000000  1
  O  O27  1  0.78704400  0.98140300  0.75000000  1
  O  O28  1  0.12590200  0.84659300  0.07044900  1
  O  O29  1  0.12590200  0.65340700  0.92955100  1
  O  O30  1  0.87409800  0.34659300  0.42955100  1
  O  O31  1  0.87409800  0.15340700  0.57044900  1
  O  O32  1  0.87409800  0.15340700  0.92955100  1
  O  O33  1  0.87409800  0.34659300  0.07044900  1
  O  O34  1  0.12590200  0.65340700  0.57044900  1
  O  O35  1  0.12590200  0.84659300  0.42955100  1
  O  O36  1  0.30011000  0.04948500  0.93751300  1
  O  O37  1  0.30011000  0.45051500  0.06248700  1
  O  O38  1  0.69989000  0.54948500  0.56248700  1
  O  O39  1  0.69989000  0.95051500  0.43751300  1
  O  O40  1  0.69989000  0.95051500  0.06248700  1
  O  O41  1  0.69989000  0.54948500  0.93751300  1
  O  O42  1  0.30011000  0.45051500  0.43751300  1
  O  O43  1  0.30011000  0.04948500  0.56248700  1
  O  O44  1  0.38670100  0.20256400  0.12189600  1
  O  O45  1  0.38670100  0.29743600  0.87810400  1
  O  O46  1  0.61329900  0.70256400  0.37810400  1
  O  O47  1  0.42991400  0.60408600  0.88414000  1
loop_
_geom_bond_atom_site_label_1
_geom_bond_atom_site_label_2
_geom_bond_distance
_geom_bond_site_symmetry_2
Mo0 O27 1.903873 1_555
Mo0 O23 2.074624 1_555
Mo0 O7 2.081593 1_555
Mo0 O15 2.084643 1_565
Mo0 O32 2.087225 1_565
Mo0 O40 2.096934 1_556
Mo1 O25 1.903873 1_555
Mo1 O45 2.074624 1_555
Mo1 O10 2.081593 1_555
Mo1 O47 2.084643 1_555
Mo1 O29 2.087225 1_555
Mo1 O37 2.096934 1_556
Mo2 O26 1.903873 1_555
Mo2 O46 2.074624 1_555
Mo2 O9 2.081593 1_555
Mo2 O18 2.084643 1_555
Mo2 O30 2.087225 1_555
Mo2 O38 2.096934 1_555
Mo3 O27 1.903873 1_555
Mo3 O17 2.074624 1_555
Mo3 O8 2.081593 1_555
Mo3 O16 2.084643 1_565
Mo3 O31 2.087225 1_565
Mo3 O39 2.096934 1_555
Mo4 O24 1.903873 1_555
Mo4 O20 2.074624 1_555
Mo4 O4 2.081593 1_555
Mo4 O12 2.084643 1_545
Mo4 O35 2.087225 1_545
Mo4 O43 2.096934 1_555
Mo5 O25 1.903873 1_555
Mo5 O21 2.074624 1_555
Mo5 O5 2.081593 1_555
Mo5 O13 2.084643 1_555
Mo5 O34 2.087225 1_555
Mo5 O42 2.096934 1_555
Mo6 O26 1.903873 1_555
Mo6 O22 2.074624 1_555
Mo6 O6 2.081593 1_555
Mo6 O14 2.084643 1_555
Mo6 O33 2.087225 1_555
Mo6 O41 2.096934 1_554
Mo7 O24 1.903873 1_555
Mo7 O44 2.074624 1_555
Mo7 O11 2.081593 1_555
Mo7 O19 2.084643 1_545
Mo7 O28 2.087225 1_545
Mo7 O36 2.096934 1_554
O0 P4 1.627779 1_555
O0 P3 1.627779 1_555
O1 P2 1.627779 1_555
O1 P5 1.627779 1_555
O2 P1 1.627779 1_555
O2 P6 1.627779 1_555
O3 P0 1.627779 1_555
O3 P7 1.627779 1_555
O4 P8 1.544564 1_455
O5 P8 1.544564 1_455
O6 P11 1.544564 1_655
O7 P11 1.544564 1_656
O8 P10 1.544564 1_655
O9 P10 1.544564 1_655
O10 P9 1.544564 1_456
O11 P9 1.544564 1_455
O12 P5 1.514433 1_555
O13 P4 1.514433 1_555
O14 P7 1.514433 1_555
O15 P6 1.514433 1_555
O16 P1 1.514433 1_555
O17 P4 1.520108 1_555
O18 P0 1.514433 1_555
O19 P2 1.514433 1_555
O20 P0 1.520108 1_555
O21 P1 1.520108 1_555
O22 P2 1.520108 1_555
O23 P3 1.520108 1_555
O28 P11 1.546648 1_555
O29 P11 1.546648 1_556
O30 P8 1.546648 1_555
O31 P8 1.546648 1_555
O32 P9 1.546648 1_556
O33 P9 1.546648 1_555
O34 P10 1.546648 1_555
O35 P10 1.546648 1_555
O36 P6 1.537063 1_555
O37 P7 1.537063 1_555
O38 P4 1.537063 1_555
O39 P5 1.537063 1_555
O40 P2 1.537063 1_555
O41 P3 1.537063 1_555
O42 P0 1.537063 1_555
O43 P1 1.537063 1_555
O44 P7 1.520108 1_555
O45 P6 1.520108 1_555
O46 P5 1.520108 1_555
O47 P3 1.514433 1_555
