# generated using pymatgen
data_Mg2Cd(ClO2)6
_symmetry_space_group_name_H-M   'P 1'
_cell_length_a   9.37149170
_cell_length_b   9.37149170
_cell_length_c   10.66847288
_cell_angle_alpha   89.17256469
_cell_angle_beta   89.17256469
_cell_angle_gamma   114.77053250
_symmetry_Int_Tables_number   1
_chemical_formula_structural   Mg2Cd(ClO2)6
_chemical_formula_sum   'Mg4 Cd2 Cl12 O24'
_cell_volume   850.44515755
_cell_formula_units_Z   2
loop_
 _symmetry_equiv_pos_site_id
 _symmetry_equiv_pos_as_xyz
  1  'x, y, z'
loop_
 _atom_site_type_symbol
 _atom_site_label
 _atom_site_symmetry_multiplicity
 _atom_site_fract_x
 _atom_site_fract_y
 _atom_site_fract_z
 _atom_site_occupancy
  Mg  Mg0  1  0.67914400  0.30796900  0.34272300  1
  Mg  Mg1  1  0.30796900  0.67914400  0.84272300  1
  Mg  Mg2  1  0.92257700  0.06177200  0.02788800  1
  Mg  Mg3  1  0.06177200  0.92257700  0.52788800  1
  Cd  Cd0  1  0.32415000  0.65954100  0.37515700  1
  Cd  Cd1  1  0.65954100  0.32415000  0.87515700  1
  Cl  Cl0  1  0.57598400  0.69671800  0.04405900  1
  Cl  Cl1  1  0.29310800  0.87844100  0.06661700  1
  Cl  Cl2  1  0.11501000  0.44173400  0.06678100  1
  Cl  Cl3  1  0.69671800  0.57598400  0.54405900  1
  Cl  Cl4  1  0.87844100  0.29310800  0.56661700  1
  Cl  Cl5  1  0.44173400  0.11501000  0.56678100  1
  Cl  Cl6  1  0.16720300  0.81879200  0.35730300  1
  Cl  Cl7  1  0.20130200  0.38149200  0.36342000  1
  Cl  Cl8  1  0.59912100  0.81444100  0.34261000  1
  Cl  Cl9  1  0.81879200  0.16720300  0.85730300  1
  Cl  Cl10  1  0.38149200  0.20130200  0.86342000  1
  Cl  Cl11  1  0.81444100  0.59912100  0.84261000  1
  O  O0  1  0.48563300  0.28210900  0.19833200  1
  O  O1  1  0.74859500  0.21569900  0.18151800  1
  O  O2  1  0.81351600  0.53437300  0.18217800  1
  O  O3  1  0.28210900  0.48563300  0.69833200  1
  O  O4  1  0.21569900  0.74859500  0.68151800  1
  O  O5  1  0.53437300  0.81351600  0.68217800  1
  O  O6  1  0.87900700  0.38287800  0.43756500  1
  O  O7  1  0.62547400  0.47716000  0.42741000  1
  O  O8  1  0.52279600  0.11965800  0.43722300  1
  O  O9  1  0.38287800  0.87900700  0.93756500  1
  O  O10  1  0.47716000  0.62547400  0.92741000  1
  O  O11  1  0.11965800  0.52279600  0.93722300  1
  O  O12  1  0.05194000  0.94287900  0.01429800  1
  O  O13  1  0.11210300  0.27685600  0.05404800  1
  O  O14  1  0.71660600  0.85182500  0.01624200  1
  O  O15  1  0.94287900  0.05194000  0.51429800  1
  O  O16  1  0.27685600  0.11210300  0.55404800  1
  O  O17  1  0.85182500  0.71660600  0.51624200  1
  O  O18  1  0.34398800  0.19270000  0.20788400  1
  O  O19  1  0.81813100  0.12243700  0.19372800  1
  O  O20  1  0.86677300  0.67836600  0.19456400  1
  O  O21  1  0.19270000  0.34398800  0.70788400  1
  O  O22  1  0.12243700  0.81813100  0.69372800  1
  O  O23  1  0.67836600  0.86677300  0.69456400  1
loop_
_geom_bond_atom_site_label_1
_geom_bond_atom_site_label_2
_geom_bond_distance
_geom_bond_site_symmetry_2
Mg0 O6 1.999551 1_555
Mg0 O8 2.004194 1_555
Mg0 O7 2.068772 1_555
Mg0 O1 2.147399 1_555
Mg0 O0 2.333148 1_555
Mg0 O2 2.571955 1_555
Mg1 O9 1.999551 1_555
Mg1 O11 2.004194 1_555
Mg1 O10 2.068772 1_555
Mg1 O4 2.147399 1_555
Mg1 O3 2.333148 1_555
Mg1 O5 2.571955 1_555
Mg2 O12 1.965631 1_645
Mg2 O13 2.079903 1_655
Mg2 O14 2.108075 1_545
Mg2 O19 2.203842 1_555
Mg3 O15 1.965631 1_465
Mg3 O16 2.079903 1_565
Mg3 O17 2.108075 1_455
Mg3 O22 2.203842 1_555
Cd0 Cl7 2.372911 1_555
Cd0 Cl8 2.386037 1_555
Cd0 Cl6 2.503244 1_555
Cd1 Cl10 2.372911 1_555
Cd1 Cl11 2.386037 1_555
Cd1 Cl9 2.503244 1_555
Cl0 O14 1.519445 1_555
Cl0 O10 1.546389 1_554
Cl1 O9 1.601849 1_554
Cl2 O13 1.541943 1_555
Cl2 O11 1.558731 1_554
Cl3 O17 1.519445 1_555
Cl3 O7 1.546389 1_555
Cl4 O6 1.601849 1_555
Cl5 O16 1.541943 1_555
Cl5 O8 1.558731 1_555
Cl6 Mg3 2.457370 1_555
Cl9 Mg2 2.457370 1_556
O0 O18 1.239399 1_555
O1 O19 1.296895 1_555
O2 O20 1.237014 1_555
O21 O3 1.239399 1_555
O22 O4 1.296895 1_555
O23 O5 1.237014 1_555
