# generated using pymatgen
data_Fe2Cu(S2O11)2
_symmetry_space_group_name_H-M   'P 1'
_cell_length_a   4.88438393
_cell_length_b   10.47621025
_cell_length_c   16.75090800
_cell_angle_alpha   90.00000000
_cell_angle_beta   90.00000000
_cell_angle_gamma   95.41985325
_symmetry_Int_Tables_number   1
_chemical_formula_structural   Fe2Cu(S2O11)2
_chemical_formula_sum   'Fe4 Cu2 S8 O44'
_cell_volume   853.30914066
_cell_formula_units_Z   2
loop_
 _symmetry_equiv_pos_site_id
 _symmetry_equiv_pos_as_xyz
  1  'x, y, z'
loop_
 _atom_site_type_symbol
 _atom_site_label
 _atom_site_symmetry_multiplicity
 _atom_site_fract_x
 _atom_site_fract_y
 _atom_site_fract_z
 _atom_site_occupancy
  Fe  Fe0  1  0.25019500  0.47591500  0.12355300  1
  Fe  Fe1  1  0.74980500  0.02408500  0.62355300  1
  Fe  Fe2  1  0.74980500  0.52408500  0.87644700  1
  Fe  Fe3  1  0.25019500  0.97591500  0.37644700  1
  Cu  Cu0  1  0.00000000  0.50000000  0.50000000  1
  Cu  Cu1  1  0.00000000  0.00000000  0.00000000  1
  S  S0  1  0.19809700  0.36232900  0.78397000  1
  S  S1  1  0.80190300  0.13767100  0.28397000  1
  S  S2  1  0.80190300  0.63767100  0.21603000  1
  S  S3  1  0.19809700  0.86232900  0.71603000  1
  S  S4  1  0.73488800  0.32377500  0.03069400  1
  S  S5  1  0.26511200  0.17622500  0.53069400  1
  S  S6  1  0.26511200  0.67622500  0.96930600  1
  S  S7  1  0.73488800  0.82377500  0.46930600  1
  O  O0  1  0.95127200  0.93677700  0.71183100  1
  O  O1  1  0.04872800  0.56322300  0.21183100  1
  O  O2  1  0.04872800  0.06322300  0.28816900  1
  O  O3  1  0.95127200  0.43677700  0.78816900  1
  O  O4  1  0.40015300  0.91505400  0.65431000  1
  O  O5  1  0.59984700  0.58494600  0.15431000  1
  O  O6  1  0.59984700  0.08494600  0.34569000  1
  O  O7  1  0.40015300  0.41505400  0.84569000  1
  O  O8  1  0.31949300  0.86741700  0.79639100  1
  O  O9  1  0.68050700  0.63258300  0.29639100  1
  O  O10  1  0.68050700  0.13258300  0.20360900  1
  O  O11  1  0.31949300  0.36741700  0.70360900  1
  O  O12  1  0.11289500  0.72486300  0.69866200  1
  O  O13  1  0.88710500  0.77513700  0.19866200  1
  O  O14  1  0.88710500  0.27513700  0.30133800  1
  O  O15  1  0.11289500  0.22486300  0.80133800  1
  O  O16  1  0.84931800  0.39652500  0.95924200  1
  O  O17  1  0.15068200  0.10347500  0.45924200  1
  O  O18  1  0.15068200  0.60347500  0.04075800  1
  O  O19  1  0.84931800  0.89652500  0.54075800  1
  O  O20  1  0.92043000  0.35538900  0.10089200  1
  O  O21  1  0.07957000  0.14461100  0.60089200  1
  O  O22  1  0.07957000  0.64461100  0.89910800  1
  O  O23  1  0.92043000  0.85538900  0.39910800  1
  O  O24  1  0.45999600  0.36991200  0.04981000  1
  O  O25  1  0.54000400  0.13008800  0.54981000  1
  O  O26  1  0.54000400  0.63008800  0.95019000  1
  O  O27  1  0.45999600  0.86991200  0.45019000  1
  O  O28  1  0.70609500  0.18653200  0.01577700  1
  O  O29  1  0.29390500  0.31346800  0.51577700  1
  O  O30  1  0.29390500  0.81346800  0.98422300  1
  O  O31  1  0.70609500  0.68653200  0.48422300  1
  O  O32  1  0.23856000  0.57782900  0.56891600  1
  O  O33  1  0.76144000  0.92217100  0.06891600  1
  O  O34  1  0.76144000  0.42217100  0.43108400  1
  O  O35  1  0.23856000  0.07782900  0.93108400  1
  O  O36  1  0.65374900  0.64214500  0.78238400  1
  O  O37  1  0.34625100  0.85785500  0.28238400  1
  O  O38  1  0.34625100  0.35785500  0.21761600  1
  O  O39  1  0.65374900  0.14214500  0.71761600  1
  O  O40  1  0.85264900  0.47100000  0.59619200  1
  O  O41  1  0.14735100  0.02900000  0.09619200  1
  O  O42  1  0.14735100  0.52900000  0.40380800  1
  O  O43  1  0.85264900  0.97100000  0.90380800  1
loop_
_geom_bond_atom_site_label_1
_geom_bond_atom_site_label_2
_geom_bond_distance
_geom_bond_site_symmetry_2
Fe0 O20 1.987096 1_455
Fe0 O24 2.006038 1_555
Fe0 O18 2.016989 1_555
Fe0 O5 2.029365 1_555
Fe0 O1 2.040006 1_555
Fe0 O38 2.083774 1_555
Fe1 O21 1.987096 1_655
Fe1 O25 2.006038 1_555
Fe1 O19 2.016989 1_545
Fe1 O4 2.029365 1_545
Fe1 O0 2.040006 1_545
Fe1 O39 2.083774 1_555
Fe2 O22 1.987096 1_655
Fe2 O26 2.006038 1_555
Fe2 O16 2.016989 1_555
Fe2 O7 2.029365 1_555
Fe2 O3 2.040006 1_555
Fe2 O36 2.083774 1_555
Fe3 O23 1.987096 1_455
Fe3 O27 2.006038 1_555
Fe3 O17 2.016989 1_565
Fe3 O6 2.029365 1_565
Fe3 O2 2.040006 1_565
Fe3 O37 2.083774 1_555
Cu0 O40 1.779126 1_455
Cu0 O42 1.779126 1_555
Cu0 O32 1.782053 1_555
Cu0 O34 1.782053 1_455
Cu0 O31 2.545439 1_455
Cu0 O29 2.545439 1_555
Cu1 O41 1.779126 1_555
Cu1 O43 1.779126 1_444
Cu1 O33 1.782053 1_445
Cu1 O35 1.782053 1_554
Cu1 O30 2.545439 1_544
Cu1 O28 2.545439 1_455
O0 S3 1.498102 1_655
O1 S2 1.498102 1_455
O2 S1 1.498102 1_455
O3 S0 1.498102 1_655
O4 S3 1.498335 1_555
O5 S2 1.498335 1_555
O6 S1 1.498335 1_555
O7 S0 1.498335 1_555
O8 S3 1.469861 1_555
O9 S2 1.469861 1_555
O10 S1 1.469861 1_555
O11 S0 1.469861 1_555
O12 S3 1.489485 1_555
O13 S2 1.489485 1_555
O14 S1 1.489485 1_555
O15 S0 1.489485 1_555
O16 S4 1.498440 1_556
O17 S5 1.498440 1_555
O18 S6 1.498440 1_554
O19 S7 1.498440 1_555
O20 S4 1.502328 1_555
O21 S5 1.502328 1_555
O22 S6 1.502328 1_555
O23 S7 1.502328 1_555
O24 S4 1.503839 1_555
O25 S5 1.503839 1_555
O26 S6 1.503839 1_555
O27 S7 1.503839 1_555
O28 S4 1.453013 1_555
O29 S5 1.453013 1_555
O30 S6 1.453013 1_555
O31 S7 1.453013 1_555
