# generated using pymatgen
data_Cd5(GeN3)2
_symmetry_space_group_name_H-M   'P 1'
_cell_length_a   5.67028641
_cell_length_b   6.16765412
_cell_length_c   14.23820941
_cell_angle_alpha   89.99999996
_cell_angle_beta   90.99080757
_cell_angle_gamma   122.94662735
_symmetry_Int_Tables_number   1
_chemical_formula_structural   Cd5(GeN3)2
_chemical_formula_sum   'Cd10 Ge4 N12'
_cell_volume   417.77458765
_cell_formula_units_Z   2
loop_
 _symmetry_equiv_pos_site_id
 _symmetry_equiv_pos_as_xyz
  1  'x, y, z'
loop_
 _atom_site_type_symbol
 _atom_site_label
 _atom_site_symmetry_multiplicity
 _atom_site_fract_x
 _atom_site_fract_y
 _atom_site_fract_z
 _atom_site_occupancy
  Cd  Cd0  1  0.11798400  0.80444200  0.98042800  1
  Cd  Cd1  1  0.88201600  0.68645800  0.51957200  1
  Cd  Cd2  1  0.88201600  0.19555800  0.01957200  1
  Cd  Cd3  1  0.11798400  0.31354200  0.48042800  1
  Cd  Cd4  1  0.28727000  0.25673200  0.69613900  1
  Cd  Cd5  1  0.71273000  0.96946300  0.80386100  1
  Cd  Cd6  1  0.71273000  0.74326800  0.30386100  1
  Cd  Cd7  1  0.28727000  0.03053700  0.19613900  1
  Cd  Cd8  1  0.00000000  0.68181700  0.75000000  1
  Cd  Cd9  1  0.00000000  0.31818300  0.25000000  1
  Ge  Ge0  1  0.57769600  0.97639100  0.58950000  1
  Ge  Ge1  1  0.42230400  0.39869600  0.91050000  1
  Ge  Ge2  1  0.42230400  0.02360900  0.41050000  1
  Ge  Ge3  1  0.57769600  0.60130400  0.08950000  1
  N  N0  1  0.91830300  0.00402100  0.60931600  1
  N  N1  1  0.08169700  0.08571900  0.89068400  1
  N  N2  1  0.08169700  0.99597900  0.39068400  1
  N  N3  1  0.91830300  0.91428100  0.10931600  1
  N  N4  1  0.41273900  0.95372700  0.70402600  1
  N  N5  1  0.58726100  0.54098800  0.79597400  1
  N  N6  1  0.58726100  0.04627300  0.29597400  1
  N  N7  1  0.41273900  0.45901200  0.20402600  1
  N  N8  1  0.65246600  0.25853400  0.50812700  1
  N  N9  1  0.34753400  0.60606900  0.99187300  1
  N  N10  1  0.34753400  0.74146600  0.49187300  1
  N  N11  1  0.65246600  0.39393100  0.00812700  1
loop_
_geom_bond_atom_site_label_1
_geom_bond_atom_site_label_2
_geom_bond_distance
_geom_bond_site_symmetry_2
Cd0 N9 2.223189 1_555
Cd0 N1 2.250302 1_565
Cd0 N3 2.452514 1_456
Cd0 N11 2.510011 1_456
Cd1 N8 2.223194 1_555
Cd1 N0 2.250297 1_565
Cd1 N2 2.452517 1_655
Cd1 N10 2.510009 1_655
Cd2 N11 2.223189 1_555
Cd2 N3 2.250302 1_545
Cd2 N1 2.452514 1_654
Cd2 N9 2.510011 1_654
Cd3 N10 2.223194 1_555
Cd3 N2 2.250297 1_545
Cd3 N0 2.452517 1_455
Cd3 N8 2.510009 1_455
Cd4 N5 2.158780 1_555
Cd4 N0 2.167546 1_455
Cd4 N4 2.335534 1_545
Cd5 N4 2.158778 1_555
Cd5 N1 2.167546 1_665
Cd5 N5 2.335540 1_555
Cd6 N7 2.158780 1_555
Cd6 N2 2.167546 1_655
Cd6 N6 2.335534 1_565
Cd7 N6 2.158778 1_555
Cd7 N3 2.167546 1_445
Cd7 N7 2.335540 1_555
Cd8 N4 2.121801 1_555
Cd8 N5 2.121801 1_455
Cd9 N6 2.121801 1_455
Cd9 N7 2.121801 1_555
Ge0 N0 1.860612 1_565
Ge0 N4 1.861172 1_555
Ge0 N10 1.901385 1_555
Ge0 N8 1.940303 1_565
Ge1 N1 1.860612 1_555
Ge1 N5 1.861171 1_555
Ge1 N11 1.901390 1_556
Ge1 N9 1.940304 1_555
Ge2 N2 1.860612 1_545
Ge2 N6 1.861172 1_555
Ge2 N8 1.901385 1_555
Ge2 N10 1.940303 1_545
Ge3 N3 1.860612 1_555
Ge3 N7 1.861171 1_555
Ge3 N9 1.901390 1_554
Ge3 N11 1.940304 1_555
