# generated using pymatgen
data_Ba2Mg3Ti4Tl2O12
_symmetry_space_group_name_H-M   'P 1'
_cell_length_a   22.88727531
_cell_length_b   22.88727531
_cell_length_c   22.88727531
_cell_angle_alpha   170.26962981
_cell_angle_beta   170.26962981
_cell_angle_gamma   13.77746020
_symmetry_Int_Tables_number   1
_chemical_formula_structural   Ba2Mg3Ti4Tl2O12
_chemical_formula_sum   'Ba2 Mg3 Ti4 Tl2 O12'
_cell_volume   342.45627679
_cell_formula_units_Z   1
loop_
 _symmetry_equiv_pos_site_id
 _symmetry_equiv_pos_as_xyz
  1  'x, y, z'
loop_
 _atom_site_type_symbol
 _atom_site_label
 _atom_site_symmetry_multiplicity
 _atom_site_fract_x
 _atom_site_fract_y
 _atom_site_fract_z
 _atom_site_occupancy
  Ba  Ba0  1  0.17254800  0.17254800  0.00000000  1
  Ba  Ba1  1  0.82745200  0.82745200  0.00000000  1
  Mg  Mg0  1  0.07849300  0.07849300  0.00000000  1
  Mg  Mg1  1  0.92150700  0.92150700  0.00000000  1
  Mg  Mg2  1  0.00000000  0.00000000  0.00000000  1
  Ti  Ti0  1  0.52947400  0.52947400  0.00000000  1
  Ti  Ti1  1  0.39031200  0.39031200  0.00000000  1
  Ti  Ti2  1  0.60968800  0.60968800  0.00000000  1
  Ti  Ti3  1  0.47052600  0.47052600  0.00000000  1
  Tl  Tl0  1  0.72438000  0.72438000  0.00000000  1
  Tl  Tl1  1  0.27562000  0.27562000  0.00000000  1
  O  O0  1  0.90257400  0.40257400  0.50000000  1
  O  O1  1  0.03130900  0.53130900  0.50000000  1
  O  O2  1  0.22589900  0.22589900  0.00000000  1
  O  O3  1  0.46869100  0.96869100  0.50000000  1
  O  O4  1  0.77410100  0.77410100  0.00000000  1
  O  O5  1  0.59742600  0.09742600  0.50000000  1
  O  O6  1  0.09742600  0.59742600  0.50000000  1
  O  O7  1  0.35079700  0.35079700  0.00000000  1
  O  O8  1  0.40257400  0.90257400  0.50000000  1
  O  O9  1  0.53130900  0.03130900  0.50000000  1
  O  O10  1  0.96869100  0.46869100  0.50000000  1
  O  O11  1  0.64920300  0.64920300  0.00000000  1
loop_
_geom_bond_atom_site_label_1
_geom_bond_atom_site_label_2
_geom_bond_distance
_geom_bond_site_symmetry_2
Ba0 O2 2.424488 1_555
Ba0 O11 2.943002 1_545
Ba0 O11 2.943002 1_455
Ba0 O11 2.943002 1_556
Ba0 O11 2.943002 1_444
Ba1 O4 2.424488 1_555
Ba1 O7 2.943002 1_554
Ba1 O7 2.943002 1_565
Ba1 O7 2.943002 1_655
Ba1 O7 2.943002 1_666
Mg0 O6 2.123243 1_555
Mg0 O5 2.123243 1_454
Mg0 O5 2.123243 1_555
Mg0 O6 2.123243 1_544
Mg1 O8 2.123243 1_655
Mg1 O8 2.123243 1_554
Mg1 O0 2.123243 1_554
Mg1 O0 2.123243 1_565
Mg2 O3 2.406714 1_545
Mg2 O9 2.406714 1_454
Mg2 O10 2.406714 1_444
Mg2 O1 2.406714 1_544
Mg2 O9 2.406714 1_555
Mg2 O10 2.406714 1_455
Mg2 O3 2.406714 1_444
Mg2 O1 2.406714 1_555
O0 Ti1 2.019504 1_555
O0 Ti1 2.019504 1_656
O1 Ti0 1.942894 1_455
O1 Ti0 1.942894 1_556
O2 Tl1 2.259526 1_555
O2 Tl0 2.746003 1_556
O2 Tl0 2.746003 1_444
O2 Tl0 2.746003 1_545
O2 Tl0 2.746003 1_455
O3 Ti3 1.942894 1_555
O3 Ti3 1.942894 1_566
O4 Tl0 2.259526 1_555
O4 Tl1 2.746003 1_655
O4 Tl1 2.746003 1_565
O4 Tl1 2.746003 1_554
O4 Tl1 2.746003 1_666
O5 Ti2 2.019504 1_545
O5 Ti2 2.019504 1_556
O6 Ti2 2.019504 1_556
O6 Ti2 2.019504 1_455
O7 Ti1 1.795724 1_555
O8 Ti1 2.019504 1_566
O8 Ti1 2.019504 1_555
O9 Ti0 1.942894 1_545
O9 Ti0 1.942894 1_556
O10 Ti3 1.942894 1_555
O10 Ti3 1.942894 1_656
O11 Ti2 1.795724 1_555
