# generated using pymatgen
data_NaMg6AlO8
_symmetry_space_group_name_H-M   'P 1'
_cell_length_a   8.45765228
_cell_length_b   4.28673872
_cell_length_c   4.28673872
_cell_angle_alpha   90.00000000
_cell_angle_beta   90.00000000
_cell_angle_gamma   90.00000000
_symmetry_Int_Tables_number   1
_chemical_formula_structural   NaMg6AlO8
_chemical_formula_sum   'Na1 Mg6 Al1 O8'
_cell_volume   155.41890810
_cell_formula_units_Z   1
loop_
 _symmetry_equiv_pos_site_id
 _symmetry_equiv_pos_as_xyz
  1  'x, y, z'
loop_
 _atom_site_type_symbol
 _atom_site_label
 _atom_site_symmetry_multiplicity
 _atom_site_fract_x
 _atom_site_fract_y
 _atom_site_fract_z
 _atom_site_occupancy
  Na  Na0  1  0.50000000  0.00000000  0.00000000  1
  Mg  Mg0  1  -0.00000000  0.50000000  0.50000000  1
  Mg  Mg1  1  0.50000000  0.50000000  0.50000000  1
  Mg  Mg2  1  0.25836075  0.00000000  0.50000000  1
  Mg  Mg3  1  0.74163925  -0.00000000  0.50000000  1
  Mg  Mg4  1  0.25836075  0.50000000  0.00000000  1
  Mg  Mg5  1  0.74163925  0.50000000  -0.00000000  1
  Al  Al0  1  -0.00000000  0.00000000  0.00000000  1
  O  O0  1  0.21497335  0.00000000  0.00000000  1
  O  O1  1  0.78502665  -0.00000000  -0.00000000  1
  O  O2  1  0.24688074  0.50000000  0.50000000  1
  O  O3  1  0.75311926  0.50000000  0.50000000  1
  O  O4  1  -0.00000000  0.00000000  0.50000000  1
  O  O5  1  0.50000000  0.00000000  0.50000000  1
  O  O6  1  -0.00000000  0.50000000  0.00000000  1
  O  O7  1  0.50000000  0.50000000  0.00000000  1
loop_
_geom_bond_atom_site_label_1
_geom_bond_atom_site_label_2
_geom_bond_distance
_geom_bond_site_symmetry_2
Na0 O7 2.143369 1_555
Na0 O5 2.143369 1_554
Na0 O5 2.143369 1_555
Na0 O7 2.143369 1_545
Na0 O0 2.410656 1_555
Na0 O1 2.410656 1_555
Mg0 O2 2.088031 1_555
Mg0 O3 2.088031 1_455
Mg0 O6 2.143369 1_555
Mg0 O4 2.143369 1_555
Mg0 O4 2.143369 1_565
Mg0 O6 2.143369 1_556
Mg1 O3 2.140795 1_555
Mg1 O2 2.140795 1_555
Mg1 O7 2.143369 1_555
Mg1 O7 2.143369 1_556
Mg1 O5 2.143369 1_555
Mg1 O5 2.143369 1_565
Mg2 O5 2.043701 1_555
Mg2 O2 2.145567 1_545
Mg2 O2 2.145567 1_555
Mg2 O0 2.174555 1_555
Mg2 O0 2.174555 1_556
Mg2 O4 2.185125 1_555
Mg3 O5 2.043701 1_555
Mg3 O3 2.145567 1_545
Mg3 O3 2.145567 1_555
Mg3 O1 2.174555 1_555
Mg3 O1 2.174555 1_556
Mg3 O4 2.185125 1_655
Mg4 O7 2.043701 1_555
Mg4 O2 2.145567 1_554
Mg4 O2 2.145567 1_555
Mg4 O0 2.174555 1_565
Mg4 O0 2.174555 1_555
Mg4 O6 2.185125 1_555
Mg5 O7 2.043701 1_555
Mg5 O3 2.145567 1_554
Mg5 O3 2.145567 1_555
Mg5 O1 2.174555 1_555
Mg5 O1 2.174555 1_565
Mg5 O6 2.185125 1_655
Al0 O1 1.818170 1_455
Al0 O0 1.818170 1_555
Al0 O6 2.143369 1_555
Al0 O4 2.143369 1_555
Al0 O4 2.143369 1_554
Al0 O6 2.143369 1_545
