# generated using pymatgen
data_Ba2Ca3Mn4Tl2O12
_symmetry_space_group_name_H-M   'P 1'
_cell_length_a   3.99018111
_cell_length_b   3.99017995
_cell_length_c   22.13940821
_cell_angle_alpha   95.17021449
_cell_angle_beta   95.17021521
_cell_angle_gamma   89.99999521
_symmetry_Int_Tables_number   1
_chemical_formula_structural   Ba2Ca3Mn4Tl2O12
_chemical_formula_sum   'Ba2 Ca3 Mn4 Tl2 O12'
_cell_volume   349.61928084
_cell_formula_units_Z   1
loop_
 _symmetry_equiv_pos_site_id
 _symmetry_equiv_pos_as_xyz
  1  'x, y, z'
loop_
 _atom_site_type_symbol
 _atom_site_label
 _atom_site_symmetry_multiplicity
 _atom_site_fract_x
 _atom_site_fract_y
 _atom_site_fract_z
 _atom_site_occupancy
  Ba  Ba0  1  0.16343200  0.16343200  0.32686500  1
  Ba  Ba1  1  0.83656800  0.83656800  0.67313500  1
  Ca  Ca0  1  0.07871400  0.07871400  0.15742700  1
  Ca  Ca1  1  0.92128600  0.92128600  0.84257300  1
  Ca  Ca2  1  0.00000000  0.00000000  0.00000000  1
  Mn  Mn0  1  0.53861600  0.53861600  0.07723200  1
  Mn  Mn1  1  0.38300400  0.38300400  0.76600700  1
  Mn  Mn2  1  0.61699600  0.61699600  0.23399300  1
  Mn  Mn3  1  0.46138400  0.46138400  0.92276800  1
  Tl  Tl0  1  0.72354800  0.72354800  0.44709500  1
  Tl  Tl1  1  0.27645200  0.27645200  0.55290500  1
  O  O0  1  0.39189700  0.89189700  0.78379500  1
  O  O1  1  0.53574300  0.03574300  0.07148800  1
  O  O2  1  0.22306400  0.22306400  0.44612700  1
  O  O3  1  0.96425700  0.46425700  0.92851200  1
  O  O4  1  0.77693600  0.77693600  0.55387300  1
  O  O5  1  0.10810300  0.60810300  0.21620500  1
  O  O6  1  0.60810300  0.10810300  0.21620500  1
  O  O7  1  0.33702300  0.33702300  0.67404600  1
  O  O8  1  0.89189700  0.39189700  0.78379500  1
  O  O9  1  0.03574300  0.53574300  0.07148800  1
  O  O10  1  0.46425700  0.96425700  0.92851200  1
  O  O11  1  0.66297700  0.66297700  0.32595400  1
loop_
_geom_bond_atom_site_label_1
_geom_bond_atom_site_label_2
_geom_bond_distance
_geom_bond_site_symmetry_2
Ba0 O2 2.618861 1_555
Ba0 O11 2.821552 1_445
Ba0 O11 2.821555 1_545
Ba0 O11 2.821555 1_455
Ba0 O11 2.821558 1_555
Ba0 O5 3.144062 1_545
Ba0 O6 3.144062 1_455
Ba0 O5 3.144067 1_555
Ba0 O6 3.144067 1_555
Ba1 O4 2.618861 1_555
Ba1 O7 2.821552 1_665
Ba1 O7 2.821555 1_565
Ba1 O7 2.821555 1_655
Ba1 O7 2.821558 1_555
Ba1 O8 3.144062 1_565
Ba1 O0 3.144062 1_655
Ba1 O8 3.144067 1_555
Ba1 O0 3.144067 1_555
Ca0 O5 2.376192 1_545
Ca0 O5 2.376192 1_555
Ca0 O6 2.376193 1_455
Ca0 O6 2.376193 1_555
Ca0 O9 2.746197 1_555
Ca0 O1 2.746198 1_555
Ca0 O9 2.746206 1_545
Ca0 O1 2.746206 1_455
Ca1 O8 2.376192 1_565
Ca1 O8 2.376192 1_555
Ca1 O0 2.376193 1_655
Ca1 O0 2.376193 1_555
Ca1 O3 2.746197 1_555
Ca1 O10 2.746198 1_555
Ca1 O3 2.746206 1_565
Ca1 O10 2.746206 1_655
Ca2 O9 2.538628 1_555
Ca2 O3 2.538628 1_444
Ca2 O1 2.538628 1_555
Ca2 O10 2.538628 1_444
Ca2 O3 2.538634 1_454
Ca2 O9 2.538634 1_545
Ca2 O10 2.538634 1_544
Ca2 O1 2.538634 1_455
Mn0 O1 1.999069 1_565
Mn0 O9 1.999070 1_655
Mn0 O1 1.999077 1_555
Mn0 O9 1.999078 1_555
Mn1 O7 2.019361 1_555
Mn1 O0 2.032963 1_555
Mn1 O8 2.032964 1_555
Mn1 O0 2.032971 1_545
Mn1 O8 2.032972 1_455
Mn2 O11 2.019361 1_555
Mn2 O6 2.032963 1_555
Mn2 O5 2.032964 1_555
Mn2 O6 2.032971 1_565
Mn2 O5 2.032972 1_655
Mn3 O10 1.999069 1_545
Mn3 O3 1.999070 1_455
Mn3 O10 1.999077 1_555
Mn3 O3 1.999078 1_555
O2 Tl1 2.344726 1_555
O2 Tl0 2.821564 1_455
O2 Tl0 2.821564 1_545
O2 Tl0 2.821564 1_445
O2 Tl0 2.821564 1_555
O4 Tl0 2.344726 1_555
O4 Tl1 2.821564 1_655
O4 Tl1 2.821564 1_565
O4 Tl1 2.821564 1_665
O4 Tl1 2.821564 1_555
O7 Tl1 2.660121 1_555
O11 Tl0 2.660121 1_555
