# generated using pymatgen
data_Na3Hg2
_symmetry_space_group_name_H-M   'P 1'
_cell_length_a   7.77589740
_cell_length_b   8.37847543
_cell_length_c   8.37847543
_cell_angle_alpha   90.00000000
_cell_angle_beta   90.00000000
_cell_angle_gamma   90.00000000
_symmetry_Int_Tables_number   1
_chemical_formula_structural   Na3Hg2
_chemical_formula_sum   'Na12 Hg8'
_cell_volume   545.85905933
_cell_formula_units_Z   4
loop_
 _symmetry_equiv_pos_site_id
 _symmetry_equiv_pos_as_xyz
  1  'x, y, z'
loop_
 _atom_site_type_symbol
 _atom_site_label
 _atom_site_symmetry_multiplicity
 _atom_site_fract_x
 _atom_site_fract_y
 _atom_site_fract_z
 _atom_site_occupancy
  Na  Na0  1  0.75000000  0.50000000  -0.00000000  1
  Na  Na1  1  0.25000000  0.50000000  -0.00000000  1
  Na  Na2  1  0.75000000  -0.00000000  0.50000000  1
  Na  Na3  1  0.25000000  -0.00000000  0.50000000  1
  Na  Na4  1  -0.00000000  0.86060319  0.86060319  1
  Na  Na5  1  0.50000000  0.63939681  0.36060319  1
  Na  Na6  1  0.50000000  0.36060319  0.63939681  1
  Na  Na7  1  -0.00000000  0.13939681  0.13939681  1
  Na  Na8  1  -0.00000000  0.29489179  0.70510821  1
  Na  Na9  1  0.50000000  0.79489179  0.79489179  1
  Na  Na10  1  0.50000000  0.20510821  0.20510821  1
  Na  Na11  1  -0.00000000  0.70510821  0.29489179  1
  Hg  Hg0  1  0.80860985  0.62661289  0.62661289  1
  Hg  Hg1  1  0.80860985  0.37338711  0.37338711  1
  Hg  Hg2  1  0.30860985  0.12661289  0.87338711  1
  Hg  Hg3  1  0.30860985  0.87338711  0.12661289  1
  Hg  Hg4  1  0.19139015  0.62661289  0.62661289  1
  Hg  Hg5  1  0.69139015  0.87338711  0.12661289  1
  Hg  Hg6  1  0.69139015  0.12661289  0.87338711  1
  Hg  Hg7  1  0.19139015  0.37338711  0.37338711  1
loop_
_geom_bond_atom_site_label_1
_geom_bond_atom_site_label_2
_geom_bond_distance
_geom_bond_site_symmetry_2
Hg0 Hg4 2.976460 1_655
Hg0 Hg1 3.000461 1_555
Hg0 Na9 3.120000 1_555
Hg0 Na4 3.146714 1_655
Hg0 Na11 3.220553 1_655
Hg0 Na8 3.220553 1_655
Hg0 Na6 3.276808 1_555
Hg0 Na5 3.276808 1_555
Hg0 Na0 3.334670 1_556
Hg0 Na2 3.334670 1_565
Hg1 Hg7 2.976460 1_655
Hg1 Na10 3.120000 1_555
Hg1 Na7 3.146714 1_655
Hg1 Na8 3.220553 1_655
Hg1 Na11 3.220553 1_655
Hg1 Na5 3.276808 1_555
Hg1 Na6 3.276808 1_555
Hg1 Na2 3.334670 1_555
Hg1 Na0 3.334670 1_555
Hg2 Hg6 2.976460 1_555
Hg2 Hg3 3.000461 1_546
Hg2 Na8 3.120000 1_555
Hg2 Na6 3.146714 1_555
Hg2 Na9 3.220553 1_545
Hg2 Na10 3.220553 1_556
Hg2 Na7 3.276808 1_556
Hg2 Na4 3.276808 1_545
Hg2 Na1 3.334670 1_556
Hg2 Na3 3.334670 1_555
Hg3 Hg5 2.976460 1_555
Hg3 Na11 3.120000 1_555
Hg3 Na5 3.146714 1_555
Hg3 Na9 3.220553 1_554
Hg3 Na10 3.220553 1_565
Hg3 Na7 3.276808 1_565
Hg3 Na4 3.276808 1_554
Hg3 Na3 3.334670 1_565
Hg3 Na1 3.334670 1_555
Hg4 Hg7 3.000461 1_555
Hg4 Na9 3.120000 1_555
Hg4 Na4 3.146714 1_555
Hg4 Na8 3.220553 1_555
Hg4 Na11 3.220553 1_555
Hg4 Na6 3.276808 1_555
Hg4 Na5 3.276808 1_555
Hg4 Na3 3.334670 1_565
Hg4 Na1 3.334670 1_556
Hg5 Hg6 3.000461 1_564
Hg5 Na11 3.120000 1_655
Hg5 Na5 3.146714 1_555
Hg5 Na9 3.220553 1_554
Hg5 Na10 3.220553 1_565
Hg5 Na7 3.276808 1_665
Hg5 Na4 3.276808 1_654
Hg5 Na2 3.334670 1_565
Hg5 Na0 3.334670 1_555
Hg6 Na8 3.120000 1_655
Hg6 Na6 3.146714 1_555
Hg6 Na9 3.220553 1_545
Hg6 Na10 3.220553 1_556
Hg6 Na7 3.276808 1_656
Hg6 Na4 3.276808 1_645
Hg6 Na2 3.334670 1_555
Hg6 Na0 3.334670 1_556
Hg7 Na10 3.120000 1_555
Hg7 Na7 3.146714 1_555
Hg7 Na8 3.220553 1_555
Hg7 Na11 3.220553 1_555
Hg7 Na5 3.276808 1_555
Hg7 Na6 3.276808 1_555
Hg7 Na1 3.334670 1_555
Hg7 Na3 3.334670 1_555
