# generated using pymatgen
data_Na2GeTeO6
_symmetry_space_group_name_H-M   'P 1'
_cell_length_a   5.18405360
_cell_length_b   5.18405360
_cell_length_c   10.82241000
_cell_angle_alpha   90.00000000
_cell_angle_beta   90.00000000
_cell_angle_gamma   119.99999493
_symmetry_Int_Tables_number   1
_chemical_formula_structural   Na2GeTeO6
_chemical_formula_sum   'Na4 Ge2 Te2 O12'
_cell_volume   251.87995306
_cell_formula_units_Z   2
loop_
 _symmetry_equiv_pos_site_id
 _symmetry_equiv_pos_as_xyz
  1  'x, y, z'
loop_
 _atom_site_type_symbol
 _atom_site_label
 _atom_site_symmetry_multiplicity
 _atom_site_fract_x
 _atom_site_fract_y
 _atom_site_fract_z
 _atom_site_occupancy
  Na  Na0  1  0.66666700  0.33333300  0.95960000  1
  Na  Na1  1  0.66666700  0.33333300  0.54040000  1
  Na  Na2  1  0.33333300  0.66666700  0.45960000  1
  Na  Na3  1  0.33333300  0.66666700  0.04040000  1
  Ge  Ge0  1  0.33333300  0.66666700  0.75000000  1
  Ge  Ge1  1  0.66666700  0.33333300  0.25000000  1
  Te  Te0  1  0.00000000  0.00000000  0.25000000  1
  Te  Te1  1  0.00000000  0.00000000  0.75000000  1
  O  O0  1  0.94473600  0.66122700  0.14797600  1
  O  O1  1  0.33877300  0.28351000  0.14797600  1
  O  O2  1  0.71649000  0.05526400  0.14797600  1
  O  O3  1  0.33877300  0.05526400  0.35202400  1
  O  O4  1  0.71649000  0.66122700  0.35202400  1
  O  O5  1  0.94473600  0.28351000  0.35202400  1
  O  O6  1  0.05526400  0.33877300  0.85202400  1
  O  O7  1  0.66122700  0.71649000  0.85202400  1
  O  O8  1  0.05526400  0.71649000  0.64797600  1
  O  O9  1  0.28351000  0.33877300  0.64797600  1
  O  O10  1  0.66122700  0.94473600  0.64797600  1
  O  O11  1  0.28351000  0.94473600  0.85202400  1
loop_
_geom_bond_atom_site_label_1
_geom_bond_atom_site_label_2
_geom_bond_distance
_geom_bond_site_symmetry_2
Na0 O7 2.314662 1_555
Na0 O6 2.314662 1_655
Na0 O11 2.314662 1_545
Na0 O2 2.583264 1_556
Na0 O0 2.583268 1_556
Na0 O1 2.583271 1_556
Na1 O9 2.314662 1_555
Na1 O10 2.314662 1_545
Na1 O8 2.314662 1_655
Na1 O5 2.583264 1_555
Na1 O3 2.583268 1_555
Na1 O4 2.583271 1_555
Na2 O4 2.314662 1_555
Na2 O3 2.314662 1_565
Na2 O5 2.314662 1_455
Na2 O8 2.583264 1_555
Na2 O10 2.583268 1_555
Na2 O9 2.583271 1_555
Na3 O1 2.314662 1_555
Na3 O0 2.314662 1_455
Na3 O2 2.314662 1_565
Na3 O11 2.583264 1_554
Na3 O6 2.583268 1_554
Na3 O7 2.583271 1_554
Ge0 O11 1.932916 1_555
Ge0 O8 1.932916 1_555
Ge0 O10 1.932922 1_555
Ge0 O6 1.932922 1_555
Ge0 O7 1.932925 1_555
Ge0 O9 1.932925 1_555
Ge1 O5 1.932916 1_555
Ge1 O2 1.932916 1_555
Ge1 O0 1.932922 1_555
Ge1 O3 1.932922 1_555
Ge1 O4 1.932925 1_555
Ge1 O1 1.932925 1_555
O0 Te0 1.970374 1_665
O1 Te0 1.970375 1_555
O2 Te0 1.970378 1_655
O3 Te0 1.970374 1_555
O4 Te0 1.970375 1_665
O5 Te0 1.970378 1_655
O6 Te1 1.970374 1_555
O7 Te1 1.970375 1_665
O8 Te1 1.970378 1_565
O9 Te1 1.970375 1_555
O10 Te1 1.970374 1_665
O11 Te1 1.970378 1_565
