# generated using pymatgen
data_Li4SiPt3
_symmetry_space_group_name_H-M   'P 1'
_cell_length_a   6.82148268
_cell_length_b   6.82148268
_cell_length_c   6.82148248
_cell_angle_alpha   61.62859881
_cell_angle_beta   61.62859881
_cell_angle_gamma   61.62860348
_symmetry_Int_Tables_number   1
_chemical_formula_structural   Li4SiPt3
_chemical_formula_sum   'Li8 Si2 Pt6'
_cell_volume   232.64891959
_cell_formula_units_Z   2
loop_
 _symmetry_equiv_pos_site_id
 _symmetry_equiv_pos_as_xyz
  1  'x, y, z'
loop_
 _atom_site_type_symbol
 _atom_site_label
 _atom_site_symmetry_multiplicity
 _atom_site_fract_x
 _atom_site_fract_y
 _atom_site_fract_z
 _atom_site_occupancy
  Li  Li0  1  0.27510200  0.27510200  0.27510200  1
  Li  Li1  1  0.72489800  0.72489800  0.72489800  1
  Li  Li2  1  0.55712500  0.84445400  0.34259400  1
  Li  Li3  1  0.34259400  0.55712500  0.84445400  1
  Li  Li4  1  0.84445400  0.34259400  0.55712500  1
  Li  Li5  1  0.65740600  0.15554600  0.44287500  1
  Li  Li6  1  0.15554600  0.44287500  0.65740600  1
  Li  Li7  1  0.44287500  0.65740600  0.15554600  1
  Si  Si0  1  0.89912800  0.89912800  0.89912800  1
  Si  Si1  1  0.10087200  0.10087200  0.10087200  1
  Pt  Pt0  1  0.89188300  0.50000000  0.10811700  1
  Pt  Pt1  1  0.10811700  0.89188300  0.50000000  1
  Pt  Pt2  1  0.50000000  0.10811700  0.89188300  1
  Pt  Pt3  1  0.26364500  0.00000000  0.73635500  1
  Pt  Pt4  1  0.73635500  0.26364500  0.00000000  1
  Pt  Pt5  1  0.00000000  0.73635500  0.26364500  1
loop_
_geom_bond_atom_site_label_1
_geom_bond_atom_site_label_2
_geom_bond_distance
_geom_bond_site_symmetry_2
Li0 Li3 2.593884 1_554
Li0 Li4 2.593884 1_455
Li0 Li2 2.593884 1_545
Li0 Pt3 2.778830 1_555
Li0 Pt4 2.778830 1_555
Li0 Pt5 2.778830 1_555
Li0 Pt1 2.800443 1_545
Li0 Pt2 2.800443 1_554
Li0 Pt0 2.800443 1_455
Li0 Si1 2.874888 1_555
Li0 Li7 2.950271 1_555
Li0 Li6 2.950271 1_555
Li0 Li5 2.950271 1_555
Li1 Li7 2.593884 1_556
Li1 Li5 2.593884 1_565
Li1 Li6 2.593884 1_655
Li1 Pt5 2.778830 1_655
Li1 Pt4 2.778830 1_556
Li1 Pt3 2.778830 1_565
Li1 Pt1 2.800443 1_655
Li1 Pt0 2.800443 1_556
Li1 Pt2 2.800443 1_565
Li1 Si0 2.874888 1_555
Li1 Li3 2.950271 1_555
Li1 Li2 2.950271 1_555
Li1 Li4 2.950271 1_555
Li2 Pt5 2.583530 1_655
Li2 Pt1 2.627125 1_555
Li2 Li7 2.702003 1_555
Li2 Si0 2.789359 1_554
Li2 Pt3 2.815639 1_565
Li2 Pt2 2.838414 1_564
Li2 Pt0 2.880133 1_555
Li2 Li5 2.939930 1_565
Li2 Li3 3.048090 1_555
Li2 Li4 3.048090 1_555
Li2 Pt4 3.064185 1_565
Li3 Pt3 2.583530 1_565
Li3 Pt2 2.627125 1_555
Li3 Li6 2.702003 1_555
Li3 Si0 2.789360 1_455
Li3 Pt4 2.815639 1_556
Li3 Pt0 2.838414 1_456
Li3 Pt1 2.880133 1_555
Li3 Li7 2.939930 1_556
Li3 Li4 3.048090 1_555
Li3 Pt5 3.064185 1_556
Li4 Pt4 2.583530 1_556
Li4 Pt0 2.627125 1_555
Li4 Li5 2.702003 1_555
Li4 Si0 2.789359 1_545
Li4 Pt5 2.815639 1_655
Li4 Pt1 2.838415 1_645
Li4 Pt2 2.880133 1_555
Li4 Li6 2.939930 1_655
Li4 Pt3 3.064186 1_655
Li5 Pt4 2.583530 1_555
Li5 Pt2 2.627125 1_555
Li5 Si1 2.789359 1_655
Li5 Pt3 2.815639 1_555
Li5 Pt1 2.838415 1_645
Li5 Pt0 2.880133 1_555
Li5 Li7 3.048090 1_555
Li5 Li6 3.048090 1_555
Li5 Pt5 3.064186 1_645
Li6 Pt3 2.583530 1_555
Li6 Pt1 2.627125 1_555
Li6 Si1 2.789359 1_556
Li6 Pt5 2.815639 1_555
Li6 Pt0 2.838414 1_456
Li6 Pt2 2.880133 1_555
Li6 Li7 3.048090 1_555
Li6 Pt4 3.064185 1_456
Li7 Pt5 2.583530 1_555
Li7 Pt0 2.627125 1_555
Li7 Si1 2.789360 1_565
Li7 Pt4 2.815639 1_555
Li7 Pt2 2.838414 1_564
Li7 Pt1 2.880133 1_555
Li7 Pt3 3.064185 1_564
Pt0 Si0 2.412411 1_554
Pt0 Si1 2.412411 1_655
Pt1 Si1 2.412411 1_565
Pt1 Si0 2.412411 1_455
Pt2 Si1 2.412411 1_556
Pt2 Si0 2.412411 1_545
Pt3 Si0 2.483004 1_445
Pt3 Si1 2.483004 1_556
Pt4 Si0 2.483005 1_544
Pt4 Si1 2.483005 1_655
Pt5 Si0 2.483004 1_454
Pt5 Si1 2.483004 1_565
