# generated using pymatgen
data_Ca5As3ClO12
_symmetry_space_group_name_H-M   'P 1'
_cell_length_a   10.15640086
_cell_length_b   10.15640086
_cell_length_c   6.77091592
_cell_angle_alpha   90.00000000
_cell_angle_beta   90.00000000
_cell_angle_gamma   119.99999954
_symmetry_Int_Tables_number   1
_chemical_formula_structural   Ca5As3ClO12
_chemical_formula_sum   'Ca10 As6 Cl2 O24'
_cell_volume   604.86397844
_cell_formula_units_Z   2
loop_
 _symmetry_equiv_pos_site_id
 _symmetry_equiv_pos_as_xyz
  1  'x, y, z'
loop_
 _atom_site_type_symbol
 _atom_site_label
 _atom_site_symmetry_multiplicity
 _atom_site_fract_x
 _atom_site_fract_y
 _atom_site_fract_z
 _atom_site_occupancy
  Ca  Ca0  1  0.33333300  0.66666700  0.99486602  1
  Ca  Ca1  1  0.66666700  0.33333300  0.49486602  1
  Ca  Ca2  1  0.66666700  0.33333300  0.00471638  1
  Ca  Ca3  1  0.33333300  0.66666700  0.50471638  1
  Ca  Ca4  1  0.97279970  0.72773013  0.74757185  1
  Ca  Ca5  1  0.75493043  0.02720030  0.74757185  1
  Ca  Ca6  1  0.27226987  0.24506957  0.74757185  1
  Ca  Ca7  1  0.02720030  0.27226987  0.24757185  1
  Ca  Ca8  1  0.24506957  0.97279970  0.24757185  1
  Ca  Ca9  1  0.72773013  0.75493043  0.24757185  1
  As  As0  1  0.61972083  0.58920659  0.75097428  1
  As  As1  1  0.96948576  0.38027917  0.75097428  1
  As  As2  1  0.41079341  0.03051424  0.75097428  1
  As  As3  1  0.38027917  0.41079341  0.25097428  1
  As  As4  1  0.03051424  0.61972083  0.25097428  1
  As  As5  1  0.58920659  0.96948576  0.25097428  1
  Cl  Cl0  1  0.00000000  0.00000000  0.86575977  1
  Cl  Cl1  1  0.00000000  0.00000000  0.36575977  1
  O  O0  1  0.35605175  0.84449996  0.75209288  1
  O  O1  1  0.48844721  0.64394825  0.75209288  1
  O  O2  1  0.15550004  0.51155279  0.75209288  1
  O  O3  1  0.64394825  0.15550004  0.25209288  1
  O  O4  1  0.51155279  0.35605175  0.25209288  1
  O  O5  1  0.84449996  0.48844721  0.25209288  1
  O  O6  1  0.85943754  0.46448022  0.74653067  1
  O  O7  1  0.60504267  0.14056246  0.74653067  1
  O  O8  1  0.53551978  0.39495733  0.74653067  1
  O  O9  1  0.14056246  0.53551978  0.24653067  1
  O  O10  1  0.39495733  0.85943754  0.24653067  1
  O  O11  1  0.46448022  0.60504267  0.24653067  1
  O  O12  1  0.73576442  0.64338664  0.95143113  1
  O  O13  1  0.90762222  0.26423558  0.95143113  1
  O  O14  1  0.35661336  0.09237778  0.95143113  1
  O  O15  1  0.26423558  0.35661336  0.45143113  1
  O  O16  1  0.09237778  0.73576442  0.45143113  1
  O  O17  1  0.64338664  0.90762222  0.45143113  1
  O  O18  1  0.26025853  0.34599105  0.05418748  1
  O  O19  1  0.08573152  0.73974147  0.05418748  1
  O  O20  1  0.65400895  0.91426848  0.05418748  1
  O  O21  1  0.73974147  0.65400895  0.55418748  1
  O  O22  1  0.91426848  0.26025853  0.55418748  1
  O  O23  1  0.34599105  0.08573152  0.55418748  1
loop_
_geom_bond_atom_site_label_1
_geom_bond_atom_site_label_2
_geom_bond_distance
_geom_bond_site_symmetry_2
Ca0 O1 2.366582 1_555
Ca0 O0 2.366582 1_555
Ca0 O2 2.366582 1_555
Ca0 O10 2.429641 1_556
Ca0 O9 2.429642 1_556
Ca0 O11 2.429648 1_556
Ca1 O4 2.366582 1_555
Ca1 O3 2.366582 1_555
Ca1 O5 2.366582 1_555
Ca1 O7 2.429641 1_555
Ca1 O6 2.429642 1_555
Ca1 O8 2.429648 1_555
Ca2 O4 2.388337 1_555
Ca2 O3 2.388337 1_555
Ca2 O5 2.388337 1_555
Ca2 O7 2.460809 1_554
Ca2 O6 2.460810 1_554
Ca2 O8 2.460816 1_554
Ca2 O13 2.886012 1_554
Ca2 O14 2.886019 1_554
Ca2 O12 2.886022 1_554
Ca3 O1 2.388337 1_555
Ca3 O0 2.388337 1_555
Ca3 O2 2.388337 1_555
Ca3 O10 2.460809 1_555
Ca3 O9 2.460810 1_555
Ca3 O11 2.460816 1_555
Ca3 O16 2.886012 1_555
Ca3 O17 2.886019 1_555
Ca3 O15 2.886022 1_555
Ca4 O6 2.322896 1_555
Ca4 O16 2.324463 1_655
Ca4 O19 2.345333 1_656
Ca4 O21 2.470964 1_555
Ca4 O12 2.524383 1_555
Ca4 Cl0 2.756730 1_665
Ca5 O7 2.322896 1_555
Ca5 O17 2.324463 1_545
Ca5 O20 2.345335 1_546
Ca5 O22 2.470966 1_555
Ca5 O13 2.524383 1_555
Ca5 Cl0 2.756730 1_655
Ca6 O8 2.322896 1_555
Ca6 O15 2.324463 1_555
Ca6 O18 2.345337 1_556
Ca6 O23 2.470972 1_555
Ca6 O14 2.524383 1_555
Ca6 Cl0 2.756730 1_555
Ca7 O9 2.322896 1_555
Ca7 O13 2.324463 1_454
Ca7 O22 2.345333 1_455
Ca7 O18 2.470964 1_555
Ca7 O15 2.524383 1_555
Ca7 Cl1 2.756730 1_555
Ca8 O10 2.322896 1_555
Ca8 O14 2.324463 1_564
Ca8 O23 2.345335 1_565
Ca8 O19 2.470966 1_555
Ca8 O16 2.524383 1_555
Ca8 Cl1 2.756730 1_565
Ca9 O11 2.322896 1_555
Ca9 O12 2.324463 1_554
Ca9 O21 2.345337 1_555
Ca9 O20 2.470972 1_555
Ca9 O17 2.524383 1_555
Ca9 Cl1 2.756730 1_665
As0 O1 1.681677 1_555
As0 O12 1.698682 1_555
As0 O21 1.700635 1_555
As0 O8 1.713857 1_555
As1 O2 1.681670 1_655
As1 O13 1.698682 1_555
As1 O22 1.700636 1_555
As1 O6 1.713857 1_555
As2 O0 1.681668 1_545
As2 O14 1.698682 1_555
As2 O23 1.700630 1_555
As2 O7 1.713857 1_555
As3 O4 1.681677 1_555
As3 O15 1.698682 1_555
As3 O18 1.700635 1_555
As3 O11 1.713857 1_555
As4 O5 1.681670 1_455
As4 O16 1.698682 1_555
As4 O19 1.700636 1_555
As4 O9 1.713857 1_555
As5 O3 1.681668 1_565
As5 O17 1.698682 1_555
As5 O20 1.700630 1_555
As5 O10 1.713857 1_555
