# generated using pymatgen
data_MgCrO3
_symmetry_space_group_name_H-M   'P 1'
_cell_length_a   5.02308500
_cell_length_b   5.22871100
_cell_length_c   7.37066600
_cell_angle_alpha   90.00000000
_cell_angle_beta   90.00000000
_cell_angle_gamma   90.00000000
_symmetry_Int_Tables_number   1
_chemical_formula_structural   MgCrO3
_chemical_formula_sum   'Mg4 Cr4 O12'
_cell_volume   193.58508667
_cell_formula_units_Z   4
loop_
 _symmetry_equiv_pos_site_id
 _symmetry_equiv_pos_as_xyz
  1  'x, y, z'
loop_
 _atom_site_type_symbol
 _atom_site_label
 _atom_site_symmetry_multiplicity
 _atom_site_fract_x
 _atom_site_fract_y
 _atom_site_fract_z
 _atom_site_occupancy
  Mg  Mg0  1  0.48909100  0.06019700  0.75000000  1
  Mg  Mg1  1  0.98909100  0.43980300  0.25000000  1
  Mg  Mg2  1  0.01090900  0.56019700  0.75000000  1
  Mg  Mg3  1  0.51090900  0.93980300  0.25000000  1
  Cr  Cr0  1  0.00000000  0.00000000  0.50000000  1
  Cr  Cr1  1  0.50000000  0.50000000  0.50000000  1
  Cr  Cr2  1  0.50000000  0.50000000  0.00000000  1
  Cr  Cr3  1  0.00000000  0.00000000  0.00000000  1
  O  O0  1  0.37659600  0.55526500  0.25000000  1
  O  O1  1  0.87659600  0.94473500  0.75000000  1
  O  O2  1  0.12340400  0.05526500  0.25000000  1
  O  O3  1  0.62340400  0.44473500  0.75000000  1
  O  O4  1  0.18298200  0.31340800  0.93575700  1
  O  O5  1  0.68298200  0.18659200  0.06424300  1
  O  O6  1  0.31701800  0.81340800  0.56424300  1
  O  O7  1  0.81701800  0.68659200  0.43575700  1
  O  O8  1  0.18298200  0.31340800  0.56424300  1
  O  O9  1  0.68298200  0.18659200  0.43575700  1
  O  O10  1  0.81701800  0.68659200  0.06424300  1
  O  O11  1  0.31701800  0.81340800  0.93575700  1
loop_
_geom_bond_atom_site_label_1
_geom_bond_atom_site_label_2
_geom_bond_distance
_geom_bond_site_symmetry_2
Mg0 O1 2.037946 1_545
Mg0 O11 2.070449 1_545
Mg0 O6 2.070449 1_545
Mg0 O3 2.120811 1_555
Mg0 O4 2.447799 1_555
Mg0 O8 2.447799 1_555
Mg0 O9 2.598076 1_555
Mg0 O5 2.598076 1_556
Mg1 O0 2.037946 1_655
Mg1 O10 2.070449 1_555
Mg1 O7 2.070449 1_555
Mg1 O2 2.120811 1_655
Mg1 O5 2.447799 1_555
Mg1 O9 2.447799 1_555
Mg1 O8 2.598076 1_655
Mg1 O4 2.598076 1_654
Mg2 O3 2.037946 1_455
Mg2 O4 2.070449 1_555
Mg2 O8 2.070449 1_555
Mg2 O1 2.120811 1_455
Mg2 O11 2.447799 1_555
Mg2 O6 2.447799 1_555
Mg2 O7 2.598076 1_455
Mg2 O10 2.598076 1_456
Mg3 O2 2.037946 1_565
Mg3 O9 2.070449 1_565
Mg3 O5 2.070449 1_565
Mg3 O0 2.120811 1_555
Mg3 O7 2.447799 1_555
Mg3 O10 2.447799 1_555
Mg3 O6 2.598076 1_555
Mg3 O11 2.598076 1_554
Cr0 O6 1.926615 1_545
Cr0 O9 1.926615 1_455
Cr0 O8 1.937634 1_555
Cr0 O7 1.937634 1_445
Cr0 O2 1.965492 1_555
Cr0 O1 1.965492 1_445
Cr1 O7 1.926615 1_555
Cr1 O8 1.926615 1_555
Cr1 O6 1.937634 1_555
Cr1 O9 1.937634 1_555
Cr1 O3 1.965492 1_555
Cr1 O0 1.965492 1_555
Cr2 O10 1.926615 1_555
Cr2 O4 1.926615 1_554
Cr2 O11 1.937634 1_554
Cr2 O5 1.937634 1_555
Cr2 O3 1.965492 1_554
Cr2 O0 1.965492 1_555
Cr3 O5 1.926615 1_455
Cr3 O11 1.926615 1_544
Cr3 O4 1.937634 1_554
Cr3 O10 1.937634 1_445
Cr3 O2 1.965492 1_555
Cr3 O1 1.965492 1_444
