# generated using pymatgen
data_Mn7(AsO4)6
_symmetry_space_group_name_H-M   'P 1'
_cell_length_a   6.57091418
_cell_length_b   8.45321221
_cell_length_c   9.95358825
_cell_angle_alpha   106.35802449
_cell_angle_beta   107.89025094
_cell_angle_gamma   100.29635704
_symmetry_Int_Tables_number   1
_chemical_formula_structural   Mn7(AsO4)6
_chemical_formula_sum   'Mn7 As6 O24'
_cell_volume   483.07353608
_cell_formula_units_Z   1
loop_
 _symmetry_equiv_pos_site_id
 _symmetry_equiv_pos_as_xyz
  1  'x, y, z'
loop_
 _atom_site_type_symbol
 _atom_site_label
 _atom_site_symmetry_multiplicity
 _atom_site_fract_x
 _atom_site_fract_y
 _atom_site_fract_z
 _atom_site_occupancy
  Mn  Mn0  1  0.00000000  0.50000000  0.00000000  1
  Mn  Mn1  1  0.61479600  0.04423300  0.88368400  1
  Mn  Mn2  1  0.38520400  0.95576700  0.11631600  1
  Mn  Mn3  1  0.27671500  0.31641800  0.28427000  1
  Mn  Mn4  1  0.72328500  0.68358200  0.71573000  1
  Mn  Mn5  1  0.05641700  0.21954900  0.52340900  1
  Mn  Mn6  1  0.94358300  0.78045100  0.47659100  1
  As  As0  1  0.77480600  0.36972700  0.22727700  1
  As  As1  1  0.22519400  0.63027300  0.77272300  1
  As  As2  1  0.91277800  0.92107800  0.17249500  1
  As  As3  1  0.08722200  0.07892200  0.82750500  1
  As  As4  1  0.60932500  0.26630400  0.63030300  1
  As  As5  1  0.39067500  0.73369600  0.36969700  1
  O  O0  1  0.67919700  0.97675900  0.08214600  1
  O  O1  1  0.32080300  0.02324100  0.91785400  1
  O  O2  1  0.89326300  0.71669600  0.08375100  1
  O  O3  1  0.10673700  0.28330400  0.91624900  1
  O  O4  1  0.00027500  0.32037100  0.33737300  1
  O  O5  1  0.99972500  0.67962900  0.66262700  1
  O  O6  1  0.36232700  0.27687200  0.50229100  1
  O  O7  1  0.63767300  0.72312800  0.49770900  1
  O  O8  1  0.85879700  0.94569500  0.83674700  1
  O  O9  1  0.14120300  0.05430500  0.16325300  1
  O  O10  1  0.77301200  0.31410700  0.04657600  1
  O  O11  1  0.22698800  0.68589300  0.95342400  1
  O  O12  1  0.53942700  0.11986400  0.70538300  1
  O  O13  1  0.46057300  0.88013600  0.29461700  1
  O  O14  1  0.95057200  0.97590900  0.36178400  1
  O  O15  1  0.04942800  0.02409100  0.63821600  1
  O  O16  1  0.46843600  0.74440600  0.77016400  1
  O  O17  1  0.53156400  0.25559400  0.22983600  1
  O  O18  1  0.74221400  0.46959100  0.77182800  1
  O  O19  1  0.25778600  0.53040900  0.22817200  1
  O  O20  1  0.75797500  0.21829000  0.51839300  1
  O  O21  1  0.24202500  0.78171000  0.48160600  1
  O  O22  1  0.19857300  0.41588900  0.70746600  1
  O  O23  1  0.80142700  0.58411100  0.29253400  1
loop_
_geom_bond_atom_site_label_1
_geom_bond_atom_site_label_2
_geom_bond_distance
_geom_bond_site_symmetry_2
Mn0 O3 2.121460 1_554
Mn0 O2 2.121460 1_455
Mn0 O10 2.214984 1_455
Mn0 O11 2.214984 1_554
Mn0 O18 2.290260 1_454
Mn0 O19 2.290260 1_555
Mn1 O12 2.003991 1_555
Mn1 O1 2.047964 1_555
Mn1 O8 2.049663 1_545
Mn1 O0 2.148019 1_546
Mn1 O10 2.224199 1_556
Mn1 O16 2.339494 1_545
Mn2 O13 2.003991 1_555
Mn2 O0 2.047964 1_555
Mn2 O9 2.049663 1_565
Mn2 O1 2.148019 1_564
Mn2 O11 2.224199 1_554
Mn2 O17 2.339494 1_565
Mn3 O17 2.017547 1_555
Mn3 O4 2.044914 1_555
Mn3 O19 2.050882 1_555
Mn3 O9 2.070152 1_555
Mn3 O6 2.205294 1_555
Mn4 O16 2.017547 1_555
Mn4 O5 2.044914 1_555
Mn4 O18 2.050882 1_555
Mn4 O8 2.070152 1_555
Mn4 O7 2.205294 1_555
Mn5 O22 1.914460 1_555
Mn5 O20 1.944314 1_455
Mn5 O14 2.060999 1_445
Mn5 O6 2.070820 1_555
Mn5 O4 2.207484 1_555
Mn5 O15 2.259763 1_555
Mn6 O23 1.914460 1_555
Mn6 O21 1.944317 1_655
Mn6 O15 2.060999 1_665
Mn6 O7 2.070820 1_555
Mn6 O5 2.207484 1_555
Mn6 O14 2.259763 1_555
As0 O23 1.700152 1_555
As0 O10 1.721888 1_555
As0 O17 1.724444 1_555
As0 O4 1.746689 1_655
As1 O22 1.700152 1_555
As1 O11 1.721888 1_555
As1 O16 1.724444 1_555
As1 O5 1.746689 1_455
As2 O2 1.665289 1_555
As2 O14 1.733735 1_555
As2 O0 1.742029 1_555
As2 O9 1.751735 1_665
As3 O3 1.665289 1_555
As3 O15 1.733735 1_555
As3 O1 1.742029 1_555
As3 O8 1.751735 1_445
As4 O12 1.682414 1_555
As4 O20 1.707373 1_555
As4 O18 1.744757 1_555
As4 O6 1.763815 1_555
As5 O13 1.682414 1_555
As5 O21 1.707366 1_555
As5 O19 1.744757 1_555
As5 O7 1.763815 1_555
