# generated using pymatgen
data_TbMgGa
_symmetry_space_group_name_H-M   'P 1'
_cell_length_a   7.26212600
_cell_length_b   7.26212600
_cell_length_c   4.42902176
_cell_angle_alpha   90.00000000
_cell_angle_beta   90.00000000
_cell_angle_gamma   119.99999052
_symmetry_Int_Tables_number   1
_chemical_formula_structural   TbMgGa
_chemical_formula_sum   'Tb3 Mg3 Ga3'
_cell_volume   202.28610242
_cell_formula_units_Z   3
loop_
 _symmetry_equiv_pos_site_id
 _symmetry_equiv_pos_as_xyz
  1  'x, y, z'
loop_
 _atom_site_type_symbol
 _atom_site_label
 _atom_site_symmetry_multiplicity
 _atom_site_fract_x
 _atom_site_fract_y
 _atom_site_fract_z
 _atom_site_occupancy
  Tb  Tb0  1  0.57463715  -0.00000000  -0.00000000  1
  Tb  Tb1  1  -0.00000000  0.57463715  0.00000000  1
  Tb  Tb2  1  0.42536285  0.42536285  -0.00000000  1
  Mg  Mg0  1  0.24505919  -0.00000000  0.50000000  1
  Mg  Mg1  1  -0.00000000  0.24505919  0.50000000  1
  Mg  Mg2  1  0.75494081  0.75494081  0.50000000  1
  Ga  Ga0  1  0.33333300  0.66666700  0.50000000  1
  Ga  Ga1  1  0.66666700  0.33333300  0.50000000  1
  Ga  Ga2  1  0.00000000  0.00000000  0.00000000  1
loop_
_geom_bond_atom_site_label_1
_geom_bond_atom_site_label_2
_geom_bond_distance
_geom_bond_site_symmetry_2
Ga0 Mg0 2.796887 1_565
Ga0 Mg1 2.796892 1_555
Ga0 Mg2 2.796894 1_555
Ga0 Tb1 3.097210 1_555
Ga0 Tb1 3.097210 1_556
Ga0 Tb0 3.097211 1_565
Ga0 Tb0 3.097211 1_566
Ga0 Tb2 3.097215 1_555
Ga0 Tb2 3.097215 1_556
Ga1 Mg1 2.796887 1_655
Ga1 Mg0 2.796892 1_555
Ga1 Mg2 2.796894 1_555
Ga1 Tb0 3.097210 1_555
Ga1 Tb0 3.097210 1_556
Ga1 Tb1 3.097211 1_656
Ga1 Tb1 3.097211 1_655
Ga1 Tb2 3.097215 1_555
Ga1 Tb2 3.097215 1_556
Ga2 Mg1 2.840988 1_554
Ga2 Mg0 2.840988 1_554
Ga2 Mg0 2.840988 1_555
Ga2 Mg1 2.840988 1_555
Ga2 Mg2 2.840989 1_445
Ga2 Mg2 2.840989 1_444
Ga2 Tb0 3.089039 1_455
Ga2 Tb1 3.089039 1_545
Ga2 Tb2 3.089039 1_555
