# generated using pymatgen
data_Yb(GaS2)2
_symmetry_space_group_name_H-M   'P 1'
_cell_length_a   5.86460907
_cell_length_b   5.86460907
_cell_length_c   10.09137600
_cell_angle_alpha   90.00000000
_cell_angle_beta   90.00000000
_cell_angle_gamma   117.98766648
_symmetry_Int_Tables_number   1
_chemical_formula_structural   Yb(GaS2)2
_chemical_formula_sum   'Yb2 Ga4 S8'
_cell_volume   306.48776707
_cell_formula_units_Z   2
loop_
 _symmetry_equiv_pos_site_id
 _symmetry_equiv_pos_as_xyz
  1  'x, y, z'
loop_
 _atom_site_type_symbol
 _atom_site_label
 _atom_site_symmetry_multiplicity
 _atom_site_fract_x
 _atom_site_fract_y
 _atom_site_fract_z
 _atom_site_occupancy
  Yb  Yb0  1  0.50000000  0.50000000  0.75000000  1
  Yb  Yb1  1  0.50000000  0.50000000  0.25000000  1
  Ga  Ga0  1  0.76904000  0.23542500  0.50000000  1
  Ga  Ga1  1  0.23096000  0.76457500  0.50000000  1
  Ga  Ga2  1  0.76457500  0.23096000  0.00000000  1
  Ga  Ga3  1  0.23542500  0.76904000  0.00000000  1
  S  S0  1  0.35293100  0.19580600  0.50000000  1
  S  S1  1  0.64706900  0.80419400  0.50000000  1
  S  S2  1  0.80419400  0.64706900  0.00000000  1
  S  S3  1  0.19580600  0.35293100  0.00000000  1
  S  S4  1  0.50000000  0.00000000  0.82692700  1
  S  S5  1  0.00000000  0.50000000  0.67307300  1
  S  S6  1  0.50000000  0.00000000  0.17307300  1
  S  S7  1  0.00000000  0.50000000  0.32692700  1
loop_
_geom_bond_atom_site_label_1
_geom_bond_atom_site_label_2
_geom_bond_distance
_geom_bond_site_symmetry_2
Ga0 S1 2.282462 1_545
Ga0 S7 2.306527 1_655
Ga0 S5 2.306527 1_655
Ga0 S0 2.340290 1_555
Ga1 S0 2.282462 1_565
Ga1 S7 2.306527 1_555
Ga1 S5 2.306527 1_555
Ga1 S1 2.340290 1_555
Ga2 S3 2.282462 1_655
Ga2 S6 2.306527 1_555
Ga2 S4 2.306527 1_554
Ga2 S2 2.340290 1_555
Ga3 S2 2.282462 1_455
Ga3 S4 2.306527 1_564
Ga3 S6 2.306527 1_565
Ga3 S3 2.340290 1_555
S0 Yb0 2.974404 1_555
S0 Yb1 2.974404 1_555
S1 Yb0 2.974404 1_555
S1 Yb1 2.974404 1_555
S2 Yb1 2.974404 1_555
S2 Yb0 2.974404 1_554
S3 Yb1 2.974404 1_555
S3 Yb0 2.974404 1_554
S4 Yb0 3.033323 1_545
S4 Yb0 3.033323 1_555
S5 Yb0 3.033323 1_555
S5 Yb0 3.033323 1_455
S6 Yb1 3.033323 1_545
S6 Yb1 3.033323 1_555
S7 Yb1 3.033323 1_455
S7 Yb1 3.033323 1_555
