# generated using pymatgen
data_Ti(BO)6
_symmetry_space_group_name_H-M   'P 1'
_cell_length_a   9.17307998
_cell_length_b   6.03829595
_cell_length_c   7.29060053
_cell_angle_alpha   54.85971212
_cell_angle_beta   40.73234491
_cell_angle_gamma   40.57323435
_symmetry_Int_Tables_number   1
_chemical_formula_structural   Ti(BO)6
_chemical_formula_sum   'Ti1 B6 O6'
_cell_volume   171.38957886
_cell_formula_units_Z   1
loop_
 _symmetry_equiv_pos_site_id
 _symmetry_equiv_pos_as_xyz
  1  'x, y, z'
loop_
 _atom_site_type_symbol
 _atom_site_label
 _atom_site_symmetry_multiplicity
 _atom_site_fract_x
 _atom_site_fract_y
 _atom_site_fract_z
 _atom_site_occupancy
  Ti  Ti0  1  0.00000000  0.00000000  0.00000000  1
  B  B0  1  0.65797000  0.00000000  0.50714700  1
  B  B1  1  0.34203000  0.00000000  0.49285300  1
  B  B2  1  0.52073600  0.31723600  0.08500400  1
  B  B3  1  0.47926400  0.68276400  0.91499600  1
  B  B4  1  0.83797200  0.68276400  0.08500400  1
  B  B5  1  0.16202800  0.31723600  0.91499600  1
  O  O0  1  0.39539800  0.30206400  0.66241700  1
  O  O1  1  0.60460200  0.69793600  0.33758300  1
  O  O2  1  0.79944400  0.00000000  0.95893400  1
  O  O3  1  0.30253800  0.30206400  0.33758300  1
  O  O4  1  0.20055600  0.00000000  0.04106600  1
  O  O5  1  0.69746200  0.69793600  0.66241700  1
loop_
_geom_bond_atom_site_label_1
_geom_bond_atom_site_label_2
_geom_bond_distance
_geom_bond_site_symmetry_2
B0 O5 1.407254 1_545
B0 O0 1.407254 1_555
B0 Ti0 2.435898 1_655
B1 O3 1.407254 1_555
B1 O1 1.407254 1_545
B1 Ti0 2.435898 1_556
B2 O3 1.379860 1_555
B2 O2 1.440881 1_554
B3 O5 1.379860 1_555
B3 O4 1.440881 1_566
B4 O1 1.379860 1_555
B4 O2 1.440881 1_564
B5 O0 1.379860 1_555
B5 O4 1.440881 1_556
O2 Ti0 2.075802 1_656
O4 Ti0 2.075802 1_555
