# generated using pymatgen
data_Ba3Ho(BO3)3
_symmetry_space_group_name_H-M   'P 1'
_cell_length_a   9.49391922
_cell_length_b   9.49391922
_cell_length_c   18.04160900
_cell_angle_alpha   90.00000000
_cell_angle_beta   90.00000000
_cell_angle_gamma   119.99999456
_symmetry_Int_Tables_number   1
_chemical_formula_structural   Ba3Ho(BO3)3
_chemical_formula_sum   'Ba18 Ho6 B18 O54'
_cell_volume   1408.30585954
_cell_formula_units_Z   6
loop_
 _symmetry_equiv_pos_site_id
 _symmetry_equiv_pos_as_xyz
  1  'x, y, z'
loop_
 _atom_site_type_symbol
 _atom_site_label
 _atom_site_symmetry_multiplicity
 _atom_site_fract_x
 _atom_site_fract_y
 _atom_site_fract_z
 _atom_site_occupancy
  Ba  Ba0  1  0.68265000  0.68265000  0.86865500  1
  Ba  Ba1  1  0.00000000  0.68265000  0.36865500  1
  Ba  Ba2  1  0.68265000  0.00000000  0.36865500  1
  Ba  Ba3  1  0.31735000  0.00000000  0.86865500  1
  Ba  Ba4  1  0.00000000  0.31735000  0.86865500  1
  Ba  Ba5  1  0.31735000  0.31735000  0.36865500  1
  Ba  Ba6  1  0.65163900  0.65163900  0.63008200  1
  Ba  Ba7  1  0.00000000  0.65163900  0.13008200  1
  Ba  Ba8  1  0.65163900  0.00000000  0.13008200  1
  Ba  Ba9  1  0.34836100  0.00000000  0.63008200  1
  Ba  Ba10  1  0.00000000  0.34836100  0.63008200  1
  Ba  Ba11  1  0.34836100  0.34836100  0.13008200  1
  Ba  Ba12  1  0.33333300  0.66666700  0.27665700  1
  Ba  Ba13  1  0.66666700  0.33333300  0.77665700  1
  Ba  Ba14  1  0.33333300  0.66666700  0.77665700  1
  Ba  Ba15  1  0.66666700  0.33333300  0.27665700  1
  Ba  Ba16  1  0.00000000  0.00000000  0.71598900  1
  Ba  Ba17  1  0.00000000  0.00000000  0.21598900  1
  Ho  Ho0  1  0.33333300  0.66666700  0.99634600  1
  Ho  Ho1  1  0.66666700  0.33333300  0.49634600  1
  Ho  Ho2  1  0.33333300  0.66666700  0.49634600  1
  Ho  Ho3  1  0.66666700  0.33333300  0.99634600  1
  Ho  Ho4  1  0.00000000  0.00000000  0.50227000  1
  Ho  Ho5  1  0.00000000  0.00000000  0.00227000  1
  B  B0  1  0.65985500  0.65985500  0.42049600  1
  B  B1  1  0.00000000  0.65985500  0.92049600  1
  B  B2  1  0.65985500  0.00000000  0.92049600  1
  B  B3  1  0.34014500  0.00000000  0.42049600  1
  B  B4  1  0.00000000  0.34014500  0.42049600  1
  B  B5  1  0.34014500  0.34014500  0.92049600  1
  B  B6  1  0.66738900  0.66738900  0.24846400  1
  B  B7  1  0.00000000  0.66738900  0.74846400  1
  B  B8  1  0.66738900  0.00000000  0.74846400  1
  B  B9  1  0.33261100  0.00000000  0.24846400  1
  B  B10  1  0.00000000  0.33261100  0.24846400  1
  B  B11  1  0.33261100  0.33261100  0.74846400  1
  B  B12  1  0.67374300  0.67374300  0.07301500  1
  B  B13  1  0.00000000  0.67374300  0.57301500  1
  B  B14  1  0.67374300  0.00000000  0.57301500  1
  B  B15  1  0.32625700  0.00000000  0.07301500  1
  B  B16  1  0.00000000  0.32625700  0.07301500  1
  B  B17  1  0.32625700  0.32625700  0.57301500  1
  O  O0  1  0.80581900  0.80581900  0.43035100  1
  O  O1  1  0.00000000  0.80581900  0.93035100  1
  O  O2  1  0.80581900  0.00000000  0.93035100  1
  O  O3  1  0.19418100  0.00000000  0.43035100  1
  O  O4  1  0.00000000  0.19418100  0.43035100  1
  O  O5  1  0.19418100  0.19418100  0.93035100  1
  O  O6  1  0.66099400  0.14685300  0.91523800  1
  O  O7  1  0.85314700  0.51414100  0.91523800  1
  O  O8  1  0.48585900  0.33900600  0.91523800  1
  O  O9  1  0.51414100  0.66099400  0.41523800  1
  O  O10  1  0.33900600  0.85314700  0.41523800  1
  O  O11  1  0.14685300  0.48585900  0.41523800  1
  O  O12  1  0.66099400  0.51414100  0.41523800  1
  O  O13  1  0.14685300  0.66099400  0.91523800  1
  O  O14  1  0.51414100  0.85314700  0.91523800  1
  O  O15  1  0.48585900  0.14685300  0.41523800  1
  O  O16  1  0.85314700  0.33900600  0.41523800  1
  O  O17  1  0.33900600  0.48585900  0.91523800  1
  O  O18  1  0.52036100  0.52036100  0.24820600  1
  O  O19  1  0.00000000  0.52036100  0.74820600  1
  O  O20  1  0.52036100  0.00000000  0.74820600  1
  O  O21  1  0.47963900  0.00000000  0.24820600  1
  O  O22  1  0.00000000  0.47963900  0.24820600  1
  O  O23  1  0.47963900  0.47963900  0.74820600  1
  O  O24  1  0.81431200  0.14702900  0.74893500  1
  O  O25  1  0.85297100  0.66728300  0.74893500  1
  O  O26  1  0.33271700  0.18568800  0.74893500  1
  O  O27  1  0.66728300  0.81431200  0.24893500  1
  O  O28  1  0.18568800  0.85297100  0.24893500  1
  O  O29  1  0.14702900  0.33271700  0.24893500  1
  O  O30  1  0.81431200  0.66728300  0.24893500  1
  O  O31  1  0.14702900  0.81431200  0.74893500  1
  O  O32  1  0.66728300  0.85297100  0.74893500  1
  O  O33  1  0.33271700  0.14702900  0.24893500  1
  O  O34  1  0.85297100  0.18568800  0.24893500  1
  O  O35  1  0.18568800  0.33271700  0.74893500  1
  O  O36  1  0.67390100  0.14624800  0.56826200  1
  O  O37  1  0.85375200  0.52765300  0.56826200  1
  O  O38  1  0.47234700  0.32609900  0.56826200  1
  O  O39  1  0.52765300  0.67390100  0.06826200  1
  O  O40  1  0.32609900  0.85375200  0.06826200  1
  O  O41  1  0.14624800  0.47234700  0.06826200  1
  O  O42  1  0.67390100  0.52765300  0.06826200  1
  O  O43  1  0.14624800  0.67390100  0.56826200  1
  O  O44  1  0.52765300  0.85375200  0.56826200  1
  O  O45  1  0.47234700  0.14624800  0.06826200  1
  O  O46  1  0.85375200  0.32609900  0.06826200  1
  O  O47  1  0.32609900  0.47234700  0.56826200  1
  O  O48  1  0.81896800  0.81896800  0.08283900  1
  O  O49  1  0.00000000  0.81896800  0.58283900  1
  O  O50  1  0.81896800  0.00000000  0.58283900  1
  O  O51  1  0.18103200  0.00000000  0.08283900  1
  O  O52  1  0.00000000  0.18103200  0.08283900  1
  O  O53  1  0.18103200  0.18103200  0.58283900  1
loop_
_geom_bond_atom_site_label_1
_geom_bond_atom_site_label_2
_geom_bond_distance
_geom_bond_site_symmetry_2
Ba0 O25 2.745410 1_555
Ba0 O32 2.745410 1_555
Ba0 O1 2.856705 1_655
Ba0 O2 2.856705 1_565
Ba0 O23 2.904667 1_555
Ba0 O7 2.911263 1_555
Ba0 O14 2.911263 1_555
Ba0 O8 2.957294 1_555
Ba0 O17 2.957294 1_555
Ba1 O30 2.745410 1_455
Ba1 O28 2.745410 1_555
Ba1 O0 2.856705 1_455
Ba1 O3 2.856705 1_565
Ba1 O22 2.904667 1_555
Ba1 O12 2.911263 1_455
Ba1 O10 2.911263 1_555
Ba1 O11 2.957294 1_555
Ba1 O16 2.957294 1_455
Ba2 O27 2.745410 1_545
Ba2 O34 2.745410 1_555
Ba2 O0 2.856705 1_545
Ba2 O4 2.856705 1_655
Ba2 O21 2.904667 1_555
Ba2 O9 2.911263 1_545
Ba2 O16 2.911263 1_555
Ba2 O15 2.957294 1_555
Ba2 O10 2.957294 1_545
Ba3 O26 2.745410 1_555
Ba3 O31 2.745410 1_545
Ba3 O5 2.856705 1_555
Ba3 O1 2.856705 1_545
Ba3 O20 2.904667 1_555
Ba3 O8 2.911263 1_555
Ba3 O13 2.911263 1_545
Ba3 O14 2.957294 1_545
Ba3 O6 2.957294 1_555
Ba4 O35 2.745410 1_555
Ba4 O24 2.745410 1_455
Ba4 O5 2.856705 1_555
Ba4 O2 2.856705 1_455
Ba4 O19 2.904667 1_555
Ba4 O17 2.911263 1_555
Ba4 O6 2.911263 1_455
Ba4 O7 2.957294 1_455
Ba4 O13 2.957294 1_555
Ba5 O33 2.745410 1_555
Ba5 O29 2.745410 1_555
Ba5 O3 2.856705 1_555
Ba5 O4 2.856705 1_555
Ba5 O18 2.904667 1_555
Ba5 O11 2.911263 1_555
Ba5 O15 2.911263 1_555
Ba5 O12 2.957294 1_555
Ba5 O9 2.957294 1_555
Ba6 O23 2.684833 1_555
Ba6 O25 2.826615 1_555
Ba6 O32 2.826615 1_555
Ba6 O47 2.903905 1_555
Ba6 O38 2.903905 1_555
Ba6 O44 2.927494 1_555
Ba6 O37 2.927494 1_555
Ba6 O49 2.989054 1_655
Ba6 O50 2.989054 1_565
Ba7 O22 2.684833 1_555
Ba7 O30 2.826615 1_455
Ba7 O28 2.826615 1_555
Ba7 O41 2.903904 1_555
Ba7 O46 2.903905 1_455
Ba7 O42 2.927494 1_455
Ba7 O40 2.927494 1_555
Ba7 O48 2.989054 1_455
Ba7 O51 2.989054 1_565
Ba8 O21 2.684833 1_555
Ba8 O27 2.826615 1_545
Ba8 O34 2.826615 1_555
Ba8 O45 2.903904 1_555
Ba8 O40 2.903905 1_545
Ba8 O39 2.927494 1_545
Ba8 O46 2.927494 1_555
Ba8 O48 2.989054 1_545
Ba8 O52 2.989054 1_655
Ba9 O20 2.684833 1_555
Ba9 O26 2.826615 1_555
Ba9 O31 2.826615 1_545
Ba9 O44 2.903904 1_545
Ba9 O36 2.903905 1_555
Ba9 O38 2.927494 1_555
Ba9 O43 2.927494 1_545
Ba9 O53 2.989054 1_555
Ba9 O49 2.989054 1_545
Ba10 O19 2.684833 1_555
Ba10 O35 2.826615 1_555
Ba10 O24 2.826615 1_455
Ba10 O37 2.903904 1_455
Ba10 O43 2.903905 1_555
Ba10 O47 2.927494 1_555
Ba10 O36 2.927494 1_455
Ba10 O53 2.989054 1_555
Ba10 O50 2.989054 1_455
Ba11 O18 2.684833 1_555
Ba11 O29 2.826615 1_555
Ba11 O33 2.826615 1_555
Ba11 O42 2.903905 1_555
Ba11 O39 2.903905 1_555
Ba11 O41 2.927494 1_555
Ba11 O45 2.927494 1_555
Ba11 O52 2.989054 1_555
Ba11 O51 2.989054 1_555
Ba12 O21 2.795002 1_565
Ba12 O22 2.795003 1_555
Ba12 O18 2.795011 1_555
Ba12 O28 2.796928 1_555
Ba12 O29 2.796936 1_555
Ba12 O27 2.796937 1_555
Ba12 O10 3.048455 1_555
Ba12 O11 3.048458 1_555
Ba12 O9 3.048460 1_555
Ba13 O20 2.795002 1_555
Ba13 O19 2.795003 1_655
Ba13 O23 2.795011 1_555
Ba13 O24 2.796928 1_555
Ba13 O25 2.796936 1_555
Ba13 O26 2.796937 1_555
Ba13 O6 3.048455 1_555
Ba13 O7 3.048458 1_555
Ba13 O8 3.048460 1_555
Ba14 O19 2.795002 1_555
Ba14 O20 2.795003 1_565
Ba14 O23 2.795011 1_555
Ba14 O31 2.796928 1_555
Ba14 O32 2.796936 1_555
Ba14 O35 2.796937 1_555
Ba14 O13 3.048455 1_555
Ba14 O14 3.048458 1_555
Ba14 O17 3.048460 1_555
Ba15 O22 2.795002 1_655
Ba15 O21 2.795003 1_555
Ba15 O18 2.795011 1_555
Ba15 O34 2.796928 1_555
Ba15 O33 2.796936 1_555
Ba15 O30 2.796937 1_555
Ba15 O16 3.048455 1_555
Ba15 O15 3.048458 1_555
Ba15 O12 3.048460 1_555
Ba16 O24 2.805431 1_455
Ba16 O31 2.805431 1_545
Ba16 O25 2.805431 1_445
Ba16 O32 2.805431 1_445
Ba16 O35 2.805431 1_555
Ba16 O26 2.805431 1_555
Ba16 O49 2.953760 1_545
Ba16 O50 2.953760 1_455
Ba16 O53 2.953760 1_555
Ba17 O28 2.805431 1_545
Ba17 O34 2.805431 1_455
Ba17 O33 2.805431 1_555
Ba17 O29 2.805431 1_555
Ba17 O30 2.805431 1_445
Ba17 O27 2.805431 1_445
Ba17 O51 2.953760 1_555
Ba17 O52 2.953760 1_555
Ba17 O48 2.953760 1_445
Ho0 O40 2.228214 1_556
Ho0 O41 2.228218 1_556
Ho0 O39 2.228222 1_556
Ho0 O13 2.276677 1_555
Ho0 O14 2.276680 1_555
Ho0 O17 2.276684 1_555
Ho1 O36 2.228214 1_555
Ho1 O37 2.228218 1_555
Ho1 O38 2.228222 1_555
Ho1 O16 2.276677 1_555
Ho1 O15 2.276680 1_555
Ho1 O12 2.276684 1_555
Ho2 O43 2.228214 1_555
Ho2 O44 2.228218 1_555
Ho2 O47 2.228222 1_555
Ho2 O10 2.276677 1_555
Ho2 O11 2.276680 1_555
Ho2 O9 2.276684 1_555
Ho3 O46 2.228214 1_556
Ho3 O45 2.228218 1_556
Ho3 O42 2.228222 1_556
Ho3 O6 2.276677 1_555
Ho3 O7 2.276680 1_555
Ho3 O8 2.276684 1_555
Ho4 O49 2.250973 1_545
Ho4 O50 2.250973 1_455
Ho4 O53 2.250973 1_555
Ho4 O4 2.254380 1_555
Ho4 O3 2.254380 1_555
Ho4 O0 2.254380 1_445
Ho5 O51 2.250973 1_555
Ho5 O52 2.250973 1_555
Ho5 O48 2.250973 1_445
Ho5 O1 2.254380 1_544
Ho5 O2 2.254380 1_454
Ho5 O5 2.254380 1_554
B0 O9 1.392071 1_555
B0 O12 1.392071 1_555
B0 O0 1.397130 1_555
B1 O13 1.392071 1_555
B1 O7 1.392071 1_455
B1 O1 1.397130 1_555
B2 O6 1.392071 1_555
B2 O14 1.392071 1_545
B2 O2 1.397130 1_555
B3 O10 1.392071 1_545
B3 O15 1.392071 1_555
B3 O3 1.397130 1_555
B4 O16 1.392071 1_455
B4 O11 1.392071 1_555
B4 O4 1.397130 1_555
B5 O8 1.392071 1_555
B5 O17 1.392071 1_555
B5 O5 1.397130 1_555
B6 O30 1.395404 1_555
B6 O27 1.395404 1_555
B6 O18 1.395880 1_555
B7 O25 1.395404 1_455
B7 O31 1.395405 1_555
B7 O19 1.395880 1_555
B8 O32 1.395404 1_545
B8 O24 1.395405 1_555
B8 O20 1.395880 1_555
B9 O33 1.395404 1_555
B9 O28 1.395405 1_545
B9 O21 1.395880 1_555
B10 O29 1.395404 1_555
B10 O34 1.395405 1_455
B10 O22 1.395880 1_555
B11 O35 1.395404 1_555
B11 O26 1.395404 1_555
B11 O23 1.395880 1_555
B12 O48 1.390100 1_555
B12 O42 1.390364 1_555
B12 O39 1.390364 1_555
B13 O49 1.390100 1_555
B13 O43 1.390364 1_555
B13 O37 1.390364 1_455
B14 O50 1.390100 1_555
B14 O36 1.390364 1_555
B14 O44 1.390364 1_545
B15 O51 1.390100 1_555
B15 O40 1.390364 1_545
B15 O45 1.390364 1_555
B16 O52 1.390100 1_555
B16 O46 1.390364 1_455
B16 O41 1.390364 1_555
B17 O53 1.390100 1_555
B17 O38 1.390364 1_555
B17 O47 1.390364 1_555
