# generated using pymatgen
data_NaBeSi3O8
_symmetry_space_group_name_H-M   'P 1'
_cell_length_a   16.85689279
_cell_length_b   9.03695642
_cell_length_c   16.18045988
_cell_angle_alpha   90.00000000
_cell_angle_beta   90.00000000
_cell_angle_gamma   90.00000000
_symmetry_Int_Tables_number   1
_chemical_formula_structural   NaBeSi3O8
_chemical_formula_sum   'Na8 Be8 Si24 O64'
_cell_volume   2464.85044513
_cell_formula_units_Z   8
loop_
 _symmetry_equiv_pos_site_id
 _symmetry_equiv_pos_as_xyz
  1  'x, y, z'
loop_
 _atom_site_type_symbol
 _atom_site_label
 _atom_site_symmetry_multiplicity
 _atom_site_fract_x
 _atom_site_fract_y
 _atom_site_fract_z
 _atom_site_occupancy
  Na  Na0  1  0.50000000  0.50000000  -0.00000000  1
  Na  Na1  1  -0.00000000  -0.00000000  0.50000000  1
  Na  Na2  1  0.50000000  0.50000000  0.50000000  1
  Na  Na3  1  -0.00000000  -0.00000000  -0.00000000  1
  Na  Na4  1  0.50000000  -0.00000000  -0.00000000  1
  Na  Na5  1  -0.00000000  0.50000000  0.50000000  1
  Na  Na6  1  0.50000000  -0.00000000  0.50000000  1
  Na  Na7  1  -0.00000000  0.50000000  -0.00000000  1
  Be  Be0  1  0.14363942  0.11153748  0.34314689  1
  Be  Be1  1  0.64363942  0.38846252  0.15685311  1
  Be  Be2  1  0.85636058  0.88846252  0.84314689  1
  Be  Be3  1  0.35636058  0.61153748  0.65685311  1
  Be  Be4  1  0.85636058  0.88846252  0.65685311  1
  Be  Be5  1  0.35636058  0.61153748  0.84314689  1
  Be  Be6  1  0.14363942  0.11153748  0.15685311  1
  Be  Be7  1  0.64363942  0.38846252  0.34314689  1
  Si  Si0  1  0.62995728  0.67975691  0.43747599  1
  Si  Si1  1  0.12995728  0.82024309  0.06252401  1
  Si  Si2  1  0.37004272  0.32024309  0.93747599  1
  Si  Si3  1  0.87004272  0.17975691  0.56252401  1
  Si  Si4  1  0.37004272  0.32024309  0.56252401  1
  Si  Si5  1  0.87004272  0.17975691  0.93747599  1
  Si  Si6  1  0.62995728  0.67975691  0.06252401  1
  Si  Si7  1  0.12995728  0.82024309  0.43747599  1
  Si  Si8  1  0.90190003  0.42330692  0.82155239  1
  Si  Si9  1  0.40190003  0.07669308  0.67844761  1
  Si  Si10  1  0.09809997  0.57669308  0.32155239  1
  Si  Si11  1  0.59809997  0.92330692  0.17844761  1
  Si  Si12  1  0.09809997  0.57669308  0.17844761  1
  Si  Si13  1  0.59809997  0.92330692  0.32155239  1
  Si  Si14  1  0.90190003  0.42330692  0.67844761  1
  Si  Si15  1  0.40190003  0.07669308  0.82155239  1
  Si  Si16  1  0.70478722  0.16341202  0.03577212  1
  Si  Si17  1  0.20478722  0.33658798  0.46422788  1
  Si  Si18  1  0.29521278  0.83658798  0.53577212  1
  Si  Si19  1  0.79521278  0.66341202  0.96422788  1
  Si  Si20  1  0.29521278  0.83658798  0.96422788  1
  Si  Si21  1  0.79521278  0.66341202  0.53577212  1
  Si  Si22  1  0.70478722  0.16341202  0.46422788  1
  Si  Si23  1  0.20478722  0.33658798  0.03577212  1
  O  O0  1  0.61614006  0.51658756  0.10143653  1
  O  O1  1  0.11614006  0.98341244  0.39856347  1
  O  O2  1  0.38385994  0.48341244  0.60143653  1
  O  O3  1  0.88385994  0.01658756  0.89856347  1
  O  O4  1  0.38385994  0.48341244  0.89856347  1
  O  O5  1  0.88385994  0.01658756  0.60143653  1
  O  O6  1  0.61614006  0.51658756  0.39856347  1
  O  O7  1  0.11614006  0.98341244  0.10143653  1
  O  O8  1  0.53378907  0.02063287  0.13850064  1
  O  O9  1  0.03378907  0.47936713  0.36149936  1
  O  O10  1  0.46621093  0.97936713  0.63850064  1
  O  O11  1  0.96621093  0.52063287  0.86149936  1
  O  O12  1  0.46621093  0.97936713  0.86149936  1
  O  O13  1  0.96621093  0.52063287  0.63850064  1
  O  O14  1  0.53378907  0.02063287  0.36149936  1
  O  O15  1  0.03378907  0.47936713  0.13850064  1
  O  O16  1  0.94932898  0.23032676  0.51551687  1
  O  O17  1  0.44932898  0.26967324  0.98448313  1
  O  O18  1  0.05067102  0.76967324  0.01551687  1
  O  O19  1  0.55067102  0.73032676  0.48448313  1
  O  O20  1  0.05067102  0.76967324  0.48448313  1
  O  O21  1  0.55067102  0.73032676  0.01551687  1
  O  O22  1  0.94932898  0.23032676  0.98448313  1
  O  O23  1  0.44932898  0.26967324  0.51551687  1
  O  O24  1  0.70680767  0.67946812  0.99933544  1
  O  O25  1  0.20680767  0.82053188  0.50066456  1
  O  O26  1  0.29319233  0.32053188  0.49933544  1
  O  O27  1  0.79319233  0.17946812  0.00066456  1
  O  O28  1  0.29319233  0.32053188  0.00066456  1
  O  O29  1  0.79319233  0.17946812  0.49933544  1
  O  O30  1  0.70680767  0.67946812  0.50066456  1
  O  O31  1  0.20680767  0.82053188  0.99933544  1
  O  O32  1  0.64689298  0.05162533  0.99446633  1
  O  O33  1  0.14689298  0.44837467  0.50553367  1
  O  O34  1  0.35310702  0.94837467  0.49446633  1
  O  O35  1  0.85310702  0.55162533  0.00553367  1
  O  O36  1  0.35310702  0.94837467  0.00553367  1
  O  O37  1  0.85310702  0.55162533  0.49446633  1
  O  O38  1  0.64689298  0.05162533  0.50553367  1
  O  O39  1  0.14689298  0.44837467  0.99446633  1
  O  O40  1  0.68780272  0.25797883  0.11537920  1
  O  O41  1  0.18780272  0.24202117  0.38462080  1
  O  O42  1  0.31219728  0.74202117  0.61537920  1
  O  O43  1  0.81219728  0.75797883  0.88462080  1
  O  O44  1  0.31219728  0.74202117  0.88462080  1
  O  O45  1  0.81219728  0.75797883  0.61537920  1
  O  O46  1  0.68780272  0.25797883  0.38462080  1
  O  O47  1  0.18780272  0.24202117  0.11537920  1
  O  O48  1  0.84564906  0.29682873  0.86019053  1
  O  O49  1  0.34564906  0.20317127  0.63980947  1
  O  O50  1  0.15435094  0.70317127  0.36019053  1
  O  O51  1  0.65435094  0.79682873  0.13980947  1
  O  O52  1  0.15435094  0.70317127  0.13980947  1
  O  O53  1  0.65435094  0.79682873  0.36019053  1
  O  O54  1  0.84564906  0.29682873  0.63980947  1
  O  O55  1  0.34564906  0.20317127  0.86019053  1
  O  O56  1  0.33530760  0.36578961  0.25000000  1
  O  O57  1  0.83530760  0.13421039  0.25000000  1
  O  O58  1  0.66469240  0.63421039  0.75000000  1
  O  O59  1  0.16469240  0.86578961  0.75000000  1
  O  O60  1  0.63059147  0.38570861  0.25000000  1
  O  O61  1  0.13059147  0.11429139  0.25000000  1
  O  O62  1  0.36940853  0.61429139  0.75000000  1
  O  O63  1  0.86940853  0.88570861  0.75000000  1
loop_
_geom_bond_atom_site_label_1
_geom_bond_atom_site_label_2
_geom_bond_distance
_geom_bond_site_symmetry_2
Na0 O21 2.263861 1_555
Na0 O17 2.263861 1_554
Na0 O4 2.559127 1_554
Na0 O0 2.559127 1_555
Na1 O20 2.263861 1_545
Na1 O16 2.263861 1_455
Na1 O1 2.559127 1_545
Na1 O5 2.559127 1_455
Na2 O19 2.263861 1_555
Na2 O23 2.263861 1_555
Na2 O2 2.559127 1_555
Na2 O6 2.559127 1_555
Na3 O18 2.263861 1_545
Na3 O22 2.263861 1_454
Na3 O3 2.559127 1_454
Na3 O7 2.559127 1_545
Na4 O12 2.319760 1_544
Na4 O8 2.319760 1_555
Na4 O36 2.521317 1_545
Na4 O32 2.521317 1_554
Na4 O17 2.594554 1_554
Na4 O21 2.594554 1_545
Na5 O9 2.319760 1_555
Na5 O13 2.319760 1_455
Na5 O37 2.521317 1_455
Na5 O33 2.521317 1_555
Na5 O20 2.594554 1_555
Na5 O16 2.594554 1_455
Na6 O14 2.319760 1_555
Na6 O10 2.319760 1_545
Na6 O34 2.521317 1_545
Na6 O38 2.521317 1_555
Na6 O23 2.594554 1_555
Na6 O19 2.594554 1_545
Na7 O11 2.319760 1_454
Na7 O15 2.319760 1_555
Na7 O35 2.521317 1_455
Na7 O39 2.521317 1_554
Na7 O18 2.594554 1_555
Na7 O22 2.594554 1_454
Be0 O61 1.523327 1_555
Be0 O1 1.536077 1_545
Be0 O41 1.547579 1_555
Be1 O60 1.523327 1_555
Be1 O0 1.536077 1_555
Be1 O40 1.547579 1_555
Be2 O63 1.523327 1_555
Be2 O3 1.536077 1_565
Be2 O43 1.547579 1_555
Be3 O62 1.523327 1_555
Be3 O2 1.536077 1_555
Be3 O42 1.547579 1_555
Be4 O63 1.523327 1_555
Be4 O5 1.536077 1_565
Be4 O45 1.547579 1_555
Be5 O62 1.523327 1_555
Be5 O4 1.536077 1_555
Be5 O44 1.547579 1_555
Be6 O61 1.523327 1_555
Be6 O7 1.536077 1_545
Be6 O47 1.547579 1_555
Be7 O60 1.523327 1_555
Be7 O6 1.536077 1_555
Be7 O46 1.547579 1_555
O0 Si6 1.620180 1_555
O1 Si7 1.620180 1_555
O2 Si4 1.620180 1_555
O3 Si5 1.620180 1_555
O4 Si2 1.620180 1_555
O5 Si3 1.620180 1_555
O6 Si0 1.620180 1_555
O7 Si1 1.620180 1_555
O8 Si11 1.538372 1_545
O9 Si10 1.538372 1_555
O10 Si9 1.538372 1_565
O11 Si8 1.538372 1_555
O12 Si15 1.538372 1_565
O13 Si14 1.538372 1_555
O14 Si13 1.538372 1_545
O15 Si12 1.538372 1_555
O16 Si3 1.604257 1_555
O17 Si2 1.604257 1_555
O18 Si1 1.604257 1_555
O19 Si0 1.604257 1_555
O20 Si7 1.604257 1_555
O21 Si6 1.604257 1_555
O22 Si5 1.604257 1_555
O23 Si4 1.604257 1_555
O24 Si19 1.601419 1_555
O24 Si6 1.650322 1_556
O25 Si18 1.601419 1_555
O25 Si7 1.650322 1_555
O26 Si17 1.601419 1_555
O26 Si4 1.650322 1_555
O27 Si16 1.601419 1_555
O27 Si5 1.650322 1_554
O28 Si23 1.601419 1_555
O28 Si2 1.650322 1_554
O29 Si22 1.601419 1_555
O29 Si3 1.650322 1_555
O30 Si21 1.601419 1_555
O30 Si0 1.650322 1_555
O31 Si20 1.601419 1_555
O31 Si1 1.650322 1_556
O32 Si16 1.555515 1_556
O33 Si17 1.555515 1_555
O34 Si18 1.555515 1_555
O35 Si19 1.555515 1_554
O36 Si20 1.555515 1_554
O37 Si21 1.555515 1_555
O38 Si22 1.555515 1_555
O39 Si23 1.555515 1_556
O40 Si16 1.572086 1_555
O41 Si17 1.572086 1_555
O42 Si18 1.572086 1_555
O43 Si19 1.572086 1_555
O44 Si20 1.572086 1_555
O45 Si21 1.572086 1_555
O46 Si22 1.572086 1_555
O47 Si23 1.572086 1_555
O48 Si8 1.611325 1_555
O48 Si5 1.688840 1_555
O49 Si9 1.611325 1_555
O49 Si4 1.688840 1_555
O50 Si10 1.611325 1_555
O50 Si7 1.688840 1_555
O51 Si11 1.611325 1_555
O51 Si6 1.688840 1_555
O52 Si12 1.611325 1_555
O52 Si1 1.688840 1_555
O53 Si13 1.611325 1_555
O53 Si0 1.688840 1_555
O54 Si14 1.611325 1_555
O54 Si3 1.688840 1_555
O55 Si15 1.611325 1_555
O55 Si2 1.688840 1_555
