# generated using pymatgen
data_Sr2Mg3Al
_symmetry_space_group_name_H-M   'P 1'
_cell_length_a   6.23677201
_cell_length_b   6.23677201
_cell_length_c   20.81458800
_cell_angle_alpha   90.00000000
_cell_angle_beta   90.00000000
_cell_angle_gamma   120.00000010
_symmetry_Int_Tables_number   1
_chemical_formula_structural   Sr2Mg3Al
_chemical_formula_sum   'Sr8 Mg12 Al4'
_cell_volume   701.16170246
_cell_formula_units_Z   4
loop_
 _symmetry_equiv_pos_site_id
 _symmetry_equiv_pos_as_xyz
  1  'x, y, z'
loop_
 _atom_site_type_symbol
 _atom_site_label
 _atom_site_symmetry_multiplicity
 _atom_site_fract_x
 _atom_site_fract_y
 _atom_site_fract_z
 _atom_site_occupancy
  Sr  Sr0  1  0.33333300  0.66666700  0.65513800  1
  Sr  Sr1  1  0.66666700  0.33333300  0.34486200  1
  Sr  Sr2  1  0.66666700  0.33333300  0.15513800  1
  Sr  Sr3  1  0.33333300  0.66666700  0.84486200  1
  Sr  Sr4  1  0.00000000  0.00000000  0.09658400  1
  Sr  Sr5  1  0.00000000  0.00000000  0.90341600  1
  Sr  Sr6  1  0.00000000  0.00000000  0.59658400  1
  Sr  Sr7  1  0.00000000  0.00000000  0.40341600  1
  Mg  Mg0  1  0.16774600  0.33549300  0.25000000  1
  Mg  Mg1  1  0.83225400  0.66450700  0.75000000  1
  Mg  Mg2  1  0.66450700  0.83225400  0.25000000  1
  Mg  Mg3  1  0.33549300  0.16774600  0.75000000  1
  Mg  Mg4  1  0.16774600  0.83225400  0.25000000  1
  Mg  Mg5  1  0.83225400  0.16774600  0.75000000  1
  Mg  Mg6  1  0.50000000  0.00000000  0.00000000  1
  Mg  Mg7  1  0.00000000  0.50000000  0.00000000  1
  Mg  Mg8  1  0.50000000  0.00000000  0.50000000  1
  Mg  Mg9  1  0.50000000  0.50000000  0.00000000  1
  Mg  Mg10  1  0.00000000  0.50000000  0.50000000  1
  Mg  Mg11  1  0.50000000  0.50000000  0.50000000  1
  Al  Al0  1  0.33333300  0.66666700  0.13088300  1
  Al  Al1  1  0.66666700  0.33333300  0.86911700  1
  Al  Al2  1  0.66666700  0.33333300  0.63088300  1
  Al  Al3  1  0.33333300  0.66666700  0.36911700  1
loop_
_geom_bond_atom_site_label_1
_geom_bond_atom_site_label_2
_geom_bond_distance
_geom_bond_site_symmetry_2
Mg0 Mg2 3.098185 1_555
Mg0 Mg4 3.098185 1_555
Mg0 Mg2 3.138587 1_445
Mg0 Mg4 3.138587 1_545
Mg0 Sr7 3.671606 1_555
Mg0 Sr4 3.671606 1_555
Mg0 Sr1 3.690953 1_455
Mg0 Sr2 3.690953 1_455
Mg0 Sr2 3.690963 1_555
Mg0 Sr1 3.690963 1_555
Mg1 Mg3 3.098185 1_555
Mg1 Mg5 3.098185 1_555
Mg1 Mg3 3.138587 1_665
Mg1 Mg5 3.138587 1_565
Mg1 Sr6 3.671606 1_665
Mg1 Sr5 3.671606 1_665
Mg1 Sr3 3.690953 1_655
Mg1 Sr0 3.690953 1_655
Mg1 Sr3 3.690963 1_555
Mg1 Sr0 3.690963 1_555
Mg2 Mg4 3.098185 1_555
Mg2 Mg4 3.138587 1_655
Mg2 Sr7 3.671606 1_665
Mg2 Sr4 3.671606 1_665
Mg2 Sr2 3.690953 1_565
Mg2 Sr1 3.690953 1_565
Mg2 Sr1 3.690963 1_555
Mg2 Sr2 3.690963 1_555
Mg3 Mg5 3.098185 1_555
Mg3 Mg5 3.138587 1_455
Mg3 Sr5 3.671606 1_555
Mg3 Sr6 3.671606 1_555
Mg3 Sr3 3.690953 1_545
Mg3 Sr0 3.690953 1_545
Mg3 Sr0 3.690963 1_555
Mg3 Sr3 3.690963 1_555
Mg4 Sr7 3.671603 1_565
Mg4 Sr4 3.671603 1_565
Mg4 Sr1 3.690958 1_455
Mg4 Sr2 3.690958 1_455
Mg4 Sr1 3.690958 1_565
Mg4 Sr2 3.690958 1_565
Mg5 Sr6 3.671603 1_655
Mg5 Sr5 3.671603 1_655
Mg5 Sr0 3.690958 1_545
Mg5 Sr3 3.690958 1_545
Mg5 Sr3 3.690958 1_655
Mg5 Sr0 3.690958 1_655
Mg6 Mg7 3.118386 1_545
Mg6 Mg7 3.118386 1_655
Mg6 Mg9 3.118386 1_555
Mg6 Mg9 3.118386 1_545
Mg6 Sr2 3.697126 1_555
Mg6 Sr3 3.697126 1_544
Mg6 Sr4 3.710238 1_555
Mg6 Sr4 3.710238 1_655
Mg6 Sr5 3.710238 1_654
Mg6 Sr5 3.710238 1_554
Mg7 Mg9 3.118386 1_455
Mg7 Mg9 3.118386 1_555
Mg7 Sr3 3.697126 1_554
Mg7 Sr2 3.697126 1_455
Mg7 Sr4 3.710238 1_565
Mg7 Sr4 3.710238 1_555
Mg7 Sr5 3.710238 1_564
Mg7 Sr5 3.710238 1_554
Mg8 Sr0 3.697126 1_545
Mg8 Sr1 3.697126 1_555
Mg8 Sr6 3.710238 1_555
Mg8 Sr6 3.710238 1_655
Mg8 Sr7 3.710238 1_655
Mg8 Sr7 3.710238 1_555
Mg9 Sr2 3.697129 1_555
Mg9 Sr3 3.697129 1_554
Mg9 Sr4 3.710238 1_665
Mg9 Sr4 3.710238 1_555
Mg9 Sr5 3.710238 1_664
Mg9 Sr5 3.710238 1_554
Mg10 Mg8 3.118386 1_565
Mg10 Mg8 3.118386 1_455
Mg10 Mg11 3.118386 1_555
Mg10 Mg11 3.118386 1_455
Mg10 Sr0 3.697126 1_555
Mg10 Sr1 3.697126 1_455
Mg10 Sr6 3.710238 1_555
Mg10 Sr6 3.710238 1_565
Mg10 Sr7 3.710238 1_565
Mg10 Sr7 3.710238 1_555
Mg11 Mg8 3.118386 1_565
Mg11 Mg8 3.118386 1_555
Mg11 Sr0 3.697129 1_555
Mg11 Sr1 3.697129 1_555
Mg11 Sr6 3.710238 1_665
Mg11 Sr6 3.710238 1_555
Mg11 Sr7 3.710238 1_555
Mg11 Sr7 3.710238 1_665
Al0 Mg2 3.057264 1_555
Al0 Mg0 3.057264 1_555
Al0 Mg4 3.057264 1_555
Al0 Mg7 3.265443 1_555
Al0 Mg6 3.265443 1_565
Al0 Mg9 3.265446 1_555
Al0 Sr2 3.636018 1_455
Al0 Sr2 3.636018 1_565
Al0 Sr2 3.636029 1_555
Al0 Sr4 3.670890 1_565
Al0 Sr4 3.670895 1_555
Al0 Sr4 3.670895 1_665
Al1 Mg1 3.057264 1_555
Al1 Mg3 3.057264 1_555
Al1 Mg5 3.057264 1_555
Al1 Mg6 3.265443 1_556
Al1 Mg7 3.265443 1_656
Al1 Mg9 3.265446 1_556
Al1 Sr3 3.636018 1_545
Al1 Sr3 3.636018 1_655
Al1 Sr3 3.636029 1_555
Al1 Sr5 3.670890 1_655
Al1 Sr5 3.670895 1_665
Al1 Sr5 3.670895 1_555
Al2 Mg3 3.057264 1_555
Al2 Mg1 3.057264 1_555
Al2 Mg5 3.057264 1_555
Al2 Mg10 3.265443 1_655
Al2 Mg8 3.265443 1_555
Al2 Mg11 3.265446 1_555
Al2 Sr0 3.636018 1_655
Al2 Sr0 3.636018 1_545
Al2 Sr0 3.636029 1_555
Al2 Sr6 3.670890 1_655
Al2 Sr6 3.670895 1_555
Al2 Sr6 3.670895 1_665
Al3 Mg2 3.057264 1_555
Al3 Mg0 3.057264 1_555
Al3 Mg4 3.057264 1_555
Al3 Mg8 3.265443 1_565
Al3 Mg10 3.265443 1_555
Al3 Mg11 3.265446 1_555
Al3 Sr1 3.636018 1_455
Al3 Sr1 3.636018 1_565
Al3 Sr1 3.636029 1_555
Al3 Sr7 3.670890 1_565
Al3 Sr7 3.670895 1_665
Al3 Sr7 3.670895 1_555
