# generated using pymatgen
data_Eu4Pt
_symmetry_space_group_name_H-M   'P 1'
_cell_length_a   8.58216349
_cell_length_b   8.58216349
_cell_length_c   8.58216349
_cell_angle_alpha   60.00000000
_cell_angle_beta   60.00000000
_cell_angle_gamma   60.00000000
_symmetry_Int_Tables_number   1
_chemical_formula_structural   Eu4Pt
_chemical_formula_sum   'Eu8 Pt2'
_cell_volume   446.96688960
_cell_formula_units_Z   2
loop_
 _symmetry_equiv_pos_site_id
 _symmetry_equiv_pos_as_xyz
  1  'x, y, z'
loop_
 _atom_site_type_symbol
 _atom_site_label
 _atom_site_symmetry_multiplicity
 _atom_site_fract_x
 _atom_site_fract_y
 _atom_site_fract_z
 _atom_site_occupancy
  Eu  Eu0  1  0.61760300  0.61760300  0.61760300  1
  Eu  Eu1  1  0.14719100  0.61760300  0.61760300  1
  Eu  Eu2  1  0.61760300  0.14719100  0.61760300  1
  Eu  Eu3  1  0.60280900  0.13239700  0.13239700  1
  Eu  Eu4  1  0.13239700  0.13239700  0.13239700  1
  Eu  Eu5  1  0.61760300  0.61760300  0.14719100  1
  Eu  Eu6  1  0.13239700  0.60280900  0.13239700  1
  Eu  Eu7  1  0.13239700  0.13239700  0.60280900  1
  Pt  Pt0  1  0.00000000  0.00000000  0.00000000  1
  Pt  Pt1  1  0.75000000  0.75000000  0.75000000  1
loop_
_geom_bond_atom_site_label_1
_geom_bond_atom_site_label_2
_geom_bond_distance
_geom_bond_site_symmetry_2
Eu0 Pt1 2.783239 1_555
Eu1 Pt1 2.783239 1_455
Eu2 Pt1 2.783239 1_545
Eu3 Pt0 2.783239 1_655
Eu4 Pt0 2.783239 1_555
Eu5 Pt1 2.783239 1_554
Eu6 Pt0 2.783239 1_565
Eu7 Pt0 2.783239 1_556
