# generated using pymatgen
data_PmY3
_symmetry_space_group_name_H-M   'P 1'
_cell_length_a   7.33672732
_cell_length_b   7.33672732
_cell_length_c   5.88876539
_cell_angle_alpha   90.00000000
_cell_angle_beta   90.00000000
_cell_angle_gamma   120.00001302
_symmetry_Int_Tables_number   1
_chemical_formula_structural   PmY3
_chemical_formula_sum   'Pm2 Y6'
_cell_volume   274.51089379
_cell_formula_units_Z   2
loop_
 _symmetry_equiv_pos_site_id
 _symmetry_equiv_pos_as_xyz
  1  'x, y, z'
loop_
 _atom_site_type_symbol
 _atom_site_label
 _atom_site_symmetry_multiplicity
 _atom_site_fract_x
 _atom_site_fract_y
 _atom_site_fract_z
 _atom_site_occupancy
  Pm  Pm0  1  0.33333300  0.66666700  0.75000000  1
  Pm  Pm1  1  0.66666700  0.33333300  0.25000000  1
  Y  Y0  1  0.16560480  0.33120960  0.25000000  1
  Y  Y1  1  0.66879040  0.83439520  0.25000000  1
  Y  Y2  1  0.16560480  0.83439520  0.25000000  1
  Y  Y3  1  0.83439520  0.66879040  0.75000000  1
  Y  Y4  1  0.33120960  0.16560480  0.75000000  1
  Y  Y5  1  0.83439520  0.16560480  0.75000000  1
loop_
_geom_bond_atom_site_label_1
_geom_bond_atom_site_label_2
_geom_bond_distance
_geom_bond_site_symmetry_2
Pm0 Y2 3.634879 1_556
Pm0 Y2 3.634879 1_555
Pm0 Y0 3.634882 1_555
Pm0 Y0 3.634882 1_556
Pm0 Y1 3.634882 1_556
Pm0 Y1 3.634882 1_555
Pm0 Y3 3.668385 1_455
Pm0 Y4 3.668385 1_565
Pm0 Y5 3.668388 1_455
Pm0 Y5 3.668388 1_565
Pm0 Y3 3.668392 1_555
Pm0 Y4 3.668392 1_555
Pm1 Y5 3.634879 1_554
Pm1 Y5 3.634879 1_555
Pm1 Y3 3.634882 1_555
Pm1 Y3 3.634882 1_554
Pm1 Y4 3.634882 1_554
Pm1 Y4 3.634882 1_555
Pm1 Y1 3.668385 1_545
Pm1 Y0 3.668385 1_655
Pm1 Y2 3.668388 1_545
Pm1 Y2 3.668388 1_655
Pm1 Y0 3.668392 1_555
Pm1 Y1 3.668392 1_555
Y0 Y5 3.619122 1_455
Y0 Y5 3.619122 1_454
Y0 Y4 3.619122 1_554
Y0 Y4 3.619122 1_555
Y0 Y1 3.644991 1_445
Y0 Y2 3.644992 1_545
Y0 Y1 3.691735 1_555
Y0 Y2 3.691736 1_555
Y1 Y5 3.619122 1_565
Y1 Y5 3.619122 1_564
Y1 Y3 3.619122 1_555
Y1 Y3 3.619122 1_554
Y1 Y2 3.644992 1_655
Y1 Y2 3.691736 1_555
Y2 Y3 3.619122 1_455
Y2 Y3 3.619122 1_454
Y2 Y4 3.619122 1_564
Y2 Y4 3.619122 1_565
Y3 Y4 3.644991 1_665
Y3 Y5 3.644992 1_565
Y3 Y4 3.691735 1_555
Y3 Y5 3.691736 1_555
Y4 Y5 3.644992 1_455
Y4 Y5 3.691736 1_555
