# generated using pymatgen
data_ReSi2(PO5)3
_symmetry_space_group_name_H-M   'P 1'
_cell_length_a   7.88537754
_cell_length_b   7.88541839
_cell_length_c   10.87205891
_cell_angle_alpha   106.94129035
_cell_angle_beta   85.16277796
_cell_angle_gamma   119.88511742
_symmetry_Int_Tables_number   1
_chemical_formula_structural   ReSi2(PO5)3
_chemical_formula_sum   'Re2 Si4 P6 O30'
_cell_volume   559.17898740
_cell_formula_units_Z   2
loop_
 _symmetry_equiv_pos_site_id
 _symmetry_equiv_pos_as_xyz
  1  'x, y, z'
loop_
 _atom_site_type_symbol
 _atom_site_label
 _atom_site_symmetry_multiplicity
 _atom_site_fract_x
 _atom_site_fract_y
 _atom_site_fract_z
 _atom_site_occupancy
  Re  Re0  1  0.76821910  0.46920201  0.57413577  1
  Re  Re1  1  0.23178090  0.53079799  0.42586423  1
  Si  Si0  1  0.16141754  0.32110197  0.97365070  1
  Si  Si1  1  0.83858246  0.67889803  0.02634930  1
  Si  Si2  1  0.48314309  0.93088794  0.84665882  1
  Si  Si3  1  0.51685691  0.06911206  0.15334118  1
  P  P0  1  0.83460145  0.31672933  0.82554977  1
  P  P1  1  0.16539855  0.68327067  0.17445023  1
  P  P2  1  0.52169999  0.56745401  0.82784808  1
  P  P3  1  0.47830001  0.43254599  0.17215192  1
  P  P4  1  0.08360442  0.87799099  0.82666081  1
  P  P5  1  0.91639558  0.12200901  0.17333919  1
  O  O0  1  0.00000000  0.50000000  0.50000000  1
  O  O1  1  0.50000000  -0.00000000  -0.00000000  1
  O  O2  1  0.86167139  0.37350064  0.70223956  1
  O  O3  1  0.13832861  0.62649936  0.29776044  1
  O  O4  1  0.29902686  0.93222688  0.79269713  1
  O  O5  1  0.70097314  0.06777312  0.20730287  1
  O  O6  1  0.95406949  0.75257294  0.70412630  1
  O  O7  1  0.04593051  0.24742706  0.29587370  1
  O  O8  1  0.69619847  0.71447207  0.92582025  1
  O  O9  1  0.30380153  0.28552793  0.07417975  1
  O  O10  1  0.03819047  0.76321460  0.92765349  1
  O  O11  1  0.96180953  0.23678540  0.07234651  1
  O  O12  1  0.02693631  0.35561937  0.87481161  1
  O  O13  1  0.97306369  0.64438063  0.12518839  1
  O  O14  1  0.44989450  0.70046559  0.79191826  1
  O  O15  1  0.55010550  0.29953441  0.20808174  1
  O  O16  1  0.71696096  0.59768153  0.49512718  1
  O  O17  1  0.28303904  0.40231847  0.50487282  1
  O  O18  1  0.57493271  0.46141898  0.70260014  1
  O  O19  1  0.42506729  0.53858102  0.29739986  1
  O  O20  1  0.74384748  0.42138789  0.92763113  1
  O  O21  1  0.25615252  0.57861211  0.07236887  1
  O  O22  1  0.35874694  0.40336656  0.87669991  1
  O  O23  1  0.64125306  0.59663344  0.12330009  1
  O  O24  1  0.07519380  0.07206605  0.87772379  1
  O  O25  1  0.92480620  0.92793395  0.12227621  1
  O  O26  1  0.61914908  0.22182358  0.48783133  1
  O  O27  1  0.38085092  0.77817642  0.51216867  1
  O  O28  1  0.68248428  0.08216462  0.79345124  1
  O  O29  1  0.31751572  0.91783538  0.20654876  1
loop_
_geom_bond_atom_site_label_1
_geom_bond_atom_site_label_2
_geom_bond_distance
_geom_bond_site_symmetry_2
O0 Re1 1.863426 1_555
O0 Re0 1.863426 1_455
O1 Si2 1.590504 1_544
O1 Si3 1.590504 1_555
O2 P0 1.499849 1_555
O2 Re0 2.095725 1_555
O3 P1 1.499849 1_555
O3 Re1 2.095725 1_555
O4 P4 1.570695 1_555
O4 Si2 1.616982 1_555
O5 P5 1.570695 1_555
O5 Si3 1.616982 1_555
O6 P4 1.500388 1_655
O6 Re0 2.093709 1_555
O7 P5 1.500388 1_455
O7 Re1 2.093709 1_555
O8 P2 1.519796 1_555
O8 Si1 1.798139 1_556
O9 P3 1.519796 1_555
O9 Si0 1.798139 1_554
O10 P4 1.530628 1_555
O10 Si1 1.777341 1_456
O11 P5 1.530628 1_555
O11 Si0 1.777341 1_654
O12 P0 1.502948 1_455
O12 Si0 1.733092 1_555
O13 P1 1.502948 1_655
O13 Si1 1.733092 1_555
O14 P2 1.562424 1_555
O14 Si2 1.626572 1_555
O15 P3 1.562424 1_555
O15 Si3 1.626572 1_555
O16 Re0 1.703355 1_555
O17 Re1 1.703355 1_555
O18 P2 1.522948 1_555
O18 Re0 1.968548 1_555
O19 P3 1.522948 1_555
O19 Re1 1.968548 1_555
O20 P0 1.531584 1_555
O20 Si1 1.785132 1_556
O21 P1 1.531584 1_555
O21 Si0 1.785132 1_554
O22 P2 1.495305 1_555
O22 Si0 1.751864 1_555
O23 P3 1.495305 1_555
O23 Si1 1.751864 1_555
O24 P4 1.501471 1_545
O24 Si0 1.732564 1_555
O25 P5 1.501471 1_565
O25 Si1 1.732564 1_555
O26 Re0 1.703419 1_555
O27 Re1 1.703419 1_555
O28 P0 1.570109 1_555
O28 Si2 1.615133 1_545
O29 P1 1.570109 1_555
O29 Si3 1.615133 1_565
