# generated using pymatgen
data_Na4Cr2P4O15
_symmetry_space_group_name_H-M   'P 1'
_cell_length_a   9.87731600
_cell_length_b   7.86571900
_cell_length_c   10.52743636
_cell_angle_alpha   54.48099449
_cell_angle_beta   90.00000000
_cell_angle_gamma   90.00000000
_symmetry_Int_Tables_number   1
_chemical_formula_structural   Na4Cr2P4O15
_chemical_formula_sum   'Na8 Cr4 P8 O30'
_cell_volume   665.70717980
_cell_formula_units_Z   2
loop_
 _symmetry_equiv_pos_site_id
 _symmetry_equiv_pos_as_xyz
  1  'x, y, z'
loop_
 _atom_site_type_symbol
 _atom_site_label
 _atom_site_symmetry_multiplicity
 _atom_site_fract_x
 _atom_site_fract_y
 _atom_site_fract_z
 _atom_site_occupancy
  Na  Na0  1  0.34140500  0.85584600  0.68029100  1
  Na  Na1  1  0.15859500  0.85584600  0.18029100  1
  Na  Na2  1  0.65859500  0.14415400  0.31970900  1
  Na  Na3  1  0.84140500  0.14415400  0.81970900  1
  Na  Na4  1  0.53549100  0.84594300  0.21348900  1
  Na  Na5  1  0.96450900  0.84594300  0.71348900  1
  Na  Na6  1  0.46450900  0.15405700  0.78651100  1
  Na  Na7  1  0.03549100  0.15405700  0.28651100  1
  Cr  Cr0  1  0.24395000  0.36968100  0.94747100  1
  Cr  Cr1  1  0.25605000  0.36968100  0.44747100  1
  Cr  Cr2  1  0.75605000  0.63031900  0.05252900  1
  Cr  Cr3  1  0.74395000  0.63031900  0.55252900  1
  P  P0  1  0.35357600  0.12876500  0.30003800  1
  P  P1  1  0.14642400  0.12876500  0.80003800  1
  P  P2  1  0.64642400  0.87123500  0.69996200  1
  P  P3  1  0.85357600  0.87123500  0.19996200  1
  P  P4  1  0.37612800  0.58102300  0.10261100  1
  P  P5  1  0.12387200  0.58102300  0.60261100  1
  P  P6  1  0.62387200  0.41897700  0.89738900  1
  P  P7  1  0.87612800  0.41897700  0.39738900  1
  O  O0  1  0.25421700  0.14434600  0.17977200  1
  O  O1  1  0.24578300  0.14434600  0.67977200  1
  O  O2  1  0.74578300  0.85565400  0.82022800  1
  O  O3  1  0.75421700  0.85565400  0.32022800  1
  O  O4  1  0.44140400  0.34554700  0.20963400  1
  O  O5  1  0.05859600  0.34554700  0.70963400  1
  O  O6  1  0.55859600  0.65445300  0.79036600  1
  O  O7  1  0.94140400  0.65445300  0.29036600  1
  O  O8  1  0.22966400  0.12716100  0.92516200  1
  O  O9  1  0.27033600  0.12716100  0.42516200  1
  O  O10  1  0.77033600  0.87283900  0.07483800  1
  O  O11  1  0.72966400  0.87283900  0.57483800  1
  O  O12  1  0.45746000  0.95889400  0.36200800  1
  O  O13  1  0.04254000  0.95889400  0.86200800  1
  O  O14  1  0.54254000  0.04110600  0.63799200  1
  O  O15  1  0.95746000  0.04110600  0.13799200  1
  O  O16  1  0.22812300  0.58158200  0.71240300  1
  O  O17  1  0.27187700  0.58158200  0.21240300  1
  O  O18  1  0.77187700  0.41841800  0.28759700  1
  O  O19  1  0.72812300  0.41841800  0.78759700  1
  O  O20  1  0.30654300  0.60116900  0.96352500  1
  O  O21  1  0.19345700  0.60116900  0.46352500  1
  O  O22  1  0.69345700  0.39883100  0.03647500  1
  O  O23  1  0.80654300  0.39883100  0.53647500  1
  O  O24  1  0.49252500  0.73133800  0.05603300  1
  O  O25  1  0.00747500  0.73133800  0.55603300  1
  O  O26  1  0.50747500  0.26866200  0.94396700  1
  O  O27  1  0.99252500  0.26866200  0.44396700  1
  O  O28  1  0.50000000  0.50000000  0.50000000  1
  O  O29  1  0.00000000  0.50000000  0.00000000  1
loop_
_geom_bond_atom_site_label_1
_geom_bond_atom_site_label_2
_geom_bond_distance
_geom_bond_site_symmetry_2
Na0 O16 2.274368 1_555
Na0 O14 2.348325 1_565
Na0 O9 2.366603 1_565
Na0 O1 2.455040 1_565
Na0 O20 2.466129 1_555
Na0 O6 2.514244 1_555
Na1 O17 2.274368 1_555
Na1 O15 2.348325 1_465
Na1 O8 2.366603 1_564
Na1 O0 2.455040 1_565
Na1 O21 2.466129 1_555
Na1 O7 2.514244 1_455
Na2 O18 2.274368 1_555
Na2 O12 2.348325 1_545
Na2 O11 2.366603 1_545
Na2 O3 2.455040 1_545
Na2 O22 2.466129 1_555
Na2 O4 2.514244 1_555
Na3 O19 2.274368 1_555
Na3 O13 2.348325 1_645
Na3 O10 2.366603 1_546
Na3 O2 2.455040 1_545
Na3 O23 2.466129 1_555
Na3 O5 2.514244 1_655
Na4 O12 2.332816 1_555
Na4 O24 2.340219 1_555
Na4 O3 2.456762 1_555
Na4 O28 2.662379 1_555
Na4 O10 2.682764 1_555
Na4 O26 2.867185 1_564
Na5 O13 2.332816 1_655
Na5 O25 2.340219 1_655
Na5 O2 2.456762 1_555
Na5 O29 2.662379 1_656
Na5 O11 2.682764 1_555
Na5 O27 2.867185 1_565
Na6 O14 2.332816 1_555
Na6 O26 2.340219 1_555
Na6 O1 2.456762 1_555
Na6 O28 2.662379 1_555
Na6 O8 2.682764 1_555
Na6 O24 2.867185 1_546
Na7 O15 2.332816 1_455
Na7 O27 2.340219 1_455
Na7 O0 2.456762 1_555
Na7 O29 2.662379 1_555
Na7 O9 2.682764 1_555
Na7 O25 2.867185 1_545
Cr0 O20 2.020829 1_555
Cr0 O0 2.023839 1_556
Cr0 O16 2.033185 1_555
Cr0 O8 2.057802 1_555
Cr0 O26 2.727999 1_555
Cr1 O21 2.020829 1_555
Cr1 O1 2.023839 1_555
Cr1 O17 2.033185 1_555
Cr1 O9 2.057802 1_555
Cr1 O27 2.727999 1_455
Cr2 O22 2.020829 1_555
Cr2 O2 2.023839 1_554
Cr2 O18 2.033185 1_555
Cr2 O10 2.057802 1_555
Cr2 O24 2.727999 1_555
Cr3 O23 2.020829 1_555
Cr3 O3 2.023839 1_555
Cr3 O19 2.033185 1_555
Cr3 O11 2.057802 1_555
Cr3 O25 2.727999 1_655
O0 P0 1.549471 1_555
O1 P1 1.549471 1_555
O2 P2 1.549471 1_555
O3 P3 1.549471 1_555
O4 P0 1.637140 1_555
O4 P4 1.640408 1_555
O5 P1 1.637140 1_555
O5 P5 1.640408 1_555
O6 P2 1.637140 1_555
O6 P6 1.640408 1_555
O7 P3 1.637140 1_555
O7 P7 1.640408 1_555
O8 P1 1.546593 1_555
O9 P0 1.546593 1_555
O10 P3 1.546593 1_555
O11 P2 1.546593 1_555
O12 P0 1.500313 1_565
O13 P1 1.500313 1_565
O14 P2 1.500313 1_545
O15 P3 1.500313 1_545
O16 P5 1.549899 1_555
O17 P4 1.549899 1_555
O18 P7 1.549899 1_555
O19 P6 1.549899 1_555
O20 P4 1.540080 1_556
O21 P5 1.540080 1_555
O22 P6 1.540080 1_554
O23 P7 1.540080 1_555
O24 P4 1.512118 1_555
O25 P5 1.512118 1_555
O26 P6 1.512118 1_555
O27 P7 1.512118 1_555
