# generated using pymatgen
data_Mg(VN)2
_symmetry_space_group_name_H-M   'P 1'
_cell_length_a   3.10901400
_cell_length_b   3.10901400
_cell_length_c   7.17365500
_cell_angle_alpha   90.00000000
_cell_angle_beta   90.00000000
_cell_angle_gamma   90.00000000
_symmetry_Int_Tables_number   1
_chemical_formula_structural   Mg(VN)2
_chemical_formula_sum   'Mg1 V2 N2'
_cell_volume   69.34032005
_cell_formula_units_Z   1
loop_
 _symmetry_equiv_pos_site_id
 _symmetry_equiv_pos_as_xyz
  1  'x, y, z'
loop_
 _atom_site_type_symbol
 _atom_site_label
 _atom_site_symmetry_multiplicity
 _atom_site_fract_x
 _atom_site_fract_y
 _atom_site_fract_z
 _atom_site_occupancy
  Mg  Mg0  1  0.00000000  0.00000000  0.00000000  1
  V  V0  1  0.50000000  0.50000000  0.67141700  1
  V  V1  1  0.50000000  0.50000000  0.32858300  1
  N  N0  1  0.50000000  0.00000000  0.19026800  1
  N  N1  1  0.00000000  0.50000000  0.80973200  1
loop_
_geom_bond_atom_site_label_1
_geom_bond_atom_site_label_2
_geom_bond_distance
_geom_bond_site_symmetry_2
Mg0 N0 2.068693 1_455
Mg0 N1 2.068693 1_544
Mg0 N1 2.068693 1_554
Mg0 N0 2.068693 1_555
N0 V1 1.844180 1_555
N0 V1 1.844180 1_545
N1 V0 1.844180 1_555
N1 V0 1.844180 1_455
