# generated using pymatgen
data_LiHfMg6O7
_symmetry_space_group_name_H-M   'P 1'
_cell_length_a   8.79114137
_cell_length_b   4.28410962
_cell_length_c   4.28410962
_cell_angle_alpha   90.00000000
_cell_angle_beta   90.00000000
_cell_angle_gamma   90.00000000
_symmetry_Int_Tables_number   1
_chemical_formula_structural   LiHfMg6O7
_chemical_formula_sum   'Li1 Hf1 Mg6 O7'
_cell_volume   161.34905037
_cell_formula_units_Z   1
loop_
 _symmetry_equiv_pos_site_id
 _symmetry_equiv_pos_as_xyz
  1  'x, y, z'
loop_
 _atom_site_type_symbol
 _atom_site_label
 _atom_site_symmetry_multiplicity
 _atom_site_fract_x
 _atom_site_fract_y
 _atom_site_fract_z
 _atom_site_occupancy
  Li  Li0  1  0.98891554  0.00000000  0.00000000  1
  Hf  Hf0  1  0.00080434  0.50000000  0.50000000  1
  Mg  Mg0  1  0.50461091  0.00000000  -0.00000000  1
  Mg  Mg1  1  0.50106426  0.50000000  0.50000000  1
  Mg  Mg2  1  0.25660169  0.00000000  0.50000000  1
  Mg  Mg3  1  0.74635620  0.00000000  0.50000000  1
  Mg  Mg4  1  0.25660169  0.50000000  0.00000000  1
  Mg  Mg5  1  0.74635620  0.50000000  -0.00000000  1
  O  O0  1  0.74247532  0.00000000  0.00000000  1
  O  O1  1  0.25624435  0.50000000  0.50000000  1
  O  O2  1  0.74767790  0.50000000  0.50000000  1
  O  O3  1  0.99755488  0.00000000  0.50000000  1
  O  O4  1  0.50359091  0.00000000  0.50000000  1
  O  O5  1  0.99755488  0.50000000  -0.00000000  1
  O  O6  1  0.50359091  0.50000000  -0.00000000  1
loop_
_geom_bond_atom_site_label_1
_geom_bond_atom_site_label_2
_geom_bond_distance
_geom_bond_site_symmetry_2
Li0 O5 2.143401 1_555
Li0 O3 2.143401 1_555
Li0 O3 2.143401 1_554
Li0 O5 2.143401 1_545
Li0 O0 2.166491 1_555
Hf0 O3 2.142245 1_465
Hf0 O3 2.142245 1_455
Hf0 O5 2.142245 1_456
Hf0 O5 2.142245 1_455
Hf0 O2 2.225270 1_455
Hf0 O1 2.245609 1_555
Mg0 O0 2.091100 1_555
Mg0 O4 2.142074 1_555
Mg0 O4 2.142074 1_554
Mg0 O6 2.142074 1_545
Mg0 O6 2.142074 1_555
Mg1 O4 2.142170 1_555
Mg1 O4 2.142170 1_565
Mg1 O6 2.142170 1_556
Mg1 O6 2.142170 1_555
Mg1 O1 2.152246 1_555
Mg1 O2 2.168015 1_555
Mg2 O1 2.142057 1_545
Mg2 O1 2.142057 1_555
Mg2 O4 2.171317 1_555
Mg2 O3 2.277317 1_455
Mg3 O4 2.134184 1_555
Mg3 O2 2.142086 1_555
Mg3 O2 2.142086 1_545
Mg3 O0 2.142326 1_555
Mg3 O0 2.142326 1_556
Mg3 O3 2.208323 1_555
Mg4 O1 2.142057 1_555
Mg4 O1 2.142057 1_554
Mg4 O6 2.171317 1_555
Mg4 O5 2.277317 1_455
Mg5 O6 2.134184 1_555
Mg5 O2 2.142086 1_554
Mg5 O2 2.142086 1_555
Mg5 O0 2.142326 1_565
Mg5 O0 2.142326 1_555
Mg5 O5 2.208323 1_555
