# generated using pymatgen
data_FeHg3
_symmetry_space_group_name_H-M   'P 1'
_cell_length_a   6.43432533
_cell_length_b   6.43432533
_cell_length_c   4.60834800
_cell_angle_alpha   90.00000000
_cell_angle_beta   90.00000000
_cell_angle_gamma   119.99999312
_symmetry_Int_Tables_number   1
_chemical_formula_structural   FeHg3
_chemical_formula_sum   'Fe2 Hg6'
_cell_volume   165.22735892
_cell_formula_units_Z   2
loop_
 _symmetry_equiv_pos_site_id
 _symmetry_equiv_pos_as_xyz
  1  'x, y, z'
loop_
 _atom_site_type_symbol
 _atom_site_label
 _atom_site_symmetry_multiplicity
 _atom_site_fract_x
 _atom_site_fract_y
 _atom_site_fract_z
 _atom_site_occupancy
  Fe  Fe0  1  0.33333300  0.66666700  0.75000000  1
  Fe  Fe1  1  0.66666700  0.33333300  0.25000000  1
  Hg  Hg0  1  0.17443800  0.34887600  0.25000000  1
  Hg  Hg1  1  0.65112400  0.82556200  0.25000000  1
  Hg  Hg2  1  0.17443800  0.82556200  0.25000000  1
  Hg  Hg3  1  0.82556200  0.65112400  0.75000000  1
  Hg  Hg4  1  0.34887600  0.17443800  0.75000000  1
  Hg  Hg5  1  0.82556200  0.17443800  0.75000000  1
loop_
_geom_bond_atom_site_label_1
_geom_bond_atom_site_label_2
_geom_bond_distance
_geom_bond_site_symmetry_2
Fe0 Hg2 2.906030 1_556
Fe0 Hg2 2.906030 1_555
Fe0 Hg1 2.906034 1_556
Fe0 Hg1 2.906034 1_555
Fe0 Hg0 2.906034 1_556
Fe0 Hg0 2.906034 1_555
Fe0 Hg4 3.218325 1_565
Fe0 Hg3 3.218325 1_455
Fe0 Hg5 3.218328 1_565
Fe0 Hg5 3.218328 1_455
Fe0 Hg4 3.218331 1_555
Fe0 Hg3 3.218331 1_555
Fe1 Hg5 2.906030 1_555
Fe1 Hg5 2.906030 1_554
Fe1 Hg3 2.906034 1_555
Fe1 Hg3 2.906034 1_554
Fe1 Hg4 2.906034 1_555
Fe1 Hg4 2.906034 1_554
Fe1 Hg1 3.218325 1_545
Fe1 Hg0 3.218325 1_655
Fe1 Hg2 3.218328 1_655
Fe1 Hg2 3.218328 1_545
Fe1 Hg0 3.218331 1_555
Fe1 Hg1 3.218331 1_555
Hg0 Hg4 3.014714 1_555
Hg0 Hg4 3.014714 1_554
Hg0 Hg5 3.014714 1_454
Hg0 Hg5 3.014714 1_455
Hg0 Hg2 3.067153 1_555
Hg0 Hg1 3.067153 1_555
Hg0 Hg2 3.367173 1_545
Hg0 Hg1 3.367173 1_445
Hg1 Hg3 3.014714 1_555
Hg1 Hg3 3.014714 1_554
Hg1 Hg5 3.014714 1_565
Hg1 Hg5 3.014714 1_564
Hg1 Hg2 3.067153 1_555
Hg1 Hg2 3.367173 1_655
Hg2 Hg4 3.014714 1_564
Hg2 Hg3 3.014714 1_454
Hg2 Hg4 3.014714 1_565
Hg2 Hg3 3.014714 1_455
Hg3 Hg5 3.067153 1_555
Hg3 Hg4 3.067153 1_555
Hg3 Hg5 3.367173 1_565
Hg3 Hg4 3.367173 1_665
Hg4 Hg5 3.067153 1_555
Hg4 Hg5 3.367173 1_455
