# generated using pymatgen
data_UIr
_symmetry_space_group_name_H-M   'P 1'
_cell_length_a   10.63033500
_cell_length_b   5.59781100
_cell_length_c   5.61447109
_cell_angle_alpha   81.61245021
_cell_angle_beta   90.00000000
_cell_angle_gamma   90.00000000
_symmetry_Int_Tables_number   1
_chemical_formula_structural   UIr
_chemical_formula_sum   'U8 Ir8'
_cell_volume   330.52462408
_cell_formula_units_Z   8
loop_
 _symmetry_equiv_pos_site_id
 _symmetry_equiv_pos_as_xyz
  1  'x, y, z'
loop_
 _atom_site_type_symbol
 _atom_site_label
 _atom_site_symmetry_multiplicity
 _atom_site_fract_x
 _atom_site_fract_y
 _atom_site_fract_z
 _atom_site_occupancy
  U  U0  1  0.49614200  0.10266800  0.86871200  1
  U  U1  1  0.99614200  0.89733200  0.13128800  1
  U  U2  1  0.49217700  0.65346000  0.38724900  1
  U  U3  1  0.99217700  0.34654000  0.61275100  1
  U  U4  1  0.22231500  0.40054700  0.14316600  1
  U  U5  1  0.72231500  0.59945300  0.85683400  1
  U  U6  1  0.22525800  0.84332900  0.60436500  1
  U  U7  1  0.72525800  0.15667100  0.39563500  1
  Ir  Ir0  1  0.75798600  0.09481800  0.90127700  1
  Ir  Ir1  1  0.25798600  0.90518200  0.09872300  1
  Ir  Ir2  1  0.75528900  0.66032900  0.34916800  1
  Ir  Ir3  1  0.25528900  0.33967100  0.65083200  1
  Ir  Ir4  1  0.95869000  0.39830400  0.10718700  1
  Ir  Ir5  1  0.45869000  0.60169600  0.89281300  1
  Ir  Ir6  1  0.96014400  0.84669800  0.63861200  1
  Ir  Ir7  1  0.46014400  0.15330200  0.36138800  1
loop_
_geom_bond_atom_site_label_1
_geom_bond_atom_site_label_2
_geom_bond_distance
_geom_bond_site_symmetry_2
Ir0 U0 2.789414 1_555
Ir0 U5 2.824925 1_555
Ir0 U7 2.830828 1_555
Ir0 U5 2.845560 1_545
Ir0 U7 2.867928 1_556
Ir0 U1 2.980386 1_546
Ir0 Ir6 3.052823 1_545
Ir0 Ir4 3.057391 1_556
Ir0 U3 3.184575 1_555
Ir0 Ir2 3.233516 1_546
Ir1 U1 2.789414 1_455
Ir1 U4 2.824925 1_555
Ir1 U6 2.830828 1_555
Ir1 U4 2.845560 1_565
Ir1 U6 2.867928 1_554
Ir1 U0 2.980386 1_564
Ir1 Ir7 3.052823 1_565
Ir1 Ir5 3.057391 1_554
Ir1 U2 3.184575 1_555
Ir1 Ir3 3.233516 1_564
Ir2 U2 2.804965 1_555
Ir2 U7 2.811460 1_555
Ir2 U5 2.842482 1_555
Ir2 U7 2.846245 1_565
Ir2 U5 2.855621 1_554
Ir2 Ir6 2.994351 1_555
Ir2 Ir4 3.041996 1_555
Ir2 U1 3.055889 1_555
Ir2 U3 3.295211 1_555
Ir3 U3 2.804965 1_455
Ir3 U6 2.811460 1_555
Ir3 U4 2.842482 1_555
Ir3 U6 2.846245 1_545
Ir3 U4 2.855621 1_556
Ir3 Ir7 2.994351 1_555
Ir3 Ir5 3.041996 1_555
Ir3 U0 3.055889 1_555
Ir3 U2 3.295211 1_555
Ir4 U4 2.809853 1_655
Ir4 U1 2.816109 1_545
Ir4 U3 2.833315 1_555
Ir4 U1 2.844386 1_555
Ir4 U3 2.855085 1_554
Ir4 U5 3.015913 1_554
Ir4 U7 3.157670 1_555
Ir4 Ir6 3.360823 1_554
Ir5 U5 2.809853 1_555
Ir5 U0 2.816109 1_565
Ir5 U2 2.833315 1_555
Ir5 U0 2.844386 1_555
Ir5 U2 2.855085 1_556
Ir5 U4 3.015913 1_556
Ir5 U6 3.157670 1_555
Ir5 Ir7 3.360823 1_556
Ir6 U3 2.801328 1_565
Ir6 U6 2.825052 1_655
Ir6 U3 2.845076 1_555
Ir6 U1 2.846819 1_555
Ir6 U1 2.847261 1_556
Ir6 U5 3.051846 1_555
Ir6 U7 3.227359 1_565
Ir7 U2 2.801328 1_545
Ir7 U7 2.825052 1_555
Ir7 U2 2.845076 1_555
Ir7 U0 2.846819 1_555
Ir7 U0 2.847261 1_554
Ir7 U4 3.051846 1_555
Ir7 U6 3.227359 1_545
