# generated using pymatgen
data_Mg3Ge3(SbO6)2
_symmetry_space_group_name_H-M   'P 1'
_cell_length_a   10.95250550
_cell_length_b   10.95250550
_cell_length_c   10.95250550
_cell_angle_alpha   109.47122063
_cell_angle_beta   109.47122063
_cell_angle_gamma   109.47122063
_symmetry_Int_Tables_number   1
_chemical_formula_structural   Mg3Ge3(SbO6)2
_chemical_formula_sum   'Mg12 Ge12 Sb8 O48'
_cell_volume   1011.38975325
_cell_formula_units_Z   4
loop_
 _symmetry_equiv_pos_site_id
 _symmetry_equiv_pos_as_xyz
  1  'x, y, z'
loop_
 _atom_site_type_symbol
 _atom_site_label
 _atom_site_symmetry_multiplicity
 _atom_site_fract_x
 _atom_site_fract_y
 _atom_site_fract_z
 _atom_site_occupancy
  Mg  Mg0  1  0.25000000  0.87500000  0.62500000  1
  Mg  Mg1  1  0.75000000  0.62500000  0.87500000  1
  Mg  Mg2  1  0.62500000  0.87500000  0.75000000  1
  Mg  Mg3  1  0.87500000  0.62500000  0.25000000  1
  Mg  Mg4  1  0.62500000  0.25000000  0.87500000  1
  Mg  Mg5  1  0.87500000  0.75000000  0.62500000  1
  Mg  Mg6  1  0.75000000  0.12500000  0.37500000  1
  Mg  Mg7  1  0.25000000  0.37500000  0.12500000  1
  Mg  Mg8  1  0.37500000  0.12500000  0.25000000  1
  Mg  Mg9  1  0.12500000  0.37500000  0.75000000  1
  Mg  Mg10  1  0.37500000  0.75000000  0.12500000  1
  Mg  Mg11  1  0.12500000  0.25000000  0.37500000  1
  Ge  Ge0  1  0.12500000  0.75000000  0.87500000  1
  Ge  Ge1  1  0.87500000  0.25000000  0.12500000  1
  Ge  Ge2  1  0.62500000  0.37500000  0.25000000  1
  Ge  Ge3  1  0.75000000  0.87500000  0.12500000  1
  Ge  Ge4  1  0.87500000  0.12500000  0.75000000  1
  Ge  Ge5  1  0.25000000  0.62500000  0.37500000  1
  Ge  Ge6  1  0.75000000  0.37500000  0.62500000  1
  Ge  Ge7  1  0.25000000  0.12500000  0.87500000  1
  Ge  Ge8  1  0.12500000  0.87500000  0.25000000  1
  Ge  Ge9  1  0.37500000  0.62500000  0.75000000  1
  Ge  Ge10  1  0.62500000  0.75000000  0.37500000  1
  Ge  Ge11  1  0.37500000  0.25000000  0.62500000  1
  Sb  Sb0  1  0.50000000  0.50000000  0.50000000  1
  Sb  Sb1  1  0.50000000  0.00000000  0.50000000  1
  Sb  Sb2  1  0.00000000  0.50000000  0.50000000  1
  Sb  Sb3  1  0.50000000  0.50000000  0.00000000  1
  Sb  Sb4  1  0.00000000  0.00000000  0.50000000  1
  Sb  Sb5  1  0.00000000  0.50000000  0.00000000  1
  Sb  Sb6  1  0.50000000  0.00000000  0.00000000  1
  Sb  Sb7  1  0.00000000  0.00000000  0.00000000  1
  O  O0  1  0.40803500  0.80548400  0.77398200  1
  O  O1  1  0.86594600  0.39744900  0.09196400  1
  O  O2  1  0.10255100  0.96849700  0.69451600  1
  O  O3  1  0.53150300  0.63405400  0.72601800  1
  O  O4  1  0.69451600  0.09196400  0.72601800  1
  O  O5  1  0.63405400  0.72601800  0.53150300  1
  O  O6  1  0.63405400  0.40803500  0.10255100  1
  O  O7  1  0.72601800  0.53150300  0.63405400  1
  O  O8  1  0.80548400  0.53150300  0.39744900  1
  O  O9  1  0.96849700  0.77398200  0.86594600  1
  O  O10  1  0.77398200  0.86594600  0.96849700  1
  O  O11  1  0.72601800  0.69451600  0.09196500  1
  O  O12  1  0.40803500  0.10255100  0.63405400  1
  O  O13  1  0.39744900  0.80548400  0.53150300  1
  O  O14  1  0.09196500  0.72601800  0.69451600  1
  O  O15  1  0.10255100  0.63405400  0.40803500  1
  O  O16  1  0.53150300  0.39744900  0.80548400  1
  O  O17  1  0.09196400  0.86594600  0.39744900  1
  O  O18  1  0.96849700  0.69451600  0.10255100  1
  O  O19  1  0.19451600  0.46849700  0.60255100  1
  O  O20  1  0.69451600  0.10255100  0.96849700  1
  O  O21  1  0.77398200  0.40803500  0.80548400  1
  O  O22  1  0.39744900  0.09196400  0.86594600  1
  O  O23  1  0.86594600  0.96849700  0.77398200  1
  O  O24  1  0.59196400  0.19451600  0.22601800  1
  O  O25  1  0.13405400  0.60255100  0.90803500  1
  O  O26  1  0.89744900  0.03150300  0.30548400  1
  O  O27  1  0.46849700  0.36594600  0.27398200  1
  O  O28  1  0.30548400  0.90803500  0.27398200  1
  O  O29  1  0.36594600  0.27398200  0.46849700  1
  O  O30  1  0.36594600  0.59196400  0.89744900  1
  O  O31  1  0.27398200  0.46849700  0.36594600  1
  O  O32  1  0.13405400  0.03150300  0.22601800  1
  O  O33  1  0.60255100  0.90803500  0.13405400  1
  O  O34  1  0.22601800  0.59196400  0.19451600  1
  O  O35  1  0.19451600  0.22601800  0.59196500  1
  O  O36  1  0.30548400  0.89744900  0.03150300  1
  O  O37  1  0.03150300  0.30548400  0.89744900  1
  O  O38  1  0.90803500  0.13405400  0.60255100  1
  O  O39  1  0.46849700  0.60255100  0.19451600  1
  O  O40  1  0.89744900  0.36594600  0.59196500  1
  O  O41  1  0.90803500  0.27398200  0.30548400  1
  O  O42  1  0.60255100  0.19451600  0.46849700  1
  O  O43  1  0.59196400  0.89744900  0.36594600  1
  O  O44  1  0.27398200  0.30548400  0.90803500  1
  O  O45  1  0.22601800  0.13405400  0.03150300  1
  O  O46  1  0.03150300  0.22601800  0.13405400  1
  O  O47  1  0.80548400  0.77398200  0.40803500  1
loop_
_geom_bond_atom_site_label_1
_geom_bond_atom_site_label_2
_geom_bond_distance
_geom_bond_site_symmetry_2
Mg0 O22 2.374604 1_565
Mg0 O2 2.374609 1_555
Mg0 O15 2.374609 1_555
Mg0 O13 2.374609 1_555
Mg0 O12 2.462124 1_565
Mg0 O17 2.462128 1_555
Mg0 O0 2.462130 1_555
Mg0 O14 2.462130 1_555
Mg1 O10 2.374604 1_555
Mg1 O7 2.374604 1_555
Mg1 O21 2.374615 1_555
Mg1 O11 2.374615 1_556
Mg1 O18 2.462124 1_556
Mg1 O16 2.462124 1_555
Mg1 O3 2.462128 1_555
Mg1 O9 2.462128 1_555
Mg2 O3 2.374604 1_555
Mg2 O23 2.374604 1_555
Mg2 O4 2.374604 1_565
Mg2 O0 2.374615 1_555
Mg2 O13 2.462124 1_555
Mg2 O20 2.462124 1_565
Mg2 O5 2.462128 1_555
Mg2 O10 2.462128 1_555
Mg3 O17 2.374604 1_655
Mg3 O6 2.374609 1_555
Mg3 O8 2.374609 1_555
Mg3 O18 2.374609 1_555
Mg3 O15 2.462124 1_655
Mg3 O1 2.462128 1_555
Mg3 O11 2.462130 1_555
Mg3 O47 2.462130 1_555
Mg4 O1 2.374604 1_556
Mg4 O12 2.374609 1_555
Mg4 O20 2.374609 1_555
Mg4 O16 2.374609 1_555
Mg4 O6 2.462124 1_556
Mg4 O22 2.462128 1_555
Mg4 O21 2.462130 1_555
Mg4 O4 2.462136 1_555
Mg5 O5 2.374604 1_555
Mg5 O9 2.374604 1_555
Mg5 O47 2.374615 1_555
Mg5 O14 2.374615 1_655
Mg5 O8 2.462124 1_555
Mg5 O2 2.462124 1_655
Mg5 O23 2.462128 1_555
Mg5 O7 2.462128 1_555
Mg6 O40 2.374609 1_555
Mg6 O33 2.374609 1_545
Mg6 O42 2.374609 1_555
Mg6 O26 2.374609 1_555
Mg6 O38 2.462124 1_555
Mg6 O43 2.462128 1_545
Mg6 O41 2.462130 1_555
Mg6 O24 2.462136 1_555
Mg7 O45 2.374604 1_555
Mg7 O31 2.374604 1_555
Mg7 O34 2.374604 1_555
Mg7 O44 2.374615 1_554
Mg7 O37 2.462124 1_554
Mg7 O39 2.462124 1_555
Mg7 O46 2.462128 1_555
Mg7 O27 2.462128 1_555
Mg8 O32 2.374604 1_555
Mg8 O27 2.374604 1_555
Mg8 O24 2.374604 1_555
Mg8 O28 2.374615 1_545
Mg8 O36 2.462124 1_545
Mg8 O42 2.462124 1_555
Mg8 O29 2.462128 1_555
Mg8 O45 2.462128 1_555
Mg9 O30 2.374604 1_555
Mg9 O38 2.374609 1_455
Mg9 O19 2.374609 1_555
Mg9 O37 2.374609 1_555
Mg9 O25 2.462124 1_555
Mg9 O40 2.462124 1_455
Mg9 O35 2.462130 1_555
Mg9 O44 2.462130 1_555
Mg10 O43 2.374604 1_555
Mg10 O25 2.374609 1_554
Mg10 O36 2.374609 1_555
Mg10 O39 2.374609 1_555
Mg10 O33 2.462124 1_555
Mg10 O30 2.462128 1_554
Mg10 O28 2.462130 1_555
Mg10 O34 2.462136 1_555
Mg11 O29 2.374604 1_555
Mg11 O46 2.374604 1_555
Mg11 O41 2.374615 1_455
Mg11 O35 2.374615 1_555
Mg11 O26 2.462124 1_455
Mg11 O19 2.462124 1_555
Mg11 O31 2.462128 1_555
Mg11 O32 2.462128 1_555
Ge0 O14 1.794752 1_555
Ge0 O36 1.794755 1_556
Ge0 O25 1.794755 1_555
Ge0 O9 1.794760 1_455
Ge1 O41 1.794752 1_555
Ge1 O20 1.794755 1_554
Ge1 O1 1.794760 1_555
Ge1 O46 1.794760 1_655
Ge2 O24 1.794749 1_555
Ge2 O6 1.794755 1_555
Ge2 O8 1.794755 1_555
Ge2 O27 1.794760 1_555
Ge3 O11 1.794752 1_555
Ge3 O26 1.794755 1_565
Ge3 O33 1.794755 1_555
Ge3 O10 1.794760 1_554
Ge4 O4 1.794749 1_555
Ge4 O37 1.794755 1_655
Ge4 O38 1.794755 1_555
Ge4 O23 1.794760 1_545
Ge5 O34 1.794749 1_555
Ge5 O15 1.794755 1_555
Ge5 O13 1.794755 1_555
Ge5 O31 1.794760 1_555
Ge6 O21 1.794752 1_555
Ge6 O42 1.794755 1_555
Ge6 O40 1.794755 1_555
Ge6 O7 1.794760 1_555
Ge7 O44 1.794752 1_555
Ge7 O2 1.794755 1_545
Ge7 O22 1.794760 1_555
Ge7 O45 1.794760 1_556
Ge8 O28 1.794752 1_555
Ge8 O18 1.794755 1_455
Ge8 O17 1.794760 1_555
Ge8 O32 1.794760 1_565
Ge9 O0 1.794752 1_555
Ge9 O19 1.794755 1_555
Ge9 O3 1.794760 1_555
Ge9 O30 1.794760 1_555
Ge10 O47 1.794752 1_555
Ge10 O39 1.794755 1_555
Ge10 O5 1.794760 1_555
Ge10 O43 1.794760 1_555
Ge11 O35 1.794752 1_555
Ge11 O12 1.794755 1_555
Ge11 O16 1.794755 1_555
Ge11 O29 1.794760 1_555
O0 Sb6 2.252220 1_566
O1 Sb5 2.252218 1_655
O2 Sb4 2.252227 1_565
O3 Sb0 2.252218 1_555
O4 Sb1 2.252223 1_555
O5 Sb0 2.252218 1_555
O6 Sb3 2.252227 1_555
O7 Sb0 2.252218 1_555
O8 Sb2 2.252227 1_655
O9 Sb7 2.252218 1_666
O10 Sb7 2.252218 1_666
O11 Sb3 2.252220 1_555
O12 Sb1 2.252227 1_555
O13 Sb1 2.252227 1_565
O14 Sb2 2.252220 1_555
O15 Sb2 2.252227 1_555
O16 Sb3 2.252227 1_556
O17 Sb4 2.252218 1_565
O18 Sb5 2.252227 1_655
O19 Sb2 2.252227 1_555
O20 Sb6 2.252227 1_556
O21 Sb5 2.252220 1_656
O22 Sb6 2.252218 1_556
O23 Sb7 2.252218 1_666
O24 Sb6 2.252223 1_555
O25 Sb5 2.252227 1_556
O26 Sb4 2.252227 1_655
O27 Sb0 2.252218 1_555
O28 Sb1 2.252220 1_565
O29 Sb0 2.252218 1_555
O30 Sb3 2.252218 1_556
O31 Sb0 2.252218 1_555
O32 Sb7 2.252218 1_555
O33 Sb6 2.252227 1_565
O34 Sb5 2.252223 1_555
O35 Sb4 2.252220 1_555
O36 Sb6 2.252227 1_565
O37 Sb5 2.252227 1_556
O38 Sb4 2.252227 1_655
O39 Sb3 2.252227 1_555
O40 Sb2 2.252227 1_655
O41 Sb2 2.252220 1_655
O42 Sb1 2.252227 1_555
O43 Sb1 2.252218 1_565
O44 Sb3 2.252220 1_556
O45 Sb7 2.252218 1_555
O46 Sb7 2.252218 1_555
O47 Sb4 2.252220 1_665
