# generated using pymatgen
data_Mg2V3O8
_symmetry_space_group_name_H-M   'P 1'
_cell_length_a   5.90733236
_cell_length_b   5.90733236
_cell_length_c   9.52168700
_cell_angle_alpha   90.00000000
_cell_angle_beta   90.00000000
_cell_angle_gamma   120.00000407
_symmetry_Int_Tables_number   1
_chemical_formula_structural   Mg2V3O8
_chemical_formula_sum   'Mg4 V6 O16'
_cell_volume   287.75794766
_cell_formula_units_Z   2
loop_
 _symmetry_equiv_pos_site_id
 _symmetry_equiv_pos_as_xyz
  1  'x, y, z'
loop_
 _atom_site_type_symbol
 _atom_site_label
 _atom_site_symmetry_multiplicity
 _atom_site_fract_x
 _atom_site_fract_y
 _atom_site_fract_z
 _atom_site_occupancy
  Mg  Mg0  1  0.66666700  0.33333300  0.02059000  1
  Mg  Mg1  1  0.33333300  0.66666700  0.52059000  1
  Mg  Mg2  1  0.66666700  0.33333300  0.42149400  1
  Mg  Mg3  1  0.33333300  0.66666700  0.92149400  1
  V  V0  1  0.67487600  0.83743800  0.24376200  1
  V  V1  1  0.83743800  0.16256200  0.74376200  1
  V  V2  1  0.16256200  0.32512400  0.24376200  1
  V  V3  1  0.83743800  0.67487600  0.74376200  1
  V  V4  1  0.32512400  0.16256200  0.74376200  1
  V  V5  1  0.16256200  0.83743800  0.24376200  1
  O  O0  1  0.83523800  0.16476200  0.14772200  1
  O  O1  1  0.67047600  0.83523800  0.64772200  1
  O  O2  1  0.16476200  0.32952400  0.64772200  1
  O  O3  1  0.83523800  0.67047600  0.14772200  1
  O  O4  1  0.32952400  0.16476200  0.14772200  1
  O  O5  1  0.16476200  0.83523800  0.64772200  1
  O  O6  1  0.51796000  0.48204000  0.86372500  1
  O  O7  1  0.03591900  0.51796000  0.36372500  1
  O  O8  1  0.48204000  0.96408100  0.36372500  1
  O  O9  1  0.51796000  0.03591900  0.86372500  1
  O  O10  1  0.00000000  0.00000000  0.35417400  1
  O  O11  1  0.00000000  0.00000000  0.85417400  1
  O  O12  1  0.33333300  0.66666700  0.13161800  1
  O  O13  1  0.96408100  0.48204000  0.86372500  1
  O  O14  1  0.48204000  0.51796000  0.36372500  1
  O  O15  1  0.66666700  0.33333300  0.63161800  1
loop_
_geom_bond_atom_site_label_1
_geom_bond_atom_site_label_2
_geom_bond_distance
_geom_bond_site_symmetry_2
Mg0 O0 2.107183 1_555
Mg0 O4 2.107187 1_555
Mg0 O3 2.107187 1_555
Mg0 O13 2.132131 1_554
Mg0 O9 2.132131 1_554
Mg0 O6 2.132131 1_554
Mg1 O5 2.107183 1_555
Mg1 O1 2.107187 1_555
Mg1 O2 2.107187 1_555
Mg1 O8 2.132131 1_555
Mg1 O7 2.132131 1_555
Mg1 O14 2.132131 1_555
Mg2 O8 1.967510 1_545
Mg2 O7 1.967510 1_655
Mg2 O14 1.967520 1_555
Mg2 O15 2.000735 1_555
Mg3 O13 1.967510 1_455
Mg3 O9 1.967510 1_565
Mg3 O6 1.967520 1_555
Mg3 O12 2.000735 1_556
O0 V0 1.908078 1_545
O0 V2 1.908078 1_655
O1 V1 1.908078 1_565
O1 V3 1.908078 1_555
O2 V1 1.908078 1_455
O2 V4 1.908078 1_555
O3 V5 1.908078 1_655
O3 V0 1.908078 1_555
O4 V5 1.908078 1_545
O4 V2 1.908078 1_555
O5 V3 1.908078 1_455
O5 V4 1.908078 1_565
O6 V3 2.003567 1_555
O6 V4 2.003567 1_555
O7 V5 2.003567 1_555
O7 V2 2.003571 1_555
O8 V5 2.003567 1_555
O8 V0 2.003571 1_555
O9 V1 2.003567 1_555
O9 V4 2.003571 1_555
O10 V2 1.967695 1_555
O10 V0 1.967695 1_445
O10 V5 1.967695 1_545
O11 V4 1.967695 1_555
O11 V3 1.967695 1_445
O11 V1 1.967695 1_455
O12 V5 2.047739 1_555
O12 V0 2.047743 1_555
O12 V2 2.047743 1_555
O13 V1 2.003567 1_555
O13 V3 2.003571 1_555
O14 V0 2.003567 1_555
O14 V2 2.003567 1_555
O15 V1 2.047739 1_555
O15 V3 2.047743 1_555
O15 V4 2.047743 1_555
