# generated using pymatgen
data_HfO3F4
_symmetry_space_group_name_H-M   'P 1'
_cell_length_a   12.12141000
_cell_length_b   6.59959400
_cell_length_c   8.37952638
_cell_angle_alpha   62.99093948
_cell_angle_beta   90.00000000
_cell_angle_gamma   90.00000000
_symmetry_Int_Tables_number   1
_chemical_formula_structural   HfO3F4
_chemical_formula_sum   'Hf4 O12 F16'
_cell_volume   597.22188963
_cell_formula_units_Z   4
loop_
 _symmetry_equiv_pos_site_id
 _symmetry_equiv_pos_as_xyz
  1  'x, y, z'
loop_
 _atom_site_type_symbol
 _atom_site_label
 _atom_site_symmetry_multiplicity
 _atom_site_fract_x
 _atom_site_fract_y
 _atom_site_fract_z
 _atom_site_occupancy
  Hf  Hf0  1  0.54757500  0.75026700  0.49628000  1
  Hf  Hf1  1  0.04757500  0.24973300  0.00372000  1
  Hf  Hf2  1  0.45242500  0.24973300  0.50372000  1
  Hf  Hf3  1  0.95242500  0.75026700  0.99628000  1
  O  O0  1  0.69718700  0.97728900  0.90147700  1
  O  O1  1  0.19718700  0.02271100  0.59852300  1
  O  O2  1  0.30281300  0.02271100  0.09852300  1
  O  O3  1  0.80281300  0.97728900  0.40147700  1
  O  O4  1  0.74904500  0.15615700  0.30906000  1
  O  O5  1  0.24904500  0.84384300  0.19094000  1
  O  O6  1  0.25095500  0.84384300  0.69094000  1
  O  O7  1  0.75095500  0.15615700  0.80906000  1
  O  O8  1  0.74790600  0.78595800  0.49566300  1
  O  O9  1  0.24790600  0.21404200  0.00433700  1
  O  O10  1  0.25209400  0.21404200  0.50433700  1
  O  O11  1  0.75209400  0.78595800  0.99566300  1
  F  F0  1  0.58548500  0.02903400  0.55234800  1
  F  F1  1  0.08548500  0.97096600  0.94765200  1
  F  F2  1  0.41451500  0.97096600  0.44765200  1
  F  F3  1  0.91451500  0.02903400  0.05234800  1
  F  F4  1  0.59061500  0.44896900  0.47342200  1
  F  F5  1  0.09061500  0.55103100  0.02657800  1
  F  F6  1  0.40938500  0.55103100  0.52657800  1
  F  F7  1  0.90938500  0.44896900  0.97342200  1
  F  F8  1  0.58765300  0.89641500  0.24589200  1
  F  F9  1  0.08765300  0.10358500  0.25410800  1
  F  F10  1  0.41234700  0.10358500  0.75410800  1
  F  F11  1  0.91234700  0.89641500  0.74589200  1
  F  F12  1  0.59411400  0.57361700  0.74099500  1
  F  F13  1  0.09411400  0.42638300  0.75900500  1
  F  F14  1  0.40588600  0.42638300  0.25900500  1
  F  F15  1  0.90588600  0.57361700  0.24099500  1
loop_
_geom_bond_atom_site_label_1
_geom_bond_atom_site_label_2
_geom_bond_distance
_geom_bond_site_symmetry_2
Hf0 O8 2.439470 1_555
Hf1 O9 2.439470 1_555
Hf2 O10 2.439470 1_555
Hf3 O11 2.439470 1_555
O0 O7 1.260025 1_565
O0 O11 1.324812 1_555
O1 O6 1.260025 1_545
O1 O10 1.324812 1_555
O2 O5 1.260025 1_545
O2 O9 1.324812 1_555
O3 O4 1.260025 1_565
O3 O8 1.324812 1_555
F0 Hf2 2.085620 1_555
F0 Hf0 2.145142 1_545
F1 Hf3 2.085620 1_455
F1 Hf1 2.145142 1_566
F2 Hf0 2.085620 1_555
F2 Hf2 2.145142 1_565
F3 Hf1 2.085620 1_655
F3 Hf3 2.145142 1_544
F4 Hf2 2.072673 1_555
F4 Hf0 2.146789 1_555
F5 Hf3 2.072673 1_454
F5 Hf1 2.146789 1_555
F6 Hf0 2.072673 1_555
F6 Hf2 2.146789 1_555
F7 Hf1 2.072673 1_656
F7 Hf3 2.146789 1_555
F8 Hf0 1.931430 1_555
F9 Hf1 1.931430 1_555
F10 Hf2 1.931430 1_555
F11 Hf3 1.931430 1_555
F12 Hf0 1.926393 1_555
F13 Hf1 1.926393 1_556
F14 Hf2 1.926393 1_555
F15 Hf3 1.926393 1_554
