# generated using pymatgen
data_Ba(Sb3Os)4
_symmetry_space_group_name_H-M   'P 1'
_cell_length_a   8.14511499
_cell_length_b   8.14511499
_cell_length_c   8.14511499
_cell_angle_alpha   109.47122063
_cell_angle_beta   109.47122063
_cell_angle_gamma   109.47122063
_symmetry_Int_Tables_number   1
_chemical_formula_structural   Ba(Sb3Os)4
_chemical_formula_sum   'Ba1 Sb12 Os4'
_cell_volume   415.97743095
_cell_formula_units_Z   1
loop_
 _symmetry_equiv_pos_site_id
 _symmetry_equiv_pos_as_xyz
  1  'x, y, z'
loop_
 _atom_site_type_symbol
 _atom_site_label
 _atom_site_symmetry_multiplicity
 _atom_site_fract_x
 _atom_site_fract_y
 _atom_site_fract_z
 _atom_site_occupancy
  Ba  Ba0  1  -0.00000000  0.00000000  -0.00000000  1
  Sb  Sb0  1  0.34334891  0.18431663  0.84096772  1
  Sb  Sb1  1  0.65665109  0.81568337  0.15903228  1
  Sb  Sb2  1  0.65665109  0.49761781  0.84096772  1
  Sb  Sb3  1  0.34334891  0.50238219  0.15903228  1
  Sb  Sb4  1  0.18431663  0.84096772  0.34334891  1
  Sb  Sb5  1  0.81568337  0.15903228  0.65665109  1
  Sb  Sb6  1  0.49761781  0.84096772  0.65665109  1
  Sb  Sb7  1  0.50238219  0.15903228  0.34334891  1
  Sb  Sb8  1  0.84096772  0.34334891  0.18431663  1
  Sb  Sb9  1  0.15903228  0.65665109  0.81568337  1
  Sb  Sb10  1  0.84096772  0.65665109  0.49761781  1
  Sb  Sb11  1  0.15903228  0.34334891  0.50238219  1
  Os  Os0  1  -0.00000000  0.00000000  0.50000000  1
  Os  Os1  1  0.50000000  0.00000000  -0.00000000  1
  Os  Os2  1  -0.00000000  0.50000000  -0.00000000  1
  Os  Os3  1  0.50000000  0.50000000  0.50000000  1
loop_
_geom_bond_atom_site_label_1
_geom_bond_atom_site_label_2
_geom_bond_distance
_geom_bond_site_symmetry_2
Ba0 Sb5 3.558831 1_454
Ba0 Sb0 3.558831 1_554
Ba0 Sb8 3.558831 1_455
Ba0 Sb9 3.558831 1_544
Ba0 Sb4 3.558831 1_545
Ba0 Sb1 3.558831 1_445
Ba0 Sb11 3.558837 1_555
Ba0 Sb3 3.558837 1_555
Ba0 Sb7 3.558837 1_555
Ba0 Sb6 3.558837 1_444
Ba0 Sb10 3.558837 1_444
Ba0 Sb2 3.558837 1_444
Sb0 Sb2 2.946655 1_555
Sb0 Sb3 2.991456 1_556
Sb1 Sb3 2.946655 1_555
Sb1 Sb2 2.991456 1_554
Sb4 Sb6 2.946655 1_555
Sb4 Sb7 2.991456 1_565
Sb5 Sb7 2.946655 1_555
Sb5 Sb6 2.991456 1_545
Sb10 Sb8 2.946655 1_555
Sb10 Sb9 2.991456 1_655
Sb11 Sb9 2.946655 1_555
Sb11 Sb8 2.991456 1_455
Os0 Sb10 2.651672 1_445
Os0 Sb11 2.651672 1_555
Os0 Sb5 2.651676 1_455
Os0 Sb1 2.651676 1_445
Os0 Sb0 2.651676 1_555
Os0 Sb4 2.651676 1_545
Os1 Sb7 2.651672 1_555
Os1 Sb6 2.651672 1_544
Os1 Sb1 2.651676 1_545
Os1 Sb9 2.651676 1_544
Os1 Sb8 2.651676 1_555
Os1 Sb0 2.651676 1_554
Os2 Sb2 2.651672 1_454
Os2 Sb3 2.651672 1_555
Os2 Sb5 2.651676 1_454
Os2 Sb9 2.651676 1_554
Os2 Sb8 2.651676 1_455
Os2 Sb4 2.651676 1_555
Os3 Sb7 2.651680 1_555
Os3 Sb11 2.651680 1_555
Os3 Sb3 2.651680 1_555
Os3 Sb2 2.651680 1_555
Os3 Sb6 2.651680 1_555
Os3 Sb10 2.651680 1_555
