# generated using pymatgen
data_Y6Al43W4
_symmetry_space_group_name_H-M   'P 1'
_cell_length_a   11.07069825
_cell_length_b   11.07069825
_cell_length_c   17.60941000
_cell_angle_alpha   90.00000000
_cell_angle_beta   90.00000000
_cell_angle_gamma   120.00000152
_symmetry_Int_Tables_number   1
_chemical_formula_structural   Y6Al43W4
_chemical_formula_sum   'Y12 Al86 W8'
_cell_volume   1869.06953059
_cell_formula_units_Z   2
loop_
 _symmetry_equiv_pos_site_id
 _symmetry_equiv_pos_as_xyz
  1  'x, y, z'
loop_
 _atom_site_type_symbol
 _atom_site_label
 _atom_site_symmetry_multiplicity
 _atom_site_fract_x
 _atom_site_fract_y
 _atom_site_fract_z
 _atom_site_occupancy
  Y  Y0  1  0.46870300  0.46870300  0.90429100  1
  Y  Y1  1  0.53129700  0.00000000  0.90429100  1
  Y  Y2  1  0.00000000  0.53129700  0.90429100  1
  Y  Y3  1  0.53129700  0.53129700  0.09570900  1
  Y  Y4  1  0.46870300  0.00000000  0.09570900  1
  Y  Y5  1  0.00000000  0.46870300  0.09570900  1
  Y  Y6  1  0.53129700  0.53129700  0.40429100  1
  Y  Y7  1  0.46870300  0.00000000  0.40429100  1
  Y  Y8  1  0.00000000  0.46870300  0.40429100  1
  Y  Y9  1  0.46870300  0.46870300  0.59570900  1
  Y  Y10  1  0.53129700  0.00000000  0.59570900  1
  Y  Y11  1  0.00000000  0.53129700  0.59570900  1
  Al  Al0  1  0.84181100  0.23655800  0.83638800  1
  Al  Al1  1  0.76344200  0.60525300  0.83638800  1
  Al  Al2  1  0.39474700  0.15818900  0.83638800  1
  Al  Al3  1  0.23655800  0.84181100  0.83638800  1
  Al  Al4  1  0.60525300  0.76344200  0.83638800  1
  Al  Al5  1  0.15818900  0.39474700  0.83638800  1
  Al  Al6  1  0.15818900  0.76344200  0.16361200  1
  Al  Al7  1  0.23655800  0.39474700  0.16361200  1
  Al  Al8  1  0.60525300  0.84181100  0.16361200  1
  Al  Al9  1  0.76344200  0.15818900  0.16361200  1
  Al  Al10  1  0.39474700  0.23655800  0.16361200  1
  Al  Al11  1  0.84181100  0.60525300  0.16361200  1
  Al  Al12  1  0.15818900  0.76344200  0.33638800  1
  Al  Al13  1  0.23655800  0.39474700  0.33638800  1
  Al  Al14  1  0.60525300  0.84181100  0.33638800  1
  Al  Al15  1  0.76344200  0.15818900  0.33638800  1
  Al  Al16  1  0.39474700  0.23655800  0.33638800  1
  Al  Al17  1  0.84181100  0.60525300  0.33638800  1
  Al  Al18  1  0.84181100  0.23655800  0.66361200  1
  Al  Al19  1  0.76344200  0.60525300  0.66361200  1
  Al  Al20  1  0.39474700  0.15818900  0.66361200  1
  Al  Al21  1  0.23655800  0.84181100  0.66361200  1
  Al  Al22  1  0.60525300  0.76344200  0.66361200  1
  Al  Al23  1  0.15818900  0.39474700  0.66361200  1
  Al  Al24  1  0.84052000  0.84052000  0.38540500  1
  Al  Al25  1  0.15948000  0.00000000  0.38540500  1
  Al  Al26  1  0.00000000  0.15948000  0.38540500  1
  Al  Al27  1  0.15948000  0.15948000  0.61459500  1
  Al  Al28  1  0.84052000  0.00000000  0.61459500  1
  Al  Al29  1  0.00000000  0.84052000  0.61459500  1
  Al  Al30  1  0.15948000  0.15948000  0.88540500  1
  Al  Al31  1  0.84052000  0.00000000  0.88540500  1
  Al  Al32  1  0.00000000  0.84052000  0.88540500  1
  Al  Al33  1  0.84052000  0.84052000  0.11459500  1
  Al  Al34  1  0.15948000  0.00000000  0.11459500  1
  Al  Al35  1  0.00000000  0.15948000  0.11459500  1
  Al  Al36  1  0.74584000  0.74584000  0.96956200  1
  Al  Al37  1  0.25416000  0.00000000  0.96956200  1
  Al  Al38  1  0.00000000  0.25416000  0.96956200  1
  Al  Al39  1  0.25416000  0.25416000  0.03043800  1
  Al  Al40  1  0.74584000  0.00000000  0.03043800  1
  Al  Al41  1  0.00000000  0.74584000  0.03043800  1
  Al  Al42  1  0.25416000  0.25416000  0.46956200  1
  Al  Al43  1  0.74584000  0.00000000  0.46956200  1
  Al  Al44  1  0.00000000  0.74584000  0.46956200  1
  Al  Al45  1  0.74584000  0.74584000  0.53043800  1
  Al  Al46  1  0.25416000  0.00000000  0.53043800  1
  Al  Al47  1  0.00000000  0.25416000  0.53043800  1
  Al  Al48  1  0.85288400  0.44846900  0.75000000  1
  Al  Al49  1  0.55153100  0.40441400  0.75000000  1
  Al  Al50  1  0.59558600  0.14711600  0.75000000  1
  Al  Al51  1  0.44846900  0.85288400  0.75000000  1
  Al  Al52  1  0.40441400  0.55153100  0.75000000  1
  Al  Al53  1  0.14711600  0.59558600  0.75000000  1
  Al  Al54  1  0.14711600  0.55153100  0.25000000  1
  Al  Al55  1  0.44846900  0.59558600  0.25000000  1
  Al  Al56  1  0.40441400  0.85288400  0.25000000  1
  Al  Al57  1  0.55153100  0.14711600  0.25000000  1
  Al  Al58  1  0.59558600  0.44846900  0.25000000  1
  Al  Al59  1  0.85288400  0.40441400  0.25000000  1
  Al  Al60  1  0.75299500  0.24700500  0.00000000  1
  Al  Al61  1  0.75299500  0.50598900  0.00000000  1
  Al  Al62  1  0.49401100  0.24700500  0.00000000  1
  Al  Al63  1  0.24700500  0.75299500  0.00000000  1
  Al  Al64  1  0.50598900  0.75299500  0.00000000  1
  Al  Al65  1  0.24700500  0.49401100  0.00000000  1
  Al  Al66  1  0.24700500  0.75299500  0.50000000  1
  Al  Al67  1  0.24700500  0.49401100  0.50000000  1
  Al  Al68  1  0.50598900  0.75299500  0.50000000  1
  Al  Al69  1  0.75299500  0.24700500  0.50000000  1
  Al  Al70  1  0.49401100  0.24700500  0.50000000  1
  Al  Al71  1  0.75299500  0.50598900  0.50000000  1
  Al  Al72  1  0.66666700  0.33333300  0.87390300  1
  Al  Al73  1  0.33333300  0.66666700  0.87390300  1
  Al  Al74  1  0.33333300  0.66666700  0.12609700  1
  Al  Al75  1  0.66666700  0.33333300  0.12609700  1
  Al  Al76  1  0.33333300  0.66666700  0.37390300  1
  Al  Al77  1  0.66666700  0.33333300  0.37390300  1
  Al  Al78  1  0.66666700  0.33333300  0.62609700  1
  Al  Al79  1  0.33333300  0.66666700  0.62609700  1
  Al  Al80  1  0.85235600  0.85235600  0.75000000  1
  Al  Al81  1  0.14764400  0.00000000  0.75000000  1
  Al  Al82  1  0.00000000  0.14764400  0.75000000  1
  Al  Al83  1  0.14764400  0.14764400  0.25000000  1
  Al  Al84  1  0.85235600  0.00000000  0.25000000  1
  Al  Al85  1  0.00000000  0.85235600  0.25000000  1
  W  W0  1  0.27097100  0.27097100  0.75000000  1
  W  W1  1  0.72902900  0.00000000  0.75000000  1
  W  W2  1  0.00000000  0.72902900  0.75000000  1
  W  W3  1  0.72902900  0.72902900  0.25000000  1
  W  W4  1  0.27097100  0.00000000  0.25000000  1
  W  W5  1  0.00000000  0.27097100  0.25000000  1
  W  W6  1  0.00000000  0.00000000  0.00000000  1
  W  W7  1  0.00000000  0.00000000  0.50000000  1
loop_
_geom_bond_atom_site_label_1
_geom_bond_atom_site_label_2
_geom_bond_distance
_geom_bond_site_symmetry_2
Y0 Y3 3.441250 1_556
Y1 Y4 3.441250 1_556
Y2 Y5 3.441250 1_556
Y6 Y9 3.441250 1_555
Y10 Y7 3.441250 1_555
Y11 Y8 3.441250 1_555
Al0 Al72 2.724184 1_555
Al0 W1 2.731613 1_555
Al0 Al48 2.746879 1_555
Al0 Al31 2.750684 1_555
Al0 Al50 2.833011 1_555
Al0 Al82 2.841454 1_655
Al0 Al38 2.874578 1_655
Al0 Al5 3.033276 1_655
Al0 Al18 3.042483 1_555
Al0 Al60 3.065075 1_556
Al0 Y2 3.070722 1_655
Al0 Y1 3.332077 1_555
Al1 Al72 2.724194 1_555
Al1 W2 2.731613 1_655
Al1 Al49 2.746883 1_555
Al1 Al32 2.750684 1_655
Al1 Al48 2.833020 1_555
Al1 Al80 2.841454 1_555
Al1 Al36 2.874578 1_555
Al1 Al4 3.033276 1_555
Al1 Al19 3.042483 1_555
Al1 Al61 3.065079 1_556
Al1 Y0 3.070722 1_555
Al1 Y2 3.332077 1_655
Al2 Al72 2.724192 1_555
Al2 W0 2.731613 1_555
Al2 Al50 2.746888 1_555
Al2 Al30 2.750684 1_555
Al2 Al49 2.833012 1_555
Al2 Al81 2.841454 1_555
Al2 Al37 2.874578 1_555
Al2 Al3 3.033276 1_545
Al2 Al20 3.042483 1_555
Al2 Al62 3.065077 1_556
Al2 Y1 3.070722 1_555
Al2 Y0 3.332077 1_555
Al3 Al73 2.724184 1_555
Al3 W2 2.731613 1_555
Al3 Al51 2.746879 1_555
Al3 Al32 2.750684 1_555
Al3 Al53 2.833011 1_555
Al3 Al81 2.841454 1_565
Al3 Al37 2.874578 1_565
Al3 Al63 3.065075 1_556
Al3 Y1 3.070722 1_565
Al3 Y2 3.332077 1_555
Al4 Al73 2.724194 1_555
Al4 W1 2.731613 1_565
Al4 Al52 2.746883 1_555
Al4 Al51 2.833020 1_555
Al4 Al80 2.841454 1_555
Al4 Al64 3.065079 1_556
Al4 Y0 3.070722 1_555
Al4 Y1 3.332077 1_565
Al5 Al73 2.724192 1_555
Al5 W0 2.731613 1_555
Al5 Al53 2.746888 1_555
Al5 Al52 2.833012 1_555
Al5 Al82 2.841454 1_555
Al5 Al65 3.065077 1_556
Al5 Y2 3.070722 1_555
Al5 Y0 3.332077 1_555
Al6 Al74 2.724184 1_555
Al6 W4 2.731613 1_565
Al6 Al85 2.841454 1_555
Al6 Al63 3.065075 1_555
Al6 Y5 3.070722 1_555
Al6 Y4 3.332077 1_565
Al7 Al74 2.724194 1_555
Al7 W5 2.731613 1_555
Al7 Al83 2.841454 1_555
Al7 Y3 3.070722 1_555
Al7 Y5 3.332077 1_555
Al8 W3 2.731613 1_555
Al8 Al84 2.841454 1_565
Al8 Al9 3.033276 1_565
Al8 Y4 3.070722 1_565
Al8 Y3 3.332077 1_555
Al9 W5 2.731613 1_655
Al9 Y4 3.070722 1_555
Al9 Y5 3.332077 1_655
Al10 Al75 2.724194 1_555
Al10 W4 2.731613 1_555
Al10 Al58 2.746883 1_555
Al10 Al34 2.750684 1_555
Al10 Al57 2.833020 1_555
Al10 Al83 2.841454 1_555
Al10 Al39 2.874578 1_555
Al10 Al7 3.033276 1_555
Al10 Al16 3.042483 1_555
Al10 Al62 3.065079 1_555
Al10 Y3 3.070722 1_555
Al10 Y4 3.332077 1_555
Al11 Al75 2.724192 1_555
Al11 W3 2.731613 1_555
Al11 Al59 2.746888 1_555
Al11 Al33 2.750684 1_555
Al11 Al58 2.833012 1_555
Al11 Al85 2.841454 1_655
Al11 Al41 2.874578 1_655
Al11 Al6 3.033276 1_655
Al11 Al17 3.042483 1_555
Al11 Al61 3.065077 1_555
Al11 Y5 3.070722 1_655
Al11 Y3 3.332077 1_555
Al12 Al76 2.724184 1_555
Al12 W4 2.731613 1_565
Al12 Al54 2.746879 1_555
Al12 Al25 2.750684 1_565
Al12 Al56 2.833011 1_555
Al12 Al85 2.841454 1_555
Al12 Al44 2.874578 1_555
Al12 Al17 3.033276 1_455
Al12 Al6 3.042483 1_555
Al12 Al66 3.065075 1_555
Al12 Y8 3.070722 1_555
Al12 Y7 3.332077 1_565
Al13 Al76 2.724194 1_555
Al13 W5 2.731613 1_555
Al13 Al55 2.746883 1_555
Al13 Al26 2.750684 1_555
Al13 Al54 2.833020 1_555
Al13 Al83 2.841454 1_555
Al13 Al42 2.874578 1_555
Al13 Al16 3.033276 1_555
Al13 Al7 3.042483 1_555
Al13 Al67 3.065079 1_555
Al13 Y6 3.070722 1_555
Al13 Y8 3.332077 1_555
Al14 Al76 2.724192 1_555
Al14 W3 2.731613 1_555
Al14 Al56 2.746888 1_555
Al14 Al24 2.750684 1_555
Al14 Al55 2.833012 1_555
Al14 Al84 2.841454 1_565
Al14 Al43 2.874578 1_565
Al14 Al15 3.033276 1_565
Al14 Al8 3.042483 1_555
Al14 Al68 3.065077 1_555
Al14 Y7 3.070722 1_565
Al14 Y6 3.332077 1_555
Al15 Al77 2.724184 1_555
Al15 W5 2.731613 1_655
Al15 Al57 2.746879 1_555
Al15 Al26 2.750684 1_655
Al15 Al59 2.833011 1_555
Al15 Al84 2.841454 1_555
Al15 Al43 2.874578 1_555
Al15 Al9 3.042483 1_555
Al15 Al69 3.065075 1_555
Al15 Y7 3.070722 1_555
Al15 Y8 3.332077 1_655
Al16 Al77 2.724194 1_555
Al16 W4 2.731613 1_555
Al16 Al58 2.746883 1_555
Al16 Al25 2.750684 1_555
Al16 Al57 2.833020 1_555
Al16 Al83 2.841454 1_555
Al16 Al42 2.874578 1_555
Al16 Al70 3.065079 1_555
Al16 Y6 3.070722 1_555
Al16 Y7 3.332077 1_555
Al17 Al77 2.724192 1_555
Al17 W3 2.731613 1_555
Al17 Al59 2.746888 1_555
Al17 Al24 2.750684 1_555
Al17 Al58 2.833012 1_555
Al17 Al85 2.841454 1_655
Al17 Al44 2.874578 1_655
Al17 Al71 3.065077 1_555
Al17 Y8 3.070722 1_655
Al17 Y6 3.332077 1_555
Al18 Al78 2.724184 1_555
Al18 W1 2.731613 1_555
Al18 Al48 2.746879 1_555
Al18 Al28 2.750684 1_555
Al18 Al50 2.833011 1_555
Al18 Al82 2.841454 1_655
Al18 Al47 2.874578 1_655
Al18 Al23 3.033276 1_655
Al18 Al69 3.065075 1_555
Al18 Y11 3.070722 1_655
Al18 Y10 3.332077 1_555
Al19 Al78 2.724194 1_555
Al19 W2 2.731613 1_655
Al19 Al49 2.746883 1_555
Al19 Al29 2.750684 1_655
Al19 Al48 2.833020 1_555
Al19 Al80 2.841454 1_555
Al19 Al45 2.874578 1_555
Al19 Al22 3.033276 1_555
Al19 Al71 3.065079 1_555
Al19 Y9 3.070722 1_555
Al19 Y11 3.332077 1_655
Al20 Al78 2.724192 1_555
Al20 W0 2.731613 1_555
Al20 Al50 2.746888 1_555
Al20 Al27 2.750684 1_555
Al20 Al49 2.833012 1_555
Al20 Al81 2.841454 1_555
Al20 Al46 2.874578 1_555
Al20 Al21 3.033276 1_545
Al20 Al70 3.065077 1_555
Al20 Y10 3.070722 1_555
Al20 Y9 3.332077 1_555
Al21 Al79 2.724184 1_555
Al21 W2 2.731613 1_555
Al21 Al51 2.746879 1_555
Al21 Al29 2.750684 1_555
Al21 Al53 2.833011 1_555
Al21 Al81 2.841454 1_565
Al21 Al46 2.874578 1_565
Al21 Al3 3.042483 1_555
Al21 Al66 3.065075 1_555
Al21 Y10 3.070722 1_565
Al21 Y11 3.332077 1_555
Al22 Al79 2.724194 1_555
Al22 W1 2.731613 1_565
Al22 Al52 2.746883 1_555
Al22 Al28 2.750684 1_565
Al22 Al51 2.833020 1_555
Al22 Al80 2.841454 1_555
Al22 Al45 2.874578 1_555
Al22 Al4 3.042483 1_555
Al22 Al68 3.065079 1_555
Al22 Y9 3.070722 1_555
Al22 Y10 3.332077 1_565
Al23 Al79 2.724192 1_555
Al23 W0 2.731613 1_555
Al23 Al53 2.746888 1_555
Al23 Al27 2.750684 1_555
Al23 Al52 2.833012 1_555
Al23 Al82 2.841454 1_555
Al23 Al47 2.874578 1_555
Al23 Al5 3.042483 1_555
Al23 Al67 3.065077 1_555
Al23 Y11 3.070722 1_555
Al23 Y9 3.332077 1_555
Al24 W7 2.681288 1_665
Al24 W3 2.684926 1_555
Al24 Al45 2.760671 1_555
Al24 Al43 2.874483 1_565
Al24 Al44 2.874483 1_655
Al24 Al85 2.930594 1_655
Al24 Al84 2.930594 1_565
Al24 Al26 3.058031 1_665
Al24 Al25 3.058031 1_665
Al24 Y6 3.439431 1_555
Al25 W7 2.681288 1_555
Al25 W4 2.684926 1_555
Al25 Al46 2.760671 1_555
Al25 Al44 2.874483 1_545
Al25 Al42 2.874483 1_555
Al25 Al85 2.930594 1_545
Al25 Al83 2.930594 1_555
Al25 Al26 3.058031 1_555
Al25 Y7 3.439431 1_555
Al26 W7 2.681288 1_555
Al26 W5 2.684926 1_555
Al26 Al47 2.760671 1_555
Al26 Al43 2.874483 1_455
Al26 Al42 2.874483 1_555
Al26 Al84 2.930594 1_455
Al26 Al83 2.930594 1_555
Al26 Y8 3.439431 1_555
Al27 W7 2.681288 1_555
Al27 W0 2.684926 1_555
Al27 Al42 2.760671 1_555
Al27 Al46 2.874483 1_555
Al27 Al47 2.874483 1_555
Al27 Al81 2.930594 1_555
Al27 Al82 2.930594 1_555
Al27 Al29 3.058031 1_545
Al27 Al28 3.058031 1_455
Al27 Y9 3.439431 1_555
Al28 W7 2.681288 1_655
Al28 W1 2.684926 1_555
Al28 Al43 2.760671 1_555
Al28 Al47 2.874483 1_655
Al28 Al45 2.874483 1_545
Al28 Al82 2.930594 1_655
Al28 Al80 2.930594 1_545
Al28 Al29 3.058031 1_645
Al28 Y10 3.439431 1_555
Al29 W7 2.681288 1_565
Al29 W2 2.684926 1_555
Al29 Al44 2.760671 1_555
Al29 Al46 2.874483 1_565
Al29 Al45 2.874483 1_455
Al29 Al81 2.930594 1_565
Al29 Al80 2.930594 1_455
Al29 Y11 3.439431 1_555
Al30 W6 2.681288 1_556
Al30 W0 2.684926 1_555
Al30 Al5 2.750684 1_555
Al30 Al39 2.760671 1_556
Al30 Al38 2.874483 1_555
Al30 Al37 2.874483 1_555
Al30 Al81 2.930594 1_555
Al30 Al82 2.930594 1_555
Al30 Al32 3.058031 1_545
Al30 Al31 3.058031 1_455
Al30 Y0 3.439431 1_555
Al31 W6 2.681288 1_656
Al31 W1 2.684926 1_555
Al31 Al4 2.750684 1_545
Al31 Al40 2.760671 1_556
Al31 Al38 2.874483 1_655
Al31 Al36 2.874483 1_545
Al31 Al82 2.930594 1_655
Al31 Al80 2.930594 1_545
Al31 Al32 3.058031 1_645
Al31 Y1 3.439431 1_555
Al32 W6 2.681288 1_566
Al32 W2 2.684926 1_555
Al32 Al41 2.760671 1_556
Al32 Al37 2.874483 1_565
Al32 Al36 2.874483 1_455
Al32 Al81 2.930594 1_565
Al32 Al80 2.930594 1_455
Al32 Y2 3.439431 1_555
Al33 W6 2.681288 1_665
Al33 W3 2.684926 1_555
Al33 Al8 2.750684 1_555
Al33 Al36 2.760671 1_554
Al33 Al41 2.874483 1_655
Al33 Al40 2.874483 1_565
Al33 Al84 2.930594 1_565
Al33 Al85 2.930594 1_655
Al33 Al35 3.058031 1_665
Al33 Al34 3.058031 1_665
Al33 Y3 3.439431 1_555
Al34 W6 2.681288 1_555
Al34 W4 2.684926 1_555
Al34 Al6 2.750684 1_545
Al34 Al37 2.760671 1_554
Al34 Al41 2.874483 1_545
Al34 Al39 2.874483 1_555
Al34 Al85 2.930594 1_545
Al34 Al83 2.930594 1_555
Al34 Al35 3.058031 1_555
Al34 Y4 3.439431 1_555
Al35 W6 2.681288 1_555
Al35 W5 2.684926 1_555
Al35 Al7 2.750684 1_555
Al35 Al9 2.750684 1_455
Al35 Al38 2.760671 1_554
Al35 Al40 2.874483 1_455
Al35 Al39 2.874483 1_555
Al35 Al84 2.930594 1_455
Al35 Al83 2.930594 1_555
Al35 Y5 3.439431 1_555
Al36 Al64 2.748565 1_556
Al36 Al61 2.748565 1_556
Al36 W6 2.864325 1_666
Al36 Al4 2.874578 1_555
Al36 Al40 3.011019 1_566
Al36 Al41 3.011019 1_656
Al36 Y3 3.252045 1_556
Al36 Y0 3.276327 1_555
Al37 Al63 2.748554 1_546
Al37 Al62 2.748559 1_556
Al37 W6 2.864325 1_556
Al37 Al41 3.011018 1_546
Al37 Al39 3.011019 1_556
Al37 Y4 3.252045 1_556
Al37 Y1 3.276327 1_555
Al38 Al60 2.748554 1_456
Al38 Al65 2.748559 1_556
Al38 W6 2.864325 1_556
Al38 Al5 2.874578 1_555
Al38 Al40 3.011018 1_456
Al38 Al39 3.011019 1_556
Al38 Y5 3.252045 1_556
Al38 Y2 3.276327 1_555
Al39 Al62 2.748565 1_555
Al39 Al65 2.748565 1_555
Al39 W6 2.864325 1_555
Al39 Al7 2.874578 1_555
Al39 Y0 3.252045 1_554
Al39 Y3 3.276327 1_555
Al40 Al60 2.748554 1_555
Al40 Al64 2.748559 1_545
Al40 W6 2.864325 1_655
Al40 Al8 2.874578 1_545
Al40 Al9 2.874578 1_555
Al40 Y1 3.252045 1_554
Al40 Y4 3.276327 1_555
Al41 Al63 2.748554 1_555
Al41 Al61 2.748559 1_455
Al41 W6 2.864325 1_565
Al41 Al6 2.874578 1_555
Al41 Y2 3.252045 1_554
Al41 Y5 3.276327 1_555
Al42 Al67 2.748565 1_555
Al42 Al70 2.748565 1_555
Al42 W7 2.864325 1_555
Al42 Al46 3.011019 1_555
Al42 Al47 3.011019 1_555
Al42 Y9 3.252045 1_555
Al42 Y6 3.276327 1_555
Al43 Al69 2.748554 1_555
Al43 Al68 2.748559 1_545
Al43 W7 2.864325 1_655
Al43 Al47 3.011018 1_655
Al43 Al45 3.011019 1_545
Al43 Y10 3.252045 1_555
Al43 Y7 3.276327 1_555
Al44 Al66 2.748554 1_555
Al44 Al71 2.748559 1_455
Al44 W7 2.864325 1_565
Al44 Al46 3.011018 1_565
Al44 Al45 3.011019 1_455
Al44 Y11 3.252045 1_555
Al44 Y8 3.276327 1_555
Al45 Al71 2.748565 1_555
Al45 Al68 2.748565 1_555
Al45 W7 2.864325 1_665
Al45 Y6 3.252045 1_555
Al45 Y9 3.276327 1_555
Al46 Al66 2.748554 1_545
Al46 Al70 2.748559 1_555
Al46 W7 2.864325 1_555
Al46 Y7 3.252045 1_555
Al46 Y10 3.276327 1_555
Al47 Al69 2.748554 1_455
Al47 Al67 2.748559 1_555
Al47 W7 2.864325 1_555
Al47 Y8 3.252045 1_555
Al47 Y11 3.276327 1_555
Al48 W2 2.690935 1_655
Al48 Al53 2.820951 1_655
Al48 Al78 2.829748 1_555
Al48 Al72 2.829748 1_555
Al48 Y2 3.062992 1_655
Al48 Y11 3.062992 1_655
Al49 W0 2.690935 1_555
Al49 Al52 2.820970 1_555
Al49 Al72 2.829748 1_555
Al49 Al78 2.829748 1_555
Al49 Y0 3.062996 1_555
Al49 Y9 3.062996 1_555
Al50 W1 2.690926 1_555
Al50 Al51 2.820951 1_545
Al50 Al72 2.829748 1_555
Al50 Al78 2.829748 1_555
Al50 Y1 3.062991 1_555
Al50 Y10 3.062991 1_555
Al51 W1 2.690935 1_565
Al51 Al79 2.829748 1_555
Al51 Al73 2.829748 1_555
Al51 Y1 3.062992 1_565
Al51 Y10 3.062992 1_565
Al52 W0 2.690935 1_555
Al52 Al73 2.829748 1_555
Al52 Al79 2.829748 1_555
Al52 Y0 3.062996 1_555
Al52 Y9 3.062996 1_555
Al53 W2 2.690926 1_555
Al53 Al79 2.829748 1_555
Al53 Al73 2.829748 1_555
Al53 Y2 3.062991 1_555
Al53 Y11 3.062991 1_555
Al54 W5 2.690935 1_555
Al54 Al6 2.746879 1_555
Al54 Al59 2.820951 1_455
Al54 Al74 2.829748 1_555
Al54 Al76 2.829748 1_555
Al54 Al7 2.833020 1_555
Al54 Y8 3.062992 1_555
Al54 Y5 3.062992 1_555
Al55 W3 2.690935 1_555
Al55 Al7 2.746883 1_555
Al55 Al58 2.820970 1_555
Al55 Al76 2.829748 1_555
Al55 Al74 2.829748 1_555
Al55 Al8 2.833012 1_555
Al55 Y6 3.062996 1_555
Al55 Y3 3.062996 1_555
Al56 W4 2.690926 1_565
Al56 Al8 2.746888 1_555
Al56 Al57 2.820951 1_565
Al56 Al76 2.829748 1_555
Al56 Al74 2.829748 1_555
Al56 Al6 2.833011 1_555
Al56 Y7 3.062991 1_565
Al56 Y4 3.062991 1_565
Al57 W4 2.690935 1_555
Al57 Al9 2.746879 1_555
Al57 Al75 2.829748 1_555
Al57 Al77 2.829748 1_555
Al57 Y7 3.062992 1_555
Al57 Y4 3.062992 1_555
Al58 W3 2.690935 1_555
Al58 Al77 2.829748 1_555
Al58 Al75 2.829748 1_555
Al58 Y6 3.062996 1_555
Al58 Y3 3.062996 1_555
Al59 W5 2.690926 1_655
Al59 Al77 2.829748 1_555
Al59 Al75 2.829748 1_555
Al59 Al9 2.833011 1_555
Al59 Y8 3.062991 1_655
Al59 Y5 3.062991 1_655
Al60 Al75 2.769611 1_555
Al60 Al72 2.769611 1_554
Al60 Al62 2.867134 1_555
Al60 Al61 2.867134 1_555
Al60 Al9 3.065075 1_555
Al60 Y1 3.103299 1_554
Al60 Y5 3.103299 1_655
Al60 Y4 3.408413 1_555
Al60 Y2 3.408413 1_654
Al61 Al75 2.769611 1_555
Al61 Al72 2.769611 1_554
Al61 Al62 2.867134 1_555
Al61 Y2 3.103295 1_654
Al61 Y3 3.103304 1_555
Al61 Y5 3.408407 1_655
Al61 Y0 3.408417 1_554
Al62 Al75 2.769611 1_555
Al62 Al72 2.769611 1_554
Al62 Y4 3.103295 1_555
Al62 Y0 3.103304 1_554
Al62 Y1 3.408407 1_554
Al62 Y3 3.408417 1_555
Al63 Al73 2.769611 1_554
Al63 Al74 2.769611 1_555
Al63 Al65 2.867134 1_555
Al63 Al64 2.867134 1_555
Al63 Y4 3.103299 1_565
Al63 Y2 3.103299 1_554
Al63 Y5 3.408413 1_555
Al63 Y1 3.408413 1_564
Al64 Al73 2.769611 1_554
Al64 Al74 2.769611 1_555
Al64 Al65 2.867134 1_555
Al64 Al8 3.065077 1_555
Al64 Y1 3.103295 1_564
Al64 Y3 3.103304 1_555
Al64 Y4 3.408407 1_565
Al64 Y0 3.408417 1_554
Al65 Al73 2.769611 1_554
Al65 Al74 2.769611 1_555
Al65 Al7 3.065079 1_555
Al65 Y5 3.103295 1_555
Al65 Y0 3.103304 1_554
Al65 Y2 3.408407 1_554
Al65 Y3 3.408417 1_555
Al66 Al79 2.769611 1_555
Al66 Al76 2.769611 1_555
Al66 Al68 2.867134 1_555
Al66 Al67 2.867134 1_555
Al66 Y11 3.103299 1_555
Al66 Y7 3.103299 1_565
Al66 Y10 3.408413 1_565
Al66 Y8 3.408413 1_555
Al67 Al79 2.769611 1_555
Al67 Al76 2.769611 1_555
Al67 Al68 2.867134 1_555
Al67 Y8 3.103295 1_555
Al67 Y9 3.103304 1_555
Al67 Y11 3.408407 1_555
Al67 Y6 3.408417 1_555
Al68 Al79 2.769611 1_555
Al68 Al76 2.769611 1_555
Al68 Y10 3.103295 1_565
Al68 Y6 3.103304 1_555
Al68 Y7 3.408407 1_565
Al68 Y9 3.408417 1_555
Al69 Al77 2.769611 1_555
Al69 Al78 2.769611 1_555
Al69 Al71 2.867134 1_555
Al69 Al70 2.867134 1_555
Al69 Y10 3.103299 1_555
Al69 Y8 3.103299 1_655
Al69 Y11 3.408413 1_655
Al69 Y7 3.408413 1_555
Al70 Al78 2.769611 1_555
Al70 Al77 2.769611 1_555
Al70 Al71 2.867134 1_555
Al70 Y7 3.103295 1_555
Al70 Y9 3.103304 1_555
Al70 Y10 3.408407 1_555
Al70 Y6 3.408417 1_555
Al71 Al78 2.769611 1_555
Al71 Al77 2.769611 1_555
Al71 Y11 3.103295 1_655
Al71 Y6 3.103304 1_555
Al71 Y8 3.408407 1_655
Al71 Y9 3.408417 1_555
Al72 Y1 3.258793 1_555
Al72 Y2 3.258795 1_655
Al72 Y0 3.258804 1_555
Al73 Y2 3.258793 1_555
Al73 Y1 3.258795 1_565
Al73 Y0 3.258804 1_555
Al74 Al8 2.724192 1_555
Al74 Y4 3.258793 1_565
Al74 Y5 3.258795 1_555
Al74 Y3 3.258804 1_555
Al75 Al9 2.724184 1_555
Al75 Y5 3.258793 1_655
Al75 Y4 3.258795 1_555
Al75 Y3 3.258804 1_555
Al76 Y7 3.258793 1_565
Al76 Y8 3.258795 1_555
Al76 Y6 3.258804 1_555
Al77 Y8 3.258793 1_655
Al77 Y7 3.258795 1_555
Al77 Y6 3.258804 1_555
Al78 Y10 3.258793 1_555
Al78 Y11 3.258795 1_655
Al78 Y9 3.258804 1_555
Al79 Y11 3.258793 1_555
Al79 Y10 3.258795 1_565
Al79 Y9 3.258804 1_555
Al80 W1 2.601421 1_565
Al80 W2 2.601421 1_655
Al80 Al82 2.831075 1_665
Al80 Al81 2.831075 1_665
Al81 W2 2.601421 1_545
Al81 W0 2.601421 1_555
Al81 Al82 2.831075 1_555
Al82 W1 2.601421 1_455
Al82 W0 2.601421 1_555
Al83 W4 2.601421 1_555
Al83 W5 2.601421 1_555
Al83 Al84 2.831075 1_455
Al83 Al85 2.831075 1_545
Al84 W5 2.601421 1_655
Al84 W3 2.601421 1_545
Al84 Al85 2.831075 1_645
Al84 Al9 2.841454 1_555
Al85 W4 2.601421 1_565
Al85 W3 2.601421 1_455
W0 Y0 3.489098 1_555
W0 Y9 3.489098 1_555
W1 Y1 3.489098 1_555
W1 Y10 3.489098 1_555
W2 Y2 3.489098 1_555
W2 Y11 3.489098 1_555
W3 Y6 3.489098 1_555
W3 Y3 3.489098 1_555
W4 Y7 3.489098 1_555
W4 Y4 3.489098 1_555
W5 Y8 3.489098 1_555
W5 Y5 3.489098 1_555
