# generated using pymatgen
data_HfMg6Ga
_symmetry_space_group_name_H-M   'P 1'
_cell_length_a   4.90359500
_cell_length_b   6.38859500
_cell_length_c   10.95313200
_cell_angle_alpha   90.00000000
_cell_angle_beta   90.00000000
_cell_angle_gamma   90.00000000
_symmetry_Int_Tables_number   1
_chemical_formula_structural   HfMg6Ga
_chemical_formula_sum   'Hf2 Mg12 Ga2'
_cell_volume   343.12966979
_cell_formula_units_Z   2
loop_
 _symmetry_equiv_pos_site_id
 _symmetry_equiv_pos_as_xyz
  1  'x, y, z'
loop_
 _atom_site_type_symbol
 _atom_site_label
 _atom_site_symmetry_multiplicity
 _atom_site_fract_x
 _atom_site_fract_y
 _atom_site_fract_z
 _atom_site_occupancy
  Hf  Hf0  1  0.50000000  0.50000000  0.17580900  1
  Hf  Hf1  1  0.50000000  0.00000000  0.67580900  1
  Mg  Mg0  1  0.00000000  0.25080800  0.08374000  1
  Mg  Mg1  1  0.00000000  0.74919200  0.08374000  1
  Mg  Mg2  1  0.00000000  0.50000000  0.83255700  1
  Mg  Mg3  1  0.50000000  0.24752400  0.91853400  1
  Mg  Mg4  1  0.50000000  0.75247600  0.91853400  1
  Mg  Mg5  1  0.50000000  0.50000000  0.66639900  1
  Mg  Mg6  1  0.00000000  0.75080800  0.58374000  1
  Mg  Mg7  1  0.00000000  0.24919200  0.58374000  1
  Mg  Mg8  1  0.00000000  0.00000000  0.33255700  1
  Mg  Mg9  1  0.50000000  0.74752400  0.41853400  1
  Mg  Mg10  1  0.50000000  0.25247600  0.41853400  1
  Mg  Mg11  1  0.50000000  0.00000000  0.16639900  1
  Ga  Ga0  1  0.00000000  0.50000000  0.32068800  1
  Ga  Ga1  1  0.00000000  0.00000000  0.82068800  1
loop_
_geom_bond_atom_site_label_1
_geom_bond_atom_site_label_2
_geom_bond_distance
_geom_bond_site_symmetry_2
Hf0 Mg0 3.092360 1_655
Hf0 Mg1 3.092360 1_555
Hf0 Mg1 3.092360 1_655
Hf0 Mg0 3.092360 1_555
Hf0 Mg9 3.093340 1_555
Hf0 Mg10 3.093340 1_555
Hf0 Mg11 3.195960 1_555
Hf0 Mg11 3.195960 1_565
Hf0 Mg3 3.246937 1_554
Hf0 Mg4 3.246937 1_554
Hf1 Mg7 3.092360 1_655
Hf1 Mg6 3.092360 1_645
Hf1 Mg6 3.092360 1_545
Hf1 Mg7 3.092360 1_555
Hf1 Mg3 3.093340 1_555
Hf1 Mg4 3.093340 1_545
Hf1 Mg5 3.195960 1_545
Hf1 Mg5 3.195960 1_555
Hf1 Mg10 3.246937 1_555
Hf1 Mg9 3.246937 1_545
Mg0 Mg3 3.047314 1_454
Mg0 Mg3 3.047314 1_554
Mg0 Mg11 3.065683 1_455
Mg0 Mg11 3.065683 1_555
Mg0 Mg8 3.161455 1_555
Mg0 Mg2 3.178639 1_554
Mg0 Mg1 3.183974 1_555
Mg0 Mg1 3.204621 1_545
Mg1 Mg4 3.047314 1_454
Mg1 Mg4 3.047314 1_554
Mg1 Mg11 3.065683 1_565
Mg1 Mg11 3.065683 1_465
Mg1 Mg8 3.161455 1_565
Mg1 Mg2 3.178639 1_554
Mg2 Mg5 3.053446 1_455
Mg2 Mg5 3.053446 1_555
Mg2 Mg3 3.082175 1_455
Mg2 Mg4 3.082175 1_455
Mg2 Mg3 3.082175 1_555
Mg2 Mg4 3.082175 1_555
Mg2 Mg7 3.161455 1_555
Mg2 Mg6 3.161455 1_555
Mg3 Mg4 3.162661 1_545
Mg3 Mg5 3.198198 1_555
Mg3 Mg4 3.225934 1_555
Mg4 Mg5 3.198198 1_555
Mg5 Mg6 3.065683 1_555
Mg5 Mg6 3.065683 1_655
Mg5 Mg7 3.065683 1_555
Mg5 Mg7 3.065683 1_655
Mg5 Mg9 3.141859 1_555
Mg6 Mg9 3.047314 1_555
Mg6 Mg9 3.047314 1_455
Mg6 Mg8 3.178639 1_565
Mg6 Mg7 3.183974 1_565
Mg6 Mg7 3.204621 1_555
Mg7 Mg8 3.178639 1_555
Mg8 Mg9 3.082175 1_545
Mg8 Mg9 3.082175 1_445
Mg10 Mg7 3.047314 1_555
Mg10 Mg7 3.047314 1_655
Mg10 Mg8 3.082175 1_655
Mg10 Mg8 3.082175 1_555
Mg10 Mg5 3.141859 1_555
Mg10 Mg9 3.162661 1_555
Mg10 Mg11 3.198198 1_555
Mg10 Mg9 3.225934 1_545
Mg11 Mg8 3.053446 1_555
Mg11 Mg8 3.053446 1_655
Mg11 Mg4 3.141859 1_544
Mg11 Mg3 3.141859 1_554
Mg11 Mg9 3.198198 1_545
Ga0 Hf0 2.920530 1_455
Ga0 Hf0 2.920530 1_555
Ga0 Mg1 3.044687 1_555
Ga0 Mg0 3.044687 1_555
Ga0 Mg9 3.108135 1_555
Ga0 Mg10 3.108135 1_555
Ga0 Mg10 3.108135 1_455
Ga0 Mg9 3.108135 1_455
Ga0 Mg8 3.196942 1_555
Ga0 Mg8 3.196942 1_565
Ga0 Mg7 3.296811 1_555
Ga0 Mg6 3.296811 1_555
Ga1 Hf1 2.920530 1_555
Ga1 Hf1 2.920530 1_455
Ga1 Mg6 3.044687 1_545
Ga1 Mg7 3.044687 1_555
Ga1 Mg3 3.108135 1_455
Ga1 Mg4 3.108135 1_445
Ga1 Mg3 3.108135 1_555
Ga1 Mg4 3.108135 1_545
Ga1 Mg2 3.196942 1_555
Ga1 Mg2 3.196942 1_545
Ga1 Mg0 3.296811 1_556
Ga1 Mg1 3.296811 1_546
