# generated using pymatgen
data_K4Mo6Se25O
_symmetry_space_group_name_H-M   'P 1'
_cell_length_a   10.83446943
_cell_length_b   10.83446943
_cell_length_c   11.96750295
_cell_angle_alpha   72.86989564
_cell_angle_beta   72.86989564
_cell_angle_gamma   108.22541142
_symmetry_Int_Tables_number   1
_chemical_formula_structural   K4Mo6Se25O
_chemical_formula_sum   'K4 Mo6 Se25 O1'
_cell_volume   1153.66499920
_cell_formula_units_Z   1
loop_
 _symmetry_equiv_pos_site_id
 _symmetry_equiv_pos_as_xyz
  1  'x, y, z'
loop_
 _atom_site_type_symbol
 _atom_site_label
 _atom_site_symmetry_multiplicity
 _atom_site_fract_x
 _atom_site_fract_y
 _atom_site_fract_z
 _atom_site_occupancy
  K  K0  1  0.82082500  0.47905200  0.62123900  1
  K  K1  1  0.82031500  0.48292700  0.12001600  1
  K  K2  1  0.47905200  0.82082500  0.62123900  1
  K  K3  1  0.48292700  0.82031500  0.12001600  1
  Mo  Mo0  1  0.97468700  0.97468700  0.50665100  1
  Mo  Mo1  1  0.98953100  0.98953100  0.00641500  1
  Mo  Mo2  1  0.14155100  0.33305100  0.36180700  1
  Mo  Mo3  1  0.14969100  0.31313300  0.87491700  1
  Mo  Mo4  1  0.33305100  0.14155100  0.36180700  1
  Mo  Mo5  1  0.31313300  0.14969100  0.87491700  1
  Se  Se0  1  0.80526100  0.80526100  0.96800700  1
  Se  Se1  1  0.79167000  0.79167000  0.46899900  1
  Se  Se2  1  0.85745300  0.16001000  0.45309100  1
  Se  Se3  1  0.86282900  0.16601500  0.97214500  1
  Se  Se4  1  0.16001000  0.85745300  0.45309100  1
  Se  Se5  1  0.16601500  0.86282900  0.97214500  1
  Se  Se6  1  0.13548800  0.49768200  0.68805300  1
  Se  Se7  1  0.13228100  0.51659500  0.17333100  1
  Se  Se8  1  0.49768200  0.13548800  0.68805300  1
  Se  Se9  1  0.51659500  0.13228100  0.17333100  1
  Se  Se10  1  0.34013600  0.34013600  0.45092600  1
  Se  Se11  1  0.34068200  0.34068200  0.96755200  1
  Se  Se12  1  0.13878400  0.58350900  0.34640900  1
  Se  Se13  1  0.13989800  0.55918800  0.86245700  1
  Se  Se14  1  0.58350900  0.13878400  0.34640900  1
  Se  Se15  1  0.55918800  0.13989800  0.86245700  1
  Se  Se16  1  0.75740400  0.75740400  0.18843000  1
  Se  Se17  1  0.74362200  0.74362200  0.69082700  1
  Se  Se18  1  0.42824000  0.42824000  0.22287700  1
  Se  Se19  1  0.43424900  0.43424900  0.74206100  1
  Se  Se20  1  0.96553800  0.16101400  0.11913500  1
  Se  Se21  1  0.95504500  0.16057500  0.60639200  1
  Se  Se22  1  0.16101400  0.96553800  0.11913500  1
  Se  Se23  1  0.16057500  0.95504500  0.60639200  1
  Se  Se24  1  0.14930900  0.14930900  0.76096200  1
  O  O0  1  0.14876000  0.14876000  0.34360900  1
loop_
_geom_bond_atom_site_label_1
_geom_bond_atom_site_label_2
_geom_bond_distance
_geom_bond_site_symmetry_2
K0 Se17 3.479305 1_555
K0 Se1 3.502050 1_555
K0 Se15 3.505209 1_555
K0 Se12 3.558081 1_655
K0 Se6 3.684191 1_655
K0 Se19 3.823070 1_555
K0 Se8 3.898519 1_555
K0 Se4 3.965097 1_655
K1 Se14 3.434527 1_555
K1 Se0 3.510102 1_554
K1 Se16 3.514533 1_555
K1 Se13 3.549029 1_654
K1 Se7 3.549757 1_655
K1 Se18 3.850562 1_555
K1 Se9 3.896640 1_555
K2 Se17 3.479305 1_555
K2 Se1 3.502050 1_555
K2 Se13 3.505209 1_555
K2 Se14 3.558081 1_565
K2 Se8 3.684191 1_565
K2 Se19 3.823070 1_555
K2 Se6 3.898519 1_555
K2 Se2 3.965097 1_565
K3 Se12 3.434527 1_555
K3 Se0 3.510102 1_554
K3 Se16 3.514533 1_555
K3 Se15 3.549029 1_564
K3 Se9 3.549757 1_565
K3 Se18 3.850562 1_555
K3 Se7 3.896640 1_555
Mo0 O0 2.088201 1_665
Mo0 Se1 2.580702 1_555
Mo0 Se17 2.640354 1_555
Mo0 Se23 2.657235 1_655
Mo0 Se21 2.657235 1_565
Mo0 Se4 2.715229 1_655
Mo0 Se2 2.715229 1_565
Mo1 Se24 2.599342 1_664
Mo1 Se0 2.602114 1_554
Mo1 Se20 2.628909 1_565
Mo1 Se22 2.628909 1_655
Mo1 Se16 2.642774 1_555
Mo1 Se5 2.687076 1_654
Mo1 Se3 2.687076 1_564
Mo2 O0 2.093804 1_555
Mo2 Se7 2.582317 1_555
Mo2 Se10 2.658817 1_555
Mo2 Se21 2.659802 1_455
Mo2 Se12 2.675433 1_555
Mo2 Se2 2.717662 1_455
Mo2 Se18 2.723943 1_555
Mo3 Se24 2.536720 1_555
Mo3 Se11 2.600003 1_555
Mo3 Se6 2.604568 1_555
Mo3 Se20 2.628605 1_456
Mo3 Se13 2.663167 1_555
Mo3 Se19 2.666030 1_555
Mo3 Se3 2.689335 1_455
Mo4 O0 2.093804 1_555
Mo4 Se9 2.582317 1_555
Mo4 Se10 2.658817 1_555
Mo4 Se23 2.659802 1_545
Mo4 Se14 2.675433 1_555
Mo4 Se4 2.717662 1_545
Mo4 Se18 2.723943 1_555
Mo5 Se24 2.536720 1_555
Mo5 Se11 2.600003 1_555
Mo5 Se8 2.604568 1_555
Mo5 Se22 2.628605 1_546
Mo5 Se15 2.663167 1_555
Mo5 Se19 2.666030 1_555
Mo5 Se5 2.689335 1_545
Se0 Se16 2.390951 1_556
Se1 Se17 2.406626 1_555
Se2 Se21 2.372598 1_555
Se10 Se18 2.373077 1_555
Se11 Se19 2.339169 1_555
Se12 Se7 2.399898 1_555
Se13 Se6 2.379252 1_555
Se14 Se9 2.399898 1_555
Se15 Se8 2.379252 1_555
Se20 Se3 2.338892 1_554
Se22 Se5 2.338892 1_554
Se23 Se4 2.372598 1_555
