# generated using pymatgen
data_Nd4PClO8
_symmetry_space_group_name_H-M   'P 1'
_cell_length_a   5.84235800
_cell_length_b   5.87024400
_cell_length_c   13.10444200
_cell_angle_alpha   90.00000000
_cell_angle_beta   90.00000000
_cell_angle_gamma   90.00000000
_symmetry_Int_Tables_number   1
_chemical_formula_structural   Nd4PClO8
_chemical_formula_sum   'Nd8 P2 Cl2 O16'
_cell_volume   449.43082077
_cell_formula_units_Z   2
loop_
 _symmetry_equiv_pos_site_id
 _symmetry_equiv_pos_as_xyz
  1  'x, y, z'
loop_
 _atom_site_type_symbol
 _atom_site_label
 _atom_site_symmetry_multiplicity
 _atom_site_fract_x
 _atom_site_fract_y
 _atom_site_fract_z
 _atom_site_occupancy
  Nd  Nd0  1  0.56105600  0.98316400  0.66239800  1
  Nd  Nd1  1  0.56105600  0.98316400  0.33760200  1
  Nd  Nd2  1  0.06105600  0.01683600  0.83760200  1
  Nd  Nd3  1  0.06105600  0.01683600  0.16239800  1
  Nd  Nd4  1  0.53165600  0.48731700  0.83202800  1
  Nd  Nd5  1  0.53165600  0.48731700  0.16797200  1
  Nd  Nd6  1  0.03165600  0.51268300  0.66797200  1
  Nd  Nd7  1  0.03165600  0.51268300  0.33202800  1
  P  P0  1  0.50431400  0.45741100  0.50000000  1
  P  P1  1  0.00431400  0.54258900  0.00000000  1
  Cl  Cl0  1  0.49381800  0.05264600  0.00000000  1
  Cl  Cl1  1  0.99381800  0.94735400  0.50000000  1
  O  O0  1  0.79349100  0.24269900  0.75009600  1
  O  O1  1  0.79349100  0.24269900  0.24990400  1
  O  O2  1  0.29349100  0.75730100  0.74990400  1
  O  O3  1  0.29349100  0.75730100  0.25009600  1
  O  O4  1  0.79912600  0.75713200  0.76839900  1
  O  O5  1  0.79912600  0.75713200  0.23160100  1
  O  O6  1  0.29912600  0.24286800  0.73160100  1
  O  O7  1  0.29912600  0.24286800  0.26839900  1
  O  O8  1  0.54417200  0.19437900  0.50000000  1
  O  O9  1  0.04417200  0.80562100  0.00000000  1
  O  O10  1  0.61522400  0.56682000  0.40449800  1
  O  O11  1  0.61522400  0.56682000  0.59550200  1
  O  O12  1  0.11522400  0.43318000  0.09550200  1
  O  O13  1  0.11522400  0.43318000  0.90449800  1
  O  O14  1  0.23987000  0.49777800  0.50000000  1
  O  O15  1  0.73987000  0.50222200  0.00000000  1
loop_
_geom_bond_atom_site_label_1
_geom_bond_atom_site_label_2
_geom_bond_distance
_geom_bond_site_symmetry_2
Nd0 O0 2.342215 1_565
Nd0 O6 2.342727 1_565
Nd0 O2 2.348728 1_555
Nd0 O4 2.371644 1_555
Nd0 O8 2.464955 1_565
Nd0 O11 2.615717 1_555
Nd1 O1 2.342215 1_565
Nd1 O7 2.342727 1_565
Nd1 O3 2.348728 1_555
Nd1 O5 2.371644 1_555
Nd1 O8 2.464955 1_565
Nd1 O10 2.615717 1_555
Nd2 O2 2.342215 1_545
Nd2 O4 2.342727 1_445
Nd2 O0 2.348728 1_455
Nd2 O6 2.371644 1_555
Nd2 O9 2.464955 1_546
Nd2 O13 2.615717 1_555
Nd3 O3 2.342215 1_545
Nd3 O5 2.342727 1_445
Nd3 O1 2.348728 1_455
Nd3 O7 2.371644 1_555
Nd3 O9 2.464955 1_545
Nd3 O12 2.615717 1_555
Nd4 O0 2.356875 1_555
Nd4 O2 2.367725 1_555
Nd4 O6 2.374174 1_555
Nd4 O4 2.376095 1_555
Nd4 O15 2.516470 1_556
Nd4 O13 2.630990 1_555
Nd5 O1 2.356875 1_555
Nd5 O3 2.367725 1_555
Nd5 O7 2.374174 1_555
Nd5 O5 2.376095 1_555
Nd5 O15 2.516470 1_555
Nd5 O12 2.630990 1_555
Nd6 O2 2.356875 1_555
Nd6 O0 2.367725 1_455
Nd6 O4 2.374174 1_455
Nd6 O6 2.376095 1_555
Nd6 O14 2.516470 1_555
Nd6 O11 2.630990 1_455
Nd7 O3 2.356875 1_555
Nd7 O1 2.367725 1_455
Nd7 O5 2.374174 1_455
Nd7 O7 2.376095 1_555
Nd7 O14 2.516470 1_555
Nd7 O10 2.630990 1_455
Cl0 Nd3 3.311451 1_555
Cl0 Nd2 3.311451 1_554
Cl0 Nd5 3.377107 1_555
Cl0 Nd4 3.377107 1_554
Cl1 Nd0 3.311451 1_555
Cl1 Nd1 3.311451 1_555
Cl1 Nd7 3.377107 1_655
Cl1 Nd6 3.377107 1_655
O8 P0 1.561523 1_555
O9 P1 1.561523 1_555
O10 P0 1.548748 1_555
O11 P0 1.548748 1_555
O12 P1 1.548748 1_555
O13 P1 1.548748 1_556
O14 P0 1.563043 1_555
O15 P1 1.563043 1_655
