# generated using pymatgen
data_LiV2CrO6
_symmetry_space_group_name_H-M   'P 1'
_cell_length_a   5.03136343
_cell_length_b   9.64004687
_cell_length_c   5.03076156
_cell_angle_alpha   74.70664627
_cell_angle_beta   119.57988291
_cell_angle_gamma   105.02786322
_symmetry_Int_Tables_number   1
_chemical_formula_structural   LiV2CrO6
_chemical_formula_sum   'Li2 V4 Cr2 O12'
_cell_volume   202.25082091
_cell_formula_units_Z   2
loop_
 _symmetry_equiv_pos_site_id
 _symmetry_equiv_pos_as_xyz
  1  'x, y, z'
loop_
 _atom_site_type_symbol
 _atom_site_label
 _atom_site_symmetry_multiplicity
 _atom_site_fract_x
 _atom_site_fract_y
 _atom_site_fract_z
 _atom_site_occupancy
  Li  Li0  1  0.14749800  0.42785600  0.85920800  1
  Li  Li1  1  0.63538600  0.92793000  0.35351700  1
  V  V0  1  0.49690300  0.50368900  0.49750500  1
  V  V1  1  0.01165500  0.00444400  0.00655500  1
  V  V2  1  0.23974700  0.74505300  0.74190300  1
  V  V3  1  0.75908900  0.24529300  0.25836000  1
  Cr  Cr0  1  0.40425900  0.20431000  0.59879700  1
  Cr  Cr1  1  0.89768400  0.70416100  0.10072700  1
  O  O0  1  0.88507000  0.60976500  0.78215500  1
  O  O1  1  0.37244000  0.10517000  0.27659000  1
  O  O2  1  0.51247200  0.60335700  0.14022200  1
  O  O3  1  0.01490900  0.10652400  0.62358500  1
  O  O4  1  0.21558200  0.60586100  0.49190000  1
  O  O5  1  0.72800800  0.10902800  0.99596600  1
  O  O6  1  0.21373600  0.85301600  0.01046200  1
  O  O7  1  0.73986700  0.34619900  0.50622600  1
  O  O8  1  0.97295900  0.85002400  0.36166700  1
  O  O9  1  0.49526200  0.35408400  0.85531700  1
  O  O10  1  0.61352300  0.84605600  0.76840200  1
  O  O11  1  0.14394900  0.34977600  0.26933800  1
loop_
_geom_bond_atom_site_label_1
_geom_bond_atom_site_label_2
_geom_bond_distance
_geom_bond_site_symmetry_2
Li0 O11 2.008505 1_556
Li0 O9 2.062555 1_555
Li0 O7 2.069755 1_455
Li0 O4 2.263590 1_555
Li0 O0 2.303393 1_455
Li0 O2 2.306642 1_556
Li1 O8 2.006722 1_555
Li1 O6 2.061297 1_555
Li1 O10 2.074615 1_555
Li1 O1 2.266557 1_565
Li1 O5 2.291202 1_564
Li1 O3 2.328955 1_665
Cr0 O3 1.990787 1_555
Cr0 O11 2.003019 1_555
Cr0 O9 2.004090 1_555
Cr0 O1 2.012004 1_555
Cr0 O5 2.020834 1_555
Cr0 O7 2.044910 1_555
Cr1 O6 1.994954 1_655
Cr1 O4 2.005897 1_655
Cr1 O0 2.009870 1_554
Cr1 O2 2.010429 1_555
Cr1 O8 2.012610 1_555
Cr1 O10 2.039163 1_554
O0 V0 1.971355 1_555
O0 V2 1.984166 1_655
O1 V1 1.852197 1_555
O1 V3 2.089401 1_555
O2 V0 1.830004 1_555
O2 V2 2.139520 1_554
O3 V1 1.924368 1_556
O3 V3 2.020796 1_455
O4 V0 1.908729 1_555
O4 V2 2.012899 1_555
O5 V1 1.923214 1_656
O5 V3 2.024083 1_556
O6 V1 1.974817 1_565
O6 V2 1.978041 1_554
O7 V3 1.821588 1_555
O7 V0 2.162314 1_555
O8 V2 1.906085 1_655
O8 V1 2.058061 1_665
O9 V3 1.978903 1_556
O9 V0 1.989791 1_555
O10 V2 1.836811 1_555
O10 V1 2.188346 1_666
O11 V3 1.918184 1_455
O11 V0 2.047488 1_555
