# generated using pymatgen
data_Sr2Mg
_symmetry_space_group_name_H-M   'P 1'
_cell_length_a   14.85808435
_cell_length_b   14.85808435
_cell_length_c   19.31812723
_cell_angle_alpha   69.89698386
_cell_angle_beta   69.89698386
_cell_angle_gamma   31.34769194
_symmetry_Int_Tables_number   1
_chemical_formula_structural   Sr2Mg
_chemical_formula_sum   'Sr32 Mg16'
_cell_volume   2072.45226143
_cell_formula_units_Z   16
loop_
 _symmetry_equiv_pos_site_id
 _symmetry_equiv_pos_as_xyz
  1  'x, y, z'
loop_
 _atom_site_type_symbol
 _atom_site_label
 _atom_site_symmetry_multiplicity
 _atom_site_fract_x
 _atom_site_fract_y
 _atom_site_fract_z
 _atom_site_occupancy
  Sr  Sr0_0  1  0.16604118  0.16604118  0.06556022  1
  Sr  Sr0_1  1  0.16604118  0.16604118  0.56556023  1
  Sr  Sr0_2  1  0.16604118  0.66604118  0.06556022  1
  Sr  Sr0_3  1  0.16604118  0.66604118  0.56556023  1
  Sr  Sr0_4  1  0.66604118  0.16604118  0.06556022  1
  Sr  Sr0_5  1  0.66604118  0.16604118  0.56556023  1
  Sr  Sr0_6  1  0.66604118  0.66604118  0.06556022  1
  Sr  Sr0_7  1  0.66604118  0.66604118  0.56556023  1
  Sr  Sr1_0  1  0.01637499  0.01637499  0.14352276  1
  Sr  Sr1_1  1  0.01637499  0.01637498  0.64352276  1
  Sr  Sr1_2  1  0.01637499  0.51637499  0.14352276  1
  Sr  Sr1_3  1  0.01637499  0.51637499  0.64352276  1
  Sr  Sr1_4  1  0.51637499  0.01637499  0.14352276  1
  Sr  Sr1_5  1  0.51637499  0.01637499  0.64352276  1
  Sr  Sr1_6  1  0.51637499  0.51637499  0.14352276  1
  Sr  Sr1_7  1  0.51637499  0.51637499  0.64352276  1
  Sr  Sr2_0  1  0.48362502  0.48362502  0.35647724  1
  Sr  Sr2_1  1  0.48362502  0.48362502  0.85647724  1
  Sr  Sr2_2  1  0.48362501  0.98362502  0.35647724  1
  Sr  Sr2_3  1  0.48362502  0.98362502  0.85647724  1
  Sr  Sr2_4  1  0.98362502  0.48362501  0.35647724  1
  Sr  Sr2_5  1  0.98362502  0.48362502  0.85647724  1
  Sr  Sr2_6  1  0.98362502  0.98362502  0.35647724  1
  Sr  Sr2_7  1  0.98362502  0.98362502  0.85647724  1
  Sr  Sr3_0  1  0.33395882  0.33395882  0.43443978  1
  Sr  Sr3_1  1  0.33395882  0.33395882  0.93443978  1
  Sr  Sr3_2  1  0.33395882  0.83395882  0.43443978  1
  Sr  Sr3_3  1  0.33395882  0.83395882  0.93443978  1
  Sr  Sr3_4  1  0.83395882  0.33395882  0.43443978  1
  Sr  Sr3_5  1  0.83395882  0.33395882  0.93443978  1
  Sr  Sr3_6  1  0.83395882  0.83395882  0.43443978  1
  Sr  Sr3_7  1  0.83395882  0.83395882  0.93443977  1
  Mg  Mg0_0  1  0.33876675  0.33876674  0.23147149  1
  Mg  Mg0_1  1  0.33876674  0.33876674  0.73147149  1
  Mg  Mg0_2  1  0.33876675  0.83876675  0.23147149  1
  Mg  Mg0_3  1  0.33876674  0.83876674  0.73147149  1
  Mg  Mg0_4  1  0.83876675  0.33876675  0.23147149  1
  Mg  Mg0_5  1  0.83876674  0.33876674  0.73147149  1
  Mg  Mg0_6  1  0.83876675  0.83876674  0.23147148  1
  Mg  Mg0_7  1  0.83876674  0.83876674  0.73147149  1
  Mg  Mg1_0  1  0.16123326  0.16123326  0.26852852  1
  Mg  Mg1_1  1  0.16123326  0.16123326  0.76852852  1
  Mg  Mg1_2  1  0.16123326  0.66123326  0.26852852  1
  Mg  Mg1_3  1  0.16123326  0.66123325  0.76852852  1
  Mg  Mg1_4  1  0.66123326  0.16123326  0.26852852  1
  Mg  Mg1_5  1  0.66123325  0.16123326  0.76852852  1
  Mg  Mg1_6  1  0.66123326  0.66123326  0.26852852  1
  Mg  Mg1_7  1  0.66123325  0.66123325  0.76852852  1
loop_
_geom_bond_atom_site_label_1
_geom_bond_atom_site_label_2
_geom_bond_distance
_geom_bond_site_symmetry_2
Sr0_0 Sr1_0 4.000043 1_555
Sr0_0 Sr0_6 4.014075 1_545
Sr0_0 Sr0_6 4.014075 1_455
Sr0_0 Sr1_4 4.198103 1_555
Sr0_0 Sr1_2 4.198103 1_555
Sr0_0 Sr2_3 4.301773 1_544
Sr0_0 Sr2_5 4.301773 1_454
Sr0_0 Sr3_5 4.495196 1_454
Sr0_0 Sr3_3 4.495196 1_544
Sr0_0 Sr3_1 4.561698 1_554
Sr0_1 Sr1_1 4.000043 1_555
Sr0_1 Sr0_7 4.014075 1_545
Sr0_1 Sr0_7 4.014075 1_455
Sr0_1 Sr1_3 4.198103 1_555
Sr0_1 Sr1_5 4.198103 1_555
Sr0_1 Sr2_4 4.301773 1_455
Sr0_1 Sr2_2 4.301773 1_545
Sr0_1 Sr3_4 4.495196 1_455
Sr0_1 Sr3_2 4.495196 1_545
Sr0_1 Sr3_0 4.561698 1_555
Sr0_2 Sr1_2 4.000043 1_555
Sr0_2 Sr0_4 4.014075 1_555
Sr0_2 Sr0_4 4.014075 1_465
Sr0_2 Sr1_6 4.198103 1_555
Sr0_2 Sr1_0 4.198103 1_565
Sr0_2 Sr2_1 4.301773 1_554
Sr0_2 Sr2_7 4.301773 1_454
Sr0_2 Sr3_7 4.495196 1_454
Sr0_2 Sr3_1 4.495196 1_554
Sr0_2 Sr3_3 4.561698 1_554
Sr0_3 Sr1_3 4.000043 1_555
Sr0_3 Sr0_5 4.014075 1_555
Sr0_3 Sr0_5 4.014075 1_465
Sr0_3 Sr1_1 4.198103 1_565
Sr0_3 Sr1_7 4.198103 1_555
Sr0_3 Sr2_0 4.301773 1_555
Sr0_3 Sr2_6 4.301773 1_455
Sr0_3 Sr3_6 4.495196 1_455
Sr0_3 Sr3_0 4.495196 1_555
Sr0_3 Sr3_2 4.561698 1_555
Sr0_4 Sr1_4 4.000043 1_555
Sr0_4 Sr1_6 4.198103 1_555
Sr0_4 Sr1_0 4.198103 1_655
Sr0_4 Sr2_1 4.301773 1_554
Sr0_4 Sr2_7 4.301773 1_544
Sr0_4 Sr3_7 4.495196 1_544
Sr0_4 Sr3_1 4.495196 1_554
Sr0_4 Sr3_5 4.561698 1_554
Sr0_5 Sr1_5 4.000043 1_555
Sr0_5 Sr1_7 4.198103 1_555
Sr0_5 Sr1_1 4.198103 1_655
Sr0_5 Sr2_0 4.301773 1_555
Sr0_5 Sr2_6 4.301773 1_545
Sr0_5 Sr3_0 4.495196 1_555
Sr0_5 Sr3_6 4.495196 1_545
Sr0_5 Sr3_4 4.561698 1_555
Sr0_6 Sr1_6 4.000043 1_555
Sr0_6 Sr1_4 4.198103 1_565
Sr0_6 Sr1_2 4.198103 1_655
Sr0_6 Sr2_5 4.301773 1_554
Sr0_6 Sr2_3 4.301773 1_554
Sr0_6 Sr3_3 4.495196 1_554
Sr0_6 Sr3_5 4.495196 1_554
Sr0_6 Sr3_7 4.561698 1_554
Sr0_7 Sr1_7 4.000043 1_555
Sr0_7 Sr1_5 4.198103 1_565
Sr0_7 Sr1_3 4.198103 1_655
Sr0_7 Sr2_2 4.301773 1_555
Sr0_7 Sr2_4 4.301773 1_555
Sr0_7 Sr3_4 4.495196 1_555
Sr0_7 Sr3_2 4.495196 1_555
Sr0_7 Sr3_6 4.561698 1_555
Sr1_0 Sr2_6 3.879413 1_445
Sr1_0 Sr1_6 4.014075 1_545
Sr1_0 Sr1_6 4.014075 1_455
Sr1_0 Sr3_3 4.301773 1_544
Sr1_0 Sr3_5 4.301773 1_454
Sr1_1 Sr2_7 3.879413 1_445
Sr1_1 Sr1_7 4.014075 1_455
Sr1_1 Sr1_7 4.014075 1_545
Sr1_1 Sr3_4 4.301773 1_455
Sr1_1 Sr3_2 4.301773 1_545
Sr1_2 Sr2_4 3.879413 1_455
Sr1_2 Sr1_4 4.014075 1_465
Sr1_2 Sr1_4 4.014075 1_555
Sr1_2 Sr3_1 4.301773 1_554
Sr1_2 Sr3_7 4.301773 1_454
Sr1_3 Sr2_5 3.879413 1_455
Sr1_3 Sr1_5 4.014075 1_555
Sr1_3 Sr1_5 4.014075 1_465
Sr1_3 Sr3_6 4.301773 1_455
Sr1_3 Sr3_0 4.301773 1_555
Sr1_4 Sr2_2 3.879413 1_545
Sr1_4 Sr3_1 4.301773 1_554
Sr1_4 Sr3_7 4.301773 1_544
Sr1_5 Sr2_3 3.879413 1_545
Sr1_5 Sr3_6 4.301773 1_545
Sr1_5 Sr3_0 4.301773 1_555
Sr1_6 Sr2_0 3.879413 1_555
Sr1_6 Sr3_3 4.301773 1_554
Sr1_6 Sr3_5 4.301773 1_554
Sr1_7 Sr2_1 3.879413 1_555
Sr1_7 Sr3_4 4.301773 1_555
Sr1_7 Sr3_2 4.301773 1_555
Sr2_0 Sr3_0 4.000043 1_555
Sr2_0 Sr2_6 4.014075 1_455
Sr2_0 Sr2_6 4.014075 1_545
Sr2_0 Sr3_2 4.198103 1_555
Sr2_0 Sr3_4 4.198103 1_555
Sr2_1 Sr3_1 4.000043 1_555
Sr2_1 Sr2_7 4.014075 1_455
Sr2_1 Sr2_7 4.014075 1_545
Sr2_1 Sr3_5 4.198103 1_555
Sr2_1 Sr3_3 4.198103 1_555
Sr2_2 Sr3_2 4.000043 1_555
Sr2_2 Sr2_4 4.014075 1_465
Sr2_2 Sr2_4 4.014075 1_555
Sr2_2 Sr3_0 4.198103 1_565
Sr2_2 Sr3_6 4.198103 1_555
Sr2_3 Sr3_3 4.000043 1_555
Sr2_3 Sr2_5 4.014075 1_465
Sr2_3 Sr2_5 4.014075 1_555
Sr2_3 Sr3_1 4.198103 1_565
Sr2_3 Sr3_7 4.198103 1_555
Sr2_4 Sr3_4 4.000043 1_555
Sr2_4 Sr3_6 4.198103 1_555
Sr2_4 Sr3_0 4.198103 1_655
Sr2_5 Sr3_5 4.000043 1_555
Sr2_5 Sr3_1 4.198103 1_655
Sr2_5 Sr3_7 4.198103 1_555
Sr2_6 Sr3_6 4.000043 1_555
Sr2_6 Sr3_2 4.198103 1_655
Sr2_6 Sr3_4 4.198103 1_565
Sr2_7 Sr3_7 4.000043 1_555
Sr2_7 Sr3_3 4.198103 1_655
Sr2_7 Sr3_5 4.198103 1_565
Sr3_0 Sr3_6 4.014075 1_545
Sr3_0 Sr3_6 4.014075 1_455
Sr3_1 Sr3_7 4.014075 1_455
Sr3_1 Sr3_7 4.014075 1_545
Sr3_2 Sr3_4 4.014075 1_465
Sr3_2 Sr3_4 4.014075 1_555
Sr3_3 Sr3_5 4.014075 1_465
Sr3_3 Sr3_5 4.014075 1_555
Mg0_0 Mg1_4 3.146295 1_555
Mg0_0 Mg1_2 3.146295 1_555
Mg0_0 Sr1_4 3.703673 1_555
Mg0_0 Sr1_2 3.703673 1_555
Mg0_0 Sr2_4 3.704410 1_455
Mg0_0 Sr2_2 3.704410 1_545
Mg0_0 Sr0_4 3.758945 1_555
Mg0_0 Sr0_2 3.758945 1_555
Mg0_0 Sr3_0 3.873992 1_555
Mg0_1 Mg1_5 3.146295 1_555
Mg0_1 Mg1_3 3.146295 1_555
Mg0_1 Sr1_3 3.703673 1_555
Mg0_1 Sr1_5 3.703673 1_555
Mg0_1 Sr2_5 3.704410 1_455
Mg0_1 Sr2_3 3.704410 1_545
Mg0_1 Sr0_3 3.758945 1_555
Mg0_1 Sr0_5 3.758945 1_555
Mg0_1 Sr3_1 3.873992 1_555
Mg0_2 Mg1_0 3.146295 1_565
Mg0_2 Mg1_6 3.146295 1_555
Mg0_2 Sr1_0 3.703673 1_565
Mg0_2 Sr1_6 3.703673 1_555
Mg0_2 Sr2_6 3.704410 1_455
Mg0_2 Sr2_0 3.704410 1_555
Mg0_2 Sr0_6 3.758945 1_555
Mg0_2 Sr0_0 3.758945 1_565
Mg0_2 Sr3_2 3.873992 1_555
Mg0_3 Mg1_7 3.146295 1_555
Mg0_3 Mg1_1 3.146295 1_565
Mg0_3 Sr1_7 3.703673 1_555
Mg0_3 Sr1_1 3.703673 1_565
Mg0_3 Sr2_7 3.704410 1_455
Mg0_3 Sr2_1 3.704410 1_555
Mg0_3 Sr0_7 3.758945 1_555
Mg0_3 Sr0_1 3.758945 1_565
Mg0_3 Sr3_3 3.873992 1_555
Mg0_4 Mg1_0 3.146295 1_655
Mg0_4 Mg1_6 3.146295 1_555
Mg0_4 Sr1_0 3.703673 1_655
Mg0_4 Sr1_6 3.703673 1_555
Mg0_4 Sr2_6 3.704410 1_545
Mg0_4 Sr2_0 3.704410 1_555
Mg0_4 Sr0_6 3.758945 1_555
Mg0_4 Sr0_0 3.758945 1_655
Mg0_4 Sr3_4 3.873992 1_555
Mg0_5 Mg1_7 3.146295 1_555
Mg0_5 Mg1_1 3.146295 1_655
Mg0_5 Sr1_1 3.703673 1_655
Mg0_5 Sr1_7 3.703673 1_555
Mg0_5 Sr2_7 3.704410 1_545
Mg0_5 Sr2_1 3.704410 1_555
Mg0_5 Sr0_7 3.758945 1_555
Mg0_5 Sr0_1 3.758945 1_655
Mg0_5 Sr3_5 3.873992 1_555
Mg0_6 Mg1_2 3.146295 1_655
Mg0_6 Mg1_4 3.146295 1_565
Mg0_6 Sr1_2 3.703673 1_655
Mg0_6 Sr1_4 3.703673 1_565
Mg0_6 Sr2_2 3.704410 1_555
Mg0_6 Sr2_4 3.704410 1_555
Mg0_6 Sr0_2 3.758945 1_655
Mg0_6 Sr0_4 3.758945 1_565
Mg0_6 Sr3_6 3.873992 1_555
Mg0_7 Mg1_3 3.146295 1_655
Mg0_7 Mg1_5 3.146295 1_565
Mg0_7 Sr1_5 3.703673 1_565
Mg0_7 Sr1_3 3.703673 1_655
Mg0_7 Sr2_3 3.704410 1_555
Mg0_7 Sr2_5 3.704410 1_555
Mg0_7 Sr0_3 3.758945 1_655
Mg0_7 Sr0_5 3.758945 1_565
Mg0_7 Sr3_7 3.873992 1_555
Mg1_0 Sr2_2 3.703673 1_545
Mg1_0 Sr2_4 3.703673 1_455
Mg1_0 Sr1_2 3.704410 1_555
Mg1_0 Sr1_4 3.704410 1_555
Mg1_0 Sr3_2 3.758945 1_545
Mg1_0 Sr3_4 3.758945 1_455
Mg1_0 Sr0_0 3.873992 1_555
Mg1_1 Sr2_5 3.703673 1_455
Mg1_1 Sr2_3 3.703673 1_545
Mg1_1 Sr1_5 3.704410 1_555
Mg1_1 Sr1_3 3.704410 1_555
Mg1_1 Sr3_3 3.758945 1_545
Mg1_1 Sr3_5 3.758945 1_455
Mg1_1 Sr0_1 3.873992 1_555
Mg1_2 Sr2_0 3.703673 1_555
Mg1_2 Sr2_6 3.703673 1_455
Mg1_2 Sr1_6 3.704410 1_555
Mg1_2 Sr1_0 3.704410 1_565
Mg1_2 Sr3_6 3.758945 1_455
Mg1_2 Sr3_0 3.758945 1_555
Mg1_2 Sr0_2 3.873992 1_555
Mg1_3 Sr2_7 3.703673 1_455
Mg1_3 Sr2_1 3.703673 1_555
Mg1_3 Sr1_7 3.704410 1_555
Mg1_3 Sr1_1 3.704410 1_565
Mg1_3 Sr3_7 3.758945 1_455
Mg1_3 Sr3_1 3.758945 1_555
Mg1_3 Sr0_3 3.873992 1_555
Mg1_4 Sr2_0 3.703673 1_555
Mg1_4 Sr2_6 3.703673 1_545
Mg1_4 Sr1_6 3.704410 1_555
Mg1_4 Sr1_0 3.704410 1_655
Mg1_4 Sr3_6 3.758945 1_545
Mg1_4 Sr3_0 3.758945 1_555
Mg1_4 Sr0_4 3.873992 1_555
Mg1_5 Sr2_7 3.703673 1_545
Mg1_5 Sr2_1 3.703673 1_555
Mg1_5 Sr1_7 3.704410 1_555
Mg1_5 Sr1_1 3.704410 1_655
Mg1_5 Sr3_7 3.758945 1_545
Mg1_5 Sr3_1 3.758945 1_555
Mg1_5 Sr0_5 3.873992 1_555
Mg1_6 Sr2_4 3.703673 1_555
Mg1_6 Sr2_2 3.703673 1_555
Mg1_6 Sr1_4 3.704410 1_565
Mg1_6 Sr1_2 3.704410 1_655
Mg1_6 Sr3_2 3.758945 1_555
Mg1_6 Sr3_4 3.758945 1_555
Mg1_6 Sr0_6 3.873992 1_555
Mg1_7 Sr2_5 3.703673 1_555
Mg1_7 Sr2_3 3.703673 1_555
Mg1_7 Sr1_3 3.704410 1_655
Mg1_7 Sr1_5 3.704410 1_565
Mg1_7 Sr3_5 3.758945 1_555
Mg1_7 Sr3_3 3.758945 1_555
Mg1_7 Sr0_7 3.873992 1_555
