# generated using pymatgen
data_Sr2TiRuO6
_symmetry_space_group_name_H-M   'P 1'
_cell_length_a   3.94737600
_cell_length_b   3.94737600
_cell_length_c   7.95574000
_cell_angle_alpha   90.00000000
_cell_angle_beta   90.00000000
_cell_angle_gamma   90.00000000
_symmetry_Int_Tables_number   1
_chemical_formula_structural   Sr2TiRuO6
_chemical_formula_sum   'Sr2 Ti1 Ru1 O6'
_cell_volume   123.96456882
_cell_formula_units_Z   1
loop_
 _symmetry_equiv_pos_site_id
 _symmetry_equiv_pos_as_xyz
  1  'x, y, z'
loop_
 _atom_site_type_symbol
 _atom_site_label
 _atom_site_symmetry_multiplicity
 _atom_site_fract_x
 _atom_site_fract_y
 _atom_site_fract_z
 _atom_site_occupancy
  Sr  Sr0  1  0.50000000  0.50000000  0.74699800  1
  Sr  Sr1  1  0.50000000  0.50000000  0.25300200  1
  Ti  Ti0  1  0.00000000  0.00000000  0.50000000  1
  Ru  Ru0  1  0.00000000  0.00000000  0.00000000  1
  O  O0  1  0.00000000  0.00000000  0.74589600  1
  O  O1  1  0.00000000  0.00000000  0.25410400  1
  O  O2  1  0.50000000  0.00000000  0.50000000  1
  O  O3  1  0.50000000  0.00000000  0.00000000  1
  O  O4  1  0.00000000  0.50000000  0.50000000  1
  O  O5  1  0.00000000  0.50000000  0.00000000  1
loop_
_geom_bond_atom_site_label_1
_geom_bond_atom_site_label_2
_geom_bond_distance
_geom_bond_site_symmetry_2
O0 Ti0 1.956285 1_555
O0 Ru0 2.021585 1_556
O0 Sr0 2.791230 1_455
O0 Sr0 2.791230 1_555
O0 Sr0 2.791230 1_445
O0 Sr0 2.791230 1_545
O1 Ti0 1.956285 1_555
O1 Ru0 2.021585 1_555
O1 Sr1 2.791230 1_545
O1 Sr1 2.791230 1_555
O1 Sr1 2.791230 1_455
O1 Sr1 2.791230 1_445
O2 Ti0 1.973688 1_555
O2 Ti0 1.973688 1_655
O2 Sr1 2.785116 1_545
O2 Sr1 2.785116 1_555
O2 Sr0 2.785116 1_545
O2 Sr0 2.785116 1_555
O3 Ru0 1.973688 1_555
O3 Ru0 1.973688 1_655
O3 Sr0 2.819021 1_554
O3 Sr1 2.819021 1_555
O3 Sr0 2.819021 1_544
O3 Sr1 2.819021 1_545
O4 Ti0 1.973688 1_555
O4 Ti0 1.973688 1_565
O4 Sr1 2.785116 1_455
O4 Sr1 2.785116 1_555
O4 Sr0 2.785116 1_455
O4 Sr0 2.785116 1_555
O5 Ru0 1.973688 1_565
O5 Ru0 1.973688 1_555
O5 Sr0 2.819021 1_554
O5 Sr1 2.819021 1_455
O5 Sr1 2.819021 1_555
O5 Sr0 2.819021 1_454
