# generated using pymatgen
data_Te2Mo3WSe6
_symmetry_space_group_name_H-M   'P 1'
_cell_length_a   3.37968023
_cell_length_b   3.37968023
_cell_length_c   38.50766900
_cell_angle_alpha   90.00000000
_cell_angle_beta   90.00000000
_cell_angle_gamma   120.00000446
_symmetry_Int_Tables_number   1
_chemical_formula_structural   Te2Mo3WSe6
_chemical_formula_sum   'Te2 Mo3 W1 Se6'
_cell_volume   380.91586765
_cell_formula_units_Z   1
loop_
 _symmetry_equiv_pos_site_id
 _symmetry_equiv_pos_as_xyz
  1  'x, y, z'
loop_
 _atom_site_type_symbol
 _atom_site_label
 _atom_site_symmetry_multiplicity
 _atom_site_fract_x
 _atom_site_fract_y
 _atom_site_fract_z
 _atom_site_occupancy
  Te  Te0  1  0.00000000  0.00000000  0.33066800  1
  Te  Te1  1  0.00000000  0.00000000  0.23293400  1
  Mo  Mo0  1  0.00000000  0.00000000  0.09390900  1
  Mo  Mo1  1  0.33333300  0.66666700  0.28179800  1
  Mo  Mo2  1  0.33333300  0.66666700  0.65752300  1
  W  W0  1  0.00000000  0.00000000  0.46966900  1
  Se  Se0  1  0.00000000  0.00000000  0.70052200  1
  Se  Se1  1  0.33333300  0.66666700  0.05093200  1
  Se  Se2  1  0.33333300  0.66666700  0.42654000  1
  Se  Se3  1  0.33333300  0.66666700  0.13692200  1
  Se  Se4  1  0.33333300  0.66666700  0.51280500  1
  Se  Se5  1  0.00000000  0.00000000  0.61452700  1
loop_
_geom_bond_atom_site_label_1
_geom_bond_atom_site_label_2
_geom_bond_distance
_geom_bond_site_symmetry_2
Mo0 Se1 2.558563 1_545
Mo0 Se1 2.558565 1_555
Mo0 Se1 2.558565 1_445
Mo0 Se3 2.559460 1_545
Mo0 Se3 2.559462 1_555
Mo0 Se3 2.559462 1_445
Mo1 Te1 2.710714 1_565
Mo1 Te1 2.710716 1_665
Mo1 Te1 2.710716 1_555
Mo1 Te0 2.710874 1_565
Mo1 Te0 2.710876 1_665
Mo1 Te0 2.710876 1_555
Mo2 Se5 2.559036 1_565
Mo2 Se5 2.559039 1_665
Mo2 Se5 2.559039 1_555
Mo2 Se0 2.559111 1_565
Mo2 Se0 2.559113 1_665
Mo2 Se0 2.559113 1_555
Se2 W0 2.562353 1_565
Se2 W0 2.562355 1_555
Se2 W0 2.562355 1_665
Se4 W0 2.562528 1_565
Se4 W0 2.562530 1_555
Se4 W0 2.562530 1_665
