# generated using pymatgen
data_C18BrF13
_symmetry_space_group_name_H-M   'P 1'
_cell_length_a   5.65279000
_cell_length_b   15.27970900
_cell_length_c   21.28226500
_cell_angle_alpha   90.00000000
_cell_angle_beta   90.00000000
_cell_angle_gamma   90.00000000
_symmetry_Int_Tables_number   1
_chemical_formula_structural   C18BrF13
_chemical_formula_sum   'C72 Br4 F52'
_cell_volume   1838.21278196
_cell_formula_units_Z   4
loop_
 _symmetry_equiv_pos_site_id
 _symmetry_equiv_pos_as_xyz
  1  'x, y, z'
loop_
 _atom_site_type_symbol
 _atom_site_label
 _atom_site_symmetry_multiplicity
 _atom_site_fract_x
 _atom_site_fract_y
 _atom_site_fract_z
 _atom_site_occupancy
  C  C0  1  0.68056500  0.58349600  0.60864500  1
  C  C1  1  0.31943500  0.41650400  0.39135500  1
  C  C2  1  0.18056500  0.41650400  0.89135500  1
  C  C3  1  0.31943500  0.08349600  0.39135500  1
  C  C4  1  0.81943500  0.58349600  0.10864500  1
  C  C5  1  0.68056500  0.91650400  0.60864500  1
  C  C6  1  0.81943500  0.91650400  0.10864500  1
  C  C7  1  0.18056500  0.08349600  0.89135500  1
  C  C8  1  0.76201600  0.08241900  0.66311800  1
  C  C9  1  0.23798400  0.91758100  0.33688200  1
  C  C10  1  0.26201600  0.91758100  0.83688200  1
  C  C11  1  0.23798400  0.58241900  0.33688200  1
  C  C12  1  0.73798400  0.08241900  0.16311800  1
  C  C13  1  0.76201600  0.41758100  0.66311800  1
  C  C14  1  0.73798400  0.41758100  0.16311800  1
  C  C15  1  0.26201600  0.58241900  0.83688200  1
  C  C16  1  0.68018200  0.75000000  0.60864400  1
  C  C17  1  0.31981800  0.25000000  0.39135600  1
  C  C18  1  0.18018200  0.25000000  0.89135600  1
  C  C19  1  0.81981800  0.75000000  0.10864400  1
  C  C20  1  0.56427900  0.03329200  0.68060600  1
  C  C21  1  0.43572100  0.96670800  0.31939400  1
  C  C22  1  0.06427900  0.96670800  0.81939400  1
  C  C23  1  0.43572100  0.53329200  0.31939400  1
  C  C24  1  0.93572100  0.03329200  0.18060600  1
  C  C25  1  0.56427900  0.46670800  0.68060600  1
  C  C26  1  0.93572100  0.46670800  0.18060600  1
  C  C27  1  0.06427900  0.53329200  0.81939400  1
  C  C28  1  0.63320100  0.66953100  0.57901800  1
  C  C29  1  0.36679900  0.33046900  0.42098200  1
  C  C30  1  0.13320100  0.33046900  0.92098200  1
  C  C31  1  0.36679900  0.16953100  0.42098200  1
  C  C32  1  0.86679900  0.66953100  0.07901800  1
  C  C33  1  0.63320100  0.83046900  0.57901800  1
  C  C34  1  0.86679900  0.83046900  0.07901800  1
  C  C35  1  0.13320100  0.16953100  0.92098200  1
  C  C36  1  0.53600000  0.67148300  0.51863300  1
  C  C37  1  0.46400000  0.32851700  0.48136700  1
  C  C38  1  0.03600000  0.32851700  0.98136700  1
  C  C39  1  0.46400000  0.17148300  0.48136700  1
  C  C40  1  0.96400000  0.67148300  0.01863300  1
  C  C41  1  0.53600000  0.82851700  0.51863300  1
  C  C42  1  0.96400000  0.82851700  0.01863300  1
  C  C43  1  0.03600000  0.17148300  0.98136700  1
  C  C44  1  0.52608200  0.54832000  0.65320300  1
  C  C45  1  0.47391800  0.45168000  0.34679700  1
  C  C46  1  0.02608200  0.45168000  0.84679700  1
  C  C47  1  0.47391800  0.04832000  0.34679700  1
  C  C48  1  0.97391800  0.54832000  0.15320300  1
  C  C49  1  0.52608200  0.95168000  0.65320300  1
  C  C50  1  0.97391800  0.95168000  0.15320300  1
  C  C51  1  0.02608200  0.04832000  0.84679700  1
  C  C52  1  0.91933700  0.04902000  0.61850400  1
  C  C53  1  0.08066300  0.95098000  0.38149600  1
  C  C54  1  0.41933700  0.95098000  0.88149600  1
  C  C55  1  0.08066300  0.54902000  0.38149600  1
  C  C56  1  0.58066300  0.04902000  0.11850400  1
  C  C57  1  0.91933700  0.45098000  0.61850400  1
  C  C58  1  0.58066300  0.45098000  0.11850400  1
  C  C59  1  0.41933700  0.54902000  0.88149600  1
  C  C60  1  0.87712500  0.53306300  0.59191900  1
  C  C61  1  0.12287500  0.46693700  0.40808100  1
  C  C62  1  0.37712500  0.46693700  0.90808100  1
  C  C63  1  0.12287500  0.03306300  0.40808100  1
  C  C64  1  0.62287500  0.53306300  0.09191900  1
  C  C65  1  0.87712500  0.96693700  0.59191900  1
  C  C66  1  0.62287500  0.96693700  0.09191900  1
  C  C67  1  0.37712500  0.03306300  0.90808100  1
  C  C68  1  0.01158900  0.75000000  0.98789800  1
  C  C69  1  0.98841100  0.25000000  0.01210200  1
  C  C70  1  0.51158900  0.25000000  0.51210200  1
  C  C71  1  0.48841100  0.75000000  0.48789800  1
  Br  Br0  1  0.81816000  0.75000000  0.68959900  1
  Br  Br1  1  0.18184000  0.25000000  0.31040100  1
  Br  Br2  1  0.31816000  0.25000000  0.81040100  1
  Br  Br3  1  0.68184000  0.75000000  0.18959900  1
  F  F0  1  0.83157900  0.09370600  0.82922600  1
  F  F1  1  0.16842100  0.90629400  0.17077400  1
  F  F2  1  0.33157900  0.90629400  0.67077400  1
  F  F3  1  0.16842100  0.59370600  0.17077400  1
  F  F4  1  0.66842100  0.09370600  0.32922600  1
  F  F5  1  0.83157900  0.40629400  0.82922600  1
  F  F6  1  0.66842100  0.40629400  0.32922600  1
  F  F7  1  0.33157900  0.59370600  0.67077400  1
  F  F8  1  0.51200800  0.09587000  0.51159900  1
  F  F9  1  0.48799200  0.90413000  0.48840100  1
  F  F10  1  0.01200800  0.90413000  0.98840100  1
  F  F11  1  0.48799200  0.59587000  0.48840100  1
  F  F12  1  0.98799200  0.09587000  0.01159900  1
  F  F13  1  0.51200800  0.40413000  0.51159900  1
  F  F14  1  0.98799200  0.40413000  0.01159900  1
  F  F15  1  0.01200800  0.59587000  0.98840100  1
  F  F16  1  0.10152700  0.75000000  0.92919400  1
  F  F17  1  0.89847300  0.25000000  0.07080600  1
  F  F18  1  0.60152700  0.25000000  0.57080600  1
  F  F19  1  0.39847300  0.75000000  0.42919400  1
  F  F20  1  0.90909800  0.56474900  0.77691000  1
  F  F21  1  0.09090200  0.43525100  0.22309000  1
  F  F22  1  0.40909800  0.43525100  0.72309000  1
  F  F23  1  0.09090200  0.06474900  0.22309000  1
  F  F24  1  0.59090200  0.56474900  0.27691000  1
  F  F25  1  0.90909800  0.93525100  0.77691000  1
  F  F26  1  0.59090200  0.93525100  0.27691000  1
  F  F27  1  0.40909800  0.06474900  0.72309000  1
  F  F28  1  0.80156600  0.16099400  0.68939300  1
  F  F29  1  0.19843400  0.83900600  0.31060700  1
  F  F30  1  0.30156600  0.83900600  0.81060700  1
  F  F31  1  0.19843400  0.66099400  0.31060700  1
  F  F32  1  0.69843400  0.16099400  0.18939300  1
  F  F33  1  0.80156600  0.33900600  0.68939300  1
  F  F34  1  0.69843400  0.33900600  0.18939300  1
  F  F35  1  0.30156600  0.66099400  0.81060700  1
  F  F36  1  0.03309500  0.56466600  0.54943200  1
  F  F37  1  0.96690500  0.43533400  0.45056800  1
  F  F38  1  0.53309500  0.43533400  0.95056800  1
  F  F39  1  0.96690500  0.06466600  0.45056800  1
  F  F40  1  0.46690500  0.56466600  0.04943200  1
  F  F41  1  0.03309500  0.93533400  0.54943200  1
  F  F42  1  0.46690500  0.93533400  0.04943200  1
  F  F43  1  0.53309500  0.06466600  0.95056800  1
  F  F44  1  0.61075100  0.59600200  0.89872900  1
  F  F45  1  0.38924900  0.40399800  0.10127100  1
  F  F46  1  0.11075100  0.40399800  0.60127100  1
  F  F47  1  0.38924900  0.09600200  0.10127100  1
  F  F48  1  0.88924900  0.59600200  0.39872900  1
  F  F49  1  0.61075100  0.90399800  0.89872900  1
  F  F50  1  0.88924900  0.90399800  0.39872900  1
  F  F51  1  0.11075100  0.09600200  0.60127100  1
loop_
_geom_bond_atom_site_label_1
_geom_bond_atom_site_label_2
_geom_bond_distance
_geom_bond_site_symmetry_2
C0 C44 1.396686 1_555
C0 C60 1.398253 1_555
C0 C28 1.482362 1_555
C1 C45 1.396686 1_555
C1 C61 1.398253 1_555
C1 C29 1.482362 1_555
C2 C46 1.396686 1_555
C2 C62 1.398253 1_555
C2 C30 1.482362 1_555
C3 C47 1.396686 1_555
C3 C63 1.398253 1_555
C3 C31 1.482362 1_555
C4 C48 1.396686 1_555
C4 C64 1.398253 1_555
C5 C65 1.398253 1_555
C6 C66 1.398253 1_555
C8 F28 1.343177 1_555
C9 F29 1.343177 1_555
C10 F30 1.343177 1_555
C11 F31 1.343177 1_555
C12 F32 1.343177 1_555
C13 F33 1.343177 1_555
C14 F34 1.343177 1_555
C15 F35 1.343177 1_555
C16 C33 1.407070 1_555
C16 C28 1.407070 1_555
C17 C29 1.407070 1_555
C17 C31 1.407070 1_555
C18 C30 1.407070 1_555
C18 C35 1.407070 1_555
C19 C32 1.407070 1_555
C19 C34 1.407070 1_555
C20 F27 1.348338 1_555
C21 F26 1.348338 1_555
C22 F25 1.348338 1_455
C23 F24 1.348338 1_555
C24 F23 1.348338 1_655
C25 F22 1.348338 1_555
C26 F21 1.348338 1_655
C27 F20 1.348338 1_455
C28 C36 1.397981 1_555
C29 C37 1.397981 1_555
C30 C38 1.397981 1_555
C31 C39 1.397981 1_555
C32 C40 1.397981 1_555
C32 C4 1.482362 1_555
C33 C41 1.397981 1_555
C33 C5 1.482362 1_555
C34 C42 1.397981 1_555
C34 C6 1.482362 1_555
C35 C43 1.397981 1_555
C35 C7 1.482362 1_555
C36 F11 1.349977 1_555
C37 F13 1.349977 1_555
C38 F14 1.349977 1_456
C39 F8 1.349977 1_555
C40 F15 1.349977 1_654
C41 F9 1.349977 1_555
C42 F10 1.349977 1_654
C43 F12 1.349977 1_456
C44 F7 1.352637 1_555
C45 F6 1.352637 1_555
C46 F5 1.352637 1_455
C47 F4 1.352637 1_555
C48 F3 1.352637 1_655
C49 F2 1.352637 1_555
C49 C5 1.396686 1_555
C50 F1 1.352637 1_655
C50 C6 1.396686 1_555
C51 F0 1.352637 1_455
C51 C7 1.396686 1_555
C52 F51 1.349305 1_655
C53 F50 1.349305 1_455
C54 F49 1.349305 1_555
C55 F48 1.349305 1_455
C56 F47 1.349305 1_555
C57 F46 1.349305 1_655
C58 F45 1.349305 1_555
C59 F44 1.349305 1_555
C60 F36 1.352082 1_655
C61 F37 1.352082 1_455
C62 F38 1.352082 1_555
C63 F39 1.352082 1_455
C64 F40 1.352082 1_555
C65 F41 1.352082 1_655
C66 F42 1.352082 1_555
C67 F43 1.352082 1_555
C67 C7 1.398253 1_555
C68 F16 1.348835 1_555
C69 F17 1.348835 1_555
C70 F18 1.348835 1_555
C71 F19 1.348835 1_555
Br0 C16 1.891228 1_555
Br1 C17 1.891228 1_555
Br2 C18 1.891228 1_555
Br3 C19 1.891228 1_555
