# generated using pymatgen
data_Nb3Fe(Se4S)2
_symmetry_space_group_name_H-M   'P 1'
_cell_length_a   3.50080000
_cell_length_b   9.41967600
_cell_length_c   10.11270167
_cell_angle_alpha   66.74805664
_cell_angle_beta   90.00000000
_cell_angle_gamma   90.00000000
_symmetry_Int_Tables_number   1
_chemical_formula_structural   Nb3Fe(Se4S)2
_chemical_formula_sum   'Nb3 Fe1 Se8 S2'
_cell_volume   306.39449888
_cell_formula_units_Z   1
loop_
 _symmetry_equiv_pos_site_id
 _symmetry_equiv_pos_as_xyz
  1  'x, y, z'
loop_
 _atom_site_type_symbol
 _atom_site_label
 _atom_site_symmetry_multiplicity
 _atom_site_fract_x
 _atom_site_fract_y
 _atom_site_fract_z
 _atom_site_occupancy
  Nb  Nb0  1  0.00000000  0.27895600  0.64100600  1
  Nb  Nb1  1  0.50000000  0.72305500  0.36800100  1
  Nb  Nb2  1  0.00000000  0.54150100  0.07935600  1
  Fe  Fe0  1  0.50000000  0.45524700  0.90166400  1
  Se  Se0  1  0.50000000  0.04524000  0.76102500  1
  Se  Se1  1  0.00000000  0.95589800  0.24672600  1
  Se  Se2  1  0.50000000  0.48659800  0.64751800  1
  Se  Se3  1  0.00000000  0.51086600  0.36901600  1
  Se  Se4  1  0.50000000  0.16739300  0.50749400  1
  Se  Se5  1  0.00000000  0.83623400  0.50057800  1
  Se  Se6  1  0.00000000  0.26540400  0.91464900  1
  Se  Se7  1  0.50000000  0.75627800  0.08497600  1
  S  S0  1  0.00000000  0.63091600  0.83219400  1
  S  S1  1  0.50000000  0.34641300  0.14579400  1
loop_
_geom_bond_atom_site_label_1
_geom_bond_atom_site_label_2
_geom_bond_distance
_geom_bond_site_symmetry_2
Nb0 Se2 2.644912 1_555
Nb0 Se2 2.644912 1_455
Nb0 Se4 2.666737 1_455
Nb0 Se4 2.666737 1_555
Nb0 Se0 2.697042 1_455
Nb0 Se0 2.697042 1_555
Nb0 Se6 2.719405 1_555
Nb0 Se3 2.755639 1_555
Nb1 Se3 2.653830 1_555
Nb1 Se3 2.653830 1_655
Nb1 Se5 2.669557 1_655
Nb1 Se5 2.669557 1_555
Nb1 Se1 2.693469 1_555
Nb1 Se1 2.693469 1_655
Nb1 Se7 2.753655 1_555
Nb1 Se2 2.824918 1_555
Nb2 S0 2.301003 1_554
Nb2 S1 2.432589 1_455
Nb2 S1 2.432589 1_555
Nb2 Se7 2.692762 1_455
Nb2 Se7 2.692762 1_555
Nb2 Se3 2.827781 1_555
Fe0 S1 2.268855 1_556
Fe0 S0 2.319002 1_655
Fe0 S0 2.319002 1_555
Fe0 Se2 2.468477 1_555
Fe0 Se6 2.468524 1_555
Fe0 Se6 2.468524 1_655
Se0 Se4 2.359706 1_555
Se1 Se5 2.361363 1_555
