# generated using pymatgen
data_CeVO3
_symmetry_space_group_name_H-M   'P 1'
_cell_length_a   5.48327617
_cell_length_b   5.64619193
_cell_length_c   7.69414850
_cell_angle_alpha   90.00000000
_cell_angle_beta   90.00000000
_cell_angle_gamma   90.00000000
_symmetry_Int_Tables_number   1
_chemical_formula_structural   CeVO3
_chemical_formula_sum   'Ce4 V4 O12'
_cell_volume   238.20798812
_cell_formula_units_Z   4
loop_
 _symmetry_equiv_pos_site_id
 _symmetry_equiv_pos_as_xyz
  1  'x, y, z'
loop_
 _atom_site_type_symbol
 _atom_site_label
 _atom_site_symmetry_multiplicity
 _atom_site_fract_x
 _atom_site_fract_y
 _atom_site_fract_z
 _atom_site_occupancy
  Ce  Ce0  1  0.50932030  0.55186441  0.25000000  1
  Ce  Ce1  1  0.00932030  0.94813559  0.75000000  1
  Ce  Ce2  1  0.49067970  0.44813559  0.75000000  1
  Ce  Ce3  1  0.99067970  0.05186441  0.25000000  1
  V  V0  1  -0.00000000  0.50000000  0.50000000  1
  V  V1  1  0.50000000  0.00000000  0.50000000  1
  V  V2  1  -0.00000000  0.50000000  0.00000000  1
  V  V3  1  0.50000000  0.00000000  0.00000000  1
  O  O0  1  0.19492916  0.19622890  0.54606190  1
  O  O1  1  0.69492916  0.30377110  0.45393810  1
  O  O2  1  0.80507084  0.80377110  0.45393810  1
  O  O3  1  0.30507084  0.69622890  0.54606190  1
  O  O4  1  0.80507084  0.80377110  0.04606190  1
  O  O5  1  0.30507084  0.69622890  0.95393810  1
  O  O6  1  0.19492916  0.19622890  0.95393810  1
  O  O7  1  0.69492916  0.30377110  0.04606190  1
  O  O8  1  0.08758752  0.47304218  0.25000000  1
  O  O9  1  0.58758752  0.02695782  0.75000000  1
  O  O10  1  0.91241248  0.52695782  0.75000000  1
  O  O11  1  0.41241248  0.97304218  0.25000000  1
loop_
_geom_bond_atom_site_label_1
_geom_bond_atom_site_label_2
_geom_bond_distance
_geom_bond_site_symmetry_2
Ce0 O1 2.336700 1_555
Ce0 O7 2.336700 1_555
Ce0 O8 2.354913 1_555
Ce0 O11 2.436695 1_555
Ce0 O3 2.666034 1_555
Ce0 O5 2.666034 1_554
Ce0 O2 2.667395 1_555
Ce0 O4 2.667395 1_555
Ce1 O6 2.336700 1_565
Ce1 O0 2.336700 1_565
Ce1 O9 2.354913 1_465
Ce1 O10 2.436695 1_455
Ce1 O4 2.666034 1_456
Ce1 O2 2.666034 1_455
Ce1 O5 2.667395 1_555
Ce1 O3 2.667395 1_555
Ce2 O5 2.336700 1_555
Ce2 O3 2.336700 1_555
Ce2 O10 2.354913 1_555
Ce2 O9 2.436695 1_555
Ce2 O1 2.666034 1_555
Ce2 O7 2.666034 1_556
Ce2 O6 2.667395 1_555
Ce2 O0 2.667395 1_555
Ce3 O4 2.336700 1_545
Ce3 O2 2.336700 1_545
Ce3 O11 2.354913 1_645
Ce3 O8 2.436695 1_655
Ce3 O0 2.666034 1_655
Ce3 O6 2.666034 1_654
Ce3 O7 2.667395 1_555
Ce3 O1 2.667395 1_555
O0 V1 2.037490 1_555
O0 V0 2.051776 1_555
O1 V0 2.037490 1_655
O1 V1 2.051776 1_555
O2 V1 2.037490 1_565
O2 V0 2.051776 1_655
O3 V0 2.037490 1_555
O3 V1 2.051776 1_565
O4 V3 2.037490 1_565
O4 V2 2.051776 1_655
O5 V2 2.037490 1_556
O5 V3 2.051776 1_566
O6 V3 2.037490 1_556
O6 V2 2.051776 1_556
O7 V2 2.037490 1_655
O7 V3 2.051776 1_555
O8 V2 1.988421 1_555
O8 V0 1.988421 1_555
O9 V3 1.988421 1_556
O9 V1 1.988421 1_555
O10 V2 1.988421 1_656
O10 V0 1.988421 1_655
O11 V3 1.988421 1_565
O11 V1 1.988421 1_565
