# generated using pymatgen
data_Ti2VOs
_symmetry_space_group_name_H-M   'P 1'
_cell_length_a   4.41399553
_cell_length_b   4.41570680
_cell_length_c   7.65589742
_cell_angle_alpha   73.22808235
_cell_angle_beta   90.00865115
_cell_angle_gamma   119.99094100
_symmetry_Int_Tables_number   1
_chemical_formula_structural   Ti2VOs
_chemical_formula_sum   'Ti4 V2 Os2'
_cell_volume   121.86037881
_cell_formula_units_Z   2
loop_
 _symmetry_equiv_pos_site_id
 _symmetry_equiv_pos_as_xyz
  1  'x, y, z'
loop_
 _atom_site_type_symbol
 _atom_site_label
 _atom_site_symmetry_multiplicity
 _atom_site_fract_x
 _atom_site_fract_y
 _atom_site_fract_z
 _atom_site_occupancy
  Ti  Ti0  1  0.99993857  0.99992063  0.00012720  1
  Ti  Ti1  1  0.49994790  0.99993885  0.50010121  1
  Ti  Ti2  1  0.25005214  0.50005867  0.24990468  1
  Ti  Ti3  1  0.75006473  0.50008289  0.74986860  1
  V  V0  1  0.37499974  0.75000175  0.87499602  1
  V  V1  1  0.87499793  0.74999647  0.37500319  1
  Os  Os0  1  0.62498604  0.24997304  0.12504010  1
  Os  Os1  1  0.12501494  0.25002769  0.62496001  1
loop_
_geom_bond_atom_site_label_1
_geom_bond_atom_site_label_2
_geom_bond_distance
_geom_bond_site_symmetry_2
Ti0 V0 2.703852 1_554
Ti0 V0 2.704339 1_654
Ti0 V0 2.704849 1_664
Ti0 V1 2.706124 1_555
Ti1 V1 2.703773 1_455
Ti1 V1 2.704264 1_555
Ti1 V1 2.704764 1_565
Ti1 V0 2.706260 1_555
Ti2 V1 2.703759 1_555
Ti2 V1 2.704264 1_455
Ti2 V1 2.704780 1_445
Ti2 V0 2.706360 1_554
Ti3 V0 2.703825 1_655
Ti3 V0 2.704339 1_555
Ti3 V0 2.704849 1_545
Ti3 V1 2.706048 1_555
Os0 Ti2 2.703348 1_655
Os0 Ti0 2.703456 1_445
Os0 Ti2 2.703519 1_555
Os0 Ti0 2.703641 1_545
Os0 Ti2 2.704246 1_545
Os0 Ti0 2.704366 1_555
Os0 Ti1 2.707461 1_545
Os0 Ti3 2.708258 1_554
Os0 V1 3.122649 1_545
Os0 V1 3.122879 1_445
Os0 V0 3.122985 1_554
Os0 V0 3.123212 1_654
Os0 V1 3.123637 1_555
Os0 V0 3.123980 1_544
Os1 Ti1 2.703331 1_445
Os1 Ti3 2.703448 1_555
Os1 Ti1 2.703506 1_545
Os1 Ti3 2.703627 1_455
Os1 Ti1 2.704235 1_555
Os1 Ti3 2.704356 1_445
Os1 Ti2 2.707419 1_555
Os1 Ti0 2.708227 1_446
Os1 V1 3.122621 1_455
Os1 V1 3.122843 1_555
Os1 V0 3.122947 1_545
Os1 V0 3.123192 1_445
Os1 V1 3.123622 1_445
Os1 V0 3.123938 1_555
