# generated using pymatgen
data_CrFeCoO4
_symmetry_space_group_name_H-M   'P 1'
_cell_length_a   6.02660728
_cell_length_b   6.02660728
_cell_length_c   6.02660728
_cell_angle_alpha   119.91922229
_cell_angle_beta   119.34261930
_cell_angle_gamma   90.64117886
_symmetry_Int_Tables_number   1
_chemical_formula_structural   CrFeCoO4
_chemical_formula_sum   'Cr2 Fe2 Co2 O8'
_cell_volume   155.62404981
_cell_formula_units_Z   2
loop_
 _symmetry_equiv_pos_site_id
 _symmetry_equiv_pos_as_xyz
  1  'x, y, z'
loop_
 _atom_site_type_symbol
 _atom_site_label
 _atom_site_symmetry_multiplicity
 _atom_site_fract_x
 _atom_site_fract_y
 _atom_site_fract_z
 _atom_site_occupancy
  Cr  Cr0  1  0.50000000  0.50000000  0.00000000  1
  Cr  Cr1  1  0.00000000  0.50000000  0.50000000  1
  Fe  Fe0  1  0.37710200  0.12710200  0.25000000  1
  Fe  Fe1  1  0.62289800  0.87289800  0.75000000  1
  Co  Co0  1  0.00000000  0.50000000  0.00000000  1
  Co  Co1  1  0.00000000  0.00000000  0.50000000  1
  O  O0  1  0.75424800  0.73488500  0.48063700  1
  O  O1  1  0.75424800  0.27361100  0.01936300  1
  O  O2  1  0.23588400  0.74148400  0.49440100  1
  O  O3  1  0.74708300  0.74148400  0.00559900  1
  O  O4  1  0.24575200  0.26511500  0.51936300  1
  O  O5  1  0.24575200  0.72638900  0.98063700  1
  O  O6  1  0.76411600  0.25851600  0.50559900  1
  O  O7  1  0.25291700  0.25851600  0.99440100  1
loop_
_geom_bond_atom_site_label_1
_geom_bond_atom_site_label_2
_geom_bond_distance
_geom_bond_site_symmetry_2
Cr0 O7 2.046882 1_554
Cr0 O3 2.046882 1_555
Cr0 O0 2.062343 1_555
Cr0 O5 2.062343 1_554
Cr0 O4 2.062343 1_554
Cr0 O1 2.062343 1_555
Cr1 O6 2.046878 1_455
Cr1 O2 2.046878 1_555
Cr1 O0 2.062343 1_455
Cr1 O1 2.062343 1_455
Cr1 O4 2.062343 1_555
Cr1 O5 2.062343 1_555
Fe0 O7 1.913257 1_554
Fe0 O6 1.913262 1_555
Fe0 O4 1.970002 1_555
Fe0 O5 1.970002 1_544
Fe1 O3 1.913257 1_556
Fe1 O2 1.913262 1_555
Fe1 O1 1.970002 1_566
Fe1 O0 1.970002 1_555
Co0 O5 2.086044 1_554
Co0 O1 2.086044 1_455
Co0 O3 2.119780 1_455
Co0 O7 2.119780 1_554
Co0 O6 2.119781 1_454
Co0 O2 2.119781 1_555
Co1 O0 2.086044 1_445
Co1 O4 2.086044 1_555
Co1 O2 2.119776 1_545
Co1 O6 2.119776 1_455
Co1 O7 2.119780 1_555
Co1 O3 2.119780 1_445
