# generated using pymatgen
data_SrMgP2O7
_symmetry_space_group_name_H-M   'P 1'
_cell_length_a   8.39069200
_cell_length_b   5.37309600
_cell_length_c   13.94551465
_cell_angle_alpha   68.09210266
_cell_angle_beta   90.00000000
_cell_angle_gamma   90.00000000
_symmetry_Int_Tables_number   1
_chemical_formula_structural   SrMgP2O7
_chemical_formula_sum   'Sr4 Mg4 P8 O28'
_cell_volume   583.31641119
_cell_formula_units_Z   4
loop_
 _symmetry_equiv_pos_site_id
 _symmetry_equiv_pos_as_xyz
  1  'x, y, z'
loop_
 _atom_site_type_symbol
 _atom_site_label
 _atom_site_symmetry_multiplicity
 _atom_site_fract_x
 _atom_site_fract_y
 _atom_site_fract_z
 _atom_site_occupancy
  Sr  Sr0  1  0.16430100  0.50966100  0.77792400  1
  Sr  Sr1  1  0.66430100  0.49033900  0.72207600  1
  Sr  Sr2  1  0.83569900  0.49033900  0.22207600  1
  Sr  Sr3  1  0.33569900  0.50966100  0.27792400  1
  Mg  Mg0  1  0.34950000  0.21480100  0.60733800  1
  Mg  Mg1  1  0.15050000  0.21480100  0.10733800  1
  Mg  Mg2  1  0.65050000  0.78519900  0.39266200  1
  Mg  Mg3  1  0.84950000  0.78519900  0.89266200  1
  P  P0  1  0.96545800  0.07583300  0.66980100  1
  P  P1  1  0.20157800  0.83258300  0.97901200  1
  P  P2  1  0.53454200  0.07583300  0.16980100  1
  P  P3  1  0.03454200  0.92416700  0.33019900  1
  P  P4  1  0.79842200  0.16741700  0.02098800  1
  P  P5  1  0.29842200  0.83258300  0.47901200  1
  P  P6  1  0.70157800  0.16741700  0.52098800  1
  P  P7  1  0.46545800  0.92416700  0.83019900  1
  O  O0  1  0.09563200  0.76949500  0.90051900  1
  O  O1  1  0.59563200  0.23050500  0.59948100  1
  O  O2  1  0.90436800  0.23050500  0.09948100  1
  O  O3  1  0.40436800  0.76949500  0.40051900  1
  O  O4  1  0.17008800  0.11553700  0.97735700  1
  O  O5  1  0.67008800  0.88446300  0.52264300  1
  O  O6  1  0.82991200  0.88446300  0.02264300  1
  O  O7  1  0.32991200  0.11553700  0.47735700  1
  O  O8  1  0.19526200  0.60598200  0.08580200  1
  O  O9  1  0.69526200  0.39401800  0.41419800  1
  O  O10  1  0.80473800  0.39401800  0.91419800  1
  O  O11  1  0.30473800  0.60598200  0.58580200  1
  O  O12  1  0.38456100  0.18952900  0.76232500  1
  O  O13  1  0.88456100  0.81047100  0.73767500  1
  O  O14  1  0.61543900  0.81047100  0.23767500  1
  O  O15  1  0.11543900  0.18952900  0.26232500  1
  O  O16  1  0.11428300  0.82415400  0.44370700  1
  O  O17  1  0.61428300  0.17584600  0.05629300  1
  O  O18  1  0.88571700  0.17584600  0.55629300  1
  O  O19  1  0.38571700  0.82415400  0.94370700  1
  O  O20  1  0.85953200  0.97564300  0.34528100  1
  O  O21  1  0.35953200  0.02435700  0.15471900  1
  O  O22  1  0.14046800  0.02435700  0.65471900  1
  O  O23  1  0.64046800  0.97564300  0.84528100  1
  O  O24  1  0.06118500  0.70671800  0.28588800  1
  O  O25  1  0.56118500  0.29328200  0.21411200  1
  O  O26  1  0.93881500  0.29328200  0.71411200  1
  O  O27  1  0.43881500  0.70671800  0.78588800  1
loop_
_geom_bond_atom_site_label_1
_geom_bond_atom_site_label_2
_geom_bond_distance
_geom_bond_site_symmetry_2
Mg0 O22 2.013797 1_555
Mg0 O11 2.044013 1_555
Mg0 O1 2.068176 1_555
Mg0 O7 2.078132 1_555
Mg0 O12 2.134832 1_555
Mg1 O21 2.013797 1_555
Mg1 O8 2.044013 1_555
Mg1 O2 2.068176 1_455
Mg1 O4 2.078132 1_554
Mg1 O15 2.134832 1_555
Mg2 O20 2.013797 1_555
Mg2 O9 2.044013 1_555
Mg2 O3 2.068176 1_555
Mg2 O5 2.078132 1_555
Mg2 O14 2.134832 1_555
Mg3 O23 2.013797 1_555
Mg3 O10 2.044013 1_555
Mg3 O0 2.068176 1_655
Mg3 O6 2.078132 1_556
Mg3 O13 2.134832 1_555
O0 P1 1.542807 1_555
O0 Sr0 2.642948 1_555
O1 P6 1.542807 1_555
O1 Sr1 2.642948 1_555
O2 P4 1.542807 1_555
O2 Sr2 2.642948 1_555
O3 P5 1.542807 1_555
O3 Sr3 2.642948 1_555
O4 P1 1.534794 1_545
O4 Sr0 2.797656 1_555
O5 P6 1.534794 1_565
O5 Sr1 2.797656 1_555
O6 P4 1.534794 1_565
O6 Sr2 2.797656 1_555
O7 P5 1.534794 1_545
O7 Sr3 2.797656 1_555
O8 P1 1.532967 1_554
O8 Sr3 2.792844 1_555
O9 P6 1.532967 1_555
O9 Sr2 2.792844 1_555
O10 P4 1.532967 1_556
O10 Sr1 2.792844 1_555
O11 P5 1.532967 1_555
O11 Sr0 2.792844 1_555
O12 P7 1.543542 1_545
O12 Sr0 2.588608 1_555
O12 Sr1 2.785648 1_555
O13 P0 1.543542 1_565
O13 Sr1 2.588608 1_555
O13 Sr0 2.785648 1_655
O14 P2 1.543542 1_565
O14 Sr2 2.588608 1_555
O14 Sr3 2.785648 1_555
O15 P3 1.543542 1_545
O15 Sr3 2.588608 1_555
O15 Sr2 2.785648 1_455
O16 P3 1.614725 1_555
O16 P5 1.627356 1_555
O17 P2 1.614725 1_555
O17 P4 1.627356 1_555
O18 P0 1.614725 1_555
O18 P6 1.627356 1_555
O19 P7 1.614725 1_555
O19 P1 1.627356 1_555
O20 P3 1.523321 1_655
O20 Sr2 2.663518 1_565
O21 P2 1.523321 1_555
O21 Sr3 2.663518 1_545
O22 P0 1.523321 1_455
O22 Sr0 2.663518 1_545
O23 P7 1.523321 1_555
O23 Sr1 2.663518 1_565
O24 P3 1.528297 1_555
O24 Sr2 2.548581 1_455
O24 Sr3 2.554728 1_555
O25 P2 1.528297 1_555
O25 Sr3 2.548581 1_555
O25 Sr2 2.554728 1_555
O26 P0 1.528297 1_555
O26 Sr0 2.548581 1_655
O26 Sr1 2.554728 1_555
O27 P7 1.528297 1_555
O27 Sr1 2.548581 1_555
O27 Sr0 2.554728 1_555
