# generated using pymatgen
data_BaTe4O9
_symmetry_space_group_name_H-M   'P 1'
_cell_length_a   10.25151906
_cell_length_b   10.25151906
_cell_length_c   23.54858135
_cell_angle_alpha   67.71064779
_cell_angle_beta   67.71064779
_cell_angle_gamma   25.93140173
_symmetry_Int_Tables_number   1
_chemical_formula_structural   BaTe4O9
_chemical_formula_sum   'Ba4 Te16 O36'
_cell_volume   996.88694589
_cell_formula_units_Z   4
loop_
 _symmetry_equiv_pos_site_id
 _symmetry_equiv_pos_as_xyz
  1  'x, y, z'
loop_
 _atom_site_type_symbol
 _atom_site_label
 _atom_site_symmetry_multiplicity
 _atom_site_fract_x
 _atom_site_fract_y
 _atom_site_fract_z
 _atom_site_occupancy
  Ba  Ba0  1  0.50140400  0.08130700  0.65907200  1
  Ba  Ba1  1  0.91869300  0.49859600  0.84092800  1
  Ba  Ba2  1  0.49859600  0.91869300  0.34092800  1
  Ba  Ba3  1  0.08130700  0.50140400  0.15907200  1
  Te  Te0  1  0.71333800  0.68158300  0.55036400  1
  Te  Te1  1  0.31841700  0.28666200  0.94963600  1
  Te  Te2  1  0.28666200  0.31841700  0.44963600  1
  Te  Te3  1  0.68158300  0.71333800  0.05036400  1
  Te  Te4  1  0.78001900  0.44455200  0.71918400  1
  Te  Te5  1  0.55544800  0.21998100  0.78081600  1
  Te  Te6  1  0.21998100  0.55544800  0.28081600  1
  Te  Te7  1  0.44455200  0.78001900  0.21918400  1
  Te  Te8  1  0.21273400  0.86622500  0.84733300  1
  Te  Te9  1  0.13377500  0.78726600  0.65266700  1
  Te  Te10  1  0.78726600  0.13377500  0.15266700  1
  Te  Te11  1  0.86622500  0.21273400  0.34733300  1
  Te  Te12  1  0.76711600  0.06535900  0.00858700  1
  Te  Te13  1  0.93464100  0.23288400  0.49141300  1
  Te  Te14  1  0.23288400  0.93464100  0.99141300  1
  Te  Te15  1  0.06535900  0.76711600  0.50858700  1
  O  O0  1  0.08681000  0.43429200  0.55232700  1
  O  O1  1  0.56570800  0.91319000  0.94767300  1
  O  O2  1  0.91319000  0.56570800  0.44767300  1
  O  O3  1  0.43429200  0.08681000  0.05232700  1
  O  O4  1  0.64442100  0.13104100  0.93452900  1
  O  O5  1  0.86895900  0.35557900  0.56547100  1
  O  O6  1  0.35557900  0.86895900  0.06547100  1
  O  O7  1  0.13104100  0.64442100  0.43452900  1
  O  O8  1  0.59231100  0.74030200  0.63926800  1
  O  O9  1  0.25969800  0.40768900  0.86073200  1
  O  O10  1  0.40768900  0.25969800  0.36073200  1
  O  O11  1  0.74030200  0.59231100  0.13926800  1
  O  O12  1  0.83413100  0.28097800  0.81808600  1
  O  O13  1  0.71902200  0.16586900  0.68191400  1
  O  O14  1  0.16586900  0.71902200  0.18191400  1
  O  O15  1  0.28097800  0.83413100  0.31808600  1
  O  O16  1  0.92784400  0.47648600  0.72461800  1
  O  O17  1  0.52351400  0.07215600  0.77538200  1
  O  O18  1  0.07215600  0.52351400  0.27538200  1
  O  O19  1  0.47648600  0.92784400  0.22461800  1
  O  O20  1  0.35484600  0.89746000  0.85848000  1
  O  O21  1  0.10254000  0.64515400  0.64152000  1
  O  O22  1  0.64515400  0.10254000  0.14152000  1
  O  O23  1  0.89746000  0.35484600  0.35848000  1
  O  O24  1  0.00425900  0.00773100  0.94343100  1
  O  O25  1  0.99226900  0.99574100  0.55656900  1
  O  O26  1  0.99574100  0.99226900  0.05656900  1
  O  O27  1  0.00773100  0.00425900  0.44343100  1
  O  O28  1  0.36651800  0.80991000  0.75369700  1
  O  O29  1  0.19009000  0.63348200  0.74630300  1
  O  O30  1  0.63348200  0.19009000  0.24630300  1
  O  O31  1  0.80991000  0.36651800  0.25369700  1
  O  O32  1  0.05595600  0.67070000  0.03150800  1
  O  O33  1  0.32930000  0.94404400  0.46849200  1
  O  O34  1  0.94404400  0.32930000  0.96849200  1
  O  O35  1  0.67070000  0.05595600  0.53150800  1
loop_
_geom_bond_atom_site_label_1
_geom_bond_atom_site_label_2
_geom_bond_distance
_geom_bond_site_symmetry_2
Ba0 O21 2.694519 1_555
Ba0 O17 2.792797 1_555
Ba0 O35 2.815941 1_555
Ba0 O21 2.837172 1_645
Ba0 O8 2.890331 1_545
Ba0 O16 2.895156 1_455
Ba0 O16 3.007237 1_545
Ba0 O13 3.280289 1_555
Ba0 O0 3.319463 1_555
Ba1 O20 2.694519 1_555
Ba1 O16 2.792797 1_555
Ba1 O34 2.815941 1_555
Ba1 O20 2.837172 1_645
Ba1 O9 2.890331 1_655
Ba1 O17 2.895156 1_565
Ba1 O17 3.007237 1_655
Ba1 O12 3.280289 1_555
Ba1 O1 3.319463 1_555
Ba2 O23 2.694519 1_555
Ba2 O19 2.792797 1_555
Ba2 O33 2.815941 1_555
Ba2 O23 2.837172 1_465
Ba2 O10 2.890331 1_565
Ba2 O18 2.895156 1_655
Ba2 O18 3.007237 1_565
Ba2 O15 3.280289 1_555
Ba2 O2 3.319463 1_555
Ba3 O22 2.694519 1_555
Ba3 O18 2.792797 1_555
Ba3 O32 2.815941 1_555
Ba3 O22 2.837172 1_465
Ba3 O11 2.890331 1_455
Ba3 O19 2.895156 1_545
Ba3 O19 3.007237 1_455
Ba3 O14 3.280289 1_555
Ba3 O3 3.319463 1_555
O0 Te0 1.917082 1_455
O0 Te2 2.345168 1_555
O1 Te1 1.917082 1_565
O1 Te3 2.345168 1_556
O2 Te2 1.917082 1_655
O2 Te0 2.345168 1_555
O3 Te3 1.917082 1_545
O3 Te1 2.345168 1_554
O4 Te1 1.944150 1_555
O4 Te12 2.080084 1_556
O5 Te0 1.944150 1_555
O5 Te13 2.080084 1_555
O6 Te3 1.944150 1_555
O6 Te14 2.080084 1_554
O7 Te2 1.944150 1_555
O7 Te15 2.080084 1_555
O8 Te0 1.981664 1_555
O8 Te4 2.088539 1_555
O9 Te1 1.981664 1_555
O9 Te5 2.088539 1_555
O10 Te2 1.981664 1_555
O10 Te6 2.088539 1_555
O11 Te3 1.981664 1_555
O11 Te7 2.088539 1_555
O12 Te8 1.934185 1_645
O12 Te4 2.210944 1_555
O13 Te9 1.934185 1_645
O13 Te5 2.210944 1_555
O14 Te10 1.934185 1_465
O14 Te6 2.210944 1_555
O15 Te11 1.934185 1_465
O15 Te7 2.210944 1_555
O16 Te4 1.868496 1_555
O17 Te5 1.868496 1_555
O18 Te6 1.868496 1_555
O19 Te7 1.868496 1_555
O20 Te8 1.867297 1_555
O21 Te9 1.867297 1_555
O22 Te10 1.867297 1_555
O23 Te11 1.867297 1_555
O24 Te12 1.971843 1_456
O24 Te8 2.244581 1_545
O24 Te14 2.353569 1_545
O25 Te13 1.971843 1_565
O25 Te9 2.244581 1_655
O25 Te15 2.353569 1_655
O26 Te14 1.971843 1_654
O26 Te10 2.244581 1_565
O26 Te12 2.353569 1_565
O27 Te15 1.971843 1_545
O27 Te11 2.244581 1_455
O27 Te13 2.353569 1_455
O28 Te4 1.948567 1_555
O28 Te8 2.091022 1_555
O29 Te5 1.948567 1_555
O29 Te9 2.091022 1_555
O30 Te6 1.948567 1_555
O30 Te10 2.091022 1_555
O31 Te7 1.948567 1_555
O31 Te11 2.091022 1_555
O32 Te12 1.853727 1_465
O33 Te13 1.853727 1_465
O34 Te14 1.853727 1_645
O35 Te15 1.853727 1_645
