# generated using pymatgen
data_Y2V10O53
_symmetry_space_group_name_H-M   'P 1'
_cell_length_a   8.75421700
_cell_length_b   10.04518857
_cell_length_c   12.44859451
_cell_angle_alpha   111.42743436
_cell_angle_beta   103.78289003
_cell_angle_gamma   91.98660492
_symmetry_Int_Tables_number   1
_chemical_formula_structural   Y2V10O53
_chemical_formula_sum   'Y2 V10 O53'
_cell_volume   980.68605027
_cell_formula_units_Z   1
loop_
 _symmetry_equiv_pos_site_id
 _symmetry_equiv_pos_as_xyz
  1  'x, y, z'
loop_
 _atom_site_type_symbol
 _atom_site_label
 _atom_site_symmetry_multiplicity
 _atom_site_fract_x
 _atom_site_fract_y
 _atom_site_fract_z
 _atom_site_occupancy
  Y  Y0  1  0.88365300  0.83204300  0.13538200  1
  Y  Y1  1  0.10289100  0.19224000  0.86253400  1
  V  V0  1  0.53298500  0.79212700  0.61104500  1
  V  V1  1  0.46942300  0.20574000  0.38784200  1
  V  V2  1  0.63279200  0.65503100  0.81057000  1
  V  V3  1  0.36616100  0.34330900  0.18756700  1
  V  V4  1  0.72209100  0.33829100  0.31072500  1
  V  V5  1  0.27761000  0.66160600  0.68886700  1
  V  V6  1  0.39319100  0.36493200  0.62853900  1
  V  V7  1  0.60598700  0.63264300  0.36841400  1
  V  V8  1  0.70131500  0.49207700  0.56304000  1
  V  V9  1  0.29957700  0.50667000  0.43622500  1
  O  O0  1  0.44628900  0.57253100  0.60299600  1
  O  O1  1  0.55567200  0.42529400  0.39611400  1
  O  O2  1  0.93657800  0.99647800  0.35239400  1
  O  O3  1  0.06369200  0.00971900  0.65049900  1
  O  O4  1  0.46733200  0.84036300  0.11714600  1
  O  O5  1  0.50231400  0.13880400  0.86329200  1
  O  O6  1  0.58745200  0.94715800  0.61034600  1
  O  O7  1  0.41455100  0.05013600  0.38725500  1
  O  O8  1  0.17171600  0.88102500  0.42330100  1
  O  O9  1  0.82513500  0.12098100  0.58557000  1
  O  O10  1  0.33727900  0.21740600  0.64277000  1
  O  O11  1  0.66004500  0.77953200  0.35217400  1
  O  O12  1  0.41180700  0.71173200  0.82522500  1
  O  O13  1  0.58991500  0.28733600  0.17406100  1
  O  O14  1  0.53363400  0.47429600  0.77756800  1
  O  O15  1  0.46581900  0.52234900  0.22102000  1
  O  O16  1  0.83611100  0.57551600  0.13585700  1
  O  O17  1  0.12893900  0.43522100  0.87398900  1
  O  O18  1  0.12855500  0.85969700  0.11591100  1
  O  O19  1  0.85546600  0.15783300  0.87818500  1
  O  O20  1  0.69699700  0.67348700  0.54662200  1
  O  O21  1  0.30402700  0.32461000  0.45194300  1
  O  O22  1  0.85041900  0.42440200  0.51048700  1
  O  O23  1  0.15097100  0.57471400  0.48947900  1
  O  O24  1  0.06658400  0.06534400  0.41876100  1
  O  O25  1  0.93314200  0.94337200  0.58306500  1
  O  O26  1  0.64346200  0.80432800  0.76532800  1
  O  O27  1  0.35811100  0.19443500  0.23354000  1
  O  O28  1  0.89144800  0.18725300  0.15017200  1
  O  O29  1  0.12255600  0.83577700  0.85253600  1
  O  O30  1  0.91399400  0.25685100  0.27563700  1
  O  O31  1  0.08986800  0.74488800  0.72766700  1
  O  O32  1  0.58547900  0.91587400  0.12346200  1
  O  O33  1  0.45006900  0.05914100  0.90557200  1
  O  O34  1  0.89943900  0.46493500  0.11065200  1
  O  O35  1  0.26471700  0.52681400  0.93059300  1
  O  O36  1  0.05379500  0.79479800  0.35900600  1
  O  O37  1  0.93819800  0.21181100  0.65455200  1
  O  O38  1  0.58174900  0.32482500  0.56087100  1
  O  O39  1  0.41909900  0.67273400  0.43785300  1
  O  O40  1  0.74247100  0.71898800  0.95904300  1
  O  O41  1  0.25433900  0.27924700  0.03935700  1
  O  O42  1  0.34312400  0.81192500  0.65094800  1
  O  O43  1  0.65902600  0.18596900  0.34816400  1
  O  O44  1  0.10651000  0.72985600  0.12075400  1
  O  O45  1  0.87784200  0.29174800  0.88310300  1
  O  O46  1  0.76997000  0.56908900  0.72497600  1
  O  O47  1  0.22921900  0.42876200  0.27443800  1
  O  O48  1  0.22996200  0.47274900  0.66388600  1
  O  O49  1  0.77113000  0.52688900  0.33571400  1
  O  O50  1  0.90732000  0.04939500  0.11604400  1
  O  O51  1  0.06959600  0.95978500  0.86945300  1
  O  O52  1  0.39209300  0.47148800  0.94529900  1
loop_
_geom_bond_atom_site_label_1
_geom_bond_atom_site_label_2
_geom_bond_distance
_geom_bond_site_symmetry_2
O0 V9 2.016021 1_555
O0 V5 2.066087 1_555
O0 V0 2.266754 1_555
O0 V6 2.270167 1_555
O0 V8 2.499070 1_555
O0 V2 2.522075 1_555
O1 V8 2.013318 1_555
O1 V4 2.040487 1_555
O1 V1 2.264138 1_555
O1 V7 2.277005 1_555
O1 V9 2.511161 1_555
O1 V3 2.541909 1_555
O2 O24 1.239433 1_665
O2 Y0 2.516211 1_555
O3 Y1 2.536795 1_555
O6 V0 1.616495 1_555
O7 V1 1.616143 1_555
O10 V6 1.627855 1_555
O11 V7 1.630071 1_555
O12 V5 1.702750 1_555
O12 V2 2.066112 1_555
O13 V4 1.697030 1_555
O13 V3 2.084581 1_555
O14 V2 1.842347 1_555
O14 V6 1.868330 1_555
O15 V3 1.827565 1_555
O15 V7 1.856740 1_555
O16 O34 1.229069 1_555
O16 Y0 2.598349 1_555
O17 O35 1.344354 1_555
O17 Y1 2.391945 1_555
O18 O44 1.336998 1_555
O18 Y0 2.233349 1_455
O19 O45 1.329485 1_555
O19 Y1 2.246643 1_655
O20 V8 1.907141 1_555
O20 V0 2.023350 1_555
O20 V7 2.048097 1_555
O21 V9 1.909758 1_555
O21 V6 2.028800 1_555
O21 V1 2.033033 1_555
O22 V8 1.654501 1_555
O22 V4 2.285623 1_555
O23 V9 1.655478 1_555
O23 V5 2.278278 1_555
O25 O3 1.239470 1_665
O26 V2 1.790965 1_555
O26 V0 1.890458 1_555
O27 V3 1.790573 1_555
O27 V1 1.895565 1_555
O28 O50 1.314954 1_555
O28 O30 1.418759 1_555
O29 O51 1.306107 1_555
O29 O31 1.436923 1_555
O30 V4 1.966255 1_555
O31 V5 1.952618 1_555
O32 O4 1.230677 1_555
O32 Y0 2.757508 1_555
O33 O5 1.234354 1_555
O35 O52 1.267208 1_555
O36 O8 1.222414 1_555
O36 Y0 2.988638 1_455
O37 O9 1.228613 1_555
O37 Y1 2.726458 1_655
O38 V8 1.936608 1_555
O38 V6 2.014282 1_555
O38 V1 2.015958 1_555
O39 V9 1.929271 1_555
O39 V7 2.012780 1_555
O39 V0 2.020969 1_555
O40 V2 1.730558 1_555
O40 Y0 2.103450 1_556
O41 V3 1.733403 1_555
O41 Y1 2.119048 1_554
O42 V0 1.841998 1_555
O42 V5 1.849739 1_555
O43 V1 1.838549 1_555
O43 V4 1.856961 1_555
O44 Y0 2.250455 1_455
O45 Y1 2.266279 1_655
O46 V8 1.809550 1_555
O46 V2 1.825443 1_555
O47 V9 1.808864 1_555
O47 V3 1.831478 1_555
O48 V5 1.822630 1_555
O48 V6 1.862035 1_555
O49 V4 1.821974 1_555
O49 V7 1.858817 1_555
O50 Y0 2.290041 1_545
O51 Y1 2.378356 1_565
