# generated using pymatgen
data_Ca5(GaSb3)2
_symmetry_space_group_name_H-M   'P 1'
_cell_length_a   4.46869068
_cell_length_b   12.15408919
_cell_length_c   14.05104005
_cell_angle_alpha   90.00000000
_cell_angle_beta   90.00000000
_cell_angle_gamma   90.00000000
_symmetry_Int_Tables_number   1
_chemical_formula_structural   Ca5(GaSb3)2
_chemical_formula_sum   'Ca10 Ga4 Sb12'
_cell_volume   763.15224257
_cell_formula_units_Z   2
loop_
 _symmetry_equiv_pos_site_id
 _symmetry_equiv_pos_as_xyz
  1  'x, y, z'
loop_
 _atom_site_type_symbol
 _atom_site_label
 _atom_site_symmetry_multiplicity
 _atom_site_fract_x
 _atom_site_fract_y
 _atom_site_fract_z
 _atom_site_occupancy
  Ca  Ca0  1  0.50000000  0.67250778  0.48444777  1
  Ca  Ca1  1  0.50000000  0.32749222  0.51555223  1
  Ca  Ca2  1  0.50000000  0.82749222  0.98444777  1
  Ca  Ca3  1  0.50000000  0.17250778  0.01555223  1
  Ca  Ca4  1  0.50000000  0.00000000  0.50000000  1
  Ca  Ca5  1  0.50000000  0.50000000  -0.00000000  1
  Ca  Ca6  1  0.50000000  0.90821001  0.25230345  1
  Ca  Ca7  1  0.50000000  0.09178999  0.74769655  1
  Ca  Ca8  1  0.50000000  0.40821001  0.24769655  1
  Ca  Ca9  1  0.50000000  0.59178999  0.75230345  1
  Ga  Ga0  1  0.00000000  0.33002096  0.71122652  1
  Ga  Ga1  1  0.00000000  0.66997904  0.28877348  1
  Ga  Ga2  1  -0.00000000  0.83002096  0.78877348  1
  Ga  Ga3  1  -0.00000000  0.16997904  0.21122652  1
  Sb  Sb0  1  -0.00000000  0.97619021  0.09974879  1
  Sb  Sb1  1  0.00000000  0.02380979  0.90025121  1
  Sb  Sb2  1  -0.00000000  0.47619021  0.40025121  1
  Sb  Sb3  1  -0.00000000  0.52380979  0.59974879  1
  Sb  Sb4  1  0.50000000  0.16175102  0.32117635  1
  Sb  Sb5  1  0.50000000  0.83824898  0.67882365  1
  Sb  Sb6  1  0.50000000  0.66175102  0.17882365  1
  Sb  Sb7  1  0.50000000  0.33824898  0.82117635  1
  Sb  Sb8  1  -0.00000000  0.34394568  0.09256692  1
  Sb  Sb9  1  -0.00000000  0.65605432  0.90743308  1
  Sb  Sb10  1  -0.00000000  0.84394568  0.40743308  1
  Sb  Sb11  1  0.00000000  0.15605432  0.59256692  1
loop_
_geom_bond_atom_site_label_1
_geom_bond_atom_site_label_2
_geom_bond_distance
_geom_bond_site_symmetry_2
Ca0 Sb10 3.241143 1_555
Ca0 Sb10 3.241143 1_655
Ca0 Sb3 3.298987 1_555
Ca0 Sb3 3.298987 1_655
Ca0 Sb5 3.393715 1_555
Ca0 Sb2 3.476376 1_555
Ca0 Sb2 3.476376 1_655
Ca0 Ga1 3.542964 1_655
Ca0 Ga1 3.542964 1_555
Ca1 Sb11 3.241143 1_555
Ca1 Sb11 3.241143 1_655
Ca1 Sb2 3.298987 1_555
Ca1 Sb2 3.298987 1_655
Ca1 Sb4 3.393715 1_555
Ca1 Sb3 3.476376 1_655
Ca1 Sb3 3.476376 1_555
Ca1 Ga0 3.542964 1_555
Ca1 Ga0 3.542964 1_655
Ca2 Sb9 3.241143 1_555
Ca2 Sb9 3.241143 1_655
Ca2 Sb0 3.298987 1_556
Ca2 Sb0 3.298987 1_656
Ca2 Sb6 3.393715 1_556
Ca2 Sb1 3.476376 1_565
Ca2 Sb1 3.476376 1_665
Ca2 Ga2 3.542964 1_555
Ca2 Ga2 3.542964 1_655
Ca3 Sb8 3.241143 1_555
Ca3 Sb8 3.241143 1_655
Ca3 Sb1 3.298987 1_654
Ca3 Sb1 3.298987 1_554
Ca3 Sb7 3.393715 1_554
Ca3 Sb0 3.476376 1_645
Ca3 Sb0 3.476376 1_545
Ca3 Ga3 3.542964 1_655
Ca3 Ga3 3.542964 1_555
Ca4 Sb5 3.190354 1_545
Ca4 Sb4 3.190354 1_555
Ca4 Sb10 3.206475 1_645
Ca4 Sb10 3.206475 1_545
Ca4 Sb11 3.206475 1_555
Ca4 Sb11 3.206475 1_655
Ca5 Sb6 3.190354 1_555
Ca5 Sb7 3.190354 1_554
Ca5 Sb9 3.206475 1_554
Ca5 Sb9 3.206475 1_654
Ca5 Sb8 3.206475 1_555
Ca5 Sb8 3.206475 1_655
Ca6 Sb6 3.168425 1_555
Ca6 Sb0 3.204650 1_555
Ca6 Sb0 3.204650 1_655
Ca6 Sb10 3.217703 1_555
Ca6 Sb10 3.217703 1_655
Ca6 Sb4 3.229942 1_565
Ca7 Sb7 3.168425 1_555
Ca7 Sb1 3.204650 1_655
Ca7 Sb1 3.204650 1_555
Ca7 Sb11 3.217703 1_555
Ca7 Sb11 3.217703 1_655
Ca7 Sb5 3.229942 1_545
Ca8 Sb4 3.168425 1_555
Ca8 Sb2 3.204650 1_555
Ca8 Sb2 3.204650 1_655
Ca8 Sb8 3.217703 1_555
Ca8 Sb8 3.217703 1_655
Ca8 Sb6 3.229942 1_555
Ca9 Sb5 3.168425 1_555
Ca9 Sb3 3.204650 1_555
Ca9 Sb3 3.204650 1_655
Ca9 Sb9 3.217703 1_555
Ca9 Sb9 3.217703 1_655
Ca9 Sb7 3.229942 1_555
Ga0 Sb11 2.692689 1_555
Ga0 Sb7 2.718280 1_455
Ga0 Sb7 2.718280 1_555
Ga0 Sb3 2.828622 1_555
Ga1 Sb10 2.692689 1_555
Ga1 Sb6 2.718280 1_455
Ga1 Sb6 2.718280 1_555
Ga1 Sb2 2.828622 1_555
Ga2 Sb9 2.692689 1_555
Ga2 Sb5 2.718280 1_455
Ga2 Sb5 2.718280 1_555
Ga2 Sb1 2.828622 1_565
Ga3 Sb8 2.692689 1_555
Ga3 Sb4 2.718280 1_555
Ga3 Sb4 2.718280 1_455
Ga3 Sb0 2.828622 1_545
Sb0 Sb1 2.862275 1_564
Sb2 Sb3 2.862275 1_555
