# generated using pymatgen
data_Li2VNiO4
_symmetry_space_group_name_H-M   'P 1'
_cell_length_a   5.91706229
_cell_length_b   5.91591076
_cell_length_c   5.87792791
_cell_angle_alpha   119.91981998
_cell_angle_beta   119.89639771
_cell_angle_gamma   89.73753505
_symmetry_Int_Tables_number   1
_chemical_formula_structural   Li2VNiO4
_chemical_formula_sum   'Li4 V2 Ni2 O8'
_cell_volume   146.22157290
_cell_formula_units_Z   2
loop_
 _symmetry_equiv_pos_site_id
 _symmetry_equiv_pos_as_xyz
  1  'x, y, z'
loop_
 _atom_site_type_symbol
 _atom_site_label
 _atom_site_symmetry_multiplicity
 _atom_site_fract_x
 _atom_site_fract_y
 _atom_site_fract_z
 _atom_site_occupancy
  Li  Li0  1  0.99999000  0.49997900  0.49999000  1
  Li  Li1  1  0.50000200  0.50000800  0.50003500  1
  Li  Li2  1  0.50002800  0.99999600  0.00002000  1
  Li  Li3  1  0.49999100  0.50002800  0.99995400  1
  V  V0  1  0.99996600  0.00001100  0.49984300  1
  V  V1  1  0.00001000  0.99996500  0.99999600  1
  Ni  Ni0  1  0.99999700  0.50000200  0.00004700  1
  Ni  Ni1  1  0.49995300  0.99999700  0.50000400  1
  O  O0  1  0.22436600  0.77389200  0.00327900  1
  O  O1  1  0.23094900  0.23259300  0.48852500  1
  O  O2  1  0.23791700  0.76324500  0.49272500  1
  O  O3  1  0.76879700  0.77091700  0.02753000  1
  O  O4  1  0.23140100  0.22921600  0.97263500  1
  O  O5  1  0.76209400  0.23671700  0.50735500  1
  O  O6  1  0.76895800  0.76729500  0.51136300  1
  O  O7  1  0.77558200  0.22613900  0.99669900  1
loop_
_geom_bond_atom_site_label_1
_geom_bond_atom_site_label_2
_geom_bond_distance
_geom_bond_site_symmetry_2
Li0 O6 2.083256 1_555
Li0 O1 2.083263 1_655
Li0 O7 2.112385 1_554
Li0 O0 2.112420 1_656
Li0 O2 2.134443 1_655
Li0 O5 2.134721 1_555
Li1 O2 2.193191 1_555
Li1 O5 2.193450 1_555
Li1 O6 2.202228 1_555
Li1 O1 2.202435 1_555
Li1 O4 2.204567 1_554
Li1 O3 2.204996 1_556
Li2 O4 2.081868 1_564
Li2 O3 2.081918 1_555
Li2 O2 2.121786 1_554
Li2 O5 2.121951 1_565
Li2 O7 2.127534 1_564
Li2 O0 2.127624 1_555
Li3 O6 2.140466 1_556
Li3 O1 2.140607 1_555
Li3 O4 2.151872 1_555
Li3 O3 2.152092 1_556
Li3 O7 2.293657 1_555
Li3 O0 2.293701 1_556
Ni0 O2 2.061689 1_655
Ni0 O5 2.061762 1_554
Ni0 O7 2.085757 1_554
Ni0 O0 2.086182 1_655
Ni0 O3 2.099571 1_555
Ni0 O4 2.099841 1_654
Ni1 O2 2.064341 1_555
Ni1 O5 2.064384 1_565
Ni1 O7 2.085759 1_565
Ni1 O0 2.085870 1_555
Ni1 O1 2.096907 1_565
Ni1 O6 2.097344 1_555
O0 V1 1.880255 1_554
O1 V0 1.991177 1_455
O1 V1 2.042137 1_544
O2 V0 1.981981 1_465
O3 V0 1.973119 1_565
O3 V1 2.047064 1_654
O4 V0 1.975128 1_455
O4 V1 2.047904 1_545
O5 V0 1.981454 1_555
O6 V0 1.992700 1_565
O6 V1 2.042562 1_655
O7 V1 1.880980 1_645
