# generated using pymatgen
data_ThPS
_symmetry_space_group_name_H-M   'P 1'
_cell_length_a   3.98595695
_cell_length_b   3.98595695
_cell_length_c   8.17960302
_cell_angle_alpha   90.00000000
_cell_angle_beta   90.00000000
_cell_angle_gamma   90.00000000
_symmetry_Int_Tables_number   1
_chemical_formula_structural   ThPS
_chemical_formula_sum   'Th2 P2 S2'
_cell_volume   129.95632880
_cell_formula_units_Z   2
loop_
 _symmetry_equiv_pos_site_id
 _symmetry_equiv_pos_as_xyz
  1  'x, y, z'
loop_
 _atom_site_type_symbol
 _atom_site_label
 _atom_site_symmetry_multiplicity
 _atom_site_fract_x
 _atom_site_fract_y
 _atom_site_fract_z
 _atom_site_occupancy
  Th  Th0  1  0.25000000  0.25000000  0.26407960  1
  Th  Th1  1  0.75000000  0.75000000  0.73592040  1
  P  P0  1  0.75000000  0.25000000  -0.00000000  1
  P  P1  1  0.25000000  0.75000000  -0.00000000  1
  S  S0  1  0.25000000  0.25000000  0.63164933  1
  S  S1  1  0.75000000  0.75000000  0.36835067  1
loop_
_geom_bond_atom_site_label_1
_geom_bond_atom_site_label_2
_geom_bond_distance
_geom_bond_site_symmetry_2
P0 Th0 2.939022 1_555
P0 Th0 2.939022 1_655
P0 Th1 2.939022 1_544
P0 Th1 2.939022 1_554
P1 Th0 2.939022 1_555
P1 Th0 2.939022 1_565
P1 Th1 2.939022 1_454
P1 Th1 2.939022 1_554
S0 Th1 2.944717 1_455
S0 Th1 2.944717 1_445
S0 Th1 2.944717 1_555
S0 Th1 2.944717 1_545
S0 Th0 3.006574 1_555
S1 Th0 2.944717 1_665
S1 Th0 2.944717 1_565
S1 Th0 2.944717 1_555
S1 Th0 2.944717 1_655
S1 Th1 3.006574 1_555
