# generated using pymatgen
data_Mg14TiCuO16
_symmetry_space_group_name_H-M   'P 1'
_cell_length_a   8.57209372
_cell_length_b   8.61892722
_cell_length_c   4.23942272
_cell_angle_alpha   90.00000000
_cell_angle_beta   90.00000000
_cell_angle_gamma   90.00000000
_symmetry_Int_Tables_number   1
_chemical_formula_structural   Mg14TiCuO16
_chemical_formula_sum   'Mg14 Ti1 Cu1 O16'
_cell_volume   313.21809729
_cell_formula_units_Z   1
loop_
 _symmetry_equiv_pos_site_id
 _symmetry_equiv_pos_as_xyz
  1  'x, y, z'
loop_
 _atom_site_type_symbol
 _atom_site_label
 _atom_site_symmetry_multiplicity
 _atom_site_fract_x
 _atom_site_fract_y
 _atom_site_fract_z
 _atom_site_occupancy
  Mg  Mg0  1  0.50000000  0.00000000  0.00000000  1
  Mg  Mg1  1  0.50000000  0.50000000  0.00000000  1
  Mg  Mg2  1  -0.00000000  0.24109214  0.50000000  1
  Mg  Mg3  1  0.00000000  0.75890786  0.50000000  1
  Mg  Mg4  1  0.50000000  0.24770183  0.50000000  1
  Mg  Mg5  1  0.50000000  0.75229817  0.50000000  1
  Mg  Mg6  1  0.24715745  -0.00000000  0.50000000  1
  Mg  Mg7  1  0.25258220  0.50000000  0.50000000  1
  Mg  Mg8  1  0.75284255  0.00000000  0.50000000  1
  Mg  Mg9  1  0.74741780  0.50000000  0.50000000  1
  Mg  Mg10  1  0.25052623  0.24313235  0.00000000  1
  Mg  Mg11  1  0.25052623  0.75686765  0.00000000  1
  Mg  Mg12  1  0.74947377  0.24313235  -0.00000000  1
  Mg  Mg13  1  0.74947377  0.75686765  -0.00000000  1
  Ti  Ti0  1  0.00000000  0.50000000  0.00000000  1
  Cu  Cu0  1  0.00000000  0.00000000  0.00000000  1
  O  O0  1  0.26441138  0.00000000  0.00000000  1
  O  O1  1  0.24821255  0.50000000  -0.00000000  1
  O  O2  1  0.73558862  0.00000000  0.00000000  1
  O  O3  1  0.75178745  0.50000000  0.00000000  1
  O  O4  1  0.24816902  0.25096057  0.50000000  1
  O  O5  1  0.24816902  0.74903943  0.50000000  1
  O  O6  1  0.75183098  0.25096057  0.50000000  1
  O  O7  1  0.75183098  0.74903943  0.50000000  1
  O  O8  1  0.00000000  0.00000000  0.50000000  1
  O  O9  1  0.00000000  0.50000000  0.50000000  1
  O  O10  1  0.50000000  0.00000000  0.50000000  1
  O  O11  1  0.50000000  0.50000000  0.50000000  1
  O  O12  1  0.00000000  0.26967645  0.00000000  1
  O  O13  1  0.00000000  0.73032355  0.00000000  1
  O  O14  1  0.50000000  0.25437228  0.00000000  1
  O  O15  1  0.50000000  0.74562772  0.00000000  1
loop_
_geom_bond_atom_site_label_1
_geom_bond_atom_site_label_2
_geom_bond_distance
_geom_bond_site_symmetry_2
Mg0 O0 2.019488 1_555
Mg0 O2 2.019488 1_555
Mg0 O10 2.119711 1_555
Mg0 O10 2.119711 1_554
Mg0 O15 2.192416 1_545
Mg0 O14 2.192416 1_555
Mg1 O14 2.117047 1_555
Mg1 O15 2.117047 1_555
Mg1 O11 2.119711 1_554
Mg1 O11 2.119711 1_555
Mg1 O1 2.158346 1_555
Mg1 O3 2.158346 1_555
Mg2 O8 2.077956 1_555
Mg2 O4 2.129028 1_555
Mg2 O6 2.129028 1_455
Mg2 O12 2.133980 1_556
Mg2 O12 2.133980 1_555
Mg2 O9 2.231508 1_555
Mg3 O8 2.077956 1_565
Mg3 O7 2.129028 1_455
Mg3 O5 2.129028 1_555
Mg3 O13 2.133980 1_555
Mg3 O13 2.133980 1_556
Mg3 O9 2.231508 1_555
Mg4 O14 2.120491 1_556
Mg4 O14 2.120491 1_555
Mg4 O10 2.134924 1_555
Mg4 O4 2.158901 1_555
Mg4 O6 2.158901 1_555
Mg4 O11 2.174540 1_555
Mg5 O15 2.120491 1_556
Mg5 O15 2.120491 1_555
Mg5 O10 2.134924 1_565
Mg5 O7 2.158901 1_555
Mg5 O5 2.158901 1_555
Mg5 O11 2.174540 1_555
Mg6 O8 2.118657 1_555
Mg6 O0 2.124865 1_556
Mg6 O0 2.124865 1_555
Mg6 O4 2.163028 1_555
Mg6 O5 2.163028 1_545
Mg6 O10 2.167390 1_555
Mg7 O1 2.120042 1_556
Mg7 O1 2.120042 1_555
Mg7 O11 2.120889 1_555
Mg7 O5 2.146786 1_555
Mg7 O4 2.146786 1_555
Mg7 O9 2.165158 1_555
Mg8 O8 2.118657 1_655
Mg8 O2 2.124865 1_555
Mg8 O2 2.124865 1_556
Mg8 O6 2.163028 1_555
Mg8 O7 2.163028 1_545
Mg8 O10 2.167390 1_555
Mg9 O3 2.120042 1_556
Mg9 O3 2.120042 1_555
Mg9 O11 2.120889 1_555
Mg9 O7 2.146786 1_555
Mg9 O6 2.146786 1_555
Mg9 O9 2.165158 1_655
Mg10 O0 2.098918 1_555
Mg10 O4 2.120881 1_554
Mg10 O4 2.120881 1_555
Mg10 O14 2.140706 1_555
Mg10 O12 2.159686 1_555
Mg10 O1 2.214012 1_555
Mg11 O0 2.098918 1_565
Mg11 O5 2.120881 1_554
Mg11 O5 2.120881 1_555
Mg11 O15 2.140706 1_555
Mg11 O13 2.159686 1_555
Mg11 O1 2.214012 1_555
Mg12 O2 2.098918 1_555
Mg12 O6 2.120881 1_555
Mg12 O6 2.120881 1_554
Mg12 O14 2.140706 1_555
Mg12 O12 2.159686 1_655
Mg12 O3 2.214012 1_555
Mg13 O2 2.098918 1_565
Mg13 O7 2.120881 1_555
Mg13 O7 2.120881 1_554
Mg13 O15 2.140706 1_555
Mg13 O13 2.159686 1_655
Mg13 O3 2.214012 1_555
Cu0 O8 2.119711 1_555
Cu0 O8 2.119711 1_554
Cu0 O2 2.266559 1_455
Cu0 O0 2.266559 1_555
Cu0 O13 2.324322 1_545
Cu0 O12 2.324322 1_555
O1 Ti0 2.127701 1_555
O3 Ti0 2.127701 1_655
O9 Ti0 2.119711 1_555
O9 Ti0 2.119711 1_556
O12 Ti0 1.985142 1_555
O13 Ti0 1.985142 1_555
