# generated using pymatgen
data_Tm2TlZn
_symmetry_space_group_name_H-M   'P 1'
_cell_length_a   5.11526739
_cell_length_b   5.11526739
_cell_length_c   5.11526739
_cell_angle_alpha   60.00000000
_cell_angle_beta   60.00000000
_cell_angle_gamma   60.00000000
_symmetry_Int_Tables_number   1
_chemical_formula_structural   Tm2TlZn
_chemical_formula_sum   'Tm2 Tl1 Zn1'
_cell_volume   94.64333252
_cell_formula_units_Z   1
loop_
 _symmetry_equiv_pos_site_id
 _symmetry_equiv_pos_as_xyz
  1  'x, y, z'
loop_
 _atom_site_type_symbol
 _atom_site_label
 _atom_site_symmetry_multiplicity
 _atom_site_fract_x
 _atom_site_fract_y
 _atom_site_fract_z
 _atom_site_occupancy
  Tm  Tm0  1  0.25000000  0.25000000  0.25000000  1
  Tm  Tm1  1  0.75000000  0.75000000  0.75000000  1
  Tl  Tl0  1  0.50000000  0.50000000  0.50000000  1
  Zn  Zn0  1  0.00000000  -0.00000000  -0.00000000  1
loop_
_geom_bond_atom_site_label_1
_geom_bond_atom_site_label_2
_geom_bond_distance
_geom_bond_site_symmetry_2
Tm0 Zn0 3.132449 1_556
Tm0 Zn0 3.132449 1_565
Tm0 Zn0 3.132449 1_555
Tm0 Zn0 3.132449 1_655
Tm1 Zn0 3.132449 1_665
Tm1 Zn0 3.132449 1_666
Tm1 Zn0 3.132449 1_656
Tm1 Zn0 3.132449 1_566
Tl0 Tm1 3.132449 1_555
Tl0 Tm1 3.132449 1_545
Tl0 Tm0 3.132449 1_555
Tl0 Tm0 3.132449 1_556
Tl0 Tm0 3.132449 1_565
Tl0 Tm1 3.132449 1_554
Tl0 Tm0 3.132449 1_655
Tl0 Tm1 3.132449 1_455
