# generated using pymatgen
data_Cs5CoAgCl8
_symmetry_space_group_name_H-M   'P 1'
_cell_length_a   13.77276033
_cell_length_b   13.76869057
_cell_length_c   9.43765284
_cell_angle_alpha   69.98353173
_cell_angle_beta   69.93710877
_cell_angle_gamma   40.07935950
_symmetry_Int_Tables_number   1
_chemical_formula_structural   Cs5CoAgCl8
_chemical_formula_sum   'Cs10 Co2 Ag2 Cl16'
_cell_volume   1072.89870554
_cell_formula_units_Z   2
loop_
 _symmetry_equiv_pos_site_id
 _symmetry_equiv_pos_as_xyz
  1  'x, y, z'
loop_
 _atom_site_type_symbol
 _atom_site_label
 _atom_site_symmetry_multiplicity
 _atom_site_fract_x
 _atom_site_fract_y
 _atom_site_fract_z
 _atom_site_occupancy
  Cs  Cs0  1  0.24930800  0.25069200  0.25069200  1
  Cs  Cs1  1  0.74930800  0.75069200  0.75069200  1
  Cs  Cs2  1  0.05971700  0.75270800  0.25555800  1
  Cs  Cs3  1  0.74444200  0.06798400  0.94028300  1
  Cs  Cs4  1  0.24774800  0.56577900  0.75225200  1
  Cs  Cs5  1  0.56605400  0.24664000  0.43394600  1
  Cs  Cs6  1  0.93201600  0.25555800  0.75270800  1
  Cs  Cs7  1  0.24729200  0.94028300  0.06798400  1
  Cs  Cs8  1  0.75336000  0.43394600  0.24664000  1
  Cs  Cs9  1  0.43422100  0.75225200  0.56577900  1
  Co  Co0  1  0.24992300  0.24997400  0.75007700  1
  Co  Co1  1  0.75002600  0.75007700  0.24997400  1
  Ag  Ag0  1  0.46953800  0.53046200  0.03244000  1
  Ag  Ag1  1  0.96756000  0.03244000  0.53046200  1
  Cl  Cl0  1  0.16951300  0.44278500  0.55818100  1
  Cl  Cl1  1  0.44181900  0.17047900  0.83048700  1
  Cl  Cl2  1  0.94232400  0.66993900  0.05767600  1
  Cl  Cl3  1  0.66942000  0.94262600  0.33058000  1
  Cl  Cl4  1  0.82952100  0.55818100  0.44278500  1
  Cl  Cl5  1  0.55721500  0.83048700  0.17047900  1
  Cl  Cl6  1  0.05737400  0.33058000  0.94262600  1
  Cl  Cl7  1  0.33006100  0.05767600  0.66993900  1
  Cl  Cl8  1  0.36150200  0.63849800  0.34164900  1
  Cl  Cl9  1  0.65835100  0.34164900  0.63849800  1
  Cl  Cl10  1  0.14646400  0.85353600  0.85353600  1
  Cl  Cl11  1  0.85432300  0.14567700  0.14567700  1
  Cl  Cl12  1  0.39470100  0.40553300  0.10266800  1
  Cl  Cl13  1  0.89733200  0.90290200  0.60529900  1
  Cl  Cl14  1  0.59446700  0.60529900  0.90290200  1
  Cl  Cl15  1  0.09709800  0.10266800  0.40553300  1
loop_
_geom_bond_atom_site_label_1
_geom_bond_atom_site_label_2
_geom_bond_distance
_geom_bond_site_symmetry_2
Ag0 Cl14 2.434007 1_554
Ag0 Cl12 2.434007 1_555
Ag0 Cl8 3.089991 1_555
Ag1 Cl15 2.434007 1_655
Ag1 Cl13 2.434007 1_545
Ag1 Cl9 3.089991 1_555
Cl0 Co0 2.267075 1_555
Cl0 Cs2 3.660339 1_555
Cl0 Cs4 3.695044 1_555
Cl0 Cs5 3.701188 1_555
Cl0 Cs0 3.904185 1_555
Cl0 Cs1 3.908944 1_455
Cl1 Co0 2.267075 1_555
Cl1 Cs3 3.660347 1_555
Cl1 Cs4 3.695044 1_555
Cl1 Cs5 3.701188 1_555
Cl1 Cs1 3.904185 1_545
Cl1 Cs0 3.908944 1_556
Cl2 Co1 2.264195 1_555
Cl2 Cs4 3.652288 1_654
Cl2 Cs2 3.707955 1_655
Cl2 Cs3 3.707966 1_564
Cl2 Cs0 3.905481 1_655
Cl2 Cs1 3.905481 1_554
Cl3 Co1 2.266489 1_555
Cl3 Cs5 3.636372 1_565
Cl3 Cs2 3.657907 1_655
Cl3 Cs3 3.657912 1_564
Cl3 Cs1 3.909612 1_555
Cl3 Cs0 3.909612 1_565
Cl4 Co1 2.267075 1_555
Cl4 Cs6 3.660341 1_555
Cl4 Cs9 3.695044 1_555
Cl4 Cs8 3.701188 1_555
Cl4 Cs0 3.904185 1_655
Cl4 Cs1 3.908944 1_555
Cl5 Co1 2.267075 1_555
Cl5 Cs7 3.660334 1_555
Cl5 Cs9 3.695044 1_555
Cl5 Cs8 3.701188 1_555
Cl5 Cs1 3.904185 1_554
Cl5 Cs0 3.908944 1_565
Cl6 Co0 2.266489 1_555
Cl6 Cs8 3.636372 1_456
Cl6 Cs7 3.657907 1_546
Cl6 Cs6 3.657919 1_455
Cl6 Cs0 3.909612 1_556
Cl6 Cs1 3.909612 1_455
Cl7 Co0 2.264195 1_555
Cl7 Cs9 3.652288 1_545
Cl7 Cs7 3.707962 1_546
Cl7 Cs6 3.707967 1_455
Cl7 Cs0 3.905481 1_555
Cl7 Cs1 3.905481 1_545
Cl8 Cs7 3.442223 1_555
Cl8 Cs2 3.442228 1_555
Cl8 Cs5 3.607108 1_555
Cl8 Cs8 3.607108 1_555
Cl8 Cs4 3.748681 1_555
Cl8 Cs9 3.748681 1_555
Cl9 Cs6 3.442215 1_555
Cl9 Cs3 3.442220 1_555
Cl9 Cs8 3.607108 1_555
Cl9 Cs5 3.607108 1_555
Cl9 Cs4 3.748681 1_555
Cl9 Cs9 3.748681 1_555
Cl10 Cs4 3.431814 1_555
Cl10 Cs9 3.431814 1_555
Cl10 Cs3 3.684075 1_465
Cl10 Cs6 3.684075 1_465
Cl10 Cs2 3.684078 1_556
Cl10 Cs7 3.684086 1_556
Cl11 Cs8 3.439351 1_555
Cl11 Cs5 3.439351 1_555
Cl11 Cs3 3.619643 1_554
Cl11 Cs6 3.619650 1_554
Cl11 Cs2 3.619654 1_645
Cl11 Cs7 3.619654 1_645
Cl12 Cs5 3.550997 1_555
Cl12 Cs2 3.552838 1_555
Cl12 Cs4 3.558771 1_554
Cl12 Cs3 3.564199 1_554
Cl12 Cs0 3.616849 1_555
Cl13 Cs5 3.550997 1_565
Cl13 Cs3 3.552844 1_565
Cl13 Cs4 3.558771 1_655
Cl13 Cs2 3.564205 1_655
Cl13 Cs1 3.616849 1_555
Cl14 Cs8 3.550997 1_556
Cl14 Cs7 3.552842 1_556
Cl14 Cs9 3.558771 1_555
Cl14 Cs6 3.564203 1_555
Cl14 Cs1 3.616849 1_555
Cl15 Cs8 3.550997 1_455
Cl15 Cs6 3.552836 1_455
Cl15 Cs9 3.558771 1_545
Cl15 Cs7 3.564197 1_545
Cl15 Cs0 3.616849 1_555
